# Generated by pormake.
# Topology rkf, (6)-cn, num edge types: 1
# Building blocks:
#     Node 0, Type 0, BuildingBlock: CUWYAW_clean_sbu_0, # of connection points: 6
#     Node 1, Type 0, BuildingBlock: CUWYAW_clean_sbu_0, # of connection points: 6
#     Node 2, Type 0, BuildingBlock: CUWYAW_clean_sbu_0, # of connection points: 6
#     Node 3, Type 0, BuildingBlock: CUWYAW_clean_sbu_0, # of connection points: 6
#     Node 4, Type 0, BuildingBlock: CUWYAW_clean_sbu_0, # of connection points: 6
#     Node 5, Type 0, BuildingBlock: CUWYAW_clean_sbu_0, # of connection points: 6
#     Edge 6, Type (0, 0), BuildingBlock: XUDNAN_clean_linker_2, # of connection points: 2
#     Edge 7, Type (0, 0), BuildingBlock: XUDNAN_clean_linker_2, # of connection points: 2
#     Edge 8, Type (0, 0), BuildingBlock: XUDNAN_clean_linker_2, # of connection points: 2
#     Edge 9, Type (0, 0), BuildingBlock: XUDNAN_clean_linker_2, # of connection points: 2
#     Edge 10, Type (0, 0), BuildingBlock: XUDNAN_clean_linker_2, # of connection points: 2
#     Edge 11, Type (0, 0), BuildingBlock: XUDNAN_clean_linker_2, # of connection points: 2
#     Edge 12, Type (0, 0), BuildingBlock: XUDNAN_clean_linker_2, # of connection points: 2
#     Edge 13, Type (0, 0), BuildingBlock: XUDNAN_clean_linker_2, # of connection points: 2
#     Edge 14, Type (0, 0), BuildingBlock: XUDNAN_clean_linker_2, # of connection points: 2
#     Edge 15, Type (0, 0), BuildingBlock: XUDNAN_clean_linker_2, # of connection points: 2
#     Edge 16, Type (0, 0), BuildingBlock: XUDNAN_clean_linker_2, # of connection points: 2
#     Edge 17, Type (0, 0), BuildingBlock: XUDNAN_clean_linker_2, # of connection points: 2
#     Edge 18, Type (0, 0), BuildingBlock: XUDNAN_clean_linker_2, # of connection points: 2
#     Edge 19, Type (0, 0), BuildingBlock: XUDNAN_clean_linker_2, # of connection points: 2
#     Edge 20, Type (0, 0), BuildingBlock: XUDNAN_clean_linker_2, # of connection points: 2
#     Edge 21, Type (0, 0), BuildingBlock: XUDNAN_clean_linker_2, # of connection points: 2
#     Edge 22, Type (0, 0), BuildingBlock: XUDNAN_clean_linker_2, # of connection points: 2
#     Edge 23, Type (0, 0), BuildingBlock: XUDNAN_clean_linker_2, # of connection points: 2
# Relax obj value: 0.746
# Max RMSD: 0.261
# Mean RMSD: 0.261
data_MOF--net-rkf--node1-CUWYAW_clean_sbu_0--edge1-XUDNAN_clean_linker_2
_symmetry_space_group_name_H-M    P1
_symmetry_Int_Tables_number       1
_symmetry_cell_setting            triclinic
loop_
_symmetry_equiv_pos_as_xyz
'x, y, z'
_cell_length_a     24.771169
_cell_length_b     24.801311
_cell_length_c     45.567814
_cell_angle_alpha  89.216542
_cell_angle_beta   90.335375
_cell_angle_gamma 120.16991
loop_
_atom_site_label
_atom_site_type_symbol
_atom_site_fract_x
_atom_site_fract_y
_atom_site_fract_z
_atom_type_partial_charge
C0 C 0.27567 0.23222 1.10505 0.0
Eu1 Eu 0.2968 0.14535 1.125 0.0
C2 C 0.31362 0.30014 1.10146 0.0
C3 C 0.37523 0.33252 1.11193 0.0
C4 C 0.41633 0.39335 1.10206 0.0
C5 C 0.3963 0.42252 1.08158 0.0
C6 C 0.3329 0.39156 1.07327 0.0
C7 C 0.29204 0.33083 1.08308 0.0
C8 C 0.41348 0.16541 0.13194 0.0
C9 C 0.26857 0.03733 1.07315 0.0
C10 C 0.33826 0.95271 0.16211 0.0
Eu11 Eu 0.30214 0.02902 0.14266 0.0
C12 C 0.36043 0.9438 0.19069 0.0
C13 C 0.3494 0.8846 0.1991 0.0
C14 C 0.35208 0.87062 0.22874 0.0
C15 C 0.36349 0.91508 0.2505 0.0
C16 C 0.38158 0.97646 0.2413 0.0
C17 C 0.38071 -0.00935 0.21166 0.0
C18 C 0.18445 0.0077 0.13579 0.0
C19 C 0.31222 0.12802 0.19586 0.0
O20 O 0.29316 0.20104 1.08863 0.0
O21 O 0.26197 0.20979 0.1318 0.0
O22 O 0.39825 0.20731 0.1364 0.0
O23 O 0.36878 0.11766 1.12055 0.0
O24 O 0.27002 0.0898 1.08068 0.0
O25 O 0.28556 0.00821 1.09284 0.0
O26 O 0.37499 0.00438 0.14767 0.0
O27 O 0.28026 0.93995 0.16227 0.0
O28 O 0.20011 0.9656 0.13213 0.0
O29 O 0.23039 0.05629 0.14612 0.0
O30 O 0.32002 0.08076 0.18747 0.0
O31 O 0.29682 0.15753 0.17572 0.0
H32 H 0.39267 0.30947 1.12618 0.0
H33 H 0.46465 0.41604 1.10902 0.0
H34 H 0.31587 0.41193 1.05716 0.0
H35 H 0.24478 0.30632 1.0746 0.0
H36 H 0.33436 0.84794 0.18307 0.0
H37 H 0.34064 0.82363 0.23465 0.0
H38 H 0.3909 0.01266 0.25684 0.0
H39 H 0.3907 0.03694 0.20539 0.0
C40 C 0.2562 0.39409 0.44761 0.0
Eu41 Eu 0.33255 0.3553 0.46267 0.0
C42 C 0.24373 0.43317 0.42753 0.0
C43 C 0.29166 0.49091 0.41692 0.0
C44 C 0.27719 0.52913 0.39972 0.0
C45 C 0.21465 0.51018 0.39305 0.0
C46 C 0.1671 0.45221 0.40382 0.0
C47 C 0.18157 0.41424 0.42092 0.0
C48 C 0.4589 0.43075 0.46599 0.0
C49 C 0.36466 0.28389 0.40871 0.0
C50 C 0.48479 0.26537 0.49926 0.0
Eu51 Eu 0.40094 0.28961 0.47877 0.0
C52 C 0.50535 0.25854 0.52887 0.0
C53 C 0.46429 0.21116 0.54819 0.0
C54 C 0.48152 0.20992 0.57725 0.0
C55 C 0.54011 0.25603 0.5877 0.0
C56 C 0.58238 0.30163 0.56801 0.0
C57 C 0.56523 0.30265 0.53879 0.0
C58 C 0.27718 0.21669 0.47453 0.0
C59 C 0.3396 0.33308 0.53361 0.0
O60 O 0.25126 0.34253 0.43761 0.0
O61 O 0.30239 0.42307 0.46598 0.0
O62 O 0.41921 0.44622 0.4749 0.0
O63 O 0.43051 0.37789 0.45442 0.0
O64 O 0.33178 0.31074 0.41691 0.0
O65 O 0.4005 0.27682 0.42863 0.0
O66 O 0.49687 0.3217 0.49205 0.0
O67 O 0.42905 0.2221 0.49092 0.0
O68 O 0.31479 0.19894 0.46459 0.0
O69 O 0.3063 0.2688 0.48625 0.0
O70 O 0.38235 0.31738 0.5262 0.0
O71 O 0.30776 0.3407 0.51196 0.0
H72 H 0.34004 0.50655 0.42205 0.0
H73 H 0.3148 0.57332 0.39159 0.0
H74 H 0.1186 0.43523 0.39839 0.0
H75 H 0.14402 0.37 0.42912 0.0
H76 H 0.41779 0.17644 0.5413 0.0
H77 H 0.44733 0.1748 0.59195 0.0
H78 H 0.62787 0.33759 0.57544 0.0
H79 H 0.59788 0.33941 0.52423 0.0
C80 C 0.96216 0.27408 0.77403 0.0
Eu81 Eu 0.08035 0.33508 0.78797 0.0
C82 C 0.92025 0.22216 0.75537 0.0
C83 C 0.94376 0.19463 0.73649 0.0
C84 C 0.90269 0.14141 0.72087 0.0
C85 C 0.8378 0.11568 0.72371 0.0
C86 C 0.81464 0.14486 0.7418 0.0
C87 C 0.85568 0.19764 0.75765 0.0
C88 C 0.14074 0.46235 0.78963 0.0
C89 C 0.18441 0.35037 0.73993 0.0
C90 C 0.32421 0.47249 0.82332 0.0
Eu91 Eu 0.20814 0.39154 0.81119 0.0
C92 C 0.36029 0.50396 0.84955 0.0
C93 C 0.32983 0.49684 0.87631 0.0
C94 C 0.36439 0.52286 0.90173 0.0
C95 C 0.43019 0.55666 0.90088 0.0
C96 C 0.46044 0.56523 0.87375 0.0
C97 C 0.42565 0.53904 0.84826 0.0
C98 C 0.14519 0.26719 0.81553 0.0
C99 C 0.09607 0.3333 0.86105 0.0
O100 O -0.0147 0.25993 0.79671 0.0
O101 O 0.00365 0.32453 0.76043 0.0
O102 O 0.10722 0.42903 0.76808 0.0
O103 O 0.14172 0.42705 0.80959 0.0
O104 O 0.12436 0.31822 0.74741 0.0
O105 O 0.22543 0.38699 0.76023 0.0
O106 O 0.28332 0.48801 0.81466 0.0
O107 O 0.30218 0.4123 0.82256 0.0
O108 O 0.18856 0.30295 0.8339 0.0
O109 O 0.14372 0.29856 0.79373 0.0
O110 O 0.15775 0.37066 0.85713 0.0
O111 O 0.05924 0.31408 0.83753 0.0
H112 H -0.00638 0.21316 0.73454 0.0
H113 H 0.92156 0.12012 0.70673 0.0
H114 H 0.76481 0.12588 0.74425 0.0
H115 H 0.83701 0.21854 0.77217 0.0
H116 H 0.27936 0.4696 0.87769 0.0
H117 H 0.33939 0.51382 0.92229 0.0
H118 H 0.51093 0.59098 0.87236 0.0
H119 H 0.44979 0.54495 0.82767 0.0
C120 C 0.76454 0.97235 1.11058 0.0
Eu121 Eu 0.84308 0.08613 1.12673 0.0
C122 C 0.7529 0.92663 1.08781 0.0
C123 C 0.69422 0.87225 1.08645 0.0
C124 C 0.68375 0.8251 1.06686 0.0
C125 C 0.73231 0.8315 1.04878 0.0
C126 C 0.79056 0.88688 1.04958 0.0
C127 C 0.80058 0.93443 1.06878 0.0
C128 C 0.80055 0.16092 0.14605 0.0
C129 C 0.92165 0.18329 1.06907 0.0
C130 C 0.00839 0.33463 0.15156 0.0
Eu131 Eu 0.94415 0.21707 0.13838 0.0
C132 C 0.02014 0.3808 0.17399 0.0
C133 C 0.06519 0.4432 0.16846 0.0
C134 C 0.07998 0.48802 0.18995 0.0
C135 C 0.04972 0.47094 0.2173 0.0
C136 C 0.00245 0.40863 0.22225 0.0
C137 C -0.01223 0.36376 0.20071 0.0
C138 C -0.01737 0.13951 1.11906 0.0
C139 C 0.88932 0.11545 0.19539 0.0
O140 O 0.8126 -0.01268 1.12759 0.0
O141 O 0.75869 0.02028 1.10318 0.0
O142 O 0.78065 0.10438 0.15499 0.0
O143 O 0.84346 0.17635 1.12732 0.0
O144 O 0.88216 0.12499 1.07892 0.0
O145 O 0.94824 0.22915 1.08822 0.0
O146 O 0.95357 0.30893 0.13892 0.0
O147 O 0.02782 0.29511 0.15695 0.0
O148 O 0.01162 0.19881 1.11294 0.0
O149 O 0.94066 0.12695 0.13747 0.0
O150 O 0.92203 0.17504 0.18613 0.0
O151 O 0.85746 0.07085 0.1759 0.0
H152 H 0.6569 0.86568 1.10102 0.0
H153 H 0.63849 0.78289 1.0665 0.0
H154 H 0.8284 0.89318 1.03547 0.0
H155 H 0.84568 0.97668 1.06915 0.0
H156 H 0.09007 0.45701 0.14773 0.0
H157 H 0.11653 0.5356 0.18559 0.0
H158 H -0.02083 0.39386 0.24332 0.0
H159 H 0.95258 0.31566 0.20516 0.0
C160 C 0.04706 -0.00547 0.46359 0.0
Eu161 Eu 0.92634 0.94275 0.46995 0.0
C162 C 0.0886 0.9759 0.44951 0.0
C163 C 0.08482 0.91875 0.45671 0.0
C164 C 0.12187 0.89996 0.44213 0.0
C165 C 0.16328 0.93765 0.41992 0.0
C166 C 0.16824 -0.00439 0.41329 0.0
C167 C 0.13122 0.01449 0.42797 0.0
C168 C 0.85519 0.81739 0.45884 0.0
C169 C 0.86536 0.95921 0.4077 0.0
C170 C 0.67386 0.83169 0.47956 0.0
Eu171 Eu 0.79299 0.8947 0.46894 0.0
C172 C 0.643 0.83712 0.50607 0.0
C173 C 0.66011 0.89664 0.51657 0.0
C174 C 0.64881 0.90437 0.54564 0.0
C175 C 0.62076 0.85286 0.56496 0.0
C176 C 0.59733 0.79268 0.55366 0.0
C177 C 0.60786 0.7849 0.52428 0.0
C178 C 0.85695 0.01835 0.47856 0.0
C179 C 0.86974 0.90458 0.53351 0.0
O180 O 0.0123 0.0067 0.4462 0.0
O181 O 0.01654 0.96213 0.48668 0.0
O182 O 0.90114 0.84099 0.47707 0.0
O183 O 0.84835 0.85989 0.44775 0.0
O184 O 0.91456 -0.01769 0.42556 0.0
O185 O 0.81053 0.91457 0.41837 0.0
O186 O 0.71066 0.80881 0.48413 0.0
O187 O 0.69956 0.88072 0.46228 0.0
O188 O 0.80745 -0.00833 0.46248 0.0
O189 O 0.86854 0.97838 0.48955 0.0
O190 O 0.81671 0.87402 0.51768 0.0
O191 O 0.92007 0.9468 0.51957 0.0
H192 H 0.0524 0.88783 0.47325 0.0
H193 H 0.1174 0.8554 0.44795 0.0
H194 H 0.19892 0.02536 0.39596 0.0
H195 H 0.13467 0.05847 0.42193 0.0
H196 H 0.68724 0.9381 0.5032 0.0
H197 H 0.66796 0.95148 0.55358 0.0
H198 H 0.57477 0.75208 0.56799 0.0
H199 H 0.59275 0.73855 0.5165 0.0
C200 C 0.1655 0.05698 0.7834 0.0
Eu201 Eu 0.09497 0.93973 0.79805 0.0
C202 C 0.23295 0.10045 0.7825 0.0
C203 C 0.2746 0.08039 0.79101 0.0
C204 C 0.33779 0.11601 0.78363 0.0
C205 C 0.36003 0.17212 0.76766 0.0
C206 C 0.31901 0.19462 0.76161 0.0
C207 C 0.2558 0.15883 0.76889 0.0
C208 C 0.13842 0.85819 0.79234 0.0
C209 C -0.0048 0.86529 0.74453 0.0
C210 C 0.94587 0.69049 0.82469 0.0
Eu211 Eu 0.00235 0.80732 0.80864 0.0
C212 C 0.91275 0.66187 0.85239 0.0
C213 C 0.85045 0.6131 0.85167 0.0
C214 C 0.81243 0.59857 0.87654 0.0
C215 C 0.83608 0.63308 0.90243 0.0
C216 C 0.90018 0.67773 0.90374 0.0
C217 C 0.93805 0.69174 0.87906 0.0
C218 C 0.9544 0.88097 0.81842 0.0
C219 C 0.09257 0.89801 0.86558 0.0
O220 O 0.14573 0.01119 0.76489 0.0
O221 O 0.13994 0.03845 0.80929 0.0
O222 O 0.16929 0.91177 0.80491 0.0
O223 O 0.08787 0.85135 0.78269 0.0
O224 O 0.02819 0.91957 0.75812 0.0
O225 O -0.01416 0.81359 0.7586 0.0
O226 O 0.00655 0.72701 0.8262 0.0
O227 O 0.91952 0.71486 0.80866 0.0
O228 O 0.92128 0.82512 0.80847 0.0
O229 O 0.00865 0.89302 0.8249 0.0
O230 O 0.05461 0.84072 0.8547 0.0
O231 O 0.11113 0.94689 0.84782 0.0
H232 H 0.2576 0.03537 0.8016 0.0
H233 H 0.3684 0.09773 0.78868 0.0
H234 H 0.33446 0.23723 0.74898 0.0
H235 H 0.22413 0.1748 0.7621 0.0
H236 H 0.82993 0.58949 0.83128 0.0
H237 H 0.76366 0.56304 0.87489 0.0
H238 H 0.92046 0.7061 0.92296 0.0
H239 H -0.01413 0.72958 0.88037 0.0
H240 H 0.92934 0.01565 1.12853 0.0
H241 H 0.02587 0.15951 1.06297 0.0
H242 H 0.04269 0.08766 1.03394 0.0
H243 H -0.01635 0.96453 0.14918 0.0
H244 H 0.95577 0.88271 0.14447 0.0
H245 H 0.90245 0.9113 0.14079 0.0
H246 H 0.87287 0.85941 1.08994 0.0
H247 H 0.93012 0.83519 1.09364 0.0
H248 H 0.93167 0.88046 1.06214 0.0
H249 H 0.1295 0.09413 1.06069 0.0
H250 H 0.1933 0.10263 1.10234 0.0
H251 H 0.06188 0.91706 1.13105 0.0
C252 C 0.95108 0.02974 1.10716 0.0
C253 C -0.02063 0.09301 1.0986 0.0
C254 C 0.0064 0.11179 1.07063 0.0
C255 C 0.01421 0.07032 1.05355 0.0
C256 C 0.00222 0.01404 1.06661 0.0
C257 C 0.96117 -0.01161 1.09026 0.0
C258 C 0.96561 0.93382 1.10313 0.0
C259 C 0.95117 0.92268 0.13638 0.0
C260 C 0.92263 0.87378 1.08617 0.0
C261 C 0.03309 0.95655 1.09572 0.0
C262 C 0.05325 0.00333 1.07411 0.0
C263 C 0.11449 0.0537 1.07488 0.0
C264 C 0.15197 0.05869 1.09855 0.0
C265 C 0.13628 0.00757 1.11703 0.0
C266 C 0.07642 0.95475 1.11518 0.0
H267 H 0.93485 0.09207 0.51944 0.0
H268 H 0.89107 0.085 0.42724 0.0
H269 H 0.00263 0.15444 0.41581 0.0
H270 H 0.09359 0.26225 0.51334 0.0
H271 H 0.12043 0.23363 0.54324 0.0
H272 H 0.04011 0.21313 0.5416 0.0
H273 H 0.01648 0.09819 0.54723 0.0
H274 H 0.09661 0.11933 0.54366 0.0
H275 H 0.03981 0.06541 0.51821 0.0
H276 H 0.1124 0.1768 0.41317 0.0
H277 H 0.21884 0.19304 0.42128 0.0
H278 H 0.1898 0.18431 0.51509 0.0
C279 C 0.94873 0.10934 0.49719 0.0
C280 C 0.90627 0.08255 0.47413 0.0
C281 C 0.92407 0.10497 0.44511 0.0
C282 C -0.01265 0.1437 0.4384 0.0
C283 C 0.03025 0.1607 0.46125 0.0
C284 C 0.01147 0.14767 0.49036 0.0
C285 C 0.0656 0.16316 0.51053 0.0
C286 C 0.08099 0.22158 0.52815 0.0
C287 C 0.05381 0.1082 0.53104 0.0
C288 C 0.11514 0.17643 0.48799 0.0
C289 C 0.09476 0.17664 0.45969 0.0
C290 C 0.12997 0.17962 0.43523 0.0
C291 C 0.18921 0.18668 0.43993 0.0
C292 C 0.21107 0.18914 0.4688 0.0
C293 C 0.17332 0.18276 0.4929 0.0
H294 H 0.90621 0.9384 0.78766 0.0
H295 H 0.95168 0.90722 0.87529 0.0
H296 H 0.96836 0.00865 0.89035 0.0
H297 H 0.00823 0.0533 0.77143 0.0
H298 H -0.01821 0.10238 0.75492 0.0
H299 H 0.93093 0.02002 0.75581 0.0
H300 H 0.84757 0.03294 0.78136 0.0
H301 H 0.89626 0.1163 0.78401 0.0
H302 H 0.86238 0.07068 0.81642 0.0
H303 H 0.03763 0.11695 0.88717 0.0
H304 H 0.12606 0.21571 0.87011 0.0
H305 H 0.04278 0.18789 0.78384 0.0
C306 C 0.91428 0.95161 0.81051 0.0
C307 C 0.92827 0.91683 0.83034 0.0
C308 C 0.94057 0.93409 0.85999 0.0
C309 C 0.9502 -0.00812 0.86865 0.0
C310 C 0.94754 0.03122 0.84725 0.0
C311 C 0.92602 0.01048 0.81901 0.0
C312 C 0.94157 0.06488 0.79853 0.0
C313 C 0.96725 0.05978 0.76847 0.0
C314 C 0.88347 0.07146 0.79482 0.0
C315 C -0.0098 0.11743 0.81682 0.0
C316 C -0.011 0.09799 0.84561 0.0
C317 C 0.03718 0.1335 0.86513 0.0
C318 C 0.08816 0.18896 0.85502 0.0
C319 C 0.09088 0.20871 0.82558 0.0
C320 C 0.04073 0.17352 0.80653 0.0
H321 H 0.38526 0.52194 1.06329 0.0
H322 H 0.50825 0.44555 1.05945 0.0
H323 H 0.56123 0.51188 1.01675 0.0
H324 H 0.34375 0.50383 0.99901 0.0
H325 H 0.34196 0.57409 0.99031 0.0
H326 H 0.33593 0.54906 1.02764 0.0
H327 H 0.43149 0.65521 1.04155 0.0
H328 H 0.43742 0.68129 1.00393 0.0
H329 H 0.50395 0.68433 1.02183 0.0
H330 H 0.56828 0.54552 0.96617 0.0
H331 H 0.53204 0.54666 0.91608 0.0
H332 H 0.4065 0.60545 0.94919 0.0
C333 C 0.42562 0.52202 1.05428 0.0
C334 C 0.44212 0.47828 1.06449 0.0
C335 C 0.49497 0.4791 1.05232 0.0
C336 C 0.5255 0.51683 1.02786 0.0
C337 C 0.50325 0.55413 1.01601 0.0
C338 C 0.45569 0.55878 1.02946 0.0
C339 C 0.43081 0.59037 1.00928 0.0
C340 C 0.35896 0.55195 1.00638 0.0
C341 C 0.45222 0.65675 1.01977 0.0
C342 C 0.46358 0.59235 0.981 0.0
C343 C 0.50797 0.57484 0.98569 0.0
C344 C 0.5355 0.5616 0.96233 0.0
C345 C 0.51456 0.56239 0.93378 0.0
C346 C 0.46594 0.57564 0.92882 0.0
C347 C 0.44363 0.59505 0.95251 0.0
H348 H 0.27347 0.56564 0.34201 0.0
H349 H 0.11703 0.53241 0.39652 0.0
H350 H 0.06992 0.55723 0.35471 0.0
H351 H 0.25779 0.68707 0.28718 0.0
H352 H 0.28164 0.65637 0.2575 0.0
H353 H 0.31632 0.66536 0.29334 0.0
H354 H 0.28537 0.54903 0.29345 0.0
H355 H 0.25045 0.53942 0.25817 0.0
H356 H 0.2045 0.49023 0.28838 0.0
H357 H 0.02201 0.54086 0.30671 0.0
H358 H -0.01694 0.49357 0.25836 0.0
H359 H 0.17038 0.54229 0.2331 0.0
C360 C 0.23143 0.56776 0.34553 0.0
C361 C 0.19843 0.54628 0.37221 0.0
C362 C 0.14264 0.54791 0.37604 0.0
C363 C 0.11587 0.56267 0.35243 0.0
C364 C 0.14621 0.57725 0.32534 0.0
C365 C 0.20426 0.5824 0.32201 0.0
C366 C 0.22123 0.58606 0.28988 0.0
C367 C 0.27225 0.65268 0.28148 0.0
C368 C 0.24137 0.53826 0.28206 0.0
C369 C 0.15957 0.57072 0.27595 0.0
C370 C 0.11804 0.56939 0.29657 0.0
C371 C 0.05472 0.54431 0.29012 0.0
C372 C 0.03275 0.51697 0.26269 0.0
C373 C 0.07399 0.51479 0.24209 0.0
C374 C 0.13846 0.54524 0.24822 0.0
H375 H 0.7409 0.09793 0.68872 0.0
H376 H 0.83905 0.00637 0.72194 0.0
H377 H 0.77215 0.91426 0.69177 0.0
H378 H 0.58247 0.95307 0.67886 0.0
H379 H 0.56934 -0.01636 0.64515 0.0
H380 H 0.61464 0.03596 0.67412 0.0
H381 H 0.70681 0.09773 0.63805 0.0
H382 H 0.66169 0.04621 0.60908 0.0
H383 H 0.73741 0.05678 0.61795 0.0
H384 H 0.70814 0.8412 0.6529 0.0
H385 H 0.66176 0.79883 0.60484 0.0
H386 H 0.60346 0.93646 0.59634 0.0
C387 C 0.74664 0.05748 0.69034 0.0
C388 C 0.7944 0.0586 0.70776 0.0
C389 C 0.80244 0.00604 0.70869 0.0
C390 C 0.76421 0.95336 0.69193 0.0
C391 C 0.71808 0.95401 0.67448 0.0
C392 C 0.70928 0.00486 0.6735 0.0
C393 C 0.66375 -0.00176 0.64958 0.0
C394 C 0.604 -0.00764 0.66273 0.0
C395 C 0.69427 0.05293 0.62736 0.0
C396 C 0.65107 0.93746 0.63615 0.0
C397 C 0.68126 0.91169 0.65143 0.0
C398 C 0.68285 0.85984 0.64119 0.0
C399 C 0.65587 0.83571 0.61389 0.0
C400 C 0.62852 0.86408 0.59697 0.0
C401 C 0.62331 0.91342 0.60903 0.0
H402 H 0.80427 0.77788 1.04598 0.0
H403 H 0.64073 0.77151 1.00776 0.0
H404 H 0.63521 0.69667 0.9708 0.0
H405 H 0.87716 0.78406 0.98385 0.0
H406 H 0.90834 0.73529 0.99531 0.0
H407 H 0.89062 0.77625 1.02221 0.0
H408 H 0.81822 0.67206 1.04947 0.0
H409 H 0.83574 0.63044 1.02252 0.0
H410 H 0.75577 0.60846 1.02985 0.0
H411 H 0.66268 0.64407 0.93223 0.0
H412 H 0.71874 0.61776 0.89618 0.0
H413 H 0.85891 0.64845 0.96174 0.0
C414 C 0.7663 0.75914 1.0303 0.0
C415 C 0.72312 0.7803 1.02944 0.0
C416 C 0.67401 0.75535 1.00872 0.0
C417 C 0.67036 0.7126 0.98782 0.0
C418 C 0.71508 0.69409 0.9886 0.0
C419 C 0.76144 0.71575 1.00972 0.0
C420 C 0.80804 0.69472 1.00394 0.0
C421 C 0.87492 0.75091 1.00114 0.0
C422 C 0.80418 0.64866 1.02787 0.0
C423 C 0.78378 0.66228 0.97494 0.0
C424 C 0.72934 0.66112 0.96675 0.0
C425 C 0.70383 0.6424 0.93886 0.0
C426 C 0.73609 0.62716 0.91847 0.0
C427 C 0.79355 0.63093 0.92601 0.0
C428 C 0.81532 0.64521 0.95519 0.0
H429 H 0.28375 0.00356 0.3993 0.0
H430 H 0.11794 0.81991 0.39889 0.0
H431 H 0.16744 0.78519 0.363 0.0
H432 H 0.30579 0.01841 0.32683 0.0
H433 H 0.38994 0.05855 0.32728 0.0
H434 H 0.34834 0.06307 0.35833 0.0
H435 H 0.40582 0.02218 0.39165 0.0
H436 H 0.44635 0.01647 0.36015 0.0
H437 H 0.40118 0.9491 0.38336 0.0
H438 H 0.22112 0.77831 0.31939 0.0
H439 H 0.2719 0.80048 0.27157 0.0
H440 H 0.4098 -0.01399 0.30072 0.0
C441 C 0.25869 0.95553 0.39227 0.0
C442 C 0.19716 0.91442 0.40205 0.0
C443 C 0.1656 0.852 0.39222 0.0
C444 C 0.19342 0.83176 0.3718 0.0
C445 C 0.25323 0.87414 0.3617 0.0
C446 C 0.28593 0.93458 0.37189 0.0
C447 C 0.34533 0.97343 0.35444 0.0
C448 C 0.34735 0.03172 0.34091 0.0
C449 C 0.40309 -0.00867 0.37355 0.0
C450 C 0.33797 0.92708 0.3312 0.0
C451 C 0.28552 0.86954 0.33633 0.0
C452 C 0.26345 0.82246 0.31559 0.0
C453 C 0.29333 0.83563 0.28828 0.0
C454 C 0.34515 0.89557 0.28179 0.0
C455 C 0.3699 0.94006 0.30448 0.0
H456 H 0.40466 0.11084 0.7366 0.0
H457 H 0.44829 0.29626 0.76143 0.0
H458 H 0.52966 0.34133 0.72314 0.0
H459 H 0.57162 0.15715 0.70645 0.0
H460 H 0.53498 0.10139 0.67752 0.0
H461 H 0.49986 0.08522 0.7135 0.0
H462 H 0.39664 0.06753 0.6903 0.0
H463 H 0.43126 0.08432 0.6546 0.0
H464 H 0.39731 0.12869 0.66811 0.0
H465 H 0.57887 0.36359 0.67469 0.0
H466 H 0.58861 0.36065 0.62117 0.0
H467 H 0.51507 0.16122 0.62637 0.0
C468 C 0.4342 0.16103 0.73521 0.0
C469 C 0.42077 0.20014 0.75212 0.0
C470 C 0.45824 0.26557 0.74881 0.0
C471 C 0.50486 0.29151 0.72722 0.0
C472 C 0.51379 0.25142 0.70929 0.0
C473 C 0.48015 0.18733 0.71345 0.0
C474 C 0.48812 0.15376 0.68776 0.0
C475 C 0.52592 0.12256 0.69685 0.0
C476 C 0.4246 0.10589 0.67442 0.0
C477 C 0.52544 0.20834 0.66713 0.0
C478 C 0.54231 0.26451 0.68042 0.0
C479 C 0.56801 0.32026 0.66435 0.0
C480 C 0.57351 0.31819 0.63386 0.0
C481 C 0.55256 0.26059 0.6197 0.0
C482 C 0.53176 0.20582 0.63679 0.0
H483 H 0.46293 0.10998 0.16545 0.0
H484 H 0.50978 0.25515 1.10011 0.0
H485 H 0.62036 0.2807 1.10114 0.0
H486 H 0.60809 0.19192 0.2072 0.0
H487 H 0.6106 0.12172 0.21484 0.0
H488 H 0.53651 0.118 0.21014 0.0
H489 H 0.50656 0.03666 0.16912 0.0
H490 H 0.57989 0.03925 0.17391 0.0
H491 H 0.5582 0.05438 0.13822 0.0
H492 H 0.72327 0.28278 1.10617 0.0
H493 H 0.80841 0.25905 1.11363 0.0
H494 H 0.69393 0.11601 0.17757 0.0
C495 C 0.49645 0.14646 0.15114 0.0
C496 C 0.47835 0.17959 0.13213 0.0
C497 C 0.52339 0.22892 1.11451 0.0
C498 C 0.58607 0.2439 1.11512 0.0
C499 C 0.60267 0.20987 0.13397 0.0
C500 C 0.5591 0.16237 0.15177 0.0
C501 C 0.58805 0.13123 0.16924 0.0
C502 C 0.58568 0.14136 0.20232 0.0
C503 C 0.55632 0.06127 0.16218 0.0
C504 C 0.65426 0.16695 0.15767 0.0
C505 C 0.66215 0.21266 0.13761 0.0
C506 C 0.71803 0.24788 1.1222 0.0
C507 C 0.76619 0.23433 1.12663 0.0
C508 C 0.7577 0.1859 0.1462 0.0
C509 C 0.70199 0.15377 0.16268 0.0
H510 H 0.53911 0.51645 0.50493 0.0
H511 H 0.52814 0.44891 0.4167 0.0
H512 H 0.63563 0.53531 0.40674 0.0
H513 H 0.61842 0.67226 0.49004 0.0
H514 H 0.66866 0.69635 0.52184 0.0
H515 H 0.59432 0.62544 0.52319 0.0
H516 H 0.64853 0.56299 0.53781 0.0
H517 H 0.72324 0.63402 0.53683 0.0
H518 H 0.71053 0.56835 0.51518 0.0
H519 H 0.73474 0.63972 0.40379 0.0
H520 H 0.82377 0.74705 0.40994 0.0
H521 H 0.77732 0.74053 0.50181 0.0
C522 C 0.56018 0.51917 0.48379 0.0
C523 C 0.52571 0.47648 0.4615 0.0
C524 C 0.55419 0.48113 0.43406 0.0
C525 C 0.61513 0.53 0.42825 0.0
C526 C 0.64762 0.57237 0.45049 0.0
C527 C 0.62182 0.56628 0.47802 0.0
C528 C 0.66581 0.61915 0.49777 0.0
C529 C 0.63495 0.65544 0.50887 0.0
C530 C 0.68837 0.59465 0.52341 0.0
C531 C 0.71859 0.65815 0.47654 0.0
C532 C 0.70728 0.63021 0.44937 0.0
C533 C 0.74524 0.66097 0.4252 0.0
C534 C 0.79556 0.72184 0.42884 0.0
C535 C 0.80815 0.75076 0.45649 0.0
C536 C 0.76988 0.71816 0.48074 0.0
H537 H 0.08892 0.52113 0.7598 0.0
H538 H 0.21842 0.54846 0.8302 0.0
H539 H 0.23635 0.6554 0.83737 0.0
H540 H 0.16652 0.67663 0.72968 0.0
H541 H 0.09496 0.67691 0.72269 0.0
H542 H 0.0955 0.60457 0.72231 0.0
H543 H 0.00752 0.55795 0.76148 0.0
H544 H 0.00662 0.63008 0.76187 0.0
H545 H 0.01839 0.59839 0.79552 0.0
H546 H 0.23991 0.76112 0.83601 0.0
H547 H 0.22248 0.85063 0.8292 0.0
H548 H 0.08507 0.74917 0.76198 0.0
C549 C 0.12159 0.54973 0.77657 0.0
C550 C 0.15312 0.52682 0.79417 0.0
C551 C 0.19433 0.56532 0.81628 0.0
C552 C 0.20472 0.62608 0.82047 0.0
C553 C 0.1727 0.64716 0.80269 0.0
C554 C 0.13134 0.6096 0.78143 0.0
C555 C 0.09988 0.6413 0.76627 0.0
C556 C 0.11515 0.65039 0.73329 0.0
C557 C 0.02891 0.60474 0.77162 0.0
C558 C 0.13038 0.70305 0.78199 0.0
C559 C 0.17268 0.70598 0.80278 0.0
C560 C 0.20676 0.75901 0.81984 0.0
C561 C 0.19677 0.80975 0.81575 0.0
C562 C 0.15253 0.80684 0.79504 0.0
C563 C 0.11927 0.75278 0.77795 0.0
H564 H 0.27328 0.19963 0.23125 0.0
H565 H 0.38047 0.10539 0.23668 0.0
H566 H 0.40402 0.13503 0.28832 0.0
H567 H 0.37305 0.32889 0.28065 0.0
H568 H 0.3097 0.33155 0.2985 0.0
H569 H 0.30079 0.30431 0.26132 0.0
H570 H 0.20236 0.20133 0.2765 0.0
H571 H 0.21098 0.22833 0.31371 0.0
H572 H 0.20697 0.1552 0.30628 0.0
H573 H 0.41955 0.17653 0.34071 0.0
H574 H 0.42086 0.22015 0.38883 0.0
H575 H 0.30158 0.28821 0.35502 0.0
C576 C 0.30169 0.18504 0.24324 0.0
C577 C 0.32444 0.14888 0.22864 0.0
C578 C 0.36122 0.1317 0.24622 0.0
C579 C 0.37527 0.14881 0.27609 0.0
C580 C 0.35217 0.18349 0.28965 0.0
C581 C 0.31567 0.20125 0.27391 0.0
C582 C 0.29625 0.23769 0.29465 0.0
C583 C 0.32142 0.30459 0.28308 0.0
C584 C 0.22489 0.20362 0.29797 0.0
C585 C 0.32763 0.23778 0.32421 0.0
C586 C 0.35992 0.20632 0.32039 0.0
C587 C 0.39367 0.20052 0.34374 0.0
C588 C 0.39431 0.22621 0.37147 0.0
C589 C 0.36159 0.25866 0.37707 0.0
C590 C 0.32749 0.26413 0.35243 0.0
H591 H 0.39681 0.39134 0.58971 0.0
H592 H 0.22052 0.26066 0.55002 0.0
H593 H 0.16605 0.25129 0.59645 0.0
H594 H 0.35787 0.31442 0.6646 0.0
H595 H 0.39632 0.38664 0.68438 0.0
H596 H 0.42376 0.38205 0.64844 0.0
H597 H 0.41152 0.47466 0.63076 0.0
H598 H 0.38378 0.47931 0.66661 0.0
H599 H 0.33707 0.47043 0.63459 0.0
H600 H 0.12721 0.25757 0.64658 0.0
H601 H 0.10652 0.27622 0.69676 0.0
H602 H 0.30475 0.40386 0.70964 0.0
C603 C 0.34689 0.35987 0.59092 0.0
C604 C 0.3132 0.32604 0.56517 0.0
C605 C 0.24776 0.28694 0.56857 0.0
C606 C 0.2162 0.28136 0.5952 0.0
C607 C 0.24973 0.31545 0.61963 0.0
C608 C 0.31383 0.35381 0.61806 0.0
C609 C 0.33711 0.3855 0.64825 0.0
C610 C 0.38143 0.36603 0.66225 0.0
C611 C 0.36931 0.45673 0.64484 0.0
C612 C 0.27624 0.35978 0.66652 0.0
C613 C 0.22682 0.31914 0.64919 0.0
C614 C 0.16588 0.28925 0.66022 0.0
C615 C 0.15452 0.30048 0.68928 0.0
C616 C 0.2031 0.34178 0.70842 0.0
C617 C 0.26557 0.37189 0.69635 0.0
H618 H 0.13312 0.37278 0.92173 0.0
H619 H -0.0149 0.22634 0.87046 0.0
H620 H 0.92905 0.1741 0.91567 0.0
H621 H 0.12541 0.27244 0.98436 0.0
H622 H 0.13725 0.32835 1.01215 0.0
H623 H 0.16905 0.35475 0.97586 0.0
H624 H 0.11131 0.41688 0.97166 0.0
H625 H 0.07939 0.39069 1.00794 0.0
H626 H 0.028 0.37728 0.97728 0.0
H627 H 0.88642 0.13268 0.96777 0.0
H628 H 0.85971 0.11233 1.02053 0.0
H629 H 0.02717 0.28613 1.04142 0.0
C630 C 0.08901 0.32968 0.91991 0.0
C631 C 0.0648 0.30469 0.89131 0.0
C632 C 0.00606 0.24803 0.89112 0.0
C633 C 0.97326 0.21721 0.91712 0.0
C634 C -0.00228 0.24279 0.94451 0.0
C635 C 0.05409 0.29823 0.94621 0.0
C636 C 0.06793 0.31607 0.9789 0.0
C637 C 0.12853 0.31805 0.98838 0.0
C638 C 0.07191 0.37899 0.98426 0.0
C639 C 0.01091 0.26252 0.99498 0.0
C640 C 0.97153 0.22033 0.97453 0.0
C641 C 0.917 0.16609 0.98376 0.0
C642 C 0.90192 0.15468 1.01416 0.0
C643 C 0.93992 0.1973 1.03609 0.0
C644 C -0.0043 0.25229 1.0258 0.0
H645 H 0.80435 0.01 0.23134 0.0
H646 H -0.01856 0.18325 0.23541 0.0
H647 H -0.00719 0.16071 0.2872 0.0
H648 H 0.75453 0.02153 0.30645 0.0
H649 H 0.71644 0.93902 0.3143 0.0
H650 H 0.72176 0.96646 0.27699 0.0
H651 H 0.77504 0.90457 0.26171 0.0
H652 H 0.76998 0.87704 0.29899 0.0
H653 H 0.84453 0.91724 0.28062 0.0
H654 H -0.01039 0.11727 0.33885 0.0
H655 H 0.96785 0.06391 0.3866 0.0
H656 H 0.78679 0.92082 0.35522 0.0
C657 C 0.84564 0.04333 0.24307 0.0
C658 C 0.89235 0.09904 0.22819 0.0
C659 C 0.94474 0.14066 0.24532 0.0
C660 C 0.95177 0.12797 0.27513 0.0
C661 C 0.90556 0.07337 0.28893 0.0
C662 C 0.85281 0.03196 0.27364 0.0
C663 C 0.80929 0.97796 0.29467 0.0
C664 C 0.74677 0.97612 0.29831 0.0
C665 C 0.79908 0.91547 0.28331 0.0
C666 C 0.846 -0.00487 0.3239 0.0
C667 C 0.90183 0.05021 0.3196 0.0
C668 C 0.94542 0.07481 0.34234 0.0
C669 C 0.93218 0.0437 0.36991 0.0
C670 C 0.87474 -0.01198 0.37619 0.0
C671 C 0.83094 0.96353 0.35219 0.0
H672 H 0.96135 0.9768 0.57617 0.0
H673 H 0.79208 0.79805 0.56676 0.0
H674 H 0.80523 0.76963 0.61764 0.0
H675 H 0.04905 0.92678 0.62068 0.0
H676 H 0.08323 -0.00619 0.64417 0.0
H677 H 0.06063 0.00059 0.60725 0.0
H678 H -0.00868 0.04236 0.627 0.0
H679 H 0.01397 0.03606 0.66399 0.0
H680 H 0.93249 -0.00242 0.65421 0.0
H681 H 0.84302 0.75685 0.67058 0.0
H682 H 0.89187 0.76583 0.71915 0.0
H683 H 0.03251 0.95632 0.69794 0.0
C684 C 0.9265 0.93169 0.58477 0.0
C685 C 0.87519 0.88982 0.56638 0.0
C686 C 0.83149 0.83164 0.57949 0.0
C687 C 0.83896 0.81486 0.60873 0.0
C688 C 0.89013 0.85666 0.62589 0.0
C689 C 0.93253 0.91465 0.61445 0.0
C690 C -0.01763 0.95191 0.63791 0.0
C691 C 0.0477 0.96932 0.62683 0.0
C692 C -0.0201 0.01047 0.64627 0.0
C693 C 0.96268 0.90572 0.66408 0.0
C694 C 0.90949 0.85074 0.6565 0.0
C695 C 0.88412 0.80027 0.67647 0.0
C696 C 0.91268 0.80578 0.70439 0.0
C697 C 0.96651 0.86178 0.71354 0.0
C698 C -0.00876 0.91261 0.69254 0.0
H699 H 0.14049 0.00584 0.90168 0.0
H700 H 0.0977 0.81363 0.90462 0.0
H701 H 0.13817 0.82859 0.95548 0.0
H702 H 0.28221 0.07339 0.94525 0.0
H703 H 0.26624 0.12644 0.96491 0.0
H704 H 0.2346 0.10153 0.92867 0.0
H705 H 0.12339 0.06238 0.94856 0.0
H706 H 0.15477 0.08742 0.98485 0.0
H707 H 0.09481 0.0077 0.97893 0.0
H708 H 0.18978 0.86682 1.00737 0.0
H709 H 0.23576 0.91914 1.0542 0.0
H710 H 0.2401 0.08615 1.02139 0.0
C711 C 0.13942 0.96661 0.91293 0.0
C712 C 0.11541 0.90798 0.89803 0.0
C713 C 0.11511 0.85878 0.91459 0.0
C714 C 0.13853 0.86711 0.94385 0.0
C715 C 0.16202 0.92507 0.95762 0.0
C716 C 0.1616 0.97384 0.94276 0.0
C717 C 0.18749 0.03079 0.96316 0.0
C718 C 0.24611 0.08634 0.94969 0.0
C719 C 0.13713 0.04812 0.96922 0.0
C720 C 0.2038 0.00721 0.99149 0.0
C721 C 0.18895 0.94603 0.98764 0.0
C722 C 0.20092 0.91455 1.0103 0.0
C723 C 0.22772 0.94522 1.0372 0.0
C724 C 0.24289 0.00775 1.04255 0.0
C725 C 0.23 0.03865 1.0188 0.0
loop_
_geom_bond_atom_site_label_1
_geom_bond_atom_site_label_2
_geom_bond_distance
_geom_bond_site_symmetry_2
_ccdc_geom_bond_type
C0 Eu1 2.835 . S
C0 C2 1.500 . S
C0 O20 1.257 . S
C0 O21 1.260 . S
Eu1 C0 2.835 . S
Eu1 O20 2.473 . S
Eu1 O21 2.480 . S
Eu1 O22 2.433 . S
Eu1 O23 2.670 1_556 S
Eu1 O24 2.394 . S
Eu1 O29 2.355 1_556 S
Eu1 O31 2.374 1_556 S
C2 C0 1.500 . S
C2 C3 1.377 . S
C2 C7 1.377 . S
C3 C2 1.377 . S
C3 C4 1.395 . S
C3 H32 0.931 . S
C4 C3 1.395 . S
C4 C5 1.383 . S
C4 H33 0.931 . S
C5 C4 1.383 . S
C5 C6 1.394 . S
C6 C5 1.394 . S
C6 C7 1.378 . S
C6 H34 0.931 . S
C7 C2 1.377 . S
C7 C6 1.378 . S
C7 H35 0.931 . S
C8 O22 1.244 1_554 S
C8 O23 1.270 . S
C9 O24 1.251 . S
C9 O25 1.251 . S
C10 Eu11 2.835 . S
C10 C12 1.500 . S
C10 O26 1.257 . S
C10 O27 1.260 . S
Eu11 C10 2.835 . S
Eu11 O23 2.355 . S
Eu11 O25 2.374 1_554 S
Eu11 O26 2.473 . S
Eu11 O27 2.480 . S
Eu11 O28 2.430 . S
Eu11 O29 2.670 . S
Eu11 O30 2.394 . S
C12 C10 1.500 . S
C12 C13 1.377 . S
C12 C17 1.377 . S
C13 C12 1.377 . S
C13 C14 1.395 . S
C13 H36 0.931 . S
C14 C13 1.395 . S
C14 C15 1.383 . S
C14 H37 0.931 . S
C15 C14 1.383 . S
C15 C16 1.394 . S
C16 C15 1.394 . S
C16 C17 1.378 . S
C16 H38 0.931 . S
C17 C12 1.377 . S
C17 C16 1.378 . S
C17 H39 0.931 . S
C18 O28 1.259 . S
C18 O29 1.270 . S
C19 O30 1.251 . S
C19 O31 1.251 . S
O20 C0 1.257 . S
O20 Eu1 2.473 . S
O21 C0 1.260 . S
O21 Eu1 2.480 . S
O22 Eu1 2.433 . S
O22 C8 1.244 1_556 S
O23 Eu1 2.670 1_554 S
O23 C8 1.270 . S
O23 Eu11 2.355 . S
O24 Eu1 2.394 . S
O24 C9 1.251 . S
O25 C9 1.251 . S
O25 Eu11 2.374 1_556 S
O26 C10 1.257 . S
O26 Eu11 2.473 . S
O27 C10 1.260 . S
O27 Eu11 2.480 . S
O28 Eu11 2.430 . S
O28 C18 1.259 . S
O29 Eu1 2.355 1_554 S
O29 Eu11 2.670 . S
O29 C18 1.270 . S
O30 Eu11 2.394 . S
O30 C19 1.251 . S
O31 Eu1 2.374 1_554 S
O31 C19 1.251 . S
H32 C3 0.931 . S
H33 C4 0.931 . S
H34 C6 0.931 . S
H35 C7 0.931 . S
H36 C13 0.931 . S
H37 C14 0.931 . S
H38 C16 0.931 . S
H39 C17 0.931 . S
C40 Eu41 2.835 . S
C40 C42 1.500 . S
C40 O60 1.257 . S
C40 O61 1.260 . S
Eu41 C40 2.835 . S
Eu41 O60 2.473 . S
Eu41 O61 2.480 . S
Eu41 O62 2.430 . S
Eu41 O63 2.670 . S
Eu41 O64 2.394 . S
Eu41 O69 2.355 . S
Eu41 O71 2.374 . S
C42 C40 1.500 . S
C42 C43 1.377 . S
C42 C47 1.377 . S
C43 C42 1.377 . S
C43 C44 1.395 . S
C43 H72 0.931 . S
C44 C43 1.395 . S
C44 C45 1.383 . S
C44 H73 0.931 . S
C45 C44 1.383 . S
C45 C46 1.394 . S
C46 C45 1.394 . S
C46 C47 1.378 . S
C46 H74 0.931 . S
C47 C42 1.377 . S
C47 C46 1.378 . S
C47 H75 0.931 . S
C48 O62 1.259 . S
C48 O63 1.270 . S
C49 O64 1.251 . S
C49 O65 1.251 . S
C50 Eu51 2.835 . S
C50 C52 1.500 . S
C50 O66 1.257 . S
C50 O67 1.260 . S
Eu51 C50 2.835 . S
Eu51 O63 2.355 . S
Eu51 O65 2.374 . S
Eu51 O66 2.473 . S
Eu51 O67 2.480 . S
Eu51 O68 2.430 . S
Eu51 O69 2.670 . S
Eu51 O70 2.394 . S
C52 C50 1.500 . S
C52 C53 1.377 . S
C52 C57 1.377 . S
C53 C52 1.377 . S
C53 C54 1.395 . S
C53 H76 0.931 . S
C54 C53 1.395 . S
C54 C55 1.383 . S
C54 H77 0.931 . S
C55 C54 1.383 . S
C55 C56 1.394 . S
C56 C55 1.394 . S
C56 C57 1.378 . S
C56 H78 0.931 . S
C57 C52 1.377 . S
C57 C56 1.378 . S
C57 H79 0.931 . S
C58 O68 1.259 . S
C58 O69 1.270 . S
C59 O70 1.251 . S
C59 O71 1.251 . S
O60 C40 1.257 . S
O60 Eu41 2.473 . S
O61 C40 1.260 . S
O61 Eu41 2.480 . S
O62 Eu41 2.430 . S
O62 C48 1.259 . S
O63 Eu41 2.670 . S
O63 C48 1.270 . S
O63 Eu51 2.355 . S
O64 Eu41 2.394 . S
O64 C49 1.251 . S
O65 C49 1.251 . S
O65 Eu51 2.374 . S
O66 C50 1.257 . S
O66 Eu51 2.473 . S
O67 C50 1.260 . S
O67 Eu51 2.480 . S
O68 Eu51 2.430 . S
O68 C58 1.259 . S
O69 Eu41 2.355 . S
O69 Eu51 2.670 . S
O69 C58 1.270 . S
O70 Eu51 2.394 . S
O70 C59 1.251 . S
O71 Eu41 2.374 . S
O71 C59 1.251 . S
H72 C43 0.931 . S
H73 C44 0.931 . S
H74 C46 0.931 . S
H75 C47 0.931 . S
H76 C53 0.931 . S
H77 C54 0.931 . S
H78 C56 0.931 . S
H79 C57 0.931 . S
C80 Eu81 2.835 . S
C80 C82 1.500 . S
C80 O100 1.257 . S
C80 O101 1.260 . S
Eu81 C80 2.835 . S
Eu81 O100 2.473 . S
Eu81 O101 2.480 . S
Eu81 O102 2.430 . S
Eu81 O103 2.670 1_655 S
Eu81 O104 2.394 1_655 S
Eu81 O109 2.355 1_655 S
Eu81 O111 2.374 . S
C82 C80 1.500 . S
C82 C83 1.377 . S
C82 C87 1.377 . S
C83 C82 1.377 . S
C83 C84 1.395 . S
C83 H112 0.931 . S
C84 C83 1.395 . S
C84 C85 1.383 . S
C84 H113 0.931 . S
C85 C84 1.383 . S
C85 C86 1.394 . S
C86 C85 1.394 . S
C86 C87 1.378 . S
C86 H114 0.931 . S
C87 C82 1.377 . S
C87 C86 1.378 . S
C87 H115 0.931 . S
C88 O102 1.259 . S
C88 O103 1.270 1_655 S
C89 O104 1.251 . S
C89 O105 1.251 . S
C90 Eu91 2.835 . S
C90 C92 1.500 . S
C90 O106 1.257 . S
C90 O107 1.260 . S
Eu91 C90 2.835 . S
Eu91 O103 2.355 . S
Eu91 O105 2.374 . S
Eu91 O106 2.473 . S
Eu91 O107 2.480 . S
Eu91 O108 2.430 . S
Eu91 O109 2.670 . S
Eu91 O110 2.394 . S
C92 C90 1.500 . S
C92 C93 1.377 . S
C92 C97 1.377 . S
C93 C92 1.377 . S
C93 C94 1.395 . S
C93 H116 0.931 . S
C94 C93 1.395 . S
C94 C95 1.383 . S
C94 H117 0.931 . S
C95 C94 1.383 . S
C95 C96 1.394 . S
C96 C95 1.394 . S
C96 C97 1.378 . S
C96 H118 0.931 . S
C97 C92 1.377 . S
C97 C96 1.378 . S
C97 H119 0.931 . S
C98 O108 1.259 . S
C98 O109 1.270 . S
C99 O110 1.251 1_655 S
C99 O111 1.251 . S
O100 C80 1.257 . S
O100 Eu81 2.473 . S
O101 C80 1.260 . S
O101 Eu81 2.480 . S
O102 Eu81 2.430 . S
O102 C88 1.259 . S
O103 Eu81 2.670 1_455 S
O103 C88 1.270 1_455 S
O103 Eu91 2.355 . S
O104 Eu81 2.394 1_455 S
O104 C89 1.251 . S
O105 C89 1.251 . S
O105 Eu91 2.374 . S
O106 C90 1.257 . S
O106 Eu91 2.473 . S
O107 C90 1.260 . S
O107 Eu91 2.480 . S
O108 Eu91 2.430 . S
O108 C98 1.259 . S
O109 Eu81 2.355 1_455 S
O109 Eu91 2.670 . S
O109 C98 1.270 . S
O110 Eu91 2.394 . S
O110 C99 1.251 1_455 S
O111 Eu81 2.374 . S
O111 C99 1.251 . S
H112 C83 0.931 . S
H113 C84 0.931 . S
H114 C86 0.931 . S
H115 C87 0.931 . S
H116 C93 0.931 . S
H117 C94 0.931 . S
H118 C96 0.931 . S
H119 C97 0.931 . S
C120 Eu121 2.835 . S
C120 C122 1.500 . S
C120 O140 1.257 . S
C120 O141 1.260 . S
Eu121 C120 2.835 . S
Eu121 O140 2.473 . S
Eu121 O141 2.480 . S
Eu121 O142 2.433 . S
Eu121 O143 2.670 1_566 S
Eu121 O144 2.394 1_565 S
Eu121 O149 2.355 1_566 S
Eu121 O151 2.374 1_556 S
C122 C120 1.500 . S
C122 C123 1.377 . S
C122 C127 1.377 . S
C123 C122 1.377 . S
C123 C124 1.395 . S
C123 H152 0.931 . S
C124 C123 1.395 . S
C124 C125 1.383 . S
C124 H153 0.931 . S
C125 C124 1.383 . S
C125 C126 1.394 . S
C126 C125 1.394 . S
C126 C127 1.378 . S
C126 H154 0.931 . S
C127 C122 1.377 . S
C127 C126 1.378 . S
C127 H155 0.931 . S
C128 O142 1.244 1_554 S
C128 O143 1.270 1_565 S
C129 O144 1.251 . S
C129 O145 1.251 . S
C130 Eu131 2.835 . S
C130 C132 1.500 . S
C130 O146 1.257 . S
C130 O147 1.260 . S
Eu131 C130 2.835 . S
Eu131 O143 2.355 . S
Eu131 O145 2.374 1_554 S
Eu131 O146 2.473 . S
Eu131 O147 2.480 . S
Eu131 O148 2.430 . S
Eu131 O149 2.670 . S
Eu131 O150 2.394 . S
C132 C130 1.500 . S
C132 C133 1.377 . S
C132 C137 1.377 . S
C133 C132 1.377 . S
C133 C134 1.395 . S
C133 H156 0.931 . S
C134 C133 1.395 . S
C134 C135 1.383 . S
C134 H157 0.931 . S
C135 C134 1.383 . S
C135 C136 1.394 . S
C136 C135 1.394 . S
C136 C137 1.378 . S
C136 H158 0.931 . S
C137 C132 1.377 . S
C137 C136 1.378 . S
C137 H159 0.931 . S
C138 O148 1.259 . S
C138 O149 1.270 . S
C139 O150 1.251 1_565 S
C139 O151 1.251 . S
O140 C120 1.257 . S
O140 Eu121 2.473 . S
O141 C120 1.260 . S
O141 Eu121 2.480 . S
O142 Eu121 2.433 . S
O142 C128 1.244 1_556 S
O143 Eu121 2.670 1_544 S
O143 C128 1.270 1_545 S
O143 Eu131 2.355 . S
O144 Eu121 2.394 1_545 S
O144 C129 1.251 . S
O145 C129 1.251 . S
O145 Eu131 2.374 1_556 S
O146 C130 1.257 . S
O146 Eu131 2.473 . S
O147 C130 1.260 . S
O147 Eu131 2.480 . S
O148 Eu131 2.430 . S
O148 C138 1.259 . S
O149 Eu121 2.355 1_544 S
O149 Eu131 2.670 . S
O149 C138 1.270 . S
O150 Eu131 2.394 . S
O150 C139 1.251 1_545 S
O151 Eu121 2.374 1_554 S
O151 C139 1.251 . S
H152 C123 0.931 . S
H153 C124 0.931 . S
H154 C126 0.931 . S
H155 C127 0.931 . S
H156 C133 0.931 . S
H157 C134 0.931 . S
H158 C136 0.931 . S
H159 C137 0.931 . S
C160 Eu161 2.835 . S
C160 C162 1.500 . S
C160 O180 1.257 . S
C160 O181 1.260 . S
Eu161 C160 2.835 . S
Eu161 O180 2.473 . S
Eu161 O181 2.480 . S
Eu161 O182 2.430 1_455 S
Eu161 O183 2.670 1_455 S
Eu161 O184 2.394 1_455 S
Eu161 O189 2.355 . S
Eu161 O191 2.374 . S
C162 C160 1.500 . S
C162 C163 1.377 . S
C162 C167 1.377 . S
C163 C162 1.377 . S
C163 C164 1.395 . S
C163 H192 0.931 . S
C164 C163 1.395 . S
C164 C165 1.383 . S
C164 H193 0.931 . S
C165 C164 1.383 . S
C165 C166 1.394 . S
C166 C165 1.394 . S
C166 C167 1.378 . S
C166 H194 0.931 . S
C167 C162 1.377 . S
C167 C166 1.378 . S
C167 H195 0.931 . S
C168 O182 1.259 . S
C168 O183 1.270 . S
C169 O184 1.251 . S
C169 O185 1.251 . S
C170 Eu171 2.835 . S
C170 C172 1.500 . S
C170 O186 1.257 . S
C170 O187 1.260 . S
Eu171 C170 2.835 . S
Eu171 O183 2.355 . S
Eu171 O185 2.374 . S
Eu171 O186 2.473 . S
Eu171 O187 2.480 . S
Eu171 O188 2.430 1_655 S
Eu171 O189 2.670 1_655 S
Eu171 O190 2.394 . S
C172 C170 1.500 . S
C172 C173 1.377 . S
C172 C177 1.377 . S
C173 C172 1.377 . S
C173 C174 1.395 . S
C173 H196 0.931 . S
C174 C173 1.395 . S
C174 C175 1.383 . S
C174 H197 0.931 . S
C175 C174 1.383 . S
C175 C176 1.394 . S
C176 C175 1.394 . S
C176 C177 1.378 . S
C176 H198 0.931 . S
C177 C172 1.377 . S
C177 C176 1.378 . S
C177 H199 0.931 . S
C178 O188 1.259 . S
C178 O189 1.270 . S
C179 O190 1.251 1_455 S
C179 O191 1.251 . S
O180 C160 1.257 . S
O180 Eu161 2.473 . S
O181 C160 1.260 . S
O181 Eu161 2.480 . S
O182 Eu161 2.430 1_655 S
O182 C168 1.259 . S
O183 Eu161 2.670 1_655 S
O183 C168 1.270 . S
O183 Eu171 2.355 . S
O184 Eu161 2.394 1_655 S
O184 C169 1.251 . S
O185 C169 1.251 . S
O185 Eu171 2.374 . S
O186 C170 1.257 . S
O186 Eu171 2.473 . S
O187 C170 1.260 . S
O187 Eu171 2.480 . S
O188 Eu171 2.430 1_455 S
O188 C178 1.259 . S
O189 Eu161 2.355 . S
O189 Eu171 2.670 1_455 S
O189 C178 1.270 . S
O190 Eu171 2.394 . S
O190 C179 1.251 1_655 S
O191 Eu161 2.374 . S
O191 C179 1.251 . S
H192 C163 0.931 . S
H193 C164 0.931 . S
H194 C166 0.931 . S
H195 C167 0.931 . S
H196 C173 0.931 . S
H197 C174 0.931 . S
H198 C176 0.931 . S
H199 C177 0.931 . S
C200 Eu201 2.835 . S
C200 C202 1.500 . S
C200 O220 1.257 . S
C200 O221 1.260 . S
Eu201 C200 2.835 . S
Eu201 O220 2.473 . S
Eu201 O221 2.480 . S
Eu201 O222 2.430 1_545 S
Eu201 O223 2.670 1_545 S
Eu201 O224 2.394 1_545 S
Eu201 O229 2.355 . S
Eu201 O231 2.374 . S
C202 C200 1.500 . S
C202 C203 1.377 . S
C202 C207 1.377 . S
C203 C202 1.377 . S
C203 C204 1.395 . S
C203 H232 0.931 . S
C204 C203 1.395 . S
C204 C205 1.383 . S
C204 H233 0.931 . S
C205 C204 1.383 . S
C205 C206 1.394 . S
C206 C205 1.394 . S
C206 C207 1.378 . S
C206 H234 0.931 . S
C207 C202 1.377 . S
C207 C206 1.378 . S
C207 H235 0.931 . S
C208 O222 1.259 . S
C208 O223 1.270 . S
C209 O224 1.251 . S
C209 O225 1.251 . S
C210 Eu211 2.835 . S
C210 C212 1.500 . S
C210 O226 1.257 . S
C210 O227 1.260 . S
Eu211 C210 2.835 . S
Eu211 O223 2.355 . S
Eu211 O225 2.374 . S
Eu211 O226 2.473 . S
Eu211 O227 2.480 . S
Eu211 O228 2.430 1_565 S
Eu211 O229 2.670 1_565 S
Eu211 O230 2.394 1_565 S
C212 C210 1.500 . S
C212 C213 1.377 . S
C212 C217 1.377 . S
C213 C212 1.377 . S
C213 C214 1.395 . S
C213 H236 0.931 . S
C214 C213 1.395 . S
C214 C215 1.383 . S
C214 H237 0.931 . S
C215 C214 1.383 . S
C215 C216 1.394 . S
C216 C215 1.394 . S
C216 C217 1.378 . S
C216 H238 0.931 . S
C217 C212 1.377 . S
C217 C216 1.378 . S
C217 H239 0.931 . S
C218 O228 1.259 . S
C218 O229 1.270 . S
C219 O230 1.251 . S
C219 O231 1.251 . S
O220 C200 1.257 . S
O220 Eu201 2.473 . S
O221 C200 1.260 . S
O221 Eu201 2.480 . S
O222 Eu201 2.430 1_565 S
O222 C208 1.259 . S
O223 Eu201 2.670 1_565 S
O223 C208 1.270 . S
O223 Eu211 2.355 . S
O224 Eu201 2.394 1_565 S
O224 C209 1.251 . S
O225 C209 1.251 . S
O225 Eu211 2.374 . S
O226 C210 1.257 . S
O226 Eu211 2.473 . S
O227 C210 1.260 . S
O227 Eu211 2.480 . S
O228 Eu211 2.430 1_545 S
O228 C218 1.259 . S
O229 Eu201 2.355 . S
O229 Eu211 2.670 1_545 S
O229 C218 1.270 . S
O230 Eu211 2.394 1_545 S
O230 C219 1.251 . S
O231 Eu201 2.374 . S
O231 C219 1.251 . S
H232 C203 0.931 . S
H233 C204 0.931 . S
H234 C206 0.931 . S
H235 C207 0.931 . S
H236 C213 0.931 . S
H237 C214 0.931 . S
H238 C216 0.931 . S
H239 C217 0.931 . S
H240 C252 0.930 . S
H241 C254 0.930 . S
H242 C255 0.930 . S
H243 C259 0.959 . S
H244 C259 0.959 . S
H245 C259 0.961 . S
H246 C260 0.960 . S
H247 C260 0.961 . S
H248 C260 0.959 1_556 S
H249 C263 0.929 . S
H250 C264 0.931 . S
H251 C266 0.930 . S
C252 H240 0.930 . S
C252 C253 1.399 1_455 S
C252 C257 1.399 . S
C253 C252 1.399 1_655 S
C253 C254 1.376 1_554 S
C254 H241 0.930 . S
C254 C253 1.376 1_556 S
C254 C255 1.388 1_655 S
C255 H242 0.930 . S
C255 C254 1.388 1_455 S
C255 C256 1.397 . S
C256 C255 1.397 . S
C256 C257 1.384 1_556 S
C256 C262 1.465 . S
C257 C252 1.399 . S
C257 C256 1.384 1_554 S
C257 C258 1.516 . S
C258 C257 1.516 . S
C258 C259 1.502 . S
C258 C260 1.561 . S
C258 C261 1.526 . S
C259 H243 0.959 . S
C259 H244 0.959 . S
C259 H245 0.961 . S
C259 C258 1.502 . S
C260 H246 0.960 . S
C260 H247 0.961 . S
C260 H248 0.959 1_554 S
C260 C258 1.561 . S
C261 C258 1.526 . S
C261 C262 1.396 1_554 S
C261 C266 1.390 . S
C262 C256 1.465 . S
C262 C261 1.396 1_556 S
C262 C263 1.399 . S
C263 H249 0.929 . S
C263 C262 1.399 . S
C263 C264 1.385 . S
C264 H250 0.931 . S
C264 C263 1.385 . S
C264 C265 1.389 1_556 S
C265 C264 1.389 1_554 S
C265 C266 1.387 . S
C266 H251 0.930 . S
C266 C261 1.390 . S
C266 C265 1.387 . S
H267 C279 0.930 . S
H268 C281 0.930 1_565 S
H269 C282 0.930 . S
H270 C286 0.959 . S
H271 C286 0.959 . S
H272 C286 0.961 . S
H273 C287 0.960 . S
H274 C287 0.961 . S
H275 C287 0.959 . S
H276 C290 0.929 . S
H277 C291 0.931 . S
H278 C293 0.930 . S
C279 H267 0.930 . S
C279 C280 1.399 1_545 S
C279 C284 1.399 . S
C280 C279 1.399 1_565 S
C280 C281 1.376 1_565 S
C281 H268 0.930 1_545 S
C281 C280 1.376 1_545 S
C281 C282 1.388 . S
C282 H269 0.930 . S
C282 C281 1.388 . S
C282 C283 1.390 . S
C283 C282 1.390 . S
C283 C284 1.394 . S
C283 C289 1.465 . S
C284 C279 1.399 . S
C284 C283 1.394 . S
C284 C285 1.516 . S
C285 C284 1.516 . S
C285 C286 1.502 . S
C285 C287 1.561 . S
C285 C288 1.526 . S
C286 H270 0.959 . S
C286 H271 0.959 . S
C286 H272 0.961 . S
C286 C285 1.502 . S
C287 H273 0.960 . S
C287 H274 0.961 . S
C287 H275 0.959 . S
C287 C285 1.561 . S
C288 C285 1.526 . S
C288 C289 1.396 . S
C288 C293 1.390 . S
C289 C283 1.465 . S
C289 C288 1.396 . S
C289 C290 1.399 . S
C290 H276 0.929 . S
C290 C289 1.399 . S
C290 C291 1.385 . S
C291 H277 0.931 . S
C291 C290 1.385 . S
C291 C292 1.389 . S
C292 C291 1.389 . S
C292 C293 1.387 . S
C293 H278 0.930 . S
C293 C288 1.390 . S
C293 C292 1.387 . S
H294 C306 0.930 . S
H295 C308 0.930 . S
H296 C309 0.930 . S
H297 C313 0.959 . S
H298 C313 0.959 . S
H299 C313 0.961 . S
H300 C314 0.960 . S
H301 C314 0.961 . S
H302 C314 0.959 . S
H303 C317 0.929 . S
H304 C318 0.931 . S
H305 C320 0.930 . S
C306 H294 0.930 . S
C306 C307 1.399 . S
C306 C311 1.399 . S
C307 C306 1.399 . S
C307 C308 1.376 . S
C308 H295 0.930 . S
C308 C307 1.376 . S
C308 C309 1.388 . S
C309 H296 0.930 . S
C309 C308 1.388 . S
C309 C310 1.390 . S
C310 C309 1.390 . S
C310 C311 1.394 . S
C310 C316 1.465 . S
C311 C306 1.399 . S
C311 C310 1.394 . S
C311 C312 1.516 . S
C312 C311 1.516 . S
C312 C313 1.502 . S
C312 C314 1.561 . S
C312 C315 1.526 . S
C313 H297 0.959 . S
C313 H298 0.959 . S
C313 H299 0.961 . S
C313 C312 1.502 . S
C314 H300 0.960 . S
C314 H301 0.961 . S
C314 H302 0.959 . S
C314 C312 1.561 . S
C315 C312 1.526 . S
C315 C316 1.396 . S
C315 C320 1.390 . S
C316 C310 1.465 . S
C316 C315 1.396 . S
C316 C317 1.399 . S
C317 H303 0.929 . S
C317 C316 1.399 . S
C317 C318 1.385 1_455 S
C318 H304 0.931 . S
C318 C317 1.385 1_655 S
C318 C319 1.389 1_655 S
C319 C318 1.389 1_455 S
C319 C320 1.387 . S
C320 H305 0.930 . S
C320 C315 1.390 . S
C320 C319 1.387 . S
H321 C333 0.930 . S
H322 C335 0.930 . S
H323 C336 0.930 . S
H324 C340 0.959 . S
H325 C340 0.959 . S
H326 C340 0.961 . S
H327 C341 0.960 . S
H328 C341 0.961 . S
H329 C341 0.959 . S
H330 C344 0.929 . S
H331 C345 0.931 . S
H332 C347 0.930 . S
C333 H321 0.930 . S
C333 C334 1.399 . S
C333 C338 1.399 . S
C334 C333 1.399 . S
C334 C335 1.376 . S
C335 H322 0.930 . S
C335 C334 1.376 . S
C335 C336 1.388 . S
C336 H323 0.930 . S
C336 C335 1.388 . S
C336 C337 1.390 . S
C337 C336 1.390 . S
C337 C338 1.394 . S
C337 C343 1.465 . S
C338 C333 1.399 . S
C338 C337 1.394 . S
C338 C339 1.516 . S
C339 C338 1.516 . S
C339 C340 1.502 . S
C339 C341 1.561 . S
C339 C342 1.526 . S
C340 H324 0.959 . S
C340 H325 0.959 . S
C340 H326 0.961 . S
C340 C339 1.502 . S
C341 H327 0.960 . S
C341 H328 0.961 . S
C341 H329 0.959 . S
C341 C339 1.561 . S
C342 C339 1.526 . S
C342 C343 1.396 . S
C342 C347 1.390 . S
C343 C337 1.465 . S
C343 C342 1.396 . S
C343 C344 1.399 . S
C344 H330 0.929 . S
C344 C343 1.399 . S
C344 C345 1.385 . S
C345 H331 0.931 . S
C345 C344 1.385 . S
C345 C346 1.389 . S
C346 C345 1.389 . S
C346 C347 1.387 . S
C347 H332 0.930 . S
C347 C342 1.390 . S
C347 C346 1.387 . S
H348 C360 0.930 . S
H349 C362 0.930 . S
H350 C363 0.930 1_655 S
H351 C367 0.959 . S
H352 C367 0.959 . S
H353 C367 0.961 . S
H354 C368 0.960 . S
H355 C368 0.961 . S
H356 C368 0.959 . S
H357 C371 0.929 . S
H358 C372 0.931 . S
H359 C374 0.930 . S
C360 H348 0.930 . S
C360 C361 1.399 . S
C360 C365 1.399 . S
C361 C360 1.399 . S
C361 C362 1.376 . S
C362 H349 0.930 . S
C362 C361 1.376 . S
C362 C363 1.388 . S
C363 H350 0.930 1_455 S
C363 C362 1.388 . S
C363 C364 1.390 . S
C364 C363 1.390 . S
C364 C365 1.394 . S
C364 C370 1.465 1_455 S
C365 C360 1.399 . S
C365 C364 1.394 . S
C365 C366 1.516 . S
C366 C365 1.516 . S
C366 C367 1.502 . S
C366 C368 1.561 . S
C366 C369 1.526 1_455 S
C367 H351 0.959 . S
C367 H352 0.959 . S
C367 H353 0.961 . S
C367 C366 1.502 . S
C368 H354 0.960 . S
C368 H355 0.961 . S
C368 H356 0.959 . S
C368 C366 1.561 . S
C369 C366 1.526 1_655 S
C369 C370 1.396 . S
C369 C374 1.390 . S
C370 C364 1.465 1_655 S
C370 C369 1.396 . S
C370 C371 1.399 . S
C371 H357 0.929 . S
C371 C370 1.399 . S
C371 C372 1.385 . S
C372 H358 0.931 . S
C372 C371 1.385 . S
C372 C373 1.389 . S
C373 C372 1.389 . S
C373 C374 1.387 . S
C374 H359 0.930 . S
C374 C369 1.390 . S
C374 C373 1.387 . S
H375 C387 0.930 . S
H376 C389 0.930 . S
H377 C390 0.930 . S
H378 C394 0.959 . S
H379 C394 0.959 . S
H380 C394 0.961 . S
H381 C395 0.960 . S
H382 C395 0.961 . S
H383 C395 0.959 . S
H384 C398 0.929 . S
H385 C399 0.931 . S
H386 C401 0.930 . S
C387 H375 0.930 . S
C387 C388 1.399 . S
C387 C392 1.399 . S
C388 C387 1.399 . S
C388 C389 1.376 . S
C389 H376 0.930 . S
C389 C388 1.376 . S
C389 C390 1.388 . S
C390 H377 0.930 . S
C390 C389 1.388 . S
C390 C391 1.390 . S
C391 C390 1.390 . S
C391 C392 1.394 . S
C391 C397 1.465 . S
C392 C387 1.399 . S
C392 C391 1.394 . S
C392 C393 1.516 1_545 S
C393 C392 1.516 1_565 S
C393 C394 1.502 . S
C393 C395 1.561 . S
C393 C396 1.526 . S
C394 H378 0.959 . S
C394 H379 0.959 . S
C394 H380 0.961 . S
C394 C393 1.502 . S
C395 H381 0.960 . S
C395 H382 0.961 . S
C395 H383 0.959 . S
C395 C393 1.561 . S
C396 C393 1.526 . S
C396 C397 1.396 1_565 S
C396 C401 1.390 . S
C397 C391 1.465 . S
C397 C396 1.396 1_545 S
C397 C398 1.399 . S
C398 H384 0.929 . S
C398 C397 1.399 . S
C398 C399 1.385 1_545 S
C399 H385 0.931 . S
C399 C398 1.385 1_565 S
C399 C400 1.389 . S
C400 C399 1.389 . S
C400 C401 1.387 . S
C401 H386 0.930 . S
C401 C396 1.390 . S
C401 C400 1.387 . S
H402 C414 0.930 . S
H403 C416 0.930 . S
H404 C417 0.930 . S
H405 C421 0.959 . S
H406 C421 0.959 . S
H407 C421 0.961 . S
H408 C422 0.960 . S
H409 C422 0.961 . S
H410 C422 0.959 . S
H411 C425 0.929 . S
H412 C426 0.931 . S
H413 C428 0.930 . S
C414 H402 0.930 . S
C414 C415 1.399 . S
C414 C419 1.399 . S
C415 C414 1.399 . S
C415 C416 1.376 . S
C416 H403 0.930 . S
C416 C415 1.376 . S
C416 C417 1.388 . S
C417 H404 0.930 . S
C417 C416 1.388 . S
C417 C418 1.390 . S
C418 C417 1.390 . S
C418 C419 1.394 . S
C418 C424 1.465 . S
C419 C414 1.399 . S
C419 C418 1.394 . S
C419 C420 1.516 . S
C420 C419 1.516 . S
C420 C421 1.502 . S
C420 C422 1.561 . S
C420 C423 1.526 . S
C421 H405 0.959 . S
C421 H406 0.959 . S
C421 H407 0.961 . S
C421 C420 1.502 . S
C422 H408 0.960 . S
C422 H409 0.961 . S
C422 H410 0.959 . S
C422 C420 1.561 . S
C423 C420 1.526 . S
C423 C424 1.396 . S
C423 C428 1.390 1_655 S
C424 C418 1.465 . S
C424 C423 1.396 . S
C424 C425 1.399 1_655 S
C425 H411 0.929 . S
C425 C424 1.399 1_455 S
C425 C426 1.385 . S
C426 H412 0.931 . S
C426 C425 1.385 . S
C426 C427 1.389 . S
C427 C426 1.389 . S
C427 C428 1.387 . S
C428 H413 0.930 . S
C428 C423 1.390 1_455 S
C428 C427 1.387 . S
H429 C441 0.930 . S
H430 C443 0.930 . S
H431 C444 0.930 . S
H432 C448 0.959 . S
H433 C448 0.959 . S
H434 C448 0.961 . S
H435 C449 0.960 . S
H436 C449 0.961 . S
H437 C449 0.959 . S
H438 C452 0.929 . S
H439 C453 0.931 . S
H440 C455 0.930 1_565 S
C441 H429 0.930 . S
C441 C442 1.399 . S
C441 C446 1.399 . S
C442 C441 1.399 . S
C442 C443 1.376 . S
C443 H430 0.930 . S
C443 C442 1.376 . S
C443 C444 1.388 . S
C444 H431 0.930 . S
C444 C443 1.388 . S
C444 C445 1.390 . S
C445 C444 1.390 . S
C445 C446 1.394 . S
C445 C451 1.465 . S
C446 C441 1.399 . S
C446 C445 1.394 . S
C446 C447 1.516 . S
C447 C446 1.516 . S
C447 C448 1.502 . S
C447 C449 1.561 . S
C447 C450 1.526 . S
C448 H432 0.959 . S
C448 H433 0.959 . S
C448 H434 0.961 . S
C448 C447 1.502 . S
C449 H435 0.960 . S
C449 H436 0.961 . S
C449 H437 0.959 . S
C449 C447 1.561 . S
C450 C447 1.526 . S
C450 C451 1.396 . S
C450 C455 1.390 1_565 S
C451 C445 1.465 . S
C451 C450 1.396 . S
C451 C452 1.399 1_565 S
C452 H438 0.929 . S
C452 C451 1.399 1_545 S
C452 C453 1.385 . S
C453 H439 0.931 . S
C453 C452 1.385 . S
C453 C454 1.389 . S
C454 C453 1.389 . S
C454 C455 1.387 . S
C455 H440 0.930 1_545 S
C455 C450 1.390 1_545 S
C455 C454 1.387 . S
H456 C468 0.930 . S
H457 C470 0.930 . S
H458 C471 0.930 . S
H459 C475 0.959 . S
H460 C475 0.959 . S
H461 C475 0.961 . S
H462 C476 0.960 . S
H463 C476 0.961 . S
H464 C476 0.959 . S
H465 C479 0.929 . S
H466 C480 0.931 . S
H467 C482 0.930 . S
C468 H456 0.930 . S
C468 C469 1.399 . S
C468 C473 1.399 . S
C469 C468 1.399 . S
C469 C470 1.376 . S
C470 H457 0.930 . S
C470 C469 1.376 . S
C470 C471 1.388 . S
C471 H458 0.930 . S
C471 C470 1.388 . S
C471 C472 1.390 . S
C472 C471 1.390 . S
C472 C473 1.394 . S
C472 C478 1.465 . S
C473 C468 1.399 . S
C473 C472 1.394 . S
C473 C474 1.516 . S
C474 C473 1.516 . S
C474 C475 1.502 . S
C474 C476 1.561 . S
C474 C477 1.526 . S
C475 H459 0.959 . S
C475 H460 0.959 . S
C475 H461 0.961 . S
C475 C474 1.502 . S
C476 H462 0.960 . S
C476 H463 0.961 . S
C476 H464 0.959 . S
C476 C474 1.561 . S
C477 C474 1.526 . S
C477 C478 1.396 . S
C477 C482 1.390 . S
C478 C472 1.465 . S
C478 C477 1.396 . S
C478 C479 1.399 . S
C479 H465 0.929 . S
C479 C478 1.399 . S
C479 C480 1.385 . S
C480 H466 0.931 . S
C480 C479 1.385 . S
C480 C481 1.389 . S
C481 C480 1.389 . S
C481 C482 1.387 . S
C482 H467 0.930 . S
C482 C477 1.390 . S
C482 C481 1.387 . S
H483 C495 0.930 . S
H484 C497 0.930 . S
H485 C498 0.930 . S
H486 C502 0.959 . S
H487 C502 0.959 . S
H488 C502 0.961 . S
H489 C503 0.960 . S
H490 C503 0.961 . S
H491 C503 0.959 . S
H492 C506 0.929 . S
H493 C507 0.931 . S
H494 C509 0.930 . S
C495 H483 0.930 . S
C495 C496 1.399 . S
C495 C500 1.399 . S
C496 C495 1.399 . S
C496 C497 1.376 1_554 S
C497 H484 0.930 . S
C497 C496 1.376 1_556 S
C497 C498 1.388 . S
C498 H485 0.930 . S
C498 C497 1.388 . S
C498 C499 1.390 1_556 S
C499 C498 1.390 1_554 S
C499 C500 1.394 . S
C499 C505 1.465 . S
C500 C495 1.399 . S
C500 C499 1.394 . S
C500 C501 1.516 . S
C501 C500 1.516 . S
C501 C502 1.502 . S
C501 C503 1.561 . S
C501 C504 1.526 . S
C502 H486 0.959 . S
C502 H487 0.959 . S
C502 H488 0.961 . S
C502 C501 1.502 . S
C503 H489 0.960 . S
C503 H490 0.961 . S
C503 H491 0.959 . S
C503 C501 1.561 . S
C504 C501 1.526 . S
C504 C505 1.396 . S
C504 C509 1.390 . S
C505 C499 1.465 . S
C505 C504 1.396 . S
C505 C506 1.399 1_554 S
C506 H492 0.929 . S
C506 C505 1.399 1_556 S
C506 C507 1.385 . S
C507 H493 0.931 . S
C507 C506 1.385 . S
C507 C508 1.389 1_556 S
C508 C507 1.389 1_554 S
C508 C509 1.387 . S
C509 H494 0.930 . S
C509 C504 1.390 . S
C509 C508 1.387 . S
H510 C522 0.930 . S
H511 C524 0.930 . S
H512 C525 0.930 . S
H513 C529 0.959 . S
H514 C529 0.959 . S
H515 C529 0.961 . S
H516 C530 0.960 . S
H517 C530 0.961 . S
H518 C530 0.959 . S
H519 C533 0.929 . S
H520 C534 0.931 . S
H521 C536 0.930 . S
C522 H510 0.930 . S
C522 C523 1.399 . S
C522 C527 1.399 . S
C523 C522 1.399 . S
C523 C524 1.376 . S
C524 H511 0.930 . S
C524 C523 1.376 . S
C524 C525 1.388 . S
C525 H512 0.930 . S
C525 C524 1.388 . S
C525 C526 1.390 . S
C526 C525 1.390 . S
C526 C527 1.394 . S
C526 C532 1.465 . S
C527 C522 1.399 . S
C527 C526 1.394 . S
C527 C528 1.516 . S
C528 C527 1.516 . S
C528 C529 1.502 . S
C528 C530 1.561 . S
C528 C531 1.526 . S
C529 H513 0.959 . S
C529 H514 0.959 . S
C529 H515 0.961 . S
C529 C528 1.502 . S
C530 H516 0.960 . S
C530 H517 0.961 . S
C530 H518 0.959 . S
C530 C528 1.561 . S
C531 C528 1.526 . S
C531 C532 1.396 . S
C531 C536 1.390 . S
C532 C526 1.465 . S
C532 C531 1.396 . S
C532 C533 1.399 . S
C533 H519 0.929 . S
C533 C532 1.399 . S
C533 C534 1.385 . S
C534 H520 0.931 . S
C534 C533 1.385 . S
C534 C535 1.389 . S
C535 C534 1.389 . S
C535 C536 1.387 . S
C536 H521 0.930 . S
C536 C531 1.390 . S
C536 C535 1.387 . S
H537 C549 0.930 . S
H538 C551 0.944 . S
H539 C552 0.930 . S
H540 C556 0.959 . S
H541 C556 0.959 . S
H542 C556 0.961 . S
H543 C557 0.960 . S
H544 C557 0.961 . S
H545 C557 0.959 . S
H546 C560 0.929 . S
H547 C561 0.931 . S
H548 C563 0.930 . S
C549 H537 0.930 . S
C549 C550 1.399 . S
C549 C554 1.399 . S
C550 C549 1.399 . S
C550 C551 1.365 1_455 S
C551 H538 0.944 . S
C551 C550 1.365 1_655 S
C551 C552 1.387 1_655 S
C552 H539 0.930 . S
C552 C551 1.387 1_455 S
C552 C553 1.390 . S
C553 C552 1.390 . S
C553 C554 1.394 . S
C553 C559 1.465 . S
C554 C549 1.399 . S
C554 C553 1.394 . S
C554 C555 1.516 . S
C555 C554 1.516 . S
C555 C556 1.502 . S
C555 C557 1.561 . S
C555 C558 1.526 . S
C556 H540 0.959 . S
C556 H541 0.959 . S
C556 H542 0.961 . S
C556 C555 1.502 . S
C557 H543 0.960 . S
C557 H544 0.961 . S
C557 H545 0.959 . S
C557 C555 1.561 . S
C558 C555 1.526 . S
C558 C559 1.396 . S
C558 C563 1.390 . S
C559 C553 1.465 . S
C559 C558 1.396 . S
C559 C560 1.399 . S
C560 H546 0.929 . S
C560 C559 1.399 . S
C560 C561 1.385 . S
C561 H547 0.931 . S
C561 C560 1.385 . S
C561 C562 1.389 . S
C562 C561 1.389 . S
C562 C563 1.387 . S
C563 H548 0.930 . S
C563 C558 1.390 . S
C563 C562 1.387 . S
H564 C576 0.930 . S
H565 C578 0.930 . S
H566 C579 0.930 . S
H567 C583 0.959 . S
H568 C583 0.959 . S
H569 C583 0.961 . S
H570 C584 0.960 . S
H571 C584 0.961 . S
H572 C584 0.959 . S
H573 C587 0.929 . S
H574 C588 0.931 . S
H575 C590 0.930 . S
C576 H564 0.930 . S
C576 C577 1.399 . S
C576 C581 1.399 . S
C577 C576 1.399 . S
C577 C578 1.376 . S
C578 H565 0.930 . S
C578 C577 1.376 . S
C578 C579 1.388 . S
C579 H566 0.930 . S
C579 C578 1.388 . S
C579 C580 1.390 . S
C580 C579 1.390 . S
C580 C581 1.394 . S
C580 C586 1.465 . S
C581 C576 1.399 . S
C581 C580 1.394 . S
C581 C582 1.516 . S
C582 C581 1.516 . S
C582 C583 1.502 . S
C582 C584 1.561 . S
C582 C585 1.526 . S
C583 H567 0.959 . S
C583 H568 0.959 . S
C583 H569 0.961 . S
C583 C582 1.502 . S
C584 H570 0.960 . S
C584 H571 0.961 . S
C584 H572 0.959 . S
C584 C582 1.561 . S
C585 C582 1.526 . S
C585 C586 1.396 . S
C585 C590 1.390 . S
C586 C580 1.465 . S
C586 C585 1.396 . S
C586 C587 1.399 . S
C587 H573 0.929 . S
C587 C586 1.399 . S
C587 C588 1.385 . S
C588 H574 0.931 . S
C588 C587 1.385 . S
C588 C589 1.389 . S
C589 C588 1.389 . S
C589 C590 1.387 . S
C590 H575 0.930 . S
C590 C585 1.390 . S
C590 C589 1.387 . S
H591 C603 0.930 . S
H592 C605 0.930 . S
H593 C606 0.930 . S
H594 C610 0.959 . S
H595 C610 0.959 . S
H596 C610 0.961 . S
H597 C611 0.960 . S
H598 C611 0.961 . S
H599 C611 0.959 . S
H600 C614 0.929 . S
H601 C615 0.931 . S
H602 C617 0.930 . S
C603 H591 0.930 . S
C603 C604 1.399 . S
C603 C608 1.399 . S
C604 C603 1.399 . S
C604 C605 1.376 . S
C605 H592 0.930 . S
C605 C604 1.376 . S
C605 C606 1.388 . S
C606 H593 0.930 . S
C606 C605 1.388 . S
C606 C607 1.390 . S
C607 C606 1.390 . S
C607 C608 1.394 . S
C607 C613 1.465 . S
C608 C603 1.399 . S
C608 C607 1.394 . S
C608 C609 1.516 . S
C609 C608 1.516 . S
C609 C610 1.502 . S
C609 C611 1.561 . S
C609 C612 1.526 . S
C610 H594 0.959 . S
C610 H595 0.959 . S
C610 H596 0.961 . S
C610 C609 1.502 . S
C611 H597 0.960 . S
C611 H598 0.961 . S
C611 H599 0.959 . S
C611 C609 1.561 . S
C612 C609 1.526 . S
C612 C613 1.396 . S
C612 C617 1.390 . S
C613 C607 1.465 . S
C613 C612 1.396 . S
C613 C614 1.399 . S
C614 H600 0.929 . S
C614 C613 1.399 . S
C614 C615 1.385 . S
C615 H601 0.931 . S
C615 C614 1.385 . S
C615 C616 1.389 . S
C616 C615 1.389 . S
C616 C617 1.387 . S
C617 H602 0.930 . S
C617 C612 1.390 . S
C617 C616 1.387 . S
H618 C630 0.930 . S
H619 C632 0.930 . S
H620 C633 0.930 . S
H621 C637 0.959 . S
H622 C637 0.959 . S
H623 C637 0.961 . S
H624 C638 0.960 . S
H625 C638 0.961 . S
H626 C638 0.959 . S
H627 C641 0.929 . S
H628 C642 0.931 . S
H629 C644 0.930 . S
C630 H618 0.930 . S
C630 C631 1.399 . S
C630 C635 1.399 . S
C631 C630 1.399 . S
C631 C632 1.376 . S
C632 H619 0.930 . S
C632 C631 1.376 . S
C632 C633 1.388 . S
C633 H620 0.930 . S
C633 C632 1.388 . S
C633 C634 1.390 . S
C634 C633 1.390 . S
C634 C635 1.394 . S
C634 C640 1.465 . S
C635 C630 1.399 . S
C635 C634 1.394 . S
C635 C636 1.516 . S
C636 C635 1.516 . S
C636 C637 1.502 1_655 S
C636 C638 1.561 . S
C636 C639 1.526 . S
C637 H621 0.959 . S
C637 H622 0.959 . S
C637 H623 0.961 . S
C637 C636 1.502 1_455 S
C638 H624 0.960 . S
C638 H625 0.961 . S
C638 H626 0.959 . S
C638 C636 1.561 . S
C639 C636 1.526 . S
C639 C640 1.396 . S
C639 C644 1.390 . S
C640 C634 1.465 . S
C640 C639 1.396 . S
C640 C641 1.399 . S
C641 H627 0.929 . S
C641 C640 1.399 . S
C641 C642 1.385 . S
C642 H628 0.931 . S
C642 C641 1.385 . S
C642 C643 1.389 . S
C643 C642 1.389 . S
C643 C644 1.387 . S
C644 H629 0.930 . S
C644 C639 1.390 . S
C644 C643 1.387 . S
H645 C657 0.930 . S
H646 C659 0.930 1_545 S
H647 C660 0.930 1_545 S
H648 C664 0.959 . S
H649 C664 0.959 . S
H650 C664 0.961 . S
H651 C665 0.960 . S
H652 C665 0.961 . S
H653 C665 0.959 . S
H654 C668 0.929 1_545 S
H655 C669 0.931 . S
H656 C671 0.930 . S
C657 H645 0.930 . S
C657 C658 1.399 . S
C657 C662 1.399 . S
C658 C657 1.399 . S
C658 C659 1.376 . S
C659 H646 0.930 1_565 S
C659 C658 1.376 . S
C659 C660 1.388 . S
C660 H647 0.930 1_565 S
C660 C659 1.388 . S
C660 C661 1.390 . S
C661 C660 1.390 . S
C661 C662 1.394 . S
C661 C667 1.465 . S
C662 C657 1.399 . S
C662 C661 1.394 . S
C662 C663 1.516 . S
C663 C662 1.516 . S
C663 C664 1.502 . S
C663 C665 1.561 . S
C663 C666 1.526 . S
C664 H648 0.959 . S
C664 H649 0.959 . S
C664 H650 0.961 . S
C664 C663 1.502 . S
C665 H651 0.960 . S
C665 H652 0.961 . S
C665 H653 0.959 . S
C665 C663 1.561 . S
C666 C663 1.526 . S
C666 C667 1.396 . S
C666 C671 1.390 . S
C667 C661 1.465 . S
C667 C666 1.396 . S
C667 C668 1.399 . S
C668 H654 0.929 1_565 S
C668 C667 1.399 . S
C668 C669 1.385 . S
C669 H655 0.931 . S
C669 C668 1.385 . S
C669 C670 1.389 . S
C670 C669 1.389 . S
C670 C671 1.387 . S
C671 H656 0.930 . S
C671 C666 1.390 . S
C671 C670 1.387 . S
H672 C684 0.930 . S
H673 C686 0.930 . S
H674 C687 0.930 . S
H675 C691 0.959 . S
H676 C691 0.959 . S
H677 C691 0.961 . S
H678 C692 0.960 1_545 S
H679 C692 0.961 1_545 S
H680 C692 0.959 1_545 S
H681 C695 0.929 1_655 S
H682 C696 0.931 . S
H683 C698 0.930 . S
C684 H672 0.930 . S
C684 C685 1.399 . S
C684 C689 1.399 . S
C685 C684 1.399 . S
C685 C686 1.376 1_455 S
C686 H673 0.930 . S
C686 C685 1.376 1_655 S
C686 C687 1.388 . S
C687 H674 0.930 . S
C687 C686 1.388 . S
C687 C688 1.390 1_655 S
C688 C687 1.390 1_455 S
C688 C689 1.394 . S
C688 C694 1.465 . S
C689 C684 1.399 . S
C689 C688 1.394 . S
C689 C690 1.516 . S
C690 C689 1.516 . S
C690 C691 1.502 . S
C690 C692 1.561 . S
C690 C693 1.526 . S
C691 H675 0.959 . S
C691 H676 0.959 . S
C691 H677 0.961 . S
C691 C690 1.502 . S
C692 H678 0.960 1_565 S
C692 H679 0.961 1_565 S
C692 H680 0.959 1_565 S
C692 C690 1.561 . S
C693 C690 1.526 . S
C693 C694 1.396 . S
C693 C698 1.390 . S
C694 C688 1.465 . S
C694 C693 1.396 . S
C694 C695 1.399 . S
C695 H681 0.929 1_455 S
C695 C694 1.399 . S
C695 C696 1.385 . S
C696 H682 0.931 . S
C696 C695 1.385 . S
C696 C697 1.389 . S
C697 C696 1.389 . S
C697 C698 1.387 . S
C698 H683 0.930 . S
C698 C693 1.390 . S
C698 C697 1.387 . S
H699 C711 0.930 . S
H700 C713 0.930 1_565 S
H701 C714 0.930 1_565 S
H702 C718 0.959 . S
H703 C718 0.959 . S
H704 C718 0.961 . S
H705 C719 0.960 . S
H706 C719 0.961 . S
H707 C719 0.959 . S
H708 C722 0.929 . S
H709 C723 0.931 . S
H710 C725 0.930 . S
C711 H699 0.930 . S
C711 C712 1.399 . S
C711 C716 1.399 . S
C712 C711 1.399 . S
C712 C713 1.376 . S
C713 H700 0.930 1_545 S
C713 C712 1.376 . S
C713 C714 1.388 . S
C714 H701 0.930 1_545 S
C714 C713 1.388 . S
C714 C715 1.390 . S
C715 C714 1.390 . S
C715 C716 1.394 . S
C715 C721 1.465 . S
C716 C711 1.399 . S
C716 C715 1.394 . S
C716 C717 1.516 . S
C717 C716 1.516 . S
C717 C718 1.502 . S
C717 C719 1.561 . S
C717 C720 1.526 . S
C718 H702 0.959 . S
C718 H703 0.959 . S
C718 H704 0.961 . S
C718 C717 1.502 . S
C719 H705 0.960 . S
C719 H706 0.961 . S
C719 H707 0.959 . S
C719 C717 1.561 . S
C720 C717 1.526 . S
C720 C721 1.396 . S
C720 C725 1.390 . S
C721 C715 1.465 . S
C721 C720 1.396 . S
C721 C722 1.399 . S
C722 H708 0.929 . S
C722 C721 1.399 . S
C722 C723 1.385 . S
C723 H709 0.931 . S
C723 C722 1.385 . S
C723 C724 1.389 . S
C724 C723 1.389 . S
C724 C725 1.387 . S
C725 H710 0.930 . S
C725 C720 1.390 . S
C725 C724 1.387 . S
C253 C138 0.729 . S
C265 C18 0.856 . S
C280 C178 0.876 . S
C292 C58 0.686 . S
C307 C218 0.612 . S
C319 C98 0.851 . S
C334 C5 0.880 . S
C346 C95 0.669 . S
C361 C45 0.718 . S
C373 C135 0.884 . S
C388 C85 0.838 . S
C400 C175 0.676 . S
C415 C125 0.824 . S
C427 C215 0.681 . S
C442 C165 0.715 . S
C454 C15 0.769 . S
C469 C205 0.688 . S
C481 C55 0.889 . S
C496 C8 1.617 . S
C508 C128 1.638 1_545 S
C523 C48 1.618 . S
C535 C168 1.649 . S
C550 C88 1.670 1_455 S
C562 C208 1.636 . S
C577 C19 3.994 . S
C589 C49 4.067 . S
C604 C59 4.015 . S
C616 C89 4.062 . S
C631 C99 4.011 . S
C643 C129 4.057 . S
C658 C139 3.994 . S
C670 C169 4.066 . S
C685 C179 4.006 . S
C697 C209 4.067 . S
C712 C219 4.010 . S
C724 C9 4.065 . S
