# Generated by pormake.
# Topology unh, (4)-cn, num edge types: 1
# Building blocks:
#     Node 0, Type 0, BuildingBlock: ESEHIV_clean_sbu_0, # of connection points: 4
#     Node 1, Type 0, BuildingBlock: ESEHIV_clean_sbu_0, # of connection points: 4
#     Node 2, Type 0, BuildingBlock: ESEHIV_clean_sbu_0, # of connection points: 4
#     Node 3, Type 0, BuildingBlock: ESEHIV_clean_sbu_0, # of connection points: 4
#     Node 4, Type 0, BuildingBlock: ESEHIV_clean_sbu_0, # of connection points: 4
#     Node 5, Type 0, BuildingBlock: ESEHIV_clean_sbu_0, # of connection points: 4
#     Edge 6, Type (0, 0), BuildingBlock: KIFKEQ_clean_linker_1, # of connection points: 2
#     Edge 7, Type (0, 0), BuildingBlock: KIFKEQ_clean_linker_1, # of connection points: 2
#     Edge 8, Type (0, 0), BuildingBlock: KIFKEQ_clean_linker_1, # of connection points: 2
#     Edge 9, Type (0, 0), BuildingBlock: KIFKEQ_clean_linker_1, # of connection points: 2
#     Edge 10, Type (0, 0), BuildingBlock: KIFKEQ_clean_linker_1, # of connection points: 2
#     Edge 11, Type (0, 0), BuildingBlock: KIFKEQ_clean_linker_1, # of connection points: 2
#     Edge 12, Type (0, 0), BuildingBlock: KIFKEQ_clean_linker_1, # of connection points: 2
#     Edge 13, Type (0, 0), BuildingBlock: KIFKEQ_clean_linker_1, # of connection points: 2
#     Edge 14, Type (0, 0), BuildingBlock: KIFKEQ_clean_linker_1, # of connection points: 2
#     Edge 15, Type (0, 0), BuildingBlock: KIFKEQ_clean_linker_1, # of connection points: 2
#     Edge 16, Type (0, 0), BuildingBlock: KIFKEQ_clean_linker_1, # of connection points: 2
#     Edge 17, Type (0, 0), BuildingBlock: KIFKEQ_clean_linker_1, # of connection points: 2
# Relax obj value: 0.010
# Max RMSD: 0.159
# Mean RMSD: 0.159
data_MOF--net-unh--node1-ESEHIV_clean_sbu_0--edge1-KIFKEQ_clean_linker_1
_symmetry_space_group_name_H-M    P1
_symmetry_Int_Tables_number       1
_symmetry_cell_setting            triclinic
loop_
_symmetry_equiv_pos_as_xyz
'x, y, z'
_cell_length_a     50.999554
_cell_length_b     51.144297
_cell_length_c     20.937446
_cell_angle_alpha  89.96495
_cell_angle_beta   89.8391
_cell_angle_gamma 120.15461
loop_
_atom_site_label
_atom_site_type_symbol
_atom_site_fract_x
_atom_site_fract_y
_atom_site_fract_z
_atom_type_partial_charge
Cu0 Cu 0.17486 0.57432 0.13086 0.0
N1 N 0.1535 0.5544 0.05718 0.0
N2 N 0.11648 0.53113 0.9852 0.0
C3 C 0.1238 0.54299 0.0446 0.0
C4 C 0.14263 0.53513 0.95981 0.0
C5 C 0.16535 0.54947 1.00424 0.0
O6 O 0.14627 0.57084 0.19698 0.0
C7 C 0.20038 0.63103 0.06636 0.0
O8 O 0.17412 0.61871 0.037 0.0
H9 H 0.10791 0.54336 0.07833 0.0
H10 H 0.18902 0.55632 0.99812 0.0
N11 N 0.19585 0.55543 0.15968 0.0
N12 N 0.23227 0.54806 0.19959 0.0
C13 C 0.22295 0.56823 0.18922 0.0
C14 C 0.18767 0.52623 0.15142 0.0
C15 C 0.2101 0.52162 0.17582 0.0
C16 C 0.12887 0.58183 0.19104 0.0
O17 O 0.13136 0.59789 0.14005 0.0
H18 H 0.23601 0.59203 0.20088 0.0
H19 H 0.16706 0.5096 0.12818 0.0
O20 O 0.20471 0.6161 0.10964 0.0
H21 H 0.14541 0.52898 0.91188 0.0
H22 H 0.21014 0.50048 0.17584 0.0
Cu23 Cu 0.62262 0.16337 0.29502 0.0
N24 N 0.62055 0.1415 0.22173 0.0
N25 N 0.6057 0.10428 0.15008 0.0
C26 C 0.60147 0.11199 0.20941 0.0
C27 C 0.62845 0.12996 0.12446 0.0
C28 C 0.6375 0.15282 0.16867 0.0
O29 O 0.59742 0.13533 0.36197 0.0
C30 C 0.5908 0.18816 0.23149 0.0
O31 O 0.57584 0.16132 0.20507 0.0
H32 H 0.58483 0.09651 0.24321 0.0
H33 H 0.65487 0.17623 0.16231 0.0
N34 N 0.66278 0.18397 0.32301 0.0
N35 N 0.70667 0.21904 0.36571 0.0
C36 C 0.67712 0.2101 0.35594 0.0
C37 C 0.68383 0.17603 0.31188 0.0
C38 C 0.7109 0.1976 0.338 0.0
C39 C 0.56884 0.11821 0.35686 0.0
O40 O 0.55507 0.12071 0.30632 0.0
H41 H 0.66628 0.22263 0.37106 0.0
H42 H 0.67978 0.15604 0.28602 0.0
O43 O 0.61112 0.19332 0.27282 0.0
H44 H 0.63733 0.13235 0.07648 0.0
H45 H 0.73202 0.1974 0.337 0.0
Cu46 Cu 0.48307 0.60886 0.45729 0.0
N47 N 0.509 0.61223 0.39011 0.0
N48 N 0.533 0.60063 0.31541 0.0
C49 C 0.51149 0.58991 0.36164 0.0
C50 C 0.54436 0.63084 0.31486 0.0
C51 C 0.52953 0.63788 0.3608 0.0
O52 O 0.48511 0.58272 0.52197 0.0
C53 C 0.4366 0.59749 0.36881 0.0
O54 O 0.45941 0.61062 0.32856 0.0
H55 H 0.49809 0.56636 0.37515 0.0
H56 H 0.53334 0.66017 0.3719 0.0
N57 N 0.49731 0.64679 0.49457 0.0
N58 N 0.49905 0.68706 0.54097 0.0
C59 C 0.48127 0.65992 0.5129 0.0
C60 C 0.52609 0.66609 0.5118 0.0
C61 C 0.52728 0.69095 0.54017 0.0
C62 C 0.47243 0.55414 0.51671 0.0
O63 O 0.45525 0.54082 0.46689 0.0
H64 H 0.45708 0.64971 0.50579 0.0
H65 H 0.54483 0.6621 0.505 0.0
O66 O 0.44177 0.59395 0.42677 0.0
H67 H 0.56183 0.64672 0.28287 0.0
H68 H 0.5473 0.71 0.56018 0.0
Cu69 Cu 0.89361 0.46766 0.63052 0.0
N70 N 0.91361 0.49135 0.55929 0.0
N71 N 0.94873 0.51545 0.48357 0.0
C72 C 0.93953 0.49553 0.53262 0.0
C73 C 0.92766 0.52398 0.47931 0.0
C74 C 0.90605 0.50907 0.526 0.0
O75 O 0.92418 0.46605 0.68301 0.0
C76 C 0.86804 0.40827 0.58068 0.0
O77 O 0.89626 0.41416 0.58039 0.0
H78 H 0.95176 0.48475 0.55 0.0
H79 H 0.88637 0.51123 0.5356 0.0
N80 N 0.87586 0.48622 0.6761 0.0
N81 N 0.84197 0.49458 0.72635 0.0
C82 C 0.84662 0.47438 0.69388 0.0
C83 C 0.89021 0.51475 0.69805 0.0
C84 C 0.86942 0.52 0.72897 0.0
C85 C 0.92275 0.46407 0.74366 0.0
O86 O 0.89832 0.46033 0.77311 0.0
H87 H 0.82911 0.45157 0.6824 0.0
H88 H 0.91417 0.53058 0.69202 0.0
O89 O 0.86218 0.42807 0.60192 0.0
H90 H 0.92774 0.53976 0.44473 0.0
H91 H 0.8743 0.54084 0.75227 0.0
Cu92 Cu 0.4452 0.88206 0.79248 0.0
N93 N 0.44225 0.90215 0.72073 0.0
N94 N 0.45396 0.93766 0.64604 0.0
C95 C 0.46421 0.92837 0.69559 0.0
C96 C 0.42444 0.91636 0.63981 0.0
C97 C 0.41732 0.89451 0.68585 0.0
O98 O 0.47589 0.91285 0.84727 0.0
C99 C 0.43863 0.83097 0.72873 0.0
O100 O 0.41279 0.82874 0.71186 0.0
H101 H 0.48701 0.94077 0.71445 0.0
H102 H 0.39538 0.87464 0.69399 0.0
N103 N 0.4077 0.86281 0.83459 0.0
N104 N 0.3658 0.82856 0.88632 0.0
C105 C 0.39302 0.83507 0.86144 0.0
C106 C 0.3894 0.87435 0.84275 0.0
C107 C 0.36363 0.8534 0.87429 0.0
C108 C 0.47515 0.91181 0.90802 0.0
O109 O 0.45364 0.88772 0.93694 0.0
H110 H 0.40227 0.82013 0.86251 0.0
H111 H 0.39435 0.8964 0.82608 0.0
O112 O 0.45639 0.85261 0.76509 0.0
H113 H 0.40909 0.91649 0.60438 0.0
H114 H 0.34458 0.85628 0.88605 0.0
Cu115 Cu 0.58492 0.43153 0.9538 0.0
N116 N 0.56516 0.43081 0.87803 0.0
N117 N 0.54309 0.44228 0.79905 0.0
C118 C 0.55574 0.44979 0.85784 0.0
C119 C 0.54452 0.41753 0.78223 0.0
C120 C 0.55814 0.41061 0.8308 0.0
O121 O 0.57994 0.45656 1.01721 0.0
C122 C 0.64164 0.46282 0.8891 0.0
O123 O 0.62819 0.47451 0.85588 0.0
H124 H 0.55872 0.46904 0.8851 0.0
H125 H 0.56276 0.39215 0.83167 0.0
N126 N 0.56654 0.39198 0.98511 0.0
N127 N 0.55916 0.34889 1.02871 0.0
C128 C 0.57913 0.37852 1.01851 0.0
C129 C 0.53768 0.37024 0.97451 0.0
C130 C 0.53309 0.34363 1.00106 0.0
C131 C 0.59153 0.48506 1.01192 0.0
O132 O 0.6089 0.49903 0.96248 0.0
H133 H 0.60266 0.38993 0.03311 0.0
H134 H 0.52129 0.37343 0.94814 0.0
O135 O 0.62733 0.44483 0.935 0.0
H136 H 0.53619 0.40507 0.73812 0.0
H137 H 0.51224 0.32202 0.99994 0.0
H138 H 0.09568 0.49076 0.88772 0.0
H139 H 0.07104 0.54269 1.01115 0.0
H140 H 0.04773 0.47134 0.83131 0.0
H141 H 1.02317 0.52333 0.95476 0.0
H142 H 0.9289 0.46496 0.8737 0.0
H143 H 0.97465 0.47832 0.93453 0.0
H144 H 1.0238 0.48977 0.75862 0.0
H145 H 0.97799 0.47586 0.6979 0.0
C146 C 0.08011 0.49813 0.90277 0.0
C147 C 0.08739 0.51844 0.95391 0.0
C148 C 0.05258 0.48696 0.87039 0.0
C149 C 1.03157 0.49581 0.88829 0.0
C150 C 0.03858 0.51565 0.94024 0.0
C151 C 0.06611 0.5268 0.97264 0.0
C152 C 0.94937 0.46999 0.84799 0.0
C153 C 0.94975 0.46943 0.78085 0.0
C154 C 0.97568 0.47788 0.8829 0.0
C155 C 1.00301 0.48535 0.85154 0.0
C156 C 1.00312 0.48387 0.78445 0.0
C157 C 0.97683 0.476 0.74955 0.0
H158 H 0.52004 0.96639 0.86293 0.0
H159 H 0.47889 0.9183 0.03815 0.0
H160 H 0.55258 1.01183 0.92387 0.0
H161 H 0.51196 0.96368 0.09929 0.0
H162 H 0.54766 0.06057 0.17542 0.0
H163 H 0.51778 1.01298 0.11901 0.0
H164 H 0.59458 0.03439 0.99735 0.0
H165 H 0.62442 0.08206 0.05367 0.0
C166 C 0.51819 0.96537 0.91453 0.0
C167 C 0.49673 0.93868 0.94558 0.0
C168 C 0.53699 0.99144 0.94957 0.0
C169 C 0.53486 0.99151 1.01657 0.0
C170 C 0.5139 0.96459 0.04771 0.0
C171 C 0.49507 0.93849 1.01264 0.0
C172 C 0.55835 0.05498 0.13728 0.0
C173 C 0.58846 0.0753 0.11897 0.0
C174 C 0.54118 0.02762 0.10488 0.0
C175 C 0.5537 1.01984 0.05339 0.0
C176 C 0.58402 0.03987 0.03601 0.0
C177 C 0.60116 0.06724 0.06834 0.0
H178 H 0.58794 0.62047 0.25999 0.0
H179 H 0.49852 0.54209 0.27836 0.0
H180 H 0.60283 0.59243 0.18917 0.0
H181 H 0.51326 0.51403 0.20684 0.0
H182 H 0.55796 0.46373 0.12188 0.0
H183 H 0.54457 0.4914 0.19756 0.0
H184 H 0.59399 0.5723 0.08331 0.0
H185 H 0.60801 0.54487 1.0087 0.0
C186 C 0.57135 0.59731 0.24854 0.0
C187 C 0.54197 0.58362 0.27474 0.0
C188 C 0.5799 0.58119 0.2078 0.0
C189 C 0.55925 0.55095 0.19186 0.0
C190 C 0.52993 0.53713 0.21868 0.0
C191 C 0.52143 0.55324 0.2597 0.0
C192 C 0.5661 0.48746 0.11307 0.0
C193 C 0.58411 0.50206 0.05916 0.0
C194 C 0.55823 0.5033 0.1563 0.0
C195 C 0.56811 0.53413 0.14665 0.0
C196 C 0.58631 0.54873 0.09292 0.0
C197 C 0.59425 0.53292 0.04984 0.0
H198 H 0.9779 0.4849 0.45425 0.0
H199 H 0.98076 0.56982 0.4246 0.0
H200 H 1.02248 0.50206 0.38618 0.0
H201 H 1.02558 0.58726 0.35752 0.0
H202 H 0.08297 0.59457 0.18294 0.0
H203 H 0.04023 0.57895 0.2552 0.0
H204 H 0.07587 0.53635 0.37819 0.0
H205 H 0.11825 0.55123 0.30458 0.0
C206 C 0.98825 0.50737 0.43382 0.0
C207 C 0.97562 0.52589 0.44464 0.0
C208 C 1.01391 0.51729 0.39485 0.0
C209 C 1.02771 0.54607 0.36602 0.0
C210 C 1.01529 0.56474 0.37777 0.0
C211 C 0.98955 0.55475 0.41635 0.0
C212 C 0.08185 0.58205 0.2256 0.0
C213 C 0.10408 0.57413 0.23783 0.0
C214 C 0.05734 0.57318 0.26734 0.0
C215 C 0.05446 0.55631 0.32272 0.0
C216 C 0.07703 0.54889 0.33555 0.0
C217 C 0.10149 0.55763 0.29356 0.0
H218 H 0.50993 0.07265 0.3493 0.0
H219 H 0.58896 0.10758 0.47007 0.0
H220 H 0.48266 0.03002 0.42127 0.0
H221 H 0.56126 0.06528 0.54362 0.0
H222 H 0.51408 0.96723 0.61844 0.0
H223 H 0.54191 1.01213 0.55165 0.0
H224 H 0.45955 1.01512 0.52302 0.0
H225 H 0.43181 0.96994 0.58854 0.0
C226 C 0.52138 0.07149 0.39176 0.0
C227 C 0.55168 0.09357 0.40379 0.0
C228 C 0.50564 0.04703 0.43337 0.0
C229 C 0.51967 0.04407 0.4885 0.0
C230 C 0.54984 0.06651 0.50118 0.0
C231 C 0.56567 0.09092 0.45925 0.0
C232 C 0.50202 0.97765 0.59825 0.0
C233 C 0.47068 0.96485 0.60843 0.0
C234 C 0.51798 1.00348 0.56006 0.0
C235 C 0.50302 1.01731 0.53151 0.0
C236 C 0.47177 1.0048 0.54296 0.0
C237 C 0.4558 0.97886 0.58065 0.0
H238 H 0.53637 0.44026 0.67014 0.0
H239 H 0.52327 0.47985 0.84085 0.0
H240 H 0.51676 0.46607 0.60586 0.0
H241 H 0.50383 0.50602 0.77593 0.0
H242 H 0.50662 0.57462 0.62537 0.0
H243 H 0.52206 0.54688 0.69601 0.0
H244 H 0.4697 0.46614 0.584 0.0
H245 H 0.45455 0.49394 0.51279 0.0
C246 C 0.529 0.45415 0.69426 0.0
C247 C 0.53137 0.45776 0.76103 0.0
C248 C 0.5177 0.469 0.6572 0.0
C249 C 0.50854 0.488 0.6857 0.0
C250 C 0.51094 0.49175 0.75239 0.0
C251 C 0.52216 0.47677 0.78962 0.0
C252 C 0.49816 0.55088 0.61608 0.0
C253 C 0.47947 0.53657 0.56309 0.0
C254 C 0.50691 0.53493 0.65683 0.0
C255 C 0.4973 0.50433 0.64544 0.0
C256 C 0.47789 0.48981 0.59356 0.0
C257 C 0.46903 0.50571 0.55296 0.0
H258 H 0.26468 0.5884 0.29227 0.0
H259 H 0.26426 0.52078 0.1684 0.0
H260 H 0.31347 0.59881 0.33646 0.0
H261 H 0.31278 0.53107 0.21251 0.0
H262 H 0.4165 0.58908 0.24614 0.0
H263 H 0.36627 0.57598 0.20792 0.0
H264 H 0.33604 0.57206 0.40228 0.0
H265 H 0.38651 0.585 0.44095 0.0
C266 C 0.27501 0.57579 0.27454 0.0
C267 C 0.26064 0.55381 0.2268 0.0
C268 C 0.30275 0.58153 0.30021 0.0
C269 C 0.31693 0.56575 0.2779 0.0
C270 C 0.30248 0.54369 0.23041 0.0
C271 C 0.27459 0.53766 0.20547 0.0
C272 C 0.39914 0.58528 0.28087 0.0
C273 C 0.4055 0.58806 0.34661 0.0
C274 C 0.37032 0.57764 0.25892 0.0
C275 C 0.34723 0.573 0.30209 0.0
C276 C 0.35348 0.57569 0.36792 0.0
C277 C 0.38228 0.58289 0.39002 0.0
H278 H 0.76693 0.25052 0.34099 0.0
H279 H 0.69773 0.2489 0.46273 0.0
H280 H 0.80528 0.29569 0.3949 0.0
H281 H 0.7362 0.29388 0.51801 0.0
H282 H 0.80908 0.39254 0.55726 0.0
H283 H 0.76983 0.34681 0.50607 0.0
H284 H 0.83209 0.31296 0.4922 0.0
H285 H 0.87158 0.35913 0.54133 0.0
C286 C 0.75995 0.25963 0.37983 0.0
C287 C 0.72925 0.24601 0.39765 0.0
C288 C 0.78198 0.28555 0.411 0.0
C289 C 0.774 0.29847 0.46129 0.0
C290 C 0.74322 0.28487 0.47899 0.0
C291 C 0.72112 0.25904 0.44738 0.0
C292 C 0.81436 0.37528 0.5435 0.0
C293 C 0.84357 0.3796 0.55314 0.0
C294 C 0.79176 0.34893 0.51439 0.0
C295 C 0.79771 0.32612 0.49453 0.0
C296 C 0.82677 0.33023 0.50558 0.0
C297 C 0.84942 0.35666 0.53425 0.0
H298 H 0.4056 0.78283 0.65012 0.0
H299 H 0.49094 0.8295 0.75038 0.0
H300 H 0.42002 0.74792 0.60537 0.0
H301 H 0.50514 0.79409 0.70647 0.0
H302 H 0.53416 0.74768 0.55758 0.0
H303 H 0.51938 0.7818 0.60503 0.0
H304 H 0.42853 0.70689 0.63377 0.0
H305 H 0.44333 0.67271 0.58617 0.0
C306 C 0.42738 0.78554 0.66303 0.0
C307 C 0.44715 0.80907 0.70375 0.0
C308 C 0.43557 0.76536 0.63759 0.0
C309 C 0.46377 0.76817 0.65217 0.0
C310 C 0.48342 0.79151 0.69349 0.0
C311 C 0.47521 0.81171 0.71901 0.0
C312 C 0.51109 0.73837 0.57446 0.0
C313 C 0.48999 0.70734 0.56802 0.0
C314 C 0.50262 0.75799 0.60182 0.0
C315 C 0.47279 0.74713 0.62352 0.0
C316 C 0.45161 0.71612 0.61685 0.0
C317 C 0.46009 0.69649 0.58943 0.0
H318 H 0.67372 0.43718 0.93662 0.0
H319 H 0.67865 0.50171 0.79684 0.0
H320 H 0.72275 0.44517 0.89967 0.0
H321 H 0.72722 0.5093 0.75952 0.0
H322 H 0.82699 0.53774 0.74838 0.0
H323 H 0.77968 0.53078 0.79227 0.0
H324 H 0.74477 0.43458 0.80533 0.0
H325 H 0.79262 0.44168 0.76323 0.0
C326 C 0.6853 0.45317 0.89828 0.0
C327 C 0.67222 0.46881 0.86975 0.0
C328 C 0.71329 0.45757 0.87677 0.0
C329 C 0.72892 0.47783 0.82651 0.0
C330 C 0.71602 0.4938 0.7988 0.0
C331 C 0.68805 0.48932 0.82007 0.0
C332 C 0.80942 0.51513 0.76121 0.0
C333 C 0.81373 0.49028 0.75217 0.0
C334 C 0.78211 0.5111 0.78582 0.0
C335 C 0.75834 0.48211 0.80223 0.0
C336 C 0.76269 0.45725 0.79377 0.0
C337 C 0.79002 0.46128 0.76888 0.0
H338 H 0.36412 0.77422 0.89137 0.0
H339 H 0.31567 0.81911 0.95318 0.0
H340 H 0.32508 0.72743 0.93999 0.0
H341 H 0.27656 0.77216 0.99981 0.0
H342 H 0.19585 0.67323 0.99503 0.0
H343 H 0.23683 0.72149 0.95543 0.0
H344 H 0.30237 0.70513 0.04995 0.0
H345 H 0.26126 0.65677 0.09021 0.0
C346 C 0.34547 0.77443 0.91543 0.0
C347 C 0.34328 0.80083 0.91729 0.0
C348 C 0.32302 0.74746 0.94341 0.0
C349 C 0.29766 0.74608 0.97333 0.0
C350 C 0.29563 0.77241 0.97624 0.0
C351 C 0.31818 0.79943 0.94907 0.0
C352 C 0.21896 0.67998 1.0078 0.0
C353 C 0.22527 0.66115 0.04582 0.0
C354 C 0.24243 0.70769 0.98529 0.0
C355 C 0.27282 0.71707 0.99949 0.0
C356 C 0.27918 0.69838 0.03786 0.0
C357 C 0.25562 0.67081 0.06125 0.0
H358 H 0.53722 0.29101 0.99318 0.0
H359 H 0.59335 0.35692 0.13359 0.0
H360 H 0.54519 0.25311 0.04517 0.0
H361 H 0.60032 0.3186 0.18846 0.0
H362 H 0.63014 0.2493 0.23456 0.0
H363 H 0.62318 0.28889 0.1866 0.0
H364 H 0.53191 0.22165 0.13271 0.0
H365 H 0.53973 0.18221 0.17718 0.0
C366 C 0.55099 0.29722 0.03586 0.0
C367 C 0.56455 0.32683 0.05954 0.0
C368 C 0.55544 0.27543 0.06615 0.0
C369 C 0.5731 0.28244 0.12192 0.0
C370 C 0.58687 0.31228 0.14535 0.0
C371 C 0.58284 0.33428 0.11414 0.0
C372 C 0.60854 0.24312 0.21279 0.0
C373 C 0.58557 0.21264 0.20913 0.0
C374 C 0.60446 0.26584 0.18543 0.0
C375 C 0.57708 0.25864 0.15473 0.0
C376 C 0.55367 0.22817 0.15394 0.0
C377 C 0.558 0.20547 0.18007 0.0
loop_
_geom_bond_atom_site_label_1
_geom_bond_atom_site_label_2
_geom_bond_distance
_geom_bond_site_symmetry_2
_ccdc_geom_bond_type
Cu0 N1 1.999 . S
Cu0 O6 1.974 . S
Cu0 N11 1.985 . S
Cu0 O20 1.959 . S
N1 Cu0 1.999 . S
N1 C3 1.263 . S
N1 C5 1.389 1_554 S
N2 C3 1.358 1_556 S
N2 C4 1.400 . S
C3 N1 1.263 . S
C3 N2 1.358 1_554 S
C3 H9 0.930 . S
C4 N2 1.400 . S
C4 C5 1.351 . S
C4 H21 0.930 . S
C5 N1 1.389 1_556 S
C5 C4 1.351 . S
C5 H10 0.930 . S
O6 Cu0 1.974 . S
O6 C16 1.282 . S
C7 O8 1.261 . S
C7 O20 1.251 . S
O8 C7 1.261 . S
H9 C3 0.930 . S
H10 C5 0.930 . S
N11 Cu0 1.985 . S
N11 C13 1.335 . S
N11 C14 1.390 . S
N12 C13 1.345 . S
N12 C15 1.336 . S
C13 N11 1.335 . S
C13 N12 1.345 . S
C13 H18 0.930 . S
C14 N11 1.390 . S
C14 C15 1.346 . S
C14 H19 0.930 . S
C15 N12 1.336 . S
C15 C14 1.346 . S
C15 H22 0.929 . S
C16 O6 1.282 . S
C16 O17 1.216 . S
O17 C16 1.216 . S
H18 C13 0.930 . S
H19 C14 0.930 . S
O20 Cu0 1.959 . S
O20 C7 1.251 . S
H21 C4 0.930 . S
H22 C15 0.929 . S
Cu23 N24 1.999 . S
Cu23 O29 1.974 . S
Cu23 N34 1.985 . S
Cu23 O43 1.959 . S
N24 Cu23 1.999 . S
N24 C26 1.263 . S
N24 C28 1.389 . S
N25 C26 1.358 . S
N25 C27 1.400 . S
C26 N24 1.263 . S
C26 N25 1.358 . S
C26 H32 0.930 . S
C27 N25 1.400 . S
C27 C28 1.351 . S
C27 H44 0.930 . S
C28 N24 1.389 . S
C28 C27 1.351 . S
C28 H33 0.930 . S
O29 Cu23 1.974 . S
O29 C39 1.282 . S
C30 O31 1.261 . S
C30 O43 1.251 . S
O31 C30 1.261 . S
H32 C26 0.930 . S
H33 C28 0.930 . S
N34 Cu23 1.985 . S
N34 C36 1.335 . S
N34 C37 1.390 . S
N35 C36 1.345 . S
N35 C38 1.336 . S
C36 N34 1.335 . S
C36 N35 1.345 . S
C36 H41 0.930 . S
C37 N34 1.390 . S
C37 C38 1.346 . S
C37 H42 0.930 . S
C38 N35 1.336 . S
C38 C37 1.346 . S
C38 H45 0.929 . S
C39 O29 1.282 . S
C39 O40 1.216 . S
O40 C39 1.216 . S
H41 C36 0.930 . S
H42 C37 0.930 . S
O43 Cu23 1.959 . S
O43 C30 1.251 . S
H44 C27 0.930 . S
H45 C38 0.929 . S
Cu46 N47 1.999 . S
Cu46 O52 1.974 . S
Cu46 N57 1.985 . S
Cu46 O66 1.959 . S
N47 Cu46 1.999 . S
N47 C49 1.263 . S
N47 C51 1.389 . S
N48 C49 1.358 . S
N48 C50 1.400 . S
C49 N47 1.263 . S
C49 N48 1.358 . S
C49 H55 0.930 . S
C50 N48 1.400 . S
C50 C51 1.351 . S
C50 H67 0.930 . S
C51 N47 1.389 . S
C51 C50 1.351 . S
C51 H56 0.930 . S
O52 Cu46 1.974 . S
O52 C62 1.282 . S
C53 O54 1.261 . S
C53 O66 1.251 . S
O54 C53 1.261 . S
H55 C49 0.930 . S
H56 C51 0.930 . S
N57 Cu46 1.985 . S
N57 C59 1.335 . S
N57 C60 1.390 . S
N58 C59 1.345 . S
N58 C61 1.336 . S
C59 N57 1.335 . S
C59 N58 1.345 . S
C59 H64 0.930 . S
C60 N57 1.390 . S
C60 C61 1.346 . S
C60 H65 0.930 . S
C61 N58 1.336 . S
C61 C60 1.346 . S
C61 H68 0.929 . S
C62 O52 1.282 . S
C62 O63 1.216 . S
O63 C62 1.216 . S
H64 C59 0.930 . S
H65 C60 0.930 . S
O66 Cu46 1.959 . S
O66 C53 1.251 . S
H67 C50 0.930 . S
H68 C61 0.929 . S
Cu69 N70 1.999 . S
Cu69 O75 1.974 . S
Cu69 N80 1.985 . S
Cu69 O89 1.959 . S
N70 Cu69 1.999 . S
N70 C72 1.263 . S
N70 C74 1.389 . S
N71 C72 1.358 . S
N71 C73 1.400 . S
C72 N70 1.263 . S
C72 N71 1.358 . S
C72 H78 0.930 . S
C73 N71 1.400 . S
C73 C74 1.351 . S
C73 H90 0.930 . S
C74 N70 1.389 . S
C74 C73 1.351 . S
C74 H79 0.930 . S
O75 Cu69 1.974 . S
O75 C85 1.282 . S
C76 O77 1.261 . S
C76 O89 1.251 . S
O77 C76 1.261 . S
H78 C72 0.930 . S
H79 C74 0.930 . S
N80 Cu69 1.985 . S
N80 C82 1.335 . S
N80 C83 1.390 . S
N81 C82 1.345 . S
N81 C84 1.336 . S
C82 N80 1.335 . S
C82 N81 1.345 . S
C82 H87 0.930 . S
C83 N80 1.390 . S
C83 C84 1.346 . S
C83 H88 0.930 . S
C84 N81 1.336 . S
C84 C83 1.346 . S
C84 H91 0.929 . S
C85 O75 1.282 . S
C85 O86 1.216 . S
O86 C85 1.216 . S
H87 C82 0.930 . S
H88 C83 0.930 . S
O89 Cu69 1.959 . S
O89 C76 1.251 . S
H90 C73 0.930 . S
H91 C84 0.929 . S
Cu92 N93 1.999 . S
Cu92 O98 1.974 . S
Cu92 N103 1.985 . S
Cu92 O112 1.959 . S
N93 Cu92 1.999 . S
N93 C95 1.263 . S
N93 C97 1.389 . S
N94 C95 1.358 . S
N94 C96 1.400 . S
C95 N93 1.263 . S
C95 N94 1.358 . S
C95 H101 0.930 . S
C96 N94 1.400 . S
C96 C97 1.351 . S
C96 H113 0.930 . S
C97 N93 1.389 . S
C97 C96 1.351 . S
C97 H102 0.930 . S
O98 Cu92 1.974 . S
O98 C108 1.282 . S
C99 O100 1.261 . S
C99 O112 1.251 . S
O100 C99 1.261 . S
H101 C95 0.930 . S
H102 C97 0.930 . S
N103 Cu92 1.985 . S
N103 C105 1.335 . S
N103 C106 1.390 . S
N104 C105 1.345 . S
N104 C107 1.336 . S
C105 N103 1.335 . S
C105 N104 1.345 . S
C105 H110 0.930 . S
C106 N103 1.390 . S
C106 C107 1.346 . S
C106 H111 0.930 . S
C107 N104 1.336 . S
C107 C106 1.346 . S
C107 H114 0.929 . S
C108 O98 1.282 . S
C108 O109 1.216 . S
O109 C108 1.216 . S
H110 C105 0.930 . S
H111 C106 0.930 . S
O112 Cu92 1.959 . S
O112 C99 1.251 . S
H113 C96 0.930 . S
H114 C107 0.929 . S
Cu115 N116 1.999 . S
Cu115 O121 1.974 . S
Cu115 N126 1.985 . S
Cu115 O135 1.959 . S
N116 Cu115 1.999 . S
N116 C118 1.263 . S
N116 C120 1.389 . S
N117 C118 1.358 . S
N117 C119 1.400 . S
C118 N116 1.263 . S
C118 N117 1.358 . S
C118 H124 0.930 . S
C119 N117 1.400 . S
C119 C120 1.351 . S
C119 H136 0.930 . S
C120 N116 1.389 . S
C120 C119 1.351 . S
C120 H125 0.930 . S
O121 Cu115 1.974 . S
O121 C131 1.282 . S
C122 O123 1.261 . S
C122 O135 1.251 . S
O123 C122 1.261 . S
H124 C118 0.930 . S
H125 C120 0.930 . S
N126 Cu115 1.985 . S
N126 C128 1.335 . S
N126 C129 1.390 1_556 S
N127 C128 1.345 1_554 S
N127 C130 1.336 . S
C128 N126 1.335 . S
C128 N127 1.345 1_556 S
C128 H133 0.930 . S
C129 N126 1.390 1_554 S
C129 C130 1.346 . S
C129 H134 0.930 . S
C130 N127 1.336 . S
C130 C129 1.346 . S
C130 H137 0.929 . S
C131 O121 1.282 . S
C131 O132 1.216 1_556 S
O132 C131 1.216 1_554 S
H133 C128 0.930 . S
H134 C129 0.930 . S
O135 Cu115 1.959 . S
O135 C122 1.251 . S
H136 C119 0.930 . S
H137 C130 0.929 . S
H138 C146 0.950 . S
H139 C151 0.950 . S
H140 C148 0.950 . S
H141 C150 0.950 1_655 S
H142 C152 0.950 . S
H143 C154 0.950 . S
H144 C156 0.950 . S
H145 C157 0.950 . S
C146 H138 0.950 . S
C146 C147 1.386 . S
C146 C148 1.391 . S
C147 C146 1.386 . S
C147 C151 1.393 . S
C148 H140 0.950 . S
C148 C146 1.391 . S
C148 C149 1.400 . S
C149 C148 1.400 . S
C149 C150 1.398 . S
C149 C155 1.491 1_455 S
C150 H141 0.950 1_455 S
C150 C149 1.398 . S
C150 C151 1.391 . S
C151 H139 0.950 . S
C151 C147 1.393 . S
C151 C150 1.391 . S
C152 H142 0.950 . S
C152 C153 1.386 . S
C152 C154 1.391 . S
C153 C152 1.386 . S
C153 C157 1.393 . S
C154 H143 0.950 . S
C154 C152 1.391 . S
C154 C155 1.400 . S
C155 C149 1.491 1_655 S
C155 C154 1.400 . S
C155 C156 1.398 . S
C156 H144 0.950 . S
C156 C155 1.398 . S
C156 C157 1.391 . S
C157 H145 0.950 . S
C157 C153 1.393 . S
C157 C156 1.391 . S
H158 C166 0.950 . S
H159 C171 0.950 . S
H160 C168 0.950 . S
H161 C170 0.950 . S
H162 C172 0.950 . S
H163 C174 0.950 1_565 S
H164 C176 0.950 1_556 S
H165 C177 0.950 . S
C166 H158 0.950 . S
C166 C167 1.386 . S
C166 C168 1.391 . S
C167 C166 1.386 . S
C167 C171 1.393 . S
C168 H160 0.950 . S
C168 C166 1.391 . S
C168 C169 1.400 . S
C169 C168 1.400 . S
C169 C170 1.398 . S
C169 C175 1.491 1_566 S
C170 H161 0.950 . S
C170 C169 1.398 . S
C170 C171 1.391 . S
C171 H159 0.950 . S
C171 C167 1.393 . S
C171 C170 1.391 . S
C172 H162 0.950 . S
C172 C173 1.386 . S
C172 C174 1.391 . S
C173 C172 1.386 . S
C173 C177 1.393 . S
C174 H163 0.950 1_545 S
C174 C172 1.391 . S
C174 C175 1.400 . S
C175 C169 1.491 1_544 S
C175 C174 1.400 . S
C175 C176 1.398 . S
C176 H164 0.950 1_554 S
C176 C175 1.398 . S
C176 C177 1.391 . S
C177 H165 0.950 . S
C177 C173 1.393 . S
C177 C176 1.391 . S
H178 C186 0.950 . S
H179 C191 0.950 . S
H180 C188 0.950 . S
H181 C190 0.950 . S
H182 C192 0.950 . S
H183 C194 0.950 . S
H184 C196 0.950 . S
H185 C197 0.950 1_556 S
C186 H178 0.950 . S
C186 C187 1.386 . S
C186 C188 1.391 . S
C187 C186 1.386 . S
C187 C191 1.393 . S
C188 H180 0.950 . S
C188 C186 1.391 . S
C188 C189 1.400 . S
C189 C188 1.400 . S
C189 C190 1.398 . S
C189 C195 1.491 . S
C190 H181 0.950 . S
C190 C189 1.398 . S
C190 C191 1.391 . S
C191 H179 0.950 . S
C191 C187 1.393 . S
C191 C190 1.391 . S
C192 H182 0.950 . S
C192 C193 1.386 . S
C192 C194 1.391 . S
C193 C192 1.386 . S
C193 C197 1.393 . S
C194 H183 0.950 . S
C194 C192 1.391 . S
C194 C195 1.400 . S
C195 C189 1.491 . S
C195 C194 1.400 . S
C195 C196 1.398 . S
C196 H184 0.950 . S
C196 C195 1.398 . S
C196 C197 1.391 . S
C197 H185 0.950 1_554 S
C197 C193 1.393 . S
C197 C196 1.391 . S
H198 C206 0.950 . S
H199 C211 0.950 . S
H200 C208 0.950 1_455 S
H201 C210 0.950 . S
H202 C212 0.950 . S
H203 C214 0.950 . S
H204 C216 0.950 . S
H205 C217 0.950 . S
C206 H198 0.950 . S
C206 C207 1.386 . S
C206 C208 1.391 . S
C207 C206 1.386 . S
C207 C211 1.393 . S
C208 H200 0.950 1_655 S
C208 C206 1.391 . S
C208 C209 1.400 . S
C209 C208 1.400 . S
C209 C210 1.398 . S
C209 C215 1.491 1_655 S
C210 H201 0.950 . S
C210 C209 1.398 . S
C210 C211 1.391 . S
C211 H199 0.950 . S
C211 C207 1.393 . S
C211 C210 1.391 . S
C212 H202 0.950 . S
C212 C213 1.386 . S
C212 C214 1.391 . S
C213 C212 1.386 . S
C213 C217 1.393 . S
C214 H203 0.950 . S
C214 C212 1.391 . S
C214 C215 1.400 . S
C215 C209 1.491 1_455 S
C215 C214 1.400 . S
C215 C216 1.398 . S
C216 H204 0.950 . S
C216 C215 1.398 . S
C216 C217 1.391 . S
C217 H205 0.950 . S
C217 C213 1.393 . S
C217 C216 1.391 . S
H218 C226 0.950 . S
H219 C231 0.950 . S
H220 C228 0.950 . S
H221 C230 0.950 . S
H222 C232 0.950 . S
H223 C234 0.950 . S
H224 C236 0.950 . S
H225 C237 0.950 . S
C226 H218 0.950 . S
C226 C227 1.386 . S
C226 C228 1.391 . S
C227 C226 1.386 . S
C227 C231 1.393 . S
C228 H220 0.950 . S
C228 C226 1.391 . S
C228 C229 1.400 . S
C229 C228 1.400 . S
C229 C230 1.398 . S
C229 C235 1.474 1_545 S
C230 H221 0.950 . S
C230 C229 1.398 . S
C230 C231 1.391 . S
C231 H219 0.950 . S
C231 C227 1.393 . S
C231 C230 1.391 . S
C232 H222 0.950 . S
C232 C233 1.386 . S
C232 C234 1.391 1_565 S
C233 C232 1.386 . S
C233 C237 1.393 . S
C234 H223 0.950 . S
C234 C232 1.391 1_545 S
C234 C235 1.406 1_545 S
C235 C229 1.474 1_565 S
C235 C234 1.406 1_565 S
C235 C236 1.410 . S
C236 H224 0.950 . S
C236 C235 1.410 . S
C236 C237 1.391 . S
C237 H225 0.950 . S
C237 C233 1.393 . S
C237 C236 1.391 . S
H238 C246 0.950 . S
H239 C251 0.950 . S
H240 C248 0.950 . S
H241 C250 0.950 . S
H242 C252 0.950 . S
H243 C254 0.950 . S
H244 C256 0.950 . S
H245 C257 0.950 . S
C246 H238 0.950 . S
C246 C247 1.386 . S
C246 C248 1.391 . S
C247 C246 1.386 . S
C247 C251 1.393 . S
C248 H240 0.950 . S
C248 C246 1.391 . S
C248 C249 1.400 . S
C249 C248 1.400 . S
C249 C250 1.398 . S
C249 C255 1.491 . S
C250 H241 0.950 . S
C250 C249 1.398 . S
C250 C251 1.391 . S
C251 H239 0.950 . S
C251 C247 1.393 . S
C251 C250 1.391 . S
C252 H242 0.950 . S
C252 C253 1.386 . S
C252 C254 1.391 . S
C253 C252 1.386 . S
C253 C257 1.393 . S
C254 H243 0.950 . S
C254 C252 1.391 . S
C254 C255 1.400 . S
C255 C249 1.491 . S
C255 C254 1.400 . S
C255 C256 1.398 . S
C256 H244 0.950 . S
C256 C255 1.398 . S
C256 C257 1.391 . S
C257 H245 0.950 . S
C257 C253 1.393 . S
C257 C256 1.391 . S
H258 C266 0.950 . S
H259 C271 0.950 . S
H260 C268 0.950 . S
H261 C270 0.950 . S
H262 C272 0.950 . S
H263 C274 0.950 . S
H264 C276 0.950 . S
H265 C277 0.950 . S
C266 H258 0.950 . S
C266 C267 1.386 . S
C266 C268 1.391 . S
C267 C266 1.386 . S
C267 C271 1.393 . S
C268 H260 0.950 . S
C268 C266 1.391 . S
C268 C269 1.400 . S
C269 C268 1.400 . S
C269 C270 1.398 . S
C269 C275 1.491 . S
C270 H261 0.950 . S
C270 C269 1.398 . S
C270 C271 1.391 . S
C271 H259 0.950 . S
C271 C267 1.393 . S
C271 C270 1.391 . S
C272 H262 0.950 . S
C272 C273 1.386 . S
C272 C274 1.391 . S
C273 C272 1.386 . S
C273 C277 1.393 . S
C274 H263 0.950 . S
C274 C272 1.391 . S
C274 C275 1.400 . S
C275 C269 1.491 . S
C275 C274 1.400 . S
C275 C276 1.398 . S
C276 H264 0.950 . S
C276 C275 1.398 . S
C276 C277 1.391 . S
C277 H265 0.950 . S
C277 C273 1.393 . S
C277 C276 1.391 . S
H278 C286 0.950 . S
H279 C291 0.950 . S
H280 C288 0.950 . S
H281 C290 0.950 . S
H282 C292 0.950 . S
H283 C294 0.950 . S
H284 C296 0.950 . S
H285 C297 0.950 . S
C286 H278 0.950 . S
C286 C287 1.386 . S
C286 C288 1.391 . S
C287 C286 1.386 . S
C287 C291 1.393 . S
C288 H280 0.950 . S
C288 C286 1.391 . S
C288 C289 1.400 . S
C289 C288 1.400 . S
C289 C290 1.398 . S
C289 C295 1.491 . S
C290 H281 0.950 . S
C290 C289 1.398 . S
C290 C291 1.391 . S
C291 H279 0.950 . S
C291 C287 1.393 . S
C291 C290 1.391 . S
C292 H282 0.950 . S
C292 C293 1.386 . S
C292 C294 1.391 . S
C293 C292 1.386 . S
C293 C297 1.393 . S
C294 H283 0.950 . S
C294 C292 1.391 . S
C294 C295 1.400 . S
C295 C289 1.491 . S
C295 C294 1.400 . S
C295 C296 1.398 . S
C296 H284 0.950 . S
C296 C295 1.398 . S
C296 C297 1.391 . S
C297 H285 0.950 . S
C297 C293 1.393 . S
C297 C296 1.391 . S
H298 C306 0.950 . S
H299 C311 0.950 . S
H300 C308 0.950 . S
H301 C310 0.950 . S
H302 C312 0.950 . S
H303 C314 0.950 . S
H304 C316 0.950 . S
H305 C317 0.950 . S
C306 H298 0.950 . S
C306 C307 1.386 . S
C306 C308 1.391 . S
C307 C306 1.386 . S
C307 C311 1.393 . S
C308 H300 0.950 . S
C308 C306 1.391 . S
C308 C309 1.400 . S
C309 C308 1.400 . S
C309 C310 1.398 . S
C309 C315 1.491 . S
C310 H301 0.950 . S
C310 C309 1.398 . S
C310 C311 1.391 . S
C311 H299 0.950 . S
C311 C307 1.393 . S
C311 C310 1.391 . S
C312 H302 0.950 . S
C312 C313 1.386 . S
C312 C314 1.391 . S
C313 C312 1.386 . S
C313 C317 1.393 . S
C314 H303 0.950 . S
C314 C312 1.391 . S
C314 C315 1.400 . S
C315 C309 1.491 . S
C315 C314 1.400 . S
C315 C316 1.398 . S
C316 H304 0.950 . S
C316 C315 1.398 . S
C316 C317 1.391 . S
C317 H305 0.950 . S
C317 C313 1.393 . S
C317 C316 1.391 . S
H318 C326 0.950 . S
H319 C331 0.950 . S
H320 C328 0.950 . S
H321 C330 0.950 . S
H322 C332 0.950 . S
H323 C334 0.950 . S
H324 C336 0.950 . S
H325 C337 0.950 . S
C326 H318 0.950 . S
C326 C327 1.386 . S
C326 C328 1.391 . S
C327 C326 1.386 . S
C327 C331 1.393 . S
C328 H320 0.950 . S
C328 C326 1.391 . S
C328 C329 1.400 . S
C329 C328 1.400 . S
C329 C330 1.398 . S
C329 C335 1.491 . S
C330 H321 0.950 . S
C330 C329 1.398 . S
C330 C331 1.391 . S
C331 H319 0.950 . S
C331 C327 1.393 . S
C331 C330 1.391 . S
C332 H322 0.950 . S
C332 C333 1.386 . S
C332 C334 1.391 . S
C333 C332 1.386 . S
C333 C337 1.393 . S
C334 H323 0.950 . S
C334 C332 1.391 . S
C334 C335 1.400 . S
C335 C329 1.491 . S
C335 C334 1.400 . S
C335 C336 1.398 . S
C336 H324 0.950 . S
C336 C335 1.398 . S
C336 C337 1.391 . S
C337 H325 0.950 . S
C337 C333 1.393 . S
C337 C336 1.391 . S
H338 C346 0.950 . S
H339 C351 0.950 . S
H340 C348 0.950 . S
H341 C350 0.950 . S
H342 C352 0.950 . S
H343 C354 0.950 1_554 S
H344 C356 0.950 . S
H345 C357 0.950 . S
C346 H338 0.950 . S
C346 C347 1.386 . S
C346 C348 1.391 . S
C347 C346 1.386 . S
C347 C351 1.393 . S
C348 H340 0.950 . S
C348 C346 1.391 . S
C348 C349 1.400 . S
C349 C348 1.400 . S
C349 C350 1.398 . S
C349 C355 1.491 . S
C350 H341 0.950 . S
C350 C349 1.398 . S
C350 C351 1.391 . S
C351 H339 0.950 . S
C351 C347 1.393 . S
C351 C350 1.391 . S
C352 H342 0.950 . S
C352 C353 1.386 1_554 S
C352 C354 1.391 1_554 S
C353 C352 1.386 1_556 S
C353 C357 1.393 . S
C354 H343 0.950 1_556 S
C354 C352 1.391 1_556 S
C354 C355 1.400 . S
C355 C349 1.491 . S
C355 C354 1.400 . S
C355 C356 1.398 . S
C356 H344 0.950 . S
C356 C355 1.398 . S
C356 C357 1.391 . S
C357 H345 0.950 . S
C357 C353 1.393 . S
C357 C356 1.391 . S
H358 C366 0.950 . S
H359 C371 0.950 . S
H360 C368 0.950 . S
H361 C370 0.950 . S
H362 C372 0.950 . S
H363 C374 0.950 . S
H364 C376 0.950 . S
H365 C377 0.950 . S
C366 H358 0.950 . S
C366 C367 1.386 . S
C366 C368 1.391 . S
C367 C366 1.386 . S
C367 C371 1.393 . S
C368 H360 0.950 . S
C368 C366 1.391 . S
C368 C369 1.400 . S
C369 C368 1.400 . S
C369 C370 1.398 . S
C369 C375 1.491 . S
C370 H361 0.950 . S
C370 C369 1.398 . S
C370 C371 1.391 . S
C371 H359 0.950 . S
C371 C367 1.393 . S
C371 C370 1.391 . S
C372 H362 0.950 . S
C372 C373 1.386 . S
C372 C374 1.391 . S
C373 C372 1.386 . S
C373 C377 1.393 . S
C374 H363 0.950 . S
C374 C372 1.391 . S
C374 C375 1.400 . S
C375 C369 1.491 . S
C375 C374 1.400 . S
C375 C376 1.398 . S
C376 H364 0.950 . S
C376 C375 1.398 . S
C376 C377 1.391 . S
C377 H365 0.950 . S
C377 C373 1.393 . S
C377 C376 1.391 . S
C147 N2 1.626 . S
C153 C85 1.700 . S
C167 C108 1.697 . S
C173 N25 1.627 . S
C187 N48 1.643 . S
C193 C131 1.710 1_554 S
C207 N71 1.633 . S
C213 C16 1.693 . S
C227 C39 1.710 . S
C233 N94 1.639 . S
C247 N117 1.637 . S
C253 C62 1.710 . S
C267 N12 1.603 . S
C273 C53 1.619 . S
C287 N35 1.611 . S
C293 C76 1.611 . S
C307 C99 1.609 . S
C313 N58 1.614 . S
C327 C122 1.618 . S
C333 N81 1.604 . S
C347 N104 1.607 . S
C353 C7 1.616 1_556 S
C367 N127 1.612 . S
C373 C30 1.609 . S
