# Generated by pormake.
# Topology unn, (4)-cn, num edge types: 1
# Building blocks:
#     Node 0, Type 0, BuildingBlock: KUFVIS_clean_sbu_0, # of connection points: 4
#     Node 1, Type 0, BuildingBlock: KUFVIS_clean_sbu_0, # of connection points: 4
#     Node 2, Type 0, BuildingBlock: KUFVIS_clean_sbu_0, # of connection points: 4
#     Node 3, Type 0, BuildingBlock: KUFVIS_clean_sbu_0, # of connection points: 4
#     Node 4, Type 0, BuildingBlock: KUFVIS_clean_sbu_0, # of connection points: 4
#     Node 5, Type 0, BuildingBlock: KUFVIS_clean_sbu_0, # of connection points: 4
#     Node 6, Type 0, BuildingBlock: KUFVIS_clean_sbu_0, # of connection points: 4
#     Node 7, Type 0, BuildingBlock: KUFVIS_clean_sbu_0, # of connection points: 4
#     Node 8, Type 0, BuildingBlock: KUFVIS_clean_sbu_0, # of connection points: 4
#     Node 9, Type 0, BuildingBlock: KUFVIS_clean_sbu_0, # of connection points: 4
#     Node 10, Type 0, BuildingBlock: KUFVIS_clean_sbu_0, # of connection points: 4
#     Node 11, Type 0, BuildingBlock: KUFVIS_clean_sbu_0, # of connection points: 4
#     Node 12, Type 0, BuildingBlock: KUFVIS_clean_sbu_0, # of connection points: 4
#     Node 13, Type 0, BuildingBlock: KUFVIS_clean_sbu_0, # of connection points: 4
#     Node 14, Type 0, BuildingBlock: KUFVIS_clean_sbu_0, # of connection points: 4
#     Node 15, Type 0, BuildingBlock: KUFVIS_clean_sbu_0, # of connection points: 4
#     Node 16, Type 0, BuildingBlock: KUFVIS_clean_sbu_0, # of connection points: 4
#     Node 17, Type 0, BuildingBlock: KUFVIS_clean_sbu_0, # of connection points: 4
#     Edge 18, Type (0, 0), BuildingBlock: KIFKEQ_clean_linker_1, # of connection points: 2
#     Edge 19, Type (0, 0), BuildingBlock: KIFKEQ_clean_linker_1, # of connection points: 2
#     Edge 20, Type (0, 0), BuildingBlock: KIFKEQ_clean_linker_1, # of connection points: 2
#     Edge 21, Type (0, 0), BuildingBlock: KIFKEQ_clean_linker_1, # of connection points: 2
#     Edge 22, Type (0, 0), BuildingBlock: KIFKEQ_clean_linker_1, # of connection points: 2
#     Edge 23, Type (0, 0), BuildingBlock: KIFKEQ_clean_linker_1, # of connection points: 2
#     Edge 24, Type (0, 0), BuildingBlock: KIFKEQ_clean_linker_1, # of connection points: 2
#     Edge 25, Type (0, 0), BuildingBlock: KIFKEQ_clean_linker_1, # of connection points: 2
#     Edge 26, Type (0, 0), BuildingBlock: KIFKEQ_clean_linker_1, # of connection points: 2
#     Edge 27, Type (0, 0), BuildingBlock: KIFKEQ_clean_linker_1, # of connection points: 2
#     Edge 28, Type (0, 0), BuildingBlock: KIFKEQ_clean_linker_1, # of connection points: 2
#     Edge 29, Type (0, 0), BuildingBlock: KIFKEQ_clean_linker_1, # of connection points: 2
#     Edge 30, Type (0, 0), BuildingBlock: KIFKEQ_clean_linker_1, # of connection points: 2
#     Edge 31, Type (0, 0), BuildingBlock: KIFKEQ_clean_linker_1, # of connection points: 2
#     Edge 32, Type (0, 0), BuildingBlock: KIFKEQ_clean_linker_1, # of connection points: 2
#     Edge 33, Type (0, 0), BuildingBlock: KIFKEQ_clean_linker_1, # of connection points: 2
#     Edge 34, Type (0, 0), BuildingBlock: KIFKEQ_clean_linker_1, # of connection points: 2
#     Edge 35, Type (0, 0), BuildingBlock: KIFKEQ_clean_linker_1, # of connection points: 2
#     Edge 36, Type (0, 0), BuildingBlock: KIFKEQ_clean_linker_1, # of connection points: 2
#     Edge 37, Type (0, 0), BuildingBlock: KIFKEQ_clean_linker_1, # of connection points: 2
#     Edge 38, Type (0, 0), BuildingBlock: KIFKEQ_clean_linker_1, # of connection points: 2
#     Edge 39, Type (0, 0), BuildingBlock: KIFKEQ_clean_linker_1, # of connection points: 2
#     Edge 40, Type (0, 0), BuildingBlock: KIFKEQ_clean_linker_1, # of connection points: 2
#     Edge 41, Type (0, 0), BuildingBlock: KIFKEQ_clean_linker_1, # of connection points: 2
#     Edge 42, Type (0, 0), BuildingBlock: KIFKEQ_clean_linker_1, # of connection points: 2
#     Edge 43, Type (0, 0), BuildingBlock: KIFKEQ_clean_linker_1, # of connection points: 2
#     Edge 44, Type (0, 0), BuildingBlock: KIFKEQ_clean_linker_1, # of connection points: 2
#     Edge 45, Type (0, 0), BuildingBlock: KIFKEQ_clean_linker_1, # of connection points: 2
#     Edge 46, Type (0, 0), BuildingBlock: KIFKEQ_clean_linker_1, # of connection points: 2
#     Edge 47, Type (0, 0), BuildingBlock: KIFKEQ_clean_linker_1, # of connection points: 2
#     Edge 48, Type (0, 0), BuildingBlock: KIFKEQ_clean_linker_1, # of connection points: 2
#     Edge 49, Type (0, 0), BuildingBlock: KIFKEQ_clean_linker_1, # of connection points: 2
#     Edge 50, Type (0, 0), BuildingBlock: KIFKEQ_clean_linker_1, # of connection points: 2
#     Edge 51, Type (0, 0), BuildingBlock: KIFKEQ_clean_linker_1, # of connection points: 2
#     Edge 52, Type (0, 0), BuildingBlock: KIFKEQ_clean_linker_1, # of connection points: 2
#     Edge 53, Type (0, 0), BuildingBlock: KIFKEQ_clean_linker_1, # of connection points: 2
# Relax obj value: 0.184
# Max RMSD: 0.280
# Mean RMSD: 0.269
data_MOF--net-unn--node1-KUFVIS_clean_sbu_0--edge1-KIFKEQ_clean_linker_1
_symmetry_space_group_name_H-M    P1
_symmetry_Int_Tables_number       1
_symmetry_cell_setting            triclinic
loop_
_symmetry_equiv_pos_as_xyz
'x, y, z'
_cell_length_a     45.964341
_cell_length_b     47.152652
_cell_length_c     38.486285
_cell_angle_alpha  90.893391
_cell_angle_beta   90.110025
_cell_angle_gamma 119.14083
loop_
_atom_site_label
_atom_site_type_symbol
_atom_site_fract_x
_atom_site_fract_y
_atom_site_fract_z
_atom_type_partial_charge
Mn0 Mn 0.08448 0.78584 0.22727 0.0
Mn1 Mn 0.06806 0.84558 0.24987 0.0
C2 C 0.03605 0.78367 0.20679 0.0
C3 C 0.1077 0.76462 0.18807 0.0
C4 C 0.05296 0.78936 0.29663 0.0
O5 O 0.12929 0.82024 0.24678 0.0
O6 O 0.11511 0.85766 0.26359 0.0
C7 C 0.11372 0.89337 0.19968 0.0
N8 N 0.08246 0.87546 0.21248 0.0
C9 C 0.0598 0.89682 0.17039 0.0
C10 C 0.0918 0.91567 0.1569 0.0
C11 C 0.11887 0.91391 0.1716 0.0
C12 C 0.05624 0.87691 0.19849 0.0
H13 H 0.13456 0.89194 0.21076 0.0
C14 C 0.13615 0.84715 0.26162 0.0
O15 O 0.10078 0.75381 0.21958 0.0
O16 O 0.10351 0.78903 0.18065 0.0
N17 N 0.0242 0.83795 0.23879 0.0
C18 C 0.99492 0.81797 0.25464 0.0
C19 C 0.96531 0.81646 0.24267 0.0
C20 C 0.96618 0.83584 0.2149 0.0
C21 C 0.99672 0.85676 0.19953 0.0
C22 C 0.02543 0.85727 0.21262 0.0
H23 H 0.99411 0.80295 0.27592 0.0
O24 O 0.03937 0.75802 0.20761 0.0
O25 O 0.06213 0.81082 0.21712 0.0
O26 O 0.06536 0.7758 0.27699 0.0
O27 O 0.05198 0.81508 0.2885 0.0
C28 C 0.99975 0.87675 0.1714 0.0
C29 C 0.03126 0.89675 0.15682 0.0
H30 H 0.09585 0.93145 0.13516 0.0
H31 H 0.14361 0.92827 0.16124 0.0
H32 H 0.94185 0.80031 0.25473 0.0
H33 H 0.94325 0.83441 0.20556 0.0
H34 H 0.97797 0.87676 0.16062 0.0
H35 H 0.03324 0.91187 0.13507 0.0
Mn36 Mn 0.24488 0.30999 0.23179 0.0
Mn37 Mn 0.19192 0.28946 0.16489 0.0
C38 C 0.20796 0.33037 0.23023 0.0
C39 C 0.25872 0.30029 0.28701 0.0
C40 C 0.262 0.34248 0.16003 0.0
O41 O 0.24692 0.27113 0.21149 0.0
O42 O 0.21815 0.26549 0.16255 0.0
C43 C 0.14836 0.22215 0.18792 0.0
N44 N 0.15225 0.25143 0.17815 0.0
C45 C 0.09313 0.23135 0.17934 0.0
C46 C 0.08845 0.20095 0.18933 0.0
C47 C 0.11623 0.19642 0.19391 0.0
C48 C 0.1258 0.25629 0.17457 0.0
H49 H 0.16957 0.21838 0.19091 0.0
C50 C 0.2372 0.25894 0.1812 0.0
O51 O 0.28169 0.31807 0.26511 0.0
O52 O 0.22809 0.2879 0.27658 0.0
N53 N 0.16469 0.30964 0.16207 0.0
C54 C 0.17361 0.34059 0.15297 0.0
C55 C 0.14878 0.34926 0.14754 0.0
C56 C 0.11508 0.32582 0.15064 0.0
C57 C 0.10649 0.29406 0.15993 0.0
C58 C 0.13235 0.28703 0.16565 0.0
H59 H 0.19947 0.3584 0.14959 0.0
O60 O 0.23585 0.34508 0.24741 0.0
O61 O 0.20215 0.30336 0.21402 0.0
O62 O 0.27117 0.33675 0.18934 0.0
O63 O 0.23172 0.32862 0.1496 0.0
C64 C 0.07333 0.26889 0.16305 0.0
C65 C 0.06667 0.23774 0.17332 0.0
H66 H 0.06365 0.18091 0.19346 0.0
H67 H 0.11285 0.17303 0.20163 0.0
H68 H 0.15556 0.37379 0.14031 0.0
H69 H 0.0961 0.33251 0.14556 0.0
H70 H 0.05268 0.27302 0.15731 0.0
H71 H 0.04109 0.21875 0.17606 0.0
Mn72 Mn 0.73379 0.95984 0.22101 0.0
Mn73 Mn 0.65633 0.92535 0.25357 0.0
C74 C 0.68845 0.93232 0.18463 0.0
C75 C 0.77507 0.00921 0.19542 0.0
C76 C 0.70044 0.89424 0.25887 0.0
O77 O 0.74148 0.98032 0.26907 0.0
O78 O 0.68867 0.957 0.28826 0.0
C79 C 0.64816 0.98384 0.2547 0.0
N80 N 0.63763 0.95275 0.2436 0.0
C81 C 0.5927 0.95181 0.21049 0.0
C82 C 0.6029 0.98373 0.22179 0.0
C83 C 0.63076 0.99981 0.24398 0.0
C84 C 0.61073 0.93697 0.22242 0.0
H85 H 0.66976 0.99638 0.27148 0.0
C86 C 0.72011 0.9759 0.2924 0.0
O87 O 0.78307 0.98825 0.20757 0.0
O88 O 0.74457 1.00186 0.19956 0.0
N89 N 0.62294 0.89452 0.22254 0.0
C90 C 0.61788 0.86471 0.21205 0.0
C91 C 0.5918 0.84593 0.18862 0.0
C92 C 0.5712 0.85796 0.17628 0.0
C93 C 0.5768 0.88864 0.18759 0.0
C94 C 0.60295 0.90612 0.21125 0.0
H95 H 0.63386 0.8555 0.22121 0.0
O96 O 0.71766 0.93765 0.17517 0.0
O97 O 0.68693 0.94357 0.2152 0.0
O98 O 0.72624 0.91601 0.24288 0.0
O99 O 0.67385 0.89595 0.26382 0.0
C100 C 0.55798 0.9029 0.17566 0.0
C101 C 0.5659 0.93445 0.18713 0.0
H102 H 0.58977 0.99627 0.21327 0.0
H103 H 0.63892 0.02452 0.25263 0.0
H104 H 0.58772 0.82233 0.1799 0.0
H105 H 0.55135 0.84355 0.1579 0.0
H106 H 0.53766 0.89001 0.15728 0.0
H107 H 0.55155 0.94532 0.17739 0.0
Mn108 Mn 0.09583 0.34251 0.75445 0.0
Mn109 Mn 0.02617 0.34533 0.77476 0.0
C110 C 0.07189 0.32554 0.80827 0.0
C111 C 0.1547 0.36866 0.75664 0.0
C112 C 0.02439 0.29256 0.72899 0.0
O113 O 0.09519 0.37229 0.71765 0.0
O114 O 0.04588 0.36882 0.73073 0.0
C115 C 0.05934 0.41579 0.79091 0.0
N116 N 0.03946 0.38459 0.80078 0.0
C117 C 0.03068 0.40219 0.85681 0.0
C118 C 0.05092 0.43457 0.84723 0.0
C119 C 0.06535 0.44138 0.81414 0.0
C120 C 0.02543 0.37775 0.83253 0.0
H121 H 0.0705 0.42109 0.76551 0.0
C122 C 0.07123 0.37776 0.71095 0.0
O123 O 0.13781 0.34435 0.73523 0.0
O124 O 0.13761 0.37803 0.77534 0.0
N125 N 1.00428 0.32353 0.81613 0.0
C126 C 0.98679 0.29102 0.82192 0.0
C127 C 0.97175 0.28007 0.85429 0.0
C128 C 0.97449 0.30262 0.88016 0.0
C129 C 0.9922 0.33593 0.87336 0.0
C130 C 1.00663 0.3454 0.8406 0.0
H131 H 0.9847 0.27363 0.8021 0.0
O132 O 0.09088 0.31506 0.79516 0.0
O133 O 0.06698 0.34542 0.78912 0.0
O134 O 0.05616 0.304 0.72742 0.0
O135 O 0.01051 0.30445 0.74858 0.0
C136 C 0.99675 0.36015 0.89804 0.0
C137 C 0.01594 0.39321 0.88969 0.0
H138 H 0.05574 0.45436 0.86515 0.0
H139 H 0.0811 0.46629 0.80658 0.0
H140 H 0.95815 0.25432 0.85933 0.0
H141 H 0.96311 0.29411 0.9052 0.0
H142 H 0.98593 0.35362 0.92361 0.0
H143 H 0.01952 0.41159 0.90878 0.0
Mn144 Mn 0.67296 0.73195 0.71912 0.0
Mn145 Mn 0.5964 0.69785 0.75396 0.0
C146 C 0.62657 0.71293 0.68397 0.0
C147 C 0.71513 0.72237 0.69514 0.0
C148 C 0.63919 0.77036 0.74786 0.0
O149 O 0.68253 0.72457 0.76844 0.0
O150 O 0.63114 0.70622 0.79 0.0
C151 C 0.59285 0.6352 0.77107 0.0
N152 N 0.58022 0.652 0.75406 0.0
C153 C 0.53484 0.60257 0.73056 0.0
C154 C 0.5473 0.58476 0.74794 0.0
C155 C 0.57646 0.60116 0.76825 0.0
C156 C 0.55218 0.63645 0.73445 0.0
H157 H 0.61523 0.64765 0.78674 0.0
C158 C 0.66228 0.71561 0.79368 0.0
O159 O 0.72188 0.75139 0.70555 0.0
O160 O 0.68519 0.69969 0.70045 0.0
N161 N 0.56026 0.68799 0.72247 0.0
C162 C 0.55144 0.70869 0.7074 0.0
C163 C 0.5232 0.69618 0.6856 0.0
C164 C 0.50398 0.66249 0.68001 0.0
C165 C 0.51309 0.6416 0.69644 0.0
C166 C 0.54155 0.65549 0.71782 0.0
H167 H 0.56607 0.73454 0.71168 0.0
O168 O 0.6556 0.734 0.67286 0.0
O169 O 0.62557 0.70258 0.71534 0.0
O170 O 0.66574 0.77041 0.73688 0.0
O171 O 0.61164 0.7446 0.75345 0.0
C172 C 0.49517 0.60755 0.69227 0.0
C173 C 0.50601 0.58805 0.70935 0.0
H174 H 0.53474 0.5585 0.7458 0.0
H175 H 0.58626 0.58759 0.78171 0.0
H176 H 0.51626 0.71247 0.67315 0.0
H177 H 0.48225 0.65293 0.66312 0.0
H178 H 0.47307 0.59612 0.6759 0.0
H179 H 0.49207 0.5619 0.70588 0.0
Mn180 Mn 0.26805 0.95183 0.73492 0.0
Mn181 Mn 0.34346 0.01492 0.75221 0.0
C182 C 0.27553 0.98443 0.78363 0.0
C183 C 0.23629 0.89506 0.74666 0.0
C184 C 0.29877 0.01467 0.69339 0.0
O185 O 0.29881 0.94462 0.70317 0.0
O186 O 0.34928 0.98246 0.72314 0.0
C187 C 0.36421 0.9794 0.79961 0.0
N188 N 0.35977 0.00539 0.79354 0.0
C189 C 0.3711 0.02288 0.85349 0.0
C190 C 0.37566 0.99627 0.86039 0.0
C191 C 0.37228 0.97445 0.83334 0.0
C192 C 0.36258 0.02629 0.8195 0.0
H193 H 0.36064 0.96211 0.77904 0.0
C194 C 0.33053 0.95885 0.70243 0.0
O195 O 0.22813 0.90763 0.721 0.0
O196 O 0.26208 0.91507 0.76428 0.0
N197 N 0.34154 0.04825 0.77951 0.0
C198 C 0.33159 0.06985 0.76962 0.0
C199 C 0.33326 0.09333 0.79366 0.0
C200 C 0.34501 0.09428 0.82762 0.0
C201 C 0.35515 0.07182 0.83716 0.0
C202 C 0.3537 0.0495 0.81181 0.0
H203 H 0.32247 0.06921 0.74359 0.0
O204 O 0.24581 0.96526 0.77166 0.0
O205 O 0.29906 0.98365 0.76595 0.0
O206 O 0.27206 0.98798 0.70076 0.0
O207 O 0.32631 0.02558 0.71031 0.0
C208 C 0.36543 0.0699 0.87115 0.0
C209 C 0.37301 0.04519 0.87942 0.0
H210 H 0.38104 0.99216 0.8866 0.0
H211 H 0.37525 0.95353 0.8385 0.0
H212 H 0.32529 0.11052 0.78611 0.0
H213 H 0.34568 0.11203 0.84628 0.0
H214 H 0.36651 0.08663 0.89138 0.0
H215 H 0.37964 0.04315 0.90593 0.0
Mn216 Mn 0.75398 0.11416 0.56289 0.0
Mn217 Mn 0.74706 0.1779 0.59271 0.0
C218 C 0.70615 0.11664 0.54969 0.0
C219 C 0.77259 0.09229 0.51948 0.0
C220 C 0.73254 0.11988 0.63676 0.0
O221 O 0.80085 0.14515 0.58046 0.0
O222 O 0.79475 0.18767 0.59767 0.0
C223 C 0.78627 0.22309 0.53727 0.0
N224 N 0.75714 0.2068 0.55477 0.0
C225 C 0.73001 0.22745 0.51739 0.0
C226 C 0.75981 0.24465 0.49913 0.0
C227 C 0.78805 0.24244 0.50911 0.0
C228 C 0.72978 0.20864 0.54529 0.0
H229 H 0.80793 0.22118 0.54464 0.0
C230 C 0.81245 0.17356 0.59374 0.0
O231 O 0.76661 0.08026 0.5505 0.0
O232 O 0.76948 0.11777 0.51458 0.0
N233 N 0.7031 0.17253 0.58987 0.0
C234 C 0.67661 0.15515 0.61083 0.0
C235 C 0.64636 0.15485 0.60443 0.0
C236 C 0.64381 0.17271 0.57684 0.0
C237 C 0.67171 0.19118 0.55628 0.0
C238 C 0.70125 0.19073 0.56407 0.0
H239 H 0.67842 0.14129 0.63198 0.0
O240 O 0.70706 0.08978 0.54631 0.0
O241 O 0.73433 0.14215 0.55897 0.0
O242 O 0.73842 0.10382 0.61329 0.0
O243 O 0.73532 0.14795 0.63207 0.0
C244 C 0.67137 0.20996 0.52833 0.0
C245 C 0.70048 0.22804 0.50886 0.0
H246 H 0.76125 0.25952 0.47732 0.0
H247 H 0.81108 0.2555 0.49502 0.0
H248 H 0.62502 0.14073 0.62057 0.0
H249 H 0.62036 0.17219 0.57179 0.0
H250 H 0.64883 0.21065 0.52157 0.0
H251 H 0.69988 0.24232 0.48738 0.0
Mn252 Mn 0.91243 0.64063 0.57795 0.0
Mn253 Mn 0.85312 0.61437 0.51656 0.0
C254 C 0.87327 0.65773 0.5805 0.0
C255 C 0.92993 0.63138 0.63101 0.0
C256 C 0.92161 0.67017 0.50526 0.0
O257 O 0.91621 0.60356 0.55564 0.0
O258 O 0.87995 0.591 0.51148 0.0
C259 C 0.8137 0.54855 0.54506 0.0
N260 N 0.81597 0.57729 0.53569 0.0
C261 C 0.76092 0.561 0.55675 0.0
C262 C 0.75789 0.53113 0.56639 0.0
C263 C 0.78438 0.52486 0.56042 0.0
C264 C 0.79051 0.58345 0.54098 0.0
H265 H 0.83417 0.54379 0.54104 0.0
C266 C 0.90301 0.58825 0.52745 0.0
O267 O 0.95157 0.65044 0.60862 0.0
O268 O 0.89883 0.61779 0.62227 0.0
N269 N 0.82535 0.63412 0.51779 0.0
C270 C 0.8324 0.66421 0.50718 0.0
C271 C 0.80865 0.6745 0.51177 0.0
C272 C 0.77798 0.65375 0.52716 0.0
C273 C 0.77095 0.62254 0.53699 0.0
C274 C 0.79539 0.61346 0.53127 0.0
H275 H 0.85623 0.68045 0.49602 0.0
O276 O 0.90175 0.67398 0.59631 0.0
O277 O 0.86839 0.63123 0.5639 0.0
O278 O 0.93388 0.66778 0.53434 0.0
O279 O 0.89084 0.65293 0.49665 0.0
C280 C 0.74116 0.60046 0.55327 0.0
C281 C 0.73604 0.56965 0.56289 0.0
H282 H 0.73547 0.51296 0.57865 0.0
H283 H 0.78232 0.50194 0.56796 0.0
H284 H 0.8142 0.69858 0.50406 0.0
H285 H 0.76021 0.6622 0.53156 0.0
H286 H 0.72218 0.607 0.55904 0.0
H287 H 0.71305 0.55295 0.57544 0.0
Mn288 Mn 0.38845 0.27964 0.5626 0.0
Mn289 Mn 0.37495 0.34271 0.57869 0.0
C290 C 0.41235 0.31224 0.61123 0.0
C291 C 0.36578 0.22295 0.57263 0.0
C292 C 0.42307 0.34434 0.52345 0.0
O293 O 0.35091 0.27152 0.52957 0.0
O294 O 0.3403 0.31179 0.54523 0.0
C295 C 0.3121 0.30716 0.61731 0.0
N296 N 0.34419 0.33158 0.61602 0.0
C297 C 0.34148 0.34955 0.6742 0.0
C298 C 0.30829 0.32472 0.67608 0.0
C299 C 0.29357 0.30339 0.64753 0.0
C300 C 0.35864 0.35216 0.64336 0.0
H301 H 0.30082 0.29068 0.59543 0.0
C302 C 0.33499 0.28714 0.52611 0.0
O303 O 0.3867 0.23691 0.54752 0.0
O304 O 0.35833 0.24163 0.59069 0.0
N305 N 0.40665 0.37482 0.61006 0.0
C306 C 0.43922 0.39668 0.60443 0.0
C307 C 0.45779 0.41951 0.63065 0.0
C308 C 0.44263 0.41974 0.66223 0.0
C309 C 0.40898 0.39719 0.66729 0.0
C310 C 0.39166 0.37525 0.64009 0.0
H311 H 0.45095 0.39661 0.58016 0.0
O312 O 0.42354 0.29347 0.59967 0.0
O313 O 0.38721 0.31079 0.59414 0.0
O314 O 0.42098 0.31646 0.52923 0.0
O315 O 0.40704 0.35566 0.54061 0.0
C316 C 0.39208 0.39532 0.69842 0.0
C317 C 0.35837 0.37147 0.70189 0.0
H318 H 0.29395 0.32164 0.69939 0.0
H319 H 0.26802 0.28407 0.64886 0.0
H320 H 0.48374 0.43684 0.62656 0.0
H321 H 0.45707 0.43727 0.68245 0.0
H322 H 0.40489 0.41183 0.71999 0.0
H323 H 0.34575 0.37002 0.72608 0.0
Mn324 Mn 0.75821 0.67679 0.08123 0.0
Mn325 Mn 0.68675 0.67632 0.10132 0.0
C326 C 0.73392 0.65827 0.13446 0.0
C327 C 0.81713 0.70572 0.08499 0.0
C328 C 0.68799 0.62479 0.05519 0.0
O329 O 0.7561 0.70589 0.04449 0.0
O330 O 0.70651 0.70148 0.05833 0.0
C331 C 0.71682 0.74614 0.11977 0.0
N332 N 0.69788 0.71447 0.12856 0.0
C333 C 0.68588 0.72954 0.18445 0.0
C334 C 0.70512 0.76237 0.17599 0.0
C335 C 0.72075 0.77069 0.14354 0.0
C336 C 0.68287 0.70618 0.15976 0.0
H337 H 0.72875 0.75259 0.09479 0.0
C338 C 0.73188 0.71117 0.0385 0.0
O339 O 0.80183 0.68138 0.06318 0.0
O340 O 0.79848 0.71365 0.10289 0.0
N341 N 0.66456 0.65279 0.1418 0.0
C342 C 0.64803 0.62007 0.14647 0.0
C343 C 0.63207 0.60771 0.17813 0.0
C344 C 0.63283 0.62906 0.20443 0.0
C345 C 0.64952 0.66259 0.19876 0.0
C346 C 0.66506 0.6735 0.16671 0.0
H347 H 0.64746 0.6036 0.12635 0.0
O348 O 0.75442 0.64954 0.1217 0.0
O349 O 0.72812 0.67772 0.11561 0.0
O350 O 0.71992 0.637 0.05399 0.0
O351 O 0.67342 0.63653 0.07399 0.0
C352 C 0.65178 0.68567 0.22381 0.0
C353 C 0.66979 0.71906 0.21652 0.0
H354 H 0.70828 0.78138 0.19426 0.0
H355 H 0.73572 0.79596 0.13685 0.0
H356 H 0.61926 0.5818 0.18229 0.0
H357 H 0.62067 0.61947 0.2289 0.0
H358 H 0.63993 0.67803 0.2488 0.0
H359 H 0.67121 0.7365 0.23575 0.0
Mn360 Mn 0.3658 0.0918 0.08101 0.0
Mn361 Mn 0.36243 0.01996 0.09547 0.0
C362 C 0.39067 0.0851 0.13007 0.0
C363 C 0.33948 0.12379 0.09057 0.0
C364 C 0.41136 0.06824 0.04597 0.0
O365 O 0.33001 0.06209 0.04673 0.0
O366 O 0.33283 0.01648 0.05586 0.0
C367 C 0.29335 0.9881 0.12149 0.0
N368 N 0.32614 0.99735 0.12641 0.0
C369 C 0.31569 0.97486 0.18367 0.0
C370 C 0.28175 0.96489 0.17914 0.0
C371 C 0.27055 0.9716 0.14793 0.0
C372 C 0.3372 0.99118 0.15639 0.0
H373 H 0.28471 0.99336 0.0976 0.0
C374 C 0.32236 0.03295 0.03883 0.0
O375 O 0.36109 0.13067 0.06582 0.0
O376 O 0.33315 0.09857 0.10838 0.0
N377 N 0.38998 0.01924 0.13238 0.0
C378 C 0.42348 0.03049 0.13252 0.0
C379 C 0.43872 0.02574 0.16186 0.0
C380 C 0.41932 0.00915 0.19051 0.0
C381 C 0.38479 0.9972 0.18944 0.0
C382 C 0.37097 1.00241 0.15937 0.0
H383 H 0.43844 0.04317 0.11049 0.0
O384 O 0.39964 0.1139 0.11882 0.0
O385 O 0.36714 0.06112 0.11243 0.0
O386 O 0.40113 0.08931 0.04834 0.0
O387 O 0.40019 0.04265 0.06418 0.0
C388 C 0.36358 0.9806 0.21713 0.0
C389 C 0.32907 0.96952 0.2143 0.0
H390 H 0.26411 0.95221 0.1995 0.0
H391 H 0.24442 0.9641 0.1443 0.0
H392 H 0.46536 0.03492 0.16243 0.0
H393 H 0.43118 0.00571 0.21316 0.0
H394 H 0.37359 0.97644 0.24083 0.0
H395 H 0.31304 0.957 0.23586 0.0
Mn396 Mn 0.93773 0.28674 0.07746 0.0
Mn397 Mn 1.00383 0.35598 0.10637 0.0
C398 C 0.93185 0.31455 0.12386 0.0
C399 C 0.91046 0.22927 0.0854 0.0
C400 C 0.96544 0.35243 0.04066 0.0
O401 O 0.97648 0.2867 0.05361 0.0
O402 O 0.02041 0.33101 0.07735 0.0
C403 C 0.03154 0.32752 0.15598 0.0
N404 N 0.01908 0.34786 0.14952 0.0
C405 C 0.02498 0.36451 0.20987 0.0
C406 C 0.03838 0.34418 0.21702 0.0
C407 C 0.0415 0.32551 0.19006 0.0
C408 C 0.01571 0.36576 0.17546 0.0
H409 H 0.03375 0.31299 0.13525 0.0
C410 C 1.00757 0.30664 0.05584 0.0
O411 O 0.90483 0.24147 0.05766 0.0
O412 O 0.93158 0.25006 0.1071 0.0
N413 N 0.99116 0.38251 0.13355 0.0
C414 C 0.97561 0.39921 0.12285 0.0
C415 C 0.96913 0.41797 0.14707 0.0
C416 C 0.9788 0.41947 0.18198 0.0
C417 C 0.99493 0.40224 0.19234 0.0
C418 C 1.00095 0.38414 0.16697 0.0
H419 H 0.96802 0.39807 0.09606 0.0
O420 O 0.90575 0.29329 0.10687 0.0
O421 O 0.96026 0.31843 0.11296 0.0
O422 O 0.94195 0.32254 0.04237 0.0
O423 O 0.989 0.36621 0.06302 0.0
C424 C 1.0047 0.40183 0.22697 0.0
C425 C 0.01969 0.38296 0.23574 0.0
H426 H 0.04597 0.34237 0.24321 0.0
H427 H 0.05153 0.30965 0.19589 0.0
H428 H 0.95659 0.43113 0.13887 0.0
H429 H 0.97347 0.43371 0.20066 0.0
H430 H 1.00037 0.41558 0.24714 0.0
H431 H 0.02661 0.38241 0.26256 0.0
Mn432 Mn 0.42759 0.4408 0.88048 0.0
Mn433 Mn 0.41623 0.50402 0.90155 0.0
C434 C 0.37979 0.44053 0.86119 0.0
C435 C 0.44937 0.41826 0.84108 0.0
C436 C 0.39979 0.44874 0.95061 0.0
O437 O 0.47347 0.47402 0.89856 0.0
O438 O 0.46323 0.51454 0.91311 0.0
C439 C 0.4606 0.54756 0.84753 0.0
N440 N 0.43001 0.53197 0.86243 0.0
C441 C 0.40706 0.5528 0.82006 0.0
C442 C 0.43839 0.56931 0.80442 0.0
C443 C 0.46526 0.56663 0.81819 0.0
C444 C 0.40396 0.53424 0.84928 0.0
H445 H 0.48124 0.54534 0.85784 0.0
C446 C 0.48266 0.50216 0.91146 0.0
O447 O 0.44218 0.40739 0.87256 0.0
O448 O 0.44545 0.44278 0.83356 0.0
N449 N 0.37273 0.49821 0.89235 0.0
C450 C 0.34404 0.48035 0.91016 0.0
C451 C 0.31465 0.47997 0.89935 0.0
C452 C 0.31517 0.49832 0.87071 0.0
C453 C 0.34518 0.51714 0.85333 0.0
C454 C 0.3737 0.51665 0.86537 0.0
H455 H 0.34351 0.46615 0.93214 0.0
O456 O 0.38177 0.41415 0.86198 0.0
O457 O 0.4069 0.46719 0.87048 0.0
O458 O 0.40951 0.43279 0.93087 0.0
O459 O 0.40086 0.47532 0.94183 0.0
C460 C 0.34778 0.5359 0.82417 0.0
C461 C 0.37869 0.55368 0.80751 0.0
H462 H 0.44206 0.58392 0.7817 0.0
H463 H 0.48946 0.57911 0.80613 0.0
H464 H 0.29162 0.46546 0.91296 0.0
H465 H 0.29239 0.49772 0.86225 0.0
H466 H 0.32611 0.53661 0.81415 0.0
H467 H 0.38031 0.5678 0.78494 0.0
Mn468 Mn 0.58192 0.97081 0.91143 0.0
Mn469 Mn 0.52287 0.95289 0.85115 0.0
C470 C 0.54816 0.994 0.91669 0.0
C471 C 0.59806 0.957 0.96256 0.0
C472 C 0.59346 1.00383 0.8403 0.0
O473 O 0.58016 0.93181 0.88693 0.0
O474 O 0.54578 0.92626 0.84295 0.0
C475 C 0.47896 0.88675 0.87689 0.0
N476 N 0.48398 0.91692 0.86931 0.0
C477 C 0.43023 0.90428 0.89151 0.0
C478 C 0.42437 0.873 0.89932 0.0
C479 C 0.44882 0.86417 0.89187 0.0
C480 C 0.46047 0.92553 0.87596 0.0
H481 H 0.49787 0.87999 0.87176 0.0
C482 C 0.56642 0.91929 0.85791 0.0
O483 O 0.6202 0.97534 0.94016 0.0
O484 O 0.56709 0.94686 0.95501 0.0
N485 N 0.49865 0.97612 0.85488 0.0
C486 C 0.50838 0.00728 0.8459 0.0
C487 C 0.48705 0.02019 0.85229 0.0
C488 C 0.45596 1.00086 0.86763 0.0
C489 C 0.44598 0.96843 0.87544 0.0
C490 C 0.46812 0.9568 0.86802 0.0
H491 H 0.53259 0.02237 0.83481 0.0
O492 O 0.57686 0.00676 0.93229 0.0
O493 O 0.53956 0.96704 0.89887 0.0
O494 O 0.60486 0.99849 0.86847 0.0
O495 O 0.56243 0.99012 0.83236 0.0
C496 C 0.41567 0.94761 0.89173 0.0
C497 C 0.40765 0.91549 0.8994 0.0
H498 H 0.40133 0.85568 0.91134 0.0
H499 H 0.44458 0.84014 0.898 0.0
H500 H 0.49483 0.04517 0.84612 0.0
H501 H 0.44033 0.01143 0.87377 0.0
H502 H 0.3985 0.95605 0.89908 0.0
H503 H 0.38427 0.8998 0.91193 0.0
Mn504 Mn 0.0613 0.62923 0.89156 0.0
Mn505 Mn 0.98461 0.59624 0.92537 0.0
C506 C 0.01533 0.60319 0.85562 0.0
C507 C 0.10241 0.67881 0.86595 0.0
C508 C 0.02737 0.56337 0.92873 0.0
O509 O 0.07027 0.64913 0.93998 0.0
O510 O 0.01784 0.62728 0.96 0.0
C511 C 0.97785 0.65549 0.92811 0.0
N512 N 0.96664 0.62444 0.91648 0.0
C513 C 0.92205 0.62494 0.88412 0.0
C514 C 0.93295 0.65684 0.89599 0.0
C515 C 0.96098 0.67218 0.91808 0.0
C516 C 0.93958 0.60937 0.89539 0.0
H517 H 0.99958 0.66747 0.94481 0.0
C518 C 0.04948 0.64531 0.96377 0.0
O519 O 0.11034 0.65738 0.87676 0.0
O520 O 0.07221 0.67175 0.87136 0.0
N521 N 0.95053 0.5661 0.89444 0.0
C522 C 0.94472 0.53618 0.8834 0.0
C523 C 0.91836 0.51807 0.86002 0.0
C524 C 0.89826 0.53089 0.84827 0.0
C525 C 0.90465 0.56169 0.86012 0.0
C526 C 0.93106 0.57848 0.88369 0.0
H527 H 0.96032 0.52637 0.8921 0.0
O528 O 0.04414 0.60781 0.84559 0.0
O529 O 0.0146 0.61421 0.88657 0.0
O530 O 0.05311 0.58471 0.91224 0.0
O531 O 1.00143 0.56605 0.93449 0.0
C532 C 0.88635 0.5767 0.84883 0.0
C533 C 0.89503 0.60829 0.86085 0.0
H534 H 0.92023 0.66993 0.888 0.0
H535 H 0.96967 0.69687 0.92717 0.0
H536 H 0.91367 0.49438 0.85089 0.0
H537 H 0.87818 0.51699 0.82994 0.0
H538 H 0.86584 0.56434 0.83054 0.0
H539 H 0.88105 0.61974 0.85162 0.0
Mn540 Mn 0.4308 0.97988 0.40394 0.0
Mn541 Mn 0.39819 0.02426 0.44193 0.0
C542 C 0.41136 0.96971 0.46265 0.0
C543 C 0.48547 0.02002 0.43364 0.0
C544 C 0.35672 0.96684 0.39614 0.0
O545 O 0.4413 0.01428 0.36834 0.0
O546 O 0.41835 0.04125 0.39536 0.0
C547 C 0.46256 0.08431 0.45424 0.0
N548 N 0.43377 0.05971 0.46683 0.0
C549 C 0.44641 0.08364 0.52437 0.0
C550 C 0.47659 0.10877 0.51219 0.0
C551 C 0.48464 0.10914 0.47694 0.0
C552 C 0.42556 0.0594 0.50059 0.0
H553 H 0.46868 0.08484 0.42709 0.0
C554 C 0.43305 0.03645 0.36936 0.0
O555 O 0.48102 0.9962 0.41484 0.0
O556 O 0.45871 0.02135 0.43681 0.0
N557 N 0.37737 0.01135 0.48622 0.0
C558 C 0.34708 0.98569 0.49371 0.0
C559 C 0.33496 0.98217 0.52776 0.0
C560 C 0.35376 0.0054 0.55355 0.0
C561 C 0.38459 0.03192 0.54507 0.0
C562 C 0.39545 0.03408 0.51072 0.0
H563 H 0.33238 0.96795 0.47388 0.0
O564 O 0.41682 0.94959 0.44488 0.0
O565 O 0.42025 0.99707 0.44716 0.0
O566 O 0.38073 0.96117 0.38944 0.0
O567 O 0.35974 0.98916 0.41734 0.0
C568 C 0.40517 0.05606 0.56944 0.0
C569 C 0.4361 0.08184 0.55912 0.0
H570 H 0.49364 0.12803 0.52959 0.0
H571 H 0.50777 0.12857 0.46728 0.0
H572 H 0.31115 0.96163 0.53409 0.0
H573 H 0.34439 1.00254 0.5798 0.0
H574 H 0.3975 0.05495 0.59621 0.0
H575 H 0.45172 0.10025 0.5781 0.0
Mn576 Mn 0.0194 0.40748 0.38961 0.0
Mn577 Mn 0.94322 0.37261 0.42596 0.0
C578 C 0.97231 0.38965 0.35555 0.0
C579 C 0.06075 0.39771 0.36318 0.0
C580 C 0.98758 0.44545 0.42389 0.0
O581 O 0.02951 0.39891 0.43864 0.0
O582 O 0.97755 0.37631 0.4601 0.0
C583 C 0.93611 0.30727 0.4346 0.0
N584 N 0.92463 0.3266 0.42125 0.0
C585 C 0.87772 0.28065 0.3943 0.0
C586 C 0.88892 0.26023 0.40795 0.0
C587 C 0.91827 0.27361 0.42816 0.0
C588 C 0.89638 0.31397 0.40185 0.0
H589 H 0.95874 0.31748 0.45001 0.0
C590 C 0.0089 0.3866 0.46345 0.0
O591 O 0.06777 0.42669 0.374 0.0
O592 O 0.03102 0.37502 0.3694 0.0
N593 N 0.90771 0.36741 0.39586 0.0
C594 C 0.90104 0.3906 0.38353 0.0
C595 C 0.87305 0.38134 0.36196 0.0
C596 C 0.85209 0.34837 0.35358 0.0
C597 C 0.85923 0.32492 0.36698 0.0
C598 C 0.88736 0.33558 0.38849 0.0
H599 H 0.91716 0.41598 0.3898 0.0
O600 O 1.00122 0.4105 0.34405 0.0
O601 O 0.97188 0.37879 0.38649 0.0
O602 O 0.01293 0.44587 0.40901 0.0
O603 O 0.96065 0.41959 0.43079 0.0
C604 C 0.83984 0.29145 0.35938 0.0
C605 C 0.84907 0.26933 0.37304 0.0
H606 H 0.87535 0.23428 0.40285 0.0
H607 H 0.92716 0.25803 0.43865 0.0
H608 H 0.86771 0.39958 0.35173 0.0
H609 H 0.83066 0.34135 0.33673 0.0
H610 H 0.81795 0.28248 0.34279 0.0
H611 H 0.83414 0.24369 0.36675 0.0
Mn612 Mn 0.59068 0.61171 0.40211 0.0
Mn613 Mn 0.65825 0.67773 0.43423 0.0
C614 C 0.58589 0.63818 0.45049 0.0
C615 C 0.56052 0.55387 0.4068 0.0
C616 C 0.6206 0.68092 0.3715 0.0
O617 O 0.62815 0.60974 0.37761 0.0
O618 O 0.67213 0.65499 0.39907 0.0
C619 C 0.68305 0.6402 0.47308 0.0
N620 N 0.67343 0.66328 0.47274 0.0
C621 C 0.68067 0.67127 0.53474 0.0
C622 C 0.69097 0.6478 0.53572 0.0
C623 C 0.69197 0.63206 0.50476 0.0
C624 C 0.67192 0.67825 0.5024 0.0
H625 H 0.68348 0.62784 0.44939 0.0
C626 C 0.65907 0.63026 0.37825 0.0
O627 O 0.55619 0.56802 0.37998 0.0
O628 O 0.58174 0.57303 0.42947 0.0
N629 N 0.64899 0.70252 0.46787 0.0
C630 C 0.63589 0.72257 0.46268 0.0
C631 C 0.63221 0.73955 0.49113 0.0
C632 C 0.64215 0.73583 0.52453 0.0
C633 C 0.6558 0.71524 0.52917 0.0
C634 C 0.65931 0.69934 0.49975 0.0
H635 H 0.62815 0.72542 0.43705 0.0
O636 O 0.55966 0.61904 0.43232 0.0
O637 O 0.61388 0.64101 0.43952 0.0
O638 O 0.5983 0.65044 0.36952 0.0
O639 O 0.64288 0.69344 0.3954 0.0
C640 C 0.66539 0.70931 0.56189 0.0
C641 C 0.67769 0.68724 0.56469 0.0
H642 H 0.69768 0.64139 0.5602 0.0
H643 H 0.69937 0.61354 0.5052 0.0
H644 H 0.6216 0.75535 0.48736 0.0
H645 H 0.63899 0.74872 0.54645 0.0
H646 H 0.66276 0.72109 0.58514 0.0
H647 H 0.6843 0.68234 0.59007 0.0
H648 H 0.13857 0.78813 0.12692 0.0
H649 H 0.08503 0.69933 0.18366 0.0
H650 H 0.12887 0.75693 0.07307 0.0
H651 H 0.07536 0.66788 0.12957 0.0
H652 H 0.01544 0.63683 0.02451 0.0
H653 H 0.03736 0.66327 0.08068 0.0
H654 H 0.1357 0.71666 0.03721 0.0
H655 H 0.11384 0.69045 0.98079 0.0
C656 C 0.12588 0.76187 0.12804 0.0
C657 C 0.11235 0.74615 0.15939 0.0
C658 C 0.12025 0.74396 0.09715 0.0
C659 C 0.10074 0.70997 0.09698 0.0
C660 C 0.08999 0.69411 0.12888 0.0
C661 C 0.09595 0.71208 0.15992 0.0
C662 C 0.04175 0.65416 0.02684 0.0
C663 C 0.06277 0.66165 -0.00204 0.0
C664 C 0.05441 0.66899 0.0592 0.0
C665 C 0.08834 0.69183 0.06347 0.0
C666 C 0.10944 0.69917 0.03472 0.0
C667 C 0.09684 0.68417 0.00238 0.0
H668 H 0.37783 0.47682 -0.00117 0.0
H669 H 0.38818 0.39136 0.98099 0.0
H670 H 0.34927 0.45454 0.05272 0.0
H671 H 0.35918 0.369 0.03564 0.0
H672 H 0.32499 0.35125 0.15093 0.0
H673 H 0.36256 0.37871 0.10254 0.0
H674 H 0.29281 0.40737 0.06338 0.0
H675 H 0.25549 0.38 0.1112 0.0
C676 C 0.3743 0.45334 0.00642 0.0
C677 C 0.38508 0.43575 0.9851 0.0
C678 C 0.35782 0.44059 0.03744 0.0
C679 C 0.35173 0.40994 0.04829 0.0
C680 C 0.36372 0.39281 0.02798 0.0
C681 C 0.38016 0.40554 -0.0034 0.0
C682 C 0.31815 0.3641 0.13239 0.0
C683 C 0.2874 0.36365 0.13494 0.0
C684 C 0.33942 0.37943 0.1045 0.0
C685 C 0.33057 0.39508 0.07912 0.0
C686 C 0.30048 0.39575 0.08264 0.0
C687 C 0.27908 0.38007 0.11005 0.0
H688 H 0.65831 0.96774 0.17146 0.0
H689 H 0.66818 0.88628 0.13365 0.0
H690 H 0.62962 0.96696 0.11783 0.0
H691 H 0.64135 0.88693 0.07863 0.0
H692 H 0.65565 0.95658 0.97944 0.0
H693 H 0.66987 0.94221 0.03558 0.0
H694 H 0.57499 0.92374 0.07638 0.0
H695 H 0.56031 0.93723 0.02033 0.0
C696 C 0.65271 0.94859 0.1524 0.0
C697 C 0.66398 0.92611 0.15714 0.0
C698 C 0.63687 0.94851 0.12153 0.0
C699 C 0.63347 0.92689 0.09441 0.0
C700 C 0.64367 0.90365 0.09945 0.0
C701 C 0.65872 0.90316 0.1308 0.0
C702 C 0.6378 0.94919 0.00033 0.0
C703 C 0.60702 0.94812 -0.00428 0.0
C704 C 0.64574 0.94068 0.03216 0.0
C705 C 0.62324 0.93162 0.05982 0.0
C706 C 0.59245 0.93038 0.05516 0.0
C707 C 0.58423 0.9382 0.02321 0.0
H708 H 0.7529 0.02766 0.51271 0.0
H709 H 0.79991 0.11794 0.45749 0.0
H710 H 0.74489 0.99769 0.45783 0.0
H711 H 0.79185 0.08815 0.4029 0.0
H712 H 0.68523 0.96468 0.35279 0.0
H713 H 0.70549 0.99122 0.4092 0.0
H714 H 0.80324 0.05055 0.3665 0.0
H715 H 0.78303 0.02416 0.30977 0.0
C716 C 0.76258 0.04113 0.48906 0.0
C717 C 0.77672 0.07507 0.48924 0.0
C718 C 0.75766 0.02398 0.45764 0.0
C719 C 0.76721 0.04058 0.42605 0.0
C720 C 0.78426 0.07468 0.42678 0.0
C721 C 0.78884 0.09174 0.45806 0.0
C722 C 0.71106 0.98336 0.35532 0.0
C723 C 0.7324 0.99243 0.32661 0.0
C724 C 0.72278 0.99825 0.38781 0.0
C725 C 0.75604 0.02273 0.39234 0.0
C726 C 0.77748 0.03174 0.36376 0.0
C727 C 0.76584 0.01665 0.33127 0.0
H728 H 0.9881 0.69068 0.49686 0.0
H729 H 0.90575 0.69841 0.45286 0.0
H730 H 0.0231 0.72131 0.44815 0.0
H731 H 0.94055 0.7289 0.40467 0.0
H732 H 0.01977 0.80853 0.34159 0.0
H733 H 0.99151 0.78279 0.39459 0.0
H734 H 0.02258 0.71044 0.38162 0.0
H735 H 0.05128 0.7363 0.32797 0.0
C736 C 0.97768 0.69942 0.47719 0.0
C737 C 0.9442 0.69223 0.47873 0.0
C738 C 0.99758 0.7166 0.44918 0.0
C739 C 0.98449 0.72738 0.42263 0.0
C740 C 0.95139 0.72111 0.42488 0.0
C741 C 0.93144 0.7036 0.45247 0.0
C742 C 0.02093 0.78727 0.34993 0.0
C743 C 0.03766 0.77435 0.33016 0.0
C744 C 1.0046 0.77251 0.38037 0.0
C745 C 1.00468 0.74455 0.3921 0.0
C746 C 0.02232 0.73214 0.37322 0.0
C747 C 0.03855 0.74682 0.34241 0.0
H748 H 0.29374 0.3118 0.50863 0.0
H749 H 0.33034 0.24829 0.47055 0.0
H750 H 0.27184 0.31155 0.45059 0.0
H751 H 0.30899 0.24874 0.41281 0.0
H752 H 0.21714 0.28 0.34236 0.0
H753 H 0.23002 0.27177 0.40183 0.0
H754 H 0.33062 0.2995 0.37161 0.0
H755 H 0.31802 0.30839 0.31219 0.0
C756 C 0.2964 0.29715 0.48824 0.0
C757 C 0.31415 0.28036 0.49431 0.0
C758 C 0.28394 0.29711 0.45501 0.0
C759 C 0.28937 0.28063 0.42723 0.0
C760 C 0.30497 0.26203 0.43375 0.0
C761 C 0.31691 0.2616 0.46699 0.0
C762 C 0.24199 0.28425 0.34838 0.0
C763 C 0.26663 0.29484 0.32266 0.0
C764 C 0.24931 0.27962 0.3824 0.0
C765 C 0.28118 0.28482 0.39113 0.0
C766 C 0.30572 0.29501 0.36536 0.0
C767 C 0.2986 0.30027 0.33148 0.0
H768 H 0.08039 0.37209 0.85618 0.0
H769 H 0.0519 0.27083 0.84525 0.0
H770 H 0.07104 0.3659 0.91853 0.0
H771 H 0.04554 0.26483 0.90794 0.0
H772 H 0.06708 0.35544 0.03193 0.0
H773 H 0.08753 0.35922 0.97292 0.0
H774 H 0.01083 0.26022 0.95191 0.0
H775 H 0.99238 0.25584 0.01111 0.0
C776 C 0.07163 0.34836 0.86724 0.0
C777 C 0.06487 0.32149 0.8458 0.0
C778 C 0.06723 0.34492 0.90319 0.0
C779 C 0.05727 0.31472 0.91877 0.0
C780 C 0.05221 0.28825 0.89716 0.0
C781 C 0.05592 0.29162 0.86115 0.0
C782 C 0.05564 0.33402 0.01518 0.0
C783 C 0.0277 0.3055 0.02624 0.0
C784 C 0.06685 0.3364 0.98092 0.0
C785 C 0.05019 0.31043 0.95688 0.0
C786 C 0.02453 0.28088 0.96922 0.0
C787 C 0.01379 0.27834 0.00349 0.0
H788 H 0.68916 0.73262 0.0174 0.0
H789 H 0.76847 0.71591 0.98068 0.0
H790 H 0.67527 0.73801 0.95767 0.0
H791 H 0.75398 0.72043 0.92104 0.0
H792 H 0.72765 0.74499 0.81528 0.0
H793 H 0.74895 0.75171 0.87469 0.0
H794 H 0.64817 0.69778 0.91216 0.0
H795 H 0.62688 0.69171 0.85316 0.0
C796 C 0.7041 0.73077 -0.00333 0.0
C797 C 0.72961 0.72334 0.00388 0.0
C798 C 0.6959 0.73352 0.96238 0.0
C799 C 0.71291 0.72875 0.93452 0.0
C800 C 0.74032 0.72421 0.94184 0.0
C801 C 0.74868 0.72167 0.97616 0.0
C802 C 0.71003 0.73445 0.83619 0.0
C803 C 0.67551 0.71783 0.82938 0.0
C804 C 0.72227 0.73836 0.87026 0.0
C805 C 0.70028 0.72567 0.89827 0.0
C806 C 0.66582 0.70863 0.89134 0.0
C807 C 0.6536 0.70483 0.85739 0.0
H808 H 0.27859 0.04519 0.00137 0.0
H809 H 0.33508 0.9942 -0.0032 0.0
H810 H 0.26273 0.03113 0.94025 0.0
H811 H 0.32292 0.98345 0.93594 0.0
H812 H 0.28584 0.94931 0.83044 0.0
H813 H 0.28895 0.95566 0.89289 0.0
H814 H 0.27834 0.04175 0.88401 0.0
H815 H 0.27105 0.03228 0.82107 0.0
C816 C 0.28727 0.03067 0.98736 0.0
C817 C 0.30754 0.0203 0.00407 0.0
C818 C 0.27874 0.02307 0.95209 0.0
C819 C 0.29135 0.00597 0.93249 0.0
C820 C 0.31139 0.99548 0.94975 0.0
C821 C 0.31866 1.00186 0.98503 0.0
C822 C 0.28416 0.96956 0.84203 0.0
C823 C 0.27943 0.99103 0.82118 0.0
C824 C 0.28626 0.97351 0.87799 0.0
C825 C 0.28502 0.99992 0.89416 0.0
C826 C 0.27923 0.02095 0.873 0.0
C827 C 0.27565 0.01602 0.83683 0.0
H828 H 0.3972 0.98264 0.68823 0.0
H829 H 0.29843 0.91916 0.64694 0.0
H830 H 0.42085 0.97992 0.63242 0.0
H831 H 0.32139 0.91846 0.59126 0.0
H832 H 0.44353 0.01022 0.51756 0.0
H833 H 0.4278 1.00185 0.57847 0.0
H834 H 0.3492 0.90477 0.55227 0.0
H835 H 0.36364 0.91479 0.49117 0.0
C836 C 0.38055 0.96768 0.66751 0.0
C837 C 0.34585 0.95141 0.67216 0.0
C838 C 0.39407 0.96648 0.63524 0.0
C839 C 0.37318 0.94945 0.60672 0.0
C840 C 0.33865 0.93146 0.61231 0.0
C841 C 0.32529 0.93207 0.64458 0.0
C842 C 0.42251 0.98742 0.52502 0.0
C843 C 0.40328 0.96402 0.49972 0.0
C844 C 0.4139 0.98216 0.5601 0.0
C845 C 0.38638 0.95288 0.57062 0.0
C846 C 0.36946 0.92823 0.54527 0.0
C847 C 0.37777 0.93381 0.51022 0.0
H848 H 0.02621 0.39512 0.68661 0.0
H849 H 0.11111 0.38525 0.65496 0.0
H850 H 0.01426 0.40007 0.62609 0.0
H851 H 0.09867 0.38964 0.59437 0.0
H852 H 0.97264 0.35505 0.52005 0.0
H853 H 0.99192 0.35903 0.57954 0.0
H854 H 0.09312 0.42207 0.54761 0.0
H855 H 0.07382 0.41784 0.48745 0.0
C856 C 0.04276 0.39467 0.66687 0.0
C857 C 0.06934 0.3893 0.67577 0.0
C858 C 0.0357 0.39718 0.63211 0.0
C859 C 0.05499 0.39437 0.60536 0.0
C860 C 0.08325 0.3918 0.61433 0.0
C861 C 0.0904 0.38935 0.64917 0.0
C862 C 0.99906 0.36969 0.52551 0.0
C863 C 0.02162 0.3863 0.49886 0.0
C864 C 0.01008 0.37223 0.55978 0.0
C865 C 0.04398 0.39146 0.56848 0.0
C866 C 0.06682 0.40715 0.54175 0.0
C867 C 0.05576 0.40462 0.50727 0.0
H868 H 0.60568 0.61955 0.50703 0.0
H869 H 0.5532 0.66957 0.47451 0.0
H870 H 0.59928 0.63063 0.56741 0.0
H871 H 0.54554 0.68014 0.53559 0.0
H872 H 0.60651 0.74045 0.63557 0.0
H873 H 0.58324 0.71599 0.5792 0.0
H874 H 0.56516 0.62276 0.61633 0.0
H875 H 0.59055 0.64802 0.67202 0.0
C876 C 0.59274 0.63301 0.51308 0.0
C877 C 0.58147 0.64529 0.48656 0.0
C878 C 0.58823 0.63865 0.54768 0.0
C879 C 0.57179 0.65629 0.55647 0.0
C880 C 0.55861 0.6668 0.52967 0.0
C881 C 0.56315 0.66102 0.49487 0.0
C882 C 0.59612 0.71444 0.63205 0.0
C883 C 0.6002 0.69604 0.65792 0.0
C884 C 0.58268 0.70033 0.59975 0.0
C885 C 0.57336 0.66762 0.59293 0.0
C886 C 0.57301 0.64826 0.62057 0.0
C887 C 0.58696 0.66253 0.65271 0.0
H888 H 0.48573 0.44446 0.78358 0.0
H889 H 0.42555 0.35293 0.8335 0.0
H890 H 0.48137 0.41605 0.72889 0.0
H891 H 0.42107 0.32423 0.77843 0.0
H892 H 0.47475 0.35475 0.63453 0.0
H893 H 0.49134 0.37742 0.69367 0.0
H894 H 0.38882 0.32247 0.7258 0.0
H895 H 0.37266 0.29987 0.66692 0.0
C896 C 0.47261 0.41814 0.7831 0.0
C897 C 0.45585 0.40086 0.81267 0.0
C898 C 0.47005 0.40185 0.75172 0.0
C899 C 0.45033 0.36794 0.74919 0.0
C900 C 0.43602 0.35044 0.77954 0.0
C901 C 0.43896 0.3668 0.81116 0.0
C902 C 0.45594 0.34775 0.65439 0.0
C903 C 0.42233 0.32681 0.64618 0.0
C904 C 0.46537 0.3605 0.68816 0.0
C905 C 0.4414 0.35172 0.71442 0.0
C906 C 0.40796 0.32943 0.70633 0.0
C907 C 0.39857 0.31699 0.67254 0.0
H908 H 0.7024 0.05522 0.65078 0.0
H909 H 0.73181 0.14909 0.69855 0.0
H910 H 0.67243 0.02883 0.70333 0.0
H911 H 0.70207 0.12235 0.75133 0.0
H912 H 0.66062 0.0472 0.84743 0.0
H913 H 0.69966 0.07674 0.80066 0.0
H914 H 0.61877 0.03472 0.72605 0.0
H915 H 0.57991 0.00602 0.77199 0.0
C916 C 0.70319 0.07025 0.67273 0.0
C917 C 0.71917 0.10424 0.67036 0.0
C918 C 0.68599 0.05512 0.70272 0.0
C919 C 0.68498 0.07368 0.73108 0.0
C920 C 0.70273 0.10765 0.72975 0.0
C921 C 0.71951 0.12283 0.6995 0.0
C922 C 0.65119 0.04459 0.8211 0.0
C923 C 0.61714 0.02428 0.81351 0.0
C924 C 0.67348 0.0614 0.79447 0.0
C925 C 0.66208 0.05747 0.75993 0.0
C926 C 0.62812 0.03772 0.7525 0.0
C927 C 0.60587 0.02153 0.77895 0.0
H928 H 0.98704 0.64073 0.84422 0.0
H929 H 0.99383 0.55847 0.80337 0.0
H930 H 0.96081 0.64349 0.79011 0.0
H931 H 0.96954 0.56263 0.74814 0.0
H932 H 0.98842 0.63383 0.65045 0.0
H933 H 1.00188 0.62039 0.70761 0.0
H934 H 0.90612 0.60183 0.74581 0.0
H935 H 0.89222 0.61431 0.68875 0.0
C936 C 0.98122 0.62216 0.82437 0.0
C937 C 0.99109 0.59853 0.82836 0.0
C938 C 0.96688 0.62415 0.79322 0.0
C939 C 0.96355 0.6034 0.76521 0.0
C940 C 0.97198 0.57882 0.76959 0.0
C941 C 0.98551 0.57628 0.80111 0.0
C942 C 0.97035 0.62689 0.67109 0.0
C943 C 0.93937 0.62509 0.66535 0.0
C944 C 0.97785 0.61892 0.7035 0.0
C945 C 0.95474 0.60979 0.73061 0.0
C946 C 0.92407 0.60856 0.72505 0.0
C947 C 0.91628 0.61577 0.69254 0.0
H948 H 0.64082 0.58178 0.32937 0.0
H949 H 0.72118 0.67701 0.35801 0.0
H950 H 0.66241 0.58794 0.27117 0.0
H951 H 0.74395 0.68244 0.2999 0.0
H952 H 0.73993 0.70249 0.1839 0.0
H953 H 0.72769 0.69329 0.24563 0.0
H954 H 0.70213 0.59263 0.23047 0.0
H955 H 0.71239 0.60179 0.16833 0.0
C956 C 0.66386 0.60358 0.32369 0.0
C957 C 0.67877 0.62922 0.34828 0.0
C958 C 0.67636 0.60709 0.29012 0.0
C959 C 0.7045 0.63607 0.28045 0.0
C960 C 0.7216 0.6602 0.30615 0.0
C961 C 0.70884 0.65685 0.33972 0.0
C962 C 0.73087 0.67828 0.19382 0.0
C963 C 0.72532 0.65243 0.17135 0.0
C964 C 0.72469 0.67311 0.22931 0.0
C965 C 0.7138 0.64213 0.24319 0.0
C966 C 0.70977 0.61662 0.22067 0.0
C967 C 0.71562 0.62179 0.18513 0.0
H968 H 0.45348 0.10847 0.15605 0.0
H969 H 0.34981 0.05626 0.1838 0.0
H970 H 0.4694 0.10398 0.21591 0.0
H971 H 0.3654 0.05184 0.24341 0.0
H972 H 0.46893 0.03983 0.31122 0.0
H973 H 0.4621 0.05673 0.25358 0.0
H974 H 0.39513 0.08806 0.29542 0.0
H975 H 0.40191 0.07138 0.35308 0.0
C976 C 0.43421 0.09596 0.17504 0.0
C977 C 0.40049 0.08162 0.16537 0.0
C978 C 0.44324 0.09346 0.20914 0.0
C979 C 0.41864 0.07761 0.23427 0.0
C980 C 0.38492 0.06448 0.2247 0.0
C981 C 0.37596 0.06654 0.19057 0.0
C982 C 0.45341 0.05108 0.30835 0.0
C983 C 0.43565 0.05384 0.33676 0.0
C984 C 0.44953 0.06078 0.2753 0.0
C985 C 0.42759 0.07311 0.26998 0.0
C986 C 0.41179 0.07812 0.29876 0.0
C987 C 0.41594 0.0688 0.33186 0.0
H988 H 0.9516 0.41767 0.30821 0.0
H989 H 0.9361 0.32503 0.34342 0.0
H990 H 0.92791 0.39342 0.25175 0.0
H991 H 0.90968 0.29999 0.2882 0.0
H992 H 0.89734 0.34466 0.14656 0.0
H993 H 0.8894 0.35593 0.20746 0.0
H994 H 0.9473 0.31113 0.24077 0.0
H995 H 0.95427 0.29961 0.1808 0.0
C996 C 0.94101 0.39165 0.30456 0.0
C997 C 0.94542 0.3731 0.33002 0.0
C998 C 0.92725 0.37768 0.27228 0.0
C999 C 0.91788 0.34501 0.26529 0.0
C1000 C 0.91748 0.32545 0.2927 0.0
C1001 C 0.93201 0.3396 0.32461 0.0
C1002 C 0.90816 0.33734 0.16723 0.0
C1003 C 0.92761 0.32266 0.1595 0.0
C1004 C 0.90342 0.34347 0.20187 0.0
C1005 C 0.91739 0.33413 0.22895 0.0
C1006 C 0.93546 0.31798 0.22074 0.0
C1007 C 0.94025 0.3121 0.18639 0.0
H1008 H 0.33054 0.90732 0.36173 0.0
H1009 H 0.30971 0.98535 0.38539 0.0
H1010 H 0.278 0.87881 0.32929 0.0
H1011 H 0.25867 0.95826 0.35154 0.0
H1012 H 0.15297 0.89092 0.31573 0.0
H1013 H 0.20496 0.91805 0.34841 0.0
H1014 H 0.24732 0.87438 0.28005 0.0
H1015 H 0.19429 0.84565 0.24878 0.0
C1016 C 0.31484 0.91848 0.35991 0.0
C1017 C 0.32436 0.94851 0.37666 0.0
C1018 C 0.28469 0.90226 0.34092 0.0
C1019 C 0.26342 0.91588 0.33752 0.0
C1020 C 0.27342 0.94619 0.35402 0.0
C1021 C 0.30309 0.96199 0.37347 0.0
C1022 C 0.17345 0.88728 0.30748 0.0
C1023 C 0.16929 0.86609 0.27947 0.0
C1024 C 0.2036 0.90305 0.32623 0.0
C1025 C 0.23102 0.89879 0.3172 0.0
C1026 C 0.22695 0.87802 0.28859 0.0
C1027 C 0.19649 0.86171 0.27027 0.0
H1028 H 0.14018 0.29236 0.24092 0.0
H1029 H 0.21923 0.39161 0.24136 0.0
H1030 H 0.10337 0.30963 0.26847 0.0
H1031 H 0.18402 0.40875 0.27144 0.0
H1032 H 0.11087 0.43683 0.3184 0.0
H1033 H 0.14216 0.4207 0.279 0.0
H1034 H 0.09299 0.32432 0.32173 0.0
H1035 H 0.06072 0.34014 0.35913 0.0
C1036 C 0.1494 0.31801 0.24586 0.0
C1037 C 0.18255 0.34061 0.23823 0.0
C1038 C 0.12856 0.32799 0.26272 0.0
C1039 C 0.14057 0.36075 0.27341 0.0
C1040 C 0.17323 0.38343 0.26379 0.0
C1041 C 0.19369 0.37354 0.24641 0.0
C1042 C 0.10713 0.41234 0.31955 0.0
C1043 C 0.08353 0.38996 0.3423 0.0
C1044 C 0.12506 0.40288 0.2968 0.0
C1045 C 0.12037 0.37087 0.29653 0.0
C1046 C 0.09706 0.34885 0.31996 0.0
C1047 C 0.07879 0.35814 0.34207 0.0
H1048 H 0.69106 0.87673 0.3258 0.0
H1049 H 0.70172 0.84329 0.22429 0.0
H1050 H 0.66831 0.8218 0.34777 0.0
H1051 H 0.67893 0.78796 0.24638 0.0
H1052 H 0.66524 0.70029 0.31987 0.0
H1053 H 0.68988 0.75327 0.29233 0.0
H1054 H 0.61344 0.77019 0.33649 0.0
H1055 H 0.58999 0.71785 0.36574 0.0
C1056 C 0.6898 0.85779 0.3085 0.0
C1057 C 0.69904 0.86462 0.27349 0.0
C1058 C 0.67606 0.82612 0.32093 0.0
C1059 C 0.67113 0.80016 0.29875 0.0
C1060 C 0.68245 0.80728 0.26424 0.0
C1061 C 0.69603 0.83913 0.25166 0.0
C1062 C 0.65262 0.71456 0.32218 0.0
C1063 C 0.62478 0.70418 0.34393 0.0
C1064 C 0.66694 0.74509 0.30653 0.0
C1065 C 0.65357 0.76599 0.31178 0.0
C1066 C 0.62448 0.75477 0.33187 0.0
C1067 C 0.61044 0.72439 0.34796 0.0
H1068 H 0.75715 0.04936 0.16376 0.0
H1069 H 0.84352 0.038 0.18254 0.0
H1070 H 0.79073 0.09877 0.13285 0.0
H1071 H 0.87776 0.08826 0.15057 0.0
H1072 H 0.93037 0.20055 0.13342 0.0
H1073 H 0.89995 0.14617 0.15626 0.0
H1074 H 0.82101 0.12284 0.08141 0.0
H1075 H 0.85155 0.17815 0.05887 0.0
C1076 C 0.78345 0.05727 0.16119 0.0
C1077 C 0.79751 0.03946 0.17609 0.0
C1078 C 0.80277 0.08571 0.14288 0.0
C1079 C 0.83711 0.09777 0.13868 0.0
C1080 C 0.8514 0.07993 0.15333 0.0
C1081 C 0.83181 0.05104 0.17167 0.0
C1082 C 0.90668 0.18377 0.12138 0.0
C1083 C 0.89333 0.19403 0.09438 0.0
C1084 C 0.88927 0.15229 0.13445 0.0
C1085 C 0.8577 0.12983 0.12113 0.0
C1086 C 0.845 0.13953 0.09287 0.0
C1087 C 0.86262 0.1712 0.0796 0.0
H1088 H 0.85743 0.67798 0.08769 0.0
H1089 H 0.85774 0.76883 0.10404 0.0
H1090 H 0.91227 0.7011 0.11641 0.0
H1091 H 0.9129 0.79216 0.13175 0.0
H1092 H 0.97346 0.7384 0.2211 0.0
H1093 H 0.92339 0.72185 0.18573 0.0
H1094 H 0.97854 0.80223 0.11787 0.0
H1095 H 0.0295 0.81797 0.15263 0.0
C1096 C 0.86974 0.70321 0.09615 0.0
C1097 C 0.85333 0.7216 0.09341 0.0
C1098 C 0.90096 0.71637 0.11289 0.0
C1099 C 0.91674 0.7484 0.12645 0.0
C1100 C 0.90143 0.76752 0.12143 0.0
C1101 C 0.8699 0.75413 0.10548 0.0
C1102 C 0.97478 0.75301 0.19907 0.0
C1103 C 1.0052 0.78012 0.19033 0.0
C1104 C 0.94621 0.74329 0.17861 0.0
C1105 C 0.94715 0.76048 0.14882 0.0
C1106 C 0.97715 0.7885 0.1407 0.0
C1107 C 1.00614 0.79786 0.1609 0.0
H1108 H 0.23719 0.24076 0.11272 0.0
H1109 H 0.26808 0.23035 0.21563 0.0
H1110 H 0.26204 0.20916 0.08837 0.0
H1111 H 0.29269 0.19901 0.19135 0.0
H1112 H 0.29683 0.11283 0.14358 0.0
H1113 H 0.27175 0.14489 0.16323 0.0
H1114 H 0.31943 0.21211 0.08029 0.0
H1115 H 0.34512 0.17953 0.06018 0.0
C1116 C 0.24899 0.23155 0.13021 0.0
C1117 C 0.2503 0.23796 0.16627 0.0
C1118 C 0.26356 0.21374 0.11616 0.0
C1119 C 0.27937 0.2015 0.13785 0.0
C1120 C 0.28046 0.20777 0.17386 0.0
C1121 C 0.26632 0.22582 0.18782 0.0
C1122 C 0.3021 0.13436 0.12922 0.0
C1123 C 0.32329 0.1436 0.10027 0.0
C1124 C 0.28772 0.15289 0.14074 0.0
C1125 C 0.29378 0.1813 0.12366 0.0
C1126 C 0.31419 0.19028 0.09402 0.0
C1127 C 0.32899 0.17171 0.08254 0.0
H1128 H 0.84911 0.14499 0.61398 0.0
H1129 H 0.85478 0.23882 0.60639 0.0
H1130 H 0.90394 0.17039 0.64224 0.0
H1131 H 0.91015 0.26427 0.63397 0.0
H1132 H 0.02047 0.30221 0.6605 0.0
H1133 H 0.97085 0.27256 0.62335 0.0
H1134 H 0.92478 0.20103 0.7028 0.0
H1135 H 0.97394 0.23137 0.74031 0.0
C1136 C 0.86225 0.17112 0.61774 0.0
C1137 C 0.84735 0.18982 0.60782 0.0
C1138 C 0.89367 0.18563 0.63411 0.0
C1139 C 0.9115 0.21934 0.64029 0.0
C1140 C 0.89721 0.23825 0.62929 0.0
C1141 C 0.86539 0.22365 0.61363 0.0
C1142 C 1.0004 0.2793 0.66931 0.0
C1143 C 1.00157 0.26854 0.70291 0.0
C1144 C 0.97171 0.26267 0.64831 0.0
C1145 C 0.94376 0.23453 0.66019 0.0
C1146 C 0.94595 0.22246 0.69275 0.0
C1147 C 0.97428 0.23956 0.71409 0.0
H1148 H 0.87586 0.71624 0.57577 0.0
H1149 H 0.81328 0.61865 0.61034 0.0
H1150 H 0.83783 0.73306 0.60136 0.0
H1151 H 0.77541 0.63521 0.63662 0.0
H1152 H 0.69931 0.66709 0.65845 0.0
H1153 H 0.73539 0.65197 0.62692 0.0
H1154 H 0.82056 0.7437 0.65643 0.0
H1155 H 0.78372 0.75947 0.68729 0.0
C1156 C 0.85346 0.69822 0.58822 0.0
C1157 C 0.84682 0.66583 0.58982 0.0
C1158 C 0.83189 0.70794 0.60338 0.0
C1159 C 0.80337 0.68565 0.6213 0.0
C1160 C 0.79668 0.6531 0.62259 0.0
C1161 C 0.81824 0.64341 0.60729 0.0
C1162 C 0.72577 0.68418 0.65842 0.0
C1163 C 0.73859 0.71446 0.67592 0.0
C1164 C 0.74658 0.67533 0.64032 0.0
C1165 C 0.78114 0.69627 0.6393 0.0
C1166 C 0.79406 0.72691 0.65631 0.0
C1167 C 0.77301 0.73596 0.67426 0.0
H1168 H 0.34763 0.04285 0.64624 0.0
H1169 H 0.25406 0.03581 0.67613 0.0
H1170 H 0.36004 0.08948 0.61097 0.0
H1171 H 0.26563 0.08205 0.63932 0.0
H1172 H 0.321 0.19212 0.62334 0.0
H1173 H 0.29987 0.13778 0.64434 0.0
H1174 H 0.35476 0.11851 0.56504 0.0
H1175 H 0.37724 0.17435 0.5446 0.0
C1176 C 0.32908 0.05066 0.64426 0.0
C1177 C 0.29991 0.03568 0.66427 0.0
C1178 C 0.3362 0.07754 0.6238 0.0
C1179 C 0.31434 0.09045 0.62259 0.0
C1180 C 0.28367 0.07358 0.64022 0.0
C1181 C 0.27658 0.04658 0.6609 0.0
C1182 C 0.32854 0.17639 0.61 0.0
C1183 C 0.35119 0.188 0.58229 0.0
C1184 C 0.31594 0.14473 0.62194 0.0
C1185 C 0.32523 0.12312 0.60657 0.0
C1186 C 0.34716 0.13434 0.57801 0.0
C1187 C 0.36 0.16638 0.56605 0.0
H1188 H 0.1717 0.84709 0.72995 0.0
H1189 H 0.25885 0.86441 0.78911 0.0
H1190 H 0.14086 0.79297 0.75536 0.0
H1191 H 0.22829 0.81125 0.81475 0.0
H1192 H 0.16816 0.7033 0.84339 0.0
H1193 H 0.20085 0.7527 0.80951 0.0
H1194 H 0.11817 0.77198 0.811 0.0
H1195 H 0.08608 0.72352 0.84387 0.0
C1196 C 0.18442 0.83926 0.74791 0.0
C1197 C 0.21771 0.86036 0.75755 0.0
C1198 C 0.16671 0.8083 0.76281 0.0
C1199 C 0.18188 0.79757 0.78758 0.0
C1200 C 0.21565 0.81821 0.79573 0.0
C1201 C 0.23316 0.849 0.78107 0.0
C1202 C 0.15712 0.71818 0.83649 0.0
C1203 C 0.12442 0.70919 0.84662 0.0
C1204 C 0.17579 0.74653 0.817 0.0
C1205 C 0.16211 0.76641 0.80694 0.0
C1206 C 0.12949 0.7572 0.81727 0.0
C1207 C 0.11111 0.7293 0.83668 0.0
H1208 H 0.19773 0.43112 0.77602 0.0
H1209 H 0.19344 0.33914 0.75415 0.0
H1210 H 0.25458 0.45298 0.79902 0.0
H1211 H 0.25006 0.36083 0.77822 0.0
H1212 H 0.31762 0.39892 0.88103 0.0
H1213 H 0.2656 0.38364 0.84972 0.0
H1214 H 0.31908 0.45878 0.77564 0.0
H1215 H 0.37184 0.47315 0.8063 0.0
C1216 C 0.20926 0.41583 0.77533 0.0
C1217 C 0.19115 0.38342 0.76309 0.0
C1218 C 0.24177 0.42838 0.78851 0.0
C1219 C 0.2566 0.40857 0.79049 0.0
C1220 C 0.23914 0.37662 0.77688 0.0
C1221 C 0.20687 0.36427 0.76289 0.0
C1222 C 0.31822 0.4127 0.8585 0.0
C1223 C 0.34866 0.43801 0.84685 0.0
C1224 C 0.28851 0.40369 0.84039 0.0
C1225 C 0.28839 0.41981 0.81013 0.0
C1226 C 0.31856 0.44597 0.79894 0.0
C1227 C 0.3486 0.45456 0.81678 0.0
H1228 H 0.59964 0.79068 0.71796 0.0
H1229 H 0.67506 0.81701 0.79733 0.0
H1230 H 0.58292 0.8278 0.74336 0.0
H1231 H 0.65991 0.8562 0.82208 0.0
H1232 H 0.59434 0.88505 0.88606 0.0
H1233 H 0.61716 0.85468 0.8559 0.0
H1234 H 0.5896 0.8782 0.75736 0.0
H1235 H 0.56527 0.90717 0.78785 0.0
C1236 C 0.61354 0.80547 0.74017 0.0
C1237 C 0.63867 0.80095 0.7556 0.0
C1238 C 0.60399 0.82696 0.75485 0.0
C1239 C 0.61949 0.84485 0.78539 0.0
C1240 C 0.64666 0.84229 0.79914 0.0
C1241 C 0.656 0.82041 0.78451 0.0
C1242 C 0.59281 0.88342 0.85795 0.0
C1243 C 0.57755 0.89827 0.83946 0.0
C1244 C 0.60643 0.86636 0.8405 0.0
C1245 C 0.60575 0.86403 0.80393 0.0
C1246 C 0.59034 0.87888 0.78548 0.0
C1247 C 0.57622 0.89551 0.80299 0.0
H1248 H 0.40281 0.37259 0.47616 0.0
H1249 H 0.4893 0.36579 0.50713 0.0
H1250 H 0.43696 0.41897 0.44073 0.0
H1251 H 0.524 0.41188 0.47007 0.0
H1252 H 0.5771 0.52257 0.45453 0.0
H1253 H 0.54538 0.46762 0.47426 0.0
H1254 H 0.47098 0.44768 0.39474 0.0
H1255 H 0.50278 0.50418 0.3757 0.0
C1256 C 0.42917 0.38039 0.47435 0.0
C1257 C 0.44332 0.36552 0.49466 0.0
C1258 C 0.4489 0.40712 0.45375 0.0
C1259 C 0.48364 0.42001 0.45264 0.0
C1260 C 0.49748 0.40334 0.47075 0.0
C1261 C 0.47757 0.37646 0.49162 0.0
C1262 C 0.55413 0.50652 0.44081 0.0
C1263 C 0.54238 0.5182 0.41369 0.0
C1264 C 0.53595 0.47452 0.45202 0.0
C1265 C 0.50523 0.45264 0.43648 0.0
C1266 C 0.49422 0.46376 0.40795 0.0
C1267 C 0.51257 0.49615 0.3967 0.0
H1268 H 0.64586 0.0834 0.5794 0.0
H1269 H 0.69562 0.14495 0.49313 0.0
H1270 H 0.59179 0.06703 0.55199 0.0
H1271 H 0.64137 0.12775 0.4649 0.0
H1272 H 0.49674 0.05369 0.49584 0.0
H1273 H 0.55032 0.08579 0.52652 0.0
H1274 H 0.60082 0.06844 0.44131 0.0
H1275 H 0.54746 0.03589 0.41126 0.0
C1276 C 0.64511 0.09451 0.55521 0.0
C1277 C 0.67495 0.11623 0.53894 0.0
C1278 C 0.61412 0.08499 0.53939 0.0
C1279 C 0.6122 0.09593 0.50616 0.0
C1280 C 0.642 0.11889 0.49053 0.0
C1281 C 0.67304 0.12906 0.50684 0.0
C1282 C 0.51936 0.05721 0.48348 0.0
C1283 C 0.51785 0.04225 0.45111 0.0
C1284 C 0.55003 0.07551 0.50108 0.0
C1285 C 0.57994 0.07992 0.48625 0.0
C1286 C 0.5784 0.06597 0.45326 0.0
C1287 C 0.54777 0.0471 0.43615 0.0
H1288 H 0.96968 0.48298 0.38625 0.0
H1289 H 1.0008 0.47206 0.48837 0.0
H1290 H 0.95089 0.51971 0.41016 0.0
H1291 H 0.98117 0.50754 0.51278 0.0
H1292 H 0.95923 0.58655 0.54755 0.0
H1293 H 0.98555 0.55843 0.52017 0.0
H1294 H 0.90621 0.51682 0.44348 0.0
H1295 H 0.8804 0.54636 0.4703 0.0
C1296 C 0.97382 0.48962 0.41361 0.0
C1297 C 0.98787 0.47566 0.43526 0.0
C1298 C 0.96225 0.51001 0.42756 0.0
C1299 C 0.96401 0.51654 0.46363 0.0
C1300 C 0.97971 0.50374 0.48488 0.0
C1301 C 0.99136 0.48355 0.47088 0.0
C1302 C 0.94712 0.5713 0.52494 0.0
C1303 C 0.91736 0.56867 0.51142 0.0
C1304 C 0.96234 0.555 0.50916 0.0
C1305 C 0.94822 0.5351 0.47945 0.0
C1306 C 0.91832 0.53229 0.46592 0.0
C1307 C 0.90319 0.54896 0.48158 0.0
H1308 H 0.50449 0.55014 0.9616 0.0
H1309 H 0.53759 0.4946 0.8991 0.0
H1310 H 0.55755 0.57513 -0.00664 0.0
H1311 H 0.59122 0.52051 0.93058 0.0
H1312 H 0.69168 0.62043 0.9842 0.0
H1313 H 0.64353 0.58922 0.94509 0.0
H1314 H 0.58285 0.54115 0.03333 0.0
H1315 H 0.63067 0.57135 0.07198 0.0
C1316 C 0.52325 0.54368 0.95413 0.0
C1317 C 0.51657 0.52023 0.92777 0.0
C1318 C 0.55361 0.55791 0.97248 0.0
C1319 C 0.57844 0.54964 0.96452 0.0
C1320 C 0.57254 0.52734 0.93721 0.0
C1321 C 0.5418 0.51251 0.91927 0.0
C1322 C 0.66857 0.60187 -0.00503 0.0
C1323 C 0.66514 0.59815 0.03122 0.0
C1324 C 0.64088 0.58438 0.97265 0.0
C1325 C 0.60935 0.56321 0.98631 0.0
C1326 C 0.60675 0.55753 0.02213 0.0
C1327 C 0.63429 0.57457 0.04422 0.0
H1328 H 0.56259 0.05688 0.91563 0.0
H1329 H 0.48526 0.96159 0.94326 0.0
H1330 H 0.53081 0.08104 0.94164 0.0
H1331 H 0.4527 0.98558 0.96789 0.0
H1332 H 0.39335 0.04103 0.98203 0.0
H1333 H 0.42568 0.02415 0.94486 0.0
H1334 H 0.51183 0.0785 0.01097 0.0
H1335 H 0.47894 0.09423 0.04897 0.0
C1336 C 0.53825 0.04102 0.92623 0.0
C1337 C 0.52569 0.00719 0.92599 0.0
C1338 C 0.5202 0.05487 0.94125 0.0
C1339 C 0.48912 0.03519 0.95637 0.0
C1340 C 0.47633 1.0013 0.95582 0.0
C1341 C 0.49474 0.98751 0.9414 0.0
C1342 C 0.41958 0.05048 0.98776 0.0
C1343 C 0.43389 0.06967 0.01789 0.0
C1344 C 0.43792 0.04044 0.96677 0.0
C1345 C 0.47119 0.04986 0.97515 0.0
C1346 C 0.48629 0.07109 0.00377 0.0
C1347 C 0.46765 0.08048 0.02526 0.0
H1348 H 1.00536 0.53918 -0.008 0.0
H1349 H 0.04188 0.51817 0.89736 0.0
H1350 H 0.98686 0.4844 0.01182 0.0
H1351 H 0.02359 0.46276 0.91767 0.0
H1352 H 0.01561 0.37988 -0.00476 0.0
H1353 H 0.03375 0.43157 0.96667 0.0
H1354 H 0.94158 0.42866 -0.0052 0.0
H1355 H 0.92426 0.37756 0.02519 0.0
C1356 C 0.01014 0.52298 0.97569 0.0
C1357 C 0.02536 0.53327 0.94313 0.0
C1358 C 0.99898 0.49131 0.98687 0.0
C1359 C 1.0028 0.46867 0.96603 0.0
C1360 C 0.01995 0.4794 0.93433 0.0
C1361 C 0.03093 0.51134 0.92285 0.0
C1362 C 0.99847 0.38948 -0.00612 0.0
C1363 C 0.96805 0.37409 0.0118 0.0
C1364 C 0.00901 0.41928 0.97759 0.0
C1365 C 0.98922 0.43441 0.97822 0.0
C1366 C 0.9576 0.4178 -0.00611 0.0
C1367 C 0.94721 0.38807 0.01064 0.0
loop_
_geom_bond_atom_site_label_1
_geom_bond_atom_site_label_2
_geom_bond_distance
_geom_bond_site_symmetry_2
_ccdc_geom_bond_type
Mn0 O5 2.095 . S
Mn0 O15 2.162 . S
Mn0 O16 2.297 . S
Mn0 O24 2.385 1_455 S
Mn0 O25 2.209 1_455 S
Mn0 O26 2.094 1_455 S
Mn1 O6 2.121 1_655 S
Mn1 N8 2.257 . S
Mn1 N17 2.282 . S
Mn1 O25 2.215 . S
Mn1 O27 2.117 . S
C2 O24 1.234 . S
C2 O25 1.283 . S
C3 O15 1.281 . S
C3 O16 1.236 . S
C4 O26 1.240 . S
C4 O27 1.264 . S
O5 Mn0 2.095 . S
O5 C14 1.250 . S
O6 Mn1 2.121 1_455 S
O6 C14 1.258 . S
C7 N8 1.326 . S
C7 C11 1.460 . S
C7 H13 0.929 1_655 S
N8 Mn1 2.257 . S
N8 C7 1.326 . S
N8 C12 1.362 . S
C9 C10 1.258 . S
C9 C12 1.431 . S
C9 C29 1.449 . S
C10 C9 1.258 . S
C10 C11 1.477 . S
C10 H30 0.931 . S
C11 C7 1.460 . S
C11 C10 1.477 . S
C11 H31 0.930 1_655 S
C12 N8 1.362 . S
C12 C9 1.431 . S
C12 C22 1.476 . S
H13 C7 0.929 1_455 S
C14 O5 1.250 . S
C14 O6 1.258 . S
O15 Mn0 2.162 . S
O15 C3 1.281 . S
O16 Mn0 2.297 . S
O16 C3 1.236 . S
N17 Mn1 2.282 . S
N17 C18 1.328 . S
N17 C22 1.318 . S
C18 N17 1.328 . S
C18 C19 1.457 . S
C18 H23 0.929 . S
C19 C18 1.457 . S
C19 C20 1.291 . S
C19 H32 0.931 . S
C20 C19 1.291 . S
C20 C21 1.373 . S
C20 H33 0.929 . S
C21 C20 1.373 . S
C21 C22 1.396 . S
C21 C28 1.403 . S
C22 C12 1.476 . S
C22 N17 1.318 . S
C22 C21 1.396 . S
H23 C18 0.929 . S
O24 Mn0 2.385 1_655 S
O24 C2 1.234 . S
O25 Mn0 2.209 1_655 S
O25 Mn1 2.215 . S
O25 C2 1.283 . S
O26 Mn0 2.094 1_655 S
O26 C4 1.240 . S
O27 Mn1 2.117 . S
O27 C4 1.264 . S
C28 C21 1.403 . S
C28 C29 1.399 . S
C28 H34 0.929 . S
C29 C9 1.449 . S
C29 C28 1.399 . S
C29 H35 0.930 . S
H30 C10 0.931 . S
H31 C11 0.930 1_455 S
H32 C19 0.931 . S
H33 C20 0.929 . S
H34 C28 0.929 . S
H35 C29 0.930 . S
Mn36 O41 2.095 . S
Mn36 O51 2.162 . S
Mn36 O52 2.297 . S
Mn36 O60 2.385 . S
Mn36 O61 2.209 . S
Mn36 O62 2.094 . S
Mn37 O42 2.121 . S
Mn37 N44 2.257 . S
Mn37 N53 2.282 . S
Mn37 O61 2.215 . S
Mn37 O63 2.117 . S
C38 O60 1.234 . S
C38 O61 1.283 . S
C39 O51 1.281 . S
C39 O52 1.236 . S
C40 O62 1.240 . S
C40 O63 1.264 . S
O41 Mn36 2.095 . S
O41 C50 1.250 . S
O42 Mn37 2.121 . S
O42 C50 1.258 . S
C43 N44 1.326 . S
C43 C47 1.460 . S
C43 H49 0.929 . S
N44 Mn37 2.257 . S
N44 C43 1.326 . S
N44 C48 1.362 . S
C45 C46 1.258 . S
C45 C48 1.431 . S
C45 C65 1.449 . S
C46 C45 1.258 . S
C46 C47 1.477 . S
C46 H66 0.931 . S
C47 C43 1.460 . S
C47 C46 1.477 . S
C47 H67 0.930 . S
C48 N44 1.362 . S
C48 C45 1.431 . S
C48 C58 1.476 . S
H49 C43 0.929 . S
C50 O41 1.250 . S
C50 O42 1.258 . S
O51 Mn36 2.162 . S
O51 C39 1.281 . S
O52 Mn36 2.297 . S
O52 C39 1.236 . S
N53 Mn37 2.282 . S
N53 C54 1.328 . S
N53 C58 1.318 . S
C54 N53 1.328 . S
C54 C55 1.457 . S
C54 H59 0.929 . S
C55 C54 1.457 . S
C55 C56 1.291 . S
C55 H68 0.931 . S
C56 C55 1.291 . S
C56 C57 1.373 . S
C56 H69 0.929 . S
C57 C56 1.373 . S
C57 C58 1.396 . S
C57 C64 1.403 . S
C58 C48 1.476 . S
C58 N53 1.318 . S
C58 C57 1.396 . S
H59 C54 0.929 . S
O60 Mn36 2.385 . S
O60 C38 1.234 . S
O61 Mn36 2.209 . S
O61 Mn37 2.215 . S
O61 C38 1.283 . S
O62 Mn36 2.094 . S
O62 C40 1.240 . S
O63 Mn37 2.117 . S
O63 C40 1.264 . S
C64 C57 1.403 . S
C64 C65 1.399 . S
C64 H70 0.929 . S
C65 C45 1.449 . S
C65 C64 1.399 . S
C65 H71 0.930 . S
H66 C46 0.931 . S
H67 C47 0.930 . S
H68 C55 0.931 . S
H69 C56 0.929 . S
H70 C64 0.929 . S
H71 C65 0.930 . S
Mn72 O77 2.095 . S
Mn72 O87 2.162 . S
Mn72 O88 2.297 . S
Mn72 O96 2.385 1_545 S
Mn72 O97 2.209 1_545 S
Mn72 O98 2.094 1_545 S
Mn73 O78 2.121 1_565 S
Mn73 N80 2.257 . S
Mn73 N89 2.282 . S
Mn73 O97 2.215 . S
Mn73 O99 2.117 . S
C74 O96 1.234 . S
C74 O97 1.283 . S
C75 O87 1.281 . S
C75 O88 1.236 . S
C76 O98 1.240 . S
C76 O99 1.264 . S
O77 Mn72 2.095 . S
O77 C86 1.250 . S
O78 Mn73 2.121 1_545 S
O78 C86 1.258 . S
C79 N80 1.326 . S
C79 C83 1.460 . S
C79 H85 0.929 1_565 S
N80 Mn73 2.257 . S
N80 C79 1.326 . S
N80 C84 1.362 . S
C81 C82 1.258 . S
C81 C84 1.431 . S
C81 C101 1.449 . S
C82 C81 1.258 . S
C82 C83 1.477 . S
C82 H102 0.931 . S
C83 C79 1.460 . S
C83 C82 1.477 . S
C83 H103 0.930 . S
C84 N80 1.362 . S
C84 C81 1.431 . S
C84 C94 1.476 . S
H85 C79 0.929 1_545 S
C86 O77 1.250 . S
C86 O78 1.258 . S
O87 Mn72 2.162 . S
O87 C75 1.281 . S
O88 Mn72 2.297 . S
O88 C75 1.236 . S
N89 Mn73 2.282 . S
N89 C90 1.328 . S
N89 C94 1.318 . S
C90 N89 1.328 . S
C90 C91 1.457 . S
C90 H95 0.929 . S
C91 C90 1.457 . S
C91 C92 1.291 . S
C91 H104 0.931 . S
C92 C91 1.291 . S
C92 C93 1.373 . S
C92 H105 0.929 . S
C93 C92 1.373 . S
C93 C94 1.396 . S
C93 C100 1.403 . S
C94 C84 1.476 . S
C94 N89 1.318 . S
C94 C93 1.396 . S
H95 C90 0.929 . S
O96 Mn72 2.385 1_565 S
O96 C74 1.234 . S
O97 Mn72 2.209 1_565 S
O97 Mn73 2.215 . S
O97 C74 1.283 . S
O98 Mn72 2.094 1_565 S
O98 C76 1.240 . S
O99 Mn73 2.117 . S
O99 C76 1.264 . S
C100 C93 1.403 . S
C100 C101 1.399 . S
C100 H106 0.929 . S
C101 C81 1.449 . S
C101 C100 1.399 . S
C101 H107 0.930 . S
H102 C82 0.931 . S
H103 C83 0.930 . S
H104 C91 0.931 . S
H105 C92 0.929 . S
H106 C100 0.929 . S
H107 C101 0.930 . S
Mn108 O113 2.095 . S
Mn108 O123 2.162 . S
Mn108 O124 2.297 . S
Mn108 O132 2.385 1_455 S
Mn108 O133 2.191 1_455 S
Mn108 O134 2.094 1_455 S
Mn109 O114 2.121 1_655 S
Mn109 N116 2.257 . S
Mn109 N125 2.282 . S
Mn109 O133 2.232 . S
Mn109 O135 2.117 . S
C110 O132 1.234 . S
C110 O133 1.282 . S
C111 O123 1.281 . S
C111 O124 1.236 . S
C112 O134 1.240 . S
C112 O135 1.264 . S
O113 Mn108 2.095 . S
O113 C122 1.250 . S
O114 Mn109 2.121 1_455 S
O114 C122 1.258 . S
C115 N116 1.326 . S
C115 C119 1.460 . S
C115 H121 0.929 1_655 S
N116 Mn109 2.257 . S
N116 C115 1.326 . S
N116 C120 1.362 . S
C117 C118 1.258 . S
C117 C120 1.431 . S
C117 C137 1.449 . S
C118 C117 1.258 . S
C118 C119 1.477 . S
C118 H138 0.931 . S
C119 C115 1.460 . S
C119 C118 1.477 . S
C119 H139 0.930 . S
C120 N116 1.362 . S
C120 C117 1.431 . S
C120 C130 1.476 . S
H121 C115 0.929 1_455 S
C122 O113 1.250 . S
C122 O114 1.258 . S
O123 Mn108 2.162 . S
O123 C111 1.281 . S
O124 Mn108 2.297 . S
O124 C111 1.236 . S
N125 Mn109 2.282 . S
N125 C126 1.328 . S
N125 C130 1.318 . S
C126 N125 1.328 . S
C126 C127 1.457 . S
C126 H131 0.929 . S
C127 C126 1.457 . S
C127 C128 1.291 . S
C127 H140 0.931 . S
C128 C127 1.291 . S
C128 C129 1.373 . S
C128 H141 0.929 . S
C129 C128 1.373 . S
C129 C130 1.396 . S
C129 C136 1.403 . S
C130 C120 1.476 . S
C130 N125 1.318 . S
C130 C129 1.396 . S
H131 C126 0.929 . S
O132 Mn108 2.385 1_655 S
O132 C110 1.234 . S
O133 Mn108 2.191 1_655 S
O133 Mn109 2.232 . S
O133 C110 1.282 . S
O134 Mn108 2.094 1_655 S
O134 C112 1.240 . S
O135 Mn109 2.117 . S
O135 C112 1.264 . S
C136 C129 1.403 . S
C136 C137 1.399 . S
C136 H142 0.929 . S
C137 C117 1.449 . S
C137 C136 1.399 . S
C137 H143 0.930 . S
H138 C118 0.931 . S
H139 C119 0.930 . S
H140 C127 0.931 . S
H141 C128 0.929 . S
H142 C136 0.929 . S
H143 C137 0.930 . S
Mn144 O149 2.095 . S
Mn144 O159 2.162 . S
Mn144 O160 2.297 . S
Mn144 O168 2.385 . S
Mn144 O169 2.209 . S
Mn144 O170 2.094 . S
Mn145 O150 2.121 . S
Mn145 N152 2.257 . S
Mn145 N161 2.282 . S
Mn145 O169 2.215 . S
Mn145 O171 2.117 . S
C146 O168 1.234 . S
C146 O169 1.283 . S
C147 O159 1.281 . S
C147 O160 1.236 . S
C148 O170 1.240 . S
C148 O171 1.264 . S
O149 Mn144 2.095 . S
O149 C158 1.250 . S
O150 Mn145 2.121 . S
O150 C158 1.258 . S
C151 N152 1.326 . S
C151 C155 1.460 . S
C151 H157 0.929 . S
N152 Mn145 2.257 . S
N152 C151 1.326 . S
N152 C156 1.362 . S
C153 C154 1.258 . S
C153 C156 1.431 . S
C153 C173 1.449 . S
C154 C153 1.258 . S
C154 C155 1.477 . S
C154 H174 0.931 . S
C155 C151 1.460 . S
C155 C154 1.477 . S
C155 H175 0.930 . S
C156 N152 1.362 . S
C156 C153 1.431 . S
C156 C166 1.476 . S
H157 C151 0.929 . S
C158 O149 1.250 . S
C158 O150 1.258 . S
O159 Mn144 2.162 . S
O159 C147 1.281 . S
O160 Mn144 2.297 . S
O160 C147 1.236 . S
N161 Mn145 2.282 . S
N161 C162 1.328 . S
N161 C166 1.318 . S
C162 N161 1.328 . S
C162 C163 1.457 . S
C162 H167 0.929 . S
C163 C162 1.457 . S
C163 C164 1.291 . S
C163 H176 0.931 . S
C164 C163 1.291 . S
C164 C165 1.373 . S
C164 H177 0.929 . S
C165 C164 1.373 . S
C165 C166 1.396 . S
C165 C172 1.403 . S
C166 C156 1.476 . S
C166 N161 1.318 . S
C166 C165 1.396 . S
H167 C162 0.929 . S
O168 Mn144 2.385 . S
O168 C146 1.234 . S
O169 Mn144 2.209 . S
O169 Mn145 2.215 . S
O169 C146 1.283 . S
O170 Mn144 2.094 . S
O170 C148 1.240 . S
O171 Mn145 2.117 . S
O171 C148 1.264 . S
C172 C165 1.403 . S
C172 C173 1.399 . S
C172 H178 0.929 . S
C173 C153 1.449 . S
C173 C172 1.399 . S
C173 H179 0.930 . S
H174 C154 0.931 . S
H175 C155 0.930 . S
H176 C163 0.931 . S
H177 C164 0.929 . S
H178 C172 0.929 . S
H179 C173 0.930 . S
Mn180 O185 2.089 1_545 S
Mn180 O195 2.162 1_545 S
Mn180 O196 2.297 1_545 S
Mn180 O204 2.385 . S
Mn180 O205 2.209 . S
Mn180 O206 2.094 . S
Mn181 O186 2.121 . S
Mn181 N188 2.257 . S
Mn181 N197 2.282 . S
Mn181 O205 2.215 . S
Mn181 O207 2.117 . S
C182 O204 1.234 . S
C182 O205 1.283 . S
C183 O195 1.281 . S
C183 O196 1.236 . S
C184 O206 1.240 . S
C184 O207 1.264 . S
O185 Mn180 2.089 1_565 S
O185 C194 1.242 . S
O186 Mn181 2.121 . S
O186 C194 1.251 1_545 S
C187 N188 1.326 . S
C187 C191 1.460 . S
C187 H193 0.929 . S
N188 Mn181 2.257 . S
N188 C187 1.326 . S
N188 C192 1.362 . S
C189 C190 1.258 . S
C189 C192 1.431 . S
C189 C209 1.449 . S
C190 C189 1.258 . S
C190 C191 1.477 . S
C190 H210 0.931 . S
C191 C187 1.460 . S
C191 C190 1.477 . S
C191 H211 0.930 . S
C192 N188 1.362 . S
C192 C189 1.431 . S
C192 C202 1.476 . S
H193 C187 0.929 . S
C194 O185 1.242 . S
C194 O186 1.251 1_565 S
O195 Mn180 2.162 1_565 S
O195 C183 1.281 . S
O196 Mn180 2.297 1_565 S
O196 C183 1.236 . S
N197 Mn181 2.282 . S
N197 C198 1.328 . S
N197 C202 1.318 . S
C198 N197 1.328 . S
C198 C199 1.457 . S
C198 H203 0.929 . S
C199 C198 1.457 . S
C199 C200 1.291 . S
C199 H212 0.931 . S
C200 C199 1.291 . S
C200 C201 1.373 . S
C200 H213 0.929 . S
C201 C200 1.373 . S
C201 C202 1.396 . S
C201 C208 1.403 . S
C202 C192 1.476 . S
C202 N197 1.318 . S
C202 C201 1.396 . S
H203 C198 0.929 . S
O204 Mn180 2.385 . S
O204 C182 1.234 . S
O205 Mn180 2.209 . S
O205 Mn181 2.215 . S
O205 C182 1.283 . S
O206 Mn180 2.094 . S
O206 C184 1.240 . S
O207 Mn181 2.117 . S
O207 C184 1.264 . S
C208 C201 1.403 . S
C208 C209 1.399 . S
C208 H214 0.929 . S
C209 C189 1.449 . S
C209 C208 1.399 . S
C209 H215 0.930 . S
H210 C190 0.931 . S
H211 C191 0.930 . S
H212 C199 0.931 . S
H213 C200 0.929 . S
H214 C208 0.929 . S
H215 C209 0.930 . S
Mn216 O221 2.095 . S
Mn216 O231 2.162 . S
Mn216 O232 2.297 . S
Mn216 O240 2.385 . S
Mn216 O241 2.209 . S
Mn216 O242 2.094 . S
Mn217 O222 2.121 . S
Mn217 N224 2.257 . S
Mn217 N233 2.282 . S
Mn217 O241 2.215 . S
Mn217 O243 2.117 . S
C218 O240 1.234 . S
C218 O241 1.283 . S
C219 O231 1.281 . S
C219 O232 1.236 . S
C220 O242 1.240 . S
C220 O243 1.264 . S
O221 Mn216 2.095 . S
O221 C230 1.250 . S
O222 Mn217 2.121 . S
O222 C230 1.258 . S
C223 N224 1.326 . S
C223 C227 1.460 . S
C223 H229 0.929 . S
N224 Mn217 2.257 . S
N224 C223 1.326 . S
N224 C228 1.362 . S
C225 C226 1.258 . S
C225 C228 1.431 . S
C225 C245 1.449 . S
C226 C225 1.258 . S
C226 C227 1.477 . S
C226 H246 0.931 . S
C227 C223 1.460 . S
C227 C226 1.477 . S
C227 H247 0.930 . S
C228 N224 1.362 . S
C228 C225 1.431 . S
C228 C238 1.476 . S
H229 C223 0.929 . S
C230 O221 1.250 . S
C230 O222 1.258 . S
O231 Mn216 2.162 . S
O231 C219 1.281 . S
O232 Mn216 2.297 . S
O232 C219 1.236 . S
N233 Mn217 2.282 . S
N233 C234 1.328 . S
N233 C238 1.318 . S
C234 N233 1.328 . S
C234 C235 1.457 . S
C234 H239 0.929 . S
C235 C234 1.457 . S
C235 C236 1.291 . S
C235 H248 0.931 . S
C236 C235 1.291 . S
C236 C237 1.373 . S
C236 H249 0.929 . S
C237 C236 1.373 . S
C237 C238 1.396 . S
C237 C244 1.403 . S
C238 C228 1.476 . S
C238 N233 1.318 . S
C238 C237 1.396 . S
H239 C234 0.929 . S
O240 Mn216 2.385 . S
O240 C218 1.234 . S
O241 Mn216 2.209 . S
O241 Mn217 2.215 . S
O241 C218 1.283 . S
O242 Mn216 2.094 . S
O242 C220 1.240 . S
O243 Mn217 2.117 . S
O243 C220 1.264 . S
C244 C237 1.403 . S
C244 C245 1.399 . S
C244 H250 0.929 . S
C245 C225 1.449 . S
C245 C244 1.399 . S
C245 H251 0.930 . S
H246 C226 0.931 . S
H247 C227 0.930 . S
H248 C235 0.931 . S
H249 C236 0.929 . S
H250 C244 0.929 . S
H251 C245 0.930 . S
Mn252 O257 2.095 . S
Mn252 O267 2.162 . S
Mn252 O268 2.297 . S
Mn252 O276 2.385 . S
Mn252 O277 2.209 . S
Mn252 O278 2.094 . S
Mn253 O258 2.121 . S
Mn253 N260 2.257 . S
Mn253 N269 2.282 . S
Mn253 O277 2.215 . S
Mn253 O279 2.117 . S
C254 O276 1.234 . S
C254 O277 1.283 . S
C255 O267 1.281 . S
C255 O268 1.236 . S
C256 O278 1.240 . S
C256 O279 1.264 . S
O257 Mn252 2.095 . S
O257 C266 1.250 . S
O258 Mn253 2.121 . S
O258 C266 1.258 . S
C259 N260 1.326 . S
C259 C263 1.460 . S
C259 H265 0.929 . S
N260 Mn253 2.257 . S
N260 C259 1.326 . S
N260 C264 1.362 . S
C261 C262 1.258 . S
C261 C264 1.431 . S
C261 C281 1.449 . S
C262 C261 1.258 . S
C262 C263 1.477 . S
C262 H282 0.931 . S
C263 C259 1.460 . S
C263 C262 1.477 . S
C263 H283 0.930 . S
C264 N260 1.362 . S
C264 C261 1.431 . S
C264 C274 1.476 . S
H265 C259 0.929 . S
C266 O257 1.250 . S
C266 O258 1.258 . S
O267 Mn252 2.162 . S
O267 C255 1.281 . S
O268 Mn252 2.297 . S
O268 C255 1.236 . S
N269 Mn253 2.282 . S
N269 C270 1.328 . S
N269 C274 1.318 . S
C270 N269 1.328 . S
C270 C271 1.457 . S
C270 H275 0.929 . S
C271 C270 1.457 . S
C271 C272 1.291 . S
C271 H284 0.931 . S
C272 C271 1.291 . S
C272 C273 1.373 . S
C272 H285 0.929 . S
C273 C272 1.373 . S
C273 C274 1.396 . S
C273 C280 1.403 . S
C274 C264 1.476 . S
C274 N269 1.318 . S
C274 C273 1.396 . S
H275 C270 0.929 . S
O276 Mn252 2.385 . S
O276 C254 1.234 . S
O277 Mn252 2.209 . S
O277 Mn253 2.215 . S
O277 C254 1.283 . S
O278 Mn252 2.094 . S
O278 C256 1.240 . S
O279 Mn253 2.117 . S
O279 C256 1.264 . S
C280 C273 1.403 . S
C280 C281 1.399 . S
C280 H286 0.929 . S
C281 C261 1.449 . S
C281 C280 1.399 . S
C281 H287 0.930 . S
H282 C262 0.931 . S
H283 C263 0.930 . S
H284 C271 0.931 . S
H285 C272 0.929 . S
H286 C280 0.929 . S
H287 C281 0.930 . S
Mn288 O293 2.095 . S
Mn288 O303 2.162 . S
Mn288 O304 2.297 . S
Mn288 O312 2.385 . S
Mn288 O313 2.209 . S
Mn288 O314 2.094 . S
Mn289 O294 2.121 . S
Mn289 N296 2.257 . S
Mn289 N305 2.282 . S
Mn289 O313 2.215 . S
Mn289 O315 2.117 . S
C290 O312 1.234 . S
C290 O313 1.283 . S
C291 O303 1.281 . S
C291 O304 1.236 . S
C292 O314 1.240 . S
C292 O315 1.264 . S
O293 Mn288 2.095 . S
O293 C302 1.250 . S
O294 Mn289 2.121 . S
O294 C302 1.258 . S
C295 N296 1.326 . S
C295 C299 1.460 . S
C295 H301 0.929 . S
N296 Mn289 2.257 . S
N296 C295 1.326 . S
N296 C300 1.362 . S
C297 C298 1.258 . S
C297 C300 1.431 . S
C297 C317 1.449 . S
C298 C297 1.258 . S
C298 C299 1.477 . S
C298 H318 0.931 . S
C299 C295 1.460 . S
C299 C298 1.477 . S
C299 H319 0.930 . S
C300 N296 1.362 . S
C300 C297 1.431 . S
C300 C310 1.476 . S
H301 C295 0.929 . S
C302 O293 1.250 . S
C302 O294 1.258 . S
O303 Mn288 2.162 . S
O303 C291 1.281 . S
O304 Mn288 2.297 . S
O304 C291 1.236 . S
N305 Mn289 2.282 . S
N305 C306 1.328 . S
N305 C310 1.318 . S
C306 N305 1.328 . S
C306 C307 1.457 . S
C306 H311 0.929 . S
C307 C306 1.457 . S
C307 C308 1.291 . S
C307 H320 0.931 . S
C308 C307 1.291 . S
C308 C309 1.373 . S
C308 H321 0.929 . S
C309 C308 1.373 . S
C309 C310 1.396 . S
C309 C316 1.403 . S
C310 C300 1.476 . S
C310 N305 1.318 . S
C310 C309 1.396 . S
H311 C306 0.929 . S
O312 Mn288 2.385 . S
O312 C290 1.234 . S
O313 Mn288 2.209 . S
O313 Mn289 2.215 . S
O313 C290 1.283 . S
O314 Mn288 2.094 . S
O314 C292 1.240 . S
O315 Mn289 2.117 . S
O315 C292 1.264 . S
C316 C309 1.403 . S
C316 C317 1.399 . S
C316 H322 0.929 . S
C317 C297 1.449 . S
C317 C316 1.399 . S
C317 H323 0.930 . S
H318 C298 0.931 . S
H319 C299 0.930 . S
H320 C307 0.931 . S
H321 C308 0.929 . S
H322 C316 0.929 . S
H323 C317 0.930 . S
Mn324 O329 2.095 . S
Mn324 O339 2.162 . S
Mn324 O340 2.297 . S
Mn324 O348 2.385 . S
Mn324 O349 2.209 . S
Mn324 O350 2.094 . S
Mn325 O330 2.121 . S
Mn325 N332 2.257 . S
Mn325 N341 2.282 . S
Mn325 O349 2.215 . S
Mn325 O351 2.117 . S
C326 O348 1.234 . S
C326 O349 1.283 . S
C327 O339 1.281 . S
C327 O340 1.236 . S
C328 O350 1.240 . S
C328 O351 1.264 . S
O329 Mn324 2.095 . S
O329 C338 1.250 . S
O330 Mn325 2.121 . S
O330 C338 1.258 . S
C331 N332 1.326 . S
C331 C335 1.460 . S
C331 H337 0.929 . S
N332 Mn325 2.257 . S
N332 C331 1.326 . S
N332 C336 1.362 . S
C333 C334 1.258 . S
C333 C336 1.431 . S
C333 C353 1.449 . S
C334 C333 1.258 . S
C334 C335 1.477 . S
C334 H354 0.931 . S
C335 C331 1.460 . S
C335 C334 1.477 . S
C335 H355 0.930 . S
C336 N332 1.362 . S
C336 C333 1.431 . S
C336 C346 1.476 . S
H337 C331 0.929 . S
C338 O329 1.250 . S
C338 O330 1.258 . S
O339 Mn324 2.162 . S
O339 C327 1.281 . S
O340 Mn324 2.297 . S
O340 C327 1.236 . S
N341 Mn325 2.282 . S
N341 C342 1.328 . S
N341 C346 1.318 . S
C342 N341 1.328 . S
C342 C343 1.457 . S
C342 H347 0.929 . S
C343 C342 1.457 . S
C343 C344 1.291 . S
C343 H356 0.931 . S
C344 C343 1.291 . S
C344 C345 1.373 . S
C344 H357 0.929 . S
C345 C344 1.373 . S
C345 C346 1.396 . S
C345 C352 1.403 . S
C346 C336 1.476 . S
C346 N341 1.318 . S
C346 C345 1.396 . S
H347 C342 0.929 . S
O348 Mn324 2.385 . S
O348 C326 1.234 . S
O349 Mn324 2.209 . S
O349 Mn325 2.215 . S
O349 C326 1.283 . S
O350 Mn324 2.094 . S
O350 C328 1.240 . S
O351 Mn325 2.117 . S
O351 C328 1.264 . S
C352 C345 1.403 . S
C352 C353 1.399 . S
C352 H358 0.929 . S
C353 C333 1.449 . S
C353 C352 1.399 . S
C353 H359 0.930 . S
H354 C334 0.931 . S
H355 C335 0.930 . S
H356 C343 0.931 . S
H357 C344 0.929 . S
H358 C352 0.929 . S
H359 C353 0.930 . S
Mn360 O365 2.095 . S
Mn360 O375 2.162 . S
Mn360 O376 2.297 . S
Mn360 O384 2.385 . S
Mn360 O385 2.209 . S
Mn360 O386 2.094 . S
Mn361 O366 2.121 . S
Mn361 N368 2.257 1_545 S
Mn361 N377 2.291 . S
Mn361 O385 2.215 . S
Mn361 O387 2.117 . S
C362 O384 1.234 . S
C362 O385 1.283 . S
C363 O375 1.281 . S
C363 O376 1.236 . S
C364 O386 1.240 . S
C364 O387 1.264 . S
O365 Mn360 2.095 . S
O365 C374 1.250 . S
O366 Mn361 2.121 . S
O366 C374 1.258 . S
C367 N368 1.326 . S
C367 C371 1.460 . S
C367 H373 0.929 . S
N368 Mn361 2.257 1_565 S
N368 C367 1.326 . S
N368 C372 1.362 . S
C369 C370 1.258 . S
C369 C372 1.431 . S
C369 C389 1.449 . S
C370 C369 1.258 . S
C370 C371 1.477 . S
C370 H390 0.931 . S
C371 C367 1.460 . S
C371 C370 1.477 . S
C371 H391 0.930 . S
C372 N368 1.362 . S
C372 C369 1.431 . S
C372 C382 1.476 . S
H373 C367 0.929 . S
C374 O365 1.250 . S
C374 O366 1.258 . S
O375 Mn360 2.162 . S
O375 C363 1.281 . S
O376 Mn360 2.297 . S
O376 C363 1.236 . S
N377 Mn361 2.291 . S
N377 C378 1.326 . S
N377 C382 1.310 1_545 S
C378 N377 1.326 . S
C378 C379 1.457 1_545 S
C378 H383 0.929 . S
C379 C378 1.457 1_565 S
C379 C380 1.291 . S
C379 H392 0.931 1_565 S
C380 C379 1.291 . S
C380 C381 1.373 . S
C380 H393 0.929 . S
C381 C380 1.373 . S
C381 C382 1.396 . S
C381 C388 1.403 . S
C382 C372 1.476 . S
C382 N377 1.310 1_565 S
C382 C381 1.396 . S
H383 C378 0.929 . S
O384 Mn360 2.385 . S
O384 C362 1.234 . S
O385 Mn360 2.209 . S
O385 Mn361 2.215 . S
O385 C362 1.283 . S
O386 Mn360 2.094 . S
O386 C364 1.240 . S
O387 Mn361 2.117 . S
O387 C364 1.264 . S
C388 C381 1.403 . S
C388 C389 1.399 . S
C388 H394 0.929 . S
C389 C369 1.449 . S
C389 C388 1.399 . S
C389 H395 0.930 . S
H390 C370 0.931 . S
H391 C371 0.930 . S
H392 C379 0.931 1_545 S
H393 C380 0.929 . S
H394 C388 0.929 . S
H395 C389 0.930 . S
Mn396 O401 2.095 . S
Mn396 O411 2.162 . S
Mn396 O412 2.297 . S
Mn396 O420 2.385 . S
Mn396 O421 2.209 . S
Mn396 O422 2.094 . S
Mn397 O402 2.121 . S
Mn397 N404 2.257 1_655 S
Mn397 N413 2.282 1_655 S
Mn397 O421 2.215 . S
Mn397 O423 2.117 . S
C398 O420 1.234 . S
C398 O421 1.283 . S
C399 O411 1.281 . S
C399 O412 1.236 . S
C400 O422 1.240 . S
C400 O423 1.264 . S
O401 Mn396 2.095 . S
O401 C410 1.250 . S
O402 Mn397 2.121 . S
O402 C410 1.258 . S
C403 N404 1.326 . S
C403 C407 1.460 . S
C403 H409 0.929 . S
N404 Mn397 2.257 1_455 S
N404 C403 1.326 . S
N404 C408 1.362 . S
C405 C406 1.258 . S
C405 C408 1.431 . S
C405 C425 1.449 . S
C406 C405 1.258 . S
C406 C407 1.477 . S
C406 H426 0.931 . S
C407 C403 1.460 . S
C407 C406 1.477 . S
C407 H427 0.930 . S
C408 N404 1.362 . S
C408 C405 1.431 . S
C408 C418 1.476 . S
H409 C403 0.929 . S
C410 O401 1.250 . S
C410 O402 1.258 . S
O411 Mn396 2.162 . S
O411 C399 1.281 . S
O412 Mn396 2.297 . S
O412 C399 1.236 . S
N413 Mn397 2.282 1_455 S
N413 C414 1.328 . S
N413 C418 1.318 . S
C414 N413 1.328 . S
C414 C415 1.457 . S
C414 H419 0.929 1_455 S
C415 C414 1.457 . S
C415 C416 1.291 . S
C415 H428 0.931 . S
C416 C415 1.291 . S
C416 C417 1.373 . S
C416 H429 0.929 . S
C417 C416 1.373 . S
C417 C418 1.396 . S
C417 C424 1.403 . S
C418 C408 1.476 . S
C418 N413 1.318 . S
C418 C417 1.396 . S
H419 C414 0.929 1_655 S
O420 Mn396 2.385 . S
O420 C398 1.234 . S
O421 Mn396 2.209 . S
O421 Mn397 2.215 . S
O421 C398 1.283 . S
O422 Mn396 2.094 . S
O422 C400 1.240 . S
O423 Mn397 2.117 . S
O423 C400 1.264 . S
C424 C417 1.403 . S
C424 C425 1.399 . S
C424 H430 0.929 . S
C425 C405 1.449 . S
C425 C424 1.399 . S
C425 H431 0.930 . S
H426 C406 0.931 . S
H427 C407 0.930 . S
H428 C415 0.931 . S
H429 C416 0.929 . S
H430 C424 0.929 . S
H431 C425 0.930 . S
Mn432 O437 2.095 . S
Mn432 O447 2.162 . S
Mn432 O448 2.297 . S
Mn432 O456 2.385 . S
Mn432 O457 2.209 . S
Mn432 O458 2.094 . S
Mn433 O438 2.121 . S
Mn433 N440 2.257 . S
Mn433 N449 2.282 . S
Mn433 O457 2.215 . S
Mn433 O459 2.117 . S
C434 O456 1.234 . S
C434 O457 1.283 . S
C435 O447 1.281 . S
C435 O448 1.236 . S
C436 O458 1.240 . S
C436 O459 1.264 . S
O437 Mn432 2.095 . S
O437 C446 1.250 . S
O438 Mn433 2.121 . S
O438 C446 1.258 . S
C439 N440 1.326 . S
C439 C443 1.460 . S
C439 H445 0.929 . S
N440 Mn433 2.257 . S
N440 C439 1.326 . S
N440 C444 1.362 . S
C441 C442 1.258 . S
C441 C444 1.431 . S
C441 C461 1.449 . S
C442 C441 1.258 . S
C442 C443 1.477 . S
C442 H462 0.931 . S
C443 C439 1.460 . S
C443 C442 1.477 . S
C443 H463 0.930 . S
C444 N440 1.362 . S
C444 C441 1.431 . S
C444 C454 1.476 . S
H445 C439 0.929 . S
C446 O437 1.250 . S
C446 O438 1.258 . S
O447 Mn432 2.162 . S
O447 C435 1.281 . S
O448 Mn432 2.297 . S
O448 C435 1.236 . S
N449 Mn433 2.282 . S
N449 C450 1.328 . S
N449 C454 1.318 . S
C450 N449 1.328 . S
C450 C451 1.457 . S
C450 H455 0.929 . S
C451 C450 1.457 . S
C451 C452 1.291 . S
C451 H464 0.931 . S
C452 C451 1.291 . S
C452 C453 1.373 . S
C452 H465 0.929 . S
C453 C452 1.373 . S
C453 C454 1.396 . S
C453 C460 1.403 . S
C454 C444 1.476 . S
C454 N449 1.318 . S
C454 C453 1.396 . S
H455 C450 0.929 . S
O456 Mn432 2.385 . S
O456 C434 1.234 . S
O457 Mn432 2.209 . S
O457 Mn433 2.215 . S
O457 C434 1.283 . S
O458 Mn432 2.094 . S
O458 C436 1.240 . S
O459 Mn433 2.117 . S
O459 C436 1.264 . S
C460 C453 1.403 . S
C460 C461 1.399 . S
C460 H466 0.929 . S
C461 C441 1.449 . S
C461 C460 1.399 . S
C461 H467 0.930 . S
H462 C442 0.931 . S
H463 C443 0.930 . S
H464 C451 0.931 . S
H465 C452 0.929 . S
H466 C460 0.929 . S
H467 C461 0.930 . S
Mn468 O473 2.095 . S
Mn468 O483 2.162 . S
Mn468 O484 2.297 . S
Mn468 O492 2.385 . S
Mn468 O493 2.209 . S
Mn468 O494 2.094 . S
Mn469 O474 2.121 . S
Mn469 N476 2.257 . S
Mn469 N485 2.282 . S
Mn469 O493 2.215 . S
Mn469 O495 2.117 . S
C470 O492 1.234 . S
C470 O493 1.283 . S
C471 O483 1.281 . S
C471 O484 1.236 . S
C472 O494 1.240 . S
C472 O495 1.264 . S
O473 Mn468 2.095 . S
O473 C482 1.250 . S
O474 Mn469 2.121 . S
O474 C482 1.258 . S
C475 N476 1.326 . S
C475 C479 1.460 . S
C475 H481 0.929 . S
N476 Mn469 2.257 . S
N476 C475 1.326 . S
N476 C480 1.362 . S
C477 C478 1.258 . S
C477 C480 1.431 . S
C477 C497 1.449 . S
C478 C477 1.258 . S
C478 C479 1.477 . S
C478 H498 0.931 . S
C479 C475 1.460 . S
C479 C478 1.477 . S
C479 H499 0.930 . S
C480 N476 1.362 . S
C480 C477 1.431 . S
C480 C490 1.476 . S
H481 C475 0.929 . S
C482 O473 1.250 . S
C482 O474 1.258 . S
O483 Mn468 2.162 . S
O483 C471 1.281 . S
O484 Mn468 2.297 . S
O484 C471 1.236 . S
N485 Mn469 2.282 . S
N485 C486 1.328 . S
N485 C490 1.318 . S
C486 N485 1.328 . S
C486 C487 1.457 . S
C486 H491 0.929 . S
C487 C486 1.457 . S
C487 C488 1.291 . S
C487 H500 0.931 . S
C488 C487 1.291 . S
C488 C489 1.373 . S
C488 H501 0.929 . S
C489 C488 1.373 . S
C489 C490 1.396 . S
C489 C496 1.403 . S
C490 C480 1.476 . S
C490 N485 1.318 . S
C490 C489 1.396 . S
H491 C486 0.929 . S
O492 Mn468 2.385 . S
O492 C470 1.234 . S
O493 Mn468 2.209 . S
O493 Mn469 2.215 . S
O493 C470 1.283 . S
O494 Mn468 2.094 . S
O494 C472 1.240 . S
O495 Mn469 2.117 . S
O495 C472 1.264 . S
C496 C489 1.403 . S
C496 C497 1.399 . S
C496 H502 0.929 . S
C497 C477 1.449 . S
C497 C496 1.399 . S
C497 H503 0.930 . S
H498 C478 0.931 . S
H499 C479 0.930 . S
H500 C487 0.931 . S
H501 C488 0.929 . S
H502 C496 0.929 . S
H503 C497 0.930 . S
Mn504 O509 2.095 . S
Mn504 O519 2.162 . S
Mn504 O520 2.297 . S
Mn504 O528 2.385 . S
Mn504 O529 2.209 . S
Mn504 O530 2.094 . S
Mn505 O510 2.121 . S
Mn505 N512 2.257 1_455 S
Mn505 N521 2.282 . S
Mn505 O529 2.215 . S
Mn505 O531 2.117 . S
C506 O528 1.234 . S
C506 O529 1.283 . S
C507 O519 1.281 . S
C507 O520 1.236 . S
C508 O530 1.240 . S
C508 O531 1.264 . S
O509 Mn504 2.095 . S
O509 C518 1.250 . S
O510 Mn505 2.121 . S
O510 C518 1.258 . S
C511 N512 1.326 . S
C511 C515 1.460 . S
C511 H517 0.929 . S
N512 Mn505 2.257 1_655 S
N512 C511 1.326 . S
N512 C516 1.362 . S
C513 C514 1.258 . S
C513 C516 1.431 . S
C513 C533 1.449 . S
C514 C513 1.258 . S
C514 C515 1.477 . S
C514 H534 0.931 . S
C515 C511 1.460 . S
C515 C514 1.477 . S
C515 H535 0.930 . S
C516 N512 1.362 . S
C516 C513 1.431 . S
C516 C526 1.476 . S
H517 C511 0.929 . S
C518 O509 1.250 . S
C518 O510 1.258 . S
O519 Mn504 2.162 . S
O519 C507 1.281 . S
O520 Mn504 2.297 . S
O520 C507 1.236 . S
N521 Mn505 2.282 . S
N521 C522 1.328 . S
N521 C526 1.318 1_455 S
C522 N521 1.328 . S
C522 C523 1.452 1_455 S
C522 H527 0.929 . S
C523 C522 1.452 1_655 S
C523 C524 1.314 . S
C523 H536 0.913 1_655 S
C524 C523 1.314 . S
C524 C525 1.373 . S
C524 H537 0.929 . S
C525 C524 1.373 . S
C525 C526 1.396 . S
C525 C532 1.403 . S
C526 C516 1.476 . S
C526 N521 1.318 1_655 S
C526 C525 1.396 . S
H527 C522 0.929 . S
O528 Mn504 2.385 . S
O528 C506 1.234 . S
O529 Mn504 2.209 . S
O529 Mn505 2.215 . S
O529 C506 1.283 . S
O530 Mn504 2.094 . S
O530 C508 1.240 . S
O531 Mn505 2.117 . S
O531 C508 1.264 . S
C532 C525 1.403 . S
C532 C533 1.399 . S
C532 H538 0.929 . S
C533 C513 1.449 . S
C533 C532 1.399 . S
C533 H539 0.930 . S
H534 C514 0.931 . S
H535 C515 0.930 . S
H536 C523 0.913 1_455 S
H537 C524 0.929 . S
H538 C532 0.929 . S
H539 C533 0.930 . S
Mn540 O545 2.095 . S
Mn540 O555 2.162 . S
Mn540 O556 2.297 . S
Mn540 O564 2.385 . S
Mn540 O565 2.209 . S
Mn540 O566 2.094 . S
Mn541 O546 2.121 . S
Mn541 N548 2.257 . S
Mn541 N557 2.282 . S
Mn541 O565 2.215 . S
Mn541 O567 2.117 . S
C542 O564 1.234 . S
C542 O565 1.283 . S
C543 O555 1.281 . S
C543 O556 1.236 . S
C544 O566 1.240 . S
C544 O567 1.264 . S
O545 Mn540 2.095 . S
O545 C554 1.250 . S
O546 Mn541 2.121 . S
O546 C554 1.258 . S
C547 N548 1.326 1_545 S
C547 C551 1.460 . S
C547 H553 0.929 . S
N548 Mn541 2.257 . S
N548 C547 1.326 1_565 S
N548 C552 1.362 . S
C549 C550 1.258 . S
C549 C552 1.431 1_545 S
C549 C569 1.449 . S
C550 C549 1.258 . S
C550 C551 1.477 . S
C550 H570 0.931 . S
C551 C547 1.460 . S
C551 C550 1.477 . S
C551 H571 0.930 . S
C552 N548 1.362 . S
C552 C549 1.431 1_565 S
C552 C562 1.476 . S
H553 C547 0.929 . S
C554 O545 1.250 . S
C554 O546 1.258 . S
O555 Mn540 2.162 . S
O555 C543 1.281 . S
O556 Mn540 2.297 . S
O556 C543 1.236 . S
N557 Mn541 2.282 . S
N557 C558 1.328 . S
N557 C562 1.318 . S
C558 N557 1.328 . S
C558 C559 1.457 . S
C558 H563 0.929 . S
C559 C558 1.457 . S
C559 C560 1.291 . S
C559 H572 0.931 . S
C560 C559 1.291 . S
C560 C561 1.373 . S
C560 H573 0.929 . S
C561 C560 1.373 . S
C561 C562 1.396 . S
C561 C568 1.403 . S
C562 C552 1.476 . S
C562 N557 1.318 . S
C562 C561 1.396 . S
H563 C558 0.929 . S
O564 Mn540 2.385 . S
O564 C542 1.234 . S
O565 Mn540 2.209 . S
O565 Mn541 2.215 . S
O565 C542 1.283 . S
O566 Mn540 2.094 . S
O566 C544 1.240 . S
O567 Mn541 2.117 . S
O567 C544 1.264 . S
C568 C561 1.403 . S
C568 C569 1.399 1_565 S
C568 H574 0.929 . S
C569 C549 1.449 . S
C569 C568 1.399 1_545 S
C569 H575 0.930 . S
H570 C550 0.931 . S
H571 C551 0.930 . S
H572 C559 0.931 . S
H573 C560 0.929 . S
H574 C568 0.929 . S
H575 C569 0.930 . S
Mn576 O581 2.095 . S
Mn576 O591 2.162 . S
Mn576 O592 2.297 . S
Mn576 O600 2.385 . S
Mn576 O601 2.209 . S
Mn576 O602 2.094 . S
Mn577 O582 2.121 . S
Mn577 N584 2.257 1_455 S
Mn577 N593 2.279 1_455 S
Mn577 O601 2.215 . S
Mn577 O603 2.117 . S
C578 O600 1.234 . S
C578 O601 1.283 . S
C579 O591 1.281 . S
C579 O592 1.236 . S
C580 O602 1.240 . S
C580 O603 1.264 . S
O581 Mn576 2.095 . S
O581 C590 1.250 . S
O582 Mn577 2.121 . S
O582 C590 1.258 . S
C583 N584 1.326 . S
C583 C587 1.460 . S
C583 H589 0.929 . S
N584 Mn577 2.257 1_655 S
N584 C583 1.326 . S
N584 C588 1.362 . S
C585 C586 1.258 . S
C585 C588 1.431 . S
C585 C605 1.449 . S
C586 C585 1.258 . S
C586 C587 1.477 . S
C586 H606 0.931 . S
C587 C583 1.460 . S
C587 C586 1.477 . S
C587 H607 0.930 . S
C588 N584 1.362 . S
C588 C585 1.431 . S
C588 C598 1.476 . S
H589 C583 0.929 . S
C590 O581 1.250 . S
C590 O582 1.258 . S
O591 Mn576 2.162 . S
O591 C579 1.281 . S
O592 Mn576 2.297 . S
O592 C579 1.236 . S
N593 Mn577 2.279 1_655 S
N593 C594 1.328 1_655 S
N593 C598 1.320 . S
C594 N593 1.328 1_455 S
C594 C595 1.457 1_455 S
C594 H599 0.929 . S
C595 C594 1.457 1_655 S
C595 C596 1.291 . S
C595 H608 0.934 1_655 S
C596 C595 1.291 . S
C596 C597 1.373 . S
C596 H609 0.929 . S
C597 C596 1.373 . S
C597 C598 1.396 . S
C597 C604 1.403 . S
C598 C588 1.476 . S
C598 N593 1.320 . S
C598 C597 1.396 . S
H599 C594 0.929 . S
O600 Mn576 2.385 . S
O600 C578 1.234 . S
O601 Mn576 2.209 . S
O601 Mn577 2.215 . S
O601 C578 1.283 . S
O602 Mn576 2.094 . S
O602 C580 1.240 . S
O603 Mn577 2.117 . S
O603 C580 1.264 . S
C604 C597 1.403 . S
C604 C605 1.399 . S
C604 H610 0.929 . S
C605 C585 1.449 . S
C605 C604 1.399 . S
C605 H611 0.930 . S
H606 C586 0.931 . S
H607 C587 0.930 . S
H608 C595 0.934 1_455 S
H609 C596 0.929 . S
H610 C604 0.929 . S
H611 C605 0.930 . S
Mn612 O617 2.095 . S
Mn612 O627 2.162 . S
Mn612 O628 2.297 . S
Mn612 O636 2.385 . S
Mn612 O637 2.209 . S
Mn612 O638 2.094 . S
Mn613 O618 2.121 . S
Mn613 N620 2.257 . S
Mn613 N629 2.282 . S
Mn613 O637 2.215 . S
Mn613 O639 2.117 . S
C614 O636 1.234 . S
C614 O637 1.283 . S
C615 O627 1.281 . S
C615 O628 1.236 . S
C616 O638 1.240 . S
C616 O639 1.264 . S
O617 Mn612 2.095 . S
O617 C626 1.250 . S
O618 Mn613 2.121 . S
O618 C626 1.258 . S
C619 N620 1.326 . S
C619 C623 1.460 . S
C619 H625 0.929 . S
N620 Mn613 2.257 . S
N620 C619 1.326 . S
N620 C624 1.362 . S
C621 C622 1.258 . S
C621 C624 1.431 . S
C621 C641 1.449 . S
C622 C621 1.258 . S
C622 C623 1.477 . S
C622 H642 0.931 . S
C623 C619 1.460 . S
C623 C622 1.477 . S
C623 H643 0.930 . S
C624 N620 1.362 . S
C624 C621 1.431 . S
C624 C634 1.476 . S
H625 C619 0.929 . S
C626 O617 1.250 . S
C626 O618 1.258 . S
O627 Mn612 2.162 . S
O627 C615 1.281 . S
O628 Mn612 2.297 . S
O628 C615 1.236 . S
N629 Mn613 2.282 . S
N629 C630 1.328 . S
N629 C634 1.318 . S
C630 N629 1.328 . S
C630 C631 1.457 . S
C630 H635 0.929 . S
C631 C630 1.457 . S
C631 C632 1.291 . S
C631 H644 0.931 . S
C632 C631 1.291 . S
C632 C633 1.373 . S
C632 H645 0.929 . S
C633 C632 1.373 . S
C633 C634 1.396 . S
C633 C640 1.403 . S
C634 C624 1.476 . S
C634 N629 1.318 . S
C634 C633 1.396 . S
H635 C630 0.929 . S
O636 Mn612 2.385 . S
O636 C614 1.234 . S
O637 Mn612 2.209 . S
O637 Mn613 2.215 . S
O637 C614 1.283 . S
O638 Mn612 2.094 . S
O638 C616 1.240 . S
O639 Mn613 2.117 . S
O639 C616 1.264 . S
C640 C633 1.403 . S
C640 C641 1.399 . S
C640 H646 0.929 . S
C641 C621 1.449 . S
C641 C640 1.399 . S
C641 H647 0.930 . S
H642 C622 0.931 . S
H643 C623 0.930 . S
H644 C631 0.931 . S
H645 C632 0.929 . S
H646 C640 0.929 . S
H647 C641 0.930 . S
H648 C656 0.950 . S
H649 C661 0.950 1_655 S
H650 C658 0.950 . S
H651 C660 0.950 . S
H652 C662 0.950 1_556 S
H653 C664 0.950 . S
H654 C666 0.950 . S
H655 C667 0.950 . S
C656 H648 0.950 . S
C656 C657 1.386 . S
C656 C658 1.391 . S
C657 C656 1.386 . S
C657 C661 1.393 . S
C658 H650 0.950 . S
C658 C656 1.391 . S
C658 C659 1.400 . S
C659 C658 1.400 . S
C659 C660 1.398 . S
C659 C665 1.491 . S
C660 H651 0.950 . S
C660 C659 1.398 . S
C660 C661 1.391 . S
C661 H649 0.950 1_455 S
C661 C657 1.393 . S
C661 C660 1.391 . S
C662 H652 0.950 1_554 S
C662 C663 1.386 1_554 S
C662 C664 1.391 . S
C663 C662 1.386 1_556 S
C663 C667 1.393 1_556 S
C664 H653 0.950 . S
C664 C662 1.391 . S
C664 C665 1.400 . S
C665 C659 1.491 . S
C665 C664 1.400 . S
C665 C666 1.398 . S
C666 H654 0.950 . S
C666 C665 1.398 . S
C666 C667 1.391 . S
C667 H655 0.950 . S
C667 C663 1.393 1_554 S
C667 C666 1.391 . S
H668 C676 0.950 . S
H669 C681 0.950 1_556 S
H670 C678 0.950 . S
H671 C680 0.950 . S
H672 C682 0.950 . S
H673 C684 0.950 . S
H674 C686 0.950 . S
H675 C687 0.950 . S
C676 H668 0.950 . S
C676 C677 1.386 . S
C676 C678 1.391 . S
C677 C676 1.386 . S
C677 C681 1.393 . S
C678 H670 0.950 . S
C678 C676 1.391 . S
C678 C679 1.400 . S
C679 C678 1.400 . S
C679 C680 1.398 . S
C679 C685 1.491 . S
C680 H671 0.950 . S
C680 C679 1.398 . S
C680 C681 1.391 . S
C681 H669 0.950 1_554 S
C681 C677 1.393 . S
C681 C680 1.391 . S
C682 H672 0.950 . S
C682 C683 1.386 . S
C682 C684 1.391 . S
C683 C682 1.386 . S
C683 C687 1.393 . S
C684 H673 0.950 . S
C684 C682 1.391 . S
C684 C685 1.400 . S
C685 C679 1.491 . S
C685 C684 1.400 . S
C685 C686 1.398 . S
C686 H674 0.950 . S
C686 C685 1.398 . S
C686 C687 1.391 . S
C687 H675 0.950 . S
C687 C683 1.393 . S
C687 C686 1.391 . S
H688 C696 0.950 1_545 S
H689 C701 0.950 . S
H690 C698 0.950 . S
H691 C700 0.950 . S
H692 C702 0.949 . S
H693 C704 0.950 . S
H694 C706 0.950 . S
H695 C707 0.950 . S
C696 H688 0.950 1_565 S
C696 C697 1.386 . S
C696 C698 1.391 . S
C697 C696 1.386 . S
C697 C701 1.393 . S
C698 H690 0.950 . S
C698 C696 1.391 . S
C698 C699 1.400 . S
C699 C698 1.400 . S
C699 C700 1.398 . S
C699 C705 1.491 . S
C700 H691 0.950 . S
C700 C699 1.398 . S
C700 C701 1.391 . S
C701 H689 0.950 . S
C701 C697 1.393 . S
C701 C700 1.391 . S
C702 H692 0.949 . S
C702 C703 1.386 . S
C702 C704 1.391 . S
C703 C702 1.386 . S
C703 C707 1.393 . S
C704 H693 0.950 . S
C704 C702 1.391 . S
C704 C705 1.400 . S
C705 C699 1.491 . S
C705 C704 1.400 . S
C705 C706 1.398 . S
C706 H694 0.950 . S
C706 C705 1.398 . S
C706 C707 1.391 . S
C707 H695 0.950 . S
C707 C703 1.393 . S
C707 C706 1.391 . S
H708 C716 0.950 . S
H709 C721 0.950 . S
H710 C718 0.950 . S
H711 C720 0.950 . S
H712 C722 0.950 . S
H713 C724 0.950 . S
H714 C726 0.950 . S
H715 C727 0.950 1_565 S
C716 H708 0.950 . S
C716 C717 1.386 . S
C716 C718 1.391 . S
C717 C716 1.386 . S
C717 C721 1.393 . S
C718 H710 0.950 . S
C718 C716 1.391 . S
C718 C719 1.400 . S
C719 C718 1.400 . S
C719 C720 1.398 . S
C719 C725 1.491 . S
C720 H711 0.950 . S
C720 C719 1.398 . S
C720 C721 1.391 . S
C721 H709 0.950 . S
C721 C717 1.393 . S
C721 C720 1.391 . S
C722 H712 0.950 . S
C722 C723 1.386 . S
C722 C724 1.391 . S
C723 C722 1.386 . S
C723 C727 1.393 . S
C724 H713 0.950 . S
C724 C722 1.391 . S
C724 C725 1.400 . S
C725 C719 1.491 . S
C725 C724 1.400 . S
C725 C726 1.398 . S
C726 H714 0.950 . S
C726 C725 1.398 . S
C726 C727 1.391 . S
C727 H715 0.950 1_545 S
C727 C723 1.393 . S
C727 C726 1.391 . S
H728 C736 0.950 . S
H729 C741 0.950 . S
H730 C738 0.950 . S
H731 C740 0.950 . S
H732 C742 0.950 . S
H733 C744 0.950 . S
H734 C746 0.950 . S
H735 C747 0.950 . S
C736 H728 0.950 . S
C736 C737 1.386 . S
C736 C738 1.391 . S
C737 C736 1.386 . S
C737 C741 1.393 . S
C738 H730 0.950 . S
C738 C736 1.391 . S
C738 C739 1.400 . S
C739 C738 1.400 . S
C739 C740 1.398 . S
C739 C745 1.491 . S
C740 H731 0.950 . S
C740 C739 1.398 . S
C740 C741 1.391 . S
C741 H729 0.950 . S
C741 C737 1.393 . S
C741 C740 1.391 . S
C742 H732 0.950 . S
C742 C743 1.386 . S
C742 C744 1.391 . S
C743 C742 1.386 . S
C743 C747 1.393 . S
C744 H733 0.950 . S
C744 C742 1.391 . S
C744 C745 1.400 . S
C745 C739 1.491 . S
C745 C744 1.400 . S
C745 C746 1.398 . S
C746 H734 0.950 . S
C746 C745 1.398 . S
C746 C747 1.391 . S
C747 H735 0.950 . S
C747 C743 1.393 . S
C747 C746 1.391 . S
H748 C756 0.950 . S
H749 C761 0.950 . S
H750 C758 0.950 . S
H751 C760 0.950 . S
H752 C762 0.950 . S
H753 C764 0.950 . S
H754 C766 0.950 . S
H755 C767 0.950 . S
C756 H748 0.950 . S
C756 C757 1.386 . S
C756 C758 1.391 . S
C757 C756 1.386 . S
C757 C761 1.393 . S
C758 H750 0.950 . S
C758 C756 1.391 . S
C758 C759 1.400 . S
C759 C758 1.400 . S
C759 C760 1.398 . S
C759 C765 1.491 . S
C760 H751 0.950 . S
C760 C759 1.398 . S
C760 C761 1.391 . S
C761 H749 0.950 . S
C761 C757 1.393 . S
C761 C760 1.391 . S
C762 H752 0.950 . S
C762 C763 1.386 . S
C762 C764 1.391 . S
C763 C762 1.386 . S
C763 C767 1.393 . S
C764 H753 0.950 . S
C764 C762 1.391 . S
C764 C765 1.400 . S
C765 C759 1.491 . S
C765 C764 1.400 . S
C765 C766 1.398 . S
C766 H754 0.950 . S
C766 C765 1.398 . S
C766 C767 1.391 . S
C767 H755 0.950 . S
C767 C763 1.393 . S
C767 C766 1.391 . S
H768 C776 0.950 . S
H769 C781 0.959 . S
H770 C778 0.950 . S
H771 C780 0.950 . S
H772 C782 0.950 1_554 S
H773 C784 0.950 . S
H774 C786 0.950 . S
H775 C787 0.950 . S
C776 H768 0.950 . S
C776 C777 1.386 . S
C776 C778 1.391 . S
C777 C776 1.386 . S
C777 C781 1.393 . S
C778 H770 0.950 . S
C778 C776 1.391 . S
C778 C779 1.400 . S
C779 C778 1.400 . S
C779 C780 1.398 . S
C779 C785 1.491 . S
C780 H771 0.950 . S
C780 C779 1.398 . S
C780 C781 1.391 . S
C781 H769 0.959 . S
C781 C777 1.393 . S
C781 C780 1.391 . S
C782 H772 0.950 1_556 S
C782 C783 1.386 . S
C782 C784 1.391 . S
C783 C782 1.386 . S
C783 C787 1.393 . S
C784 H773 0.950 . S
C784 C782 1.391 . S
C784 C785 1.400 . S
C785 C779 1.491 . S
C785 C784 1.400 . S
C785 C786 1.398 . S
C786 H774 0.950 . S
C786 C785 1.398 . S
C786 C787 1.391 . S
C787 H775 0.950 . S
C787 C783 1.393 . S
C787 C786 1.391 . S
H788 C796 0.950 1_554 S
H789 C801 0.950 . S
H790 C798 0.950 . S
H791 C800 0.950 . S
H792 C802 0.950 . S
H793 C804 0.950 . S
H794 C806 0.950 . S
H795 C807 0.950 . S
C796 H788 0.950 1_556 S
C796 C797 1.386 1_556 S
C796 C798 1.391 . S
C797 C796 1.386 1_554 S
C797 C801 1.393 1_554 S
C798 H790 0.950 . S
C798 C796 1.391 . S
C798 C799 1.400 . S
C799 C798 1.400 . S
C799 C800 1.398 . S
C799 C805 1.491 . S
C800 H791 0.950 . S
C800 C799 1.398 . S
C800 C801 1.391 . S
C801 H789 0.950 . S
C801 C797 1.393 1_556 S
C801 C800 1.391 . S
C802 H792 0.950 . S
C802 C803 1.386 . S
C802 C804 1.391 . S
C803 C802 1.386 . S
C803 C807 1.393 . S
C804 H793 0.950 . S
C804 C802 1.391 . S
C804 C805 1.400 . S
C805 C799 1.491 . S
C805 C804 1.400 . S
C805 C806 1.398 . S
C806 H794 0.950 . S
C806 C805 1.398 . S
C806 C807 1.391 . S
C807 H795 0.950 . S
C807 C803 1.393 . S
C807 C806 1.391 . S
H808 C816 0.950 1_554 S
H809 C821 0.950 . S
H810 C818 0.950 . S
H811 C820 0.950 . S
H812 C822 0.950 . S
H813 C824 0.950 . S
H814 C826 0.950 . S
H815 C827 0.950 . S
C816 H808 0.950 1_556 S
C816 C817 1.388 . S
C816 C818 1.391 . S
C817 C816 1.388 . S
C817 C821 1.399 . S
C818 H810 0.950 . S
C818 C816 1.391 . S
C818 C819 1.400 . S
C819 C818 1.400 . S
C819 C820 1.398 . S
C819 C825 1.491 . S
C820 H811 0.950 . S
C820 C819 1.398 . S
C820 C821 1.391 . S
C821 H809 0.950 . S
C821 C817 1.399 . S
C821 C820 1.391 . S
C822 H812 0.950 . S
C822 C823 1.386 . S
C822 C824 1.391 . S
C823 C822 1.386 . S
C823 C827 1.393 . S
C824 H813 0.950 . S
C824 C822 1.391 . S
C824 C825 1.400 . S
C825 C819 1.491 . S
C825 C824 1.400 . S
C825 C826 1.398 . S
C826 H814 0.950 . S
C826 C825 1.398 . S
C826 C827 1.391 . S
C827 H815 0.950 . S
C827 C823 1.393 . S
C827 C826 1.391 . S
H828 C836 0.950 . S
H829 C841 0.984 . S
H830 C838 0.950 . S
H831 C840 0.950 1_545 S
H832 C842 0.950 . S
H833 C844 0.950 . S
H834 C846 0.950 . S
H835 C847 0.950 . S
C836 H828 0.950 . S
C836 C837 1.386 . S
C836 C838 1.391 . S
C837 C836 1.386 . S
C837 C841 1.371 1_565 S
C838 H830 0.950 . S
C838 C836 1.391 . S
C838 C839 1.400 . S
C839 C838 1.400 . S
C839 C840 1.398 . S
C839 C845 1.491 . S
C840 H831 0.950 1_565 S
C840 C839 1.398 . S
C840 C841 1.379 1_565 S
C841 H829 0.984 . S
C841 C837 1.371 1_545 S
C841 C840 1.379 1_545 S
C842 H832 0.950 . S
C842 C843 1.386 . S
C842 C844 1.391 . S
C843 C842 1.386 . S
C843 C847 1.393 . S
C844 H833 0.950 . S
C844 C842 1.391 . S
C844 C845 1.400 . S
C845 C839 1.491 . S
C845 C844 1.400 . S
C845 C846 1.398 . S
C846 H834 0.950 . S
C846 C845 1.398 . S
C846 C847 1.391 . S
C847 H835 0.950 . S
C847 C843 1.393 . S
C847 C846 1.391 . S
H848 C856 0.950 . S
H849 C861 0.950 . S
H850 C858 0.950 . S
H851 C860 0.950 . S
H852 C862 0.950 . S
H853 C864 0.950 . S
H854 C866 0.950 . S
H855 C867 0.950 . S
C856 H848 0.950 . S
C856 C857 1.386 . S
C856 C858 1.391 . S
C857 C856 1.386 . S
C857 C861 1.393 . S
C858 H850 0.950 . S
C858 C856 1.391 . S
C858 C859 1.400 . S
C859 C858 1.400 . S
C859 C860 1.398 . S
C859 C865 1.491 . S
C860 H851 0.950 . S
C860 C859 1.398 . S
C860 C861 1.391 . S
C861 H849 0.950 . S
C861 C857 1.393 . S
C861 C860 1.391 . S
C862 H852 0.950 . S
C862 C863 1.386 . S
C862 C864 1.391 . S
C863 C862 1.386 . S
C863 C867 1.393 . S
C864 H853 0.950 . S
C864 C862 1.391 . S
C864 C865 1.400 . S
C865 C859 1.491 . S
C865 C864 1.400 . S
C865 C866 1.398 . S
C866 H854 0.950 . S
C866 C865 1.398 . S
C866 C867 1.391 . S
C867 H855 0.950 . S
C867 C863 1.393 . S
C867 C866 1.391 . S
H868 C876 0.950 . S
H869 C881 0.950 . S
H870 C878 0.950 . S
H871 C880 0.950 . S
H872 C882 0.950 . S
H873 C884 0.950 . S
H874 C886 0.950 . S
H875 C887 0.950 . S
C876 H868 0.950 . S
C876 C877 1.386 . S
C876 C878 1.391 . S
C877 C876 1.386 . S
C877 C881 1.393 . S
C878 H870 0.950 . S
C878 C876 1.391 . S
C878 C879 1.400 . S
C879 C878 1.400 . S
C879 C880 1.398 . S
C879 C885 1.491 . S
C880 H871 0.950 . S
C880 C879 1.398 . S
C880 C881 1.391 . S
C881 H869 0.950 . S
C881 C877 1.393 . S
C881 C880 1.391 . S
C882 H872 0.950 . S
C882 C883 1.386 . S
C882 C884 1.391 . S
C883 C882 1.386 . S
C883 C887 1.393 . S
C884 H873 0.950 . S
C884 C882 1.391 . S
C884 C885 1.400 . S
C885 C879 1.491 . S
C885 C884 1.400 . S
C885 C886 1.398 . S
C886 H874 0.950 . S
C886 C885 1.398 . S
C886 C887 1.391 . S
C887 H875 0.950 . S
C887 C883 1.393 . S
C887 C886 1.391 . S
H888 C896 0.950 . S
H889 C901 0.950 . S
H890 C898 0.950 . S
H891 C900 0.950 . S
H892 C902 0.950 . S
H893 C904 0.950 . S
H894 C906 0.950 . S
H895 C907 0.950 . S
C896 H888 0.950 . S
C896 C897 1.386 . S
C896 C898 1.391 . S
C897 C896 1.386 . S
C897 C901 1.393 . S
C898 H890 0.950 . S
C898 C896 1.391 . S
C898 C899 1.400 . S
C899 C898 1.400 . S
C899 C900 1.398 . S
C899 C905 1.491 . S
C900 H891 0.950 . S
C900 C899 1.398 . S
C900 C901 1.391 . S
C901 H889 0.950 . S
C901 C897 1.393 . S
C901 C900 1.391 . S
C902 H892 0.950 . S
C902 C903 1.386 . S
C902 C904 1.391 . S
C903 C902 1.386 . S
C903 C907 1.393 . S
C904 H893 0.950 . S
C904 C902 1.391 . S
C904 C905 1.400 . S
C905 C899 1.491 . S
C905 C904 1.400 . S
C905 C906 1.398 . S
C906 H894 0.950 . S
C906 C905 1.398 . S
C906 C907 1.391 . S
C907 H895 0.950 . S
C907 C903 1.393 . S
C907 C906 1.391 . S
H908 C916 0.950 . S
H909 C921 0.950 . S
H910 C918 0.950 . S
H911 C920 0.950 . S
H912 C922 0.950 . S
H913 C924 0.950 . S
H914 C926 0.950 . S
H915 C927 0.950 . S
C916 H908 0.950 . S
C916 C917 1.386 . S
C916 C918 1.391 . S
C917 C916 1.386 . S
C917 C921 1.393 . S
C918 H910 0.950 . S
C918 C916 1.391 . S
C918 C919 1.400 . S
C919 C918 1.400 . S
C919 C920 1.398 . S
C919 C925 1.491 . S
C920 H911 0.950 . S
C920 C919 1.398 . S
C920 C921 1.391 . S
C921 H909 0.950 . S
C921 C917 1.393 . S
C921 C920 1.391 . S
C922 H912 0.950 . S
C922 C923 1.386 . S
C922 C924 1.391 1_565 S
C923 C922 1.386 . S
C923 C927 1.393 . S
C924 H913 0.950 . S
C924 C922 1.391 1_545 S
C924 C925 1.400 . S
C925 C919 1.491 . S
C925 C924 1.400 . S
C925 C926 1.398 1_545 S
C926 H914 0.950 . S
C926 C925 1.398 1_565 S
C926 C927 1.391 . S
C927 H915 0.950 . S
C927 C923 1.393 . S
C927 C926 1.391 . S
H928 C936 0.950 . S
H929 C941 0.950 . S
H930 C938 0.950 1_655 S
H931 C940 0.950 . S
H932 C942 0.950 1_455 S
H933 C944 0.950 . S
H934 C946 0.950 . S
H935 C947 0.950 . S
C936 H928 0.950 . S
C936 C937 1.386 . S
C936 C938 1.391 . S
C937 C936 1.386 . S
C937 C941 1.393 . S
C938 H930 0.950 1_455 S
C938 C936 1.391 . S
C938 C939 1.400 . S
C939 C938 1.400 . S
C939 C940 1.398 . S
C939 C945 1.491 . S
C940 H931 0.950 . S
C940 C939 1.398 . S
C940 C941 1.391 . S
C941 H929 0.950 . S
C941 C937 1.393 . S
C941 C940 1.391 . S
C942 H932 0.950 1_655 S
C942 C943 1.386 . S
C942 C944 1.391 1_655 S
C943 C942 1.386 . S
C943 C947 1.393 . S
C944 H933 0.950 . S
C944 C942 1.391 1_455 S
C944 C945 1.400 . S
C945 C939 1.491 . S
C945 C944 1.400 . S
C945 C946 1.398 1_455 S
C946 H934 0.950 . S
C946 C945 1.398 1_655 S
C946 C947 1.391 . S
C947 H935 0.950 . S
C947 C943 1.393 . S
C947 C946 1.391 . S
H948 C956 0.950 . S
H949 C961 0.950 . S
H950 C958 0.950 . S
H951 C960 0.950 . S
H952 C962 0.950 . S
H953 C964 0.950 . S
H954 C966 0.950 . S
H955 C967 0.950 . S
C956 H948 0.950 . S
C956 C957 1.386 . S
C956 C958 1.391 . S
C957 C956 1.386 . S
C957 C961 1.393 . S
C958 H950 0.950 . S
C958 C956 1.391 . S
C958 C959 1.400 . S
C959 C958 1.400 . S
C959 C960 1.398 . S
C959 C965 1.491 . S
C960 H951 0.950 . S
C960 C959 1.398 . S
C960 C961 1.391 . S
C961 H949 0.950 . S
C961 C957 1.393 . S
C961 C960 1.391 . S
C962 H952 0.950 . S
C962 C963 1.386 . S
C962 C964 1.391 . S
C963 C962 1.386 . S
C963 C967 1.393 . S
C964 H953 0.950 . S
C964 C962 1.391 . S
C964 C965 1.400 . S
C965 C959 1.491 . S
C965 C964 1.400 . S
C965 C966 1.398 . S
C966 H954 0.950 . S
C966 C965 1.398 . S
C966 C967 1.391 . S
C967 H955 0.950 . S
C967 C963 1.393 . S
C967 C966 1.391 . S
H968 C976 0.950 . S
H969 C981 0.950 . S
H970 C978 0.950 . S
H971 C980 0.950 1_565 S
H972 C982 0.950 . S
H973 C984 0.950 . S
H974 C986 0.950 . S
H975 C987 0.950 . S
C976 H968 0.950 . S
C976 C977 1.386 . S
C976 C978 1.391 . S
C977 C976 1.386 . S
C977 C981 1.393 . S
C978 H970 0.950 . S
C978 C976 1.391 . S
C978 C979 1.400 . S
C979 C978 1.400 . S
C979 C980 1.398 . S
C979 C985 1.491 . S
C980 H971 0.950 1_545 S
C980 C979 1.398 . S
C980 C981 1.391 . S
C981 H969 0.950 . S
C981 C977 1.393 . S
C981 C980 1.391 . S
C982 H972 0.950 . S
C982 C983 1.386 . S
C982 C984 1.391 . S
C983 C982 1.386 . S
C983 C987 1.393 1_565 S
C984 H973 0.950 . S
C984 C982 1.391 . S
C984 C985 1.400 1_565 S
C985 C979 1.491 . S
C985 C984 1.400 1_545 S
C985 C986 1.398 . S
C986 H974 0.950 . S
C986 C985 1.398 . S
C986 C987 1.391 . S
C987 H975 0.950 . S
C987 C983 1.393 1_545 S
C987 C986 1.391 . S
H988 C996 0.950 . S
H989 C1001 0.958 . S
H990 C998 0.950 . S
H991 C1000 0.934 1_655 S
H992 C1002 0.950 . S
H993 C1004 0.950 . S
H994 C1006 0.950 . S
H995 C1007 0.950 . S
C996 H988 0.950 . S
C996 C997 1.386 . S
C996 C998 1.391 . S
C997 C996 1.386 . S
C997 C1001 1.393 . S
C998 H990 0.950 . S
C998 C996 1.391 . S
C998 C999 1.400 . S
C999 C998 1.400 . S
C999 C1000 1.408 . S
C999 C1005 1.491 . S
C1000 H991 0.934 1_455 S
C1000 C999 1.408 . S
C1000 C1001 1.397 . S
C1001 H989 0.958 . S
C1001 C997 1.393 . S
C1001 C1000 1.397 . S
C1002 H992 0.950 . S
C1002 C1003 1.386 . S
C1002 C1004 1.391 . S
C1003 C1002 1.386 . S
C1003 C1007 1.393 1_655 S
C1004 H993 0.950 . S
C1004 C1002 1.391 . S
C1004 C1005 1.400 1_655 S
C1005 C999 1.491 . S
C1005 C1004 1.400 1_455 S
C1005 C1006 1.398 . S
C1006 H994 0.950 . S
C1006 C1005 1.398 . S
C1006 C1007 1.391 . S
C1007 H995 0.950 . S
C1007 C1003 1.393 1_455 S
C1007 C1006 1.391 . S
H1008 C1016 0.950 . S
H1009 C1021 0.950 . S
H1010 C1018 0.950 . S
H1011 C1020 0.950 . S
H1012 C1022 0.950 . S
H1013 C1024 0.950 . S
H1014 C1026 0.950 . S
H1015 C1027 0.950 . S
C1016 H1008 0.950 . S
C1016 C1017 1.386 . S
C1016 C1018 1.391 . S
C1017 C1016 1.386 . S
C1017 C1021 1.393 . S
C1018 H1010 0.950 . S
C1018 C1016 1.391 . S
C1018 C1019 1.400 . S
C1019 C1018 1.400 . S
C1019 C1020 1.398 . S
C1019 C1025 1.491 . S
C1020 H1011 0.950 . S
C1020 C1019 1.398 . S
C1020 C1021 1.391 . S
C1021 H1009 0.950 . S
C1021 C1017 1.393 . S
C1021 C1020 1.391 . S
C1022 H1012 0.950 . S
C1022 C1023 1.386 . S
C1022 C1024 1.391 . S
C1023 C1022 1.386 . S
C1023 C1027 1.393 . S
C1024 H1013 0.950 . S
C1024 C1022 1.391 . S
C1024 C1025 1.400 . S
C1025 C1019 1.491 . S
C1025 C1024 1.400 . S
C1025 C1026 1.398 . S
C1026 H1014 0.950 . S
C1026 C1025 1.398 . S
C1026 C1027 1.391 . S
C1027 H1015 0.950 . S
C1027 C1023 1.393 . S
C1027 C1026 1.391 . S
H1028 C1036 0.950 . S
H1029 C1041 0.950 . S
H1030 C1038 0.950 . S
H1031 C1040 0.950 . S
H1032 C1042 0.950 . S
H1033 C1044 0.950 . S
H1034 C1046 0.950 . S
H1035 C1047 0.950 . S
C1036 H1028 0.950 . S
C1036 C1037 1.386 . S
C1036 C1038 1.391 . S
C1037 C1036 1.386 . S
C1037 C1041 1.393 . S
C1038 H1030 0.950 . S
C1038 C1036 1.391 . S
C1038 C1039 1.400 . S
C1039 C1038 1.400 . S
C1039 C1040 1.398 . S
C1039 C1045 1.491 . S
C1040 H1031 0.950 . S
C1040 C1039 1.398 . S
C1040 C1041 1.391 . S
C1041 H1029 0.950 . S
C1041 C1037 1.393 . S
C1041 C1040 1.391 . S
C1042 H1032 0.950 . S
C1042 C1043 1.386 . S
C1042 C1044 1.391 . S
C1043 C1042 1.386 . S
C1043 C1047 1.393 . S
C1044 H1033 0.950 . S
C1044 C1042 1.391 . S
C1044 C1045 1.400 . S
C1045 C1039 1.491 . S
C1045 C1044 1.400 . S
C1045 C1046 1.398 . S
C1046 H1034 0.950 . S
C1046 C1045 1.398 . S
C1046 C1047 1.391 . S
C1047 H1035 0.950 . S
C1047 C1043 1.393 . S
C1047 C1046 1.391 . S
H1048 C1056 0.950 . S
H1049 C1061 0.950 . S
H1050 C1058 0.950 . S
H1051 C1060 0.950 . S
H1052 C1062 0.950 . S
H1053 C1064 0.950 . S
H1054 C1066 0.950 . S
H1055 C1067 0.950 . S
C1056 H1048 0.950 . S
C1056 C1057 1.386 . S
C1056 C1058 1.391 . S
C1057 C1056 1.386 . S
C1057 C1061 1.393 . S
C1058 H1050 0.950 . S
C1058 C1056 1.391 . S
C1058 C1059 1.400 . S
C1059 C1058 1.400 . S
C1059 C1060 1.398 . S
C1059 C1065 1.491 . S
C1060 H1051 0.950 . S
C1060 C1059 1.398 . S
C1060 C1061 1.391 . S
C1061 H1049 0.950 . S
C1061 C1057 1.393 . S
C1061 C1060 1.391 . S
C1062 H1052 0.950 . S
C1062 C1063 1.386 . S
C1062 C1064 1.391 . S
C1063 C1062 1.386 . S
C1063 C1067 1.393 . S
C1064 H1053 0.950 . S
C1064 C1062 1.391 . S
C1064 C1065 1.400 . S
C1065 C1059 1.491 . S
C1065 C1064 1.400 . S
C1065 C1066 1.398 . S
C1066 H1054 0.950 . S
C1066 C1065 1.398 . S
C1066 C1067 1.391 . S
C1067 H1055 0.950 . S
C1067 C1063 1.393 . S
C1067 C1066 1.391 . S
H1068 C1076 0.950 . S
H1069 C1081 0.950 . S
H1070 C1078 0.950 . S
H1071 C1080 0.950 . S
H1072 C1082 0.950 . S
H1073 C1084 0.950 . S
H1074 C1086 0.950 . S
H1075 C1087 0.950 . S
C1076 H1068 0.950 . S
C1076 C1077 1.386 . S
C1076 C1078 1.391 . S
C1077 C1076 1.386 . S
C1077 C1081 1.393 . S
C1078 H1070 0.950 . S
C1078 C1076 1.391 . S
C1078 C1079 1.400 . S
C1079 C1078 1.400 . S
C1079 C1080 1.398 . S
C1079 C1085 1.491 . S
C1080 H1071 0.950 . S
C1080 C1079 1.398 . S
C1080 C1081 1.391 . S
C1081 H1069 0.950 . S
C1081 C1077 1.393 . S
C1081 C1080 1.391 . S
C1082 H1072 0.950 . S
C1082 C1083 1.386 . S
C1082 C1084 1.391 . S
C1083 C1082 1.386 . S
C1083 C1087 1.393 . S
C1084 H1073 0.950 . S
C1084 C1082 1.391 . S
C1084 C1085 1.400 . S
C1085 C1079 1.491 . S
C1085 C1084 1.400 . S
C1085 C1086 1.398 . S
C1086 H1074 0.950 . S
C1086 C1085 1.398 . S
C1086 C1087 1.391 . S
C1087 H1075 0.950 . S
C1087 C1083 1.393 . S
C1087 C1086 1.391 . S
H1088 C1096 0.950 . S
H1089 C1101 0.950 . S
H1090 C1098 0.950 . S
H1091 C1100 0.950 . S
H1092 C1102 0.950 . S
H1093 C1104 0.950 . S
H1094 C1106 0.950 . S
H1095 C1107 0.950 . S
C1096 H1088 0.950 . S
C1096 C1097 1.386 . S
C1096 C1098 1.391 . S
C1097 C1096 1.386 . S
C1097 C1101 1.393 . S
C1098 H1090 0.950 . S
C1098 C1096 1.391 . S
C1098 C1099 1.400 . S
C1099 C1098 1.400 . S
C1099 C1100 1.398 . S
C1099 C1105 1.491 . S
C1100 H1091 0.950 . S
C1100 C1099 1.398 . S
C1100 C1101 1.391 . S
C1101 H1089 0.950 . S
C1101 C1097 1.393 . S
C1101 C1100 1.391 . S
C1102 H1092 0.950 . S
C1102 C1103 1.386 . S
C1102 C1104 1.391 . S
C1103 C1102 1.386 . S
C1103 C1107 1.393 . S
C1104 H1093 0.950 . S
C1104 C1102 1.391 . S
C1104 C1105 1.400 . S
C1105 C1099 1.491 . S
C1105 C1104 1.400 . S
C1105 C1106 1.398 . S
C1106 H1094 0.950 . S
C1106 C1105 1.398 . S
C1106 C1107 1.391 . S
C1107 H1095 0.950 . S
C1107 C1103 1.393 . S
C1107 C1106 1.391 . S
H1108 C1116 0.950 . S
H1109 C1121 0.950 . S
H1110 C1118 0.950 . S
H1111 C1120 0.950 . S
H1112 C1122 0.950 . S
H1113 C1124 0.950 . S
H1114 C1126 0.950 . S
H1115 C1127 0.950 . S
C1116 H1108 0.950 . S
C1116 C1117 1.386 . S
C1116 C1118 1.391 . S
C1117 C1116 1.386 . S
C1117 C1121 1.393 . S
C1118 H1110 0.950 . S
C1118 C1116 1.391 . S
C1118 C1119 1.400 . S
C1119 C1118 1.400 . S
C1119 C1120 1.398 . S
C1119 C1125 1.491 . S
C1120 H1111 0.950 . S
C1120 C1119 1.398 . S
C1120 C1121 1.391 . S
C1121 H1109 0.950 . S
C1121 C1117 1.393 . S
C1121 C1120 1.391 . S
C1122 H1112 0.950 . S
C1122 C1123 1.386 . S
C1122 C1124 1.391 . S
C1123 C1122 1.386 . S
C1123 C1127 1.393 . S
C1124 H1113 0.950 . S
C1124 C1122 1.391 . S
C1124 C1125 1.400 . S
C1125 C1119 1.491 . S
C1125 C1124 1.400 . S
C1125 C1126 1.398 . S
C1126 H1114 0.950 . S
C1126 C1125 1.398 . S
C1126 C1127 1.391 . S
C1127 H1115 0.950 . S
C1127 C1123 1.393 . S
C1127 C1126 1.391 . S
H1128 C1136 0.950 . S
H1129 C1141 0.950 . S
H1130 C1138 0.950 . S
H1131 C1140 0.950 . S
H1132 C1142 0.950 . S
H1133 C1144 0.950 . S
H1134 C1146 0.950 . S
H1135 C1147 0.950 . S
C1136 H1128 0.950 . S
C1136 C1137 1.386 . S
C1136 C1138 1.391 . S
C1137 C1136 1.386 . S
C1137 C1141 1.393 . S
C1138 H1130 0.950 . S
C1138 C1136 1.391 . S
C1138 C1139 1.400 . S
C1139 C1138 1.400 . S
C1139 C1140 1.398 . S
C1139 C1145 1.491 . S
C1140 H1131 0.950 . S
C1140 C1139 1.398 . S
C1140 C1141 1.391 . S
C1141 H1129 0.950 . S
C1141 C1137 1.393 . S
C1141 C1140 1.391 . S
C1142 H1132 0.950 . S
C1142 C1143 1.386 . S
C1142 C1144 1.391 . S
C1143 C1142 1.386 . S
C1143 C1147 1.393 . S
C1144 H1133 0.950 . S
C1144 C1142 1.391 . S
C1144 C1145 1.400 . S
C1145 C1139 1.491 . S
C1145 C1144 1.400 . S
C1145 C1146 1.398 . S
C1146 H1134 0.950 . S
C1146 C1145 1.398 . S
C1146 C1147 1.391 . S
C1147 H1135 0.950 . S
C1147 C1143 1.393 . S
C1147 C1146 1.391 . S
H1148 C1156 0.950 . S
H1149 C1161 0.950 . S
H1150 C1158 0.950 . S
H1151 C1160 0.950 . S
H1152 C1162 0.950 . S
H1153 C1164 0.950 . S
H1154 C1166 0.950 . S
H1155 C1167 0.950 . S
C1156 H1148 0.950 . S
C1156 C1157 1.386 . S
C1156 C1158 1.391 . S
C1157 C1156 1.386 . S
C1157 C1161 1.393 . S
C1158 H1150 0.950 . S
C1158 C1156 1.391 . S
C1158 C1159 1.400 . S
C1159 C1158 1.400 . S
C1159 C1160 1.398 . S
C1159 C1165 1.491 . S
C1160 H1151 0.950 . S
C1160 C1159 1.398 . S
C1160 C1161 1.391 . S
C1161 H1149 0.950 . S
C1161 C1157 1.393 . S
C1161 C1160 1.391 . S
C1162 H1152 0.950 . S
C1162 C1163 1.386 . S
C1162 C1164 1.391 . S
C1163 C1162 1.386 . S
C1163 C1167 1.393 . S
C1164 H1153 0.950 . S
C1164 C1162 1.391 . S
C1164 C1165 1.400 . S
C1165 C1159 1.491 . S
C1165 C1164 1.400 . S
C1165 C1166 1.398 . S
C1166 H1154 0.950 . S
C1166 C1165 1.398 . S
C1166 C1167 1.391 . S
C1167 H1155 0.950 . S
C1167 C1163 1.393 . S
C1167 C1166 1.391 . S
H1168 C1176 0.950 . S
H1169 C1181 0.950 . S
H1170 C1178 0.950 . S
H1171 C1180 0.950 . S
H1172 C1182 0.950 . S
H1173 C1184 0.950 . S
H1174 C1186 0.950 . S
H1175 C1187 0.950 . S
C1176 H1168 0.950 . S
C1176 C1177 1.386 . S
C1176 C1178 1.391 . S
C1177 C1176 1.386 . S
C1177 C1181 1.393 . S
C1178 H1170 0.950 . S
C1178 C1176 1.391 . S
C1178 C1179 1.400 . S
C1179 C1178 1.400 . S
C1179 C1180 1.398 . S
C1179 C1185 1.491 . S
C1180 H1171 0.950 . S
C1180 C1179 1.398 . S
C1180 C1181 1.391 . S
C1181 H1169 0.950 . S
C1181 C1177 1.393 . S
C1181 C1180 1.391 . S
C1182 H1172 0.950 . S
C1182 C1183 1.386 . S
C1182 C1184 1.391 . S
C1183 C1182 1.386 . S
C1183 C1187 1.393 . S
C1184 H1173 0.950 . S
C1184 C1182 1.391 . S
C1184 C1185 1.400 . S
C1185 C1179 1.491 . S
C1185 C1184 1.400 . S
C1185 C1186 1.398 . S
C1186 H1174 0.950 . S
C1186 C1185 1.398 . S
C1186 C1187 1.391 . S
C1187 H1175 0.950 . S
C1187 C1183 1.393 . S
C1187 C1186 1.391 . S
H1188 C1196 0.950 . S
H1189 C1201 0.950 . S
H1190 C1198 0.950 . S
H1191 C1200 0.950 . S
H1192 C1202 0.950 . S
H1193 C1204 0.950 . S
H1194 C1206 0.950 . S
H1195 C1207 0.950 . S
C1196 H1188 0.950 . S
C1196 C1197 1.386 . S
C1196 C1198 1.391 . S
C1197 C1196 1.386 . S
C1197 C1201 1.393 . S
C1198 H1190 0.950 . S
C1198 C1196 1.391 . S
C1198 C1199 1.400 . S
C1199 C1198 1.400 . S
C1199 C1200 1.398 . S
C1199 C1205 1.491 . S
C1200 H1191 0.950 . S
C1200 C1199 1.398 . S
C1200 C1201 1.391 . S
C1201 H1189 0.950 . S
C1201 C1197 1.393 . S
C1201 C1200 1.391 . S
C1202 H1192 0.950 . S
C1202 C1203 1.386 . S
C1202 C1204 1.391 . S
C1203 C1202 1.386 . S
C1203 C1207 1.393 . S
C1204 H1193 0.950 . S
C1204 C1202 1.391 . S
C1204 C1205 1.400 . S
C1205 C1199 1.491 . S
C1205 C1204 1.400 . S
C1205 C1206 1.398 . S
C1206 H1194 0.950 . S
C1206 C1205 1.398 . S
C1206 C1207 1.391 . S
C1207 H1195 0.950 . S
C1207 C1203 1.393 . S
C1207 C1206 1.391 . S
H1208 C1216 0.950 . S
H1209 C1221 0.950 . S
H1210 C1218 0.950 . S
H1211 C1220 0.950 . S
H1212 C1222 0.950 . S
H1213 C1224 0.950 . S
H1214 C1226 0.950 . S
H1215 C1227 0.950 . S
C1216 H1208 0.950 . S
C1216 C1217 1.386 . S
C1216 C1218 1.391 . S
C1217 C1216 1.386 . S
C1217 C1221 1.393 . S
C1218 H1210 0.950 . S
C1218 C1216 1.391 . S
C1218 C1219 1.400 . S
C1219 C1218 1.400 . S
C1219 C1220 1.398 . S
C1219 C1225 1.491 . S
C1220 H1211 0.950 . S
C1220 C1219 1.398 . S
C1220 C1221 1.391 . S
C1221 H1209 0.950 . S
C1221 C1217 1.393 . S
C1221 C1220 1.391 . S
C1222 H1212 0.950 . S
C1222 C1223 1.386 . S
C1222 C1224 1.391 . S
C1223 C1222 1.386 . S
C1223 C1227 1.393 . S
C1224 H1213 0.950 . S
C1224 C1222 1.391 . S
C1224 C1225 1.400 . S
C1225 C1219 1.491 . S
C1225 C1224 1.400 . S
C1225 C1226 1.398 . S
C1226 H1214 0.950 . S
C1226 C1225 1.398 . S
C1226 C1227 1.391 . S
C1227 H1215 0.950 . S
C1227 C1223 1.393 . S
C1227 C1226 1.391 . S
H1228 C1236 0.950 . S
H1229 C1241 0.950 . S
H1230 C1238 0.950 . S
H1231 C1240 0.950 . S
H1232 C1242 0.950 . S
H1233 C1244 0.950 . S
H1234 C1246 0.950 . S
H1235 C1247 0.950 . S
C1236 H1228 0.950 . S
C1236 C1237 1.386 . S
C1236 C1238 1.391 . S
C1237 C1236 1.386 . S
C1237 C1241 1.393 . S
C1238 H1230 0.950 . S
C1238 C1236 1.391 . S
C1238 C1239 1.400 . S
C1239 C1238 1.400 . S
C1239 C1240 1.398 . S
C1239 C1245 1.491 . S
C1240 H1231 0.950 . S
C1240 C1239 1.398 . S
C1240 C1241 1.391 . S
C1241 H1229 0.950 . S
C1241 C1237 1.393 . S
C1241 C1240 1.391 . S
C1242 H1232 0.950 . S
C1242 C1243 1.386 . S
C1242 C1244 1.391 . S
C1243 C1242 1.386 . S
C1243 C1247 1.393 . S
C1244 H1233 0.950 . S
C1244 C1242 1.391 . S
C1244 C1245 1.400 . S
C1245 C1239 1.491 . S
C1245 C1244 1.400 . S
C1245 C1246 1.398 . S
C1246 H1234 0.950 . S
C1246 C1245 1.398 . S
C1246 C1247 1.391 . S
C1247 H1235 0.950 . S
C1247 C1243 1.393 . S
C1247 C1246 1.391 . S
H1248 C1256 0.950 . S
H1249 C1261 0.950 . S
H1250 C1258 0.950 . S
H1251 C1260 0.950 . S
H1252 C1262 0.950 . S
H1253 C1264 0.950 . S
H1254 C1266 0.950 . S
H1255 C1267 0.950 . S
C1256 H1248 0.950 . S
C1256 C1257 1.386 . S
C1256 C1258 1.391 . S
C1257 C1256 1.386 . S
C1257 C1261 1.393 . S
C1258 H1250 0.950 . S
C1258 C1256 1.391 . S
C1258 C1259 1.400 . S
C1259 C1258 1.400 . S
C1259 C1260 1.398 . S
C1259 C1265 1.491 . S
C1260 H1251 0.950 . S
C1260 C1259 1.398 . S
C1260 C1261 1.391 . S
C1261 H1249 0.950 . S
C1261 C1257 1.393 . S
C1261 C1260 1.391 . S
C1262 H1252 0.950 . S
C1262 C1263 1.386 . S
C1262 C1264 1.391 . S
C1263 C1262 1.386 . S
C1263 C1267 1.393 . S
C1264 H1253 0.950 . S
C1264 C1262 1.391 . S
C1264 C1265 1.400 . S
C1265 C1259 1.491 . S
C1265 C1264 1.400 . S
C1265 C1266 1.398 . S
C1266 H1254 0.950 . S
C1266 C1265 1.398 . S
C1266 C1267 1.391 . S
C1267 H1255 0.950 . S
C1267 C1263 1.393 . S
C1267 C1266 1.391 . S
H1268 C1276 0.950 . S
H1269 C1281 0.950 . S
H1270 C1278 0.950 . S
H1271 C1280 0.950 . S
H1272 C1282 0.950 . S
H1273 C1284 0.950 . S
H1274 C1286 0.950 . S
H1275 C1287 0.950 . S
C1276 H1268 0.950 . S
C1276 C1277 1.386 . S
C1276 C1278 1.391 . S
C1277 C1276 1.386 . S
C1277 C1281 1.393 . S
C1278 H1270 0.950 . S
C1278 C1276 1.391 . S
C1278 C1279 1.400 . S
C1279 C1278 1.400 . S
C1279 C1280 1.398 . S
C1279 C1285 1.491 . S
C1280 H1271 0.950 . S
C1280 C1279 1.398 . S
C1280 C1281 1.391 . S
C1281 H1269 0.950 . S
C1281 C1277 1.393 . S
C1281 C1280 1.391 . S
C1282 H1272 0.950 . S
C1282 C1283 1.386 . S
C1282 C1284 1.391 1_565 S
C1283 C1282 1.386 . S
C1283 C1287 1.393 . S
C1284 H1273 0.950 . S
C1284 C1282 1.391 1_545 S
C1284 C1285 1.400 . S
C1285 C1279 1.491 . S
C1285 C1284 1.400 . S
C1285 C1286 1.398 1_545 S
C1286 H1274 0.950 . S
C1286 C1285 1.398 1_565 S
C1286 C1287 1.391 . S
C1287 H1275 0.950 . S
C1287 C1283 1.393 . S
C1287 C1286 1.391 . S
H1288 C1296 0.950 . S
H1289 C1301 0.950 . S
H1290 C1298 0.950 1_655 S
H1291 C1300 0.950 . S
H1292 C1302 0.950 . S
H1293 C1304 0.950 1_455 S
H1294 C1306 0.950 . S
H1295 C1307 0.950 . S
C1296 H1288 0.950 . S
C1296 C1297 1.386 . S
C1296 C1298 1.391 . S
C1297 C1296 1.386 . S
C1297 C1301 1.393 . S
C1298 H1290 0.950 1_455 S
C1298 C1296 1.391 . S
C1298 C1299 1.400 . S
C1299 C1298 1.400 . S
C1299 C1300 1.398 . S
C1299 C1305 1.491 1_455 S
C1300 H1291 0.950 . S
C1300 C1299 1.398 . S
C1300 C1301 1.391 . S
C1301 H1289 0.950 . S
C1301 C1297 1.393 . S
C1301 C1300 1.391 . S
C1302 H1292 0.950 . S
C1302 C1303 1.386 . S
C1302 C1304 1.391 . S
C1303 C1302 1.386 . S
C1303 C1307 1.393 . S
C1304 H1293 0.950 1_655 S
C1304 C1302 1.391 . S
C1304 C1305 1.400 . S
C1305 C1299 1.491 1_655 S
C1305 C1304 1.400 . S
C1305 C1306 1.398 . S
C1306 H1294 0.950 . S
C1306 C1305 1.398 . S
C1306 C1307 1.391 . S
C1307 H1295 0.950 . S
C1307 C1303 1.393 . S
C1307 C1306 1.391 . S
H1308 C1316 0.950 1_554 S
H1309 C1321 0.950 . S
H1310 C1318 0.950 . S
H1311 C1320 0.950 . S
H1312 C1322 0.950 1_556 S
H1313 C1324 0.950 . S
H1314 C1326 0.950 . S
H1315 C1327 0.950 . S
C1316 H1308 0.950 1_556 S
C1316 C1317 1.386 . S
C1316 C1318 1.391 1_556 S
C1317 C1316 1.386 . S
C1317 C1321 1.393 . S
C1318 H1310 0.950 . S
C1318 C1316 1.391 1_554 S
C1318 C1319 1.400 1_554 S
C1319 C1318 1.400 1_556 S
C1319 C1320 1.398 . S
C1319 C1325 1.491 1_556 S
C1320 H1311 0.950 . S
C1320 C1319 1.398 . S
C1320 C1321 1.391 . S
C1321 H1309 0.950 . S
C1321 C1317 1.393 . S
C1321 C1320 1.391 . S
C1322 H1312 0.950 1_554 S
C1322 C1323 1.386 . S
C1322 C1324 1.391 1_554 S
C1323 C1322 1.386 . S
C1323 C1327 1.393 . S
C1324 H1313 0.950 . S
C1324 C1322 1.391 1_556 S
C1324 C1325 1.400 1_556 S
C1325 C1319 1.491 1_554 S
C1325 C1324 1.400 1_554 S
C1325 C1326 1.398 . S
C1326 H1314 0.950 . S
C1326 C1325 1.398 . S
C1326 C1327 1.391 . S
C1327 H1315 0.950 . S
C1327 C1323 1.393 . S
C1327 C1326 1.391 . S
H1328 C1336 0.950 . S
H1329 C1341 0.950 . S
H1330 C1338 0.950 1_545 S
H1331 C1340 0.950 1_554 S
H1332 C1342 0.950 . S
H1333 C1344 0.950 1_565 S
H1334 C1346 0.950 1_556 S
H1335 C1347 0.950 . S
C1336 H1328 0.950 . S
C1336 C1337 1.386 . S
C1336 C1338 1.391 . S
C1337 C1336 1.386 . S
C1337 C1341 1.393 . S
C1338 H1330 0.950 1_565 S
C1338 C1336 1.391 . S
C1338 C1339 1.400 . S
C1339 C1338 1.400 . S
C1339 C1340 1.398 . S
C1339 C1345 1.491 1_566 S
C1340 H1331 0.950 1_556 S
C1340 C1339 1.398 . S
C1340 C1341 1.391 . S
C1341 H1329 0.950 . S
C1341 C1337 1.393 . S
C1341 C1340 1.391 . S
C1342 H1332 0.950 . S
C1342 C1343 1.386 . S
C1342 C1344 1.391 . S
C1343 C1342 1.386 . S
C1343 C1347 1.393 . S
C1344 H1333 0.950 1_545 S
C1344 C1342 1.391 . S
C1344 C1345 1.400 . S
C1345 C1339 1.491 1_544 S
C1345 C1344 1.400 . S
C1345 C1346 1.398 . S
C1346 H1334 0.950 1_554 S
C1346 C1345 1.398 . S
C1346 C1347 1.391 . S
C1347 H1335 0.950 . S
C1347 C1343 1.393 . S
C1347 C1346 1.391 . S
H1348 C1356 0.950 1_554 S
H1349 C1361 0.950 . S
H1350 C1358 0.950 . S
H1351 C1360 0.950 . S
H1352 C1362 0.950 1_556 S
H1353 C1364 0.950 . S
H1354 C1366 0.950 1_455 S
H1355 C1367 0.950 . S
C1356 H1348 0.950 1_556 S
C1356 C1357 1.386 . S
C1356 C1358 1.391 1_556 S
C1357 C1356 1.386 . S
C1357 C1361 1.393 . S
C1358 H1350 0.950 . S
C1358 C1356 1.391 1_554 S
C1358 C1359 1.400 1_554 S
C1359 C1358 1.400 1_556 S
C1359 C1360 1.398 . S
C1359 C1365 1.491 1_556 S
C1360 H1351 0.950 . S
C1360 C1359 1.398 . S
C1360 C1361 1.391 . S
C1361 H1349 0.950 . S
C1361 C1357 1.393 . S
C1361 C1360 1.391 . S
C1362 H1352 0.950 1_554 S
C1362 C1363 1.386 . S
C1362 C1364 1.391 1_554 S
C1363 C1362 1.386 . S
C1363 C1367 1.393 . S
C1364 H1353 0.950 . S
C1364 C1362 1.391 1_556 S
C1364 C1365 1.400 1_656 S
C1365 C1359 1.491 1_554 S
C1365 C1364 1.400 1_454 S
C1365 C1366 1.398 1_455 S
C1366 H1354 0.950 1_655 S
C1366 C1365 1.398 1_655 S
C1366 C1367 1.391 . S
C1367 H1355 0.950 . S
C1367 C1363 1.393 . S
C1367 C1366 1.391 . S
C657 C3 0.956 . S
C663 C518 0.950 . S
C677 C436 0.991 1_554 S
C683 C40 0.997 . S
C697 C74 0.989 . S
C703 C471 1.004 1_554 S
C717 C219 0.947 . S
C723 C86 0.932 . S
C737 C256 0.984 . S
C743 C4 0.991 . S
C757 C302 0.955 . S
C763 C39 0.957 . S
C777 C110 1.108 . S
C783 C410 1.070 1_556 S
C797 C338 1.077 . S
C803 C158 1.056 . S
C817 C374 1.076 1_556 S
C823 C182 1.099 . S
C837 C194 1.123 . S
C843 C542 1.110 . S
C857 C122 1.082 . S
C863 C590 1.055 . S
C877 C614 1.162 . S
C883 C146 1.161 . S
C897 C435 0.996 . S
C903 C290 0.982 . S
C917 C220 1.015 . S
C923 C472 1.012 . S
C937 C506 0.993 . S
C943 C255 1.008 . S
C957 C626 1.096 . S
C963 C326 1.119 . S
C977 C362 1.141 . S
C983 C554 1.124 . S
C997 C578 1.160 . S
C1003 C398 1.151 . S
C1017 C544 1.704 . S
C1023 C14 1.787 . S
C1037 C38 1.585 . S
C1043 C579 1.715 . S
C1057 C76 1.665 . S
C1063 C616 1.665 . S
C1077 C75 1.734 . S
C1083 C399 1.734 . S
C1097 C327 1.743 . S
C1103 C2 1.600 . S
C1117 C50 1.736 . S
C1123 C363 1.755 . S
C1137 C230 1.775 . S
C1143 C112 1.685 . S
C1157 C254 1.581 . S
C1163 C147 1.710 . S
C1177 C184 1.672 . S
C1183 C291 1.757 . S
C1197 C183 1.737 . S
C1203 C507 1.738 . S
C1217 C111 1.739 . S
C1223 C434 1.599 . S
C1237 C148 1.682 . S
C1243 C482 1.758 . S
C1257 C292 1.642 . S
C1263 C615 1.734 . S
C1277 C218 1.639 . S
C1283 C543 1.775 . S
C1297 C580 1.682 . S
C1303 C266 1.744 . S
C1317 C446 1.773 . S
C1323 C328 1.691 . S
C1337 C470 1.585 . S
C1343 C364 1.625 . S
C1357 C508 1.650 . S
C1363 C400 1.650 . S
