# Generated by pormake.
# Topology uos, (4)-cn, num edge types: 1
# Building blocks:
#     Node 0, Type 0, BuildingBlock: KUFVIS_clean_sbu_0, # of connection points: 4
#     Node 1, Type 0, BuildingBlock: KUFVIS_clean_sbu_0, # of connection points: 4
#     Node 2, Type 0, BuildingBlock: KUFVIS_clean_sbu_0, # of connection points: 4
#     Node 3, Type 0, BuildingBlock: KUFVIS_clean_sbu_0, # of connection points: 4
#     Node 4, Type 0, BuildingBlock: KUFVIS_clean_sbu_0, # of connection points: 4
#     Node 5, Type 0, BuildingBlock: KUFVIS_clean_sbu_0, # of connection points: 4
#     Node 6, Type 0, BuildingBlock: KUFVIS_clean_sbu_0, # of connection points: 4
#     Node 7, Type 0, BuildingBlock: KUFVIS_clean_sbu_0, # of connection points: 4
#     Node 8, Type 0, BuildingBlock: KUFVIS_clean_sbu_0, # of connection points: 4
#     Node 9, Type 0, BuildingBlock: KUFVIS_clean_sbu_0, # of connection points: 4
#     Node 10, Type 0, BuildingBlock: KUFVIS_clean_sbu_0, # of connection points: 4
#     Node 11, Type 0, BuildingBlock: KUFVIS_clean_sbu_0, # of connection points: 4
#     Node 12, Type 0, BuildingBlock: KUFVIS_clean_sbu_0, # of connection points: 4
#     Node 13, Type 0, BuildingBlock: KUFVIS_clean_sbu_0, # of connection points: 4
#     Node 14, Type 0, BuildingBlock: KUFVIS_clean_sbu_0, # of connection points: 4
#     Node 15, Type 0, BuildingBlock: KUFVIS_clean_sbu_0, # of connection points: 4
#     Node 16, Type 0, BuildingBlock: KUFVIS_clean_sbu_0, # of connection points: 4
#     Node 17, Type 0, BuildingBlock: KUFVIS_clean_sbu_0, # of connection points: 4
#     Node 18, Type 0, BuildingBlock: KUFVIS_clean_sbu_0, # of connection points: 4
#     Node 19, Type 0, BuildingBlock: KUFVIS_clean_sbu_0, # of connection points: 4
#     Node 20, Type 0, BuildingBlock: KUFVIS_clean_sbu_0, # of connection points: 4
#     Node 21, Type 0, BuildingBlock: KUFVIS_clean_sbu_0, # of connection points: 4
#     Node 22, Type 0, BuildingBlock: KUFVIS_clean_sbu_0, # of connection points: 4
#     Node 23, Type 0, BuildingBlock: KUFVIS_clean_sbu_0, # of connection points: 4
#     Node 24, Type 0, BuildingBlock: KUFVIS_clean_sbu_0, # of connection points: 4
#     Node 25, Type 0, BuildingBlock: KUFVIS_clean_sbu_0, # of connection points: 4
#     Node 26, Type 0, BuildingBlock: KUFVIS_clean_sbu_0, # of connection points: 4
#     Node 27, Type 0, BuildingBlock: KUFVIS_clean_sbu_0, # of connection points: 4
#     Node 28, Type 0, BuildingBlock: KUFVIS_clean_sbu_0, # of connection points: 4
#     Node 29, Type 0, BuildingBlock: KUFVIS_clean_sbu_0, # of connection points: 4
#     Node 30, Type 0, BuildingBlock: KUFVIS_clean_sbu_0, # of connection points: 4
#     Node 31, Type 0, BuildingBlock: KUFVIS_clean_sbu_0, # of connection points: 4
#     Edge 32, Type (0, 0), BuildingBlock: XIVTED_clean_linker_0, # of connection points: 2
#     Edge 33, Type (0, 0), BuildingBlock: XIVTED_clean_linker_0, # of connection points: 2
#     Edge 34, Type (0, 0), BuildingBlock: XIVTED_clean_linker_0, # of connection points: 2
#     Edge 35, Type (0, 0), BuildingBlock: XIVTED_clean_linker_0, # of connection points: 2
#     Edge 36, Type (0, 0), BuildingBlock: XIVTED_clean_linker_0, # of connection points: 2
#     Edge 37, Type (0, 0), BuildingBlock: XIVTED_clean_linker_0, # of connection points: 2
#     Edge 38, Type (0, 0), BuildingBlock: XIVTED_clean_linker_0, # of connection points: 2
#     Edge 39, Type (0, 0), BuildingBlock: XIVTED_clean_linker_0, # of connection points: 2
#     Edge 40, Type (0, 0), BuildingBlock: XIVTED_clean_linker_0, # of connection points: 2
#     Edge 41, Type (0, 0), BuildingBlock: XIVTED_clean_linker_0, # of connection points: 2
#     Edge 42, Type (0, 0), BuildingBlock: XIVTED_clean_linker_0, # of connection points: 2
#     Edge 43, Type (0, 0), BuildingBlock: XIVTED_clean_linker_0, # of connection points: 2
#     Edge 44, Type (0, 0), BuildingBlock: XIVTED_clean_linker_0, # of connection points: 2
#     Edge 45, Type (0, 0), BuildingBlock: XIVTED_clean_linker_0, # of connection points: 2
#     Edge 46, Type (0, 0), BuildingBlock: XIVTED_clean_linker_0, # of connection points: 2
#     Edge 47, Type (0, 0), BuildingBlock: XIVTED_clean_linker_0, # of connection points: 2
#     Edge 48, Type (0, 0), BuildingBlock: XIVTED_clean_linker_0, # of connection points: 2
#     Edge 49, Type (0, 0), BuildingBlock: XIVTED_clean_linker_0, # of connection points: 2
#     Edge 50, Type (0, 0), BuildingBlock: XIVTED_clean_linker_0, # of connection points: 2
#     Edge 51, Type (0, 0), BuildingBlock: XIVTED_clean_linker_0, # of connection points: 2
#     Edge 52, Type (0, 0), BuildingBlock: XIVTED_clean_linker_0, # of connection points: 2
#     Edge 53, Type (0, 0), BuildingBlock: XIVTED_clean_linker_0, # of connection points: 2
#     Edge 54, Type (0, 0), BuildingBlock: XIVTED_clean_linker_0, # of connection points: 2
#     Edge 55, Type (0, 0), BuildingBlock: XIVTED_clean_linker_0, # of connection points: 2
#     Edge 56, Type (0, 0), BuildingBlock: XIVTED_clean_linker_0, # of connection points: 2
#     Edge 57, Type (0, 0), BuildingBlock: XIVTED_clean_linker_0, # of connection points: 2
#     Edge 58, Type (0, 0), BuildingBlock: XIVTED_clean_linker_0, # of connection points: 2
#     Edge 59, Type (0, 0), BuildingBlock: XIVTED_clean_linker_0, # of connection points: 2
#     Edge 60, Type (0, 0), BuildingBlock: XIVTED_clean_linker_0, # of connection points: 2
#     Edge 61, Type (0, 0), BuildingBlock: XIVTED_clean_linker_0, # of connection points: 2
#     Edge 62, Type (0, 0), BuildingBlock: XIVTED_clean_linker_0, # of connection points: 2
#     Edge 63, Type (0, 0), BuildingBlock: XIVTED_clean_linker_0, # of connection points: 2
#     Edge 64, Type (0, 0), BuildingBlock: XIVTED_clean_linker_0, # of connection points: 2
#     Edge 65, Type (0, 0), BuildingBlock: XIVTED_clean_linker_0, # of connection points: 2
#     Edge 66, Type (0, 0), BuildingBlock: XIVTED_clean_linker_0, # of connection points: 2
#     Edge 67, Type (0, 0), BuildingBlock: XIVTED_clean_linker_0, # of connection points: 2
#     Edge 68, Type (0, 0), BuildingBlock: XIVTED_clean_linker_0, # of connection points: 2
#     Edge 69, Type (0, 0), BuildingBlock: XIVTED_clean_linker_0, # of connection points: 2
#     Edge 70, Type (0, 0), BuildingBlock: XIVTED_clean_linker_0, # of connection points: 2
#     Edge 71, Type (0, 0), BuildingBlock: XIVTED_clean_linker_0, # of connection points: 2
#     Edge 72, Type (0, 0), BuildingBlock: XIVTED_clean_linker_0, # of connection points: 2
#     Edge 73, Type (0, 0), BuildingBlock: XIVTED_clean_linker_0, # of connection points: 2
#     Edge 74, Type (0, 0), BuildingBlock: XIVTED_clean_linker_0, # of connection points: 2
#     Edge 75, Type (0, 0), BuildingBlock: XIVTED_clean_linker_0, # of connection points: 2
#     Edge 76, Type (0, 0), BuildingBlock: XIVTED_clean_linker_0, # of connection points: 2
#     Edge 77, Type (0, 0), BuildingBlock: XIVTED_clean_linker_0, # of connection points: 2
#     Edge 78, Type (0, 0), BuildingBlock: XIVTED_clean_linker_0, # of connection points: 2
#     Edge 79, Type (0, 0), BuildingBlock: XIVTED_clean_linker_0, # of connection points: 2
#     Edge 80, Type (0, 0), BuildingBlock: XIVTED_clean_linker_0, # of connection points: 2
#     Edge 81, Type (0, 0), BuildingBlock: XIVTED_clean_linker_0, # of connection points: 2
#     Edge 82, Type (0, 0), BuildingBlock: XIVTED_clean_linker_0, # of connection points: 2
#     Edge 83, Type (0, 0), BuildingBlock: XIVTED_clean_linker_0, # of connection points: 2
#     Edge 84, Type (0, 0), BuildingBlock: XIVTED_clean_linker_0, # of connection points: 2
#     Edge 85, Type (0, 0), BuildingBlock: XIVTED_clean_linker_0, # of connection points: 2
#     Edge 86, Type (0, 0), BuildingBlock: XIVTED_clean_linker_0, # of connection points: 2
#     Edge 87, Type (0, 0), BuildingBlock: XIVTED_clean_linker_0, # of connection points: 2
#     Edge 88, Type (0, 0), BuildingBlock: XIVTED_clean_linker_0, # of connection points: 2
#     Edge 89, Type (0, 0), BuildingBlock: XIVTED_clean_linker_0, # of connection points: 2
#     Edge 90, Type (0, 0), BuildingBlock: XIVTED_clean_linker_0, # of connection points: 2
#     Edge 91, Type (0, 0), BuildingBlock: XIVTED_clean_linker_0, # of connection points: 2
#     Edge 92, Type (0, 0), BuildingBlock: XIVTED_clean_linker_0, # of connection points: 2
#     Edge 93, Type (0, 0), BuildingBlock: XIVTED_clean_linker_0, # of connection points: 2
#     Edge 94, Type (0, 0), BuildingBlock: XIVTED_clean_linker_0, # of connection points: 2
#     Edge 95, Type (0, 0), BuildingBlock: XIVTED_clean_linker_0, # of connection points: 2
# Relax obj value: 0.043
# Max RMSD: 0.060
# Mean RMSD: 0.060
data_MOF--net-uos--node1-KUFVIS_clean_sbu_0--edge1-XIVTED_clean_linker_0
_symmetry_space_group_name_H-M    P1
_symmetry_Int_Tables_number       1
_symmetry_cell_setting            triclinic
loop_
_symmetry_equiv_pos_as_xyz
'x, y, z'
_cell_length_a     85.918273
_cell_length_b     85.919881
_cell_length_c     23.094431
_cell_angle_alpha  90.007737
_cell_angle_beta   90.018577
_cell_angle_gamma 90.00555
loop_
_atom_site_label
_atom_site_type_symbol
_atom_site_fract_x
_atom_site_fract_y
_atom_site_fract_z
_atom_type_partial_charge
Mn0 Mn 0.1666 0.16217 0.13164 0.0
Mn1 Mn 0.16493 0.18098 0.26045 0.0
C2 C 0.15803 0.14932 0.21373 0.0
C3 C 0.155 0.1541 0.04447 0.0
C4 C 0.19487 0.16799 0.21184 0.0
O5 O 0.16788 0.18499 0.1066 0.0
O6 O 0.16763 0.19587 0.19547 0.0
C7 C 0.13476 0.19667 0.23949 0.0
N8 N 0.1439 0.18739 0.27308 0.0
C9 C 0.12369 0.18484 0.34458 0.0
C10 C 0.11409 0.19446 0.31092 0.0
C11 C 0.11963 0.20034 0.25805 0.0
C12 C 0.13863 0.18154 0.32374 0.0
H13 H 0.13897 0.20124 0.19886 0.0
C14 C 0.16846 0.19676 0.14026 0.0
O15 O 0.17003 0.15438 0.05066 0.0
O16 O 0.14683 0.1592 0.08761 0.0
N17 N 0.16231 0.16846 0.32828 0.0
C18 C 0.17284 0.15894 0.35465 0.0
C19 C 0.16903 0.15194 0.40776 0.0
C20 C 0.15456 0.15499 0.43366 0.0
C21 C 0.14403 0.16504 0.40623 0.0
C22 C 0.14848 0.17172 0.35345 0.0
H23 H 0.18398 0.15657 0.33502 0.0
O24 O 0.16337 0.14161 0.16984 0.0
O25 O 0.15765 0.16441 0.20851 0.0
O26 O 0.18917 0.16325 0.16363 0.0
O27 O 0.18673 0.17445 0.2514 0.0
C28 C 0.12919 0.16851 0.42873 0.0
C29 C 0.11898 0.17831 0.39772 0.0
H30 H 0.10242 0.19732 0.3251 0.0
H31 H 0.11227 0.20772 0.23172 0.0
H32 H 0.17723 0.1442 0.42864 0.0
H33 H 0.15162 0.14947 0.47438 0.0
H34 H 0.12543 0.16354 0.4695 0.0
H35 H 0.10751 0.18068 0.41503 0.0
Mn36 Mn 0.09416 0.91749 0.38177 0.0
Mn37 Mn 0.07452 0.91455 0.50846 0.0
C38 C 0.10685 0.9091 0.46473 0.0
C39 C 0.10266 0.90599 0.29496 0.0
C40 C 0.08592 0.94536 0.4596 0.0
O41 O 0.07142 0.9182 0.35551 0.0
O42 O 0.05972 0.91477 0.44217 0.0
C43 C 0.062 0.88271 0.49278 0.0
N44 N 0.0702 0.89318 0.52486 0.0
C45 C 0.07434 0.87437 0.60053 0.0
C46 C 0.06584 0.86342 0.56849 0.0
C47 C 0.0597 0.86759 0.51427 0.0
C48 C 0.07626 0.88925 0.57686 0.0
H49 H 0.05729 0.88587 0.45112 0.0
C50 C 0.05933 0.9165 0.3871 0.0
O51 O 0.10217 0.92103 0.30103 0.0
O52 O 0.09767 0.89777 0.3381 0.0
N53 N 0.08718 0.91403 0.57669 0.0
C54 C 0.09609 0.92556 0.60009 0.0
C55 C 0.10348 0.92309 0.65354 0.0
C56 C 0.10153 0.90887 0.68265 0.0
C57 C 0.09224 0.89723 0.65793 0.0
C58 C 0.08512 0.90036 0.60463 0.0
H59 H 0.09769 0.93647 0.57784 0.0
O60 O 0.11465 0.91467 0.42145 0.0
O61 O 0.09183 0.90838 0.45816 0.0
O62 O 0.09237 0.93994 0.41382 0.0
O63 O 0.07881 0.93685 0.49645 0.0
C64 C 0.09002 0.88251 0.68348 0.0
C65 C 0.08118 0.87104 0.6546 0.0
H66 H 0.06406 0.85174 0.58487 0.0
H67 H 0.0532 0.85918 0.48913 0.0
H68 H 0.11071 0.93211 0.67217 0.0
H69 H 0.10737 0.90696 0.72362 0.0
H70 H 0.09532 0.87977 0.72479 0.0
H71 H 0.07985 0.85965 0.67411 0.0
Mn72 Mn 0.33701 0.84432 0.62533 0.0
Mn73 Mn 0.33928 0.82448 0.75157 0.0
C74 C 0.34384 0.85716 0.70985 0.0
C75 C 0.3493 0.85336 0.54091 0.0
C76 C 0.30866 0.83407 0.69588 0.0
O77 O 0.33753 0.82147 0.59919 0.0
O78 O 0.34168 0.80983 0.68564 0.0
C79 C 0.37225 0.81457 0.74599 0.0
N80 N 0.36051 0.82195 0.77448 0.0
C81 C 0.37739 0.82817 0.85441 0.0
C82 C 0.38963 0.82051 0.82613 0.0
C83 C 0.38705 0.81372 0.77161 0.0
C84 C 0.36286 0.82856 0.82689 0.0
H85 H 0.37033 0.80943 0.70397 0.0
C86 C 0.3402 0.80947 0.63046 0.0
O87 O 0.33426 0.85193 0.54359 0.0
O88 O 0.35711 0.84886 0.58582 0.0
N89 N 0.3373 0.83727 0.81906 0.0
C90 C 0.32466 0.84535 0.83821 0.0
C91 C 0.32551 0.85342 0.89101 0.0
C92 C 0.33929 0.85301 0.92374 0.0
C93 C 0.3521 0.84452 0.90339 0.0
C94 C 0.35054 0.83662 0.85064 0.0
H95 H 0.31404 0.84571 0.81327 0.0
O96 O 0.33855 0.8649 0.66585 0.0
O97 O 0.34509 0.84221 0.70287 0.0
O98 O 0.31435 0.84178 0.65348 0.0
O99 O 0.31696 0.82672 0.73279 0.0
C100 C 0.36649 0.84392 0.93261 0.0
C101 C 0.37914 0.83579 0.90807 0.0
H102 H 0.40109 0.81993 0.84553 0.0
H103 H 0.39646 0.80788 0.74932 0.0
H104 H 0.31558 0.85997 0.90636 0.0
H105 H 0.33995 0.85938 0.96415 0.0
H106 H 0.36806 0.84996 0.97338 0.0
H107 H 0.39024 0.8357 0.93032 0.0
Mn108 Mn 0.41236 0.08834 0.88457 0.0
Mn109 Mn 0.43146 0.09163 0.01224 0.0
C110 C 0.39919 0.0964 0.96703 0.0
C111 C 0.40403 0.09976 0.79741 0.0
C112 C 0.42121 0.06057 0.9614 0.0
O113 O 0.43528 0.08798 0.85985 0.0
O114 O 0.44647 0.09259 0.94676 0.0
C115 C 0.44228 0.12419 1.00003 0.0
N116 N 0.43469 0.11305 0.03098 0.0
C117 C 0.42955 0.13104 0.10855 0.0
C118 C 0.43752 0.14264 0.07786 0.0
C119 C 0.44383 0.13922 0.0232 0.0
C120 C 0.42838 0.11627 0.08323 0.0
H121 H 0.44702 0.12162 0.9579 0.0
C122 C 0.44715 0.0906 0.89183 0.0
O123 O 0.40476 0.08474 0.80333 0.0
O124 O 0.40872 0.10804 0.84091 0.0
N125 N 0.41851 0.09107 0.0797 0.0
C126 C 0.40999 0.07902 0.10127 0.0
C127 C 0.40235 0.08073 0.15462 0.0
C128 C 0.40364 0.09475 0.1855 0.0
C129 C 0.41253 0.10697 0.16259 0.0
C130 C 0.41993 0.10457 0.10932 0.0
H131 H 0.40891 0.06823 0.07772 0.0
O132 O 0.39163 0.09081 0.92317 0.0
O133 O 0.41419 0.09734 0.9612 0.0
O134 O 0.41438 0.06594 0.91635 0.0
O135 O 0.42829 0.06918 0.99809 0.0
C136 C 0.41406 0.12155 0.18993 0.0
C137 C 0.42247 0.13361 0.16273 0.0
H138 H 0.4387 0.15426 0.09552 0.0
H139 H 0.44987 0.14816 0.99898 0.0
H140 H 0.39543 0.07127 0.17184 0.0
H141 H 0.39762 0.09608 0.22639 0.0
H142 H 0.40851 0.12372 0.23125 0.0
H143 H 0.42322 0.14489 0.18351 0.0
Mn144 Mn 0.16804 0.8433 0.87832 0.0
Mn145 Mn 0.16427 0.82326 0.75315 0.0
C146 C 0.15958 0.85594 0.79541 0.0
C147 C 0.15689 0.85187 0.96562 0.0
C148 C 0.19547 0.83339 0.8031 0.0
O149 O 0.16879 0.8204 0.90421 0.0
O150 O 0.16243 0.80874 0.81964 0.0
C151 C 0.13134 0.81347 0.76302 0.0
N152 N 0.14285 0.82072 0.73284 0.0
C153 C 0.12535 0.82665 0.6545 0.0
C154 C 0.11334 0.81909 0.68447 0.0
C155 C 0.11634 0.81252 0.73906 0.0
C156 C 0.14008 0.82715 0.68042 0.0
H157 H 0.13358 0.80852 0.80512 0.0
C158 C 0.1652 0.8084 0.87413 0.0
O159 O 0.1719 0.85127 0.95882 0.0
O160 O 0.14848 0.84686 0.92296 0.0
N161 N 0.16567 0.83595 0.68517 0.0
C162 C 0.17815 0.84396 0.66425 0.0
C163 C 0.17688 0.85183 0.61117 0.0
C164 C 0.16287 0.85128 0.57992 0.0
C165 C 0.15023 0.84285 0.60204 0.0
C166 C 0.1522 0.83516 0.65501 0.0
H167 H 0.18897 0.84441 0.68796 0.0
O168 O 0.16513 0.86382 0.83857 0.0
O169 O 0.15884 0.84096 0.8025 0.0
O170 O 0.19024 0.84156 0.84508 0.0
O171 O 0.18678 0.82549 0.76908 0.0
C172 C 0.13563 0.84212 0.57437 0.0
C173 C 0.12318 0.83407 0.60066 0.0
H174 H 0.10173 0.81844 0.66634 0.0
H175 H 0.1071 0.80679 0.76269 0.0
H176 H 0.18668 0.85834 0.59444 0.0
H177 H 0.16189 0.8575 0.53929 0.0
H178 H 0.13374 0.848 0.53347 0.0
H179 H 0.11192 0.83389 0.57959 0.0
Mn180 Mn 0.41149 0.91754 0.11992 0.0
Mn181 Mn 0.43014 0.91435 0.99147 0.0
C182 C 0.39787 0.91043 0.03723 0.0
C183 C 0.40275 0.9057 0.20572 0.0
C184 C 0.42091 0.94544 0.0445 0.0
O185 O 0.43443 0.91687 0.1441 0.0
O186 O 0.44536 0.913 0.05632 0.0
C187 C 0.44033 0.88156 0.00257 0.0
N188 N 0.4329 0.8929 0.97211 0.0
C189 C 0.42719 0.87515 0.89433 0.0
C190 C 0.43502 0.86334 0.92444 0.0
C191 C 0.44154 0.86654 0.97897 0.0
C192 C 0.42638 0.88989 0.92003 0.0
H193 H 0.4452 0.88395 0.04466 0.0
C194 C 0.4462 0.91448 0.11145 0.0
O195 O 0.40442 0.92072 0.20224 0.0
O196 O 0.40691 0.89769 0.1609 0.0
N197 N 0.417 0.91526 0.92457 0.0
C198 C 0.40857 0.92749 0.90381 0.0
C199 C 0.40066 0.92599 0.85088 0.0
C200 C 0.4016 0.912 0.8196 0.0
C201 C 0.4104 0.89961 0.84169 0.0
C202 C 0.41805 0.90179 0.89461 0.0
H203 H 0.40775 0.93824 0.92772 0.0
O204 O 0.3906 0.91616 0.08154 0.0
O205 O 0.41284 0.90894 0.04266 0.0
O206 O 0.41437 0.94007 0.09016 0.0
O207 O 0.4274 0.9368 0.00645 0.0
C208 C 0.41159 0.88506 0.8139 0.0
C209 C 0.41989 0.8728 0.84039 0.0
H210 H 0.43592 0.85173 0.90647 0.0
H211 H 0.44745 0.85745 0.00279 0.0
H212 H 0.39382 0.93558 0.8343 0.0
H213 H 0.39539 0.91084 0.77901 0.0
H214 H 0.40585 0.88305 0.7728 0.0
H215 H 0.42037 0.86155 0.81932 0.0
Mn216 Mn 0.33742 0.16129 0.38096 0.0
Mn217 Mn 0.33972 0.18072 0.25348 0.0
C218 C 0.346 0.14867 0.29832 0.0
C219 C 0.34894 0.153 0.46799 0.0
C220 C 0.30931 0.16855 0.30264 0.0
O221 O 0.33633 0.18407 0.40664 0.0
O222 O 0.33878 0.19563 0.31925 0.0
C223 C 0.37107 0.19435 0.26994 0.0
N224 N 0.36098 0.18574 0.2377 0.0
C225 C 0.38027 0.1817 0.16367 0.0
C226 C 0.39084 0.19063 0.1959 0.0
C227 C 0.38623 0.19694 0.24934 0.0
C228 C 0.36531 0.17955 0.18634 0.0
H229 H 0.36759 0.19918 0.3111 0.0
C230 C 0.33732 0.19611 0.3744 0.0
O231 O 0.33391 0.15335 0.46167 0.0
O232 O 0.35716 0.15811 0.42499 0.0
N233 N 0.34083 0.16797 0.18557 0.0
C234 C 0.3296 0.15878 0.16172 0.0
C235 C 0.3325 0.15126 0.10882 0.0
C236 C 0.34684 0.15337 0.08072 0.0
C237 C 0.35816 0.16301 0.10577 0.0
C238 C 0.35456 0.1703 0.15835 0.0
H239 H 0.31858 0.15707 0.18317 0.0
O240 O 0.34058 0.14081 0.34173 0.0
O241 O 0.34642 0.16372 0.30449 0.0
O242 O 0.31496 0.16259 0.34895 0.0
O243 O 0.31756 0.17567 0.26503 0.0
C244 C 0.37302 0.16532 0.08147 0.0
C245 C 0.38409 0.1746 0.11052 0.0
H246 H 0.40257 0.19259 0.1803 0.0
H247 H 0.39435 0.20377 0.27462 0.0
H248 H 0.32372 0.1438 0.08987 0.0
H249 H 0.3491 0.1474 0.04028 0.0
H250 H 0.37616 0.15975 0.04103 0.0
H251 H 0.39558 0.17604 0.09195 0.0
Mn252 Mn 0.09322 0.08767 0.62813 0.0
Mn253 Mn 0.07378 0.09105 0.50111 0.0
C254 C 0.106 0.09641 0.54594 0.0
C255 C 0.10152 0.09891 0.71571 0.0
C256 C 0.08505 0.06006 0.5492 0.0
O257 O 0.07041 0.08666 0.65354 0.0
O258 O 0.05886 0.09096 0.56706 0.0
C259 C 0.06177 0.12307 0.51702 0.0
N260 N 0.06978 0.11249 0.48483 0.0
C261 C 0.07457 0.13142 0.41007 0.0
C262 C 0.0662 0.14246 0.44215 0.0
C263 C 0.05983 0.13828 0.49597 0.0
C264 C 0.07606 0.11642 0.43319 0.0
H265 H 0.05696 0.11993 0.55852 0.0
C266 C 0.05839 0.08883 0.62194 0.0
O267 O 0.10109 0.08389 0.7089 0.0
O268 O 0.09652 0.10725 0.67289 0.0
N269 N 0.08659 0.09148 0.43326 0.0
C270 C 0.09538 0.07985 0.40994 0.0
C271 C 0.103 0.08231 0.35693 0.0
C272 C 0.10143 0.09663 0.32823 0.0
C273 C 0.09225 0.10838 0.35283 0.0
C274 C 0.08483 0.10522 0.40554 0.0
H275 H 0.09671 0.06886 0.4319 0.0
O276 O 0.11379 0.09078 0.58917 0.0
O277 O 0.09098 0.09698 0.5522 0.0
O278 O 0.09164 0.06538 0.59486 0.0
O279 O 0.07779 0.06864 0.51295 0.0
C280 C 0.09054 0.12326 0.32796 0.0
C281 C 0.08176 0.13479 0.35669 0.0
H282 H 0.06476 0.15423 0.4262 0.0
H283 H 0.05347 0.14678 0.52121 0.0
H284 H 0.11013 0.0732 0.33838 0.0
H285 H 0.10748 0.09854 0.2877 0.0
H286 H 0.0962 0.12606 0.28738 0.0
H287 H 0.0808 0.14628 0.33774 0.0
Mn288 Mn 0.83804 0.84333 0.87475 0.0
Mn289 Mn 0.84079 0.8239 0.74745 0.0
C290 C 0.84686 0.85596 0.79256 0.0
C291 C 0.84926 0.85167 0.96221 0.0
C292 C 0.81022 0.83618 0.79459 0.0
O293 O 0.83698 0.82059 0.90062 0.0
O294 O 0.83921 0.80901 0.81323 0.0
C295 C 0.87181 0.80985 0.76704 0.0
N296 N 0.86208 0.81861 0.73382 0.0
C297 C 0.88198 0.82241 0.66187 0.0
C298 C 0.89218 0.81333 0.69512 0.0
C299 C 0.88708 0.80706 0.748 0.0
C300 C 0.86688 0.82475 0.68298 0.0
H301 H 0.86796 0.80505 0.80777 0.0
C302 C 0.83773 0.80854 0.86837 0.0
O303 O 0.83425 0.85129 0.95527 0.0
O304 O 0.85762 0.8466 0.91957 0.0
N305 N 0.84253 0.83656 0.67951 0.0
C306 C 0.83158 0.84583 0.65437 0.0
C307 C 0.83496 0.85329 0.60176 0.0
C308 C 0.84949 0.85104 0.57525 0.0
C309 C 0.86052 0.84132 0.60159 0.0
C310 C 0.85645 0.83409 0.65381 0.0
H311 H 0.82042 0.84767 0.67465 0.0
O312 O 0.84123 0.8638 0.83566 0.0
O313 O 0.84734 0.84091 0.79872 0.0
O314 O 0.81567 0.8419 0.84168 0.0
O315 O 0.81863 0.82925 0.75698 0.0
C316 C 0.87555 0.83886 0.57892 0.0
C317 C 0.88629 0.82946 0.60916 0.0
H318 H 0.90399 0.81121 0.68072 0.0
H319 H 0.89491 0.80011 0.77405 0.0
H320 H 0.82641 0.86083 0.58181 0.0
H321 H 0.85213 0.85697 0.53503 0.0
H322 H 0.87906 0.84437 0.53882 0.0
H323 H 0.89789 0.82788 0.59179 0.0
Mn324 Mn 0.91117 0.08704 0.62497 0.0
Mn325 Mn 0.93205 0.09013 0.5015 0.0
C326 C 0.89933 0.0958 0.54083 0.0
C327 C 0.90234 0.0984 0.71148 0.0
C328 C 0.92084 0.05926 0.55081 0.0
O329 O 0.93385 0.08585 0.65302 0.0
O330 O 0.94625 0.09137 0.56907 0.0
C331 C 0.94308 0.12264 0.51256 0.0
N332 N 0.93544 0.11147 0.48188 0.0
C333 C 0.93054 0.12925 0.40345 0.0
C334 C 0.93845 0.14092 0.43404 0.0
C335 C 0.94469 0.13761 0.48891 0.0
C336 C 0.92931 0.11454 0.42918 0.0
H337 H 0.94787 0.12014 0.55475 0.0
C338 C 0.94614 0.08882 0.62369 0.0
O339 O 0.90262 0.08338 0.70472 0.0
O340 O 0.90774 0.10669 0.66918 0.0
N341 N 0.91968 0.08924 0.43262 0.0
C342 C 0.91142 0.07705 0.41075 0.0
C343 C 0.90389 0.07863 0.35708 0.0
C344 C 0.90507 0.09267 0.32621 0.0
C345 C 0.91376 0.10501 0.34933 0.0
C346 C 0.92103 0.10274 0.40294 0.0
H347 H 0.91052 0.06621 0.43414 0.0
O348 O 0.891 0.09041 0.58312 0.0
O349 O 0.91426 0.09613 0.54942 0.0
O350 O 0.91265 0.06474 0.59231 0.0
O351 O 0.929 0.06771 0.51691 0.0
C352 C 0.91524 0.11957 0.32182 0.0
C353 C 0.92356 0.1317 0.34898 0.0
H354 H 0.93966 0.1525 0.41606 0.0
H355 H 0.95074 0.14659 0.51292 0.0
H356 H 0.89719 0.06906 0.33955 0.0
H357 H 0.89916 0.09389 0.28502 0.0
H358 H 0.90976 0.12165 0.2803 0.0
H359 H 0.92433 0.14295 0.32796 0.0
Mn360 Mn 0.66831 0.16124 0.37585 0.0
Mn361 Mn 0.66588 0.18079 0.24918 0.0
C362 C 0.66166 0.14811 0.29166 0.0
C363 C 0.6562 0.15244 0.46086 0.0
C364 C 0.69656 0.1718 0.30579 0.0
O365 O 0.66761 0.18418 0.40108 0.0
O366 O 0.66289 0.19551 0.3145 0.0
C367 C 0.63267 0.18994 0.25271 0.0
N368 N 0.6447 0.18278 0.22508 0.0
C369 C 0.62842 0.1764 0.14366 0.0
C370 C 0.61589 0.18383 0.17101 0.0
C371 C 0.61802 0.19057 0.22589 0.0
C372 C 0.64276 0.17615 0.17249 0.0
H373 H 0.63427 0.19507 0.29492 0.0
C374 C 0.66451 0.19603 0.36961 0.0
O375 O 0.67122 0.15398 0.45781 0.0
O376 O 0.64828 0.15664 0.4158 0.0
N377 N 0.66842 0.1679 0.18221 0.0
C378 C 0.68132 0.16008 0.16394 0.0
C379 C 0.68092 0.15206 0.11097 0.0
C380 C 0.66734 0.1523 0.07707 0.0
C381 C 0.65426 0.16053 0.09654 0.0
C382 C 0.65535 0.16832 0.14966 0.0
H383 H 0.69181 0.15991 0.18965 0.0
O384 O 0.66694 0.14053 0.33607 0.0
O385 O 0.66025 0.16306 0.29815 0.0
O386 O 0.69093 0.16389 0.34773 0.0
O387 O 0.6882 0.17912 0.26904 0.0
C388 C 0.6401 0.16108 0.06586 0.0
C389 C 0.62717 0.16896 0.08949 0.0
H390 H 0.60455 0.18428 0.15057 0.0
H391 H 0.60837 0.19623 0.24747 0.0
H392 H 0.69105 0.14571 0.0963 0.0
H393 H 0.66705 0.14602 0.03642 0.0
H394 H 0.63893 0.15519 0.02461 0.0
H395 H 0.61624 0.169 0.06608 0.0
Mn396 Mn 0.59364 0.91761 0.12346 0.0
Mn397 Mn 0.57348 0.91499 0.99805 0.0
C398 C 0.60611 0.90963 0.03956 0.0
C399 C 0.6023 0.90602 0.20974 0.0
C400 C 0.58403 0.94568 0.05069 0.0
O401 O 0.57079 0.91823 0.1499 0.0
O402 O 0.55898 0.91309 0.06447 0.0
C403 C 0.563 0.88223 0.0056 0.0
N404 N 0.57053 0.89374 0.97633 0.0
C405 C 0.57604 0.87656 0.8966 0.0
C406 C 0.56823 0.86455 0.9257 0.0
C407 C 0.56174 0.86739 0.98053 0.0
C408 C 0.5769 0.89112 0.92371 0.0
H409 H 0.55804 0.88437 0.04776 0.0
C410 C 0.55872 0.91526 0.11932 0.0
O411 O 0.60169 0.92105 0.20395 0.0
O412 O 0.59725 0.8978 0.1666 0.0
N413 N 0.58612 0.91653 0.93004 0.0
C414 C 0.59422 0.92902 0.90966 0.0
C415 C 0.60193 0.92792 0.85621 0.0
C416 C 0.6011 0.91408 0.824 0.0
C417 C 0.59256 0.90144 0.84556 0.0
C418 C 0.58508 0.90323 0.89901 0.0
H419 H 0.59486 0.93971 0.93407 0.0
O420 O 0.61408 0.91487 0.08307 0.0
O421 O 0.59113 0.90893 0.04679 0.0
O422 O 0.59199 0.94003 0.09246 0.0
O423 O 0.57612 0.93737 0.01552 0.0
C424 C 0.59144 0.88704 0.81668 0.0
C425 C 0.58325 0.87459 0.8423 0.0
H426 H 0.56729 0.85307 0.90662 0.0
H427 H 0.55578 0.85816 0.00341 0.0
H428 H 0.60852 0.93772 0.83989 0.0
H429 H 0.60717 0.91324 0.783 0.0
H430 H 0.59711 0.88532 0.77527 0.0
H431 H 0.58276 0.86347 0.82024 0.0
Mn432 Mn 0.83772 0.16183 0.12815 0.0
Mn433 Mn 0.84097 0.18237 0.25231 0.0
C434 C 0.84645 0.1497 0.21181 0.0
C435 C 0.84905 0.15324 0.04129 0.0
C436 C 0.81002 0.17144 0.20259 0.0
O437 O 0.83654 0.18461 0.10107 0.0
O438 O 0.84251 0.1967 0.18521 0.0
C439 C 0.87365 0.19295 0.24229 0.0
N440 N 0.86231 0.18544 0.27255 0.0
C441 C 0.87989 0.18021 0.35133 0.0
C442 C 0.89172 0.18801 0.32123 0.0
C443 C 0.8886 0.19435 0.26636 0.0
C444 C 0.86522 0.1792 0.32518 0.0
H445 H 0.8713 0.19778 0.20006 0.0
C446 C 0.83982 0.19678 0.13066 0.0
O447 O 0.83404 0.1535 0.04804 0.0
O448 O 0.85735 0.15852 0.08378 0.0
N449 N 0.83983 0.16984 0.32074 0.0
C450 C 0.82751 0.16165 0.34201 0.0
C451 C 0.82892 0.154 0.39549 0.0
C452 C 0.8429 0.15498 0.42681 0.0
C453 C 0.85537 0.16359 0.40431 0.0
C454 C 0.85328 0.171 0.35085 0.0
H455 H 0.81671 0.1609 0.31831 0.0
O456 O 0.84106 0.14152 0.16911 0.0
O457 O 0.84683 0.16466 0.20382 0.0
O458 O 0.81546 0.16324 0.16104 0.0
O459 O 0.81852 0.1796 0.23639 0.0
C460 C 0.86989 0.16487 0.43227 0.0
C461 C 0.88216 0.17311 0.40569 0.0
H462 H 0.90328 0.18905 0.33954 0.0
H463 H 0.8977 0.20029 0.24268 0.0
H464 H 0.81925 0.14736 0.41254 0.0
H465 H 0.84398 0.14897 0.46785 0.0
H466 H 0.87184 0.15928 0.47368 0.0
H467 H 0.89338 0.17371 0.42702 0.0
Mn468 Mn 0.59464 0.0875 0.88088 0.0
Mn469 Mn 0.57558 0.09029 0.00854 0.0
C470 C 0.60804 0.09454 0.96396 0.0
C471 C 0.60311 0.09944 0.79505 0.0
C472 C 0.5845 0.05945 0.95295 0.0
O473 O 0.57163 0.08798 0.85684 0.0
O474 O 0.56056 0.0928 0.94385 0.0
C475 C 0.56608 0.12338 0.00325 0.0
N476 N 0.57349 0.11157 0.03129 0.0
C477 C 0.58037 0.12843 0.1105 0.0
C478 C 0.57269 0.14074 0.0827 0.0
C479 C 0.56556 0.13821 0.02875 0.0
C480 C 0.58043 0.11389 0.08312 0.0
H481 H 0.56067 0.12149 0.96167 0.0
C482 C 0.55986 0.091 0.88885 0.0
O483 O 0.60166 0.08441 0.79866 0.0
O484 O 0.59897 0.10744 0.83999 0.0
N485 N 0.58879 0.08822 0.0749 0.0
C486 C 0.59683 0.0755 0.09353 0.0
C487 C 0.60522 0.07629 0.14565 0.0
C488 C 0.60516 0.09009 0.17826 0.0
C489 C 0.59671 0.10299 0.15845 0.0
C490 C 0.58849 0.10149 0.10635 0.0
H491 H 0.5969 0.06485 0.06871 0.0
O492 O 0.61549 0.0891 0.91951 0.0
O493 O 0.59306 0.09581 0.95818 0.0
O494 O 0.59217 0.06497 0.91016 0.0
O495 O 0.57738 0.0679 0.98996 0.0
C496 C 0.59643 0.1174 0.18759 0.0
C497 C 0.58831 0.13013 0.16355 0.0
H498 H 0.57237 0.15223 0.10201 0.0
H499 H 0.55971 0.14768 0.00682 0.0
H500 H 0.61174 0.0663 0.16059 0.0
H501 H 0.61177 0.09071 0.21815 0.0
H502 H 0.60271 0.11892 0.22789 0.0
H503 H 0.58848 0.14124 0.1857 0.0
Mn504 Mn 0.66773 0.84388 0.62686 0.0
Mn505 Mn 0.66489 0.82446 0.75409 0.0
C506 C 0.65887 0.85655 0.70898 0.0
C507 C 0.65639 0.852 0.53938 0.0
C508 C 0.69554 0.83655 0.7065 0.0
O509 O 0.66892 0.82114 0.60122 0.0
O510 O 0.66603 0.80953 0.6883 0.0
C511 C 0.6336 0.81085 0.73601 0.0
N512 N 0.64357 0.81949 0.76872 0.0
C513 C 0.62397 0.8236 0.84158 0.0
C514 C 0.61353 0.81465 0.80887 0.0
C515 C 0.61835 0.80829 0.75578 0.0
C516 C 0.63903 0.82571 0.81976 0.0
H517 H 0.63724 0.80599 0.69512 0.0
C518 C 0.66774 0.80908 0.63324 0.0
O519 O 0.67141 0.85178 0.54615 0.0
O520 O 0.6481 0.84694 0.58225 0.0
N521 N 0.66354 0.83721 0.82192 0.0
C522 C 0.67467 0.84642 0.8463 0.0
C523 C 0.67156 0.854 0.89891 0.0
C524 C 0.6571 0.85194 0.92618 0.0
C525 C 0.64587 0.8423 0.90057 0.0
C526 C 0.64968 0.83495 0.84831 0.0
H527 H 0.68578 0.84812 0.82543 0.0
O528 O 0.66444 0.86438 0.66576 0.0
O529 O 0.65845 0.8415 0.70288 0.0
O530 O 0.6901 0.84256 0.65991 0.0
O531 O 0.68711 0.82946 0.74365 0.0
C532 C 0.6309 0.84005 0.92399 0.0
C533 C 0.61993 0.83076 0.89441 0.0
H534 H 0.60174 0.81271 0.82383 0.0
H535 H 0.61034 0.80144 0.73013 0.0
H536 H 0.68026 0.86147 0.91828 0.0
H537 H 0.65467 0.85796 0.96639 0.0
H538 H 0.62759 0.84566 0.96416 0.0
H539 H 0.60837 0.82934 0.91232 0.0
Mn540 Mn 0.91192 0.91734 0.37815 0.0
Mn541 Mn 0.9319 0.91493 0.50392 0.0
C542 C 0.8994 0.90912 0.46163 0.0
C543 C 0.90371 0.90556 0.29158 0.0
C544 C 0.92105 0.94551 0.45105 0.0
O545 O 0.93483 0.91848 0.35253 0.0
O546 O 0.94654 0.91306 0.43789 0.0
C547 C 0.94261 0.88223 0.49703 0.0
N548 N 0.93497 0.89372 0.52601 0.0
C549 C 0.9295 0.8766 0.60592 0.0
C550 C 0.93743 0.86462 0.57715 0.0
C551 C 0.94396 0.86743 0.52237 0.0
C552 C 0.92855 0.89111 0.57856 0.0
H553 H 0.94759 0.88435 0.45487 0.0
C554 C 0.94687 0.91544 0.38317 0.0
O555 O 0.90397 0.92061 0.29734 0.0
O556 O 0.90884 0.89747 0.33489 0.0
N557 N 0.91913 0.91644 0.5716 0.0
C558 C 0.9109 0.92888 0.59162 0.0
C559 C 0.90313 0.92779 0.64495 0.0
C560 C 0.90403 0.914 0.67742 0.0
C561 C 0.9127 0.90141 0.65623 0.0
C562 C 0.92024 0.90319 0.60289 0.0
H563 H 0.91022 0.93954 0.56704 0.0
O564 O 0.89144 0.91419 0.41787 0.0
O565 O 0.9144 0.90869 0.45482 0.0
O566 O 0.91309 0.93978 0.40941 0.0
O567 O 0.92911 0.93727 0.48603 0.0
C568 C 0.9139 0.88706 0.68538 0.0
C569 C 0.92223 0.87464 0.66012 0.0
H570 H 0.93843 0.85317 0.59644 0.0
H571 H 0.95 0.85821 0.49971 0.0
H572 H 0.89644 0.93756 0.66098 0.0
H573 H 0.89792 0.91316 0.71832 0.0
H574 H 0.90819 0.88534 0.7267 0.0
H575 H 0.92278 0.86356 0.68239 0.0
Mn576 Mn 0.66854 0.6617 0.62367 0.0
Mn577 Mn 0.66611 0.68168 0.7495 0.0
C578 C 0.66006 0.64926 0.70689 0.0
C579 C 0.65669 0.65365 0.53696 0.0
C580 C 0.69668 0.67052 0.69738 0.0
O581 O 0.66992 0.68457 0.59808 0.0
O582 O 0.66466 0.69637 0.68343 0.0
C583 C 0.63361 0.69291 0.74135 0.0
N584 N 0.64488 0.68507 0.77076 0.0
C585 C 0.6274 0.67971 0.84968 0.0
C586 C 0.61563 0.68784 0.82044 0.0
C587 C 0.61874 0.69443 0.76596 0.0
C588 C 0.64201 0.67865 0.82311 0.0
H589 H 0.63595 0.69793 0.6994 0.0
C590 C 0.66707 0.69665 0.62872 0.0
O591 O 0.67174 0.65371 0.54281 0.0
O592 O 0.64866 0.65885 0.58027 0.0
N593 N 0.66721 0.66886 0.81718 0.0
C594 C 0.67944 0.66037 0.83751 0.0
C595 C 0.67803 0.65248 0.89052 0.0
C596 C 0.66413 0.65352 0.92231 0.0
C597 C 0.65176 0.66246 0.90081 0.0
C598 C 0.65387 0.67013 0.84788 0.0
H599 H 0.69017 0.65954 0.81337 0.0
O600 O 0.66514 0.64125 0.66328 0.0
O601 O 0.6598 0.66427 0.70009 0.0
O602 O 0.69096 0.66268 0.65536 0.0
O603 O 0.68844 0.67856 0.73242 0.0
C604 C 0.63728 0.66372 0.92907 0.0
C605 C 0.62509 0.6723 0.90344 0.0
H606 H 0.60411 0.68895 0.83909 0.0
H607 H 0.60969 0.70063 0.74295 0.0
H608 H 0.68763 0.64559 0.90679 0.0
H609 H 0.66304 0.6473 0.96289 0.0
H610 H 0.63529 0.65787 0.96994 0.0
H611 H 0.61392 0.67292 0.925 0.0
Mn612 Mn 0.59426 0.41745 0.88352 0.0
Mn613 Mn 0.57596 0.41603 0.01302 0.0
C614 C 0.60762 0.40983 0.96575 0.0
C615 C 0.60252 0.40546 0.79737 0.0
C616 C 0.58807 0.44597 0.96228 0.0
O617 O 0.57138 0.41764 0.85919 0.0
O618 O 0.56087 0.41869 0.94847 0.0
C619 C 0.56032 0.38579 0.99282 0.0
N620 N 0.56968 0.39497 0.02597 0.0
C621 C 0.57252 0.37479 0.09743 0.0
C622 C 0.56284 0.36514 0.06422 0.0
C623 C 0.55676 0.37065 0.01158 0.0
C624 C 0.5757 0.38974 0.0764 0.0
H625 H 0.5556 0.38997 0.95239 0.0
C626 C 0.55975 0.41886 0.89322 0.0
O627 O 0.60139 0.42051 0.80134 0.0
O628 O 0.59814 0.39749 0.84203 0.0
N629 N 0.58866 0.4135 0.08047 0.0
C630 C 0.59823 0.42406 0.1064 0.0
C631 C 0.60542 0.42028 0.15917 0.0
C632 C 0.60252 0.4058 0.1852 0.0
C633 C 0.59242 0.39522 0.15822 0.0
C634 C 0.58557 0.39964 0.10572 0.0
H635 H 0.60047 0.43521 0.08664 0.0
O636 O 0.61503 0.41532 0.92136 0.0
O637 O 0.59255 0.40889 0.96102 0.0
O638 O 0.5923 0.44022 0.91346 0.0
O639 O 0.58239 0.43782 0.00339 0.0
C640 C 0.58906 0.38038 0.18095 0.0
C641 C 0.57922 0.37012 0.15035 0.0
H642 H 0.56006 0.35347 0.07856 0.0
H643 H 0.54933 0.36326 0.9856 0.0
H644 H 0.61321 0.42851 0.17969 0.0
H645 H 0.60818 0.40288 0.22568 0.0
H646 H 0.59416 0.37665 0.22155 0.0
H647 H 0.57693 0.35865 0.16782 0.0
Mn648 Mn 0.83702 0.34373 0.12893 0.0
Mn649 Mn 0.84036 0.32355 0.25389 0.0
C650 C 0.84539 0.35625 0.21221 0.0
C651 C 0.84846 0.35217 0.04205 0.0
C652 C 0.80933 0.33389 0.20308 0.0
O653 O 0.83621 0.3209 0.10263 0.0
O654 O 0.84212 0.30904 0.18726 0.0
C655 C 0.87315 0.31328 0.24474 0.0
N656 N 0.86172 0.32077 0.27454 0.0
C657 C 0.87923 0.32665 0.35291 0.0
C658 C 0.89117 0.31888 0.32325 0.0
C659 C 0.88812 0.31221 0.26887 0.0
C660 C 0.86452 0.32726 0.32686 0.0
H661 H 0.87086 0.30821 0.20284 0.0
C662 C 0.83952 0.30883 0.13264 0.0
O663 O 0.83343 0.35176 0.04832 0.0
O664 O 0.85671 0.34715 0.08509 0.0
N665 N 0.839 0.33623 0.32187 0.0
C666 C 0.82659 0.34439 0.34256 0.0
C667 C 0.82791 0.35234 0.39547 0.0
C668 C 0.84191 0.35173 0.42676 0.0
C669 C 0.85449 0.34316 0.40487 0.0
C670 C 0.85246 0.33539 0.35207 0.0
H671 H 0.81579 0.34489 0.31876 0.0
O672 O 0.83996 0.3642 0.169 0.0
O673 O 0.84604 0.34126 0.20497 0.0
O674 O 0.8147 0.34206 0.16133 0.0
O675 O 0.8179 0.32599 0.23747 0.0
C676 C 0.86908 0.34236 0.4326 0.0
C677 C 0.88145 0.33414 0.40658 0.0
H678 H 0.90276 0.31813 0.34151 0.0
H679 H 0.8973 0.30629 0.24554 0.0
H680 H 0.81816 0.35895 0.41202 0.0
H681 H 0.84293 0.35801 0.46726 0.0
H682 H 0.871 0.34829 0.47337 0.0
H683 H 0.89271 0.33388 0.42772 0.0
Mn684 Mn 0.91209 0.58731 0.37757 0.0
Mn685 Mn 0.93186 0.59031 0.50359 0.0
C686 C 0.89937 0.59566 0.46047 0.0
C687 C 0.90387 0.59889 0.29061 0.0
C688 C 0.92152 0.55944 0.45143 0.0
O689 O 0.93503 0.58641 0.35238 0.0
O690 O 0.94658 0.59224 0.43773 0.0
C691 C 0.94219 0.62313 0.49612 0.0
N692 N 0.93464 0.6116 0.52523 0.0
C693 C 0.92866 0.62888 0.60421 0.0
C694 C 0.93651 0.64089 0.57532 0.0
C695 C 0.94326 0.63801 0.52095 0.0
C696 C 0.92805 0.61426 0.57746 0.0
H697 H 0.94729 0.62097 0.4542 0.0
C698 C 0.947 0.58971 0.38307 0.0
O699 O 0.90425 0.58385 0.29664 0.0
O700 O 0.90887 0.60707 0.33387 0.0
N701 N 0.91894 0.58881 0.57091 0.0
C702 C 0.91066 0.57637 0.59068 0.0
C703 C 0.90259 0.57755 0.64336 0.0
C704 C 0.9032 0.59143 0.67537 0.0
C705 C 0.9119 0.60403 0.65441 0.0
C706 C 0.91978 0.60216 0.60179 0.0
H707 H 0.91016 0.56566 0.56636 0.0
O708 O 0.89151 0.59033 0.41686 0.0
O709 O 0.91438 0.5962 0.45388 0.0
O710 O 0.91349 0.56495 0.40955 0.0
O711 O 0.92941 0.56789 0.48628 0.0
C712 C 0.91272 0.61852 0.68289 0.0
C713 C 0.92106 0.63094 0.65774 0.0
H714 H 0.93726 0.65242 0.59413 0.0
H715 H 0.94923 0.64725 0.49817 0.0
H716 H 0.89587 0.56778 0.6592 0.0
H717 H 0.89683 0.59235 0.7157 0.0
H718 H 0.9067 0.62033 0.72355 0.0
H719 H 0.92132 0.64212 0.67942 0.0
Mn720 Mn 0.66771 0.34338 0.37854 0.0
Mn721 Mn 0.66514 0.32429 0.25088 0.0
C722 C 0.66081 0.35673 0.29515 0.0
C723 C 0.65564 0.35193 0.4641 0.0
C724 C 0.69589 0.33331 0.30702 0.0
O725 O 0.66723 0.32034 0.40264 0.0
O726 O 0.66235 0.30933 0.31558 0.0
C727 C 0.63192 0.31517 0.2554 0.0
N728 N 0.64389 0.32231 0.22741 0.0
C729 C 0.62729 0.32916 0.14739 0.0
C730 C 0.61484 0.32168 0.17502 0.0
C731 C 0.61715 0.31471 0.22938 0.0
C732 C 0.64176 0.32917 0.17532 0.0
H733 H 0.63363 0.30995 0.29738 0.0
C734 C 0.66409 0.30859 0.37061 0.0
O735 O 0.67067 0.35047 0.4608 0.0
O736 O 0.6477 0.34773 0.41907 0.0
N737 N 0.66745 0.33741 0.18441 0.0
C738 C 0.68029 0.34529 0.16597 0.0
C739 C 0.67972 0.35354 0.11351 0.0
C740 C 0.66601 0.3535 0.08035 0.0
C741 C 0.65299 0.34519 0.09995 0.0
C742 C 0.65428 0.33711 0.1524 0.0
H743 H 0.69088 0.34535 0.19115 0.0
O744 O 0.66612 0.36423 0.33971 0.0
O745 O 0.65955 0.34176 0.30103 0.0
O746 O 0.69029 0.34099 0.34962 0.0
O747 O 0.68751 0.32603 0.27016 0.0
C748 C 0.63866 0.34494 0.07021 0.0
C749 C 0.62581 0.33698 0.09401 0.0
H750 H 0.6034 0.32141 0.1553 0.0
H751 H 0.60756 0.30906 0.25126 0.0
H752 H 0.68981 0.35994 0.09873 0.0
H753 H 0.66556 0.36 0.0402 0.0
H754 H 0.63731 0.35112 0.02964 0.0
H755 H 0.61476 0.33717 0.07142 0.0
Mn756 Mn 0.91095 0.4178 0.62566 0.0
Mn757 Mn 0.93103 0.41494 0.5003 0.0
C758 C 0.89837 0.40975 0.54195 0.0
C759 C 0.90233 0.4063 0.71216 0.0
C760 C 0.92071 0.44576 0.55264 0.0
O761 O 0.93383 0.41836 0.65193 0.0
O762 O 0.94557 0.41288 0.56669 0.0
C763 C 0.94126 0.38209 0.5076 0.0
N764 N 0.93379 0.39366 0.47847 0.0
C765 C 0.92809 0.37656 0.39871 0.0
C766 C 0.93584 0.36448 0.42765 0.0
C767 C 0.9424 0.36725 0.48243 0.0
C768 C 0.92736 0.39111 0.42589 0.0
H769 H 0.94626 0.38417 0.54975 0.0
C770 C 0.94586 0.41516 0.6215 0.0
O771 O 0.90296 0.42133 0.7062 0.0
O772 O 0.90731 0.39804 0.66905 0.0
N773 N 0.91832 0.41658 0.43246 0.0
C774 C 0.91021 0.4291 0.4124 0.0
C775 C 0.90238 0.42805 0.35916 0.0
C776 C 0.90309 0.41422 0.32684 0.0
C777 C 0.91163 0.40154 0.34811 0.0
C778 C 0.91923 0.40328 0.40138 0.0
H779 H 0.90966 0.43978 0.4369 0.0
O780 O 0.89047 0.41509 0.58541 0.0
O781 O 0.91336 0.40902 0.54911 0.0
O782 O 0.91266 0.4402 0.59433 0.0
O783 O 0.9286 0.43735 0.51776 0.0
C784 C 0.91263 0.38715 0.31912 0.0
C785 C 0.9208 0.37464 0.34451 0.0
H786 H 0.93669 0.35301 0.4085 0.0
H787 H 0.94832 0.35797 0.50522 0.0
H788 H 0.89579 0.43788 0.34308 0.0
H789 H 0.89694 0.41342 0.286 0.0
H790 H 0.90689 0.38547 0.27783 0.0
H791 H 0.92119 0.36353 0.32238 0.0
Mn792 Mn 0.83797 0.66113 0.87427 0.0
Mn793 Mn 0.84129 0.68133 0.7493 0.0
C794 C 0.84653 0.64866 0.79117 0.0
C795 C 0.84926 0.65272 0.96149 0.0
C796 C 0.81031 0.67057 0.79915 0.0
O797 O 0.83679 0.68397 0.90042 0.0
O798 O 0.84267 0.69586 0.81588 0.0
C799 C 0.87393 0.69199 0.76 0.0
N800 N 0.86266 0.68441 0.72958 0.0
C801 C 0.88035 0.67916 0.65122 0.0
C802 C 0.89212 0.68701 0.6815 0.0
C803 C 0.88891 0.6934 0.73622 0.0
C804 C 0.86565 0.67814 0.67707 0.0
H805 H 0.8715 0.69688 0.80208 0.0
C806 C 0.83996 0.69608 0.87038 0.0
O807 O 0.83425 0.65308 0.95468 0.0
O808 O 0.8576 0.65786 0.91886 0.0
N809 N 0.84026 0.66874 0.68103 0.0
C810 C 0.82795 0.6606 0.6594 0.0
C811 C 0.82942 0.65298 0.60587 0.0
C812 C 0.84345 0.65397 0.57484 0.0
C813 C 0.85589 0.66256 0.59767 0.0
C814 C 0.85374 0.66993 0.65115 0.0
H815 H 0.81712 0.65986 0.68287 0.0
O816 O 0.84117 0.6407 0.83443 0.0
O817 O 0.84709 0.66366 0.79832 0.0
O818 O 0.81571 0.66254 0.84124 0.0
O819 O 0.81883 0.67855 0.76488 0.0
C820 C 0.87044 0.66385 0.56999 0.0
C821 C 0.88269 0.67207 0.59689 0.0
H822 H 0.9037 0.68807 0.66341 0.0
H823 H 0.89796 0.69939 0.76001 0.0
H824 H 0.81977 0.64636 0.58856 0.0
H825 H 0.84457 0.64798 0.53376 0.0
H826 H 0.87243 0.65831 0.52852 0.0
H827 H 0.89393 0.67269 0.57575 0.0
Mn828 Mn 0.5935 0.58892 0.12033 0.0
Mn829 Mn 0.57453 0.59182 0.99215 0.0
C830 C 0.6066 0.59738 0.03841 0.0
C831 C 0.60165 0.60015 0.20802 0.0
C832 C 0.58574 0.56106 0.04206 0.0
O833 O 0.57057 0.588 0.14465 0.0
O834 O 0.55938 0.59183 0.05724 0.0
C835 C 0.56224 0.6238 0.00607 0.0
N836 N 0.57045 0.61318 0.9748 0.0
C837 C 0.57512 0.63178 0.89887 0.0
C838 C 0.56656 0.64288 0.93 0.0
C839 C 0.56015 0.63888 0.98396 0.0
C840 C 0.57681 0.61695 0.92314 0.0
H841 H 0.55735 0.62078 0.04758 0.0
C842 C 0.55867 0.58995 0.11219 0.0
O843 O 0.60108 0.58515 0.20131 0.0
O844 O 0.59678 0.60854 0.16505 0.0
N845 N 0.58754 0.59209 0.92487 0.0
C846 C 0.59637 0.5804 0.90223 0.0
C847 C 0.60401 0.58267 0.84916 0.0
C848 C 0.60236 0.59686 0.81958 0.0
C849 C 0.59309 0.60866 0.84341 0.0
C850 C 0.58572 0.60571 0.89637 0.0
H851 H 0.59766 0.56946 0.92466 0.0
O852 O 0.6142 0.59188 0.08232 0.0
O853 O 0.59155 0.59804 0.04381 0.0
O854 O 0.59208 0.56658 0.08784 0.0
O855 O 0.57859 0.56947 0.005 0.0
C856 C 0.5911 0.62333 0.81723 0.0
C857 C 0.58223 0.63493 0.84515 0.0
H858 H 0.56496 0.65453 0.91314 0.0
H859 H 0.55363 0.64741 0.00845 0.0
H860 H 0.61118 0.57352 0.83113 0.0
H861 H 0.60837 0.59861 0.77888 0.0
H862 H 0.59661 0.62592 0.77617 0.0
H863 H 0.58108 0.64628 0.82519 0.0
Mn864 Mn 0.3383 0.34357 0.37498 0.0
Mn865 Mn 0.34117 0.32334 0.24951 0.0
C866 C 0.34741 0.35561 0.29177 0.0
C867 C 0.34953 0.35218 0.46215 0.0
C868 C 0.31051 0.33573 0.29635 0.0
O869 O 0.33675 0.32092 0.4022 0.0
O870 O 0.34052 0.30881 0.31644 0.0
C871 C 0.37276 0.31038 0.26696 0.0
N872 N 0.36251 0.31862 0.2341 0.0
C873 C 0.38167 0.32243 0.15942 0.0
C874 C 0.39239 0.31386 0.19224 0.0
C875 C 0.38793 0.30786 0.24636 0.0
C876 C 0.36672 0.32457 0.18223 0.0
H877 H 0.36939 0.30579 0.30859 0.0
C878 C 0.33848 0.30868 0.37137 0.0
O879 O 0.33453 0.35199 0.45489 0.0
O880 O 0.35787 0.34675 0.42005 0.0
N881 N 0.34207 0.33577 0.18077 0.0
C882 C 0.33067 0.34461 0.1562 0.0
C883 C 0.33341 0.35182 0.10258 0.0
C884 C 0.34775 0.34972 0.07446 0.0
C885 C 0.35923 0.34044 0.10026 0.0
C886 C 0.35583 0.33351 0.15366 0.0
H887 H 0.31963 0.34627 0.17754 0.0
O888 O 0.34195 0.36382 0.33423 0.0
O889 O 0.3476 0.34063 0.29938 0.0
O890 O 0.31602 0.34235 0.3416 0.0
O891 O 0.31888 0.32807 0.26057 0.0
C892 C 0.37404 0.33804 0.07565 0.0
C893 C 0.38529 0.32914 0.10539 0.0
H894 H 0.40411 0.31192 0.17656 0.0
H895 H 0.39617 0.30132 0.27211 0.0
H896 H 0.32449 0.35899 0.08301 0.0
H897 H 0.34986 0.35541 0.03334 0.0
H898 H 0.377 0.34324 0.03437 0.0
H899 H 0.39674 0.32766 0.08658 0.0
Mn900 Mn 0.41076 0.58849 0.12184 0.0
Mn901 Mn 0.4292 0.59188 0.9928 0.0
C902 C 0.39715 0.59656 0.04067 0.0
C903 C 0.40274 0.59968 0.20969 0.0
C904 C 0.41865 0.56084 0.0423 0.0
O905 O 0.43373 0.5881 0.14531 0.0
O906 O 0.44458 0.59162 0.05725 0.0
C907 C 0.4412 0.62389 0.00926 0.0
N908 N 0.43298 0.61341 0.9773 0.0
C909 C 0.42727 0.6327 0.90479 0.0
C910 C 0.4358 0.64366 0.93669 0.0
C911 C 0.44276 0.63924 0.98924 0.0
C912 C 0.42615 0.61757 0.92688 0.0
H913 H 0.44648 0.62056 0.0498 0.0
C914 C 0.4455 0.58988 0.1122 0.0
O915 O 0.40354 0.58467 0.20332 0.0
O916 O 0.40725 0.60807 0.16625 0.0
N917 N 0.41603 0.59244 0.92589 0.0
C918 C 0.40752 0.58072 0.90186 0.0
C919 C 0.39961 0.5833 0.8495 0.0
C920 C 0.40064 0.59786 0.82211 0.0
C921 C 0.40962 0.60969 0.84726 0.0
C922 C 0.41737 0.60639 0.8992 0.0
H923 H 0.40664 0.56952 0.92274 0.0
O924 O 0.38986 0.59089 0.08501 0.0
O925 O 0.4122 0.59763 0.04527 0.0
O926 O 0.41265 0.56617 0.08907 0.0
O927 O 0.42529 0.56944 0.00446 0.0
C928 C 0.41089 0.62475 0.82351 0.0
C929 C 0.41962 0.63628 0.85246 0.0
H930 H 0.43697 0.65554 0.92152 0.0
H931 H 0.44928 0.64766 0.0143 0.0
H932 H 0.39268 0.57412 0.83045 0.0
H933 H 0.39437 0.59987 0.7821 0.0
H934 H 0.405 0.62765 0.78348 0.0
H935 H 0.42027 0.64789 0.83434 0.0
Mn936 Mn 0.1685 0.66131 0.87814 0.0
Mn937 Mn 0.16549 0.68169 0.75347 0.0
C938 C 0.16033 0.64893 0.79421 0.0
C939 C 0.15704 0.65257 0.96456 0.0
C940 C 0.19637 0.67118 0.80478 0.0
O941 O 0.16918 0.6841 0.90513 0.0
O942 O 0.16369 0.69609 0.82037 0.0
C943 C 0.13272 0.69206 0.76232 0.0
N944 N 0.14417 0.6846 0.73253 0.0
C945 C 0.12681 0.67913 0.65331 0.0
C946 C 0.11485 0.68686 0.68296 0.0
C947 C 0.11781 0.69331 0.73779 0.0
C948 C 0.14143 0.67829 0.67988 0.0
H949 H 0.13495 0.69699 0.8045 0.0
C950 C 0.16606 0.69623 0.87513 0.0
O951 O 0.17207 0.65314 0.95846 0.0
O952 O 0.14877 0.65766 0.92163 0.0
N953 N 0.1669 0.66916 0.68513 0.0
C954 C 0.17934 0.66108 0.66426 0.0
C955 C 0.17812 0.65339 0.61079 0.0
C956 C 0.16419 0.65422 0.57907 0.0
C957 C 0.1516 0.66272 0.60116 0.0
C958 C 0.15351 0.67018 0.6546 0.0
H959 H 0.19009 0.66045 0.68831 0.0
O960 O 0.1657 0.64093 0.83738 0.0
O961 O 0.15963 0.66391 0.80181 0.0
O962 O 0.19087 0.66307 0.84643 0.0
O963 O 0.18792 0.67912 0.77016 0.0
C964 C 0.13712 0.66383 0.57281 0.0
C965 C 0.12471 0.67196 0.59898 0.0
H966 H 0.10332 0.68779 0.6643 0.0
H967 H 0.10862 0.69921 0.7611 0.0
H968 H 0.18788 0.64683 0.59408 0.0
H969 H 0.16325 0.64817 0.53806 0.0
H970 H 0.1353 0.65819 0.53139 0.0
H971 H 0.11353 0.67243 0.57733 0.0
Mn972 Mn 0.09309 0.41793 0.62807 0.0
Mn973 Mn 0.07334 0.41584 0.50169 0.0
C974 C 0.10602 0.41126 0.5435 0.0
C975 C 0.10202 0.40554 0.71249 0.0
C976 C 0.08277 0.44637 0.55848 0.0
O977 O 0.07017 0.4175 0.65371 0.0
O978 O 0.05869 0.41295 0.56725 0.0
C979 C 0.06398 0.38269 0.50541 0.0
N980 N 0.07113 0.39468 0.47754 0.0
C981 C 0.07736 0.37834 0.39616 0.0
C982 C 0.06991 0.36585 0.42371 0.0
C983 C 0.06325 0.36802 0.47869 0.0
C984 C 0.0777 0.39269 0.42488 0.0
H985 H 0.05895 0.38431 0.54776 0.0
C986 C 0.05823 0.41456 0.62236 0.0
O987 O 0.1006 0.42059 0.70997 0.0
O988 O 0.09755 0.39777 0.66742 0.0
N989 N 0.08612 0.4183 0.4344 0.0
C990 C 0.09392 0.43117 0.41582 0.0
C991 C 0.10183 0.43074 0.36263 0.0
C992 C 0.1015 0.41715 0.32884 0.0
C993 C 0.09326 0.4041 0.3486 0.0
C994 C 0.08557 0.40523 0.40187 0.0
H995 H 0.09418 0.44168 0.44145 0.0
O996 O 0.11373 0.41638 0.58786 0.0
O997 O 0.09107 0.41001 0.55026 0.0
O998 O 0.09066 0.44062 0.60027 0.0
O999 O 0.07528 0.43813 0.52177 0.0
C1000 C 0.09265 0.38991 0.31807 0.0
C1001 C 0.08475 0.37702 0.34193 0.0
H1002 H 0.06939 0.3545 0.40337 0.0
H1003 H 0.0576 0.35841 0.50045 0.0
H1004 H 0.10818 0.44085 0.34772 0.0
H1005 H 0.1077 0.41681 0.28805 0.0
H1006 H 0.09849 0.38869 0.27675 0.0
H1007 H 0.08465 0.36608 0.31862 0.0
Mn1008 Mn 0.33741 0.66225 0.62595 0.0
Mn1009 Mn 0.34092 0.6815 0.75284 0.0
C1010 C 0.34492 0.6489 0.70852 0.0
C1011 C 0.34899 0.65407 0.53904 0.0
C1012 C 0.30977 0.67232 0.69983 0.0
O1013 O 0.33725 0.6853 0.60182 0.0
O1014 O 0.34353 0.6963 0.68758 0.0
C1015 C 0.37423 0.69009 0.7452 0.0
N1016 N 0.36232 0.68322 0.77451 0.0
C1017 C 0.37936 0.6761 0.85291 0.0
C1018 C 0.39176 0.68328 0.82389 0.0
C1019 C 0.38919 0.69025 0.76969 0.0
C1020 C 0.36469 0.67635 0.82643 0.0
H1021 H 0.37232 0.6953 0.7033 0.0
C1022 C 0.34101 0.69703 0.63299 0.0
O1023 O 0.33395 0.65486 0.54442 0.0
O1024 O 0.35718 0.65862 0.58294 0.0
N1025 N 0.33879 0.66861 0.82002 0.0
C1026 C 0.32586 0.66121 0.84037 0.0
C1027 C 0.32659 0.65321 0.89333 0.0
C1028 C 0.34054 0.65302 0.92508 0.0
C1029 C 0.35363 0.66086 0.90362 0.0
C1030 C 0.35218 0.66874 0.85081 0.0
H1031 H 0.31509 0.66136 0.81634 0.0
O1032 O 0.33959 0.64142 0.66402 0.0
O1033 O 0.3461 0.66389 0.70278 0.0
O1034 O 0.31508 0.66427 0.65762 0.0
O1035 O 0.31841 0.67993 0.735 0.0
C1036 C 0.36816 0.66087 0.93192 0.0
C1037 C 0.38105 0.66838 0.90639 0.0
H1038 H 0.40334 0.68333 0.84245 0.0
H1039 H 0.39873 0.69569 0.74676 0.0
H1040 H 0.31644 0.64718 0.90958 0.0
H1041 H 0.3411 0.6467 0.96561 0.0
H1042 H 0.36964 0.65485 0.97278 0.0
H1043 H 0.39225 0.66799 0.92789 0.0
Mn1044 Mn 0.0942 0.58758 0.3814 0.0
Mn1045 Mn 0.07417 0.59091 0.50672 0.0
C1046 C 0.10679 0.59603 0.46445 0.0
C1047 C 0.10259 0.59896 0.29436 0.0
C1048 C 0.08459 0.55989 0.4561 0.0
O1049 O 0.07135 0.58672 0.3554 0.0
O1050 O 0.05958 0.59253 0.44029 0.0
C1051 C 0.06373 0.62365 0.49722 0.0
N1052 N 0.0713 0.61228 0.5271 0.0
C1053 C 0.07716 0.6299 0.60515 0.0
C1054 C 0.06931 0.64177 0.57541 0.0
C1055 C 0.0626 0.63863 0.52114 0.0
C1056 C 0.07782 0.61517 0.57929 0.0
H1057 H 0.05865 0.62129 0.4554 0.0
C1058 C 0.0593 0.58996 0.38565 0.0
O1059 O 0.10218 0.58394 0.30078 0.0
O1060 O 0.09757 0.60725 0.33732 0.0
N1061 N 0.08693 0.5897 0.57455 0.0
C1062 C 0.09516 0.57734 0.59534 0.0
C1063 C 0.10315 0.57875 0.64815 0.0
C1064 C 0.10249 0.59278 0.67926 0.0
C1065 C 0.09384 0.60529 0.65728 0.0
C1066 C 0.08604 0.60318 0.60458 0.0
H1067 H 0.0957 0.56652 0.57169 0.0
O1068 O 0.1147 0.59058 0.42119 0.0
O1069 O 0.0918 0.59664 0.45742 0.0
O1070 O 0.09262 0.56528 0.41399 0.0
O1071 O 0.07673 0.56845 0.49064 0.0
C1072 C 0.09298 0.6199 0.68482 0.0
C1073 C 0.08468 0.63221 0.65871 0.0
H1074 H 0.06851 0.65337 0.59352 0.0
H1075 H 0.05662 0.64776 0.49774 0.0
H1076 H 0.10982 0.56905 0.66478 0.0
H1077 H 0.10879 0.59388 0.71969 0.0
H1078 H 0.09894 0.6219 0.7255 0.0
H1079 H 0.08438 0.64348 0.6797 0.0
Mn1080 Mn 0.16723 0.34447 0.13345 0.0
Mn1081 Mn 0.16541 0.32627 0.26316 0.0
C1082 C 0.15938 0.35789 0.21522 0.0
C1083 C 0.1552 0.35268 0.04725 0.0
C1084 C 0.1956 0.33803 0.21244 0.0
O1085 O 0.16752 0.32156 0.1096 0.0
O1086 O 0.16761 0.31097 0.19899 0.0
C1087 C 0.13478 0.31128 0.24426 0.0
N1088 N 0.14423 0.32052 0.27684 0.0
C1089 C 0.12407 0.32442 0.3477 0.0
C1090 C 0.11415 0.31486 0.31508 0.0
C1091 C 0.11953 0.3083 0.26307 0.0
C1092 C 0.13916 0.32695 0.32683 0.0
H1093 H 0.13885 0.30625 0.20418 0.0
C1094 C 0.16808 0.30989 0.14373 0.0
O1095 O 0.17026 0.3516 0.05111 0.0
O1096 O 0.14728 0.3482 0.09188 0.0
N1097 N 0.16325 0.33929 0.32996 0.0
C1098 C 0.17398 0.34888 0.35477 0.0
C1099 C 0.17034 0.35657 0.40669 0.0
C1100 C 0.15578 0.35422 0.43287 0.0
C1101 C 0.14499 0.34415 0.40693 0.0
C1102 C 0.14932 0.33671 0.35542 0.0
H1103 H 0.18516 0.35078 0.33472 0.0
O1104 O 0.16496 0.36529 0.17098 0.0
O1105 O 0.15855 0.34282 0.21061 0.0
O1106 O 0.18995 0.34259 0.16387 0.0
O1107 O 0.18734 0.33217 0.25295 0.0
C1108 C 0.12996 0.34154 0.42932 0.0
C1109 C 0.11948 0.33174 0.39959 0.0
H1110 H 0.10236 0.31258 0.32933 0.0
H1111 H 0.11192 0.30097 0.23752 0.0
H1112 H 0.17872 0.36436 0.42634 0.0
H1113 H 0.15295 0.36033 0.47252 0.0
H1114 H 0.12625 0.34723 0.46884 0.0
H1115 H 0.10788 0.33002 0.41675 0.0
Mn1116 Mn 0.41235 0.41784 0.87821 0.0
Mn1117 Mn 0.43207 0.41585 0.00507 0.0
C1118 C 0.40027 0.40858 0.96101 0.0
C1119 C 0.40406 0.40633 0.79112 0.0
C1120 C 0.4186 0.44591 0.95847 0.0
O1121 O 0.43498 0.41969 0.85143 0.0
O1122 O 0.44662 0.41843 0.93897 0.0
C1123 C 0.44755 0.38561 0.98342 0.0
N1124 N 0.43843 0.3948 0.01744 0.0
C1125 C 0.43602 0.3746 0.08905 0.0
C1126 C 0.44547 0.36495 0.05495 0.0
C1127 C 0.45121 0.37047 1.00181 0.0
C1128 C 0.43274 0.38956 0.0684 0.0
H1129 H 0.45199 0.38981 0.94257 0.0
C1130 C 0.44704 0.41972 0.88379 0.0
O1131 O 0.40399 0.42134 0.798 0.0
O1132 O 0.40956 0.39815 0.83354 0.0
N1133 N 0.41977 0.41329 0.07351 0.0
C1134 C 0.41025 0.42379 0.09998 0.0
C1135 C 0.40333 0.41998 0.15322 0.0
C1136 C 0.40643 0.40551 0.17906 0.0
C1137 C 0.41644 0.39499 0.15142 0.0
C1138 C 0.42303 0.39945 0.09851 0.0
H1139 H 0.40783 0.43493 0.08035 0.0
O1140 O 0.3921 0.41395 0.91829 0.0
O1141 O 0.41529 0.40864 0.95416 0.0
O1142 O 0.4132 0.44028 0.91113 0.0
O1143 O 0.42564 0.43773 0.99652 0.0
C1144 C 0.41991 0.38013 0.17377 0.0
C1145 C 0.4296 0.3699 0.14241 0.0
H1146 H 0.44831 0.35326 0.06897 0.0
H1147 H 0.45845 0.36307 0.97514 0.0
H1148 H 0.3956 0.42817 0.17423 0.0
H1149 H 0.40097 0.40256 0.21988 0.0
H1150 H 0.415 0.37636 0.21462 0.0
H1151 H 0.43196 0.3584 0.15957 0.0
H1152 H 0.28551 0.16061 0.37733 0.0
H1153 H 0.21886 0.16343 0.13415 0.0
H1154 H 0.29442 0.17294 0.19911 0.0
H1155 H 0.20955 0.16853 0.31688 0.0
H1156 H 0.24682 0.16222 0.1561 0.0
H1157 H 0.25764 0.15891 0.35463 0.0
C1158 C 0.28166 0.16287 0.33347 0.0
C1159 C 0.29238 0.16701 0.29025 0.0
C1160 C 0.2386 0.16351 0.19129 0.0
C1161 C 0.26055 0.16489 0.26387 0.0
C1162 C 0.22264 0.16413 0.17881 0.0
C1163 C 0.21179 0.16616 0.22361 0.0
C1164 C 0.24371 0.16467 0.24902 0.0
C1165 C 0.21743 0.16705 0.28077 0.0
C1166 C 0.26575 0.16193 0.32057 0.0
C1167 C 0.28664 0.1698 0.23407 0.0
N1168 N 0.23295 0.16629 0.29178 0.0
N1169 N 0.27117 0.16866 0.22253 0.0
H1170 H 0.08174 0.95965 0.56425 0.0
H1171 H 0.08017 0.04579 0.44469 0.0
H1172 H 0.09212 0.96984 0.3853 0.0
H1173 H 0.09224 0.03563 0.62223 0.0
H1174 H 0.08172 0.0181 0.42218 0.0
H1175 H 0.08278 0.98736 0.58616 0.0
C1176 C 0.08429 0.96768 0.52941 0.0
C1177 C 0.08688 0.9623 0.47265 0.0
C1178 C 0.08411 0.02194 0.46595 0.0
C1179 C 0.08782 0.99426 0.4978 0.0
C1180 C 0.08318 0.03777 0.47908 0.0
C1181 C 0.0861 0.04315 0.53564 0.0
C1182 C 0.08765 0.01125 0.50983 0.0
C1183 C 0.08993 0.03208 0.57809 0.0
C1184 C 0.08493 0.98353 0.54219 0.0
C1185 C 0.0901 0.9734 0.42963 0.0
N1186 N 0.09043 0.01665 0.56445 0.0
N1187 N 0.09031 0.98887 0.44296 0.0
H1188 H 0.21291 0.809 0.76542 0.0
H1189 H 0.28795 0.85815 0.68232 0.0
H1190 H 0.21631 0.8576 0.81023 0.0
H1191 H 0.29082 0.81003 0.73417 0.0
H1192 H 0.26028 0.85831 0.71059 0.0
H1193 H 0.24034 0.80925 0.7367 0.0
C1194 C 0.21948 0.81971 0.76953 0.0
C1195 C 0.21238 0.83327 0.79074 0.0
C1196 C 0.267 0.84773 0.71536 0.0
C1197 C 0.24364 0.83373 0.7563 0.0
C1198 C 0.28269 0.84757 0.69866 0.0
C1199 C 0.29163 0.83403 0.70568 0.0
C1200 C 0.26018 0.83414 0.73785 0.0
C1201 C 0.28433 0.82071 0.72802 0.0
C1202 C 0.23511 0.81984 0.75309 0.0
C1203 C 0.22142 0.84685 0.79485 0.0
N1204 N 0.26903 0.82106 0.74291 0.0
N1205 N 0.23656 0.8468 0.77715 0.0
H1206 H 0.42665 0.04598 0.06485 0.0
H1207 H 0.42586 0.96014 0.94103 0.0
H1208 H 0.41454 0.03629 0.88697 0.0
H1209 H 0.41518 0.96972 0.12023 0.0
H1210 H 0.425 0.98795 0.92059 0.0
H1211 H 0.42569 0.01817 0.08581 0.0
C1212 C 0.42377 0.03804 0.03004 0.0
C1213 C 0.42063 0.04358 0.97387 0.0
C1214 C 0.42278 0.98396 0.96431 0.0
C1215 C 0.41977 0.01156 0.9979 0.0
C1216 C 0.42333 0.96806 0.97627 0.0
C1217 C 0.42055 0.96247 0.03263 0.0
C1218 C 0.41979 0.99452 0.00914 0.0
C1219 C 0.41736 0.97343 0.07619 0.0
C1220 C 0.42318 0.02214 0.04229 0.0
C1221 C 0.41699 0.03261 0.93085 0.0
N1222 N 0.41721 0.98895 0.06365 0.0
N1223 N 0.41682 0.01711 0.94362 0.0
H1224 H 0.79593 0.83332 0.68923 0.0
H1225 H 0.70986 0.83288 0.81144 0.0
H1226 H 0.78588 0.84234 0.86931 0.0
H1227 H 0.71987 0.84319 0.63229 0.0
H1228 H 0.73757 0.83432 0.83323 0.0
H1229 H 0.76822 0.83493 0.6675 0.0
C1230 C 0.78793 0.8357 0.72433 0.0
C1231 C 0.79334 0.83768 0.78139 0.0
C1232 C 0.73371 0.83638 0.78925 0.0
C1233 C 0.7614 0.83933 0.75645 0.0
C1234 C 0.71786 0.8355 0.77655 0.0
C1235 C 0.71244 0.83791 0.71973 0.0
C1236 C 0.74438 0.83937 0.74475 0.0
C1237 C 0.72347 0.84128 0.67665 0.0
C1238 C 0.77208 0.83666 0.71168 0.0
C1239 C 0.7823 0.84075 0.82476 0.0
N1240 N 0.73893 0.84174 0.68993 0.0
N1241 N 0.76684 0.84132 0.8115 0.0
H1242 H 0.89667 0.96591 0.43684 0.0
H1243 H 0.94526 0.04158 0.51555 0.0
H1244 H 0.94466 0.96368 0.49108 0.0
H1245 H 0.89652 0.03851 0.55849 0.0
H1246 H 0.94511 0.01396 0.48968 0.0
H1247 H 0.89618 0.99369 0.46361 0.0
C1248 C 0.90714 0.97131 0.4536 0.0
C1249 C 0.92074 0.96252 0.46161 0.0
C1250 C 0.93446 0.01931 0.50502 0.0
C1251 C 0.92027 0.9941 0.49189 0.0
C1252 C 0.93453 0.03505 0.51977 0.0
C1253 C 0.9209 0.04229 0.5396 0.0
C1254 C 0.92057 0.01078 0.50859 0.0
C1255 C 0.90731 0.03329 0.54407 0.0
C1256 C 0.9068 0.98707 0.46938 0.0
C1257 C 0.93392 0.97002 0.48427 0.0
N1258 N 0.90743 0.01801 0.52803 0.0
N1259 N 0.93339 0.98538 0.49817 0.0
H1260 H 0.71423 0.19632 0.27096 0.0
H1261 H 0.78936 0.14718 0.19107 0.0
H1262 H 0.71739 0.14774 0.31617 0.0
H1263 H 0.79226 0.19531 0.24297 0.0
H1264 H 0.76174 0.14699 0.21991 0.0
H1265 H 0.74189 0.19611 0.24504 0.0
C1266 C 0.72081 0.18564 0.27591 0.0
C1267 C 0.71359 0.17207 0.29631 0.0
C1268 C 0.76847 0.15757 0.22474 0.0
C1269 C 0.74506 0.17163 0.26493 0.0
C1270 C 0.78413 0.15774 0.20777 0.0
C1271 C 0.79307 0.1713 0.21449 0.0
C1272 C 0.76166 0.17117 0.24717 0.0
C1273 C 0.78579 0.18461 0.23713 0.0
C1274 C 0.73656 0.18553 0.26104 0.0
C1275 C 0.72261 0.1585 0.30144 0.0
N1276 N 0.77051 0.18425 0.2522 0.0
N1277 N 0.73786 0.15856 0.28514 0.0
H1278 H 0.55999 0.04203 0.98944 0.0
H1279 H 0.60838 0.9661 0.06392 0.0
H1280 H 0.60831 0.03838 0.94096 0.0
H1281 H 0.56026 0.96377 0.01147 0.0
H1282 H 0.60877 0.99385 0.03691 0.0
H1283 H 0.55997 0.01431 0.01436 0.0
C1284 C 0.57056 0.03534 0.98366 0.0
C1285 C 0.58413 0.04244 0.9626 0.0
C1286 C 0.59815 0.98722 0.0316 0.0
C1287 C 0.5843 0.01088 0.99274 0.0
C1288 C 0.59786 0.97148 0.04753 0.0
C1289 C 0.58425 0.96268 0.04009 0.0
C1290 C 0.58461 0.99422 0.00953 0.0
C1291 C 0.571 0.97015 0.01784 0.0
C1292 C 0.57054 0.01956 0.99792 0.0
C1293 C 0.59755 0.03327 0.95629 0.0
N1294 N 0.57147 0.9855 0.00381 0.0
N1295 N 0.59737 0.01797 0.972 0.0
H1296 H 0.71705 0.64604 0.68458 0.0
H1297 H 0.7927 0.69485 0.76203 0.0
H1298 H 0.71484 0.69421 0.73641 0.0
H1299 H 0.78952 0.6463 0.80781 0.0
H1300 H 0.76512 0.6946 0.73554 0.0
H1301 H 0.74482 0.64561 0.71178 0.0
C1302 C 0.72246 0.65656 0.7009 0.0
C1303 C 0.71368 0.6702 0.70812 0.0
C1304 C 0.77044 0.68402 0.75163 0.0
C1305 C 0.74523 0.6698 0.73886 0.0
C1306 C 0.78615 0.68415 0.76675 0.0
C1307 C 0.79336 0.67061 0.78758 0.0
C1308 C 0.7619 0.67015 0.75583 0.0
C1309 C 0.78434 0.65703 0.79263 0.0
C1310 C 0.7382 0.65625 0.71692 0.0
C1311 C 0.72118 0.68345 0.73023 0.0
N1312 N 0.76908 0.65709 0.77623 0.0
N1313 N 0.73652 0.68295 0.74436 0.0
H1314 H 0.58923 0.46077 0.06679 0.0
H1315 H 0.57975 0.54608 0.93964 0.0
H1316 H 0.59007 0.47003 0.88311 0.0
H1317 H 0.59476 0.53728 0.11509 0.0
H1318 H 0.58188 0.51833 0.91879 0.0
H1319 H 0.58987 0.48862 0.08562 0.0
C1320 C 0.58964 0.46864 0.03024 0.0
C1321 C 0.58957 0.46296 0.9731 0.0
C1322 C 0.58478 0.52248 0.96175 0.0
C1323 C 0.59009 0.4951 0.99479 0.0
C1324 C 0.58349 0.53835 0.97394 0.0
C1325 C 0.58704 0.54412 0.02945 0.0
C1326 C 0.58942 0.51217 0.00549 0.0
C1327 C 0.5919 0.53343 0.07176 0.0
C1328 C 0.59004 0.48459 0.04119 0.0
C1329 C 0.59016 0.47384 0.92778 0.0
N1330 N 0.59282 0.51797 0.05903 0.0
N1331 N 0.59022 0.4894 0.93959 0.0
H1332 H 0.71663 0.35718 0.32438 0.0
H1333 H 0.7918 0.30911 0.23597 0.0
H1334 H 0.71373 0.30977 0.26408 0.0
H1335 H 0.78849 0.35814 0.19823 0.0
H1336 H 0.76424 0.309 0.26313 0.0
H1337 H 0.7443 0.35767 0.29642 0.0
C1338 C 0.72188 0.34682 0.30617 0.0
C1339 C 0.71292 0.33338 0.29678 0.0
C1340 C 0.76953 0.31976 0.2486 0.0
C1341 C 0.74439 0.33387 0.26496 0.0
C1342 C 0.78522 0.31984 0.23307 0.0
C1343 C 0.79237 0.33363 0.21434 0.0
C1344 C 0.76099 0.33367 0.24702 0.0
C1345 C 0.78334 0.34723 0.21169 0.0
C1346 C 0.73757 0.34717 0.28967 0.0
C1347 C 0.72022 0.32035 0.27211 0.0
N1348 N 0.76812 0.34696 0.22854 0.0
N1349 N 0.73554 0.32088 0.25748 0.0
H1350 H 0.8966 0.46649 0.56641 0.0
H1351 H 0.94585 0.54165 0.48718 0.0
H1352 H 0.94455 0.46359 0.51228 0.0
H1353 H 0.89718 0.53878 0.44287 0.0
H1354 H 0.94551 0.51402 0.51321 0.0
H1355 H 0.89644 0.49422 0.53904 0.0
C1356 C 0.90713 0.47174 0.54956 0.0
C1357 C 0.92063 0.46276 0.54177 0.0
C1358 C 0.93493 0.51941 0.4975 0.0
C1359 C 0.92053 0.49431 0.51078 0.0
C1360 C 0.93511 0.53515 0.48263 0.0
C1361 C 0.92155 0.54246 0.46237 0.0
C1362 C 0.92099 0.51096 0.49369 0.0
C1363 C 0.90792 0.53351 0.45758 0.0
C1364 C 0.90698 0.48747 0.53344 0.0
C1365 C 0.9339 0.47008 0.51895 0.0
N1366 N 0.90793 0.51824 0.47379 0.0
N1367 N 0.93355 0.48543 0.50472 0.0
H1368 H 0.29578 0.32964 0.19349 0.0
H1369 H 0.2102 0.33845 0.31745 0.0
H1370 H 0.28659 0.3451 0.3681 0.0
H1371 H 0.21985 0.34056 0.13418 0.0
H1372 H 0.23801 0.3392 0.33719 0.0
H1373 H 0.26809 0.33177 0.17161 0.0
C1374 C 0.28797 0.3335 0.22737 0.0
C1375 C 0.29362 0.33717 0.28296 0.0
C1376 C 0.23407 0.33963 0.29267 0.0
C1377 C 0.26172 0.3395 0.25786 0.0
C1378 C 0.21815 0.33916 0.28118 0.0
C1379 C 0.21259 0.33944 0.22388 0.0
C1380 C 0.24467 0.34007 0.24663 0.0
C1381 C 0.22356 0.34037 0.17896 0.0
C1382 C 0.27214 0.33478 0.21459 0.0
C1383 C 0.28283 0.34215 0.32472 0.0
N1384 N 0.2391 0.34048 0.19127 0.0
N1385 N 0.2674 0.34303 0.31147 0.0
H1386 H 0.4234 0.54618 0.93841 0.0
H1387 H 0.42007 0.46037 0.06381 0.0
H1388 H 0.41156 0.5367 0.11666 0.0
H1389 H 0.41347 0.4701 0.88207 0.0
H1390 H 0.41881 0.48817 0.08426 0.0
H1391 H 0.42181 0.51842 0.91741 0.0
C1392 C 0.42044 0.5383 0.97328 0.0
C1393 C 0.41761 0.54389 0.0296 0.0
C1394 C 0.41751 0.48423 0.03997 0.0
C1395 C 0.41593 0.5119 0.0055 0.0
C1396 C 0.41826 0.46833 0.02808 0.0
C1397 C 0.41688 0.46281 0.97096 0.0
C1398 C 0.41567 0.49484 0.9944 0.0
C1399 C 0.41454 0.47378 0.92672 0.0
C1400 C 0.41947 0.52242 0.96103 0.0
C1401 C 0.41382 0.53299 0.07268 0.0
N1402 N 0.41419 0.48928 0.93928 0.0
N1403 N 0.41323 0.51751 0.05985 0.0
H1404 H 0.29225 0.69655 0.73878 0.0
H1405 H 0.21711 0.64699 0.81594 0.0
H1406 H 0.28891 0.64827 0.68946 0.0
H1407 H 0.21413 0.6953 0.76648 0.0
H1408 H 0.24479 0.64701 0.78778 0.0
H1409 H 0.26468 0.69617 0.76599 0.0
C1410 C 0.28566 0.6859 0.73334 0.0
C1411 C 0.29281 0.67246 0.7113 0.0
C1412 C 0.23803 0.65759 0.78341 0.0
C1413 C 0.26143 0.67183 0.74403 0.0
C1414 C 0.22233 0.65764 0.79998 0.0
C1415 C 0.21336 0.67118 0.79368 0.0
C1416 C 0.24483 0.67129 0.76182 0.0
C1417 C 0.22063 0.6846 0.77197 0.0
C1418 C 0.26997 0.68569 0.7489 0.0
C1419 C 0.28377 0.65893 0.7055 0.0
N1420 N 0.23595 0.68436 0.75727 0.0
N1421 N 0.26856 0.65889 0.72241 0.0
H1422 H 0.05847 0.4644 0.52397 0.0
H1423 H 0.10856 0.53891 0.44378 0.0
H1424 H 0.10713 0.46687 0.5686 0.0
H1425 H 0.06054 0.54242 0.4966 0.0
H1426 H 0.1084 0.51126 0.47231 0.0
H1427 H 0.05905 0.49205 0.49806 0.0
C1428 C 0.06925 0.47083 0.5288 0.0
C1429 C 0.08273 0.46341 0.54905 0.0
C1430 C 0.09792 0.51813 0.47739 0.0
C1431 C 0.0836 0.49488 0.51767 0.0
C1432 C 0.09795 0.53381 0.4606 0.0
C1433 C 0.08453 0.54293 0.4677 0.0
C1434 C 0.08426 0.51149 0.50001 0.0
C1435 C 0.07115 0.53581 0.49049 0.0
C1436 C 0.06957 0.48657 0.51393 0.0
C1437 C 0.09643 0.47224 0.55401 0.0
N1438 N 0.07132 0.52051 0.50537 0.0
N1439 N 0.09658 0.4875 0.53772 0.0
H1440 H 0.12576 0.15977 0.00278 0.0
H1441 H 0.12338 0.08696 0.79019 0.0
H1442 H 0.16653 0.13179 0.97112 0.0
H1443 H 0.09605 0.12814 0.75767 0.0
H1444 H 0.1368 0.10079 0.86901 0.0
H1445 H 0.11235 0.14617 0.92372 0.0
C1446 C 0.13193 0.15085 0.9789 0.0
C1447 C 0.14733 0.14699 0.99325 0.0
C1448 C 0.1278 0.10674 0.84471 0.0
C1449 C 0.13188 0.13107 0.90401 0.0
C1450 C 0.12004 0.09882 0.80018 0.0
C1451 C 0.10855 0.1064 0.76741 0.0
C1452 C 0.1238 0.12223 0.85741 0.0
C1453 C 0.10484 0.12185 0.7818 0.0
C1454 C 0.12426 0.14309 0.9339 0.0
C1455 C 0.15472 0.13525 0.96106 0.0
N1456 N 0.11236 0.12922 0.82591 0.0
N1457 N 0.14688 0.12757 0.91841 0.0
H1458 H 0.16916 0.87368 0.03956 0.0
H1459 H 0.09668 0.87689 0.25309 0.0
H1460 H 0.12759 0.84689 0.00772 0.0
H1461 H 0.12504 0.91741 0.22141 0.0
H1462 H 0.11001 0.86341 0.1737 0.0
H1463 H 0.15558 0.88735 0.11834 0.0
C1464 C 0.15727 0.87052 0.04967 0.0
C1465 C 0.1495 0.8591 0.01714 0.0
C1466 C 0.11324 0.87528 0.18393 0.0
C1467 C 0.13396 0.87463 0.10709 0.0
C1468 C 0.10564 0.88299 0.22913 0.0
C1469 C 0.10968 0.89834 0.24359 0.0
C1470 C 0.12529 0.8828 0.15389 0.0
C1471 C 0.12145 0.90564 0.21128 0.0
C1472 C 0.14949 0.87843 0.09418 0.0
C1473 C 0.13401 0.85561 0.03168 0.0
N1474 N 0.12898 0.89774 0.16838 0.0
N1475 N 0.12679 0.86326 0.07577 0.0
H1476 H 0.38645 0.87859 0.205 0.0
H1477 H 0.37673 0.86924 0.54266 0.0
H1478 H 0.40148 0.91522 0.31982 0.0
H1479 H 0.34003 0.85495 0.42683 0.0
H1480 H 0.38966 0.88249 0.46181 0.0
H1481 H 0.37305 0.86603 0.28615 0.0
C1482 C 0.38704 0.88393 0.24743 0.0
C1483 C 0.39514 0.89797 0.25572 0.0
C1484 C 0.37879 0.87644 0.4542 0.0
C1485 C 0.37998 0.88349 0.3488 0.0
C1486 C 0.37145 0.86879 0.50009 0.0
C1487 C 0.35729 0.86093 0.49138 0.0
C1488 C 0.37217 0.87589 0.39875 0.0
C1489 C 0.35091 0.86087 0.43542 0.0
C1490 C 0.3793 0.8768 0.29351 0.0
C1491 C 0.39537 0.90442 0.31156 0.0
N1492 N 0.3585 0.86808 0.39101 0.0
N1493 N 0.38805 0.89703 0.35622 0.0
H1494 H 0.40961 0.12898 0.7557 0.0
H1495 H 0.33708 0.13113 0.54242 0.0
H1496 H 0.38198 0.088 0.72332 0.0
H1497 H 0.3783 0.15834 0.50927 0.0
H1498 H 0.35094 0.11769 0.62106 0.0
H1499 H 0.39614 0.14225 0.67606 0.0
C1500 C 0.40079 0.12274 0.73153 0.0
C1501 C 0.39699 0.10732 0.74586 0.0
C1502 C 0.3569 0.12666 0.59664 0.0
C1503 C 0.38121 0.12261 0.65595 0.0
C1504 C 0.34896 0.13443 0.5522 0.0
C1505 C 0.35654 0.1459 0.51934 0.0
C1506 C 0.3724 0.13064 0.60919 0.0
C1507 C 0.37202 0.14957 0.53349 0.0
C1508 C 0.39311 0.13032 0.68619 0.0
C1509 C 0.38539 0.09982 0.71329 0.0
N1510 N 0.3794 0.14205 0.57756 0.0
N1511 N 0.37777 0.1076 0.67032 0.0
H1512 H 0.83714 0.87349 0.03631 0.0
H1513 H 0.90953 0.87628 0.25062 0.0
H1514 H 0.87851 0.84639 0.00452 0.0
H1515 H 0.88148 0.91694 0.21759 0.0
H1516 H 0.89614 0.86276 0.17128 0.0
H1517 H 0.8508 0.88699 0.11532 0.0
C1518 C 0.84901 0.87022 0.04649 0.0
C1519 C 0.8567 0.85877 0.01388 0.0
C1520 C 0.893 0.87467 0.18124 0.0
C1521 C 0.87231 0.87411 0.10412 0.0
C1522 C 0.90063 0.8824 0.2264 0.0
C1523 C 0.89669 0.8978 0.24044 0.0
C1524 C 0.88103 0.88224 0.15088 0.0
C1525 C 0.885 0.90513 0.2078 0.0
C1526 C 0.85682 0.87803 0.09113 0.0
C1527 C 0.87215 0.85514 0.02853 0.0
N1528 N 0.87744 0.89723 0.16499 0.0
N1529 N 0.87941 0.8627 0.07277 0.0
H1530 H 0.8781 0.15911 0.99846 0.0
H1531 H 0.88038 0.08644 0.7854 0.0
H1532 H 0.83744 0.13079 0.96852 0.0
H1533 H 0.90759 0.12771 0.75319 0.0
H1534 H 0.86694 0.10018 0.8643 0.0
H1535 H 0.89135 0.14566 0.9188 0.0
C1536 C 0.87192 0.15013 0.97485 0.0
C1537 C 0.8566 0.14613 0.98988 0.0
C1538 C 0.8759 0.10617 0.84001 0.0
C1539 C 0.87187 0.1304 0.89983 0.0
C1540 C 0.88367 0.09831 0.79541 0.0
C1541 C 0.89515 0.10594 0.76275 0.0
C1542 C 0.87988 0.12165 0.85289 0.0
C1543 C 0.89881 0.12139 0.77721 0.0
C1544 C 0.8795 0.14246 0.92947 0.0
C1545 C 0.84919 0.13435 0.95796 0.0
N1546 N 0.89129 0.1287 0.8214 0.0
N1547 N 0.85695 0.12676 0.91488 0.0
H1548 H 0.60398 0.08959 0.68163 0.0
H1549 H 0.66583 0.15163 0.57442 0.0
H1550 H 0.61906 0.12681 0.79373 0.0
H1551 H 0.62891 0.13629 0.46147 0.0
H1552 H 0.65259 0.13877 0.65607 0.0
H1553 H 0.61681 0.10277 0.59972 0.0
C1554 C 0.60998 0.10051 0.68896 0.0
C1555 C 0.61036 0.10718 0.74439 0.0
C1556 C 0.64743 0.13828 0.61331 0.0
C1557 C 0.62536 0.122 0.65172 0.0
C1558 C 0.65497 0.14556 0.56684 0.0
C1559 C 0.64839 0.14512 0.51126 0.0
C1560 C 0.6335 0.13009 0.60368 0.0
C1561 C 0.6343 0.13705 0.50376 0.0
C1562 C 0.61724 0.10801 0.64234 0.0
C1563 C 0.61834 0.12134 0.75158 0.0
N1564 N 0.6274 0.12971 0.54926 0.0
N1565 N 0.62567 0.12819 0.70598 0.0
H1566 H 0.62753 0.8455 0.49615 0.0
H1567 H 0.6238 0.91828 0.28472 0.0
H1568 H 0.66772 0.87446 0.4662 0.0
H1569 H 0.59776 0.8764 0.24978 0.0
H1570 H 0.63749 0.90464 0.36321 0.0
H1571 H 0.61409 0.85865 0.41616 0.0
C1572 C 0.63357 0.85455 0.47242 0.0
C1573 C 0.64881 0.85883 0.48756 0.0
C1574 C 0.62874 0.89848 0.33841 0.0
C1575 C 0.63332 0.87421 0.39724 0.0
C1576 C 0.62082 0.90629 0.29405 0.0
C1577 C 0.60959 0.89847 0.26076 0.0
C1578 C 0.62516 0.88286 0.35044 0.0
C1579 C 0.60633 0.88286 0.27434 0.0
C1580 C 0.62589 0.86204 0.42688 0.0
C1581 C 0.65604 0.87069 0.45554 0.0
N1582 N 0.61399 0.87561 0.31836 0.0
N1583 N 0.64817 0.87811 0.41235 0.0
H1584 H 0.62761 0.66016 0.49562 0.0
H1585 H 0.62307 0.58764 0.28269 0.0
H1586 H 0.66759 0.63113 0.46315 0.0
H1587 H 0.59706 0.62963 0.24959 0.0
H1588 H 0.63688 0.60108 0.36142 0.0
H1589 H 0.6138 0.64707 0.41632 0.0
C1590 C 0.63352 0.65111 0.47152 0.0
C1591 C 0.64882 0.6468 0.48571 0.0
C1592 C 0.62809 0.60729 0.33702 0.0
C1593 C 0.63291 0.63147 0.3962 0.0
C1594 C 0.6201 0.5996 0.29253 0.0
C1595 C 0.60887 0.60752 0.25962 0.0
C1596 C 0.62457 0.6229 0.34957 0.0
C1597 C 0.60563 0.62309 0.27384 0.0
C1598 C 0.62563 0.64364 0.42637 0.0
C1599 C 0.65588 0.63492 0.45323 0.0
N1600 N 0.61336 0.63024 0.31796 0.0
N1601 N 0.64781 0.62753 0.41045 0.0
H1602 H 0.60373 0.41531 0.68394 0.0
H1603 H 0.66523 0.35279 0.57782 0.0
H1604 H 0.61816 0.37791 0.79632 0.0
H1605 H 0.62841 0.36815 0.46447 0.0
H1606 H 0.65199 0.36578 0.65924 0.0
H1607 H 0.61658 0.402 0.60233 0.0
C1608 C 0.60958 0.40433 0.6914 0.0
C1609 C 0.60977 0.39764 0.74681 0.0
C1610 C 0.64684 0.36625 0.61645 0.0
C1611 C 0.62481 0.38267 0.6545 0.0
C1612 C 0.65438 0.35888 0.57011 0.0
C1613 C 0.64784 0.35929 0.51447 0.0
C1614 C 0.63295 0.37448 0.60662 0.0
C1615 C 0.63377 0.36741 0.5068 0.0
C1616 C 0.61687 0.39675 0.64495 0.0
C1617 C 0.61759 0.3834 0.75416 0.0
N1618 N 0.62689 0.37483 0.55215 0.0
N1619 N 0.62494 0.37648 0.70875 0.0
H1620 H 0.88082 0.41856 0.78707 0.0
H1621 H 0.87744 0.34597 0.99951 0.0
H1622 H 0.90701 0.37676 0.75271 0.0
H1623 H 0.83705 0.37457 0.96871 0.0
H1624 H 0.89085 0.35918 0.91963 0.0
H1625 H 0.86721 0.40495 0.86584 0.0
C1626 C 0.88386 0.4066 0.79659 0.0
C1627 C 0.89509 0.39879 0.76337 0.0
C1628 C 0.87902 0.36249 0.93017 0.0
C1629 C 0.87964 0.38322 0.85337 0.0
C1630 C 0.87136 0.35496 0.97565 0.0
C1631 C 0.85607 0.35911 0.99049 0.0
C1632 C 0.87152 0.37457 0.90028 0.0
C1633 C 0.84877 0.3709 0.95828 0.0
C1634 C 0.87599 0.39881 0.84111 0.0
C1635 C 0.89843 0.38322 0.7772 0.0
N1636 N 0.85663 0.37836 0.91514 0.0
N1637 N 0.89083 0.37598 0.82137 0.0
H1638 H 0.90972 0.62808 0.24912 0.0
H1639 H 0.83721 0.63084 0.03548 0.0
H1640 H 0.88162 0.58741 0.21676 0.0
H1641 H 0.87855 0.65796 0.00353 0.0
H1642 H 0.85092 0.6173 0.11425 0.0
H1643 H 0.89631 0.64154 0.16976 0.0
C1644 C 0.9008 0.62195 0.22502 0.0
C1645 C 0.89686 0.60656 0.23927 0.0
C1646 C 0.85693 0.62627 0.09007 0.0
C1647 C 0.88117 0.62206 0.14966 0.0
C1648 C 0.84908 0.6341 0.04556 0.0
C1649 C 0.85675 0.64557 0.01298 0.0
C1650 C 0.87243 0.63019 0.10295 0.0
C1651 C 0.87221 0.64919 0.02751 0.0
C1652 C 0.89316 0.62964 0.17984 0.0
C1653 C 0.88515 0.59921 0.20679 0.0
N1654 N 0.8795 0.64161 0.07161 0.0
N1655 N 0.87758 0.60708 0.16395 0.0
H1656 H 0.33744 0.37414 0.5358 0.0
H1657 H 0.41024 0.3773 0.74855 0.0
H1658 H 0.37883 0.34704 0.50438 0.0
H1659 H 0.38143 0.41758 0.71838 0.0
H1660 H 0.39685 0.36379 0.66928 0.0
H1661 H 0.3511 0.38776 0.61451 0.0
C1662 C 0.34932 0.37091 0.54596 0.0
C1663 C 0.357 0.35941 0.51355 0.0
C1664 C 0.39354 0.37562 0.67981 0.0
C1665 C 0.37264 0.3749 0.60348 0.0
C1666 C 0.40117 0.38334 0.72495 0.0
C1667 C 0.39702 0.39864 0.73982 0.0
C1668 C 0.38135 0.38307 0.65021 0.0
C1669 C 0.38511 0.40586 0.70795 0.0
C1670 C 0.35714 0.37878 0.59046 0.0
C1671 C 0.37247 0.35583 0.52821 0.0
N1672 N 0.37757 0.39796 0.6651 0.0
N1673 N 0.37973 0.36346 0.57227 0.0
H1674 H 0.37819 0.65988 0.49792 0.0
H1675 H 0.38128 0.58739 0.28479 0.0
H1676 H 0.33746 0.63195 0.46477 0.0
H1677 H 0.40781 0.62903 0.25122 0.0
H1678 H 0.36772 0.60105 0.36367 0.0
H1679 H 0.39168 0.64649 0.41861 0.0
C1680 C 0.37205 0.65101 0.47364 0.0
C1681 C 0.35664 0.6471 0.48762 0.0
C1682 C 0.37658 0.60713 0.33913 0.0
C1683 C 0.37218 0.63142 0.39817 0.0
C1684 C 0.38442 0.59931 0.29459 0.0
C1685 C 0.39572 0.60708 0.26152 0.0
C1686 C 0.38032 0.6227 0.35153 0.0
C1687 C 0.39918 0.62261 0.27562 0.0
C1688 C 0.37976 0.64337 0.42851 0.0
C1689 C 0.34927 0.63544 0.45496 0.0
N1690 N 0.3916 0.62987 0.31977 0.0
N1691 N 0.35717 0.62787 0.41219 0.0
H1692 H 0.16917 0.63089 0.03918 0.0
H1693 H 0.09655 0.62798 0.25173 0.0
H1694 H 0.12757 0.65747 0.00538 0.0
H1695 H 0.12494 0.58743 0.22109 0.0
H1696 H 0.10986 0.64132 0.17191 0.0
H1697 H 0.15548 0.61734 0.11795 0.0
C1698 C 0.15724 0.63402 0.04882 0.0
C1699 C 0.14951 0.64535 0.01576 0.0
C1700 C 0.1131 0.62947 0.18246 0.0
C1701 C 0.13385 0.62997 0.10574 0.0
C1702 C 0.10551 0.62185 0.22791 0.0
C1703 C 0.10957 0.60653 0.24278 0.0
C1704 C 0.12515 0.62189 0.15264 0.0
C1705 C 0.12133 0.59917 0.21064 0.0
C1706 C 0.14941 0.62619 0.09334 0.0
C1707 C 0.13397 0.64881 0.02974 0.0
N1708 N 0.12885 0.60698 0.16752 0.0
N1709 N 0.12669 0.64124 0.07389 0.0
H1710 H 0.11813 0.37825 0.71043 0.0
H1711 H 0.12763 0.36819 0.04786 0.0
H1712 H 0.10345 0.41467 0.82672 0.0
H1713 H 0.16473 0.35429 0.93324 0.0
H1714 H 0.11479 0.38138 0.96679 0.0
H1715 H 0.13154 0.36539 0.79115 0.0
C1716 C 0.11761 0.38347 0.75308 0.0
C1717 C 0.10961 0.39754 0.76196 0.0
C1718 C 0.12572 0.37542 0.95945 0.0
C1719 C 0.12475 0.38274 0.85441 0.0
C1720 C 0.13301 0.36779 0.00547 0.0
C1721 C 0.14727 0.36008 0.99722 0.0
C1722 C 0.13248 0.375 0.90425 0.0
C1723 C 0.15377 0.3601 0.94146 0.0
C1724 C 0.12536 0.37618 0.79889 0.0
C1725 C 0.10948 0.40386 0.81801 0.0
N1726 N 0.14623 0.3673 0.89685 0.0
N1727 N 0.11678 0.39631 0.86233 0.0
H1728 H 0.19354 0.29192 0.15485 0.0
H1729 H 0.14834 0.2137 0.07293 0.0
H1730 H 0.14728 0.29189 0.0832 0.0
H1731 H 0.19289 0.21582 0.15801 0.0
H1732 H 0.14964 0.24202 0.05633 0.0
H1733 H 0.19555 0.26405 0.13559 0.0
C1734 C 0.18394 0.28603 0.13368 0.0
C1735 C 0.17029 0.29412 0.12016 0.0
C1736 C 0.1593 0.23622 0.07733 0.0
C1737 C 0.17218 0.26208 0.09985 0.0
C1738 C 0.15862 0.22007 0.08624 0.0
C1739 C 0.17059 0.21251 0.11642 0.0
C1740 C 0.17206 0.24473 0.09889 0.0
C1741 C 0.18348 0.22126 0.13423 0.0
C1742 C 0.18502 0.2701 0.123 0.0
C1743 C 0.15807 0.286 0.09357 0.0
N1744 N 0.18382 0.23688 0.1256 0.0
N1745 N 0.1592 0.27033 0.08501 0.0
H1746 H 0.96325 0.93934 0.33441 0.0
H1747 H 0.04244 0.89087 0.36066 0.0
H1748 H 0.96605 0.89054 0.37545 0.0
H1749 H 0.04078 0.94093 0.35665 0.0
H1750 H 0.01455 0.89002 0.33915 0.0
H1751 H 0.99146 0.9395 0.31575 0.0
C1752 C 0.96973 0.92856 0.33739 0.0
C1753 C 0.96239 0.91488 0.35611 0.0
C1754 C 0.0203 0.90121 0.3417 0.0
C1755 C 0.99454 0.91501 0.33618 0.0
C1756 C 0.03623 0.90167 0.35363 0.0
C1757 C 0.04383 0.91598 0.36002 0.0
C1758 C 0.01187 0.91518 0.33696 0.0
C1759 C 0.03529 0.92968 0.35135 0.0
C1760 C 0.98583 0.92868 0.3274 0.0
C1761 C 0.97131 0.90129 0.36087 0.0
N1762 N 0.01969 0.92896 0.34091 0.0
N1763 N 0.98691 0.90172 0.35145 0.0
H1764 H 0.36643 0.79231 0.62042 0.0
H1765 H 0.31906 0.7133 0.57143 0.0
H1766 H 0.31732 0.79131 0.58344 0.0
H1767 H 0.36575 0.71646 0.63834 0.0
H1768 H 0.3197 0.74144 0.55058 0.0
H1769 H 0.36788 0.76441 0.60076 0.0
C1770 C 0.35603 0.78623 0.60655 0.0
C1771 C 0.34176 0.79405 0.60326 0.0
C1772 C 0.32993 0.73588 0.56855 0.0
C1773 C 0.34315 0.76198 0.58263 0.0
C1774 C 0.32961 0.71983 0.57992 0.0
C1775 C 0.34238 0.71263 0.60666 0.0
C1776 C 0.34316 0.74464 0.58376 0.0
C1777 C 0.35565 0.7216 0.6179 0.0
C1778 C 0.35681 0.77028 0.5957 0.0
C1779 C 0.32857 0.78566 0.58574 0.0
N1780 N 0.35566 0.73712 0.60682 0.0
N1781 N 0.32951 0.76999 0.57693 0.0
H1782 H 0.4642 0.06741 0.84088 0.0
H1783 H 0.54188 0.11679 0.88327 0.0
H1784 H 0.46579 0.11596 0.88682 0.0
H1785 H 0.54216 0.06805 0.83993 0.0
H1786 H 0.51396 0.11769 0.86415 0.0
H1787 H 0.49233 0.06824 0.82041 0.0
C1788 C 0.4704 0.07834 0.84491 0.0
C1789 C 0.46276 0.09164 0.86563 0.0
C1790 C 0.52009 0.10682 0.8576 0.0
C1791 C 0.49479 0.09265 0.84354 0.0
C1792 C 0.53607 0.10636 0.86821 0.0
C1793 C 0.54426 0.09236 0.86285 0.0
C1794 C 0.51214 0.09307 0.84293 0.0
C1795 C 0.53621 0.07911 0.84384 0.0
C1796 C 0.48644 0.07879 0.83371 0.0
C1797 C 0.47129 0.10544 0.87127 0.0
N1798 N 0.5205 0.07971 0.83549 0.0
N1799 N 0.48684 0.10555 0.86084 0.0
H1800 H 0.18843 0.79209 0.92826 0.0
H1801 H 0.14005 0.71335 0.89152 0.0
H1802 H 0.1402 0.7893 0.87849 0.0
H1803 H 0.18965 0.71424 0.91788 0.0
H1804 H 0.13893 0.7412 0.91244 0.0
H1805 H 0.18813 0.76398 0.94935 0.0
C1806 C 0.17765 0.78565 0.92373 0.0
C1807 C 0.1643 0.79294 0.90172 0.0
C1808 C 0.15005 0.73531 0.91496 0.0
C1809 C 0.16391 0.76092 0.92462 0.0
C1810 C 0.15065 0.71939 0.90343 0.0
C1811 C 0.16493 0.71155 0.90338 0.0
C1812 C 0.1639 0.74358 0.92526 0.0
C1813 C 0.17839 0.7199 0.91825 0.0
C1814 C 0.17752 0.76961 0.93519 0.0
C1815 C 0.15073 0.78408 0.89531 0.0
N1816 N 0.1776 0.73555 0.92771 0.0
N1817 N 0.15092 0.76855 0.9062 0.0
H1818 H 0.46233 0.93687 0.1709 0.0
H1819 H 0.54167 0.88917 0.13438 0.0
H1820 H 0.46597 0.88992 0.10705 0.0
H1821 H 0.54045 0.93873 0.16134 0.0
H1822 H 0.51365 0.88796 0.15191 0.0
H1823 H 0.49039 0.93648 0.19328 0.0
C1824 C 0.46896 0.92635 0.16322 0.0
C1825 C 0.4619 0.91341 0.13707 0.0
C1826 C 0.51951 0.89909 0.15534 0.0
C1827 C 0.49382 0.91288 0.16193 0.0
C1828 C 0.53552 0.89973 0.14582 0.0
C1829 C 0.54332 0.91404 0.14684 0.0
C1830 C 0.51113 0.91291 0.16484 0.0
C1831 C 0.53483 0.92745 0.16099 0.0
C1832 C 0.48495 0.92616 0.17553 0.0
C1833 C 0.47099 0.90015 0.12693 0.0
N1834 N 0.5191 0.92662 0.16858 0.0
N1835 N 0.48645 0.90026 0.13906 0.0
H1836 H 0.36209 0.21305 0.41088 0.0
H1837 H 0.31303 0.29214 0.4051 0.0
H1838 H 0.31228 0.21485 0.39193 0.0
H1839 H 0.363 0.28983 0.39478 0.0
H1840 H 0.31231 0.26407 0.42545 0.0
H1841 H 0.36236 0.24113 0.43011 0.0
C1842 C 0.35116 0.21933 0.41269 0.0
C1843 C 0.33713 0.21171 0.4006 0.0
C1844 C 0.32346 0.26976 0.42012 0.0
C1845 C 0.33731 0.24383 0.42073 0.0
C1846 C 0.32386 0.28578 0.40912 0.0
C1847 C 0.3381 0.29323 0.39881 0.0
C1848 C 0.33741 0.26117 0.42035 0.0
C1849 C 0.35181 0.28447 0.40289 0.0
C1850 C 0.35131 0.23536 0.42314 0.0
C1851 C 0.3233 0.22035 0.40192 0.0
N1852 N 0.35113 0.26888 0.41282 0.0
N1853 N 0.32374 0.236 0.41119 0.0
H1854 H 0.96349 0.11437 0.64606 0.0
H1855 H 0.04149 0.06433 0.6634 0.0
H1856 H 0.96383 0.06443 0.66084 0.0
H1857 H 0.03973 0.11391 0.63724 0.0
H1858 H 0.01343 0.06446 0.68493 0.0
H1859 H 0.99142 0.11482 0.66618 0.0
C1860 C 0.96942 0.10353 0.65547 0.0
C1861 C 0.96141 0.08937 0.65246 0.0
C1862 C 0.01925 0.07536 0.67578 0.0
C1863 C 0.99351 0.08965 0.67308 0.0
C1864 C 0.03525 0.07529 0.66398 0.0
C1865 C 0.04283 0.08913 0.64868 0.0
C1866 C 0.01085 0.08939 0.6719 0.0
C1867 C 0.03426 0.103 0.64876 0.0
C1868 C 0.98539 0.10375 0.66645 0.0
C1869 C 0.96962 0.0756 0.66374 0.0
N1870 N 0.01872 0.10276 0.65961 0.0
N1871 N 0.9853 0.07604 0.67267 0.0
H1872 H 0.81515 0.71193 0.91415 0.0
H1873 H 0.8623 0.7924 0.91101 0.0
H1874 H 0.86442 0.71574 0.88313 0.0
H1875 H 0.81298 0.78907 0.88061 0.0
H1876 H 0.86302 0.76438 0.93179 0.0
H1877 H 0.81414 0.74012 0.93287 0.0
C1878 C 0.82583 0.71863 0.9135 0.0
C1879 C 0.83991 0.71158 0.89764 0.0
C1880 C 0.85197 0.76984 0.92197 0.0
C1881 C 0.83884 0.74368 0.91784 0.0
C1882 C 0.85155 0.78582 0.91061 0.0
C1883 C 0.83754 0.79296 0.89477 0.0
C1884 C 0.83826 0.76098 0.91719 0.0
C1885 C 0.82396 0.78393 0.89342 0.0
C1886 C 0.82524 0.7347 0.9235 0.0
C1887 C 0.85337 0.72077 0.89567 0.0
N1888 N 0.82466 0.76836 0.90404 0.0
N1889 N 0.8525 0.73636 0.90525 0.0
H1890 H 0.63841 0.21357 0.37305 0.0
H1891 H 0.68574 0.29195 0.43214 0.0
H1892 H 0.6867 0.2139 0.42277 0.0
H1893 H 0.63912 0.28947 0.36419 0.0
H1894 H 0.6848 0.26376 0.45171 0.0
H1895 H 0.63687 0.2414 0.39339 0.0
C1896 C 0.6486 0.21949 0.38971 0.0
C1897 C 0.66267 0.21149 0.39641 0.0
C1898 C 0.67465 0.26947 0.4338 0.0
C1899 C 0.66124 0.24352 0.41791 0.0
C1900 C 0.67514 0.28555 0.42316 0.0
C1901 C 0.66248 0.29297 0.39651 0.0
C1902 C 0.66138 0.26087 0.41774 0.0
C1903 C 0.64914 0.28416 0.38457 0.0
C1904 C 0.64777 0.23541 0.40103 0.0
C1905 C 0.67559 0.21968 0.41769 0.0
N1906 N 0.64899 0.26861 0.39481 0.0
N1907 N 0.67465 0.23535 0.42678 0.0
H1908 H 0.86536 0.29136 0.1172 0.0
H1909 H 0.81605 0.21342 0.08183 0.0
H1910 H 0.81583 0.29115 0.0888 0.0
H1911 H 0.86507 0.21533 0.11987 0.0
H1912 H 0.81642 0.24154 0.06139 0.0
H1913 H 0.86623 0.26359 0.09491 0.0
C1914 C 0.85472 0.28549 0.10467 0.0
C1915 C 0.84053 0.29348 0.10448 0.0
C1916 C 0.82718 0.23573 0.07273 0.0
C1917 C 0.84126 0.26154 0.08103 0.0
C1918 C 0.82699 0.21967 0.08379 0.0
C1919 C 0.84057 0.21213 0.10234 0.0
C1920 C 0.84106 0.24419 0.08055 0.0
C1921 C 0.85437 0.22075 0.10567 0.0
C1922 C 0.85518 0.26961 0.09228 0.0
C1923 C 0.82702 0.28536 0.08869 0.0
N1924 N 0.85423 0.23632 0.0955 0.0
N1925 N 0.82766 0.26973 0.07852 0.0
H1926 H 0.69157 0.71306 0.58522 0.0
H1927 H 0.64277 0.79234 0.59794 0.0
H1928 H 0.64223 0.71574 0.61606 0.0
H1929 H 0.69268 0.79032 0.61272 0.0
H1930 H 0.64232 0.76441 0.57619 0.0
H1931 H 0.69198 0.74127 0.56688 0.0
C1932 C 0.68075 0.71952 0.58596 0.0
C1933 C 0.66682 0.71215 0.60166 0.0
C1934 C 0.65341 0.77011 0.58289 0.0
C1935 C 0.6672 0.74429 0.58212 0.0
C1936 C 0.65366 0.78605 0.59487 0.0
C1937 C 0.66778 0.79354 0.60657 0.0
C1938 C 0.6674 0.7616 0.58321 0.0
C1939 C 0.68158 0.7849 0.60323 0.0
C1940 C 0.681 0.73561 0.57617 0.0
C1941 C 0.65317 0.72104 0.6037 0.0
N1942 N 0.68105 0.76933 0.59239 0.0
N1943 N 0.65371 0.73665 0.59453 0.0
H1944 H 0.54353 0.4001 0.81783 0.0
H1945 H 0.46446 0.44576 0.88723 0.0
H1946 H 0.54 0.44229 0.91775 0.0
H1947 H 0.46519 0.39822 0.82849 0.0
H1948 H 0.49255 0.44742 0.87137 0.0
H1949 H 0.51542 0.40184 0.79639 0.0
C1950 C 0.53691 0.40994 0.83376 0.0
C1951 C 0.54397 0.42109 0.86953 0.0
C1952 C 0.48657 0.43671 0.86058 0.0
C1953 C 0.51209 0.42313 0.84562 0.0
C1954 C 0.47052 0.43584 0.86906 0.0
C1955 C 0.46258 0.42192 0.85842 0.0
C1956 C 0.4948 0.42344 0.8424 0.0
C1957 C 0.47095 0.40923 0.83627 0.0
C1958 C 0.52091 0.41088 0.82194 0.0
C1959 C 0.53493 0.43347 0.89005 0.0
N1960 N 0.48669 0.41021 0.8297 0.0
N1961 N 0.51948 0.43412 0.87806 0.0
H1962 H 0.96379 0.56641 0.33166 0.0
H1963 H 0.04173 0.61575 0.37115 0.0
H1964 H 0.9657 0.61497 0.37721 0.0
H1965 H 0.04163 0.56629 0.34143 0.0
H1966 H 0.01392 0.61658 0.34943 0.0
H1967 H 0.99195 0.56699 0.3118 0.0
C1968 C 0.97006 0.57731 0.3355 0.0
C1969 C 0.9625 0.59068 0.35594 0.0
C1970 C 0.01997 0.60555 0.34641 0.0
C1971 C 0.99458 0.59139 0.33462 0.0
C1972 C 0.03587 0.60512 0.35847 0.0
C1973 C 0.04391 0.59096 0.35777 0.0
C1974 C 0.01193 0.59163 0.33489 0.0
C1975 C 0.0358 0.57746 0.34174 0.0
C1976 C 0.98613 0.57761 0.32474 0.0
C1977 C 0.97114 0.60442 0.36157 0.0
N1978 N 0.02016 0.57807 0.33183 0.0
N1979 N 0.98671 0.60439 0.35151 0.0
H1980 H 0.96308 0.38904 0.63336 0.0
H1981 H 0.04183 0.4368 0.68143 0.0
H1982 H 0.96389 0.43826 0.66817 0.0
H1983 H 0.03905 0.38958 0.61981 0.0
H1984 H 0.01366 0.43621 0.70145 0.0
H1985 H 0.99092 0.3877 0.65404 0.0
C1986 C 0.9691 0.3995 0.64694 0.0
C1987 C 0.96124 0.41376 0.64931 0.0
C1988 C 0.0193 0.42586 0.6849 0.0
C1989 C 0.99327 0.41248 0.67116 0.0
C1990 C 0.03538 0.42615 0.67405 0.0
C1991 C 0.0427 0.41319 0.64912 0.0
C1992 C 0.01062 0.41249 0.6708 0.0
C1993 C 0.03381 0.3998 0.63903 0.0
C1994 C 0.98502 0.39877 0.6584 0.0
C1995 C 0.96957 0.42702 0.66656 0.0
N1996 N 0.01826 0.39983 0.64947 0.0
N1997 N 0.98522 0.42612 0.67595 0.0
H1998 H 0.46316 0.61525 0.13555 0.0
H1999 H 0.54156 0.56526 0.1505 0.0
H2000 H 0.46386 0.56517 0.14081 0.0
H2001 H 0.53985 0.61494 0.12715 0.0
H2002 H 0.51335 0.56521 0.16878 0.0
H2003 H 0.49121 0.61559 0.1543 0.0
C2004 C 0.46921 0.60433 0.14221 0.0
C2005 C 0.46127 0.59017 0.13714 0.0
C2006 C 0.51919 0.57617 0.16095 0.0
C2007 C 0.49342 0.59037 0.15688 0.0
C2008 C 0.53529 0.5762 0.1511 0.0
C2009 C 0.54296 0.59014 0.1377 0.0
C2010 C 0.51077 0.59018 0.157 0.0
C2011 C 0.53433 0.60397 0.1375 0.0
C2012 C 0.48523 0.6045 0.15255 0.0
C2013 C 0.46961 0.57632 0.14519 0.0
N2014 N 0.5187 0.60363 0.14647 0.0
N2015 N 0.48529 0.57675 0.154 0.0
H2016 H 0.16969 0.12472 0.27396 0.0
H2017 H 0.10158 0.12583 0.50753 0.0
H2018 H 0.12926 0.15409 0.25902 0.0
H2019 H 0.12985 0.0851 0.48032 0.0
H2020 H 0.11433 0.13839 0.42505 0.0
H2021 H 0.15743 0.11134 0.35632 0.0
C2022 C 0.15824 0.12834 0.28832 0.0
C2023 C 0.15071 0.14094 0.26195 0.0
C2024 C 0.11778 0.12673 0.43712 0.0
C2025 C 0.13665 0.12573 0.35475 0.0
C2026 C 0.11043 0.11954 0.48372 0.0
C2027 C 0.11419 0.1042 0.49836 0.0
C2028 C 0.12926 0.11863 0.40612 0.0
C2029 C 0.12633 0.09679 0.46873 0.0
C2030 C 0.15127 0.12073 0.33502 0.0
C2031 C 0.1357 0.14489 0.28031 0.0
N2032 N 0.13339 0.10404 0.42342 0.0
N2033 N 0.12922 0.13746 0.32623 0.0
H2034 H 0.13093 0.92083 0.52784 0.0
H2035 H 0.13012 0.85183 0.75688 0.0
H2036 H 0.10242 0.87998 0.50726 0.0
H2037 H 0.1713 0.87936 0.72855 0.0
H2038 H 0.1177 0.86466 0.6743 0.0
H2039 H 0.14436 0.90815 0.6093 0.0
C2040 C 0.12748 0.90922 0.54084 0.0
C2041 C 0.11512 0.90165 0.51305 0.0
C2042 C 0.12942 0.86796 0.68621 0.0
C2043 C 0.13039 0.88712 0.60481 0.0
C2044 C 0.13655 0.86052 0.73277 0.0
C2045 C 0.15196 0.86405 0.74717 0.0
C2046 C 0.13759 0.87941 0.65535 0.0
C2047 C 0.15954 0.87602 0.71718 0.0
C2048 C 0.13513 0.902 0.58699 0.0
C2049 C 0.11139 0.88644 0.52972 0.0
N2050 N 0.15229 0.88326 0.67222 0.0
N2051 N 0.11884 0.87973 0.57517 0.0
H2052 H 0.37377 0.92263 0.97469 0.0
H2053 H 0.37307 0.85282 0.74936 0.0
H2054 H 0.4012 0.88109 0.99655 0.0
H2055 H 0.33228 0.88109 0.77526 0.0
H2056 H 0.3855 0.86565 0.83164 0.0
H2057 H 0.35979 0.90996 0.89424 0.0
C2058 C 0.37684 0.91086 0.96226 0.0
C2059 C 0.38907 0.90307 0.99003 0.0
C2060 C 0.37387 0.86914 0.81927 0.0
C2061 C 0.3732 0.88858 0.89956 0.0
C2062 C 0.36672 0.8617 0.77287 0.0
C2063 C 0.3514 0.86541 0.75788 0.0
C2064 C 0.36587 0.88086 0.84931 0.0
C2065 C 0.34396 0.87762 0.78712 0.0
C2066 C 0.36889 0.90366 0.91671 0.0
C2067 C 0.39233 0.8877 0.97411 0.0
N2068 N 0.35126 0.88491 0.8319 0.0
N2069 N 0.3846 0.88101 0.9293 0.0
H2070 H 0.37548 0.08409 0.03066 0.0
H2071 H 0.37505 0.15388 0.25736 0.0
H2072 H 0.40288 0.12565 0.0089 0.0
H2073 H 0.33515 0.12414 0.23508 0.0
H2074 H 0.38759 0.14114 0.17489 0.0
H2075 H 0.36205 0.09642 0.1129 0.0
C2076 C 0.37866 0.09579 0.0435 0.0
C2077 C 0.39073 0.10367 0.01519 0.0
C2078 C 0.37613 0.13732 0.18813 0.0
C2079 C 0.37548 0.1178 0.10781 0.0
C2080 C 0.36893 0.1447 0.23464 0.0
C2081 C 0.3538 0.14053 0.2506 0.0
C2082 C 0.36832 0.12533 0.15881 0.0
C2083 C 0.34666 0.12797 0.22242 0.0
C2084 C 0.37103 0.1028 0.09012 0.0
C2085 C 0.39413 0.11897 0.03169 0.0
N2086 N 0.35395 0.12084 0.17737 0.0
N2087 N 0.38669 0.12549 0.07754 0.0
H2088 H 0.87613 0.92134 0.52751 0.0
H2089 H 0.87608 0.85102 0.75222 0.0
H2090 H 0.90367 0.87997 0.5037 0.0
H2091 H 0.83601 0.88049 0.72964 0.0
H2092 H 0.88879 0.86419 0.67089 0.0
H2093 H 0.86307 0.90886 0.61021 0.0
C2094 C 0.87945 0.90966 0.54008 0.0
C2095 C 0.8914 0.90185 0.51088 0.0
C2096 C 0.87723 0.86781 0.68374 0.0
C2097 C 0.87656 0.88754 0.60403 0.0
C2098 C 0.86995 0.8602 0.72961 0.0
C2099 C 0.85474 0.8642 0.74518 0.0
C2100 C 0.8694 0.87982 0.65461 0.0
C2101 C 0.84758 0.87678 0.71725 0.0
C2102 C 0.87202 0.90256 0.58695 0.0
C2103 C 0.89498 0.88657 0.52709 0.0
N2104 N 0.85493 0.88411 0.67279 0.0
N2105 N 0.88773 0.87995 0.57316 0.0
H2106 H 0.87607 0.1545 0.24707 0.0
H2107 H 0.90446 0.12542 0.50632 0.0
H2108 H 0.83559 0.12648 0.28169 0.0
H2109 H 0.87613 0.08525 0.47007 0.0
H2110 H 0.89218 0.13911 0.42577 0.0
H2111 H 0.88953 0.14194 0.32759 0.0
C2112 C 0.86997 0.14584 0.27251 0.0
C2113 C 0.85451 0.14201 0.26001 0.0
C2114 C 0.88875 0.12724 0.43462 0.0
C2115 C 0.86985 0.12729 0.35127 0.0
C2116 C 0.89579 0.11944 0.48052 0.0
C2117 C 0.89179 0.104 0.49258 0.0
C2118 C 0.87738 0.11961 0.40128 0.0
C2119 C 0.87984 0.09701 0.46051 0.0
C2120 C 0.87764 0.13864 0.31839 0.0
C2121 C 0.84737 0.13006 0.2916 0.0
N2122 N 0.87308 0.10486 0.41591 0.0
N2123 N 0.85508 0.12315 0.33621 0.0
H2124 H 0.67422 0.12461 0.22691 0.0
H2125 H 0.60417 0.12396 1.00213 0.0
H2126 H 0.63243 0.15157 0.25015 0.0
H2127 H 0.6322 0.08301 0.02846 0.0
H2128 H 0.61744 0.13655 0.08313 0.0
H2129 H 0.66172 0.11094 0.1453 0.0
C2130 C 0.66246 0.12767 0.21447 0.0
C2131 C 0.65452 0.13965 0.24315 0.0
C2132 C 0.62077 0.12485 0.07112 0.0
C2133 C 0.64024 0.12413 0.15134 0.0
C2134 C 0.61309 0.11762 0.02544 0.0
C2135 C 0.61661 0.10222 0.011 0.0
C2136 C 0.63248 0.11682 0.1011 0.0
C2137 C 0.62887 0.09477 0.03994 0.0
C2138 C 0.65535 0.11989 0.16827 0.0
C2139 C 0.63915 0.14289 0.22714 0.0
N2140 N 0.63636 0.10212 0.08414 0.0
N2141 N 0.63257 0.13534 0.18172 0.0
H2142 H 0.62964 0.85158 0.74909 0.0
H2143 H 0.62925 0.92199 0.97335 0.0
H2144 H 0.6697 0.88107 0.77208 0.0
H2145 H 0.60205 0.88041 0.99786 0.0
H2146 H 0.64238 0.90951 0.89076 0.0
H2147 H 0.61689 0.86473 0.83038 0.0
C2148 C 0.63576 0.86076 0.77179 0.0
C2149 C 0.65099 0.86477 0.75635 0.0
C2150 C 0.63349 0.90317 0.91415 0.0
C2151 C 0.63627 0.88038 0.84681 0.0
C2152 C 0.62602 0.91026 0.96094 0.0
C2153 C 0.61414 0.90239 0.99032 0.0
C2154 C 0.62907 0.8881 0.8973 0.0
C2155 C 0.61068 0.88706 0.97432 0.0
C2156 C 0.62846 0.86836 0.81763 0.0
C2157 C 0.65813 0.87735 0.78438 0.0
N2158 N 0.61796 0.88046 0.92831 0.0
N2159 N 0.65074 0.88468 0.82878 0.0
H2160 H 0.6307 0.58534 0.97635 0.0
H2161 H 0.63092 0.65433 0.74686 0.0
H2162 H 0.60255 0.62649 0.99543 0.0
H2163 H 0.67125 0.62542 0.77292 0.0
H2164 H 0.61837 0.64185 0.82987 0.0
H2165 H 0.64433 0.59775 0.89482 0.0
C2166 C 0.62739 0.59697 0.96304 0.0
C2167 C 0.61507 0.6047 0.99038 0.0
C2168 C 0.62994 0.63818 0.81741 0.0
C2169 C 0.63057 0.61893 0.89859 0.0
C2170 C 0.63713 0.6454 0.77057 0.0
C2171 C 0.65236 0.64137 0.75537 0.0
C2172 C 0.63784 0.62645 0.8478 0.0
C2173 C 0.65965 0.62914 0.7849 0.0
C2174 C 0.63515 0.60403 0.91685 0.0
C2175 C 0.61151 0.61992 0.97335 0.0
N2176 N 0.65235 0.62212 0.83018 0.0
N2177 N 0.61908 0.62649 0.92789 0.0
H2178 H 0.63134 0.35315 0.25724 0.0
H2179 H 0.63263 0.42135 0.02476 0.0
H2180 H 0.67279 0.38028 0.22877 0.0
H2181 H 0.60314 0.381 0.01024 0.0
H2182 H 0.64638 0.40883 0.10595 0.0
H2183 H 0.61901 0.36611 0.17501 0.0
C2184 C 0.63784 0.36182 0.23323 0.0
C2185 C 0.65329 0.36519 0.24757 0.0
C2186 C 0.6369 0.40275 0.08492 0.0
C2187 C 0.63908 0.38056 0.15548 0.0
C2188 C 0.62907 0.40987 0.03892 0.0
C2189 C 0.61632 0.40242 0.01306 0.0
C2190 C 0.63194 0.38809 0.10445 0.0
C2191 C 0.61244 0.38738 0.03114 0.0
C2192 C 0.63078 0.36929 0.18673 0.0
C2193 C 0.66098 0.37708 0.2175 0.0
N2194 N 0.62007 0.38078 0.07636 0.0
N2195 N 0.65382 0.38432 0.1723 0.0
H2196 H 0.87496 0.42184 0.47622 0.0
H2197 H 0.87479 0.35185 0.25117 0.0
H2198 H 0.90248 0.38048 0.50068 0.0
H2199 H 0.83392 0.37991 0.27849 0.0
H2200 H 0.88742 0.36488 0.33296 0.0
H2201 H 0.86156 0.40908 0.39478 0.0
C2202 C 0.87822 0.41011 0.46402 0.0
C2203 C 0.89027 0.40238 0.49305 0.0
C2204 C 0.8757 0.36822 0.32108 0.0
C2205 C 0.87501 0.38776 0.40134 0.0
C2206 C 0.86846 0.36068 0.27498 0.0
C2207 C 0.85308 0.36431 0.26048 0.0
C2208 C 0.8677 0.3799 0.35133 0.0
C2209 C 0.84565 0.37648 0.28997 0.0
C2210 C 0.87058 0.40285 0.41791 0.0
C2211 C 0.89374 0.38703 0.47734 0.0
N2212 N 0.85301 0.38383 0.33443 0.0
N2213 N 0.88631 0.38027 0.43194 0.0
H2214 H 0.83422 0.62543 0.72542 0.0
H2215 H 0.90398 0.625 0.4995 0.0
H2216 H 0.87579 0.65268 0.74948 0.0
H2217 H 0.87549 0.58439 0.52616 0.0
H2218 H 0.89109 0.63766 0.58146 0.0
H2219 H 0.84675 0.61205 0.64352 0.0
C2220 C 0.84595 0.62863 0.71302 0.0
C2221 C 0.8538 0.6406 0.74205 0.0
C2222 C 0.88762 0.626 0.56936 0.0
C2223 C 0.86816 0.62537 0.64984 0.0
C2224 C 0.89507 0.61874 0.52315 0.0
C2225 C 0.89128 0.60341 0.50844 0.0
C2226 C 0.87588 0.61807 0.59954 0.0
C2227 C 0.87904 0.59607 0.53778 0.0
C2228 C 0.85308 0.621 0.66665 0.0
C2229 C 0.86914 0.644 0.72612 0.0
N2230 N 0.87178 0.60345 0.58239 0.0
N2231 N 0.87578 0.63658 0.68046 0.0
H2232 H 0.37698 0.35048 0.25639 0.0
H2233 H 0.40616 0.37931 0.99837 0.0
H2234 H 0.33683 0.37903 0.22236 0.0
H2235 H 0.37598 0.41854 0.02744 0.0
H2236 H 0.39383 0.36574 0.07902 0.0
H2237 H 0.39045 0.36275 0.17537 0.0
C2238 C 0.37096 0.35921 0.23099 0.0
C2239 C 0.35558 0.36327 0.24381 0.0
C2240 C 0.39 0.37739 0.06865 0.0
C2241 C 0.37085 0.3775 0.1514 0.0
C2242 C 0.39705 0.38511 0.02259 0.0
C2243 C 0.39255 0.40029 0.00858 0.0
C2244 C 0.37823 0.38489 0.10046 0.0
C2245 C 0.38008 0.40701 0.03858 0.0
C2246 C 0.37862 0.36622 0.18469 0.0
C2247 C 0.34854 0.37527 0.21222 0.0
N2248 N 0.37342 0.39931 0.08366 0.0
N2249 N 0.35619 0.38191 0.16694 0.0
H2250 H 0.3737 0.58335 0.97858 0.0
H2251 H 0.33083 0.62674 0.77445 0.0
H2252 H 0.39967 0.6259 0.99821 0.0
H2253 H 0.37429 0.65085 0.75058 0.0
H2254 H 0.34209 0.61294 0.85768 0.0
H2255 H 0.35951 0.59501 0.89711 0.0
C2256 C 0.37633 0.59518 0.96563 0.0
C2257 C 0.38826 0.60351 0.99298 0.0
C2258 C 0.34922 0.62112 0.83393 0.0
C2259 C 0.37189 0.61706 0.90182 0.0
C2260 C 0.34276 0.62905 0.78688 0.0
C2261 C 0.35152 0.64031 0.7576 0.0
C2262 C 0.3646 0.62438 0.85077 0.0
C2263 C 0.36703 0.64268 0.77386 0.0
C2264 C 0.36818 0.60187 0.9196 0.0
C2265 C 0.391 0.61892 0.97623 0.0
N2266 N 0.37302 0.63495 0.82002 0.0
N2267 N 0.38306 0.62513 0.93097 0.0
H2268 H 0.17249 0.6257 0.7279 0.0
H2269 H 0.10236 0.62544 0.50333 0.0
H2270 H 0.13104 0.65305 0.75306 0.0
H2271 H 0.13055 0.58465 0.53041 0.0
H2272 H 0.11544 0.63811 0.58495 0.0
H2273 H 0.15974 0.61236 0.6463 0.0
C2274 C 0.16074 0.62894 0.7158 0.0
C2275 C 0.15298 0.64092 0.74509 0.0
C2276 C 0.11879 0.62641 0.57305 0.0
C2277 C 0.13838 0.62574 0.65319 0.0
C2278 C 0.11123 0.61913 0.52704 0.0
C2279 C 0.11489 0.60376 0.51254 0.0
C2280 C 0.13051 0.61842 0.6032 0.0
C2281 C 0.1271 0.59637 0.5419 0.0
C2282 C 0.15349 0.62134 0.66959 0.0
C2283 C 0.13762 0.64437 0.72951 0.0
N2284 N 0.13446 0.60375 0.58627 0.0
N2285 N 0.13086 0.63697 0.68401 0.0
H2286 H 0.13021 0.35307 0.2554 0.0
H2287 H 0.12911 0.42404 0.47749 0.0
H2288 H 0.16996 0.38315 0.2755 0.0
H2289 H 0.10253 0.38205 0.50196 0.0
H2290 H 0.1424 0.41175 0.39468 0.0
H2291 H 0.11738 0.36654 0.33552 0.0
C2292 C 0.13623 0.36249 0.27714 0.0
C2293 C 0.15141 0.36655 0.26132 0.0
C2294 C 0.13362 0.40528 0.41816 0.0
C2295 C 0.13658 0.38248 0.35069 0.0
C2296 C 0.12606 0.41226 0.46508 0.0
C2297 C 0.1143 0.40421 0.49448 0.0
C2298 C 0.12938 0.39015 0.40129 0.0
C2299 C 0.11107 0.38883 0.47847 0.0
C2300 C 0.12887 0.37026 0.32235 0.0
C2301 C 0.15842 0.3794 0.28816 0.0
N2302 N 0.11842 0.38235 0.43242 0.0
N2303 N 0.15099 0.38687 0.33216 0.0
loop_
_geom_bond_atom_site_label_1
_geom_bond_atom_site_label_2
_geom_bond_distance
_geom_bond_site_symmetry_2
_ccdc_geom_bond_type
Mn0 O5 2.095 . S
Mn0 O15 2.162 . S
Mn0 O16 2.297 . S
Mn0 O24 2.385 . S
Mn0 O25 2.209 . S
Mn0 O26 2.094 . S
Mn1 O6 2.121 . S
Mn1 N8 2.257 . S
Mn1 N17 2.282 . S
Mn1 O25 2.215 . S
Mn1 O27 2.117 . S
C2 O24 1.234 . S
C2 O25 1.283 . S
C3 O15 1.281 . S
C3 O16 1.236 . S
C4 O26 1.240 . S
C4 O27 1.264 . S
O5 Mn0 2.095 . S
O5 C14 1.250 . S
O6 Mn1 2.121 . S
O6 C14 1.258 . S
C7 N8 1.326 . S
C7 C11 1.460 . S
C7 H13 0.929 . S
N8 Mn1 2.257 . S
N8 C7 1.326 . S
N8 C12 1.362 . S
C9 C10 1.258 . S
C9 C12 1.431 . S
C9 C29 1.449 . S
C10 C9 1.258 . S
C10 C11 1.477 . S
C10 H30 0.931 . S
C11 C7 1.460 . S
C11 C10 1.477 . S
C11 H31 0.930 . S
C12 N8 1.362 . S
C12 C9 1.431 . S
C12 C22 1.476 . S
H13 C7 0.929 . S
C14 O5 1.250 . S
C14 O6 1.258 . S
O15 Mn0 2.162 . S
O15 C3 1.281 . S
O16 Mn0 2.297 . S
O16 C3 1.236 . S
N17 Mn1 2.282 . S
N17 C18 1.328 . S
N17 C22 1.318 . S
C18 N17 1.328 . S
C18 C19 1.457 . S
C18 H23 0.929 . S
C19 C18 1.457 . S
C19 C20 1.291 . S
C19 H32 0.931 . S
C20 C19 1.291 . S
C20 C21 1.373 . S
C20 H33 0.929 . S
C21 C20 1.373 . S
C21 C22 1.396 . S
C21 C28 1.403 . S
C22 C12 1.476 . S
C22 N17 1.318 . S
C22 C21 1.396 . S
H23 C18 0.929 . S
O24 Mn0 2.385 . S
O24 C2 1.234 . S
O25 Mn0 2.209 . S
O25 Mn1 2.215 . S
O25 C2 1.283 . S
O26 Mn0 2.094 . S
O26 C4 1.240 . S
O27 Mn1 2.117 . S
O27 C4 1.264 . S
C28 C21 1.403 . S
C28 C29 1.399 . S
C28 H34 0.929 . S
C29 C9 1.449 . S
C29 C28 1.399 . S
C29 H35 0.930 . S
H30 C10 0.931 . S
H31 C11 0.930 . S
H32 C19 0.931 . S
H33 C20 0.929 . S
H34 C28 0.929 . S
H35 C29 0.930 . S
Mn36 O41 2.095 . S
Mn36 O51 2.162 . S
Mn36 O52 2.297 . S
Mn36 O60 2.385 . S
Mn36 O61 2.209 . S
Mn36 O62 2.094 . S
Mn37 O42 2.121 . S
Mn37 N44 2.257 . S
Mn37 N53 2.282 . S
Mn37 O61 2.215 . S
Mn37 O63 2.117 . S
C38 O60 1.234 . S
C38 O61 1.283 . S
C39 O51 1.281 . S
C39 O52 1.236 . S
C40 O62 1.240 . S
C40 O63 1.264 . S
O41 Mn36 2.095 . S
O41 C50 1.250 . S
O42 Mn37 2.121 . S
O42 C50 1.258 . S
C43 N44 1.326 . S
C43 C47 1.460 . S
C43 H49 0.929 . S
N44 Mn37 2.257 . S
N44 C43 1.326 . S
N44 C48 1.362 . S
C45 C46 1.258 . S
C45 C48 1.431 . S
C45 C65 1.449 . S
C46 C45 1.258 . S
C46 C47 1.477 . S
C46 H66 0.931 . S
C47 C43 1.460 . S
C47 C46 1.477 . S
C47 H67 0.930 . S
C48 N44 1.362 . S
C48 C45 1.431 . S
C48 C58 1.476 . S
H49 C43 0.929 . S
C50 O41 1.250 . S
C50 O42 1.258 . S
O51 Mn36 2.162 . S
O51 C39 1.281 . S
O52 Mn36 2.297 . S
O52 C39 1.236 . S
N53 Mn37 2.282 . S
N53 C54 1.328 . S
N53 C58 1.318 . S
C54 N53 1.328 . S
C54 C55 1.457 . S
C54 H59 0.929 . S
C55 C54 1.457 . S
C55 C56 1.291 . S
C55 H68 0.931 . S
C56 C55 1.291 . S
C56 C57 1.373 . S
C56 H69 0.929 . S
C57 C56 1.373 . S
C57 C58 1.396 . S
C57 C64 1.403 . S
C58 C48 1.476 . S
C58 N53 1.318 . S
C58 C57 1.396 . S
H59 C54 0.929 . S
O60 Mn36 2.385 . S
O60 C38 1.234 . S
O61 Mn36 2.209 . S
O61 Mn37 2.215 . S
O61 C38 1.283 . S
O62 Mn36 2.094 . S
O62 C40 1.240 . S
O63 Mn37 2.117 . S
O63 C40 1.264 . S
C64 C57 1.403 . S
C64 C65 1.399 . S
C64 H70 0.929 . S
C65 C45 1.449 . S
C65 C64 1.399 . S
C65 H71 0.930 . S
H66 C46 0.931 . S
H67 C47 0.930 . S
H68 C55 0.931 . S
H69 C56 0.929 . S
H70 C64 0.929 . S
H71 C65 0.930 . S
Mn72 O77 2.095 . S
Mn72 O87 2.162 . S
Mn72 O88 2.297 . S
Mn72 O96 2.385 . S
Mn72 O97 2.209 . S
Mn72 O98 2.094 . S
Mn73 O78 2.121 . S
Mn73 N80 2.257 . S
Mn73 N89 2.282 . S
Mn73 O97 2.215 . S
Mn73 O99 2.117 . S
C74 O96 1.234 . S
C74 O97 1.283 . S
C75 O87 1.281 . S
C75 O88 1.236 . S
C76 O98 1.240 . S
C76 O99 1.264 . S
O77 Mn72 2.095 . S
O77 C86 1.250 . S
O78 Mn73 2.121 . S
O78 C86 1.258 . S
C79 N80 1.326 . S
C79 C83 1.460 . S
C79 H85 0.929 . S
N80 Mn73 2.257 . S
N80 C79 1.326 . S
N80 C84 1.362 . S
C81 C82 1.258 . S
C81 C84 1.431 . S
C81 C101 1.449 . S
C82 C81 1.258 . S
C82 C83 1.477 . S
C82 H102 0.931 . S
C83 C79 1.460 . S
C83 C82 1.477 . S
C83 H103 0.930 . S
C84 N80 1.362 . S
C84 C81 1.431 . S
C84 C94 1.476 . S
H85 C79 0.929 . S
C86 O77 1.250 . S
C86 O78 1.258 . S
O87 Mn72 2.162 . S
O87 C75 1.281 . S
O88 Mn72 2.297 . S
O88 C75 1.236 . S
N89 Mn73 2.282 . S
N89 C90 1.328 . S
N89 C94 1.318 . S
C90 N89 1.328 . S
C90 C91 1.457 . S
C90 H95 0.929 . S
C91 C90 1.457 . S
C91 C92 1.291 . S
C91 H104 0.931 . S
C92 C91 1.291 . S
C92 C93 1.373 . S
C92 H105 0.929 . S
C93 C92 1.373 . S
C93 C94 1.396 . S
C93 C100 1.403 . S
C94 C84 1.476 . S
C94 N89 1.318 . S
C94 C93 1.396 . S
H95 C90 0.929 . S
O96 Mn72 2.385 . S
O96 C74 1.234 . S
O97 Mn72 2.209 . S
O97 Mn73 2.215 . S
O97 C74 1.283 . S
O98 Mn72 2.094 . S
O98 C76 1.240 . S
O99 Mn73 2.117 . S
O99 C76 1.264 . S
C100 C93 1.403 . S
C100 C101 1.399 . S
C100 H106 0.929 . S
C101 C81 1.449 . S
C101 C100 1.399 . S
C101 H107 0.930 . S
H102 C82 0.931 . S
H103 C83 0.930 . S
H104 C91 0.931 . S
H105 C92 0.929 . S
H106 C100 0.929 . S
H107 C101 0.930 . S
Mn108 O113 2.095 . S
Mn108 O123 2.162 . S
Mn108 O124 2.297 . S
Mn108 O132 2.385 . S
Mn108 O133 2.209 . S
Mn108 O134 2.094 . S
Mn109 O114 2.121 1_554 S
Mn109 N116 2.257 . S
Mn109 N125 2.282 . S
Mn109 O133 2.215 1_554 S
Mn109 O135 2.117 1_554 S
C110 O132 1.234 . S
C110 O133 1.283 . S
C111 O123 1.281 . S
C111 O124 1.236 . S
C112 O134 1.240 . S
C112 O135 1.264 . S
O113 Mn108 2.095 . S
O113 C122 1.250 . S
O114 Mn109 2.121 1_556 S
O114 C122 1.258 . S
C115 N116 1.326 . S
C115 C119 1.460 . S
C115 H121 0.929 . S
N116 Mn109 2.257 . S
N116 C115 1.326 . S
N116 C120 1.362 . S
C117 C118 1.258 . S
C117 C120 1.431 . S
C117 C137 1.449 . S
C118 C117 1.258 . S
C118 C119 1.477 . S
C118 H138 0.931 . S
C119 C115 1.460 . S
C119 C118 1.477 . S
C119 H139 0.930 . S
C120 N116 1.362 . S
C120 C117 1.431 . S
C120 C130 1.476 . S
H121 C115 0.929 . S
C122 O113 1.250 . S
C122 O114 1.258 . S
O123 Mn108 2.162 . S
O123 C111 1.281 . S
O124 Mn108 2.297 . S
O124 C111 1.236 . S
N125 Mn109 2.282 . S
N125 C126 1.328 . S
N125 C130 1.318 . S
C126 N125 1.328 . S
C126 C127 1.457 . S
C126 H131 0.929 . S
C127 C126 1.457 . S
C127 C128 1.291 . S
C127 H140 0.931 . S
C128 C127 1.291 . S
C128 C129 1.373 . S
C128 H141 0.929 . S
C129 C128 1.373 . S
C129 C130 1.396 . S
C129 C136 1.403 . S
C130 C120 1.476 . S
C130 N125 1.318 . S
C130 C129 1.396 . S
H131 C126 0.929 . S
O132 Mn108 2.385 . S
O132 C110 1.234 . S
O133 Mn108 2.209 . S
O133 Mn109 2.215 1_556 S
O133 C110 1.283 . S
O134 Mn108 2.094 . S
O134 C112 1.240 . S
O135 Mn109 2.117 1_556 S
O135 C112 1.264 . S
C136 C129 1.403 . S
C136 C137 1.399 . S
C136 H142 0.929 . S
C137 C117 1.449 . S
C137 C136 1.399 . S
C137 H143 0.930 . S
H138 C118 0.931 . S
H139 C119 0.930 . S
H140 C127 0.931 . S
H141 C128 0.929 . S
H142 C136 0.929 . S
H143 C137 0.930 . S
Mn144 O149 2.095 . S
Mn144 O159 2.162 . S
Mn144 O160 2.297 . S
Mn144 O168 2.385 . S
Mn144 O169 2.209 . S
Mn144 O170 2.094 . S
Mn145 O150 2.121 . S
Mn145 N152 2.257 . S
Mn145 N161 2.282 . S
Mn145 O169 2.215 . S
Mn145 O171 2.117 . S
C146 O168 1.234 . S
C146 O169 1.283 . S
C147 O159 1.281 . S
C147 O160 1.236 . S
C148 O170 1.240 . S
C148 O171 1.264 . S
O149 Mn144 2.095 . S
O149 C158 1.250 . S
O150 Mn145 2.121 . S
O150 C158 1.258 . S
C151 N152 1.326 . S
C151 C155 1.460 . S
C151 H157 0.929 . S
N152 Mn145 2.257 . S
N152 C151 1.326 . S
N152 C156 1.362 . S
C153 C154 1.258 . S
C153 C156 1.431 . S
C153 C173 1.449 . S
C154 C153 1.258 . S
C154 C155 1.477 . S
C154 H174 0.931 . S
C155 C151 1.460 . S
C155 C154 1.477 . S
C155 H175 0.930 . S
C156 N152 1.362 . S
C156 C153 1.431 . S
C156 C166 1.476 . S
H157 C151 0.929 . S
C158 O149 1.250 . S
C158 O150 1.258 . S
O159 Mn144 2.162 . S
O159 C147 1.281 . S
O160 Mn144 2.297 . S
O160 C147 1.236 . S
N161 Mn145 2.282 . S
N161 C162 1.328 . S
N161 C166 1.318 . S
C162 N161 1.328 . S
C162 C163 1.457 . S
C162 H167 0.929 . S
C163 C162 1.457 . S
C163 C164 1.291 . S
C163 H176 0.931 . S
C164 C163 1.291 . S
C164 C165 1.373 . S
C164 H177 0.929 . S
C165 C164 1.373 . S
C165 C166 1.396 . S
C165 C172 1.403 . S
C166 C156 1.476 . S
C166 N161 1.318 . S
C166 C165 1.396 . S
H167 C162 0.929 . S
O168 Mn144 2.385 . S
O168 C146 1.234 . S
O169 Mn144 2.209 . S
O169 Mn145 2.215 . S
O169 C146 1.283 . S
O170 Mn144 2.094 . S
O170 C148 1.240 . S
O171 Mn145 2.117 . S
O171 C148 1.264 . S
C172 C165 1.403 . S
C172 C173 1.399 . S
C172 H178 0.929 . S
C173 C153 1.449 . S
C173 C172 1.399 . S
C173 H179 0.930 . S
H174 C154 0.931 . S
H175 C155 0.930 . S
H176 C163 0.931 . S
H177 C164 0.929 . S
H178 C172 0.929 . S
H179 C173 0.930 . S
Mn180 O185 2.095 . S
Mn180 O195 2.162 . S
Mn180 O196 2.297 . S
Mn180 O204 2.385 . S
Mn180 O205 2.209 . S
Mn180 O206 2.094 . S
Mn181 O186 2.121 1_556 S
Mn181 N188 2.257 . S
Mn181 N197 2.282 . S
Mn181 O205 2.215 1_556 S
Mn181 O207 2.117 1_556 S
C182 O204 1.234 . S
C182 O205 1.283 . S
C183 O195 1.281 . S
C183 O196 1.236 . S
C184 O206 1.240 . S
C184 O207 1.264 . S
O185 Mn180 2.095 . S
O185 C194 1.250 . S
O186 Mn181 2.121 1_554 S
O186 C194 1.258 . S
C187 N188 1.326 . S
C187 C191 1.460 . S
C187 H193 0.929 . S
N188 Mn181 2.257 . S
N188 C187 1.326 . S
N188 C192 1.362 . S
C189 C190 1.258 . S
C189 C192 1.431 . S
C189 C209 1.449 . S
C190 C189 1.258 . S
C190 C191 1.477 . S
C190 H210 0.931 . S
C191 C187 1.460 . S
C191 C190 1.477 . S
C191 H211 0.930 . S
C192 N188 1.362 . S
C192 C189 1.431 . S
C192 C202 1.476 . S
H193 C187 0.929 . S
C194 O185 1.250 . S
C194 O186 1.258 . S
O195 Mn180 2.162 . S
O195 C183 1.281 . S
O196 Mn180 2.297 . S
O196 C183 1.236 . S
N197 Mn181 2.282 . S
N197 C198 1.328 . S
N197 C202 1.318 . S
C198 N197 1.328 . S
C198 C199 1.457 . S
C198 H203 0.929 . S
C199 C198 1.457 . S
C199 C200 1.291 . S
C199 H212 0.931 . S
C200 C199 1.291 . S
C200 C201 1.373 . S
C200 H213 0.929 . S
C201 C200 1.373 . S
C201 C202 1.396 . S
C201 C208 1.403 . S
C202 C192 1.476 . S
C202 N197 1.318 . S
C202 C201 1.396 . S
H203 C198 0.929 . S
O204 Mn180 2.385 . S
O204 C182 1.234 . S
O205 Mn180 2.209 . S
O205 Mn181 2.215 1_554 S
O205 C182 1.283 . S
O206 Mn180 2.094 . S
O206 C184 1.240 . S
O207 Mn181 2.117 1_554 S
O207 C184 1.264 . S
C208 C201 1.403 . S
C208 C209 1.399 . S
C208 H214 0.929 . S
C209 C189 1.449 . S
C209 C208 1.399 . S
C209 H215 0.930 . S
H210 C190 0.931 . S
H211 C191 0.930 . S
H212 C199 0.931 . S
H213 C200 0.929 . S
H214 C208 0.929 . S
H215 C209 0.930 . S
Mn216 O221 2.095 . S
Mn216 O231 2.162 . S
Mn216 O232 2.297 . S
Mn216 O240 2.385 . S
Mn216 O241 2.209 . S
Mn216 O242 2.094 . S
Mn217 O222 2.121 . S
Mn217 N224 2.257 . S
Mn217 N233 2.282 . S
Mn217 O241 2.215 . S
Mn217 O243 2.117 . S
C218 O240 1.234 . S
C218 O241 1.283 . S
C219 O231 1.281 . S
C219 O232 1.236 . S
C220 O242 1.240 . S
C220 O243 1.264 . S
O221 Mn216 2.095 . S
O221 C230 1.250 . S
O222 Mn217 2.121 . S
O222 C230 1.258 . S
C223 N224 1.326 . S
C223 C227 1.460 . S
C223 H229 0.929 . S
N224 Mn217 2.257 . S
N224 C223 1.326 . S
N224 C228 1.362 . S
C225 C226 1.258 . S
C225 C228 1.431 . S
C225 C245 1.449 . S
C226 C225 1.258 . S
C226 C227 1.477 . S
C226 H246 0.931 . S
C227 C223 1.460 . S
C227 C226 1.477 . S
C227 H247 0.930 . S
C228 N224 1.362 . S
C228 C225 1.431 . S
C228 C238 1.476 . S
H229 C223 0.929 . S
C230 O221 1.250 . S
C230 O222 1.258 . S
O231 Mn216 2.162 . S
O231 C219 1.281 . S
O232 Mn216 2.297 . S
O232 C219 1.236 . S
N233 Mn217 2.282 . S
N233 C234 1.328 . S
N233 C238 1.318 . S
C234 N233 1.328 . S
C234 C235 1.457 . S
C234 H239 0.929 . S
C235 C234 1.457 . S
C235 C236 1.291 . S
C235 H248 0.931 . S
C236 C235 1.291 . S
C236 C237 1.373 . S
C236 H249 0.929 . S
C237 C236 1.373 . S
C237 C238 1.396 . S
C237 C244 1.403 . S
C238 C228 1.476 . S
C238 N233 1.318 . S
C238 C237 1.396 . S
H239 C234 0.929 . S
O240 Mn216 2.385 . S
O240 C218 1.234 . S
O241 Mn216 2.209 . S
O241 Mn217 2.215 . S
O241 C218 1.283 . S
O242 Mn216 2.094 . S
O242 C220 1.240 . S
O243 Mn217 2.117 . S
O243 C220 1.264 . S
C244 C237 1.403 . S
C244 C245 1.399 . S
C244 H250 0.929 . S
C245 C225 1.449 . S
C245 C244 1.399 . S
C245 H251 0.930 . S
H246 C226 0.931 . S
H247 C227 0.930 . S
H248 C235 0.931 . S
H249 C236 0.929 . S
H250 C244 0.929 . S
H251 C245 0.930 . S
Mn252 O257 2.095 . S
Mn252 O267 2.162 . S
Mn252 O268 2.297 . S
Mn252 O276 2.385 . S
Mn252 O277 2.209 . S
Mn252 O278 2.094 . S
Mn253 O258 2.121 . S
Mn253 N260 2.257 . S
Mn253 N269 2.282 . S
Mn253 O277 2.215 . S
Mn253 O279 2.117 . S
C254 O276 1.234 . S
C254 O277 1.283 . S
C255 O267 1.281 . S
C255 O268 1.236 . S
C256 O278 1.240 . S
C256 O279 1.264 . S
O257 Mn252 2.095 . S
O257 C266 1.250 . S
O258 Mn253 2.121 . S
O258 C266 1.258 . S
C259 N260 1.326 . S
C259 C263 1.460 . S
C259 H265 0.929 . S
N260 Mn253 2.257 . S
N260 C259 1.326 . S
N260 C264 1.362 . S
C261 C262 1.258 . S
C261 C264 1.431 . S
C261 C281 1.449 . S
C262 C261 1.258 . S
C262 C263 1.477 . S
C262 H282 0.931 . S
C263 C259 1.460 . S
C263 C262 1.477 . S
C263 H283 0.930 . S
C264 N260 1.362 . S
C264 C261 1.431 . S
C264 C274 1.476 . S
H265 C259 0.929 . S
C266 O257 1.250 . S
C266 O258 1.258 . S
O267 Mn252 2.162 . S
O267 C255 1.281 . S
O268 Mn252 2.297 . S
O268 C255 1.236 . S
N269 Mn253 2.282 . S
N269 C270 1.328 . S
N269 C274 1.318 . S
C270 N269 1.328 . S
C270 C271 1.457 . S
C270 H275 0.929 . S
C271 C270 1.457 . S
C271 C272 1.291 . S
C271 H284 0.931 . S
C272 C271 1.291 . S
C272 C273 1.373 . S
C272 H285 0.929 . S
C273 C272 1.373 . S
C273 C274 1.396 . S
C273 C280 1.403 . S
C274 C264 1.476 . S
C274 N269 1.318 . S
C274 C273 1.396 . S
H275 C270 0.929 . S
O276 Mn252 2.385 . S
O276 C254 1.234 . S
O277 Mn252 2.209 . S
O277 Mn253 2.215 . S
O277 C254 1.283 . S
O278 Mn252 2.094 . S
O278 C256 1.240 . S
O279 Mn253 2.117 . S
O279 C256 1.264 . S
C280 C273 1.403 . S
C280 C281 1.399 . S
C280 H286 0.929 . S
C281 C261 1.449 . S
C281 C280 1.399 . S
C281 H287 0.930 . S
H282 C262 0.931 . S
H283 C263 0.930 . S
H284 C271 0.931 . S
H285 C272 0.929 . S
H286 C280 0.929 . S
H287 C281 0.930 . S
Mn288 O293 2.095 . S
Mn288 O303 2.162 . S
Mn288 O304 2.297 . S
Mn288 O312 2.385 . S
Mn288 O313 2.209 . S
Mn288 O314 2.094 . S
Mn289 O294 2.121 . S
Mn289 N296 2.257 . S
Mn289 N305 2.282 . S
Mn289 O313 2.215 . S
Mn289 O315 2.117 . S
C290 O312 1.234 . S
C290 O313 1.283 . S
C291 O303 1.281 . S
C291 O304 1.236 . S
C292 O314 1.240 . S
C292 O315 1.264 . S
O293 Mn288 2.095 . S
O293 C302 1.250 . S
O294 Mn289 2.121 . S
O294 C302 1.258 . S
C295 N296 1.326 . S
C295 C299 1.460 . S
C295 H301 0.929 . S
N296 Mn289 2.257 . S
N296 C295 1.326 . S
N296 C300 1.362 . S
C297 C298 1.258 . S
C297 C300 1.431 . S
C297 C317 1.449 . S
C298 C297 1.258 . S
C298 C299 1.477 . S
C298 H318 0.931 . S
C299 C295 1.460 . S
C299 C298 1.477 . S
C299 H319 0.930 . S
C300 N296 1.362 . S
C300 C297 1.431 . S
C300 C310 1.476 . S
H301 C295 0.929 . S
C302 O293 1.250 . S
C302 O294 1.258 . S
O303 Mn288 2.162 . S
O303 C291 1.281 . S
O304 Mn288 2.297 . S
O304 C291 1.236 . S
N305 Mn289 2.282 . S
N305 C306 1.328 . S
N305 C310 1.318 . S
C306 N305 1.328 . S
C306 C307 1.457 . S
C306 H311 0.929 . S
C307 C306 1.457 . S
C307 C308 1.291 . S
C307 H320 0.931 . S
C308 C307 1.291 . S
C308 C309 1.373 . S
C308 H321 0.929 . S
C309 C308 1.373 . S
C309 C310 1.396 . S
C309 C316 1.403 . S
C310 C300 1.476 . S
C310 N305 1.318 . S
C310 C309 1.396 . S
H311 C306 0.929 . S
O312 Mn288 2.385 . S
O312 C290 1.234 . S
O313 Mn288 2.209 . S
O313 Mn289 2.215 . S
O313 C290 1.283 . S
O314 Mn288 2.094 . S
O314 C292 1.240 . S
O315 Mn289 2.117 . S
O315 C292 1.264 . S
C316 C309 1.403 . S
C316 C317 1.399 . S
C316 H322 0.929 . S
C317 C297 1.449 . S
C317 C316 1.399 . S
C317 H323 0.930 . S
H318 C298 0.931 . S
H319 C299 0.930 . S
H320 C307 0.931 . S
H321 C308 0.929 . S
H322 C316 0.929 . S
H323 C317 0.930 . S
Mn324 O329 2.095 . S
Mn324 O339 2.162 . S
Mn324 O340 2.297 . S
Mn324 O348 2.385 . S
Mn324 O349 2.209 . S
Mn324 O350 2.094 . S
Mn325 O330 2.121 . S
Mn325 N332 2.257 . S
Mn325 N341 2.282 . S
Mn325 O349 2.215 . S
Mn325 O351 2.117 . S
C326 O348 1.234 . S
C326 O349 1.283 . S
C327 O339 1.281 . S
C327 O340 1.236 . S
C328 O350 1.240 . S
C328 O351 1.264 . S
O329 Mn324 2.095 . S
O329 C338 1.250 . S
O330 Mn325 2.121 . S
O330 C338 1.258 . S
C331 N332 1.326 . S
C331 C335 1.460 . S
C331 H337 0.929 . S
N332 Mn325 2.257 . S
N332 C331 1.326 . S
N332 C336 1.362 . S
C333 C334 1.258 . S
C333 C336 1.431 . S
C333 C353 1.449 . S
C334 C333 1.258 . S
C334 C335 1.477 . S
C334 H354 0.931 . S
C335 C331 1.460 . S
C335 C334 1.477 . S
C335 H355 0.930 . S
C336 N332 1.362 . S
C336 C333 1.431 . S
C336 C346 1.476 . S
H337 C331 0.929 . S
C338 O329 1.250 . S
C338 O330 1.258 . S
O339 Mn324 2.162 . S
O339 C327 1.281 . S
O340 Mn324 2.297 . S
O340 C327 1.236 . S
N341 Mn325 2.282 . S
N341 C342 1.328 . S
N341 C346 1.318 . S
C342 N341 1.328 . S
C342 C343 1.457 . S
C342 H347 0.929 . S
C343 C342 1.457 . S
C343 C344 1.291 . S
C343 H356 0.931 . S
C344 C343 1.291 . S
C344 C345 1.373 . S
C344 H357 0.929 . S
C345 C344 1.373 . S
C345 C346 1.396 . S
C345 C352 1.403 . S
C346 C336 1.476 . S
C346 N341 1.318 . S
C346 C345 1.396 . S
H347 C342 0.929 . S
O348 Mn324 2.385 . S
O348 C326 1.234 . S
O349 Mn324 2.209 . S
O349 Mn325 2.215 . S
O349 C326 1.283 . S
O350 Mn324 2.094 . S
O350 C328 1.240 . S
O351 Mn325 2.117 . S
O351 C328 1.264 . S
C352 C345 1.403 . S
C352 C353 1.399 . S
C352 H358 0.929 . S
C353 C333 1.449 . S
C353 C352 1.399 . S
C353 H359 0.930 . S
H354 C334 0.931 . S
H355 C335 0.930 . S
H356 C343 0.931 . S
H357 C344 0.929 . S
H358 C352 0.929 . S
H359 C353 0.930 . S
Mn360 O365 2.095 . S
Mn360 O375 2.162 . S
Mn360 O376 2.297 . S
Mn360 O384 2.385 . S
Mn360 O385 2.209 . S
Mn360 O386 2.094 . S
Mn361 O366 2.121 . S
Mn361 N368 2.257 . S
Mn361 N377 2.282 . S
Mn361 O385 2.215 . S
Mn361 O387 2.117 . S
C362 O384 1.234 . S
C362 O385 1.283 . S
C363 O375 1.281 . S
C363 O376 1.236 . S
C364 O386 1.240 . S
C364 O387 1.264 . S
O365 Mn360 2.095 . S
O365 C374 1.250 . S
O366 Mn361 2.121 . S
O366 C374 1.258 . S
C367 N368 1.326 . S
C367 C371 1.460 . S
C367 H373 0.929 . S
N368 Mn361 2.257 . S
N368 C367 1.326 . S
N368 C372 1.362 . S
C369 C370 1.258 . S
C369 C372 1.431 . S
C369 C389 1.449 . S
C370 C369 1.258 . S
C370 C371 1.477 . S
C370 H390 0.931 . S
C371 C367 1.460 . S
C371 C370 1.477 . S
C371 H391 0.930 . S
C372 N368 1.362 . S
C372 C369 1.431 . S
C372 C382 1.476 . S
H373 C367 0.929 . S
C374 O365 1.250 . S
C374 O366 1.258 . S
O375 Mn360 2.162 . S
O375 C363 1.281 . S
O376 Mn360 2.297 . S
O376 C363 1.236 . S
N377 Mn361 2.282 . S
N377 C378 1.328 . S
N377 C382 1.318 . S
C378 N377 1.328 . S
C378 C379 1.457 . S
C378 H383 0.929 . S
C379 C378 1.457 . S
C379 C380 1.291 . S
C379 H392 0.931 . S
C380 C379 1.291 . S
C380 C381 1.373 . S
C380 H393 0.929 . S
C381 C380 1.373 . S
C381 C382 1.396 . S
C381 C388 1.403 . S
C382 C372 1.476 . S
C382 N377 1.318 . S
C382 C381 1.396 . S
H383 C378 0.929 . S
O384 Mn360 2.385 . S
O384 C362 1.234 . S
O385 Mn360 2.209 . S
O385 Mn361 2.215 . S
O385 C362 1.283 . S
O386 Mn360 2.094 . S
O386 C364 1.240 . S
O387 Mn361 2.117 . S
O387 C364 1.264 . S
C388 C381 1.403 . S
C388 C389 1.399 . S
C388 H394 0.929 . S
C389 C369 1.449 . S
C389 C388 1.399 . S
C389 H395 0.930 . S
H390 C370 0.931 . S
H391 C371 0.930 . S
H392 C379 0.931 . S
H393 C380 0.929 . S
H394 C388 0.929 . S
H395 C389 0.930 . S
Mn396 O401 2.095 . S
Mn396 O411 2.162 . S
Mn396 O412 2.297 . S
Mn396 O420 2.385 . S
Mn396 O421 2.209 . S
Mn396 O422 2.094 . S
Mn397 O402 2.121 1_556 S
Mn397 N404 2.257 . S
Mn397 N413 2.282 . S
Mn397 O421 2.215 1_556 S
Mn397 O423 2.117 1_556 S
C398 O420 1.234 . S
C398 O421 1.283 . S
C399 O411 1.281 . S
C399 O412 1.236 . S
C400 O422 1.240 . S
C400 O423 1.264 . S
O401 Mn396 2.095 . S
O401 C410 1.250 . S
O402 Mn397 2.121 1_554 S
O402 C410 1.258 . S
C403 N404 1.326 . S
C403 C407 1.460 . S
C403 H409 0.929 . S
N404 Mn397 2.257 . S
N404 C403 1.326 . S
N404 C408 1.362 . S
C405 C406 1.258 . S
C405 C408 1.431 . S
C405 C425 1.449 . S
C406 C405 1.258 . S
C406 C407 1.477 . S
C406 H426 0.931 . S
C407 C403 1.460 . S
C407 C406 1.477 . S
C407 H427 0.930 . S
C408 N404 1.362 . S
C408 C405 1.431 . S
C408 C418 1.476 . S
H409 C403 0.929 . S
C410 O401 1.250 . S
C410 O402 1.258 . S
O411 Mn396 2.162 . S
O411 C399 1.281 . S
O412 Mn396 2.297 . S
O412 C399 1.236 . S
N413 Mn397 2.282 . S
N413 C414 1.328 . S
N413 C418 1.318 . S
C414 N413 1.328 . S
C414 C415 1.457 . S
C414 H419 0.929 . S
C415 C414 1.457 . S
C415 C416 1.291 . S
C415 H428 0.931 . S
C416 C415 1.291 . S
C416 C417 1.373 . S
C416 H429 0.929 . S
C417 C416 1.373 . S
C417 C418 1.396 . S
C417 C424 1.403 . S
C418 C408 1.476 . S
C418 N413 1.318 . S
C418 C417 1.396 . S
H419 C414 0.929 . S
O420 Mn396 2.385 . S
O420 C398 1.234 . S
O421 Mn396 2.209 . S
O421 Mn397 2.215 1_554 S
O421 C398 1.283 . S
O422 Mn396 2.094 . S
O422 C400 1.240 . S
O423 Mn397 2.117 1_554 S
O423 C400 1.264 . S
C424 C417 1.403 . S
C424 C425 1.399 . S
C424 H430 0.929 . S
C425 C405 1.449 . S
C425 C424 1.399 . S
C425 H431 0.930 . S
H426 C406 0.931 . S
H427 C407 0.930 . S
H428 C415 0.931 . S
H429 C416 0.929 . S
H430 C424 0.929 . S
H431 C425 0.930 . S
Mn432 O437 2.095 . S
Mn432 O447 2.162 . S
Mn432 O448 2.297 . S
Mn432 O456 2.385 . S
Mn432 O457 2.209 . S
Mn432 O458 2.094 . S
Mn433 O438 2.121 . S
Mn433 N440 2.257 . S
Mn433 N449 2.282 . S
Mn433 O457 2.215 . S
Mn433 O459 2.117 . S
C434 O456 1.234 . S
C434 O457 1.283 . S
C435 O447 1.281 . S
C435 O448 1.236 . S
C436 O458 1.240 . S
C436 O459 1.264 . S
O437 Mn432 2.095 . S
O437 C446 1.250 . S
O438 Mn433 2.121 . S
O438 C446 1.258 . S
C439 N440 1.326 . S
C439 C443 1.460 . S
C439 H445 0.929 . S
N440 Mn433 2.257 . S
N440 C439 1.326 . S
N440 C444 1.362 . S
C441 C442 1.258 . S
C441 C444 1.431 . S
C441 C461 1.449 . S
C442 C441 1.258 . S
C442 C443 1.477 . S
C442 H462 0.931 . S
C443 C439 1.460 . S
C443 C442 1.477 . S
C443 H463 0.930 . S
C444 N440 1.362 . S
C444 C441 1.431 . S
C444 C454 1.476 . S
H445 C439 0.929 . S
C446 O437 1.250 . S
C446 O438 1.258 . S
O447 Mn432 2.162 . S
O447 C435 1.281 . S
O448 Mn432 2.297 . S
O448 C435 1.236 . S
N449 Mn433 2.282 . S
N449 C450 1.328 . S
N449 C454 1.318 . S
C450 N449 1.328 . S
C450 C451 1.457 . S
C450 H455 0.929 . S
C451 C450 1.457 . S
C451 C452 1.291 . S
C451 H464 0.931 . S
C452 C451 1.291 . S
C452 C453 1.373 . S
C452 H465 0.929 . S
C453 C452 1.373 . S
C453 C454 1.396 . S
C453 C460 1.403 . S
C454 C444 1.476 . S
C454 N449 1.318 . S
C454 C453 1.396 . S
H455 C450 0.929 . S
O456 Mn432 2.385 . S
O456 C434 1.234 . S
O457 Mn432 2.209 . S
O457 Mn433 2.215 . S
O457 C434 1.283 . S
O458 Mn432 2.094 . S
O458 C436 1.240 . S
O459 Mn433 2.117 . S
O459 C436 1.264 . S
C460 C453 1.403 . S
C460 C461 1.399 . S
C460 H466 0.929 . S
C461 C441 1.449 . S
C461 C460 1.399 . S
C461 H467 0.930 . S
H462 C442 0.931 . S
H463 C443 0.930 . S
H464 C451 0.931 . S
H465 C452 0.929 . S
H466 C460 0.929 . S
H467 C461 0.930 . S
Mn468 O473 2.095 . S
Mn468 O483 2.162 . S
Mn468 O484 2.297 . S
Mn468 O492 2.385 . S
Mn468 O493 2.209 . S
Mn468 O494 2.094 . S
Mn469 O474 2.121 1_554 S
Mn469 N476 2.257 . S
Mn469 N485 2.282 . S
Mn469 O493 2.215 1_554 S
Mn469 O495 2.117 1_554 S
C470 O492 1.234 . S
C470 O493 1.283 . S
C471 O483 1.281 . S
C471 O484 1.236 . S
C472 O494 1.240 . S
C472 O495 1.264 . S
O473 Mn468 2.095 . S
O473 C482 1.250 . S
O474 Mn469 2.121 1_556 S
O474 C482 1.258 . S
C475 N476 1.326 . S
C475 C479 1.460 . S
C475 H481 0.929 . S
N476 Mn469 2.257 . S
N476 C475 1.326 . S
N476 C480 1.362 . S
C477 C478 1.258 . S
C477 C480 1.431 . S
C477 C497 1.449 . S
C478 C477 1.258 . S
C478 C479 1.477 . S
C478 H498 0.931 . S
C479 C475 1.460 . S
C479 C478 1.477 . S
C479 H499 0.930 . S
C480 N476 1.362 . S
C480 C477 1.431 . S
C480 C490 1.476 . S
H481 C475 0.929 . S
C482 O473 1.250 . S
C482 O474 1.258 . S
O483 Mn468 2.162 . S
O483 C471 1.281 . S
O484 Mn468 2.297 . S
O484 C471 1.236 . S
N485 Mn469 2.282 . S
N485 C486 1.328 . S
N485 C490 1.318 . S
C486 N485 1.328 . S
C486 C487 1.457 . S
C486 H491 0.929 . S
C487 C486 1.457 . S
C487 C488 1.291 . S
C487 H500 0.931 . S
C488 C487 1.291 . S
C488 C489 1.373 . S
C488 H501 0.929 . S
C489 C488 1.373 . S
C489 C490 1.396 . S
C489 C496 1.403 . S
C490 C480 1.476 . S
C490 N485 1.318 . S
C490 C489 1.396 . S
H491 C486 0.929 . S
O492 Mn468 2.385 . S
O492 C470 1.234 . S
O493 Mn468 2.209 . S
O493 Mn469 2.215 1_556 S
O493 C470 1.283 . S
O494 Mn468 2.094 . S
O494 C472 1.240 . S
O495 Mn469 2.117 1_556 S
O495 C472 1.264 . S
C496 C489 1.403 . S
C496 C497 1.399 . S
C496 H502 0.929 . S
C497 C477 1.449 . S
C497 C496 1.399 . S
C497 H503 0.930 . S
H498 C478 0.931 . S
H499 C479 0.930 . S
H500 C487 0.931 . S
H501 C488 0.929 . S
H502 C496 0.929 . S
H503 C497 0.930 . S
Mn504 O509 2.095 . S
Mn504 O519 2.162 . S
Mn504 O520 2.297 . S
Mn504 O528 2.385 . S
Mn504 O529 2.209 . S
Mn504 O530 2.094 . S
Mn505 O510 2.121 . S
Mn505 N512 2.257 . S
Mn505 N521 2.282 . S
Mn505 O529 2.215 . S
Mn505 O531 2.117 . S
C506 O528 1.234 . S
C506 O529 1.283 . S
C507 O519 1.281 . S
C507 O520 1.236 . S
C508 O530 1.240 . S
C508 O531 1.264 . S
O509 Mn504 2.095 . S
O509 C518 1.250 . S
O510 Mn505 2.121 . S
O510 C518 1.258 . S
C511 N512 1.326 . S
C511 C515 1.460 . S
C511 H517 0.929 . S
N512 Mn505 2.257 . S
N512 C511 1.326 . S
N512 C516 1.362 . S
C513 C514 1.258 . S
C513 C516 1.431 . S
C513 C533 1.449 . S
C514 C513 1.258 . S
C514 C515 1.477 . S
C514 H534 0.931 . S
C515 C511 1.460 . S
C515 C514 1.477 . S
C515 H535 0.930 . S
C516 N512 1.362 . S
C516 C513 1.431 . S
C516 C526 1.476 . S
H517 C511 0.929 . S
C518 O509 1.250 . S
C518 O510 1.258 . S
O519 Mn504 2.162 . S
O519 C507 1.281 . S
O520 Mn504 2.297 . S
O520 C507 1.236 . S
N521 Mn505 2.282 . S
N521 C522 1.328 . S
N521 C526 1.318 . S
C522 N521 1.328 . S
C522 C523 1.457 . S
C522 H527 0.929 . S
C523 C522 1.457 . S
C523 C524 1.291 . S
C523 H536 0.931 . S
C524 C523 1.291 . S
C524 C525 1.373 . S
C524 H537 0.929 . S
C525 C524 1.373 . S
C525 C526 1.396 . S
C525 C532 1.403 . S
C526 C516 1.476 . S
C526 N521 1.318 . S
C526 C525 1.396 . S
H527 C522 0.929 . S
O528 Mn504 2.385 . S
O528 C506 1.234 . S
O529 Mn504 2.209 . S
O529 Mn505 2.215 . S
O529 C506 1.283 . S
O530 Mn504 2.094 . S
O530 C508 1.240 . S
O531 Mn505 2.117 . S
O531 C508 1.264 . S
C532 C525 1.403 . S
C532 C533 1.399 . S
C532 H538 0.929 . S
C533 C513 1.449 . S
C533 C532 1.399 . S
C533 H539 0.930 . S
H534 C514 0.931 . S
H535 C515 0.930 . S
H536 C523 0.931 . S
H537 C524 0.929 . S
H538 C532 0.929 . S
H539 C533 0.930 . S
Mn540 O545 2.095 . S
Mn540 O555 2.162 . S
Mn540 O556 2.297 . S
Mn540 O564 2.385 . S
Mn540 O565 2.209 . S
Mn540 O566 2.094 . S
Mn541 O546 2.121 . S
Mn541 N548 2.257 . S
Mn541 N557 2.282 . S
Mn541 O565 2.215 . S
Mn541 O567 2.117 . S
C542 O564 1.234 . S
C542 O565 1.283 . S
C543 O555 1.281 . S
C543 O556 1.236 . S
C544 O566 1.240 . S
C544 O567 1.264 . S
O545 Mn540 2.095 . S
O545 C554 1.250 . S
O546 Mn541 2.121 . S
O546 C554 1.258 . S
C547 N548 1.326 . S
C547 C551 1.460 . S
C547 H553 0.929 . S
N548 Mn541 2.257 . S
N548 C547 1.326 . S
N548 C552 1.362 . S
C549 C550 1.258 . S
C549 C552 1.431 . S
C549 C569 1.449 . S
C550 C549 1.258 . S
C550 C551 1.477 . S
C550 H570 0.931 . S
C551 C547 1.460 . S
C551 C550 1.477 . S
C551 H571 0.930 . S
C552 N548 1.362 . S
C552 C549 1.431 . S
C552 C562 1.476 . S
H553 C547 0.929 . S
C554 O545 1.250 . S
C554 O546 1.258 . S
O555 Mn540 2.162 . S
O555 C543 1.281 . S
O556 Mn540 2.297 . S
O556 C543 1.236 . S
N557 Mn541 2.282 . S
N557 C558 1.328 . S
N557 C562 1.318 . S
C558 N557 1.328 . S
C558 C559 1.457 . S
C558 H563 0.929 . S
C559 C558 1.457 . S
C559 C560 1.291 . S
C559 H572 0.931 . S
C560 C559 1.291 . S
C560 C561 1.373 . S
C560 H573 0.929 . S
C561 C560 1.373 . S
C561 C562 1.396 . S
C561 C568 1.403 . S
C562 C552 1.476 . S
C562 N557 1.318 . S
C562 C561 1.396 . S
H563 C558 0.929 . S
O564 Mn540 2.385 . S
O564 C542 1.234 . S
O565 Mn540 2.209 . S
O565 Mn541 2.215 . S
O565 C542 1.283 . S
O566 Mn540 2.094 . S
O566 C544 1.240 . S
O567 Mn541 2.117 . S
O567 C544 1.264 . S
C568 C561 1.403 . S
C568 C569 1.399 . S
C568 H574 0.929 . S
C569 C549 1.449 . S
C569 C568 1.399 . S
C569 H575 0.930 . S
H570 C550 0.931 . S
H571 C551 0.930 . S
H572 C559 0.931 . S
H573 C560 0.929 . S
H574 C568 0.929 . S
H575 C569 0.930 . S
Mn576 O581 2.095 . S
Mn576 O591 2.162 . S
Mn576 O592 2.297 . S
Mn576 O600 2.385 . S
Mn576 O601 2.209 . S
Mn576 O602 2.094 . S
Mn577 O582 2.121 . S
Mn577 N584 2.257 . S
Mn577 N593 2.282 . S
Mn577 O601 2.215 . S
Mn577 O603 2.117 . S
C578 O600 1.234 . S
C578 O601 1.283 . S
C579 O591 1.281 . S
C579 O592 1.236 . S
C580 O602 1.240 . S
C580 O603 1.264 . S
O581 Mn576 2.095 . S
O581 C590 1.250 . S
O582 Mn577 2.121 . S
O582 C590 1.258 . S
C583 N584 1.326 . S
C583 C587 1.460 . S
C583 H589 0.929 . S
N584 Mn577 2.257 . S
N584 C583 1.326 . S
N584 C588 1.362 . S
C585 C586 1.258 . S
C585 C588 1.431 . S
C585 C605 1.449 . S
C586 C585 1.258 . S
C586 C587 1.477 . S
C586 H606 0.931 . S
C587 C583 1.460 . S
C587 C586 1.477 . S
C587 H607 0.930 . S
C588 N584 1.362 . S
C588 C585 1.431 . S
C588 C598 1.476 . S
H589 C583 0.929 . S
C590 O581 1.250 . S
C590 O582 1.258 . S
O591 Mn576 2.162 . S
O591 C579 1.281 . S
O592 Mn576 2.297 . S
O592 C579 1.236 . S
N593 Mn577 2.282 . S
N593 C594 1.328 . S
N593 C598 1.318 . S
C594 N593 1.328 . S
C594 C595 1.457 . S
C594 H599 0.929 . S
C595 C594 1.457 . S
C595 C596 1.291 . S
C595 H608 0.931 . S
C596 C595 1.291 . S
C596 C597 1.373 . S
C596 H609 0.929 . S
C597 C596 1.373 . S
C597 C598 1.396 . S
C597 C604 1.403 . S
C598 C588 1.476 . S
C598 N593 1.318 . S
C598 C597 1.396 . S
H599 C594 0.929 . S
O600 Mn576 2.385 . S
O600 C578 1.234 . S
O601 Mn576 2.209 . S
O601 Mn577 2.215 . S
O601 C578 1.283 . S
O602 Mn576 2.094 . S
O602 C580 1.240 . S
O603 Mn577 2.117 . S
O603 C580 1.264 . S
C604 C597 1.403 . S
C604 C605 1.399 . S
C604 H610 0.929 . S
C605 C585 1.449 . S
C605 C604 1.399 . S
C605 H611 0.930 . S
H606 C586 0.931 . S
H607 C587 0.930 . S
H608 C595 0.931 . S
H609 C596 0.929 . S
H610 C604 0.929 . S
H611 C605 0.930 . S
Mn612 O617 2.095 . S
Mn612 O627 2.162 . S
Mn612 O628 2.297 . S
Mn612 O636 2.385 . S
Mn612 O637 2.209 . S
Mn612 O638 2.094 . S
Mn613 O618 2.121 1_554 S
Mn613 N620 2.257 . S
Mn613 N629 2.282 . S
Mn613 O637 2.215 1_554 S
Mn613 O639 2.117 1_554 S
C614 O636 1.234 . S
C614 O637 1.283 . S
C615 O627 1.281 . S
C615 O628 1.236 . S
C616 O638 1.240 . S
C616 O639 1.264 . S
O617 Mn612 2.095 . S
O617 C626 1.250 . S
O618 Mn613 2.121 1_556 S
O618 C626 1.258 . S
C619 N620 1.326 . S
C619 C623 1.460 . S
C619 H625 0.929 . S
N620 Mn613 2.257 . S
N620 C619 1.326 . S
N620 C624 1.362 . S
C621 C622 1.258 . S
C621 C624 1.431 . S
C621 C641 1.449 . S
C622 C621 1.258 . S
C622 C623 1.477 . S
C622 H642 0.931 . S
C623 C619 1.460 . S
C623 C622 1.477 . S
C623 H643 0.930 . S
C624 N620 1.362 . S
C624 C621 1.431 . S
C624 C634 1.476 . S
H625 C619 0.929 . S
C626 O617 1.250 . S
C626 O618 1.258 . S
O627 Mn612 2.162 . S
O627 C615 1.281 . S
O628 Mn612 2.297 . S
O628 C615 1.236 . S
N629 Mn613 2.282 . S
N629 C630 1.328 . S
N629 C634 1.318 . S
C630 N629 1.328 . S
C630 C631 1.457 . S
C630 H635 0.929 . S
C631 C630 1.457 . S
C631 C632 1.291 . S
C631 H644 0.931 . S
C632 C631 1.291 . S
C632 C633 1.373 . S
C632 H645 0.929 . S
C633 C632 1.373 . S
C633 C634 1.396 . S
C633 C640 1.403 . S
C634 C624 1.476 . S
C634 N629 1.318 . S
C634 C633 1.396 . S
H635 C630 0.929 . S
O636 Mn612 2.385 . S
O636 C614 1.234 . S
O637 Mn612 2.209 . S
O637 Mn613 2.215 1_556 S
O637 C614 1.283 . S
O638 Mn612 2.094 . S
O638 C616 1.240 . S
O639 Mn613 2.117 1_556 S
O639 C616 1.264 . S
C640 C633 1.403 . S
C640 C641 1.399 . S
C640 H646 0.929 . S
C641 C621 1.449 . S
C641 C640 1.399 . S
C641 H647 0.930 . S
H642 C622 0.931 . S
H643 C623 0.930 . S
H644 C631 0.931 . S
H645 C632 0.929 . S
H646 C640 0.929 . S
H647 C641 0.930 . S
Mn648 O653 2.095 . S
Mn648 O663 2.162 . S
Mn648 O664 2.297 . S
Mn648 O672 2.385 . S
Mn648 O673 2.209 . S
Mn648 O674 2.094 . S
Mn649 O654 2.121 . S
Mn649 N656 2.257 . S
Mn649 N665 2.282 . S
Mn649 O673 2.215 . S
Mn649 O675 2.117 . S
C650 O672 1.234 . S
C650 O673 1.283 . S
C651 O663 1.281 . S
C651 O664 1.236 . S
C652 O674 1.240 . S
C652 O675 1.264 . S
O653 Mn648 2.095 . S
O653 C662 1.250 . S
O654 Mn649 2.121 . S
O654 C662 1.258 . S
C655 N656 1.326 . S
C655 C659 1.460 . S
C655 H661 0.929 . S
N656 Mn649 2.257 . S
N656 C655 1.326 . S
N656 C660 1.362 . S
C657 C658 1.258 . S
C657 C660 1.431 . S
C657 C677 1.449 . S
C658 C657 1.258 . S
C658 C659 1.477 . S
C658 H678 0.931 . S
C659 C655 1.460 . S
C659 C658 1.477 . S
C659 H679 0.930 . S
C660 N656 1.362 . S
C660 C657 1.431 . S
C660 C670 1.476 . S
H661 C655 0.929 . S
C662 O653 1.250 . S
C662 O654 1.258 . S
O663 Mn648 2.162 . S
O663 C651 1.281 . S
O664 Mn648 2.297 . S
O664 C651 1.236 . S
N665 Mn649 2.282 . S
N665 C666 1.328 . S
N665 C670 1.318 . S
C666 N665 1.328 . S
C666 C667 1.457 . S
C666 H671 0.929 . S
C667 C666 1.457 . S
C667 C668 1.291 . S
C667 H680 0.931 . S
C668 C667 1.291 . S
C668 C669 1.373 . S
C668 H681 0.929 . S
C669 C668 1.373 . S
C669 C670 1.396 . S
C669 C676 1.403 . S
C670 C660 1.476 . S
C670 N665 1.318 . S
C670 C669 1.396 . S
H671 C666 0.929 . S
O672 Mn648 2.385 . S
O672 C650 1.234 . S
O673 Mn648 2.209 . S
O673 Mn649 2.215 . S
O673 C650 1.283 . S
O674 Mn648 2.094 . S
O674 C652 1.240 . S
O675 Mn649 2.117 . S
O675 C652 1.264 . S
C676 C669 1.403 . S
C676 C677 1.399 . S
C676 H682 0.929 . S
C677 C657 1.449 . S
C677 C676 1.399 . S
C677 H683 0.930 . S
H678 C658 0.931 . S
H679 C659 0.930 . S
H680 C667 0.931 . S
H681 C668 0.929 . S
H682 C676 0.929 . S
H683 C677 0.930 . S
Mn684 O689 2.095 . S
Mn684 O699 2.162 . S
Mn684 O700 2.297 . S
Mn684 O708 2.385 . S
Mn684 O709 2.209 . S
Mn684 O710 2.094 . S
Mn685 O690 2.121 . S
Mn685 N692 2.257 . S
Mn685 N701 2.282 . S
Mn685 O709 2.215 . S
Mn685 O711 2.117 . S
C686 O708 1.234 . S
C686 O709 1.283 . S
C687 O699 1.281 . S
C687 O700 1.236 . S
C688 O710 1.240 . S
C688 O711 1.264 . S
O689 Mn684 2.095 . S
O689 C698 1.250 . S
O690 Mn685 2.121 . S
O690 C698 1.258 . S
C691 N692 1.326 . S
C691 C695 1.460 . S
C691 H697 0.929 . S
N692 Mn685 2.257 . S
N692 C691 1.326 . S
N692 C696 1.362 . S
C693 C694 1.258 . S
C693 C696 1.431 . S
C693 C713 1.449 . S
C694 C693 1.258 . S
C694 C695 1.477 . S
C694 H714 0.931 . S
C695 C691 1.460 . S
C695 C694 1.477 . S
C695 H715 0.930 . S
C696 N692 1.362 . S
C696 C693 1.431 . S
C696 C706 1.476 . S
H697 C691 0.929 . S
C698 O689 1.250 . S
C698 O690 1.258 . S
O699 Mn684 2.162 . S
O699 C687 1.281 . S
O700 Mn684 2.297 . S
O700 C687 1.236 . S
N701 Mn685 2.282 . S
N701 C702 1.328 . S
N701 C706 1.318 . S
C702 N701 1.328 . S
C702 C703 1.457 . S
C702 H707 0.929 . S
C703 C702 1.457 . S
C703 C704 1.291 . S
C703 H716 0.931 . S
C704 C703 1.291 . S
C704 C705 1.373 . S
C704 H717 0.929 . S
C705 C704 1.373 . S
C705 C706 1.396 . S
C705 C712 1.403 . S
C706 C696 1.476 . S
C706 N701 1.318 . S
C706 C705 1.396 . S
H707 C702 0.929 . S
O708 Mn684 2.385 . S
O708 C686 1.234 . S
O709 Mn684 2.209 . S
O709 Mn685 2.215 . S
O709 C686 1.283 . S
O710 Mn684 2.094 . S
O710 C688 1.240 . S
O711 Mn685 2.117 . S
O711 C688 1.264 . S
C712 C705 1.403 . S
C712 C713 1.399 . S
C712 H718 0.929 . S
C713 C693 1.449 . S
C713 C712 1.399 . S
C713 H719 0.930 . S
H714 C694 0.931 . S
H715 C695 0.930 . S
H716 C703 0.931 . S
H717 C704 0.929 . S
H718 C712 0.929 . S
H719 C713 0.930 . S
Mn720 O725 2.095 . S
Mn720 O735 2.162 . S
Mn720 O736 2.297 . S
Mn720 O744 2.385 . S
Mn720 O745 2.209 . S
Mn720 O746 2.094 . S
Mn721 O726 2.121 . S
Mn721 N728 2.257 . S
Mn721 N737 2.282 . S
Mn721 O745 2.215 . S
Mn721 O747 2.117 . S
C722 O744 1.234 . S
C722 O745 1.283 . S
C723 O735 1.281 . S
C723 O736 1.236 . S
C724 O746 1.240 . S
C724 O747 1.264 . S
O725 Mn720 2.095 . S
O725 C734 1.250 . S
O726 Mn721 2.121 . S
O726 C734 1.258 . S
C727 N728 1.326 . S
C727 C731 1.460 . S
C727 H733 0.929 . S
N728 Mn721 2.257 . S
N728 C727 1.326 . S
N728 C732 1.362 . S
C729 C730 1.258 . S
C729 C732 1.431 . S
C729 C749 1.449 . S
C730 C729 1.258 . S
C730 C731 1.477 . S
C730 H750 0.931 . S
C731 C727 1.460 . S
C731 C730 1.477 . S
C731 H751 0.930 . S
C732 N728 1.362 . S
C732 C729 1.431 . S
C732 C742 1.476 . S
H733 C727 0.929 . S
C734 O725 1.250 . S
C734 O726 1.258 . S
O735 Mn720 2.162 . S
O735 C723 1.281 . S
O736 Mn720 2.297 . S
O736 C723 1.236 . S
N737 Mn721 2.282 . S
N737 C738 1.328 . S
N737 C742 1.318 . S
C738 N737 1.328 . S
C738 C739 1.457 . S
C738 H743 0.929 . S
C739 C738 1.457 . S
C739 C740 1.291 . S
C739 H752 0.931 . S
C740 C739 1.291 . S
C740 C741 1.373 . S
C740 H753 0.929 . S
C741 C740 1.373 . S
C741 C742 1.396 . S
C741 C748 1.403 . S
C742 C732 1.476 . S
C742 N737 1.318 . S
C742 C741 1.396 . S
H743 C738 0.929 . S
O744 Mn720 2.385 . S
O744 C722 1.234 . S
O745 Mn720 2.209 . S
O745 Mn721 2.215 . S
O745 C722 1.283 . S
O746 Mn720 2.094 . S
O746 C724 1.240 . S
O747 Mn721 2.117 . S
O747 C724 1.264 . S
C748 C741 1.403 . S
C748 C749 1.399 . S
C748 H754 0.929 . S
C749 C729 1.449 . S
C749 C748 1.399 . S
C749 H755 0.930 . S
H750 C730 0.931 . S
H751 C731 0.930 . S
H752 C739 0.931 . S
H753 C740 0.929 . S
H754 C748 0.929 . S
H755 C749 0.930 . S
Mn756 O761 2.095 . S
Mn756 O771 2.162 . S
Mn756 O772 2.297 . S
Mn756 O780 2.385 . S
Mn756 O781 2.209 . S
Mn756 O782 2.094 . S
Mn757 O762 2.121 . S
Mn757 N764 2.257 . S
Mn757 N773 2.282 . S
Mn757 O781 2.215 . S
Mn757 O783 2.117 . S
C758 O780 1.234 . S
C758 O781 1.283 . S
C759 O771 1.281 . S
C759 O772 1.236 . S
C760 O782 1.240 . S
C760 O783 1.264 . S
O761 Mn756 2.095 . S
O761 C770 1.250 . S
O762 Mn757 2.121 . S
O762 C770 1.258 . S
C763 N764 1.326 . S
C763 C767 1.460 . S
C763 H769 0.929 . S
N764 Mn757 2.257 . S
N764 C763 1.326 . S
N764 C768 1.362 . S
C765 C766 1.258 . S
C765 C768 1.431 . S
C765 C785 1.449 . S
C766 C765 1.258 . S
C766 C767 1.477 . S
C766 H786 0.931 . S
C767 C763 1.460 . S
C767 C766 1.477 . S
C767 H787 0.930 . S
C768 N764 1.362 . S
C768 C765 1.431 . S
C768 C778 1.476 . S
H769 C763 0.929 . S
C770 O761 1.250 . S
C770 O762 1.258 . S
O771 Mn756 2.162 . S
O771 C759 1.281 . S
O772 Mn756 2.297 . S
O772 C759 1.236 . S
N773 Mn757 2.282 . S
N773 C774 1.328 . S
N773 C778 1.318 . S
C774 N773 1.328 . S
C774 C775 1.457 . S
C774 H779 0.929 . S
C775 C774 1.457 . S
C775 C776 1.291 . S
C775 H788 0.931 . S
C776 C775 1.291 . S
C776 C777 1.373 . S
C776 H789 0.929 . S
C777 C776 1.373 . S
C777 C778 1.396 . S
C777 C784 1.403 . S
C778 C768 1.476 . S
C778 N773 1.318 . S
C778 C777 1.396 . S
H779 C774 0.929 . S
O780 Mn756 2.385 . S
O780 C758 1.234 . S
O781 Mn756 2.209 . S
O781 Mn757 2.215 . S
O781 C758 1.283 . S
O782 Mn756 2.094 . S
O782 C760 1.240 . S
O783 Mn757 2.117 . S
O783 C760 1.264 . S
C784 C777 1.403 . S
C784 C785 1.399 . S
C784 H790 0.929 . S
C785 C765 1.449 . S
C785 C784 1.399 . S
C785 H791 0.930 . S
H786 C766 0.931 . S
H787 C767 0.930 . S
H788 C775 0.931 . S
H789 C776 0.929 . S
H790 C784 0.929 . S
H791 C785 0.930 . S
Mn792 O797 2.095 . S
Mn792 O807 2.162 . S
Mn792 O808 2.297 . S
Mn792 O816 2.385 . S
Mn792 O817 2.209 . S
Mn792 O818 2.094 . S
Mn793 O798 2.121 . S
Mn793 N800 2.257 . S
Mn793 N809 2.282 . S
Mn793 O817 2.215 . S
Mn793 O819 2.117 . S
C794 O816 1.234 . S
C794 O817 1.283 . S
C795 O807 1.281 . S
C795 O808 1.236 . S
C796 O818 1.240 . S
C796 O819 1.264 . S
O797 Mn792 2.095 . S
O797 C806 1.250 . S
O798 Mn793 2.121 . S
O798 C806 1.258 . S
C799 N800 1.326 . S
C799 C803 1.460 . S
C799 H805 0.929 . S
N800 Mn793 2.257 . S
N800 C799 1.326 . S
N800 C804 1.362 . S
C801 C802 1.258 . S
C801 C804 1.431 . S
C801 C821 1.449 . S
C802 C801 1.258 . S
C802 C803 1.477 . S
C802 H822 0.931 . S
C803 C799 1.460 . S
C803 C802 1.477 . S
C803 H823 0.930 . S
C804 N800 1.362 . S
C804 C801 1.431 . S
C804 C814 1.476 . S
H805 C799 0.929 . S
C806 O797 1.250 . S
C806 O798 1.258 . S
O807 Mn792 2.162 . S
O807 C795 1.281 . S
O808 Mn792 2.297 . S
O808 C795 1.236 . S
N809 Mn793 2.282 . S
N809 C810 1.328 . S
N809 C814 1.318 . S
C810 N809 1.328 . S
C810 C811 1.457 . S
C810 H815 0.929 . S
C811 C810 1.457 . S
C811 C812 1.291 . S
C811 H824 0.931 . S
C812 C811 1.291 . S
C812 C813 1.373 . S
C812 H825 0.929 . S
C813 C812 1.373 . S
C813 C814 1.396 . S
C813 C820 1.403 . S
C814 C804 1.476 . S
C814 N809 1.318 . S
C814 C813 1.396 . S
H815 C810 0.929 . S
O816 Mn792 2.385 . S
O816 C794 1.234 . S
O817 Mn792 2.209 . S
O817 Mn793 2.215 . S
O817 C794 1.283 . S
O818 Mn792 2.094 . S
O818 C796 1.240 . S
O819 Mn793 2.117 . S
O819 C796 1.264 . S
C820 C813 1.403 . S
C820 C821 1.399 . S
C820 H826 0.929 . S
C821 C801 1.449 . S
C821 C820 1.399 . S
C821 H827 0.930 . S
H822 C802 0.931 . S
H823 C803 0.930 . S
H824 C811 0.931 . S
H825 C812 0.929 . S
H826 C820 0.929 . S
H827 C821 0.930 . S
Mn828 O833 2.095 . S
Mn828 O843 2.162 . S
Mn828 O844 2.297 . S
Mn828 O852 2.385 . S
Mn828 O853 2.209 . S
Mn828 O854 2.094 . S
Mn829 O834 2.121 1_556 S
Mn829 N836 2.257 . S
Mn829 N845 2.282 . S
Mn829 O853 2.215 1_556 S
Mn829 O855 2.117 1_556 S
C830 O852 1.234 . S
C830 O853 1.283 . S
C831 O843 1.281 . S
C831 O844 1.236 . S
C832 O854 1.240 . S
C832 O855 1.264 . S
O833 Mn828 2.095 . S
O833 C842 1.250 . S
O834 Mn829 2.121 1_554 S
O834 C842 1.258 . S
C835 N836 1.326 . S
C835 C839 1.460 . S
C835 H841 0.929 . S
N836 Mn829 2.257 . S
N836 C835 1.326 . S
N836 C840 1.362 . S
C837 C838 1.258 . S
C837 C840 1.431 . S
C837 C857 1.449 . S
C838 C837 1.258 . S
C838 C839 1.477 . S
C838 H858 0.931 . S
C839 C835 1.460 . S
C839 C838 1.477 . S
C839 H859 0.930 . S
C840 N836 1.362 . S
C840 C837 1.431 . S
C840 C850 1.476 . S
H841 C835 0.929 . S
C842 O833 1.250 . S
C842 O834 1.258 . S
O843 Mn828 2.162 . S
O843 C831 1.281 . S
O844 Mn828 2.297 . S
O844 C831 1.236 . S
N845 Mn829 2.282 . S
N845 C846 1.328 . S
N845 C850 1.318 . S
C846 N845 1.328 . S
C846 C847 1.457 . S
C846 H851 0.929 . S
C847 C846 1.457 . S
C847 C848 1.291 . S
C847 H860 0.931 . S
C848 C847 1.291 . S
C848 C849 1.373 . S
C848 H861 0.929 . S
C849 C848 1.373 . S
C849 C850 1.396 . S
C849 C856 1.403 . S
C850 C840 1.476 . S
C850 N845 1.318 . S
C850 C849 1.396 . S
H851 C846 0.929 . S
O852 Mn828 2.385 . S
O852 C830 1.234 . S
O853 Mn828 2.209 . S
O853 Mn829 2.215 1_554 S
O853 C830 1.283 . S
O854 Mn828 2.094 . S
O854 C832 1.240 . S
O855 Mn829 2.117 1_554 S
O855 C832 1.264 . S
C856 C849 1.403 . S
C856 C857 1.399 . S
C856 H862 0.929 . S
C857 C837 1.449 . S
C857 C856 1.399 . S
C857 H863 0.930 . S
H858 C838 0.931 . S
H859 C839 0.930 . S
H860 C847 0.931 . S
H861 C848 0.929 . S
H862 C856 0.929 . S
H863 C857 0.930 . S
Mn864 O869 2.095 . S
Mn864 O879 2.162 . S
Mn864 O880 2.297 . S
Mn864 O888 2.385 . S
Mn864 O889 2.209 . S
Mn864 O890 2.094 . S
Mn865 O870 2.121 . S
Mn865 N872 2.257 . S
Mn865 N881 2.282 . S
Mn865 O889 2.215 . S
Mn865 O891 2.117 . S
C866 O888 1.234 . S
C866 O889 1.283 . S
C867 O879 1.281 . S
C867 O880 1.236 . S
C868 O890 1.240 . S
C868 O891 1.264 . S
O869 Mn864 2.095 . S
O869 C878 1.250 . S
O870 Mn865 2.121 . S
O870 C878 1.258 . S
C871 N872 1.326 . S
C871 C875 1.460 . S
C871 H877 0.929 . S
N872 Mn865 2.257 . S
N872 C871 1.326 . S
N872 C876 1.362 . S
C873 C874 1.258 . S
C873 C876 1.431 . S
C873 C893 1.449 . S
C874 C873 1.258 . S
C874 C875 1.477 . S
C874 H894 0.931 . S
C875 C871 1.460 . S
C875 C874 1.477 . S
C875 H895 0.930 . S
C876 N872 1.362 . S
C876 C873 1.431 . S
C876 C886 1.476 . S
H877 C871 0.929 . S
C878 O869 1.250 . S
C878 O870 1.258 . S
O879 Mn864 2.162 . S
O879 C867 1.281 . S
O880 Mn864 2.297 . S
O880 C867 1.236 . S
N881 Mn865 2.282 . S
N881 C882 1.328 . S
N881 C886 1.318 . S
C882 N881 1.328 . S
C882 C883 1.457 . S
C882 H887 0.929 . S
C883 C882 1.457 . S
C883 C884 1.291 . S
C883 H896 0.931 . S
C884 C883 1.291 . S
C884 C885 1.373 . S
C884 H897 0.929 . S
C885 C884 1.373 . S
C885 C886 1.396 . S
C885 C892 1.403 . S
C886 C876 1.476 . S
C886 N881 1.318 . S
C886 C885 1.396 . S
H887 C882 0.929 . S
O888 Mn864 2.385 . S
O888 C866 1.234 . S
O889 Mn864 2.209 . S
O889 Mn865 2.215 . S
O889 C866 1.283 . S
O890 Mn864 2.094 . S
O890 C868 1.240 . S
O891 Mn865 2.117 . S
O891 C868 1.264 . S
C892 C885 1.403 . S
C892 C893 1.399 . S
C892 H898 0.929 . S
C893 C873 1.449 . S
C893 C892 1.399 . S
C893 H899 0.930 . S
H894 C874 0.931 . S
H895 C875 0.930 . S
H896 C883 0.931 . S
H897 C884 0.929 . S
H898 C892 0.929 . S
H899 C893 0.930 . S
Mn900 O905 2.095 . S
Mn900 O915 2.162 . S
Mn900 O916 2.297 . S
Mn900 O924 2.385 . S
Mn900 O925 2.209 . S
Mn900 O926 2.094 . S
Mn901 O906 2.121 1_556 S
Mn901 N908 2.257 . S
Mn901 N917 2.282 . S
Mn901 O925 2.215 1_556 S
Mn901 O927 2.117 1_556 S
C902 O924 1.234 . S
C902 O925 1.283 . S
C903 O915 1.281 . S
C903 O916 1.236 . S
C904 O926 1.240 . S
C904 O927 1.264 . S
O905 Mn900 2.095 . S
O905 C914 1.250 . S
O906 Mn901 2.121 1_554 S
O906 C914 1.258 . S
C907 N908 1.326 . S
C907 C911 1.460 . S
C907 H913 0.929 . S
N908 Mn901 2.257 . S
N908 C907 1.326 . S
N908 C912 1.362 . S
C909 C910 1.258 . S
C909 C912 1.431 . S
C909 C929 1.449 . S
C910 C909 1.258 . S
C910 C911 1.477 . S
C910 H930 0.931 . S
C911 C907 1.460 . S
C911 C910 1.477 . S
C911 H931 0.930 . S
C912 N908 1.362 . S
C912 C909 1.431 . S
C912 C922 1.476 . S
H913 C907 0.929 . S
C914 O905 1.250 . S
C914 O906 1.258 . S
O915 Mn900 2.162 . S
O915 C903 1.281 . S
O916 Mn900 2.297 . S
O916 C903 1.236 . S
N917 Mn901 2.282 . S
N917 C918 1.328 . S
N917 C922 1.318 . S
C918 N917 1.328 . S
C918 C919 1.457 . S
C918 H923 0.929 . S
C919 C918 1.457 . S
C919 C920 1.291 . S
C919 H932 0.931 . S
C920 C919 1.291 . S
C920 C921 1.373 . S
C920 H933 0.929 . S
C921 C920 1.373 . S
C921 C922 1.396 . S
C921 C928 1.403 . S
C922 C912 1.476 . S
C922 N917 1.318 . S
C922 C921 1.396 . S
H923 C918 0.929 . S
O924 Mn900 2.385 . S
O924 C902 1.234 . S
O925 Mn900 2.209 . S
O925 Mn901 2.215 1_554 S
O925 C902 1.283 . S
O926 Mn900 2.094 . S
O926 C904 1.240 . S
O927 Mn901 2.117 1_554 S
O927 C904 1.264 . S
C928 C921 1.403 . S
C928 C929 1.399 . S
C928 H934 0.929 . S
C929 C909 1.449 . S
C929 C928 1.399 . S
C929 H935 0.930 . S
H930 C910 0.931 . S
H931 C911 0.930 . S
H932 C919 0.931 . S
H933 C920 0.929 . S
H934 C928 0.929 . S
H935 C929 0.930 . S
Mn936 O941 2.095 . S
Mn936 O951 2.162 . S
Mn936 O952 2.297 . S
Mn936 O960 2.385 . S
Mn936 O961 2.209 . S
Mn936 O962 2.094 . S
Mn937 O942 2.121 . S
Mn937 N944 2.257 . S
Mn937 N953 2.282 . S
Mn937 O961 2.215 . S
Mn937 O963 2.117 . S
C938 O960 1.234 . S
C938 O961 1.283 . S
C939 O951 1.281 . S
C939 O952 1.236 . S
C940 O962 1.240 . S
C940 O963 1.264 . S
O941 Mn936 2.095 . S
O941 C950 1.250 . S
O942 Mn937 2.121 . S
O942 C950 1.258 . S
C943 N944 1.326 . S
C943 C947 1.460 . S
C943 H949 0.929 . S
N944 Mn937 2.257 . S
N944 C943 1.326 . S
N944 C948 1.362 . S
C945 C946 1.258 . S
C945 C948 1.431 . S
C945 C965 1.449 . S
C946 C945 1.258 . S
C946 C947 1.477 . S
C946 H966 0.931 . S
C947 C943 1.460 . S
C947 C946 1.477 . S
C947 H967 0.930 . S
C948 N944 1.362 . S
C948 C945 1.431 . S
C948 C958 1.476 . S
H949 C943 0.929 . S
C950 O941 1.250 . S
C950 O942 1.258 . S
O951 Mn936 2.162 . S
O951 C939 1.281 . S
O952 Mn936 2.297 . S
O952 C939 1.236 . S
N953 Mn937 2.282 . S
N953 C954 1.328 . S
N953 C958 1.318 . S
C954 N953 1.328 . S
C954 C955 1.457 . S
C954 H959 0.929 . S
C955 C954 1.457 . S
C955 C956 1.291 . S
C955 H968 0.931 . S
C956 C955 1.291 . S
C956 C957 1.373 . S
C956 H969 0.929 . S
C957 C956 1.373 . S
C957 C958 1.396 . S
C957 C964 1.403 . S
C958 C948 1.476 . S
C958 N953 1.318 . S
C958 C957 1.396 . S
H959 C954 0.929 . S
O960 Mn936 2.385 . S
O960 C938 1.234 . S
O961 Mn936 2.209 . S
O961 Mn937 2.215 . S
O961 C938 1.283 . S
O962 Mn936 2.094 . S
O962 C940 1.240 . S
O963 Mn937 2.117 . S
O963 C940 1.264 . S
C964 C957 1.403 . S
C964 C965 1.399 . S
C964 H970 0.929 . S
C965 C945 1.449 . S
C965 C964 1.399 . S
C965 H971 0.930 . S
H966 C946 0.931 . S
H967 C947 0.930 . S
H968 C955 0.931 . S
H969 C956 0.929 . S
H970 C964 0.929 . S
H971 C965 0.930 . S
Mn972 O977 2.095 . S
Mn972 O987 2.162 . S
Mn972 O988 2.297 . S
Mn972 O996 2.385 . S
Mn972 O997 2.209 . S
Mn972 O998 2.094 . S
Mn973 O978 2.121 . S
Mn973 N980 2.257 . S
Mn973 N989 2.282 . S
Mn973 O997 2.215 . S
Mn973 O999 2.117 . S
C974 O996 1.234 . S
C974 O997 1.283 . S
C975 O987 1.281 . S
C975 O988 1.236 . S
C976 O998 1.240 . S
C976 O999 1.264 . S
O977 Mn972 2.095 . S
O977 C986 1.250 . S
O978 Mn973 2.121 . S
O978 C986 1.258 . S
C979 N980 1.326 . S
C979 C983 1.460 . S
C979 H985 0.929 . S
N980 Mn973 2.257 . S
N980 C979 1.326 . S
N980 C984 1.362 . S
C981 C982 1.258 . S
C981 C984 1.431 . S
C981 C1001 1.449 . S
C982 C981 1.258 . S
C982 C983 1.477 . S
C982 H1002 0.931 . S
C983 C979 1.460 . S
C983 C982 1.477 . S
C983 H1003 0.930 . S
C984 N980 1.362 . S
C984 C981 1.431 . S
C984 C994 1.476 . S
H985 C979 0.929 . S
C986 O977 1.250 . S
C986 O978 1.258 . S
O987 Mn972 2.162 . S
O987 C975 1.281 . S
O988 Mn972 2.297 . S
O988 C975 1.236 . S
N989 Mn973 2.282 . S
N989 C990 1.328 . S
N989 C994 1.318 . S
C990 N989 1.328 . S
C990 C991 1.457 . S
C990 H995 0.929 . S
C991 C990 1.457 . S
C991 C992 1.291 . S
C991 H1004 0.931 . S
C992 C991 1.291 . S
C992 C993 1.373 . S
C992 H1005 0.929 . S
C993 C992 1.373 . S
C993 C994 1.396 . S
C993 C1000 1.403 . S
C994 C984 1.476 . S
C994 N989 1.318 . S
C994 C993 1.396 . S
H995 C990 0.929 . S
O996 Mn972 2.385 . S
O996 C974 1.234 . S
O997 Mn972 2.209 . S
O997 Mn973 2.215 . S
O997 C974 1.283 . S
O998 Mn972 2.094 . S
O998 C976 1.240 . S
O999 Mn973 2.117 . S
O999 C976 1.264 . S
C1000 C993 1.403 . S
C1000 C1001 1.399 . S
C1000 H1006 0.929 . S
C1001 C981 1.449 . S
C1001 C1000 1.399 . S
C1001 H1007 0.930 . S
H1002 C982 0.931 . S
H1003 C983 0.930 . S
H1004 C991 0.931 . S
H1005 C992 0.929 . S
H1006 C1000 0.929 . S
H1007 C1001 0.930 . S
Mn1008 O1013 2.095 . S
Mn1008 O1023 2.162 . S
Mn1008 O1024 2.297 . S
Mn1008 O1032 2.385 . S
Mn1008 O1033 2.209 . S
Mn1008 O1034 2.094 . S
Mn1009 O1014 2.121 . S
Mn1009 N1016 2.257 . S
Mn1009 N1025 2.282 . S
Mn1009 O1033 2.215 . S
Mn1009 O1035 2.117 . S
C1010 O1032 1.234 . S
C1010 O1033 1.283 . S
C1011 O1023 1.281 . S
C1011 O1024 1.236 . S
C1012 O1034 1.240 . S
C1012 O1035 1.264 . S
O1013 Mn1008 2.095 . S
O1013 C1022 1.250 . S
O1014 Mn1009 2.121 . S
O1014 C1022 1.258 . S
C1015 N1016 1.326 . S
C1015 C1019 1.460 . S
C1015 H1021 0.929 . S
N1016 Mn1009 2.257 . S
N1016 C1015 1.326 . S
N1016 C1020 1.362 . S
C1017 C1018 1.258 . S
C1017 C1020 1.431 . S
C1017 C1037 1.449 . S
C1018 C1017 1.258 . S
C1018 C1019 1.477 . S
C1018 H1038 0.931 . S
C1019 C1015 1.460 . S
C1019 C1018 1.477 . S
C1019 H1039 0.930 . S
C1020 N1016 1.362 . S
C1020 C1017 1.431 . S
C1020 C1030 1.476 . S
H1021 C1015 0.929 . S
C1022 O1013 1.250 . S
C1022 O1014 1.258 . S
O1023 Mn1008 2.162 . S
O1023 C1011 1.281 . S
O1024 Mn1008 2.297 . S
O1024 C1011 1.236 . S
N1025 Mn1009 2.282 . S
N1025 C1026 1.328 . S
N1025 C1030 1.318 . S
C1026 N1025 1.328 . S
C1026 C1027 1.457 . S
C1026 H1031 0.929 . S
C1027 C1026 1.457 . S
C1027 C1028 1.291 . S
C1027 H1040 0.931 . S
C1028 C1027 1.291 . S
C1028 C1029 1.373 . S
C1028 H1041 0.929 . S
C1029 C1028 1.373 . S
C1029 C1030 1.396 . S
C1029 C1036 1.403 . S
C1030 C1020 1.476 . S
C1030 N1025 1.318 . S
C1030 C1029 1.396 . S
H1031 C1026 0.929 . S
O1032 Mn1008 2.385 . S
O1032 C1010 1.234 . S
O1033 Mn1008 2.209 . S
O1033 Mn1009 2.215 . S
O1033 C1010 1.283 . S
O1034 Mn1008 2.094 . S
O1034 C1012 1.240 . S
O1035 Mn1009 2.117 . S
O1035 C1012 1.264 . S
C1036 C1029 1.403 . S
C1036 C1037 1.399 . S
C1036 H1042 0.929 . S
C1037 C1017 1.449 . S
C1037 C1036 1.399 . S
C1037 H1043 0.930 . S
H1038 C1018 0.931 . S
H1039 C1019 0.930 . S
H1040 C1027 0.931 . S
H1041 C1028 0.929 . S
H1042 C1036 0.929 . S
H1043 C1037 0.930 . S
Mn1044 O1049 2.095 . S
Mn1044 O1059 2.162 . S
Mn1044 O1060 2.297 . S
Mn1044 O1068 2.385 . S
Mn1044 O1069 2.209 . S
Mn1044 O1070 2.094 . S
Mn1045 O1050 2.121 . S
Mn1045 N1052 2.257 . S
Mn1045 N1061 2.282 . S
Mn1045 O1069 2.215 . S
Mn1045 O1071 2.117 . S
C1046 O1068 1.234 . S
C1046 O1069 1.283 . S
C1047 O1059 1.281 . S
C1047 O1060 1.236 . S
C1048 O1070 1.240 . S
C1048 O1071 1.264 . S
O1049 Mn1044 2.095 . S
O1049 C1058 1.250 . S
O1050 Mn1045 2.121 . S
O1050 C1058 1.258 . S
C1051 N1052 1.326 . S
C1051 C1055 1.460 . S
C1051 H1057 0.929 . S
N1052 Mn1045 2.257 . S
N1052 C1051 1.326 . S
N1052 C1056 1.362 . S
C1053 C1054 1.258 . S
C1053 C1056 1.431 . S
C1053 C1073 1.449 . S
C1054 C1053 1.258 . S
C1054 C1055 1.477 . S
C1054 H1074 0.931 . S
C1055 C1051 1.460 . S
C1055 C1054 1.477 . S
C1055 H1075 0.930 . S
C1056 N1052 1.362 . S
C1056 C1053 1.431 . S
C1056 C1066 1.476 . S
H1057 C1051 0.929 . S
C1058 O1049 1.250 . S
C1058 O1050 1.258 . S
O1059 Mn1044 2.162 . S
O1059 C1047 1.281 . S
O1060 Mn1044 2.297 . S
O1060 C1047 1.236 . S
N1061 Mn1045 2.282 . S
N1061 C1062 1.328 . S
N1061 C1066 1.318 . S
C1062 N1061 1.328 . S
C1062 C1063 1.457 . S
C1062 H1067 0.929 . S
C1063 C1062 1.457 . S
C1063 C1064 1.291 . S
C1063 H1076 0.931 . S
C1064 C1063 1.291 . S
C1064 C1065 1.373 . S
C1064 H1077 0.929 . S
C1065 C1064 1.373 . S
C1065 C1066 1.396 . S
C1065 C1072 1.403 . S
C1066 C1056 1.476 . S
C1066 N1061 1.318 . S
C1066 C1065 1.396 . S
H1067 C1062 0.929 . S
O1068 Mn1044 2.385 . S
O1068 C1046 1.234 . S
O1069 Mn1044 2.209 . S
O1069 Mn1045 2.215 . S
O1069 C1046 1.283 . S
O1070 Mn1044 2.094 . S
O1070 C1048 1.240 . S
O1071 Mn1045 2.117 . S
O1071 C1048 1.264 . S
C1072 C1065 1.403 . S
C1072 C1073 1.399 . S
C1072 H1078 0.929 . S
C1073 C1053 1.449 . S
C1073 C1072 1.399 . S
C1073 H1079 0.930 . S
H1074 C1054 0.931 . S
H1075 C1055 0.930 . S
H1076 C1063 0.931 . S
H1077 C1064 0.929 . S
H1078 C1072 0.929 . S
H1079 C1073 0.930 . S
Mn1080 O1085 2.095 . S
Mn1080 O1095 2.162 . S
Mn1080 O1096 2.297 . S
Mn1080 O1104 2.385 . S
Mn1080 O1105 2.209 . S
Mn1080 O1106 2.094 . S
Mn1081 O1086 2.121 . S
Mn1081 N1088 2.257 . S
Mn1081 N1097 2.282 . S
Mn1081 O1105 2.215 . S
Mn1081 O1107 2.117 . S
C1082 O1104 1.234 . S
C1082 O1105 1.283 . S
C1083 O1095 1.281 . S
C1083 O1096 1.236 . S
C1084 O1106 1.240 . S
C1084 O1107 1.264 . S
O1085 Mn1080 2.095 . S
O1085 C1094 1.250 . S
O1086 Mn1081 2.121 . S
O1086 C1094 1.258 . S
C1087 N1088 1.326 . S
C1087 C1091 1.460 . S
C1087 H1093 0.929 . S
N1088 Mn1081 2.257 . S
N1088 C1087 1.326 . S
N1088 C1092 1.362 . S
C1089 C1090 1.258 . S
C1089 C1092 1.431 . S
C1089 C1109 1.449 . S
C1090 C1089 1.258 . S
C1090 C1091 1.477 . S
C1090 H1110 0.931 . S
C1091 C1087 1.460 . S
C1091 C1090 1.477 . S
C1091 H1111 0.930 . S
C1092 N1088 1.362 . S
C1092 C1089 1.431 . S
C1092 C1102 1.476 . S
H1093 C1087 0.929 . S
C1094 O1085 1.250 . S
C1094 O1086 1.258 . S
O1095 Mn1080 2.162 . S
O1095 C1083 1.281 . S
O1096 Mn1080 2.297 . S
O1096 C1083 1.236 . S
N1097 Mn1081 2.282 . S
N1097 C1098 1.328 . S
N1097 C1102 1.318 . S
C1098 N1097 1.328 . S
C1098 C1099 1.457 . S
C1098 H1103 0.929 . S
C1099 C1098 1.457 . S
C1099 C1100 1.291 . S
C1099 H1112 0.931 . S
C1100 C1099 1.291 . S
C1100 C1101 1.373 . S
C1100 H1113 0.929 . S
C1101 C1100 1.373 . S
C1101 C1102 1.396 . S
C1101 C1108 1.403 . S
C1102 C1092 1.476 . S
C1102 N1097 1.318 . S
C1102 C1101 1.396 . S
H1103 C1098 0.929 . S
O1104 Mn1080 2.385 . S
O1104 C1082 1.234 . S
O1105 Mn1080 2.209 . S
O1105 Mn1081 2.215 . S
O1105 C1082 1.283 . S
O1106 Mn1080 2.094 . S
O1106 C1084 1.240 . S
O1107 Mn1081 2.117 . S
O1107 C1084 1.264 . S
C1108 C1101 1.403 . S
C1108 C1109 1.399 . S
C1108 H1114 0.929 . S
C1109 C1089 1.449 . S
C1109 C1108 1.399 . S
C1109 H1115 0.930 . S
H1110 C1090 0.931 . S
H1111 C1091 0.930 . S
H1112 C1099 0.931 . S
H1113 C1100 0.929 . S
H1114 C1108 0.929 . S
H1115 C1109 0.930 . S
Mn1116 O1121 2.095 . S
Mn1116 O1131 2.162 . S
Mn1116 O1132 2.297 . S
Mn1116 O1140 2.385 . S
Mn1116 O1141 2.209 . S
Mn1116 O1142 2.094 . S
Mn1117 O1122 2.121 1_554 S
Mn1117 N1124 2.257 . S
Mn1117 N1133 2.282 . S
Mn1117 O1141 2.215 1_554 S
Mn1117 O1143 2.117 1_554 S
C1118 O1140 1.234 . S
C1118 O1141 1.283 . S
C1119 O1131 1.281 . S
C1119 O1132 1.236 . S
C1120 O1142 1.240 . S
C1120 O1143 1.264 . S
O1121 Mn1116 2.095 . S
O1121 C1130 1.250 . S
O1122 Mn1117 2.121 1_556 S
O1122 C1130 1.258 . S
C1123 N1124 1.326 . S
C1123 C1127 1.460 . S
C1123 H1129 0.929 . S
N1124 Mn1117 2.257 . S
N1124 C1123 1.326 . S
N1124 C1128 1.362 . S
C1125 C1126 1.258 . S
C1125 C1128 1.431 . S
C1125 C1145 1.449 . S
C1126 C1125 1.258 . S
C1126 C1127 1.477 . S
C1126 H1146 0.931 . S
C1127 C1123 1.460 . S
C1127 C1126 1.477 . S
C1127 H1147 0.930 . S
C1128 N1124 1.362 . S
C1128 C1125 1.431 . S
C1128 C1138 1.476 . S
H1129 C1123 0.929 . S
C1130 O1121 1.250 . S
C1130 O1122 1.258 . S
O1131 Mn1116 2.162 . S
O1131 C1119 1.281 . S
O1132 Mn1116 2.297 . S
O1132 C1119 1.236 . S
N1133 Mn1117 2.282 . S
N1133 C1134 1.328 . S
N1133 C1138 1.318 . S
C1134 N1133 1.328 . S
C1134 C1135 1.457 . S
C1134 H1139 0.929 . S
C1135 C1134 1.457 . S
C1135 C1136 1.291 . S
C1135 H1148 0.931 . S
C1136 C1135 1.291 . S
C1136 C1137 1.373 . S
C1136 H1149 0.929 . S
C1137 C1136 1.373 . S
C1137 C1138 1.396 . S
C1137 C1144 1.403 . S
C1138 C1128 1.476 . S
C1138 N1133 1.318 . S
C1138 C1137 1.396 . S
H1139 C1134 0.929 . S
O1140 Mn1116 2.385 . S
O1140 C1118 1.234 . S
O1141 Mn1116 2.209 . S
O1141 Mn1117 2.215 1_556 S
O1141 C1118 1.283 . S
O1142 Mn1116 2.094 . S
O1142 C1120 1.240 . S
O1143 Mn1117 2.117 1_556 S
O1143 C1120 1.264 . S
C1144 C1137 1.403 . S
C1144 C1145 1.399 . S
C1144 H1150 0.929 . S
C1145 C1125 1.449 . S
C1145 C1144 1.399 . S
C1145 H1151 0.930 . S
H1146 C1126 0.931 . S
H1147 C1127 0.930 . S
H1148 C1135 0.931 . S
H1149 C1136 0.929 . S
H1150 C1144 0.929 . S
H1151 C1145 0.930 . S
H1152 C1158 0.930 . S
H1153 C1162 0.930 . S
H1154 C1167 0.929 . S
H1155 C1165 0.929 . S
H1156 C1160 0.929 . S
H1157 C1166 0.929 . S
C1158 H1152 0.930 . S
C1158 C1159 1.367 . S
C1158 C1166 1.378 . S
C1159 C1158 1.367 . S
C1159 C1167 1.433 . S
C1160 H1156 0.929 . S
C1160 C1162 1.378 . S
C1160 C1164 1.350 . S
C1161 C1164 1.463 . S
C1161 C1166 1.350 . S
C1161 N1169 1.427 . S
C1162 H1153 0.930 . S
C1162 C1160 1.378 . S
C1162 C1163 1.367 . S
C1163 C1162 1.367 . S
C1163 C1165 1.433 . S
C1164 C1160 1.350 . S
C1164 C1161 1.463 . S
C1164 N1168 1.427 . S
C1165 H1155 0.929 . S
C1165 C1163 1.433 . S
C1165 N1168 1.384 . S
C1166 H1157 0.929 . S
C1166 C1158 1.378 . S
C1166 C1161 1.350 . S
C1167 H1154 0.929 . S
C1167 C1159 1.433 . S
C1167 N1169 1.384 . S
N1168 C1164 1.427 . S
N1168 C1165 1.384 . S
N1169 C1161 1.427 . S
N1169 C1167 1.384 . S
H1170 C1176 0.930 . S
H1171 C1180 0.930 . S
H1172 C1185 0.929 . S
H1173 C1183 0.929 . S
H1174 C1178 0.929 . S
H1175 C1184 0.929 . S
C1176 H1170 0.930 . S
C1176 C1177 1.367 . S
C1176 C1184 1.378 . S
C1177 C1176 1.367 . S
C1177 C1185 1.433 . S
C1178 H1174 0.929 . S
C1178 C1180 1.378 . S
C1178 C1182 1.350 . S
C1179 C1182 1.463 1_565 S
C1179 C1184 1.350 . S
C1179 N1187 1.427 . S
C1180 H1171 0.930 . S
C1180 C1178 1.378 . S
C1180 C1181 1.367 . S
C1181 C1180 1.367 . S
C1181 C1183 1.433 . S
C1182 C1178 1.350 . S
C1182 C1179 1.463 1_545 S
C1182 N1186 1.427 . S
C1183 H1173 0.929 . S
C1183 C1181 1.433 . S
C1183 N1186 1.384 . S
C1184 H1175 0.929 . S
C1184 C1176 1.378 . S
C1184 C1179 1.350 . S
C1185 H1172 0.929 . S
C1185 C1177 1.433 . S
C1185 N1187 1.384 . S
N1186 C1182 1.427 . S
N1186 C1183 1.384 . S
N1187 C1179 1.427 . S
N1187 C1185 1.384 . S
H1188 C1194 0.930 . S
H1189 C1198 0.930 . S
H1190 C1203 0.929 . S
H1191 C1201 0.929 . S
H1192 C1196 0.929 . S
H1193 C1202 0.929 . S
C1194 H1188 0.930 . S
C1194 C1195 1.367 . S
C1194 C1202 1.378 . S
C1195 C1194 1.367 . S
C1195 C1203 1.433 . S
C1196 H1192 0.929 . S
C1196 C1198 1.378 . S
C1196 C1200 1.350 . S
C1197 C1200 1.463 . S
C1197 C1202 1.350 . S
C1197 N1205 1.427 . S
C1198 H1189 0.930 . S
C1198 C1196 1.378 . S
C1198 C1199 1.367 . S
C1199 C1198 1.367 . S
C1199 C1201 1.433 . S
C1200 C1196 1.350 . S
C1200 C1197 1.463 . S
C1200 N1204 1.427 . S
C1201 H1191 0.929 . S
C1201 C1199 1.433 . S
C1201 N1204 1.384 . S
C1202 H1193 0.929 . S
C1202 C1194 1.378 . S
C1202 C1197 1.350 . S
C1203 H1190 0.929 . S
C1203 C1195 1.433 . S
C1203 N1205 1.384 . S
N1204 C1200 1.427 . S
N1204 C1201 1.384 . S
N1205 C1197 1.427 . S
N1205 C1203 1.384 . S
H1206 C1212 0.930 . S
H1207 C1216 0.930 . S
H1208 C1221 0.929 . S
H1209 C1219 0.929 . S
H1210 C1214 0.929 . S
H1211 C1220 0.929 . S
C1212 H1206 0.930 . S
C1212 C1213 1.367 1_554 S
C1212 C1220 1.378 . S
C1213 C1212 1.367 1_556 S
C1213 C1221 1.433 . S
C1214 H1210 0.929 . S
C1214 C1216 1.378 . S
C1214 C1218 1.350 1_556 S
C1215 C1218 1.463 1_546 S
C1215 C1220 1.350 1_556 S
C1215 N1223 1.427 . S
C1216 H1207 0.930 . S
C1216 C1214 1.378 . S
C1216 C1217 1.367 1_556 S
C1217 C1216 1.367 1_554 S
C1217 C1219 1.433 . S
C1218 C1214 1.350 1_554 S
C1218 C1215 1.463 1_564 S
C1218 N1222 1.427 . S
C1219 H1209 0.929 . S
C1219 C1217 1.433 . S
C1219 N1222 1.384 . S
C1220 H1211 0.929 . S
C1220 C1212 1.378 . S
C1220 C1215 1.350 1_554 S
C1221 H1208 0.929 . S
C1221 C1213 1.433 . S
C1221 N1223 1.384 . S
N1222 C1218 1.427 . S
N1222 C1219 1.384 . S
N1223 C1215 1.427 . S
N1223 C1221 1.384 . S
H1224 C1230 0.930 . S
H1225 C1234 0.930 . S
H1226 C1239 0.929 . S
H1227 C1237 0.929 . S
H1228 C1232 0.929 . S
H1229 C1238 0.929 . S
C1230 H1224 0.930 . S
C1230 C1231 1.367 . S
C1230 C1238 1.378 . S
C1231 C1230 1.367 . S
C1231 C1239 1.433 . S
C1232 H1228 0.929 . S
C1232 C1234 1.378 . S
C1232 C1236 1.350 . S
C1233 C1236 1.463 . S
C1233 C1238 1.350 . S
C1233 N1241 1.427 . S
C1234 H1225 0.930 . S
C1234 C1232 1.378 . S
C1234 C1235 1.367 . S
C1235 C1234 1.367 . S
C1235 C1237 1.433 . S
C1236 C1232 1.350 . S
C1236 C1233 1.463 . S
C1236 N1240 1.427 . S
C1237 H1227 0.929 . S
C1237 C1235 1.433 . S
C1237 N1240 1.384 . S
C1238 H1229 0.929 . S
C1238 C1230 1.378 . S
C1238 C1233 1.350 . S
C1239 H1226 0.929 . S
C1239 C1231 1.433 . S
C1239 N1241 1.384 . S
N1240 C1236 1.427 . S
N1240 C1237 1.384 . S
N1241 C1233 1.427 . S
N1241 C1239 1.384 . S
H1242 C1248 0.930 . S
H1243 C1252 0.930 . S
H1244 C1257 0.929 . S
H1245 C1255 0.929 . S
H1246 C1250 0.929 . S
H1247 C1256 0.929 . S
C1248 H1242 0.930 . S
C1248 C1249 1.367 . S
C1248 C1256 1.378 . S
C1249 C1248 1.367 . S
C1249 C1257 1.433 . S
C1250 H1246 0.929 . S
C1250 C1252 1.378 . S
C1250 C1254 1.350 . S
C1251 C1254 1.463 1_565 S
C1251 C1256 1.350 . S
C1251 N1259 1.427 . S
C1252 H1243 0.930 . S
C1252 C1250 1.378 . S
C1252 C1253 1.367 . S
C1253 C1252 1.367 . S
C1253 C1255 1.433 . S
C1254 C1250 1.350 . S
C1254 C1251 1.463 1_545 S
C1254 N1258 1.427 . S
C1255 H1245 0.929 . S
C1255 C1253 1.433 . S
C1255 N1258 1.384 . S
C1256 H1247 0.929 . S
C1256 C1248 1.378 . S
C1256 C1251 1.350 . S
C1257 H1244 0.929 . S
C1257 C1249 1.433 . S
C1257 N1259 1.384 . S
N1258 C1254 1.427 . S
N1258 C1255 1.384 . S
N1259 C1251 1.427 . S
N1259 C1257 1.384 . S
H1260 C1266 0.930 . S
H1261 C1270 0.930 . S
H1262 C1275 0.929 . S
H1263 C1273 0.929 . S
H1264 C1268 0.929 . S
H1265 C1274 0.929 . S
C1266 H1260 0.930 . S
C1266 C1267 1.367 . S
C1266 C1274 1.378 . S
C1267 C1266 1.367 . S
C1267 C1275 1.433 . S
C1268 H1264 0.929 . S
C1268 C1270 1.378 . S
C1268 C1272 1.350 . S
C1269 C1272 1.463 . S
C1269 C1274 1.350 . S
C1269 N1277 1.427 . S
C1270 H1261 0.930 . S
C1270 C1268 1.378 . S
C1270 C1271 1.367 . S
C1271 C1270 1.367 . S
C1271 C1273 1.433 . S
C1272 C1268 1.350 . S
C1272 C1269 1.463 . S
C1272 N1276 1.427 . S
C1273 H1263 0.929 . S
C1273 C1271 1.433 . S
C1273 N1276 1.384 . S
C1274 H1265 0.929 . S
C1274 C1266 1.378 . S
C1274 C1269 1.350 . S
C1275 H1262 0.929 . S
C1275 C1267 1.433 . S
C1275 N1277 1.384 . S
N1276 C1272 1.427 . S
N1276 C1273 1.384 . S
N1277 C1269 1.427 . S
N1277 C1275 1.384 . S
H1278 C1284 0.929 1_554 S
H1279 C1288 0.929 1_556 S
H1280 C1293 0.929 . S
H1281 C1291 0.929 . S
H1282 C1286 0.929 . S
H1283 C1292 0.929 . S
C1284 H1278 0.929 1_556 S
C1284 C1285 1.369 . S
C1284 C1292 1.377 1_556 S
C1285 C1284 1.369 . S
C1285 C1293 1.433 . S
C1286 H1282 0.929 . S
C1286 C1288 1.377 1_556 S
C1286 C1290 1.350 1_556 S
C1287 C1290 1.463 1_546 S
C1287 C1292 1.350 1_556 S
C1287 N1295 1.427 . S
C1288 H1279 0.929 1_554 S
C1288 C1286 1.377 1_554 S
C1288 C1289 1.369 . S
C1289 C1288 1.369 . S
C1289 C1291 1.433 . S
C1290 C1286 1.350 1_554 S
C1290 C1287 1.463 1_564 S
C1290 N1294 1.427 . S
C1291 H1281 0.929 . S
C1291 C1289 1.433 . S
C1291 N1294 1.384 . S
C1292 H1283 0.929 . S
C1292 C1284 1.377 1_554 S
C1292 C1287 1.350 1_554 S
C1293 H1280 0.929 . S
C1293 C1285 1.433 . S
C1293 N1295 1.384 . S
N1294 C1290 1.427 . S
N1294 C1291 1.384 . S
N1295 C1287 1.427 . S
N1295 C1293 1.384 . S
H1296 C1302 0.930 . S
H1297 C1306 0.930 . S
H1298 C1311 0.929 . S
H1299 C1309 0.929 . S
H1300 C1304 0.929 . S
H1301 C1310 0.929 . S
C1302 H1296 0.930 . S
C1302 C1303 1.367 . S
C1302 C1310 1.378 . S
C1303 C1302 1.367 . S
C1303 C1311 1.433 . S
C1304 H1300 0.929 . S
C1304 C1306 1.378 . S
C1304 C1308 1.350 . S
C1305 C1308 1.463 . S
C1305 C1310 1.350 . S
C1305 N1313 1.427 . S
C1306 H1297 0.930 . S
C1306 C1304 1.378 . S
C1306 C1307 1.367 . S
C1307 C1306 1.367 . S
C1307 C1309 1.433 . S
C1308 C1304 1.350 . S
C1308 C1305 1.463 . S
C1308 N1312 1.427 . S
C1309 H1299 0.929 . S
C1309 C1307 1.433 . S
C1309 N1312 1.384 . S
C1310 H1301 0.929 . S
C1310 C1302 1.378 . S
C1310 C1305 1.350 . S
C1311 H1298 0.929 . S
C1311 C1303 1.433 . S
C1311 N1313 1.384 . S
N1312 C1308 1.427 . S
N1312 C1309 1.384 . S
N1313 C1305 1.427 . S
N1313 C1311 1.384 . S
H1314 C1320 0.930 . S
H1315 C1324 0.930 . S
H1316 C1329 0.929 . S
H1317 C1327 0.929 . S
H1318 C1322 0.929 . S
H1319 C1328 0.929 . S
C1320 H1314 0.930 . S
C1320 C1321 1.367 1_554 S
C1320 C1328 1.378 . S
C1321 C1320 1.367 1_556 S
C1321 C1329 1.433 . S
C1322 H1318 0.929 . S
C1322 C1324 1.378 . S
C1322 C1326 1.350 1_556 S
C1323 C1326 1.463 1_556 S
C1323 C1328 1.350 1_556 S
C1323 N1331 1.427 . S
C1324 H1315 0.930 . S
C1324 C1322 1.378 . S
C1324 C1325 1.367 1_556 S
C1325 C1324 1.367 1_554 S
C1325 C1327 1.433 . S
C1326 C1322 1.350 1_554 S
C1326 C1323 1.463 1_554 S
C1326 N1330 1.427 . S
C1327 H1317 0.929 . S
C1327 C1325 1.433 . S
C1327 N1330 1.384 . S
C1328 H1319 0.929 . S
C1328 C1320 1.378 . S
C1328 C1323 1.350 1_554 S
C1329 H1316 0.929 . S
C1329 C1321 1.433 . S
C1329 N1331 1.384 . S
N1330 C1326 1.427 . S
N1330 C1327 1.384 . S
N1331 C1323 1.427 . S
N1331 C1329 1.384 . S
H1332 C1338 0.930 . S
H1333 C1342 0.930 . S
H1334 C1347 0.929 . S
H1335 C1345 0.929 . S
H1336 C1340 0.929 . S
H1337 C1346 0.929 . S
C1338 H1332 0.930 . S
C1338 C1339 1.367 . S
C1338 C1346 1.378 . S
C1339 C1338 1.367 . S
C1339 C1347 1.433 . S
C1340 H1336 0.929 . S
C1340 C1342 1.378 . S
C1340 C1344 1.350 . S
C1341 C1344 1.463 . S
C1341 C1346 1.350 . S
C1341 N1349 1.427 . S
C1342 H1333 0.930 . S
C1342 C1340 1.378 . S
C1342 C1343 1.367 . S
C1343 C1342 1.367 . S
C1343 C1345 1.433 . S
C1344 C1340 1.350 . S
C1344 C1341 1.463 . S
C1344 N1348 1.427 . S
C1345 H1335 0.929 . S
C1345 C1343 1.433 . S
C1345 N1348 1.384 . S
C1346 H1337 0.929 . S
C1346 C1338 1.378 . S
C1346 C1341 1.350 . S
C1347 H1334 0.929 . S
C1347 C1339 1.433 . S
C1347 N1349 1.384 . S
N1348 C1344 1.427 . S
N1348 C1345 1.384 . S
N1349 C1341 1.427 . S
N1349 C1347 1.384 . S
H1350 C1356 0.930 . S
H1351 C1360 0.930 . S
H1352 C1365 0.929 . S
H1353 C1363 0.929 . S
H1354 C1358 0.929 . S
H1355 C1364 0.929 . S
C1356 H1350 0.930 . S
C1356 C1357 1.367 . S
C1356 C1364 1.378 . S
C1357 C1356 1.367 . S
C1357 C1365 1.433 . S
C1358 H1354 0.929 . S
C1358 C1360 1.378 . S
C1358 C1362 1.350 . S
C1359 C1362 1.463 . S
C1359 C1364 1.350 . S
C1359 N1367 1.427 . S
C1360 H1351 0.930 . S
C1360 C1358 1.378 . S
C1360 C1361 1.367 . S
C1361 C1360 1.367 . S
C1361 C1363 1.433 . S
C1362 C1358 1.350 . S
C1362 C1359 1.463 . S
C1362 N1366 1.427 . S
C1363 H1353 0.929 . S
C1363 C1361 1.433 . S
C1363 N1366 1.384 . S
C1364 H1355 0.929 . S
C1364 C1356 1.378 . S
C1364 C1359 1.350 . S
C1365 H1352 0.929 . S
C1365 C1357 1.433 . S
C1365 N1367 1.384 . S
N1366 C1362 1.427 . S
N1366 C1363 1.384 . S
N1367 C1359 1.427 . S
N1367 C1365 1.384 . S
H1368 C1374 0.930 . S
H1369 C1378 0.930 . S
H1370 C1383 0.929 . S
H1371 C1381 0.929 . S
H1372 C1376 0.929 . S
H1373 C1382 0.929 . S
C1374 H1368 0.930 . S
C1374 C1375 1.367 . S
C1374 C1382 1.378 . S
C1375 C1374 1.367 . S
C1375 C1383 1.433 . S
C1376 H1372 0.929 . S
C1376 C1378 1.378 . S
C1376 C1380 1.350 . S
C1377 C1380 1.463 . S
C1377 C1382 1.350 . S
C1377 N1385 1.427 . S
C1378 H1369 0.930 . S
C1378 C1376 1.378 . S
C1378 C1379 1.367 . S
C1379 C1378 1.367 . S
C1379 C1381 1.433 . S
C1380 C1376 1.350 . S
C1380 C1377 1.463 . S
C1380 N1384 1.427 . S
C1381 H1371 0.929 . S
C1381 C1379 1.433 . S
C1381 N1384 1.384 . S
C1382 H1373 0.929 . S
C1382 C1374 1.378 . S
C1382 C1377 1.350 . S
C1383 H1370 0.929 . S
C1383 C1375 1.433 . S
C1383 N1385 1.384 . S
N1384 C1380 1.427 . S
N1384 C1381 1.384 . S
N1385 C1377 1.427 . S
N1385 C1383 1.384 . S
H1386 C1392 0.930 . S
H1387 C1396 0.930 . S
H1388 C1401 0.929 . S
H1389 C1399 0.929 . S
H1390 C1394 0.929 . S
H1391 C1400 0.929 . S
C1392 H1386 0.930 . S
C1392 C1393 1.367 1_556 S
C1392 C1400 1.378 . S
C1393 C1392 1.367 1_554 S
C1393 C1401 1.433 . S
C1394 H1390 0.929 . S
C1394 C1396 1.378 . S
C1394 C1398 1.350 1_554 S
C1395 C1398 1.463 1_554 S
C1395 C1400 1.350 1_554 S
C1395 N1403 1.427 . S
C1396 H1387 0.930 . S
C1396 C1394 1.378 . S
C1396 C1397 1.367 1_554 S
C1397 C1396 1.367 1_556 S
C1397 C1399 1.433 . S
C1398 C1394 1.350 1_556 S
C1398 C1395 1.463 1_556 S
C1398 N1402 1.427 . S
C1399 H1389 0.929 . S
C1399 C1397 1.433 . S
C1399 N1402 1.384 . S
C1400 H1391 0.929 . S
C1400 C1392 1.378 . S
C1400 C1395 1.350 1_556 S
C1401 H1388 0.929 . S
C1401 C1393 1.433 . S
C1401 N1403 1.384 . S
N1402 C1398 1.427 . S
N1402 C1399 1.384 . S
N1403 C1395 1.427 . S
N1403 C1401 1.384 . S
H1404 C1410 0.930 . S
H1405 C1414 0.930 . S
H1406 C1419 0.929 . S
H1407 C1417 0.929 . S
H1408 C1412 0.929 . S
H1409 C1418 0.929 . S
C1410 H1404 0.930 . S
C1410 C1411 1.367 . S
C1410 C1418 1.378 . S
C1411 C1410 1.367 . S
C1411 C1419 1.433 . S
C1412 H1408 0.929 . S
C1412 C1414 1.378 . S
C1412 C1416 1.350 . S
C1413 C1416 1.463 . S
C1413 C1418 1.350 . S
C1413 N1421 1.427 . S
C1414 H1405 0.930 . S
C1414 C1412 1.378 . S
C1414 C1415 1.367 . S
C1415 C1414 1.367 . S
C1415 C1417 1.433 . S
C1416 C1412 1.350 . S
C1416 C1413 1.463 . S
C1416 N1420 1.427 . S
C1417 H1407 0.929 . S
C1417 C1415 1.433 . S
C1417 N1420 1.384 . S
C1418 H1409 0.929 . S
C1418 C1410 1.378 . S
C1418 C1413 1.350 . S
C1419 H1406 0.929 . S
C1419 C1411 1.433 . S
C1419 N1421 1.384 . S
N1420 C1416 1.427 . S
N1420 C1417 1.384 . S
N1421 C1413 1.427 . S
N1421 C1419 1.384 . S
H1422 C1428 0.930 . S
H1423 C1432 0.930 . S
H1424 C1437 0.929 . S
H1425 C1435 0.929 . S
H1426 C1430 0.929 . S
H1427 C1436 0.929 . S
C1428 H1422 0.930 . S
C1428 C1429 1.367 . S
C1428 C1436 1.378 . S
C1429 C1428 1.367 . S
C1429 C1437 1.433 . S
C1430 H1426 0.929 . S
C1430 C1432 1.378 . S
C1430 C1434 1.350 . S
C1431 C1434 1.463 . S
C1431 C1436 1.350 . S
C1431 N1439 1.427 . S
C1432 H1423 0.930 . S
C1432 C1430 1.378 . S
C1432 C1433 1.367 . S
C1433 C1432 1.367 . S
C1433 C1435 1.433 . S
C1434 C1430 1.350 . S
C1434 C1431 1.463 . S
C1434 N1438 1.427 . S
C1435 H1425 0.929 . S
C1435 C1433 1.433 . S
C1435 N1438 1.384 . S
C1436 H1427 0.929 . S
C1436 C1428 1.378 . S
C1436 C1431 1.350 . S
C1437 H1424 0.929 . S
C1437 C1429 1.433 . S
C1437 N1439 1.384 . S
N1438 C1434 1.427 . S
N1438 C1435 1.384 . S
N1439 C1431 1.427 . S
N1439 C1437 1.384 . S
H1440 C1446 0.930 . S
H1441 C1450 0.930 . S
H1442 C1455 0.929 . S
H1443 C1453 0.929 . S
H1444 C1448 0.929 . S
H1445 C1454 0.929 . S
C1446 H1440 0.930 . S
C1446 C1447 1.367 . S
C1446 C1454 1.378 . S
C1447 C1446 1.367 . S
C1447 C1455 1.433 . S
C1448 H1444 0.929 . S
C1448 C1450 1.378 . S
C1448 C1452 1.350 . S
C1449 C1452 1.463 . S
C1449 C1454 1.350 . S
C1449 N1457 1.427 . S
C1450 H1441 0.930 . S
C1450 C1448 1.378 . S
C1450 C1451 1.367 . S
C1451 C1450 1.367 . S
C1451 C1453 1.433 . S
C1452 C1448 1.350 . S
C1452 C1449 1.463 . S
C1452 N1456 1.427 . S
C1453 H1443 0.929 . S
C1453 C1451 1.433 . S
C1453 N1456 1.384 . S
C1454 H1445 0.929 . S
C1454 C1446 1.378 . S
C1454 C1449 1.350 . S
C1455 H1442 0.929 . S
C1455 C1447 1.433 . S
C1455 N1457 1.384 . S
N1456 C1452 1.427 . S
N1456 C1453 1.384 . S
N1457 C1449 1.427 . S
N1457 C1455 1.384 . S
H1458 C1464 0.930 1_556 S
H1459 C1468 0.930 . S
H1460 C1473 0.929 . S
H1461 C1471 0.929 . S
H1462 C1466 0.929 . S
H1463 C1472 0.929 . S
C1464 H1458 0.930 1_554 S
C1464 C1465 1.367 . S
C1464 C1472 1.378 . S
C1465 C1464 1.367 . S
C1465 C1473 1.433 . S
C1466 H1462 0.929 . S
C1466 C1468 1.378 . S
C1466 C1470 1.350 . S
C1467 C1470 1.463 . S
C1467 C1472 1.350 . S
C1467 N1475 1.427 . S
C1468 H1459 0.930 . S
C1468 C1466 1.378 . S
C1468 C1469 1.367 . S
C1469 C1468 1.367 . S
C1469 C1471 1.433 . S
C1470 C1466 1.350 . S
C1470 C1467 1.463 . S
C1470 N1474 1.427 . S
C1471 H1461 0.929 . S
C1471 C1469 1.433 . S
C1471 N1474 1.384 . S
C1472 H1463 0.929 . S
C1472 C1464 1.378 . S
C1472 C1467 1.350 . S
C1473 H1460 0.929 . S
C1473 C1465 1.433 . S
C1473 N1475 1.384 . S
N1474 C1470 1.427 . S
N1474 C1471 1.384 . S
N1475 C1467 1.427 . S
N1475 C1473 1.384 . S
H1476 C1482 0.930 . S
H1477 C1486 0.930 . S
H1478 C1491 0.929 . S
H1479 C1489 0.929 . S
H1480 C1484 0.929 . S
H1481 C1490 0.929 . S
C1482 H1476 0.930 . S
C1482 C1483 1.367 . S
C1482 C1490 1.378 . S
C1483 C1482 1.367 . S
C1483 C1491 1.433 . S
C1484 H1480 0.929 . S
C1484 C1486 1.378 . S
C1484 C1488 1.350 . S
C1485 C1488 1.463 . S
C1485 C1490 1.350 . S
C1485 N1493 1.427 . S
C1486 H1477 0.930 . S
C1486 C1484 1.378 . S
C1486 C1487 1.367 . S
C1487 C1486 1.367 . S
C1487 C1489 1.433 . S
C1488 C1484 1.350 . S
C1488 C1485 1.463 . S
C1488 N1492 1.427 . S
C1489 H1479 0.929 . S
C1489 C1487 1.433 . S
C1489 N1492 1.384 . S
C1490 H1481 0.929 . S
C1490 C1482 1.378 . S
C1490 C1485 1.350 . S
C1491 H1478 0.929 . S
C1491 C1483 1.433 . S
C1491 N1493 1.384 . S
N1492 C1488 1.427 . S
N1492 C1489 1.384 . S
N1493 C1485 1.427 . S
N1493 C1491 1.384 . S
H1494 C1500 0.930 . S
H1495 C1504 0.930 . S
H1496 C1509 0.929 . S
H1497 C1507 0.929 . S
H1498 C1502 0.929 . S
H1499 C1508 0.929 . S
C1500 H1494 0.930 . S
C1500 C1501 1.367 . S
C1500 C1508 1.378 . S
C1501 C1500 1.367 . S
C1501 C1509 1.433 . S
C1502 H1498 0.929 . S
C1502 C1504 1.378 . S
C1502 C1506 1.350 . S
C1503 C1506 1.463 . S
C1503 C1508 1.350 . S
C1503 N1511 1.427 . S
C1504 H1495 0.930 . S
C1504 C1502 1.378 . S
C1504 C1505 1.367 . S
C1505 C1504 1.367 . S
C1505 C1507 1.433 . S
C1506 C1502 1.350 . S
C1506 C1503 1.463 . S
C1506 N1510 1.427 . S
C1507 H1497 0.929 . S
C1507 C1505 1.433 . S
C1507 N1510 1.384 . S
C1508 H1499 0.929 . S
C1508 C1500 1.378 . S
C1508 C1503 1.350 . S
C1509 H1496 0.929 . S
C1509 C1501 1.433 . S
C1509 N1511 1.384 . S
N1510 C1506 1.427 . S
N1510 C1507 1.384 . S
N1511 C1503 1.427 . S
N1511 C1509 1.384 . S
H1512 C1518 0.930 1_556 S
H1513 C1522 0.930 . S
H1514 C1527 0.929 . S
H1515 C1525 0.929 . S
H1516 C1520 0.929 . S
H1517 C1526 0.929 . S
C1518 H1512 0.930 1_554 S
C1518 C1519 1.367 . S
C1518 C1526 1.378 . S
C1519 C1518 1.367 . S
C1519 C1527 1.433 . S
C1520 H1516 0.929 . S
C1520 C1522 1.378 . S
C1520 C1524 1.350 . S
C1521 C1524 1.463 . S
C1521 C1526 1.350 . S
C1521 N1529 1.427 . S
C1522 H1513 0.930 . S
C1522 C1520 1.378 . S
C1522 C1523 1.367 . S
C1523 C1522 1.367 . S
C1523 C1525 1.433 . S
C1524 C1520 1.350 . S
C1524 C1521 1.463 . S
C1524 N1528 1.427 . S
C1525 H1515 0.929 . S
C1525 C1523 1.433 . S
C1525 N1528 1.384 . S
C1526 H1517 0.929 . S
C1526 C1518 1.378 . S
C1526 C1521 1.350 . S
C1527 H1514 0.929 . S
C1527 C1519 1.433 . S
C1527 N1529 1.384 . S
N1528 C1524 1.427 . S
N1528 C1525 1.384 . S
N1529 C1521 1.427 . S
N1529 C1527 1.384 . S
H1530 C1536 0.930 . S
H1531 C1540 0.930 . S
H1532 C1545 0.929 . S
H1533 C1543 0.929 . S
H1534 C1538 0.929 . S
H1535 C1544 0.929 . S
C1536 H1530 0.930 . S
C1536 C1537 1.367 . S
C1536 C1544 1.378 . S
C1537 C1536 1.367 . S
C1537 C1545 1.433 . S
C1538 H1534 0.929 . S
C1538 C1540 1.378 . S
C1538 C1542 1.350 . S
C1539 C1542 1.463 . S
C1539 C1544 1.350 . S
C1539 N1547 1.427 . S
C1540 H1531 0.930 . S
C1540 C1538 1.378 . S
C1540 C1541 1.367 . S
C1541 C1540 1.367 . S
C1541 C1543 1.433 . S
C1542 C1538 1.350 . S
C1542 C1539 1.463 . S
C1542 N1546 1.427 . S
C1543 H1533 0.929 . S
C1543 C1541 1.433 . S
C1543 N1546 1.384 . S
C1544 H1535 0.929 . S
C1544 C1536 1.378 . S
C1544 C1539 1.350 . S
C1545 H1532 0.929 . S
C1545 C1537 1.433 . S
C1545 N1547 1.384 . S
N1546 C1542 1.427 . S
N1546 C1543 1.384 . S
N1547 C1539 1.427 . S
N1547 C1545 1.384 . S
H1548 C1554 0.930 . S
H1549 C1558 0.930 . S
H1550 C1563 0.929 . S
H1551 C1561 0.929 . S
H1552 C1556 0.929 . S
H1553 C1562 0.929 . S
C1554 H1548 0.930 . S
C1554 C1555 1.367 . S
C1554 C1562 1.378 . S
C1555 C1554 1.367 . S
C1555 C1563 1.433 . S
C1556 H1552 0.929 . S
C1556 C1558 1.378 . S
C1556 C1560 1.350 . S
C1557 C1560 1.463 . S
C1557 C1562 1.350 . S
C1557 N1565 1.427 . S
C1558 H1549 0.930 . S
C1558 C1556 1.378 . S
C1558 C1559 1.367 . S
C1559 C1558 1.367 . S
C1559 C1561 1.433 . S
C1560 C1556 1.350 . S
C1560 C1557 1.463 . S
C1560 N1564 1.427 . S
C1561 H1551 0.929 . S
C1561 C1559 1.433 . S
C1561 N1564 1.384 . S
C1562 H1553 0.929 . S
C1562 C1554 1.378 . S
C1562 C1557 1.350 . S
C1563 H1550 0.929 . S
C1563 C1555 1.433 . S
C1563 N1565 1.384 . S
N1564 C1560 1.427 . S
N1564 C1561 1.384 . S
N1565 C1557 1.427 . S
N1565 C1563 1.384 . S
H1566 C1572 0.930 . S
H1567 C1576 0.930 . S
H1568 C1581 0.929 . S
H1569 C1579 0.929 . S
H1570 C1574 0.929 . S
H1571 C1580 0.929 . S
C1572 H1566 0.930 . S
C1572 C1573 1.367 . S
C1572 C1580 1.378 . S
C1573 C1572 1.367 . S
C1573 C1581 1.433 . S
C1574 H1570 0.929 . S
C1574 C1576 1.378 . S
C1574 C1578 1.350 . S
C1575 C1578 1.463 . S
C1575 C1580 1.350 . S
C1575 N1583 1.427 . S
C1576 H1567 0.930 . S
C1576 C1574 1.378 . S
C1576 C1577 1.367 . S
C1577 C1576 1.367 . S
C1577 C1579 1.433 . S
C1578 C1574 1.350 . S
C1578 C1575 1.463 . S
C1578 N1582 1.427 . S
C1579 H1569 0.929 . S
C1579 C1577 1.433 . S
C1579 N1582 1.384 . S
C1580 H1571 0.929 . S
C1580 C1572 1.378 . S
C1580 C1575 1.350 . S
C1581 H1568 0.929 . S
C1581 C1573 1.433 . S
C1581 N1583 1.384 . S
N1582 C1578 1.427 . S
N1582 C1579 1.384 . S
N1583 C1575 1.427 . S
N1583 C1581 1.384 . S
H1584 C1590 0.930 . S
H1585 C1594 0.930 . S
H1586 C1599 0.929 . S
H1587 C1597 0.929 . S
H1588 C1592 0.929 . S
H1589 C1598 0.929 . S
C1590 H1584 0.930 . S
C1590 C1591 1.367 . S
C1590 C1598 1.378 . S
C1591 C1590 1.367 . S
C1591 C1599 1.433 . S
C1592 H1588 0.929 . S
C1592 C1594 1.378 . S
C1592 C1596 1.350 . S
C1593 C1596 1.463 . S
C1593 C1598 1.350 . S
C1593 N1601 1.427 . S
C1594 H1585 0.930 . S
C1594 C1592 1.378 . S
C1594 C1595 1.367 . S
C1595 C1594 1.367 . S
C1595 C1597 1.433 . S
C1596 C1592 1.350 . S
C1596 C1593 1.463 . S
C1596 N1600 1.427 . S
C1597 H1587 0.929 . S
C1597 C1595 1.433 . S
C1597 N1600 1.384 . S
C1598 H1589 0.929 . S
C1598 C1590 1.378 . S
C1598 C1593 1.350 . S
C1599 H1586 0.929 . S
C1599 C1591 1.433 . S
C1599 N1601 1.384 . S
N1600 C1596 1.427 . S
N1600 C1597 1.384 . S
N1601 C1593 1.427 . S
N1601 C1599 1.384 . S
H1602 C1608 0.930 . S
H1603 C1612 0.930 . S
H1604 C1617 0.929 . S
H1605 C1615 0.929 . S
H1606 C1610 0.929 . S
H1607 C1616 0.929 . S
C1608 H1602 0.930 . S
C1608 C1609 1.367 . S
C1608 C1616 1.378 . S
C1609 C1608 1.367 . S
C1609 C1617 1.433 . S
C1610 H1606 0.929 . S
C1610 C1612 1.378 . S
C1610 C1614 1.350 . S
C1611 C1614 1.463 . S
C1611 C1616 1.350 . S
C1611 N1619 1.427 . S
C1612 H1603 0.930 . S
C1612 C1610 1.378 . S
C1612 C1613 1.367 . S
C1613 C1612 1.367 . S
C1613 C1615 1.433 . S
C1614 C1610 1.350 . S
C1614 C1611 1.463 . S
C1614 N1618 1.427 . S
C1615 H1605 0.929 . S
C1615 C1613 1.433 . S
C1615 N1618 1.384 . S
C1616 H1607 0.929 . S
C1616 C1608 1.378 . S
C1616 C1611 1.350 . S
C1617 H1604 0.929 . S
C1617 C1609 1.433 . S
C1617 N1619 1.384 . S
N1618 C1614 1.427 . S
N1618 C1615 1.384 . S
N1619 C1611 1.427 . S
N1619 C1617 1.384 . S
H1620 C1626 0.930 . S
H1621 C1630 0.930 . S
H1622 C1635 0.929 . S
H1623 C1633 0.929 1_554 S
H1624 C1628 0.929 . S
H1625 C1634 0.929 . S
C1626 H1620 0.930 . S
C1626 C1627 1.367 . S
C1626 C1634 1.378 . S
C1627 C1626 1.367 . S
C1627 C1635 1.433 . S
C1628 H1624 0.929 . S
C1628 C1630 1.378 . S
C1628 C1632 1.350 . S
C1629 C1632 1.463 . S
C1629 C1634 1.350 . S
C1629 N1637 1.427 . S
C1630 H1621 0.930 . S
C1630 C1628 1.378 . S
C1630 C1631 1.367 . S
C1631 C1630 1.367 . S
C1631 C1633 1.433 . S
C1632 C1628 1.350 . S
C1632 C1629 1.463 . S
C1632 N1636 1.427 . S
C1633 H1623 0.929 1_556 S
C1633 C1631 1.433 . S
C1633 N1636 1.384 . S
C1634 H1625 0.929 . S
C1634 C1626 1.378 . S
C1634 C1629 1.350 . S
C1635 H1622 0.929 . S
C1635 C1627 1.433 . S
C1635 N1637 1.384 . S
N1636 C1632 1.427 . S
N1636 C1633 1.384 . S
N1637 C1629 1.427 . S
N1637 C1635 1.384 . S
H1638 C1644 0.930 . S
H1639 C1648 0.930 . S
H1640 C1653 0.929 . S
H1641 C1651 0.929 . S
H1642 C1646 0.929 . S
H1643 C1652 0.929 . S
C1644 H1638 0.930 . S
C1644 C1645 1.367 . S
C1644 C1652 1.378 . S
C1645 C1644 1.367 . S
C1645 C1653 1.433 . S
C1646 H1642 0.929 . S
C1646 C1648 1.378 . S
C1646 C1650 1.350 . S
C1647 C1650 1.463 . S
C1647 C1652 1.350 . S
C1647 N1655 1.427 . S
C1648 H1639 0.930 . S
C1648 C1646 1.378 . S
C1648 C1649 1.367 . S
C1649 C1648 1.367 . S
C1649 C1651 1.433 . S
C1650 C1646 1.350 . S
C1650 C1647 1.463 . S
C1650 N1654 1.427 . S
C1651 H1641 0.929 . S
C1651 C1649 1.433 . S
C1651 N1654 1.384 . S
C1652 H1643 0.929 . S
C1652 C1644 1.378 . S
C1652 C1647 1.350 . S
C1653 H1640 0.929 . S
C1653 C1645 1.433 . S
C1653 N1655 1.384 . S
N1654 C1650 1.427 . S
N1654 C1651 1.384 . S
N1655 C1647 1.427 . S
N1655 C1653 1.384 . S
H1656 C1662 0.930 . S
H1657 C1666 0.930 . S
H1658 C1671 0.929 . S
H1659 C1669 0.929 . S
H1660 C1664 0.929 . S
H1661 C1670 0.929 . S
C1662 H1656 0.930 . S
C1662 C1663 1.367 . S
C1662 C1670 1.378 . S
C1663 C1662 1.367 . S
C1663 C1671 1.433 . S
C1664 H1660 0.929 . S
C1664 C1666 1.378 . S
C1664 C1668 1.350 . S
C1665 C1668 1.463 . S
C1665 C1670 1.350 . S
C1665 N1673 1.427 . S
C1666 H1657 0.930 . S
C1666 C1664 1.378 . S
C1666 C1667 1.367 . S
C1667 C1666 1.367 . S
C1667 C1669 1.433 . S
C1668 C1664 1.350 . S
C1668 C1665 1.463 . S
C1668 N1672 1.427 . S
C1669 H1659 0.929 . S
C1669 C1667 1.433 . S
C1669 N1672 1.384 . S
C1670 H1661 0.929 . S
C1670 C1662 1.378 . S
C1670 C1665 1.350 . S
C1671 H1658 0.929 . S
C1671 C1663 1.433 . S
C1671 N1673 1.384 . S
N1672 C1668 1.427 . S
N1672 C1669 1.384 . S
N1673 C1665 1.427 . S
N1673 C1671 1.384 . S
H1674 C1680 0.930 . S
H1675 C1684 0.930 . S
H1676 C1689 0.929 . S
H1677 C1687 0.929 . S
H1678 C1682 0.929 . S
H1679 C1688 0.929 . S
C1680 H1674 0.930 . S
C1680 C1681 1.367 . S
C1680 C1688 1.378 . S
C1681 C1680 1.367 . S
C1681 C1689 1.433 . S
C1682 H1678 0.929 . S
C1682 C1684 1.378 . S
C1682 C1686 1.350 . S
C1683 C1686 1.463 . S
C1683 C1688 1.350 . S
C1683 N1691 1.427 . S
C1684 H1675 0.930 . S
C1684 C1682 1.378 . S
C1684 C1685 1.367 . S
C1685 C1684 1.367 . S
C1685 C1687 1.433 . S
C1686 C1682 1.350 . S
C1686 C1683 1.463 . S
C1686 N1690 1.427 . S
C1687 H1677 0.929 . S
C1687 C1685 1.433 . S
C1687 N1690 1.384 . S
C1688 H1679 0.929 . S
C1688 C1680 1.378 . S
C1688 C1683 1.350 . S
C1689 H1676 0.929 . S
C1689 C1681 1.433 . S
C1689 N1691 1.384 . S
N1690 C1686 1.427 . S
N1690 C1687 1.384 . S
N1691 C1683 1.427 . S
N1691 C1689 1.384 . S
H1692 C1698 0.930 . S
H1693 C1702 0.930 . S
H1694 C1707 0.929 1_556 S
H1695 C1705 0.929 . S
H1696 C1700 0.929 . S
H1697 C1706 0.929 . S
C1698 H1692 0.930 . S
C1698 C1699 1.367 . S
C1698 C1706 1.378 . S
C1699 C1698 1.367 . S
C1699 C1707 1.433 . S
C1700 H1696 0.929 . S
C1700 C1702 1.378 . S
C1700 C1704 1.350 . S
C1701 C1704 1.463 . S
C1701 C1706 1.350 . S
C1701 N1709 1.427 . S
C1702 H1693 0.930 . S
C1702 C1700 1.378 . S
C1702 C1703 1.367 . S
C1703 C1702 1.367 . S
C1703 C1705 1.433 . S
C1704 C1700 1.350 . S
C1704 C1701 1.463 . S
C1704 N1708 1.427 . S
C1705 H1695 0.929 . S
C1705 C1703 1.433 . S
C1705 N1708 1.384 . S
C1706 H1697 0.929 . S
C1706 C1698 1.378 . S
C1706 C1701 1.350 . S
C1707 H1694 0.929 1_554 S
C1707 C1699 1.433 . S
C1707 N1709 1.384 . S
N1708 C1704 1.427 . S
N1708 C1705 1.384 . S
N1709 C1701 1.427 . S
N1709 C1707 1.384 . S
H1710 C1716 0.930 . S
H1711 C1720 0.930 1_554 S
H1712 C1725 0.929 . S
H1713 C1723 0.929 . S
H1714 C1718 0.929 . S
H1715 C1724 0.929 . S
C1716 H1710 0.930 . S
C1716 C1717 1.367 . S
C1716 C1724 1.378 . S
C1717 C1716 1.367 . S
C1717 C1725 1.433 . S
C1718 H1714 0.929 . S
C1718 C1720 1.378 . S
C1718 C1722 1.350 . S
C1719 C1722 1.463 . S
C1719 C1724 1.350 . S
C1719 N1727 1.427 . S
C1720 H1711 0.930 1_556 S
C1720 C1718 1.378 . S
C1720 C1721 1.367 . S
C1721 C1720 1.367 . S
C1721 C1723 1.433 . S
C1722 C1718 1.350 . S
C1722 C1719 1.463 . S
C1722 N1726 1.427 . S
C1723 H1713 0.929 . S
C1723 C1721 1.433 . S
C1723 N1726 1.384 . S
C1724 H1715 0.929 . S
C1724 C1716 1.378 . S
C1724 C1719 1.350 . S
C1725 H1712 0.929 . S
C1725 C1717 1.433 . S
C1725 N1727 1.384 . S
N1726 C1722 1.427 . S
N1726 C1723 1.384 . S
N1727 C1719 1.427 . S
N1727 C1725 1.384 . S
H1728 C1734 0.930 . S
H1729 C1738 0.930 . S
H1730 C1743 0.929 . S
H1731 C1741 0.929 . S
H1732 C1736 0.929 . S
H1733 C1742 0.929 . S
C1734 H1728 0.930 . S
C1734 C1735 1.367 . S
C1734 C1742 1.378 . S
C1735 C1734 1.367 . S
C1735 C1743 1.433 . S
C1736 H1732 0.929 . S
C1736 C1738 1.378 . S
C1736 C1740 1.350 . S
C1737 C1740 1.463 . S
C1737 C1742 1.350 . S
C1737 N1745 1.427 . S
C1738 H1729 0.930 . S
C1738 C1736 1.378 . S
C1738 C1739 1.367 . S
C1739 C1738 1.367 . S
C1739 C1741 1.433 . S
C1740 C1736 1.350 . S
C1740 C1737 1.463 . S
C1740 N1744 1.427 . S
C1741 H1731 0.929 . S
C1741 C1739 1.433 . S
C1741 N1744 1.384 . S
C1742 H1733 0.929 . S
C1742 C1734 1.378 . S
C1742 C1737 1.350 . S
C1743 H1730 0.929 . S
C1743 C1735 1.433 . S
C1743 N1745 1.384 . S
N1744 C1740 1.427 . S
N1744 C1741 1.384 . S
N1745 C1737 1.427 . S
N1745 C1743 1.384 . S
H1746 C1752 0.930 . S
H1747 C1756 0.930 . S
H1748 C1761 0.929 . S
H1749 C1759 0.929 . S
H1750 C1754 0.929 . S
H1751 C1760 0.929 . S
C1752 H1746 0.930 . S
C1752 C1753 1.367 . S
C1752 C1760 1.378 . S
C1753 C1752 1.367 . S
C1753 C1761 1.433 . S
C1754 H1750 0.929 . S
C1754 C1756 1.378 . S
C1754 C1758 1.350 . S
C1755 C1758 1.463 1_655 S
C1755 C1760 1.350 . S
C1755 N1763 1.427 . S
C1756 H1747 0.930 . S
C1756 C1754 1.378 . S
C1756 C1757 1.367 . S
C1757 C1756 1.367 . S
C1757 C1759 1.433 . S
C1758 C1754 1.350 . S
C1758 C1755 1.463 1_455 S
C1758 N1762 1.427 . S
C1759 H1749 0.929 . S
C1759 C1757 1.433 . S
C1759 N1762 1.384 . S
C1760 H1751 0.929 . S
C1760 C1752 1.378 . S
C1760 C1755 1.350 . S
C1761 H1748 0.929 . S
C1761 C1753 1.433 . S
C1761 N1763 1.384 . S
N1762 C1758 1.427 . S
N1762 C1759 1.384 . S
N1763 C1755 1.427 . S
N1763 C1761 1.384 . S
H1764 C1770 0.930 . S
H1765 C1774 0.930 . S
H1766 C1779 0.929 . S
H1767 C1777 0.929 . S
H1768 C1772 0.929 . S
H1769 C1778 0.929 . S
C1770 H1764 0.930 . S
C1770 C1771 1.367 . S
C1770 C1778 1.378 . S
C1771 C1770 1.367 . S
C1771 C1779 1.433 . S
C1772 H1768 0.929 . S
C1772 C1774 1.378 . S
C1772 C1776 1.350 . S
C1773 C1776 1.463 . S
C1773 C1778 1.350 . S
C1773 N1781 1.427 . S
C1774 H1765 0.930 . S
C1774 C1772 1.378 . S
C1774 C1775 1.367 . S
C1775 C1774 1.367 . S
C1775 C1777 1.433 . S
C1776 C1772 1.350 . S
C1776 C1773 1.463 . S
C1776 N1780 1.427 . S
C1777 H1767 0.929 . S
C1777 C1775 1.433 . S
C1777 N1780 1.384 . S
C1778 H1769 0.929 . S
C1778 C1770 1.378 . S
C1778 C1773 1.350 . S
C1779 H1766 0.929 . S
C1779 C1771 1.433 . S
C1779 N1781 1.384 . S
N1780 C1776 1.427 . S
N1780 C1777 1.384 . S
N1781 C1773 1.427 . S
N1781 C1779 1.384 . S
H1782 C1788 0.930 . S
H1783 C1792 0.930 . S
H1784 C1797 0.929 . S
H1785 C1795 0.929 . S
H1786 C1790 0.929 . S
H1787 C1796 0.929 . S
C1788 H1782 0.930 . S
C1788 C1789 1.367 . S
C1788 C1796 1.378 . S
C1789 C1788 1.367 . S
C1789 C1797 1.433 . S
C1790 H1786 0.929 . S
C1790 C1792 1.378 . S
C1790 C1794 1.350 . S
C1791 C1794 1.463 . S
C1791 C1796 1.350 . S
C1791 N1799 1.427 . S
C1792 H1783 0.930 . S
C1792 C1790 1.378 . S
C1792 C1793 1.367 . S
C1793 C1792 1.367 . S
C1793 C1795 1.433 . S
C1794 C1790 1.350 . S
C1794 C1791 1.463 . S
C1794 N1798 1.427 . S
C1795 H1785 0.929 . S
C1795 C1793 1.433 . S
C1795 N1798 1.384 . S
C1796 H1787 0.929 . S
C1796 C1788 1.378 . S
C1796 C1791 1.350 . S
C1797 H1784 0.929 . S
C1797 C1789 1.433 . S
C1797 N1799 1.384 . S
N1798 C1794 1.427 . S
N1798 C1795 1.384 . S
N1799 C1791 1.427 . S
N1799 C1797 1.384 . S
H1800 C1806 0.930 . S
H1801 C1810 0.930 . S
H1802 C1815 0.929 . S
H1803 C1813 0.929 . S
H1804 C1808 0.929 . S
H1805 C1814 0.929 . S
C1806 H1800 0.930 . S
C1806 C1807 1.367 . S
C1806 C1814 1.378 . S
C1807 C1806 1.367 . S
C1807 C1815 1.433 . S
C1808 H1804 0.929 . S
C1808 C1810 1.378 . S
C1808 C1812 1.350 . S
C1809 C1812 1.463 . S
C1809 C1814 1.350 . S
C1809 N1817 1.427 . S
C1810 H1801 0.930 . S
C1810 C1808 1.378 . S
C1810 C1811 1.367 . S
C1811 C1810 1.367 . S
C1811 C1813 1.433 . S
C1812 C1808 1.350 . S
C1812 C1809 1.463 . S
C1812 N1816 1.427 . S
C1813 H1803 0.929 . S
C1813 C1811 1.433 . S
C1813 N1816 1.384 . S
C1814 H1805 0.929 . S
C1814 C1806 1.378 . S
C1814 C1809 1.350 . S
C1815 H1802 0.929 . S
C1815 C1807 1.433 . S
C1815 N1817 1.384 . S
N1816 C1812 1.427 . S
N1816 C1813 1.384 . S
N1817 C1809 1.427 . S
N1817 C1815 1.384 . S
H1818 C1824 0.930 . S
H1819 C1828 0.930 . S
H1820 C1833 0.929 . S
H1821 C1831 0.929 . S
H1822 C1826 0.929 . S
H1823 C1832 0.929 . S
C1824 H1818 0.930 . S
C1824 C1825 1.367 . S
C1824 C1832 1.378 . S
C1825 C1824 1.367 . S
C1825 C1833 1.433 . S
C1826 H1822 0.929 . S
C1826 C1828 1.378 . S
C1826 C1830 1.350 . S
C1827 C1830 1.463 . S
C1827 C1832 1.350 . S
C1827 N1835 1.427 . S
C1828 H1819 0.930 . S
C1828 C1826 1.378 . S
C1828 C1829 1.367 . S
C1829 C1828 1.367 . S
C1829 C1831 1.433 . S
C1830 C1826 1.350 . S
C1830 C1827 1.463 . S
C1830 N1834 1.427 . S
C1831 H1821 0.929 . S
C1831 C1829 1.433 . S
C1831 N1834 1.384 . S
C1832 H1823 0.929 . S
C1832 C1824 1.378 . S
C1832 C1827 1.350 . S
C1833 H1820 0.929 . S
C1833 C1825 1.433 . S
C1833 N1835 1.384 . S
N1834 C1830 1.427 . S
N1834 C1831 1.384 . S
N1835 C1827 1.427 . S
N1835 C1833 1.384 . S
H1836 C1842 0.930 . S
H1837 C1846 0.930 . S
H1838 C1851 0.929 . S
H1839 C1849 0.929 . S
H1840 C1844 0.929 . S
H1841 C1850 0.929 . S
C1842 H1836 0.930 . S
C1842 C1843 1.367 . S
C1842 C1850 1.378 . S
C1843 C1842 1.367 . S
C1843 C1851 1.433 . S
C1844 H1840 0.929 . S
C1844 C1846 1.378 . S
C1844 C1848 1.350 . S
C1845 C1848 1.463 . S
C1845 C1850 1.350 . S
C1845 N1853 1.427 . S
C1846 H1837 0.930 . S
C1846 C1844 1.378 . S
C1846 C1847 1.367 . S
C1847 C1846 1.367 . S
C1847 C1849 1.433 . S
C1848 C1844 1.350 . S
C1848 C1845 1.463 . S
C1848 N1852 1.427 . S
C1849 H1839 0.929 . S
C1849 C1847 1.433 . S
C1849 N1852 1.384 . S
C1850 H1841 0.929 . S
C1850 C1842 1.378 . S
C1850 C1845 1.350 . S
C1851 H1838 0.929 . S
C1851 C1843 1.433 . S
C1851 N1853 1.384 . S
N1852 C1848 1.427 . S
N1852 C1849 1.384 . S
N1853 C1845 1.427 . S
N1853 C1851 1.384 . S
H1854 C1860 0.930 . S
H1855 C1864 0.930 . S
H1856 C1869 0.929 . S
H1857 C1867 0.929 . S
H1858 C1862 0.929 . S
H1859 C1868 0.929 . S
C1860 H1854 0.930 . S
C1860 C1861 1.367 . S
C1860 C1868 1.378 . S
C1861 C1860 1.367 . S
C1861 C1869 1.433 . S
C1862 H1858 0.929 . S
C1862 C1864 1.378 . S
C1862 C1866 1.350 . S
C1863 C1866 1.463 1_655 S
C1863 C1868 1.350 . S
C1863 N1871 1.427 . S
C1864 H1855 0.930 . S
C1864 C1862 1.378 . S
C1864 C1865 1.367 . S
C1865 C1864 1.367 . S
C1865 C1867 1.433 . S
C1866 C1862 1.350 . S
C1866 C1863 1.463 1_455 S
C1866 N1870 1.427 . S
C1867 H1857 0.929 . S
C1867 C1865 1.433 . S
C1867 N1870 1.384 . S
C1868 H1859 0.929 . S
C1868 C1860 1.378 . S
C1868 C1863 1.350 . S
C1869 H1856 0.929 . S
C1869 C1861 1.433 . S
C1869 N1871 1.384 . S
N1870 C1866 1.427 . S
N1870 C1867 1.384 . S
N1871 C1863 1.427 . S
N1871 C1869 1.384 . S
H1872 C1878 0.930 . S
H1873 C1882 0.930 . S
H1874 C1887 0.929 . S
H1875 C1885 0.929 . S
H1876 C1880 0.929 . S
H1877 C1886 0.929 . S
C1878 H1872 0.930 . S
C1878 C1879 1.367 . S
C1878 C1886 1.378 . S
C1879 C1878 1.367 . S
C1879 C1887 1.433 . S
C1880 H1876 0.929 . S
C1880 C1882 1.378 . S
C1880 C1884 1.350 . S
C1881 C1884 1.463 . S
C1881 C1886 1.350 . S
C1881 N1889 1.427 . S
C1882 H1873 0.930 . S
C1882 C1880 1.378 . S
C1882 C1883 1.367 . S
C1883 C1882 1.367 . S
C1883 C1885 1.433 . S
C1884 C1880 1.350 . S
C1884 C1881 1.463 . S
C1884 N1888 1.427 . S
C1885 H1875 0.929 . S
C1885 C1883 1.433 . S
C1885 N1888 1.384 . S
C1886 H1877 0.929 . S
C1886 C1878 1.378 . S
C1886 C1881 1.350 . S
C1887 H1874 0.929 . S
C1887 C1879 1.433 . S
C1887 N1889 1.384 . S
N1888 C1884 1.427 . S
N1888 C1885 1.384 . S
N1889 C1881 1.427 . S
N1889 C1887 1.384 . S
H1890 C1896 0.930 . S
H1891 C1900 0.930 . S
H1892 C1905 0.929 . S
H1893 C1903 0.929 . S
H1894 C1898 0.929 . S
H1895 C1904 0.929 . S
C1896 H1890 0.930 . S
C1896 C1897 1.367 . S
C1896 C1904 1.378 . S
C1897 C1896 1.367 . S
C1897 C1905 1.433 . S
C1898 H1894 0.929 . S
C1898 C1900 1.378 . S
C1898 C1902 1.350 . S
C1899 C1902 1.463 . S
C1899 C1904 1.350 . S
C1899 N1907 1.427 . S
C1900 H1891 0.930 . S
C1900 C1898 1.378 . S
C1900 C1901 1.367 . S
C1901 C1900 1.367 . S
C1901 C1903 1.433 . S
C1902 C1898 1.350 . S
C1902 C1899 1.463 . S
C1902 N1906 1.427 . S
C1903 H1893 0.929 . S
C1903 C1901 1.433 . S
C1903 N1906 1.384 . S
C1904 H1895 0.929 . S
C1904 C1896 1.378 . S
C1904 C1899 1.350 . S
C1905 H1892 0.929 . S
C1905 C1897 1.433 . S
C1905 N1907 1.384 . S
N1906 C1902 1.427 . S
N1906 C1903 1.384 . S
N1907 C1899 1.427 . S
N1907 C1905 1.384 . S
H1908 C1914 0.930 . S
H1909 C1918 0.930 . S
H1910 C1923 0.929 . S
H1911 C1921 0.929 . S
H1912 C1916 0.929 . S
H1913 C1922 0.929 . S
C1914 H1908 0.930 . S
C1914 C1915 1.367 . S
C1914 C1922 1.378 . S
C1915 C1914 1.367 . S
C1915 C1923 1.433 . S
C1916 H1912 0.929 . S
C1916 C1918 1.378 . S
C1916 C1920 1.350 . S
C1917 C1920 1.463 . S
C1917 C1922 1.350 . S
C1917 N1925 1.427 . S
C1918 H1909 0.930 . S
C1918 C1916 1.378 . S
C1918 C1919 1.367 . S
C1919 C1918 1.367 . S
C1919 C1921 1.433 . S
C1920 C1916 1.350 . S
C1920 C1917 1.463 . S
C1920 N1924 1.427 . S
C1921 H1911 0.929 . S
C1921 C1919 1.433 . S
C1921 N1924 1.384 . S
C1922 H1913 0.929 . S
C1922 C1914 1.378 . S
C1922 C1917 1.350 . S
C1923 H1910 0.929 . S
C1923 C1915 1.433 . S
C1923 N1925 1.384 . S
N1924 C1920 1.427 . S
N1924 C1921 1.384 . S
N1925 C1917 1.427 . S
N1925 C1923 1.384 . S
H1926 C1932 0.930 . S
H1927 C1936 0.930 . S
H1928 C1941 0.929 . S
H1929 C1939 0.929 . S
H1930 C1934 0.929 . S
H1931 C1940 0.929 . S
C1932 H1926 0.930 . S
C1932 C1933 1.367 . S
C1932 C1940 1.378 . S
C1933 C1932 1.367 . S
C1933 C1941 1.433 . S
C1934 H1930 0.929 . S
C1934 C1936 1.378 . S
C1934 C1938 1.350 . S
C1935 C1938 1.463 . S
C1935 C1940 1.350 . S
C1935 N1943 1.427 . S
C1936 H1927 0.930 . S
C1936 C1934 1.378 . S
C1936 C1937 1.367 . S
C1937 C1936 1.367 . S
C1937 C1939 1.433 . S
C1938 C1934 1.350 . S
C1938 C1935 1.463 . S
C1938 N1942 1.427 . S
C1939 H1929 0.929 . S
C1939 C1937 1.433 . S
C1939 N1942 1.384 . S
C1940 H1931 0.929 . S
C1940 C1932 1.378 . S
C1940 C1935 1.350 . S
C1941 H1928 0.929 . S
C1941 C1933 1.433 . S
C1941 N1943 1.384 . S
N1942 C1938 1.427 . S
N1942 C1939 1.384 . S
N1943 C1935 1.427 . S
N1943 C1941 1.384 . S
H1944 C1950 0.930 . S
H1945 C1954 0.930 . S
H1946 C1959 0.929 . S
H1947 C1957 0.929 . S
H1948 C1952 0.929 . S
H1949 C1958 0.929 . S
C1950 H1944 0.930 . S
C1950 C1951 1.367 . S
C1950 C1958 1.378 . S
C1951 C1950 1.367 . S
C1951 C1959 1.433 . S
C1952 H1948 0.929 . S
C1952 C1954 1.378 . S
C1952 C1956 1.350 . S
C1953 C1956 1.463 . S
C1953 C1958 1.350 . S
C1953 N1961 1.427 . S
C1954 H1945 0.930 . S
C1954 C1952 1.378 . S
C1954 C1955 1.367 . S
C1955 C1954 1.367 . S
C1955 C1957 1.433 . S
C1956 C1952 1.350 . S
C1956 C1953 1.463 . S
C1956 N1960 1.427 . S
C1957 H1947 0.929 . S
C1957 C1955 1.433 . S
C1957 N1960 1.384 . S
C1958 H1949 0.929 . S
C1958 C1950 1.378 . S
C1958 C1953 1.350 . S
C1959 H1946 0.929 . S
C1959 C1951 1.433 . S
C1959 N1961 1.384 . S
N1960 C1956 1.427 . S
N1960 C1957 1.384 . S
N1961 C1953 1.427 . S
N1961 C1959 1.384 . S
H1962 C1968 0.930 . S
H1963 C1972 0.930 . S
H1964 C1977 0.929 . S
H1965 C1975 0.929 . S
H1966 C1970 0.929 . S
H1967 C1976 0.929 . S
C1968 H1962 0.930 . S
C1968 C1969 1.367 . S
C1968 C1976 1.378 . S
C1969 C1968 1.367 . S
C1969 C1977 1.433 . S
C1970 H1966 0.929 . S
C1970 C1972 1.378 . S
C1970 C1974 1.350 . S
C1971 C1974 1.463 1_655 S
C1971 C1976 1.350 . S
C1971 N1979 1.427 . S
C1972 H1963 0.930 . S
C1972 C1970 1.378 . S
C1972 C1973 1.367 . S
C1973 C1972 1.367 . S
C1973 C1975 1.433 . S
C1974 C1970 1.350 . S
C1974 C1971 1.463 1_455 S
C1974 N1978 1.427 . S
C1975 H1965 0.929 . S
C1975 C1973 1.433 . S
C1975 N1978 1.384 . S
C1976 H1967 0.929 . S
C1976 C1968 1.378 . S
C1976 C1971 1.350 . S
C1977 H1964 0.929 . S
C1977 C1969 1.433 . S
C1977 N1979 1.384 . S
N1978 C1974 1.427 . S
N1978 C1975 1.384 . S
N1979 C1971 1.427 . S
N1979 C1977 1.384 . S
H1980 C1986 0.930 . S
H1981 C1990 0.930 . S
H1982 C1995 0.929 . S
H1983 C1993 0.929 . S
H1984 C1988 0.929 . S
H1985 C1994 0.929 . S
C1986 H1980 0.930 . S
C1986 C1987 1.367 . S
C1986 C1994 1.378 . S
C1987 C1986 1.367 . S
C1987 C1995 1.433 . S
C1988 H1984 0.929 . S
C1988 C1990 1.378 . S
C1988 C1992 1.350 . S
C1989 C1992 1.463 1_655 S
C1989 C1994 1.350 . S
C1989 N1997 1.427 . S
C1990 H1981 0.930 . S
C1990 C1988 1.378 . S
C1990 C1991 1.367 . S
C1991 C1990 1.367 . S
C1991 C1993 1.433 . S
C1992 C1988 1.350 . S
C1992 C1989 1.463 1_455 S
C1992 N1996 1.427 . S
C1993 H1983 0.929 . S
C1993 C1991 1.433 . S
C1993 N1996 1.384 . S
C1994 H1985 0.929 . S
C1994 C1986 1.378 . S
C1994 C1989 1.350 . S
C1995 H1982 0.929 . S
C1995 C1987 1.433 . S
C1995 N1997 1.384 . S
N1996 C1992 1.427 . S
N1996 C1993 1.384 . S
N1997 C1989 1.427 . S
N1997 C1995 1.384 . S
H1998 C2004 0.930 . S
H1999 C2008 0.930 . S
H2000 C2013 0.929 . S
H2001 C2011 0.929 . S
H2002 C2006 0.929 . S
H2003 C2012 0.929 . S
C2004 H1998 0.930 . S
C2004 C2005 1.367 . S
C2004 C2012 1.378 . S
C2005 C2004 1.367 . S
C2005 C2013 1.433 . S
C2006 H2002 0.929 . S
C2006 C2008 1.378 . S
C2006 C2010 1.350 . S
C2007 C2010 1.463 . S
C2007 C2012 1.350 . S
C2007 N2015 1.427 . S
C2008 H1999 0.930 . S
C2008 C2006 1.378 . S
C2008 C2009 1.367 . S
C2009 C2008 1.367 . S
C2009 C2011 1.433 . S
C2010 C2006 1.350 . S
C2010 C2007 1.463 . S
C2010 N2014 1.427 . S
C2011 H2001 0.929 . S
C2011 C2009 1.433 . S
C2011 N2014 1.384 . S
C2012 H2003 0.929 . S
C2012 C2004 1.378 . S
C2012 C2007 1.350 . S
C2013 H2000 0.929 . S
C2013 C2005 1.433 . S
C2013 N2015 1.384 . S
N2014 C2010 1.427 . S
N2014 C2011 1.384 . S
N2015 C2007 1.427 . S
N2015 C2013 1.384 . S
H2016 C2022 0.930 . S
H2017 C2026 0.930 . S
H2018 C2031 0.929 . S
H2019 C2029 0.929 . S
H2020 C2024 0.929 . S
H2021 C2030 0.929 . S
C2022 H2016 0.930 . S
C2022 C2023 1.367 . S
C2022 C2030 1.378 . S
C2023 C2022 1.367 . S
C2023 C2031 1.433 . S
C2024 H2020 0.929 . S
C2024 C2026 1.378 . S
C2024 C2028 1.350 . S
C2025 C2028 1.463 . S
C2025 C2030 1.350 . S
C2025 N2033 1.427 . S
C2026 H2017 0.930 . S
C2026 C2024 1.378 . S
C2026 C2027 1.367 . S
C2027 C2026 1.367 . S
C2027 C2029 1.433 . S
C2028 C2024 1.350 . S
C2028 C2025 1.463 . S
C2028 N2032 1.427 . S
C2029 H2019 0.929 . S
C2029 C2027 1.433 . S
C2029 N2032 1.384 . S
C2030 H2021 0.929 . S
C2030 C2022 1.378 . S
C2030 C2025 1.350 . S
C2031 H2018 0.929 . S
C2031 C2023 1.433 . S
C2031 N2033 1.384 . S
N2032 C2028 1.427 . S
N2032 C2029 1.384 . S
N2033 C2025 1.427 . S
N2033 C2031 1.384 . S
H2034 C2040 0.930 . S
H2035 C2044 0.930 . S
H2036 C2049 0.929 . S
H2037 C2047 0.929 . S
H2038 C2042 0.929 . S
H2039 C2048 0.929 . S
C2040 H2034 0.930 . S
C2040 C2041 1.367 . S
C2040 C2048 1.378 . S
C2041 C2040 1.367 . S
C2041 C2049 1.433 . S
C2042 H2038 0.929 . S
C2042 C2044 1.378 . S
C2042 C2046 1.350 . S
C2043 C2046 1.463 . S
C2043 C2048 1.350 . S
C2043 N2051 1.427 . S
C2044 H2035 0.930 . S
C2044 C2042 1.378 . S
C2044 C2045 1.367 . S
C2045 C2044 1.367 . S
C2045 C2047 1.433 . S
C2046 C2042 1.350 . S
C2046 C2043 1.463 . S
C2046 N2050 1.427 . S
C2047 H2037 0.929 . S
C2047 C2045 1.433 . S
C2047 N2050 1.384 . S
C2048 H2039 0.929 . S
C2048 C2040 1.378 . S
C2048 C2043 1.350 . S
C2049 H2036 0.929 . S
C2049 C2041 1.433 . S
C2049 N2051 1.384 . S
N2050 C2046 1.427 . S
N2050 C2047 1.384 . S
N2051 C2043 1.427 . S
N2051 C2049 1.384 . S
H2052 C2058 0.936 . S
H2053 C2062 0.930 . S
H2054 C2067 0.929 . S
H2055 C2065 0.929 . S
H2056 C2060 0.929 . S
H2057 C2066 0.929 . S
C2058 H2052 0.936 . S
C2058 C2059 1.366 1_554 S
C2058 C2066 1.373 1_554 S
C2059 C2058 1.366 1_556 S
C2059 C2067 1.433 . S
C2060 H2056 0.929 . S
C2060 C2062 1.378 . S
C2060 C2064 1.350 . S
C2061 C2064 1.463 . S
C2061 C2066 1.350 . S
C2061 N2069 1.427 . S
C2062 H2053 0.930 . S
C2062 C2060 1.378 . S
C2062 C2063 1.367 . S
C2063 C2062 1.367 . S
C2063 C2065 1.433 . S
C2064 C2060 1.350 . S
C2064 C2061 1.463 . S
C2064 N2068 1.427 . S
C2065 H2055 0.929 . S
C2065 C2063 1.433 . S
C2065 N2068 1.384 . S
C2066 H2057 0.929 . S
C2066 C2058 1.373 1_556 S
C2066 C2061 1.350 . S
C2067 H2054 0.929 . S
C2067 C2059 1.433 . S
C2067 N2069 1.384 . S
N2068 C2064 1.427 . S
N2068 C2065 1.384 . S
N2069 C2061 1.427 . S
N2069 C2067 1.384 . S
H2070 C2076 0.924 1_556 S
H2071 C2080 0.930 . S
H2072 C2085 0.929 . S
H2073 C2083 0.929 . S
H2074 C2078 0.929 . S
H2075 C2084 0.929 . S
C2076 H2070 0.924 1_554 S
C2076 C2077 1.368 . S
C2076 C2084 1.383 . S
C2077 C2076 1.368 . S
C2077 C2085 1.433 . S
C2078 H2074 0.929 . S
C2078 C2080 1.378 . S
C2078 C2082 1.350 . S
C2079 C2082 1.463 . S
C2079 C2084 1.350 . S
C2079 N2087 1.427 . S
C2080 H2071 0.930 . S
C2080 C2078 1.378 . S
C2080 C2081 1.367 . S
C2081 C2080 1.367 . S
C2081 C2083 1.433 . S
C2082 C2078 1.350 . S
C2082 C2079 1.463 . S
C2082 N2086 1.427 . S
C2083 H2073 0.929 . S
C2083 C2081 1.433 . S
C2083 N2086 1.384 . S
C2084 H2075 0.929 . S
C2084 C2076 1.383 . S
C2084 C2079 1.350 . S
C2085 H2072 0.929 . S
C2085 C2077 1.433 . S
C2085 N2087 1.384 . S
N2086 C2082 1.427 . S
N2086 C2083 1.384 . S
N2087 C2079 1.427 . S
N2087 C2085 1.384 . S
H2088 C2094 0.930 . S
H2089 C2098 0.930 . S
H2090 C2103 0.929 . S
H2091 C2101 0.929 . S
H2092 C2096 0.929 . S
H2093 C2102 0.929 . S
C2094 H2088 0.930 . S
C2094 C2095 1.367 . S
C2094 C2102 1.378 . S
C2095 C2094 1.367 . S
C2095 C2103 1.433 . S
C2096 H2092 0.929 . S
C2096 C2098 1.378 . S
C2096 C2100 1.350 . S
C2097 C2100 1.463 . S
C2097 C2102 1.350 . S
C2097 N2105 1.427 . S
C2098 H2089 0.930 . S
C2098 C2096 1.378 . S
C2098 C2099 1.367 . S
C2099 C2098 1.367 . S
C2099 C2101 1.433 . S
C2100 C2096 1.350 . S
C2100 C2097 1.463 . S
C2100 N2104 1.427 . S
C2101 H2091 0.929 . S
C2101 C2099 1.433 . S
C2101 N2104 1.384 . S
C2102 H2093 0.929 . S
C2102 C2094 1.378 . S
C2102 C2097 1.350 . S
C2103 H2090 0.929 . S
C2103 C2095 1.433 . S
C2103 N2105 1.384 . S
N2104 C2100 1.427 . S
N2104 C2101 1.384 . S
N2105 C2097 1.427 . S
N2105 C2103 1.384 . S
H2106 C2112 0.930 . S
H2107 C2116 0.930 . S
H2108 C2121 0.929 . S
H2109 C2119 0.929 . S
H2110 C2114 0.929 . S
H2111 C2120 0.929 . S
C2112 H2106 0.930 . S
C2112 C2113 1.367 . S
C2112 C2120 1.378 . S
C2113 C2112 1.367 . S
C2113 C2121 1.433 . S
C2114 H2110 0.929 . S
C2114 C2116 1.378 . S
C2114 C2118 1.350 . S
C2115 C2118 1.463 . S
C2115 C2120 1.350 . S
C2115 N2123 1.427 . S
C2116 H2107 0.930 . S
C2116 C2114 1.378 . S
C2116 C2117 1.367 . S
C2117 C2116 1.367 . S
C2117 C2119 1.433 . S
C2118 C2114 1.350 . S
C2118 C2115 1.463 . S
C2118 N2122 1.427 . S
C2119 H2109 0.929 . S
C2119 C2117 1.433 . S
C2119 N2122 1.384 . S
C2120 H2111 0.929 . S
C2120 C2112 1.378 . S
C2120 C2115 1.350 . S
C2121 H2108 0.929 . S
C2121 C2113 1.433 . S
C2121 N2123 1.384 . S
N2122 C2118 1.427 . S
N2122 C2119 1.384 . S
N2123 C2115 1.427 . S
N2123 C2121 1.384 . S
H2124 C2130 0.930 . S
H2125 C2134 0.930 . S
H2126 C2139 0.929 . S
H2127 C2137 0.929 . S
H2128 C2132 0.929 . S
H2129 C2138 0.929 . S
C2130 H2124 0.930 . S
C2130 C2131 1.367 . S
C2130 C2138 1.378 . S
C2131 C2130 1.367 . S
C2131 C2139 1.433 . S
C2132 H2128 0.929 . S
C2132 C2134 1.378 . S
C2132 C2136 1.350 . S
C2133 C2136 1.463 . S
C2133 C2138 1.350 . S
C2133 N2141 1.427 . S
C2134 H2125 0.930 . S
C2134 C2132 1.378 . S
C2134 C2135 1.367 . S
C2135 C2134 1.367 . S
C2135 C2137 1.433 1_554 S
C2136 C2132 1.350 . S
C2136 C2133 1.463 . S
C2136 N2140 1.427 . S
C2137 H2127 0.929 . S
C2137 C2135 1.433 1_556 S
C2137 N2140 1.384 1_556 S
C2138 H2129 0.929 . S
C2138 C2130 1.378 . S
C2138 C2133 1.350 . S
C2139 H2126 0.929 . S
C2139 C2131 1.433 . S
C2139 N2141 1.384 . S
N2140 C2136 1.427 . S
N2140 C2137 1.384 1_554 S
N2141 C2133 1.427 . S
N2141 C2139 1.384 . S
H2142 C2148 0.930 . S
H2143 C2152 0.930 . S
H2144 C2157 0.929 . S
H2145 C2155 0.929 1_554 S
H2146 C2150 0.929 . S
H2147 C2156 0.929 . S
C2148 H2142 0.930 . S
C2148 C2149 1.367 . S
C2148 C2156 1.378 . S
C2149 C2148 1.367 . S
C2149 C2157 1.433 . S
C2150 H2146 0.929 . S
C2150 C2152 1.378 . S
C2150 C2154 1.350 . S
C2151 C2154 1.463 . S
C2151 C2156 1.350 . S
C2151 N2159 1.427 . S
C2152 H2143 0.930 . S
C2152 C2150 1.378 . S
C2152 C2153 1.367 . S
C2153 C2152 1.367 . S
C2153 C2155 1.433 . S
C2154 C2150 1.350 . S
C2154 C2151 1.463 . S
C2154 N2158 1.427 . S
C2155 H2145 0.929 1_556 S
C2155 C2153 1.433 . S
C2155 N2158 1.384 . S
C2156 H2147 0.929 . S
C2156 C2148 1.378 . S
C2156 C2151 1.350 . S
C2157 H2144 0.929 . S
C2157 C2149 1.433 . S
C2157 N2159 1.384 . S
N2158 C2154 1.427 . S
N2158 C2155 1.384 . S
N2159 C2151 1.427 . S
N2159 C2157 1.384 . S
H2160 C2166 0.930 1_554 S
H2161 C2170 0.930 . S
H2162 C2175 0.929 . S
H2163 C2173 0.929 . S
H2164 C2168 0.929 . S
H2165 C2174 0.929 . S
C2166 H2160 0.930 1_556 S
C2166 C2167 1.367 . S
C2166 C2174 1.378 . S
C2167 C2166 1.367 . S
C2167 C2175 1.433 . S
C2168 H2164 0.929 . S
C2168 C2170 1.378 . S
C2168 C2172 1.350 . S
C2169 C2172 1.463 . S
C2169 C2174 1.350 . S
C2169 N2177 1.427 . S
C2170 H2161 0.930 . S
C2170 C2168 1.378 . S
C2170 C2171 1.367 . S
C2171 C2170 1.367 . S
C2171 C2173 1.433 . S
C2172 C2168 1.350 . S
C2172 C2169 1.463 . S
C2172 N2176 1.427 . S
C2173 H2163 0.929 . S
C2173 C2171 1.433 . S
C2173 N2176 1.384 . S
C2174 H2165 0.929 . S
C2174 C2166 1.378 . S
C2174 C2169 1.350 . S
C2175 H2162 0.929 . S
C2175 C2167 1.433 . S
C2175 N2177 1.384 . S
N2176 C2172 1.427 . S
N2176 C2173 1.384 . S
N2177 C2169 1.427 . S
N2177 C2175 1.384 . S
H2178 C2184 0.930 . S
H2179 C2188 0.930 . S
H2180 C2193 0.929 . S
H2181 C2191 0.929 1_556 S
H2182 C2186 0.929 . S
H2183 C2192 0.929 . S
C2184 H2178 0.930 . S
C2184 C2185 1.367 . S
C2184 C2192 1.378 . S
C2185 C2184 1.367 . S
C2185 C2193 1.433 . S
C2186 H2182 0.929 . S
C2186 C2188 1.378 . S
C2186 C2190 1.350 . S
C2187 C2190 1.463 . S
C2187 C2192 1.350 . S
C2187 N2195 1.427 . S
C2188 H2179 0.930 . S
C2188 C2186 1.378 . S
C2188 C2189 1.367 . S
C2189 C2188 1.367 . S
C2189 C2191 1.433 . S
C2190 C2186 1.350 . S
C2190 C2187 1.463 . S
C2190 N2194 1.427 . S
C2191 H2181 0.929 1_554 S
C2191 C2189 1.433 . S
C2191 N2194 1.384 . S
C2192 H2183 0.929 . S
C2192 C2184 1.378 . S
C2192 C2187 1.350 . S
C2193 H2180 0.929 . S
C2193 C2185 1.433 . S
C2193 N2195 1.384 . S
N2194 C2190 1.427 . S
N2194 C2191 1.384 . S
N2195 C2187 1.427 . S
N2195 C2193 1.384 . S
H2196 C2202 0.930 . S
H2197 C2206 0.930 . S
H2198 C2211 0.929 . S
H2199 C2209 0.929 . S
H2200 C2204 0.929 . S
H2201 C2210 0.929 . S
C2202 H2196 0.930 . S
C2202 C2203 1.367 . S
C2202 C2210 1.378 . S
C2203 C2202 1.367 . S
C2203 C2211 1.433 . S
C2204 H2200 0.929 . S
C2204 C2206 1.378 . S
C2204 C2208 1.350 . S
C2205 C2208 1.463 . S
C2205 C2210 1.350 . S
C2205 N2213 1.427 . S
C2206 H2197 0.930 . S
C2206 C2204 1.378 . S
C2206 C2207 1.367 . S
C2207 C2206 1.367 . S
C2207 C2209 1.433 . S
C2208 C2204 1.350 . S
C2208 C2205 1.463 . S
C2208 N2212 1.427 . S
C2209 H2199 0.929 . S
C2209 C2207 1.433 . S
C2209 N2212 1.384 . S
C2210 H2201 0.929 . S
C2210 C2202 1.378 . S
C2210 C2205 1.350 . S
C2211 H2198 0.929 . S
C2211 C2203 1.433 . S
C2211 N2213 1.384 . S
N2212 C2208 1.427 . S
N2212 C2209 1.384 . S
N2213 C2205 1.427 . S
N2213 C2211 1.384 . S
H2214 C2220 0.930 . S
H2215 C2224 0.930 . S
H2216 C2229 0.929 . S
H2217 C2227 0.929 . S
H2218 C2222 0.929 . S
H2219 C2228 0.929 . S
C2220 H2214 0.930 . S
C2220 C2221 1.367 . S
C2220 C2228 1.378 . S
C2221 C2220 1.367 . S
C2221 C2229 1.433 . S
C2222 H2218 0.929 . S
C2222 C2224 1.378 . S
C2222 C2226 1.350 . S
C2223 C2226 1.463 . S
C2223 C2228 1.350 . S
C2223 N2231 1.427 . S
C2224 H2215 0.930 . S
C2224 C2222 1.378 . S
C2224 C2225 1.367 . S
C2225 C2224 1.367 . S
C2225 C2227 1.433 . S
C2226 C2222 1.350 . S
C2226 C2223 1.463 . S
C2226 N2230 1.427 . S
C2227 H2217 0.929 . S
C2227 C2225 1.433 . S
C2227 N2230 1.384 . S
C2228 H2219 0.929 . S
C2228 C2220 1.378 . S
C2228 C2223 1.350 . S
C2229 H2216 0.929 . S
C2229 C2221 1.433 . S
C2229 N2231 1.384 . S
N2230 C2226 1.427 . S
N2230 C2227 1.384 . S
N2231 C2223 1.427 . S
N2231 C2229 1.384 . S
H2232 C2238 0.930 . S
H2233 C2242 0.930 . S
H2234 C2247 0.929 . S
H2235 C2245 0.929 . S
H2236 C2240 0.929 . S
H2237 C2246 0.929 . S
C2238 H2232 0.930 . S
C2238 C2239 1.367 . S
C2238 C2246 1.378 . S
C2239 C2238 1.367 . S
C2239 C2247 1.433 . S
C2240 H2236 0.929 . S
C2240 C2242 1.378 . S
C2240 C2244 1.350 . S
C2241 C2244 1.463 . S
C2241 C2246 1.350 . S
C2241 N2249 1.427 . S
C2242 H2233 0.930 . S
C2242 C2240 1.378 . S
C2242 C2243 1.367 . S
C2243 C2242 1.367 . S
C2243 C2245 1.433 1_554 S
C2244 C2240 1.350 . S
C2244 C2241 1.463 . S
C2244 N2248 1.427 . S
C2245 H2235 0.929 . S
C2245 C2243 1.433 1_556 S
C2245 N2248 1.384 1_556 S
C2246 H2237 0.929 . S
C2246 C2238 1.378 . S
C2246 C2241 1.350 . S
C2247 H2234 0.929 . S
C2247 C2239 1.433 . S
C2247 N2249 1.384 . S
N2248 C2244 1.427 . S
N2248 C2245 1.384 1_554 S
N2249 C2241 1.427 . S
N2249 C2247 1.384 . S
H2250 C2256 0.948 . S
H2251 C2260 0.930 . S
H2252 C2265 0.929 . S
H2253 C2263 0.929 . S
H2254 C2258 0.929 . S
H2255 C2264 0.929 . S
C2256 H2250 0.948 . S
C2256 C2257 1.364 1_554 S
C2256 C2264 1.363 1_554 S
C2257 C2256 1.364 1_556 S
C2257 C2265 1.433 . S
C2258 H2254 0.929 . S
C2258 C2260 1.378 . S
C2258 C2262 1.350 . S
C2259 C2262 1.463 . S
C2259 C2264 1.350 . S
C2259 N2267 1.427 . S
C2260 H2251 0.930 . S
C2260 C2258 1.378 . S
C2260 C2261 1.367 . S
C2261 C2260 1.367 . S
C2261 C2263 1.433 . S
C2262 C2258 1.350 . S
C2262 C2259 1.463 . S
C2262 N2266 1.427 . S
C2263 H2253 0.929 . S
C2263 C2261 1.433 . S
C2263 N2266 1.384 . S
C2264 H2255 0.929 . S
C2264 C2256 1.363 1_556 S
C2264 C2259 1.350 . S
C2265 H2252 0.929 . S
C2265 C2257 1.433 . S
C2265 N2267 1.384 . S
N2266 C2262 1.427 . S
N2266 C2263 1.384 . S
N2267 C2259 1.427 . S
N2267 C2265 1.384 . S
H2268 C2274 0.930 . S
H2269 C2278 0.930 . S
H2270 C2283 0.929 . S
H2271 C2281 0.929 . S
H2272 C2276 0.929 . S
H2273 C2282 0.929 . S
C2274 H2268 0.930 . S
C2274 C2275 1.367 . S
C2274 C2282 1.378 . S
C2275 C2274 1.367 . S
C2275 C2283 1.433 . S
C2276 H2272 0.929 . S
C2276 C2278 1.378 . S
C2276 C2280 1.350 . S
C2277 C2280 1.463 . S
C2277 C2282 1.350 . S
C2277 N2285 1.427 . S
C2278 H2269 0.930 . S
C2278 C2276 1.378 . S
C2278 C2279 1.367 . S
C2279 C2278 1.367 . S
C2279 C2281 1.433 . S
C2280 C2276 1.350 . S
C2280 C2277 1.463 . S
C2280 N2284 1.427 . S
C2281 H2271 0.929 . S
C2281 C2279 1.433 . S
C2281 N2284 1.384 . S
C2282 H2273 0.929 . S
C2282 C2274 1.378 . S
C2282 C2277 1.350 . S
C2283 H2270 0.929 . S
C2283 C2275 1.433 . S
C2283 N2285 1.384 . S
N2284 C2280 1.427 . S
N2284 C2281 1.384 . S
N2285 C2277 1.427 . S
N2285 C2283 1.384 . S
H2286 C2292 0.930 . S
H2287 C2296 0.930 . S
H2288 C2301 0.929 . S
H2289 C2299 0.929 . S
H2290 C2294 0.929 . S
H2291 C2300 0.929 . S
C2292 H2286 0.930 . S
C2292 C2293 1.367 . S
C2292 C2300 1.378 . S
C2293 C2292 1.367 . S
C2293 C2301 1.433 . S
C2294 H2290 0.929 . S
C2294 C2296 1.378 . S
C2294 C2298 1.350 . S
C2295 C2298 1.463 . S
C2295 C2300 1.350 . S
C2295 N2303 1.427 . S
C2296 H2287 0.930 . S
C2296 C2294 1.378 . S
C2296 C2297 1.367 . S
C2297 C2296 1.367 . S
C2297 C2299 1.433 . S
C2298 C2294 1.350 . S
C2298 C2295 1.463 . S
C2298 N2302 1.427 . S
C2299 H2289 0.929 . S
C2299 C2297 1.433 . S
C2299 N2302 1.384 . S
C2300 H2291 0.929 . S
C2300 C2292 1.378 . S
C2300 C2295 1.350 . S
C2301 H2288 0.929 . S
C2301 C2293 1.433 . S
C2301 N2303 1.384 . S
N2302 C2298 1.427 . S
N2302 C2299 1.384 . S
N2303 C2295 1.427 . S
N2303 C2301 1.384 . S
C1159 C220 1.494 . S
C1163 C4 1.491 . S
C1177 C40 1.487 . S
C1181 C256 1.487 . S
C1195 C148 1.487 . S
C1199 C76 1.490 . S
C1213 C112 1.488 . S
C1217 C184 1.486 . S
C1231 C292 1.489 . S
C1235 C508 1.487 . S
C1249 C544 1.493 . S
C1253 C328 1.489 . S
C1267 C364 1.490 . S
C1271 C436 1.493 . S
C1285 C472 1.486 . S
C1289 C400 1.488 . S
C1303 C580 1.491 . S
C1307 C796 1.488 . S
C1321 C616 1.488 . S
C1325 C832 1.486 . S
C1339 C724 1.492 . S
C1343 C652 1.489 . S
C1357 C760 1.491 . S
C1361 C688 1.488 . S
C1375 C868 1.486 . S
C1379 C1084 1.489 . S
C1393 C904 1.486 . S
C1397 C1120 1.488 . S
C1411 C1012 1.488 . S
C1415 C940 1.491 . S
C1429 C976 1.487 . S
C1433 C1048 1.489 . S
C1447 C3 1.471 1_556 S
C1451 C255 1.469 . S
C1465 C147 1.469 1_554 S
C1469 C39 1.471 . S
C1483 C183 1.470 . S
C1487 C75 1.470 . S
C1501 C111 1.471 . S
C1505 C219 1.469 . S
C1519 C291 1.469 1_554 S
C1523 C543 1.471 . S
C1537 C435 1.471 1_556 S
C1541 C327 1.469 . S
C1555 C471 1.470 . S
C1559 C363 1.470 . S
C1573 C507 1.471 . S
C1577 C399 1.469 . S
C1591 C579 1.471 . S
C1595 C831 1.469 . S
C1609 C615 1.470 . S
C1613 C723 1.469 . S
C1627 C759 1.469 . S
C1631 C651 1.471 1_556 S
C1645 C687 1.471 . S
C1649 C795 1.469 1_554 S
C1663 C867 1.469 . S
C1667 C1119 1.471 . S
C1681 C1011 1.471 . S
C1685 C903 1.469 . S
C1699 C939 1.469 1_554 S
C1703 C1047 1.471 . S
C1717 C975 1.470 . S
C1721 C1083 1.470 1_556 S
C1735 C1094 1.368 . S
C1739 C14 1.373 . S
C1753 C554 1.378 . S
C1757 C50 1.363 . S
C1771 C86 1.380 . S
C1775 C1022 1.361 . S
C1789 C122 1.376 . S
C1793 C482 1.365 . S
C1807 C158 1.363 . S
C1811 C950 1.378 . S
C1825 C194 1.367 . S
C1829 C410 1.374 . S
C1843 C230 1.362 . S
C1847 C878 1.379 . S
C1861 C338 1.372 . S
C1865 C266 1.369 . S
C1879 C806 1.363 . S
C1883 C302 1.377 . S
C1897 C374 1.369 . S
C1901 C734 1.372 . S
C1915 C662 1.379 . S
C1919 C446 1.361 . S
C1933 C590 1.361 . S
C1937 C518 1.380 . S
C1951 C626 1.377 . S
C1955 C1130 1.364 . S
C1969 C698 1.363 . S
C1973 C1058 1.378 . S
C1987 C770 1.377 . S
C1991 C986 1.364 . S
C2005 C914 1.365 . S
C2009 C842 1.376 . S
C2023 C2 1.384 . S
C2027 C254 1.387 . S
C2041 C38 1.383 . S
C2045 C146 1.388 . S
C2059 C182 1.385 1_556 S
C2063 C74 1.386 . S
C2077 C110 1.385 1_554 S
C2081 C218 1.387 . S
C2095 C542 1.385 . S
C2099 C290 1.386 . S
C2113 C434 1.386 . S
C2117 C326 1.385 . S
C2131 C362 1.385 . S
C2135 C470 1.386 1_554 S
C2149 C506 1.387 . S
C2153 C398 1.384 1_556 S
C2167 C830 1.385 1_556 S
C2171 C578 1.387 . S
C2185 C722 1.388 . S
C2189 C614 1.383 1_554 S
C2203 C758 1.384 . S
C2207 C650 1.387 . S
C2221 C794 1.383 . S
C2225 C686 1.388 . S
C2239 C866 1.385 . S
C2243 C1118 1.385 1_554 S
C2257 C902 1.386 1_556 S
C2261 C1010 1.386 . S
C2275 C938 1.385 . S
C2279 C1046 1.386 . S
C2293 C1082 1.388 . S
C2297 C974 1.383 . S
