# Generated by pormake.
# Topology sow, (4)-cn, num edge types: 1
# Building blocks:
#     Node 0, Type 0, BuildingBlock: KOZSID_clean_sbu_0, # of connection points: 4
#     Node 1, Type 0, BuildingBlock: KOZSID_clean_sbu_0, # of connection points: 4
#     Node 2, Type 0, BuildingBlock: KOZSID_clean_sbu_0, # of connection points: 4
#     Node 3, Type 0, BuildingBlock: KOZSID_clean_sbu_0, # of connection points: 4
#     Node 4, Type 0, BuildingBlock: KOZSID_clean_sbu_0, # of connection points: 4
#     Node 5, Type 0, BuildingBlock: KOZSID_clean_sbu_0, # of connection points: 4
#     Node 6, Type 0, BuildingBlock: KOZSID_clean_sbu_0, # of connection points: 4
#     Node 7, Type 0, BuildingBlock: KOZSID_clean_sbu_0, # of connection points: 4
#     Edge 8, Type (0, 0), BuildingBlock: CIFDUS_clean_linker_0, # of connection points: 2
#     Edge 9, Type (0, 0), BuildingBlock: CIFDUS_clean_linker_0, # of connection points: 2
#     Edge 10, Type (0, 0), BuildingBlock: CIFDUS_clean_linker_0, # of connection points: 2
#     Edge 11, Type (0, 0), BuildingBlock: CIFDUS_clean_linker_0, # of connection points: 2
#     Edge 12, Type (0, 0), BuildingBlock: CIFDUS_clean_linker_0, # of connection points: 2
#     Edge 13, Type (0, 0), BuildingBlock: CIFDUS_clean_linker_0, # of connection points: 2
#     Edge 14, Type (0, 0), BuildingBlock: CIFDUS_clean_linker_0, # of connection points: 2
#     Edge 15, Type (0, 0), BuildingBlock: CIFDUS_clean_linker_0, # of connection points: 2
#     Edge 16, Type (0, 0), BuildingBlock: CIFDUS_clean_linker_0, # of connection points: 2
#     Edge 17, Type (0, 0), BuildingBlock: CIFDUS_clean_linker_0, # of connection points: 2
#     Edge 18, Type (0, 0), BuildingBlock: CIFDUS_clean_linker_0, # of connection points: 2
#     Edge 19, Type (0, 0), BuildingBlock: CIFDUS_clean_linker_0, # of connection points: 2
#     Edge 20, Type (0, 0), BuildingBlock: CIFDUS_clean_linker_0, # of connection points: 2
#     Edge 21, Type (0, 0), BuildingBlock: CIFDUS_clean_linker_0, # of connection points: 2
#     Edge 22, Type (0, 0), BuildingBlock: CIFDUS_clean_linker_0, # of connection points: 2
#     Edge 23, Type (0, 0), BuildingBlock: CIFDUS_clean_linker_0, # of connection points: 2
# Relax obj value: 0.059
# Max RMSD: 0.290
# Mean RMSD: 0.223
data_MOF--net-sow--node1-KOZSID_clean_sbu_0--edge1-CIFDUS_clean_linker_0
_symmetry_space_group_name_H-M    P1
_symmetry_Int_Tables_number       1
_symmetry_cell_setting            triclinic
loop_
_symmetry_equiv_pos_as_xyz
'x, y, z'
_cell_length_a     49.150332
_cell_length_b     14.50346
_cell_length_c     22.252496
_cell_angle_alpha  91.560245
_cell_angle_beta   90.590077
_cell_angle_gamma 89.731631
loop_
_atom_site_label
_atom_site_type_symbol
_atom_site_fract_x
_atom_site_fract_y
_atom_site_fract_z
_atom_type_partial_charge
C0 C 0.13217 0.25254 0.28998 0.0
C1 C 0.13438 0.17715 0.32686 0.0
C2 C 0.16031 0.14341 0.32029 0.0
C3 C 0.17241 0.19916 0.27956 0.0
N4 N 0.15591 0.26718 0.26125 0.0
Co5 Co 0.16368 0.35616 0.1973 0.0
N6 N 0.19425 0.27995 0.1647 0.0
C7 C 0.20505 0.20521 0.19073 0.0
C8 C 0.22464 0.16213 0.15668 0.0
C9 C 0.22694 0.21452 0.10689 0.0
C10 C 0.20895 0.28811 0.11366 0.0
N11 N 0.17158 0.4478 0.13445 0.0
C12 C 0.19049 0.44708 0.08994 0.0
C13 C 0.19163 0.53276 0.06343 0.0
C14 C 0.17323 0.58869 0.09229 0.0
C15 C 0.16197 0.53525 0.13515 0.0
N16 N 0.1326 0.42987 0.22894 0.0
C17 C 0.12751 0.51933 0.21971 0.0
C18 C 0.1034 0.54889 0.24471 0.0
C19 C 0.09253 0.47248 0.2705 0.0
C20 C 0.11068 0.40083 0.25947 0.0
N21 N 0.18943 0.42321 0.25298 0.0
C22 C 0.22757 0.50922 0.33405 0.0
C23 C 0.20001 0.49915 0.34925 0.0
C24 C 0.18153 0.45478 0.30886 0.0
C25 C 0.23505 0.4771 0.27633 0.0
C26 C 0.21588 0.43701 0.23671 0.0
N27 N 0.13788 0.28799 0.14344 0.0
C28 C 0.09498 0.28354 0.08881 0.0
C29 C 0.09334 0.18744 0.09474 0.0
C30 C 0.1155 0.14258 0.12099 0.0
C31 C 0.13763 0.19348 0.14375 0.0
C32 C 0.11735 0.33255 0.11368 0.0
H33 H 0.15366 0.15577 0.16522 0.0
H34 H 0.11721 0.40685 0.11203 0.0
H35 H 0.16099 0.44422 0.32378 0.0
H36 H 0.223 0.41599 0.1931 0.0
C37 C 0.19481 0.17363 0.24477 0.0
C38 C 0.10721 0.30657 0.27979 0.0
C39 C 0.21005 0.37154 0.07686 0.0
C40 C 0.14226 0.56514 0.17647 0.0
H41 H 0.11876 0.14604 0.35326 0.0
H42 H 0.16836 0.08019 0.33833 0.0
H43 H 0.23597 0.10022 0.16685 0.0
H44 H 0.24127 0.20245 0.07125 0.0
H45 H 0.20521 0.55521 0.029 0.0
H46 H 0.16916 0.66071 0.08412 0.0
H47 H 0.09394 0.6161 0.24118 0.0
H48 H 0.07333 0.4692 0.29372 0.0
H49 H 0.19269 0.5233 0.39263 0.0
H50 H 0.25592 0.48027 0.26154 0.0
H51 H 0.07832 0.3212 0.06858 0.0
H52 H 0.11538 0.06842 0.12567 0.0
C53 C 0.44357 0.39771 0.75629 0.0
C54 C 0.45776 0.45209 0.79794 0.0
C55 C 0.44429 0.53512 0.80196 0.0
C56 C 0.42262 0.52703 0.76268 0.0
N57 N 0.42131 0.44384 0.73467 0.0
Co58 Co 0.39431 0.40669 0.67074 0.0
N59 N 0.37866 0.53413 0.66457 0.0
C60 C 0.38443 0.60561 0.7023 0.0
C61 C 0.36888 0.68254 0.69163 0.0
C62 C 0.35194 0.65796 0.64454 0.0
C63 C 0.3581 0.56716 0.62903 0.0
N64 N 0.36898 0.36834 0.60345 0.0
C65 C 0.35199 0.41847 0.56818 0.0
C66 C 0.33754 0.36147 0.52822 0.0
C67 C 0.34533 0.27331 0.53875 0.0
C68 C 0.36397 0.28098 0.58459 0.0
N69 N 0.40797 0.27711 0.68057 0.0
C70 C 0.39635 0.20086 0.656 0.0
C71 C 0.40953 0.12089 0.66911 0.0
C72 C 0.43117 0.14726 0.70383 0.0
C73 C 0.42973 0.24298 0.71162 0.0
N74 N 0.36587 0.38585 0.73242 0.0
C75 C 0.32544 0.413 0.82281 0.0
C76 C 0.31927 0.41542 0.76102 0.0
C77 C 0.33917 0.40069 0.7177 0.0
C78 C 0.3525 0.38851 0.83762 0.0
C79 C 0.37221 0.37494 0.79211 0.0
N80 N 0.423 0.43471 0.61071 0.0
C81 C 0.47141 0.42785 0.5928 0.0
C82 C 0.47135 0.51951 0.57467 0.0
C83 C 0.44611 0.56139 0.56449 0.0
C84 C 0.42221 0.51698 0.58152 0.0
C85 C 0.44693 0.38578 0.60833 0.0
H86 H 0.40349 0.55304 0.57378 0.0
H87 H 0.44809 0.31518 0.62063 0.0
H88 H 0.33248 0.4061 0.67222 0.0
H89 H 0.39274 0.35862 0.80586 0.0
C90 C 0.40477 0.5978 0.74641 0.0
C91 C 0.451 0.30072 0.74136 0.0
C92 C 0.34447 0.51559 0.57926 0.0
C93 C 0.3764 0.20746 0.6121 0.0
H94 H 0.47586 0.43335 0.823 0.0
H95 H 0.45006 0.59505 0.82911 0.0
H96 H 0.3697 0.74867 0.71531 0.0
H97 H 0.33681 0.70165 0.62383 0.0
H98 H 0.32118 0.38049 0.49849 0.0
H99 H 0.33741 0.21086 0.51747 0.0
H100 H 0.4052 0.05211 0.65153 0.0
H101 H 0.44667 0.09941 0.71738 0.0
H102 H 0.29896 0.4281 0.7443 0.0
H103 H 0.35886 0.3816 0.88382 0.0
H104 H 0.49034 0.38996 0.5971 0.0
H105 H 0.44482 0.63054 0.54745 0.0
C106 C 0.63279 0.16719 0.70723 0.0
C107 C 0.63385 0.22299 0.65762 0.0
C108 C 0.65905 0.26413 0.65935 0.0
C109 C 0.67229 0.22781 0.70812 0.0
N110 N 0.65721 0.1654 0.73563 0.0
Co111 Co 0.66959 0.08627 0.80112 0.0
N112 N 0.69896 0.17328 0.82602 0.0
C113 C 0.70693 0.24621 0.79453 0.0
C114 C 0.7236 0.30449 0.82731 0.0
C115 C 0.72643 0.2655 0.88253 0.0
C116 C 0.71207 0.18306 0.88004 0.0
N117 N 0.68247 0.00409 0.86412 0.0
C118 C 0.70117 0.01943 0.90839 0.0
C119 C 0.70882 0.93603 0.93334 0.0
C120 C 0.69375 0.86791 0.90469 0.0
C121 C 0.67813 0.91236 0.8629 0.0
N122 N 0.63911 0.00426 0.7779 0.0
C123 C 0.638 0.91359 0.78736 0.0
C124 C 0.61412 0.87558 0.76554 0.0
C125 C 0.59944 0.94794 0.74189 0.0
C126 C 0.61485 0.02691 0.75199 0.0
N127 N 0.69454 0.01804 0.74485 0.0
C128 C 0.72996 0.90722 0.6711 0.0
C129 C 0.70215 0.91758 0.65704 0.0
C130 C 0.685 0.97338 0.69377 0.0
C131 C 0.73901 0.95096 0.72493 0.0
C132 C 0.72132 0.00551 0.76045 0.0
N133 N 0.64475 0.14934 0.85716 0.0
C134 C 0.60742 0.13124 0.92455 0.0
C135 C 0.59865 0.22139 0.91444 0.0
C136 C 0.61507 0.27817 0.88015 0.0
C137 C 0.6383 0.24082 0.85219 0.0
C138 C 0.6304 0.09667 0.89566 0.0
H139 H 0.64985 0.28404 0.82321 0.0
H140 H 0.63508 0.02466 0.90063 0.0
H141 H 0.664 0.98114 0.68004 0.0
H142 H 0.72953 0.0372 0.80101 0.0
C143 C 0.69497 0.26528 0.73853 0.0
C144 C 0.60846 0.12067 0.72997 0.0
C145 C 0.71261 0.11129 0.92645 0.0
C146 C 0.65748 0.87293 0.82562 0.0
H147 H 0.61757 0.23692 0.62598 0.0
H148 H 0.66604 0.31857 0.63108 0.0
H149 H 0.73142 0.37045 0.81403 0.0
H150 H 0.73707 0.29738 0.92014 0.0
H151 H 0.72393 0.92507 0.96814 0.0
H152 H 0.69407 0.79494 0.91366 0.0
H153 H 0.60771 0.80452 0.76804 0.0
H154 H 0.58002 0.94244 0.71879 0.0
H155 H 0.6936 0.88418 0.61721 0.0
H156 H 0.76005 0.94637 0.73918 0.0
H157 H 0.59552 0.08557 0.95157 0.0
H158 H 0.60902 0.34854 0.87158 0.0
C159 C 0.94887 0.00556 0.27853 0.0
C160 C 0.96414 0.95001 0.23979 0.0
C161 C 0.95443 0.86215 0.24417 0.0
C162 C 0.9338 0.86869 0.28516 0.0
N163 N 0.92944 0.95554 0.30612 0.0
Co164 Co 0.90325 0.99164 0.3707 0.0
N165 N 0.88487 0.86816 0.36737 0.0
C166 C 0.89499 0.79089 0.341 0.0
C167 C 0.87862 0.71534 0.34746 0.0
C168 C 0.8568 0.74669 0.38025 0.0
C169 C 0.86108 0.83988 0.39185 0.0
N170 N 0.87686 0.02756 0.43478 0.0
C171 C 0.85185 0.992 0.44527 0.0
C172 C 0.83641 0.05261 0.47979 0.0
C173 C 0.85282 0.12473 0.49617 0.0
C174 C 0.87704 0.10669 0.46813 0.0
N175 N 0.92111 0.11552 0.37477 0.0
C176 C 0.91707 0.18206 0.41724 0.0
C177 C 0.93131 0.26127 0.4078 0.0
C178 C 0.94581 0.24334 0.35682 0.0
C179 C 0.93973 0.15347 0.33826 0.0
N180 N 0.87751 0.03671 0.30944 0.0
C181 C 0.83979 0.09254 0.22167 0.0
C182 C 0.84892 0.15502 0.26631 0.0
C183 C 0.8674 0.12517 0.3106 0.0
C184 C 0.84972 0.00215 0.22228 0.0
C185 C 0.86934 0.97714 0.26427 0.0
N186 N 0.92985 0.94388 0.43001 0.0
C187 C 0.9777 0.91449 0.44643 0.0
C188 C 0.97216 0.82915 0.47133 0.0
C189 C 0.94475 0.80933 0.4833 0.0
C190 C 0.92397 0.86895 0.46368 0.0
C191 C 0.95648 0.97032 0.42645 0.0
H192 H 0.90315 0.85009 0.47171 0.0
H193 H 0.96222 0.03106 0.40386 0.0
H194 H 0.87302 0.17353 0.34597 0.0
H195 H 0.87737 0.90834 0.26049 0.0
C196 C 0.91784 0.79545 0.30426 0.0
C197 C 0.95575 0.10235 0.29313 0.0
C198 C 0.84266 0.89853 0.42794 0.0
C199 C 0.8968 0.17317 0.45968 0.0
H200 H 0.98119 0.97025 0.21289 0.0
H201 H 0.96184 0.80063 0.22096 0.0
H202 H 0.88174 0.64633 0.32902 0.0
H203 H 0.83968 0.70592 0.39397 0.0
H204 H 0.81509 0.04694 0.48968 0.0
H205 H 0.84691 0.18701 0.52072 0.0
H206 H 0.9308 0.32509 0.43416 0.0
H207 H 0.96008 0.28984 0.33681 0.0
H208 H 0.84086 0.22463 0.2688 0.0
H209 H 0.84224 0.95009 0.1905 0.0
H210 H 0.99842 0.93688 0.43978 0.0
H211 H 0.93912 0.74606 0.50451 0.0
C212 C 0.93505 0.10655 0.97191 0.0
C213 C 0.94507 0.18798 0.99757 0.0
C214 C 0.92789 0.25676 0.97964 0.0
C215 C 0.90846 0.21326 0.94448 0.0
N216 N 0.91221 0.12151 0.93943 0.0
Co217 Co 0.88795 0.03201 0.89658 0.0
N218 N 0.87174 0.1313 0.84732 0.0
C219 C 0.87426 0.2228 0.85839 0.0
C220 C 0.86122 0.27563 0.81681 0.0
C221 C 0.84918 0.21395 0.7776 0.0
C222 C 0.85518 0.12644 0.79825 0.0
N223 N 0.86235 0.94424 0.85597 0.0
C224 C 0.84552 0.95554 0.80775 0.0
C225 C 0.82937 0.87817 0.79836 0.0
C226 C 0.83614 0.81737 0.84258 0.0
C227 C 0.85593 0.86075 0.87689 0.0
N228 N 0.90539 0.93506 0.94543 0.0
C229 C 0.89533 0.85081 0.95454 0.0
C230 C 0.91336 0.79667 0.98597 0.0
C231 C 0.93605 0.85074 0.99691 0.0
C232 C 0.93065 0.93498 0.9715 0.0
N233 N 0.85982 0.05219 0.95822 0.0
C234 C 0.81832 0.04029 0.04497 0.0
C235 C 0.84605 0.03343 0.06071 0.0
C236 C 0.86631 0.04143 0.01741 0.0
C237 C 0.81208 0.04869 0.9838 0.0
C238 C 0.8329 0.05814 0.94187 0.0
N239 N 0.91601 0.00305 0.83543 0.0
C240 C 0.93982 0.87674 0.7863 0.0
C241 C 0.96221 0.93182 0.77501 0.0
C242 C 0.96035 0.02626 0.7912 0.0
C243 C 0.93691 0.06079 0.82138 0.0
C244 C 0.91734 0.91297 0.81549 0.0
H245 H 0.93637 0.13242 0.83599 0.0
H246 H 0.90222 0.86361 0.82605 0.0
H247 H 0.88729 0.0362 0.03169 0.0
H248 H 0.82697 0.06674 0.89575 0.0
C249 C 0.89043 0.25691 0.90578 0.0
C250 C 0.94838 0.01706 0.97671 0.0
C251 C 0.842 0.04217 0.77488 0.0
C252 C 0.87167 0.82131 0.92322 0.0
H253 H 0.9633 0.19682 0.02479 0.0
H254 H 0.93029 0.33014 0.98809 0.0
H255 H 0.86063 0.35013 0.81503 0.0
H256 H 0.83669 0.232 0.73936 0.0
H257 H 0.81384 0.86789 0.76413 0.0
H258 H 0.82786 0.74921 0.84837 0.0
H259 H 0.91089 0.72508 0.99721 0.0
H260 H 0.95432 0.83089 0.02092 0.0
H261 H 0.85248 0.02456 0.10626 0.0
H262 H 0.79122 0.04975 0.96821 0.0
H263 H 0.94008 0.80336 0.77566 0.0
H264 H 0.9771 0.07209 0.78249 0.0
C265 C 0.62792 0.80242 0.53245 0.0
C266 C 0.63496 0.74282 0.57804 0.0
C267 C 0.66173 0.7189 0.56959 0.0
C268 C 0.66968 0.76531 0.51992 0.0
N269 N 0.64971 0.8178 0.49731 0.0
Co270 Co 0.65241 0.8958 0.42595 0.0
N271 N 0.68347 0.8224 0.39351 0.0
C272 C 0.69903 0.76469 0.42587 0.0
C273 C 0.7205 0.72842 0.39441 0.0
C274 C 0.7189 0.76742 0.33924 0.0
C275 C 0.69615 0.82515 0.33957 0.0
N276 N 0.65498 0.97557 0.35551 0.0
C277 C 0.66802 0.96097 0.30271 0.0
C278 C 0.66163 0.03064 0.26311 0.0
C279 C 0.64577 0.09359 0.29382 0.0
C280 C 0.64262 0.05821 0.34984 0.0
N281 N 0.62119 0.96653 0.45889 0.0
C282 C 0.6136 0.0523 0.44472 0.0
C283 C 0.59002 0.07964 0.47313 0.0
C284 C 0.58232 0.00573 0.5065 0.0
C285 C 0.60162 0.93748 0.4963 0.0
N286 N 0.67838 0.97856 0.4701 0.0
C287 C 0.71831 0.07685 0.53896 0.0
C288 C 0.69169 0.06473 0.56015 0.0
C289 C 0.67255 0.0127 0.52642 0.0
C290 C 0.72289 0.0499 0.47879 0.0
C291 C 0.70266 0.00257 0.44512 0.0
N292 N 0.62634 0.81464 0.38192 0.0
C293 C 0.58505 0.80119 0.32276 0.0
C294 C 0.58304 0.70678 0.33407 0.0
C295 C 0.60454 0.66619 0.36634 0.0
C296 C 0.62612 0.72109 0.38921 0.0
C297 C 0.60633 0.85351 0.34761 0.0
H298 H 0.64199 0.68847 0.41506 0.0
H299 H 0.60571 0.92657 0.34102 0.0
H300 H 0.65336 0.99743 0.54704 0.0
H301 H 0.70731 0.98238 0.39952 0.0
C302 C 0.6924 0.74393 0.48502 0.0
C303 C 0.60106 0.84544 0.52234 0.0
C304 C 0.68995 0.89207 0.29224 0.0
C305 C 0.62461 0.09248 0.39387 0.0
H306 H 0.6227 0.71767 0.61376 0.0
H307 H 0.6734 0.66894 0.59447 0.0
H308 H 0.73597 0.6813 0.41022 0.0
H309 H 0.73387 0.75741 0.30451 0.0
H310 H 0.66866 0.03732 0.2175 0.0
H311 H 0.63696 0.15628 0.27668 0.0
H312 H 0.57861 0.1427 0.46677 0.0
H313 H 0.56426 1.00121 0.53367 0.0
H314 H 0.68604 0.08903 0.60449 0.0
H315 H 0.74233 0.06207 0.45812 0.0
H316 H 0.56964 0.83601 0.29654 0.0
H317 H 0.60419 0.59351 0.37613 0.0
C318 C 0.43308 0.16346 0.0394 0.0
C319 C 0.44636 0.07841 0.03966 0.0
C320 C 0.42959 0.01847 0.06749 0.0
C321 C 0.40744 0.07005 0.08455 0.0
N322 N 0.40922 0.15886 0.06881 0.0
Co323 Co 0.38458 0.26074 0.09405 0.0
N324 N 0.37017 0.18819 0.16126 0.0
C325 C 0.37285 0.09647 0.16744 0.0
C326 C 0.3609 0.0648 0.21822 0.0
C327 C 0.34947 0.141 0.24533 0.0
C328 C 0.35486 0.21504 0.20892 0.0
N329 N 0.35954 0.3626 0.11891 0.0
C330 C 0.34436 0.37383 0.16925 0.0
C331 C 0.32907 0.45444 0.1674 0.0
C332 C 0.33475 0.4945 0.11382 0.0
C333 C 0.35295 0.43597 0.08571 0.0
N334 N 0.39952 0.33251 0.02746 0.0
C335 C 0.3881 0.40715 1.00283 0.0
C336 C 0.40388 0.44313 0.95854 0.0
C337 C 0.42664 0.3878 0.95561 0.0
C338 C 0.42355 0.32145 0.99872 0.0
N339 N 0.3557 0.21089 0.03947 0.0
C340 C 0.31144 0.17772 0.9582 0.0
C341 C 0.33864 0.17999 0.93829 0.0
C342 C 0.3603 0.19559 0.9794 0.0
C343 C 0.30798 0.18143 0.02112 0.0
C344 C 0.32992 0.1994 0.06022 0.0
N345 N 0.41344 0.31275 0.14708 0.0
C346 C 0.44127 0.44423 0.1749 0.0
C347 C 0.45953 0.3889 0.20684 0.0
C348 C 0.4535 0.29433 0.20987 0.0
C349 C 0.43032 0.25785 0.1801 0.0
C350 C 0.41855 0.40534 0.14597 0.0
H351 H 0.42652 0.18482 0.18229 0.0
H352 H 0.40575 0.45043 0.12045 0.0
H353 H 0.38067 0.19958 0.962 0.0
H354 H 0.32541 0.2101 0.10707 0.0
C355 C 0.38953 0.04459 0.12919 0.0
C356 C 0.44307 0.24661 0.00993 0.0
C357 C 0.34212 0.30608 0.2169 0.0
C358 C 0.3661 0.45152 0.03117 0.0
H359 H 0.46647 0.06094 0.02381 0.0
H360 H 0.43426 0.94808 0.07905 0.0
H361 H 0.36094 0.995 0.23427 0.0
H362 H 0.33787 0.14129 0.28639 0.0
H363 H 0.31488 0.48051 0.20071 0.0
H364 H 0.32655 0.55853 0.09735 0.0
H365 H 0.40004 0.50494 0.93356 0.0
H366 H 0.44369 0.39604 0.92589 0.0
H367 H 0.34355 0.17307 0.8912 0.0
H368 H 0.28823 0.17901 0.04147 0.0
H369 H 0.44495 0.51717 0.17002 0.0
H370 H 0.46666 0.24856 0.23466 0.0
C371 C 0.13891 0.58515 0.51422 0.0
C372 C 0.14676 0.66641 0.48779 0.0
C373 C 0.17349 0.68051 0.50339 0.0
C374 C 0.18047 0.60844 0.53916 0.0
N375 N 0.15988 0.54915 0.54638 0.0
Co376 Co 0.16019 0.44137 0.59983 0.0
N377 N 0.19269 0.48711 0.64568 0.0
C378 C 0.20871 0.55741 0.62976 0.0
C379 C 0.22948 0.57516 0.66988 0.0
C380 C 0.22691 0.51011 0.71274 0.0
C381 C 0.20495 0.45526 0.69618 0.0
N382 N 0.16043 0.33172 0.65237 0.0
C383 C 0.17669 0.30987 0.69997 0.0
C384 C 0.17136 0.22117 0.71873 0.0
C385 C 0.15174 0.18551 0.68109 0.0
C386 C 0.1461 0.25374 0.64142 0.0
N387 N 0.12756 0.3967 0.55434 0.0
C388 C 0.1178 0.31033 0.55262 0.0
C389 C 0.09459 0.30116 0.51804 0.0
C390 C 0.08932 0.38761 0.49714 0.0
C391 C 0.10958 0.4446 0.52065 0.0
N392 N 0.18441 0.37447 0.54255 0.0
C393 C 0.22217 0.30522 0.4577 0.0
C394 C 0.19563 0.32954 0.44043 0.0
C395 C 0.17755 0.36736 0.48281 0.0
C396 C 0.22856 0.30872 0.51909 0.0
C397 C 0.20916 0.34039 0.56066 0.0
N398 N 0.13606 0.51119 0.65555 0.0
C399 C 0.09121 0.535 0.69716 0.0
C400 C 0.09657 0.62912 0.70867 0.0
C401 C 0.1228 0.66063 0.69691 0.0
C402 C 0.14204 0.60119 0.67046 0.0
C403 C 0.11131 0.47708 0.67153 0.0
H404 H 0.1612 0.63058 0.65875 0.0
H405 H 0.10627 0.40593 0.66165 0.0
H406 H 0.15841 0.39381 0.46649 0.0
H407 H 0.21487 0.34005 0.60717 0.0
C408 C 0.2027 0.60824 0.57874 0.0
C409 C 0.11163 0.54324 0.5091 0.0
C410 C 0.1999 0.36484 0.72285 0.0
C411 C 0.12746 0.2467 0.59362 0.0
H412 H 0.13454 0.71344 0.46208 0.0
H413 H 0.18558 0.74059 0.49413 0.0
H414 H 0.24486 0.62812 0.66782 0.0
H415 H 0.24041 0.50078 0.75031 0.0
H416 H 0.18145 0.18381 0.75399 0.0
H417 H 0.14312 0.11699 0.68162 0.0
H418 H 0.08211 0.24032 0.51155 0.0
H419 H 0.07234 0.40689 0.46868 0.0
H420 H 0.18939 0.32482 0.39377 0.0
H421 H 0.24854 0.2882 0.53496 0.0
H422 H 0.0714 0.50669 0.7065 0.0
H423 H 0.12804 0.73245 0.70469 0.0
H424 H 0.32453 0.37981 0.94751 0.0
H425 H 0.27602 0.5034 0.80894 0.0
H426 H 0.2356 0.49038 0.8693 0.0
H427 H 0.21301 0.4293 0.95946 0.0
H428 H 0.26381 0.35874 0.11065 0.0
H429 H 0.30397 0.36854 0.04821 0.0
C430 C 0.30542 0.40503 0.92993 0.0
C431 C 0.30314 0.43069 0.86907 0.0
C432 C 0.28236 0.40692 0.96794 0.0
C433 C 0.27805 0.47002 0.85125 0.0
C434 C 0.25486 0.4658 0.88697 0.0
C435 C 0.23292 0.41765 0.97932 0.0
C436 C 0.23497 0.38874 0.03926 0.0
C437 C 0.25652 0.43024 0.94462 0.0
C438 C 0.2612 0.37653 0.06397 0.0
C439 C 0.28442 0.38337 0.02844 0.0
H440 H 0.22893 0.5055 0.45917 0.0
H441 H 0.27491 0.60314 0.30948 0.0
H442 H 0.31389 0.63103 0.3753 0.0
H443 H 0.33808 0.59903 0.47097 0.0
H444 H 0.29284 0.49623 0.61926 0.0
H445 H 0.25127 0.49653 0.55827 0.0
C446 C 0.24713 0.53487 0.44073 0.0
C447 C 0.24893 0.54708 0.37792 0.0
C448 C 0.27005 0.54977 0.47912 0.0
C449 C 0.27293 0.58753 0.35649 0.0
C450 C 0.29538 0.60479 0.39449 0.0
C451 C 0.31879 0.58184 0.49095 0.0
C452 C 0.31859 0.54923 0.55011 0.0
C453 C 0.2947 0.58175 0.45528 0.0
C454 C 0.29352 0.5239 0.57456 0.0
C455 C 0.26962 0.52398 0.53952 0.0
H456 H 0.78893 0.00278 0.2271 0.0
H457 H 0.83838 0.22578 0.12062 0.0
H458 H 0.80252 0.25567 0.03257 0.0
H459 H 0.76183 0.1985 0.96423 0.0
H460 H 0.69187 0.05363 0.02804 0.0
H461 H 0.71263 0.00906 0.11531 0.0
C462 C 0.78879 0.04862 0.18872 0.0
C463 C 0.81691 0.11354 0.18047 0.0
C464 C 0.7527 0.07898 0.10358 0.0
C465 C 0.81945 0.18835 0.12296 0.0
C466 C 0.79615 0.20822 0.06631 0.0
C467 C 0.751 0.16647 0.99989 0.0
C468 C 0.72559 0.12288 0.98858 0.0
C469 C 0.76503 0.15771 0.05486 0.0
C470 C 0.71246 0.07839 0.03542 0.0
C471 C 0.72528 0.05196 0.08829 0.0
H472 H 0.72802 0.88565 0.54603 0.0
H473 H 0.77747 0.81291 0.6987 0.0
H474 H 0.81579 0.78054 0.63283 0.0
H475 H 0.8386 0.81407 0.5365 0.0
H476 H 0.79017 0.90223 0.38636 0.0
H477 H 0.74879 0.88434 0.44479 0.0
C478 C 0.74693 0.86131 0.56517 0.0
C479 C 0.75006 0.85931 0.62861 0.0
C480 C 0.76953 0.8458 0.52668 0.0
C481 C 0.77464 0.82221 0.651 0.0
C482 C 0.79667 0.80224 0.61295 0.0
C483 C 0.81884 0.8261 0.51598 0.0
C484 C 0.81757 0.86079 0.45725 0.0
C485 C 0.795 0.82071 0.55134 0.0
C486 C 0.79183 0.87643 0.43149 0.0
C487 C 0.76806 0.86687 0.46532 0.0
H488 H 0.78625 0.88274 0.08334 0.0
H489 H 0.77782 0.25499 0.16288 0.0
H490 H 0.73898 0.18728 0.23398 0.0
H491 H 0.71541 0.05309 0.27764 0.0
H492 H 0.71131 0.774 0.20749 0.0
H493 H 0.74876 0.79434 0.13899 0.0
C494 C 0.78002 0.94464 0.1078 0.0
C495 C 0.79574 0.04731 0.09274 0.0
C496 C 0.75472 0.93803 0.15984 0.0
C497 C 0.77399 0.18072 0.15901 0.0
C498 C 0.74938 0.13957 0.20377 0.0
C499 C 0.72224 1.00087 0.24543 0.0
C500 C 0.71132 0.91166 0.24641 0.0
C501 C 0.74139 0.02605 0.20373 0.0
C502 C 0.72063 0.84147 0.2064 0.0
C503 C 0.74222 0.8529 0.16647 0.0
H504 H 0.77298 0.03015 0.53338 0.0
H505 H 0.71743 0.19128 0.64025 0.0
H506 H 0.7507 0.19699 0.72336 0.0
H507 H 0.79265 0.13384 0.77124 0.0
H508 H 0.8475 0.96903 0.66305 0.0
H509 H 0.81721 0.9833 0.57769 0.0
C510 C 0.76782 0.06588 0.57475 0.0
C511 C 0.74142 0.1035 0.58181 0.0
C512 C 0.7867 0.06554 0.6232 0.0
C513 C 0.73648 0.15544 0.63493 0.0
C514 C 0.75561 0.15918 0.68236 0.0
C515 C 0.79783 0.10098 0.72849 0.0
C516 C 0.82215 0.04878 0.72369 0.0
C517 C 0.78013 0.10967 0.67831 0.0
C518 C 0.82876 0.00797 0.66824 0.0
C519 C 0.81144 0.01726 0.61876 0.0
H520 H 0.30959 0.21176 0.83419 0.0
H521 H 0.25595 0.15008 0.98033 0.0
H522 H 0.21768 0.20799 0.92402 0.0
H523 H 0.19947 0.2923 0.83629 0.0
H524 H 0.25136 0.32644 0.68367 0.0
H525 H 0.28928 0.25619 0.73788 0.0
C526 C 0.28975 0.20872 0.85441 0.0
C527 C 0.28698 0.1842 0.91539 0.0
C528 C 0.26698 0.23734 0.81991 0.0
C529 C 0.26008 0.17737 0.93694 0.0
C530 C 0.23765 0.20878 0.90381 0.0
C531 C 0.21911 0.28452 0.81495 0.0
C532 C 0.22267 0.31775 0.75656 0.0
C533 C 0.24103 0.24323 0.84626 0.0
C534 C 0.24813 0.30444 0.72916 0.0
C535 C 0.26992 0.26433 0.76025 0.0
H536 H 0.29207 0.22841 0.22395 0.0
H537 H 0.34726 0.41155 0.31895 0.0
H538 H 0.31652 0.41983 0.40417 0.0
H539 H 0.27457 0.36814 0.45466 0.0
H540 H 0.21837 0.192 0.35805 0.0
H541 H 0.25027 0.1785 0.27386 0.0
C542 C 0.29713 0.27051 0.26351 0.0
C543 C 0.32181 0.31944 0.26558 0.0
C544 C 0.27955 0.27331 0.31309 0.0
C545 C 0.32832 0.37364 0.3166 0.0
C546 C 0.31086 0.37715 0.36577 0.0
C547 C 0.26891 0.32908 0.41454 0.0
C548 C 0.24335 0.28542 0.41123 0.0
C549 C 0.28655 0.32649 0.36497 0.0
C550 C 0.23723 0.22996 0.36029 0.0
C551 C 0.25531 0.2228 0.31215 0.0
H552 H 0.06497 0.28182 0.2009 0.0
H553 H 0.08672 0.25472 0.38747 0.0
H554 H 0.04278 0.18344 0.40675 0.0
H555 H 0.99833 0.12698 0.37027 0.0
H556 H 0.97465 0.16247 0.18547 0.0
H557 H 1.01883 0.23377 0.1656 0.0
C558 C 0.06002 0.25997 0.24563 0.0
C559 C 0.07953 0.26964 0.29223 0.0
C560 C 0.03438 0.22051 0.25649 0.0
C561 C 0.07255 0.2441 0.35043 0.0
C562 C 0.04734 0.20396 0.36149 0.0
C563 C 1.00301 0.14918 0.32544 0.0
C564 C 0.98344 0.13839 0.27911 0.0
C565 C 0.02826 0.19059 0.3147 0.0
C566 C 0.98955 0.169 0.22153 0.0
C567 C 1.01474 0.21003 0.21036 0.0
H568 H 0.50103 0.37452 0.71236 0.0
H569 H 0.46632 0.144 0.80144 0.0
H570 H 0.50946 0.0605 0.79385 0.0
H571 H 0.55807 0.0573 0.77128 0.0
H572 H 0.59528 0.3058 0.70918 0.0
H573 H 0.55154 0.37978 0.70361 0.0
C574 C 0.50298 0.30698 0.73166 0.0
C575 C 0.47947 0.26243 0.75239 0.0
C576 C 0.52893 0.26333 0.73448 0.0
C577 C 0.48317 0.17683 0.77972 0.0
C578 C 0.50818 0.12994 0.77731 0.0
C579 C 0.55694 0.12626 0.75439 0.0
C580 C 0.58071 0.16977 0.73375 0.0
C581 C 0.53138 0.17249 0.75515 0.0
C582 C 0.57793 0.26396 0.71891 0.0
C583 C 0.55255 0.30869 0.71733 0.0
H584 H 0.04441 0.63867 0.66755 0.0
H585 H 0.09967 0.77178 0.79329 0.0
H586 H 0.06436 0.8848 0.82107 0.0
H587 H 1.01625 0.94201 0.81242 0.0
H588 H 0.96316 0.81082 0.68053 0.0
H589 H 0.99811 0.69851 0.65668 0.0
C590 C 0.04872 0.6919 0.70134 0.0
C591 C 0.07468 0.69568 0.72842 0.0
C592 C 0.02854 0.75788 0.71615 0.0
C593 C 0.07992 0.76679 0.77144 0.0
C594 C 0.0597 0.83182 0.7873 0.0
C595 C 1.01284 0.89165 0.77625 0.0
C596 C 0.98683 0.88517 0.74871 0.0
C597 C 0.03383 0.82842 0.75977 0.0
C598 C 0.9828 0.81794 0.7027 0.0
C599 C 1.00299 0.75378 0.68816 0.0
H600 H 0.4656 0.55887 0.2617 0.0
H601 H 0.51111 0.31304 0.21409 0.0
H602 H 0.553 0.38633 0.25141 0.0
H603 H 0.57742 0.52505 0.29248 0.0
H604 H 0.53079 0.77113 0.33482 0.0
H605 H 0.48924 0.69372 0.30359 0.0
C606 C 0.48465 0.52106 0.25896 0.0
C607 C 0.48493 0.43033 0.23444 0.0
C608 C 0.5088 0.56436 0.27915 0.0
C609 C 0.50995 0.38245 0.2331 0.0
C610 C 0.53408 0.42479 0.25402 0.0
C611 C 0.55817 0.56157 0.29531 0.0
C612 C 0.55767 0.65483 0.31573 0.0
C613 C 0.53386 0.5164 0.27648 0.0
C614 C 0.53229 0.70035 0.31844 0.0
C615 C 0.50827 0.65583 0.30086 0.0
H616 H 0.0664 0.17499 0.98625 0.0
H617 H 0.06361 0.07903 0.16742 0.0
H618 H 1.01999 0.0035 0.14592 0.0
H619 H 0.97949 0.9812 0.0781 0.0
H620 H 0.98493 0.06756 0.8953 0.0
H621 H 0.03036 0.12708 0.91398 0.0
C622 C 0.05631 0.13695 0.02083 0.0
C623 C 0.06795 0.1349 0.07881 0.0
C624 C 0.03156 0.09086 0.00759 0.0
C625 C 0.05495 0.0829 0.1226 0.0
C626 C 0.02994 0.03947 0.1103 0.0
C627 C 0.99116 0.00894 0.04171 0.0
C628 C 0.97877 0.01776 0.98461 0.0
C629 C 1.01762 0.04469 0.05325 0.0
C630 C 0.99406 0.05696 0.93877 0.0
C631 C 1.01998 0.09311 0.94992 0.0
H632 H 0.58043 0.74222 0.61502 0.0
H633 H 0.56024 0.83727 0.43832 0.0
H634 H 0.51813 0.74823 0.43901 0.0
H635 H 0.4884 0.6347 0.48646 0.0
H636 H 0.51193 0.52729 0.65829 0.0
H637 H 0.55277 0.62254 0.65993 0.0
C638 C 0.56807 0.7392 0.57477 0.0
C639 C 0.5748 0.79267 0.52514 0.0
C640 C 0.5446 0.68364 0.57382 0.0
C641 C 0.55617 0.79537 0.47667 0.0
C642 C 0.53214 0.7437 0.47664 0.0
C643 C 0.50257 0.6318 0.52404 0.0
C644 C 0.49715 0.5732 0.57196 0.0
C645 C 0.52636 0.68609 0.52441 0.0
C646 C 0.51578 0.57041 0.62032 0.0
C647 C 0.53906 0.62557 0.62156 0.0
H648 H 0.48688 0.3626 0.02564 0.0
H649 H 0.45887 0.12412 0.92334 0.0
H650 H 0.50519 0.08785 0.89456 0.0
H651 H 0.55285 0.12887 0.88966 0.0
H652 H 0.58199 0.37635 0.97958 0.0
H653 H 0.53557 0.41163 0.01465 0.0
C654 C 0.49087 0.30533 0.99459 0.0
C655 C 0.46978 0.24331 0.97891 0.0
C656 C 0.51738 0.29017 0.9722 0.0
C657 C 0.47497 0.17077 0.93771 0.0
C658 C 0.50137 0.15112 0.91986 0.0
C659 C 0.54906 0.19075 0.91688 0.0
C660 C 0.57077 0.24923 0.93278 0.0
C661 C 0.52261 0.21071 0.93592 0.0
C662 C 0.56552 0.3302 0.96693 0.0
C663 C 0.53903 0.35015 0.98699 0.0
H664 H 0.06331 0.55594 0.56682 0.0
H665 H 0.10271 0.63901 0.40513 0.0
H666 H 0.06355 0.73569 0.37995 0.0
H667 H 1.01859 0.80005 0.40568 0.0
H668 H 0.9766 0.70102 0.56042 0.0
H669 H 1.01513 0.59939 0.58231 0.0
C670 C 0.06329 0.59533 0.52607 0.0
C671 C 0.08679 0.59593 0.49031 0.0
C672 C 0.04 0.64656 0.50998 0.0
C673 C 0.08588 0.64341 0.43609 0.0
C674 C 0.06321 0.69723 0.42101 0.0
C675 C 1.01798 0.75835 0.44532 0.0
C676 C 0.99496 0.76227 0.48301 0.0
C677 C 0.04039 0.70109 0.45847 0.0
C678 C 0.99413 0.70212 0.53145 0.0
C679 C 1.01634 0.64473 0.54459 0.0
loop_
_geom_bond_atom_site_label_1
_geom_bond_atom_site_label_2
_geom_bond_distance
_geom_bond_site_symmetry_2
_ccdc_geom_bond_type
C0 C1 1.443 . S
C0 N4 1.376 . S
C0 C38 1.389 . S
C1 C0 1.443 . S
C1 C2 1.340 . S
C1 H41 0.951 . S
C2 C1 1.340 . S
C2 C3 1.439 . S
C2 H42 0.950 . S
C3 C2 1.439 . S
C3 N4 1.374 . S
C3 C37 1.395 . S
N4 C0 1.376 . S
N4 C3 1.374 . S
N4 Co5 2.008 . S
Co5 N4 2.008 . S
Co5 N6 1.995 . S
Co5 N11 2.008 . S
Co5 N16 1.995 . S
Co5 N21 2.282 . S
Co5 N27 2.282 . S
N6 Co5 1.995 . S
N6 C7 1.376 . S
N6 C10 1.383 . S
C7 N6 1.376 . S
C7 C8 1.446 . S
C7 C37 1.391 . S
C8 C7 1.446 . S
C8 C9 1.339 . S
C8 H43 0.949 . S
C9 C8 1.339 . S
C9 C10 1.439 . S
C9 H44 0.950 . S
C10 N6 1.383 . S
C10 C9 1.439 . S
C10 C39 1.392 . S
N11 Co5 2.008 . S
N11 C12 1.376 . S
N11 C15 1.374 . S
C12 N11 1.376 . S
C12 C13 1.443 . S
C12 C39 1.389 . S
C13 C12 1.443 . S
C13 C14 1.340 . S
C13 H45 0.951 . S
C14 C13 1.340 . S
C14 C15 1.439 . S
C14 H46 0.950 . S
C15 N11 1.374 . S
C15 C14 1.439 . S
C15 C40 1.395 . S
N16 Co5 1.995 . S
N16 C17 1.376 . S
N16 C20 1.383 . S
C17 N16 1.376 . S
C17 C18 1.446 . S
C17 C40 1.391 . S
C18 C17 1.446 . S
C18 C19 1.339 . S
C18 H47 0.949 . S
C19 C18 1.339 . S
C19 C20 1.439 . S
C19 H48 0.950 . S
C20 N16 1.383 . S
C20 C19 1.439 . S
C20 C38 1.392 . S
N21 Co5 2.282 . S
N21 C24 1.332 . S
N21 C26 1.332 . S
C22 C23 1.386 . S
C22 C25 1.388 . S
C23 C22 1.386 . S
C23 C24 1.382 . S
C23 H49 0.950 . S
C24 N21 1.332 . S
C24 C23 1.382 . S
C24 H35 0.952 . S
C25 C22 1.388 . S
C25 C26 1.382 . S
C25 H50 0.950 . S
C26 N21 1.332 . S
C26 C25 1.382 . S
C26 H36 0.948 . S
N27 Co5 2.282 . S
N27 C31 1.332 . S
N27 C32 1.332 . S
C28 C29 1.388 . S
C28 C32 1.382 . S
C28 H51 0.950 . S
C29 C28 1.388 . S
C29 C30 1.386 . S
C30 C29 1.386 . S
C30 C31 1.382 . S
C30 H52 0.950 . S
C31 N27 1.332 . S
C31 C30 1.382 . S
C31 H33 0.952 . S
C32 N27 1.332 . S
C32 C28 1.382 . S
C32 H34 0.948 . S
H33 C31 0.952 . S
H34 C32 0.948 . S
H35 C24 0.952 . S
H36 C26 0.948 . S
C37 C3 1.395 . S
C37 C7 1.391 . S
C38 C0 1.389 . S
C38 C20 1.392 . S
C39 C10 1.392 . S
C39 C12 1.389 . S
C40 C15 1.395 . S
C40 C17 1.391 . S
H41 C1 0.951 . S
H42 C2 0.950 . S
H43 C8 0.949 . S
H44 C9 0.950 . S
H45 C13 0.951 . S
H46 C14 0.950 . S
H47 C18 0.949 . S
H48 C19 0.950 . S
H49 C23 0.950 . S
H50 C25 0.950 . S
H51 C28 0.950 . S
H52 C30 0.950 . S
C53 C54 1.443 . S
C53 N57 1.376 . S
C53 C91 1.389 . S
C54 C53 1.443 . S
C54 C55 1.340 . S
C54 H94 0.951 . S
C55 C54 1.340 . S
C55 C56 1.439 . S
C55 H95 0.950 . S
C56 C55 1.439 . S
C56 N57 1.374 . S
C56 C90 1.395 . S
N57 C53 1.376 . S
N57 C56 1.374 . S
N57 Co58 2.008 . S
Co58 N57 2.008 . S
Co58 N59 1.995 . S
Co58 N64 2.008 . S
Co58 N69 1.995 . S
Co58 N74 2.282 . S
Co58 N80 2.282 . S
N59 Co58 1.995 . S
N59 C60 1.376 . S
N59 C63 1.383 . S
C60 N59 1.376 . S
C60 C61 1.446 . S
C60 C90 1.391 . S
C61 C60 1.446 . S
C61 C62 1.339 . S
C61 H96 0.949 . S
C62 C61 1.339 . S
C62 C63 1.439 . S
C62 H97 0.950 . S
C63 N59 1.383 . S
C63 C62 1.439 . S
C63 C92 1.392 . S
N64 Co58 2.008 . S
N64 C65 1.376 . S
N64 C68 1.374 . S
C65 N64 1.376 . S
C65 C66 1.443 . S
C65 C92 1.389 . S
C66 C65 1.443 . S
C66 C67 1.340 . S
C66 H98 0.951 . S
C67 C66 1.340 . S
C67 C68 1.439 . S
C67 H99 0.950 . S
C68 N64 1.374 . S
C68 C67 1.439 . S
C68 C93 1.395 . S
N69 Co58 1.995 . S
N69 C70 1.376 . S
N69 C73 1.383 . S
C70 N69 1.376 . S
C70 C71 1.446 . S
C70 C93 1.391 . S
C71 C70 1.446 . S
C71 C72 1.339 . S
C71 H100 0.949 . S
C72 C71 1.339 . S
C72 C73 1.439 . S
C72 H101 0.950 . S
C73 N69 1.383 . S
C73 C72 1.439 . S
C73 C91 1.392 . S
N74 Co58 2.282 . S
N74 C77 1.332 . S
N74 C79 1.332 . S
C75 C76 1.386 . S
C75 C78 1.388 . S
C76 C75 1.386 . S
C76 C77 1.382 . S
C76 H102 0.950 . S
C77 N74 1.332 . S
C77 C76 1.382 . S
C77 H88 0.952 . S
C78 C75 1.388 . S
C78 C79 1.382 . S
C78 H103 0.950 . S
C79 N74 1.332 . S
C79 C78 1.382 . S
C79 H89 0.948 . S
N80 Co58 2.282 . S
N80 C84 1.332 . S
N80 C85 1.332 . S
C81 C82 1.388 . S
C81 C85 1.382 . S
C81 H104 0.950 . S
C82 C81 1.388 . S
C82 C83 1.386 . S
C83 C82 1.386 . S
C83 C84 1.382 . S
C83 H105 0.950 . S
C84 N80 1.332 . S
C84 C83 1.382 . S
C84 H86 0.952 . S
C85 N80 1.332 . S
C85 C81 1.382 . S
C85 H87 0.948 . S
H86 C84 0.952 . S
H87 C85 0.948 . S
H88 C77 0.952 . S
H89 C79 0.948 . S
C90 C56 1.395 . S
C90 C60 1.391 . S
C91 C53 1.389 . S
C91 C73 1.392 . S
C92 C63 1.392 . S
C92 C65 1.389 . S
C93 C68 1.395 . S
C93 C70 1.391 . S
H94 C54 0.951 . S
H95 C55 0.950 . S
H96 C61 0.949 . S
H97 C62 0.950 . S
H98 C66 0.951 . S
H99 C67 0.950 . S
H100 C71 0.949 . S
H101 C72 0.950 . S
H102 C76 0.950 . S
H103 C78 0.950 . S
H104 C81 0.950 . S
H105 C83 0.950 . S
C106 C107 1.443 . S
C106 N110 1.376 . S
C106 C144 1.389 . S
C107 C106 1.443 . S
C107 C108 1.340 . S
C107 H147 0.951 . S
C108 C107 1.340 . S
C108 C109 1.439 . S
C108 H148 0.950 . S
C109 C108 1.439 . S
C109 N110 1.374 . S
C109 C143 1.395 . S
N110 C106 1.376 . S
N110 C109 1.374 . S
N110 Co111 2.008 . S
Co111 N110 2.008 . S
Co111 N112 1.995 . S
Co111 N117 2.008 1_545 S
Co111 N122 1.995 1_545 S
Co111 N127 2.282 . S
Co111 N133 2.282 . S
N112 Co111 1.995 . S
N112 C113 1.376 . S
N112 C116 1.383 . S
C113 N112 1.376 . S
C113 C114 1.446 . S
C113 C143 1.391 . S
C114 C113 1.446 . S
C114 C115 1.339 . S
C114 H149 0.949 . S
C115 C114 1.339 . S
C115 C116 1.439 . S
C115 H150 0.950 . S
C116 N112 1.383 . S
C116 C115 1.439 . S
C116 C145 1.392 1_545 S
N117 Co111 2.008 1_565 S
N117 C118 1.376 . S
N117 C121 1.374 . S
C118 N117 1.376 . S
C118 C119 1.443 . S
C118 C145 1.389 . S
C119 C118 1.443 . S
C119 C120 1.340 . S
C119 H151 0.951 . S
C120 C119 1.340 . S
C120 C121 1.439 . S
C120 H152 0.950 . S
C121 N117 1.374 . S
C121 C120 1.439 . S
C121 C146 1.395 . S
N122 Co111 1.995 1_565 S
N122 C123 1.376 . S
N122 C126 1.383 . S
C123 N122 1.376 . S
C123 C124 1.446 . S
C123 C146 1.391 . S
C124 C123 1.446 . S
C124 C125 1.339 . S
C124 H153 0.949 . S
C125 C124 1.339 . S
C125 C126 1.439 . S
C125 H154 0.950 . S
C126 N122 1.383 . S
C126 C125 1.439 . S
C126 C144 1.392 1_565 S
N127 Co111 2.282 . S
N127 C130 1.332 1_545 S
N127 C132 1.332 . S
C128 C129 1.386 . S
C128 C131 1.388 1_565 S
C129 C128 1.386 . S
C129 C130 1.382 . S
C129 H155 0.950 . S
C130 N127 1.332 1_565 S
C130 C129 1.382 . S
C130 H141 0.952 . S
C131 C128 1.388 1_545 S
C131 C132 1.382 . S
C131 H156 0.950 . S
C132 N127 1.332 . S
C132 C131 1.382 . S
C132 H142 0.948 . S
N133 Co111 2.282 . S
N133 C137 1.332 . S
N133 C138 1.332 1_545 S
C134 C135 1.388 . S
C134 C138 1.382 1_545 S
C134 H157 0.950 1_545 S
C135 C134 1.388 . S
C135 C136 1.386 . S
C136 C135 1.386 . S
C136 C137 1.382 . S
C136 H158 0.950 . S
C137 N133 1.332 . S
C137 C136 1.382 . S
C137 H139 0.952 . S
C138 N133 1.332 1_565 S
C138 C134 1.382 1_565 S
C138 H140 0.948 . S
H139 C137 0.952 . S
H140 C138 0.948 . S
H141 C130 0.952 . S
H142 C132 0.948 . S
C143 C109 1.395 . S
C143 C113 1.391 . S
C144 C106 1.389 . S
C144 C126 1.392 1_545 S
C145 C116 1.392 1_565 S
C145 C118 1.389 . S
C146 C121 1.395 . S
C146 C123 1.391 . S
H147 C107 0.951 . S
H148 C108 0.950 . S
H149 C114 0.949 . S
H150 C115 0.950 . S
H151 C119 0.951 . S
H152 C120 0.950 . S
H153 C124 0.949 . S
H154 C125 0.950 . S
H155 C129 0.950 . S
H156 C131 0.950 . S
H157 C134 0.950 1_565 S
H158 C136 0.950 . S
C159 C160 1.443 . S
C159 N163 1.376 . S
C159 C197 1.389 1_565 S
C160 C159 1.443 . S
C160 C161 1.340 . S
C160 H200 0.951 . S
C161 C160 1.340 . S
C161 C162 1.439 . S
C161 H201 0.950 . S
C162 C161 1.439 . S
C162 N163 1.374 . S
C162 C196 1.395 . S
N163 C159 1.376 . S
N163 C162 1.374 . S
N163 Co164 2.008 1_565 S
Co164 N163 2.008 1_545 S
Co164 N165 1.995 1_545 S
Co164 N170 2.008 . S
Co164 N175 1.995 . S
Co164 N180 2.282 . S
Co164 N186 2.282 1_545 S
N165 Co164 1.995 1_565 S
N165 C166 1.376 . S
N165 C169 1.383 . S
C166 N165 1.376 . S
C166 C167 1.446 . S
C166 C196 1.391 . S
C167 C166 1.446 . S
C167 C168 1.339 . S
C167 H202 0.949 . S
C168 C167 1.339 . S
C168 C169 1.439 . S
C168 H203 0.950 . S
C169 N165 1.383 . S
C169 C168 1.439 . S
C169 C198 1.392 . S
N170 Co164 2.008 . S
N170 C171 1.376 . S
N170 C174 1.374 . S
C171 N170 1.376 . S
C171 C172 1.443 . S
C171 C198 1.389 1_545 S
C172 C171 1.443 . S
C172 C173 1.340 . S
C172 H204 0.951 . S
C173 C172 1.340 . S
C173 C174 1.439 . S
C173 H205 0.950 . S
C174 N170 1.374 . S
C174 C173 1.439 . S
C174 C199 1.395 . S
N175 Co164 1.995 . S
N175 C176 1.376 . S
N175 C179 1.383 . S
C176 N175 1.376 . S
C176 C177 1.446 . S
C176 C199 1.391 . S
C177 C176 1.446 . S
C177 C178 1.339 . S
C177 H206 0.949 . S
C178 C177 1.339 . S
C178 C179 1.439 . S
C178 H207 0.950 . S
C179 N175 1.383 . S
C179 C178 1.439 . S
C179 C197 1.392 . S
N180 Co164 2.282 . S
N180 C183 1.332 . S
N180 C185 1.332 1_545 S
C181 C182 1.386 . S
C181 C184 1.388 . S
C182 C181 1.386 . S
C182 C183 1.382 . S
C182 H208 0.950 . S
C183 N180 1.332 . S
C183 C182 1.382 . S
C183 H194 0.952 . S
C184 C181 1.388 . S
C184 C185 1.382 1_545 S
C184 H209 0.950 1_545 S
C185 N180 1.332 1_565 S
C185 C184 1.382 1_565 S
C185 H195 0.948 . S
N186 Co164 2.282 1_565 S
N186 C190 1.332 . S
N186 C191 1.332 1_565 S
C187 C188 1.388 . S
C187 C191 1.382 1_565 S
C187 H210 0.950 1_565 S
C188 C187 1.388 . S
C188 C189 1.386 . S
C189 C188 1.386 . S
C189 C190 1.382 . S
C189 H211 0.950 . S
C190 N186 1.332 . S
C190 C189 1.382 . S
C190 H192 0.952 . S
C191 N186 1.332 1_545 S
C191 C187 1.382 1_545 S
C191 H193 0.948 . S
H192 C190 0.952 . S
H193 C191 0.948 . S
H194 C183 0.952 . S
H195 C185 0.948 . S
C196 C162 1.395 . S
C196 C166 1.391 . S
C197 C159 1.389 1_545 S
C197 C179 1.392 . S
C198 C169 1.392 . S
C198 C171 1.389 1_565 S
C199 C174 1.395 . S
C199 C176 1.391 . S
H200 C160 0.951 . S
H201 C161 0.950 . S
H202 C167 0.949 . S
H203 C168 0.950 . S
H204 C172 0.951 . S
H205 C173 0.950 . S
H206 C177 0.949 . S
H207 C178 0.950 . S
H208 C182 0.950 . S
H209 C184 0.950 1_565 S
H210 C187 0.950 1_545 S
H211 C189 0.950 . S
C212 C213 1.443 . S
C212 N216 1.376 . S
C212 C250 1.389 . S
C213 C212 1.443 . S
C213 C214 1.340 . S
C213 H253 0.951 . S
C214 C213 1.340 . S
C214 C215 1.439 . S
C214 H254 0.950 . S
C215 C214 1.439 . S
C215 N216 1.374 . S
C215 C249 1.395 . S
N216 C212 1.376 . S
N216 C215 1.374 . S
N216 Co217 2.008 1_545 S
Co217 N216 2.008 1_565 S
Co217 N218 1.995 1_565 S
Co217 N223 2.008 . S
Co217 N228 1.995 . S
Co217 N233 2.282 1_565 S
Co217 N239 2.282 . S
N218 Co217 1.995 1_545 S
N218 C219 1.376 . S
N218 C222 1.383 . S
C219 N218 1.376 . S
C219 C220 1.446 . S
C219 C249 1.391 . S
C220 C219 1.446 . S
C220 C221 1.339 . S
C220 H255 0.949 . S
C221 C220 1.339 . S
C221 C222 1.439 . S
C221 H256 0.950 . S
C222 N218 1.383 . S
C222 C221 1.439 . S
C222 C251 1.392 1_545 S
N223 Co217 2.008 . S
N223 C224 1.376 . S
N223 C227 1.374 . S
C224 N223 1.376 . S
C224 C225 1.443 . S
C224 C251 1.389 . S
C225 C224 1.443 . S
C225 C226 1.340 . S
C225 H257 0.951 . S
C226 C225 1.340 . S
C226 C227 1.439 . S
C226 H258 0.950 . S
C227 N223 1.374 . S
C227 C226 1.439 . S
C227 C252 1.395 . S
N228 Co217 1.995 . S
N228 C229 1.376 . S
N228 C232 1.381 1_556 S
C229 N228 1.376 . S
C229 C230 1.446 1_556 S
C229 C252 1.391 . S
C230 C229 1.446 1_554 S
C230 C231 1.339 . S
C230 H259 0.949 . S
C231 C230 1.339 . S
C231 C232 1.442 . S
C231 H260 0.950 . S
C232 N228 1.381 1_554 S
C232 C231 1.442 . S
C232 C250 1.391 1_564 S
N233 Co217 2.282 1_545 S
N233 C236 1.332 1_546 S
N233 C238 1.332 . S
C234 C235 1.386 . S
C234 C237 1.388 1_554 S
C235 C234 1.386 . S
C235 C236 1.382 1_545 S
C235 H261 0.950 1_545 S
C236 N233 1.332 1_564 S
C236 C235 1.382 1_565 S
C236 H247 0.952 . S
C237 C234 1.388 1_556 S
C237 C238 1.382 . S
C237 H262 0.950 . S
C238 N233 1.332 . S
C238 C237 1.382 . S
C238 H248 0.948 . S
N239 Co217 2.282 . S
N239 C243 1.332 1_565 S
N239 C244 1.332 . S
C240 C241 1.388 . S
C240 C244 1.382 . S
C240 H263 0.950 . S
C241 C240 1.388 . S
C241 C242 1.386 . S
C242 C241 1.386 . S
C242 C243 1.382 1_565 S
C242 H264 0.950 1_565 S
C243 N239 1.332 1_545 S
C243 C242 1.382 1_545 S
C243 H245 0.952 . S
C244 N239 1.332 . S
C244 C240 1.382 . S
C244 H246 0.948 . S
H245 C243 0.952 . S
H246 C244 0.948 . S
H247 C236 0.952 . S
H248 C238 0.948 . S
C249 C215 1.395 . S
C249 C219 1.391 . S
C250 C212 1.389 . S
C250 C232 1.391 1_546 S
C251 C222 1.392 1_565 S
C251 C224 1.389 . S
C252 C227 1.395 . S
C252 C229 1.391 . S
H253 C213 0.951 . S
H254 C214 0.950 . S
H255 C220 0.949 . S
H256 C221 0.950 . S
H257 C225 0.951 . S
H258 C226 0.950 . S
H259 C230 0.949 . S
H260 C231 0.950 . S
H261 C235 0.950 1_565 S
H262 C237 0.950 . S
H263 C240 0.950 . S
H264 C242 0.950 1_545 S
C265 C266 1.443 . S
C265 N269 1.376 . S
C265 C303 1.389 . S
C266 C265 1.443 . S
C266 C267 1.340 . S
C266 H306 0.951 . S
C267 C266 1.340 . S
C267 C268 1.439 . S
C267 H307 0.950 . S
C268 C267 1.439 . S
C268 N269 1.374 . S
C268 C302 1.395 . S
N269 C265 1.376 . S
N269 C268 1.374 . S
N269 Co270 2.008 . S
Co270 N269 2.008 . S
Co270 N271 1.995 . S
Co270 N276 2.008 1_565 S
Co270 N281 1.995 1_565 S
Co270 N286 2.282 . S
Co270 N292 2.282 . S
N271 Co270 1.995 . S
N271 C272 1.376 . S
N271 C275 1.383 . S
C272 N271 1.376 . S
C272 C273 1.446 . S
C272 C302 1.391 . S
C273 C272 1.446 . S
C273 C274 1.339 . S
C273 H308 0.949 . S
C274 C273 1.339 . S
C274 C275 1.439 . S
C274 H309 0.950 . S
C275 N271 1.383 . S
C275 C274 1.439 . S
C275 C304 1.392 1_565 S
N276 Co270 2.008 1_545 S
N276 C277 1.376 . S
N276 C280 1.374 . S
C277 N276 1.376 . S
C277 C278 1.443 . S
C277 C304 1.389 . S
C278 C277 1.443 . S
C278 C279 1.340 . S
C278 H310 0.951 . S
C279 C278 1.340 . S
C279 C280 1.439 . S
C279 H311 0.950 . S
C280 N276 1.374 . S
C280 C279 1.439 . S
C280 C305 1.395 . S
N281 Co270 1.995 1_545 S
N281 C282 1.376 . S
N281 C285 1.383 1_545 S
C282 N281 1.376 . S
C282 C283 1.446 . S
C282 C305 1.391 . S
C283 C282 1.446 . S
C283 C284 1.339 . S
C283 H312 0.949 . S
C284 C283 1.339 . S
C284 C285 1.439 1_545 S
C284 H313 0.950 . S
C285 N281 1.383 1_565 S
C285 C284 1.439 1_565 S
C285 C303 1.392 . S
N286 Co270 2.282 . S
N286 C289 1.332 1_565 S
N286 C291 1.332 . S
C287 C288 1.386 . S
C287 C290 1.388 1_545 S
C288 C287 1.386 . S
C288 C289 1.382 . S
C288 H314 0.950 . S
C289 N286 1.332 1_545 S
C289 C288 1.382 . S
C289 H300 0.952 . S
C290 C287 1.388 1_565 S
C290 C291 1.382 . S
C290 H315 0.950 . S
C291 N286 1.332 . S
C291 C290 1.382 . S
C291 H301 0.948 . S
N292 Co270 2.282 . S
N292 C296 1.332 . S
N292 C297 1.332 . S
C293 C294 1.388 . S
C293 C297 1.382 . S
C293 H316 0.950 . S
C294 C293 1.388 . S
C294 C295 1.386 . S
C295 C294 1.386 . S
C295 C296 1.382 . S
C295 H317 0.950 . S
C296 N292 1.332 . S
C296 C295 1.382 . S
C296 H298 0.952 . S
C297 N292 1.332 . S
C297 C293 1.382 . S
C297 H299 0.948 1_565 S
H298 C296 0.952 . S
H299 C297 0.948 1_545 S
H300 C289 0.952 . S
H301 C291 0.948 . S
C302 C268 1.395 . S
C302 C272 1.391 . S
C303 C265 1.389 . S
C303 C285 1.392 . S
C304 C275 1.392 1_545 S
C304 C277 1.389 . S
C305 C280 1.395 . S
C305 C282 1.391 . S
H306 C266 0.951 . S
H307 C267 0.950 . S
H308 C273 0.949 . S
H309 C274 0.950 . S
H310 C278 0.951 . S
H311 C279 0.950 . S
H312 C283 0.949 . S
H313 C284 0.950 . S
H314 C288 0.950 . S
H315 C290 0.950 . S
H316 C293 0.950 . S
H317 C295 0.950 . S
C318 C319 1.443 . S
C318 N322 1.376 . S
C318 C356 1.389 . S
C319 C318 1.443 . S
C319 C320 1.340 . S
C319 H359 0.951 . S
C320 C319 1.340 . S
C320 C321 1.439 . S
C320 H360 0.950 . S
C321 C320 1.439 . S
C321 N322 1.374 . S
C321 C355 1.395 . S
N322 C318 1.376 . S
N322 C321 1.374 . S
N322 Co323 2.008 . S
Co323 N322 2.008 . S
Co323 N324 1.995 . S
Co323 N329 2.008 . S
Co323 N334 1.995 . S
Co323 N339 2.282 . S
Co323 N345 2.282 . S
N324 Co323 1.995 . S
N324 C325 1.376 . S
N324 C328 1.383 . S
C325 N324 1.376 . S
C325 C326 1.446 . S
C325 C355 1.391 . S
C326 C325 1.446 . S
C326 C327 1.339 . S
C326 H361 0.949 . S
C327 C326 1.339 . S
C327 C328 1.439 . S
C327 H362 0.950 . S
C328 N324 1.383 . S
C328 C327 1.439 . S
C328 C357 1.392 . S
N329 Co323 2.008 . S
N329 C330 1.376 . S
N329 C333 1.374 . S
C330 N329 1.376 . S
C330 C331 1.443 . S
C330 C357 1.389 . S
C331 C330 1.443 . S
C331 C332 1.340 . S
C331 H363 0.951 . S
C332 C331 1.340 . S
C332 C333 1.439 . S
C332 H364 0.950 . S
C333 N329 1.374 . S
C333 C332 1.439 . S
C333 C358 1.395 . S
N334 Co323 1.995 . S
N334 C335 1.376 . S
N334 C338 1.383 . S
C335 N334 1.376 . S
C335 C336 1.446 1_554 S
C335 C358 1.391 . S
C336 C335 1.446 1_556 S
C336 C337 1.339 . S
C336 H365 0.949 . S
C337 C336 1.339 . S
C337 C338 1.439 1_556 S
C337 H366 0.950 . S
C338 N334 1.383 . S
C338 C337 1.439 1_554 S
C338 C356 1.392 . S
N339 Co323 2.282 . S
N339 C342 1.332 1_554 S
N339 C344 1.332 . S
C340 C341 1.386 . S
C340 C343 1.388 1_556 S
C341 C340 1.386 . S
C341 C342 1.382 . S
C341 H367 0.950 . S
C342 N339 1.332 1_556 S
C342 C341 1.382 . S
C342 H353 0.952 . S
C343 C340 1.388 1_554 S
C343 C344 1.382 . S
C343 H368 0.950 . S
C344 N339 1.332 . S
C344 C343 1.382 . S
C344 H354 0.948 . S
N345 Co323 2.282 . S
N345 C349 1.332 . S
N345 C350 1.332 . S
C346 C347 1.388 . S
C346 C350 1.382 . S
C346 H369 0.950 . S
C347 C346 1.388 . S
C347 C348 1.386 . S
C348 C347 1.386 . S
C348 C349 1.382 . S
C348 H370 0.950 . S
C349 N345 1.332 . S
C349 C348 1.382 . S
C349 H351 0.952 . S
C350 N345 1.332 . S
C350 C346 1.382 . S
C350 H352 0.948 . S
H351 C349 0.952 . S
H352 C350 0.948 . S
H353 C342 0.952 . S
H354 C344 0.948 . S
C355 C321 1.395 . S
C355 C325 1.391 . S
C356 C318 1.389 . S
C356 C338 1.392 . S
C357 C328 1.392 . S
C357 C330 1.389 . S
C358 C333 1.395 . S
C358 C335 1.391 . S
H359 C319 0.951 . S
H360 C320 0.950 . S
H361 C326 0.949 . S
H362 C327 0.950 . S
H363 C331 0.951 . S
H364 C332 0.950 . S
H365 C336 0.949 . S
H366 C337 0.950 . S
H367 C341 0.950 . S
H368 C343 0.950 . S
H369 C346 0.950 . S
H370 C348 0.950 . S
C371 C372 1.443 . S
C371 N375 1.376 . S
C371 C409 1.389 . S
C372 C371 1.443 . S
C372 C373 1.340 . S
C372 H412 0.951 . S
C373 C372 1.340 . S
C373 C374 1.439 . S
C373 H413 0.950 . S
C374 C373 1.439 . S
C374 N375 1.374 . S
C374 C408 1.395 . S
N375 C371 1.376 . S
N375 C374 1.374 . S
N375 Co376 2.008 . S
Co376 N375 2.008 . S
Co376 N377 1.995 . S
Co376 N382 2.008 . S
Co376 N387 1.995 . S
Co376 N392 2.282 . S
Co376 N398 2.282 . S
N377 Co376 1.995 . S
N377 C378 1.376 . S
N377 C381 1.383 . S
C378 N377 1.376 . S
C378 C379 1.446 . S
C378 C408 1.391 . S
C379 C378 1.446 . S
C379 C380 1.339 . S
C379 H414 0.949 . S
C380 C379 1.339 . S
C380 C381 1.439 . S
C380 H415 0.950 . S
C381 N377 1.383 . S
C381 C380 1.439 . S
C381 C410 1.392 . S
N382 Co376 2.008 . S
N382 C383 1.376 . S
N382 C386 1.374 . S
C383 N382 1.376 . S
C383 C384 1.443 . S
C383 C410 1.389 . S
C384 C383 1.443 . S
C384 C385 1.340 . S
C384 H416 0.951 . S
C385 C384 1.340 . S
C385 C386 1.439 . S
C385 H417 0.950 . S
C386 N382 1.374 . S
C386 C385 1.439 . S
C386 C411 1.395 . S
N387 Co376 1.995 . S
N387 C388 1.376 . S
N387 C391 1.383 . S
C388 N387 1.376 . S
C388 C389 1.446 . S
C388 C411 1.391 . S
C389 C388 1.446 . S
C389 C390 1.339 . S
C389 H418 0.949 . S
C390 C389 1.339 . S
C390 C391 1.439 . S
C390 H419 0.950 . S
C391 N387 1.383 . S
C391 C390 1.439 . S
C391 C409 1.392 . S
N392 Co376 2.282 . S
N392 C395 1.332 . S
N392 C397 1.332 . S
C393 C394 1.386 . S
C393 C396 1.388 . S
C394 C393 1.386 . S
C394 C395 1.382 . S
C394 H420 0.950 . S
C395 N392 1.332 . S
C395 C394 1.382 . S
C395 H406 0.952 . S
C396 C393 1.388 . S
C396 C397 1.382 . S
C396 H421 0.950 . S
C397 N392 1.332 . S
C397 C396 1.382 . S
C397 H407 0.948 . S
N398 Co376 2.282 . S
N398 C402 1.332 . S
N398 C403 1.332 . S
C399 C400 1.388 . S
C399 C403 1.382 . S
C399 H422 0.950 . S
C400 C399 1.388 . S
C400 C401 1.386 . S
C401 C400 1.386 . S
C401 C402 1.382 . S
C401 H423 0.950 . S
C402 N398 1.332 . S
C402 C401 1.382 . S
C402 H404 0.952 . S
C403 N398 1.332 . S
C403 C399 1.382 . S
C403 H405 0.948 . S
H404 C402 0.952 . S
H405 C403 0.948 . S
H406 C395 0.952 . S
H407 C397 0.948 . S
C408 C374 1.395 . S
C408 C378 1.391 . S
C409 C371 1.389 . S
C409 C391 1.392 . S
C410 C381 1.392 . S
C410 C383 1.389 . S
C411 C386 1.395 . S
C411 C388 1.391 . S
H412 C372 0.951 . S
H413 C373 0.950 . S
H414 C379 0.949 . S
H415 C380 0.950 . S
H416 C384 0.951 . S
H417 C385 0.950 . S
H418 C389 0.949 . S
H419 C390 0.950 . S
H420 C394 0.950 . S
H421 C396 0.950 . S
H422 C399 0.950 . S
H423 C401 0.950 . S
H424 C430 0.930 . S
H425 C433 0.930 . S
H426 C434 0.930 . S
H427 C435 0.930 . S
H428 C438 0.930 . S
H429 C439 0.930 . S
C430 H424 0.930 . S
C430 C431 1.355 . S
C430 C432 1.415 . S
C431 C430 1.355 . S
C431 C433 1.419 . S
C432 C430 1.415 . S
C432 C437 1.425 . S
C432 C439 1.409 1_556 S
C433 H425 0.930 . S
C433 C431 1.419 . S
C433 C434 1.362 . S
C434 H426 0.930 . S
C434 C433 1.362 . S
C434 C437 1.409 . S
C435 H427 0.930 . S
C435 C436 1.355 1_556 S
C435 C437 1.415 . S
C436 C435 1.355 1_554 S
C436 C438 1.419 . S
C437 C432 1.425 . S
C437 C434 1.409 . S
C437 C435 1.415 . S
C438 H428 0.930 . S
C438 C436 1.419 . S
C438 C439 1.362 . S
C439 H429 0.930 . S
C439 C432 1.409 1_554 S
C439 C438 1.362 . S
H440 C446 0.930 . S
H441 C449 0.930 . S
H442 C450 0.930 . S
H443 C451 0.930 . S
H444 C454 0.930 . S
H445 C455 0.930 . S
C446 H440 0.930 . S
C446 C447 1.355 . S
C446 C448 1.415 . S
C447 C446 1.355 . S
C447 C449 1.419 . S
C448 C446 1.415 . S
C448 C453 1.425 . S
C448 C455 1.409 . S
C449 H441 0.930 . S
C449 C447 1.419 . S
C449 C450 1.362 . S
C450 H442 0.930 . S
C450 C449 1.362 . S
C450 C453 1.409 . S
C451 H443 0.930 . S
C451 C452 1.355 . S
C451 C453 1.415 . S
C452 C451 1.355 . S
C452 C454 1.419 . S
C453 C448 1.425 . S
C453 C450 1.409 . S
C453 C451 1.415 . S
C454 H444 0.930 . S
C454 C452 1.419 . S
C454 C455 1.362 . S
C455 H445 0.930 . S
C455 C448 1.409 . S
C455 C454 1.362 . S
H456 C462 0.930 . S
H457 C465 0.930 . S
H458 C466 0.930 . S
H459 C467 0.930 . S
H460 C470 0.930 . S
H461 C471 0.930 . S
C462 H456 0.930 . S
C462 C463 1.355 . S
C462 C464 1.415 . S
C463 C462 1.355 . S
C463 C465 1.419 . S
C464 C462 1.415 . S
C464 C469 1.425 . S
C464 C471 1.409 1_545 S
C465 H457 0.930 . S
C465 C463 1.419 . S
C465 C466 1.362 . S
C466 H458 0.930 . S
C466 C465 1.362 . S
C466 C469 1.409 . S
C467 H459 0.930 . S
C467 C468 1.355 . S
C467 C469 1.415 1_556 S
C468 C467 1.355 . S
C468 C470 1.419 1_546 S
C469 C464 1.425 . S
C469 C466 1.409 . S
C469 C467 1.415 1_554 S
C470 H460 0.930 . S
C470 C468 1.419 1_564 S
C470 C471 1.362 . S
C471 H461 0.930 . S
C471 C464 1.409 1_565 S
C471 C470 1.362 . S
H472 C478 0.930 . S
H473 C481 0.930 . S
H474 C482 0.930 . S
H475 C483 0.930 . S
H476 C486 0.930 . S
H477 C487 0.930 . S
C478 H472 0.930 . S
C478 C479 1.355 1_545 S
C478 C480 1.415 . S
C479 C478 1.355 1_565 S
C479 C481 1.419 . S
C480 C478 1.415 . S
C480 C485 1.425 1_545 S
C480 C487 1.409 . S
C481 H473 0.930 . S
C481 C479 1.419 . S
C481 C482 1.362 . S
C482 H474 0.930 . S
C482 C481 1.362 . S
C482 C485 1.409 . S
C483 H475 0.930 . S
C483 C484 1.355 . S
C483 C485 1.415 . S
C484 C483 1.355 . S
C484 C486 1.419 1_565 S
C485 C480 1.425 1_565 S
C485 C482 1.409 . S
C485 C483 1.415 . S
C486 H476 0.930 . S
C486 C484 1.419 1_545 S
C486 C487 1.362 . S
C487 H477 0.930 . S
C487 C480 1.409 . S
C487 C486 1.362 . S
H488 C494 0.930 1_565 S
H489 C497 0.930 . S
H490 C498 0.930 . S
H491 C499 0.930 . S
H492 C502 0.930 . S
H493 C503 0.930 . S
C494 H488 0.930 1_545 S
C494 C495 1.355 . S
C494 C496 1.415 . S
C495 C494 1.355 . S
C495 C497 1.419 . S
C496 C494 1.415 . S
C496 C501 1.425 . S
C496 C503 1.409 1_545 S
C497 H489 0.930 . S
C497 C495 1.419 . S
C497 C498 1.362 . S
C498 H490 0.930 . S
C498 C497 1.362 . S
C498 C501 1.409 . S
C499 H491 0.930 . S
C499 C500 1.355 . S
C499 C501 1.415 . S
C500 C499 1.355 . S
C500 C502 1.419 1_545 S
C501 C496 1.425 . S
C501 C498 1.409 . S
C501 C499 1.415 . S
C502 H492 0.930 . S
C502 C500 1.419 1_565 S
C502 C503 1.362 . S
C503 H493 0.930 . S
C503 C496 1.409 1_565 S
C503 C502 1.362 . S
H504 C510 0.930 . S
H505 C513 0.930 . S
H506 C514 0.930 . S
H507 C515 0.930 . S
H508 C518 0.930 . S
H509 C519 0.930 . S
C510 H504 0.930 . S
C510 C511 1.355 . S
C510 C512 1.415 . S
C511 C510 1.355 . S
C511 C513 1.419 . S
C512 C510 1.415 . S
C512 C517 1.425 1_545 S
C512 C519 1.409 . S
C513 H505 0.930 . S
C513 C511 1.419 . S
C513 C514 1.362 1_545 S
C514 H506 0.930 . S
C514 C513 1.362 1_565 S
C514 C517 1.409 . S
C515 H507 0.930 . S
C515 C516 1.355 . S
C515 C517 1.415 . S
C516 C515 1.355 . S
C516 C518 1.419 1_565 S
C517 C512 1.425 1_565 S
C517 C514 1.409 . S
C517 C515 1.415 . S
C518 H508 0.930 . S
C518 C516 1.419 1_545 S
C518 C519 1.362 . S
C519 H509 0.930 . S
C519 C512 1.409 . S
C519 C518 1.362 . S
H520 C526 0.930 . S
H521 C529 0.930 . S
H522 C530 0.930 . S
H523 C531 0.930 . S
H524 C534 0.930 . S
H525 C535 0.930 . S
C526 H520 0.930 . S
C526 C527 1.355 . S
C526 C528 1.415 . S
C527 C526 1.355 . S
C527 C529 1.419 . S
C528 C526 1.415 . S
C528 C533 1.425 . S
C528 C535 1.409 . S
C529 H521 0.930 . S
C529 C527 1.419 . S
C529 C530 1.362 . S
C530 H522 0.930 . S
C530 C529 1.362 . S
C530 C533 1.409 . S
C531 H523 0.930 . S
C531 C532 1.355 . S
C531 C533 1.415 . S
C532 C531 1.355 . S
C532 C534 1.419 . S
C533 C528 1.425 . S
C533 C530 1.409 . S
C533 C531 1.415 . S
C534 H524 0.930 . S
C534 C532 1.419 . S
C534 C535 1.362 . S
C535 H525 0.930 . S
C535 C528 1.409 . S
C535 C534 1.362 . S
H536 C542 0.930 . S
H537 C545 0.930 . S
H538 C546 0.930 . S
H539 C547 0.930 . S
H540 C550 0.930 . S
H541 C551 0.930 . S
C542 H536 0.930 . S
C542 C543 1.355 . S
C542 C544 1.415 . S
C543 C542 1.355 . S
C543 C545 1.419 . S
C544 C542 1.415 . S
C544 C549 1.425 . S
C544 C551 1.409 . S
C545 H537 0.930 . S
C545 C543 1.419 . S
C545 C546 1.362 . S
C546 H538 0.930 . S
C546 C545 1.362 . S
C546 C549 1.409 . S
C547 H539 0.930 . S
C547 C548 1.355 . S
C547 C549 1.415 . S
C548 C547 1.355 . S
C548 C550 1.419 . S
C549 C544 1.425 . S
C549 C546 1.409 . S
C549 C547 1.415 . S
C550 H540 0.930 . S
C550 C548 1.419 . S
C550 C551 1.362 . S
C551 H541 0.930 . S
C551 C544 1.409 . S
C551 C550 1.362 . S
H552 C558 0.930 . S
H553 C561 0.930 . S
H554 C562 0.930 . S
H555 C563 0.939 . S
H556 C566 0.930 . S
H557 C567 0.930 . S
C558 H552 0.930 . S
C558 C559 1.355 . S
C558 C560 1.415 . S
C559 C558 1.355 . S
C559 C561 1.419 . S
C560 C558 1.415 . S
C560 C565 1.425 . S
C560 C567 1.409 1_455 S
C561 H553 0.930 . S
C561 C559 1.419 . S
C561 C562 1.362 . S
C562 H554 0.930 . S
C562 C561 1.362 . S
C562 C565 1.409 . S
C563 H555 0.939 . S
C563 C564 1.355 . S
C563 C565 1.415 1_655 S
C564 C563 1.355 . S
C564 C566 1.419 . S
C565 C560 1.425 . S
C565 C562 1.409 . S
C565 C563 1.415 1_455 S
C566 H556 0.930 . S
C566 C564 1.419 . S
C566 C567 1.362 . S
C567 H557 0.930 . S
C567 C560 1.409 1_655 S
C567 C566 1.362 . S
H568 C574 0.930 . S
H569 C577 0.930 . S
H570 C578 0.930 . S
H571 C579 0.930 . S
H572 C582 0.930 . S
H573 C583 0.930 . S
C574 H568 0.930 . S
C574 C575 1.355 . S
C574 C576 1.415 . S
C575 C574 1.355 . S
C575 C577 1.419 . S
C576 C574 1.415 . S
C576 C581 1.425 . S
C576 C583 1.409 . S
C577 H569 0.930 . S
C577 C575 1.419 . S
C577 C578 1.362 . S
C578 H570 0.930 . S
C578 C577 1.362 . S
C578 C581 1.409 . S
C579 H571 0.930 . S
C579 C580 1.355 . S
C579 C581 1.415 . S
C580 C579 1.355 . S
C580 C582 1.419 . S
C581 C576 1.425 . S
C581 C578 1.409 . S
C581 C579 1.415 . S
C582 H572 0.930 . S
C582 C580 1.419 . S
C582 C583 1.362 . S
C583 H573 0.930 . S
C583 C576 1.409 . S
C583 C582 1.362 . S
H584 C590 0.930 . S
H585 C593 0.930 . S
H586 C594 0.930 . S
H587 C595 0.949 . S
H588 C598 0.930 . S
H589 C599 0.930 . S
C590 H584 0.930 . S
C590 C591 1.355 1_655 S
C590 C592 1.415 . S
C591 C590 1.355 1_455 S
C591 C593 1.419 . S
C592 C590 1.415 . S
C592 C597 1.425 1_655 S
C592 C599 1.409 . S
C593 H585 0.930 . S
C593 C591 1.419 . S
C593 C594 1.362 . S
C594 H586 0.930 . S
C594 C593 1.362 . S
C594 C597 1.409 . S
C595 H587 0.949 . S
C595 C596 1.355 . S
C595 C597 1.415 1_655 S
C596 C595 1.355 . S
C596 C598 1.419 . S
C597 C592 1.425 1_455 S
C597 C594 1.409 . S
C597 C595 1.415 1_455 S
C598 H588 0.930 . S
C598 C596 1.419 . S
C598 C599 1.362 . S
C599 H589 0.930 . S
C599 C592 1.409 . S
C599 C598 1.362 . S
H600 C606 0.930 . S
H601 C609 0.930 . S
H602 C610 0.930 . S
H603 C611 0.930 . S
H604 C614 0.930 . S
H605 C615 0.930 . S
C606 H600 0.930 . S
C606 C607 1.355 . S
C606 C608 1.415 . S
C607 C606 1.355 . S
C607 C609 1.419 . S
C608 C606 1.415 . S
C608 C613 1.425 . S
C608 C615 1.409 . S
C609 H601 0.930 . S
C609 C607 1.419 . S
C609 C610 1.362 . S
C610 H602 0.930 . S
C610 C609 1.362 . S
C610 C613 1.409 . S
C611 H603 0.930 . S
C611 C612 1.355 . S
C611 C613 1.415 . S
C612 C611 1.355 . S
C612 C614 1.419 . S
C613 C608 1.425 . S
C613 C610 1.409 . S
C613 C611 1.415 . S
C614 H604 0.930 . S
C614 C612 1.419 . S
C614 C615 1.362 . S
C615 H605 0.930 . S
C615 C608 1.409 . S
C615 C614 1.362 . S
H616 C622 0.930 . S
H617 C625 0.930 . S
H618 C626 0.930 . S
H619 C627 0.930 . S
H620 C630 0.930 1_565 S
H621 C631 0.930 1_455 S
C622 H616 0.930 . S
C622 C623 1.355 . S
C622 C624 1.415 1_455 S
C623 C622 1.355 . S
C623 C625 1.419 1_554 S
C624 C622 1.415 1_655 S
C624 C629 1.425 1_554 S
C624 C631 1.409 . S
C625 H617 0.930 . S
C625 C623 1.419 1_556 S
C625 C626 1.362 1_455 S
C626 H618 0.930 . S
C626 C625 1.362 1_655 S
C626 C629 1.409 . S
C627 H619 0.930 . S
C627 C628 1.355 1_556 S
C627 C629 1.415 . S
C628 C627 1.355 1_554 S
C628 C630 1.419 . S
C629 C624 1.425 1_556 S
C629 C626 1.409 . S
C629 C627 1.415 . S
C630 H620 0.930 1_545 S
C630 C628 1.419 . S
C630 C631 1.362 . S
C631 H621 0.930 1_655 S
C631 C624 1.409 . S
C631 C630 1.362 . S
H632 C638 0.930 . S
H633 C641 0.930 . S
H634 C642 0.930 . S
H635 C643 0.930 . S
H636 C646 0.930 . S
H637 C647 0.930 . S
C638 H632 0.930 . S
C638 C639 1.355 . S
C638 C640 1.415 . S
C639 C638 1.355 . S
C639 C641 1.419 . S
C640 C638 1.415 . S
C640 C645 1.425 . S
C640 C647 1.409 . S
C641 H633 0.930 . S
C641 C639 1.419 . S
C641 C642 1.362 . S
C642 H634 0.930 . S
C642 C641 1.362 . S
C642 C645 1.409 . S
C643 H635 0.930 . S
C643 C644 1.355 . S
C643 C645 1.415 . S
C644 C643 1.355 . S
C644 C646 1.419 . S
C645 C640 1.425 . S
C645 C642 1.409 . S
C645 C643 1.415 . S
C646 H636 0.930 . S
C646 C644 1.419 . S
C646 C647 1.362 . S
C647 H637 0.930 . S
C647 C640 1.409 . S
C647 C646 1.362 . S
H648 C654 0.930 1_554 S
H649 C657 0.930 . S
H650 C658 0.930 . S
H651 C659 0.930 . S
H652 C662 0.930 . S
H653 C663 0.930 . S
C654 H648 0.930 1_556 S
C654 C655 1.355 . S
C654 C656 1.415 . S
C655 C654 1.355 . S
C655 C657 1.419 . S
C656 C654 1.415 . S
C656 C661 1.425 . S
C656 C663 1.409 1_556 S
C657 H649 0.930 . S
C657 C655 1.419 . S
C657 C658 1.362 . S
C658 H650 0.930 . S
C658 C657 1.362 . S
C658 C661 1.409 . S
C659 H651 0.930 . S
C659 C660 1.355 . S
C659 C661 1.415 . S
C660 C659 1.355 . S
C660 C662 1.419 1_556 S
C661 C656 1.425 . S
C661 C658 1.409 . S
C661 C659 1.415 . S
C662 H652 0.930 . S
C662 C660 1.419 1_554 S
C662 C663 1.362 . S
C663 H653 0.930 . S
C663 C656 1.409 1_554 S
C663 C662 1.362 . S
H664 C670 0.930 . S
H665 C673 0.930 . S
H666 C674 0.930 . S
H667 C675 0.930 . S
H668 C678 0.930 . S
H669 C679 0.930 . S
C670 H664 0.930 . S
C670 C671 1.355 . S
C670 C672 1.415 . S
C671 C670 1.355 . S
C671 C673 1.419 . S
C672 C670 1.415 . S
C672 C677 1.425 . S
C672 C679 1.409 1_455 S
C673 H665 0.930 . S
C673 C671 1.419 . S
C673 C674 1.362 . S
C674 H666 0.930 . S
C674 C673 1.362 . S
C674 C677 1.409 . S
C675 H667 0.930 . S
C675 C676 1.355 1_455 S
C675 C677 1.415 . S
C676 C675 1.355 1_655 S
C676 C678 1.419 . S
C677 C672 1.425 . S
C677 C674 1.409 . S
C677 C675 1.415 . S
C678 H668 0.930 . S
C678 C676 1.419 . S
C678 C679 1.362 . S
C679 H669 0.930 . S
C679 C672 1.409 1_655 S
C679 C678 1.362 . S
C431 C75 2.150 . S
C436 C39 2.184 . S
C447 C22 2.002 . S
C452 C92 1.993 . S
C463 C181 2.179 . S
C468 C145 2.217 1_545 S
C479 C128 1.997 . S
C484 C198 1.955 . S
C495 C234 2.087 . S
C500 C304 2.092 . S
C511 C287 1.976 . S
C516 C251 1.999 . S
C527 C340 2.107 . S
C532 C410 2.136 . S
C543 C357 1.956 . S
C548 C393 1.938 . S
C559 C38 1.632 . S
C564 C197 1.646 . S
C575 C91 1.679 . S
C580 C144 1.660 . S
C591 C400 1.581 . S
C596 C241 1.560 . S
C607 C347 1.714 . S
C612 C294 1.728 . S
C623 C29 1.475 . S
C628 C250 1.488 1_554 S
C639 C303 1.634 . S
C644 C82 1.650 . S
C655 C356 1.362 1_556 S
C660 C135 1.354 . S
C671 C409 1.743 . S
C676 C188 1.758 . S
