# Generated by pormake.
# Topology ull, (4)-cn, num edge types: 1
# Building blocks:
#     Node 0, Type 0, BuildingBlock: GALJAG_clean_sbu_0, # of connection points: 4
#     Node 1, Type 0, BuildingBlock: GALJAG_clean_sbu_0, # of connection points: 4
#     Node 2, Type 0, BuildingBlock: GALJAG_clean_sbu_0, # of connection points: 4
#     Node 3, Type 0, BuildingBlock: GALJAG_clean_sbu_0, # of connection points: 4
#     Node 4, Type 0, BuildingBlock: GALJAG_clean_sbu_0, # of connection points: 4
#     Node 5, Type 0, BuildingBlock: GALJAG_clean_sbu_0, # of connection points: 4
#     Node 6, Type 0, BuildingBlock: GALJAG_clean_sbu_0, # of connection points: 4
#     Node 7, Type 0, BuildingBlock: GALJAG_clean_sbu_0, # of connection points: 4
#     Node 8, Type 0, BuildingBlock: GALJAG_clean_sbu_0, # of connection points: 4
#     Node 9, Type 0, BuildingBlock: GALJAG_clean_sbu_0, # of connection points: 4
#     Node 10, Type 0, BuildingBlock: GALJAG_clean_sbu_0, # of connection points: 4
#     Node 11, Type 0, BuildingBlock: GALJAG_clean_sbu_0, # of connection points: 4
#     Node 12, Type 0, BuildingBlock: GALJAG_clean_sbu_0, # of connection points: 4
#     Node 13, Type 0, BuildingBlock: GALJAG_clean_sbu_0, # of connection points: 4
#     Node 14, Type 0, BuildingBlock: GALJAG_clean_sbu_0, # of connection points: 4
#     Node 15, Type 0, BuildingBlock: GALJAG_clean_sbu_0, # of connection points: 4
#     Node 16, Type 0, BuildingBlock: GALJAG_clean_sbu_0, # of connection points: 4
#     Node 17, Type 0, BuildingBlock: GALJAG_clean_sbu_0, # of connection points: 4
#     Node 18, Type 0, BuildingBlock: GALJAG_clean_sbu_0, # of connection points: 4
#     Node 19, Type 0, BuildingBlock: GALJAG_clean_sbu_0, # of connection points: 4
#     Node 20, Type 0, BuildingBlock: GALJAG_clean_sbu_0, # of connection points: 4
#     Node 21, Type 0, BuildingBlock: GALJAG_clean_sbu_0, # of connection points: 4
#     Node 22, Type 0, BuildingBlock: GALJAG_clean_sbu_0, # of connection points: 4
#     Node 23, Type 0, BuildingBlock: GALJAG_clean_sbu_0, # of connection points: 4
#     Node 24, Type 0, BuildingBlock: GALJAG_clean_sbu_0, # of connection points: 4
#     Node 25, Type 0, BuildingBlock: GALJAG_clean_sbu_0, # of connection points: 4
#     Node 26, Type 0, BuildingBlock: GALJAG_clean_sbu_0, # of connection points: 4
#     Node 27, Type 0, BuildingBlock: GALJAG_clean_sbu_0, # of connection points: 4
#     Node 28, Type 0, BuildingBlock: GALJAG_clean_sbu_0, # of connection points: 4
#     Node 29, Type 0, BuildingBlock: GALJAG_clean_sbu_0, # of connection points: 4
#     Node 30, Type 0, BuildingBlock: GALJAG_clean_sbu_0, # of connection points: 4
#     Node 31, Type 0, BuildingBlock: GALJAG_clean_sbu_0, # of connection points: 4
#     Node 32, Type 0, BuildingBlock: GALJAG_clean_sbu_0, # of connection points: 4
#     Node 33, Type 0, BuildingBlock: GALJAG_clean_sbu_0, # of connection points: 4
#     Node 34, Type 0, BuildingBlock: GALJAG_clean_sbu_0, # of connection points: 4
#     Node 35, Type 0, BuildingBlock: GALJAG_clean_sbu_0, # of connection points: 4
#     Node 36, Type 0, BuildingBlock: GALJAG_clean_sbu_0, # of connection points: 4
#     Node 37, Type 0, BuildingBlock: GALJAG_clean_sbu_0, # of connection points: 4
#     Node 38, Type 0, BuildingBlock: GALJAG_clean_sbu_0, # of connection points: 4
#     Node 39, Type 0, BuildingBlock: GALJAG_clean_sbu_0, # of connection points: 4
#     Node 40, Type 0, BuildingBlock: GALJAG_clean_sbu_0, # of connection points: 4
#     Node 41, Type 0, BuildingBlock: GALJAG_clean_sbu_0, # of connection points: 4
#     Node 42, Type 0, BuildingBlock: GALJAG_clean_sbu_0, # of connection points: 4
#     Node 43, Type 0, BuildingBlock: GALJAG_clean_sbu_0, # of connection points: 4
#     Node 44, Type 0, BuildingBlock: GALJAG_clean_sbu_0, # of connection points: 4
#     Node 45, Type 0, BuildingBlock: GALJAG_clean_sbu_0, # of connection points: 4
#     Node 46, Type 0, BuildingBlock: GALJAG_clean_sbu_0, # of connection points: 4
#     Node 47, Type 0, BuildingBlock: GALJAG_clean_sbu_0, # of connection points: 4
#     Edge 48, Type (0, 0), BuildingBlock: XIVTED_clean_linker_0, # of connection points: 2
#     Edge 49, Type (0, 0), BuildingBlock: XIVTED_clean_linker_0, # of connection points: 2
#     Edge 50, Type (0, 0), BuildingBlock: XIVTED_clean_linker_0, # of connection points: 2
#     Edge 51, Type (0, 0), BuildingBlock: XIVTED_clean_linker_0, # of connection points: 2
#     Edge 52, Type (0, 0), BuildingBlock: XIVTED_clean_linker_0, # of connection points: 2
#     Edge 53, Type (0, 0), BuildingBlock: XIVTED_clean_linker_0, # of connection points: 2
#     Edge 54, Type (0, 0), BuildingBlock: XIVTED_clean_linker_0, # of connection points: 2
#     Edge 55, Type (0, 0), BuildingBlock: XIVTED_clean_linker_0, # of connection points: 2
#     Edge 56, Type (0, 0), BuildingBlock: XIVTED_clean_linker_0, # of connection points: 2
#     Edge 57, Type (0, 0), BuildingBlock: XIVTED_clean_linker_0, # of connection points: 2
#     Edge 58, Type (0, 0), BuildingBlock: XIVTED_clean_linker_0, # of connection points: 2
#     Edge 59, Type (0, 0), BuildingBlock: XIVTED_clean_linker_0, # of connection points: 2
#     Edge 60, Type (0, 0), BuildingBlock: XIVTED_clean_linker_0, # of connection points: 2
#     Edge 61, Type (0, 0), BuildingBlock: XIVTED_clean_linker_0, # of connection points: 2
#     Edge 62, Type (0, 0), BuildingBlock: XIVTED_clean_linker_0, # of connection points: 2
#     Edge 63, Type (0, 0), BuildingBlock: XIVTED_clean_linker_0, # of connection points: 2
#     Edge 64, Type (0, 0), BuildingBlock: XIVTED_clean_linker_0, # of connection points: 2
#     Edge 65, Type (0, 0), BuildingBlock: XIVTED_clean_linker_0, # of connection points: 2
#     Edge 66, Type (0, 0), BuildingBlock: XIVTED_clean_linker_0, # of connection points: 2
#     Edge 67, Type (0, 0), BuildingBlock: XIVTED_clean_linker_0, # of connection points: 2
#     Edge 68, Type (0, 0), BuildingBlock: XIVTED_clean_linker_0, # of connection points: 2
#     Edge 69, Type (0, 0), BuildingBlock: XIVTED_clean_linker_0, # of connection points: 2
#     Edge 70, Type (0, 0), BuildingBlock: XIVTED_clean_linker_0, # of connection points: 2
#     Edge 71, Type (0, 0), BuildingBlock: XIVTED_clean_linker_0, # of connection points: 2
#     Edge 72, Type (0, 0), BuildingBlock: XIVTED_clean_linker_0, # of connection points: 2
#     Edge 73, Type (0, 0), BuildingBlock: XIVTED_clean_linker_0, # of connection points: 2
#     Edge 74, Type (0, 0), BuildingBlock: XIVTED_clean_linker_0, # of connection points: 2
#     Edge 75, Type (0, 0), BuildingBlock: XIVTED_clean_linker_0, # of connection points: 2
#     Edge 76, Type (0, 0), BuildingBlock: XIVTED_clean_linker_0, # of connection points: 2
#     Edge 77, Type (0, 0), BuildingBlock: XIVTED_clean_linker_0, # of connection points: 2
#     Edge 78, Type (0, 0), BuildingBlock: XIVTED_clean_linker_0, # of connection points: 2
#     Edge 79, Type (0, 0), BuildingBlock: XIVTED_clean_linker_0, # of connection points: 2
#     Edge 80, Type (0, 0), BuildingBlock: XIVTED_clean_linker_0, # of connection points: 2
#     Edge 81, Type (0, 0), BuildingBlock: XIVTED_clean_linker_0, # of connection points: 2
#     Edge 82, Type (0, 0), BuildingBlock: XIVTED_clean_linker_0, # of connection points: 2
#     Edge 83, Type (0, 0), BuildingBlock: XIVTED_clean_linker_0, # of connection points: 2
#     Edge 84, Type (0, 0), BuildingBlock: XIVTED_clean_linker_0, # of connection points: 2
#     Edge 85, Type (0, 0), BuildingBlock: XIVTED_clean_linker_0, # of connection points: 2
#     Edge 86, Type (0, 0), BuildingBlock: XIVTED_clean_linker_0, # of connection points: 2
#     Edge 87, Type (0, 0), BuildingBlock: XIVTED_clean_linker_0, # of connection points: 2
#     Edge 88, Type (0, 0), BuildingBlock: XIVTED_clean_linker_0, # of connection points: 2
#     Edge 89, Type (0, 0), BuildingBlock: XIVTED_clean_linker_0, # of connection points: 2
#     Edge 90, Type (0, 0), BuildingBlock: XIVTED_clean_linker_0, # of connection points: 2
#     Edge 91, Type (0, 0), BuildingBlock: XIVTED_clean_linker_0, # of connection points: 2
#     Edge 92, Type (0, 0), BuildingBlock: XIVTED_clean_linker_0, # of connection points: 2
#     Edge 93, Type (0, 0), BuildingBlock: XIVTED_clean_linker_0, # of connection points: 2
#     Edge 94, Type (0, 0), BuildingBlock: XIVTED_clean_linker_0, # of connection points: 2
#     Edge 95, Type (0, 0), BuildingBlock: XIVTED_clean_linker_0, # of connection points: 2
#     Edge 96, Type (0, 0), BuildingBlock: XIVTED_clean_linker_0, # of connection points: 2
#     Edge 97, Type (0, 0), BuildingBlock: XIVTED_clean_linker_0, # of connection points: 2
#     Edge 98, Type (0, 0), BuildingBlock: XIVTED_clean_linker_0, # of connection points: 2
#     Edge 99, Type (0, 0), BuildingBlock: XIVTED_clean_linker_0, # of connection points: 2
#     Edge 100, Type (0, 0), BuildingBlock: XIVTED_clean_linker_0, # of connection points: 2
#     Edge 101, Type (0, 0), BuildingBlock: XIVTED_clean_linker_0, # of connection points: 2
#     Edge 102, Type (0, 0), BuildingBlock: XIVTED_clean_linker_0, # of connection points: 2
#     Edge 103, Type (0, 0), BuildingBlock: XIVTED_clean_linker_0, # of connection points: 2
#     Edge 104, Type (0, 0), BuildingBlock: XIVTED_clean_linker_0, # of connection points: 2
#     Edge 105, Type (0, 0), BuildingBlock: XIVTED_clean_linker_0, # of connection points: 2
#     Edge 106, Type (0, 0), BuildingBlock: XIVTED_clean_linker_0, # of connection points: 2
#     Edge 107, Type (0, 0), BuildingBlock: XIVTED_clean_linker_0, # of connection points: 2
#     Edge 108, Type (0, 0), BuildingBlock: XIVTED_clean_linker_0, # of connection points: 2
#     Edge 109, Type (0, 0), BuildingBlock: XIVTED_clean_linker_0, # of connection points: 2
#     Edge 110, Type (0, 0), BuildingBlock: XIVTED_clean_linker_0, # of connection points: 2
#     Edge 111, Type (0, 0), BuildingBlock: XIVTED_clean_linker_0, # of connection points: 2
#     Edge 112, Type (0, 0), BuildingBlock: XIVTED_clean_linker_0, # of connection points: 2
#     Edge 113, Type (0, 0), BuildingBlock: XIVTED_clean_linker_0, # of connection points: 2
#     Edge 114, Type (0, 0), BuildingBlock: XIVTED_clean_linker_0, # of connection points: 2
#     Edge 115, Type (0, 0), BuildingBlock: XIVTED_clean_linker_0, # of connection points: 2
#     Edge 116, Type (0, 0), BuildingBlock: XIVTED_clean_linker_0, # of connection points: 2
#     Edge 117, Type (0, 0), BuildingBlock: XIVTED_clean_linker_0, # of connection points: 2
#     Edge 118, Type (0, 0), BuildingBlock: XIVTED_clean_linker_0, # of connection points: 2
#     Edge 119, Type (0, 0), BuildingBlock: XIVTED_clean_linker_0, # of connection points: 2
#     Edge 120, Type (0, 0), BuildingBlock: XIVTED_clean_linker_0, # of connection points: 2
#     Edge 121, Type (0, 0), BuildingBlock: XIVTED_clean_linker_0, # of connection points: 2
#     Edge 122, Type (0, 0), BuildingBlock: XIVTED_clean_linker_0, # of connection points: 2
#     Edge 123, Type (0, 0), BuildingBlock: XIVTED_clean_linker_0, # of connection points: 2
#     Edge 124, Type (0, 0), BuildingBlock: XIVTED_clean_linker_0, # of connection points: 2
#     Edge 125, Type (0, 0), BuildingBlock: XIVTED_clean_linker_0, # of connection points: 2
#     Edge 126, Type (0, 0), BuildingBlock: XIVTED_clean_linker_0, # of connection points: 2
#     Edge 127, Type (0, 0), BuildingBlock: XIVTED_clean_linker_0, # of connection points: 2
#     Edge 128, Type (0, 0), BuildingBlock: XIVTED_clean_linker_0, # of connection points: 2
#     Edge 129, Type (0, 0), BuildingBlock: XIVTED_clean_linker_0, # of connection points: 2
#     Edge 130, Type (0, 0), BuildingBlock: XIVTED_clean_linker_0, # of connection points: 2
#     Edge 131, Type (0, 0), BuildingBlock: XIVTED_clean_linker_0, # of connection points: 2
#     Edge 132, Type (0, 0), BuildingBlock: XIVTED_clean_linker_0, # of connection points: 2
#     Edge 133, Type (0, 0), BuildingBlock: XIVTED_clean_linker_0, # of connection points: 2
#     Edge 134, Type (0, 0), BuildingBlock: XIVTED_clean_linker_0, # of connection points: 2
#     Edge 135, Type (0, 0), BuildingBlock: XIVTED_clean_linker_0, # of connection points: 2
#     Edge 136, Type (0, 0), BuildingBlock: XIVTED_clean_linker_0, # of connection points: 2
#     Edge 137, Type (0, 0), BuildingBlock: XIVTED_clean_linker_0, # of connection points: 2
#     Edge 138, Type (0, 0), BuildingBlock: XIVTED_clean_linker_0, # of connection points: 2
#     Edge 139, Type (0, 0), BuildingBlock: XIVTED_clean_linker_0, # of connection points: 2
#     Edge 140, Type (0, 0), BuildingBlock: XIVTED_clean_linker_0, # of connection points: 2
#     Edge 141, Type (0, 0), BuildingBlock: XIVTED_clean_linker_0, # of connection points: 2
#     Edge 142, Type (0, 0), BuildingBlock: XIVTED_clean_linker_0, # of connection points: 2
#     Edge 143, Type (0, 0), BuildingBlock: XIVTED_clean_linker_0, # of connection points: 2
# Relax obj value: 0.015
# Max RMSD: 0.045
# Mean RMSD: 0.045
data_MOF--net-ull--node1-GALJAG_clean_sbu_0--edge1-XIVTED_clean_linker_0
_symmetry_space_group_name_H-M    P1
_symmetry_Int_Tables_number       1
_symmetry_cell_setting            triclinic
loop_
_symmetry_equiv_pos_as_xyz
'x, y, z'
_cell_length_a     61.948209
_cell_length_b     61.938283
_cell_length_c     61.937351
_cell_angle_alpha  89.984773
_cell_angle_beta   90.009651
_cell_angle_gamma 89.981537
loop_
_atom_site_label
_atom_site_type_symbol
_atom_site_fract_x
_atom_site_fract_y
_atom_site_fract_z
_atom_type_partial_charge
In0 In 0.02106 0.35184 0.17838 0.0
O1 O 0.03223 0.32272 0.19819 0.0
O2 O 0.00177 0.33669 0.20565 0.0
C3 C 0.04897 0.34853 0.14534 0.0
C4 C 0.03753 0.3852 0.20097 0.0
C5 C 0.98491 0.35028 0.15431 0.0
O6 O 0.04543 0.33301 0.15815 0.0
O7 O 0.03821 0.36543 0.14908 0.0
O8 O 0.99175 0.36777 0.16234 0.0
O9 O 0.99615 0.33388 0.15865 0.0
C10 C 0.01544 0.32218 0.20974 0.0
O11 O 0.01737 0.3828 0.19888 0.0
O12 O 0.04882 0.37085 0.19207 0.0
In13 In 0.64932 0.02575 0.17566 0.0
O14 O 0.61902 0.02331 0.19711 0.0
O15 O 0.62973 0.05428 0.18688 0.0
C16 C 0.6488 0.98578 0.15847 0.0
C17 C 0.68195 0.0239 0.20453 0.0
C18 C 0.6503 0.05123 0.14035 0.0
O19 O 0.63166 0.99536 0.16408 0.0
O20 O 0.66592 0.99618 0.162 0.0
O21 O 0.66038 0.05594 0.15743 0.0
O22 O 0.6402 0.03357 0.14097 0.0
C23 C 0.6161 0.04351 0.19744 0.0
O24 O 0.68482 0.02959 0.18517 0.0
O25 O 0.66268 0.01947 0.20933 0.0
In26 In 0.97392 0.65302 0.17228 0.0
O27 O 0.97212 0.68813 0.18357 0.0
O28 O 0.98807 0.66526 0.20373 0.0
C29 C 0.94659 0.65235 0.1385 0.0
C30 C 0.95375 0.62429 0.19789 0.0
C31 C 0.01167 0.65179 0.1509 0.0
O32 O 0.94547 0.66667 0.153 0.0
O33 O 0.96147 0.63868 0.14104 0.0
O34 O 0.00395 0.6352 0.16001 0.0
O35 O 0.00059 0.66874 0.1531 0.0
C36 C 0.98224 0.68459 0.20095 0.0
O37 O 0.97316 0.62154 0.19213 0.0
O38 O 0.94497 0.64116 0.19062 0.0
In39 In 0.33812 0.97958 0.17332 0.0
O40 O 0.37224 0.97793 0.18816 0.0
O41 O 0.34615 0.96366 0.20517 0.0
C42 C 0.34118 0.01464 0.14763 0.0
C43 C 0.30189 0.98835 0.19576 0.0
C44 C 0.34006 0.94628 0.14527 0.0
O45 O 0.35114 0.01342 0.1654 0.0
O46 O 0.3301 0.99825 0.14295 0.0
O47 O 0.32252 0.95312 0.15306 0.0
O48 O 0.35667 0.95609 0.15178 0.0
C49 C 0.36609 0.96751 0.20457 0.0
O50 O 0.3053 0.97022 0.18709 0.0
O51 O 0.31667 0.00211 0.19294 0.0
In52 In 0.01245 0.64444 0.82215 0.0
O53 O 0.00553 0.61673 0.79874 0.0
O54 O 0.03755 0.62024 0.8107 0.0
C55 C 0.97389 0.64573 0.84266 0.0
C56 C 0.01134 0.67604 0.79195 0.0
C57 C 0.04223 0.64546 0.85396 0.0
O58 O 0.98219 0.62832 0.83618 0.0
O59 O 0.98491 0.66231 0.83866 0.0
O60 O 0.04259 0.65844 0.83822 0.0
O61 O 0.02683 0.63213 0.85368 0.0
C62 C 0.02471 0.6098 0.79885 0.0
O63 O 0.01684 0.6796 0.81124 0.0
O64 O 0.0068 0.65664 0.78791 0.0
In65 In 0.35461 0.01987 0.8255 0.0
O66 O 0.32666 0.03495 0.80636 0.0
O67 O 0.33328 0.00161 0.8019 0.0
C68 C 0.35526 0.04908 0.85759 0.0
C69 C 0.38881 0.03022 0.80035 0.0
C70 C 0.3521 0.98459 0.85088 0.0
O71 O 0.33953 0.04755 0.84465 0.0
O72 O 0.37035 0.03576 0.85442 0.0
O73 O 0.3692 0.98955 0.84091 0.0
O74 O 0.33647 0.99726 0.84784 0.0
C75 C 0.32156 0.01753 0.7971 0.0
O76 O 0.3811 0.01137 0.80058 0.0
O77 O 0.37923 0.04344 0.81239 0.0
In78 In 0.98282 0.34575 0.82608 0.0
O79 O 0.97253 0.31531 0.80789 0.0
O80 O 0.00166 0.33064 0.79831 0.0
C81 C 0.95416 0.34442 0.85876 0.0
C82 C 0.96718 0.37876 0.80235 0.0
C83 C 0.01893 0.34458 0.85032 0.0
O84 O 0.95746 0.3284 0.84654 0.0
O85 O 0.9655 0.36083 0.85463 0.0
O86 O 0.01242 0.36172 0.84136 0.0
O87 O 0.00736 0.32821 0.84687 0.0
C88 C 0.98865 0.31526 0.79543 0.0
O89 O 0.98715 0.37677 0.80598 0.0
O90 O 0.95556 0.36407 0.81024 0.0
In91 In 0.65566 0.9835 0.82458 0.0
O92 O 0.69042 0.98036 0.81281 0.0
O93 O 0.6677 0.99601 0.79226 0.0
C94 C 0.65674 0.95772 0.85968 0.0
C95 C 0.62879 0.96092 0.79908 0.0
C96 C 0.65174 0.02285 0.84285 0.0
O97 O 0.67327 0.96145 0.84835 0.0
O98 O 0.63981 0.96713 0.85341 0.0
O99 O 0.63562 0.01279 0.83546 0.0
O100 O 0.6695 0.01319 0.84072 0.0
C101 C 0.68687 0.98966 0.79499 0.0
O102 O 0.62481 0.98028 0.80431 0.0
O103 O 0.64599 0.95327 0.80687 0.0
In104 In 0.17196 0.02499 0.34708 0.0
O105 O 0.18799 0.02566 0.38074 0.0
O106 O 0.20359 0.04151 0.35472 0.0
C107 C 0.1469 0.98978 0.35275 0.0
C108 C 0.19191 0.01722 0.30912 0.0
C109 C 0.1436 0.05793 0.34873 0.0
O110 O 0.16701 0.98933 0.35607 0.0
O111 O 0.13959 0.00788 0.3471 0.0
O112 O 0.14945 0.04932 0.33119 0.0
O113 O 0.15225 0.05007 0.36544 0.0
C114 C 0.20383 0.03688 0.37449 0.0
O115 O 0.18462 0.0356 0.31407 0.0
O116 O 0.18878 0.00276 0.3231 0.0
In117 In 0.979 0.1794 0.3521 0.0
O118 O 0.97261 0.19537 0.31964 0.0
O119 O -0.00053 0.20649 0.33805 0.0
C120 C 0.95057 0.14647 0.35155 0.0
C121 C 0.95898 0.20651 0.37953 0.0
C122 C 0.01609 0.15687 0.35285 0.0
O123 O 0.95522 0.15724 0.33487 0.0
O124 O 0.9604 0.1522 0.36845 0.0
O125 O 0.00988 0.1677 0.36905 0.0
O126 O 0.0036 0.15749 0.33679 0.0
C127 C 0.98837 0.20824 0.32103 0.0
O128 O 0.97638 0.19716 0.38481 0.0
O129 O 0.95228 0.20216 0.36083 0.0
In130 In 0.82827 0.98246 0.34191 0.0
O131 O 0.80944 0.97817 0.37366 0.0
O132 O 0.80836 0.95327 0.34989 0.0
C133 C 0.85056 0.0196 0.3454 0.0
C134 C 0.79847 0.99368 0.31234 0.0
C135 C 0.86088 0.95375 0.34051 0.0
O136 O 0.84083 0.01143 0.3614 0.0
O137 O 0.84882 0.00912 0.32806 0.0
O138 O 0.84927 0.9578 0.3242 0.0
O139 O 0.85625 0.96447 0.3572 0.0
C140 C 0.80245 0.9597 0.36829 0.0
O141 O 0.81473 0.98228 0.30761 0.0
O142 O 0.79737 -0.00059 0.33188 0.0
In143 In 0.0218 0.82804 0.342 0.0
O144 O 0.02387 0.81638 0.30702 0.0
O145 O 0.0079 0.79641 0.33004 0.0
C146 C 0.04895 0.86195 0.34326 0.0
C147 C 0.04199 0.80262 0.37088 0.0
C148 C 0.98368 0.84883 0.34264 0.0
O149 O 0.05019 0.84768 0.32872 0.0
O150 O 0.03399 0.85917 0.35678 0.0
O151 O 0.9912 0.83962 0.35927 0.0
O152 O 0.99519 0.84713 0.32592 0.0
C153 C 0.01384 0.79898 0.31072 0.0
O154 O 0.02281 0.80901 0.37394 0.0
O155 O 0.05054 0.80915 0.3536 0.0
In156 In 0.17692 0.98828 0.65594 0.0
O157 O 0.191 0.98026 0.68894 0.0
O158 O 0.20068 0.00973 0.67406 0.0
C159 C 0.14849 0.95541 0.65269 0.0
C160 C 0.20721 0.97508 0.62754 0.0
C161 C 0.15117 0.02338 0.65642 0.0
O162 O 0.15819 0.95981 0.67007 0.0
O163 O 0.15308 0.9676 0.63704 0.0
O164 O 0.1663 0.02132 0.64285 0.0
O165 O 0.14914 0.0078 0.66936 0.0
C166 C 0.20244 0.99713 0.69001 0.0
O167 O 0.19224 0.98777 0.62191 0.0
O168 O 0.20679 0.96955 0.64709 0.0
In169 In 0.0133 0.17371 0.64869 0.0
O170 O 0.0104 0.20527 0.63 0.0
O171 O 0.02264 0.17811 0.61317 0.0
C172 C 0.97812 0.14809 0.64567 0.0
C173 C 0.00924 0.20271 0.68096 0.0
C174 C 0.04693 0.14682 0.6565 0.0
O175 O 0.98912 0.15322 0.6293 0.0
O176 O 0.98473 0.15605 0.66314 0.0
O177 O 0.04874 0.1636 0.64515 0.0
O178 O 0.02847 0.14408 0.66455 0.0
C179 C 0.01814 0.19796 0.61267 0.0
O180 O 0.02731 0.1947 0.67586 0.0
O181 O 0.99355 0.19616 0.66977 0.0
In182 In 0.82902 0.00752 0.64802 0.0
O183 O 0.81007 0.00312 0.61626 0.0
O184 O 0.81505 0.03487 0.62845 0.0
C185 C 0.85202 0.97063 0.65209 0.0
C186 C 0.7984 0.0047 0.67899 0.0
C187 C 0.86096 0.03686 0.64708 0.0
O188 O 0.84075 0.97447 0.63552 0.0
O189 O 0.85129 0.98507 0.66635 0.0
O190 O 0.84643 0.03688 0.66141 0.0
O191 O 0.85949 0.02186 0.63332 0.0
C192 C 0.80725 0.0232 0.61374 0.0
O193 O 0.81621 0.01406 0.68199 0.0
O194 O 0.79597 0.99683 0.66039 0.0
In195 In 0.99276 0.82363 0.65008 0.0
O196 O 0.98698 0.8112 0.68454 0.0
O197 O 0.00044 0.78957 0.66169 0.0
C198 C 0.96062 0.85169 0.65905 0.0
C199 C 0.98102 0.80514 0.6123 0.0
C200 C 0.03083 0.84508 0.64745 0.0
O201 O 0.95711 0.83213 0.65452 0.0
O202 O 0.98031 0.85686 0.65983 0.0
O203 O 0.01829 0.84316 0.63153 0.0
O204 O 0.02443 0.83576 0.66432 0.0
C205 C 0.99425 0.79255 0.68082 0.0
O206 O 0.99581 0.79746 0.62403 0.0
O207 O 0.97298 0.82251 0.61916 0.0
In208 In 0.3547 0.17376 0.01944 0.0
O209 O 0.32566 0.19185 0.03386 0.0
O210 O 0.33416 0.19781 0.00116 0.0
C211 C 0.3465 0.14271 0.04905 0.0
C212 C 0.39088 0.19623 0.02939 0.0
C213 C 0.35734 0.15248 0.98157 0.0
O214 O 0.35102 0.16183 0.0544 0.0
O215 O 0.34553 0.13956 0.029 0.0
O216 O 0.37404 0.1578 0.99204 0.0
O217 O 0.33977 0.15807 0.99013 0.0
C218 C 0.32148 0.20178 0.01654 0.0
O219 O 0.3753 0.20443 0.0192 0.0
O220 O 0.38866 0.17647 0.03366 0.0
In221 In 0.34022 0.82583 0.98051 0.0
O222 O 0.30782 0.8112 0.97094 0.0
O223 O 0.32371 0.79854 0.9987 0.0
C224 C 0.34236 0.86044 0.95424 0.0
C225 C 0.36775 0.79882 0.96049 0.0
C226 C 0.34126 0.84646 0.0187 0.0
O227 O 0.32484 0.85067 0.95797 0.0
O228 O 0.35859 0.85292 0.96398 0.0
O229 O 0.3575 0.83629 0.01159 0.0
O230 O 0.32488 0.84604 0.00661 0.0
C231 C 0.30759 0.79774 0.98626 0.0
O232 O 0.37125 0.80514 0.97961 0.0
O233 O 0.35068 0.806 0.9521 0.0
In234 In 0.17453 0.33994 0.98404 0.0
O235 O 0.18912 0.30671 0.97858 0.0
O236 O 0.20108 0.32541 0.00488 0.0
C237 C 0.14225 0.3406 0.95486 0.0
C238 C 0.20288 0.3665 0.96457 0.0
C239 C 0.1513 0.34296 0.02055 0.0
O240 O 0.15188 0.32337 0.96004 0.0
O241 O 0.14881 0.35728 0.96449 0.0
O242 O 0.16268 0.3585 0.01373 0.0
O243 O 0.15184 0.32619 0.00903 0.0
C244 C 0.20213 0.30804 0.99425 0.0
O245 O 0.19331 0.37198 0.98177 0.0
O246 O 0.19823 0.34791 0.95774 0.0
In247 In 0.64935 0.17529 0.9776 0.0
O248 O 0.61598 0.19142 0.9739 0.0
O249 O 0.64241 0.20306 0.95529 0.0
C250 C 0.64441 0.14979 0.01262 0.0
C251 C 0.68349 0.19951 0.98949 0.0
C252 C 0.6489 0.14765 0.94417 0.0
O253 O 0.63557 0.16813 0.01141 0.0
O254 O 0.65528 0.14448 0.99632 0.0
O255 O 0.66577 0.15762 0.94991 0.0
O256 O 0.6323 0.1517 0.95528 0.0
C257 C 0.62267 0.20473 0.95991 0.0
O258 O 0.68541 0.18342 0.9771 0.0
O259 O 0.66456 0.20297 0.99613 0.0
In260 In 0.82101 0.65438 0.97718 0.0
O261 O 0.80727 0.6198 0.97558 0.0
O262 O 0.78775 0.64569 0.96472 0.0
C263 C 0.84601 0.64848 0.01238 0.0
C264 C 0.80096 0.69248 0.98376 0.0
C265 C 0.84844 0.65386 0.94339 0.0
O266 O 0.82583 0.64568 0.01288 0.0
O267 O 0.85344 0.65381 0.99423 0.0
O268 O 0.8432 0.67109 0.95296 0.0
O269 O 0.83967 0.63701 0.95072 0.0
C270 C 0.78962 0.62563 0.96726 0.0
O271 O 0.80566 0.68566 0.96514 0.0
O272 O 0.80673 0.68028 0.99903 0.0
In273 In 0.65943 0.83346 0.02304 0.0
O274 O 0.69319 0.82012 0.02885 0.0
O275 O 0.6765 0.80998 0.00053 0.0
C276 C 0.65687 0.86239 0.05552 0.0
C277 C 0.63324 0.8018 0.03742 0.0
C278 C 0.657 0.85933 0.98815 0.0
O279 O 0.67437 0.85346 0.05016 0.0
O280 O 0.64073 0.8568 0.04447 0.0
O281 O 0.64203 0.84631 0.99299 0.0
O282 O 0.67285 0.85925 0.00091 0.0
C283 C 0.69337 0.80873 0.01193 0.0
O284 O 0.62736 0.81455 0.02259 0.0
O285 O 0.65195 0.80515 0.04462 0.0
In286 In 0.16641 0.65251 0.01635 0.0
O287 O 0.18807 0.62207 0.01751 0.0
O288 O 0.18578 0.64221 0.0452 0.0
C289 C 0.14451 0.6487 0.97893 0.0
C290 C 0.19442 0.68495 0.00913 0.0
C291 C 0.1328 0.65317 0.04396 0.0
O292 O 0.15333 0.63263 0.98794 0.0
O293 O 0.14697 0.6664 0.98867 0.0
O294 O 0.14278 0.67008 0.03849 0.0
O295 O 0.13945 0.63608 0.03512 0.0
C296 C 0.19373 0.62548 0.03685 0.0
O297 O 0.18089 0.68529 0.02437 0.0
O298 O 0.19375 0.6683 0.99738 0.0
In299 In 0.82947 0.33952 0.02087 0.0
O300 O 0.81742 0.30477 0.02388 0.0
O301 O 0.7982 0.32737 0.00637 0.0
C302 C 0.86259 0.34117 0.04897 0.0
C303 C 0.80259 0.36663 0.04153 0.0
C304 C 0.85077 0.34118 0.98295 0.0
O305 O 0.8515 0.32425 0.04627 0.0
O306 O 0.85713 0.35695 0.03732 0.0
O307 O 0.84143 0.35758 0.99075 0.0
O308 O 0.84901 0.32425 0.99407 0.0
C309 C 0.80031 0.30831 0.01331 0.0
O310 O 0.80937 0.37073 0.02267 0.0
O311 O 0.80947 0.34921 0.04955 0.0
In312 In 0.52432 0.8422 0.66868 0.0
O313 O 0.52618 0.87348 0.68845 0.0
O314 O 0.55306 0.85197 0.68866 0.0
C315 C 0.48632 0.84513 0.64767 0.0
C316 C 0.51599 0.81142 0.6981 0.0
C317 C 0.55223 0.8414 0.63533 0.0
O318 O 0.49552 0.86154 0.65554 0.0
O319 O 0.49611 0.82757 0.65072 0.0
O320 O 0.54847 0.82493 0.64677 0.0
O321 O 0.54185 0.85807 0.64066 0.0
C322 C 0.54498 0.86943 0.69537 0.0
O323 O 0.52656 0.80758 0.68107 0.0
O324 O 0.50956 0.83066 0.70013 0.0
In325 In 0.13966 0.51199 0.67049 0.0
O326 O 0.11592 0.5044 0.69779 0.0
O327 O 0.11176 0.53365 0.68027 0.0
C328 C 0.13823 0.47339 0.64986 0.0
C329 C 0.17308 0.51187 0.69851 0.0
C330 C 0.14239 0.54392 0.64084 0.0
O331 O 0.12153 0.48426 0.65388 0.0
O332 O 0.15545 0.48167 0.65668 0.0
O333 O 0.1538 0.54372 0.65771 0.0
O334 O 0.12999 0.52794 0.63881 0.0
C335 C 0.10529 0.52164 0.69537 0.0
O336 O 0.1758 0.51167 0.67831 0.0
O337 O 0.15363 0.51247 0.70447 0.0
In338 In 0.49 0.14123 0.67405 0.0
O339 O 0.47421 0.16932 0.69247 0.0
O340 O 0.508 0.16452 0.69579 0.0
C341 C 0.45751 0.14571 0.64507 0.0
C342 C 0.484 0.10643 0.69961 0.0
C343 C 0.52697 0.13913 0.65102 0.0
O344 O 0.4549 0.13646 0.66299 0.0
O345 O 0.47624 0.15293 0.64199 0.0
O346 O 0.51894 0.12256 0.6598 0.0
O347 O 0.51635 0.15621 0.65386 0.0
C348 C 0.49172 0.17564 0.70076 0.0
O349 O 0.4808 0.1058 0.67949 0.0
O350 O 0.49125 0.12417 0.70648 0.0
In351 In 0.85575 0.48779 0.6786 0.0
O352 O 0.89096 0.48047 0.68797 0.0
O353 O 0.86797 0.48353 0.71301 0.0
C354 C 0.86562 0.52469 0.65733 0.0
C355 C 0.81783 0.49021 0.69994 0.0
C356 C 0.84941 0.45529 0.65011 0.0
O357 O 0.85917 0.5246 0.67663 0.0
O358 O 0.86774 0.50624 0.64907 0.0
O359 O 0.83683 0.47125 0.65151 0.0
O360 O 0.8649 0.45555 0.66329 0.0
C361 C 0.88718 0.47939 0.70793 0.0
O362 O 0.82919 0.47328 0.69959 0.0
O363 O 0.82528 0.50569 0.68898 0.0
In364 In 0.51585 0.15623 0.33244 0.0
O365 O 0.51493 0.1241 0.31364 0.0
O366 O 0.53672 0.14866 0.30365 0.0
C367 C 0.48047 0.15526 0.35759 0.0
C368 C 0.50568 0.19068 0.30804 0.0
C369 C 0.5477 0.15078 0.36174 0.0
O370 O 0.4848 0.14029 0.3444 0.0
O371 O 0.49393 0.17055 0.35799 0.0
O372 O 0.54547 0.16813 0.35125 0.0
O373 O 0.53389 0.13646 0.35751 0.0
C374 C 0.52938 0.12998 0.30049 0.0
O375 O 0.52205 0.19043 0.32025 0.0
O376 O 0.49432 0.17375 0.30852 0.0
In377 In 0.84123 0.51751 0.33183 0.0
O378 O 0.87233 0.51923 0.31153 0.0
O379 O 0.85024 0.54566 0.31091 0.0
C380 C 0.84233 0.47995 0.35381 0.0
C381 C 0.81012 0.50954 0.30271 0.0
C382 C 0.84258 0.54602 0.3646 0.0
O383 O 0.85906 0.48758 0.3449 0.0
O384 O 0.8255 0.49107 0.35128 0.0
O385 O 0.8254 0.54211 0.35431 0.0
O386 O 0.85885 0.53542 0.35847 0.0
C387 C 0.86775 0.53776 0.30413 0.0
O388 O 0.80682 0.52106 0.31924 0.0
O389 O 0.82896 0.50188 0.30111 0.0
In390 In 0.47716 0.84527 0.32287 0.0
O391 O 0.47293 0.81087 0.31021 0.0
O392 O 0.48859 0.83376 0.28993 0.0
C393 C 0.44989 0.84551 0.35676 0.0
C394 C 0.45751 0.87628 0.29966 0.0
C395 C 0.51578 0.84459 0.34303 0.0
O396 O 0.45053 0.83008 0.34342 0.0
O397 O 0.4633 0.86043 0.35323 0.0
O398 O 0.50814 0.86172 0.33496 0.0
O399 O 0.50409 0.82813 0.34067 0.0
C400 C 0.4821 0.81461 0.29238 0.0
O401 O 0.4776 0.87689 0.30335 0.0
O402 O 0.44783 0.86011 0.30736 0.0
In403 In 0.15611 0.48097 0.33006 0.0
O404 O 0.18628 0.46984 0.31226 0.0
O405 O 0.17778 0.50312 0.31024 0.0
C406 C 0.15398 0.44624 0.35652 0.0
C407 C 0.126 0.47299 0.29948 0.0
C408 C 0.15548 0.51564 0.35646 0.0
O409 O 0.17161 0.45347 0.3494 0.0
O410 O 0.13755 0.45646 0.3503 0.0
O411 O 0.14176 0.51301 0.34162 0.0
O412 O 0.16934 0.50082 0.35797 0.0
C413 C 0.19068 0.48829 0.30475 0.0
O414 O 0.12104 0.48099 0.31755 0.0
O415 O 0.14584 0.46946 0.29694 0.0
In416 In 0.67164 0.51895 0.8408 0.0
O417 O 0.69156 0.51784 0.87222 0.0
O418 O 0.68898 0.54751 0.85507 0.0
C419 C 0.64846 0.48217 0.84086 0.0
C420 C 0.70121 0.51209 0.80957 0.0
C421 C 0.63828 0.54677 0.84114 0.0
O422 O 0.65816 0.48882 0.85754 0.0
O423 O 0.65077 0.49388 0.82437 0.0
O424 O 0.6499 0.54395 0.82459 0.0
O425 O 0.64334 0.53536 0.85724 0.0
C426 C 0.6962 0.53771 0.87137 0.0
O427 O 0.6871 0.52675 0.80822 0.0
O428 O 0.70049 0.50108 0.8267 0.0
In429 In 0.47561 0.67121 0.84188 0.0
O430 O 0.4738 0.6831 0.80713 0.0
O431 O 0.49217 0.70155 0.82967 0.0
C432 C 0.44559 0.63976 0.8423 0.0
C433 C 0.45617 0.69901 0.86891 0.0
C434 C 0.51258 0.64835 0.84316 0.0
O435 O 0.44908 0.65133 0.82587 0.0
O436 O 0.45742 0.64388 0.85835 0.0
O437 O 0.50551 0.65813 0.85964 0.0
O438 O 0.50109 0.65027 0.8265 0.0
C439 C 0.48544 0.69951 0.81052 0.0
O440 O 0.47389 0.69009 0.87388 0.0
O441 O 0.44872 0.69381 0.85069 0.0
In442 In 0.31876 0.4798 0.83919 0.0
O443 O 0.30499 0.47666 0.80517 0.0
O444 O 0.28784 0.496 0.82787 0.0
C445 C 0.3523 0.45214 0.83831 0.0
C446 C 0.29382 0.45834 0.86749 0.0
C447 C 0.34033 0.51748 0.84107 0.0
O448 O 0.34036 0.45525 0.82205 0.0
O449 O 0.34745 0.46315 0.85472 0.0
O450 O 0.3314 0.5094 0.85756 0.0
O451 O 0.33806 0.50672 0.82397 0.0
C452 C 0.28885 0.48859 0.8089 0.0
O453 O 0.30028 0.47736 0.8713 0.0
O454 O 0.29971 0.4507 0.84956 0.0
In455 In 0.5145 0.32695 0.83667 0.0
O456 O 0.5221 0.3111 0.8044 0.0
O457 O 0.49565 0.29873 0.82253 0.0
C458 C 0.54286 0.3599 0.83638 0.0
C459 C 0.53354 0.301 0.86593 0.0
C460 C 0.47772 0.35009 0.83749 0.0
O461 O 0.53861 0.34904 0.81964 0.0
O462 O 0.53255 0.35434 0.85305 0.0
O463 O 0.48487 0.34062 0.85412 0.0
O464 O 0.48899 0.34764 0.82072 0.0
C465 C 0.50702 0.29743 0.80566 0.0
O466 O 0.51423 0.30725 0.86831 0.0
O467 O 0.54262 0.30763 0.84898 0.0
In468 In 0.67231 0.47788 0.15437 0.0
O469 O 0.69297 0.47573 0.12359 0.0
O470 O 0.6917 0.44866 0.14479 0.0
C471 C 0.65165 0.51611 0.15072 0.0
C472 C 0.70104 0.48546 0.18603 0.0
C473 C 0.63867 0.45032 0.15552 0.0
O474 O 0.65922 0.50642 0.13444 0.0
O475 O 0.6549 0.50673 0.16844 0.0
O476 O 0.64957 0.45492 0.17211 0.0
O477 O 0.64465 0.45971 0.13847 0.0
C478 C 0.69913 0.45665 0.12759 0.0
O479 O 0.68377 0.47509 0.18922 0.0
O480 O 0.70374 0.49207 0.16693 0.0
In481 In 0.52016 0.6734 0.14847 0.0
O482 O 0.52175 0.69318 0.117 0.0
O483 O 0.54969 0.69101 0.13698 0.0
C484 C 0.48245 0.6517 0.14709 0.0
C485 C 0.51186 0.70335 0.17889 0.0
C486 C 0.54842 0.64036 0.14973 0.0
O487 O 0.49069 0.65987 0.13028 0.0
O488 O 0.49308 0.65477 0.16415 0.0
O489 O 0.54592 0.65319 0.16541 0.0
O490 O 0.53641 0.644 0.13368 0.0
C491 C 0.54133 0.69831 0.11991 0.0
O492 O 0.5222 0.68624 0.18296 0.0
O493 O 0.5058 0.70534 0.15952 0.0
In494 In 0.32514 0.52018 0.15363 0.0
O495 O 0.31195 0.52808 0.18707 0.0
O496 O 0.29942 0.50042 0.17095 0.0
C497 C 0.3575 0.54926 0.15102 0.0
C498 C 0.2957 0.53775 0.12678 0.0
C499 C 0.34718 0.48269 0.15231 0.0
O500 O 0.34784 0.54506 0.16846 0.0
O501 O 0.35099 0.53864 0.13492 0.0
O502 O 0.33495 0.48851 0.13702 0.0
O503 O 0.34832 0.49582 0.16782 0.0
C504 C 0.29911 0.51225 0.18755 0.0
O505 O 0.30611 0.52097 0.12158 0.0
O506 O 0.30017 0.54518 0.14518 0.0
In507 In 0.47644 0.32487 0.15631 0.0
O508 O 0.46358 0.30528 0.18471 0.0
O509 O 0.49764 0.30638 0.17997 0.0
C510 C 0.44267 0.35274 0.15615 0.0
C511 C 0.46938 0.29595 0.12432 0.0
C512 C 0.51201 0.35007 0.15526 0.0
O513 O 0.45084 0.34546 0.17329 0.0
O514 O 0.45116 0.34561 0.13913 0.0
O515 O 0.50909 0.33488 0.14201 0.0
O516 O 0.49709 0.35247 0.16886 0.0
C517 C 0.48206 0.29948 0.19118 0.0
O518 O 0.47505 0.31515 0.1206 0.0
O519 O 0.46757 0.29133 0.14404 0.0
In520 In 0.85702 0.67676 0.5218 0.0
O521 O 0.82453 0.69128 0.53132 0.0
O522 O 0.83657 0.69763 0.49967 0.0
C523 C 0.86246 0.64841 0.5546 0.0
C524 C 0.88661 0.70775 0.53024 0.0
C525 C 0.85461 0.65049 0.48729 0.0
O526 O 0.84599 0.66033 0.55319 0.0
O527 O 0.87605 0.65101 0.53972 0.0
O528 O 0.86943 0.66437 0.48934 0.0
O529 O 0.84118 0.64992 0.5026 0.0
C530 C 0.82164 0.70044 0.51328 0.0
O531 O 0.8911 0.69136 0.51902 0.0
O532 O 0.86744 0.70847 0.5369 0.0
In533 In 0.83666 0.32725 0.49063 0.0
O534 O 0.80299 0.3134 0.48495 0.0
O535 O 0.82179 0.30002 0.51041 0.0
C536 C 0.83846 0.3586 0.46047 0.0
C537 C 0.8644 0.29939 0.47207 0.0
C538 C 0.83854 0.35134 0.5268 0.0
O539 O 0.8212 0.34869 0.46493 0.0
O540 O 0.85466 0.35289 0.47142 0.0
O541 O 0.85335 0.33817 0.52184 0.0
O542 O 0.82303 0.35213 0.51364 0.0
C543 C 0.80429 0.29965 0.49996 0.0
O544 O 0.86909 0.30897 0.48949 0.0
O545 O 0.84596 0.30371 0.46464 0.0
In546 In 0.67527 0.83694 0.4715 0.0
O547 O 0.69419 0.86895 0.47153 0.0
O548 O 0.69981 0.8462 0.4464 0.0
C549 C 0.6511 0.83856 0.50749 0.0
C550 C 0.70265 0.80477 0.48175 0.0
C551 C 0.64361 0.83869 0.44165 0.0
O552 O 0.66261 0.85435 0.50154 0.0
O553 O 0.65187 0.82226 0.49531 0.0
O554 O 0.65314 0.82128 0.4464 0.0
O555 O 0.65003 0.85502 0.45196 0.0
C556 C 0.70435 0.86434 0.45441 0.0
O557 O 0.69085 0.80414 0.4651 0.0
O558 O 0.7005 0.8215 0.49318 0.0
In559 In 0.15437 0.67501 0.48575 0.0
O560 O 0.18896 0.68753 0.48411 0.0
O561 O 0.16565 0.70629 0.50114 0.0
C562 C 0.15631 0.64122 0.45835 0.0
C563 C 0.12854 0.70172 0.46327 0.0
C564 C 0.14876 0.65421 0.52362 0.0
O565 O 0.17295 0.65164 0.4639 0.0
O566 O 0.13897 0.64776 0.46673 0.0
O567 O 0.13304 0.66171 0.51301 0.0
O568 O 0.16701 0.65763 0.51536 0.0
C569 C 0.18495 0.70444 0.49484 0.0
O570 O 0.12356 0.69536 0.48205 0.0
O571 O 0.14624 0.69453 0.45619 0.0
In572 In 0.32404 0.15379 0.49011 0.0
O573 O 0.30592 0.12142 0.48813 0.0
O574 O 0.30525 0.14269 0.46107 0.0
C575 C 0.34788 0.15178 0.52649 0.0
C576 C 0.29418 0.18413 0.49934 0.0
C577 C 0.35636 0.15502 0.46112 0.0
O578 O 0.3357 0.13639 0.52085 0.0
O579 O 0.34756 0.16788 0.51407 0.0
O580 O 0.34479 0.17132 0.46525 0.0
O581 O 0.35168 0.13823 0.4717 0.0
C582 C 0.29953 0.12483 0.46901 0.0
O583 O 0.31006 0.18778 0.48712 0.0
O584 O 0.29343 0.16526 0.50697 0.0
In585 In 0.14133 0.31935 0.51471 0.0
O586 O 0.17694 0.31071 0.5194 0.0
O587 O 0.15486 0.28509 0.5139 0.0
C588 C 0.1417 0.35178 0.54378 0.0
C589 C 0.10605 0.29668 0.5264 0.0
C590 C 0.14298 0.33815 0.47521 0.0
O591 O 0.15334 0.33516 0.54586 0.0
O592 O 0.13019 0.3521 0.52698 0.0
O593 O 0.12547 0.33215 0.48366 0.0
O594 O 0.15946 0.3342 0.48638 0.0
C595 C 0.17416 0.29067 0.5171 0.0
O596 O 0.1154 0.29355 0.50854 0.0
O597 O 0.11442 0.31111 0.53804 0.0
In598 In 0.68 0.13885 0.51599 0.0
O599 O 0.70013 0.16513 0.53221 0.0
O600 O 0.68996 0.17035 0.49981 0.0
C601 C 0.65278 0.14137 0.55 0.0
C602 C 0.71031 0.10744 0.52042 0.0
C603 C 0.65603 0.13301 0.47988 0.0
O604 O 0.65491 0.15644 0.53647 0.0
O605 O 0.66476 0.12526 0.5467 0.0
O606 O 0.67548 0.13893 0.47916 0.0
O607 O 0.64904 0.12932 0.49859 0.0
C608 C 0.70036 0.17736 0.51588 0.0
O609 O 0.69046 0.10328 0.51896 0.0
O610 O 0.71481 0.12715 0.51862 0.0
In611 In 0.32644 0.85076 0.51947 0.0
O612 O 0.31498 0.81613 0.52432 0.0
O613 O 0.29311 0.83841 0.50995 0.0
C614 C 0.3606 0.84919 0.54635 0.0
C615 C 0.30349 0.88225 0.53882 0.0
C616 C 0.3462 0.85112 0.48055 0.0
O617 O 0.34663 0.83436 0.54558 0.0
O618 O 0.35751 0.86455 0.53332 0.0
O619 O 0.34032 0.86829 0.48982 0.0
O620 O 0.34161 0.83407 0.4906 0.0
C621 C 0.29653 0.81934 0.51629 0.0
O622 O 0.30524 0.88136 0.51848 0.0
O623 O 0.31297 0.86732 0.54889 0.0
H624 H 0.08224 0.46687 0.30428 0.0
H625 H 0.077 0.40193 0.19371 0.0
H626 H 0.13373 0.46348 0.25752 0.0
H627 H 0.02141 0.40897 0.235 0.0
H628 H 0.09621 0.42832 0.21538 0.0
H629 H 0.05791 0.44974 0.27797 0.0
C630 C 0.08828 0.46291 0.28835 0.0
C631 C 0.11007 0.46627 0.28312 0.0
C632 C 0.07975 0.42435 0.21971 0.0
C633 C 0.08256 0.4467 0.25318 0.0
C634 C 0.06879 0.40922 0.20733 0.0
C635 C 0.04773 0.40313 0.21277 0.0
C636 C 0.06978 0.43322 0.23805 0.0
C637 C 0.03771 0.41325 0.23038 0.0
C638 C 0.07444 0.4531 0.27339 0.0
C639 C 0.11713 0.46088 0.26233 0.0
N640 N 0.04899 0.4276 0.24269 0.0
N641 N 0.10349 0.4512 0.24824 0.0
H642 H 0.5896 0.02629 0.22881 0.0
H643 H 0.55008 0.14341 0.26457 0.0
H644 H 0.60389 0.08538 0.19479 0.0
H645 H 0.52794 0.08566 0.29657 0.0
H646 H 0.56741 0.12136 0.23721 0.0
H647 H 0.56453 0.04643 0.25215 0.0
C648 C 0.58723 0.0434 0.22607 0.0
C649 C 0.59901 0.05427 0.21005 0.0
C650 C 0.55865 0.11337 0.25006 0.0
C651 C 0.5706 0.07727 0.23654 0.0
C652 C 0.54877 0.126 0.26573 0.0
C653 C 0.53777 0.11631 0.28293 0.0
C654 C 0.55788 0.09077 0.2517 0.0
C655 C 0.53635 0.09371 0.28353 0.0
C656 C 0.57298 0.05487 0.23939 0.0
C657 C 0.59536 0.0764 0.20713 0.0
N658 N 0.5466 0.08161 0.26826 0.0
N659 N 0.58165 0.08715 0.22032 0.0
H660 H 0.96845 0.58762 0.21873 0.0
H661 H 0.85812 0.57564 0.28467 0.0
H662 H 0.9121 0.62781 0.21056 0.0
H663 H 0.90775 0.52679 0.28753 0.0
H664 H 0.87933 0.59539 0.25846 0.0
H665 H 0.94802 0.56522 0.24453 0.0
C666 C 0.95181 0.59165 0.22226 0.0
C667 C 0.94198 0.60965 0.21258 0.0
C668 C 0.88569 0.58034 0.2647 0.0
C669 C 0.91873 0.58437 0.24194 0.0
C670 C 0.87357 0.56905 0.27978 0.0
C671 C 0.88117 0.54952 0.28831 0.0
C672 C 0.90576 0.57222 0.25802 0.0
C673 C 0.90132 0.5418 0.2813 0.0
C674 C 0.94019 0.5789 0.23695 0.0
C675 C 0.92041 0.61418 0.21769 0.0
N676 N 0.91301 0.55323 0.26654 0.0
N677 N 0.90961 0.60171 0.23202 0.0
H678 H 0.47372 0.90749 0.27231 0.0
H679 H 0.35519 0.95011 0.24319 0.0
H680 H 0.41439 0.88306 0.29939 0.0
H681 H 0.41049 0.9647 0.20344 0.0
H682 H 0.37861 0.93114 0.26834 0.0
H683 H 0.45255 0.93349 0.25082 0.0
C684 C 0.45631 0.90774 0.27386 0.0
C685 C 0.44573 0.89302 0.28746 0.0
C686 C 0.38573 0.93858 0.25421 0.0
C687 C 0.42164 0.92261 0.26331 0.0
C688 C 0.37235 0.94948 0.23986 0.0
C689 C 0.38088 0.95874 0.22107 0.0
C690 C 0.40786 0.93672 0.24974 0.0
C691 C 0.40328 0.95765 0.21771 0.0
C692 C 0.44428 0.9225 0.2616 0.0
C693 C 0.42318 0.89396 0.28893 0.0
N694 N 0.41604 0.94657 0.23182 0.0
N695 N 0.41194 0.90844 0.27701 0.0
H696 H 0.10056 0.51014 0.73764 0.0
H697 H 0.00708 0.5959 0.7609 0.0
H698 H 0.07245 0.54988 0.68781 0.0
H699 H 0.05934 0.58352 0.80524 0.0
H700 H 0.02283 0.56957 0.73573 0.0
H701 H 0.07689 0.52758 0.76425 0.0
C702 C 0.08901 0.52212 0.73224 0.0
C703 C 0.08852 0.52879 0.71061 0.0
C704 C 0.03057 0.57241 0.75115 0.0
C705 C 0.06149 0.5485 0.74072 0.0
C706 C 0.0216 0.58731 0.7655 0.0
C707 C 0.03211 0.59197 0.78499 0.0
C708 C 0.04985 0.56184 0.75664 0.0
C709 C 0.05092 0.5805 0.79022 0.0
C710 C 0.07566 0.53211 0.7474 0.0
C711 C 0.07341 0.54447 0.70441 0.0
N712 N 0.05925 0.56597 0.77607 0.0
N713 N 0.06052 0.5539 0.71944 0.0
H714 H 0.41651 0.06291 0.80848 0.0
H715 H 0.46141 0.06953 0.6899 0.0
H716 H 0.40299 0.01295 0.76194 0.0
H717 H 0.48855 0.10506 0.74331 0.0
H718 H 0.44207 0.0465 0.71565 0.0
H719 H 0.44462 0.07693 0.78491 0.0
C720 C 0.41965 0.05477 0.79331 0.0
C721 C 0.40734 0.03689 0.78701 0.0
C722 C 0.45263 0.05904 0.72171 0.0
C723 C 0.43935 0.05305 0.75969 0.0
C724 C 0.46372 0.07215 0.70703 0.0
C725 C 0.47633 0.08944 0.71449 0.0
C726 C 0.45406 0.06347 0.74392 0.0
C727 C 0.47877 0.0921 0.73684 0.0
C728 C 0.43578 0.06272 0.77988 0.0
C729 C 0.41216 0.02682 0.76731 0.0
N730 N 0.46745 0.07951 0.75073 0.0
N731 N 0.42758 0.03529 0.75409 0.0
H732 H 0.92861 0.46517 0.70075 0.0
H733 H 0.92631 0.3937 0.80556 0.0
H734 H 0.88078 0.47268 0.75085 0.0
H735 H 0.98627 0.40514 0.77207 0.0
H736 H 0.90947 0.42244 0.78469 0.0
H737 H 0.95074 0.44379 0.72577 0.0
C738 C 0.92299 0.46272 0.71712 0.0
C739 C 0.90271 0.47047 0.72367 0.0
C740 C 0.92637 0.41888 0.782 0.0
C741 C 0.92765 0.44583 0.75207 0.0
C742 C 0.93595 0.40236 0.79381 0.0
C743 C 0.95765 0.39699 0.79039 0.0
C744 C 0.93841 0.42987 0.76627 0.0
C745 C 0.96947 0.40884 0.77512 0.0
C746 C 0.9356 0.45051 0.73136 0.0
C747 C 0.8962 0.46684 0.74504 0.0
N748 N 0.95959 0.42458 0.76331 0.0
N749 N 0.90846 0.45449 0.75835 0.0
H750 H 0.5908 0.9728 0.77917 0.0
H751 H 0.58417 0.86187 0.71332 0.0
H752 H 0.63568 0.91987 0.78558 0.0
H753 H 0.53269 0.90883 0.71203 0.0
H754 H 0.6037 0.88436 0.73876 0.0
H755 H 0.56945 0.95092 0.7538 0.0
C756 C 0.5961 0.95659 0.7753 0.0
C757 C 0.61504 0.94813 0.78443 0.0
C758 C 0.58813 0.88983 0.733 0.0
C759 C 0.59093 0.92322 0.75552 0.0
C760 C 0.57696 0.87699 0.71839 0.0
C761 C 0.55676 0.88349 0.71056 0.0
C762 C 0.57913 0.90947 0.73988 0.0
C763 C 0.54824 0.90324 0.71772 0.0
C764 C 0.58394 0.94414 0.76086 0.0
C765 C 0.62121 0.92707 0.77891 0.0
N766 N 0.55951 0.91561 0.732 0.0
N767 N 0.60925 0.91542 0.7648 0.0
H768 H 0.2399 0.05884 0.36314 0.0
H769 H 0.27691 0.08912 0.48313 0.0
H770 H 0.20549 0.03536 0.41898 0.0
H771 H 0.29347 0.12504 0.42577 0.0
H772 H 0.25515 0.06445 0.46069 0.0
H773 H 0.26491 0.07764 0.38682 0.0
C774 C 0.23772 0.05747 0.38044 0.0
C775 C 0.22044 0.04574 0.38911 0.0
C776 C 0.26366 0.07771 0.45312 0.0
C777 C 0.249 0.06747 0.41641 0.0
C778 C 0.27606 0.09172 0.46586 0.0
C779 C 0.28685 0.1092 0.45628 0.0
C780 C 0.26246 0.08111 0.43071 0.0
C781 C 0.28527 0.11189 0.43387 0.0
C782 C 0.25198 0.06828 0.39396 0.0
C783 C 0.21856 0.04436 0.41167 0.0
N784 N 0.27336 0.09801 0.42189 0.0
N785 N 0.23259 0.0553 0.42462 0.0
H786 H 0.90585 0.28681 0.48306 0.0
H787 H 0.92236 0.22797 0.36954 0.0
H788 H 0.85691 0.2794 0.43399 0.0
H789 H 0.96713 0.21794 0.42201 0.0
H790 H 0.90038 0.25033 0.39281 0.0
H791 H 0.93033 0.26423 0.4612 0.0
C792 C 0.90024 0.28037 0.4678 0.0
C793 C 0.87935 0.28503 0.46029 0.0
C794 C 0.91496 0.24327 0.39938 0.0
C795 C 0.90712 0.2596 0.43532 0.0
C796 C 0.92761 0.23051 0.38603 0.0
C797 C 0.94655 0.22094 0.39388 0.0
C798 C 0.92117 0.24666 0.4209 0.0
C799 C 0.95257 0.22499 0.41538 0.0
C800 C 0.91418 0.26754 0.45538 0.0
C801 C 0.87286 0.27632 0.44044 0.0
N802 N 0.93986 0.23757 0.42824 0.0
N803 N 0.88669 0.26417 0.42868 0.0
H804 H 0.71535 0.90616 0.46533 0.0
H805 H 0.78966 0.91871 0.36042 0.0
H806 H 0.7287 0.85569 0.41919 0.0
H807 H 0.7839 0.96961 0.40766 0.0
H808 H 0.76687 0.89591 0.38251 0.0
H809 H 0.74012 0.9301 0.44545 0.0
C810 C 0.72356 0.9001 0.45114 0.0
C811 C 0.7199 0.87896 0.44382 0.0
C812 C 0.77054 0.91203 0.3882 0.0
C813 C 0.74799 0.90608 0.42111 0.0
C814 C 0.78356 0.92512 0.37551 0.0
C815 C 0.78865 0.94613 0.38218 0.0
C816 C 0.76232 0.91991 0.40779 0.0
C817 C 0.78032 0.95349 0.40195 0.0
C818 C 0.73764 0.91374 0.43981 0.0
C819 C 0.73091 0.87189 0.42537 0.0
N820 N 0.76745 0.94039 0.41409 0.0
N821 N 0.74434 0.88541 0.41468 0.0
H822 H 0.02829 0.78507 0.40953 0.0
H823 H 0.13796 0.71809 0.42383 0.0
H824 H 0.08266 0.78737 0.36603 0.0
H825 H 0.08877 0.71924 0.47315 0.0
H826 H 0.11653 0.74271 0.40221 0.0
H827 H 0.04886 0.76041 0.43302 0.0
C828 C 0.04452 0.78044 0.40497 0.0
C829 C 0.05378 0.78823 0.3858 0.0
C830 C 0.11032 0.73767 0.41775 0.0
C831 C 0.07721 0.76016 0.41236 0.0
C832 C 0.12258 0.72354 0.43013 0.0
C833 C 0.11515 0.71661 0.45033 0.0
C834 C 0.09033 0.74502 0.42552 0.0
C835 C 0.09508 0.72423 0.45764 0.0
C836 C 0.05622 0.7664 0.41834 0.0
C837 C 0.07484 0.78176 0.38062 0.0
N838 N 0.08329 0.73806 0.44519 0.0
N839 N 0.08575 0.76812 0.39376 0.0
H840 H 0.20649 0.97359 0.58298 0.0
H841 H 0.30647 0.89212 0.5812 0.0
H842 H 0.24473 0.95562 0.63837 0.0
H843 H 0.27311 0.91081 0.52296 0.0
H844 H 0.28526 0.91806 0.60142 0.0
H845 H 0.23188 0.9537 0.55969 0.0
C846 C 0.22039 0.96577 0.59017 0.0
C847 C 0.22343 0.96602 0.61263 0.0
C848 C 0.28253 0.91668 0.5842 0.0
C849 C 0.25227 0.94332 0.58631 0.0
C850 C 0.29465 0.90178 0.57264 0.0
C851 C 0.29139 0.89917 0.55042 0.0
C852 C 0.26671 0.929 0.57361 0.0
C853 C 0.27604 0.91231 0.54013 0.0
C854 C 0.2348 0.95439 0.57692 0.0
C855 C 0.24161 0.95563 0.62116 0.0
N856 N 0.26404 0.92656 0.55188 0.0
N857 N 0.2552 0.94463 0.60805 0.0
H858 H 0.03913 0.18702 0.57526 0.0
H859 H 0.07705 0.30735 0.55743 0.0
H860 H 0.01225 0.24145 0.60943 0.0
H861 H 0.09381 0.25619 0.51329 0.0
H862 H 0.05024 0.28386 0.57405 0.0
H863 H 0.05599 0.21199 0.54965 0.0
C864 C 0.0364 0.2042 0.57711 0.0
C865 C 0.02457 0.21222 0.59468 0.0
C866 C 0.05951 0.27779 0.56053 0.0
C867 C 0.044 0.24081 0.56569 0.0
C868 C 0.07486 0.2912 0.55107 0.0
C869 C 0.08778 0.28358 0.53415 0.0
C870 C 0.05736 0.25639 0.55334 0.0
C871 C 0.08418 0.26261 0.52638 0.0
C872 C 0.04606 0.21844 0.5625 0.0
C873 C 0.02147 0.23459 0.59627 0.0
N874 N 0.06954 0.24957 0.53631 0.0
N875 N 0.03142 0.2481 0.58218 0.0
H876 H 0.81306 0.06311 0.59717 0.0
H877 H 0.70398 0.06502 0.5318 0.0
H878 H 0.77519 0.00535 0.58863 0.0
H879 H 0.75352 0.11357 0.52542 0.0
H880 H 0.72998 0.0416 0.5504 0.0
H881 H 0.79181 0.08091 0.56933 0.0
C882 C 0.80032 0.05412 0.58925 0.0
C883 C 0.79572 0.03282 0.59528 0.0
C884 C 0.73524 0.0572 0.54452 0.0
C885 C 0.77102 0.0532 0.56351 0.0
C886 C 0.72044 0.07055 0.53387 0.0
C887 C 0.72654 0.09138 0.52734 0.0
C888 C 0.75614 0.0649 0.54881 0.0
C889 C 0.74804 0.09773 0.53041 0.0
C890 C 0.78823 0.06425 0.57327 0.0
C891 C 0.77918 0.02183 0.58439 0.0
N892 N 0.76195 0.08469 0.54121 0.0
N893 N 0.76712 0.03229 0.56923 0.0
H894 H 0.87864 0.74894 0.54277 0.0
H895 H 0.99279 0.76557 0.59614 0.0
H896 H 0.93071 0.70395 0.53216 0.0
H897 H 0.94689 0.81726 0.58735 0.0
H898 H 0.9719 0.74336 0.5709 0.0
H899 H 0.90438 0.77481 0.55749 0.0
C900 C 0.89559 0.74463 0.54333 0.0
C901 C 0.90258 0.72426 0.53643 0.0
C902 C 0.96666 0.75972 0.57418 0.0
C903 C 0.93215 0.75365 0.55359 0.0
C904 C 0.97859 0.7724 0.58855 0.0
C905 C 0.97139 0.79317 0.59405 0.0
C906 C 0.94732 0.76782 0.56553 0.0
C907 C 0.95291 0.80125 0.58375 0.0
C908 C 0.91031 0.75943 0.55167 0.0
C909 C 0.92471 0.71952 0.53737 0.0
N910 N 0.94133 0.78843 0.57027 0.0
N911 N 0.93871 0.73398 0.54619 0.0
H912 H 0.46095 0.30445 0.08176 0.0
H913 H 0.42181 0.18365 0.05819 0.0
H914 H 0.46435 0.2524 0.12793 0.0
H915 H 0.39959 0.23894 0.02205 0.0
H916 H 0.44603 0.20723 0.07858 0.0
H917 H 0.44669 0.27907 0.05487 0.0
C918 C 0.45903 0.28762 0.08611 0.0
C919 C 0.46357 0.28052 0.10713 0.0
C920 C 0.43609 0.21413 0.06595 0.0
C921 C 0.44746 0.25152 0.07657 0.0
C922 C 0.42236 0.20068 0.05423 0.0
C923 C 0.40847 0.20942 0.03861 0.0
C924 C 0.43602 0.23645 0.06195 0.0
C925 C 0.40988 0.23159 0.03412 0.0
C926 C 0.45085 0.2732 0.07081 0.0
C927 C 0.46081 0.25857 0.11196 0.0
N928 N 0.42325 0.24441 0.0459 0.0
N929 N 0.45282 0.24487 0.09683 0.0
H930 H 0.40558 0.77897 0.97376 0.0
H931 H 0.42053 0.72198 0.85863 0.0
H932 H 0.36284 0.78589 0.91913 0.0
H933 H 0.46523 0.71107 0.91097 0.0
H934 H 0.40027 0.74648 0.88128 0.0
H935 H 0.42861 0.75491 0.95191 0.0
C936 C 0.40107 0.77545 0.95723 0.0
C937 C 0.38225 0.78438 0.94825 0.0
C938 C 0.41449 0.73882 0.88797 0.0
C939 C 0.40834 0.75716 0.92335 0.0
C940 C 0.42611 0.72476 0.87497 0.0
C941 C 0.44455 0.71438 0.88295 0.0
C942 C 0.4212 0.74262 0.90929 0.0
C943 C 0.45105 0.71876 0.90424 0.0
C944 C 0.41418 0.76177 0.94481 0.0
C945 C 0.37713 0.77936 0.9268 0.0
N946 N 0.43931 0.73255 0.91677 0.0
N947 N 0.39006 0.76615 0.91517 0.0
H948 H 0.28153 0.41668 0.86279 0.0
H949 H 0.21296 0.4093 0.972 0.0
H950 H 0.27669 0.47043 0.90686 0.0
H951 H 0.22636 0.35591 0.92928 0.0
H952 H 0.2359 0.43251 0.94926 0.0
H953 H 0.2606 0.3948 0.88753 0.0
C954 C 0.27601 0.42392 0.87772 0.0
C955 C 0.28083 0.44543 0.88275 0.0
C956 C 0.23386 0.41568 0.94502 0.0
C957 C 0.25669 0.42029 0.91141 0.0
C958 C 0.22084 0.40245 0.95798 0.0
C959 C 0.21767 0.3807 0.95243 0.0
C960 C 0.24364 0.40699 0.92646 0.0
C961 C 0.22821 0.37261 0.93412 0.0
C962 C 0.26407 0.41136 0.89193 0.0
C963 C 0.27328 0.45389 0.90239 0.0
N964 N 0.24059 0.38574 0.92181 0.0
N965 N 0.26149 0.44128 0.91605 0.0
H966 H 0.63563 0.23679 0.93328 0.0
H967 H 0.51774 0.27914 0.90153 0.0
H968 H 0.57824 0.20885 0.96118 0.0
H969 H 0.57628 0.29231 0.86614 0.0
H970 H 0.53879 0.25659 0.92677 0.0
H971 H 0.61331 0.2612 0.91236 0.0
C972 C 0.61826 0.23585 0.93507 0.0
C973 C 0.60877 0.22061 0.94882 0.0
C974 C 0.54691 0.26449 0.91346 0.0
C975 C 0.58291 0.24857 0.92462 0.0
C976 C 0.53496 0.27733 0.89912 0.0
C977 C 0.54529 0.28752 0.88169 0.0
C978 C 0.56928 0.26216 0.91037 0.0
C979 C 0.5676 0.28469 0.87926 0.0
C980 C 0.60548 0.2498 0.92305 0.0
C981 C 0.58616 0.22033 0.95066 0.0
N982 N 0.57878 0.27236 0.89341 0.0
N983 N 0.57391 0.23405 0.93853 0.0
H984 H 0.69649 0.58072 0.87845 0.0
H985 H 0.79273 0.58152 0.9625 0.0
H986 H 0.72314 0.52114 0.90281 0.0
H987 H 0.74995 0.6354 0.95153 0.0
H988 H 0.76801 0.55834 0.94179 0.0
H989 H 0.71687 0.60058 0.90538 0.0
C990 C 0.70668 0.5718 0.88953 0.0
C991 C 0.70827 0.54927 0.88832 0.0
C992 C 0.76392 0.57516 0.94427 0.0
C993 C 0.73184 0.57201 0.91932 0.0
C994 C 0.77796 0.58835 0.95611 0.0
C995 C 0.77349 0.61046 0.95847 0.0
C996 C 0.74549 0.58427 0.93468 0.0
C997 C 0.75417 0.61852 0.94988 0.0
C998 C 0.71822 0.58315 0.90503 0.0
C999 C 0.72154 0.53854 0.90323 0.0
N1000 N 0.74106 0.60551 0.93817 0.0
N1001 N 0.73309 0.55005 0.91803 0.0
H1002 H 0.52697 0.723 0.08561 0.0
H1003 H 0.64569 0.76942 0.06395 0.0
H1004 H 0.58453 0.70449 0.12024 0.0
H1005 H 0.58955 0.79505 0.03161 0.0
H1006 H 0.62313 0.74267 0.08147 0.0
H1007 H 0.5491 0.74693 0.06276 0.0
C1008 C 0.54423 0.72386 0.08828 0.0
C1009 C 0.55393 0.7119 0.10493 0.0
C1010 C 0.61562 0.75404 0.07052 0.0
C1011 C 0.57917 0.73895 0.079 0.0
C1012 C 0.62855 0.76935 0.06047 0.0
C1013 C 0.61944 0.78461 0.04647 0.0
C1014 C 0.59327 0.75397 0.06675 0.0
C1015 C 0.59716 0.78358 0.04239 0.0
C1016 C 0.55681 0.7375 0.0753 0.0
C1017 C 0.57632 0.71354 0.10774 0.0
N1018 N 0.58473 0.7686 0.05266 0.0
N1019 N 0.5881 0.72681 0.09498 0.0
H1020 H 0.20464 0.62982 0.07884 0.0
H1021 H 0.2853 0.52892 0.08425 0.0
H1022 H 0.21578 0.58888 0.02357 0.0
H1023 H 0.26998 0.57143 0.13729 0.0
H1024 H 0.25976 0.54919 0.06139 0.0
H1025 H 0.22844 0.60733 0.10008 0.0
C1026 C 0.21214 0.61603 0.07113 0.0
C1027 C 0.20825 0.61127 0.04936 0.0
C1028 C 0.262 0.55395 0.07806 0.0
C1029 C 0.23583 0.58517 0.07381 0.0
C1030 C 0.2765 0.54239 0.09109 0.0
C1031 C 0.27982 0.54858 0.11266 0.0
C1032 C 0.25083 0.57169 0.08679 0.0
C1033 C 0.26806 0.56613 0.12074 0.0
C1034 C 0.22578 0.60311 0.08333 0.0
C1035 C 0.2184 0.59311 0.04032 0.0
N1036 N 0.25421 0.57702 0.10783 0.0
N1037 N 0.23184 0.58068 0.05261 0.0
H1038 H 0.71782 0.46886 0.089 0.0
H1039 H 0.78565 0.35908 0.08112 0.0
H1040 H 0.71466 0.41637 0.13473 0.0
H1041 H 0.7852 0.40594 0.02953 0.0
H1042 H 0.76061 0.38138 0.10128 0.0
H1043 H 0.74325 0.44752 0.06712 0.0
C1044 C 0.72244 0.45289 0.0944 0.0
C1045 C 0.71415 0.44437 0.11371 0.0
C1046 C 0.76589 0.3869 0.08555 0.0
C1047 C 0.7431 0.42005 0.08896 0.0
C1048 C 0.78027 0.37414 0.07401 0.0
C1049 C 0.78751 0.38064 0.05358 0.0
C1050 C 0.7586 0.40647 0.07673 0.0
C1051 C 0.77997 0.40034 0.04523 0.0
C1052 C 0.73691 0.44074 0.08193 0.0
C1053 C 0.72063 0.42362 0.11999 0.0
N1054 N 0.76588 0.41262 0.05687 0.0
N1055 N 0.7347 0.41225 0.1077 0.0
H1056 H 0.02607 0.23021 0.31456 0.0
H1057 H 0.97709 0.31076 0.22786 0.0
H1058 H 0.9614 0.22327 0.28965 0.0
H1059 H 0.04507 0.29561 0.22903 0.0
H1060 H 0.97073 0.28247 0.2547 0.0
H1061 H 0.03319 0.2579 0.28711 0.0
C1062 C 0.0134 0.23452 0.30331 0.0
C1063 C 0.99313 0.22449 0.30431 0.0
C1064 C 0.98703 0.28534 0.24905 0.0
C1065 C 0.00103 0.2562 0.27327 0.0
C1066 C 0.99069 0.30153 0.23385 0.0
C1067 C 0.01164 0.30547 0.22625 0.0
C1068 C 0.00449 0.27331 0.257 0.0
C1069 C 0.02867 0.29299 0.23446 0.0
C1070 C 0.01749 0.25022 0.28765 0.0
C1071 C 0.97727 0.23058 0.28935 0.0
N1072 N 0.02475 0.27753 0.24956 0.0
N1073 N 0.98149 0.24621 0.27455 0.0
H1074 H 0.75883 0.01104 0.32031 0.0
H1075 H 0.72535 0.02254 0.19629 0.0
H1076 H 0.80003 0.98984 0.26829 0.0
H1077 H 0.67904 0.01961 0.24824 0.0
H1078 H 0.75443 0.0163 0.22248 0.0
H1079 H 0.73081 0.01998 0.29397 0.0
C1080 C 0.76201 0.00835 0.30332 0.0
C1081 C 0.78173 -0.0004 0.29645 0.0
C1082 C 0.73789 0.0171 0.22811 0.0
C1083 C 0.74982 0.00994 0.26626 0.0
C1084 C 0.72134 0.02077 0.21322 0.0
C1085 C 0.69979 0.02152 0.22015 0.0
C1086 C 0.73284 0.01451 0.25006 0.0
C1087 C 0.69544 0.01904 0.24223 0.0
C1088 C 0.74599 0.0134 0.28832 0.0
C1089 C 0.78499 0.99645 0.27425 0.0
N1090 N 0.71183 0.0157 0.25641 0.0
N1091 N 0.76919 0.00168 0.2599 0.0
H1092 H 0.99474 0.67922 0.24271 0.0
H1093 H 0.0159 0.80368 0.26673 0.0
H1094 H 0.98056 0.72851 0.19554 0.0
H1095 H 0.00173 0.7572 0.31666 0.0
H1096 H 0.00805 0.77599 0.2394 0.0
H1097 H 0.00261 0.70736 0.26921 0.0
C1098 C 0.99332 0.69599 0.23793 0.0
C1099 C 0.98694 0.70159 0.21695 0.0
C1100 C 0.00665 0.77194 0.25636 0.0
C1101 C 0.99611 0.73382 0.24711 0.0
C1102 C 0.0112 0.78765 0.27191 0.0
C1103 C 0.00943 0.78268 0.29394 0.0
C1104 C 0.00071 0.75108 0.26296 0.0
C1105 C 0.00322 0.76172 0.29983 0.0
C1106 C 0.99774 0.71202 0.25307 0.0
C1107 C 0.98533 0.72355 0.21161 0.0
N1108 N 0.99922 0.74665 0.28444 0.0
N1109 N 0.99003 0.73893 0.22658 0.0
H1110 H 0.20786 0.04702 0.2807 0.0
H1111 H 0.27197 0.95947 0.21048 0.0
H1112 H 0.20525 0.97847 0.29288 0.0
H1113 H 0.28857 0.02711 0.21208 0.0
H1114 H 0.24233 0.96659 0.23564 0.0
H1115 H 0.2323 0.04026 0.25036 0.0
C1116 C 0.21222 0.03054 0.27682 0.0
C1117 C 0.20469 0.01328 0.2894 0.0
C1118 C 0.25237 0.97989 0.23035 0.0
C1119 C 0.23256 0.00546 0.25481 0.0
C1120 C 0.26923 0.97586 0.21595 0.0
C1121 C 0.28283 0.99271 0.20936 0.0
C1122 C 0.24899 0.00095 0.23803 0.0
C1123 C 0.27856 0.01363 0.21692 0.0
C1124 C 0.22622 0.02671 0.25958 0.0
C1125 C 0.21083 0.99224 0.28368 0.0
N1126 N 0.26204 0.01716 0.23092 0.0
N1127 N 0.22449 0.98892 0.26684 0.0
H1128 H 0.00587 0.67116 0.74857 0.0
H1129 H 0.98955 0.79685 0.72461 0.0
H1130 H 0.01232 0.71988 0.79794 0.0
H1131 H 0.00336 0.74988 0.67506 0.0
H1132 H 0.99409 0.76859 0.75202 0.0
H1133 H 0.00142 0.6996 0.72159 0.0
C1134 C 0.00641 0.68787 0.75372 0.0
C1135 C 0.00951 0.6932 0.7755 0.0
C1136 C 0.99612 0.76451 0.73514 0.0
C1137 C 0.0042 0.72583 0.74474 0.0
C1138 C 0.99343 0.78058 0.71951 0.0
C1139 C 0.9961 0.77567 0.69756 0.0
C1140 C 0.00124 0.74337 0.72871 0.0
C1141 C 0.0012 0.75436 0.69182 0.0
C1142 C 0.00389 0.70409 0.73831 0.0
C1143 C 0.01006 0.7151 0.78128 0.0
N1144 N 0.00354 0.73899 0.70729 0.0
N1145 N 0.00729 0.73065 0.76599 0.0
H1146 H 0.21516 0.9689 0.72136 0.0
H1147 H 0.2981 0.04995 0.77806 0.0
H1148 H 0.22521 0.034 0.69866 0.0
H1149 H 0.30285 0.98058 0.78245 0.0
H1150 H 0.2675 0.0458 0.75316 0.0
H1151 H 0.24321 0.97447 0.74858 0.0
C1152 C 0.22312 0.98444 0.72226 0.0
C1153 C 0.21795 0.00098 0.70768 0.0
C1154 C 0.27527 0.03153 0.75962 0.0
C1155 C 0.25003 0.00746 0.73875 0.0
C1156 C 0.29267 0.03388 0.77382 0.0
C1157 C 0.30306 0.01558 0.7822 0.0
C1158 C 0.26807 0.01074 0.7541 0.0
C1159 C 0.29539 0.99512 0.77624 0.0
C1160 C 0.2392 0.98757 0.73771 0.0
C1161 C 0.22881 0.02079 0.70954 0.0
N1162 N 0.27832 0.99326 0.76261 0.0
N1163 N 0.24437 0.02349 0.72479 0.0
H1164 H 0.97149 0.2162 0.69894 0.0
H1165 H 0.02498 0.30811 0.77144 0.0
H1166 H 0.04041 0.22559 0.7026 0.0
H1167 H 0.96041 0.28418 0.78186 0.0
H1168 H 0.03049 0.28014 0.74403 0.0
H1169 H 0.96664 0.24322 0.72723 0.0
C1170 C 0.98562 0.22396 0.70573 0.0
C1171 C 0.0064 0.21868 0.69843 0.0
C1172 C 0.01515 0.28098 0.75237 0.0
C1173 C 0.00093 0.24974 0.73071 0.0
C1174 C 0.01195 0.29697 0.76793 0.0
C1175 C 0.99218 0.29846 0.77889 0.0
C1176 C 0.99835 0.26656 0.74754 0.0
C1177 C 0.9759 0.28359 0.7738 0.0
C1178 C 0.98283 0.23933 0.72192 0.0
C1179 C 0.02412 0.22918 0.70782 0.0
N1180 N 0.9793 0.26833 0.7584 0.0
N1181 N 0.02098 0.24434 0.72341 0.0
H1182 H 0.75587 0.9943 0.67412 0.0
H1183 H 0.73066 0.98634 0.79972 0.0
H1184 H 0.80325 0.01092 0.7224 0.0
H1185 H 0.68116 0.99919 0.75241 0.0
H1186 H 0.7581 0.99053 0.77146 0.0
H1187 H 0.72861 0.99113 0.70259 0.0
C1188 C 0.76052 0.99726 0.69072 0.0
C1189 C 0.7818 0.00291 0.69596 0.0
C1190 C 0.74122 0.9925 0.76733 0.0
C1191 C 0.75085 0.99908 0.72851 0.0
C1192 C 0.72559 0.99004 0.78339 0.0
C1193 C 0.70366 0.99247 0.77835 0.0
C1194 C 0.73479 0.99697 0.74606 0.0
C1195 C 0.69792 0.99729 0.75697 0.0
C1196 C 0.74496 0.99553 0.70691 0.0
C1197 C 0.78698 0.00661 0.7177 0.0
N1198 N 0.71339 0.99922 0.74155 0.0
N1199 N 0.77163 0.00448 0.73324 0.0
H1200 H 0.22664 0.30333 0.03072 0.0
H1201 H 0.30334 0.21517 0.97899 0.0
H1202 H 0.21416 0.27438 0.96859 0.0
H1203 H 0.29758 0.22178 0.0481 0.0
H1204 H 0.27296 0.23983 0.9744 0.0
H1205 H 0.25482 0.27622 0.0372 0.0
C1206 C 0.22976 0.2912 0.01851 0.0
C1207 C 0.21814 0.29109 0.99906 0.0
C1208 C 0.27826 0.23582 0.99058 0.0
C1209 C 0.25038 0.2604 0.00624 0.0
C1210 C 0.29566 0.22185 0.99322 0.0
C1211 C 0.30296 0.2165 0.01396 0.0
C1212 C 0.26831 0.24484 0.0088 0.0
C1213 C 0.29237 0.22551 0.03184 0.0
C1214 C 0.24576 0.27574 0.02225 0.0
C1215 C 0.22274 0.27502 0.98381 0.0
N1216 N 0.27564 0.23946 0.02885 0.0
N1217 N 0.23868 0.26046 0.98762 0.0
H1218 H 0.20816 0.71485 0.03833 0.0
H1219 H 0.27905 0.78294 0.95607 0.0
H1220 H 0.21648 0.6947 0.97218 0.0
H1221 H 0.29631 0.77678 0.02327 0.0
H1222 H 0.25066 0.75574 0.96135 0.0
H1223 H 0.2353 0.74311 0.03269 0.0
C1224 C 0.2156 0.71649 0.02259 0.0
C1225 C 0.21018 0.70243 0.0057 0.0
C1226 C 0.26068 0.76043 0.9749 0.0
C1227 C 0.24086 0.73476 0.99912 0.0
C1228 C 0.27675 0.77596 0.97194 0.0
C1229 C 0.29001 0.782 0.98927 0.0
C1230 C 0.25759 0.75134 0.99542 0.0
C1231 C 0.28647 0.77245 0.00949 0.0
C1232 C 0.23111 0.7325 0.01944 0.0
C1233 C 0.22033 0.70517 0.98564 0.0
N1234 N 0.27047 0.75767 0.01206 0.0
N1235 N 0.23513 0.72114 0.98284 0.0
H1236 H 0.7583 0.31493 0.00264 0.0
H1237 H 0.72695 0.1924 0.98451 0.0
H1238 H 0.80411 0.26427 0.01643 0.0
H1239 H 0.68088 0.24024 0.00555 0.0
H1240 H 0.75621 0.21846 0.99104 0.0
H1241 H 0.73017 0.28769 0.99788 0.0
C1242 C 0.76245 0.29804 0.00456 0.0
C1243 C 0.78352 0.29179 0.00996 0.0
C1244 C 0.73968 0.2231 0.99434 0.0
C1245 C 0.75149 0.26061 0.00436 0.0
C1246 C 0.72303 0.20832 0.9906 0.0
C1247 C 0.70151 0.21422 0.99451 0.0
C1248 C 0.73462 0.24399 0.00154 0.0
C1249 C 0.69725 0.23502 0.00239 0.0
C1250 C 0.74638 0.28254 0.00197 0.0
C1251 C 0.78801 0.2697 0.01235 0.0
N1252 N 0.71364 0.24924 0.00541 0.0
N1253 N 0.77212 0.25482 0.00937 0.0
H1254 H 0.79334 0.71309 0.02197 0.0
H1255 H 0.70004 0.78697 0.97417 0.0
H1256 H 0.77918 0.71652 0.95385 0.0
H1257 H 0.72754 0.7972 0.03735 0.0
H1258 H 0.72861 0.76081 0.96642 0.0
H1259 H 0.76915 0.7437 0.02813 0.0
C1260 C 0.78528 0.72043 0.00829 0.0
C1261 C 0.78816 0.71223 0.98739 0.0
C1262 C 0.72852 0.76893 0.9819 0.0
C1263 C 0.7603 0.74703 0.99433 0.0
C1264 C 0.71219 0.7838 0.98635 0.0
C1265 C 0.71139 0.79415 0.00646 0.0
C1266 C 0.74396 0.76416 0.99781 0.0
C1267 C 0.72756 0.78954 0.02164 0.0
C1268 C 0.77151 0.73791 0.0118 0.0
C1269 C 0.77739 0.72236 0.97023 0.0
N1270 N 0.74307 0.7747 0.01709 0.0
N1271 N 0.76373 0.73908 0.9741 0.0
H1272 H 0.48214 0.69448 0.76678 0.0
H1273 H 0.50421 0.81779 0.73995 0.0
H1274 H 0.49999 0.74069 0.81575 0.0
H1275 H 0.51795 0.76748 0.69378 0.0
H1276 H 0.49722 0.7902 0.76735 0.0
H1277 H 0.49007 0.72159 0.73895 0.0
C1278 C 0.48772 0.71033 0.77164 0.0
C1279 C 0.49045 0.71541 0.79354 0.0
C1280 C 0.5018 0.78523 0.75123 0.0
C1281 C 0.4992 0.74638 0.76199 0.0
C1282 C 0.50569 0.80092 0.73558 0.0
C1283 C 0.51168 0.79485 0.71462 0.0
C1284 C 0.50351 0.76332 0.74575 0.0
C1285 C 0.51345 0.77279 0.70981 0.0
C1286 C 0.4923 0.7257 0.7558 0.0
C1287 C 0.49776 0.73612 0.79903 0.0
N1288 N 0.50921 0.75775 0.72525 0.0
N1289 N 0.50171 0.75093 0.78335 0.0
H1290 H 0.25052 0.50952 0.8146 0.0
H1291 H 0.21563 0.50299 0.69033 0.0
H1292 H 0.28955 0.47874 0.7658 0.0
H1293 H 0.17134 0.51729 0.74215 0.0
H1294 H 0.24459 0.49847 0.71694 0.0
H1295 H 0.22291 0.51683 0.78737 0.0
C1296 C 0.2533 0.50435 0.79813 0.0
C1297 C 0.27229 0.49342 0.79245 0.0
C1298 C 0.22854 0.50267 0.72245 0.0
C1299 C 0.24082 0.50182 0.76119 0.0
C1300 C 0.21205 0.50534 0.70728 0.0
C1301 C 0.19107 0.51045 0.71408 0.0
C1302 C 0.22402 0.50533 0.74452 0.0
C1303 C 0.18728 0.51326 0.73623 0.0
C1304 C 0.23752 0.50849 0.7826 0.0
C1305 C 0.27507 0.48712 0.77087 0.0
N1306 N 0.20359 0.51067 0.75066 0.0
N1307 N 0.2595 0.49142 0.75599 0.0
H1308 H 0.47213 0.27075 0.80107 0.0
H1309 H 0.52816 0.19712 0.71236 0.0
H1310 H 0.53387 0.28604 0.77267 0.0
H1311 H 0.45915 0.19708 0.72182 0.0
H1312 H 0.53116 0.22789 0.73679 0.0
H1313 H 0.46747 0.24192 0.77434 0.0
C1314 C 0.48466 0.26808 0.78916 0.0
C1315 C 0.50345 0.28072 0.78908 0.0
C1316 C 0.51534 0.22124 0.73345 0.0
C1317 C 0.49832 0.24775 0.75874 0.0
C1318 C 0.51362 0.20362 0.7196 0.0
C1319 C 0.49337 0.19455 0.71513 0.0
C1320 C 0.49672 0.22965 0.74322 0.0
C1321 C 0.47506 0.20366 0.72485 0.0
C1322 C 0.48195 0.2517 0.7739 0.0
C1323 C 0.51914 0.27666 0.77328 0.0
N1324 N 0.47717 0.22064 0.73863 0.0
N1325 N 0.51631 0.26039 0.75887 0.0
H1326 H 0.79006 0.52448 0.70252 0.0
H1327 H 0.72982 0.47868 0.80689 0.0
H1328 H 0.80193 0.46117 0.72909 0.0
H1329 H 0.70912 0.53609 0.77327 0.0
H1330 H 0.75665 0.47229 0.77871 0.0
H1331 H 0.76037 0.52923 0.72815 0.0
C1332 C 0.78627 0.51149 0.71361 0.0
C1333 C 0.79851 0.49243 0.71374 0.0
C1334 C 0.74619 0.48625 0.77742 0.0
C1335 C 0.76477 0.49784 0.74326 0.0
C1336 C 0.73092 0.48994 0.79355 0.0
C1337 C 0.71729 0.50799 0.79244 0.0
C1338 C 0.748 0.50081 0.76012 0.0
C1339 C 0.71935 0.522 0.77475 0.0
C1340 C 0.76934 0.51422 0.72825 0.0
C1341 C 0.79292 0.47614 0.72845 0.0
N1342 N 0.73451 0.51818 0.75934 0.0
N1343 N 0.77658 0.47929 0.74274 0.0
H1344 H 0.46879 0.19752 0.28493 0.0
H1345 H 0.51986 0.2899 0.21177 0.0
H1346 H 0.53188 0.22447 0.29695 0.0
H1347 H 0.45152 0.27659 0.21336 0.0
H1348 H 0.52501 0.2651 0.2421 0.0
H1349 H 0.46236 0.22558 0.25789 0.0
C1350 C 0.48122 0.20946 0.28199 0.0
C1351 C 0.50092 0.20866 0.29313 0.0
C1352 C 0.50887 0.26772 0.23591 0.0
C1353 C 0.49379 0.24062 0.26205 0.0
C1354 C 0.50593 0.2818 0.21856 0.0
C1355 C 0.48524 0.28522 0.21002 0.0
C1356 C 0.49102 0.25675 0.24458 0.0
C1357 C 0.46774 0.27439 0.21947 0.0
C1358 C 0.47753 0.22548 0.26658 0.0
C1359 C 0.51646 0.22453 0.28872 0.0
N1360 N 0.47105 0.26049 0.23613 0.0
N1361 N 0.51265 0.23975 0.27335 0.0
H1362 H 0.76638 0.51475 0.30622 0.0
H1363 H 0.7433 0.49672 0.18136 0.0
H1364 H 0.81626 0.49608 0.26133 0.0
H1365 H 0.69506 0.48301 0.2297 0.0
H1366 H 0.76983 0.50253 0.21009 0.0
H1367 H 0.7393 0.50888 0.27783 0.0
C1368 C 0.7716 0.50943 0.2904 0.0
C1369 C 0.79353 0.50582 0.28607 0.0
C1370 C 0.75344 0.49824 0.21437 0.0
C1371 C 0.76287 0.49946 0.25365 0.0
C1372 C 0.73829 0.49503 0.19803 0.0
C1373 C 0.71702 0.48934 0.20322 0.0
C1374 C 0.74713 0.49616 0.23604 0.0
C1375 C 0.71136 0.48728 0.22506 0.0
C1376 C 0.75619 0.50603 0.27429 0.0
C1377 C 0.79949 0.49892 0.26535 0.0
N1378 N 0.72632 0.49083 0.24073 0.0
N1379 N 0.78426 0.49613 0.24983 0.0
H1380 H 0.49869 0.7449 0.1726 0.0
H1381 H 0.47957 0.77076 0.29715 0.0
H1382 H 0.51399 0.69908 0.22281 0.0
H1383 H 0.49243 0.82039 0.24998 0.0
H1384 H 0.48655 0.74328 0.26946 0.0
H1385 H 0.49077 0.77199 0.20028 0.0
C1386 C 0.50034 0.74054 0.18946 0.0
C1387 C 0.50707 0.71977 0.19546 0.0
C1388 C 0.48781 0.7602 0.26523 0.0
C1389 C 0.49781 0.75053 0.22712 0.0
C1390 C 0.48374 0.77585 0.28094 0.0
C1391 C 0.48548 0.79784 0.27581 0.0
C1392 C 0.49327 0.76663 0.24418 0.0
C1393 C 0.49101 0.80359 0.25461 0.0
C1394 C 0.49589 0.756 0.20521 0.0
C1395 C 0.50896 0.71497 0.21752 0.0
N1396 N 0.4946 0.78808 0.23953 0.0
N1397 N 0.50423 0.73021 0.23259 0.0
H1398 H 0.27622 0.47557 0.19609 0.0
H1399 H 0.20762 0.52685 0.29156 0.0
H1400 H 0.28876 0.53952 0.22068 0.0
H1401 H 0.21401 0.45804 0.28276 0.0
H1402 H 0.23547 0.53252 0.26405 0.0
H1403 H 0.25123 0.46939 0.22608 0.0
C1404 C 0.27373 0.48829 0.20784 0.0
C1405 C 0.28452 0.5081 0.20592 0.0
C1406 C 0.23089 0.51619 0.26828 0.0
C1407 C 0.25588 0.50121 0.24008 0.0
C1408 C 0.215 0.51294 0.28393 0.0
C1409 C 0.20852 0.49195 0.28939 0.0
C1410 C 0.24007 0.49831 0.25778 0.0
C1411 C 0.21858 0.47449 0.27904 0.0
C1412 C 0.25956 0.48472 0.22497 0.0
C1413 C 0.28078 0.524 0.2216 0.0
N1414 N 0.23371 0.47807 0.26356 0.0
N1415 N 0.26661 0.52029 0.23795 0.0
H1416 H 0.80718 0.71371 0.47387 0.0
H1417 H 0.72277 0.79784 0.52031 0.0
H1418 H 0.79296 0.71798 0.54192 0.0
H1419 H 0.71842 0.7731 0.45534 0.0
H1420 H 0.7504 0.77073 0.52837 0.0
H1421 H 0.77657 0.73757 0.46636 0.0
C1422 C 0.79756 0.71963 0.48722 0.0
C1423 C 0.8026 0.71395 0.50855 0.0
C1424 C 0.74327 0.77114 0.51241 0.0
C1425 C 0.76779 0.74136 0.5001 0.0
C1426 C 0.72758 0.78663 0.50778 0.0
C1427 C 0.71837 0.78771 0.48711 0.0
C1428 C 0.75008 0.75692 0.49614 0.0
C1429 C 0.72511 0.77277 0.47148 0.0
C1430 C 0.78006 0.73315 0.48292 0.0
C1431 C 0.78957 0.72197 0.52525 0.0
N1432 N 0.74075 0.75812 0.47625 0.0
N1433 N 0.77288 0.73548 0.52069 0.0
H1434 H 0.70127 0.2075 0.48365 0.0
H1435 H 0.80214 0.27057 0.53308 0.0
H1436 H 0.72869 0.19287 0.546 0.0
H1437 H 0.76765 0.29205 0.47649 0.0
H1438 H 0.77498 0.24244 0.5385 0.0
H1439 H 0.72487 0.23903 0.48108 0.0
C1440 C 0.71214 0.21104 0.49688 0.0
C1441 C 0.7131 0.1975 0.51502 0.0
C1442 C 0.77324 0.25341 0.52499 0.0
C1443 C 0.74031 0.23343 0.51212 0.0
C1444 C 0.78876 0.26945 0.52188 0.0
C1445 C 0.78719 0.28359 0.50426 0.0
C1446 C 0.75612 0.25135 0.51025 0.0
C1447 C 0.7695 0.28145 0.49027 0.0
C1448 C 0.72561 0.22904 0.49542 0.0
C1449 C 0.72745 0.20286 0.53171 0.0
N1450 N 0.75475 0.26552 0.49347 0.0
N1451 N 0.74063 0.2203 0.52978 0.0
H1452 H 0.30287 0.77577 0.51911 0.0
H1453 H 0.17827 0.74572 0.50852 0.0
H1454 H 0.25336 0.82363 0.50852 0.0
H1455 H 0.22885 0.70118 0.4909 0.0
H1456 H 0.20552 0.77369 0.51452 0.0
H1457 H 0.27572 0.7473 0.5146 0.0
C1458 C 0.28627 0.78027 0.51594 0.0
C1459 C 0.28031 0.80204 0.51413 0.0
C1460 C 0.21063 0.75779 0.50936 0.0
C1461 C 0.24929 0.7697 0.50918 0.0
C1462 C 0.19513 0.74181 0.50603 0.0
C1463 C 0.20135 0.72115 0.49915 0.0
C1464 C 0.23253 0.75296 0.50613 0.0
C1465 C 0.2234 0.71694 0.49611 0.0
C1466 C 0.27085 0.76405 0.51328 0.0
C1467 C 0.25862 0.80702 0.50994 0.0
N1468 N 0.23824 0.73271 0.49972 0.0
N1469 N 0.24385 0.79096 0.50771 0.0
H1470 H 0.17175 0.24677 0.51979 0.0
H1471 H 0.29515 0.22735 0.49032 0.0
H1472 H 0.21738 0.29905 0.51391 0.0
H1473 H 0.25498 0.17791 0.51848 0.0
H1474 H 0.26638 0.25375 0.49666 0.0
H1475 H 0.20156 0.22097 0.51728 0.0
C1476 C 0.18807 0.25281 0.51808 0.0
C1477 C 0.19214 0.27505 0.51701 0.0
C1478 C 0.26394 0.23715 0.50157 0.0
C1479 C 0.22624 0.24568 0.51387 0.0
C1480 C 0.2803 0.22208 0.4979 0.0
C1481 C 0.27739 0.20043 0.50384 0.0
C1482 C 0.24443 0.23042 0.51095 0.0
C1483 C 0.25787 0.19446 0.51366 0.0
C1484 C 0.20507 0.23809 0.5167 0.0
C1485 C 0.21358 0.28202 0.51484 0.0
N1486 N 0.24205 0.20934 0.51674 0.0
N1487 N 0.22983 0.26737 0.51312 0.0
H1488 H 0.07021 0.31288 0.13018 0.0
H1489 H 0.14046 0.37884 0.04408 0.0
H1490 H 0.06393 0.38159 0.12043 0.0
H1491 H 0.13142 0.30981 0.04141 0.0
H1492 H 0.11628 0.3803 0.07541 0.0
H1493 H 0.0965 0.31156 0.10067 0.0
C1494 C 0.07439 0.32767 0.12183 0.0
C1495 C 0.06483 0.34735 0.12764 0.0
C1496 C 0.11967 0.36485 0.06797 0.0
C1497 C 0.09494 0.34601 0.0941 0.0
C1498 C 0.13351 0.36401 0.05019 0.0
C1499 C 0.13783 0.3442 0.04013 0.0
C1500 C 0.11033 0.34571 0.07583 0.0
C1501 C 0.1284 0.32544 0.04863 0.0
C1502 C 0.08935 0.32692 0.10501 0.0
C1503 C 0.07084 0.36606 0.11636 0.0
N1504 N 0.1151 0.32665 0.066 0.0
N1505 N 0.08555 0.36495 0.10015 0.0
H1506 H 0.6393 0.04062 0.09915 0.0
H1507 H 0.63622 0.16116 0.05464 0.0
H1508 H 0.65861 0.0946 0.1387 0.0
H1509 H 0.65 0.10638 0.01392 0.0
H1510 H 0.63732 0.13719 0.08635 0.0
H1511 H 0.6364 0.06491 0.0681 0.0
C1512 C 0.64296 0.05759 0.10127 0.0
C1513 C 0.64935 0.06564 0.12143 0.0
C1514 C 0.64 0.1305 0.07042 0.0
C1515 C 0.64564 0.09349 0.08618 0.0
C1516 C 0.63921 0.14408 0.05239 0.0
C1517 C 0.64307 0.13568 0.03173 0.0
C1518 C 0.6442 0.10839 0.0676 0.0
C1519 C 0.64704 0.11348 0.02961 0.0
C1520 C 0.64131 0.07141 0.08358 0.0
C1521 C 0.65383 0.08776 0.12334 0.0
N1522 N 0.6474 0.10058 0.04732 0.0
N1523 N 0.65175 0.10101 0.10593 0.0
H1524 H 0.95243 0.63095 0.10064 0.0
H1525 H 0.83423 0.65187 0.05486 0.0
H1526 H 0.90665 0.67098 0.13461 0.0
H1527 H 0.88942 0.64223 0.01349 0.0
H1528 H 0.8585 0.65245 0.08629 0.0
H1529 H 0.92731 0.62867 0.07024 0.0
C1530 C 0.93706 0.63924 0.10169 0.0
C1531 C 0.9316 0.65127 0.12006 0.0
C1532 C 0.8652 0.65011 0.07031 0.0
C1533 C 0.90275 0.64842 0.08558 0.0
C1534 C 0.8514 0.64962 0.05245 0.0
C1535 C 0.8599 0.64702 0.03163 0.0
C1536 C 0.88751 0.64754 0.06725 0.0
C1537 C 0.88226 0.64434 0.0293 0.0
C1538 C 0.92279 0.63796 0.08435 0.0
C1539 C 0.91149 0.66169 0.12062 0.0
N1540 N 0.89529 0.64458 0.04691 0.0
N1541 N 0.89767 0.65992 0.10364 0.0
H1542 H 0.30655 0.8633 0.03952 0.0
H1543 H 0.37582 0.92833 0.12641 0.0
H1544 H 0.37576 0.85724 0.04448 0.0
H1545 H 0.30624 0.92513 0.12663 0.0
H1546 H 0.37654 0.90169 0.09718 0.0
H1547 H 0.30642 0.88535 0.07205 0.0
C1548 C 0.32174 0.86654 0.04755 0.0
C1549 C 0.34122 0.85855 0.03924 0.0
C1550 C 0.36113 0.90669 0.10375 0.0
C1551 C 0.34122 0.88397 0.07652 0.0
C1552 C 0.36071 0.9219 0.12042 0.0
C1553 C 0.34092 0.92903 0.12884 0.0
C1554 C 0.34163 0.89872 0.09539 0.0
C1555 C 0.32184 0.92014 0.12054 0.0
C1556 C 0.32166 0.87911 0.06617 0.0
C1557 C 0.3604 0.86314 0.05037 0.0
N1558 N 0.32267 0.90559 0.10418 0.0
N1559 N 0.35995 0.87574 0.06838 0.0
H1560 H 0.07236 0.67657 0.86249 0.0
H1561 H 0.12733 0.61241 0.96026 0.0
H1562 H 0.04951 0.6146 0.88463 0.0
H1563 H 0.13194 0.68148 0.95248 0.0
H1564 H 0.10345 0.61096 0.92864 0.0
H1565 H 0.09897 0.6767 0.89176 0.0
C1566 C 0.073 0.66297 0.87347 0.0
C1567 C 0.05865 0.64562 0.87125 0.0
C1568 C 0.1098 0.62639 0.93384 0.0
C1569 C 0.08912 0.64555 0.90455 0.0
C1570 C 0.12349 0.62721 0.95177 0.0
C1571 C 0.1315 0.6471 0.95902 0.0
C1572 C 0.1044 0.64556 0.92295 0.0
C1573 C 0.12598 0.66582 0.9475 0.0
C1574 C 0.08815 0.66307 0.89017 0.0
C1575 C 0.06019 0.62837 0.88588 0.0
N1576 N 0.1128 0.6646 0.93003 0.0
N1577 N 0.07519 0.62875 0.9019 0.0
H1578 H 0.38904 0.05767 0.88452 0.0
H1579 H 0.32378 0.14379 0.95466 0.0
H1580 H 0.32389 0.07765 0.87001 0.0
H1581 H 0.39182 0.13149 0.96322 0.0
H1582 H 0.32368 0.11985 0.92343 0.0
H1583 H 0.39048 0.08451 0.91338 0.0
C1584 C 0.37503 0.06772 0.88742 0.0
C1585 C 0.35627 0.06538 0.87493 0.0
C1586 C 0.33869 0.12248 0.932 0.0
C1587 C 0.35781 0.09613 0.90793 0.0
C1588 C 0.33876 0.13615 0.94985 0.0
C1589 C 0.35783 0.13953 0.96159 0.0
C1590 C 0.35778 0.11192 0.92592 0.0
C1591 C 0.37677 0.12929 0.9546 0.0
C1592 C 0.3759 0.0831 0.90384 0.0
C1593 C 0.33865 0.07889 0.8793 0.0
N1594 N 0.37624 0.11578 0.9373 0.0
N1595 N 0.33981 0.09362 0.89551 0.0
H1596 H 0.86671 0.30691 0.96055 0.0
H1597 H 0.94074 0.37846 0.88331 0.0
H1598 H 0.8649 0.37654 0.96029 0.0
H1599 H 0.93068 0.31017 0.87393 0.0
H1600 H 0.91397 0.37806 0.91231 0.0
H1601 H 0.8908 0.30772 0.92939 0.0
C1602 C 0.87128 0.32239 0.95382 0.0
C1603 C 0.86386 0.34171 0.96303 0.0
C1604 C 0.91755 0.36318 0.90386 0.0
C1605 C 0.89165 0.34275 0.92748 0.0
C1606 C 0.9329 0.36337 0.88737 0.0
C1607 C 0.93799 0.34428 0.87627 0.0
C1608 C 0.90736 0.34372 0.90944 0.0
C1609 C 0.92726 0.32523 0.88211 0.0
C1610 C 0.88503 0.32284 0.93602 0.0
C1611 C 0.87025 0.36129 0.95364 0.0
N1612 N 0.91253 0.32541 0.89839 0.0
N1613 N 0.88395 0.36132 0.93647 0.0
H1614 H 0.6227 0.86783 0.96143 0.0
H1615 H 0.69182 0.94032 0.88003 0.0
H1616 H 0.68997 0.88296 0.9713 0.0
H1617 H 0.62222 0.94192 0.8821 0.0
H1618 H 0.69177 0.91602 0.9112 0.0
H1619 H 0.62245 0.89179 0.92985 0.0
C1620 C 0.6374 0.87616 0.95692 0.0
C1621 C 0.65637 0.87348 0.96898 0.0
C1622 C 0.67651 0.92173 0.90485 0.0
C1623 C 0.65625 0.90066 0.93295 0.0
C1624 C 0.67654 0.93555 0.88705 0.0
C1625 C 0.657 0.94317 0.87855 0.0
C1626 C 0.6568 0.91529 0.91403 0.0
C1627 C 0.63765 0.93648 0.88824 0.0
C1628 C 0.63724 0.88985 0.93897 0.0
C1629 C 0.67497 0.88464 0.96249 0.0
N1630 N 0.63802 0.92283 0.90543 0.0
N1631 N 0.67447 0.89767 0.94487 0.0
H1632 H 0.12779 0.0786 0.3845 0.0
H1633 H 0.03412 0.13727 0.31807 0.0
H1634 H 0.12108 0.07552 0.31522 0.0
H1635 H 0.04396 0.14764 0.38626 0.0
H1636 H 0.06654 0.11516 0.31701 0.0
H1637 H 0.09794 0.10455 0.3858 0.0
C1638 C 0.12014 0.08352 0.36955 0.0
C1639 C 0.12682 0.07483 0.34972 0.0
C1640 C 0.06174 0.12232 0.33223 0.0
C1641 C 0.09267 0.10433 0.35111 0.0
C1642 C 0.04317 0.13493 0.33286 0.0
C1643 C 0.03628 0.14421 0.35232 0.0
C1644 C 0.07354 0.11875 0.35124 0.0
C1645 C 0.04872 0.14072 0.37093 0.0
C1646 C 0.10312 0.09831 0.37031 0.0
C1647 C 0.1164 0.08175 0.33086 0.0
N1648 N 0.06671 0.12812 0.36997 0.0
N1649 N 0.09977 0.09598 0.33204 0.0
H1650 H 0.93564 0.12296 0.38586 0.0
H1651 H 0.86746 0.04232 0.31192 0.0
H1652 H 0.92972 0.12929 0.31673 0.0
H1653 H 0.86355 0.04199 0.38148 0.0
H1654 H 0.89076 0.07392 0.31365 0.0
H1655 H 0.9099 0.09296 0.38492 0.0
C1656 C 0.92891 0.11804 0.37049 0.0
C1657 C 0.93487 0.12855 0.35132 0.0
C1658 C 0.88475 0.06706 0.32857 0.0
C1659 C 0.90549 0.0943 0.35013 0.0
C1660 C 0.87145 0.04898 0.3276 0.0
C1661 C 0.86362 0.03949 0.34661 0.0
C1662 C 0.89049 0.07569 0.34872 0.0
C1663 C 0.86925 0.04885 0.36645 0.0
C1664 C 0.91418 0.10097 0.36998 0.0
C1665 C 0.9256 0.1216 0.33188 0.0
N1666 N 0.88249 0.06638 0.36701 0.0
N1667 N 0.91146 0.10486 0.33178 0.0
H1668 H 0.87667 0.93093 0.30609 0.0
H1669 H 0.95995 0.86222 0.37753 0.0
H1670 H 0.8841 0.93897 0.3749 0.0
H1671 H 0.96236 0.8655 0.30798 0.0
H1672 H 0.9289 0.88678 0.37711 0.0
H1673 H 0.90523 0.90358 0.30668 0.0
C1674 C 0.88432 0.92693 0.32131 0.0
C1675 C 0.87813 0.9373 0.34044 0.0
C1676 C 0.93618 0.88202 0.36195 0.0
C1677 C 0.91061 0.90596 0.34129 0.0
C1678 C 0.9538 0.86793 0.36218 0.0
C1679 C 0.96377 0.86193 0.34277 0.0
C1680 C 0.92843 0.89 0.34215 0.0
C1681 C 0.95521 0.86983 0.32333 0.0
C1682 C 0.9006 0.91133 0.32164 0.0
C1683 C 0.88849 0.93146 0.35974 0.0
N1684 N 0.93807 0.88348 0.32351 0.0
N1685 N 0.90421 0.91616 0.35968 0.0
H1686 H 0.10353 0.98863 0.35894 0.0
H1687 H 0.08887 0.86636 0.32468 0.0
H1688 H 0.1586 0.94737 0.34825 0.0
H1689 H 0.04313 0.89924 0.36565 0.0
H1690 H 0.11371 0.89707 0.32863 0.0
H1691 H 0.07997 0.957 0.35734 0.0
C1692 C 0.11065 0.97285 0.35642 0.0
C1693 C 0.133 0.97052 0.3538 0.0
C1694 C 0.09825 0.89745 0.33677 0.0
C1695 C 0.10616 0.93443 0.35146 0.0
C1696 C 0.08405 0.88007 0.3344 0.0
C1697 C 0.06395 0.88035 0.34482 0.0
C1698 C 0.09204 0.91532 0.34926 0.0
C1699 C 0.0585 0.8984 0.35736 0.0
C1700 C 0.09722 0.95485 0.35552 0.0
C1701 C 0.14144 0.94976 0.35052 0.0
N1702 N 0.07239 0.91525 0.35909 0.0
N1703 N 0.12795 0.93247 0.34917 0.0
H1704 H 0.0597 0.85145 0.68007 0.0
H1705 H 0.12505 0.94356 0.61721 0.0
H1706 H 0.04624 0.86999 0.61427 0.0
H1707 H 0.13603 0.9268 0.68394 0.0
H1708 H 0.09809 0.91481 0.61483 0.0
H1709 H 0.08986 0.87679 0.68068 0.0
C1710 C 0.06323 0.86072 0.66566 0.0
C1711 C 0.05039 0.8587 0.64712 0.0
C1712 C 0.10645 0.91736 0.62997 0.0
C1713 C 0.08481 0.88791 0.64775 0.0
C1714 C 0.12183 0.93377 0.63135 0.0
C1715 C 0.1327 0.93763 0.65085 0.0
C1716 C 0.1019 0.90471 0.64824 0.0
C1717 C 0.12796 0.92443 0.66862 0.0
C1718 C 0.08042 0.87524 0.66604 0.0
C1719 C 0.05571 0.87109 0.62892 0.0
N1720 N 0.11286 0.90861 0.66691 0.0
N1721 N 0.07244 0.88528 0.62973 0.0
H1722 H 0.11725 0.02985 0.68354 0.0
H1723 H 0.08597 0.14585 0.63571 0.0
H1724 H 0.15254 0.0603 0.63176 0.0
H1725 H 0.04707 0.11056 0.68147 0.0
H1726 H 0.11263 0.11659 0.63649 0.0
H1727 H 0.09334 0.06102 0.68516 0.0
C1728 C 0.11999 0.04314 0.6725 0.0
C1729 C 0.13686 0.04244 0.65741 0.0
C1730 C 0.09833 0.11534 0.64646 0.0
C1731 C 0.10949 0.07832 0.65923 0.0
C1732 C 0.08317 0.13207 0.64611 0.0
C1733 C 0.06426 0.13057 0.65851 0.0
C1734 C 0.09455 0.09706 0.65935 0.0
C1735 C 0.0614 0.11234 0.67162 0.0
C1736 C 0.10631 0.06096 0.67345 0.0
C1737 C 0.13967 0.06016 0.64357 0.0
N1738 N 0.07632 0.09629 0.67163 0.0
N1739 N 0.12608 0.0774 0.64478 0.0
H1740 H 0.94958 0.13953 0.67786 0.0
H1741 H 0.89132 0.04288 0.61557 0.0
H1742 H 0.9648 0.12245 0.61207 0.0
H1743 H 0.86906 0.06883 0.67626 0.0
H1744 H 0.91909 0.07099 0.61421 0.0
H1745 H 0.92052 0.11303 0.67772 0.0
C1746 C 0.94671 0.13025 0.66332 0.0
C1747 C 0.95962 0.13313 0.64496 0.0
C1748 C 0.90809 0.07055 0.62778 0.0
C1749 C 0.92647 0.10258 0.64473 0.0
C1750 C 0.89231 0.05447 0.62862 0.0
C1751 C 0.87794 0.05351 0.6461 0.0
C1752 C 0.90957 0.08565 0.64464 0.0
C1753 C 0.87984 0.06897 0.66251 0.0
C1754 C 0.9301 0.11512 0.66324 0.0
C1755 C 0.95517 0.12072 0.62655 0.0
N1756 N 0.89541 0.08435 0.66142 0.0
N1757 N 0.93902 0.10584 0.62694 0.0
H1758 H 0.96286 0.89163 0.67737 0.0
H1759 H 0.85296 0.93383 0.62724 0.0
H1760 H 0.91904 0.84858 0.64459 0.0
H1761 H 0.88323 0.9641 0.6822 0.0
H1762 H 0.87812 0.90332 0.63089 0.0
H1763 H 0.93494 0.91958 0.67713 0.0
C1764 C 0.94727 0.88802 0.67032 0.0
C1765 C 0.94319 0.8678 0.66103 0.0
C1766 C 0.87907 0.91659 0.64223 0.0
C1767 C 0.91138 0.89977 0.66028 0.0
C1768 C 0.86481 0.934 0.64011 0.0
C1769 C 0.86608 0.9515 0.6544 0.0
C1770 C 0.89489 0.91699 0.65849 0.0
C1771 C 0.88169 0.95092 0.67083 0.0
C1772 C 0.93135 0.90394 0.67019 0.0
C1773 C 0.92275 0.86394 0.65204 0.0
N1774 N 0.89562 0.93407 0.67228 0.0
N1775 N 0.90765 0.8799 0.65163 0.0
H1776 H 0.32465 0.0183 0.10718 0.0
H1777 H 0.35483 0.14309 0.0926 0.0
H1778 H 0.35882 0.05454 0.15588 0.0
H1779 H 0.33297 0.10175 0.04097 0.0
H1780 H 0.35328 0.11216 0.11738 0.0
H1781 H 0.32474 0.04999 0.08393 0.0
C1782 C 0.33221 0.03296 0.11297 0.0
C1783 C 0.3418 0.03379 0.13346 0.0
C1784 C 0.34876 0.10993 0.10064 0.0
C1785 C 0.34186 0.07028 0.10691 0.0
C1786 C 0.34952 0.12757 0.08655 0.0
C1787 C 0.34404 0.12493 0.06472 0.0
C1788 C 0.34232 0.08964 0.09282 0.0
C1789 C 0.33737 0.10449 0.05766 0.0
C1790 C 0.33227 0.05107 0.09967 0.0
C1791 C 0.35134 0.05322 0.14013 0.0
N1792 N 0.33672 0.08766 0.07166 0.0
N1793 N 0.3511 0.07077 0.12689 0.0
H1794 H 0.31586 0.96862 0.87001 0.0
H1795 H 0.37891 0.88063 0.9402 0.0
H1796 H 0.38453 0.95801 0.86504 0.0
H1797 H 0.30955 0.88193 0.93386 0.0
H1798 H 0.38143 0.91055 0.91457 0.0
H1799 H 0.31335 0.93831 0.89512 0.0
C1800 C 0.33041 0.95986 0.87417 0.0
C1801 C 0.35044 0.96581 0.86545 0.0
C1802 C 0.36566 0.90428 0.91876 0.0
C1803 C 0.3477 0.9312 0.89429 0.0
C1804 C 0.3642 0.88726 0.93345 0.0
C1805 C 0.34398 0.87881 0.93915 0.0
C1806 C 0.34675 0.91303 0.90984 0.0
C1807 C 0.32546 0.88797 0.92988 0.0
C1808 C 0.32896 0.94254 0.88849 0.0
C1809 C 0.36877 0.9539 0.87138 0.0
N1810 N 0.32728 0.90463 0.91572 0.0
N1811 N 0.36698 0.93721 0.88553 0.0
H1812 H 0.03754 0.30894 0.86826 0.0
H1813 H 0.122 0.37624 0.93876 0.0
H1814 H 0.04385 0.37822 0.86455 0.0
H1815 H 0.12275 0.30672 0.93421 0.0
H1816 H 0.09281 0.37733 0.91226 0.0
H1817 H 0.06827 0.30779 0.89295 0.0
C1818 C 0.04546 0.32391 0.87259 0.0
C1819 C 0.03813 0.34372 0.8644 0.0
C1820 C 0.09939 0.36183 0.917 0.0
C1821 C 0.07321 0.34254 0.89276 0.0
C1822 C 0.11601 0.3612 0.93217 0.0
C1823 C 0.12475 0.34135 0.93872 0.0
C1824 C 0.09133 0.34247 0.90841 0.0
C1825 C 0.11644 0.32236 0.92961 0.0
C1826 C 0.06302 0.32324 0.88667 0.0
C1827 C 0.049 0.36261 0.8705 0.0
N1828 N 0.10012 0.32339 0.91497 0.0
N1829 N 0.06594 0.36157 0.88442 0.0
H1830 H 0.68293 0.13461 0.91936 0.0
H1831 H 0.61527 0.04388 0.85672 0.0
H1832 H 0.61466 0.12441 0.92876 0.0
H1833 H 0.68473 0.04892 0.85541 0.0
H1834 H 0.61381 0.07655 0.87909 0.0
H1835 H 0.68295 0.10637 0.89184 0.0
C1836 C 0.66791 0.12651 0.91552 0.0
C1837 C 0.64881 0.13171 0.92647 0.0
C1838 C 0.62934 0.07057 0.87374 0.0
C1839 C 0.6487 0.09934 0.89504 0.0
C1840 C 0.63017 0.052 0.86093 0.0
C1841 C 0.65015 0.04362 0.85438 0.0
C1842 C 0.64864 0.08081 0.8799 0.0
C1843 C 0.66898 0.05474 0.86027 0.0
C1844 C 0.66793 0.11037 0.89983 0.0
C1845 C 0.62979 0.12079 0.92079 0.0
N1846 N 0.66777 0.07268 0.87276 0.0
N1847 N 0.63023 0.10501 0.90554 0.0
H1848 H 0.94784 0.61219 0.85496 0.0
H1849 H 0.87013 0.68778 0.92532 0.0
H1850 H 0.95361 0.68154 0.85825 0.0
H1851 H 0.86379 0.61848 0.922 0.0
H1852 H 0.89902 0.68601 0.89852 0.0
H1853 H 0.91533 0.61428 0.87734 0.0
C1854 C 0.94217 0.62786 0.86028 0.0
C1855 C 0.95348 0.64671 0.85488 0.0
C1856 C 0.89123 0.67119 0.90354 0.0
C1857 C 0.91642 0.64924 0.8805 0.0
C1858 C 0.87472 0.67221 0.91882 0.0
C1859 C 0.86467 0.65324 0.92597 0.0
C1860 C 0.89779 0.65105 0.89542 0.0
C1861 C 0.87119 0.63349 0.91698 0.0
C1862 C 0.92363 0.62905 0.87305 0.0
C1863 C 0.94543 0.66659 0.86214 0.0
N1864 N 0.88745 0.63289 0.90227 0.0
N1865 N 0.92747 0.66733 0.87467 0.0
H1866 H 0.6143 0.96303 0.14259 0.0
H1867 H 0.68957 0.87798 0.08068 0.0
H1868 H 0.68377 0.96152 0.1475 0.0
H1869 H 0.6209 0.88334 0.07023 0.0
H1870 H 0.6871 0.90583 0.10851 0.0
H1871 H 0.6157 0.93089 0.11956 0.0
C1872 C 0.62981 0.95577 0.13905 0.0
C1873 C 0.64896 0.96502 0.14681 0.0
C1874 C 0.67254 0.90086 0.10021 0.0
C1875 C 0.65071 0.92844 0.12043 0.0
C1876 C 0.67395 0.88496 0.08432 0.0
C1877 C 0.65544 0.87848 0.07304 0.0
C1878 C 0.65246 0.91035 0.10485 0.0
C1879 C 0.6356 0.88798 0.07846 0.0
C1880 C 0.63062 0.9375 0.12584 0.0
C1881 C 0.66862 0.95499 0.14173 0.0
N1882 N 0.63464 0.90352 0.09392 0.0
N1883 N 0.669 0.93734 0.12876 0.0
H1884 H 0.03487 0.61664 0.13709 0.0
H1885 H 0.11473 0.68791 0.06429 0.0
H1886 H 0.03263 0.68618 0.1334 0.0
H1887 H 0.1114 0.61841 0.06073 0.0
H1888 H 0.08646 0.68744 0.09181 0.0
H1889 H 0.06518 0.61676 0.11161 0.0
C1890 C 0.0409 0.63192 0.13109 0.0
C1891 C 0.0312 0.65142 0.13727 0.0
C1892 C 0.09189 0.67228 0.085 0.0
C1893 C 0.06566 0.6517 0.10812 0.0
C1894 C 0.108 0.67255 0.06927 0.0
C1895 C 0.11533 0.65318 0.06016 0.0
C1896 C 0.08311 0.65247 0.09175 0.0
C1897 C 0.10613 0.63373 0.06727 0.0
C1898 C 0.05811 0.63198 0.11648 0.0
C1899 C 0.03958 0.67076 0.12898 0.0
N1900 N 0.09049 0.63386 0.08267 0.0
N1901 N 0.05627 0.67041 0.1148 0.0
H1902 H 0.96499 0.31395 0.13967 0.0
H1903 H 0.88525 0.3771 0.06052 0.0
H1904 H 0.9615 0.38347 0.13665 0.0
H1905 H 0.8799 0.30891 0.07378 0.0
H1906 H 0.9142 0.37964 0.08719 0.0
H1907 H 0.93464 0.31167 0.11464 0.0
C1908 C 0.95775 0.32875 0.1338 0.0
C1909 C 0.96578 0.34894 0.14019 0.0
C1910 C 0.90666 0.36413 0.08432 0.0
C1911 C 0.93114 0.34644 0.11139 0.0
C1912 C 0.8902 0.36264 0.06903 0.0
C1913 C 0.88022 0.34273 0.06491 0.0
C1914 C 0.91332 0.34554 0.09545 0.0
C1915 C 0.8872 0.32456 0.07646 0.0
C1916 C 0.94041 0.32743 0.11952 0.0
C1917 C 0.95577 0.36759 0.13213 0.0
N1918 N 0.90339 0.32638 0.09115 0.0
N1919 N 0.93904 0.36589 0.11802 0.0
H1920 H 0.63074 0.80456 0.52644 0.0
H1921 H 0.56707 0.87598 0.61243 0.0
H1922 H 0.64056 0.87322 0.53297 0.0
H1923 H 0.57227 0.80665 0.61687 0.0
H1924 H 0.59214 0.87553 0.58191 0.0
H1925 H 0.60744 0.8052 0.5582 0.0
C1926 C 0.62801 0.81978 0.5346 0.0
C1927 C 0.63755 0.83889 0.52707 0.0
C1928 C 0.58786 0.86043 0.58962 0.0
C1929 C 0.61078 0.83974 0.56335 0.0
C1930 C 0.57351 0.86066 0.60697 0.0
C1931 C 0.56757 0.8413 0.61713 0.0
C1932 C 0.59613 0.84068 0.58223 0.0
C1933 C 0.57643 0.82193 0.60949 0.0
C1934 C 0.61476 0.82011 0.55277 0.0
C1935 C 0.63352 0.85813 0.53829 0.0
N1936 N 0.59018 0.82209 0.59239 0.0
N1937 N 0.62031 0.8581 0.55582 0.0
H1938 H 0.17198 0.57656 0.63755 0.0
H1939 H 0.11221 0.63435 0.53856 0.0
H1940 H 0.11379 0.55182 0.60832 0.0
H1941 H 0.17976 0.64343 0.55286 0.0
H1942 H 0.10977 0.60876 0.56872 0.0
H1943 H 0.17248 0.6057 0.61074 0.0
C1944 C 0.1593 0.57731 0.62552 0.0
C1945 C 0.14292 0.5617 0.625 0.0
C1946 C 0.12507 0.61651 0.56532 0.0
C1947 C 0.14323 0.59503 0.59459 0.0
C1948 C 0.12642 0.63119 0.54824 0.0
C1949 C 0.14624 0.64087 0.54318 0.0
C1950 C 0.1436 0.61175 0.57752 0.0
C1951 C 0.16421 0.63617 0.55616 0.0
C1952 C 0.15959 0.5939 0.61026 0.0
C1953 C 0.12682 0.56344 0.60915 0.0
N1954 N 0.16248 0.62191 0.57272 0.0
N1955 N 0.12735 0.57983 0.59458 0.0
H1956 H 0.3496 0.12139 0.55894 0.0
H1957 H 0.45821 0.16953 0.6082 0.0
H1958 H 0.37944 0.18032 0.53677 0.0
H1959 H 0.41807 0.12552 0.64432 0.0
H1960 H 0.43058 0.17125 0.58022 0.0
H1961 H 0.37549 0.12026 0.58907 0.0
C1962 C 0.36151 0.13409 0.56047 0.0
C1963 C 0.36242 0.15095 0.54535 0.0
C1964 C 0.42772 0.16131 0.59432 0.0
C1965 C 0.39203 0.14964 0.5794 0.0
C1966 C 0.44351 0.16029 0.61028 0.0
C1967 C 0.44038 0.14741 0.6286 0.0
C1968 C 0.40872 0.14914 0.59652 0.0
C1969 C 0.42105 0.13572 0.63044 0.0
C1970 C 0.37621 0.13347 0.57764 0.0
C1971 C 0.37813 0.16703 0.54805 0.0
N1972 N 0.40595 0.13674 0.61449 0.0
N1973 N 0.39238 0.16588 0.56462 0.0
H1974 H 0.80845 0.38061 0.53984 0.0
H1975 H 0.87622 0.42111 0.64217 0.0
H1976 H 0.87024 0.35384 0.55773 0.0
H1977 H 0.81717 0.45093 0.62029 0.0
H1978 H 0.87306 0.39447 0.61317 0.0
H1979 H 0.81017 0.4046 0.57097 0.0
C1980 C 0.82238 0.37973 0.55038 0.0
C1981 C 0.83928 0.36527 0.54614 0.0
C1982 C 0.86074 0.40678 0.61478 0.0
C1983 C 0.84138 0.39278 0.58188 0.0
C1984 C 0.86251 0.42196 0.63135 0.0
C1985 C 0.84696 0.4383 0.63358 0.0
C1986 C 0.84329 0.40793 0.60035 0.0
C1987 C 0.82955 0.43865 0.61912 0.0
C1988 C 0.82335 0.39346 0.56817 0.0
C1989 C 0.85689 0.3648 0.56039 0.0
N1990 N 0.82822 0.42373 0.60309 0.0
N1991 N 0.85752 0.37842 0.57761 0.0
H1992 H 0.58367 0.17552 0.36909 0.0
H1993 H 0.61707 0.11307 0.47595 0.0
H1994 H 0.55083 0.11815 0.39104 0.0
H1995 H 0.66224 0.15276 0.44083 0.0
H1996 H 0.59158 0.11621 0.44598 0.0
H1997 H 0.61167 0.16936 0.39647 0.0
C1998 C 0.58238 0.16164 0.37965 0.0
C1999 C 0.5649 0.14735 0.37787 0.0
C2000 C 0.60716 0.12404 0.44471 0.0
C2001 C 0.59667 0.14031 0.40917 0.0
C2002 C 0.6217 0.12225 0.4618 0.0
C2003 C 0.64176 0.13266 0.46082 0.0
C2004 C 0.61255 0.1367 0.42669 0.0
C2005 C 0.64696 0.14439 0.44214 0.0
C2006 C 0.59838 0.15808 0.39517 0.0
C2007 C 0.56403 0.12957 0.39188 0.0
N2008 N 0.63231 0.14634 0.42589 0.0
N2009 N 0.57958 0.12665 0.40705 0.0
H2010 H 0.80921 0.56524 0.38627 0.0
H2011 H 0.88514 0.64229 0.45643 0.0
H2012 H 0.87876 0.56311 0.38287 0.0
H2013 H 0.82023 0.62571 0.47549 0.0
H2014 H 0.88206 0.6173 0.42588 0.0
H2015 H 0.81192 0.5915 0.41578 0.0
C2016 C 0.82503 0.57034 0.39171 0.0
C2017 C 0.84379 0.56196 0.38223 0.0
C2018 C 0.86851 0.61917 0.43677 0.0
C2019 C 0.847 0.59204 0.41567 0.0
C2020 C 0.87023 0.63345 0.45412 0.0
C2021 C 0.85294 0.63596 0.46851 0.0
C2022 C 0.84926 0.6076 0.43365 0.0
C2023 C 0.83398 0.62413 0.46482 0.0
C2024 C 0.82657 0.58525 0.40855 0.0
C2025 C 0.86389 0.5691 0.38985 0.0
N2026 N 0.83261 0.61051 0.4477 0.0
N2027 N 0.86498 0.5838 0.40608 0.0
H2028 H 0.35585 0.81626 0.45554 0.0
H2029 H 0.44226 0.87936 0.3839 0.0
H2030 H 0.36626 0.88497 0.46029 0.0
H2031 H 0.42133 0.81442 0.36988 0.0
H2032 H 0.41543 0.8814 0.41276 0.0
H2033 H 0.38023 0.81503 0.42459 0.0
C2034 C 0.36313 0.83113 0.44993 0.0
C2035 C 0.35908 0.85075 0.46051 0.0
C2036 C 0.41666 0.86672 0.40334 0.0
C2037 C 0.38725 0.84941 0.42527 0.0
C2038 C 0.43205 0.8655 0.38695 0.0
C2039 C 0.43406 0.84665 0.37454 0.0
C2040 C 0.40329 0.8489 0.4075 0.0
C2041 C 0.42034 0.82923 0.37909 0.0
C2042 C 0.37706 0.83041 0.43226 0.0
C2043 C 0.36892 0.86952 0.45255 0.0
N2044 N 0.40559 0.83074 0.39528 0.0
N2045 N 0.38272 0.86836 0.43551 0.0
H2046 H 0.18713 0.42276 0.37388 0.0
H2047 H 0.10954 0.35308 0.45038 0.0
H2048 H 0.11766 0.4278 0.37336 0.0
H2049 H 0.17909 0.35183 0.4541 0.0
H2050 H 0.11208 0.3772 0.41916 0.0
H2051 H 0.18441 0.39367 0.40046 0.0
C2052 C 0.17131 0.41765 0.37928 0.0
C2053 C 0.1526 0.4278 0.37156 0.0
C2054 C 0.12679 0.3715 0.42669 0.0
C2055 C 0.14934 0.39457 0.40196 0.0
C2056 C 0.12534 0.35768 0.44446 0.0
C2057 C 0.14413 0.3506 0.45492 0.0
C2058 C 0.14718 0.37827 0.41937 0.0
C2059 C 0.16419 0.35703 0.44659 0.0
C2060 C 0.16975 0.40105 0.39445 0.0
C2061 C 0.1325 0.42049 0.37901 0.0
N2062 N 0.16518 0.37061 0.42941 0.0
N2063 N 0.1314 0.4044 0.39388 0.0
H2064 H 0.61473 0.55917 0.87628 0.0
H2065 H 0.53363 0.63235 0.8082 0.0
H2066 H 0.6213 0.57026 0.80781 0.0
H2067 H 0.53632 0.63395 0.8778 0.0
H2068 H 0.56497 0.60857 0.80783 0.0
H2069 H 0.5851 0.58528 0.87728 0.0
C2070 C 0.60992 0.5671 0.86145 0.0
C2071 C 0.62041 0.5625 0.8419 0.0
C2072 C 0.55883 0.6142 0.8232 0.0
C2073 C 0.58656 0.59233 0.84294 0.0
C2074 C 0.54091 0.62776 0.82344 0.0
C2075 C 0.53235 0.63507 0.84309 0.0
C2076 C 0.56818 0.60766 0.84277 0.0
C2077 C 0.54245 0.62867 0.86231 0.0
C2078 C 0.59308 0.58206 0.86206 0.0
C2079 C 0.61362 0.5733 0.8232 0.0
N2080 N 0.55977 0.61516 0.86169 0.0
N2081 N 0.59704 0.58764 0.82417 0.0
H2082 H 0.43246 0.61569 0.87688 0.0
H2083 H 0.35489 0.54065 0.80679 0.0
H2084 H 0.42061 0.62541 0.80891 0.0
H2085 H 0.35591 0.53919 0.87643 0.0
H2086 H 0.37919 0.57159 0.80737 0.0
H2087 H 0.40497 0.58732 0.87722 0.0
C2088 C 0.42405 0.61186 0.86203 0.0
C2089 C 0.42887 0.62282 0.8428 0.0
C2090 C 0.374 0.56465 0.82255 0.0
C2091 C 0.39747 0.59043 0.84308 0.0
C2092 C 0.36013 0.54696 0.82223 0.0
C2093 C 0.35347 0.53732 0.8416 0.0
C2094 C 0.3815 0.57263 0.84239 0.0
C2095 C 0.36068 0.54619 0.86114 0.0
C2096 C 0.40831 0.59573 0.86226 0.0
C2097 C 0.41743 0.6173 0.82406 0.0
N2098 N 0.3745 0.56326 0.86104 0.0
N2099 N 0.40235 0.60141 0.82465 0.0
H2100 H 0.37644 0.43917 0.87279 0.0
H2101 H 0.45681 0.367 0.80271 0.0
H2102 H 0.369 0.42953 0.80419 0.0
H2103 H 0.45432 0.36429 0.87229 0.0
H2104 H 0.42565 0.39114 0.80285 0.0
H2105 H 0.40616 0.41321 0.87287 0.0
C2106 C 0.38109 0.43159 0.85773 0.0
C2107 C 0.3703 0.43653 0.83843 0.0
C2108 C 0.43182 0.38518 0.81809 0.0
C2109 C 0.40429 0.40685 0.83841 0.0
C2110 C 0.44963 0.37142 0.81803 0.0
C2111 C 0.45816 0.36368 0.83754 0.0
C2112 C 0.4226 0.39145 0.83781 0.0
C2113 C 0.44821 0.36988 0.8569 0.0
C2114 C 0.39799 0.41671 0.85781 0.0
C2115 C 0.37691 0.42619 0.81942 0.0
N2116 N 0.43102 0.38355 0.85656 0.0
N2117 N 0.39357 0.41189 0.81987 0.0
H2118 H 0.56462 0.37742 0.80218 0.0
H2119 H 0.63491 0.45777 0.87523 0.0
H2120 H 0.55806 0.38192 0.87139 0.0
H2121 H 0.63025 0.46273 0.80589 0.0
H2122 H 0.60983 0.42716 0.87425 0.0
H2123 H 0.59164 0.40622 0.80331 0.0
C2124 C 0.56887 0.38449 0.8176 0.0
C2125 C 0.55904 0.37738 0.8367 0.0
C2126 C 0.61437 0.43493 0.85925 0.0
C2127 C 0.59001 0.41016 0.83816 0.0
C2128 C 0.62874 0.45231 0.85981 0.0
C2129 C 0.63457 0.46282 0.84062 0.0
C2130 C 0.60595 0.42795 0.83936 0.0
C2131 C 0.62609 0.45514 0.82107 0.0
C2132 C 0.58428 0.40091 0.81825 0.0
C2133 C 0.56518 0.38703 0.85627 0.0
N2134 N 0.6122 0.43819 0.82094 0.0
N2135 N 0.5803 0.40291 0.8565 0.0
H2136 H 0.54221 0.35441 0.12328 0.0
H2137 H 0.6174 0.43439 0.19073 0.0
H2138 H 0.52561 0.37736 0.18693 0.0
H2139 H 0.61863 0.43144 0.12113 0.0
H2140 H 0.58689 0.40921 0.19081 0.0
H2141 H 0.5737 0.37844 0.12336 0.0
C2142 C 0.54525 0.36444 0.13728 0.0
C2143 C 0.5313 0.364 0.15509 0.0
C2144 C 0.59386 0.4141 0.17554 0.0
C2145 C 0.56721 0.39124 0.15536 0.0
C2146 C 0.61127 0.42839 0.17548 0.0
C2147 C 0.62044 0.43503 0.15589 0.0
C2148 C 0.58582 0.40617 0.15587 0.0
C2149 C 0.61192 0.4268 0.13658 0.0
C2150 C 0.56313 0.37817 0.13728 0.0
C2151 C 0.53592 0.37732 0.17282 0.0
N2152 N 0.59512 0.4127 0.13705 0.0
N2153 N 0.55354 0.39034 0.17255 0.0
H2154 H 0.63453 0.53557 0.11472 0.0
H2155 H 0.57435 0.62756 0.18308 0.0
H2156 H 0.63915 0.5419 0.18394 0.0
H2157 H 0.55947 0.61356 0.11647 0.0
H2158 H 0.60125 0.59866 0.18272 0.0
H2159 H 0.61028 0.56692 0.11396 0.0
C2160 C 0.63063 0.5437 0.1297 0.0
C2161 C 0.63875 0.5361 0.14942 0.0
C2162 C 0.5921 0.6019 0.16817 0.0
C2163 C 0.61108 0.57177 0.14872 0.0
C2164 C 0.57675 0.61839 0.16839 0.0
C2165 C 0.5646 0.62286 0.14983 0.0
C2166 C 0.59542 0.58988 0.14922 0.0
C2167 C 0.56842 0.61054 0.13119 0.0
C2168 C 0.61672 0.56149 0.12928 0.0
C2169 C 0.63315 0.54716 0.16838 0.0
N2170 N 0.58351 0.5946 0.13135 0.0
N2171 N 0.61963 0.56438 0.16757 0.0
H2172 H 0.45976 0.63811 0.18202 0.0
H2173 H 0.37946 0.56258 0.11501 0.0
H2174 H 0.45997 0.63536 0.11241 0.0
H2175 H 0.3753 0.57267 0.18381 0.0
H2176 H 0.40877 0.5891 0.11331 0.0
H2177 H 0.4285 0.61433 0.18261 0.0
C2178 C 0.45312 0.63258 0.16681 0.0
C2179 C 0.46251 0.63865 0.14713 0.0
C2180 C 0.40138 0.58556 0.12875 0.0
C2181 C 0.42671 0.61117 0.14768 0.0
C2182 C 0.38471 0.57039 0.12975 0.0
C2183 C 0.37501 0.56537 0.14961 0.0
C2184 C 0.40846 0.59566 0.14778 0.0
C2185 C 0.38236 0.57601 0.16818 0.0
C2186 C 0.43524 0.61898 0.16716 0.0
C2187 C 0.45319 0.63106 0.12793 0.0
N2188 N 0.39868 0.59057 0.16682 0.0
N2189 N 0.43586 0.61756 0.12868 0.0
H2190 H 0.42532 0.37393 0.19068 0.0
H2191 H 0.35266 0.4537 0.11916 0.0
H2192 H 0.42192 0.3701 0.1212 0.0
H2193 H 0.36902 0.46487 0.18596 0.0
H2194 H 0.37383 0.42016 0.12014 0.0
H2195 H 0.40009 0.40425 0.18983 0.0
C2196 C 0.41909 0.37934 0.17526 0.0
C2197 C 0.42582 0.3696 0.15598 0.0
C2198 C 0.3727 0.42996 0.13457 0.0
C2199 C 0.39703 0.40435 0.15485 0.0
C2200 C 0.36063 0.44905 0.13403 0.0
C2201 C 0.35923 0.46212 0.15246 0.0
C2202 C 0.38321 0.42388 0.15375 0.0
C2203 C 0.3698 0.45535 0.17132 0.0
C2204 C 0.40476 0.3967 0.17477 0.0
C2205 C 0.41721 0.37725 0.13644 0.0
N2206 N 0.38133 0.43673 0.17147 0.0
N2207 N 0.40332 0.39425 0.13636 0.0
H2208 H 0.85078 0.56519 0.66685 0.0
H2209 H 0.89294 0.61678 0.55632 0.0
H2210 H 0.88624 0.52941 0.61875 0.0
H2211 H 0.83843 0.64239 0.59134 0.0
H2212 H 0.89621 0.58803 0.58314 0.0
H2213 H 0.85181 0.59704 0.64328 0.0
C2214 C 0.85906 0.56415 0.65148 0.0
C2215 C 0.86836 0.54466 0.64465 0.0
C2216 C 0.88361 0.60001 0.58501 0.0
C2217 C 0.86961 0.58087 0.61777 0.0
C2218 C 0.88176 0.61645 0.56977 0.0
C2219 C 0.86528 0.63189 0.57155 0.0
C2220 C 0.86903 0.5991 0.60232 0.0
C2221 C 0.85126 0.6307 0.58931 0.0
C2222 C 0.85952 0.58225 0.63802 0.0
C2223 C 0.87878 0.54411 0.62456 0.0
N2224 N 0.85344 0.61454 0.60403 0.0
N2225 N 0.87911 0.56195 0.61181 0.0
H2226 H 0.80729 0.458 0.36829 0.0
H2227 H 0.8743 0.38009 0.44619 0.0
H2228 H 0.87692 0.45727 0.37006 0.0
H2229 H 0.80551 0.37533 0.43637 0.0
H2230 H 0.87591 0.40824 0.41848 0.0
H2231 H 0.80662 0.42742 0.393 0.0
C2232 C 0.82248 0.45128 0.37379 0.0
C2233 C 0.8422 0.46023 0.3672 0.0
C2234 C 0.86049 0.40098 0.42232 0.0
C2235 C 0.84155 0.42525 0.39574 0.0
C2236 C 0.85954 0.38497 0.43819 0.0
C2237 C 0.83971 0.37545 0.44365 0.0
C2238 C 0.84144 0.40759 0.41195 0.0
C2239 C 0.82111 0.38229 0.43271 0.0
C2240 C 0.82208 0.4338 0.38791 0.0
C2241 C 0.86137 0.45082 0.37475 0.0
N2242 N 0.82243 0.398 0.41746 0.0
N2243 N 0.86057 0.43392 0.3888 0.0
H2244 H 0.53686 0.80882 0.35742 0.0
H2245 H 0.62304 0.8748 0.42692 0.0
H2246 H 0.54103 0.87835 0.3567 0.0
H2247 H 0.62434 0.80552 0.41972 0.0
H2248 H 0.59324 0.87659 0.4011 0.0
H2249 H 0.56916 0.8074 0.37989 0.0
C2250 C 0.54467 0.82381 0.3619 0.0
C2251 C 0.53622 0.84375 0.35527 0.0
C2252 C 0.6001 0.861 0.40507 0.0
C2253 C 0.57315 0.84225 0.38118 0.0
C2254 C 0.61708 0.85996 0.41985 0.0
C2255 C 0.6261 0.83996 0.42553 0.0
C2256 C 0.59197 0.84188 0.39602 0.0
C2257 C 0.61782 0.82127 0.41582 0.0
C2258 C 0.56313 0.82298 0.37473 0.0
C2259 C 0.54703 0.86265 0.36148 0.0
N2260 N 0.60114 0.82267 0.40163 0.0
N2261 N 0.56487 0.86144 0.37425 0.0
H2262 H 0.19157 0.61901 0.44349 0.0
H2263 H 0.12376 0.54595 0.36162 0.0
H2264 H 0.12217 0.62209 0.43832 0.0
H2265 H 0.18733 0.52839 0.38408 0.0
H2266 H 0.12416 0.57699 0.38614 0.0
H2267 H 0.19163 0.58858 0.41813 0.0
C2268 C 0.17637 0.6133 0.43698 0.0
C2269 C 0.15683 0.62299 0.44303 0.0
C2270 C 0.13801 0.56632 0.38569 0.0
C2271 C 0.15679 0.58847 0.41399 0.0
C2272 C 0.13781 0.54867 0.37168 0.0
C2273 C 0.1555 0.53458 0.37091 0.0
C2274 C 0.15615 0.57004 0.39878 0.0
C2275 C 0.17331 0.53882 0.38427 0.0
C2276 C 0.17641 0.59594 0.42259 0.0
C2277 C 0.13759 0.61499 0.43415 0.0
N2278 N 0.17322 0.55623 0.39762 0.0
N2279 N 0.13805 0.59825 0.42001 0.0
H2280 H 0.45334 0.1214 0.36608 0.0
H2281 H 0.37447 0.19022 0.4416 0.0
H2282 H 0.46406 0.18855 0.38121 0.0
H2283 H 0.37812 0.12069 0.44409 0.0
H2284 H 0.40408 0.19039 0.41538 0.0
H2285 H 0.42228 0.12132 0.39066 0.0
C2286 C 0.44908 0.13613 0.3745 0.0
C2287 C 0.46129 0.15499 0.37171 0.0
C2288 C 0.39838 0.17511 0.42167 0.0
C2289 C 0.42586 0.15505 0.39962 0.0
C2290 C 0.38148 0.175 0.43658 0.0
C2291 C 0.37395 0.15542 0.44507 0.0
C2292 C 0.40759 0.15548 0.41503 0.0
C2293 C 0.38356 0.13615 0.43802 0.0
C2294 C 0.43145 0.13606 0.38855 0.0
C2295 C 0.45513 0.17363 0.383 0.0
N2296 N 0.39986 0.13665 0.42335 0.0
N2297 N 0.4378 0.17321 0.39642 0.0
H2298 H 0.17108 0.44464 0.64372 0.0
H2299 H 0.11258 0.38465 0.54644 0.0
H2300 H 0.10509 0.45749 0.62548 0.0
H2301 H 0.16857 0.35814 0.57833 0.0
H2302 H 0.11084 0.41298 0.57384 0.0
H2303 H 0.17158 0.41396 0.61881 0.0
C2304 C 0.15663 0.44087 0.63461 0.0
C2305 C 0.13802 0.45362 0.6366 0.0
C2306 C 0.12346 0.40093 0.57489 0.0
C2307 C 0.1386 0.41884 0.60789 0.0
C2308 C 0.12454 0.38484 0.5592 0.0
C2309 C 0.14079 0.36909 0.56011 0.0
C2310 C 0.1389 0.40145 0.59147 0.0
C2311 C 0.1558 0.37 0.57705 0.0
C2312 C 0.15694 0.42338 0.62041 0.0
C2313 C 0.11976 0.44805 0.62444 0.0
N2314 N 0.15458 0.38602 0.59201 0.0
N2315 N 0.12058 0.43119 0.61042 0.0
H2316 H 0.627 0.17508 0.5617 0.0
H2317 H 0.55371 0.10486 0.64166 0.0
H2318 H 0.64093 0.1086 0.5772 0.0
H2319 H 0.54571 0.17324 0.63088 0.0
H2320 H 0.58616 0.10562 0.61886 0.0
H2321 H 0.59766 0.17466 0.58796 0.0
C2322 C 0.62397 0.16044 0.57078 0.0
C2323 C 0.63634 0.14183 0.56723 0.0
C2324 C 0.57733 0.12046 0.62161 0.0
C2325 C 0.6026 0.14111 0.59718 0.0
C2326 C 0.55882 0.12001 0.63457 0.0
C2327 C 0.54696 0.13898 0.63804 0.0
C2328 C 0.58387 0.14 0.61205 0.0
C2329 C 0.5543 0.1582 0.62856 0.0
C2330 C 0.6072 0.16018 0.58577 0.0
C2331 C 0.63175 0.1233 0.57945 0.0
N2332 N 0.57218 0.15818 0.61594 0.0
N2333 N 0.61512 0.12334 0.59379 0.0
H2334 H 0.46071 0.81162 0.63554 0.0
H2335 H 0.38907 0.88176 0.55485 0.0
H2336 H 0.46673 0.88082 0.63021 0.0
H2337 H 0.37309 0.81648 0.57322 0.0
H2338 H 0.41866 0.88145 0.58102 0.0
H2339 H 0.42936 0.81284 0.61171 0.0
C2340 C 0.45532 0.82711 0.62945 0.0
C2341 C 0.46633 0.84616 0.63479 0.0
C2342 C 0.40864 0.86723 0.57937 0.0
C2343 C 0.43061 0.84764 0.6073 0.0
C2344 C 0.39183 0.86734 0.56437 0.0
C2345 C 0.37869 0.84907 0.56183 0.0
C2346 C 0.41244 0.84864 0.59177 0.0
C2347 C 0.38288 0.83088 0.57465 0.0
C2348 C 0.43741 0.82779 0.61586 0.0
C2349 C 0.45864 0.86578 0.6265 0.0
N2350 N 0.39947 0.83109 0.58899 0.0
N2351 N 0.44133 0.866 0.61298 0.0
loop_
_geom_bond_atom_site_label_1
_geom_bond_atom_site_label_2
_geom_bond_distance
_geom_bond_site_symmetry_2
_ccdc_geom_bond_type
In0 O1 2.294 . S
In0 O2 2.326 . S
In0 O6 2.266 . S
In0 O7 2.326 . S
In0 O8 2.266 1_455 S
In0 O9 2.326 . S
In0 O11 2.294 . S
In0 O12 2.326 . S
O1 In0 2.294 . S
O1 C10 1.240 . S
O2 In0 2.326 . S
O2 C10 1.252 . S
C3 O6 1.252 . S
C3 O7 1.260 . S
C4 O11 1.240 . S
C4 O12 1.252 . S
C5 O8 1.252 . S
C5 O9 1.260 1_655 S
O6 In0 2.266 . S
O6 C3 1.252 . S
O7 In0 2.326 . S
O7 C3 1.260 . S
O8 In0 2.266 1_655 S
O8 C5 1.252 . S
O9 In0 2.326 . S
O9 C5 1.260 1_455 S
C10 O1 1.240 . S
C10 O2 1.252 . S
O11 In0 2.294 . S
O11 C4 1.240 . S
O12 In0 2.326 . S
O12 C4 1.252 . S
In13 O14 2.294 . S
In13 O15 2.326 . S
In13 O19 2.266 1_545 S
In13 O20 2.326 . S
In13 O21 2.266 . S
In13 O22 2.326 . S
In13 O24 2.294 . S
In13 O25 2.326 . S
O14 In13 2.294 . S
O14 C23 1.240 . S
O15 In13 2.326 . S
O15 C23 1.252 . S
C16 O19 1.252 . S
C16 O20 1.260 1_565 S
C17 O24 1.240 . S
C17 O25 1.252 . S
C18 O21 1.252 . S
C18 O22 1.260 . S
O19 In13 2.266 1_565 S
O19 C16 1.252 . S
O20 In13 2.326 . S
O20 C16 1.260 1_545 S
O21 In13 2.266 . S
O21 C18 1.252 . S
O22 In13 2.326 . S
O22 C18 1.260 . S
C23 O14 1.240 . S
C23 O15 1.252 . S
O24 In13 2.294 . S
O24 C17 1.240 . S
O25 In13 2.326 . S
O25 C17 1.252 . S
In26 O27 2.294 . S
In26 O28 2.326 . S
In26 O32 2.266 . S
In26 O33 2.326 . S
In26 O34 2.266 1_655 S
In26 O35 2.326 . S
In26 O37 2.294 . S
In26 O38 2.326 . S
O27 In26 2.294 . S
O27 C36 1.240 . S
O28 In26 2.326 . S
O28 C36 1.252 . S
C29 O32 1.252 . S
C29 O33 1.260 . S
C30 O37 1.240 . S
C30 O38 1.252 . S
C31 O34 1.252 . S
C31 O35 1.260 1_455 S
O32 In26 2.266 . S
O32 C29 1.252 . S
O33 In26 2.326 . S
O33 C29 1.260 . S
O34 In26 2.266 1_455 S
O34 C31 1.252 . S
O35 In26 2.326 . S
O35 C31 1.260 1_655 S
C36 O27 1.240 . S
C36 O28 1.252 . S
O37 In26 2.294 . S
O37 C30 1.240 . S
O38 In26 2.326 . S
O38 C30 1.252 . S
In39 O40 2.294 . S
In39 O41 2.326 . S
In39 O45 2.266 1_565 S
In39 O46 2.326 . S
In39 O47 2.266 . S
In39 O48 2.326 . S
In39 O50 2.294 . S
In39 O51 2.326 . S
O40 In39 2.294 . S
O40 C49 1.240 . S
O41 In39 2.326 . S
O41 C49 1.252 . S
C42 O45 1.252 . S
C42 O46 1.260 1_545 S
C43 O50 1.240 . S
C43 O51 1.252 . S
C44 O47 1.252 . S
C44 O48 1.260 . S
O45 In39 2.266 1_545 S
O45 C42 1.252 . S
O46 In39 2.326 . S
O46 C42 1.260 1_565 S
O47 In39 2.266 . S
O47 C44 1.252 . S
O48 In39 2.326 . S
O48 C44 1.260 . S
C49 O40 1.240 . S
C49 O41 1.252 . S
O50 In39 2.294 . S
O50 C43 1.240 . S
O51 In39 2.326 . S
O51 C43 1.252 . S
In52 O53 2.294 . S
In52 O54 2.326 . S
In52 O58 2.266 1_455 S
In52 O59 2.326 . S
In52 O60 2.266 . S
In52 O61 2.326 . S
In52 O63 2.294 . S
In52 O64 2.326 . S
O53 In52 2.294 . S
O53 C62 1.240 . S
O54 In52 2.326 . S
O54 C62 1.252 . S
C55 O58 1.252 . S
C55 O59 1.260 1_655 S
C56 O63 1.240 . S
C56 O64 1.252 . S
C57 O60 1.252 . S
C57 O61 1.260 . S
O58 In52 2.266 1_655 S
O58 C55 1.252 . S
O59 In52 2.326 . S
O59 C55 1.260 1_455 S
O60 In52 2.266 . S
O60 C57 1.252 . S
O61 In52 2.326 . S
O61 C57 1.260 . S
C62 O53 1.240 . S
C62 O54 1.252 . S
O63 In52 2.294 . S
O63 C56 1.240 . S
O64 In52 2.326 . S
O64 C56 1.252 . S
In65 O66 2.294 . S
In65 O67 2.326 . S
In65 O71 2.266 . S
In65 O72 2.326 . S
In65 O73 2.266 1_545 S
In65 O74 2.326 . S
In65 O76 2.294 . S
In65 O77 2.326 . S
O66 In65 2.294 . S
O66 C75 1.240 . S
O67 In65 2.326 . S
O67 C75 1.252 . S
C68 O71 1.252 . S
C68 O72 1.260 . S
C69 O76 1.240 . S
C69 O77 1.252 . S
C70 O73 1.252 . S
C70 O74 1.260 1_565 S
O71 In65 2.266 . S
O71 C68 1.252 . S
O72 In65 2.326 . S
O72 C68 1.260 . S
O73 In65 2.266 1_565 S
O73 C70 1.252 . S
O74 In65 2.326 . S
O74 C70 1.260 1_545 S
C75 O66 1.240 . S
C75 O67 1.252 . S
O76 In65 2.294 . S
O76 C69 1.240 . S
O77 In65 2.326 . S
O77 C69 1.252 . S
In78 O79 2.294 . S
In78 O80 2.326 . S
In78 O84 2.266 . S
In78 O85 2.326 . S
In78 O86 2.266 1_655 S
In78 O87 2.326 . S
In78 O89 2.294 . S
In78 O90 2.326 . S
O79 In78 2.294 . S
O79 C88 1.240 . S
O80 In78 2.326 . S
O80 C88 1.252 . S
C81 O84 1.252 . S
C81 O85 1.260 . S
C82 O89 1.240 . S
C82 O90 1.252 . S
C83 O86 1.252 . S
C83 O87 1.260 1_455 S
O84 In78 2.266 . S
O84 C81 1.252 . S
O85 In78 2.326 . S
O85 C81 1.260 . S
O86 In78 2.266 1_455 S
O86 C83 1.252 . S
O87 In78 2.326 . S
O87 C83 1.260 1_655 S
C88 O79 1.240 . S
C88 O80 1.252 . S
O89 In78 2.294 . S
O89 C82 1.240 . S
O90 In78 2.326 . S
O90 C82 1.252 . S
In91 O92 2.294 . S
In91 O93 2.326 . S
In91 O97 2.266 . S
In91 O98 2.326 . S
In91 O99 2.266 1_565 S
In91 O100 2.326 . S
In91 O102 2.294 . S
In91 O103 2.326 . S
O92 In91 2.294 . S
O92 C101 1.240 . S
O93 In91 2.326 . S
O93 C101 1.252 . S
C94 O97 1.252 . S
C94 O98 1.260 . S
C95 O102 1.240 . S
C95 O103 1.252 . S
C96 O99 1.252 . S
C96 O100 1.260 1_545 S
O97 In91 2.266 . S
O97 C94 1.252 . S
O98 In91 2.326 . S
O98 C94 1.260 . S
O99 In91 2.266 1_545 S
O99 C96 1.252 . S
O100 In91 2.326 . S
O100 C96 1.260 1_565 S
C101 O92 1.240 . S
C101 O93 1.252 . S
O102 In91 2.294 . S
O102 C95 1.240 . S
O103 In91 2.326 . S
O103 C95 1.252 . S
In104 O105 2.294 . S
In104 O106 2.326 . S
In104 O110 2.266 1_545 S
In104 O111 2.326 . S
In104 O112 2.266 . S
In104 O113 2.326 . S
In104 O115 2.294 . S
In104 O116 2.326 . S
O105 In104 2.294 . S
O105 C114 1.240 . S
O106 In104 2.326 . S
O106 C114 1.252 . S
C107 O110 1.252 . S
C107 O111 1.260 1_565 S
C108 O115 1.240 . S
C108 O116 1.252 . S
C109 O112 1.252 . S
C109 O113 1.260 . S
O110 In104 2.266 1_565 S
O110 C107 1.252 . S
O111 In104 2.326 . S
O111 C107 1.260 1_545 S
O112 In104 2.266 . S
O112 C109 1.252 . S
O113 In104 2.326 . S
O113 C109 1.260 . S
C114 O105 1.240 . S
C114 O106 1.252 . S
O115 In104 2.294 . S
O115 C108 1.240 . S
O116 In104 2.326 . S
O116 C108 1.252 . S
In117 O118 2.294 . S
In117 O119 2.326 . S
In117 O123 2.266 . S
In117 O124 2.326 . S
In117 O125 2.266 1_655 S
In117 O126 2.326 . S
In117 O128 2.294 . S
In117 O129 2.326 . S
O118 In117 2.294 . S
O118 C127 1.240 . S
O119 In117 2.326 . S
O119 C127 1.252 . S
C120 O123 1.252 . S
C120 O124 1.260 . S
C121 O128 1.240 . S
C121 O129 1.252 . S
C122 O125 1.252 . S
C122 O126 1.260 1_455 S
O123 In117 2.266 . S
O123 C120 1.252 . S
O124 In117 2.326 . S
O124 C120 1.260 . S
O125 In117 2.266 1_455 S
O125 C122 1.252 . S
O126 In117 2.326 . S
O126 C122 1.260 1_655 S
C127 O118 1.240 . S
C127 O119 1.252 . S
O128 In117 2.294 . S
O128 C121 1.240 . S
O129 In117 2.326 . S
O129 C121 1.252 . S
In130 O131 2.294 . S
In130 O132 2.326 . S
In130 O136 2.266 1_565 S
In130 O137 2.326 . S
In130 O138 2.266 . S
In130 O139 2.326 . S
In130 O141 2.294 . S
In130 O142 2.326 . S
O131 In130 2.294 . S
O131 C140 1.240 . S
O132 In130 2.326 . S
O132 C140 1.252 . S
C133 O136 1.252 . S
C133 O137 1.260 1_545 S
C134 O141 1.240 . S
C134 O142 1.252 . S
C135 O138 1.252 . S
C135 O139 1.260 . S
O136 In130 2.266 1_545 S
O136 C133 1.252 . S
O137 In130 2.326 . S
O137 C133 1.260 1_565 S
O138 In130 2.266 . S
O138 C135 1.252 . S
O139 In130 2.326 . S
O139 C135 1.260 . S
C140 O131 1.240 . S
C140 O132 1.252 . S
O141 In130 2.294 . S
O141 C134 1.240 . S
O142 In130 2.326 . S
O142 C134 1.252 . S
In143 O144 2.294 . S
In143 O145 2.326 . S
In143 O149 2.266 . S
In143 O150 2.326 . S
In143 O151 2.266 1_455 S
In143 O152 2.326 . S
In143 O154 2.294 . S
In143 O155 2.326 . S
O144 In143 2.294 . S
O144 C153 1.240 . S
O145 In143 2.326 . S
O145 C153 1.252 . S
C146 O149 1.252 . S
C146 O150 1.260 . S
C147 O154 1.240 . S
C147 O155 1.252 . S
C148 O151 1.252 . S
C148 O152 1.260 1_655 S
O149 In143 2.266 . S
O149 C146 1.252 . S
O150 In143 2.326 . S
O150 C146 1.260 . S
O151 In143 2.266 1_655 S
O151 C148 1.252 . S
O152 In143 2.326 . S
O152 C148 1.260 1_455 S
C153 O144 1.240 . S
C153 O145 1.252 . S
O154 In143 2.294 . S
O154 C147 1.240 . S
O155 In143 2.326 . S
O155 C147 1.252 . S
In156 O157 2.294 . S
In156 O158 2.326 . S
In156 O162 2.266 . S
In156 O163 2.326 . S
In156 O164 2.266 1_565 S
In156 O165 2.326 . S
In156 O167 2.294 . S
In156 O168 2.326 . S
O157 In156 2.294 . S
O157 C166 1.240 . S
O158 In156 2.326 . S
O158 C166 1.252 . S
C159 O162 1.252 . S
C159 O163 1.260 . S
C160 O167 1.240 . S
C160 O168 1.252 . S
C161 O164 1.252 . S
C161 O165 1.260 1_545 S
O162 In156 2.266 . S
O162 C159 1.252 . S
O163 In156 2.326 . S
O163 C159 1.260 . S
O164 In156 2.266 1_545 S
O164 C161 1.252 . S
O165 In156 2.326 . S
O165 C161 1.260 1_565 S
C166 O157 1.240 . S
C166 O158 1.252 . S
O167 In156 2.294 . S
O167 C160 1.240 . S
O168 In156 2.326 . S
O168 C160 1.252 . S
In169 O170 2.294 . S
In169 O171 2.326 . S
In169 O175 2.266 1_455 S
In169 O176 2.326 . S
In169 O177 2.266 . S
In169 O178 2.326 . S
In169 O180 2.294 . S
In169 O181 2.326 . S
O170 In169 2.294 . S
O170 C179 1.240 . S
O171 In169 2.326 . S
O171 C179 1.252 . S
C172 O175 1.252 . S
C172 O176 1.260 1_655 S
C173 O180 1.240 . S
C173 O181 1.252 . S
C174 O177 1.252 . S
C174 O178 1.260 . S
O175 In169 2.266 1_655 S
O175 C172 1.252 . S
O176 In169 2.326 . S
O176 C172 1.260 1_455 S
O177 In169 2.266 . S
O177 C174 1.252 . S
O178 In169 2.326 . S
O178 C174 1.260 . S
C179 O170 1.240 . S
C179 O171 1.252 . S
O180 In169 2.294 . S
O180 C173 1.240 . S
O181 In169 2.326 . S
O181 C173 1.252 . S
In182 O183 2.294 . S
In182 O184 2.326 . S
In182 O188 2.266 1_545 S
In182 O189 2.326 . S
In182 O190 2.266 . S
In182 O191 2.326 . S
In182 O193 2.294 . S
In182 O194 2.326 . S
O183 In182 2.294 . S
O183 C192 1.240 . S
O184 In182 2.326 . S
O184 C192 1.252 . S
C185 O188 1.252 . S
C185 O189 1.260 1_565 S
C186 O193 1.240 . S
C186 O194 1.252 . S
C187 O190 1.252 . S
C187 O191 1.260 . S
O188 In182 2.266 1_565 S
O188 C185 1.252 . S
O189 In182 2.326 . S
O189 C185 1.260 1_545 S
O190 In182 2.266 . S
O190 C187 1.252 . S
O191 In182 2.326 . S
O191 C187 1.260 . S
C192 O183 1.240 . S
C192 O184 1.252 . S
O193 In182 2.294 . S
O193 C186 1.240 . S
O194 In182 2.326 . S
O194 C186 1.252 . S
In195 O196 2.294 . S
In195 O197 2.326 . S
In195 O201 2.266 . S
In195 O202 2.326 . S
In195 O203 2.266 1_655 S
In195 O204 2.326 . S
In195 O206 2.294 . S
In195 O207 2.326 . S
O196 In195 2.294 . S
O196 C205 1.240 . S
O197 In195 2.326 . S
O197 C205 1.252 . S
C198 O201 1.252 . S
C198 O202 1.260 . S
C199 O206 1.240 . S
C199 O207 1.252 . S
C200 O203 1.252 . S
C200 O204 1.260 1_455 S
O201 In195 2.266 . S
O201 C198 1.252 . S
O202 In195 2.326 . S
O202 C198 1.260 . S
O203 In195 2.266 1_455 S
O203 C200 1.252 . S
O204 In195 2.326 . S
O204 C200 1.260 1_655 S
C205 O196 1.240 . S
C205 O197 1.252 . S
O206 In195 2.294 . S
O206 C199 1.240 . S
O207 In195 2.326 . S
O207 C199 1.252 . S
In208 O209 2.294 . S
In208 O210 2.326 . S
In208 O214 2.266 . S
In208 O215 2.326 . S
In208 O216 2.266 1_554 S
In208 O217 2.326 . S
In208 O219 2.294 . S
In208 O220 2.326 . S
O209 In208 2.294 . S
O209 C218 1.240 . S
O210 In208 2.326 . S
O210 C218 1.252 . S
C211 O214 1.252 . S
C211 O215 1.260 . S
C212 O219 1.240 . S
C212 O220 1.252 . S
C213 O216 1.252 . S
C213 O217 1.260 1_556 S
O214 In208 2.266 . S
O214 C211 1.252 . S
O215 In208 2.326 . S
O215 C211 1.260 . S
O216 In208 2.266 1_556 S
O216 C213 1.252 . S
O217 In208 2.326 . S
O217 C213 1.260 1_554 S
C218 O209 1.240 . S
C218 O210 1.252 . S
O219 In208 2.294 . S
O219 C212 1.240 . S
O220 In208 2.326 . S
O220 C212 1.252 . S
In221 O222 2.294 . S
In221 O223 2.326 . S
In221 O227 2.266 . S
In221 O228 2.326 . S
In221 O229 2.266 1_556 S
In221 O230 2.326 . S
In221 O232 2.294 . S
In221 O233 2.326 . S
O222 In221 2.294 . S
O222 C231 1.240 . S
O223 In221 2.326 . S
O223 C231 1.252 . S
C224 O227 1.252 . S
C224 O228 1.260 . S
C225 O232 1.240 . S
C225 O233 1.252 . S
C226 O229 1.252 . S
C226 O230 1.260 1_554 S
O227 In221 2.266 . S
O227 C224 1.252 . S
O228 In221 2.326 . S
O228 C224 1.260 . S
O229 In221 2.266 1_554 S
O229 C226 1.252 . S
O230 In221 2.326 . S
O230 C226 1.260 1_556 S
C231 O222 1.240 . S
C231 O223 1.252 . S
O232 In221 2.294 . S
O232 C225 1.240 . S
O233 In221 2.326 . S
O233 C225 1.252 . S
In234 O235 2.294 . S
In234 O236 2.326 . S
In234 O240 2.266 . S
In234 O241 2.326 . S
In234 O242 2.266 1_556 S
In234 O243 2.326 . S
In234 O245 2.294 . S
In234 O246 2.326 . S
O235 In234 2.294 . S
O235 C244 1.240 . S
O236 In234 2.326 . S
O236 C244 1.252 . S
C237 O240 1.252 . S
C237 O241 1.260 . S
C238 O245 1.240 . S
C238 O246 1.252 . S
C239 O242 1.252 . S
C239 O243 1.260 1_554 S
O240 In234 2.266 . S
O240 C237 1.252 . S
O241 In234 2.326 . S
O241 C237 1.260 . S
O242 In234 2.266 1_554 S
O242 C239 1.252 . S
O243 In234 2.326 . S
O243 C239 1.260 1_556 S
C244 O235 1.240 . S
C244 O236 1.252 . S
O245 In234 2.294 . S
O245 C238 1.240 . S
O246 In234 2.326 . S
O246 C238 1.252 . S
In247 O248 2.294 . S
In247 O249 2.326 . S
In247 O253 2.266 1_556 S
In247 O254 2.326 . S
In247 O255 2.266 . S
In247 O256 2.326 . S
In247 O258 2.294 . S
In247 O259 2.326 . S
O248 In247 2.294 . S
O248 C257 1.240 . S
O249 In247 2.326 . S
O249 C257 1.252 . S
C250 O253 1.252 . S
C250 O254 1.260 1_554 S
C251 O258 1.240 . S
C251 O259 1.252 . S
C252 O255 1.252 . S
C252 O256 1.260 . S
O253 In247 2.266 1_554 S
O253 C250 1.252 . S
O254 In247 2.326 . S
O254 C250 1.260 1_556 S
O255 In247 2.266 . S
O255 C252 1.252 . S
O256 In247 2.326 . S
O256 C252 1.260 . S
C257 O248 1.240 . S
C257 O249 1.252 . S
O258 In247 2.294 . S
O258 C251 1.240 . S
O259 In247 2.326 . S
O259 C251 1.252 . S
In260 O261 2.294 . S
In260 O262 2.326 . S
In260 O266 2.266 1_556 S
In260 O267 2.326 . S
In260 O268 2.266 . S
In260 O269 2.326 . S
In260 O271 2.294 . S
In260 O272 2.326 . S
O261 In260 2.294 . S
O261 C270 1.240 . S
O262 In260 2.326 . S
O262 C270 1.252 . S
C263 O266 1.252 . S
C263 O267 1.260 1_554 S
C264 O271 1.240 . S
C264 O272 1.252 . S
C265 O268 1.252 . S
C265 O269 1.260 . S
O266 In260 2.266 1_554 S
O266 C263 1.252 . S
O267 In260 2.326 . S
O267 C263 1.260 1_556 S
O268 In260 2.266 . S
O268 C265 1.252 . S
O269 In260 2.326 . S
O269 C265 1.260 . S
C270 O261 1.240 . S
C270 O262 1.252 . S
O271 In260 2.294 . S
O271 C264 1.240 . S
O272 In260 2.326 . S
O272 C264 1.252 . S
In273 O274 2.294 . S
In273 O275 2.326 . S
In273 O279 2.266 . S
In273 O280 2.326 . S
In273 O281 2.266 1_554 S
In273 O282 2.326 . S
In273 O284 2.294 . S
In273 O285 2.326 . S
O274 In273 2.294 . S
O274 C283 1.240 . S
O275 In273 2.326 . S
O275 C283 1.252 . S
C276 O279 1.252 . S
C276 O280 1.260 . S
C277 O284 1.240 . S
C277 O285 1.252 . S
C278 O281 1.252 . S
C278 O282 1.260 1_556 S
O279 In273 2.266 . S
O279 C276 1.252 . S
O280 In273 2.326 . S
O280 C276 1.260 . S
O281 In273 2.266 1_556 S
O281 C278 1.252 . S
O282 In273 2.326 . S
O282 C278 1.260 1_554 S
C283 O274 1.240 . S
C283 O275 1.252 . S
O284 In273 2.294 . S
O284 C277 1.240 . S
O285 In273 2.326 . S
O285 C277 1.252 . S
In286 O287 2.294 . S
In286 O288 2.326 . S
In286 O292 2.266 1_554 S
In286 O293 2.326 . S
In286 O294 2.266 . S
In286 O295 2.326 . S
In286 O297 2.294 . S
In286 O298 2.326 . S
O287 In286 2.294 . S
O287 C296 1.240 . S
O288 In286 2.326 . S
O288 C296 1.252 . S
C289 O292 1.252 . S
C289 O293 1.260 1_556 S
C290 O297 1.240 . S
C290 O298 1.252 . S
C291 O294 1.252 . S
C291 O295 1.260 . S
O292 In286 2.266 1_556 S
O292 C289 1.252 . S
O293 In286 2.326 . S
O293 C289 1.260 1_554 S
O294 In286 2.266 . S
O294 C291 1.252 . S
O295 In286 2.326 . S
O295 C291 1.260 . S
C296 O287 1.240 . S
C296 O288 1.252 . S
O297 In286 2.294 . S
O297 C290 1.240 . S
O298 In286 2.326 . S
O298 C290 1.252 . S
In299 O300 2.294 . S
In299 O301 2.326 . S
In299 O305 2.266 . S
In299 O306 2.326 . S
In299 O307 2.266 1_554 S
In299 O308 2.326 . S
In299 O310 2.294 . S
In299 O311 2.326 . S
O300 In299 2.294 . S
O300 C309 1.240 . S
O301 In299 2.326 . S
O301 C309 1.252 . S
C302 O305 1.252 . S
C302 O306 1.260 . S
C303 O310 1.240 . S
C303 O311 1.252 . S
C304 O307 1.252 . S
C304 O308 1.260 1_556 S
O305 In299 2.266 . S
O305 C302 1.252 . S
O306 In299 2.326 . S
O306 C302 1.260 . S
O307 In299 2.266 1_556 S
O307 C304 1.252 . S
O308 In299 2.326 . S
O308 C304 1.260 1_554 S
C309 O300 1.240 . S
C309 O301 1.252 . S
O310 In299 2.294 . S
O310 C303 1.240 . S
O311 In299 2.326 . S
O311 C303 1.252 . S
In312 O313 2.294 . S
In312 O314 2.326 . S
In312 O318 2.266 . S
In312 O319 2.326 . S
In312 O320 2.266 . S
In312 O321 2.326 . S
In312 O323 2.294 . S
In312 O324 2.326 . S
O313 In312 2.294 . S
O313 C322 1.240 . S
O314 In312 2.326 . S
O314 C322 1.252 . S
C315 O318 1.252 . S
C315 O319 1.260 . S
C316 O323 1.240 . S
C316 O324 1.252 . S
C317 O320 1.252 . S
C317 O321 1.260 . S
O318 In312 2.266 . S
O318 C315 1.252 . S
O319 In312 2.326 . S
O319 C315 1.260 . S
O320 In312 2.266 . S
O320 C317 1.252 . S
O321 In312 2.326 . S
O321 C317 1.260 . S
C322 O313 1.240 . S
C322 O314 1.252 . S
O323 In312 2.294 . S
O323 C316 1.240 . S
O324 In312 2.326 . S
O324 C316 1.252 . S
In325 O326 2.294 . S
In325 O327 2.326 . S
In325 O331 2.266 . S
In325 O332 2.326 . S
In325 O333 2.266 . S
In325 O334 2.326 . S
In325 O336 2.294 . S
In325 O337 2.326 . S
O326 In325 2.294 . S
O326 C335 1.240 . S
O327 In325 2.326 . S
O327 C335 1.252 . S
C328 O331 1.252 . S
C328 O332 1.260 . S
C329 O336 1.240 . S
C329 O337 1.252 . S
C330 O333 1.252 . S
C330 O334 1.260 . S
O331 In325 2.266 . S
O331 C328 1.252 . S
O332 In325 2.326 . S
O332 C328 1.260 . S
O333 In325 2.266 . S
O333 C330 1.252 . S
O334 In325 2.326 . S
O334 C330 1.260 . S
C335 O326 1.240 . S
C335 O327 1.252 . S
O336 In325 2.294 . S
O336 C329 1.240 . S
O337 In325 2.326 . S
O337 C329 1.252 . S
In338 O339 2.294 . S
In338 O340 2.326 . S
In338 O344 2.266 . S
In338 O345 2.326 . S
In338 O346 2.266 . S
In338 O347 2.326 . S
In338 O349 2.294 . S
In338 O350 2.326 . S
O339 In338 2.294 . S
O339 C348 1.240 . S
O340 In338 2.326 . S
O340 C348 1.252 . S
C341 O344 1.252 . S
C341 O345 1.260 . S
C342 O349 1.240 . S
C342 O350 1.252 . S
C343 O346 1.252 . S
C343 O347 1.260 . S
O344 In338 2.266 . S
O344 C341 1.252 . S
O345 In338 2.326 . S
O345 C341 1.260 . S
O346 In338 2.266 . S
O346 C343 1.252 . S
O347 In338 2.326 . S
O347 C343 1.260 . S
C348 O339 1.240 . S
C348 O340 1.252 . S
O349 In338 2.294 . S
O349 C342 1.240 . S
O350 In338 2.326 . S
O350 C342 1.252 . S
In351 O352 2.294 . S
In351 O353 2.326 . S
In351 O357 2.266 . S
In351 O358 2.326 . S
In351 O359 2.266 . S
In351 O360 2.326 . S
In351 O362 2.294 . S
In351 O363 2.326 . S
O352 In351 2.294 . S
O352 C361 1.240 . S
O353 In351 2.326 . S
O353 C361 1.252 . S
C354 O357 1.252 . S
C354 O358 1.260 . S
C355 O362 1.240 . S
C355 O363 1.252 . S
C356 O359 1.252 . S
C356 O360 1.260 . S
O357 In351 2.266 . S
O357 C354 1.252 . S
O358 In351 2.326 . S
O358 C354 1.260 . S
O359 In351 2.266 . S
O359 C356 1.252 . S
O360 In351 2.326 . S
O360 C356 1.260 . S
C361 O352 1.240 . S
C361 O353 1.252 . S
O362 In351 2.294 . S
O362 C355 1.240 . S
O363 In351 2.326 . S
O363 C355 1.252 . S
In364 O365 2.294 . S
In364 O366 2.326 . S
In364 O370 2.266 . S
In364 O371 2.326 . S
In364 O372 2.266 . S
In364 O373 2.326 . S
In364 O375 2.294 . S
In364 O376 2.326 . S
O365 In364 2.294 . S
O365 C374 1.240 . S
O366 In364 2.326 . S
O366 C374 1.252 . S
C367 O370 1.252 . S
C367 O371 1.260 . S
C368 O375 1.240 . S
C368 O376 1.252 . S
C369 O372 1.252 . S
C369 O373 1.260 . S
O370 In364 2.266 . S
O370 C367 1.252 . S
O371 In364 2.326 . S
O371 C367 1.260 . S
O372 In364 2.266 . S
O372 C369 1.252 . S
O373 In364 2.326 . S
O373 C369 1.260 . S
C374 O365 1.240 . S
C374 O366 1.252 . S
O375 In364 2.294 . S
O375 C368 1.240 . S
O376 In364 2.326 . S
O376 C368 1.252 . S
In377 O378 2.294 . S
In377 O379 2.326 . S
In377 O383 2.266 . S
In377 O384 2.326 . S
In377 O385 2.266 . S
In377 O386 2.326 . S
In377 O388 2.294 . S
In377 O389 2.326 . S
O378 In377 2.294 . S
O378 C387 1.240 . S
O379 In377 2.326 . S
O379 C387 1.252 . S
C380 O383 1.252 . S
C380 O384 1.260 . S
C381 O388 1.240 . S
C381 O389 1.252 . S
C382 O385 1.252 . S
C382 O386 1.260 . S
O383 In377 2.266 . S
O383 C380 1.252 . S
O384 In377 2.326 . S
O384 C380 1.260 . S
O385 In377 2.266 . S
O385 C382 1.252 . S
O386 In377 2.326 . S
O386 C382 1.260 . S
C387 O378 1.240 . S
C387 O379 1.252 . S
O388 In377 2.294 . S
O388 C381 1.240 . S
O389 In377 2.326 . S
O389 C381 1.252 . S
In390 O391 2.294 . S
In390 O392 2.326 . S
In390 O396 2.266 . S
In390 O397 2.326 . S
In390 O398 2.266 . S
In390 O399 2.326 . S
In390 O401 2.294 . S
In390 O402 2.326 . S
O391 In390 2.294 . S
O391 C400 1.240 . S
O392 In390 2.326 . S
O392 C400 1.252 . S
C393 O396 1.252 . S
C393 O397 1.260 . S
C394 O401 1.240 . S
C394 O402 1.252 . S
C395 O398 1.252 . S
C395 O399 1.260 . S
O396 In390 2.266 . S
O396 C393 1.252 . S
O397 In390 2.326 . S
O397 C393 1.260 . S
O398 In390 2.266 . S
O398 C395 1.252 . S
O399 In390 2.326 . S
O399 C395 1.260 . S
C400 O391 1.240 . S
C400 O392 1.252 . S
O401 In390 2.294 . S
O401 C394 1.240 . S
O402 In390 2.326 . S
O402 C394 1.252 . S
In403 O404 2.294 . S
In403 O405 2.326 . S
In403 O409 2.266 . S
In403 O410 2.326 . S
In403 O411 2.266 . S
In403 O412 2.326 . S
In403 O414 2.294 . S
In403 O415 2.326 . S
O404 In403 2.294 . S
O404 C413 1.240 . S
O405 In403 2.326 . S
O405 C413 1.252 . S
C406 O409 1.252 . S
C406 O410 1.260 . S
C407 O414 1.240 . S
C407 O415 1.252 . S
C408 O411 1.252 . S
C408 O412 1.260 . S
O409 In403 2.266 . S
O409 C406 1.252 . S
O410 In403 2.326 . S
O410 C406 1.260 . S
O411 In403 2.266 . S
O411 C408 1.252 . S
O412 In403 2.326 . S
O412 C408 1.260 . S
C413 O404 1.240 . S
C413 O405 1.252 . S
O414 In403 2.294 . S
O414 C407 1.240 . S
O415 In403 2.326 . S
O415 C407 1.252 . S
In416 O417 2.294 . S
In416 O418 2.326 . S
In416 O422 2.266 . S
In416 O423 2.326 . S
In416 O424 2.266 . S
In416 O425 2.326 . S
In416 O427 2.294 . S
In416 O428 2.326 . S
O417 In416 2.294 . S
O417 C426 1.240 . S
O418 In416 2.326 . S
O418 C426 1.252 . S
C419 O422 1.252 . S
C419 O423 1.260 . S
C420 O427 1.240 . S
C420 O428 1.252 . S
C421 O424 1.252 . S
C421 O425 1.260 . S
O422 In416 2.266 . S
O422 C419 1.252 . S
O423 In416 2.326 . S
O423 C419 1.260 . S
O424 In416 2.266 . S
O424 C421 1.252 . S
O425 In416 2.326 . S
O425 C421 1.260 . S
C426 O417 1.240 . S
C426 O418 1.252 . S
O427 In416 2.294 . S
O427 C420 1.240 . S
O428 In416 2.326 . S
O428 C420 1.252 . S
In429 O430 2.294 . S
In429 O431 2.326 . S
In429 O435 2.266 . S
In429 O436 2.326 . S
In429 O437 2.266 . S
In429 O438 2.326 . S
In429 O440 2.294 . S
In429 O441 2.326 . S
O430 In429 2.294 . S
O430 C439 1.240 . S
O431 In429 2.326 . S
O431 C439 1.252 . S
C432 O435 1.252 . S
C432 O436 1.260 . S
C433 O440 1.240 . S
C433 O441 1.252 . S
C434 O437 1.252 . S
C434 O438 1.260 . S
O435 In429 2.266 . S
O435 C432 1.252 . S
O436 In429 2.326 . S
O436 C432 1.260 . S
O437 In429 2.266 . S
O437 C434 1.252 . S
O438 In429 2.326 . S
O438 C434 1.260 . S
C439 O430 1.240 . S
C439 O431 1.252 . S
O440 In429 2.294 . S
O440 C433 1.240 . S
O441 In429 2.326 . S
O441 C433 1.252 . S
In442 O443 2.294 . S
In442 O444 2.326 . S
In442 O448 2.266 . S
In442 O449 2.326 . S
In442 O450 2.266 . S
In442 O451 2.326 . S
In442 O453 2.294 . S
In442 O454 2.326 . S
O443 In442 2.294 . S
O443 C452 1.240 . S
O444 In442 2.326 . S
O444 C452 1.252 . S
C445 O448 1.252 . S
C445 O449 1.260 . S
C446 O453 1.240 . S
C446 O454 1.252 . S
C447 O450 1.252 . S
C447 O451 1.260 . S
O448 In442 2.266 . S
O448 C445 1.252 . S
O449 In442 2.326 . S
O449 C445 1.260 . S
O450 In442 2.266 . S
O450 C447 1.252 . S
O451 In442 2.326 . S
O451 C447 1.260 . S
C452 O443 1.240 . S
C452 O444 1.252 . S
O453 In442 2.294 . S
O453 C446 1.240 . S
O454 In442 2.326 . S
O454 C446 1.252 . S
In455 O456 2.294 . S
In455 O457 2.326 . S
In455 O461 2.266 . S
In455 O462 2.326 . S
In455 O463 2.266 . S
In455 O464 2.326 . S
In455 O466 2.294 . S
In455 O467 2.326 . S
O456 In455 2.294 . S
O456 C465 1.240 . S
O457 In455 2.326 . S
O457 C465 1.252 . S
C458 O461 1.252 . S
C458 O462 1.260 . S
C459 O466 1.240 . S
C459 O467 1.252 . S
C460 O463 1.252 . S
C460 O464 1.260 . S
O461 In455 2.266 . S
O461 C458 1.252 . S
O462 In455 2.326 . S
O462 C458 1.260 . S
O463 In455 2.266 . S
O463 C460 1.252 . S
O464 In455 2.326 . S
O464 C460 1.260 . S
C465 O456 1.240 . S
C465 O457 1.252 . S
O466 In455 2.294 . S
O466 C459 1.240 . S
O467 In455 2.326 . S
O467 C459 1.252 . S
In468 O469 2.294 . S
In468 O470 2.326 . S
In468 O474 2.266 . S
In468 O475 2.326 . S
In468 O476 2.266 . S
In468 O477 2.326 . S
In468 O479 2.294 . S
In468 O480 2.326 . S
O469 In468 2.294 . S
O469 C478 1.240 . S
O470 In468 2.326 . S
O470 C478 1.252 . S
C471 O474 1.252 . S
C471 O475 1.260 . S
C472 O479 1.240 . S
C472 O480 1.252 . S
C473 O476 1.252 . S
C473 O477 1.260 . S
O474 In468 2.266 . S
O474 C471 1.252 . S
O475 In468 2.326 . S
O475 C471 1.260 . S
O476 In468 2.266 . S
O476 C473 1.252 . S
O477 In468 2.326 . S
O477 C473 1.260 . S
C478 O469 1.240 . S
C478 O470 1.252 . S
O479 In468 2.294 . S
O479 C472 1.240 . S
O480 In468 2.326 . S
O480 C472 1.252 . S
In481 O482 2.294 . S
In481 O483 2.326 . S
In481 O487 2.266 . S
In481 O488 2.326 . S
In481 O489 2.266 . S
In481 O490 2.326 . S
In481 O492 2.294 . S
In481 O493 2.326 . S
O482 In481 2.294 . S
O482 C491 1.240 . S
O483 In481 2.326 . S
O483 C491 1.252 . S
C484 O487 1.252 . S
C484 O488 1.260 . S
C485 O492 1.240 . S
C485 O493 1.252 . S
C486 O489 1.252 . S
C486 O490 1.260 . S
O487 In481 2.266 . S
O487 C484 1.252 . S
O488 In481 2.326 . S
O488 C484 1.260 . S
O489 In481 2.266 . S
O489 C486 1.252 . S
O490 In481 2.326 . S
O490 C486 1.260 . S
C491 O482 1.240 . S
C491 O483 1.252 . S
O492 In481 2.294 . S
O492 C485 1.240 . S
O493 In481 2.326 . S
O493 C485 1.252 . S
In494 O495 2.294 . S
In494 O496 2.326 . S
In494 O500 2.266 . S
In494 O501 2.326 . S
In494 O502 2.266 . S
In494 O503 2.326 . S
In494 O505 2.294 . S
In494 O506 2.326 . S
O495 In494 2.294 . S
O495 C504 1.240 . S
O496 In494 2.326 . S
O496 C504 1.252 . S
C497 O500 1.252 . S
C497 O501 1.260 . S
C498 O505 1.240 . S
C498 O506 1.252 . S
C499 O502 1.252 . S
C499 O503 1.260 . S
O500 In494 2.266 . S
O500 C497 1.252 . S
O501 In494 2.326 . S
O501 C497 1.260 . S
O502 In494 2.266 . S
O502 C499 1.252 . S
O503 In494 2.326 . S
O503 C499 1.260 . S
C504 O495 1.240 . S
C504 O496 1.252 . S
O505 In494 2.294 . S
O505 C498 1.240 . S
O506 In494 2.326 . S
O506 C498 1.252 . S
In507 O508 2.294 . S
In507 O509 2.326 . S
In507 O513 2.266 . S
In507 O514 2.326 . S
In507 O515 2.266 . S
In507 O516 2.326 . S
In507 O518 2.294 . S
In507 O519 2.326 . S
O508 In507 2.294 . S
O508 C517 1.240 . S
O509 In507 2.326 . S
O509 C517 1.252 . S
C510 O513 1.252 . S
C510 O514 1.260 . S
C511 O518 1.240 . S
C511 O519 1.252 . S
C512 O515 1.252 . S
C512 O516 1.260 . S
O513 In507 2.266 . S
O513 C510 1.252 . S
O514 In507 2.326 . S
O514 C510 1.260 . S
O515 In507 2.266 . S
O515 C512 1.252 . S
O516 In507 2.326 . S
O516 C512 1.260 . S
C517 O508 1.240 . S
C517 O509 1.252 . S
O518 In507 2.294 . S
O518 C511 1.240 . S
O519 In507 2.326 . S
O519 C511 1.252 . S
In520 O521 2.294 . S
In520 O522 2.326 . S
In520 O526 2.266 . S
In520 O527 2.326 . S
In520 O528 2.266 . S
In520 O529 2.326 . S
In520 O531 2.294 . S
In520 O532 2.326 . S
O521 In520 2.294 . S
O521 C530 1.240 . S
O522 In520 2.326 . S
O522 C530 1.252 . S
C523 O526 1.252 . S
C523 O527 1.260 . S
C524 O531 1.240 . S
C524 O532 1.252 . S
C525 O528 1.252 . S
C525 O529 1.260 . S
O526 In520 2.266 . S
O526 C523 1.252 . S
O527 In520 2.326 . S
O527 C523 1.260 . S
O528 In520 2.266 . S
O528 C525 1.252 . S
O529 In520 2.326 . S
O529 C525 1.260 . S
C530 O521 1.240 . S
C530 O522 1.252 . S
O531 In520 2.294 . S
O531 C524 1.240 . S
O532 In520 2.326 . S
O532 C524 1.252 . S
In533 O534 2.294 . S
In533 O535 2.326 . S
In533 O539 2.266 . S
In533 O540 2.326 . S
In533 O541 2.266 . S
In533 O542 2.326 . S
In533 O544 2.294 . S
In533 O545 2.326 . S
O534 In533 2.294 . S
O534 C543 1.240 . S
O535 In533 2.326 . S
O535 C543 1.252 . S
C536 O539 1.252 . S
C536 O540 1.260 . S
C537 O544 1.240 . S
C537 O545 1.252 . S
C538 O541 1.252 . S
C538 O542 1.260 . S
O539 In533 2.266 . S
O539 C536 1.252 . S
O540 In533 2.326 . S
O540 C536 1.260 . S
O541 In533 2.266 . S
O541 C538 1.252 . S
O542 In533 2.326 . S
O542 C538 1.260 . S
C543 O534 1.240 . S
C543 O535 1.252 . S
O544 In533 2.294 . S
O544 C537 1.240 . S
O545 In533 2.326 . S
O545 C537 1.252 . S
In546 O547 2.294 . S
In546 O548 2.326 . S
In546 O552 2.266 . S
In546 O553 2.326 . S
In546 O554 2.266 . S
In546 O555 2.326 . S
In546 O557 2.294 . S
In546 O558 2.326 . S
O547 In546 2.294 . S
O547 C556 1.240 . S
O548 In546 2.326 . S
O548 C556 1.252 . S
C549 O552 1.252 . S
C549 O553 1.260 . S
C550 O557 1.240 . S
C550 O558 1.252 . S
C551 O554 1.252 . S
C551 O555 1.260 . S
O552 In546 2.266 . S
O552 C549 1.252 . S
O553 In546 2.326 . S
O553 C549 1.260 . S
O554 In546 2.266 . S
O554 C551 1.252 . S
O555 In546 2.326 . S
O555 C551 1.260 . S
C556 O547 1.240 . S
C556 O548 1.252 . S
O557 In546 2.294 . S
O557 C550 1.240 . S
O558 In546 2.326 . S
O558 C550 1.252 . S
In559 O560 2.294 . S
In559 O561 2.326 . S
In559 O565 2.266 . S
In559 O566 2.326 . S
In559 O567 2.266 . S
In559 O568 2.326 . S
In559 O570 2.294 . S
In559 O571 2.326 . S
O560 In559 2.294 . S
O560 C569 1.240 . S
O561 In559 2.326 . S
O561 C569 1.252 . S
C562 O565 1.252 . S
C562 O566 1.260 . S
C563 O570 1.240 . S
C563 O571 1.252 . S
C564 O567 1.252 . S
C564 O568 1.260 . S
O565 In559 2.266 . S
O565 C562 1.252 . S
O566 In559 2.326 . S
O566 C562 1.260 . S
O567 In559 2.266 . S
O567 C564 1.252 . S
O568 In559 2.326 . S
O568 C564 1.260 . S
C569 O560 1.240 . S
C569 O561 1.252 . S
O570 In559 2.294 . S
O570 C563 1.240 . S
O571 In559 2.326 . S
O571 C563 1.252 . S
In572 O573 2.294 . S
In572 O574 2.326 . S
In572 O578 2.266 . S
In572 O579 2.326 . S
In572 O580 2.266 . S
In572 O581 2.326 . S
In572 O583 2.294 . S
In572 O584 2.326 . S
O573 In572 2.294 . S
O573 C582 1.240 . S
O574 In572 2.326 . S
O574 C582 1.252 . S
C575 O578 1.252 . S
C575 O579 1.260 . S
C576 O583 1.240 . S
C576 O584 1.252 . S
C577 O580 1.252 . S
C577 O581 1.260 . S
O578 In572 2.266 . S
O578 C575 1.252 . S
O579 In572 2.326 . S
O579 C575 1.260 . S
O580 In572 2.266 . S
O580 C577 1.252 . S
O581 In572 2.326 . S
O581 C577 1.260 . S
C582 O573 1.240 . S
C582 O574 1.252 . S
O583 In572 2.294 . S
O583 C576 1.240 . S
O584 In572 2.326 . S
O584 C576 1.252 . S
In585 O586 2.294 . S
In585 O587 2.326 . S
In585 O591 2.266 . S
In585 O592 2.326 . S
In585 O593 2.266 . S
In585 O594 2.326 . S
In585 O596 2.294 . S
In585 O597 2.326 . S
O586 In585 2.294 . S
O586 C595 1.240 . S
O587 In585 2.326 . S
O587 C595 1.252 . S
C588 O591 1.252 . S
C588 O592 1.260 . S
C589 O596 1.240 . S
C589 O597 1.252 . S
C590 O593 1.252 . S
C590 O594 1.260 . S
O591 In585 2.266 . S
O591 C588 1.252 . S
O592 In585 2.326 . S
O592 C588 1.260 . S
O593 In585 2.266 . S
O593 C590 1.252 . S
O594 In585 2.326 . S
O594 C590 1.260 . S
C595 O586 1.240 . S
C595 O587 1.252 . S
O596 In585 2.294 . S
O596 C589 1.240 . S
O597 In585 2.326 . S
O597 C589 1.252 . S
In598 O599 2.294 . S
In598 O600 2.326 . S
In598 O604 2.266 . S
In598 O605 2.326 . S
In598 O606 2.266 . S
In598 O607 2.326 . S
In598 O609 2.294 . S
In598 O610 2.326 . S
O599 In598 2.294 . S
O599 C608 1.240 . S
O600 In598 2.326 . S
O600 C608 1.252 . S
C601 O604 1.252 . S
C601 O605 1.260 . S
C602 O609 1.240 . S
C602 O610 1.252 . S
C603 O606 1.252 . S
C603 O607 1.260 . S
O604 In598 2.266 . S
O604 C601 1.252 . S
O605 In598 2.326 . S
O605 C601 1.260 . S
O606 In598 2.266 . S
O606 C603 1.252 . S
O607 In598 2.326 . S
O607 C603 1.260 . S
C608 O599 1.240 . S
C608 O600 1.252 . S
O609 In598 2.294 . S
O609 C602 1.240 . S
O610 In598 2.326 . S
O610 C602 1.252 . S
In611 O612 2.294 . S
In611 O613 2.326 . S
In611 O617 2.266 . S
In611 O618 2.326 . S
In611 O619 2.266 . S
In611 O620 2.326 . S
In611 O622 2.294 . S
In611 O623 2.326 . S
O612 In611 2.294 . S
O612 C621 1.240 . S
O613 In611 2.326 . S
O613 C621 1.252 . S
C614 O617 1.252 . S
C614 O618 1.260 . S
C615 O622 1.240 . S
C615 O623 1.252 . S
C616 O619 1.252 . S
C616 O620 1.260 . S
O617 In611 2.266 . S
O617 C614 1.252 . S
O618 In611 2.326 . S
O618 C614 1.260 . S
O619 In611 2.266 . S
O619 C616 1.252 . S
O620 In611 2.326 . S
O620 C616 1.260 . S
C621 O612 1.240 . S
C621 O613 1.252 . S
O622 In611 2.294 . S
O622 C615 1.240 . S
O623 In611 2.326 . S
O623 C615 1.252 . S
H624 C630 0.930 . S
H625 C634 0.930 . S
H626 C639 0.929 . S
H627 C637 0.929 . S
H628 C632 0.929 . S
H629 C638 0.929 . S
C630 H624 0.930 . S
C630 C631 1.367 . S
C630 C638 1.378 . S
C631 C630 1.367 . S
C631 C639 1.433 . S
C632 H628 0.929 . S
C632 C634 1.378 . S
C632 C636 1.350 . S
C633 C636 1.463 . S
C633 C638 1.350 . S
C633 N641 1.427 . S
C634 H625 0.930 . S
C634 C632 1.378 . S
C634 C635 1.367 . S
C635 C634 1.367 . S
C635 C637 1.433 . S
C636 C632 1.350 . S
C636 C633 1.463 . S
C636 N640 1.427 . S
C637 H627 0.929 . S
C637 C635 1.433 . S
C637 N640 1.384 . S
C638 H629 0.929 . S
C638 C630 1.378 . S
C638 C633 1.350 . S
C639 H626 0.929 . S
C639 C631 1.433 . S
C639 N641 1.384 . S
N640 C636 1.427 . S
N640 C637 1.384 . S
N641 C633 1.427 . S
N641 C639 1.384 . S
H642 C648 0.930 . S
H643 C652 0.930 . S
H644 C657 0.929 . S
H645 C655 0.929 . S
H646 C650 0.929 . S
H647 C656 0.929 . S
C648 H642 0.930 . S
C648 C649 1.367 . S
C648 C656 1.378 . S
C649 C648 1.367 . S
C649 C657 1.433 . S
C650 H646 0.929 . S
C650 C652 1.378 . S
C650 C654 1.350 . S
C651 C654 1.463 . S
C651 C656 1.350 . S
C651 N659 1.427 . S
C652 H643 0.930 . S
C652 C650 1.378 . S
C652 C653 1.367 . S
C653 C652 1.367 . S
C653 C655 1.433 . S
C654 C650 1.350 . S
C654 C651 1.463 . S
C654 N658 1.427 . S
C655 H645 0.929 . S
C655 C653 1.433 . S
C655 N658 1.384 . S
C656 H647 0.929 . S
C656 C648 1.378 . S
C656 C651 1.350 . S
C657 H644 0.929 . S
C657 C649 1.433 . S
C657 N659 1.384 . S
N658 C654 1.427 . S
N658 C655 1.384 . S
N659 C651 1.427 . S
N659 C657 1.384 . S
H660 C666 0.930 . S
H661 C670 0.930 . S
H662 C675 0.929 . S
H663 C673 0.929 . S
H664 C668 0.929 . S
H665 C674 0.929 . S
C666 H660 0.930 . S
C666 C667 1.367 . S
C666 C674 1.378 . S
C667 C666 1.367 . S
C667 C675 1.433 . S
C668 H664 0.929 . S
C668 C670 1.378 . S
C668 C672 1.350 . S
C669 C672 1.463 . S
C669 C674 1.350 . S
C669 N677 1.427 . S
C670 H661 0.930 . S
C670 C668 1.378 . S
C670 C671 1.367 . S
C671 C670 1.367 . S
C671 C673 1.433 . S
C672 C668 1.350 . S
C672 C669 1.463 . S
C672 N676 1.427 . S
C673 H663 0.929 . S
C673 C671 1.433 . S
C673 N676 1.384 . S
C674 H665 0.929 . S
C674 C666 1.378 . S
C674 C669 1.350 . S
C675 H662 0.929 . S
C675 C667 1.433 . S
C675 N677 1.384 . S
N676 C672 1.427 . S
N676 C673 1.384 . S
N677 C669 1.427 . S
N677 C675 1.384 . S
H678 C684 0.930 . S
H679 C688 0.930 . S
H680 C693 0.929 . S
H681 C691 0.929 . S
H682 C686 0.929 . S
H683 C692 0.929 . S
C684 H678 0.930 . S
C684 C685 1.367 . S
C684 C692 1.378 . S
C685 C684 1.367 . S
C685 C693 1.433 . S
C686 H682 0.929 . S
C686 C688 1.378 . S
C686 C690 1.350 . S
C687 C690 1.463 . S
C687 C692 1.350 . S
C687 N695 1.427 . S
C688 H679 0.930 . S
C688 C686 1.378 . S
C688 C689 1.367 . S
C689 C688 1.367 . S
C689 C691 1.433 . S
C690 C686 1.350 . S
C690 C687 1.463 . S
C690 N694 1.427 . S
C691 H681 0.929 . S
C691 C689 1.433 . S
C691 N694 1.384 . S
C692 H683 0.929 . S
C692 C684 1.378 . S
C692 C687 1.350 . S
C693 H680 0.929 . S
C693 C685 1.433 . S
C693 N695 1.384 . S
N694 C690 1.427 . S
N694 C691 1.384 . S
N695 C687 1.427 . S
N695 C693 1.384 . S
H696 C702 0.930 . S
H697 C706 0.930 . S
H698 C711 0.929 . S
H699 C709 0.929 . S
H700 C704 0.929 . S
H701 C710 0.929 . S
C702 H696 0.930 . S
C702 C703 1.367 . S
C702 C710 1.378 . S
C703 C702 1.367 . S
C703 C711 1.433 . S
C704 H700 0.929 . S
C704 C706 1.378 . S
C704 C708 1.350 . S
C705 C708 1.463 . S
C705 C710 1.350 . S
C705 N713 1.427 . S
C706 H697 0.930 . S
C706 C704 1.378 . S
C706 C707 1.367 . S
C707 C706 1.367 . S
C707 C709 1.433 . S
C708 C704 1.350 . S
C708 C705 1.463 . S
C708 N712 1.427 . S
C709 H699 0.929 . S
C709 C707 1.433 . S
C709 N712 1.384 . S
C710 H701 0.929 . S
C710 C702 1.378 . S
C710 C705 1.350 . S
C711 H698 0.929 . S
C711 C703 1.433 . S
C711 N713 1.384 . S
N712 C708 1.427 . S
N712 C709 1.384 . S
N713 C705 1.427 . S
N713 C711 1.384 . S
H714 C720 0.930 . S
H715 C724 0.930 . S
H716 C729 0.929 . S
H717 C727 0.929 . S
H718 C722 0.929 . S
H719 C728 0.929 . S
C720 H714 0.930 . S
C720 C721 1.367 . S
C720 C728 1.378 . S
C721 C720 1.367 . S
C721 C729 1.433 . S
C722 H718 0.929 . S
C722 C724 1.378 . S
C722 C726 1.350 . S
C723 C726 1.463 . S
C723 C728 1.350 . S
C723 N731 1.427 . S
C724 H715 0.930 . S
C724 C722 1.378 . S
C724 C725 1.367 . S
C725 C724 1.367 . S
C725 C727 1.433 . S
C726 C722 1.350 . S
C726 C723 1.463 . S
C726 N730 1.427 . S
C727 H717 0.929 . S
C727 C725 1.433 . S
C727 N730 1.384 . S
C728 H719 0.929 . S
C728 C720 1.378 . S
C728 C723 1.350 . S
C729 H716 0.929 . S
C729 C721 1.433 . S
C729 N731 1.384 . S
N730 C726 1.427 . S
N730 C727 1.384 . S
N731 C723 1.427 . S
N731 C729 1.384 . S
H732 C738 0.930 . S
H733 C742 0.930 . S
H734 C747 0.929 . S
H735 C745 0.929 . S
H736 C740 0.929 . S
H737 C746 0.929 . S
C738 H732 0.930 . S
C738 C739 1.367 . S
C738 C746 1.378 . S
C739 C738 1.367 . S
C739 C747 1.433 . S
C740 H736 0.929 . S
C740 C742 1.378 . S
C740 C744 1.350 . S
C741 C744 1.463 . S
C741 C746 1.350 . S
C741 N749 1.427 . S
C742 H733 0.930 . S
C742 C740 1.378 . S
C742 C743 1.367 . S
C743 C742 1.367 . S
C743 C745 1.433 . S
C744 C740 1.350 . S
C744 C741 1.463 . S
C744 N748 1.427 . S
C745 H735 0.929 . S
C745 C743 1.433 . S
C745 N748 1.384 . S
C746 H737 0.929 . S
C746 C738 1.378 . S
C746 C741 1.350 . S
C747 H734 0.929 . S
C747 C739 1.433 . S
C747 N749 1.384 . S
N748 C744 1.427 . S
N748 C745 1.384 . S
N749 C741 1.427 . S
N749 C747 1.384 . S
H750 C756 0.930 . S
H751 C760 0.930 . S
H752 C765 0.929 . S
H753 C763 0.929 . S
H754 C758 0.929 . S
H755 C764 0.929 . S
C756 H750 0.930 . S
C756 C757 1.367 . S
C756 C764 1.378 . S
C757 C756 1.367 . S
C757 C765 1.433 . S
C758 H754 0.929 . S
C758 C760 1.378 . S
C758 C762 1.350 . S
C759 C762 1.463 . S
C759 C764 1.350 . S
C759 N767 1.427 . S
C760 H751 0.930 . S
C760 C758 1.378 . S
C760 C761 1.367 . S
C761 C760 1.367 . S
C761 C763 1.433 . S
C762 C758 1.350 . S
C762 C759 1.463 . S
C762 N766 1.427 . S
C763 H753 0.929 . S
C763 C761 1.433 . S
C763 N766 1.384 . S
C764 H755 0.929 . S
C764 C756 1.378 . S
C764 C759 1.350 . S
C765 H752 0.929 . S
C765 C757 1.433 . S
C765 N767 1.384 . S
N766 C762 1.427 . S
N766 C763 1.384 . S
N767 C759 1.427 . S
N767 C765 1.384 . S
H768 C774 0.930 . S
H769 C778 0.930 . S
H770 C783 0.929 . S
H771 C781 0.929 . S
H772 C776 0.929 . S
H773 C782 0.929 . S
C774 H768 0.930 . S
C774 C775 1.367 . S
C774 C782 1.378 . S
C775 C774 1.367 . S
C775 C783 1.433 . S
C776 H772 0.929 . S
C776 C778 1.378 . S
C776 C780 1.350 . S
C777 C780 1.463 . S
C777 C782 1.350 . S
C777 N785 1.427 . S
C778 H769 0.930 . S
C778 C776 1.378 . S
C778 C779 1.367 . S
C779 C778 1.367 . S
C779 C781 1.433 . S
C780 C776 1.350 . S
C780 C777 1.463 . S
C780 N784 1.427 . S
C781 H771 0.929 . S
C781 C779 1.433 . S
C781 N784 1.384 . S
C782 H773 0.929 . S
C782 C774 1.378 . S
C782 C777 1.350 . S
C783 H770 0.929 . S
C783 C775 1.433 . S
C783 N785 1.384 . S
N784 C780 1.427 . S
N784 C781 1.384 . S
N785 C777 1.427 . S
N785 C783 1.384 . S
H786 C792 0.930 . S
H787 C796 0.930 . S
H788 C801 0.929 . S
H789 C799 0.929 . S
H790 C794 0.929 . S
H791 C800 0.929 . S
C792 H786 0.930 . S
C792 C793 1.367 . S
C792 C800 1.378 . S
C793 C792 1.367 . S
C793 C801 1.433 . S
C794 H790 0.929 . S
C794 C796 1.378 . S
C794 C798 1.350 . S
C795 C798 1.463 . S
C795 C800 1.350 . S
C795 N803 1.427 . S
C796 H787 0.930 . S
C796 C794 1.378 . S
C796 C797 1.367 . S
C797 C796 1.367 . S
C797 C799 1.433 . S
C798 C794 1.350 . S
C798 C795 1.463 . S
C798 N802 1.427 . S
C799 H789 0.929 . S
C799 C797 1.433 . S
C799 N802 1.384 . S
C800 H791 0.929 . S
C800 C792 1.378 . S
C800 C795 1.350 . S
C801 H788 0.929 . S
C801 C793 1.433 . S
C801 N803 1.384 . S
N802 C798 1.427 . S
N802 C799 1.384 . S
N803 C795 1.427 . S
N803 C801 1.384 . S
H804 C810 0.930 . S
H805 C814 0.930 . S
H806 C819 0.929 . S
H807 C817 0.929 . S
H808 C812 0.929 . S
H809 C818 0.929 . S
C810 H804 0.930 . S
C810 C811 1.367 . S
C810 C818 1.378 . S
C811 C810 1.367 . S
C811 C819 1.433 . S
C812 H808 0.929 . S
C812 C814 1.378 . S
C812 C816 1.350 . S
C813 C816 1.463 . S
C813 C818 1.350 . S
C813 N821 1.427 . S
C814 H805 0.930 . S
C814 C812 1.378 . S
C814 C815 1.367 . S
C815 C814 1.367 . S
C815 C817 1.433 . S
C816 C812 1.350 . S
C816 C813 1.463 . S
C816 N820 1.427 . S
C817 H807 0.929 . S
C817 C815 1.433 . S
C817 N820 1.384 . S
C818 H809 0.929 . S
C818 C810 1.378 . S
C818 C813 1.350 . S
C819 H806 0.929 . S
C819 C811 1.433 . S
C819 N821 1.384 . S
N820 C816 1.427 . S
N820 C817 1.384 . S
N821 C813 1.427 . S
N821 C819 1.384 . S
H822 C828 0.930 . S
H823 C832 0.930 . S
H824 C837 0.929 . S
H825 C835 0.929 . S
H826 C830 0.929 . S
H827 C836 0.929 . S
C828 H822 0.930 . S
C828 C829 1.367 . S
C828 C836 1.378 . S
C829 C828 1.367 . S
C829 C837 1.433 . S
C830 H826 0.929 . S
C830 C832 1.378 . S
C830 C834 1.350 . S
C831 C834 1.463 . S
C831 C836 1.350 . S
C831 N839 1.427 . S
C832 H823 0.930 . S
C832 C830 1.378 . S
C832 C833 1.367 . S
C833 C832 1.367 . S
C833 C835 1.433 . S
C834 C830 1.350 . S
C834 C831 1.463 . S
C834 N838 1.427 . S
C835 H825 0.929 . S
C835 C833 1.433 . S
C835 N838 1.384 . S
C836 H827 0.929 . S
C836 C828 1.378 . S
C836 C831 1.350 . S
C837 H824 0.929 . S
C837 C829 1.433 . S
C837 N839 1.384 . S
N838 C834 1.427 . S
N838 C835 1.384 . S
N839 C831 1.427 . S
N839 C837 1.384 . S
H840 C846 0.930 . S
H841 C850 0.930 . S
H842 C855 0.929 . S
H843 C853 0.929 . S
H844 C848 0.929 . S
H845 C854 0.929 . S
C846 H840 0.930 . S
C846 C847 1.367 . S
C846 C854 1.378 . S
C847 C846 1.367 . S
C847 C855 1.433 . S
C848 H844 0.929 . S
C848 C850 1.378 . S
C848 C852 1.350 . S
C849 C852 1.463 . S
C849 C854 1.350 . S
C849 N857 1.427 . S
C850 H841 0.930 . S
C850 C848 1.378 . S
C850 C851 1.367 . S
C851 C850 1.367 . S
C851 C853 1.433 . S
C852 C848 1.350 . S
C852 C849 1.463 . S
C852 N856 1.427 . S
C853 H843 0.929 . S
C853 C851 1.433 . S
C853 N856 1.384 . S
C854 H845 0.929 . S
C854 C846 1.378 . S
C854 C849 1.350 . S
C855 H842 0.929 . S
C855 C847 1.433 . S
C855 N857 1.384 . S
N856 C852 1.427 . S
N856 C853 1.384 . S
N857 C849 1.427 . S
N857 C855 1.384 . S
H858 C864 0.930 . S
H859 C868 0.930 . S
H860 C873 0.929 . S
H861 C871 0.929 . S
H862 C866 0.929 . S
H863 C872 0.929 . S
C864 H858 0.930 . S
C864 C865 1.367 . S
C864 C872 1.378 . S
C865 C864 1.367 . S
C865 C873 1.433 . S
C866 H862 0.929 . S
C866 C868 1.378 . S
C866 C870 1.350 . S
C867 C870 1.463 . S
C867 C872 1.350 . S
C867 N875 1.427 . S
C868 H859 0.930 . S
C868 C866 1.378 . S
C868 C869 1.367 . S
C869 C868 1.367 . S
C869 C871 1.433 . S
C870 C866 1.350 . S
C870 C867 1.463 . S
C870 N874 1.427 . S
C871 H861 0.929 . S
C871 C869 1.433 . S
C871 N874 1.384 . S
C872 H863 0.929 . S
C872 C864 1.378 . S
C872 C867 1.350 . S
C873 H860 0.929 . S
C873 C865 1.433 . S
C873 N875 1.384 . S
N874 C870 1.427 . S
N874 C871 1.384 . S
N875 C867 1.427 . S
N875 C873 1.384 . S
H876 C882 0.930 . S
H877 C886 0.930 . S
H878 C891 0.929 . S
H879 C889 0.929 . S
H880 C884 0.929 . S
H881 C890 0.929 . S
C882 H876 0.930 . S
C882 C883 1.367 . S
C882 C890 1.378 . S
C883 C882 1.367 . S
C883 C891 1.433 . S
C884 H880 0.929 . S
C884 C886 1.378 . S
C884 C888 1.350 . S
C885 C888 1.463 . S
C885 C890 1.350 . S
C885 N893 1.427 . S
C886 H877 0.930 . S
C886 C884 1.378 . S
C886 C887 1.367 . S
C887 C886 1.367 . S
C887 C889 1.433 . S
C888 C884 1.350 . S
C888 C885 1.463 . S
C888 N892 1.427 . S
C889 H879 0.929 . S
C889 C887 1.433 . S
C889 N892 1.384 . S
C890 H881 0.929 . S
C890 C882 1.378 . S
C890 C885 1.350 . S
C891 H878 0.929 . S
C891 C883 1.433 . S
C891 N893 1.384 . S
N892 C888 1.427 . S
N892 C889 1.384 . S
N893 C885 1.427 . S
N893 C891 1.384 . S
H894 C900 0.930 . S
H895 C904 0.930 . S
H896 C909 0.929 . S
H897 C907 0.929 . S
H898 C902 0.929 . S
H899 C908 0.929 . S
C900 H894 0.930 . S
C900 C901 1.367 . S
C900 C908 1.378 . S
C901 C900 1.367 . S
C901 C909 1.433 . S
C902 H898 0.929 . S
C902 C904 1.378 . S
C902 C906 1.350 . S
C903 C906 1.463 . S
C903 C908 1.350 . S
C903 N911 1.427 . S
C904 H895 0.930 . S
C904 C902 1.378 . S
C904 C905 1.367 . S
C905 C904 1.367 . S
C905 C907 1.433 . S
C906 C902 1.350 . S
C906 C903 1.463 . S
C906 N910 1.427 . S
C907 H897 0.929 . S
C907 C905 1.433 . S
C907 N910 1.384 . S
C908 H899 0.929 . S
C908 C900 1.378 . S
C908 C903 1.350 . S
C909 H896 0.929 . S
C909 C901 1.433 . S
C909 N911 1.384 . S
N910 C906 1.427 . S
N910 C907 1.384 . S
N911 C903 1.427 . S
N911 C909 1.384 . S
H912 C918 0.930 . S
H913 C922 0.930 . S
H914 C927 0.929 . S
H915 C925 0.929 . S
H916 C920 0.929 . S
H917 C926 0.929 . S
C918 H912 0.930 . S
C918 C919 1.367 . S
C918 C926 1.378 . S
C919 C918 1.367 . S
C919 C927 1.433 . S
C920 H916 0.929 . S
C920 C922 1.378 . S
C920 C924 1.350 . S
C921 C924 1.463 . S
C921 C926 1.350 . S
C921 N929 1.427 . S
C922 H913 0.930 . S
C922 C920 1.378 . S
C922 C923 1.367 . S
C923 C922 1.367 . S
C923 C925 1.433 . S
C924 C920 1.350 . S
C924 C921 1.463 . S
C924 N928 1.427 . S
C925 H915 0.929 . S
C925 C923 1.433 . S
C925 N928 1.384 . S
C926 H917 0.929 . S
C926 C918 1.378 . S
C926 C921 1.350 . S
C927 H914 0.929 . S
C927 C919 1.433 . S
C927 N929 1.384 . S
N928 C924 1.427 . S
N928 C925 1.384 . S
N929 C921 1.427 . S
N929 C927 1.384 . S
H930 C936 0.930 . S
H931 C940 0.930 . S
H932 C945 0.929 . S
H933 C943 0.929 . S
H934 C938 0.929 . S
H935 C944 0.929 . S
C936 H930 0.930 . S
C936 C937 1.367 . S
C936 C944 1.378 . S
C937 C936 1.367 . S
C937 C945 1.433 . S
C938 H934 0.929 . S
C938 C940 1.378 . S
C938 C942 1.350 . S
C939 C942 1.463 . S
C939 C944 1.350 . S
C939 N947 1.427 . S
C940 H931 0.930 . S
C940 C938 1.378 . S
C940 C941 1.367 . S
C941 C940 1.367 . S
C941 C943 1.433 . S
C942 C938 1.350 . S
C942 C939 1.463 . S
C942 N946 1.427 . S
C943 H933 0.929 . S
C943 C941 1.433 . S
C943 N946 1.384 . S
C944 H935 0.929 . S
C944 C936 1.378 . S
C944 C939 1.350 . S
C945 H932 0.929 . S
C945 C937 1.433 . S
C945 N947 1.384 . S
N946 C942 1.427 . S
N946 C943 1.384 . S
N947 C939 1.427 . S
N947 C945 1.384 . S
H948 C954 0.930 . S
H949 C958 0.930 . S
H950 C963 0.929 . S
H951 C961 0.929 . S
H952 C956 0.929 . S
H953 C962 0.929 . S
C954 H948 0.930 . S
C954 C955 1.367 . S
C954 C962 1.378 . S
C955 C954 1.367 . S
C955 C963 1.433 . S
C956 H952 0.929 . S
C956 C958 1.378 . S
C956 C960 1.350 . S
C957 C960 1.463 . S
C957 C962 1.350 . S
C957 N965 1.427 . S
C958 H949 0.930 . S
C958 C956 1.378 . S
C958 C959 1.367 . S
C959 C958 1.367 . S
C959 C961 1.433 . S
C960 C956 1.350 . S
C960 C957 1.463 . S
C960 N964 1.427 . S
C961 H951 0.929 . S
C961 C959 1.433 . S
C961 N964 1.384 . S
C962 H953 0.929 . S
C962 C954 1.378 . S
C962 C957 1.350 . S
C963 H950 0.929 . S
C963 C955 1.433 . S
C963 N965 1.384 . S
N964 C960 1.427 . S
N964 C961 1.384 . S
N965 C957 1.427 . S
N965 C963 1.384 . S
H966 C972 0.930 . S
H967 C976 0.930 . S
H968 C981 0.929 . S
H969 C979 0.929 . S
H970 C974 0.929 . S
H971 C980 0.929 . S
C972 H966 0.930 . S
C972 C973 1.367 . S
C972 C980 1.378 . S
C973 C972 1.367 . S
C973 C981 1.433 . S
C974 H970 0.929 . S
C974 C976 1.378 . S
C974 C978 1.350 . S
C975 C978 1.463 . S
C975 C980 1.350 . S
C975 N983 1.427 . S
C976 H967 0.930 . S
C976 C974 1.378 . S
C976 C977 1.367 . S
C977 C976 1.367 . S
C977 C979 1.433 . S
C978 C974 1.350 . S
C978 C975 1.463 . S
C978 N982 1.427 . S
C979 H969 0.929 . S
C979 C977 1.433 . S
C979 N982 1.384 . S
C980 H971 0.929 . S
C980 C972 1.378 . S
C980 C975 1.350 . S
C981 H968 0.929 . S
C981 C973 1.433 . S
C981 N983 1.384 . S
N982 C978 1.427 . S
N982 C979 1.384 . S
N983 C975 1.427 . S
N983 C981 1.384 . S
H984 C990 0.930 . S
H985 C994 0.930 . S
H986 C999 0.929 . S
H987 C997 0.929 . S
H988 C992 0.929 . S
H989 C998 0.929 . S
C990 H984 0.930 . S
C990 C991 1.367 . S
C990 C998 1.378 . S
C991 C990 1.367 . S
C991 C999 1.433 . S
C992 H988 0.929 . S
C992 C994 1.378 . S
C992 C996 1.350 . S
C993 C996 1.463 . S
C993 C998 1.350 . S
C993 N1001 1.427 . S
C994 H985 0.930 . S
C994 C992 1.378 . S
C994 C995 1.367 . S
C995 C994 1.367 . S
C995 C997 1.433 . S
C996 C992 1.350 . S
C996 C993 1.463 . S
C996 N1000 1.427 . S
C997 H987 0.929 . S
C997 C995 1.433 . S
C997 N1000 1.384 . S
C998 H989 0.929 . S
C998 C990 1.378 . S
C998 C993 1.350 . S
C999 H986 0.929 . S
C999 C991 1.433 . S
C999 N1001 1.384 . S
N1000 C996 1.427 . S
N1000 C997 1.384 . S
N1001 C993 1.427 . S
N1001 C999 1.384 . S
H1002 C1008 0.930 . S
H1003 C1012 0.930 . S
H1004 C1017 0.929 . S
H1005 C1015 0.929 . S
H1006 C1010 0.929 . S
H1007 C1016 0.929 . S
C1008 H1002 0.930 . S
C1008 C1009 1.367 . S
C1008 C1016 1.378 . S
C1009 C1008 1.367 . S
C1009 C1017 1.433 . S
C1010 H1006 0.929 . S
C1010 C1012 1.378 . S
C1010 C1014 1.350 . S
C1011 C1014 1.463 . S
C1011 C1016 1.350 . S
C1011 N1019 1.427 . S
C1012 H1003 0.930 . S
C1012 C1010 1.378 . S
C1012 C1013 1.367 . S
C1013 C1012 1.367 . S
C1013 C1015 1.433 . S
C1014 C1010 1.350 . S
C1014 C1011 1.463 . S
C1014 N1018 1.427 . S
C1015 H1005 0.929 . S
C1015 C1013 1.433 . S
C1015 N1018 1.384 . S
C1016 H1007 0.929 . S
C1016 C1008 1.378 . S
C1016 C1011 1.350 . S
C1017 H1004 0.929 . S
C1017 C1009 1.433 . S
C1017 N1019 1.384 . S
N1018 C1014 1.427 . S
N1018 C1015 1.384 . S
N1019 C1011 1.427 . S
N1019 C1017 1.384 . S
H1020 C1026 0.930 . S
H1021 C1030 0.930 . S
H1022 C1035 0.929 . S
H1023 C1033 0.929 . S
H1024 C1028 0.929 . S
H1025 C1034 0.929 . S
C1026 H1020 0.930 . S
C1026 C1027 1.367 . S
C1026 C1034 1.378 . S
C1027 C1026 1.367 . S
C1027 C1035 1.433 . S
C1028 H1024 0.929 . S
C1028 C1030 1.378 . S
C1028 C1032 1.350 . S
C1029 C1032 1.463 . S
C1029 C1034 1.350 . S
C1029 N1037 1.427 . S
C1030 H1021 0.930 . S
C1030 C1028 1.378 . S
C1030 C1031 1.367 . S
C1031 C1030 1.367 . S
C1031 C1033 1.433 . S
C1032 C1028 1.350 . S
C1032 C1029 1.463 . S
C1032 N1036 1.427 . S
C1033 H1023 0.929 . S
C1033 C1031 1.433 . S
C1033 N1036 1.384 . S
C1034 H1025 0.929 . S
C1034 C1026 1.378 . S
C1034 C1029 1.350 . S
C1035 H1022 0.929 . S
C1035 C1027 1.433 . S
C1035 N1037 1.384 . S
N1036 C1032 1.427 . S
N1036 C1033 1.384 . S
N1037 C1029 1.427 . S
N1037 C1035 1.384 . S
H1038 C1044 0.930 . S
H1039 C1048 0.930 . S
H1040 C1053 0.929 . S
H1041 C1051 0.929 . S
H1042 C1046 0.929 . S
H1043 C1052 0.929 . S
C1044 H1038 0.930 . S
C1044 C1045 1.367 . S
C1044 C1052 1.378 . S
C1045 C1044 1.367 . S
C1045 C1053 1.433 . S
C1046 H1042 0.929 . S
C1046 C1048 1.378 . S
C1046 C1050 1.350 . S
C1047 C1050 1.463 . S
C1047 C1052 1.350 . S
C1047 N1055 1.427 . S
C1048 H1039 0.930 . S
C1048 C1046 1.378 . S
C1048 C1049 1.367 . S
C1049 C1048 1.367 . S
C1049 C1051 1.433 . S
C1050 C1046 1.350 . S
C1050 C1047 1.463 . S
C1050 N1054 1.427 . S
C1051 H1041 0.929 . S
C1051 C1049 1.433 . S
C1051 N1054 1.384 . S
C1052 H1043 0.929 . S
C1052 C1044 1.378 . S
C1052 C1047 1.350 . S
C1053 H1040 0.929 . S
C1053 C1045 1.433 . S
C1053 N1055 1.384 . S
N1054 C1050 1.427 . S
N1054 C1051 1.384 . S
N1055 C1047 1.427 . S
N1055 C1053 1.384 . S
H1056 C1062 0.930 . S
H1057 C1066 0.930 . S
H1058 C1071 0.929 . S
H1059 C1069 0.929 . S
H1060 C1064 0.929 . S
H1061 C1070 0.929 . S
C1062 H1056 0.930 . S
C1062 C1063 1.367 1_455 S
C1062 C1070 1.378 . S
C1063 C1062 1.367 1_655 S
C1063 C1071 1.433 . S
C1064 H1060 0.929 . S
C1064 C1066 1.378 . S
C1064 C1068 1.350 1_655 S
C1065 C1068 1.463 1_655 S
C1065 C1070 1.350 1_655 S
C1065 N1073 1.427 . S
C1066 H1057 0.930 . S
C1066 C1064 1.378 . S
C1066 C1067 1.367 1_655 S
C1067 C1066 1.367 1_455 S
C1067 C1069 1.433 . S
C1068 C1064 1.350 1_455 S
C1068 C1065 1.463 1_455 S
C1068 N1072 1.427 . S
C1069 H1059 0.929 . S
C1069 C1067 1.433 . S
C1069 N1072 1.384 . S
C1070 H1061 0.929 . S
C1070 C1062 1.378 . S
C1070 C1065 1.350 1_455 S
C1071 H1058 0.929 . S
C1071 C1063 1.433 . S
C1071 N1073 1.384 . S
N1072 C1068 1.427 . S
N1072 C1069 1.384 . S
N1073 C1065 1.427 . S
N1073 C1071 1.384 . S
H1074 C1080 0.930 . S
H1075 C1084 0.930 . S
H1076 C1089 0.929 . S
H1077 C1087 0.929 . S
H1078 C1082 0.929 . S
H1079 C1088 0.929 . S
C1080 H1074 0.930 . S
C1080 C1081 1.367 . S
C1080 C1088 1.378 . S
C1081 C1080 1.367 . S
C1081 C1089 1.433 1_565 S
C1082 H1078 0.929 . S
C1082 C1084 1.378 . S
C1082 C1086 1.350 . S
C1083 C1086 1.463 1_565 S
C1083 C1088 1.350 . S
C1083 N1091 1.427 1_565 S
C1084 H1075 0.930 . S
C1084 C1082 1.378 . S
C1084 C1085 1.367 . S
C1085 C1084 1.367 . S
C1085 C1087 1.433 1_545 S
C1086 C1082 1.350 . S
C1086 C1083 1.463 1_545 S
C1086 N1090 1.427 1_545 S
C1087 H1077 0.929 . S
C1087 C1085 1.433 1_565 S
C1087 N1090 1.384 . S
C1088 H1079 0.929 . S
C1088 C1080 1.378 . S
C1088 C1083 1.350 . S
C1089 H1076 0.929 . S
C1089 C1081 1.433 1_545 S
C1089 N1091 1.384 . S
N1090 C1086 1.427 1_565 S
N1090 C1087 1.384 . S
N1091 C1083 1.427 1_545 S
N1091 C1089 1.384 . S
H1092 C1098 0.926 1_455 S
H1093 C1102 0.926 1_655 S
H1094 C1107 0.929 . S
H1095 C1105 0.929 . S
H1096 C1100 0.929 . S
H1097 C1106 0.929 . S
C1098 H1092 0.926 1_655 S
C1098 C1099 1.375 . S
C1098 C1106 1.374 1_655 S
C1099 C1098 1.375 . S
C1099 C1107 1.433 . S
C1100 H1096 0.929 . S
C1100 C1102 1.374 1_655 S
C1100 C1104 1.350 1_655 S
C1101 C1104 1.463 1_655 S
C1101 C1106 1.350 1_655 S
C1101 N1109 1.427 . S
C1102 H1093 0.926 1_455 S
C1102 C1100 1.374 1_455 S
C1102 C1103 1.375 . S
C1103 C1102 1.375 . S
C1103 C1105 1.433 . S
C1104 C1100 1.350 1_455 S
C1104 C1101 1.463 1_455 S
C1104 N1108 1.427 . S
C1105 H1095 0.929 . S
C1105 C1103 1.433 . S
C1105 N1108 1.384 . S
C1106 H1097 0.929 . S
C1106 C1098 1.374 1_455 S
C1106 C1101 1.350 1_455 S
C1107 H1094 0.929 . S
C1107 C1099 1.433 . S
C1107 N1109 1.384 . S
N1108 C1104 1.427 . S
N1108 C1105 1.384 . S
N1109 C1101 1.427 . S
N1109 C1107 1.384 . S
H1110 C1116 0.930 . S
H1111 C1120 0.930 . S
H1112 C1125 0.929 . S
H1113 C1123 0.929 . S
H1114 C1118 0.929 . S
H1115 C1124 0.929 . S
C1116 H1110 0.930 . S
C1116 C1117 1.367 . S
C1116 C1124 1.378 . S
C1117 C1116 1.367 . S
C1117 C1125 1.433 1_545 S
C1118 H1114 0.929 . S
C1118 C1120 1.378 . S
C1118 C1122 1.350 . S
C1119 C1122 1.463 1_545 S
C1119 C1124 1.350 . S
C1119 N1127 1.427 1_545 S
C1120 H1111 0.930 . S
C1120 C1118 1.378 . S
C1120 C1121 1.367 . S
C1121 C1120 1.367 . S
C1121 C1123 1.433 1_565 S
C1122 C1118 1.350 . S
C1122 C1119 1.463 1_565 S
C1122 N1126 1.427 1_565 S
C1123 H1113 0.929 . S
C1123 C1121 1.433 1_545 S
C1123 N1126 1.384 . S
C1124 H1115 0.929 . S
C1124 C1116 1.378 . S
C1124 C1119 1.350 . S
C1125 H1112 0.929 . S
C1125 C1117 1.433 1_565 S
C1125 N1127 1.384 . S
N1126 C1122 1.427 1_545 S
N1126 C1123 1.384 . S
N1127 C1119 1.427 1_565 S
N1127 C1125 1.384 . S
H1128 C1134 0.930 . S
H1129 C1138 0.930 . S
H1130 C1143 0.929 . S
H1131 C1141 0.929 . S
H1132 C1136 0.929 . S
H1133 C1142 0.929 . S
C1134 H1128 0.930 . S
C1134 C1135 1.367 1_655 S
C1134 C1142 1.378 . S
C1135 C1134 1.367 1_455 S
C1135 C1143 1.433 . S
C1136 H1132 0.929 . S
C1136 C1138 1.378 . S
C1136 C1140 1.350 1_455 S
C1137 C1140 1.463 1_455 S
C1137 C1142 1.350 1_455 S
C1137 N1145 1.427 . S
C1138 H1129 0.930 . S
C1138 C1136 1.378 . S
C1138 C1139 1.367 1_455 S
C1139 C1138 1.367 1_655 S
C1139 C1141 1.433 . S
C1140 C1136 1.350 1_655 S
C1140 C1137 1.463 1_655 S
C1140 N1144 1.427 . S
C1141 H1131 0.929 . S
C1141 C1139 1.433 . S
C1141 N1144 1.384 . S
C1142 H1133 0.929 . S
C1142 C1134 1.378 . S
C1142 C1137 1.350 1_655 S
C1143 H1130 0.929 . S
C1143 C1135 1.433 . S
C1143 N1145 1.384 . S
N1144 C1140 1.427 . S
N1144 C1141 1.384 . S
N1145 C1137 1.427 . S
N1145 C1143 1.384 . S
H1146 C1152 0.930 . S
H1147 C1156 0.930 . S
H1148 C1161 0.929 . S
H1149 C1159 0.929 . S
H1150 C1154 0.929 . S
H1151 C1160 0.929 . S
C1152 H1146 0.930 . S
C1152 C1153 1.367 . S
C1152 C1160 1.378 . S
C1153 C1152 1.367 . S
C1153 C1161 1.433 1_565 S
C1154 H1150 0.929 . S
C1154 C1156 1.378 . S
C1154 C1158 1.350 . S
C1155 C1158 1.463 1_565 S
C1155 C1160 1.350 . S
C1155 N1163 1.427 1_565 S
C1156 H1147 0.930 . S
C1156 C1154 1.378 . S
C1156 C1157 1.367 . S
C1157 C1156 1.367 . S
C1157 C1159 1.433 1_545 S
C1158 C1154 1.350 . S
C1158 C1155 1.463 1_545 S
C1158 N1162 1.427 1_545 S
C1159 H1149 0.929 . S
C1159 C1157 1.433 1_565 S
C1159 N1162 1.384 . S
C1160 H1151 0.929 . S
C1160 C1152 1.378 . S
C1160 C1155 1.350 . S
C1161 H1148 0.929 . S
C1161 C1153 1.433 1_545 S
C1161 N1163 1.384 . S
N1162 C1158 1.427 1_565 S
N1162 C1159 1.384 . S
N1163 C1155 1.427 1_545 S
N1163 C1161 1.384 . S
H1164 C1170 0.930 . S
H1165 C1174 0.930 . S
H1166 C1179 0.929 . S
H1167 C1177 0.929 . S
H1168 C1172 0.929 . S
H1169 C1178 0.929 . S
C1170 H1164 0.930 . S
C1170 C1171 1.367 1_655 S
C1170 C1178 1.378 . S
C1171 C1170 1.367 1_455 S
C1171 C1179 1.433 . S
C1172 H1168 0.929 . S
C1172 C1174 1.378 . S
C1172 C1176 1.350 1_455 S
C1173 C1176 1.463 1_455 S
C1173 C1178 1.350 1_455 S
C1173 N1181 1.427 . S
C1174 H1165 0.930 . S
C1174 C1172 1.378 . S
C1174 C1175 1.367 1_455 S
C1175 C1174 1.367 1_655 S
C1175 C1177 1.433 . S
C1176 C1172 1.350 1_655 S
C1176 C1173 1.463 1_655 S
C1176 N1180 1.427 . S
C1177 H1167 0.929 . S
C1177 C1175 1.433 . S
C1177 N1180 1.384 . S
C1178 H1169 0.929 . S
C1178 C1170 1.378 . S
C1178 C1173 1.350 1_655 S
C1179 H1166 0.929 . S
C1179 C1171 1.433 . S
C1179 N1181 1.384 . S
N1180 C1176 1.427 . S
N1180 C1177 1.384 . S
N1181 C1173 1.427 . S
N1181 C1179 1.384 . S
H1182 C1188 0.921 1_565 S
H1183 C1192 0.921 1_545 S
H1184 C1197 0.929 . S
H1185 C1195 0.929 . S
H1186 C1190 0.929 . S
H1187 C1196 0.929 . S
C1188 H1182 0.921 1_545 S
C1188 C1189 1.367 . S
C1188 C1196 1.378 1_545 S
C1189 C1188 1.367 . S
C1189 C1197 1.433 . S
C1190 H1186 0.929 . S
C1190 C1192 1.378 1_545 S
C1190 C1194 1.350 1_545 S
C1191 C1194 1.463 1_545 S
C1191 C1196 1.350 1_545 S
C1191 N1199 1.427 . S
C1192 H1183 0.921 1_565 S
C1192 C1190 1.378 1_565 S
C1192 C1193 1.367 . S
C1193 C1192 1.367 . S
C1193 C1195 1.433 . S
C1194 C1190 1.350 1_565 S
C1194 C1191 1.463 1_565 S
C1194 N1198 1.427 . S
C1195 H1185 0.929 . S
C1195 C1193 1.433 . S
C1195 N1198 1.384 . S
C1196 H1187 0.929 . S
C1196 C1188 1.378 1_565 S
C1196 C1191 1.350 1_565 S
C1197 H1184 0.929 . S
C1197 C1189 1.433 . S
C1197 N1199 1.384 . S
N1198 C1194 1.427 . S
N1198 C1195 1.384 . S
N1199 C1191 1.427 . S
N1199 C1197 1.384 . S
H1200 C1206 0.930 . S
H1201 C1210 0.930 . S
H1202 C1215 0.929 . S
H1203 C1213 0.929 . S
H1204 C1208 0.929 . S
H1205 C1214 0.929 . S
C1206 H1200 0.930 . S
C1206 C1207 1.367 1_554 S
C1206 C1214 1.378 . S
C1207 C1206 1.367 1_556 S
C1207 C1215 1.433 . S
C1208 H1204 0.929 . S
C1208 C1210 1.378 . S
C1208 C1212 1.350 1_556 S
C1209 C1212 1.463 1_556 S
C1209 C1214 1.350 1_556 S
C1209 N1217 1.427 . S
C1210 H1201 0.930 . S
C1210 C1208 1.378 . S
C1210 C1211 1.367 1_556 S
C1211 C1210 1.367 1_554 S
C1211 C1213 1.433 . S
C1212 C1208 1.350 1_554 S
C1212 C1209 1.463 1_554 S
C1212 N1216 1.427 . S
C1213 H1203 0.929 . S
C1213 C1211 1.433 . S
C1213 N1216 1.384 . S
C1214 H1205 0.929 . S
C1214 C1206 1.378 . S
C1214 C1209 1.350 1_554 S
C1215 H1202 0.929 . S
C1215 C1207 1.433 . S
C1215 N1217 1.384 . S
N1216 C1212 1.427 . S
N1216 C1213 1.384 . S
N1217 C1209 1.427 . S
N1217 C1215 1.384 . S
H1218 C1224 0.930 . S
H1219 C1228 0.930 . S
H1220 C1233 0.929 . S
H1221 C1231 0.929 . S
H1222 C1226 0.929 . S
H1223 C1232 0.929 . S
C1224 H1218 0.930 . S
C1224 C1225 1.367 . S
C1224 C1232 1.378 . S
C1225 C1224 1.367 . S
C1225 C1233 1.433 1_554 S
C1226 H1222 0.929 . S
C1226 C1228 1.378 . S
C1226 C1230 1.350 . S
C1227 C1230 1.463 1_554 S
C1227 C1232 1.350 . S
C1227 N1235 1.427 1_554 S
C1228 H1219 0.930 . S
C1228 C1226 1.378 . S
C1228 C1229 1.367 . S
C1229 C1228 1.367 . S
C1229 C1231 1.433 1_556 S
C1230 C1226 1.350 . S
C1230 C1227 1.463 1_556 S
C1230 N1234 1.427 1_556 S
C1231 H1221 0.929 . S
C1231 C1229 1.433 1_554 S
C1231 N1234 1.384 . S
C1232 H1223 0.929 . S
C1232 C1224 1.378 . S
C1232 C1227 1.350 . S
C1233 H1220 0.929 . S
C1233 C1225 1.433 1_556 S
C1233 N1235 1.384 . S
N1234 C1230 1.427 1_554 S
N1234 C1231 1.384 . S
N1235 C1227 1.427 1_556 S
N1235 C1233 1.384 . S
H1236 C1242 0.925 1_556 S
H1237 C1246 0.925 1_554 S
H1238 C1251 0.929 . S
H1239 C1249 0.929 . S
H1240 C1244 0.929 . S
H1241 C1250 0.929 . S
C1242 H1236 0.925 1_554 S
C1242 C1243 1.367 . S
C1242 C1250 1.378 1_554 S
C1243 C1242 1.367 . S
C1243 C1251 1.433 . S
C1244 H1240 0.929 . S
C1244 C1246 1.378 1_554 S
C1244 C1248 1.350 1_554 S
C1245 C1248 1.463 1_554 S
C1245 C1250 1.350 1_554 S
C1245 N1253 1.427 . S
C1246 H1237 0.925 1_556 S
C1246 C1244 1.378 1_556 S
C1246 C1247 1.367 . S
C1247 C1246 1.367 . S
C1247 C1249 1.433 . S
C1248 C1244 1.350 1_556 S
C1248 C1245 1.463 1_556 S
C1248 N1252 1.427 . S
C1249 H1239 0.929 . S
C1249 C1247 1.433 . S
C1249 N1252 1.384 . S
C1250 H1241 0.929 . S
C1250 C1242 1.378 1_556 S
C1250 C1245 1.350 1_556 S
C1251 H1238 0.929 . S
C1251 C1243 1.433 . S
C1251 N1253 1.384 . S
N1252 C1248 1.427 . S
N1252 C1249 1.384 . S
N1253 C1245 1.427 . S
N1253 C1251 1.384 . S
H1254 C1260 0.930 . S
H1255 C1264 0.930 . S
H1256 C1269 0.929 . S
H1257 C1267 0.929 . S
H1258 C1262 0.929 . S
H1259 C1268 0.929 . S
C1260 H1254 0.930 . S
C1260 C1261 1.367 1_554 S
C1260 C1268 1.378 . S
C1261 C1260 1.367 1_556 S
C1261 C1269 1.433 . S
C1262 H1258 0.929 . S
C1262 C1264 1.378 . S
C1262 C1266 1.350 1_556 S
C1263 C1266 1.463 1_556 S
C1263 C1268 1.350 1_556 S
C1263 N1271 1.427 . S
C1264 H1255 0.930 . S
C1264 C1262 1.378 . S
C1264 C1265 1.367 1_556 S
C1265 C1264 1.367 1_554 S
C1265 C1267 1.433 . S
C1266 C1262 1.350 1_554 S
C1266 C1263 1.463 1_554 S
C1266 N1270 1.427 . S
C1267 H1257 0.929 . S
C1267 C1265 1.433 . S
C1267 N1270 1.384 . S
C1268 H1259 0.929 . S
C1268 C1260 1.378 . S
C1268 C1263 1.350 1_554 S
C1269 H1256 0.929 . S
C1269 C1261 1.433 . S
C1269 N1271 1.384 . S
N1270 C1266 1.427 . S
N1270 C1267 1.384 . S
N1271 C1263 1.427 . S
N1271 C1269 1.384 . S
H1272 C1278 0.930 . S
H1273 C1282 0.930 . S
H1274 C1287 0.929 . S
H1275 C1285 0.929 . S
H1276 C1280 0.929 . S
H1277 C1286 0.929 . S
C1278 H1272 0.930 . S
C1278 C1279 1.367 . S
C1278 C1286 1.378 . S
C1279 C1278 1.367 . S
C1279 C1287 1.433 . S
C1280 H1276 0.929 . S
C1280 C1282 1.378 . S
C1280 C1284 1.350 . S
C1281 C1284 1.463 . S
C1281 C1286 1.350 . S
C1281 N1289 1.427 . S
C1282 H1273 0.930 . S
C1282 C1280 1.378 . S
C1282 C1283 1.367 . S
C1283 C1282 1.367 . S
C1283 C1285 1.433 . S
C1284 C1280 1.350 . S
C1284 C1281 1.463 . S
C1284 N1288 1.427 . S
C1285 H1275 0.929 . S
C1285 C1283 1.433 . S
C1285 N1288 1.384 . S
C1286 H1277 0.929 . S
C1286 C1278 1.378 . S
C1286 C1281 1.350 . S
C1287 H1274 0.929 . S
C1287 C1279 1.433 . S
C1287 N1289 1.384 . S
N1288 C1284 1.427 . S
N1288 C1285 1.384 . S
N1289 C1281 1.427 . S
N1289 C1287 1.384 . S
H1290 C1296 0.930 . S
H1291 C1300 0.930 . S
H1292 C1305 0.929 . S
H1293 C1303 0.929 . S
H1294 C1298 0.929 . S
H1295 C1304 0.929 . S
C1296 H1290 0.930 . S
C1296 C1297 1.367 . S
C1296 C1304 1.378 . S
C1297 C1296 1.367 . S
C1297 C1305 1.433 . S
C1298 H1294 0.929 . S
C1298 C1300 1.378 . S
C1298 C1302 1.350 . S
C1299 C1302 1.463 . S
C1299 C1304 1.350 . S
C1299 N1307 1.427 . S
C1300 H1291 0.930 . S
C1300 C1298 1.378 . S
C1300 C1301 1.367 . S
C1301 C1300 1.367 . S
C1301 C1303 1.433 . S
C1302 C1298 1.350 . S
C1302 C1299 1.463 . S
C1302 N1306 1.427 . S
C1303 H1293 0.929 . S
C1303 C1301 1.433 . S
C1303 N1306 1.384 . S
C1304 H1295 0.929 . S
C1304 C1296 1.378 . S
C1304 C1299 1.350 . S
C1305 H1292 0.929 . S
C1305 C1297 1.433 . S
C1305 N1307 1.384 . S
N1306 C1302 1.427 . S
N1306 C1303 1.384 . S
N1307 C1299 1.427 . S
N1307 C1305 1.384 . S
H1308 C1314 0.930 . S
H1309 C1318 0.930 . S
H1310 C1323 0.929 . S
H1311 C1321 0.929 . S
H1312 C1316 0.929 . S
H1313 C1322 0.929 . S
C1314 H1308 0.930 . S
C1314 C1315 1.367 . S
C1314 C1322 1.378 . S
C1315 C1314 1.367 . S
C1315 C1323 1.433 . S
C1316 H1312 0.929 . S
C1316 C1318 1.378 . S
C1316 C1320 1.350 . S
C1317 C1320 1.463 . S
C1317 C1322 1.350 . S
C1317 N1325 1.427 . S
C1318 H1309 0.930 . S
C1318 C1316 1.378 . S
C1318 C1319 1.367 . S
C1319 C1318 1.367 . S
C1319 C1321 1.433 . S
C1320 C1316 1.350 . S
C1320 C1317 1.463 . S
C1320 N1324 1.427 . S
C1321 H1311 0.929 . S
C1321 C1319 1.433 . S
C1321 N1324 1.384 . S
C1322 H1313 0.929 . S
C1322 C1314 1.378 . S
C1322 C1317 1.350 . S
C1323 H1310 0.929 . S
C1323 C1315 1.433 . S
C1323 N1325 1.384 . S
N1324 C1320 1.427 . S
N1324 C1321 1.384 . S
N1325 C1317 1.427 . S
N1325 C1323 1.384 . S
H1326 C1332 0.930 . S
H1327 C1336 0.930 . S
H1328 C1341 0.929 . S
H1329 C1339 0.929 . S
H1330 C1334 0.929 . S
H1331 C1340 0.929 . S
C1332 H1326 0.930 . S
C1332 C1333 1.367 . S
C1332 C1340 1.378 . S
C1333 C1332 1.367 . S
C1333 C1341 1.433 . S
C1334 H1330 0.929 . S
C1334 C1336 1.378 . S
C1334 C1338 1.350 . S
C1335 C1338 1.463 . S
C1335 C1340 1.350 . S
C1335 N1343 1.427 . S
C1336 H1327 0.930 . S
C1336 C1334 1.378 . S
C1336 C1337 1.367 . S
C1337 C1336 1.367 . S
C1337 C1339 1.433 . S
C1338 C1334 1.350 . S
C1338 C1335 1.463 . S
C1338 N1342 1.427 . S
C1339 H1329 0.929 . S
C1339 C1337 1.433 . S
C1339 N1342 1.384 . S
C1340 H1331 0.929 . S
C1340 C1332 1.378 . S
C1340 C1335 1.350 . S
C1341 H1328 0.929 . S
C1341 C1333 1.433 . S
C1341 N1343 1.384 . S
N1342 C1338 1.427 . S
N1342 C1339 1.384 . S
N1343 C1335 1.427 . S
N1343 C1341 1.384 . S
H1344 C1350 0.930 . S
H1345 C1354 0.930 . S
H1346 C1359 0.929 . S
H1347 C1357 0.929 . S
H1348 C1352 0.929 . S
H1349 C1358 0.929 . S
C1350 H1344 0.930 . S
C1350 C1351 1.367 . S
C1350 C1358 1.378 . S
C1351 C1350 1.367 . S
C1351 C1359 1.433 . S
C1352 H1348 0.929 . S
C1352 C1354 1.378 . S
C1352 C1356 1.350 . S
C1353 C1356 1.463 . S
C1353 C1358 1.350 . S
C1353 N1361 1.427 . S
C1354 H1345 0.930 . S
C1354 C1352 1.378 . S
C1354 C1355 1.367 . S
C1355 C1354 1.367 . S
C1355 C1357 1.433 . S
C1356 C1352 1.350 . S
C1356 C1353 1.463 . S
C1356 N1360 1.427 . S
C1357 H1347 0.929 . S
C1357 C1355 1.433 . S
C1357 N1360 1.384 . S
C1358 H1349 0.929 . S
C1358 C1350 1.378 . S
C1358 C1353 1.350 . S
C1359 H1346 0.929 . S
C1359 C1351 1.433 . S
C1359 N1361 1.384 . S
N1360 C1356 1.427 . S
N1360 C1357 1.384 . S
N1361 C1353 1.427 . S
N1361 C1359 1.384 . S
H1362 C1368 0.930 . S
H1363 C1372 0.930 . S
H1364 C1377 0.929 . S
H1365 C1375 0.929 . S
H1366 C1370 0.929 . S
H1367 C1376 0.929 . S
C1368 H1362 0.930 . S
C1368 C1369 1.367 . S
C1368 C1376 1.378 . S
C1369 C1368 1.367 . S
C1369 C1377 1.433 . S
C1370 H1366 0.929 . S
C1370 C1372 1.378 . S
C1370 C1374 1.350 . S
C1371 C1374 1.463 . S
C1371 C1376 1.350 . S
C1371 N1379 1.427 . S
C1372 H1363 0.930 . S
C1372 C1370 1.378 . S
C1372 C1373 1.367 . S
C1373 C1372 1.367 . S
C1373 C1375 1.433 . S
C1374 C1370 1.350 . S
C1374 C1371 1.463 . S
C1374 N1378 1.427 . S
C1375 H1365 0.929 . S
C1375 C1373 1.433 . S
C1375 N1378 1.384 . S
C1376 H1367 0.929 . S
C1376 C1368 1.378 . S
C1376 C1371 1.350 . S
C1377 H1364 0.929 . S
C1377 C1369 1.433 . S
C1377 N1379 1.384 . S
N1378 C1374 1.427 . S
N1378 C1375 1.384 . S
N1379 C1371 1.427 . S
N1379 C1377 1.384 . S
H1380 C1386 0.930 . S
H1381 C1390 0.930 . S
H1382 C1395 0.929 . S
H1383 C1393 0.929 . S
H1384 C1388 0.929 . S
H1385 C1394 0.929 . S
C1386 H1380 0.930 . S
C1386 C1387 1.367 . S
C1386 C1394 1.378 . S
C1387 C1386 1.367 . S
C1387 C1395 1.433 . S
C1388 H1384 0.929 . S
C1388 C1390 1.378 . S
C1388 C1392 1.350 . S
C1389 C1392 1.463 . S
C1389 C1394 1.350 . S
C1389 N1397 1.427 . S
C1390 H1381 0.930 . S
C1390 C1388 1.378 . S
C1390 C1391 1.367 . S
C1391 C1390 1.367 . S
C1391 C1393 1.433 . S
C1392 C1388 1.350 . S
C1392 C1389 1.463 . S
C1392 N1396 1.427 . S
C1393 H1383 0.929 . S
C1393 C1391 1.433 . S
C1393 N1396 1.384 . S
C1394 H1385 0.929 . S
C1394 C1386 1.378 . S
C1394 C1389 1.350 . S
C1395 H1382 0.929 . S
C1395 C1387 1.433 . S
C1395 N1397 1.384 . S
N1396 C1392 1.427 . S
N1396 C1393 1.384 . S
N1397 C1389 1.427 . S
N1397 C1395 1.384 . S
H1398 C1404 0.930 . S
H1399 C1408 0.930 . S
H1400 C1413 0.929 . S
H1401 C1411 0.929 . S
H1402 C1406 0.929 . S
H1403 C1412 0.929 . S
C1404 H1398 0.930 . S
C1404 C1405 1.367 . S
C1404 C1412 1.378 . S
C1405 C1404 1.367 . S
C1405 C1413 1.433 . S
C1406 H1402 0.929 . S
C1406 C1408 1.378 . S
C1406 C1410 1.350 . S
C1407 C1410 1.463 . S
C1407 C1412 1.350 . S
C1407 N1415 1.427 . S
C1408 H1399 0.930 . S
C1408 C1406 1.378 . S
C1408 C1409 1.367 . S
C1409 C1408 1.367 . S
C1409 C1411 1.433 . S
C1410 C1406 1.350 . S
C1410 C1407 1.463 . S
C1410 N1414 1.427 . S
C1411 H1401 0.929 . S
C1411 C1409 1.433 . S
C1411 N1414 1.384 . S
C1412 H1403 0.929 . S
C1412 C1404 1.378 . S
C1412 C1407 1.350 . S
C1413 H1400 0.929 . S
C1413 C1405 1.433 . S
C1413 N1415 1.384 . S
N1414 C1410 1.427 . S
N1414 C1411 1.384 . S
N1415 C1407 1.427 . S
N1415 C1413 1.384 . S
H1416 C1422 0.930 . S
H1417 C1426 0.930 . S
H1418 C1431 0.929 . S
H1419 C1429 0.929 . S
H1420 C1424 0.929 . S
H1421 C1430 0.929 . S
C1422 H1416 0.930 . S
C1422 C1423 1.367 . S
C1422 C1430 1.378 . S
C1423 C1422 1.367 . S
C1423 C1431 1.433 . S
C1424 H1420 0.929 . S
C1424 C1426 1.378 . S
C1424 C1428 1.350 . S
C1425 C1428 1.463 . S
C1425 C1430 1.350 . S
C1425 N1433 1.427 . S
C1426 H1417 0.930 . S
C1426 C1424 1.378 . S
C1426 C1427 1.367 . S
C1427 C1426 1.367 . S
C1427 C1429 1.433 . S
C1428 C1424 1.350 . S
C1428 C1425 1.463 . S
C1428 N1432 1.427 . S
C1429 H1419 0.929 . S
C1429 C1427 1.433 . S
C1429 N1432 1.384 . S
C1430 H1421 0.929 . S
C1430 C1422 1.378 . S
C1430 C1425 1.350 . S
C1431 H1418 0.929 . S
C1431 C1423 1.433 . S
C1431 N1433 1.384 . S
N1432 C1428 1.427 . S
N1432 C1429 1.384 . S
N1433 C1425 1.427 . S
N1433 C1431 1.384 . S
H1434 C1440 0.930 . S
H1435 C1444 0.930 . S
H1436 C1449 0.929 . S
H1437 C1447 0.929 . S
H1438 C1442 0.929 . S
H1439 C1448 0.929 . S
C1440 H1434 0.930 . S
C1440 C1441 1.367 . S
C1440 C1448 1.378 . S
C1441 C1440 1.367 . S
C1441 C1449 1.433 . S
C1442 H1438 0.929 . S
C1442 C1444 1.378 . S
C1442 C1446 1.350 . S
C1443 C1446 1.463 . S
C1443 C1448 1.350 . S
C1443 N1451 1.427 . S
C1444 H1435 0.930 . S
C1444 C1442 1.378 . S
C1444 C1445 1.367 . S
C1445 C1444 1.367 . S
C1445 C1447 1.433 . S
C1446 C1442 1.350 . S
C1446 C1443 1.463 . S
C1446 N1450 1.427 . S
C1447 H1437 0.929 . S
C1447 C1445 1.433 . S
C1447 N1450 1.384 . S
C1448 H1439 0.929 . S
C1448 C1440 1.378 . S
C1448 C1443 1.350 . S
C1449 H1436 0.929 . S
C1449 C1441 1.433 . S
C1449 N1451 1.384 . S
N1450 C1446 1.427 . S
N1450 C1447 1.384 . S
N1451 C1443 1.427 . S
N1451 C1449 1.384 . S
H1452 C1458 0.930 . S
H1453 C1462 0.930 . S
H1454 C1467 0.929 . S
H1455 C1465 0.929 . S
H1456 C1460 0.929 . S
H1457 C1466 0.929 . S
C1458 H1452 0.930 . S
C1458 C1459 1.367 . S
C1458 C1466 1.378 . S
C1459 C1458 1.367 . S
C1459 C1467 1.433 . S
C1460 H1456 0.929 . S
C1460 C1462 1.378 . S
C1460 C1464 1.350 . S
C1461 C1464 1.463 . S
C1461 C1466 1.350 . S
C1461 N1469 1.427 . S
C1462 H1453 0.930 . S
C1462 C1460 1.378 . S
C1462 C1463 1.367 . S
C1463 C1462 1.367 . S
C1463 C1465 1.433 . S
C1464 C1460 1.350 . S
C1464 C1461 1.463 . S
C1464 N1468 1.427 . S
C1465 H1455 0.929 . S
C1465 C1463 1.433 . S
C1465 N1468 1.384 . S
C1466 H1457 0.929 . S
C1466 C1458 1.378 . S
C1466 C1461 1.350 . S
C1467 H1454 0.929 . S
C1467 C1459 1.433 . S
C1467 N1469 1.384 . S
N1468 C1464 1.427 . S
N1468 C1465 1.384 . S
N1469 C1461 1.427 . S
N1469 C1467 1.384 . S
H1470 C1476 0.930 . S
H1471 C1480 0.930 . S
H1472 C1485 0.929 . S
H1473 C1483 0.929 . S
H1474 C1478 0.929 . S
H1475 C1484 0.929 . S
C1476 H1470 0.930 . S
C1476 C1477 1.367 . S
C1476 C1484 1.378 . S
C1477 C1476 1.367 . S
C1477 C1485 1.433 . S
C1478 H1474 0.929 . S
C1478 C1480 1.378 . S
C1478 C1482 1.350 . S
C1479 C1482 1.463 . S
C1479 C1484 1.350 . S
C1479 N1487 1.427 . S
C1480 H1471 0.930 . S
C1480 C1478 1.378 . S
C1480 C1481 1.367 . S
C1481 C1480 1.367 . S
C1481 C1483 1.433 . S
C1482 C1478 1.350 . S
C1482 C1479 1.463 . S
C1482 N1486 1.427 . S
C1483 H1473 0.929 . S
C1483 C1481 1.433 . S
C1483 N1486 1.384 . S
C1484 H1475 0.929 . S
C1484 C1476 1.378 . S
C1484 C1479 1.350 . S
C1485 H1472 0.929 . S
C1485 C1477 1.433 . S
C1485 N1487 1.384 . S
N1486 C1482 1.427 . S
N1486 C1483 1.384 . S
N1487 C1479 1.427 . S
N1487 C1485 1.384 . S
H1488 C1494 0.930 . S
H1489 C1498 0.930 . S
H1490 C1503 0.929 . S
H1491 C1501 0.929 . S
H1492 C1496 0.929 . S
H1493 C1502 0.929 . S
C1494 H1488 0.930 . S
C1494 C1495 1.367 . S
C1494 C1502 1.378 . S
C1495 C1494 1.367 . S
C1495 C1503 1.433 . S
C1496 H1492 0.929 . S
C1496 C1498 1.378 . S
C1496 C1500 1.350 . S
C1497 C1500 1.463 . S
C1497 C1502 1.350 . S
C1497 N1505 1.427 . S
C1498 H1489 0.930 . S
C1498 C1496 1.378 . S
C1498 C1499 1.367 . S
C1499 C1498 1.367 . S
C1499 C1501 1.433 . S
C1500 C1496 1.350 . S
C1500 C1497 1.463 . S
C1500 N1504 1.427 . S
C1501 H1491 0.929 . S
C1501 C1499 1.433 . S
C1501 N1504 1.384 . S
C1502 H1493 0.929 . S
C1502 C1494 1.378 . S
C1502 C1497 1.350 . S
C1503 H1490 0.929 . S
C1503 C1495 1.433 . S
C1503 N1505 1.384 . S
N1504 C1500 1.427 . S
N1504 C1501 1.384 . S
N1505 C1497 1.427 . S
N1505 C1503 1.384 . S
H1506 C1512 0.930 . S
H1507 C1516 0.930 . S
H1508 C1521 0.929 . S
H1509 C1519 0.929 . S
H1510 C1514 0.929 . S
H1511 C1520 0.929 . S
C1512 H1506 0.930 . S
C1512 C1513 1.367 . S
C1512 C1520 1.378 . S
C1513 C1512 1.367 . S
C1513 C1521 1.433 . S
C1514 H1510 0.929 . S
C1514 C1516 1.378 . S
C1514 C1518 1.350 . S
C1515 C1518 1.463 . S
C1515 C1520 1.350 . S
C1515 N1523 1.427 . S
C1516 H1507 0.930 . S
C1516 C1514 1.378 . S
C1516 C1517 1.367 . S
C1517 C1516 1.367 . S
C1517 C1519 1.433 . S
C1518 C1514 1.350 . S
C1518 C1515 1.463 . S
C1518 N1522 1.427 . S
C1519 H1509 0.929 . S
C1519 C1517 1.433 . S
C1519 N1522 1.384 . S
C1520 H1511 0.929 . S
C1520 C1512 1.378 . S
C1520 C1515 1.350 . S
C1521 H1508 0.929 . S
C1521 C1513 1.433 . S
C1521 N1523 1.384 . S
N1522 C1518 1.427 . S
N1522 C1519 1.384 . S
N1523 C1515 1.427 . S
N1523 C1521 1.384 . S
H1524 C1530 0.930 . S
H1525 C1534 0.930 . S
H1526 C1539 0.929 . S
H1527 C1537 0.929 . S
H1528 C1532 0.929 . S
H1529 C1538 0.929 . S
C1530 H1524 0.930 . S
C1530 C1531 1.367 . S
C1530 C1538 1.378 . S
C1531 C1530 1.367 . S
C1531 C1539 1.433 . S
C1532 H1528 0.929 . S
C1532 C1534 1.378 . S
C1532 C1536 1.350 . S
C1533 C1536 1.463 . S
C1533 C1538 1.350 . S
C1533 N1541 1.427 . S
C1534 H1525 0.930 . S
C1534 C1532 1.378 . S
C1534 C1535 1.367 . S
C1535 C1534 1.367 . S
C1535 C1537 1.433 . S
C1536 C1532 1.350 . S
C1536 C1533 1.463 . S
C1536 N1540 1.427 . S
C1537 H1527 0.929 . S
C1537 C1535 1.433 . S
C1537 N1540 1.384 . S
C1538 H1529 0.929 . S
C1538 C1530 1.378 . S
C1538 C1533 1.350 . S
C1539 H1526 0.929 . S
C1539 C1531 1.433 . S
C1539 N1541 1.384 . S
N1540 C1536 1.427 . S
N1540 C1537 1.384 . S
N1541 C1533 1.427 . S
N1541 C1539 1.384 . S
H1542 C1548 0.930 . S
H1543 C1552 0.930 . S
H1544 C1557 0.929 . S
H1545 C1555 0.929 . S
H1546 C1550 0.929 . S
H1547 C1556 0.929 . S
C1548 H1542 0.930 . S
C1548 C1549 1.367 . S
C1548 C1556 1.378 . S
C1549 C1548 1.367 . S
C1549 C1557 1.433 . S
C1550 H1546 0.929 . S
C1550 C1552 1.378 . S
C1550 C1554 1.350 . S
C1551 C1554 1.463 . S
C1551 C1556 1.350 . S
C1551 N1559 1.427 . S
C1552 H1543 0.930 . S
C1552 C1550 1.378 . S
C1552 C1553 1.367 . S
C1553 C1552 1.367 . S
C1553 C1555 1.433 . S
C1554 C1550 1.350 . S
C1554 C1551 1.463 . S
C1554 N1558 1.427 . S
C1555 H1545 0.929 . S
C1555 C1553 1.433 . S
C1555 N1558 1.384 . S
C1556 H1547 0.929 . S
C1556 C1548 1.378 . S
C1556 C1551 1.350 . S
C1557 H1544 0.929 . S
C1557 C1549 1.433 . S
C1557 N1559 1.384 . S
N1558 C1554 1.427 . S
N1558 C1555 1.384 . S
N1559 C1551 1.427 . S
N1559 C1557 1.384 . S
H1560 C1566 0.930 . S
H1561 C1570 0.930 . S
H1562 C1575 0.929 . S
H1563 C1573 0.929 . S
H1564 C1568 0.929 . S
H1565 C1574 0.929 . S
C1566 H1560 0.930 . S
C1566 C1567 1.367 . S
C1566 C1574 1.378 . S
C1567 C1566 1.367 . S
C1567 C1575 1.433 . S
C1568 H1564 0.929 . S
C1568 C1570 1.378 . S
C1568 C1572 1.350 . S
C1569 C1572 1.463 . S
C1569 C1574 1.350 . S
C1569 N1577 1.427 . S
C1570 H1561 0.930 . S
C1570 C1568 1.378 . S
C1570 C1571 1.367 . S
C1571 C1570 1.367 . S
C1571 C1573 1.433 . S
C1572 C1568 1.350 . S
C1572 C1569 1.463 . S
C1572 N1576 1.427 . S
C1573 H1563 0.929 . S
C1573 C1571 1.433 . S
C1573 N1576 1.384 . S
C1574 H1565 0.929 . S
C1574 C1566 1.378 . S
C1574 C1569 1.350 . S
C1575 H1562 0.929 . S
C1575 C1567 1.433 . S
C1575 N1577 1.384 . S
N1576 C1572 1.427 . S
N1576 C1573 1.384 . S
N1577 C1569 1.427 . S
N1577 C1575 1.384 . S
H1578 C1584 0.930 . S
H1579 C1588 0.930 . S
H1580 C1593 0.929 . S
H1581 C1591 0.929 . S
H1582 C1586 0.929 . S
H1583 C1592 0.929 . S
C1584 H1578 0.930 . S
C1584 C1585 1.367 . S
C1584 C1592 1.378 . S
C1585 C1584 1.367 . S
C1585 C1593 1.433 . S
C1586 H1582 0.929 . S
C1586 C1588 1.378 . S
C1586 C1590 1.350 . S
C1587 C1590 1.463 . S
C1587 C1592 1.350 . S
C1587 N1595 1.427 . S
C1588 H1579 0.930 . S
C1588 C1586 1.378 . S
C1588 C1589 1.367 . S
C1589 C1588 1.367 . S
C1589 C1591 1.433 . S
C1590 C1586 1.350 . S
C1590 C1587 1.463 . S
C1590 N1594 1.427 . S
C1591 H1581 0.929 . S
C1591 C1589 1.433 . S
C1591 N1594 1.384 . S
C1592 H1583 0.929 . S
C1592 C1584 1.378 . S
C1592 C1587 1.350 . S
C1593 H1580 0.929 . S
C1593 C1585 1.433 . S
C1593 N1595 1.384 . S
N1594 C1590 1.427 . S
N1594 C1591 1.384 . S
N1595 C1587 1.427 . S
N1595 C1593 1.384 . S
H1596 C1602 0.930 . S
H1597 C1606 0.930 . S
H1598 C1611 0.929 . S
H1599 C1609 0.929 . S
H1600 C1604 0.929 . S
H1601 C1610 0.929 . S
C1602 H1596 0.930 . S
C1602 C1603 1.367 . S
C1602 C1610 1.378 . S
C1603 C1602 1.367 . S
C1603 C1611 1.433 . S
C1604 H1600 0.929 . S
C1604 C1606 1.378 . S
C1604 C1608 1.350 . S
C1605 C1608 1.463 . S
C1605 C1610 1.350 . S
C1605 N1613 1.427 . S
C1606 H1597 0.930 . S
C1606 C1604 1.378 . S
C1606 C1607 1.367 . S
C1607 C1606 1.367 . S
C1607 C1609 1.433 . S
C1608 C1604 1.350 . S
C1608 C1605 1.463 . S
C1608 N1612 1.427 . S
C1609 H1599 0.929 . S
C1609 C1607 1.433 . S
C1609 N1612 1.384 . S
C1610 H1601 0.929 . S
C1610 C1602 1.378 . S
C1610 C1605 1.350 . S
C1611 H1598 0.929 . S
C1611 C1603 1.433 . S
C1611 N1613 1.384 . S
N1612 C1608 1.427 . S
N1612 C1609 1.384 . S
N1613 C1605 1.427 . S
N1613 C1611 1.384 . S
H1614 C1620 0.930 . S
H1615 C1624 0.930 . S
H1616 C1629 0.929 . S
H1617 C1627 0.929 . S
H1618 C1622 0.929 . S
H1619 C1628 0.929 . S
C1620 H1614 0.930 . S
C1620 C1621 1.367 . S
C1620 C1628 1.378 . S
C1621 C1620 1.367 . S
C1621 C1629 1.433 . S
C1622 H1618 0.929 . S
C1622 C1624 1.378 . S
C1622 C1626 1.350 . S
C1623 C1626 1.463 . S
C1623 C1628 1.350 . S
C1623 N1631 1.427 . S
C1624 H1615 0.930 . S
C1624 C1622 1.378 . S
C1624 C1625 1.367 . S
C1625 C1624 1.367 . S
C1625 C1627 1.433 . S
C1626 C1622 1.350 . S
C1626 C1623 1.463 . S
C1626 N1630 1.427 . S
C1627 H1617 0.929 . S
C1627 C1625 1.433 . S
C1627 N1630 1.384 . S
C1628 H1619 0.929 . S
C1628 C1620 1.378 . S
C1628 C1623 1.350 . S
C1629 H1616 0.929 . S
C1629 C1621 1.433 . S
C1629 N1631 1.384 . S
N1630 C1626 1.427 . S
N1630 C1627 1.384 . S
N1631 C1623 1.427 . S
N1631 C1629 1.384 . S
H1632 C1638 0.930 . S
H1633 C1642 0.930 . S
H1634 C1647 0.929 . S
H1635 C1645 0.929 . S
H1636 C1640 0.929 . S
H1637 C1646 0.929 . S
C1638 H1632 0.930 . S
C1638 C1639 1.367 . S
C1638 C1646 1.378 . S
C1639 C1638 1.367 . S
C1639 C1647 1.433 . S
C1640 H1636 0.929 . S
C1640 C1642 1.378 . S
C1640 C1644 1.350 . S
C1641 C1644 1.463 . S
C1641 C1646 1.350 . S
C1641 N1649 1.427 . S
C1642 H1633 0.930 . S
C1642 C1640 1.378 . S
C1642 C1643 1.367 . S
C1643 C1642 1.367 . S
C1643 C1645 1.433 . S
C1644 C1640 1.350 . S
C1644 C1641 1.463 . S
C1644 N1648 1.427 . S
C1645 H1635 0.929 . S
C1645 C1643 1.433 . S
C1645 N1648 1.384 . S
C1646 H1637 0.929 . S
C1646 C1638 1.378 . S
C1646 C1641 1.350 . S
C1647 H1634 0.929 . S
C1647 C1639 1.433 . S
C1647 N1649 1.384 . S
N1648 C1644 1.427 . S
N1648 C1645 1.384 . S
N1649 C1641 1.427 . S
N1649 C1647 1.384 . S
H1650 C1656 0.930 . S
H1651 C1660 0.930 . S
H1652 C1665 0.929 . S
H1653 C1663 0.929 . S
H1654 C1658 0.929 . S
H1655 C1664 0.929 . S
C1656 H1650 0.930 . S
C1656 C1657 1.367 . S
C1656 C1664 1.378 . S
C1657 C1656 1.367 . S
C1657 C1665 1.433 . S
C1658 H1654 0.929 . S
C1658 C1660 1.378 . S
C1658 C1662 1.350 . S
C1659 C1662 1.463 . S
C1659 C1664 1.350 . S
C1659 N1667 1.427 . S
C1660 H1651 0.930 . S
C1660 C1658 1.378 . S
C1660 C1661 1.367 . S
C1661 C1660 1.367 . S
C1661 C1663 1.433 . S
C1662 C1658 1.350 . S
C1662 C1659 1.463 . S
C1662 N1666 1.427 . S
C1663 H1653 0.929 . S
C1663 C1661 1.433 . S
C1663 N1666 1.384 . S
C1664 H1655 0.929 . S
C1664 C1656 1.378 . S
C1664 C1659 1.350 . S
C1665 H1652 0.929 . S
C1665 C1657 1.433 . S
C1665 N1667 1.384 . S
N1666 C1662 1.427 . S
N1666 C1663 1.384 . S
N1667 C1659 1.427 . S
N1667 C1665 1.384 . S
H1668 C1674 0.930 . S
H1669 C1678 0.930 . S
H1670 C1683 0.929 . S
H1671 C1681 0.929 . S
H1672 C1676 0.929 . S
H1673 C1682 0.929 . S
C1674 H1668 0.930 . S
C1674 C1675 1.367 . S
C1674 C1682 1.378 . S
C1675 C1674 1.367 . S
C1675 C1683 1.433 . S
C1676 H1672 0.929 . S
C1676 C1678 1.378 . S
C1676 C1680 1.350 . S
C1677 C1680 1.463 . S
C1677 C1682 1.350 . S
C1677 N1685 1.427 . S
C1678 H1669 0.930 . S
C1678 C1676 1.378 . S
C1678 C1679 1.367 . S
C1679 C1678 1.367 . S
C1679 C1681 1.433 . S
C1680 C1676 1.350 . S
C1680 C1677 1.463 . S
C1680 N1684 1.427 . S
C1681 H1671 0.929 . S
C1681 C1679 1.433 . S
C1681 N1684 1.384 . S
C1682 H1673 0.929 . S
C1682 C1674 1.378 . S
C1682 C1677 1.350 . S
C1683 H1670 0.929 . S
C1683 C1675 1.433 . S
C1683 N1685 1.384 . S
N1684 C1680 1.427 . S
N1684 C1681 1.384 . S
N1685 C1677 1.427 . S
N1685 C1683 1.384 . S
H1686 C1692 0.930 . S
H1687 C1696 0.930 . S
H1688 C1701 0.929 . S
H1689 C1699 0.929 . S
H1690 C1694 0.929 . S
H1691 C1700 0.929 . S
C1692 H1686 0.930 . S
C1692 C1693 1.367 . S
C1692 C1700 1.378 . S
C1693 C1692 1.367 . S
C1693 C1701 1.433 . S
C1694 H1690 0.929 . S
C1694 C1696 1.378 . S
C1694 C1698 1.350 . S
C1695 C1698 1.463 . S
C1695 C1700 1.350 . S
C1695 N1703 1.427 . S
C1696 H1687 0.930 . S
C1696 C1694 1.378 . S
C1696 C1697 1.367 . S
C1697 C1696 1.367 . S
C1697 C1699 1.433 . S
C1698 C1694 1.350 . S
C1698 C1695 1.463 . S
C1698 N1702 1.427 . S
C1699 H1689 0.929 . S
C1699 C1697 1.433 . S
C1699 N1702 1.384 . S
C1700 H1691 0.929 . S
C1700 C1692 1.378 . S
C1700 C1695 1.350 . S
C1701 H1688 0.929 . S
C1701 C1693 1.433 . S
C1701 N1703 1.384 . S
N1702 C1698 1.427 . S
N1702 C1699 1.384 . S
N1703 C1695 1.427 . S
N1703 C1701 1.384 . S
H1704 C1710 0.930 . S
H1705 C1714 0.930 . S
H1706 C1719 0.929 . S
H1707 C1717 0.929 . S
H1708 C1712 0.929 . S
H1709 C1718 0.929 . S
C1710 H1704 0.930 . S
C1710 C1711 1.367 . S
C1710 C1718 1.378 . S
C1711 C1710 1.367 . S
C1711 C1719 1.433 . S
C1712 H1708 0.929 . S
C1712 C1714 1.378 . S
C1712 C1716 1.350 . S
C1713 C1716 1.463 . S
C1713 C1718 1.350 . S
C1713 N1721 1.427 . S
C1714 H1705 0.930 . S
C1714 C1712 1.378 . S
C1714 C1715 1.367 . S
C1715 C1714 1.367 . S
C1715 C1717 1.433 . S
C1716 C1712 1.350 . S
C1716 C1713 1.463 . S
C1716 N1720 1.427 . S
C1717 H1707 0.929 . S
C1717 C1715 1.433 . S
C1717 N1720 1.384 . S
C1718 H1709 0.929 . S
C1718 C1710 1.378 . S
C1718 C1713 1.350 . S
C1719 H1706 0.929 . S
C1719 C1711 1.433 . S
C1719 N1721 1.384 . S
N1720 C1716 1.427 . S
N1720 C1717 1.384 . S
N1721 C1713 1.427 . S
N1721 C1719 1.384 . S
H1722 C1728 0.930 . S
H1723 C1732 0.930 . S
H1724 C1737 0.929 . S
H1725 C1735 0.929 . S
H1726 C1730 0.929 . S
H1727 C1736 0.929 . S
C1728 H1722 0.930 . S
C1728 C1729 1.367 . S
C1728 C1736 1.378 . S
C1729 C1728 1.367 . S
C1729 C1737 1.433 . S
C1730 H1726 0.929 . S
C1730 C1732 1.378 . S
C1730 C1734 1.350 . S
C1731 C1734 1.463 . S
C1731 C1736 1.350 . S
C1731 N1739 1.427 . S
C1732 H1723 0.930 . S
C1732 C1730 1.378 . S
C1732 C1733 1.367 . S
C1733 C1732 1.367 . S
C1733 C1735 1.433 . S
C1734 C1730 1.350 . S
C1734 C1731 1.463 . S
C1734 N1738 1.427 . S
C1735 H1725 0.929 . S
C1735 C1733 1.433 . S
C1735 N1738 1.384 . S
C1736 H1727 0.929 . S
C1736 C1728 1.378 . S
C1736 C1731 1.350 . S
C1737 H1724 0.929 . S
C1737 C1729 1.433 . S
C1737 N1739 1.384 . S
N1738 C1734 1.427 . S
N1738 C1735 1.384 . S
N1739 C1731 1.427 . S
N1739 C1737 1.384 . S
H1740 C1746 0.930 . S
H1741 C1750 0.930 . S
H1742 C1755 0.929 . S
H1743 C1753 0.929 . S
H1744 C1748 0.929 . S
H1745 C1754 0.929 . S
C1746 H1740 0.930 . S
C1746 C1747 1.367 . S
C1746 C1754 1.378 . S
C1747 C1746 1.367 . S
C1747 C1755 1.433 . S
C1748 H1744 0.929 . S
C1748 C1750 1.378 . S
C1748 C1752 1.350 . S
C1749 C1752 1.463 . S
C1749 C1754 1.350 . S
C1749 N1757 1.427 . S
C1750 H1741 0.930 . S
C1750 C1748 1.378 . S
C1750 C1751 1.367 . S
C1751 C1750 1.367 . S
C1751 C1753 1.433 . S
C1752 C1748 1.350 . S
C1752 C1749 1.463 . S
C1752 N1756 1.427 . S
C1753 H1743 0.929 . S
C1753 C1751 1.433 . S
C1753 N1756 1.384 . S
C1754 H1745 0.929 . S
C1754 C1746 1.378 . S
C1754 C1749 1.350 . S
C1755 H1742 0.929 . S
C1755 C1747 1.433 . S
C1755 N1757 1.384 . S
N1756 C1752 1.427 . S
N1756 C1753 1.384 . S
N1757 C1749 1.427 . S
N1757 C1755 1.384 . S
H1758 C1764 0.930 . S
H1759 C1768 0.930 . S
H1760 C1773 0.929 . S
H1761 C1771 0.929 . S
H1762 C1766 0.929 . S
H1763 C1772 0.929 . S
C1764 H1758 0.930 . S
C1764 C1765 1.367 . S
C1764 C1772 1.378 . S
C1765 C1764 1.367 . S
C1765 C1773 1.433 . S
C1766 H1762 0.929 . S
C1766 C1768 1.378 . S
C1766 C1770 1.350 . S
C1767 C1770 1.463 . S
C1767 C1772 1.350 . S
C1767 N1775 1.427 . S
C1768 H1759 0.930 . S
C1768 C1766 1.378 . S
C1768 C1769 1.367 . S
C1769 C1768 1.367 . S
C1769 C1771 1.433 . S
C1770 C1766 1.350 . S
C1770 C1767 1.463 . S
C1770 N1774 1.427 . S
C1771 H1761 0.929 . S
C1771 C1769 1.433 . S
C1771 N1774 1.384 . S
C1772 H1763 0.929 . S
C1772 C1764 1.378 . S
C1772 C1767 1.350 . S
C1773 H1760 0.929 . S
C1773 C1765 1.433 . S
C1773 N1775 1.384 . S
N1774 C1770 1.427 . S
N1774 C1771 1.384 . S
N1775 C1767 1.427 . S
N1775 C1773 1.384 . S
H1776 C1782 0.930 . S
H1777 C1786 0.930 . S
H1778 C1791 0.929 . S
H1779 C1789 0.929 . S
H1780 C1784 0.929 . S
H1781 C1790 0.929 . S
C1782 H1776 0.930 . S
C1782 C1783 1.367 . S
C1782 C1790 1.378 . S
C1783 C1782 1.367 . S
C1783 C1791 1.433 . S
C1784 H1780 0.929 . S
C1784 C1786 1.378 . S
C1784 C1788 1.350 . S
C1785 C1788 1.463 . S
C1785 C1790 1.350 . S
C1785 N1793 1.427 . S
C1786 H1777 0.930 . S
C1786 C1784 1.378 . S
C1786 C1787 1.367 . S
C1787 C1786 1.367 . S
C1787 C1789 1.433 . S
C1788 C1784 1.350 . S
C1788 C1785 1.463 . S
C1788 N1792 1.427 . S
C1789 H1779 0.929 . S
C1789 C1787 1.433 . S
C1789 N1792 1.384 . S
C1790 H1781 0.929 . S
C1790 C1782 1.378 . S
C1790 C1785 1.350 . S
C1791 H1778 0.929 . S
C1791 C1783 1.433 . S
C1791 N1793 1.384 . S
N1792 C1788 1.427 . S
N1792 C1789 1.384 . S
N1793 C1785 1.427 . S
N1793 C1791 1.384 . S
H1794 C1800 0.930 . S
H1795 C1804 0.930 . S
H1796 C1809 0.929 . S
H1797 C1807 0.929 . S
H1798 C1802 0.929 . S
H1799 C1808 0.929 . S
C1800 H1794 0.930 . S
C1800 C1801 1.367 . S
C1800 C1808 1.378 . S
C1801 C1800 1.367 . S
C1801 C1809 1.433 . S
C1802 H1798 0.929 . S
C1802 C1804 1.378 . S
C1802 C1806 1.350 . S
C1803 C1806 1.463 . S
C1803 C1808 1.350 . S
C1803 N1811 1.427 . S
C1804 H1795 0.930 . S
C1804 C1802 1.378 . S
C1804 C1805 1.367 . S
C1805 C1804 1.367 . S
C1805 C1807 1.433 . S
C1806 C1802 1.350 . S
C1806 C1803 1.463 . S
C1806 N1810 1.427 . S
C1807 H1797 0.929 . S
C1807 C1805 1.433 . S
C1807 N1810 1.384 . S
C1808 H1799 0.929 . S
C1808 C1800 1.378 . S
C1808 C1803 1.350 . S
C1809 H1796 0.929 . S
C1809 C1801 1.433 . S
C1809 N1811 1.384 . S
N1810 C1806 1.427 . S
N1810 C1807 1.384 . S
N1811 C1803 1.427 . S
N1811 C1809 1.384 . S
H1812 C1818 0.930 . S
H1813 C1822 0.930 . S
H1814 C1827 0.929 . S
H1815 C1825 0.929 . S
H1816 C1820 0.929 . S
H1817 C1826 0.929 . S
C1818 H1812 0.930 . S
C1818 C1819 1.367 . S
C1818 C1826 1.378 . S
C1819 C1818 1.367 . S
C1819 C1827 1.433 . S
C1820 H1816 0.929 . S
C1820 C1822 1.378 . S
C1820 C1824 1.350 . S
C1821 C1824 1.463 . S
C1821 C1826 1.350 . S
C1821 N1829 1.427 . S
C1822 H1813 0.930 . S
C1822 C1820 1.378 . S
C1822 C1823 1.367 . S
C1823 C1822 1.367 . S
C1823 C1825 1.433 . S
C1824 C1820 1.350 . S
C1824 C1821 1.463 . S
C1824 N1828 1.427 . S
C1825 H1815 0.929 . S
C1825 C1823 1.433 . S
C1825 N1828 1.384 . S
C1826 H1817 0.929 . S
C1826 C1818 1.378 . S
C1826 C1821 1.350 . S
C1827 H1814 0.929 . S
C1827 C1819 1.433 . S
C1827 N1829 1.384 . S
N1828 C1824 1.427 . S
N1828 C1825 1.384 . S
N1829 C1821 1.427 . S
N1829 C1827 1.384 . S
H1830 C1836 0.930 . S
H1831 C1840 0.930 . S
H1832 C1845 0.929 . S
H1833 C1843 0.929 . S
H1834 C1838 0.929 . S
H1835 C1844 0.929 . S
C1836 H1830 0.930 . S
C1836 C1837 1.367 . S
C1836 C1844 1.378 . S
C1837 C1836 1.367 . S
C1837 C1845 1.433 . S
C1838 H1834 0.929 . S
C1838 C1840 1.378 . S
C1838 C1842 1.350 . S
C1839 C1842 1.463 . S
C1839 C1844 1.350 . S
C1839 N1847 1.427 . S
C1840 H1831 0.930 . S
C1840 C1838 1.378 . S
C1840 C1841 1.367 . S
C1841 C1840 1.367 . S
C1841 C1843 1.433 . S
C1842 C1838 1.350 . S
C1842 C1839 1.463 . S
C1842 N1846 1.427 . S
C1843 H1833 0.929 . S
C1843 C1841 1.433 . S
C1843 N1846 1.384 . S
C1844 H1835 0.929 . S
C1844 C1836 1.378 . S
C1844 C1839 1.350 . S
C1845 H1832 0.929 . S
C1845 C1837 1.433 . S
C1845 N1847 1.384 . S
N1846 C1842 1.427 . S
N1846 C1843 1.384 . S
N1847 C1839 1.427 . S
N1847 C1845 1.384 . S
H1848 C1854 0.930 . S
H1849 C1858 0.930 . S
H1850 C1863 0.929 . S
H1851 C1861 0.929 . S
H1852 C1856 0.929 . S
H1853 C1862 0.929 . S
C1854 H1848 0.930 . S
C1854 C1855 1.367 . S
C1854 C1862 1.378 . S
C1855 C1854 1.367 . S
C1855 C1863 1.433 . S
C1856 H1852 0.929 . S
C1856 C1858 1.378 . S
C1856 C1860 1.350 . S
C1857 C1860 1.463 . S
C1857 C1862 1.350 . S
C1857 N1865 1.427 . S
C1858 H1849 0.930 . S
C1858 C1856 1.378 . S
C1858 C1859 1.367 . S
C1859 C1858 1.367 . S
C1859 C1861 1.433 . S
C1860 C1856 1.350 . S
C1860 C1857 1.463 . S
C1860 N1864 1.427 . S
C1861 H1851 0.929 . S
C1861 C1859 1.433 . S
C1861 N1864 1.384 . S
C1862 H1853 0.929 . S
C1862 C1854 1.378 . S
C1862 C1857 1.350 . S
C1863 H1850 0.929 . S
C1863 C1855 1.433 . S
C1863 N1865 1.384 . S
N1864 C1860 1.427 . S
N1864 C1861 1.384 . S
N1865 C1857 1.427 . S
N1865 C1863 1.384 . S
H1866 C1872 0.930 . S
H1867 C1876 0.930 . S
H1868 C1881 0.929 . S
H1869 C1879 0.929 . S
H1870 C1874 0.929 . S
H1871 C1880 0.929 . S
C1872 H1866 0.930 . S
C1872 C1873 1.367 . S
C1872 C1880 1.378 . S
C1873 C1872 1.367 . S
C1873 C1881 1.433 . S
C1874 H1870 0.929 . S
C1874 C1876 1.378 . S
C1874 C1878 1.350 . S
C1875 C1878 1.463 . S
C1875 C1880 1.350 . S
C1875 N1883 1.427 . S
C1876 H1867 0.930 . S
C1876 C1874 1.378 . S
C1876 C1877 1.367 . S
C1877 C1876 1.367 . S
C1877 C1879 1.433 . S
C1878 C1874 1.350 . S
C1878 C1875 1.463 . S
C1878 N1882 1.427 . S
C1879 H1869 0.929 . S
C1879 C1877 1.433 . S
C1879 N1882 1.384 . S
C1880 H1871 0.929 . S
C1880 C1872 1.378 . S
C1880 C1875 1.350 . S
C1881 H1868 0.929 . S
C1881 C1873 1.433 . S
C1881 N1883 1.384 . S
N1882 C1878 1.427 . S
N1882 C1879 1.384 . S
N1883 C1875 1.427 . S
N1883 C1881 1.384 . S
H1884 C1890 0.930 . S
H1885 C1894 0.930 . S
H1886 C1899 0.929 . S
H1887 C1897 0.929 . S
H1888 C1892 0.929 . S
H1889 C1898 0.929 . S
C1890 H1884 0.930 . S
C1890 C1891 1.367 . S
C1890 C1898 1.378 . S
C1891 C1890 1.367 . S
C1891 C1899 1.433 . S
C1892 H1888 0.929 . S
C1892 C1894 1.378 . S
C1892 C1896 1.350 . S
C1893 C1896 1.463 . S
C1893 C1898 1.350 . S
C1893 N1901 1.427 . S
C1894 H1885 0.930 . S
C1894 C1892 1.378 . S
C1894 C1895 1.367 . S
C1895 C1894 1.367 . S
C1895 C1897 1.433 . S
C1896 C1892 1.350 . S
C1896 C1893 1.463 . S
C1896 N1900 1.427 . S
C1897 H1887 0.929 . S
C1897 C1895 1.433 . S
C1897 N1900 1.384 . S
C1898 H1889 0.929 . S
C1898 C1890 1.378 . S
C1898 C1893 1.350 . S
C1899 H1886 0.929 . S
C1899 C1891 1.433 . S
C1899 N1901 1.384 . S
N1900 C1896 1.427 . S
N1900 C1897 1.384 . S
N1901 C1893 1.427 . S
N1901 C1899 1.384 . S
H1902 C1908 0.930 . S
H1903 C1912 0.930 . S
H1904 C1917 0.929 . S
H1905 C1915 0.929 . S
H1906 C1910 0.929 . S
H1907 C1916 0.929 . S
C1908 H1902 0.930 . S
C1908 C1909 1.367 . S
C1908 C1916 1.378 . S
C1909 C1908 1.367 . S
C1909 C1917 1.433 . S
C1910 H1906 0.929 . S
C1910 C1912 1.378 . S
C1910 C1914 1.350 . S
C1911 C1914 1.463 . S
C1911 C1916 1.350 . S
C1911 N1919 1.427 . S
C1912 H1903 0.930 . S
C1912 C1910 1.378 . S
C1912 C1913 1.367 . S
C1913 C1912 1.367 . S
C1913 C1915 1.433 . S
C1914 C1910 1.350 . S
C1914 C1911 1.463 . S
C1914 N1918 1.427 . S
C1915 H1905 0.929 . S
C1915 C1913 1.433 . S
C1915 N1918 1.384 . S
C1916 H1907 0.929 . S
C1916 C1908 1.378 . S
C1916 C1911 1.350 . S
C1917 H1904 0.929 . S
C1917 C1909 1.433 . S
C1917 N1919 1.384 . S
N1918 C1914 1.427 . S
N1918 C1915 1.384 . S
N1919 C1911 1.427 . S
N1919 C1917 1.384 . S
H1920 C1926 0.930 . S
H1921 C1930 0.930 . S
H1922 C1935 0.929 . S
H1923 C1933 0.929 . S
H1924 C1928 0.929 . S
H1925 C1934 0.929 . S
C1926 H1920 0.930 . S
C1926 C1927 1.367 . S
C1926 C1934 1.378 . S
C1927 C1926 1.367 . S
C1927 C1935 1.433 . S
C1928 H1924 0.929 . S
C1928 C1930 1.378 . S
C1928 C1932 1.350 . S
C1929 C1932 1.463 . S
C1929 C1934 1.350 . S
C1929 N1937 1.427 . S
C1930 H1921 0.930 . S
C1930 C1928 1.378 . S
C1930 C1931 1.367 . S
C1931 C1930 1.367 . S
C1931 C1933 1.433 . S
C1932 C1928 1.350 . S
C1932 C1929 1.463 . S
C1932 N1936 1.427 . S
C1933 H1923 0.929 . S
C1933 C1931 1.433 . S
C1933 N1936 1.384 . S
C1934 H1925 0.929 . S
C1934 C1926 1.378 . S
C1934 C1929 1.350 . S
C1935 H1922 0.929 . S
C1935 C1927 1.433 . S
C1935 N1937 1.384 . S
N1936 C1932 1.427 . S
N1936 C1933 1.384 . S
N1937 C1929 1.427 . S
N1937 C1935 1.384 . S
H1938 C1944 0.930 . S
H1939 C1948 0.930 . S
H1940 C1953 0.929 . S
H1941 C1951 0.929 . S
H1942 C1946 0.929 . S
H1943 C1952 0.929 . S
C1944 H1938 0.930 . S
C1944 C1945 1.367 . S
C1944 C1952 1.378 . S
C1945 C1944 1.367 . S
C1945 C1953 1.433 . S
C1946 H1942 0.929 . S
C1946 C1948 1.378 . S
C1946 C1950 1.350 . S
C1947 C1950 1.463 . S
C1947 C1952 1.350 . S
C1947 N1955 1.427 . S
C1948 H1939 0.930 . S
C1948 C1946 1.378 . S
C1948 C1949 1.367 . S
C1949 C1948 1.367 . S
C1949 C1951 1.433 . S
C1950 C1946 1.350 . S
C1950 C1947 1.463 . S
C1950 N1954 1.427 . S
C1951 H1941 0.929 . S
C1951 C1949 1.433 . S
C1951 N1954 1.384 . S
C1952 H1943 0.929 . S
C1952 C1944 1.378 . S
C1952 C1947 1.350 . S
C1953 H1940 0.929 . S
C1953 C1945 1.433 . S
C1953 N1955 1.384 . S
N1954 C1950 1.427 . S
N1954 C1951 1.384 . S
N1955 C1947 1.427 . S
N1955 C1953 1.384 . S
H1956 C1962 0.930 . S
H1957 C1966 0.930 . S
H1958 C1971 0.929 . S
H1959 C1969 0.929 . S
H1960 C1964 0.929 . S
H1961 C1970 0.929 . S
C1962 H1956 0.930 . S
C1962 C1963 1.367 . S
C1962 C1970 1.378 . S
C1963 C1962 1.367 . S
C1963 C1971 1.433 . S
C1964 H1960 0.929 . S
C1964 C1966 1.378 . S
C1964 C1968 1.350 . S
C1965 C1968 1.463 . S
C1965 C1970 1.350 . S
C1965 N1973 1.427 . S
C1966 H1957 0.930 . S
C1966 C1964 1.378 . S
C1966 C1967 1.367 . S
C1967 C1966 1.367 . S
C1967 C1969 1.433 . S
C1968 C1964 1.350 . S
C1968 C1965 1.463 . S
C1968 N1972 1.427 . S
C1969 H1959 0.929 . S
C1969 C1967 1.433 . S
C1969 N1972 1.384 . S
C1970 H1961 0.929 . S
C1970 C1962 1.378 . S
C1970 C1965 1.350 . S
C1971 H1958 0.929 . S
C1971 C1963 1.433 . S
C1971 N1973 1.384 . S
N1972 C1968 1.427 . S
N1972 C1969 1.384 . S
N1973 C1965 1.427 . S
N1973 C1971 1.384 . S
H1974 C1980 0.930 . S
H1975 C1984 0.930 . S
H1976 C1989 0.929 . S
H1977 C1987 0.929 . S
H1978 C1982 0.929 . S
H1979 C1988 0.929 . S
C1980 H1974 0.930 . S
C1980 C1981 1.367 . S
C1980 C1988 1.378 . S
C1981 C1980 1.367 . S
C1981 C1989 1.433 . S
C1982 H1978 0.929 . S
C1982 C1984 1.378 . S
C1982 C1986 1.350 . S
C1983 C1986 1.463 . S
C1983 C1988 1.350 . S
C1983 N1991 1.427 . S
C1984 H1975 0.930 . S
C1984 C1982 1.378 . S
C1984 C1985 1.367 . S
C1985 C1984 1.367 . S
C1985 C1987 1.433 . S
C1986 C1982 1.350 . S
C1986 C1983 1.463 . S
C1986 N1990 1.427 . S
C1987 H1977 0.929 . S
C1987 C1985 1.433 . S
C1987 N1990 1.384 . S
C1988 H1979 0.929 . S
C1988 C1980 1.378 . S
C1988 C1983 1.350 . S
C1989 H1976 0.929 . S
C1989 C1981 1.433 . S
C1989 N1991 1.384 . S
N1990 C1986 1.427 . S
N1990 C1987 1.384 . S
N1991 C1983 1.427 . S
N1991 C1989 1.384 . S
H1992 C1998 0.930 . S
H1993 C2002 0.930 . S
H1994 C2007 0.929 . S
H1995 C2005 0.929 . S
H1996 C2000 0.929 . S
H1997 C2006 0.929 . S
C1998 H1992 0.930 . S
C1998 C1999 1.367 . S
C1998 C2006 1.378 . S
C1999 C1998 1.367 . S
C1999 C2007 1.433 . S
C2000 H1996 0.929 . S
C2000 C2002 1.378 . S
C2000 C2004 1.350 . S
C2001 C2004 1.463 . S
C2001 C2006 1.350 . S
C2001 N2009 1.427 . S
C2002 H1993 0.930 . S
C2002 C2000 1.378 . S
C2002 C2003 1.367 . S
C2003 C2002 1.367 . S
C2003 C2005 1.433 . S
C2004 C2000 1.350 . S
C2004 C2001 1.463 . S
C2004 N2008 1.427 . S
C2005 H1995 0.929 . S
C2005 C2003 1.433 . S
C2005 N2008 1.384 . S
C2006 H1997 0.929 . S
C2006 C1998 1.378 . S
C2006 C2001 1.350 . S
C2007 H1994 0.929 . S
C2007 C1999 1.433 . S
C2007 N2009 1.384 . S
N2008 C2004 1.427 . S
N2008 C2005 1.384 . S
N2009 C2001 1.427 . S
N2009 C2007 1.384 . S
H2010 C2016 0.930 . S
H2011 C2020 0.930 . S
H2012 C2025 0.929 . S
H2013 C2023 0.929 . S
H2014 C2018 0.929 . S
H2015 C2024 0.929 . S
C2016 H2010 0.930 . S
C2016 C2017 1.367 . S
C2016 C2024 1.378 . S
C2017 C2016 1.367 . S
C2017 C2025 1.433 . S
C2018 H2014 0.929 . S
C2018 C2020 1.378 . S
C2018 C2022 1.350 . S
C2019 C2022 1.463 . S
C2019 C2024 1.350 . S
C2019 N2027 1.427 . S
C2020 H2011 0.930 . S
C2020 C2018 1.378 . S
C2020 C2021 1.367 . S
C2021 C2020 1.367 . S
C2021 C2023 1.433 . S
C2022 C2018 1.350 . S
C2022 C2019 1.463 . S
C2022 N2026 1.427 . S
C2023 H2013 0.929 . S
C2023 C2021 1.433 . S
C2023 N2026 1.384 . S
C2024 H2015 0.929 . S
C2024 C2016 1.378 . S
C2024 C2019 1.350 . S
C2025 H2012 0.929 . S
C2025 C2017 1.433 . S
C2025 N2027 1.384 . S
N2026 C2022 1.427 . S
N2026 C2023 1.384 . S
N2027 C2019 1.427 . S
N2027 C2025 1.384 . S
H2028 C2034 0.930 . S
H2029 C2038 0.930 . S
H2030 C2043 0.929 . S
H2031 C2041 0.929 . S
H2032 C2036 0.929 . S
H2033 C2042 0.929 . S
C2034 H2028 0.930 . S
C2034 C2035 1.367 . S
C2034 C2042 1.378 . S
C2035 C2034 1.367 . S
C2035 C2043 1.433 . S
C2036 H2032 0.929 . S
C2036 C2038 1.378 . S
C2036 C2040 1.350 . S
C2037 C2040 1.463 . S
C2037 C2042 1.350 . S
C2037 N2045 1.427 . S
C2038 H2029 0.930 . S
C2038 C2036 1.378 . S
C2038 C2039 1.367 . S
C2039 C2038 1.367 . S
C2039 C2041 1.433 . S
C2040 C2036 1.350 . S
C2040 C2037 1.463 . S
C2040 N2044 1.427 . S
C2041 H2031 0.929 . S
C2041 C2039 1.433 . S
C2041 N2044 1.384 . S
C2042 H2033 0.929 . S
C2042 C2034 1.378 . S
C2042 C2037 1.350 . S
C2043 H2030 0.929 . S
C2043 C2035 1.433 . S
C2043 N2045 1.384 . S
N2044 C2040 1.427 . S
N2044 C2041 1.384 . S
N2045 C2037 1.427 . S
N2045 C2043 1.384 . S
H2046 C2052 0.930 . S
H2047 C2056 0.930 . S
H2048 C2061 0.929 . S
H2049 C2059 0.929 . S
H2050 C2054 0.929 . S
H2051 C2060 0.929 . S
C2052 H2046 0.930 . S
C2052 C2053 1.367 . S
C2052 C2060 1.378 . S
C2053 C2052 1.367 . S
C2053 C2061 1.433 . S
C2054 H2050 0.929 . S
C2054 C2056 1.378 . S
C2054 C2058 1.350 . S
C2055 C2058 1.463 . S
C2055 C2060 1.350 . S
C2055 N2063 1.427 . S
C2056 H2047 0.930 . S
C2056 C2054 1.378 . S
C2056 C2057 1.367 . S
C2057 C2056 1.367 . S
C2057 C2059 1.433 . S
C2058 C2054 1.350 . S
C2058 C2055 1.463 . S
C2058 N2062 1.427 . S
C2059 H2049 0.929 . S
C2059 C2057 1.433 . S
C2059 N2062 1.384 . S
C2060 H2051 0.929 . S
C2060 C2052 1.378 . S
C2060 C2055 1.350 . S
C2061 H2048 0.929 . S
C2061 C2053 1.433 . S
C2061 N2063 1.384 . S
N2062 C2058 1.427 . S
N2062 C2059 1.384 . S
N2063 C2055 1.427 . S
N2063 C2061 1.384 . S
H2064 C2070 0.930 . S
H2065 C2074 0.930 . S
H2066 C2079 0.929 . S
H2067 C2077 0.929 . S
H2068 C2072 0.929 . S
H2069 C2078 0.929 . S
C2070 H2064 0.930 . S
C2070 C2071 1.367 . S
C2070 C2078 1.378 . S
C2071 C2070 1.367 . S
C2071 C2079 1.433 . S
C2072 H2068 0.929 . S
C2072 C2074 1.378 . S
C2072 C2076 1.350 . S
C2073 C2076 1.463 . S
C2073 C2078 1.350 . S
C2073 N2081 1.427 . S
C2074 H2065 0.930 . S
C2074 C2072 1.378 . S
C2074 C2075 1.367 . S
C2075 C2074 1.367 . S
C2075 C2077 1.433 . S
C2076 C2072 1.350 . S
C2076 C2073 1.463 . S
C2076 N2080 1.427 . S
C2077 H2067 0.929 . S
C2077 C2075 1.433 . S
C2077 N2080 1.384 . S
C2078 H2069 0.929 . S
C2078 C2070 1.378 . S
C2078 C2073 1.350 . S
C2079 H2066 0.929 . S
C2079 C2071 1.433 . S
C2079 N2081 1.384 . S
N2080 C2076 1.427 . S
N2080 C2077 1.384 . S
N2081 C2073 1.427 . S
N2081 C2079 1.384 . S
H2082 C2088 0.930 . S
H2083 C2092 0.930 . S
H2084 C2097 0.929 . S
H2085 C2095 0.929 . S
H2086 C2090 0.929 . S
H2087 C2096 0.929 . S
C2088 H2082 0.930 . S
C2088 C2089 1.367 . S
C2088 C2096 1.378 . S
C2089 C2088 1.367 . S
C2089 C2097 1.433 . S
C2090 H2086 0.929 . S
C2090 C2092 1.378 . S
C2090 C2094 1.350 . S
C2091 C2094 1.463 . S
C2091 C2096 1.350 . S
C2091 N2099 1.427 . S
C2092 H2083 0.930 . S
C2092 C2090 1.378 . S
C2092 C2093 1.367 . S
C2093 C2092 1.367 . S
C2093 C2095 1.433 . S
C2094 C2090 1.350 . S
C2094 C2091 1.463 . S
C2094 N2098 1.427 . S
C2095 H2085 0.929 . S
C2095 C2093 1.433 . S
C2095 N2098 1.384 . S
C2096 H2087 0.929 . S
C2096 C2088 1.378 . S
C2096 C2091 1.350 . S
C2097 H2084 0.929 . S
C2097 C2089 1.433 . S
C2097 N2099 1.384 . S
N2098 C2094 1.427 . S
N2098 C2095 1.384 . S
N2099 C2091 1.427 . S
N2099 C2097 1.384 . S
H2100 C2106 0.930 . S
H2101 C2110 0.930 . S
H2102 C2115 0.929 . S
H2103 C2113 0.929 . S
H2104 C2108 0.929 . S
H2105 C2114 0.929 . S
C2106 H2100 0.930 . S
C2106 C2107 1.367 . S
C2106 C2114 1.378 . S
C2107 C2106 1.367 . S
C2107 C2115 1.433 . S
C2108 H2104 0.929 . S
C2108 C2110 1.378 . S
C2108 C2112 1.350 . S
C2109 C2112 1.463 . S
C2109 C2114 1.350 . S
C2109 N2117 1.427 . S
C2110 H2101 0.930 . S
C2110 C2108 1.378 . S
C2110 C2111 1.367 . S
C2111 C2110 1.367 . S
C2111 C2113 1.433 . S
C2112 C2108 1.350 . S
C2112 C2109 1.463 . S
C2112 N2116 1.427 . S
C2113 H2103 0.929 . S
C2113 C2111 1.433 . S
C2113 N2116 1.384 . S
C2114 H2105 0.929 . S
C2114 C2106 1.378 . S
C2114 C2109 1.350 . S
C2115 H2102 0.929 . S
C2115 C2107 1.433 . S
C2115 N2117 1.384 . S
N2116 C2112 1.427 . S
N2116 C2113 1.384 . S
N2117 C2109 1.427 . S
N2117 C2115 1.384 . S
H2118 C2124 0.930 . S
H2119 C2128 0.930 . S
H2120 C2133 0.929 . S
H2121 C2131 0.929 . S
H2122 C2126 0.929 . S
H2123 C2132 0.929 . S
C2124 H2118 0.930 . S
C2124 C2125 1.367 . S
C2124 C2132 1.378 . S
C2125 C2124 1.367 . S
C2125 C2133 1.433 . S
C2126 H2122 0.929 . S
C2126 C2128 1.378 . S
C2126 C2130 1.350 . S
C2127 C2130 1.463 . S
C2127 C2132 1.350 . S
C2127 N2135 1.427 . S
C2128 H2119 0.930 . S
C2128 C2126 1.378 . S
C2128 C2129 1.367 . S
C2129 C2128 1.367 . S
C2129 C2131 1.433 . S
C2130 C2126 1.350 . S
C2130 C2127 1.463 . S
C2130 N2134 1.427 . S
C2131 H2121 0.929 . S
C2131 C2129 1.433 . S
C2131 N2134 1.384 . S
C2132 H2123 0.929 . S
C2132 C2124 1.378 . S
C2132 C2127 1.350 . S
C2133 H2120 0.929 . S
C2133 C2125 1.433 . S
C2133 N2135 1.384 . S
N2134 C2130 1.427 . S
N2134 C2131 1.384 . S
N2135 C2127 1.427 . S
N2135 C2133 1.384 . S
H2136 C2142 0.930 . S
H2137 C2146 0.930 . S
H2138 C2151 0.929 . S
H2139 C2149 0.929 . S
H2140 C2144 0.929 . S
H2141 C2150 0.929 . S
C2142 H2136 0.930 . S
C2142 C2143 1.367 . S
C2142 C2150 1.378 . S
C2143 C2142 1.367 . S
C2143 C2151 1.433 . S
C2144 H2140 0.929 . S
C2144 C2146 1.378 . S
C2144 C2148 1.350 . S
C2145 C2148 1.463 . S
C2145 C2150 1.350 . S
C2145 N2153 1.427 . S
C2146 H2137 0.930 . S
C2146 C2144 1.378 . S
C2146 C2147 1.367 . S
C2147 C2146 1.367 . S
C2147 C2149 1.433 . S
C2148 C2144 1.350 . S
C2148 C2145 1.463 . S
C2148 N2152 1.427 . S
C2149 H2139 0.929 . S
C2149 C2147 1.433 . S
C2149 N2152 1.384 . S
C2150 H2141 0.929 . S
C2150 C2142 1.378 . S
C2150 C2145 1.350 . S
C2151 H2138 0.929 . S
C2151 C2143 1.433 . S
C2151 N2153 1.384 . S
N2152 C2148 1.427 . S
N2152 C2149 1.384 . S
N2153 C2145 1.427 . S
N2153 C2151 1.384 . S
H2154 C2160 0.930 . S
H2155 C2164 0.930 . S
H2156 C2169 0.929 . S
H2157 C2167 0.929 . S
H2158 C2162 0.929 . S
H2159 C2168 0.929 . S
C2160 H2154 0.930 . S
C2160 C2161 1.367 . S
C2160 C2168 1.378 . S
C2161 C2160 1.367 . S
C2161 C2169 1.433 . S
C2162 H2158 0.929 . S
C2162 C2164 1.378 . S
C2162 C2166 1.350 . S
C2163 C2166 1.463 . S
C2163 C2168 1.350 . S
C2163 N2171 1.427 . S
C2164 H2155 0.930 . S
C2164 C2162 1.378 . S
C2164 C2165 1.367 . S
C2165 C2164 1.367 . S
C2165 C2167 1.433 . S
C2166 C2162 1.350 . S
C2166 C2163 1.463 . S
C2166 N2170 1.427 . S
C2167 H2157 0.929 . S
C2167 C2165 1.433 . S
C2167 N2170 1.384 . S
C2168 H2159 0.929 . S
C2168 C2160 1.378 . S
C2168 C2163 1.350 . S
C2169 H2156 0.929 . S
C2169 C2161 1.433 . S
C2169 N2171 1.384 . S
N2170 C2166 1.427 . S
N2170 C2167 1.384 . S
N2171 C2163 1.427 . S
N2171 C2169 1.384 . S
H2172 C2178 0.930 . S
H2173 C2182 0.930 . S
H2174 C2187 0.929 . S
H2175 C2185 0.929 . S
H2176 C2180 0.929 . S
H2177 C2186 0.929 . S
C2178 H2172 0.930 . S
C2178 C2179 1.367 . S
C2178 C2186 1.378 . S
C2179 C2178 1.367 . S
C2179 C2187 1.433 . S
C2180 H2176 0.929 . S
C2180 C2182 1.378 . S
C2180 C2184 1.350 . S
C2181 C2184 1.463 . S
C2181 C2186 1.350 . S
C2181 N2189 1.427 . S
C2182 H2173 0.930 . S
C2182 C2180 1.378 . S
C2182 C2183 1.367 . S
C2183 C2182 1.367 . S
C2183 C2185 1.433 . S
C2184 C2180 1.350 . S
C2184 C2181 1.463 . S
C2184 N2188 1.427 . S
C2185 H2175 0.929 . S
C2185 C2183 1.433 . S
C2185 N2188 1.384 . S
C2186 H2177 0.929 . S
C2186 C2178 1.378 . S
C2186 C2181 1.350 . S
C2187 H2174 0.929 . S
C2187 C2179 1.433 . S
C2187 N2189 1.384 . S
N2188 C2184 1.427 . S
N2188 C2185 1.384 . S
N2189 C2181 1.427 . S
N2189 C2187 1.384 . S
H2190 C2196 0.930 . S
H2191 C2200 0.930 . S
H2192 C2205 0.929 . S
H2193 C2203 0.929 . S
H2194 C2198 0.929 . S
H2195 C2204 0.929 . S
C2196 H2190 0.930 . S
C2196 C2197 1.367 . S
C2196 C2204 1.378 . S
C2197 C2196 1.367 . S
C2197 C2205 1.433 . S
C2198 H2194 0.929 . S
C2198 C2200 1.378 . S
C2198 C2202 1.350 . S
C2199 C2202 1.463 . S
C2199 C2204 1.350 . S
C2199 N2207 1.427 . S
C2200 H2191 0.930 . S
C2200 C2198 1.378 . S
C2200 C2201 1.367 . S
C2201 C2200 1.367 . S
C2201 C2203 1.433 . S
C2202 C2198 1.350 . S
C2202 C2199 1.463 . S
C2202 N2206 1.427 . S
C2203 H2193 0.929 . S
C2203 C2201 1.433 . S
C2203 N2206 1.384 . S
C2204 H2195 0.929 . S
C2204 C2196 1.378 . S
C2204 C2199 1.350 . S
C2205 H2192 0.929 . S
C2205 C2197 1.433 . S
C2205 N2207 1.384 . S
N2206 C2202 1.427 . S
N2206 C2203 1.384 . S
N2207 C2199 1.427 . S
N2207 C2205 1.384 . S
H2208 C2214 0.930 . S
H2209 C2218 0.930 . S
H2210 C2223 0.929 . S
H2211 C2221 0.929 . S
H2212 C2216 0.929 . S
H2213 C2222 0.929 . S
C2214 H2208 0.930 . S
C2214 C2215 1.367 . S
C2214 C2222 1.378 . S
C2215 C2214 1.367 . S
C2215 C2223 1.433 . S
C2216 H2212 0.929 . S
C2216 C2218 1.378 . S
C2216 C2220 1.350 . S
C2217 C2220 1.463 . S
C2217 C2222 1.350 . S
C2217 N2225 1.427 . S
C2218 H2209 0.930 . S
C2218 C2216 1.378 . S
C2218 C2219 1.367 . S
C2219 C2218 1.367 . S
C2219 C2221 1.433 . S
C2220 C2216 1.350 . S
C2220 C2217 1.463 . S
C2220 N2224 1.427 . S
C2221 H2211 0.929 . S
C2221 C2219 1.433 . S
C2221 N2224 1.384 . S
C2222 H2213 0.929 . S
C2222 C2214 1.378 . S
C2222 C2217 1.350 . S
C2223 H2210 0.929 . S
C2223 C2215 1.433 . S
C2223 N2225 1.384 . S
N2224 C2220 1.427 . S
N2224 C2221 1.384 . S
N2225 C2217 1.427 . S
N2225 C2223 1.384 . S
H2226 C2232 0.930 . S
H2227 C2236 0.930 . S
H2228 C2241 0.929 . S
H2229 C2239 0.929 . S
H2230 C2234 0.929 . S
H2231 C2240 0.929 . S
C2232 H2226 0.930 . S
C2232 C2233 1.367 . S
C2232 C2240 1.378 . S
C2233 C2232 1.367 . S
C2233 C2241 1.433 . S
C2234 H2230 0.929 . S
C2234 C2236 1.378 . S
C2234 C2238 1.350 . S
C2235 C2238 1.463 . S
C2235 C2240 1.350 . S
C2235 N2243 1.427 . S
C2236 H2227 0.930 . S
C2236 C2234 1.378 . S
C2236 C2237 1.367 . S
C2237 C2236 1.367 . S
C2237 C2239 1.433 . S
C2238 C2234 1.350 . S
C2238 C2235 1.463 . S
C2238 N2242 1.427 . S
C2239 H2229 0.929 . S
C2239 C2237 1.433 . S
C2239 N2242 1.384 . S
C2240 H2231 0.929 . S
C2240 C2232 1.378 . S
C2240 C2235 1.350 . S
C2241 H2228 0.929 . S
C2241 C2233 1.433 . S
C2241 N2243 1.384 . S
N2242 C2238 1.427 . S
N2242 C2239 1.384 . S
N2243 C2235 1.427 . S
N2243 C2241 1.384 . S
H2244 C2250 0.930 . S
H2245 C2254 0.930 . S
H2246 C2259 0.929 . S
H2247 C2257 0.929 . S
H2248 C2252 0.929 . S
H2249 C2258 0.929 . S
C2250 H2244 0.930 . S
C2250 C2251 1.367 . S
C2250 C2258 1.378 . S
C2251 C2250 1.367 . S
C2251 C2259 1.433 . S
C2252 H2248 0.929 . S
C2252 C2254 1.378 . S
C2252 C2256 1.350 . S
C2253 C2256 1.463 . S
C2253 C2258 1.350 . S
C2253 N2261 1.427 . S
C2254 H2245 0.930 . S
C2254 C2252 1.378 . S
C2254 C2255 1.367 . S
C2255 C2254 1.367 . S
C2255 C2257 1.433 . S
C2256 C2252 1.350 . S
C2256 C2253 1.463 . S
C2256 N2260 1.427 . S
C2257 H2247 0.929 . S
C2257 C2255 1.433 . S
C2257 N2260 1.384 . S
C2258 H2249 0.929 . S
C2258 C2250 1.378 . S
C2258 C2253 1.350 . S
C2259 H2246 0.929 . S
C2259 C2251 1.433 . S
C2259 N2261 1.384 . S
N2260 C2256 1.427 . S
N2260 C2257 1.384 . S
N2261 C2253 1.427 . S
N2261 C2259 1.384 . S
H2262 C2268 0.930 . S
H2263 C2272 0.930 . S
H2264 C2277 0.929 . S
H2265 C2275 0.929 . S
H2266 C2270 0.929 . S
H2267 C2276 0.929 . S
C2268 H2262 0.930 . S
C2268 C2269 1.367 . S
C2268 C2276 1.378 . S
C2269 C2268 1.367 . S
C2269 C2277 1.433 . S
C2270 H2266 0.929 . S
C2270 C2272 1.378 . S
C2270 C2274 1.350 . S
C2271 C2274 1.463 . S
C2271 C2276 1.350 . S
C2271 N2279 1.427 . S
C2272 H2263 0.930 . S
C2272 C2270 1.378 . S
C2272 C2273 1.367 . S
C2273 C2272 1.367 . S
C2273 C2275 1.433 . S
C2274 C2270 1.350 . S
C2274 C2271 1.463 . S
C2274 N2278 1.427 . S
C2275 H2265 0.929 . S
C2275 C2273 1.433 . S
C2275 N2278 1.384 . S
C2276 H2267 0.929 . S
C2276 C2268 1.378 . S
C2276 C2271 1.350 . S
C2277 H2264 0.929 . S
C2277 C2269 1.433 . S
C2277 N2279 1.384 . S
N2278 C2274 1.427 . S
N2278 C2275 1.384 . S
N2279 C2271 1.427 . S
N2279 C2277 1.384 . S
H2280 C2286 0.930 . S
H2281 C2290 0.930 . S
H2282 C2295 0.929 . S
H2283 C2293 0.929 . S
H2284 C2288 0.929 . S
H2285 C2294 0.929 . S
C2286 H2280 0.930 . S
C2286 C2287 1.367 . S
C2286 C2294 1.378 . S
C2287 C2286 1.367 . S
C2287 C2295 1.433 . S
C2288 H2284 0.929 . S
C2288 C2290 1.378 . S
C2288 C2292 1.350 . S
C2289 C2292 1.463 . S
C2289 C2294 1.350 . S
C2289 N2297 1.427 . S
C2290 H2281 0.930 . S
C2290 C2288 1.378 . S
C2290 C2291 1.367 . S
C2291 C2290 1.367 . S
C2291 C2293 1.433 . S
C2292 C2288 1.350 . S
C2292 C2289 1.463 . S
C2292 N2296 1.427 . S
C2293 H2283 0.929 . S
C2293 C2291 1.433 . S
C2293 N2296 1.384 . S
C2294 H2285 0.929 . S
C2294 C2286 1.378 . S
C2294 C2289 1.350 . S
C2295 H2282 0.929 . S
C2295 C2287 1.433 . S
C2295 N2297 1.384 . S
N2296 C2292 1.427 . S
N2296 C2293 1.384 . S
N2297 C2289 1.427 . S
N2297 C2295 1.384 . S
H2298 C2304 0.930 . S
H2299 C2308 0.930 . S
H2300 C2313 0.929 . S
H2301 C2311 0.929 . S
H2302 C2306 0.929 . S
H2303 C2312 0.929 . S
C2304 H2298 0.930 . S
C2304 C2305 1.367 . S
C2304 C2312 1.378 . S
C2305 C2304 1.367 . S
C2305 C2313 1.433 . S
C2306 H2302 0.929 . S
C2306 C2308 1.378 . S
C2306 C2310 1.350 . S
C2307 C2310 1.463 . S
C2307 C2312 1.350 . S
C2307 N2315 1.427 . S
C2308 H2299 0.930 . S
C2308 C2306 1.378 . S
C2308 C2309 1.367 . S
C2309 C2308 1.367 . S
C2309 C2311 1.433 . S
C2310 C2306 1.350 . S
C2310 C2307 1.463 . S
C2310 N2314 1.427 . S
C2311 H2301 0.929 . S
C2311 C2309 1.433 . S
C2311 N2314 1.384 . S
C2312 H2303 0.929 . S
C2312 C2304 1.378 . S
C2312 C2307 1.350 . S
C2313 H2300 0.929 . S
C2313 C2305 1.433 . S
C2313 N2315 1.384 . S
N2314 C2310 1.427 . S
N2314 C2311 1.384 . S
N2315 C2307 1.427 . S
N2315 C2313 1.384 . S
H2316 C2322 0.930 . S
H2317 C2326 0.930 . S
H2318 C2331 0.929 . S
H2319 C2329 0.929 . S
H2320 C2324 0.929 . S
H2321 C2330 0.929 . S
C2322 H2316 0.930 . S
C2322 C2323 1.367 . S
C2322 C2330 1.378 . S
C2323 C2322 1.367 . S
C2323 C2331 1.433 . S
C2324 H2320 0.929 . S
C2324 C2326 1.378 . S
C2324 C2328 1.350 . S
C2325 C2328 1.463 . S
C2325 C2330 1.350 . S
C2325 N2333 1.427 . S
C2326 H2317 0.930 . S
C2326 C2324 1.378 . S
C2326 C2327 1.367 . S
C2327 C2326 1.367 . S
C2327 C2329 1.433 . S
C2328 C2324 1.350 . S
C2328 C2325 1.463 . S
C2328 N2332 1.427 . S
C2329 H2319 0.929 . S
C2329 C2327 1.433 . S
C2329 N2332 1.384 . S
C2330 H2321 0.929 . S
C2330 C2322 1.378 . S
C2330 C2325 1.350 . S
C2331 H2318 0.929 . S
C2331 C2323 1.433 . S
C2331 N2333 1.384 . S
N2332 C2328 1.427 . S
N2332 C2329 1.384 . S
N2333 C2325 1.427 . S
N2333 C2331 1.384 . S
H2334 C2340 0.930 . S
H2335 C2344 0.930 . S
H2336 C2349 0.929 . S
H2337 C2347 0.929 . S
H2338 C2342 0.929 . S
H2339 C2348 0.929 . S
C2340 H2334 0.930 . S
C2340 C2341 1.367 . S
C2340 C2348 1.378 . S
C2341 C2340 1.367 . S
C2341 C2349 1.433 . S
C2342 H2338 0.929 . S
C2342 C2344 1.378 . S
C2342 C2346 1.350 . S
C2343 C2346 1.463 . S
C2343 C2348 1.350 . S
C2343 N2351 1.427 . S
C2344 H2335 0.930 . S
C2344 C2342 1.378 . S
C2344 C2345 1.367 . S
C2345 C2344 1.367 . S
C2345 C2347 1.433 . S
C2346 C2342 1.350 . S
C2346 C2343 1.463 . S
C2346 N2350 1.427 . S
C2347 H2337 0.929 . S
C2347 C2345 1.433 . S
C2347 N2350 1.384 . S
C2348 H2339 0.929 . S
C2348 C2340 1.378 . S
C2348 C2343 1.350 . S
C2349 H2336 0.929 . S
C2349 C2341 1.433 . S
C2349 N2351 1.384 . S
N2350 C2346 1.427 . S
N2350 C2347 1.384 . S
N2351 C2343 1.427 . S
N2351 C2349 1.384 . S
C631 C407 1.406 . S
C635 C4 1.405 . S
C649 C23 1.407 . S
C653 C374 1.404 . S
C667 C30 1.407 . S
C671 C387 1.404 . S
C685 C394 1.407 . S
C689 C49 1.404 . S
C703 C335 1.406 . S
C707 C62 1.406 . S
C721 C69 1.404 . S
C725 C342 1.406 . S
C739 C361 1.406 . S
C743 C82 1.405 . S
C757 C95 1.406 . S
C761 C322 1.405 . S
C775 C114 1.405 . S
C779 C582 1.406 . S
C793 C537 1.407 . S
C797 C121 1.405 . S
C811 C556 1.407 . S
C815 C140 1.405 . S
C829 C147 1.407 . S
C833 C563 1.404 . S
C847 C160 1.407 . S
C851 C615 1.404 . S
C865 C179 1.405 . S
C869 C589 1.405 . S
C883 C192 1.404 . S
C887 C602 1.407 . S
C901 C524 1.404 . S
C905 C199 1.407 . S
C919 C511 1.407 . S
C923 C212 1.404 . S
C937 C225 1.406 . S
C941 C433 1.405 . S
C955 C446 1.404 . S
C959 C238 1.407 . S
C973 C257 1.405 . S
C977 C459 1.406 . S
C991 C426 1.404 . S
C995 C270 1.407 . S
C1009 C491 1.407 . S
C1013 C277 1.404 . S
C1027 C296 1.404 . S
C1031 C498 1.407 . S
C1045 C478 1.407 . S
C1049 C303 1.405 . S
C1063 C127 1.733 . S
C1067 C10 1.733 . S
C1081 C134 1.733 . S
C1085 C17 1.733 . S
C1099 C36 1.733 . S
C1103 C153 1.733 . S
C1117 C108 1.733 . S
C1121 C43 1.733 . S
C1135 C56 1.733 . S
C1139 C205 1.733 . S
C1153 C166 1.733 . S
C1157 C75 1.733 . S
C1171 C173 1.733 . S
C1175 C88 1.733 . S
C1189 C186 1.733 . S
C1193 C101 1.733 . S
C1207 C244 1.733 . S
C1211 C218 1.733 . S
C1225 C290 1.733 . S
C1229 C231 1.733 . S
C1243 C309 1.733 . S
C1247 C251 1.733 . S
C1261 C264 1.733 . S
C1265 C283 1.733 . S
C1279 C439 1.733 . S
C1283 C316 1.733 . S
C1297 C452 1.733 . S
C1301 C329 1.733 . S
C1315 C465 1.733 . S
C1319 C348 1.733 . S
C1333 C355 1.733 . S
C1337 C420 1.733 . S
C1351 C368 1.733 . S
C1355 C517 1.733 . S
C1369 C381 1.733 . S
C1373 C472 1.733 . S
C1387 C485 1.733 . S
C1391 C400 1.733 . S
C1405 C504 1.733 . S
C1409 C413 1.733 . S
C1423 C530 1.733 . S
C1427 C550 1.733 . S
C1441 C608 1.733 . S
C1445 C543 1.733 . S
C1459 C621 1.733 . S
C1463 C569 1.733 . S
C1477 C595 1.733 . S
C1481 C576 1.733 . S
C1495 C3 1.425 . S
C1499 C239 1.423 . S
C1513 C18 1.425 . S
C1517 C250 1.421 . S
C1531 C29 1.425 . S
C1535 C263 1.422 . S
C1549 C226 1.419 . S
C1553 C44 1.424 . S
C1567 C57 1.425 . S
C1571 C289 1.422 . S
C1585 C68 1.424 . S
C1589 C213 1.420 . S
C1603 C304 1.419 . S
C1607 C81 1.424 . S
C1621 C278 1.422 . S
C1625 C94 1.425 . S
C1639 C109 1.423 . S
C1643 C122 1.419 . S
C1657 C120 1.423 . S
C1661 C133 1.419 . S
C1675 C135 1.425 . S
C1679 C148 1.423 . S
C1693 C107 1.421 . S
C1697 C146 1.424 . S
C1711 C200 1.419 . S
C1715 C159 1.424 . S
C1729 C161 1.420 . S
C1733 C174 1.424 . S
C1747 C172 1.419 . S
C1751 C187 1.424 . S
C1765 C198 1.425 . S
C1769 C185 1.422 . S
C1783 C42 1.421 . S
C1787 C211 1.424 . S
C1801 C70 1.420 . S
C1805 C224 1.424 . S
C1819 C83 1.419 . S
C1823 C237 1.424 . S
C1837 C252 1.424 . S
C1841 C96 1.422 . S
C1855 C55 1.423 . S
C1859 C265 1.425 . S
C1873 C16 1.423 . S
C1877 C276 1.425 . S
C1891 C31 1.423 . S
C1895 C291 1.425 . S
C1909 C5 1.419 . S
C1913 C302 1.424 . S
C1927 C549 1.419 . S
C1931 C317 1.424 . S
C1945 C330 1.424 . S
C1949 C564 1.421 . S
C1963 C575 1.421 . S
C1967 C341 1.425 . S
C1981 C538 1.419 . S
C1985 C356 1.423 . S
C1999 C369 1.424 . S
C2003 C603 1.421 . S
C2017 C382 1.425 . S
C2021 C525 1.423 . S
C2035 C616 1.420 . S
C2039 C393 1.424 . S
C2053 C406 1.425 . S
C2057 C590 1.422 . S
C2071 C421 1.423 . S
C2075 C434 1.419 . S
C2089 C432 1.423 . S
C2093 C447 1.419 . S
C2107 C445 1.424 . S
C2111 C460 1.420 . S
C2125 C458 1.424 . S
C2129 C419 1.421 . S
C2143 C512 1.423 . S
C2147 C473 1.425 . S
C2161 C471 1.423 . S
C2165 C486 1.425 . S
C2179 C484 1.419 . S
C2183 C497 1.424 . S
C2197 C510 1.425 . S
C2201 C499 1.423 . S
C2215 C354 1.422 . S
C2219 C523 1.425 . S
C2233 C380 1.419 . S
C2237 C536 1.424 . S
C2251 C395 1.419 . S
C2255 C551 1.423 . S
C2269 C562 1.425 . S
C2273 C408 1.422 . S
C2287 C367 1.421 . S
C2291 C577 1.424 . S
C2305 C328 1.421 . S
C2309 C588 1.424 . S
C2323 C601 1.425 . S
C2327 C343 1.423 . S
C2341 C315 1.419 . S
C2345 C614 1.424 . S
