# Generated by pormake.
# Topology sml, (6)-cn, num edge types: 1
# Building blocks:
#     Node 0, Type 0, BuildingBlock: OJICUG_clean_sbu_0, # of connection points: 6
#     Node 1, Type 0, BuildingBlock: OJICUG_clean_sbu_0, # of connection points: 6
#     Node 2, Type 0, BuildingBlock: OJICUG_clean_sbu_0, # of connection points: 6
#     Node 3, Type 0, BuildingBlock: OJICUG_clean_sbu_0, # of connection points: 6
#     Node 4, Type 0, BuildingBlock: OJICUG_clean_sbu_0, # of connection points: 6
#     Node 5, Type 0, BuildingBlock: OJICUG_clean_sbu_0, # of connection points: 6
#     Edge 6, Type (0, 0), BuildingBlock: TEMPAE_clean_linker_10, # of connection points: 2
#     Edge 7, Type (0, 0), BuildingBlock: TEMPAE_clean_linker_10, # of connection points: 2
#     Edge 8, Type (0, 0), BuildingBlock: TEMPAE_clean_linker_10, # of connection points: 2
#     Edge 9, Type (0, 0), BuildingBlock: TEMPAE_clean_linker_10, # of connection points: 2
#     Edge 10, Type (0, 0), BuildingBlock: TEMPAE_clean_linker_10, # of connection points: 2
#     Edge 11, Type (0, 0), BuildingBlock: TEMPAE_clean_linker_10, # of connection points: 2
#     Edge 12, Type (0, 0), BuildingBlock: TEMPAE_clean_linker_10, # of connection points: 2
#     Edge 13, Type (0, 0), BuildingBlock: TEMPAE_clean_linker_10, # of connection points: 2
#     Edge 14, Type (0, 0), BuildingBlock: TEMPAE_clean_linker_10, # of connection points: 2
#     Edge 15, Type (0, 0), BuildingBlock: TEMPAE_clean_linker_10, # of connection points: 2
#     Edge 16, Type (0, 0), BuildingBlock: TEMPAE_clean_linker_10, # of connection points: 2
#     Edge 17, Type (0, 0), BuildingBlock: TEMPAE_clean_linker_10, # of connection points: 2
#     Edge 18, Type (0, 0), BuildingBlock: TEMPAE_clean_linker_10, # of connection points: 2
#     Edge 19, Type (0, 0), BuildingBlock: TEMPAE_clean_linker_10, # of connection points: 2
#     Edge 20, Type (0, 0), BuildingBlock: TEMPAE_clean_linker_10, # of connection points: 2
#     Edge 21, Type (0, 0), BuildingBlock: TEMPAE_clean_linker_10, # of connection points: 2
#     Edge 22, Type (0, 0), BuildingBlock: TEMPAE_clean_linker_10, # of connection points: 2
#     Edge 23, Type (0, 0), BuildingBlock: TEMPAE_clean_linker_10, # of connection points: 2
# Relax obj value: 0.230
# Max RMSD: 0.261
# Mean RMSD: 0.261
data_MOF--net-sml--node1-OJICUG_clean_sbu_0--edge1-TEMPAE_clean_linker_10
_symmetry_space_group_name_H-M    P1
_symmetry_Int_Tables_number       1
_symmetry_cell_setting            triclinic
loop_
_symmetry_equiv_pos_as_xyz
'x, y, z'
_cell_length_a     42.238116
_cell_length_b     42.314108
_cell_length_c     15.714928
_cell_angle_alpha  90.496893
_cell_angle_beta   89.742091
_cell_angle_gamma 119.90831
loop_
_atom_site_label
_atom_site_type_symbol
_atom_site_fract_x
_atom_site_fract_y
_atom_site_fract_z
_atom_type_partial_charge
Sc0 Sc 0.18143 0.36085 0.09019 0.0
Sc1 Sc 0.26366 0.43891 0.14209 0.0
Sc2 Sc 0.19447 0.44672 0.04161 0.0
O3 O 0.21305 0.4153 0.09103 0.0
C4 C 0.17117 0.38432 0.90285 0.0
C5 C 0.25838 0.36927 0.05112 0.0
C6 C 0.2796 0.48755 0.98653 0.0
C7 C 0.21523 0.38069 0.2793 0.0
C8 C 0.12261 0.38402 0.13036 0.0
C9 C 0.23782 0.49704 0.18694 0.0
O10 O 0.16607 0.3601 0.95769 0.0
O11 O 0.27545 0.39642 0.101 0.0
O12 O 0.24851 0.4857 -0.00779 0.0
O13 O 0.19459 0.35774 0.22287 0.0
O14 O 0.13887 0.41338 0.08795 0.0
O15 O 0.26227 0.48783 0.18151 0.0
O16 O 0.13557 0.36298 0.13966 0.0
O17 O 0.24096 0.41263 0.26127 0.0
O18 O 0.20586 0.47683 0.15832 0.0
O19 O 0.22438 0.3544 0.03845 0.0
O20 O 0.18249 0.41751 0.92278 0.0
O21 O 0.28696 0.46583 0.02557 0.0
Sc22 Sc 0.73392 0.19222 0.36844 0.0
Sc23 Sc 0.80517 0.26344 0.47992 0.0
Sc24 Sc 0.81063 0.18636 0.42542 0.0
O25 O 0.78324 0.21378 0.42455 0.0
C26 C 0.73031 0.12192 0.45147 0.0
C27 C 0.71915 0.23035 0.51495 0.0
C28 C 0.81898 0.21782 0.61593 0.0
C29 C 0.77306 0.27747 0.32031 0.0
C30 C 0.77931 0.17469 0.23527 0.0
C31 C 0.87568 0.26604 0.40009 0.0
O32 O 0.71584 0.13689 0.40897 0.0
O33 O 0.75197 0.25668 0.51366 0.0
O34 O 0.82434 0.19916 0.55921 0.0
O35 O 0.7452 0.24542 0.3223 0.0
O36 O 0.79915 0.1716 0.29187 0.0
O37 O 0.86147 0.28016 0.4474 0.0
O38 O 0.75541 0.18376 0.25228 0.0
O39 O 0.80173 0.28649 0.36336 0.0
O40 O 0.85934 0.23242 0.38177 0.0
O41 O 0.71015 0.19955 0.48213 0.0
O42 O 0.76416 0.13754 0.46756 0.0
O43 O 0.80908 0.24099 0.59849 0.0
Sc44 Sc 0.63022 0.79401 0.62319 0.0
Sc45 Sc 0.55003 0.78847 0.7067 0.0
Sc46 Sc 0.54373 0.72502 0.55421 0.0
O47 O 0.57478 0.76934 0.62783 0.0
C48 C 0.61171 0.77041 0.43091 0.0
C49 C 0.61488 0.86072 0.62581 0.0
C50 C 0.49971 0.76623 0.53991 0.0
C51 C 0.61814 0.80211 0.81942 0.0
C52 C 0.60378 0.70916 0.63072 0.0
C53 C 0.49572 0.70464 0.72417 0.0
O54 O 0.63245 0.7924 0.48742 0.0
O55 O 0.5832 0.84284 0.65867 0.0
O56 O 0.51284 0.74858 0.50176 0.0
O57 O 0.63647 0.79917 0.75895 0.0
O58 O 0.57121 0.69826 0.60635 0.0
O59 O 0.51372 0.73551 0.76103 0.0
O60 O 0.62864 0.74256 0.63386 0.0
O61 O 0.58716 0.79943 0.80906 0.0
O62 O 0.50286 0.69885 0.6492 0.0
O63 O 0.63537 0.84708 0.61197 0.0
O64 O 0.57988 0.74448 0.44715 0.0
O65 O 0.50973 0.77969 0.61397 0.0
Sc66 Sc 0.79223 0.5458 0.92488 0.0
Sc67 Sc 0.72821 0.54163 0.07335 0.0
Sc68 Sc 0.79957 0.62697 0.0077 0.0
O69 O 0.77349 0.57154 0.00219 0.0
C70 C 0.86465 0.60893 0.01073 0.0
C71 C 0.76529 0.49372 0.08781 0.0
C72 C 0.77501 0.60827 0.1996 0.0
C73 C 0.70771 0.49526 0.90026 0.0
C74 C 0.80896 0.61466 0.81237 0.0
C75 C 0.71544 0.6036 -0.00366 0.0
O76 O 0.84636 0.57731 0.97736 0.0
O77 O 0.74852 0.50793 0.1252 0.0
O78 O 0.79688 0.62911 0.14345 0.0
O79 O 0.73939 0.51111 0.86683 0.0
O80 O 0.80588 0.63313 0.87235 0.0
O81 O 0.70358 0.57126 0.02254 0.0
O82 O 0.80561 0.58348 0.82303 0.0
O83 O 0.70146 0.50267 0.97458 0.0
O84 O 0.74919 0.62748 -0.00714 0.0
O85 O 0.7806 0.50432 0.01589 0.0
O86 O 0.85175 0.63018 0.02255 0.0
O87 O 0.74879 0.57665 0.18258 0.0
Sc88 Sc 0.18574 0.81112 0.21945 0.0
Sc89 Sc 0.19846 0.73844 0.27278 0.0
Sc90 Sc 0.26701 0.81324 0.1663 0.0
O91 O 0.21692 0.78769 0.21967 0.0
C92 C 0.21862 0.82364 0.03003 0.0
C93 C 0.12554 0.72939 0.19043 0.0
C94 C 0.23882 0.72853 0.1247 0.0
C95 C 0.17711 0.77973 0.40877 0.0
C96 C 0.26315 0.87964 0.25193 0.0
C97 C 0.28423 0.78125 0.32027 0.0
O98 O 0.19805 0.82611 0.0864 0.0
O99 O 0.14206 0.71691 0.23414 0.0
O100 O 0.26383 0.76194 0.12814 0.0
O101 O 0.17131 0.79794 0.35267 0.0
O102 O 0.27977 0.86787 0.20516 0.0
O103 O 0.25295 0.75238 0.31673 0.0
O104 O 0.22919 0.86119 0.26596 0.0
O105 O 0.18893 0.75804 0.39079 0.0
O106 O 0.29106 0.81031 0.28221 0.0
O107 O 0.13922 0.76293 0.17412 0.0
O108 O 0.24399 0.81677 0.04777 0.0
O109 O 0.20737 0.71767 0.15599 0.0
Sc110 Sc 0.4285 0.25764 0.56132 0.0
Sc111 Sc 0.43421 0.18736 0.6603 0.0
Sc112 Sc 0.34899 0.1768 0.60959 0.0
O113 O 0.40368 0.2071 0.61025 0.0
C114 C 0.35927 0.2543 0.65249 0.0
C115 C 0.47969 0.27271 0.70949 0.0
C116 C 0.37247 0.16729 0.798 0.0
C117 C 0.48318 0.22771 0.51072 0.0
C118 C 0.36911 0.21142 0.42212 0.0
C119 C 0.37027 0.11667 0.57078 0.0
O120 O 0.388 0.27124 0.60747 0.0
O121 O 0.47659 0.24118 0.70467 0.0
O122 O 0.34824 0.1616 0.7421 0.0
O123 O 0.4754 0.25318 0.51747 0.0
O124 O 0.34612 0.19016 0.47716 0.0
O125 O 0.39872 0.13152 0.61719 0.0
O126 O 0.40113 0.23674 0.4418 0.0
O127 O 0.46319 0.19646 0.5428 0.0
O128 O 0.35047 0.13087 0.55899 0.0
O129 O 0.45618 0.2795 0.67798 0.0
O130 O 0.34274 0.22003 0.66061 0.0
O131 O 0.40575 0.17816 0.77939 0.0
C132 C 0.31661 0.25583 0.76093 0.0
C133 C 0.34656 0.27494 0.70615 0.0
C134 C 0.30622 0.27408 0.81953 0.0
C135 C 0.32593 0.3126 0.82348 0.0
C136 C 0.35601 0.33226 0.76822 0.0
C137 C 0.36604 0.3132 0.71025 0.0
C138 C 0.27394 0.25201 0.87716 0.0
C139 C 0.37734 0.37339 0.76996 0.0
C140 C 0.2683 0.35114 0.90823 0.0
C141 C 0.27878 0.35788 -0.00599 0.0
C142 C 0.28521 0.33874 0.85104 0.0
C143 C 0.31274 0.33187 0.88061 0.0
C144 C 0.32448 0.33986 0.96662 0.0
C145 C 0.30761 0.35332 0.02238 0.0
C146 C 0.27209 0.3313 0.75993 0.0
C147 C 0.35366 0.33269 0.00047 0.0
H148 H 0.30143 0.22628 0.75931 0.0
H149 H 0.38943 0.32827 0.66906 0.0
H150 H 0.28219 0.25899 0.94472 0.0
H151 H 0.25213 0.25869 0.86451 0.0
H152 H 0.26236 0.22217 0.86827 0.0
H153 H 0.40098 0.38463 0.72564 0.0
H154 H 0.35922 0.38429 0.75227 0.0
H155 H 0.38748 0.38333 0.83528 0.0
H156 H 0.2465 0.35543 0.88564 0.0
H157 H 0.31588 0.35882 0.08853 0.0
H158 H 0.25365 0.30156 0.75077 0.0
H159 H 0.29523 0.34011 0.7149 0.0
H160 H 0.25686 0.3455 0.74339 0.0
H161 H 0.34312 0.30286 0.00189 0.0
H162 H 0.36242 0.34386 0.06578 0.0
H163 H 0.37786 0.3448 0.95797 0.0
C164 C 0.07762 0.35095 0.24493 0.0
C165 C 0.08776 0.37393 0.17403 0.0
C166 C 0.04392 0.33871 0.28504 0.0
C167 C 0.01948 0.34947 0.25325 0.0
C168 C 0.03019 0.37413 0.18437 0.0
C169 C 0.06442 0.38627 0.14566 0.0
C170 C 0.03377 0.31277 0.35889 0.0
C171 C 0.0048 0.38617 0.14885 0.0
C172 C 0.92133 0.27672 0.28732 0.0
C173 C 0.91188 0.28933 0.36068 0.0
C174 C 0.95557 0.29714 0.24914 0.0
C175 C 0.98134 0.331 0.2855 0.0
C176 C 0.97161 0.34468 0.35758 0.0
C177 C 0.93679 0.3237 0.39423 0.0
C178 C 0.96464 0.28163 0.17185 0.0
C179 C -0.00157 0.3807 0.39793 0.0
H180 H 0.09591 0.342 0.26864 0.0
H181 H 0.07229 0.40429 0.09139 0.0
H182 H 0.02439 0.32266 0.41369 0.0
H183 H 0.01086 0.28561 0.34017 0.0
H184 H 0.05695 0.30937 0.37994 0.0
H185 H 0.01894 0.40915 0.10372 0.0
H186 H 0.98198 0.36299 0.11475 0.0
H187 H 0.99269 0.39457 0.20092 0.0
H188 H 0.90194 0.25056 0.25965 0.0
H189 H 0.92951 0.33373 0.45038 0.0
H190 H 0.98596 0.27472 0.18859 0.0
H191 H 0.97579 0.3021 0.12032 0.0
H192 H 0.94046 0.25663 0.1469 0.0
H193 H 0.02059 0.37821 0.42912 0.0
H194 H 0.98528 0.38965 0.44648 0.0
H195 H 0.01131 0.40214 0.34882 0.0
C196 C 0.67694 0.0588 0.43679 0.0
C197 C 0.70751 0.08444 0.48268 0.0
C198 C 0.65826 0.02201 0.4609 0.0
C199 C 0.67022 0.01104 0.53315 0.0
C200 C 0.69967 0.03732 0.58251 0.0
C201 C 0.71812 0.07365 0.55628 0.0
C202 C 0.62707 0.99462 0.40655 0.0
C203 C 0.71286 0.02683 0.66083 0.0
C204 C 0.61156 0.91815 0.63248 0.0
C205 C 0.62826 0.89893 0.60076 0.0
C206 C 0.62439 0.95454 0.60967 0.0
C207 C 0.65433 0.97186 0.55321 0.0
C208 C 0.67074 0.95235 0.51945 0.0
C209 C 0.65764 0.91619 0.54401 0.0
C210 C 0.60653 0.9747 0.64753 0.0
C211 C 0.70256 0.96985 0.45841 0.0
H212 H 0.66877 0.06714 0.37982 0.0
H213 H 0.74145 0.0936 0.59264 0.0
H214 H 0.63533 0.97653 0.37373 0.0
H215 H 0.60302 0.97708 0.44666 0.0
H216 H 0.61882 0.00795 0.35772 0.0
H217 H 0.73363 0.05103 0.69673 0.0
H218 H 0.68962 0.01015 0.70388 0.0
H219 H 0.72515 0.00997 0.64192 0.0
H220 H 0.58883 0.90499 0.67636 0.0
H221 H 0.6704 0.9014 0.51834 0.0
H222 H 0.59795 0.98672 0.59635 0.0
H223 H 0.62648 -0.00244 0.688 0.0
H224 H 0.58229 0.95675 0.68688 0.0
H225 H 0.69549 0.98144 0.40347 0.0
H226 H 0.71077 0.95026 0.43406 0.0
H227 H 0.7264 0.99268 0.49072 0.0
C228 C 0.58907 0.66127 0.73744 0.0
C229 C 0.61183 0.68299 0.67172 0.0
C230 C 0.60064 0.64327 0.79286 0.0
C231 C 0.63523 0.64631 0.78011 0.0
C232 C 0.65681 0.66559 0.70905 0.0
C233 C 0.64516 0.68441 0.6566 0.0
C234 C 0.57728 0.62376 0.86897 0.0
C235 C 0.69328 0.6683 0.69156 0.0
C236 C 0.69418 0.64711 0.96104 0.0
C237 C 0.68966 0.61213 0.9543 0.0
C238 C 0.67448 0.65769 0.90838 0.0
C239 C 0.65087 0.63307 0.84557 0.0
C240 C 0.64503 0.59715 0.84111 0.0
C241 C 0.66417 0.58692 0.89662 0.0
C242 C 0.68041 0.69584 0.917 0.0
C243 C 0.62083 0.57047 0.77371 0.0
H244 H 0.56354 0.66078 0.74978 0.0
H245 H 0.66267 0.70136 0.60573 0.0
H246 H 0.5756 0.59701 0.87796 0.0
H247 H 0.58993 0.64033 0.92714 0.0
H248 H 0.54915 0.61937 0.86302 0.0
H249 H 0.7042 0.68006 0.62798 0.0
H250 H 0.71333 0.6859 0.74052 0.0
H251 H 0.69089 0.64101 0.69512 0.0
H252 H 0.71394 0.6665 0.00575 0.0
H253 H 0.66117 0.56 0.89055 0.0
H254 H 0.6538 0.69512 0.92011 0.0
H255 H 0.69522 0.71206 0.8604 0.0
H256 H 0.69653 0.71006 0.97464 0.0
H257 H 0.59432 0.56985 0.77004 0.0
H258 H 0.61554 0.5424 0.78567 0.0
H259 H 0.63426 0.57933 0.7107 0.0
C260 C 0.06374 0.67397 0.20451 0.0
C261 C 0.08847 0.70461 0.15817 0.0
C262 C 0.02692 0.65372 0.17981 0.0
C263 C 0.01506 0.66423 0.10663 0.0
C264 C 0.0406 0.69357 0.05645 0.0
C265 C 0.07694 0.71355 0.0832 0.0
C266 C 0.00037 0.62263 0.23491 0.0
C267 C 0.02919 0.70528 0.97718 0.0
C268 C 0.92171 0.60458 0.00774 0.0
C269 C 0.90258 0.62159 0.03822 0.0
C270 C 0.95814 0.61739 0.03146 0.0
C271 C 0.97558 0.64763 0.08747 0.0
C272 C 0.95602 0.66409 0.12063 0.0
C273 C 0.91984 0.651 0.09527 0.0
C274 C 0.97831 0.5994 -0.00557 0.0
C275 C 0.97361 0.69624 0.18119 0.0
H276 H 0.07268 0.66706 0.26246 0.0
H277 H 0.09624 0.73691 0.04645 0.0
H278 H 0.98239 0.63072 0.2689 0.0
H279 H 0.98258 0.59834 0.19536 0.0
H280 H 0.01454 0.61494 0.28285 0.0
H281 H 0.05303 0.72581 0.94032 0.0
H282 H 0.01252 0.68143 0.93535 0.0
H283 H 0.01202 0.71734 -0.00483 0.0
H284 H 0.90851 0.58179 0.96372 0.0
H285 H 0.9051 0.66396 0.12013 0.0
H286 H 0.99154 0.59225 0.04574 0.0
H287 H 0.0003 0.61872 0.95159 0.0
H288 H 0.96001 0.57431 0.95762 0.0
H289 H 0.98583 0.68979 0.23597 0.0
H290 H 0.95386 0.7042 0.20584 0.0
H291 H 0.99602 0.72002 0.14825 0.0
C292 C 0.37077 0.05779 0.55095 0.0
C293 C 0.36067 0.08286 0.52276 0.0
C294 C 0.35978 0.02504 0.50586 0.0
C295 C 0.33878 0.01772 0.43059 0.0
C296 C 0.33027 0.0439 0.39977 0.0
C297 C 0.34112 0.07595 0.44639 0.0
C298 C 0.36918 -0.00237 0.54071 0.0
C299 C 0.30824 0.03739 0.31943 0.0
C300 C 0.31972 0.94077 0.27513 0.0
C301 C 0.28388 0.91488 0.29784 0.0
C302 C 0.33878 0.97402 0.31994 0.0
C303 C 0.32164 0.98119 0.38927 0.0
C304 C 0.28603 0.95457 0.41422 0.0
C305 C 0.26761 0.92195 0.36813 0.0
C306 C 0.37674 0.0019 0.29161 0.0
C307 C 0.26678 0.96094 0.4881 0.0
H308 H 0.38617 0.06321 0.60949 0.0
H309 H 0.334 0.09565 0.42296 0.0
H310 H 0.34404 0.97364 0.56494 0.0
H311 H 0.3804 0.98773 0.48973 0.0
H312 H 0.38931 0.00916 0.59349 0.0
H313 H 0.30688 0.06187 0.30016 0.0
H314 H 0.3202 0.02936 0.2663 0.0
H315 H 0.27997 0.01466 0.32946 0.0
H316 H 0.3326 0.93534 0.22155 0.0
H317 H 0.24023 0.90184 0.38767 0.0
H318 H 0.39569 0.01168 0.34668 0.0
H319 H 0.37633 0.0259 0.26501 0.0
H320 H 0.38761 0.99084 0.24237 0.0
H321 H 0.28418 0.96896 0.54584 0.0
H322 H 0.24017 0.93642 0.50301 0.0
H323 H 0.26178 0.98366 0.47305 0.0
C324 C 0.17216 0.34536 0.78243 0.0
C325 C 0.16829 0.37484 0.81082 0.0
C326 C 0.1766 0.34041 0.6954 0.0
C327 C 0.17677 0.36526 0.63536 0.0
C328 C 0.17026 0.39345 0.66313 0.0
C329 C 0.16635 0.39803 0.75038 0.0
C330 C 0.18239 0.30939 0.6679 0.0
C331 C 0.16923 0.41995 0.601 0.0
C332 C 0.23322 0.38978 0.43295 0.0
C333 C 0.2064 0.37158 0.37051 0.0
C334 C 0.22412 0.3861 0.51975 0.0
C335 C 0.18716 0.36425 0.54488 0.0
C336 C 0.16022 0.34432 0.48247 0.0
C337 C 0.1702 0.34807 0.39605 0.0
C338 C 0.25388 0.40705 0.58434 0.0
C339 C 0.12044 0.32104 0.50569 0.0
H340 H 0.1737 0.32726 0.82851 0.0
H341 H 0.16299 0.42064 0.77151 0.0
H342 H 0.15973 0.29055 0.62554 0.0
H343 H 0.20805 0.31993 0.63073 0.0
H344 H 0.18366 0.2937 0.7228 0.0
H345 H 0.16053 0.43815 0.63163 0.0
H346 H 0.19677 0.4371 0.57309 0.0
H347 H 0.15023 0.40496 0.54793 0.0
H348 H 0.26126 0.4078 0.41377 0.0
H349 H 0.14919 0.33419 0.34824 0.0
H350 H 0.25242 0.38874 0.63618 0.0
H351 H 0.24997 0.42883 0.61361 0.0
H352 H 0.28156 0.41986 0.5555 0.0
H353 H 0.11693 0.3073 0.5676 0.0
H354 H 0.10523 0.3 0.45613 0.0
H355 H 0.10798 0.33868 0.51128 0.0
C356 C 0.75948 0.16308 0.08379 0.0
C357 C 0.78678 0.17156 0.1446 0.0
C358 C 0.76765 0.16689 -0.00326 0.0
C359 C 0.80413 0.17998 0.96996 0.0
C360 C 0.83135 0.18622 0.03068 0.0
C361 C 0.82229 0.18174 0.11754 0.0
C362 C 0.73768 0.15934 0.9339 0.0
C363 C 0.87055 0.20027 0.00472 0.0
C364 C 0.81574 0.17588 0.73129 0.0
C365 C 0.82126 0.21007 0.7066 0.0
C366 C 0.81198 0.16616 0.8175 0.0
C367 C 0.81415 0.19139 0.88015 0.0
C368 C 0.82211 0.22676 0.85581 0.0
C369 C 0.82535 0.23559 0.76932 0.0
C370 C 0.80344 0.1282 0.84098 0.0
C371 C 0.82512 0.25465 0.92082 0.0
H372 H 0.73193 0.15484 0.10448 0.0
H373 H 0.84356 0.18855 0.16435 0.0
H374 H 0.74234 0.18544 0.90667 0.0
H375 H 0.73794 0.14219 0.88043 0.0
H376 H 0.7102 0.1454 0.96391 0.0
H377 H 0.88672 0.19739 0.05655 0.0
H378 H 0.87213 0.18568 0.94731 0.0
H379 H 0.88332 0.22959 0.98861 0.0
H380 H 0.81238 0.15594 0.68311 0.0
H381 H 0.83001 0.26218 0.75068 0.0
H382 H 0.7745 0.1121 0.86145 0.0
H383 H 0.82062 0.12911 0.89518 0.0
H384 H 0.80771 0.11373 0.78669 0.0
H385 H 0.79799 0.2455 0.95017 0.0
H386 H 0.83486 0.2819 0.89227 0.0
H387 H 0.84413 0.25738 0.97254 0.0
C388 C 0.60257 0.75071 0.27911 0.0
C389 C 0.62425 0.77601 0.34168 0.0
C390 C 0.61116 0.75777 0.19297 0.0
C391 C 0.64227 0.7909 0.16895 0.0
C392 C 0.66614 0.815 0.23176 0.0
C393 C 0.65674 0.80735 0.31779 0.0
C394 C 0.58518 0.7311 0.12764 0.0
C395 C 0.70009 0.85006 0.20828 0.0
C396 C 0.65457 0.79293 0.93128 0.0
C397 C 0.63198 0.80678 0.90691 0.0
C398 C 0.66154 0.79081 0.01761 0.0
C399 C 0.64534 0.80269 0.07969 0.0
C400 C 0.62576 0.82015 0.05466 0.0
C401 C 0.61932 0.82195 0.96838 0.0
C402 C 0.68342 0.77299 0.04209 0.0
C403 C 0.60845 0.83368 0.119 0.0
H404 H 0.57789 0.726 0.29706 0.0
H405 H 0.67406 0.82676 0.36585 0.0
H406 H 0.57083 0.74341 0.09451 0.0
H407 H 0.60039 0.72487 0.0789 0.0
H408 H 0.56434 0.7051 0.15677 0.0
H409 H 0.71992 0.86082 0.26175 0.0
H410 H 0.71364 0.84616 0.15173 0.0
H411 H 0.69251 0.8709 0.19215 0.0
H412 H 0.66475 0.78152 0.88363 0.0
H413 H 0.60263 0.83355 0.94931 0.0
H414 H 0.66452 0.74372 0.05514 0.0
H415 H 0.69967 0.78557 0.10054 0.0
H416 H 0.70215 0.77488 0.98999 0.0
H417 H 0.58538 0.81002 0.15079 0.0
H418 H 0.5978 0.85022 0.08912 0.0
H419 H 0.62842 0.85043 0.16889 0.0
C420 C 0.82884 0.61533 0.66367 0.0
C421 C 0.81385 0.6283 0.72486 0.0
C422 C 0.82686 0.62145 0.57726 0.0
C423 C 0.80931 0.64088 0.55185 0.0
C424 C 0.7975 0.65726 0.61365 0.0
C425 C 0.79994 0.65077 0.70006 0.0
C426 C 0.84028 0.60395 0.51317 0.0
C427 C 0.77939 0.6788 0.58854 0.0
C428 C 0.81292 0.65261 0.31377 0.0
C429 C 0.78126 0.62038 0.28936 0.0
C430 C 0.82119 0.66161 0.39998 0.0
C431 C 0.79736 0.63762 0.46247 0.0
C432 C 0.76404 0.60662 0.43812 0.0
C433 C 0.75637 0.59844 0.35182 0.0
C434 C 0.85657 0.69531 0.42374 0.0
C435 C 0.73773 0.58042 0.50309 0.0
H436 H 0.84039 0.59866 0.68307 0.0
H437 H 0.78861 0.66111 0.74748 0.0
H438 H 0.81652 0.58067 0.48169 0.0
H439 H 0.85677 0.62364 0.463 0.0
H440 H 0.8571 0.59363 0.54323 0.0
H441 H 0.77848 0.69553 0.64236 0.0
H442 H 0.79388 0.69695 0.53421 0.0
H443 H 0.75096 0.65977 0.56789 0.0
H444 H 0.83208 0.67005 0.26586 0.0
H445 H 0.73148 0.57389 0.33355 0.0
H446 H 0.8775 0.68755 0.43781 0.0
H447 H 0.85325 0.70862 0.48154 0.0
H448 H 0.86697 0.71536 0.3711 0.0
H449 H 0.75035 0.5661 0.535 0.0
H450 H 0.71157 0.55962 0.47388 0.0
H451 H 0.73165 0.59537 0.55286 0.0
C452 C 0.16933 0.76091 0.5608 0.0
C453 C 0.17385 0.78682 0.49983 0.0
C454 C 0.17287 0.76945 0.64783 0.0
C455 C 0.1816 0.80494 0.67458 0.0
C456 C 0.18396 0.83052 0.61375 0.0
C457 C 0.1799 0.82109 0.52692 0.0
C458 C 0.16955 0.74115 0.71073 0.0
C459 C 0.19335 0.86868 0.63938 0.0
C460 C 0.17493 0.81521 0.91318 0.0
C461 C 0.2105 0.8252 0.93912 0.0
C462 C 0.16538 0.81034 0.82658 0.0
C463 C 0.19215 0.81601 0.76476 0.0
C464 C 0.22865 0.82858 0.79037 0.0
C465 C 0.23732 0.83277 0.87724 0.0
C466 C 0.12621 0.79698 0.80174 0.0
C467 C 0.25816 0.83558 0.72629 0.0
H468 H 0.16433 0.73428 0.54024 0.0
H469 H 0.18371 0.84137 0.4801 0.0
H470 H 0.19676 0.7496 0.73856 0.0
H471 H 0.15111 0.73882 0.76379 0.0
H472 H 0.15897 0.71385 0.68068 0.0
H473 H 0.1861 0.88215 0.58882 0.0
H474 H 0.17919 0.86861 0.69906 0.0
H475 H 0.22318 0.88524 0.65106 0.0
H476 H 0.154 0.80915 0.96066 0.0
H477 H 0.26493 0.84086 0.89685 0.0
H478 H 0.11352 0.76831 0.77914 0.0
H479 H 0.12491 0.81337 0.74858 0.0
H480 H 0.10981 0.79817 0.85586 0.0
H481 H 0.25259 0.80941 0.6966 0.0
H482 H 0.28573 0.84862 0.75574 0.0
H483 H 0.25832 0.85339 0.67469 0.0
C484 C 0.38047 0.2307 0.26965 0.0
C485 C 0.36003 0.20395 0.33021 0.0
C486 C 0.37686 0.22237 0.1823 0.0
C487 C 0.3525 0.18628 0.15459 0.0
C488 C 0.33018 0.15967 0.21488 0.0
C489 C 0.33412 0.16883 0.30198 0.0
C490 C 0.40063 0.2518 0.12006 0.0
C491 C 0.30372 0.12096 0.18799 0.0
C492 C 0.33568 0.17365 0.91552 0.0
C493 C 0.3628 0.16568 0.88941 0.0
C494 C 0.33085 0.179 0.00204 0.0
C495 C 0.35338 0.17586 0.06396 0.0
C496 C 0.37924 0.16562 0.03827 0.0
C497 C 0.38384 0.16097 0.95139 0.0
C498 C 0.30323 0.19025 0.02628 0.0
C499 C 0.40344 0.16141 0.10226 0.0
H500 H 0.40031 0.25798 0.29072 0.0
H501 H 0.31831 0.14788 0.34817 0.0
H502 H 0.42089 0.24541 0.09157 0.0
H503 H 0.38384 0.25294 0.06737 0.0
H504 H 0.41559 0.27914 0.15078 0.0
H505 H 0.28469 0.10508 0.24014 0.0
H506 H 0.28751 0.12051 0.13217 0.0
H507 H 0.31918 0.1072 0.1687 0.0
H508 H 0.31961 0.17784 0.86803 0.0
H509 H 0.40476 0.15471 0.93173 0.0
H510 H 0.31767 0.21986 0.0413 0.0
H511 H 0.28777 0.17561 0.08388 0.0
H512 H 0.28358 0.18504 0.97393 0.0
H513 H 0.42232 0.1883 0.13151 0.0
H514 H 0.41994 0.15038 0.07289 0.0
H515 H 0.3867 0.14296 0.15421 0.0
C516 C 0.2773 0.56075 0.1413 0.0
C517 C 0.24958 0.53606 0.19529 0.0
C518 C 0.28154 0.59522 0.12529 0.0
C519 C 0.25842 0.60572 0.16702 0.0
C520 C 0.23288 0.58223 0.22816 0.0
C521 C 0.22806 0.54722 0.23985 0.0
C522 C 0.30836 0.61875 0.05793 0.0
C523 C 0.20912 0.59321 0.27757 0.0
C524 C 0.27835 0.70364 0.16615 0.0
C525 C 0.24979 0.70066 0.1152 0.0
C526 C 0.28246 0.67327 0.18146 0.0
C527 C 0.25841 0.63956 0.14183 0.0
C528 C 0.23185 0.63745 0.08353 0.0
C529 C 0.22718 0.6678 0.07273 0.0
C530 C 0.31028 0.67659 0.24609 0.0
C531 C 0.20694 0.60251 0.0364 0.0
H532 H 0.29351 0.55189 0.10544 0.0
H533 H 0.20644 0.52801 0.28097 0.0
H534 H 0.29314 0.617 -0.00094 0.0
H535 H 0.32349 0.64778 0.07789 0.0
H536 H 0.32836 0.60975 0.04267 0.0
H537 H 0.1949 0.57446 0.33128 0.0
H538 H 0.22574 0.62135 0.30314 0.0
H539 H 0.18819 0.59297 0.23474 0.0
H540 H 0.29545 0.72886 0.2004 0.0
H541 H 0.20491 0.66543 0.03395 0.0
H542 H 0.32528 0.66282 0.22365 0.0
H543 H 0.29599 0.66309 0.3058 0.0
H544 H 0.3303 0.70552 0.26073 0.0
H545 H 0.22286 0.59046 0.00903 0.0
H546 H 0.19189 0.60689 0.98428 0.0
H547 H 0.18671 0.5824 0.08124 0.0
C548 C 0.68954 0.26617 0.4782 0.0
C549 C 0.68955 0.23874 0.52761 0.0
C550 C 0.65801 0.26909 0.47059 0.0
C551 C 0.62615 0.24476 0.51601 0.0
C552 C 0.62696 0.21874 0.57101 0.0
C553 C 0.6584 0.21539 0.57438 0.0
C554 C 0.65809 0.29622 0.40871 0.0
C555 C 0.59414 0.19344 0.62372 0.0
C556 C 0.5487 0.26497 0.545 0.0
C557 C 0.52138 0.23777 0.49405 0.0
C558 C 0.58327 0.26814 0.55173 0.0
C559 C 0.5913 0.24483 0.5026 0.0
C560 C 0.56477 0.2195 0.44515 0.0
C561 C 0.52969 0.21551 0.44346 0.0
C562 C 0.61009 0.2945 0.61603 0.0
C563 C 0.57282 0.19533 0.38868 0.0
H564 H 0.71338 0.28363 0.4402 0.0
H565 H 0.65835 0.19393 0.61171 0.0
H566 H 0.64216 0.28141 0.35139 0.0
H567 H 0.64489 0.31091 0.43662 0.0
H568 H 0.68619 0.31654 0.38841 0.0
H569 H 0.60078 0.17835 0.67128 0.0
H570 H 0.58313 0.20903 0.65759 0.0
H571 H 0.57223 0.17332 0.58157 0.0
H572 H 0.54204 0.28172 0.58536 0.0
H573 H 0.5084 0.19421 0.40488 0.0
H574 H 0.63585 0.31421 0.58407 0.0
H575 H 0.61699 0.27946 0.66308 0.0
H576 H 0.59907 0.3099 0.65079 0.0
H577 H 0.59964 0.2116 0.35674 0.0
H578 H 0.55145 0.18114 0.33934 0.0
H579 H 0.57436 0.17444 0.42779 0.0
C580 C 0.34553 0.52413 0.9477 0.0
C581 C 0.31011 0.51917 0.94361 0.0
C582 C 0.37564 0.55582 0.91685 0.0
C583 C 0.37028 0.58309 0.87971 0.0
C584 C 0.33468 0.57821 0.87411 0.0
C585 C 0.30497 0.54633 0.90649 0.0
C586 C 0.41328 0.56016 0.92418 0.0
C587 C 0.32804 0.60668 0.83398 0.0
C588 C 0.45437 0.67661 0.85072 0.0
C589 C 0.46389 0.67403 0.76641 0.0
C590 C 0.42359 0.64736 0.88869 0.0
C591 C 0.40174 0.6152 0.8406 0.0
C592 C 0.411 0.61269 0.75538 0.0
C593 C 0.44193 0.64194 0.71962 0.0
C594 C 0.41435 0.65105 0.97979 0.0
C595 C 0.38843 0.57886 0.70196 0.0
H596 H 0.34999 0.50354 0.97674 0.0
H597 H 0.27783 0.54299 0.90386 0.0
H598 H 0.42498 0.56201 0.85983 0.0
H599 H 0.43178 0.58586 0.95858 0.0
H600 H 0.41297 0.5371 0.95821 0.0
H601 H 0.2988 0.59909 0.83608 0.0
H602 H 0.34438 0.63321 0.86727 0.0
H603 H 0.33712 0.61067 0.76661 0.0
H604 H 0.47095 0.70135 0.88707 0.0
H605 H 0.44869 0.63955 0.65416 0.0
H606 H 0.40748 0.62611 0.01636 0.0
H607 H 0.39005 0.6546 0.9809 0.0
H608 H 0.43714 0.67491 0.01237 0.0
H609 H 0.38898 0.55525 0.73049 0.0
H610 H 0.39847 0.58196 0.6354 0.0
H611 H 0.35951 0.57229 0.70066 0.0
C612 C 0.80137 0.34194 0.2733 0.0
C613 C 0.77047 0.30699 0.27721 0.0
C614 C 0.79874 0.37174 0.24487 0.0
C615 C 0.76447 0.36643 0.2185 0.0
C616 C 0.73333 0.33113 0.21956 0.0
C617 C 0.73667 0.30174 0.24918 0.0
C618 C 0.83263 0.40901 0.24396 0.0
C619 C 0.69653 0.32451 0.1901 0.0
C620 C 0.756 0.45155 0.20912 0.0
C621 C 0.76441 0.46112 0.12351 0.0
C622 C 0.75502 0.42014 0.24099 0.0
C623 C 0.76204 0.39777 0.1854 0.0
C624 C 0.76947 0.40678 0.0986 0.0
C625 C 0.77079 0.43839 0.06893 0.0
C626 C 0.74719 0.41123 0.33419 0.0
C627 C 0.77677 0.38343 0.03719 0.0
H628 H 0.82765 0.3463 0.29452 0.0
H629 H 0.71261 0.27491 0.25265 0.0
H630 H 0.8386 0.41961 0.17805 0.0
H631 H 0.82809 0.42842 0.28282 0.0
H632 H 0.85698 0.40863 0.26904 0.0
H633 H 0.67493 0.29546 0.19585 0.0
H634 H 0.6883 0.34147 0.22802 0.0
H635 H 0.69819 0.33276 0.12267 0.0
H636 H 0.75076 0.46884 0.25129 0.0
H637 H 0.77656 0.44508 0.00214 0.0
H638 H 0.7707 0.41091 0.36457 0.0
H639 H 0.7231 0.38361 0.34153 0.0
H640 H 0.74189 0.43115 0.36871 0.0
H641 H 0.8023 0.3838 0.05543 0.0
H642 H 0.77958 0.39294 0.97047 0.0
H643 H 0.75432 0.35469 0.03996 0.0
C644 C 0.31025 0.74779 0.3978 0.0
C645 C 0.31546 0.77938 0.35688 0.0
C646 C 0.3402 0.74438 0.42333 0.0
C647 C 0.37605 0.77306 0.40672 0.0
C648 C 0.3815 0.80491 0.3655 0.0
C649 C 0.3512 0.80785 0.34188 0.0
C650 C 0.33358 0.71012 0.4677 0.0
C651 C 0.41939 0.8358 0.34569 0.0
C652 C 0.45245 0.78478 0.55024 0.0
C653 C 0.46944 0.76936 0.50162 0.0
C654 C 0.42186 0.78562 0.52017 0.0
C655 C 0.40806 0.77127 0.43861 0.0
C656 C 0.42544 0.75647 0.38788 0.0
C657 C 0.45579 0.75532 0.42048 0.0
C658 C 0.40414 0.80166 0.57625 0.0
C659 C 0.41167 0.74088 0.30031 0.0
H660 H 0.28279 0.72549 0.40876 0.0
H661 H 0.35569 0.83223 0.30938 0.0
H662 H 0.34755 0.69763 0.4328 0.0
H663 H 0.34534 0.71694 0.53274 0.0
H664 H 0.30405 0.68967 0.47258 0.0
H665 H 0.4189 0.85809 0.30993 0.0
H666 H 0.43485 0.84734 0.4056 0.0
H667 H 0.43451 0.82541 0.30755 0.0
H668 H 0.46255 0.79569 0.61323 0.0
H669 H 0.46854 0.74317 0.3827 0.0
H670 H 0.37501 0.78115 0.58705 0.0
H671 H 0.40487 0.82529 0.54429 0.0
H672 H 0.41782 0.8109 0.63906 0.0
H673 H 0.38985 0.71201 0.30668 0.0
H674 H 0.43373 0.74142 0.26043 0.0
H675 H 0.40012 0.7558 0.26673 0.0
C676 C 0.68153 0.44372 0.79406 0.0
C677 C 0.67649 0.46483 0.85603 0.0
C678 C 0.65162 0.41128 0.76325 0.0
C679 C 0.61625 0.39979 0.79624 0.0
C680 C 0.611 0.42179 0.85634 0.0
C681 C 0.64106 0.45415 0.88463 0.0
C682 C 0.65806 0.38889 0.69756 0.0
C683 C 0.57369 0.41078 0.89252 0.0
C684 C 0.52777 0.33665 0.68591 0.0
C685 C 0.5153 0.30434 0.73222 0.0
C686 C 0.56202 0.36701 0.70162 0.0
C687 C 0.584 0.36549 0.76703 0.0
C688 C 0.57222 0.3326 0.81225 0.0
C689 C 0.53806 0.30207 0.7933 0.0
C690 C 0.57405 0.40119 0.6503 0.0
C691 C 0.59499 0.3302 0.88283 0.0
H692 H 0.70887 0.45177 0.77208 0.0
H693 H 0.63685 0.47061 0.93163 0.0
H694 H 0.65484 0.36385 0.72767 0.0
H695 H 0.63769 0.38032 0.6455 0.0
H696 H 0.68589 0.40406 0.66961 0.0
H697 H 0.57457 0.43057 0.9407 0.0
H698 H 0.5549 0.40855 0.84075 0.0
H699 H 0.56192 0.3836 0.92269 0.0
H700 H 0.51085 0.33811 0.63616 0.0
H701 H 0.52875 0.27684 0.82764 0.0
H702 H 0.60248 0.41206 0.6274 0.0
H703 H 0.57364 0.42251 0.69109 0.0
H704 H 0.55606 0.39634 0.59453 0.0
H705 H 0.62317 0.33956 0.86002 0.0
H706 H 0.58328 0.30204 0.90754 0.0
H707 H 0.59694 0.34848 0.9361 0.0
loop_
_geom_bond_atom_site_label_1
_geom_bond_atom_site_label_2
_geom_bond_distance
_geom_bond_site_symmetry_2
_ccdc_geom_bond_type
Sc0 O3 2.025 . S
Sc0 O10 2.105 1_554 S
Sc0 O13 2.105 . S
Sc0 O16 2.105 . S
Sc0 O19 2.105 1_554 S
Sc1 O3 2.025 . S
Sc1 O11 2.105 . S
Sc1 O15 2.105 . S
Sc1 O17 2.105 . S
Sc1 O21 2.105 1_554 S
Sc2 O3 2.025 1_556 S
Sc2 O12 2.105 . S
Sc2 O14 2.105 . S
Sc2 O18 2.105 1_556 S
Sc2 O20 2.105 . S
O3 Sc0 2.025 . S
O3 Sc1 2.025 . S
O3 Sc2 2.025 1_554 S
C4 O10 1.268 . S
C4 O20 1.268 . S
C5 O11 1.268 1_556 S
C5 O19 1.268 . S
C6 O12 1.268 . S
C6 O21 1.268 . S
C7 O13 1.268 . S
C7 O17 1.268 . S
C8 O14 1.268 1_554 S
C8 O16 1.268 . S
C9 O15 1.268 . S
C9 O18 1.268 . S
O10 Sc0 2.105 1_556 S
O10 C4 1.268 . S
O11 Sc1 2.105 . S
O11 C5 1.268 1_554 S
O12 Sc2 2.105 . S
O12 C6 1.268 . S
O13 Sc0 2.105 . S
O13 C7 1.268 . S
O14 Sc2 2.105 . S
O14 C8 1.268 1_556 S
O15 Sc1 2.105 . S
O15 C9 1.268 . S
O16 Sc0 2.105 . S
O16 C8 1.268 . S
O17 Sc1 2.105 . S
O17 C7 1.268 . S
O18 Sc2 2.105 1_554 S
O18 C9 1.268 . S
O19 Sc0 2.105 1_556 S
O19 C5 1.268 . S
O20 Sc2 2.105 . S
O20 C4 1.268 . S
O21 Sc1 2.105 1_556 S
O21 C6 1.268 . S
Sc22 O25 2.025 . S
Sc22 O32 2.105 . S
Sc22 O35 2.105 . S
Sc22 O38 2.105 . S
Sc22 O41 2.105 . S
Sc23 O25 2.025 . S
Sc23 O33 2.105 . S
Sc23 O37 2.105 . S
Sc23 O39 2.105 . S
Sc23 O43 2.105 . S
Sc24 O25 2.025 . S
Sc24 O34 2.105 . S
Sc24 O36 2.105 . S
Sc24 O40 2.105 . S
Sc24 O42 2.105 . S
O25 Sc22 2.025 . S
O25 Sc23 2.025 . S
O25 Sc24 2.025 . S
C26 O32 1.268 . S
C26 O42 1.268 . S
C27 O33 1.268 . S
C27 O41 1.268 . S
C28 O34 1.268 . S
C28 O43 1.268 . S
C29 O35 1.268 . S
C29 O39 1.268 . S
C30 O36 1.268 . S
C30 O38 1.268 . S
C31 O37 1.268 . S
C31 O40 1.268 . S
O32 Sc22 2.105 . S
O32 C26 1.268 . S
O33 Sc23 2.105 . S
O33 C27 1.268 . S
O34 Sc24 2.105 . S
O34 C28 1.268 . S
O35 Sc22 2.105 . S
O35 C29 1.268 . S
O36 Sc24 2.105 . S
O36 C30 1.268 . S
O37 Sc23 2.105 . S
O37 C31 1.268 . S
O38 Sc22 2.105 . S
O38 C30 1.268 . S
O39 Sc23 2.105 . S
O39 C29 1.268 . S
O40 Sc24 2.105 . S
O40 C31 1.268 . S
O41 Sc22 2.105 . S
O41 C27 1.268 . S
O42 Sc24 2.105 . S
O42 C26 1.268 . S
O43 Sc23 2.105 . S
O43 C28 1.268 . S
Sc44 O47 2.025 . S
Sc44 O54 2.105 . S
Sc44 O57 2.105 . S
Sc44 O60 2.105 . S
Sc44 O63 2.105 . S
Sc45 O47 2.025 . S
Sc45 O55 2.105 . S
Sc45 O59 2.105 . S
Sc45 O61 2.105 . S
Sc45 O65 2.105 . S
Sc46 O47 2.025 . S
Sc46 O56 2.105 . S
Sc46 O58 2.105 . S
Sc46 O62 2.105 . S
Sc46 O64 2.105 . S
O47 Sc44 2.025 . S
O47 Sc45 2.025 . S
O47 Sc46 2.025 . S
C48 O54 1.268 . S
C48 O64 1.268 . S
C49 O55 1.268 . S
C49 O63 1.268 . S
C50 O56 1.268 . S
C50 O65 1.268 . S
C51 O57 1.268 . S
C51 O61 1.268 . S
C52 O58 1.268 . S
C52 O60 1.268 . S
C53 O59 1.268 . S
C53 O62 1.268 . S
O54 Sc44 2.105 . S
O54 C48 1.268 . S
O55 Sc45 2.105 . S
O55 C49 1.268 . S
O56 Sc46 2.105 . S
O56 C50 1.268 . S
O57 Sc44 2.105 . S
O57 C51 1.268 . S
O58 Sc46 2.105 . S
O58 C52 1.268 . S
O59 Sc45 2.105 . S
O59 C53 1.268 . S
O60 Sc44 2.105 . S
O60 C52 1.268 . S
O61 Sc45 2.105 . S
O61 C51 1.268 . S
O62 Sc46 2.105 . S
O62 C53 1.268 . S
O63 Sc44 2.105 . S
O63 C49 1.268 . S
O64 Sc46 2.105 . S
O64 C48 1.268 . S
O65 Sc45 2.105 . S
O65 C50 1.268 . S
Sc66 O69 2.025 1_556 S
Sc66 O76 2.105 . S
Sc66 O79 2.105 . S
Sc66 O82 2.105 . S
Sc66 O85 2.105 1_556 S
Sc67 O69 2.025 . S
Sc67 O77 2.105 . S
Sc67 O81 2.105 . S
Sc67 O83 2.105 1_554 S
Sc67 O87 2.105 . S
Sc68 O69 2.025 . S
Sc68 O78 2.105 . S
Sc68 O80 2.105 1_554 S
Sc68 O84 2.105 1_554 S
Sc68 O86 2.105 . S
O69 Sc66 2.025 1_554 S
O69 Sc67 2.025 . S
O69 Sc68 2.025 . S
C70 O76 1.268 1_554 S
C70 O86 1.268 . S
C71 O77 1.268 . S
C71 O85 1.268 . S
C72 O78 1.268 . S
C72 O87 1.268 . S
C73 O79 1.268 . S
C73 O83 1.268 . S
C74 O80 1.268 . S
C74 O82 1.268 . S
C75 O81 1.268 1_556 S
C75 O84 1.268 . S
O76 Sc66 2.105 . S
O76 C70 1.268 1_556 S
O77 Sc67 2.105 . S
O77 C71 1.268 . S
O78 Sc68 2.105 . S
O78 C72 1.268 . S
O79 Sc66 2.105 . S
O79 C73 1.268 . S
O80 Sc68 2.105 1_556 S
O80 C74 1.268 . S
O81 Sc67 2.105 . S
O81 C75 1.268 1_554 S
O82 Sc66 2.105 . S
O82 C74 1.268 . S
O83 Sc67 2.105 1_556 S
O83 C73 1.268 . S
O84 Sc68 2.105 1_556 S
O84 C75 1.268 . S
O85 Sc66 2.105 1_554 S
O85 C71 1.268 . S
O86 Sc68 2.105 . S
O86 C70 1.268 . S
O87 Sc67 2.105 . S
O87 C72 1.268 . S
Sc88 O91 2.025 . S
Sc88 O98 2.105 . S
Sc88 O101 2.105 . S
Sc88 O104 2.105 . S
Sc88 O107 2.105 . S
Sc89 O91 2.025 . S
Sc89 O99 2.105 . S
Sc89 O103 2.105 . S
Sc89 O105 2.105 . S
Sc89 O109 2.105 . S
Sc90 O91 2.025 . S
Sc90 O100 2.105 . S
Sc90 O102 2.105 . S
Sc90 O106 2.105 . S
Sc90 O108 2.105 . S
O91 Sc88 2.025 . S
O91 Sc89 2.025 . S
O91 Sc90 2.025 . S
C92 O98 1.268 . S
C92 O108 1.268 . S
C93 O99 1.268 . S
C93 O107 1.268 . S
C94 O100 1.268 . S
C94 O109 1.268 . S
C95 O101 1.268 . S
C95 O105 1.268 . S
C96 O102 1.268 . S
C96 O104 1.268 . S
C97 O103 1.268 . S
C97 O106 1.268 . S
O98 Sc88 2.105 . S
O98 C92 1.268 . S
O99 Sc89 2.105 . S
O99 C93 1.268 . S
O100 Sc90 2.105 . S
O100 C94 1.268 . S
O101 Sc88 2.105 . S
O101 C95 1.268 . S
O102 Sc90 2.105 . S
O102 C96 1.268 . S
O103 Sc89 2.105 . S
O103 C97 1.268 . S
O104 Sc88 2.105 . S
O104 C96 1.268 . S
O105 Sc89 2.105 . S
O105 C95 1.268 . S
O106 Sc90 2.105 . S
O106 C97 1.268 . S
O107 Sc88 2.105 . S
O107 C93 1.268 . S
O108 Sc90 2.105 . S
O108 C92 1.268 . S
O109 Sc89 2.105 . S
O109 C94 1.268 . S
Sc110 O113 2.025 . S
Sc110 O120 2.105 . S
Sc110 O123 2.105 . S
Sc110 O126 2.105 . S
Sc110 O129 2.105 . S
Sc111 O113 2.025 . S
Sc111 O121 2.105 . S
Sc111 O125 2.105 . S
Sc111 O127 2.105 . S
Sc111 O131 2.105 . S
Sc112 O113 2.025 . S
Sc112 O122 2.105 . S
Sc112 O124 2.105 . S
Sc112 O128 2.105 . S
Sc112 O130 2.105 . S
O113 Sc110 2.025 . S
O113 Sc111 2.025 . S
O113 Sc112 2.025 . S
C114 O120 1.268 . S
C114 O130 1.268 . S
C115 O121 1.268 . S
C115 O129 1.268 . S
C116 O122 1.268 . S
C116 O131 1.268 . S
C117 O123 1.268 . S
C117 O127 1.268 . S
C118 O124 1.268 . S
C118 O126 1.268 . S
C119 O125 1.268 . S
C119 O128 1.268 . S
O120 Sc110 2.105 . S
O120 C114 1.268 . S
O121 Sc111 2.105 . S
O121 C115 1.268 . S
O122 Sc112 2.105 . S
O122 C116 1.268 . S
O123 Sc110 2.105 . S
O123 C117 1.268 . S
O124 Sc112 2.105 . S
O124 C118 1.268 . S
O125 Sc111 2.105 . S
O125 C119 1.268 . S
O126 Sc110 2.105 . S
O126 C118 1.268 . S
O127 Sc111 2.105 . S
O127 C117 1.268 . S
O128 Sc112 2.105 . S
O128 C119 1.268 . S
O129 Sc110 2.105 . S
O129 C115 1.268 . S
O130 Sc112 2.105 . S
O130 C114 1.268 . S
O131 Sc111 2.105 . S
O131 C116 1.268 . S
C132 C133 1.391 . S
C132 C134 1.394 . S
C132 H148 0.931 . S
C133 C132 1.391 . S
C133 C137 1.376 . S
C134 C132 1.394 . S
C134 C135 1.369 . S
C134 C138 1.531 . S
C135 C134 1.369 . S
C135 C136 1.410 . S
C135 C143 1.503 . S
C136 C135 1.410 . S
C136 C137 1.392 . S
C136 C139 1.511 . S
C137 C133 1.376 . S
C137 C136 1.392 . S
C137 H149 0.929 . S
C138 C134 1.531 . S
C138 H150 0.960 . S
C138 H151 0.962 . S
C138 H152 0.960 . S
C139 C136 1.511 . S
C139 H153 0.961 . S
C139 H154 0.961 . S
C139 H155 0.961 . S
C140 C141 1.370 . S
C140 C142 1.363 . S
C140 H156 0.931 . S
C141 C140 1.370 . S
C141 C145 1.408 1_556 S
C142 C140 1.363 . S
C142 C143 1.370 . S
C142 C146 1.524 . S
C143 C135 1.503 . S
C143 C142 1.370 . S
C143 C144 1.403 . S
C144 C143 1.403 . S
C144 C145 1.404 1_556 S
C144 C147 1.539 1_556 S
C145 C141 1.408 1_554 S
C145 C144 1.404 1_554 S
C145 H157 0.930 . S
C146 C142 1.524 . S
C146 H158 0.956 . S
C146 H159 0.961 . S
C146 H160 0.961 . S
C147 C144 1.539 1_554 S
C147 H161 0.958 . S
C147 H162 0.961 . S
C147 H163 0.960 1_554 S
H148 C132 0.931 . S
H149 C137 0.929 . S
H150 C138 0.960 . S
H151 C138 0.962 . S
H152 C138 0.960 . S
H153 C139 0.961 . S
H154 C139 0.961 . S
H155 C139 0.961 . S
H156 C140 0.931 . S
H157 C145 0.930 . S
H158 C146 0.956 . S
H159 C146 0.961 . S
H160 C146 0.961 . S
H161 C147 0.958 . S
H162 C147 0.961 . S
H163 C147 0.960 1_556 S
C164 C165 1.391 . S
C164 C166 1.394 . S
C164 H180 0.931 . S
C165 C164 1.391 . S
C165 C169 1.376 . S
C166 C164 1.394 . S
C166 C167 1.369 . S
C166 C170 1.531 . S
C167 C166 1.369 . S
C167 C168 1.410 . S
C167 C175 1.503 1_455 S
C168 C167 1.410 . S
C168 C169 1.392 . S
C168 C171 1.511 1_455 S
C169 C165 1.376 . S
C169 C168 1.392 . S
C169 H181 0.929 1_554 S
C170 C166 1.531 . S
C170 H182 0.960 . S
C170 H183 0.962 . S
C170 H184 0.960 . S
C171 C168 1.511 1_655 S
C171 H185 0.961 1_554 S
C171 H186 0.961 . S
C171 H187 0.961 . S
C172 C173 1.370 . S
C172 C174 1.363 . S
C172 H188 0.931 . S
C173 C172 1.370 . S
C173 C177 1.408 . S
C174 C172 1.363 . S
C174 C175 1.370 . S
C174 C178 1.524 . S
C175 C167 1.503 1_655 S
C175 C174 1.370 . S
C175 C176 1.403 . S
C176 C175 1.403 . S
C176 C177 1.404 . S
C176 C179 1.539 . S
C177 C173 1.408 . S
C177 C176 1.404 . S
C177 H189 0.930 . S
C178 C174 1.524 . S
C178 H190 0.949 1_655 S
C178 H191 0.961 . S
C178 H192 0.961 . S
C179 C176 1.539 . S
C179 H193 0.958 1_655 S
C179 H194 0.961 . S
C179 H195 0.960 1_655 S
H180 C164 0.931 . S
H181 C169 0.929 1_556 S
H182 C170 0.960 . S
H183 C170 0.962 . S
H184 C170 0.960 . S
H185 C171 0.961 1_556 S
H186 C171 0.961 . S
H187 C171 0.961 . S
H188 C172 0.931 . S
H189 C177 0.930 . S
H190 C178 0.949 1_455 S
H191 C178 0.961 . S
H192 C178 0.961 . S
H193 C179 0.958 1_455 S
H194 C179 0.961 . S
H195 C179 0.960 1_455 S
C196 C197 1.391 . S
C196 C198 1.394 . S
C196 H212 0.931 . S
C197 C196 1.391 . S
C197 C201 1.376 . S
C198 C196 1.394 . S
C198 C199 1.369 . S
C198 C202 1.531 1_545 S
C199 C198 1.369 . S
C199 C200 1.410 . S
C199 C207 1.503 1_545 S
C200 C199 1.410 . S
C200 C201 1.392 . S
C200 C203 1.511 . S
C201 C197 1.376 . S
C201 C200 1.392 . S
C201 H213 0.929 . S
C202 C198 1.531 1_565 S
C202 H214 0.960 . S
C202 H215 0.962 . S
C202 H216 0.960 . S
C203 C200 1.511 . S
C203 H217 0.961 . S
C203 H218 0.961 . S
C203 H219 0.961 . S
C204 C205 1.370 . S
C204 C206 1.363 . S
C204 H220 0.931 . S
C205 C204 1.370 . S
C205 C209 1.408 . S
C206 C204 1.363 . S
C206 C207 1.370 . S
C206 C210 1.524 1_565 S
C207 C199 1.503 1_565 S
C207 C206 1.370 . S
C207 C208 1.403 . S
C208 C207 1.403 . S
C208 C209 1.404 . S
C208 C211 1.539 . S
C209 C205 1.408 . S
C209 C208 1.404 . S
C209 H221 0.930 . S
C210 C206 1.524 1_545 S
C210 H222 0.956 . S
C210 H223 0.961 . S
C210 H224 0.961 1_545 S
C211 C208 1.539 . S
C211 H225 0.958 . S
C211 H226 0.961 . S
C211 H227 0.960 . S
H212 C196 0.931 . S
H213 C201 0.929 . S
H214 C202 0.960 . S
H215 C202 0.962 . S
H216 C202 0.960 . S
H217 C203 0.961 . S
H218 C203 0.961 . S
H219 C203 0.961 . S
H220 C204 0.931 . S
H221 C209 0.930 . S
H222 C210 0.956 . S
H223 C210 0.961 . S
H224 C210 0.961 1_565 S
H225 C211 0.958 . S
H226 C211 0.961 . S
H227 C211 0.960 . S
C228 C229 1.391 . S
C228 C230 1.394 . S
C228 H244 0.931 . S
C229 C228 1.391 . S
C229 C233 1.376 . S
C230 C228 1.394 . S
C230 C231 1.369 . S
C230 C234 1.531 . S
C231 C230 1.369 . S
C231 C232 1.410 . S
C231 C239 1.503 . S
C232 C231 1.410 . S
C232 C233 1.392 . S
C232 C235 1.511 . S
C233 C229 1.376 . S
C233 C232 1.392 . S
C233 H245 0.929 . S
C234 C230 1.531 . S
C234 H246 0.960 . S
C234 H247 0.962 . S
C234 H248 0.960 . S
C235 C232 1.511 . S
C235 H249 0.961 . S
C235 H250 0.961 . S
C235 H251 0.961 . S
C236 C237 1.370 . S
C236 C238 1.363 . S
C236 H252 0.931 1_556 S
C237 C236 1.370 . S
C237 C241 1.408 . S
C238 C236 1.363 . S
C238 C239 1.370 . S
C238 C242 1.524 . S
C239 C231 1.503 . S
C239 C238 1.370 . S
C239 C240 1.403 . S
C240 C239 1.403 . S
C240 C241 1.404 . S
C240 C243 1.539 . S
C241 C237 1.408 . S
C241 C240 1.404 . S
C241 H253 0.930 . S
C242 C238 1.524 . S
C242 H254 0.956 . S
C242 H255 0.961 . S
C242 H256 0.961 . S
C243 C240 1.539 . S
C243 H257 0.958 . S
C243 H258 0.961 . S
C243 H259 0.960 . S
H244 C228 0.931 . S
H245 C233 0.929 . S
H246 C234 0.960 . S
H247 C234 0.962 . S
H248 C234 0.960 . S
H249 C235 0.961 . S
H250 C235 0.961 . S
H251 C235 0.961 . S
H252 C236 0.931 1_554 S
H253 C241 0.930 . S
H254 C242 0.956 . S
H255 C242 0.961 . S
H256 C242 0.961 . S
H257 C243 0.958 . S
H258 C243 0.961 . S
H259 C243 0.960 . S
C260 C261 1.391 . S
C260 C262 1.394 . S
C260 H276 0.931 . S
C261 C260 1.391 . S
C261 C265 1.376 . S
C262 C260 1.394 . S
C262 C263 1.369 . S
C262 C266 1.531 . S
C263 C262 1.369 . S
C263 C264 1.410 . S
C263 C271 1.503 1_455 S
C264 C263 1.410 . S
C264 C265 1.392 . S
C264 C267 1.511 . S
C265 C261 1.376 . S
C265 C264 1.392 . S
C265 H277 0.929 . S
C266 C262 1.531 . S
C266 H278 0.960 1_455 S
C266 H279 0.962 1_455 S
C266 H280 0.960 . S
C267 C264 1.511 . S
C267 H281 0.961 . S
C267 H282 0.961 . S
C267 H283 0.961 . S
C268 C269 1.370 . S
C268 C270 1.363 . S
C268 H284 0.931 . S
C269 C268 1.370 . S
C269 C273 1.408 . S
C270 C268 1.363 . S
C270 C271 1.370 . S
C270 C274 1.524 . S
C271 C263 1.503 1_655 S
C271 C270 1.370 . S
C271 C272 1.403 . S
C272 C271 1.403 . S
C272 C273 1.404 . S
C272 C275 1.539 1_655 S
C273 C269 1.408 . S
C273 C272 1.404 . S
C273 H285 0.930 1_554 S
C274 C270 1.524 . S
C274 H286 0.956 . S
C274 H287 0.961 . S
C274 H288 0.961 . S
C275 C272 1.539 1_455 S
C275 H289 0.958 . S
C275 H290 0.961 1_554 S
C275 H291 0.960 . S
H276 C260 0.931 . S
H277 C265 0.929 . S
H278 C266 0.960 1_655 S
H279 C266 0.962 1_655 S
H280 C266 0.960 . S
H281 C267 0.961 . S
H282 C267 0.961 . S
H283 C267 0.961 . S
H284 C268 0.931 . S
H285 C273 0.930 1_556 S
H286 C274 0.956 . S
H287 C274 0.961 . S
H288 C274 0.961 . S
H289 C275 0.958 . S
H290 C275 0.961 1_556 S
H291 C275 0.960 . S
C292 C293 1.391 . S
C292 C294 1.394 . S
C292 H308 0.931 . S
C293 C292 1.391 . S
C293 C297 1.376 . S
C294 C292 1.394 . S
C294 C295 1.369 . S
C294 C298 1.531 1_545 S
C295 C294 1.369 . S
C295 C296 1.410 . S
C295 C303 1.503 1_545 S
C296 C295 1.410 . S
C296 C297 1.392 . S
C296 C299 1.511 . S
C297 C293 1.376 . S
C297 C296 1.392 . S
C297 H309 0.929 . S
C298 C294 1.531 1_565 S
C298 H310 0.960 . S
C298 H311 0.962 . S
C298 H312 0.960 . S
C299 C296 1.511 . S
C299 H313 0.961 . S
C299 H314 0.961 . S
C299 H315 0.961 . S
C300 C301 1.370 . S
C300 C302 1.363 . S
C300 H316 0.931 . S
C301 C300 1.370 . S
C301 C305 1.408 . S
C302 C300 1.363 . S
C302 C303 1.370 . S
C302 C306 1.524 1_565 S
C303 C295 1.503 1_565 S
C303 C302 1.370 . S
C303 C304 1.403 . S
C304 C303 1.403 . S
C304 C305 1.404 . S
C304 C307 1.539 . S
C305 C301 1.408 . S
C305 C304 1.404 . S
C305 H317 0.930 . S
C306 C302 1.524 1_545 S
C306 H318 0.956 . S
C306 H319 0.961 . S
C306 H320 0.961 . S
C307 C304 1.539 . S
C307 H321 0.958 . S
C307 H322 0.961 . S
C307 H323 0.960 . S
H308 C292 0.931 . S
H309 C297 0.929 . S
H310 C298 0.960 . S
H311 C298 0.962 . S
H312 C298 0.960 . S
H313 C299 0.961 . S
H314 C299 0.961 . S
H315 C299 0.961 . S
H316 C300 0.931 . S
H317 C305 0.930 . S
H318 C306 0.956 . S
H319 C306 0.961 . S
H320 C306 0.961 . S
H321 C307 0.958 . S
H322 C307 0.961 . S
H323 C307 0.960 . S
C324 C325 1.391 . S
C324 C326 1.394 . S
C324 H340 0.931 . S
C325 C324 1.391 . S
C325 C329 1.376 . S
C326 C324 1.394 . S
C326 C327 1.369 . S
C326 C330 1.531 . S
C327 C326 1.369 . S
C327 C328 1.410 . S
C327 C335 1.503 . S
C328 C327 1.410 . S
C328 C329 1.392 . S
C328 C331 1.511 . S
C329 C325 1.376 . S
C329 C328 1.392 . S
C329 H341 0.929 . S
C330 C326 1.531 . S
C330 H342 0.960 . S
C330 H343 0.962 . S
C330 H344 0.960 . S
C331 C328 1.511 . S
C331 H345 0.961 . S
C331 H346 0.961 . S
C331 H347 0.961 . S
C332 C333 1.370 . S
C332 C334 1.363 . S
C332 H348 0.931 . S
C333 C332 1.370 . S
C333 C337 1.408 . S
C334 C332 1.363 . S
C334 C335 1.370 . S
C334 C338 1.524 . S
C335 C327 1.503 . S
C335 C334 1.370 . S
C335 C336 1.403 . S
C336 C335 1.403 . S
C336 C337 1.404 . S
C336 C339 1.539 . S
C337 C333 1.408 . S
C337 C336 1.404 . S
C337 H349 0.930 . S
C338 C334 1.524 . S
C338 H350 0.956 . S
C338 H351 0.961 . S
C338 H352 0.961 . S
C339 C336 1.539 . S
C339 H353 0.958 . S
C339 H354 0.961 . S
C339 H355 0.960 . S
H340 C324 0.931 . S
H341 C329 0.929 . S
H342 C330 0.960 . S
H343 C330 0.962 . S
H344 C330 0.960 . S
H345 C331 0.961 . S
H346 C331 0.961 . S
H347 C331 0.961 . S
H348 C332 0.931 . S
H349 C337 0.930 . S
H350 C338 0.956 . S
H351 C338 0.961 . S
H352 C338 0.961 . S
H353 C339 0.958 . S
H354 C339 0.961 . S
H355 C339 0.960 . S
C356 C357 1.391 . S
C356 C358 1.394 1_554 S
C356 H372 0.931 . S
C357 C356 1.391 . S
C357 C361 1.376 . S
C358 C356 1.394 1_556 S
C358 C359 1.369 . S
C358 C362 1.531 . S
C359 C358 1.369 . S
C359 C360 1.410 . S
C359 C367 1.503 . S
C360 C359 1.410 . S
C360 C361 1.392 1_556 S
C360 C363 1.511 . S
C361 C357 1.376 . S
C361 C360 1.392 1_554 S
C361 H373 0.929 . S
C362 C358 1.531 . S
C362 H374 0.960 . S
C362 H375 0.962 . S
C362 H376 0.960 . S
C363 C360 1.511 . S
C363 H377 0.961 . S
C363 H378 0.961 . S
C363 H379 0.961 . S
C364 C365 1.370 . S
C364 C366 1.363 . S
C364 H380 0.931 . S
C365 C364 1.370 . S
C365 C369 1.408 . S
C366 C364 1.363 . S
C366 C367 1.370 . S
C366 C370 1.524 . S
C367 C359 1.503 . S
C367 C366 1.370 . S
C367 C368 1.403 . S
C368 C367 1.403 . S
C368 C369 1.404 . S
C368 C371 1.539 . S
C369 C365 1.408 . S
C369 C368 1.404 . S
C369 H381 0.930 . S
C370 C366 1.524 . S
C370 H382 0.956 . S
C370 H383 0.961 . S
C370 H384 0.961 . S
C371 C368 1.539 . S
C371 H385 0.958 . S
C371 H386 0.961 . S
C371 H387 0.960 . S
H372 C356 0.931 . S
H373 C361 0.929 . S
H374 C362 0.960 . S
H375 C362 0.962 . S
H376 C362 0.960 . S
H377 C363 0.961 . S
H378 C363 0.961 . S
H379 C363 0.961 . S
H380 C364 0.931 . S
H381 C369 0.930 . S
H382 C370 0.956 . S
H383 C370 0.961 . S
H384 C370 0.961 . S
H385 C371 0.958 . S
H386 C371 0.961 . S
H387 C371 0.960 . S
C388 C389 1.391 . S
C388 C390 1.394 . S
C388 H404 0.931 . S
C389 C388 1.391 . S
C389 C393 1.376 . S
C390 C388 1.394 . S
C390 C391 1.369 . S
C390 C394 1.531 . S
C391 C390 1.369 . S
C391 C392 1.410 . S
C391 C399 1.503 . S
C392 C391 1.410 . S
C392 C393 1.392 . S
C392 C395 1.511 . S
C393 C389 1.376 . S
C393 C392 1.392 . S
C393 H405 0.929 . S
C394 C390 1.531 . S
C394 H406 0.960 . S
C394 H407 0.962 . S
C394 H408 0.960 . S
C395 C392 1.511 . S
C395 H409 0.961 . S
C395 H410 0.961 . S
C395 H411 0.961 . S
C396 C397 1.370 . S
C396 C398 1.363 1_556 S
C396 H412 0.931 . S
C397 C396 1.370 . S
C397 C401 1.408 . S
C398 C396 1.363 1_554 S
C398 C399 1.370 . S
C398 C402 1.524 . S
C399 C391 1.503 . S
C399 C398 1.370 . S
C399 C400 1.403 . S
C400 C399 1.403 . S
C400 C401 1.404 1_554 S
C400 C403 1.539 . S
C401 C397 1.408 . S
C401 C400 1.404 1_556 S
C401 H413 0.930 . S
C402 C398 1.524 . S
C402 H414 0.956 . S
C402 H415 0.961 . S
C402 H416 0.961 . S
C403 C400 1.539 . S
C403 H417 0.958 . S
C403 H418 0.961 . S
C403 H419 0.960 . S
H404 C388 0.931 . S
H405 C393 0.929 . S
H406 C394 0.960 . S
H407 C394 0.962 . S
H408 C394 0.960 . S
H409 C395 0.961 . S
H410 C395 0.961 . S
H411 C395 0.961 . S
H412 C396 0.931 . S
H413 C401 0.930 . S
H414 C402 0.956 . S
H415 C402 0.961 . S
H416 C402 0.961 . S
H417 C403 0.958 . S
H418 C403 0.961 . S
H419 C403 0.960 . S
C420 C421 1.391 . S
C420 C422 1.394 . S
C420 H436 0.931 . S
C421 C420 1.391 . S
C421 C425 1.376 . S
C422 C420 1.394 . S
C422 C423 1.369 . S
C422 C426 1.531 . S
C423 C422 1.369 . S
C423 C424 1.410 . S
C423 C431 1.503 . S
C424 C423 1.410 . S
C424 C425 1.392 . S
C424 C427 1.511 . S
C425 C421 1.376 . S
C425 C424 1.392 . S
C425 H437 0.929 . S
C426 C422 1.531 . S
C426 H438 0.960 . S
C426 H439 0.962 . S
C426 H440 0.960 . S
C427 C424 1.511 . S
C427 H441 0.961 . S
C427 H442 0.961 . S
C427 H443 0.961 . S
C428 C429 1.370 . S
C428 C430 1.363 . S
C428 H444 0.931 . S
C429 C428 1.370 . S
C429 C433 1.408 . S
C430 C428 1.363 . S
C430 C431 1.370 . S
C430 C434 1.524 . S
C431 C423 1.503 . S
C431 C430 1.370 . S
C431 C432 1.403 . S
C432 C431 1.403 . S
C432 C433 1.404 . S
C432 C435 1.539 . S
C433 C429 1.408 . S
C433 C432 1.404 . S
C433 H445 0.930 . S
C434 C430 1.524 . S
C434 H446 0.956 . S
C434 H447 0.961 . S
C434 H448 0.961 . S
C435 C432 1.539 . S
C435 H449 0.958 . S
C435 H450 0.961 . S
C435 H451 0.960 . S
H436 C420 0.931 . S
H437 C425 0.929 . S
H438 C426 0.960 . S
H439 C426 0.962 . S
H440 C426 0.960 . S
H441 C427 0.961 . S
H442 C427 0.961 . S
H443 C427 0.961 . S
H444 C428 0.931 . S
H445 C433 0.930 . S
H446 C434 0.956 . S
H447 C434 0.961 . S
H448 C434 0.961 . S
H449 C435 0.958 . S
H450 C435 0.961 . S
H451 C435 0.960 . S
C452 C453 1.391 . S
C452 C454 1.394 . S
C452 H468 0.931 . S
C453 C452 1.391 . S
C453 C457 1.376 . S
C454 C452 1.394 . S
C454 C455 1.369 . S
C454 C458 1.531 . S
C455 C454 1.369 . S
C455 C456 1.410 . S
C455 C463 1.503 . S
C456 C455 1.410 . S
C456 C457 1.392 . S
C456 C459 1.511 . S
C457 C453 1.376 . S
C457 C456 1.392 . S
C457 H469 0.929 . S
C458 C454 1.531 . S
C458 H470 0.960 . S
C458 H471 0.962 . S
C458 H472 0.960 . S
C459 C456 1.511 . S
C459 H473 0.961 . S
C459 H474 0.961 . S
C459 H475 0.961 . S
C460 C461 1.370 . S
C460 C462 1.363 1_554 S
C460 H476 0.931 . S
C461 C460 1.370 . S
C461 C465 1.408 . S
C462 C460 1.363 1_556 S
C462 C463 1.370 . S
C462 C466 1.524 . S
C463 C455 1.503 . S
C463 C462 1.370 . S
C463 C464 1.403 . S
C464 C463 1.403 . S
C464 C465 1.404 1_556 S
C464 C467 1.539 . S
C465 C461 1.408 . S
C465 C464 1.404 1_554 S
C465 H477 0.930 . S
C466 C462 1.524 . S
C466 H478 0.956 . S
C466 H479 0.961 . S
C466 H480 0.961 . S
C467 C464 1.539 . S
C467 H481 0.958 . S
C467 H482 0.961 . S
C467 H483 0.960 . S
H468 C452 0.931 . S
H469 C457 0.929 . S
H470 C458 0.960 . S
H471 C458 0.962 . S
H472 C458 0.960 . S
H473 C459 0.961 . S
H474 C459 0.961 . S
H475 C459 0.961 . S
H476 C460 0.931 . S
H477 C465 0.930 . S
H478 C466 0.956 . S
H479 C466 0.961 . S
H480 C466 0.961 . S
H481 C467 0.958 . S
H482 C467 0.961 . S
H483 C467 0.960 . S
C484 C485 1.391 . S
C484 C486 1.394 . S
C484 H500 0.931 . S
C485 C484 1.391 . S
C485 C489 1.376 . S
C486 C484 1.394 . S
C486 C487 1.369 . S
C486 C490 1.531 . S
C487 C486 1.369 . S
C487 C488 1.410 . S
C487 C495 1.503 . S
C488 C487 1.410 . S
C488 C489 1.392 . S
C488 C491 1.511 . S
C489 C485 1.376 . S
C489 C488 1.392 . S
C489 H501 0.929 . S
C490 C486 1.531 . S
C490 H502 0.960 . S
C490 H503 0.962 . S
C490 H504 0.960 . S
C491 C488 1.511 . S
C491 H505 0.961 . S
C491 H506 0.961 . S
C491 H507 0.961 . S
C492 C493 1.370 . S
C492 C494 1.363 1_556 S
C492 H508 0.931 . S
C493 C492 1.370 . S
C493 C497 1.408 . S
C494 C492 1.363 1_554 S
C494 C495 1.370 . S
C494 C498 1.524 . S
C495 C487 1.503 . S
C495 C494 1.370 . S
C495 C496 1.403 . S
C496 C495 1.403 . S
C496 C497 1.404 1_554 S
C496 C499 1.539 . S
C497 C493 1.408 . S
C497 C496 1.404 1_556 S
C497 H509 0.930 . S
C498 C494 1.524 . S
C498 H510 0.956 . S
C498 H511 0.961 . S
C498 H512 0.961 . S
C499 C496 1.539 . S
C499 H513 0.958 . S
C499 H514 0.961 . S
C499 H515 0.960 . S
H500 C484 0.931 . S
H501 C489 0.929 . S
H502 C490 0.960 . S
H503 C490 0.962 . S
H504 C490 0.960 . S
H505 C491 0.961 . S
H506 C491 0.961 . S
H507 C491 0.961 . S
H508 C492 0.931 . S
H509 C497 0.930 . S
H510 C498 0.956 . S
H511 C498 0.961 . S
H512 C498 0.961 . S
H513 C499 0.958 . S
H514 C499 0.961 . S
H515 C499 0.960 . S
C516 C517 1.391 . S
C516 C518 1.394 . S
C516 H532 0.931 . S
C517 C516 1.391 . S
C517 C521 1.376 . S
C518 C516 1.394 . S
C518 C519 1.369 . S
C518 C522 1.531 . S
C519 C518 1.369 . S
C519 C520 1.410 . S
C519 C527 1.503 . S
C520 C519 1.410 . S
C520 C521 1.392 . S
C520 C523 1.511 . S
C521 C517 1.376 . S
C521 C520 1.392 . S
C521 H533 0.929 . S
C522 C518 1.531 . S
C522 H534 0.960 . S
C522 H535 0.962 . S
C522 H536 0.960 . S
C523 C520 1.511 . S
C523 H537 0.961 . S
C523 H538 0.961 . S
C523 H539 0.961 . S
C524 C525 1.370 . S
C524 C526 1.363 . S
C524 H540 0.931 . S
C525 C524 1.370 . S
C525 C529 1.408 . S
C526 C524 1.363 . S
C526 C527 1.370 . S
C526 C530 1.524 . S
C527 C519 1.503 . S
C527 C526 1.370 . S
C527 C528 1.403 . S
C528 C527 1.403 . S
C528 C529 1.404 . S
C528 C531 1.539 . S
C529 C525 1.408 . S
C529 C528 1.404 . S
C529 H541 0.930 . S
C530 C526 1.524 . S
C530 H542 0.956 . S
C530 H543 0.961 . S
C530 H544 0.961 . S
C531 C528 1.539 . S
C531 H545 0.958 1_554 S
C531 H546 0.961 . S
C531 H547 0.960 . S
H532 C516 0.931 . S
H533 C521 0.929 . S
H534 C522 0.960 . S
H535 C522 0.962 . S
H536 C522 0.960 . S
H537 C523 0.961 . S
H538 C523 0.961 . S
H539 C523 0.961 . S
H540 C524 0.931 . S
H541 C529 0.930 . S
H542 C530 0.956 . S
H543 C530 0.961 . S
H544 C530 0.961 . S
H545 C531 0.958 1_556 S
H546 C531 0.961 . S
H547 C531 0.960 . S
C548 C549 1.391 . S
C548 C550 1.394 . S
C548 H564 0.931 . S
C549 C548 1.391 . S
C549 C553 1.376 . S
C550 C548 1.394 . S
C550 C551 1.369 . S
C550 C554 1.531 . S
C551 C550 1.369 . S
C551 C552 1.410 . S
C551 C559 1.503 . S
C552 C551 1.410 . S
C552 C553 1.392 . S
C552 C555 1.511 . S
C553 C549 1.376 . S
C553 C552 1.392 . S
C553 H565 0.929 . S
C554 C550 1.531 . S
C554 H566 0.960 . S
C554 H567 0.962 . S
C554 H568 0.960 . S
C555 C552 1.511 . S
C555 H569 0.961 . S
C555 H570 0.961 . S
C555 H571 0.961 . S
C556 C557 1.370 . S
C556 C558 1.363 . S
C556 H572 0.931 . S
C557 C556 1.370 . S
C557 C561 1.408 . S
C558 C556 1.363 . S
C558 C559 1.370 . S
C558 C562 1.524 . S
C559 C551 1.503 . S
C559 C558 1.370 . S
C559 C560 1.403 . S
C560 C559 1.403 . S
C560 C561 1.404 . S
C560 C563 1.539 . S
C561 C557 1.408 . S
C561 C560 1.404 . S
C561 H573 0.930 . S
C562 C558 1.524 . S
C562 H574 0.956 . S
C562 H575 0.961 . S
C562 H576 0.961 . S
C563 C560 1.539 . S
C563 H577 0.958 . S
C563 H578 0.961 . S
C563 H579 0.960 . S
H564 C548 0.931 . S
H565 C553 0.929 . S
H566 C554 0.960 . S
H567 C554 0.962 . S
H568 C554 0.960 . S
H569 C555 0.961 . S
H570 C555 0.961 . S
H571 C555 0.961 . S
H572 C556 0.931 . S
H573 C561 0.930 . S
H574 C562 0.956 . S
H575 C562 0.961 . S
H576 C562 0.961 . S
H577 C563 0.958 . S
H578 C563 0.961 . S
H579 C563 0.960 . S
C580 C581 1.391 . S
C580 C582 1.394 . S
C580 H596 0.931 . S
C581 C580 1.391 . S
C581 C585 1.376 . S
C582 C580 1.394 . S
C582 C583 1.369 . S
C582 C586 1.531 . S
C583 C582 1.369 . S
C583 C584 1.410 . S
C583 C591 1.503 . S
C584 C583 1.410 . S
C584 C585 1.392 . S
C584 C587 1.511 . S
C585 C581 1.376 . S
C585 C584 1.392 . S
C585 H597 0.929 . S
C586 C582 1.531 . S
C586 H598 0.960 . S
C586 H599 0.962 . S
C586 H600 0.960 . S
C587 C584 1.511 . S
C587 H601 0.961 . S
C587 H602 0.961 . S
C587 H603 0.961 . S
C588 C589 1.370 . S
C588 C590 1.363 . S
C588 H604 0.931 . S
C589 C588 1.370 . S
C589 C593 1.408 . S
C590 C588 1.363 . S
C590 C591 1.370 . S
C590 C594 1.524 . S
C591 C583 1.503 . S
C591 C590 1.370 . S
C591 C592 1.403 . S
C592 C591 1.403 . S
C592 C593 1.404 . S
C592 C595 1.539 . S
C593 C589 1.408 . S
C593 C592 1.404 . S
C593 H605 0.930 . S
C594 C590 1.524 . S
C594 H606 0.956 . S
C594 H607 0.961 . S
C594 H608 0.961 . S
C595 C592 1.539 . S
C595 H609 0.958 . S
C595 H610 0.961 . S
C595 H611 0.960 . S
H596 C580 0.931 . S
H597 C585 0.929 . S
H598 C586 0.960 . S
H599 C586 0.962 . S
H600 C586 0.960 . S
H601 C587 0.961 . S
H602 C587 0.961 . S
H603 C587 0.961 . S
H604 C588 0.931 . S
H605 C593 0.930 . S
H606 C594 0.956 . S
H607 C594 0.961 . S
H608 C594 0.961 . S
H609 C595 0.958 . S
H610 C595 0.961 . S
H611 C595 0.960 . S
C612 C613 1.391 . S
C612 C614 1.394 . S
C612 H628 0.931 . S
C613 C612 1.391 . S
C613 C617 1.376 . S
C614 C612 1.394 . S
C614 C615 1.369 . S
C614 C618 1.531 . S
C615 C614 1.369 . S
C615 C616 1.410 . S
C615 C623 1.503 . S
C616 C615 1.410 . S
C616 C617 1.392 . S
C616 C619 1.511 . S
C617 C613 1.376 . S
C617 C616 1.392 . S
C617 H629 0.929 . S
C618 C614 1.531 . S
C618 H630 0.960 . S
C618 H631 0.962 . S
C618 H632 0.960 . S
C619 C616 1.511 . S
C619 H633 0.961 . S
C619 H634 0.961 . S
C619 H635 0.961 . S
C620 C621 1.370 . S
C620 C622 1.363 . S
C620 H636 0.931 . S
C621 C620 1.370 . S
C621 C625 1.408 . S
C622 C620 1.363 . S
C622 C623 1.370 . S
C622 C626 1.524 . S
C623 C615 1.503 . S
C623 C622 1.370 . S
C623 C624 1.403 . S
C624 C623 1.403 . S
C624 C625 1.404 . S
C624 C627 1.539 1_554 S
C625 C621 1.408 . S
C625 C624 1.404 . S
C625 H637 0.930 . S
C626 C622 1.524 . S
C626 H638 0.956 . S
C626 H639 0.961 . S
C626 H640 0.961 . S
C627 C624 1.539 1_556 S
C627 H641 0.958 . S
C627 H642 0.961 . S
C627 H643 0.960 . S
H628 C612 0.931 . S
H629 C617 0.929 . S
H630 C618 0.960 . S
H631 C618 0.962 . S
H632 C618 0.960 . S
H633 C619 0.961 . S
H634 C619 0.961 . S
H635 C619 0.961 . S
H636 C620 0.931 . S
H637 C625 0.930 . S
H638 C626 0.956 . S
H639 C626 0.961 . S
H640 C626 0.961 . S
H641 C627 0.958 . S
H642 C627 0.961 . S
H643 C627 0.960 . S
C644 C645 1.391 . S
C644 C646 1.394 . S
C644 H660 0.931 . S
C645 C644 1.391 . S
C645 C649 1.376 . S
C646 C644 1.394 . S
C646 C647 1.369 . S
C646 C650 1.531 . S
C647 C646 1.369 . S
C647 C648 1.410 . S
C647 C655 1.503 . S
C648 C647 1.410 . S
C648 C649 1.392 . S
C648 C651 1.511 . S
C649 C645 1.376 . S
C649 C648 1.392 . S
C649 H661 0.929 . S
C650 C646 1.531 . S
C650 H662 0.960 . S
C650 H663 0.962 . S
C650 H664 0.960 . S
C651 C648 1.511 . S
C651 H665 0.961 . S
C651 H666 0.961 . S
C651 H667 0.961 . S
C652 C653 1.370 . S
C652 C654 1.363 . S
C652 H668 0.931 . S
C653 C652 1.370 . S
C653 C657 1.408 . S
C654 C652 1.363 . S
C654 C655 1.370 . S
C654 C658 1.524 . S
C655 C647 1.503 . S
C655 C654 1.370 . S
C655 C656 1.403 . S
C656 C655 1.403 . S
C656 C657 1.404 . S
C656 C659 1.539 . S
C657 C653 1.408 . S
C657 C656 1.404 . S
C657 H669 0.930 . S
C658 C654 1.524 . S
C658 H670 0.956 . S
C658 H671 0.961 . S
C658 H672 0.961 . S
C659 C656 1.539 . S
C659 H673 0.958 . S
C659 H674 0.961 . S
C659 H675 0.960 . S
H660 C644 0.931 . S
H661 C649 0.929 . S
H662 C650 0.960 . S
H663 C650 0.962 . S
H664 C650 0.960 . S
H665 C651 0.961 . S
H666 C651 0.961 . S
H667 C651 0.961 . S
H668 C652 0.931 . S
H669 C657 0.930 . S
H670 C658 0.956 . S
H671 C658 0.961 . S
H672 C658 0.961 . S
H673 C659 0.958 . S
H674 C659 0.961 . S
H675 C659 0.960 . S
C676 C677 1.391 . S
C676 C678 1.394 . S
C676 H692 0.931 . S
C677 C676 1.391 . S
C677 C681 1.376 . S
C678 C676 1.394 . S
C678 C679 1.369 . S
C678 C682 1.531 . S
C679 C678 1.369 . S
C679 C680 1.410 . S
C679 C687 1.503 . S
C680 C679 1.410 . S
C680 C681 1.392 . S
C680 C683 1.511 . S
C681 C677 1.376 . S
C681 C680 1.392 . S
C681 H693 0.929 . S
C682 C678 1.531 . S
C682 H694 0.960 . S
C682 H695 0.962 . S
C682 H696 0.960 . S
C683 C680 1.511 . S
C683 H697 0.961 . S
C683 H698 0.961 . S
C683 H699 0.961 1_556 S
C684 C685 1.370 . S
C684 C686 1.363 . S
C684 H700 0.931 . S
C685 C684 1.370 . S
C685 C689 1.408 . S
C686 C684 1.363 . S
C686 C687 1.370 . S
C686 C690 1.524 . S
C687 C679 1.503 . S
C687 C686 1.370 . S
C687 C688 1.403 . S
C688 C687 1.403 . S
C688 C689 1.404 . S
C688 C691 1.539 . S
C689 C685 1.408 . S
C689 C688 1.404 . S
C689 H701 0.930 . S
C690 C686 1.524 . S
C690 H702 0.956 . S
C690 H703 0.961 . S
C690 H704 0.961 . S
C691 C688 1.539 . S
C691 H705 0.958 . S
C691 H706 0.961 1_556 S
C691 H707 0.960 . S
H692 C676 0.931 . S
H693 C681 0.929 . S
H694 C682 0.960 . S
H695 C682 0.962 . S
H696 C682 0.960 . S
H697 C683 0.961 . S
H698 C683 0.961 . S
H699 C683 0.961 1_554 S
H700 C684 0.931 . S
H701 C689 0.930 . S
H702 C690 0.956 . S
H703 C690 0.961 . S
H704 C690 0.961 . S
H705 C691 0.958 . S
H706 C691 0.961 1_554 S
H707 C691 0.960 . S
C133 C114 1.678 . S
C141 C5 1.687 . S
C165 C8 1.689 . S
C173 C31 1.688 . S
C197 C26 1.671 . S
C205 C49 1.678 . S
C229 C52 1.691 . S
C237 C75 1.685 . S
C261 C93 1.669 . S
C269 C70 1.683 . S
C293 C119 1.674 . S
C301 C96 1.678 . S
C325 C4 1.250 . S
C333 C7 1.253 . S
C357 C30 1.244 . S
C365 C28 1.239 . S
C389 C48 1.229 . S
C397 C51 1.236 . S
C421 C74 1.238 . S
C429 C72 1.237 . S
C453 C95 1.221 . S
C461 C92 1.239 . S
C485 C118 1.221 . S
C493 C116 1.238 . S
C517 C9 1.154 . S
C525 C94 1.202 . S
C549 C27 1.224 . S
C557 C117 1.173 . S
C581 C6 1.226 . S
C589 C53 1.171 . S
C613 C29 1.227 . S
C621 C71 1.168 . S
C645 C97 1.146 . S
C653 C50 1.189 . S
C677 C73 1.137 . S
C685 C115 1.195 . S
