# Generated by pormake.
# Topology umd, (4)-cn, num edge types: 1
# Building blocks:
#     Node 0, Type 0, BuildingBlock: NAWXER_clean_sbu_0, # of connection points: 4
#     Node 1, Type 0, BuildingBlock: NAWXER_clean_sbu_0, # of connection points: 4
#     Node 2, Type 0, BuildingBlock: NAWXER_clean_sbu_0, # of connection points: 4
#     Node 3, Type 0, BuildingBlock: NAWXER_clean_sbu_0, # of connection points: 4
#     Node 4, Type 0, BuildingBlock: NAWXER_clean_sbu_0, # of connection points: 4
#     Node 5, Type 0, BuildingBlock: NAWXER_clean_sbu_0, # of connection points: 4
#     Node 6, Type 0, BuildingBlock: NAWXER_clean_sbu_0, # of connection points: 4
#     Node 7, Type 0, BuildingBlock: NAWXER_clean_sbu_0, # of connection points: 4
#     Node 8, Type 0, BuildingBlock: NAWXER_clean_sbu_0, # of connection points: 4
#     Node 9, Type 0, BuildingBlock: NAWXER_clean_sbu_0, # of connection points: 4
#     Node 10, Type 0, BuildingBlock: NAWXER_clean_sbu_0, # of connection points: 4
#     Node 11, Type 0, BuildingBlock: NAWXER_clean_sbu_0, # of connection points: 4
#     Node 12, Type 0, BuildingBlock: NAWXER_clean_sbu_0, # of connection points: 4
#     Node 13, Type 0, BuildingBlock: NAWXER_clean_sbu_0, # of connection points: 4
#     Node 14, Type 0, BuildingBlock: NAWXER_clean_sbu_0, # of connection points: 4
#     Node 15, Type 0, BuildingBlock: NAWXER_clean_sbu_0, # of connection points: 4
#     Edge 16, Type (0, 0), BuildingBlock: AJUNOK_clean_linker_0, # of connection points: 2
#     Edge 17, Type (0, 0), BuildingBlock: AJUNOK_clean_linker_0, # of connection points: 2
#     Edge 18, Type (0, 0), BuildingBlock: AJUNOK_clean_linker_0, # of connection points: 2
#     Edge 19, Type (0, 0), BuildingBlock: AJUNOK_clean_linker_0, # of connection points: 2
#     Edge 20, Type (0, 0), BuildingBlock: AJUNOK_clean_linker_0, # of connection points: 2
#     Edge 21, Type (0, 0), BuildingBlock: AJUNOK_clean_linker_0, # of connection points: 2
#     Edge 22, Type (0, 0), BuildingBlock: AJUNOK_clean_linker_0, # of connection points: 2
#     Edge 23, Type (0, 0), BuildingBlock: AJUNOK_clean_linker_0, # of connection points: 2
#     Edge 24, Type (0, 0), BuildingBlock: AJUNOK_clean_linker_0, # of connection points: 2
#     Edge 25, Type (0, 0), BuildingBlock: AJUNOK_clean_linker_0, # of connection points: 2
#     Edge 26, Type (0, 0), BuildingBlock: AJUNOK_clean_linker_0, # of connection points: 2
#     Edge 27, Type (0, 0), BuildingBlock: AJUNOK_clean_linker_0, # of connection points: 2
#     Edge 28, Type (0, 0), BuildingBlock: AJUNOK_clean_linker_0, # of connection points: 2
#     Edge 29, Type (0, 0), BuildingBlock: AJUNOK_clean_linker_0, # of connection points: 2
#     Edge 30, Type (0, 0), BuildingBlock: AJUNOK_clean_linker_0, # of connection points: 2
#     Edge 31, Type (0, 0), BuildingBlock: AJUNOK_clean_linker_0, # of connection points: 2
#     Edge 32, Type (0, 0), BuildingBlock: AJUNOK_clean_linker_0, # of connection points: 2
#     Edge 33, Type (0, 0), BuildingBlock: AJUNOK_clean_linker_0, # of connection points: 2
#     Edge 34, Type (0, 0), BuildingBlock: AJUNOK_clean_linker_0, # of connection points: 2
#     Edge 35, Type (0, 0), BuildingBlock: AJUNOK_clean_linker_0, # of connection points: 2
#     Edge 36, Type (0, 0), BuildingBlock: AJUNOK_clean_linker_0, # of connection points: 2
#     Edge 37, Type (0, 0), BuildingBlock: AJUNOK_clean_linker_0, # of connection points: 2
#     Edge 38, Type (0, 0), BuildingBlock: AJUNOK_clean_linker_0, # of connection points: 2
#     Edge 39, Type (0, 0), BuildingBlock: AJUNOK_clean_linker_0, # of connection points: 2
#     Edge 40, Type (0, 0), BuildingBlock: AJUNOK_clean_linker_0, # of connection points: 2
#     Edge 41, Type (0, 0), BuildingBlock: AJUNOK_clean_linker_0, # of connection points: 2
#     Edge 42, Type (0, 0), BuildingBlock: AJUNOK_clean_linker_0, # of connection points: 2
#     Edge 43, Type (0, 0), BuildingBlock: AJUNOK_clean_linker_0, # of connection points: 2
#     Edge 44, Type (0, 0), BuildingBlock: AJUNOK_clean_linker_0, # of connection points: 2
#     Edge 45, Type (0, 0), BuildingBlock: AJUNOK_clean_linker_0, # of connection points: 2
#     Edge 46, Type (0, 0), BuildingBlock: AJUNOK_clean_linker_0, # of connection points: 2
#     Edge 47, Type (0, 0), BuildingBlock: AJUNOK_clean_linker_0, # of connection points: 2
# Relax obj value: 0.021
# Max RMSD: 0.190
# Mean RMSD: 0.190
data_MOF--net-umd--node1-NAWXER_clean_sbu_0--edge1-AJUNOK_clean_linker_0
_symmetry_space_group_name_H-M    P1
_symmetry_Int_Tables_number       1
_symmetry_cell_setting            triclinic
loop_
_symmetry_equiv_pos_as_xyz
'x, y, z'
_cell_length_a     29.618187
_cell_length_b     29.60139
_cell_length_c     42.290893
_cell_angle_alpha  89.987173
_cell_angle_beta   89.980667
_cell_angle_gamma 89.97993
loop_
_atom_site_label
_atom_site_type_symbol
_atom_site_fract_x
_atom_site_fract_y
_atom_site_fract_z
_atom_type_partial_charge
C0 C 0.09181 0.4577 0.14342 0.0
C1 C 0.2286 0.36736 0.14529 0.0
O2 O 0.09627 0.41522 0.14575 0.0
Zn3 Zn 0.1608 0.41328 0.14431 0.0
O4 O 0.12723 0.4825 0.14113 0.0
Zn5 Zn 0.19955 0.47217 0.14005 0.0
O6 O 0.21626 0.49583 0.09935 0.0
O7 O 0.17566 0.43369 0.09641 0.0
O8 O 0.23772 0.40964 0.14274 0.0
O9 O 0.18768 0.35492 0.14699 0.0
O10 O 0.18012 0.44419 0.18847 0.0
O11 O 0.21916 0.50538 0.17662 0.0
C12 C 0.19712 0.46583 0.08264 0.0
C13 C 0.20223 0.47926 0.19727 0.0
C14 C 0.54416 0.19451 0.58172 0.0
C15 C 0.53017 0.20163 0.69623 0.0
O16 O 0.51385 0.21364 0.59819 0.0
Zn17 Zn 0.53722 0.19755 0.6391 0.0
O18 O 0.5763 0.17342 0.59576 0.0
Zn19 Zn 0.59649 0.15928 0.64376 0.0
O20 O 0.59472 0.09459 0.64572 0.0
O21 O 0.52738 0.12524 0.64072 0.0
O22 O 0.56541 0.17956 0.68767 0.0
O23 O 0.50375 0.21763 0.67542 0.0
O24 O 0.59932 0.23619 0.64189 0.0
O25 O 0.65468 0.18685 0.64633 0.0
C26 C 0.55229 0.08993 0.64332 0.0
C27 C 0.64167 0.22764 0.6446 0.0
C28 C 0.80292 0.52723 0.19643 0.0
C29 C 0.81269 0.54919 0.0824 0.0
O30 O 0.78471 0.50391 0.17471 0.0
Zn31 Zn 0.80728 0.53843 0.13944 0.0
O32 O 0.82719 0.56155 0.18916 0.0
Zn33 Zn 0.84967 0.59443 0.14662 0.0
O34 O 0.82622 0.65401 0.15098 0.0
O35 O 0.77306 0.603 0.14384 0.0
O36 O 0.8354 0.57856 0.098 0.0
O37 O 0.79086 0.51905 0.09735 0.0
O38 O 0.87876 0.52358 0.14107 0.0
O39 O 0.91394 0.5882 0.14872 0.0
C40 C 0.7847 0.64437 0.14813 0.0
C41 C 0.91562 0.54572 0.14479 0.0
C42 C 0.46178 0.81106 0.58247 0.0
C43 C 0.48146 0.80045 0.69689 0.0
O44 O 0.49122 0.78851 0.5976 0.0
Zn45 Zn 0.47117 0.80486 0.63966 0.0
O46 O 0.43234 0.83388 0.59795 0.0
Zn47 Zn 0.41557 0.84773 0.64652 0.0
O48 O 0.422 0.91195 0.64879 0.0
O49 O 0.48654 0.87647 0.64146 0.0
O50 O 0.44756 0.82513 0.68933 0.0
O51 O 0.50477 0.78185 0.6753 0.0
O52 O 0.40628 0.77099 0.6433 0.0
O53 O 0.35584 0.82474 0.65022 0.0
C54 C 0.46449 0.91348 0.64507 0.0
C55 C 0.36498 0.78311 0.64724 0.0
C56 C 0.20129 0.52601 0.33047 0.0
C57 C 0.19491 0.54498 0.44463 0.0
O58 O 0.21835 0.50134 0.35191 0.0
Zn59 Zn 0.19812 0.53621 0.38745 0.0
O60 O 0.17919 0.56164 0.3382 0.0
Zn61 Zn 0.15952 0.59483 0.38157 0.0
O62 O 0.18665 0.65317 0.3778 0.0
O63 O 0.2364 0.59852 0.38374 0.0
O64 O 0.17359 0.57651 0.43006 0.0
O65 O 0.21434 0.51432 0.42867 0.0
O66 O 0.12572 0.52572 0.38623 0.0
O67 O 0.09498 0.59282 0.37988 0.0
C68 C 0.22751 0.6407 0.38019 0.0
C69 C 0.09037 0.55048 0.38321 0.0
C70 C 0.4682 0.19916 0.94404 0.0
C71 C 0.4853 0.20522 0.82967 0.0
O72 O 0.49869 0.21858 0.92791 0.0
Zn73 Zn 0.47607 0.20253 0.88677 0.0
O74 O 0.43644 0.17802 0.92964 0.0
Zn75 Zn 0.41729 0.16398 0.88141 0.0
O76 O 0.41912 0.09934 0.87974 0.0
O77 O 0.48636 0.12997 0.88535 0.0
O78 O 0.44983 0.18323 0.83782 0.0
O79 O 0.51031 0.22252 0.85081 0.0
O80 O 0.41385 0.24116 0.88348 0.0
O81 O 0.35912 0.19145 0.87806 0.0
C82 C 0.46151 0.09463 0.88255 0.0
C83 C 0.37164 0.23232 0.88025 0.0
C84 C 0.80809 0.46704 0.44417 0.0
C85 C 0.80192 0.48073 0.32952 0.0
O86 O 0.78771 0.49646 0.42763 0.0
Zn87 Zn 0.8051 0.47383 0.38675 0.0
O88 O 0.83064 0.43583 0.4302 0.0
Zn89 Zn 0.84612 0.41612 0.38231 0.0
O90 O 0.9109 0.42111 0.38083 0.0
O91 O 0.87671 0.48678 0.38566 0.0
O92 O 0.82534 0.44647 0.33827 0.0
O93 O 0.78428 0.50634 0.35019 0.0
O94 O 0.76928 0.41031 0.38382 0.0
O95 O 0.82057 0.35674 0.3796 0.0
C96 C 0.91328 0.4638 0.38327 0.0
C97 C 0.77933 0.36828 0.38119 0.0
C98 C 0.52893 0.80351 0.82981 0.0
C99 C 0.54893 0.81424 0.94414 0.0
O100 O 0.50391 0.78713 0.85135 0.0
Zn101 Zn 0.53818 0.80923 0.88696 0.0
O102 O 0.5636 0.8271 0.83738 0.0
Zn103 Zn 0.59586 0.84995 0.88006 0.0
O104 O 0.65507 0.82414 0.8764 0.0
O105 O 0.6016 0.77326 0.88305 0.0
O106 O 0.57904 0.83607 0.92859 0.0
O107 O 0.51816 0.79344 0.9291 0.0
O108 O 0.52528 0.8808 0.88499 0.0
O109 O 0.59054 0.91474 0.87759 0.0
C110 C 0.64348 0.78301 0.87913 0.0
C111 C 0.54806 0.91726 0.88128 0.0
C112 C 0.81409 0.549 0.94426 0.0
C113 C 0.80473 0.52945 0.82992 0.0
O114 O 0.83599 0.5792 0.92886 0.0
Zn115 Zn 0.85027 0.59635 0.88053 0.0
O116 O 0.79341 0.51825 0.92911 0.0
Zn117 Zn 0.80952 0.53846 0.88709 0.0
O118 O 0.88105 0.52576 0.88551 0.0
O119 O 0.91505 0.59108 0.87839 0.0
O120 O 0.78799 0.50428 0.85125 0.0
O121 O 0.82813 0.56411 0.83777 0.0
O122 O 0.82426 0.65552 0.87684 0.0
O123 O 0.77351 0.60182 0.88313 0.0
C124 C 0.91753 0.54856 0.88206 0.0
C125 C 0.78315 0.64377 0.87935 0.0
C126 C 0.48151 0.80079 0.32963 0.0
C127 C 0.46287 0.81173 0.4442 0.0
O128 O 0.44696 0.82432 0.33753 0.0
Zn129 Zn 0.41495 0.84671 0.38032 0.0
O130 O 0.50664 0.78397 0.35094 0.0
Zn131 Zn 0.47279 0.80581 0.38694 0.0
O132 O 0.40954 0.76974 0.38352 0.0
O133 O 0.35591 0.82051 0.37702 0.0
O134 O 0.49329 0.79041 0.42912 0.0
O135 O 0.43259 0.83334 0.42869 0.0
O136 O 0.42014 0.91155 0.37774 0.0
O137 O 0.48541 0.87739 0.38481 0.0
C138 C 0.36762 0.77941 0.37984 0.0
C139 C 0.46269 0.91391 0.38119 0.0
C140 C 0.19902 0.46793 0.94461 0.0
C141 C 0.20469 0.48635 0.83032 0.0
O142 O 0.17789 0.43625 0.93011 0.0
Zn143 Zn 0.16387 0.41756 0.88177 0.0
O144 O 0.21846 0.49852 0.92858 0.0
Zn145 Zn 0.20242 0.4763 0.88735 0.0
O146 O 0.12995 0.48659 0.88612 0.0
O147 O 0.09927 0.41938 0.88024 0.0
O148 O 0.22213 0.51109 0.85157 0.0
O149 O 0.18284 0.45069 0.83829 0.0
O150 O 0.19136 0.35942 0.87809 0.0
O151 O 0.24105 0.41412 0.88374 0.0
C152 C 0.09462 0.46177 0.88329 0.0
C153 C 0.23221 0.37191 0.88033 0.0
C154 C 0.54406 0.19533 0.44371 0.0
C155 C 0.52815 0.20037 0.32942 0.0
O156 O 0.57572 0.17369 0.42955 0.0
Zn157 Zn 0.59537 0.1592 0.38152 0.0
O158 O 0.51409 0.21517 0.42736 0.0
Zn159 Zn 0.53697 0.19877 0.38635 0.0
O160 O 0.52589 0.12616 0.38492 0.0
O161 O 0.59302 0.09474 0.38038 0.0
O162 O 0.50392 0.21978 0.35009 0.0
O163 O 0.56247 0.17686 0.33779 0.0
O164 O 0.65387 0.18649 0.378 0.0
O165 O 0.5993 0.23636 0.38338 0.0
C166 C 0.55048 0.09054 0.38258 0.0
C167 C 0.64145 0.2274 0.38022 0.0
C168 C 0.80098 0.48371 0.69668 0.0
C169 C 0.80735 0.46765 0.58222 0.0
O170 O 0.82442 0.44919 0.68844 0.0
Zn171 Zn 0.84494 0.41766 0.64466 0.0
O172 O 0.78263 0.50812 0.67561 0.0
Zn173 Zn 0.80375 0.47502 0.63951 0.0
O174 O 0.76803 0.41157 0.64262 0.0
O175 O 0.81949 0.35836 0.64778 0.0
O176 O 0.78669 0.49718 0.59848 0.0
O177 O 0.82988 0.43668 0.59647 0.0
O178 O 0.90972 0.42251 0.64614 0.0
O179 O 0.87541 0.48804 0.64067 0.0
C180 C 0.77824 0.36965 0.64566 0.0
C181 C 0.91201 0.46516 0.64334 0.0
C182 C 0.64551 0.78386 0.148 0.0
C183 C 0.54656 0.91471 0.14465 0.0
O184 O 0.60417 0.77219 0.14372 0.0
Zn185 Zn 0.53962 0.80626 0.13947 0.0
O186 O 0.65512 0.82541 0.15089 0.0
Zn187 Zn 0.59547 0.84882 0.14669 0.0
O188 O 0.56289 0.82607 0.18931 0.0
O189 O 0.50541 0.78346 0.17485 0.0
O190 O 0.58897 0.91316 0.14885 0.0
O191 O 0.52461 0.87772 0.14093 0.0
O192 O 0.52025 0.78984 0.09734 0.0
O193 O 0.57948 0.83473 0.09799 0.0
C194 C 0.52874 0.80158 0.19661 0.0
C195 C 0.55016 0.81197 0.08237 0.0
C196 C 0.19413 0.54738 0.58265 0.0
C197 C 0.20028 0.53312 0.69717 0.0
O198 O 0.17185 0.57885 0.59654 0.0
Zn199 Zn 0.15677 0.59835 0.64459 0.0
O200 O 0.21412 0.51781 0.59927 0.0
Zn201 Zn 0.19676 0.54069 0.64004 0.0
O202 O 0.12438 0.52848 0.64103 0.0
O203 O 0.09254 0.59525 0.64616 0.0
O204 O 0.21741 0.50748 0.67633 0.0
O205 O 0.17724 0.56774 0.68864 0.0
O206 O 0.18171 0.65725 0.64744 0.0
O207 O 0.23362 0.60435 0.64314 0.0
C208 C 0.0886 0.55279 0.64348 0.0
C209 C 0.22302 0.6463 0.64591 0.0
C210 C 0.45795 0.09071 0.14155 0.0
C211 C 0.36748 0.22761 0.14485 0.0
O212 O 0.48265 0.12635 0.1401 0.0
Zn213 Zn 0.47198 0.19901 0.13959 0.0
O214 O 0.41536 0.09485 0.14317 0.0
Zn215 Zn 0.41335 0.15932 0.14302 0.0
O216 O 0.43417 0.17532 0.09559 0.0
O217 O 0.49588 0.21649 0.09896 0.0
O218 O 0.35502 0.18666 0.14632 0.0
O219 O 0.40969 0.23667 0.14231 0.0
O220 O 0.50387 0.21862 0.1769 0.0
O221 O 0.44506 0.17542 0.18734 0.0
C222 C 0.46616 0.19723 0.08204 0.0
C223 C 0.47931 0.1981 0.1969 0.0
C224 C 0.04235 0.52623 0.14322 0.0
C225 C 0.04632 0.47885 0.14362 0.0
C226 C 1.00006 0.54739 0.14367 0.0
C227 C 0.95984 0.52211 0.14439 0.0
H228 H 0.07216 0.54741 0.14266 0.0
H229 H 0.99904 0.58397 0.14331 0.0
S230 S 0.95133 0.3969 0.14588 0.0
N231 N 0.00608 0.40713 0.1449 0.0
N232 N 0.92667 0.44689 0.14571 0.0
C233 C 0.9632 0.47465 0.14476 0.0
C234 C 0.00636 0.45305 0.1444 0.0
C235 C 0.46284 0.998 0.64473 0.0
C236 C 0.48814 0.95774 0.64467 0.0
C237 C 0.48392 0.04033 0.6442 0.0
C238 C 0.53128 0.04434 0.64372 0.0
H239 H 0.42629 0.997 0.64507 0.0
H240 H 0.46271 0.07015 0.64427 0.0
S241 S 0.6133 0.94932 0.64354 0.0
N242 N 0.56339 0.9246 0.6442 0.0
N243 N 0.603 1.00412 0.64325 0.0
C244 C 0.55711 0.00436 0.64372 0.0
C245 C 0.53558 0.96114 0.64417 0.0
C246 C 0.04041 0.48216 0.38353 0.0
C247 C 0.04475 0.52953 0.38338 0.0
C248 C 0.99792 0.46132 0.38345 0.0
C249 C 0.95785 0.48692 0.38334 0.0
H250 H 0.0701 0.46078 0.38357 0.0
H251 H 0.9966 0.42475 0.38352 0.0
S252 S 0.95037 0.61229 0.38316 0.0
N253 N 0.00504 0.60156 0.38329 0.0
N254 N 0.92533 0.56251 0.38316 0.0
C255 C 0.96164 0.53439 0.3833 0.0
C256 C 0.00497 0.55563 0.38329 0.0
C257 C 0.55059 1.00197 0.88164 0.0
C258 C 0.52498 0.96191 0.88151 0.0
C259 C 0.52978 0.04452 0.88212 0.0
C260 C 0.48243 0.04893 0.88232 0.0
H261 H 0.58713 1.00059 0.88153 0.0
H262 H 0.55116 0.07419 0.8822 0.0
S263 S 0.39969 0.95457 0.88185 0.0
N264 N 0.44943 0.92946 0.88146 0.0
N265 N 0.41043 0.00926 0.8823 0.0
C266 C 0.45634 0.00914 0.88211 0.0
C267 C 0.47755 0.96576 0.88173 0.0
C268 C 1.00218 0.55096 0.88141 0.0
C269 C 0.96212 0.52543 0.88246 0.0
C270 C 0.04468 0.5301 0.88186 0.0
C271 C 0.04901 0.48276 0.88322 0.0
H272 H 1.00085 0.58749 0.88029 0.0
H273 H 0.07437 0.55141 0.88093 0.0
S274 S 0.95468 0.40018 0.8866 0.0
N275 N 0.92962 0.44993 0.8851 0.0
N276 N 0.00934 0.41085 0.88589 0.0
C277 C 0.00925 0.45673 0.88432 0.0
C278 C 0.96592 0.47799 0.88397 0.0
C279 C 0.48179 0.04106 0.38156 0.0
C280 C 0.52917 0.04507 0.38216 0.0
C281 C 0.46066 0.99867 0.38107 0.0
C282 C 0.48598 0.95842 0.38127 0.0
H283 H 0.46064 0.07092 0.38139 0.0
H284 H 0.42411 0.99757 0.3807 0.0
S285 S 0.61123 0.95006 0.38236 0.0
N286 N 0.60086 0.00482 0.38264 0.0
N287 N 0.56131 0.92537 0.38172 0.0
C288 C 0.53345 0.96189 0.38175 0.0
C289 C 0.55496 0.00508 0.38217 0.0
C290 C 0.9967 0.46299 0.64355 0.0
C291 C 0.95651 0.4884 0.64323 0.0
C292 C 0.03912 0.48405 0.6435 0.0
C293 C 0.04317 0.53144 0.64326 0.0
H294 H 0.99555 0.42642 0.64379 0.0
H295 H 0.06894 0.46286 0.64379 0.0
S296 S 0.94833 0.61371 0.6423 0.0
N297 N 0.92358 0.56381 0.64261 0.0
N298 N 1.00304 0.60325 0.64253 0.0
C299 C 1.00324 0.55732 0.64292 0.0
C300 C 0.96004 0.53587 0.64289 0.0
C301 C 0.5266 0.04153 0.14399 0.0
C302 C 0.47932 0.04531 0.14195 0.0
C303 C 0.54788 0.99929 0.14494 0.0
C304 C 0.52283 0.95892 0.14376 0.0
H305 H 0.54758 0.07146 0.14507 0.0
H306 H 0.58436 0.99843 0.14655 0.0
S307 S 0.39794 0.94994 0.1381 0.0
N308 N 0.40795 0.00477 0.1386 0.0
N309 N 0.44788 0.92545 0.14035 0.0
C310 C 0.47546 0.96212 0.1416 0.0
C311 C 0.45375 0.00522 0.14072 0.0
C312 C 0.20472 0.54689 0.2733 0.0
C313 C 0.20518 0.51321 0.29678 0.0
C314 C 0.20559 0.53564 0.24111 0.0
C315 C 0.20578 0.49028 0.23125 0.0
H316 H 0.20341 0.58226 0.27985 0.0
H317 H 0.20451 0.56265 0.22383 0.0
S318 S 0.20854 0.3894 0.28325 0.0
N319 N 0.2076 0.43263 0.30793 0.0
N320 N 0.20798 0.4115 0.2474 0.0
C321 C 0.20696 0.45629 0.25445 0.0
C322 C 0.20704 0.46775 0.28723 0.0
C323 C 0.47437 0.20583 0.74035 0.0
C324 C 0.51954 0.20649 0.73017 0.0
C325 C 0.4636 0.20621 0.77263 0.0
C326 C 0.49757 0.2084 0.79584 0.0
H327 H 0.44717 0.20337 0.72331 0.0
H328 H 0.42838 0.20439 0.77945 0.0
S329 S 0.621 0.21407 0.78127 0.0
N330 N 0.59842 0.21132 0.74563 0.0
N331 N 0.57819 0.21323 0.8063 0.0
C332 C 0.54281 0.21089 0.7859 0.0
C333 C 0.5538 0.20956 0.75305 0.0
C334 C 0.79788 0.54809 0.25345 0.0
C335 C 0.7981 0.51436 0.23001 0.0
C336 C 0.79712 0.53689 0.28565 0.0
C337 C 0.79781 0.49156 0.29554 0.0
H338 H 0.79875 0.58345 0.24685 0.0
H339 H 0.79777 0.56395 0.30289 0.0
S340 S 0.79702 0.3906 0.2436 0.0
N341 N 0.79713 0.4338 0.21888 0.0
N342 N 0.79708 0.41272 0.27945 0.0
C343 C 0.79719 0.4575 0.27237 0.0
C344 C 0.79692 0.46892 0.23958 0.0
C345 C 0.47203 0.79943 0.78635 0.0
C346 C 0.51734 0.79759 0.7961 0.0
C347 C 0.46067 0.79925 0.75415 0.0
C348 C 0.49415 0.796 0.7306 0.0
H349 H 0.44528 0.80298 0.80366 0.0
H350 H 0.42543 0.8023 0.74764 0.0
S351 S 0.61756 0.78657 0.74406 0.0
N352 N 0.59573 0.79022 0.77991 0.0
N353 N 0.57435 0.78851 0.71942 0.0
C354 C 0.53944 0.79199 0.74014 0.0
C355 C 0.55104 0.79321 0.77289 0.0
C356 C 0.79994 0.47303 0.7861 0.0
C357 C 0.79916 0.5183 0.79611 0.0
C358 C 0.79973 0.46207 0.75382 0.0
C359 C 0.79753 0.49594 0.7305 0.0
H360 H 0.80252 0.44597 0.80326 0.0
H361 H 0.80174 0.42682 0.74708 0.0
S362 S 0.79168 0.61951 0.74465 0.0
N363 N 0.79427 0.59712 0.78037 0.0
N364 N 0.79262 0.57652 0.71978 0.0
C365 C 0.79485 0.54125 0.7403 0.0
C366 C 0.79604 0.55242 0.7731 0.0
C367 C 0.53827 0.79666 0.28601 0.0
C368 C 0.49293 0.79577 0.29579 0.0
C369 C 0.54958 0.79759 0.25379 0.0
C370 C 0.516 0.79644 0.23025 0.0
H371 H 0.56515 0.79861 0.30333 0.0
H372 H 0.58489 0.79978 0.24727 0.0
S373 S 0.39237 0.79057 0.24364 0.0
N374 N 0.41432 0.79177 0.27952 0.0
N375 N 0.43562 0.79217 0.21901 0.0
C376 C 0.47062 0.79349 0.23975 0.0
C377 C 0.45908 0.79355 0.27253 0.0
C378 C 0.20693 0.46556 0.77314 0.0
C379 C 0.20745 0.49923 0.79661 0.0
C380 C 0.20633 0.47683 0.74094 0.0
C381 C 0.20503 0.52218 0.7311 0.0
H382 H 0.20666 0.43017 0.7797 0.0
H383 H 0.2053 0.4498 0.72369 0.0
S384 S 0.20723 0.62308 0.78307 0.0
N385 N 0.20829 0.57984 0.80774 0.0
N386 N 0.20589 0.60099 0.74723 0.0
C387 C 0.20624 0.55619 0.75428 0.0
C388 C 0.20784 0.54473 0.78704 0.0
C389 C 0.5261 0.23649 0.27617 0.0
C390 C 0.51436 0.20053 0.29616 0.0
C391 C 0.51473 0.23554 0.24393 0.0
C392 C 0.49074 0.19887 0.23095 0.0
H393 H 0.54462 0.26515 0.28542 0.0
H394 H 0.52453 0.26378 0.22915 0.0
S395 S 0.45362 0.09601 0.27405 0.0
N396 N 0.47882 0.12716 0.3012 0.0
N397 N 0.4566 0.12533 0.24088 0.0
C398 C 0.47877 0.16283 0.25102 0.0
C399 C 0.49087 0.16366 0.2836 0.0
C400 C 0.17799 0.434 0.99671 0.0
C401 C 0.19998 0.4685 0.97976 0.0
C402 C 0.1775 0.43351 0.02979 0.0
C403 C 0.19898 0.46751 0.04753 0.0
H404 H 0.16074 0.40696 0.98439 0.0
H405 H 0.15991 0.40612 0.04149 0.0
S406 S 0.26186 0.56553 0.01476 0.0
N407 N 0.24421 0.53763 0.98332 0.0
N408 N 0.2433 0.53672 0.04555 0.0
C409 C 0.22136 0.50222 0.03095 0.0
C410 C 0.22186 0.50271 0.99712 0.0
C411 C 0.57656 0.17375 0.4961 0.0
C412 C 0.54286 0.19647 0.47884 0.0
C413 C 0.57657 0.17352 0.52918 0.0
C414 C 0.54287 0.196 0.5466 0.0
H415 H 0.60333 0.15573 0.48403 0.0
H416 H 0.60335 0.15534 0.54111 0.0
S417 S 0.44698 0.26113 0.51295 0.0
N418 N 0.47484 0.24249 0.48177 0.0
N419 N 0.47485 0.24207 0.54401 0.0
C420 C 0.50895 0.21909 0.52972 0.0
C421 C 0.50895 0.21933 0.49589 0.0
C422 C 0.79098 0.51599 0.02986 0.0
C423 C 0.81262 0.55031 0.04723 0.0
C424 C 0.79138 0.5159 0.99666 0.0
C425 C 0.81341 0.55014 0.97943 0.0
H426 H 0.77381 0.48868 0.04194 0.0
H427 H 0.77446 0.48855 0.98446 0.0
S428 S 0.87407 0.64871 1.01355 0.0
N429 N 0.85593 0.62014 0.04452 0.0
N430 N 0.85669 0.61998 0.98245 0.0
C431 C 0.83479 0.58495 0.99653 0.0
C432 C 0.83439 0.58504 0.03029 0.0
C433 C 0.49299 0.78586 0.53 0.0
C434 C 0.46141 0.81155 0.54726 0.0
C435 C 0.49332 0.78609 0.49678 0.0
C436 C 0.46206 0.81198 0.47941 0.0
H437 H 0.51775 0.76533 0.54219 0.0
H438 H 0.51828 0.76568 0.48467 0.0
S439 S 0.37257 0.8858 0.51317 0.0
N440 N 0.39817 0.86401 0.54425 0.0
N441 N 0.39879 0.86445 0.48219 0.0
C442 C 0.43034 0.83792 0.49639 0.0
C443 C 0.43001 0.8377 0.53016 0.0
C444 C 0.17234 0.57783 0.49676 0.0
C445 C 0.19615 0.5446 0.47977 0.0
C446 C 0.17216 0.5784 0.52985 0.0
C447 C 0.19579 0.54578 0.54754 0.0
H448 H 0.15337 0.60373 0.48447 0.0
H449 H 0.15306 0.60472 0.5416 0.0
S450 S 0.26434 0.45171 0.51463 0.0
N451 N 0.24464 0.47833 0.48324 0.0
N452 N 0.24429 0.47941 0.54546 0.0
C453 C 0.22006 0.51241 0.53091 0.0
C454 C 0.22023 0.51182 0.49709 0.0
C455 C 0.43442 0.17821 0.99614 0.0
C456 C 0.46889 0.20021 0.97918 0.0
C457 C 0.43395 0.17776 0.0292 0.0
C458 C 0.46791 0.19929 0.04694 0.0
H459 H 0.40741 0.16091 0.98385 0.0
H460 H 0.40657 0.16013 0.04088 0.0
S461 S 0.56577 0.26228 0.01416 0.0
N462 N 0.53793 0.24456 0.98272 0.0
N463 N 0.53701 0.24371 0.04497 0.0
C464 C 0.50256 0.22172 0.03037 0.0
C465 C 0.50305 0.22218 0.99653 0.0
C466 C 0.82974 0.43522 0.49678 0.0
C467 C 0.8065 0.46834 0.4793 0.0
C468 C 0.82957 0.43536 0.52986 0.0
C469 C 0.80613 0.46863 0.54708 0.0
H470 H 0.8485 0.40879 0.48488 0.0
H471 H 0.84819 0.40904 0.54197 0.0
S472 S 0.73938 0.56299 0.51281 0.0
N473 N 0.75899 0.53539 0.4818 0.0
N474 N 0.75865 0.53565 0.54404 0.0
C475 C 0.7825 0.50196 0.52997 0.0
C476 C 0.78269 0.50182 0.49613 0.0
C477 C 0.51695 0.79013 0.02983 0.0
C478 C 0.55099 0.81225 0.04717 0.0
C479 C 0.51658 0.79078 0.99663 0.0
C480 C 0.55025 0.81357 0.97933 0.0
H481 H 0.4901 0.77232 0.04195 0.0
H482 H 0.4895 0.77339 0.98448 0.0
S483 S 0.64774 0.87605 1.01331 0.0
N484 N 0.61983 0.85706 0.04433 0.0
N485 N 0.61914 0.85831 0.98226 0.0
C486 C 0.58473 0.83555 0.99639 0.0
C487 C 0.5851 0.83488 0.03016 0.0
C488 C 0.25411 0.28708 0.14957 0.0
C489 C 0.26517 0.33302 0.14582 0.0
C490 C 0.28741 0.25355 0.14946 0.0
C491 C 0.33334 0.26437 0.1456 0.0
H492 H 0.2193 0.27667 0.1525 0.0
H493 H 0.27682 0.21876 0.1523 0.0
S494 S 0.38061 0.3797 0.1352 0.0
N495 N 0.32566 0.38769 0.13841 0.0
N496 N 0.38829 0.32465 0.1382 0.0
C497 C 0.34507 0.31023 0.14209 0.0
C498 C 0.31103 0.3445 0.1422 0.0
C499 C 0.75442 0.2886 0.64787 0.0
C500 C 0.7424 0.33453 0.64608 0.0
C501 C 0.72165 0.25454 0.64755 0.0
C502 C 0.67534 0.26483 0.64543 0.0
H503 H 0.78955 0.27864 0.64933 0.0
H504 H 0.73293 0.21977 0.64881 0.0
S505 S 0.62561 0.37992 0.64097 0.0
N506 N 0.68059 0.3886 0.64267 0.0
N507 N 0.61903 0.32459 0.64207 0.0
C508 C 0.66269 0.31066 0.64393 0.0
C509 C 0.69616 0.34545 0.64425 0.0
C510 C 0.70429 0.66985 0.14368 0.0
C511 C 0.74994 0.68054 0.14913 0.0
C512 C 0.67087 0.70336 0.14363 0.0
C513 C 0.68162 0.74904 0.14903 0.0
H514 H 0.69415 0.63531 0.13913 0.0
H515 H 0.63634 0.69326 0.13905 0.0
S516 S 0.79597 0.79494 0.16561 0.0
N517 N 0.804 0.74021 0.16086 0.0
N518 N 0.7413 0.80306 0.16076 0.0
C519 C 0.72708 0.7602 0.15491 0.0
C520 C 0.76116 0.72604 0.15496 0.0
C521 C 0.30436 0.66985 0.64346 0.0
C522 C 0.2586 0.6817 0.64701 0.0
C523 C 0.33846 0.70273 0.6438 0.0
C524 C 0.32827 0.74887 0.64774 0.0
H525 H 0.31406 0.63488 0.64016 0.0
H526 H 0.37309 0.69178 0.64075 0.0
S527 S 0.21374 0.79782 0.65881 0.0
N528 N 0.205 0.74304 0.65519 0.0
N529 N 0.26885 0.80458 0.65582 0.0
C530 C 0.28264 0.76116 0.65165 0.0
C531 C 0.24793 0.7277 0.65128 0.0
C532 C 0.28713 0.75421 0.37559 0.0
C533 C 0.33301 0.74303 0.3793 0.0
C534 C 0.25355 0.72091 0.37565 0.0
C535 C 0.26428 0.67487 0.37943 0.0
H536 H 0.27683 0.78909 0.37277 0.0
H537 H 0.21879 0.73158 0.37288 0.0
S538 S 0.37948 0.62725 0.38946 0.0
N539 N 0.38753 0.68224 0.38643 0.0
N540 N 0.32443 0.61974 0.38656 0.0
C541 C 0.31009 0.66305 0.38287 0.0
C542 C 0.34438 0.69704 0.38281 0.0
C543 C 0.29142 0.2582 0.87614 0.0
C544 C 0.33742 0.26912 0.87958 0.0
C545 C 0.25802 0.29165 0.87614 0.0
C546 C 0.26897 0.33766 0.87958 0.0
H547 H 0.28085 0.22336 0.87359 0.0
H548 H 0.22319 0.28109 0.87361 0.0
S549 S 0.38452 0.38471 0.88875 0.0
N550 N 0.39231 0.32963 0.88605 0.0
N551 N 0.32948 0.39254 0.88606 0.0
C552 C 0.31489 0.34927 0.88273 0.0
C553 C 0.34905 0.31506 0.88272 0.0
C554 C 0.72179 0.2536 0.37787 0.0
C555 C 0.67554 0.26426 0.37976 0.0
C556 C 0.75488 0.2874 0.37815 0.0
C557 C 0.74324 0.3334 0.38033 0.0
H558 H 0.73276 0.21876 0.37636 0.0
H559 H 0.78995 0.27717 0.37682 0.0
S560 S 0.62676 0.3797 0.38507 0.0
N561 N 0.61973 0.32447 0.38334 0.0
N562 N 0.68183 0.38792 0.38386 0.0
C563 C 0.69706 0.34467 0.38192 0.0
C564 C 0.66329 0.31018 0.38164 0.0
C565 C 0.75779 0.7245 0.87683 0.0
C566 C 0.74671 0.67831 0.87845 0.0
C567 C 0.72426 0.75792 0.87678 0.0
C568 C 0.67813 0.74666 0.87835 0.0
H569 H 0.79275 0.73515 0.87587 0.0
H570 H 0.73477 0.79294 0.87578 0.0
S571 S 0.63076 0.6305 0.88168 0.0
N572 N 0.68594 0.62299 0.88078 0.0
N573 N 0.62306 0.68568 0.88068 0.0
C574 C 0.66646 0.70055 0.87954 0.0
C575 C 0.70065 0.66646 0.8796 0.0
loop_
_geom_bond_atom_site_label_1
_geom_bond_atom_site_label_2
_geom_bond_distance
_geom_bond_site_symmetry_2
_ccdc_geom_bond_type
C0 O2 1.247 . S
C0 O4 1.258 . S
C1 O8 1.247 . S
C1 O9 1.258 . S
O2 C0 1.247 . S
O2 Zn3 2.028 . S
Zn3 O2 2.028 . S
Zn3 O7 2.035 . S
Zn3 O9 2.035 . S
Zn3 O10 2.028 . S
O4 C0 1.258 . S
O4 Zn5 2.035 . S
Zn5 O4 2.035 . S
Zn5 O6 2.028 . S
Zn5 O8 2.028 . S
Zn5 O11 2.035 . S
O6 Zn5 2.028 . S
O6 C12 1.247 . S
O7 Zn3 2.035 . S
O7 C12 1.258 . S
O8 C1 1.247 . S
O8 Zn5 2.028 . S
O9 C1 1.258 . S
O9 Zn3 2.035 . S
O10 Zn3 2.028 . S
O10 C13 1.247 . S
O11 Zn5 2.035 . S
O11 C13 1.258 . S
C12 O6 1.247 . S
C12 O7 1.258 . S
C13 O10 1.247 . S
C13 O11 1.258 . S
C14 O16 1.247 . S
C14 O18 1.258 . S
C15 O22 1.247 . S
C15 O23 1.258 . S
O16 C14 1.247 . S
O16 Zn17 2.028 . S
Zn17 O16 2.028 . S
Zn17 O21 2.035 . S
Zn17 O23 2.035 . S
Zn17 O24 2.028 . S
O18 C14 1.258 . S
O18 Zn19 2.035 . S
Zn19 O18 2.035 . S
Zn19 O20 2.028 . S
Zn19 O22 2.028 . S
Zn19 O25 2.035 . S
O20 Zn19 2.028 . S
O20 C26 1.247 . S
O21 Zn17 2.035 . S
O21 C26 1.258 . S
O22 C15 1.247 . S
O22 Zn19 2.028 . S
O23 C15 1.258 . S
O23 Zn17 2.035 . S
O24 Zn17 2.028 . S
O24 C27 1.247 . S
O25 Zn19 2.035 . S
O25 C27 1.258 . S
C26 O20 1.247 . S
C26 O21 1.258 . S
C27 O24 1.247 . S
C27 O25 1.258 . S
C28 O30 1.247 . S
C28 O32 1.258 . S
C29 O36 1.247 . S
C29 O37 1.258 . S
O30 C28 1.247 . S
O30 Zn31 2.028 . S
Zn31 O30 2.028 . S
Zn31 O35 2.035 . S
Zn31 O37 2.035 . S
Zn31 O38 2.028 . S
O32 C28 1.258 . S
O32 Zn33 2.035 . S
Zn33 O32 2.035 . S
Zn33 O34 2.028 . S
Zn33 O36 2.028 . S
Zn33 O39 2.035 . S
O34 Zn33 2.028 . S
O34 C40 1.247 . S
O35 Zn31 2.035 . S
O35 C40 1.258 . S
O36 C29 1.247 . S
O36 Zn33 2.028 . S
O37 C29 1.258 . S
O37 Zn31 2.035 . S
O38 Zn31 2.028 . S
O38 C41 1.247 . S
O39 Zn33 2.035 . S
O39 C41 1.258 . S
C40 O34 1.247 . S
C40 O35 1.258 . S
C41 O38 1.247 . S
C41 O39 1.258 . S
C42 O44 1.247 . S
C42 O46 1.258 . S
C43 O50 1.247 . S
C43 O51 1.258 . S
O44 C42 1.247 . S
O44 Zn45 2.028 . S
Zn45 O44 2.028 . S
Zn45 O49 2.035 . S
Zn45 O51 2.035 . S
Zn45 O52 2.028 . S
O46 C42 1.258 . S
O46 Zn47 2.035 . S
Zn47 O46 2.035 . S
Zn47 O48 2.028 . S
Zn47 O50 2.028 . S
Zn47 O53 2.035 . S
O48 Zn47 2.028 . S
O48 C54 1.247 . S
O49 Zn45 2.035 . S
O49 C54 1.258 . S
O50 C43 1.247 . S
O50 Zn47 2.028 . S
O51 C43 1.258 . S
O51 Zn45 2.035 . S
O52 Zn45 2.028 . S
O52 C55 1.247 . S
O53 Zn47 2.035 . S
O53 C55 1.258 . S
C54 O48 1.247 . S
C54 O49 1.258 . S
C55 O52 1.247 . S
C55 O53 1.258 . S
C56 O58 1.247 . S
C56 O60 1.258 . S
C57 O64 1.247 . S
C57 O65 1.258 . S
O58 C56 1.247 . S
O58 Zn59 2.028 . S
Zn59 O58 2.028 . S
Zn59 O63 2.035 . S
Zn59 O65 2.035 . S
Zn59 O66 2.028 . S
O60 C56 1.258 . S
O60 Zn61 2.035 . S
Zn61 O60 2.035 . S
Zn61 O62 2.028 . S
Zn61 O64 2.028 . S
Zn61 O67 2.035 . S
O62 Zn61 2.028 . S
O62 C68 1.247 . S
O63 Zn59 2.035 . S
O63 C68 1.258 . S
O64 C57 1.247 . S
O64 Zn61 2.028 . S
O65 C57 1.258 . S
O65 Zn59 2.035 . S
O66 Zn59 2.028 . S
O66 C69 1.247 . S
O67 Zn61 2.035 . S
O67 C69 1.258 . S
C68 O62 1.247 . S
C68 O63 1.258 . S
C69 O66 1.247 . S
C69 O67 1.258 . S
C70 O72 1.247 . S
C70 O74 1.258 . S
C71 O78 1.247 . S
C71 O79 1.258 . S
O72 C70 1.247 . S
O72 Zn73 2.028 . S
Zn73 O72 2.028 . S
Zn73 O77 2.035 . S
Zn73 O79 2.035 . S
Zn73 O80 2.028 . S
O74 C70 1.258 . S
O74 Zn75 2.035 . S
Zn75 O74 2.035 . S
Zn75 O76 2.028 . S
Zn75 O78 2.028 . S
Zn75 O81 2.035 . S
O76 Zn75 2.028 . S
O76 C82 1.247 . S
O77 Zn73 2.035 . S
O77 C82 1.258 . S
O78 C71 1.247 . S
O78 Zn75 2.028 . S
O79 C71 1.258 . S
O79 Zn73 2.035 . S
O80 Zn73 2.028 . S
O80 C83 1.247 . S
O81 Zn75 2.035 . S
O81 C83 1.258 . S
C82 O76 1.247 . S
C82 O77 1.258 . S
C83 O80 1.247 . S
C83 O81 1.258 . S
C84 O86 1.247 . S
C84 O88 1.258 . S
C85 O92 1.247 . S
C85 O93 1.258 . S
O86 C84 1.247 . S
O86 Zn87 2.028 . S
Zn87 O86 2.028 . S
Zn87 O91 2.035 . S
Zn87 O93 2.035 . S
Zn87 O94 2.028 . S
O88 C84 1.258 . S
O88 Zn89 2.035 . S
Zn89 O88 2.035 . S
Zn89 O90 2.028 . S
Zn89 O92 2.028 . S
Zn89 O95 2.035 . S
O90 Zn89 2.028 . S
O90 C96 1.247 . S
O91 Zn87 2.035 . S
O91 C96 1.258 . S
O92 C85 1.247 . S
O92 Zn89 2.028 . S
O93 C85 1.258 . S
O93 Zn87 2.035 . S
O94 Zn87 2.028 . S
O94 C97 1.247 . S
O95 Zn89 2.035 . S
O95 C97 1.258 . S
C96 O90 1.247 . S
C96 O91 1.258 . S
C97 O94 1.247 . S
C97 O95 1.258 . S
C98 O100 1.247 . S
C98 O102 1.258 . S
C99 O106 1.247 . S
C99 O107 1.258 . S
O100 C98 1.247 . S
O100 Zn101 2.028 . S
Zn101 O100 2.028 . S
Zn101 O105 2.035 . S
Zn101 O107 2.035 . S
Zn101 O108 2.028 . S
O102 C98 1.258 . S
O102 Zn103 2.035 . S
Zn103 O102 2.035 . S
Zn103 O104 2.028 . S
Zn103 O106 2.028 . S
Zn103 O109 2.035 . S
O104 Zn103 2.028 . S
O104 C110 1.247 . S
O105 Zn101 2.035 . S
O105 C110 1.258 . S
O106 C99 1.247 . S
O106 Zn103 2.028 . S
O107 C99 1.258 . S
O107 Zn101 2.035 . S
O108 Zn101 2.028 . S
O108 C111 1.247 . S
O109 Zn103 2.035 . S
O109 C111 1.258 . S
C110 O104 1.247 . S
C110 O105 1.258 . S
C111 O108 1.247 . S
C111 O109 1.258 . S
C112 O114 1.247 . S
C112 O116 1.258 . S
C113 O120 1.247 . S
C113 O121 1.258 . S
O114 C112 1.247 . S
O114 Zn115 2.028 . S
Zn115 O114 2.028 . S
Zn115 O119 2.035 . S
Zn115 O121 2.035 . S
Zn115 O122 2.028 . S
O116 C112 1.258 . S
O116 Zn117 2.035 . S
Zn117 O116 2.035 . S
Zn117 O118 2.028 . S
Zn117 O120 2.028 . S
Zn117 O123 2.035 . S
O118 Zn117 2.028 . S
O118 C124 1.247 . S
O119 Zn115 2.035 . S
O119 C124 1.258 . S
O120 C113 1.247 . S
O120 Zn117 2.028 . S
O121 C113 1.258 . S
O121 Zn115 2.035 . S
O122 Zn115 2.028 . S
O122 C125 1.247 . S
O123 Zn117 2.035 . S
O123 C125 1.258 . S
C124 O118 1.247 . S
C124 O119 1.258 . S
C125 O122 1.247 . S
C125 O123 1.258 . S
C126 O128 1.247 . S
C126 O130 1.258 . S
C127 O134 1.247 . S
C127 O135 1.258 . S
O128 C126 1.247 . S
O128 Zn129 2.028 . S
Zn129 O128 2.028 . S
Zn129 O133 2.035 . S
Zn129 O135 2.035 . S
Zn129 O136 2.028 . S
O130 C126 1.258 . S
O130 Zn131 2.035 . S
Zn131 O130 2.035 . S
Zn131 O132 2.028 . S
Zn131 O134 2.028 . S
Zn131 O137 2.035 . S
O132 Zn131 2.028 . S
O132 C138 1.247 . S
O133 Zn129 2.035 . S
O133 C138 1.258 . S
O134 C127 1.247 . S
O134 Zn131 2.028 . S
O135 C127 1.258 . S
O135 Zn129 2.035 . S
O136 Zn129 2.028 . S
O136 C139 1.247 . S
O137 Zn131 2.035 . S
O137 C139 1.258 . S
C138 O132 1.247 . S
C138 O133 1.258 . S
C139 O136 1.247 . S
C139 O137 1.258 . S
C140 O142 1.247 . S
C140 O144 1.258 . S
C141 O148 1.247 . S
C141 O149 1.258 . S
O142 C140 1.247 . S
O142 Zn143 2.028 . S
Zn143 O142 2.028 . S
Zn143 O147 2.035 . S
Zn143 O149 2.035 . S
Zn143 O150 2.028 . S
O144 C140 1.258 . S
O144 Zn145 2.035 . S
Zn145 O144 2.035 . S
Zn145 O146 2.028 . S
Zn145 O148 2.028 . S
Zn145 O151 2.035 . S
O146 Zn145 2.028 . S
O146 C152 1.247 . S
O147 Zn143 2.035 . S
O147 C152 1.258 . S
O148 C141 1.247 . S
O148 Zn145 2.028 . S
O149 C141 1.258 . S
O149 Zn143 2.035 . S
O150 Zn143 2.028 . S
O150 C153 1.247 . S
O151 Zn145 2.035 . S
O151 C153 1.258 . S
C152 O146 1.247 . S
C152 O147 1.258 . S
C153 O150 1.247 . S
C153 O151 1.258 . S
C154 O156 1.247 . S
C154 O158 1.258 . S
C155 O162 1.247 . S
C155 O163 1.258 . S
O156 C154 1.247 . S
O156 Zn157 2.028 . S
Zn157 O156 2.028 . S
Zn157 O161 2.035 . S
Zn157 O163 2.035 . S
Zn157 O164 2.028 . S
O158 C154 1.258 . S
O158 Zn159 2.035 . S
Zn159 O158 2.035 . S
Zn159 O160 2.028 . S
Zn159 O162 2.028 . S
Zn159 O165 2.035 . S
O160 Zn159 2.028 . S
O160 C166 1.247 . S
O161 Zn157 2.035 . S
O161 C166 1.258 . S
O162 C155 1.247 . S
O162 Zn159 2.028 . S
O163 C155 1.258 . S
O163 Zn157 2.035 . S
O164 Zn157 2.028 . S
O164 C167 1.247 . S
O165 Zn159 2.035 . S
O165 C167 1.258 . S
C166 O160 1.247 . S
C166 O161 1.258 . S
C167 O164 1.247 . S
C167 O165 1.258 . S
C168 O170 1.247 . S
C168 O172 1.258 . S
C169 O176 1.247 . S
C169 O177 1.258 . S
O170 C168 1.247 . S
O170 Zn171 2.028 . S
Zn171 O170 2.028 . S
Zn171 O175 2.035 . S
Zn171 O177 2.035 . S
Zn171 O178 2.028 . S
O172 C168 1.258 . S
O172 Zn173 2.035 . S
Zn173 O172 2.035 . S
Zn173 O174 2.028 . S
Zn173 O176 2.028 . S
Zn173 O179 2.035 . S
O174 Zn173 2.028 . S
O174 C180 1.247 . S
O175 Zn171 2.035 . S
O175 C180 1.258 . S
O176 C169 1.247 . S
O176 Zn173 2.028 . S
O177 C169 1.258 . S
O177 Zn171 2.035 . S
O178 Zn171 2.028 . S
O178 C181 1.247 . S
O179 Zn173 2.035 . S
O179 C181 1.258 . S
C180 O174 1.247 . S
C180 O175 1.258 . S
C181 O178 1.247 . S
C181 O179 1.258 . S
C182 O184 1.247 . S
C182 O186 1.258 . S
C183 O190 1.247 . S
C183 O191 1.258 . S
O184 C182 1.247 . S
O184 Zn185 2.028 . S
Zn185 O184 2.028 . S
Zn185 O189 2.035 . S
Zn185 O191 2.035 . S
Zn185 O192 2.028 . S
O186 C182 1.258 . S
O186 Zn187 2.035 . S
Zn187 O186 2.035 . S
Zn187 O188 2.028 . S
Zn187 O190 2.028 . S
Zn187 O193 2.035 . S
O188 Zn187 2.028 . S
O188 C194 1.247 . S
O189 Zn185 2.035 . S
O189 C194 1.258 . S
O190 C183 1.247 . S
O190 Zn187 2.028 . S
O191 C183 1.258 . S
O191 Zn185 2.035 . S
O192 Zn185 2.028 . S
O192 C195 1.247 . S
O193 Zn187 2.035 . S
O193 C195 1.258 . S
C194 O188 1.247 . S
C194 O189 1.258 . S
C195 O192 1.247 . S
C195 O193 1.258 . S
C196 O198 1.247 . S
C196 O200 1.258 . S
C197 O204 1.247 . S
C197 O205 1.258 . S
O198 C196 1.247 . S
O198 Zn199 2.028 . S
Zn199 O198 2.028 . S
Zn199 O203 2.035 . S
Zn199 O205 2.035 . S
Zn199 O206 2.028 . S
O200 C196 1.258 . S
O200 Zn201 2.035 . S
Zn201 O200 2.035 . S
Zn201 O202 2.028 . S
Zn201 O204 2.028 . S
Zn201 O207 2.035 . S
O202 Zn201 2.028 . S
O202 C208 1.247 . S
O203 Zn199 2.035 . S
O203 C208 1.258 . S
O204 C197 1.247 . S
O204 Zn201 2.028 . S
O205 C197 1.258 . S
O205 Zn199 2.035 . S
O206 Zn199 2.028 . S
O206 C209 1.247 . S
O207 Zn201 2.035 . S
O207 C209 1.258 . S
C208 O202 1.247 . S
C208 O203 1.258 . S
C209 O206 1.247 . S
C209 O207 1.258 . S
C210 O212 1.247 . S
C210 O214 1.258 . S
C211 O218 1.247 . S
C211 O219 1.258 . S
O212 C210 1.247 . S
O212 Zn213 2.028 . S
Zn213 O212 2.028 . S
Zn213 O217 2.035 . S
Zn213 O219 2.035 . S
Zn213 O220 2.028 . S
O214 C210 1.258 . S
O214 Zn215 2.035 . S
Zn215 O214 2.035 . S
Zn215 O216 2.028 . S
Zn215 O218 2.028 . S
Zn215 O221 2.035 . S
O216 Zn215 2.028 . S
O216 C222 1.247 . S
O217 Zn213 2.035 . S
O217 C222 1.258 . S
O218 C211 1.247 . S
O218 Zn215 2.028 . S
O219 C211 1.258 . S
O219 Zn213 2.035 . S
O220 Zn213 2.028 . S
O220 C223 1.247 . S
O221 Zn215 2.035 . S
O221 C223 1.258 . S
C222 O216 1.247 . S
C222 O217 1.258 . S
C223 O220 1.247 . S
C223 O221 1.258 . S
C224 C225 1.369 . S
C224 C226 1.419 1_455 S
C224 H228 0.930 . S
C225 C224 1.369 . S
C225 C234 1.429 . S
C226 C224 1.419 1_655 S
C226 C227 1.363 . S
C226 H229 0.929 . S
C227 C226 1.363 . S
C227 C233 1.428 . S
H228 C224 0.930 . S
H229 C226 0.929 . S
S230 N231 1.630 . S
S230 N232 1.593 1_455 S
N231 S230 1.630 . S
N231 C234 1.350 . S
N232 S230 1.593 1_655 S
N232 C233 1.351 . S
C233 C227 1.428 . S
C233 N232 1.351 . S
C233 C234 1.434 1_655 S
C234 C225 1.429 . S
C234 N231 1.350 . S
C234 C233 1.434 1_455 S
C235 C236 1.369 . S
C235 C237 1.419 1_565 S
C235 H239 0.930 . S
C236 C235 1.369 . S
C236 C245 1.429 . S
C237 C235 1.419 1_545 S
C237 C238 1.363 . S
C237 H240 0.929 . S
C238 C237 1.363 . S
C238 C244 1.428 . S
H239 C235 0.930 . S
H240 C237 0.929 . S
S241 N242 1.613 1_545 S
S241 N243 1.610 . S
N242 S241 1.613 1_565 S
N242 C245 1.350 . S
N243 S241 1.610 . S
N243 C244 1.351 . S
C244 C238 1.428 . S
C244 N243 1.351 . S
C244 C245 1.434 1_545 S
C245 C236 1.429 . S
C245 N242 1.350 . S
C245 C244 1.434 1_565 S
C246 C247 1.369 . S
C246 C248 1.419 1_455 S
C246 H250 0.930 . S
C247 C246 1.369 . S
C247 C256 1.429 . S
C248 C246 1.419 1_655 S
C248 C249 1.363 . S
C248 H251 0.929 . S
C249 C248 1.363 . S
C249 C255 1.428 . S
H250 C246 0.930 . S
H251 C248 0.929 . S
S252 N253 1.613 . S
S252 N254 1.610 1_455 S
N253 S252 1.613 . S
N253 C256 1.350 . S
N254 S252 1.610 1_655 S
N254 C255 1.351 . S
C255 C249 1.428 . S
C255 N254 1.351 . S
C255 C256 1.434 1_655 S
C256 C247 1.429 . S
C256 N253 1.350 . S
C256 C255 1.434 1_455 S
C257 C258 1.369 . S
C257 C259 1.419 1_565 S
C257 H261 0.930 . S
C258 C257 1.369 . S
C258 C267 1.429 . S
C259 C257 1.419 1_545 S
C259 C260 1.363 . S
C259 H262 0.929 . S
C260 C259 1.363 . S
C260 C266 1.428 . S
H261 C257 0.930 . S
H262 C259 0.929 . S
S263 N264 1.613 1_545 S
S263 N265 1.610 . S
N264 S263 1.613 1_565 S
N264 C267 1.350 . S
N265 S263 1.610 . S
N265 C266 1.351 . S
C266 C260 1.428 . S
C266 N265 1.351 . S
C266 C267 1.434 1_545 S
C267 C258 1.429 . S
C267 N264 1.350 . S
C267 C266 1.434 1_565 S
C268 C269 1.369 . S
C268 C270 1.419 1_655 S
C268 H272 0.930 . S
C269 C268 1.369 . S
C269 C278 1.429 . S
C270 C268 1.419 1_455 S
C270 C271 1.363 . S
C270 H273 0.929 . S
C271 C270 1.363 . S
C271 C277 1.428 . S
H272 C268 0.930 . S
H273 C270 0.929 . S
S274 N275 1.599 1_455 S
S274 N276 1.624 . S
N275 S274 1.599 1_655 S
N275 C278 1.350 . S
N276 S274 1.624 . S
N276 C277 1.351 . S
C277 C271 1.428 . S
C277 N276 1.351 . S
C277 C278 1.434 1_455 S
C278 C269 1.429 . S
C278 N275 1.350 . S
C278 C277 1.434 1_655 S
C279 C280 1.369 . S
C279 C281 1.419 1_545 S
C279 H283 0.930 . S
C280 C279 1.369 . S
C280 C289 1.429 . S
C281 C279 1.419 1_565 S
C281 C282 1.363 . S
C281 H284 0.929 . S
C282 C281 1.363 . S
C282 C288 1.428 . S
H283 C279 0.930 . S
H284 C281 0.929 . S
S285 N286 1.631 . S
S285 N287 1.592 1_545 S
N286 S285 1.631 . S
N286 C289 1.350 . S
N287 S285 1.592 1_565 S
N287 C288 1.351 . S
C288 C282 1.428 . S
C288 N287 1.351 . S
C288 C289 1.434 1_565 S
C289 C280 1.429 . S
C289 N286 1.350 . S
C289 C288 1.434 1_545 S
C290 C291 1.369 . S
C290 C292 1.419 1_655 S
C290 H294 0.930 . S
C291 C290 1.369 . S
C291 C300 1.429 . S
C292 C290 1.419 1_455 S
C292 C293 1.363 . S
C292 H295 0.929 . S
C293 C292 1.363 . S
C293 C299 1.428 . S
H294 C290 0.930 . S
H295 C292 0.929 . S
S296 N297 1.613 1_455 S
S296 N298 1.610 . S
N297 S296 1.613 1_655 S
N297 C300 1.350 . S
N298 S296 1.610 . S
N298 C299 1.351 . S
C299 C293 1.428 . S
C299 N298 1.351 . S
C299 C300 1.434 1_455 S
C300 C291 1.429 . S
C300 N297 1.350 . S
C300 C299 1.434 1_655 S
C301 C302 1.369 . S
C301 C303 1.419 1_545 S
C301 H305 0.930 . S
C302 C301 1.369 . S
C302 C311 1.429 . S
C303 C301 1.419 1_565 S
C303 C304 1.363 . S
C303 H306 0.929 . S
C304 C303 1.363 . S
C304 C310 1.428 . S
H305 C301 0.930 . S
H306 C303 0.929 . S
S307 N308 1.630 . S
S307 N309 1.593 1_545 S
N308 S307 1.630 . S
N308 C311 1.350 . S
N309 S307 1.593 1_565 S
N309 C310 1.351 . S
C310 C304 1.428 . S
C310 N309 1.351 . S
C310 C311 1.434 1_565 S
C311 C302 1.429 . S
C311 N308 1.350 . S
C311 C310 1.434 1_545 S
C312 C313 1.369 . S
C312 C314 1.419 . S
C312 H316 0.930 . S
C313 C312 1.369 . S
C313 C322 1.429 . S
C314 C312 1.419 . S
C314 C315 1.363 . S
C314 H317 0.929 . S
C315 C314 1.363 . S
C315 C321 1.428 . S
H316 C312 0.930 . S
H317 C314 0.929 . S
S318 N319 1.613 . S
S318 N320 1.610 . S
N319 S318 1.613 . S
N319 C322 1.350 . S
N320 S318 1.610 . S
N320 C321 1.351 . S
C321 C315 1.428 . S
C321 N320 1.351 . S
C321 C322 1.434 . S
C322 C313 1.429 . S
C322 N319 1.350 . S
C322 C321 1.434 . S
C323 C324 1.369 . S
C323 C325 1.419 . S
C323 H327 0.930 . S
C324 C323 1.369 . S
C324 C333 1.429 . S
C325 C323 1.419 . S
C325 C326 1.363 . S
C325 H328 0.929 . S
C326 C325 1.363 . S
C326 C332 1.428 . S
H327 C323 0.930 . S
H328 C325 0.929 . S
S329 N330 1.613 . S
S329 N331 1.610 . S
N330 S329 1.613 . S
N330 C333 1.350 . S
N331 S329 1.610 . S
N331 C332 1.351 . S
C332 C326 1.428 . S
C332 N331 1.351 . S
C332 C333 1.434 . S
C333 C324 1.429 . S
C333 N330 1.350 . S
C333 C332 1.434 . S
C334 C335 1.369 . S
C334 C336 1.419 . S
C334 H338 0.930 . S
C335 C334 1.369 . S
C335 C344 1.429 . S
C336 C334 1.419 . S
C336 C337 1.363 . S
C336 H339 0.929 . S
C337 C336 1.363 . S
C337 C343 1.428 . S
H338 C334 0.930 . S
H339 C336 0.929 . S
S340 N341 1.613 . S
S340 N342 1.610 . S
N341 S340 1.613 . S
N341 C344 1.350 . S
N342 S340 1.610 . S
N342 C343 1.351 . S
C343 C337 1.428 . S
C343 N342 1.351 . S
C343 C344 1.434 . S
C344 C335 1.429 . S
C344 N341 1.350 . S
C344 C343 1.434 . S
C345 C346 1.369 . S
C345 C347 1.419 . S
C345 H349 0.930 . S
C346 C345 1.369 . S
C346 C355 1.429 . S
C347 C345 1.419 . S
C347 C348 1.363 . S
C347 H350 0.929 . S
C348 C347 1.363 . S
C348 C354 1.428 . S
H349 C345 0.930 . S
H350 C347 0.929 . S
S351 N352 1.613 . S
S351 N353 1.610 . S
N352 S351 1.613 . S
N352 C355 1.350 . S
N353 S351 1.610 . S
N353 C354 1.351 . S
C354 C348 1.428 . S
C354 N353 1.351 . S
C354 C355 1.434 . S
C355 C346 1.429 . S
C355 N352 1.350 . S
C355 C354 1.434 . S
C356 C357 1.369 . S
C356 C358 1.419 . S
C356 H360 0.930 . S
C357 C356 1.369 . S
C357 C366 1.429 . S
C358 C356 1.419 . S
C358 C359 1.363 . S
C358 H361 0.929 . S
C359 C358 1.363 . S
C359 C365 1.428 . S
H360 C356 0.930 . S
H361 C358 0.929 . S
S362 N363 1.613 . S
S362 N364 1.610 . S
N363 S362 1.613 . S
N363 C366 1.350 . S
N364 S362 1.610 . S
N364 C365 1.351 . S
C365 C359 1.428 . S
C365 N364 1.351 . S
C365 C366 1.434 . S
C366 C357 1.429 . S
C366 N363 1.350 . S
C366 C365 1.434 . S
C367 C368 1.369 . S
C367 C369 1.419 . S
C367 H371 0.930 . S
C368 C367 1.369 . S
C368 C377 1.429 . S
C369 C367 1.419 . S
C369 C370 1.363 . S
C369 H372 0.929 . S
C370 C369 1.363 . S
C370 C376 1.428 . S
H371 C367 0.930 . S
H372 C369 0.929 . S
S373 N374 1.613 . S
S373 N375 1.610 . S
N374 S373 1.613 . S
N374 C377 1.350 . S
N375 S373 1.610 . S
N375 C376 1.351 . S
C376 C370 1.428 . S
C376 N375 1.351 . S
C376 C377 1.434 . S
C377 C368 1.429 . S
C377 N374 1.350 . S
C377 C376 1.434 . S
C378 C379 1.369 . S
C378 C380 1.419 . S
C378 H382 0.930 . S
C379 C378 1.369 . S
C379 C388 1.429 . S
C380 C378 1.419 . S
C380 C381 1.363 . S
C380 H383 0.929 . S
C381 C380 1.363 . S
C381 C387 1.428 . S
H382 C378 0.930 . S
H383 C380 0.929 . S
S384 N385 1.613 . S
S384 N386 1.610 . S
N385 S384 1.613 . S
N385 C388 1.350 . S
N386 S384 1.610 . S
N386 C387 1.351 . S
C387 C381 1.428 . S
C387 N386 1.351 . S
C387 C388 1.434 . S
C388 C379 1.429 . S
C388 N385 1.350 . S
C388 C387 1.434 . S
C389 C390 1.369 . S
C389 C391 1.419 . S
C389 H393 0.930 . S
C390 C389 1.369 . S
C390 C399 1.429 . S
C391 C389 1.419 . S
C391 C392 1.363 . S
C391 H394 0.929 . S
C392 C391 1.363 . S
C392 C398 1.428 . S
H393 C389 0.930 . S
H394 C391 0.929 . S
S395 N396 1.613 . S
S395 N397 1.610 . S
N396 S395 1.613 . S
N396 C399 1.350 . S
N397 S395 1.610 . S
N397 C398 1.351 . S
C398 C392 1.428 . S
C398 N397 1.351 . S
C398 C399 1.434 . S
C399 C390 1.429 . S
C399 N396 1.350 . S
C399 C398 1.434 . S
C400 C401 1.369 . S
C400 C402 1.419 1_556 S
C400 H404 0.930 . S
C401 C400 1.369 . S
C401 C410 1.429 . S
C402 C400 1.419 1_554 S
C402 C403 1.363 . S
C402 H405 0.929 . S
C403 C402 1.363 . S
C403 C409 1.428 . S
H404 C400 0.930 . S
H405 C402 0.929 . S
S406 N407 1.616 1_554 S
S406 N408 1.608 . S
N407 S406 1.616 1_556 S
N407 C410 1.350 . S
N408 S406 1.608 . S
N408 C409 1.351 . S
C409 C403 1.428 . S
C409 N408 1.351 . S
C409 C410 1.434 1_554 S
C410 C401 1.429 . S
C410 N407 1.350 . S
C410 C409 1.434 1_556 S
C411 C412 1.369 . S
C411 C413 1.419 . S
C411 H415 0.930 . S
C412 C411 1.369 . S
C412 C421 1.429 . S
C413 C411 1.419 . S
C413 C414 1.363 . S
C413 H416 0.929 . S
C414 C413 1.363 . S
C414 C420 1.428 . S
H415 C411 0.930 . S
H416 C413 0.929 . S
S417 N418 1.613 . S
S417 N419 1.610 . S
N418 S417 1.613 . S
N418 C421 1.350 . S
N419 S417 1.610 . S
N419 C420 1.351 . S
C420 C414 1.428 . S
C420 N419 1.351 . S
C420 C421 1.434 . S
C421 C412 1.429 . S
C421 N418 1.350 . S
C421 C420 1.434 . S
C422 C423 1.369 . S
C422 C424 1.419 1_554 S
C422 H426 0.930 . S
C423 C422 1.369 . S
C423 C432 1.429 . S
C424 C422 1.419 1_556 S
C424 C425 1.363 . S
C424 H427 0.929 . S
C425 C424 1.363 . S
C425 C431 1.428 . S
H426 C422 0.930 . S
H427 C424 0.929 . S
S428 N429 1.616 1_556 S
S428 N430 1.608 . S
N429 S428 1.616 1_554 S
N429 C432 1.350 . S
N430 S428 1.608 . S
N430 C431 1.351 . S
C431 C425 1.428 . S
C431 N430 1.351 . S
C431 C432 1.434 1_556 S
C432 C423 1.429 . S
C432 N429 1.350 . S
C432 C431 1.434 1_554 S
C433 C434 1.369 . S
C433 C435 1.419 . S
C433 H437 0.930 . S
C434 C433 1.369 . S
C434 C443 1.429 . S
C435 C433 1.419 . S
C435 C436 1.363 . S
C435 H438 0.929 . S
C436 C435 1.363 . S
C436 C442 1.428 . S
H437 C433 0.930 . S
H438 C435 0.929 . S
S439 N440 1.613 . S
S439 N441 1.610 . S
N440 S439 1.613 . S
N440 C443 1.350 . S
N441 S439 1.610 . S
N441 C442 1.351 . S
C442 C436 1.428 . S
C442 N441 1.351 . S
C442 C443 1.434 . S
C443 C434 1.429 . S
C443 N440 1.350 . S
C443 C442 1.434 . S
C444 C445 1.369 . S
C444 C446 1.419 . S
C444 H448 0.930 . S
C445 C444 1.369 . S
C445 C454 1.429 . S
C446 C444 1.419 . S
C446 C447 1.363 . S
C446 H449 0.929 . S
C447 C446 1.363 . S
C447 C453 1.428 . S
H448 C444 0.930 . S
H449 C446 0.929 . S
S450 N451 1.613 . S
S450 N452 1.610 . S
N451 S450 1.613 . S
N451 C454 1.350 . S
N452 S450 1.610 . S
N452 C453 1.351 . S
C453 C447 1.428 . S
C453 N452 1.351 . S
C453 C454 1.434 . S
C454 C445 1.429 . S
C454 N451 1.350 . S
C454 C453 1.434 . S
C455 C456 1.369 . S
C455 C457 1.419 1_556 S
C455 H459 0.930 . S
C456 C455 1.369 . S
C456 C465 1.429 . S
C457 C455 1.419 1_554 S
C457 C458 1.363 . S
C457 H460 0.929 . S
C458 C457 1.363 . S
C458 C464 1.428 . S
H459 C455 0.930 . S
H460 C457 0.929 . S
S461 N462 1.616 1_554 S
S461 N463 1.608 . S
N462 S461 1.616 1_556 S
N462 C465 1.350 . S
N463 S461 1.608 . S
N463 C464 1.351 . S
C464 C458 1.428 . S
C464 N463 1.351 . S
C464 C465 1.434 1_554 S
C465 C456 1.429 . S
C465 N462 1.350 . S
C465 C464 1.434 1_556 S
C466 C467 1.369 . S
C466 C468 1.419 . S
C466 H470 0.930 . S
C467 C466 1.369 . S
C467 C476 1.429 . S
C468 C466 1.419 . S
C468 C469 1.363 . S
C468 H471 0.929 . S
C469 C468 1.363 . S
C469 C475 1.428 . S
H470 C466 0.930 . S
H471 C468 0.929 . S
S472 N473 1.613 . S
S472 N474 1.610 . S
N473 S472 1.613 . S
N473 C476 1.350 . S
N474 S472 1.610 . S
N474 C475 1.351 . S
C475 C469 1.428 . S
C475 N474 1.351 . S
C475 C476 1.434 . S
C476 C467 1.429 . S
C476 N473 1.350 . S
C476 C475 1.434 . S
C477 C478 1.369 . S
C477 C479 1.419 1_554 S
C477 H481 0.930 . S
C478 C477 1.369 . S
C478 C487 1.429 . S
C479 C477 1.419 1_556 S
C479 C480 1.363 . S
C479 H482 0.929 . S
C480 C479 1.363 . S
C480 C486 1.428 . S
H481 C477 0.930 . S
H482 C479 0.929 . S
S483 N484 1.616 1_556 S
S483 N485 1.608 . S
N484 S483 1.616 1_554 S
N484 C487 1.350 . S
N485 S483 1.608 . S
N485 C486 1.351 . S
C486 C480 1.428 . S
C486 N485 1.351 . S
C486 C487 1.434 1_556 S
C487 C478 1.429 . S
C487 N484 1.350 . S
C487 C486 1.434 1_554 S
C488 C489 1.369 . S
C488 C490 1.419 . S
C488 H492 0.930 . S
C489 C488 1.369 . S
C489 C498 1.429 . S
C490 C488 1.419 . S
C490 C491 1.363 . S
C490 H493 0.929 . S
C491 C490 1.363 . S
C491 C497 1.428 . S
H492 C488 0.930 . S
H493 C490 0.929 . S
S494 N495 1.613 . S
S494 N496 1.610 . S
N495 S494 1.613 . S
N495 C498 1.350 . S
N496 S494 1.610 . S
N496 C497 1.351 . S
C497 C491 1.428 . S
C497 N496 1.351 . S
C497 C498 1.434 . S
C498 C489 1.429 . S
C498 N495 1.350 . S
C498 C497 1.434 . S
C499 C500 1.369 . S
C499 C501 1.419 . S
C499 H503 0.930 . S
C500 C499 1.369 . S
C500 C509 1.429 . S
C501 C499 1.419 . S
C501 C502 1.363 . S
C501 H504 0.929 . S
C502 C501 1.363 . S
C502 C508 1.428 . S
H503 C499 0.930 . S
H504 C501 0.929 . S
S505 N506 1.613 . S
S505 N507 1.610 . S
N506 S505 1.613 . S
N506 C509 1.350 . S
N507 S505 1.610 . S
N507 C508 1.351 . S
C508 C502 1.428 . S
C508 N507 1.351 . S
C508 C509 1.434 . S
C509 C500 1.429 . S
C509 N506 1.350 . S
C509 C508 1.434 . S
C510 C511 1.369 . S
C510 C512 1.419 . S
C510 H514 0.930 . S
C511 C510 1.369 . S
C511 C520 1.429 . S
C512 C510 1.419 . S
C512 C513 1.363 . S
C512 H515 0.929 . S
C513 C512 1.363 . S
C513 C519 1.428 . S
H514 C510 0.930 . S
H515 C512 0.929 . S
S516 N517 1.613 . S
S516 N518 1.610 . S
N517 S516 1.613 . S
N517 C520 1.350 . S
N518 S516 1.610 . S
N518 C519 1.351 . S
C519 C513 1.428 . S
C519 N518 1.351 . S
C519 C520 1.434 . S
C520 C511 1.429 . S
C520 N517 1.350 . S
C520 C519 1.434 . S
C521 C522 1.369 . S
C521 C523 1.419 . S
C521 H525 0.930 . S
C522 C521 1.369 . S
C522 C531 1.429 . S
C523 C521 1.419 . S
C523 C524 1.363 . S
C523 H526 0.929 . S
C524 C523 1.363 . S
C524 C530 1.428 . S
H525 C521 0.930 . S
H526 C523 0.929 . S
S527 N528 1.613 . S
S527 N529 1.610 . S
N528 S527 1.613 . S
N528 C531 1.350 . S
N529 S527 1.610 . S
N529 C530 1.351 . S
C530 C524 1.428 . S
C530 N529 1.351 . S
C530 C531 1.434 . S
C531 C522 1.429 . S
C531 N528 1.350 . S
C531 C530 1.434 . S
C532 C533 1.369 . S
C532 C534 1.419 . S
C532 H536 0.930 . S
C533 C532 1.369 . S
C533 C542 1.429 . S
C534 C532 1.419 . S
C534 C535 1.363 . S
C534 H537 0.929 . S
C535 C534 1.363 . S
C535 C541 1.428 . S
H536 C532 0.930 . S
H537 C534 0.929 . S
S538 N539 1.613 . S
S538 N540 1.610 . S
N539 S538 1.613 . S
N539 C542 1.350 . S
N540 S538 1.610 . S
N540 C541 1.351 . S
C541 C535 1.428 . S
C541 N540 1.351 . S
C541 C542 1.434 . S
C542 C533 1.429 . S
C542 N539 1.350 . S
C542 C541 1.434 . S
C543 C544 1.369 . S
C543 C545 1.419 . S
C543 H547 0.930 . S
C544 C543 1.369 . S
C544 C553 1.429 . S
C545 C543 1.419 . S
C545 C546 1.363 . S
C545 H548 0.929 . S
C546 C545 1.363 . S
C546 C552 1.428 . S
H547 C543 0.930 . S
H548 C545 0.929 . S
S549 N550 1.613 . S
S549 N551 1.610 . S
N550 S549 1.613 . S
N550 C553 1.350 . S
N551 S549 1.610 . S
N551 C552 1.351 . S
C552 C546 1.428 . S
C552 N551 1.351 . S
C552 C553 1.434 . S
C553 C544 1.429 . S
C553 N550 1.350 . S
C553 C552 1.434 . S
C554 C555 1.369 . S
C554 C556 1.419 . S
C554 H558 0.930 . S
C555 C554 1.369 . S
C555 C564 1.429 . S
C556 C554 1.419 . S
C556 C557 1.363 . S
C556 H559 0.929 . S
C557 C556 1.363 . S
C557 C563 1.428 . S
H558 C554 0.930 . S
H559 C556 0.929 . S
S560 N561 1.613 . S
S560 N562 1.610 . S
N561 S560 1.613 . S
N561 C564 1.350 . S
N562 S560 1.610 . S
N562 C563 1.351 . S
C563 C557 1.428 . S
C563 N562 1.351 . S
C563 C564 1.434 . S
C564 C555 1.429 . S
C564 N561 1.350 . S
C564 C563 1.434 . S
C565 C566 1.369 . S
C565 C567 1.419 . S
C565 H569 0.930 . S
C566 C565 1.369 . S
C566 C575 1.429 . S
C567 C565 1.419 . S
C567 C568 1.363 . S
C567 H570 0.929 . S
C568 C567 1.363 . S
C568 C574 1.428 . S
H569 C565 0.930 . S
H570 C567 0.929 . S
S571 N572 1.613 . S
S571 N573 1.610 . S
N572 S571 1.613 . S
N572 C575 1.350 . S
N573 S571 1.610 . S
N573 C574 1.351 . S
C574 C568 1.428 . S
C574 N573 1.351 . S
C574 C575 1.434 . S
C575 C566 1.429 . S
C575 N572 1.350 . S
C575 C574 1.434 . S
C225 C0 1.732 . S
C227 C41 1.740 . S
C236 C54 1.738 . S
C238 C26 1.732 . S
C247 C69 1.733 . S
C249 C96 1.737 . S
C258 C111 1.741 . S
C260 C82 1.733 . S
C269 C124 1.737 . S
C271 C152 1.737 . S
C280 C166 1.738 . S
C282 C139 1.736 . S
C291 C181 1.737 . S
C293 C208 1.735 . S
C302 C210 1.734 . S
C304 C183 1.736 . S
C313 C56 1.601 . S
C315 C13 1.607 . S
C324 C15 1.606 . S
C326 C71 1.604 . S
C335 C28 1.601 . S
C337 C85 1.607 . S
C346 C98 1.605 . S
C348 C43 1.604 . S
C357 C113 1.606 . S
C359 C168 1.604 . S
C368 C126 1.607 . S
C370 C194 1.603 . S
C379 C141 1.602 . S
C381 C197 1.606 . S
C390 C155 1.605 . S
C392 C223 1.604 . S
C401 C140 1.573 . S
C403 C12 1.573 . S
C412 C154 1.576 . S
C414 C14 1.575 . S
C423 C29 1.576 . S
C425 C112 1.576 . S
C434 C42 1.573 . S
C436 C127 1.573 . S
C445 C57 1.576 . S
C447 C196 1.576 . S
C456 C70 1.573 . S
C458 C222 1.574 . S
C467 C84 1.575 . S
C469 C169 1.575 . S
C478 C195 1.574 . S
C480 C99 1.575 . S
C489 C1 1.670 . S
C491 C211 1.668 . S
C500 C180 1.669 . S
C502 C27 1.670 . S
C511 C40 1.667 . S
C513 C182 1.669 . S
C522 C209 1.668 . S
C524 C55 1.669 . S
C533 C138 1.672 . S
C535 C68 1.670 . S
C544 C83 1.671 . S
C546 C153 1.670 . S
C555 C167 1.669 . S
C557 C97 1.670 . S
C566 C125 1.667 . S
C568 C110 1.668 . S
