# Generated by pormake.
# Topology usf, (4)-cn, num edge types: 1
# Building blocks:
#     Node 0, Type 0, BuildingBlock: NAWXER_clean_sbu_0, # of connection points: 4
#     Node 1, Type 0, BuildingBlock: NAWXER_clean_sbu_0, # of connection points: 4
#     Node 2, Type 0, BuildingBlock: NAWXER_clean_sbu_0, # of connection points: 4
#     Node 3, Type 0, BuildingBlock: NAWXER_clean_sbu_0, # of connection points: 4
#     Node 4, Type 0, BuildingBlock: NAWXER_clean_sbu_0, # of connection points: 4
#     Node 5, Type 0, BuildingBlock: NAWXER_clean_sbu_0, # of connection points: 4
#     Node 6, Type 0, BuildingBlock: NAWXER_clean_sbu_0, # of connection points: 4
#     Node 7, Type 0, BuildingBlock: NAWXER_clean_sbu_0, # of connection points: 4
#     Node 8, Type 0, BuildingBlock: NAWXER_clean_sbu_0, # of connection points: 4
#     Node 9, Type 0, BuildingBlock: NAWXER_clean_sbu_0, # of connection points: 4
#     Node 10, Type 0, BuildingBlock: NAWXER_clean_sbu_0, # of connection points: 4
#     Node 11, Type 0, BuildingBlock: NAWXER_clean_sbu_0, # of connection points: 4
#     Node 12, Type 0, BuildingBlock: NAWXER_clean_sbu_0, # of connection points: 4
#     Node 13, Type 0, BuildingBlock: NAWXER_clean_sbu_0, # of connection points: 4
#     Node 14, Type 0, BuildingBlock: NAWXER_clean_sbu_0, # of connection points: 4
#     Node 15, Type 0, BuildingBlock: NAWXER_clean_sbu_0, # of connection points: 4
#     Node 16, Type 0, BuildingBlock: NAWXER_clean_sbu_0, # of connection points: 4
#     Node 17, Type 0, BuildingBlock: NAWXER_clean_sbu_0, # of connection points: 4
#     Edge 18, Type (0, 0), BuildingBlock: OJICUG_clean_linker_0, # of connection points: 2
#     Edge 19, Type (0, 0), BuildingBlock: OJICUG_clean_linker_0, # of connection points: 2
#     Edge 20, Type (0, 0), BuildingBlock: OJICUG_clean_linker_0, # of connection points: 2
#     Edge 21, Type (0, 0), BuildingBlock: OJICUG_clean_linker_0, # of connection points: 2
#     Edge 22, Type (0, 0), BuildingBlock: OJICUG_clean_linker_0, # of connection points: 2
#     Edge 23, Type (0, 0), BuildingBlock: OJICUG_clean_linker_0, # of connection points: 2
#     Edge 24, Type (0, 0), BuildingBlock: OJICUG_clean_linker_0, # of connection points: 2
#     Edge 25, Type (0, 0), BuildingBlock: OJICUG_clean_linker_0, # of connection points: 2
#     Edge 26, Type (0, 0), BuildingBlock: OJICUG_clean_linker_0, # of connection points: 2
#     Edge 27, Type (0, 0), BuildingBlock: OJICUG_clean_linker_0, # of connection points: 2
#     Edge 28, Type (0, 0), BuildingBlock: OJICUG_clean_linker_0, # of connection points: 2
#     Edge 29, Type (0, 0), BuildingBlock: OJICUG_clean_linker_0, # of connection points: 2
#     Edge 30, Type (0, 0), BuildingBlock: OJICUG_clean_linker_0, # of connection points: 2
#     Edge 31, Type (0, 0), BuildingBlock: OJICUG_clean_linker_0, # of connection points: 2
#     Edge 32, Type (0, 0), BuildingBlock: OJICUG_clean_linker_0, # of connection points: 2
#     Edge 33, Type (0, 0), BuildingBlock: OJICUG_clean_linker_0, # of connection points: 2
#     Edge 34, Type (0, 0), BuildingBlock: OJICUG_clean_linker_0, # of connection points: 2
#     Edge 35, Type (0, 0), BuildingBlock: OJICUG_clean_linker_0, # of connection points: 2
#     Edge 36, Type (0, 0), BuildingBlock: OJICUG_clean_linker_0, # of connection points: 2
#     Edge 37, Type (0, 0), BuildingBlock: OJICUG_clean_linker_0, # of connection points: 2
#     Edge 38, Type (0, 0), BuildingBlock: OJICUG_clean_linker_0, # of connection points: 2
#     Edge 39, Type (0, 0), BuildingBlock: OJICUG_clean_linker_0, # of connection points: 2
#     Edge 40, Type (0, 0), BuildingBlock: OJICUG_clean_linker_0, # of connection points: 2
#     Edge 41, Type (0, 0), BuildingBlock: OJICUG_clean_linker_0, # of connection points: 2
#     Edge 42, Type (0, 0), BuildingBlock: OJICUG_clean_linker_0, # of connection points: 2
#     Edge 43, Type (0, 0), BuildingBlock: OJICUG_clean_linker_0, # of connection points: 2
#     Edge 44, Type (0, 0), BuildingBlock: OJICUG_clean_linker_0, # of connection points: 2
#     Edge 45, Type (0, 0), BuildingBlock: OJICUG_clean_linker_0, # of connection points: 2
#     Edge 46, Type (0, 0), BuildingBlock: OJICUG_clean_linker_0, # of connection points: 2
#     Edge 47, Type (0, 0), BuildingBlock: OJICUG_clean_linker_0, # of connection points: 2
#     Edge 48, Type (0, 0), BuildingBlock: OJICUG_clean_linker_0, # of connection points: 2
#     Edge 49, Type (0, 0), BuildingBlock: OJICUG_clean_linker_0, # of connection points: 2
#     Edge 50, Type (0, 0), BuildingBlock: OJICUG_clean_linker_0, # of connection points: 2
#     Edge 51, Type (0, 0), BuildingBlock: OJICUG_clean_linker_0, # of connection points: 2
#     Edge 52, Type (0, 0), BuildingBlock: OJICUG_clean_linker_0, # of connection points: 2
#     Edge 53, Type (0, 0), BuildingBlock: OJICUG_clean_linker_0, # of connection points: 2
# Relax obj value: 0.054
# Max RMSD: 0.096
# Mean RMSD: 0.096
data_MOF--net-usf--node1-NAWXER_clean_sbu_0--edge1-OJICUG_clean_linker_0
_symmetry_space_group_name_H-M    P1
_symmetry_Int_Tables_number       1
_symmetry_cell_setting            triclinic
loop_
_symmetry_equiv_pos_as_xyz
'x, y, z'
_cell_length_a     34.52055
_cell_length_b     34.64383
_cell_length_c     20.685726
_cell_angle_alpha  89.5808
_cell_angle_beta   90.399757
_cell_angle_gamma 120.40794
loop_
_atom_site_label
_atom_site_type_symbol
_atom_site_fract_x
_atom_site_fract_y
_atom_site_fract_z
_atom_type_partial_charge
C0 C 0.95465 0.46769 0.91516 0.0
C1 C 0.9586 0.42677 0.14098 0.0
O2 O 0.9877 0.49772 0.94767 0.0
Zn3 Zn 1.01286 0.50909 0.04358 0.0
O4 O 0.92428 0.43274 0.9435 0.0
Zn5 Zn 0.95223 0.44582 0.0289 0.0
O6 O 0.94117 0.4969 0.06358 0.0
O7 O 1.00676 0.55876 0.0736 0.0
O8 O 0.92798 0.40316 0.10016 0.0
O9 O 0.99086 0.46547 0.12475 0.0
O10 O 0.07098 0.51573 0.02681 0.0
O11 O 1.01382 0.44775 0.00762 0.0
C12 C 0.96424 0.53816 0.07944 0.0
C13 C 0.05618 0.4758 0.00744 0.0
C14 C 0.60608 0.50881 0.11041 0.0
C15 C 0.57544 0.47085 0.88173 0.0
O16 O 0.56859 0.50399 0.09093 0.0
Zn17 Zn 0.5282 0.48404 1.00564 0.0
O18 O 0.62914 0.49944 0.07279 0.0
Zn19 Zn 0.58922 0.48392 0.99825 0.0
O20 O 0.59277 0.54753 0.97727 0.0
O21 O 0.5243 0.53641 0.98971 0.0
O22 O 0.60748 0.47258 0.91484 0.0
O23 O 0.54419 0.47355 0.91052 0.0
O24 O 0.47422 0.42955 0.02905 0.0
O25 O 0.53257 0.42008 0.02646 0.0
C26 C 0.56541 0.56241 0.97537 0.0
C27 C 0.49051 0.4042 0.03659 0.0
C28 C 0.5966 0.09342 0.09977 0.0
C29 C 0.62959 0.0878 0.87338 0.0
O30 O 0.5875 0.05425 0.08241 0.0
Zn31 Zn 0.59469 0.02274 0.99829 0.0
O32 O 0.61471 0.1258 0.05995 0.0
Zn33 Zn 0.61612 0.09146 0.98743 0.0
O34 O 0.54538 0.04513 0.96612 0.0
O35 O 0.53355 0.9769 0.982 0.0
O36 O 0.63718 0.12192 0.9059 0.0
O37 O 0.61473 0.0499 0.90205 0.0
O38 O 0.63722 1.00456 0.02624 0.0
O39 O 0.668 0.07761 0.01474 0.0
C40 C 0.51871 1.00249 0.96547 0.0
C41 C 0.67164 0.04345 0.02869 0.0
C42 C 0.60333 0.09197 0.60014 0.0
C43 C 0.5742 0.1032 0.37211 0.0
O44 O 0.62722 0.12424 0.562 0.0
Zn45 Zn 0.58767 0.10022 0.48764 0.0
O46 O 0.56576 0.05925 0.58044 0.0
Zn47 Zn 0.526 0.03902 0.49402 0.0
O48 O 0.52176 0.98261 0.47724 0.0
O49 O 0.59054 0.04016 0.46593 0.0
O50 O 0.54258 0.06825 0.39964 0.0
O51 O 0.60665 0.13222 0.40599 0.0
O52 O 0.53115 0.10681 0.51582 0.0
O53 O 0.47182 0.03898 0.51723 0.0
C54 C 0.56284 0.99777 0.4634 0.0
C55 C 0.48893 0.08077 0.52548 0.0
C56 C 0.96192 0.48053 0.63728 0.0
C57 C 0.9519 0.43698 0.41172 0.0
O58 O 0.93111 0.48293 0.60594 0.0
Zn59 Zn 0.90663 0.47526 0.50927 0.0
O60 O 0.98973 0.47339 0.60729 0.0
Zn61 Zn 0.9626 0.46416 0.52237 0.0
O62 O 0.98156 0.52865 0.48887 0.0
O63 O 0.92237 0.53641 0.48003 0.0
O64 O 0.98179 0.44136 0.45222 0.0
O65 O 0.92331 0.44861 0.42726 0.0
O66 O 0.84493 0.42611 0.52681 0.0
O67 O 0.89791 0.40851 0.54044 0.0
C68 C 0.96454 0.55282 0.47389 0.0
C69 C 0.85656 0.39754 0.5416 0.0
C70 C 0.63114 0.54495 0.38155 0.0
C71 C 0.5977 0.51002 0.60914 0.0
O72 O 0.63726 0.51836 0.41684 0.0
Zn73 Zn 0.61625 0.52985 0.49578 0.0
O74 O 0.61687 0.56911 0.40729 0.0
Zn75 Zn 0.59683 0.57794 0.50301 0.0
O76 O 0.6396 0.63948 0.52704 0.0
O77 O 0.66961 0.59668 0.51973 0.0
O78 O 0.58929 0.54044 0.59037 0.0
O79 O 0.61447 0.49467 0.56973 0.0
O80 O 0.54548 0.50583 0.4724 0.0
O81 O 0.53669 0.564 0.48608 0.0
C82 C 0.67386 0.6351 0.53067 0.0
C83 C 0.52024 0.52324 0.47036 0.0
C84 C 0.5871 0.7601 0.44604 0.0
C85 C 0.58518 0.79748 0.21841 0.0
O86 O 0.62407 0.79366 0.4266 0.0
Zn87 Zn 0.65226 0.83107 0.34001 0.0
O88 O 0.55524 0.73829 0.40608 0.0
Zn89 Zn 0.58639 0.77469 0.33085 0.0
O90 O 0.63955 0.75986 0.31261 0.0
O91 O 0.70303 0.82375 0.32408 0.0
O92 O 0.5548 0.7636 0.24847 0.0
O93 O 0.62224 0.8238 0.24727 0.0
O94 O 0.66206 0.88917 0.36606 0.0
O95 O 0.59064 0.83644 0.36039 0.0
C96 C 0.68272 0.78216 0.31165 0.0
C97 C 0.62079 0.87705 0.37261 0.0
C98 C 0.19418 0.88695 0.31208 0.0
C99 C 0.09091 0.73034 0.3741 0.0
O100 O 0.21353 0.8636 0.3147 0.0
Zn101 Zn 0.19478 0.79479 0.33615 0.0
O102 O 0.15285 0.86884 0.32714 0.0
Zn103 Zn 0.1424 0.80948 0.34354 0.0
O104 O 0.18165 0.82052 0.43014 0.0
O105 O 0.23206 0.80084 0.41006 0.0
O106 O 0.08177 0.7613 0.36673 0.0
O107 O 0.13114 0.73906 0.36362 0.0
O108 O 0.20784 0.77722 0.25423 0.0
O109 O 0.15474 0.7947 0.24752 0.0
C110 C 0.21453 0.81581 0.44899 0.0
C111 C 0.18109 0.78393 0.21996 0.0
C112 C 0.23874 0.44112 0.42939 0.0
C113 C 0.28366 0.4471 0.20445 0.0
O114 O 0.24223 0.40736 0.41302 0.0
Zn115 Zn 0.26007 0.38329 0.32932 0.0
O116 O 0.24543 0.47108 0.38783 0.0
Zn117 Zn 0.25915 0.44407 0.31638 0.0
O118 O 0.19597 0.38383 0.29586 0.0
O119 O 0.20555 0.32623 0.31183 0.0
O120 O 0.27638 0.47491 0.23377 0.0
O121 O 0.27843 0.41235 0.23473 0.0
O122 O 0.31541 0.38575 0.35993 0.0
O123 O 0.32116 0.45187 0.35113 0.0
C124 C 0.18006 0.34133 0.29556 0.0
C125 C 0.33862 0.42807 0.36648 0.0
C126 C 0.2484 0.35152 0.7937 0.0
C127 C 0.16706 0.42152 0.87402 0.0
O128 O 0.20816 0.33328 0.81359 0.0
Zn129 Zn 0.20725 0.38656 0.83121 0.0
O130 O 0.27311 0.39443 0.79342 0.0
Zn131 Zn 0.26469 0.45081 0.8178 0.0
O132 O 0.30706 0.48015 0.88864 0.0
O133 O 0.25062 0.41283 0.91306 0.0
O134 O 0.2073 0.45068 0.85781 0.0
O135 O 0.15263 0.38031 0.86398 0.0
O136 O 0.21337 0.41363 0.7367 0.0
O137 O 0.27349 0.48096 0.73447 0.0
C138 C 0.28668 0.44859 0.92947 0.0
C139 C 0.23984 0.44942 0.70547 0.0
C140 C 0.67571 0.89566 0.81006 0.0
C141 C 0.62231 0.74008 0.87688 0.0
O142 O 0.69946 0.87819 0.824 0.0
Zn143 Zn 0.6511 0.81745 0.84129 0.0
O144 O 0.63271 0.8711 0.81113 0.0
Zn145 Zn 0.5828 0.80249 0.83071 0.0
O146 O 0.5505 0.8057 0.90547 0.0
O147 O 0.62084 0.82452 0.92634 0.0
O148 O 0.59117 0.74852 0.86279 0.0
O149 O 0.66327 0.77066 0.87022 0.0
O150 O 0.62201 0.79326 0.7487 0.0
O151 O 0.55246 0.78006 0.74801 0.0
C152 C 0.58288 0.81832 0.94541 0.0
C153 C 0.58467 0.77974 0.71898 0.0
C154 C 0.22238 0.82313 0.94977 0.0
C155 C 0.25599 0.8471 0.72022 0.0
O156 O 0.2249 0.79675 0.90997 0.0
Zn157 Zn 0.2442 0.83697 0.83704 0.0
O158 O 0.23292 0.86285 0.93163 0.0
Zn159 Zn 0.25655 0.90318 0.84393 0.0
O160 O 0.21017 0.91856 0.82983 0.0
O161 O 0.18718 0.84642 0.82154 0.0
O162 O 0.25994 0.88206 0.74749 0.0
O163 O 0.24929 0.81387 0.7548 0.0
O164 O 0.31156 0.8845 0.86394 0.0
O165 O 0.31721 0.9506 0.86542 0.0
C166 C 0.17878 0.87858 0.81949 0.0
C167 C 0.33519 0.92675 0.87351 0.0
C168 C 0.28273 0.1221 0.75068 0.0
C169 C 0.27877 0.1626 0.52533 0.0
O170 O 0.31901 0.15738 0.73307 0.0
Zn171 Zn 0.34577 0.19783 0.64752 0.0
O172 O 0.2515 0.10067 0.70978 0.0
Zn173 Zn 0.28128 0.14026 0.63716 0.0
O174 O 0.33694 0.13021 0.61422 0.0
O175 O 0.39882 0.19515 0.62949 0.0
O176 O 0.24888 0.12883 0.55608 0.0
O177 O 0.31568 0.18988 0.55391 0.0
O178 O 0.35312 0.25423 0.6761 0.0
O179 O 0.28254 0.19945 0.67104 0.0
C180 C 0.38004 0.15432 0.61308 0.0
C181 C 0.31162 0.2402 0.68444 0.0
C182 C 0.85865 0.20223 0.81426 0.0
C183 C 0.83709 0.16047 0.58662 0.0
O184 O 0.81773 0.18815 0.79728 0.0
Zn185 Zn 0.77832 0.16121 0.70866 0.0
O186 O 0.88542 0.2016 0.77327 0.0
Zn187 Zn 0.84473 0.17653 0.70155 0.0
O188 O 0.83055 0.22878 0.67196 0.0
O189 O 0.75851 0.20354 0.69014 0.0
O190 O 0.87038 0.17008 0.62334 0.0
O191 O 0.80062 0.15531 0.61124 0.0
O192 O 0.73229 0.10087 0.73105 0.0
O193 O 0.79922 0.10796 0.72946 0.0
C194 C 0.79636 0.23416 0.66946 0.0
C195 C 0.75676 0.08353 0.73856 0.0
C196 C 0.99909 0.81987 0.72982 0.0
C197 C 0.84444 0.7536 0.64264 0.0
O198 O 0.98255 0.84338 0.70937 0.0
Zn199 Zn 0.92218 0.79212 0.68788 0.0
O200 O 0.97542 0.77718 0.72733 0.0
Zn201 Zn 0.91148 0.7245 0.70132 0.0
O202 O 0.92427 0.69653 0.62971 0.0
O203 O 0.93724 0.76454 0.60691 0.0
O204 O 0.85718 0.72649 0.66061 0.0
O205 O 0.87017 0.79553 0.65151 0.0
O206 O 0.90017 0.76414 0.78164 0.0
O207 O 0.88849 0.69526 0.78404 0.0
C208 C 0.93625 0.72865 0.5895 0.0
C209 C 0.8889 0.72788 0.81272 0.0
C210 C 0.90647 0.71678 0.31855 0.0
C211 C 0.87297 0.72377 0.09035 0.0
O212 O 0.92809 0.74969 0.28018 0.0
Zn213 Zn 0.88858 0.72475 0.20626 0.0
O214 O 0.86954 0.68277 0.29968 0.0
Zn215 Zn 0.82888 0.66004 0.21402 0.0
O216 O 0.83177 0.60612 0.19587 0.0
O217 O 0.89669 0.66911 0.18541 0.0
O218 O 0.84333 0.68813 0.1189 0.0
O219 O 0.90426 0.75509 0.12324 0.0
O220 O 0.8308 0.72724 0.23361 0.0
O221 O 0.77283 0.65873 0.23785 0.0
C222 C 0.87357 0.62638 0.18237 0.0
C223 C 0.78891 0.70067 0.24406 0.0
C224 C 0.3747 0.22016 0.12075 0.0
C225 C 0.28698 0.06354 0.19469 0.0
O226 O 0.39023 0.19536 0.13878 0.0
Zn227 Zn 0.33295 0.14115 0.15485 0.0
O228 O 0.33202 0.2039 0.11944 0.0
Zn229 Zn 0.27138 0.14139 0.13903 0.0
O230 O 0.24418 0.15641 0.20954 0.0
O231 O 0.30836 0.16024 0.23546 0.0
O232 O 0.26316 0.08049 0.17694 0.0
O233 O 0.32947 0.08642 0.18827 0.0
O234 O 0.30644 0.12383 0.05957 0.0
O235 O 0.24281 0.12415 0.05421 0.0
C236 C 0.27469 0.16417 0.25102 0.0
C237 C 0.27248 0.11854 0.02682 0.0
C238 C 0.90653 0.22922 0.0839 0.0
C239 C 0.87608 0.18687 0.31304 0.0
O240 O 0.91735 0.20034 0.10161 0.0
Zn241 Zn 0.91595 0.16436 0.188 0.0
O242 O 0.89398 0.24714 0.12614 0.0
Zn243 Zn 0.89584 0.21291 0.20021 0.0
O244 O 0.96632 0.23814 0.21821 0.0
O245 O 0.97881 0.18252 0.20274 0.0
O246 O 0.87168 0.21657 0.28299 0.0
O247 O 0.89241 0.16591 0.28343 0.0
O248 O 0.87191 0.10363 0.15786 0.0
O249 O 0.84497 0.14915 0.16673 0.0
C250 C 0.99359 0.22315 0.21797 0.0
C251 C 0.83952 0.11106 0.15131 0.0
C252 C 0.99205 0.43271 0.31459 0.0
C253 C 0.95167 0.42233 0.34487 0.0
H254 H 1.02571 0.44162 0.22437 0.0
C255 C 0.91185 0.40355 0.30807 0.0
H256 H 1.02317 0.44708 0.34183 0.0
C257 C 0.9131 0.39934 0.24107 0.0
C258 C 0.95436 0.41478 0.20998 0.0
H259 H 0.88014 0.39475 0.33053 0.0
H260 H 0.8826 0.38832 0.21324 0.0
C261 C 0.99346 0.42943 0.24746 0.0
C262 C 0.64956 0.51718 0.28101 0.0
C263 C 0.63376 0.54316 0.31034 0.0
H264 H 0.65383 0.48635 0.19363 0.0
C265 C 0.61479 0.56265 0.27122 0.0
H266 H 0.66461 0.50193 0.30984 0.0
C267 C 0.60809 0.55315 0.20537 0.0
C268 C 0.62092 0.52465 0.17692 0.0
H269 H 0.60259 0.5831 0.29198 0.0
H270 H 0.5912 0.56678 0.17709 0.0
C271 C 0.64351 0.50829 0.21456 0.0
C272 C 0.55065 0.06489 0.19909 0.0
C273 C 0.58703 0.10013 0.16672 0.0
H274 H 0.51722 0.03894 0.28871 0.0
C275 C 0.61606 0.1394 0.20074 0.0
H276 H 0.5275 0.03445 0.17374 0.0
C277 C 0.61069 0.14184 0.26747 0.0
C278 C 0.57569 0.10533 0.30059 0.0
H279 H 0.64441 0.16704 0.17667 0.0
H280 H 0.63501 0.17137 0.29345 0.0
C281 C 0.54474 0.06763 0.26505 0.0
C282 C 0.9999 0.49625 0.74511 0.0
C283 C 0.96048 0.47966 0.70844 0.0
H284 H 0.02866 0.50617 0.83973 0.0
C285 C 0.9187 0.45949 0.74018 0.0
H286 H 0.03239 0.51162 0.72175 0.0
C287 C 0.91636 0.45516 0.80753 0.0
C288 C 0.95586 0.4722 0.84421 0.0
H289 H 0.88769 0.44578 0.71274 0.0
H290 H 0.88385 0.4388 0.83086 0.0
C291 C 0.99764 0.49317 0.81247 0.0
C292 C 0.55489 0.49577 0.71127 0.0
C293 C 0.58881 0.49412 0.6768 0.0
H294 H 0.52312 0.48818 0.80212 0.0
C295 C 0.61547 0.47977 0.70868 0.0
H296 H 0.53353 0.50623 0.68775 0.0
C297 C 0.61007 0.47001 0.7751 0.0
C298 C 0.57723 0.4735 0.81016 0.0
H299 H 0.64188 0.47819 0.68305 0.0
H300 H 0.63249 0.46122 0.79929 0.0
C301 C 0.54881 0.4851 0.77689 0.0
C302 C 0.60636 0.04974 0.76698 0.0
C303 C 0.63059 0.08966 0.80197 0.0
H304 H 0.57915 0.0194 0.67575 0.0
C305 C 0.65046 0.13072 0.76841 0.0
H306 H 0.59061 1.0175 0.79116 0.0
C307 C 0.64405 0.13174 0.70155 0.0
C308 C 0.61708 0.09176 0.66775 0.0
H309 H 0.66943 0.16204 0.79413 0.0
H310 H 0.65804 0.16379 0.67711 0.0
C311 C 0.59954 0.05079 0.70076 0.0
C312 C 0.54242 0.75476 0.61315 0.0
C313 C 0.58086 0.76585 0.65053 0.0
H314 H 0.51372 0.74272 0.5177 0.0
C315 C 0.61768 0.76643 0.62075 0.0
H316 H 0.51337 0.7536 0.63478 0.0
C317 C 0.61777 0.76018 0.55434 0.0
C318 C 0.58086 0.75254 0.51623 0.0
H319 H 0.64759 0.77406 0.64808 0.0
H320 H 0.64786 0.76393 0.53216 0.0
C321 C 0.54237 0.74796 0.54634 0.0
C322 C 0.25675 0.81013 0.61638 0.0
C323 C 0.25224 0.84313 0.64896 0.0
H324 H 0.24926 0.77621 0.52657 0.0
C325 C 0.23896 0.86938 0.61371 0.0
H326 H 0.26687 0.78937 0.64233 0.0
C327 C 0.22785 0.86109 0.5483 0.0
C328 C 0.23086 0.82715 0.51623 0.0
H329 H 0.23485 0.89487 0.63737 0.0
H330 H 0.21604 0.88072 0.52305 0.0
C331 C 0.24672 0.80262 0.55025 0.0
C332 C 0.20335 0.40858 0.53498 0.0
C333 C 0.23195 0.44651 0.49824 0.0
H334 H 0.1825 0.38017 0.62894 0.0
C335 C 0.25936 0.48739 0.52982 0.0
H336 H 0.18202 0.37668 0.51169 0.0
C337 C 0.26062 0.48932 0.59762 0.0
C338 C 0.2338 0.45057 0.63454 0.0
H339 H 0.28214 0.51699 0.50238 0.0
H340 H 0.28394 0.52055 0.621 0.0
C341 C 0.20381 0.41069 0.60227 0.0
C342 C 0.61398 0.84487 0.11923 0.0
C343 C 0.57948 0.80659 0.14992 0.0
H344 H 0.64127 0.87906 0.02986 0.0
C345 C 0.5416 0.77662 0.11344 0.0
H346 H 0.64332 0.86914 0.14586 0.0
C347 C 0.54012 0.78302 0.04659 0.0
C348 C 0.5766 0.81927 0.01554 0.0
H349 H 0.51428 0.74707 0.13579 0.0
H350 H 0.51227 0.75774 0.01862 0.0
C351 C 0.61266 0.85095 0.0528 0.0
C352 C 0.18477 0.82617 0.05027 0.0
C353 C 0.20766 0.80867 0.01692 0.0
H354 H 0.15708 0.83071 0.13986 0.0
C355 C 0.2179 0.77905 0.04919 0.0
H356 H 0.17613 0.84875 0.02637 0.0
C357 C 0.20769 0.76923 0.11492 0.0
C358 C 0.18592 0.78785 0.14877 0.0
H359 H 0.23557 0.76512 0.02443 0.0
H360 H 0.21783 0.74804 0.13959 0.0
C361 C 0.17351 0.81543 0.11519 0.0
C362 C 0.30498 0.49166 0.0322 0.0
C363 C 0.29915 0.45407 0.99836 0.0
H364 H 0.30407 0.51888 0.1247 0.0
C365 C 0.29452 0.41709 0.03314 0.0
H366 H 0.30782 0.52027 0.00628 0.0
C367 C 0.2926 0.41629 0.10049 0.0
C368 C 0.29427 0.45212 0.13448 0.0
H369 H 0.2896 0.38759 0.00799 0.0
H370 H 0.2869 0.38628 0.12549 0.0
C371 C 0.30223 0.49058 0.09987 0.0
C372 C 0.23354 0.10128 0.91829 0.0
C373 C 0.27136 0.11095 0.95621 0.0
H374 H 0.20709 0.09574 0.82227 0.0
C375 C 0.31043 0.11748 0.92525 0.0
H376 H 0.20292 0.09588 0.9407 0.0
C377 C 0.31294 0.118 0.858 0.0
C378 C 0.27612 0.11088 0.82008 0.0
H379 H 0.34018 0.12483 0.95279 0.0
H380 H 0.34442 0.12596 0.83554 0.0
C381 C 0.23579 0.1008 0.85062 0.0
C382 C 0.84794 0.22382 0.92635 0.0
C383 C 0.87417 0.21642 0.88189 0.0
H384 H 0.83872 0.23557 0.02538 0.0
C385 C 0.91469 0.22023 0.90362 0.0
H386 H 0.81667 0.22137 0.91121 0.0
C387 C 0.92706 0.22799 0.96886 0.0
C388 C 0.89983 0.23324 0.01386 0.0
H389 H 0.93587 0.2149 0.87085 0.0
H390 H 0.95697 0.22783 0.9847 0.0
C391 C 0.86088 0.23257 0.9916 0.0
C392 C 0.89672 0.76615 0.98562 0.0
C393 C 0.8734 0.72533 0.01894 0.0
H394 H 0.91904 0.79881 0.89403 0.0
C395 C 0.85292 0.68516 0.9835 0.0
H396 H 0.91286 0.79754 0.01162 0.0
C397 C 0.8572 0.68574 0.91628 0.0
C398 C 0.88112 0.72654 0.88308 0.0
H399 H 0.83501 0.65307 0.00792 0.0
H400 H 0.84225 0.6543 0.89045 0.0
C401 C 0.9001 0.76676 0.91828 0.0
C402 C 0.30844 0.20351 0.35332 0.0
C403 C 0.27016 0.17197 0.31956 0.0
H404 H 0.34083 0.22582 0.44482 0.0
C405 C 0.23199 0.14117 0.35433 0.0
H406 H 0.3384 0.2273 0.32738 0.0
C407 C 0.23363 0.13944 0.422 0.0
C408 C 0.27333 0.16886 0.45558 0.0
H409 H 0.20237 0.116 0.32914 0.0
H410 H 0.20477 0.11356 0.44757 0.0
C411 C 0.30988 0.2023 0.42063 0.0
C412 C 0.88607 0.16183 0.42259 0.0
C413 C 0.86349 0.17689 0.38212 0.0
H414 H 0.89561 0.14507 0.51909 0.0
C415 C 0.82937 0.18267 0.40853 0.0
H416 H 0.91247 0.15698 0.40361 0.0
C417 C 0.81865 0.17435 0.47435 0.0
C418 C 0.84285 0.16151 0.51548 0.0
H419 H 0.81108 0.19378 0.37835 0.0
H420 H 0.79273 0.17985 0.4935 0.0
C421 C 0.87633 0.15487 0.48868 0.0
C422 C 0.96342 0.76059 0.47995 0.0
C423 C 0.93952 0.72262 0.51964 0.0
H424 H 0.97195 0.78858 0.38488 0.0
C425 C 0.91021 0.6813 0.49082 0.0
H426 H 0.98629 0.7929 0.50103 0.0
C427 C 0.90133 0.679 0.42447 0.0
C428 C 0.92202 0.71788 0.38575 0.0
H429 H 0.89111 0.65157 0.52019 0.0
H430 H 0.87645 0.64715 0.4042 0.0
C431 C 0.95494 0.75821 0.41351 0.0
C432 C 0.069 0.41694 0.96128 0.0
C433 C 0.08618 0.46205 0.978 0.0
H434 H 0.0807 0.36892 0.91484 0.0
C435 C 0.13042 0.49377 0.96073 0.0
H436 H 0.035 0.39159 0.9738 0.0
C437 C 0.15658 0.48071 0.92624 0.0
C438 C 0.13902 0.43568 0.90858 0.0
H439 H 0.14447 0.52879 0.97246 0.0
H440 H 0.19054 0.50595 0.91335 0.0
C441 C 0.0951 0.40392 0.92703 0.0
C442 C 0.64046 0.68114 0.91279 0.0
C443 C 0.60916 0.69522 0.9033 0.0
H444 H 0.65122 0.62794 0.94316 0.0
C445 C 0.56398 0.66584 0.91992 0.0
H446 H 0.67549 0.70303 0.90072 0.0
C447 C 0.55019 0.6233 0.94455 0.0
C448 C 0.58111 0.60874 0.95301 0.0
H449 H 0.5389 0.67561 0.91393 0.0
H450 H 0.51502 0.60161 0.95612 0.0
C451 C 0.62651 0.63818 0.93721 0.0
C452 C 0.39986 0.91882 0.91197 0.0
C453 C 0.38236 0.94665 0.89639 0.0
H454 H 0.45607 0.91438 0.94638 0.0
C455 C 0.41 0.99312 0.90451 0.0
H456 H 0.37952 0.88285 0.90665 0.0
C457 C 0.45414 1.01127 0.92736 0.0
C458 C 0.47155 0.98334 0.943 0.0
H459 H 0.39758 1.01551 0.89315 0.0
H460 H 0.47462 0.04723 0.93272 0.0
C461 C 0.44379 0.9369 0.93511 0.0
C462 C 0.41403 0.07173 0.55468 0.0
C463 C 0.46079 0.09937 0.54751 0.0
H464 H 0.35188 0.06724 0.58088 0.0
C465 C 0.48064 0.14505 0.56258 0.0
H466 H 0.39761 0.03639 0.5436 0.0
C467 C 0.45448 0.16266 0.58431 0.0
C468 C 0.40771 0.13513 0.59127 0.0
H469 H 0.51653 0.16732 0.55788 0.0
H470 H 0.471 0.19802 0.59534 0.0
C471 C 0.38779 0.08943 0.57613 0.0
C472 C 0.81672 0.27805 0.56851 0.0
C473 C 0.80009 0.27202 0.63162 0.0
H474 H 0.84496 0.32258 0.48816 0.0
C475 C 0.79178 0.30426 0.65845 0.0
H476 H 0.82314 0.25349 0.5468 0.0
C477 C 0.80461 0.34435 0.62467 0.0
C478 C 0.82496 0.35179 0.56361 0.0
H479 H 0.77894 0.30011 0.70718 0.0
H480 H 0.80276 0.37102 0.64878 0.0
C481 C 0.82857 0.31729 0.53459 0.0
C482 C 0.799 0.70446 0.55388 0.0
C483 C 0.8031 0.73416 0.603 0.0
H484 H 0.75503 0.65001 0.49287 0.0
C485 C 0.76489 0.73577 0.62158 0.0
H486 H 0.82798 0.70253 0.5387 0.0
C487 C 0.72264 0.70552 0.5946 0.0
C488 C 0.71831 0.67301 0.54982 0.0
H489 H 0.76707 0.75783 0.66005 0.0
H490 H 0.69311 0.70542 0.61216 0.0
C491 C 0.75717 0.67411 0.52796 0.0
C492 C 0.9433 0.62617 0.15133 0.0
C493 C 0.8963 0.60242 0.15954 0.0
H494 H 1.00147 0.62486 0.11948 0.0
C495 C 0.87194 0.55714 0.14207 0.0
H496 H 0.96326 0.66114 0.16446 0.0
C497 C 0.89406 0.53638 0.11584 0.0
C498 C 0.941 0.56044 0.1067 0.0
H499 H 0.83579 0.538 0.14752 0.0
H500 H 0.87425 0.50146 0.10246 0.0
C501 C 0.96535 0.60546 0.12529 0.0
C502 C 0.38704 0.29493 0.08541 0.0
C503 C 0.40498 0.26735 0.10011 0.0
H504 H 0.39962 0.35922 0.05407 0.0
C505 C 0.45154 0.28521 0.09365 0.0
H506 H 0.35137 0.28243 0.08982 0.0
C507 C 0.47936 0.32951 0.07265 0.0
C508 C 0.46128 0.357 0.05797 0.0
H509 H 0.46648 0.26491 0.10439 0.0
H510 H 0.51507 0.34224 0.06814 0.0
C511 C 0.41478 0.33911 0.0648 0.0
C512 C 0.79642 0.09925 0.05148 0.0
C513 C 0.79957 0.08229 0.11194 0.0
H514 H 0.75304 0.10007 0.97776 0.0
C515 C 0.76074 0.04672 0.13959 0.0
H516 H 0.82582 0.1273 0.02987 0.0
C517 C 0.71884 0.03054 0.10901 0.0
C518 C 0.71544 0.05075 0.05162 0.0
H519 H 0.76223 0.03402 0.18699 0.0
H520 H 0.68883 1.00518 0.13313 0.0
C521 C 0.75477 0.08395 0.02191 0.0
C522 C 0.54727 0.92136 0.4329 0.0
C523 C 0.57832 0.96704 0.44186 0.0
H524 H 0.53622 0.85755 0.40387 0.0
C525 C 0.6239 0.98312 0.42808 0.0
H526 H 0.51193 0.9078 0.44284 0.0
C527 C 0.63799 0.95411 0.40563 0.0
C528 C 0.60674 0.90849 0.39612 0.0
H529 H 0.64873 1.01816 0.4344 0.0
H530 H 0.67326 0.96748 0.39541 0.0
C531 C 0.56126 0.89253 0.41021 0.0
C532 C 0.0396 0.61073 0.4327 0.0
C533 C 0.99505 0.5985 0.44729 0.0
H534 H 0.10371 0.66064 0.39817 0.0
C535 C 0.98136 0.62996 0.43575 0.0
H536 H 0.05158 0.58755 0.4402 0.0
C537 C 1.01203 0.67289 0.41127 0.0
C538 C 0.05674 0.68486 0.39743 0.0
H539 H 0.94728 0.62158 0.44618 0.0
H540 H 1.00088 0.6967 0.40364 0.0
C541 C 0.06976 0.65296 0.40814 0.0
C542 C 0.40915 0.42871 0.40369 0.0
C543 C 0.38483 0.45086 0.39415 0.0
H544 H 0.47124 0.43413 0.43516 0.0
C545 C 0.40501 0.49615 0.4119 0.0
H546 H 0.39456 0.39383 0.39074 0.0
C547 C 0.44831 0.51891 0.43772 0.0
C548 C 0.47314 0.4973 0.44632 0.0
H549 H 0.38732 0.51435 0.40594 0.0
H550 H 0.46252 0.55384 0.45016 0.0
C551 C 0.45302 0.4518 0.42924 0.0
C552 C 0.71362 0.69376 0.26868 0.0
C553 C 0.76063 0.72004 0.26288 0.0
H554 H 0.65192 0.69258 0.28839 0.0
C555 C 0.7813 0.76632 0.27438 0.0
H556 H 0.69659 0.65805 0.26024 0.0
C557 C 0.75596 0.78597 0.29054 0.0
C558 C 0.70899 0.76009 0.29559 0.0
H559 H 0.81739 0.78778 0.27073 0.0
H560 H 0.77341 0.82175 0.29862 0.0
C561 C 0.68805 0.71361 0.28472 0.0
C562 C 0.28738 0.99605 0.24076 0.0
C563 C 0.26426 0.01867 0.22586 0.0
H564 H 0.28346 0.93673 0.28002 0.0
C565 C 0.21852 0.99841 0.24244 0.0
H566 H 0.32262 1.01079 0.22904 0.0
C567 C 0.19626 0.95641 0.27224 0.0
C568 C 0.21899 0.93328 0.28595 0.0
H569 H 0.19965 1.015 0.23239 0.0
H570 H 0.16093 0.94173 0.28336 0.0
C571 C 0.26491 0.95369 0.27024 0.0
C572 C 0.10335 0.32743 0.26518 0.0
C573 C 0.13242 0.31061 0.27569 0.0
H574 H 0.03736 0.31343 0.23907 0.0
C575 C 0.11548 0.26456 0.26629 0.0
H576 H 0.11504 0.36264 0.27186 0.0
C577 C 0.0707 0.23619 0.24682 0.0
C578 C 0.0416 0.25309 0.23678 0.0
H579 H 0.13687 0.25041 0.2737 0.0
H580 H 0.05878 0.20094 0.24019 0.0
C581 C 0.05862 0.2991 0.24629 0.0
C582 C 0.32595 0.31544 0.72133 0.0
C583 C 0.2963 0.26939 0.71236 0.0
H584 H 0.33412 0.37774 0.75416 0.0
C585 C 0.25135 0.25068 0.7318 0.0
H586 H 0.36081 0.3308 0.70705 0.0
C587 C 0.23626 0.27728 0.75927 0.0
C588 C 0.26561 0.3234 0.76761 0.0
H589 H 0.22764 0.21526 0.72613 0.0
H590 H 0.20132 0.26163 0.77325 0.0
C591 C 0.31068 0.34226 0.74845 0.0
C592 C 0.68955 1.0079 0.76098 0.0
C593 C 0.73643 0.03558 0.75732 0.0
H594 H 0.63379 0.94261 0.78034 0.0
C595 C 0.76344 1.01684 0.77148 0.0
H596 H 0.66774 0.02101 0.74994 0.0
C597 C 0.74393 0.97154 0.78886 0.0
C598 C 0.69696 0.94389 0.79235 0.0
H599 H 0.7997 0.03716 0.76921 0.0
H600 H 0.76569 0.9582 0.79937 0.0
C601 C 0.67007 0.96275 0.77826 0.0
C602 C 0.12333 0.89759 0.76922 0.0
C603 C 0.13253 0.86788 0.80375 0.0
H604 H 0.07336 0.90586 0.71771 0.0
C605 C 0.09702 0.82505 0.81882 0.0
H606 H 0.15025 0.9309 0.75697 0.0
C607 C 0.05378 0.81109 0.79708 0.0
C608 C 0.04458 0.8393 0.75886 0.0
H609 H 0.10283 0.80166 0.84624 0.0
H610 H 0.02764 0.7773 0.80892 0.0
C611 C 0.07948 0.88331 0.7467 0.0
loop_
_geom_bond_atom_site_label_1
_geom_bond_atom_site_label_2
_geom_bond_distance
_geom_bond_site_symmetry_2
_ccdc_geom_bond_type
C0 O2 1.247 1_655 S
C0 O4 1.258 . S
C1 O8 1.247 1_455 S
C1 O9 1.258 . S
O2 C0 1.247 1_455 S
O2 Zn3 2.027 1_556 S
Zn3 O2 2.027 1_554 S
Zn3 O7 2.024 1_455 S
Zn3 O9 2.036 . S
Zn3 O10 2.028 1_554 S
O4 C0 1.258 . S
O4 Zn5 2.018 1_556 S
Zn5 O4 2.018 1_554 S
Zn5 O6 2.031 . S
Zn5 O8 2.045 . S
Zn5 O11 2.014 1_654 S
O6 Zn5 2.031 . S
O6 C12 1.247 . S
O7 Zn3 2.024 1_655 S
O7 C12 1.268 . S
O8 C1 1.247 1_655 S
O8 Zn5 2.045 . S
O9 C1 1.258 . S
O9 Zn3 2.036 . S
O10 Zn3 2.028 1_556 S
O10 C13 1.247 . S
O11 Zn5 2.014 1_456 S
O11 C13 1.274 . S
C12 O6 1.247 . S
C12 O7 1.268 . S
C13 O10 1.247 . S
C13 O11 1.274 . S
C14 O16 1.247 . S
C14 O18 1.258 . S
C15 O22 1.247 . S
C15 O23 1.258 . S
O16 C14 1.247 . S
O16 Zn17 2.044 . S
Zn17 O16 2.044 . S
Zn17 O21 2.032 1_554 S
Zn17 O23 2.019 1_554 S
Zn17 O24 2.031 . S
O18 C14 1.258 . S
O18 Zn19 2.035 . S
Zn19 O18 2.035 . S
Zn19 O20 2.028 1_554 S
Zn19 O22 2.028 1_554 S
Zn19 O25 2.035 . S
O20 Zn19 2.028 1_556 S
O20 C26 1.247 . S
O21 Zn17 2.032 1_556 S
O21 C26 1.258 . S
O22 C15 1.247 . S
O22 Zn19 2.028 1_556 S
O23 C15 1.258 . S
O23 Zn17 2.019 1_556 S
O24 Zn17 2.031 . S
O24 C27 1.247 . S
O25 Zn19 2.035 . S
O25 C27 1.258 . S
C26 O20 1.247 . S
C26 O21 1.258 . S
C27 O24 1.247 . S
C27 O25 1.258 . S
C28 O30 1.247 . S
C28 O32 1.258 1_565 S
C29 O36 1.247 . S
C29 O37 1.258 1_545 S
O30 C28 1.247 . S
O30 Zn31 2.045 . S
Zn31 O30 2.045 . S
Zn31 O35 2.032 1_554 S
Zn31 O37 2.018 1_554 S
Zn31 O38 2.031 1_565 S
O32 C28 1.258 1_545 S
O32 Zn33 2.035 . S
Zn33 O32 2.035 . S
Zn33 O34 2.030 1_554 S
Zn33 O36 2.028 1_554 S
Zn33 O39 2.035 . S
O34 Zn33 2.030 1_556 S
O34 C40 1.237 1_545 S
O35 Zn31 2.032 1_556 S
O35 C40 1.258 . S
O36 C29 1.247 . S
O36 Zn33 2.028 1_556 S
O37 C29 1.258 1_565 S
O37 Zn31 2.018 1_556 S
O38 Zn31 2.031 1_545 S
O38 C41 1.247 . S
O39 Zn33 2.035 . S
O39 C41 1.258 . S
C40 O34 1.237 1_565 S
C40 O35 1.258 . S
C41 O38 1.247 . S
C41 O39 1.258 . S
C42 O44 1.247 1_565 S
C42 O46 1.258 . S
C43 O50 1.247 1_545 S
C43 O51 1.258 . S
O44 C42 1.247 1_545 S
O44 Zn45 2.028 . S
Zn45 O44 2.028 . S
Zn45 O49 2.051 . S
Zn45 O51 2.035 . S
Zn45 O52 2.028 . S
O46 C42 1.258 . S
O46 Zn47 2.035 . S
Zn47 O46 2.035 . S
Zn47 O48 2.028 . S
Zn47 O50 2.028 . S
Zn47 O53 2.035 1_565 S
O48 Zn47 2.028 . S
O48 C54 1.247 . S
O49 Zn45 2.051 . S
O49 C54 1.244 1_545 S
O50 C43 1.247 1_565 S
O50 Zn47 2.028 . S
O51 C43 1.258 . S
O51 Zn45 2.035 . S
O52 Zn45 2.028 . S
O52 C55 1.247 . S
O53 Zn47 2.035 1_545 S
O53 C55 1.258 . S
C54 O48 1.247 . S
C54 O49 1.244 1_565 S
C55 O52 1.247 . S
C55 O53 1.258 . S
C56 O58 1.247 1_455 S
C56 O60 1.258 . S
C57 O64 1.247 1_655 S
C57 O65 1.258 . S
O58 C56 1.247 1_655 S
O58 Zn59 2.028 . S
Zn59 O58 2.028 . S
Zn59 O63 2.032 1_655 S
Zn59 O65 2.035 . S
Zn59 O66 2.028 . S
O60 C56 1.258 . S
O60 Zn61 2.035 . S
Zn61 O60 2.035 . S
Zn61 O62 2.028 . S
Zn61 O64 2.028 . S
Zn61 O67 2.033 1_455 S
O62 Zn61 2.028 . S
O62 C68 1.247 . S
O63 Zn59 2.032 1_455 S
O63 C68 1.275 . S
O64 C57 1.247 1_455 S
O64 Zn61 2.028 . S
O65 C57 1.258 . S
O65 Zn59 2.035 . S
O66 Zn59 2.028 . S
O66 C69 1.247 . S
O67 Zn61 2.033 1_655 S
O67 C69 1.269 . S
C68 O62 1.247 . S
C68 O63 1.275 . S
C69 O66 1.247 . S
C69 O67 1.269 . S
C70 O72 1.247 . S
C70 O74 1.258 . S
C71 O78 1.247 . S
C71 O79 1.258 . S
O72 C70 1.247 . S
O72 Zn73 2.028 . S
Zn73 O72 2.028 . S
Zn73 O77 2.035 . S
Zn73 O79 2.035 . S
Zn73 O80 2.028 . S
O74 C70 1.258 . S
O74 Zn75 2.035 . S
Zn75 O74 2.035 . S
Zn75 O76 2.028 . S
Zn75 O78 2.028 . S
Zn75 O81 2.035 . S
O76 Zn75 2.028 . S
O76 C82 1.247 . S
O77 Zn73 2.035 . S
O77 C82 1.258 . S
O78 C71 1.247 . S
O78 Zn75 2.028 . S
O79 C71 1.258 . S
O79 Zn73 2.035 . S
O80 Zn73 2.028 . S
O80 C83 1.247 . S
O81 Zn75 2.035 . S
O81 C83 1.258 . S
C82 O76 1.247 . S
C82 O77 1.258 . S
C83 O80 1.247 . S
C83 O81 1.258 . S
C84 O86 1.247 . S
C84 O88 1.258 . S
C85 O92 1.247 . S
C85 O93 1.258 . S
O86 C84 1.247 . S
O86 Zn87 2.028 . S
Zn87 O86 2.028 . S
Zn87 O91 2.035 . S
Zn87 O93 2.035 . S
Zn87 O94 2.028 . S
O88 C84 1.258 . S
O88 Zn89 2.035 . S
Zn89 O88 2.035 . S
Zn89 O90 2.028 . S
Zn89 O92 2.028 . S
Zn89 O95 2.035 . S
O90 Zn89 2.028 . S
O90 C96 1.247 . S
O91 Zn87 2.035 . S
O91 C96 1.258 . S
O92 C85 1.247 . S
O92 Zn89 2.028 . S
O93 C85 1.258 . S
O93 Zn87 2.035 . S
O94 Zn87 2.028 . S
O94 C97 1.247 . S
O95 Zn89 2.035 . S
O95 C97 1.258 . S
C96 O90 1.247 . S
C96 O91 1.258 . S
C97 O94 1.247 . S
C97 O95 1.258 . S
C98 O100 1.247 . S
C98 O102 1.258 . S
C99 O106 1.247 . S
C99 O107 1.258 . S
O100 C98 1.247 . S
O100 Zn101 2.028 . S
Zn101 O100 2.028 . S
Zn101 O105 2.035 . S
Zn101 O107 2.035 . S
Zn101 O108 2.028 . S
O102 C98 1.258 . S
O102 Zn103 2.035 . S
Zn103 O102 2.035 . S
Zn103 O104 2.028 . S
Zn103 O106 2.028 . S
Zn103 O109 2.035 . S
O104 Zn103 2.028 . S
O104 C110 1.247 . S
O105 Zn101 2.035 . S
O105 C110 1.258 . S
O106 C99 1.247 . S
O106 Zn103 2.028 . S
O107 C99 1.258 . S
O107 Zn101 2.035 . S
O108 Zn101 2.028 . S
O108 C111 1.247 . S
O109 Zn103 2.035 . S
O109 C111 1.258 . S
C110 O104 1.247 . S
C110 O105 1.258 . S
C111 O108 1.247 . S
C111 O109 1.258 . S
C112 O114 1.247 . S
C112 O116 1.258 . S
C113 O120 1.247 . S
C113 O121 1.258 . S
O114 C112 1.247 . S
O114 Zn115 2.028 . S
Zn115 O114 2.028 . S
Zn115 O119 2.035 . S
Zn115 O121 2.035 . S
Zn115 O122 2.028 . S
O116 C112 1.258 . S
O116 Zn117 2.035 . S
Zn117 O116 2.035 . S
Zn117 O118 2.028 . S
Zn117 O120 2.028 . S
Zn117 O123 2.035 . S
O118 Zn117 2.028 . S
O118 C124 1.247 . S
O119 Zn115 2.035 . S
O119 C124 1.258 . S
O120 C113 1.247 . S
O120 Zn117 2.028 . S
O121 C113 1.258 . S
O121 Zn115 2.035 . S
O122 Zn115 2.028 . S
O122 C125 1.247 . S
O123 Zn117 2.035 . S
O123 C125 1.258 . S
C124 O118 1.247 . S
C124 O119 1.258 . S
C125 O122 1.247 . S
C125 O123 1.258 . S
C126 O128 1.247 . S
C126 O130 1.258 . S
C127 O134 1.247 . S
C127 O135 1.258 . S
O128 C126 1.247 . S
O128 Zn129 2.028 . S
Zn129 O128 2.028 . S
Zn129 O133 2.035 . S
Zn129 O135 2.035 . S
Zn129 O136 2.028 . S
O130 C126 1.258 . S
O130 Zn131 2.035 . S
Zn131 O130 2.035 . S
Zn131 O132 2.028 . S
Zn131 O134 2.028 . S
Zn131 O137 2.035 . S
O132 Zn131 2.028 . S
O132 C138 1.247 . S
O133 Zn129 2.035 . S
O133 C138 1.258 . S
O134 C127 1.247 . S
O134 Zn131 2.028 . S
O135 C127 1.258 . S
O135 Zn129 2.035 . S
O136 Zn129 2.028 . S
O136 C139 1.247 . S
O137 Zn131 2.035 . S
O137 C139 1.258 . S
C138 O132 1.247 . S
C138 O133 1.258 . S
C139 O136 1.247 . S
C139 O137 1.258 . S
C140 O142 1.247 . S
C140 O144 1.258 . S
C141 O148 1.247 . S
C141 O149 1.258 . S
O142 C140 1.247 . S
O142 Zn143 2.028 . S
Zn143 O142 2.028 . S
Zn143 O147 2.035 . S
Zn143 O149 2.035 . S
Zn143 O150 2.028 . S
O144 C140 1.258 . S
O144 Zn145 2.035 . S
Zn145 O144 2.035 . S
Zn145 O146 2.028 . S
Zn145 O148 2.028 . S
Zn145 O151 2.035 . S
O146 Zn145 2.028 . S
O146 C152 1.247 . S
O147 Zn143 2.035 . S
O147 C152 1.258 . S
O148 C141 1.247 . S
O148 Zn145 2.028 . S
O149 C141 1.258 . S
O149 Zn143 2.035 . S
O150 Zn143 2.028 . S
O150 C153 1.247 . S
O151 Zn145 2.035 . S
O151 C153 1.258 . S
C152 O146 1.247 . S
C152 O147 1.258 . S
C153 O150 1.247 . S
C153 O151 1.258 . S
C154 O156 1.247 . S
C154 O158 1.258 . S
C155 O162 1.247 . S
C155 O163 1.258 . S
O156 C154 1.247 . S
O156 Zn157 2.028 . S
Zn157 O156 2.028 . S
Zn157 O161 2.035 . S
Zn157 O163 2.035 . S
Zn157 O164 2.028 . S
O158 C154 1.258 . S
O158 Zn159 2.035 . S
Zn159 O158 2.035 . S
Zn159 O160 2.028 . S
Zn159 O162 2.028 . S
Zn159 O165 2.035 . S
O160 Zn159 2.028 . S
O160 C166 1.247 . S
O161 Zn157 2.035 . S
O161 C166 1.258 . S
O162 C155 1.247 . S
O162 Zn159 2.028 . S
O163 C155 1.258 . S
O163 Zn157 2.035 . S
O164 Zn157 2.028 . S
O164 C167 1.247 . S
O165 Zn159 2.035 . S
O165 C167 1.258 . S
C166 O160 1.247 . S
C166 O161 1.258 . S
C167 O164 1.247 . S
C167 O165 1.258 . S
C168 O170 1.247 . S
C168 O172 1.258 . S
C169 O176 1.247 . S
C169 O177 1.258 . S
O170 C168 1.247 . S
O170 Zn171 2.028 . S
Zn171 O170 2.028 . S
Zn171 O175 2.035 . S
Zn171 O177 2.035 . S
Zn171 O178 2.028 . S
O172 C168 1.258 . S
O172 Zn173 2.035 . S
Zn173 O172 2.035 . S
Zn173 O174 2.028 . S
Zn173 O176 2.028 . S
Zn173 O179 2.035 . S
O174 Zn173 2.028 . S
O174 C180 1.247 . S
O175 Zn171 2.035 . S
O175 C180 1.258 . S
O176 C169 1.247 . S
O176 Zn173 2.028 . S
O177 C169 1.258 . S
O177 Zn171 2.035 . S
O178 Zn171 2.028 . S
O178 C181 1.247 . S
O179 Zn173 2.035 . S
O179 C181 1.258 . S
C180 O174 1.247 . S
C180 O175 1.258 . S
C181 O178 1.247 . S
C181 O179 1.258 . S
C182 O184 1.247 . S
C182 O186 1.258 . S
C183 O190 1.247 . S
C183 O191 1.258 . S
O184 C182 1.247 . S
O184 Zn185 2.028 . S
Zn185 O184 2.028 . S
Zn185 O189 2.035 . S
Zn185 O191 2.035 . S
Zn185 O192 2.028 . S
O186 C182 1.258 . S
O186 Zn187 2.035 . S
Zn187 O186 2.035 . S
Zn187 O188 2.028 . S
Zn187 O190 2.028 . S
Zn187 O193 2.035 . S
O188 Zn187 2.028 . S
O188 C194 1.247 . S
O189 Zn185 2.035 . S
O189 C194 1.258 . S
O190 C183 1.247 . S
O190 Zn187 2.028 . S
O191 C183 1.258 . S
O191 Zn185 2.035 . S
O192 Zn185 2.028 . S
O192 C195 1.247 . S
O193 Zn187 2.035 . S
O193 C195 1.258 . S
C194 O188 1.247 . S
C194 O189 1.258 . S
C195 O192 1.247 . S
C195 O193 1.258 . S
C196 O198 1.247 . S
C196 O200 1.258 . S
C197 O204 1.247 . S
C197 O205 1.258 . S
O198 C196 1.247 . S
O198 Zn199 2.028 . S
Zn199 O198 2.028 . S
Zn199 O203 2.035 . S
Zn199 O205 2.035 . S
Zn199 O206 2.028 . S
O200 C196 1.258 . S
O200 Zn201 2.035 . S
Zn201 O200 2.035 . S
Zn201 O202 2.028 . S
Zn201 O204 2.028 . S
Zn201 O207 2.035 . S
O202 Zn201 2.028 . S
O202 C208 1.247 . S
O203 Zn199 2.035 . S
O203 C208 1.258 . S
O204 C197 1.247 . S
O204 Zn201 2.028 . S
O205 C197 1.258 . S
O205 Zn199 2.035 . S
O206 Zn199 2.028 . S
O206 C209 1.247 . S
O207 Zn201 2.035 . S
O207 C209 1.258 . S
C208 O202 1.247 . S
C208 O203 1.258 . S
C209 O206 1.247 . S
C209 O207 1.258 . S
C210 O212 1.247 . S
C210 O214 1.258 . S
C211 O218 1.247 . S
C211 O219 1.258 . S
O212 C210 1.247 . S
O212 Zn213 2.028 . S
Zn213 O212 2.028 . S
Zn213 O217 2.035 . S
Zn213 O219 2.035 . S
Zn213 O220 2.028 . S
O214 C210 1.258 . S
O214 Zn215 2.035 . S
Zn215 O214 2.035 . S
Zn215 O216 2.028 . S
Zn215 O218 2.028 . S
Zn215 O221 2.035 . S
O216 Zn215 2.028 . S
O216 C222 1.247 . S
O217 Zn213 2.035 . S
O217 C222 1.258 . S
O218 C211 1.247 . S
O218 Zn215 2.028 . S
O219 C211 1.258 . S
O219 Zn213 2.035 . S
O220 Zn213 2.028 . S
O220 C223 1.247 . S
O221 Zn215 2.035 . S
O221 C223 1.258 . S
C222 O216 1.247 . S
C222 O217 1.258 . S
C223 O220 1.247 . S
C223 O221 1.258 . S
C224 O226 1.247 . S
C224 O228 1.258 . S
C225 O232 1.247 . S
C225 O233 1.258 . S
O226 C224 1.247 . S
O226 Zn227 2.028 . S
Zn227 O226 2.028 . S
Zn227 O231 2.035 . S
Zn227 O233 2.035 . S
Zn227 O234 2.028 . S
O228 C224 1.258 . S
O228 Zn229 2.035 . S
Zn229 O228 2.035 . S
Zn229 O230 2.028 . S
Zn229 O232 2.028 . S
Zn229 O235 2.035 . S
O230 Zn229 2.028 . S
O230 C236 1.247 . S
O231 Zn227 2.035 . S
O231 C236 1.258 . S
O232 C225 1.247 . S
O232 Zn229 2.028 . S
O233 C225 1.258 . S
O233 Zn227 2.035 . S
O234 Zn227 2.028 . S
O234 C237 1.247 . S
O235 Zn229 2.035 . S
O235 C237 1.258 . S
C236 O230 1.247 . S
C236 O231 1.258 . S
C237 O234 1.247 . S
C237 O235 1.258 . S
C238 O240 1.247 . S
C238 O242 1.258 . S
C239 O246 1.247 . S
C239 O247 1.258 . S
O240 C238 1.247 . S
O240 Zn241 2.028 . S
Zn241 O240 2.028 . S
Zn241 O245 2.035 . S
Zn241 O247 2.035 . S
Zn241 O248 2.028 . S
O242 C238 1.258 . S
O242 Zn243 2.035 . S
Zn243 O242 2.035 . S
Zn243 O244 2.028 . S
Zn243 O246 2.028 . S
Zn243 O249 2.035 . S
O244 Zn243 2.028 . S
O244 C250 1.247 . S
O245 Zn241 2.035 . S
O245 C250 1.258 . S
O246 C239 1.247 . S
O246 Zn243 2.028 . S
O247 C239 1.258 . S
O247 Zn241 2.035 . S
O248 Zn241 2.028 . S
O248 C251 1.247 . S
O249 Zn243 2.035 . S
O249 C251 1.258 . S
C250 O244 1.247 . S
C250 O245 1.258 . S
C251 O248 1.247 . S
C251 O249 1.258 . S
C252 C253 1.387 1_455 S
C252 H256 0.950 . S
C252 C261 1.390 . S
C253 C252 1.387 1_655 S
C253 C255 1.387 . S
H254 C261 0.950 . S
C255 C253 1.387 . S
C255 C257 1.390 . S
C255 H259 0.950 . S
H256 C252 0.950 . S
C257 C255 1.390 . S
C257 C258 1.387 1_655 S
C257 H260 0.950 . S
C258 C257 1.387 1_455 S
C258 C261 1.387 . S
H259 C255 0.950 . S
H260 C257 0.950 . S
C261 C252 1.390 . S
C261 H254 0.950 . S
C261 C258 1.387 . S
C262 C263 1.387 . S
C262 H266 0.950 . S
C262 C271 1.390 . S
C263 C262 1.387 . S
C263 C265 1.387 . S
H264 C271 0.950 . S
C265 C263 1.387 . S
C265 C267 1.390 . S
C265 H269 0.950 . S
H266 C262 0.950 . S
C267 C265 1.390 . S
C267 C268 1.387 . S
C267 H270 0.950 . S
C268 C267 1.387 . S
C268 C271 1.387 . S
H269 C265 0.950 . S
H270 C267 0.950 . S
C271 C262 1.390 . S
C271 H264 0.950 . S
C271 C268 1.387 . S
C272 C273 1.387 . S
C272 H276 0.950 . S
C272 C281 1.392 . S
C273 C272 1.387 . S
C273 C275 1.387 1_565 S
H274 C281 0.940 . S
C275 C273 1.387 1_545 S
C275 C277 1.390 . S
C275 H279 0.950 . S
H276 C272 0.950 . S
C277 C275 1.390 . S
C277 C278 1.387 . S
C277 H280 0.950 . S
C278 C277 1.387 . S
C278 C281 1.396 1_545 S
H279 C275 0.950 . S
H280 C277 0.950 . S
C281 C272 1.392 . S
C281 H274 0.940 . S
C281 C278 1.396 1_565 S
C282 C283 1.387 . S
C282 H286 0.950 . S
C282 C291 1.390 . S
C283 C282 1.387 . S
C283 C285 1.387 1_455 S
H284 C291 0.950 . S
C285 C283 1.387 1_655 S
C285 C287 1.390 . S
C285 H289 0.950 . S
H286 C282 0.950 . S
C287 C285 1.390 . S
C287 C288 1.387 . S
C287 H290 0.950 . S
C288 C287 1.387 . S
C288 C291 1.387 1_655 S
H289 C285 0.950 . S
H290 C287 0.950 . S
C291 C282 1.390 . S
C291 H284 0.950 . S
C291 C288 1.387 1_455 S
C292 C293 1.387 . S
C292 H296 0.950 . S
C292 C301 1.390 . S
C293 C292 1.387 . S
C293 C295 1.387 . S
H294 C301 0.950 . S
C295 C293 1.387 . S
C295 C297 1.390 . S
C295 H299 0.950 . S
H296 C292 0.950 . S
C297 C295 1.390 . S
C297 C298 1.387 . S
C297 H300 0.950 . S
C298 C297 1.387 . S
C298 C301 1.387 . S
H299 C295 0.950 . S
H300 C297 0.950 . S
C301 C292 1.390 . S
C301 H294 0.950 . S
C301 C298 1.387 . S
C302 C303 1.387 . S
C302 H306 0.950 . S
C302 C311 1.388 1_545 S
C303 C302 1.387 . S
C303 C305 1.387 . S
H304 C311 0.964 . S
C305 C303 1.387 . S
C305 C307 1.388 1_545 S
C305 H309 0.950 . S
H306 C302 0.950 . S
C307 C305 1.388 1_565 S
C307 C308 1.400 . S
C307 H310 0.940 . S
C308 C307 1.400 . S
C308 C311 1.376 . S
H309 C305 0.950 . S
H310 C307 0.940 . S
C311 C302 1.388 1_565 S
C311 H304 0.964 . S
C311 C308 1.376 . S
C312 C313 1.387 . S
C312 H316 0.950 . S
C312 C321 1.390 . S
C313 C312 1.387 . S
C313 C315 1.387 . S
H314 C321 0.950 . S
C315 C313 1.387 . S
C315 C317 1.390 . S
C315 H319 0.950 . S
H316 C312 0.950 . S
C317 C315 1.390 . S
C317 C318 1.387 . S
C317 H320 0.950 . S
C318 C317 1.387 . S
C318 C321 1.387 . S
H319 C315 0.950 . S
H320 C317 0.950 . S
C321 C312 1.390 . S
C321 H314 0.950 . S
C321 C318 1.387 . S
C322 C323 1.387 . S
C322 H326 0.950 . S
C322 C331 1.390 . S
C323 C322 1.387 . S
C323 C325 1.387 . S
H324 C331 0.950 . S
C325 C323 1.387 . S
C325 C327 1.390 . S
C325 H329 0.950 . S
H326 C322 0.950 . S
C327 C325 1.390 . S
C327 C328 1.387 . S
C327 H330 0.950 . S
C328 C327 1.387 . S
C328 C331 1.387 . S
H329 C325 0.950 . S
H330 C327 0.950 . S
C331 C322 1.390 . S
C331 H324 0.950 . S
C331 C328 1.387 . S
C332 C333 1.387 . S
C332 H336 0.950 . S
C332 C341 1.390 . S
C333 C332 1.387 . S
C333 C335 1.387 . S
H334 C341 0.950 . S
C335 C333 1.387 . S
C335 C337 1.390 . S
C335 H339 0.950 . S
H336 C332 0.950 . S
C337 C335 1.390 . S
C337 C338 1.387 . S
C337 H340 0.950 . S
C338 C337 1.387 . S
C338 C341 1.387 . S
H339 C335 0.950 . S
H340 C337 0.950 . S
C341 C332 1.390 . S
C341 H334 0.950 . S
C341 C338 1.387 . S
C342 C343 1.387 . S
C342 H346 0.950 . S
C342 C351 1.390 . S
C343 C342 1.387 . S
C343 C345 1.387 . S
H344 C351 0.950 . S
C345 C343 1.387 . S
C345 C347 1.390 . S
C345 H349 0.950 . S
H346 C342 0.950 . S
C347 C345 1.390 . S
C347 C348 1.387 . S
C347 H350 0.950 . S
C348 C347 1.387 . S
C348 C351 1.387 . S
H349 C345 0.950 . S
H350 C347 0.950 . S
C351 C342 1.390 . S
C351 H344 0.950 . S
C351 C348 1.387 . S
C352 C353 1.387 . S
C352 H356 0.950 . S
C352 C361 1.390 . S
C353 C352 1.387 . S
C353 C355 1.387 . S
H354 C361 0.950 . S
C355 C353 1.387 . S
C355 C357 1.390 . S
C355 H359 0.950 . S
H356 C352 0.950 . S
C357 C355 1.390 . S
C357 C358 1.387 . S
C357 H360 0.950 . S
C358 C357 1.387 . S
C358 C361 1.387 . S
H359 C355 0.950 . S
H360 C357 0.950 . S
C361 C352 1.390 . S
C361 H354 0.950 . S
C361 C358 1.387 . S
C362 C363 1.387 . S
C362 H366 0.950 . S
C362 C371 1.390 . S
C363 C362 1.387 . S
C363 C365 1.387 . S
H364 C371 0.950 . S
C365 C363 1.387 . S
C365 C367 1.390 . S
C365 H369 0.950 . S
H366 C362 0.950 . S
C367 C365 1.390 . S
C367 C368 1.387 . S
C367 H370 0.950 . S
C368 C367 1.387 . S
C368 C371 1.387 . S
H369 C365 0.950 . S
H370 C367 0.950 . S
C371 C362 1.390 . S
C371 H364 0.950 . S
C371 C368 1.387 . S
C372 C373 1.387 . S
C372 H376 0.950 . S
C372 C381 1.390 . S
C373 C372 1.387 . S
C373 C375 1.387 . S
H374 C381 0.950 . S
C375 C373 1.387 . S
C375 C377 1.390 . S
C375 H379 0.950 . S
H376 C372 0.950 . S
C377 C375 1.390 . S
C377 C378 1.387 . S
C377 H380 0.950 . S
C378 C377 1.387 . S
C378 C381 1.387 . S
H379 C375 0.950 . S
H380 C377 0.950 . S
C381 C372 1.390 . S
C381 H374 0.950 . S
C381 C378 1.387 . S
C382 C383 1.387 . S
C382 H386 0.950 . S
C382 C391 1.390 . S
C383 C382 1.387 . S
C383 C385 1.387 . S
H384 C391 0.950 . S
C385 C383 1.387 . S
C385 C387 1.390 . S
C385 H389 0.950 . S
H386 C382 0.950 . S
C387 C385 1.390 . S
C387 C388 1.387 . S
C387 H390 0.950 . S
C388 C387 1.387 . S
C388 C391 1.387 . S
H389 C385 0.950 . S
H390 C387 0.950 . S
C391 C382 1.390 . S
C391 H384 0.950 . S
C391 C388 1.387 . S
C392 C393 1.387 . S
C392 H396 0.950 . S
C392 C401 1.390 . S
C393 C392 1.387 . S
C393 C395 1.387 . S
H394 C401 0.950 . S
C395 C393 1.387 . S
C395 C397 1.390 . S
C395 H399 0.950 . S
H396 C392 0.950 . S
C397 C395 1.390 . S
C397 C398 1.387 . S
C397 H400 0.950 . S
C398 C397 1.387 . S
C398 C401 1.387 . S
H399 C395 0.950 . S
H400 C397 0.950 . S
C401 C392 1.390 . S
C401 H394 0.950 . S
C401 C398 1.387 . S
C402 C403 1.387 . S
C402 H406 0.950 . S
C402 C411 1.390 . S
C403 C402 1.387 . S
C403 C405 1.387 . S
H404 C411 0.950 . S
C405 C403 1.387 . S
C405 C407 1.390 . S
C405 H409 0.950 . S
H406 C402 0.950 . S
C407 C405 1.390 . S
C407 C408 1.387 . S
C407 H410 0.950 . S
C408 C407 1.387 . S
C408 C411 1.387 . S
H409 C405 0.950 . S
H410 C407 0.950 . S
C411 C402 1.390 . S
C411 H404 0.950 . S
C411 C408 1.387 . S
C412 C413 1.387 . S
C412 H416 0.950 . S
C412 C421 1.390 . S
C413 C412 1.387 . S
C413 C415 1.387 . S
H414 C421 0.950 . S
C415 C413 1.387 . S
C415 C417 1.390 . S
C415 H419 0.950 . S
H416 C412 0.950 . S
C417 C415 1.390 . S
C417 C418 1.387 . S
C417 H420 0.950 . S
C418 C417 1.387 . S
C418 C421 1.387 . S
H419 C415 0.950 . S
H420 C417 0.950 . S
C421 C412 1.390 . S
C421 H414 0.950 . S
C421 C418 1.387 . S
C422 C423 1.387 . S
C422 H426 0.950 . S
C422 C431 1.390 . S
C423 C422 1.387 . S
C423 C425 1.387 . S
H424 C431 0.950 . S
C425 C423 1.387 . S
C425 C427 1.390 . S
C425 H429 0.950 . S
H426 C422 0.950 . S
C427 C425 1.390 . S
C427 C428 1.387 . S
C427 H430 0.950 . S
C428 C427 1.387 . S
C428 C431 1.387 . S
H429 C425 0.950 . S
H430 C427 0.950 . S
C431 C422 1.390 . S
C431 H424 0.950 . S
C431 C428 1.387 . S
C432 C433 1.387 . S
C432 H436 0.950 . S
C432 C441 1.390 . S
C433 C432 1.387 . S
C433 C435 1.387 . S
H434 C441 0.950 . S
C435 C433 1.387 . S
C435 C437 1.390 . S
C435 H439 0.950 . S
H436 C432 0.950 . S
C437 C435 1.390 . S
C437 C438 1.387 . S
C437 H440 0.950 . S
C438 C437 1.387 . S
C438 C441 1.387 . S
H439 C435 0.950 . S
H440 C437 0.950 . S
C441 C432 1.390 . S
C441 H434 0.950 . S
C441 C438 1.387 . S
C442 C443 1.387 . S
C442 H446 0.950 . S
C442 C451 1.390 . S
C443 C442 1.387 . S
C443 C445 1.387 . S
H444 C451 0.950 . S
C445 C443 1.387 . S
C445 C447 1.390 . S
C445 H449 0.950 . S
H446 C442 0.950 . S
C447 C445 1.390 . S
C447 C448 1.387 . S
C447 H450 0.950 . S
C448 C447 1.387 . S
C448 C451 1.387 . S
H449 C445 0.950 . S
H450 C447 0.950 . S
C451 C442 1.390 . S
C451 H444 0.950 . S
C451 C448 1.387 . S
C452 C453 1.387 . S
C452 H456 0.950 . S
C452 C461 1.390 . S
C453 C452 1.387 . S
C453 C455 1.387 . S
H454 C461 0.950 1_554 S
C455 C453 1.387 . S
C455 C457 1.390 . S
C455 H459 0.950 . S
H456 C452 0.950 . S
C457 C455 1.390 . S
C457 C458 1.387 . S
C457 H460 0.950 . S
C458 C457 1.387 . S
C458 C461 1.387 . S
H459 C455 0.950 . S
H460 C457 0.950 . S
C461 C452 1.390 . S
C461 H454 0.950 1_556 S
C461 C458 1.387 . S
C462 C463 1.387 . S
C462 H466 0.950 . S
C462 C471 1.390 . S
C463 C462 1.387 . S
C463 C465 1.387 . S
H464 C471 0.950 . S
C465 C463 1.387 . S
C465 C467 1.390 . S
C465 H469 0.950 . S
H466 C462 0.950 . S
C467 C465 1.390 . S
C467 C468 1.387 . S
C467 H470 0.950 . S
C468 C467 1.387 . S
C468 C471 1.387 . S
H469 C465 0.950 . S
H470 C467 0.950 . S
C471 C462 1.390 . S
C471 H464 0.950 . S
C471 C468 1.387 . S
C472 C473 1.387 . S
C472 H476 0.950 . S
C472 C481 1.390 . S
C473 C472 1.387 . S
C473 C475 1.387 . S
H474 C481 0.950 . S
C475 C473 1.387 . S
C475 C477 1.390 . S
C475 H479 0.950 . S
H476 C472 0.950 . S
C477 C475 1.390 . S
C477 C478 1.387 . S
C477 H480 0.950 . S
C478 C477 1.387 . S
C478 C481 1.387 . S
H479 C475 0.950 . S
H480 C477 0.950 . S
C481 C472 1.390 . S
C481 H474 0.950 . S
C481 C478 1.387 . S
C482 C483 1.387 . S
C482 H486 0.950 . S
C482 C491 1.390 . S
C483 C482 1.387 . S
C483 C485 1.387 . S
H484 C491 0.950 . S
C485 C483 1.387 . S
C485 C487 1.390 . S
C485 H489 0.950 . S
H486 C482 0.950 . S
C487 C485 1.390 . S
C487 C488 1.387 . S
C487 H490 0.950 . S
C488 C487 1.387 . S
C488 C491 1.387 . S
H489 C485 0.950 . S
H490 C487 0.950 . S
C491 C482 1.390 . S
C491 H484 0.950 . S
C491 C488 1.387 . S
C492 C493 1.387 . S
C492 H496 0.950 . S
C492 C501 1.390 . S
C493 C492 1.387 . S
C493 C495 1.387 . S
H494 C501 0.950 1_556 S
C495 C493 1.387 . S
C495 C497 1.390 . S
C495 H499 0.950 . S
H496 C492 0.950 . S
C497 C495 1.390 . S
C497 C498 1.387 . S
C497 H500 0.950 . S
C498 C497 1.387 . S
C498 C501 1.387 . S
H499 C495 0.950 . S
H500 C497 0.950 . S
C501 C492 1.390 . S
C501 H494 0.950 1_554 S
C501 C498 1.387 . S
C502 C503 1.387 . S
C502 H506 0.950 . S
C502 C511 1.390 . S
C503 C502 1.387 . S
C503 C505 1.387 . S
H504 C511 0.950 . S
C505 C503 1.387 . S
C505 C507 1.390 . S
C505 H509 0.950 . S
H506 C502 0.950 . S
C507 C505 1.390 . S
C507 C508 1.387 . S
C507 H510 0.950 . S
C508 C507 1.387 . S
C508 C511 1.387 . S
H509 C505 0.950 . S
H510 C507 0.950 . S
C511 C502 1.390 . S
C511 H504 0.950 . S
C511 C508 1.387 . S
C512 C513 1.387 . S
C512 H516 0.950 . S
C512 C521 1.390 . S
C513 C512 1.387 . S
C513 C515 1.387 . S
H514 C521 0.950 . S
C515 C513 1.387 . S
C515 C517 1.390 . S
C515 H519 0.950 . S
H516 C512 0.950 . S
C517 C515 1.390 . S
C517 C518 1.387 . S
C517 H520 0.950 . S
C518 C517 1.387 . S
C518 C521 1.387 . S
H519 C515 0.950 . S
H520 C517 0.950 . S
C521 C512 1.390 . S
C521 H514 0.950 . S
C521 C518 1.387 . S
C522 C523 1.387 . S
C522 H526 0.950 . S
C522 C531 1.390 . S
C523 C522 1.387 . S
C523 C525 1.387 . S
H524 C531 0.950 . S
C525 C523 1.387 . S
C525 C527 1.390 . S
C525 H529 0.950 . S
H526 C522 0.950 . S
C527 C525 1.390 . S
C527 C528 1.387 . S
C527 H530 0.950 . S
C528 C527 1.387 . S
C528 C531 1.387 . S
H529 C525 0.950 . S
H530 C527 0.950 . S
C531 C522 1.390 . S
C531 H524 0.950 . S
C531 C528 1.387 . S
C532 C533 1.387 . S
C532 H536 0.950 . S
C532 C541 1.390 . S
C533 C532 1.387 . S
C533 C535 1.387 . S
H534 C541 0.950 . S
C535 C533 1.387 . S
C535 C537 1.390 . S
C535 H539 0.950 . S
H536 C532 0.950 . S
C537 C535 1.390 . S
C537 C538 1.387 . S
C537 H540 0.950 . S
C538 C537 1.387 . S
C538 C541 1.387 . S
H539 C535 0.950 . S
H540 C537 0.950 . S
C541 C532 1.390 . S
C541 H534 0.950 . S
C541 C538 1.387 . S
C542 C543 1.387 . S
C542 H546 0.950 . S
C542 C551 1.390 . S
C543 C542 1.387 . S
C543 C545 1.387 . S
H544 C551 0.950 . S
C545 C543 1.387 . S
C545 C547 1.390 . S
C545 H549 0.950 . S
H546 C542 0.950 . S
C547 C545 1.390 . S
C547 C548 1.387 . S
C547 H550 0.950 . S
C548 C547 1.387 . S
C548 C551 1.387 . S
H549 C545 0.950 . S
H550 C547 0.950 . S
C551 C542 1.390 . S
C551 H544 0.950 . S
C551 C548 1.387 . S
C552 C553 1.387 . S
C552 H556 0.950 . S
C552 C561 1.390 . S
C553 C552 1.387 . S
C553 C555 1.387 . S
H554 C561 0.950 . S
C555 C553 1.387 . S
C555 C557 1.390 . S
C555 H559 0.950 . S
H556 C552 0.950 . S
C557 C555 1.390 . S
C557 C558 1.387 . S
C557 H560 0.950 . S
C558 C557 1.387 . S
C558 C561 1.387 . S
H559 C555 0.950 . S
H560 C557 0.950 . S
C561 C552 1.390 . S
C561 H554 0.950 . S
C561 C558 1.387 . S
C562 C563 1.387 . S
C562 H566 0.950 . S
C562 C571 1.390 1_545 S
C563 C562 1.387 . S
C563 C565 1.387 . S
H564 C571 0.950 . S
C565 C563 1.387 . S
C565 C567 1.390 1_545 S
C565 H569 0.950 . S
H566 C562 0.950 . S
C567 C565 1.390 1_565 S
C567 C568 1.387 . S
C567 H570 0.950 . S
C568 C567 1.387 . S
C568 C571 1.387 . S
H569 C565 0.950 . S
H570 C567 0.950 . S
C571 C562 1.390 1_565 S
C571 H564 0.950 . S
C571 C568 1.387 . S
C572 C573 1.387 . S
C572 H576 0.950 . S
C572 C581 1.390 1_455 S
C573 C572 1.387 . S
C573 C575 1.387 . S
H574 C581 0.950 . S
C575 C573 1.387 . S
C575 C577 1.390 1_455 S
C575 H579 0.950 . S
H576 C572 0.950 . S
C577 C575 1.390 1_655 S
C577 C578 1.387 . S
C577 H580 0.950 . S
C578 C577 1.387 . S
C578 C581 1.387 . S
H579 C575 0.950 . S
H580 C577 0.950 . S
C581 C572 1.390 1_655 S
C581 H574 0.950 . S
C581 C578 1.387 . S
C582 C583 1.387 . S
C582 H586 0.950 . S
C582 C591 1.390 . S
C583 C582 1.387 . S
C583 C585 1.387 . S
H584 C591 0.950 . S
C585 C583 1.387 . S
C585 C587 1.390 . S
C585 H589 0.950 . S
H586 C582 0.950 . S
C587 C585 1.390 . S
C587 C588 1.387 . S
C587 H590 0.950 . S
C588 C587 1.387 . S
C588 C591 1.387 . S
H589 C585 0.950 . S
H590 C587 0.950 . S
C591 C582 1.390 . S
C591 H584 0.950 . S
C591 C588 1.387 . S
C592 C593 1.387 . S
C592 H596 0.950 . S
C592 C601 1.390 1_545 S
C593 C592 1.387 . S
C593 C595 1.387 . S
H594 C601 0.950 . S
C595 C593 1.387 . S
C595 C597 1.390 1_545 S
C595 H599 0.950 . S
H596 C592 0.950 . S
C597 C595 1.390 1_565 S
C597 C598 1.387 . S
C597 H600 0.950 . S
C598 C597 1.387 . S
C598 C601 1.387 . S
H599 C595 0.950 . S
H600 C597 0.950 . S
C601 C592 1.390 1_565 S
C601 H594 0.950 . S
C601 C598 1.387 . S
C602 C603 1.387 . S
C602 H606 0.950 . S
C602 C611 1.390 1_455 S
C603 C602 1.387 . S
C603 C605 1.387 . S
H604 C611 0.950 . S
C605 C603 1.387 . S
C605 C607 1.390 1_455 S
C605 H609 0.950 . S
H606 C602 0.950 . S
C607 C605 1.390 1_655 S
C607 C608 1.387 . S
C607 H610 0.950 . S
C608 C607 1.387 . S
C608 C611 1.387 . S
H609 C605 0.950 . S
H610 C607 0.950 . S
C611 C602 1.390 1_655 S
C611 H604 0.950 . S
C611 C608 1.387 . S
C253 C57 1.305 . S
C258 C1 1.305 . S
C263 C70 1.306 . S
C268 C14 1.306 . S
C273 C28 1.305 . S
C278 C43 1.305 . S
C283 C56 1.305 . S
C288 C0 1.305 . S
C293 C71 1.306 . S
C298 C15 1.306 . S
C303 C29 1.306 . S
C308 C42 1.305 . S
C313 C153 1.305 . S
C318 C84 1.305 . S
C323 C155 1.305 . S
C328 C110 1.306 . S
C333 C112 1.305 . S
C338 C139 1.305 . S
C343 C85 1.305 . S
C348 C152 1.305 1_554 S
C353 C154 1.305 1_554 S
C358 C111 1.306 . S
C363 C138 1.305 1_554 S
C368 C113 1.305 . S
C373 C237 1.305 1_556 S
C378 C168 1.305 . S
C383 C182 1.305 . S
C388 C238 1.305 1_556 S
C393 C211 1.305 1_556 S
C398 C209 1.305 . S
C403 C236 1.305 . S
C408 C169 1.306 . S
C413 C239 1.306 . S
C418 C183 1.306 . S
C423 C208 1.305 . S
C428 C210 1.305 . S
C433 C13 1.535 . S
C438 C127 1.532 . S
C443 C141 1.535 . S
C448 C26 1.535 . S
C453 C167 1.534 . S
C458 C40 1.534 . S
C463 C55 1.535 . S
C468 C180 1.535 . S
C473 C194 1.535 . S
C478 C69 1.535 . S
C483 C197 1.534 . S
C488 C82 1.534 . S
C493 C222 1.534 . S
C498 C12 1.537 . S
C503 C224 1.534 . S
C508 C27 1.534 . S
C513 C251 1.535 . S
C518 C41 1.534 . S
C523 C54 1.534 . S
C528 C97 1.534 . S
C533 C68 1.534 . S
C538 C99 1.534 . S
C543 C125 1.534 . S
C548 C83 1.534 . S
C553 C223 1.535 . S
C558 C96 1.535 . S
C563 C225 1.534 . S
C568 C98 1.534 . S
C573 C124 1.535 . S
C578 C250 1.535 . S
C583 C181 1.534 . S
C588 C126 1.534 . S
C593 C195 1.534 . S
C598 C140 1.534 . S
C603 C166 1.534 . S
C608 C196 1.534 . S
