# Generated by pormake.
# Topology snk, (6)-cn, num edge types: 1
# Building blocks:
#     Node 0, Type 0, BuildingBlock: HISSIN_clean_sbu_0, # of connection points: 6
#     Node 1, Type 0, BuildingBlock: HISSIN_clean_sbu_0, # of connection points: 6
#     Node 2, Type 0, BuildingBlock: HISSIN_clean_sbu_0, # of connection points: 6
#     Node 3, Type 0, BuildingBlock: HISSIN_clean_sbu_0, # of connection points: 6
#     Node 4, Type 0, BuildingBlock: HISSIN_clean_sbu_0, # of connection points: 6
#     Node 5, Type 0, BuildingBlock: HISSIN_clean_sbu_0, # of connection points: 6
#     Node 6, Type 0, BuildingBlock: HISSIN_clean_sbu_0, # of connection points: 6
#     Node 7, Type 0, BuildingBlock: HISSIN_clean_sbu_0, # of connection points: 6
#     Edge 8, Type (0, 0), BuildingBlock: TEMPAE_clean_linker_10, # of connection points: 2
#     Edge 9, Type (0, 0), BuildingBlock: TEMPAE_clean_linker_10, # of connection points: 2
#     Edge 10, Type (0, 0), BuildingBlock: TEMPAE_clean_linker_10, # of connection points: 2
#     Edge 11, Type (0, 0), BuildingBlock: TEMPAE_clean_linker_10, # of connection points: 2
#     Edge 12, Type (0, 0), BuildingBlock: TEMPAE_clean_linker_10, # of connection points: 2
#     Edge 13, Type (0, 0), BuildingBlock: TEMPAE_clean_linker_10, # of connection points: 2
#     Edge 14, Type (0, 0), BuildingBlock: TEMPAE_clean_linker_10, # of connection points: 2
#     Edge 15, Type (0, 0), BuildingBlock: TEMPAE_clean_linker_10, # of connection points: 2
#     Edge 16, Type (0, 0), BuildingBlock: TEMPAE_clean_linker_10, # of connection points: 2
#     Edge 17, Type (0, 0), BuildingBlock: TEMPAE_clean_linker_10, # of connection points: 2
#     Edge 18, Type (0, 0), BuildingBlock: TEMPAE_clean_linker_10, # of connection points: 2
#     Edge 19, Type (0, 0), BuildingBlock: TEMPAE_clean_linker_10, # of connection points: 2
#     Edge 20, Type (0, 0), BuildingBlock: TEMPAE_clean_linker_10, # of connection points: 2
#     Edge 21, Type (0, 0), BuildingBlock: TEMPAE_clean_linker_10, # of connection points: 2
#     Edge 22, Type (0, 0), BuildingBlock: TEMPAE_clean_linker_10, # of connection points: 2
#     Edge 23, Type (0, 0), BuildingBlock: TEMPAE_clean_linker_10, # of connection points: 2
#     Edge 24, Type (0, 0), BuildingBlock: TEMPAE_clean_linker_10, # of connection points: 2
#     Edge 25, Type (0, 0), BuildingBlock: TEMPAE_clean_linker_10, # of connection points: 2
#     Edge 26, Type (0, 0), BuildingBlock: TEMPAE_clean_linker_10, # of connection points: 2
#     Edge 27, Type (0, 0), BuildingBlock: TEMPAE_clean_linker_10, # of connection points: 2
#     Edge 28, Type (0, 0), BuildingBlock: TEMPAE_clean_linker_10, # of connection points: 2
#     Edge 29, Type (0, 0), BuildingBlock: TEMPAE_clean_linker_10, # of connection points: 2
#     Edge 30, Type (0, 0), BuildingBlock: TEMPAE_clean_linker_10, # of connection points: 2
#     Edge 31, Type (0, 0), BuildingBlock: TEMPAE_clean_linker_10, # of connection points: 2
# Relax obj value: 0.079
# Max RMSD: 0.151
# Mean RMSD: 0.125
data_MOF--net-snk--node1-HISSIN_clean_sbu_0--edge1-TEMPAE_clean_linker_10
_symmetry_space_group_name_H-M    P1
_symmetry_Int_Tables_number       1
_symmetry_cell_setting            triclinic
loop_
_symmetry_equiv_pos_as_xyz
'x, y, z'
_cell_length_a     38.767283
_cell_length_b     38.709528
_cell_length_c     25.566425
_cell_angle_alpha  95.040697
_cell_angle_beta   95.228046
_cell_angle_gamma 91.717824
loop_
_atom_site_label
_atom_site_type_symbol
_atom_site_fract_x
_atom_site_fract_y
_atom_site_fract_z
_atom_type_partial_charge
Eu0 Eu 1.00029 0.98194 0.46108 0.0
Eu1 Eu 0.02231 0.0253 0.57928 0.0
C2 C 0.96879 0.0563 0.49154 0.0
C3 C 0.99025 0.95805 0.31244 0.0
C4 C 1.00299 0.99094 0.30255 0.0
C5 C 0.98608 0.94037 0.21834 0.0
C6 C 0.00742 0.99845 0.25089 0.0
C7 C 0.98178 0.93287 0.27003 0.0
C8 C 0.99907 0.97323 0.20807 0.0
C9 C 0.98653 0.94955 0.36681 0.0
O10 O 0.98849 0.97907 0.59319 0.0
O11 O 0.95762 0.96846 0.51192 0.0
C12 C 0.96197 0.96439 0.5627 0.0
O13 O 0.02484 0.94385 0.514 0.0
O14 O 0.00599 0.05508 0.6485 0.0
O15 O 0.0598 0.0424 0.64661 0.0
O16 O 0.05984 0.9825 0.56916 0.0
C17 C 0.05092 0.95055 0.55035 0.0
O18 O 0.04882 0.01395 0.45228 0.0
O19 O 0.05113 0.05526 0.52353 0.0
O20 O 0.97748 0.05321 0.54177 0.0
O21 O 0.01542 0.94677 0.39637 0.0
O22 O 0.96375 0.96679 0.39207 0.0
O23 O 0.9796 0.03508 0.45412 0.0
C24 C 0.03634 0.04535 0.72942 0.0
C25 C 0.02778 0.01113 0.73911 0.0
C26 C 0.0403 0.06223 0.8237 0.0
C27 C 0.02526 1.00258 0.79085 0.0
C28 C 0.04287 0.0707 0.77206 0.0
C29 C 0.03107 0.02815 0.8338 0.0
C30 C 0.03631 0.05547 0.67515 0.0
C31 C 0.06063 0.04377 0.47715 0.0
H32 H 0.00955 0.01074 0.33483 0.0
H33 H 0.97979 0.9202 0.1865 0.0
H34 H 0.01707 0.02413 0.24446 0.0
H35 H 0.97207 0.90729 0.27691 0.0
H36 H 0.02238 0.99122 0.70661 0.0
H37 H 0.04547 0.08244 0.85579 0.0
H38 H 0.01779 0.97618 0.79706 0.0
H39 H 0.04942 0.09726 0.76535 0.0
Eu40 Eu 0.25157 0.75145 0.76078 0.0
Eu41 Eu 0.20364 0.73973 0.8607 0.0
C42 C 0.20644 0.68345 0.76453 0.0
C43 C 0.27327 0.75576 0.61846 0.0
C44 C 0.23954 0.74467 0.59783 0.0
C45 C 0.28848 0.7614 0.52929 0.0
C46 C 0.2303 0.74211 0.54324 0.0
C47 C 0.29761 0.76408 0.58382 0.0
C48 C 0.2547 0.75042 0.5082 0.0
C49 C 0.2833 0.75903 0.67586 0.0
O50 O 0.2533 0.71117 0.87437 0.0
O51 O 0.29073 0.74087 0.82755 0.0
C52 C 0.28491 0.71903 0.86279 0.0
O53 O 0.24874 0.8027 0.80848 0.0
O54 O 0.18197 0.70589 0.91466 0.0
O55 O 0.17197 0.76075 0.92141 0.0
O56 O 0.24326 0.78202 0.88852 0.0
C57 C 0.25152 0.80704 0.86015 0.0
O58 O 0.19579 0.75378 0.7303 0.0
O59 O 0.17496 0.77534 0.8068 0.0
O60 O 0.1849 0.70027 0.79334 0.0
O61 O 0.27006 0.78448 0.70324 0.0
O62 O 0.28271 0.73044 0.69918 0.0
O63 O 0.23831 0.69524 0.76422 0.0
C64 C 0.17825 0.73313 1.00043 0.0
C65 C 0.21077 0.74641 0.02342 0.0
C66 C 0.16193 0.72316 0.08773 0.0
C67 C 0.21875 0.74821 0.07823 0.0
C68 C 0.15396 0.72148 0.03295 0.0
C69 C 0.19442 0.73662 0.11118 0.0
C70 C 0.1694 0.73149 0.94279 0.0
C71 C 0.17354 0.77241 0.75487 0.0
H72 H 0.22039 0.73794 0.62394 0.0
H73 H 0.30779 0.76844 0.50366 0.0
H74 H 0.20419 0.73321 0.52843 0.0
H75 H 0.32373 0.77279 0.59897 0.0
H76 H 0.22998 0.7554 0.99896 0.0
H77 H 0.14242 0.71438 0.11181 0.0
H78 H 0.24415 0.7583 0.09475 0.0
H79 H 0.1287 0.7112 1.01599 0.0
Eu80 Eu 0.51586 0.98053 0.04361 0.0
Eu81 Eu 0.50229 0.022 0.93563 0.0
C82 C 0.56743 0.03753 1.01678 0.0
C83 C 0.51846 0.9548 0.18512 0.0
C84 C 0.50133 0.98427 0.20341 0.0
C85 C 0.52209 0.93541 0.27312 0.0
C86 C 0.49508 0.98954 0.25653 0.0
C87 C 0.52835 0.93021 0.22006 0.0
C88 C 0.50591 0.96542 0.29221 0.0
C89 C 0.52836 0.95064 0.13087 0.0
O90 O 0.54016 0.98077 0.91683 0.0
O91 O 0.52807 0.94214 0.97681 0.0
C92 C 0.54213 0.9498 0.93411 0.0
O93 O 0.45929 0.9756 1.01606 0.0
O94 O 0.52239 0.0516 0.8756 0.0
O95 O 0.46716 0.04013 0.873 0.0
O96 O 0.46702 0.97452 0.92846 0.0
C97 C 0.44816 0.96763 0.96651 0.0
O98 O 0.49719 0.03296 0.07181 0.0
O99 O 0.46825 0.04696 0.99418 0.0
O100 O 0.54152 0.0526 0.99269 0.0
O101 O 0.50418 0.9395 0.09379 0.0
O102 O 0.54747 0.97604 0.11722 0.0
O103 O 0.56514 0.00429 0.02169 0.0
C104 C 0.49113 0.04255 0.7919 0.0
C105 C 0.50109 0.00952 0.77322 0.0
C106 C 0.47985 0.05708 0.70166 0.0
C107 C 0.50064 1.00039 0.71898 0.0
C108 C 0.48034 0.06617 0.75587 0.0
C109 C 0.4902 0.02415 0.68253 0.0
C110 C 0.49223 0.05277 0.84875 0.0
C111 C 0.47421 0.05097 0.04592 0.0
H112 H 0.49364 1.00363 0.17693 0.0
H113 H 0.53027 0.91609 0.29935 0.0
H114 H 0.48287 0.01307 0.26998 0.0
H115 H 0.5416 0.90731 0.20655 0.0
H116 H 0.50951 0.99095 0.80062 0.0
H117 H 0.4712 0.0758 0.67469 0.0
H118 H 0.50913 0.97498 0.70562 0.0
H119 H 0.47241 0.09172 0.76969 0.0
Eu120 Eu 0.27963 0.25634 0.31439 0.0
Eu121 Eu 0.23779 0.23984 0.19654 0.0
C122 C 0.20804 0.29297 0.28203 0.0
C123 C 0.30121 0.2677 0.46387 0.0
C124 C 0.26738 0.25805 0.47365 0.0
C125 C 0.31747 0.27613 0.55824 0.0
C126 C 0.25876 0.25702 0.52547 0.0
C127 C 0.32608 0.27704 0.50641 0.0
C128 C 0.28381 0.26572 0.5684 0.0
C129 C 0.3113 0.26624 0.4097 0.0
O130 O 0.26841 0.29063 0.1945 0.0
O131 O 0.31158 0.28427 0.26033 0.0
C132 C 0.29947 0.29909 0.2184 0.0
O133 O 0.30292 0.20937 0.2735 0.0
O134 O 0.20359 0.2553 0.13083 0.0
O135 O 0.22393 0.20368 0.12687 0.0
O136 O 0.29233 0.22399 0.18926 0.0
C137 C 0.31012 0.20728 0.22417 0.0
O138 O 0.23043 0.22715 0.32673 0.0
O139 O 0.2228 0.19626 0.24574 0.0
O140 O 0.20017 0.26739 0.24539 0.0
O141 O 0.30681 0.23602 0.3827 0.0
O142 O 0.30154 0.29148 0.38178 0.0
O143 O 0.23935 0.29723 0.30687 0.0
C144 C 0.21538 0.23038 0.04744 0.0
C145 C 0.2491 0.24042 0.03762 0.0
C146 C 0.19715 0.22923 0.95388 0.0
C147 C 0.25682 0.24478 0.98612 0.0
C148 C 0.18951 0.22479 1.00533 0.0
C149 C 0.23088 0.23935 0.94365 0.0
C150 C 0.20671 0.22648 0.10143 0.0
C151 C 0.21663 0.20065 0.29568 0.0
H152 H 0.24782 0.25077 0.44119 0.0
H153 H 0.33746 0.28262 0.59034 0.0
H154 H 0.23251 0.24932 0.53194 0.0
H155 H 0.35237 0.28438 0.49953 0.0
H156 H 0.26936 0.24508 0.06983 0.0
H157 H 0.17671 0.22442 0.92202 0.0
H158 H 0.28294 0.25295 0.97966 0.0
H159 H 0.16334 0.21706 1.01227 0.0
Eu160 Eu 0.76133 0.26199 0.27688 0.0
Eu161 Eu 0.71409 0.25504 0.37837 0.0
C162 C 0.7096 0.19771 0.28146 0.0
C163 C 0.78502 0.26544 0.13576 0.0
C164 C 0.75053 0.25815 0.115 0.0
C165 C 0.80144 0.26918 0.04685 0.0
C166 C 0.74151 0.25653 0.06048 0.0
C167 C 0.81037 0.27094 0.10136 0.0
C168 C 0.76689 0.26199 0.02566 0.0
C169 C 0.79473 0.26763 0.1931 0.0
O170 O 0.76048 0.2216 0.38951 0.0
O171 O 0.79944 0.25003 0.34422 0.0
C172 C 0.79244 0.22782 0.37828 0.0
O173 O 0.75764 0.31445 0.32039 0.0
O174 O 0.69048 0.22363 0.43357 0.0
O175 O 0.68559 0.27938 0.44066 0.0
O176 O 0.75582 0.29615 0.40244 0.0
C177 C 0.7621 0.32043 0.37174 0.0
O178 O 0.70623 0.26807 0.24568 0.0
O179 O 0.68525 0.28944 0.32262 0.0
O180 O 0.69103 0.21631 0.31304 0.0
O181 O 0.78322 0.29395 0.22081 0.0
O182 O 0.79157 0.23893 0.21559 0.0
O183 O 0.74165 0.20702 0.27562 0.0
C184 C 0.68961 0.25146 0.51943 0.0
C185 C 0.72337 0.26095 0.54168 0.0
C186 C 0.67261 0.24369 0.60702 0.0
C187 C 0.73166 0.26196 0.59632 0.0
C188 C 0.66435 0.2428 0.55242 0.0
C189 C 0.70637 0.25334 0.62973 0.0
C190 C 0.68047 0.25047 0.46203 0.0
C191 C 0.68387 0.28641 0.27062 0.0
H192 H 0.73061 0.25365 0.14097 0.0
H193 H 0.82154 0.27397 0.02133 0.0
H194 H 0.71476 0.25056 0.04555 0.0
H195 H 0.8371 0.27671 0.11668 0.0
H196 H 0.7433 0.26756 0.51677 0.0
H197 H 0.65241 0.23729 0.63153 0.0
H198 H 0.75799 0.26907 0.61234 0.0
H199 H 0.63814 0.23544 0.53596 0.0
Eu200 Eu 0.78843 0.75161 0.81751 0.0
Eu201 Eu 0.74352 0.73499 0.69985 0.0
C202 C 0.71511 0.78649 0.79174 0.0
C203 C 0.81314 0.75616 0.96599 0.0
C204 C 0.77869 0.75058 0.97701 0.0
C205 C 0.83214 0.7525 0.05859 0.0
C206 C 0.771 0.74621 0.0286 0.0
C207 C 0.83977 0.75701 1.00706 0.0
C208 C 0.79765 0.74712 0.07008 0.0
C209 C 0.82162 0.76073 0.91187 0.0
O210 O 0.78971 0.76917 0.68722 0.0
O211 O 0.80224 0.79647 0.77065 0.0
C212 C 0.80505 0.79448 0.71949 0.0
O213 O 0.82528 0.72913 0.76147 0.0
O214 O 0.71596 0.75354 0.63026 0.0
O215 O 0.72288 0.69848 0.63328 0.0
O216 O 0.78491 0.69558 0.70755 0.0
C217 C 0.81731 0.70367 0.72464 0.0
O218 O 0.75583 0.70235 0.8204 0.0
O219 O 0.71172 0.70899 0.7563 0.0
O220 O 0.717 0.77933 0.74087 0.0
O221 O 0.82252 0.73236 0.88047 0.0
O222 O 0.80591 0.78535 0.88849 0.0
O223 O 0.73647 0.77391 0.82747 0.0
C224 C 0.72319 0.72115 0.55007 0.0
C225 C 0.75791 0.72724 0.5409 0.0
C226 C 0.70724 0.71595 0.45543 0.0
C227 C 0.7672 0.72796 0.48927 0.0
C228 C 0.69801 0.71527 0.50703 0.0
C229 C 0.74191 0.72262 0.44582 0.0
C230 C 0.7126 0.72297 0.60416 0.0
C231 C 0.72385 0.69533 0.79931 0.0
H232 H 0.75777 0.74955 0.9457 0.0
H233 H 0.85324 0.75373 0.0896 0.0
H234 H 0.74423 0.74169 0.03589 0.0
H235 H 0.86651 0.76124 0.99931 0.0
H236 H 0.77774 0.73193 0.5737 0.0
H237 H 0.68701 0.71219 0.42311 0.0
H238 H 0.79417 0.73275 0.48337 0.0
H239 H 0.67104 0.71081 0.51335 0.0
Eu240 Eu 0.50441 0.48528 0.96836 0.0
Eu241 Eu 0.51828 0.53139 0.08553 0.0
C242 C 0.46756 0.55861 0.99174 0.0
C243 C 0.50204 0.46144 0.81989 0.0
C244 C 0.51457 0.4946 0.81092 0.0
C245 C 0.49809 0.44477 0.72556 0.0
C246 C 0.51875 0.50282 0.75951 0.0
C247 C 0.49388 0.43662 0.77693 0.0
C248 C 0.51053 0.47799 0.71612 0.0
C249 C 0.49719 0.45254 0.87369 0.0
O250 O 0.48181 0.48683 0.0985 0.0
O251 O 0.4607 0.46714 1.01342 0.0
C252 C 0.45969 0.46776 0.06488 0.0
O253 O 0.52601 0.44844 0.02562 0.0
O254 O 0.49958 0.56051 0.15346 0.0
O255 O 0.55444 0.55231 0.15247 0.0
O256 O 0.55716 0.48933 0.08222 0.0
C257 C 0.55011 0.45683 0.06448 0.0
O258 O 0.55502 0.51597 0.9698 0.0
O259 O 0.54589 0.56197 0.0289 0.0
O260 O 0.47455 0.55746 0.04277 0.0
O261 O 0.52525 0.45227 0.90599 0.0
O262 O 0.47192 0.46752 0.89614 0.0
O263 O 0.4806 0.5369 0.95698 0.0
C264 C 0.53082 0.55301 0.23479 0.0
C265 C 0.51776 0.52022 0.24463 0.0
C266 C 0.54314 0.56763 0.32925 0.0
C267 C 0.51704 0.51134 0.29648 0.0
C268 C 0.54372 0.57652 0.27739 0.0
C269 C 0.5295 0.53504 0.33951 0.0
C270 C 0.52984 0.56337 0.18053 0.0
C271 C 0.56163 0.54837 0.98889 0.0
H272 H 0.52111 0.5141 0.84369 0.0
H273 H 0.49106 0.42518 0.69312 0.0
H274 H 0.52876 0.5285 0.75378 0.0
H275 H 0.48407 0.41093 0.7831 0.0
H276 H 0.50776 0.50164 0.21223 0.0
H277 H 0.55259 0.58664 0.36138 0.0
H278 H 0.50679 0.48588 0.30287 0.0
H279 H 0.55378 0.60199 0.27058 0.0
Eu280 Eu 0.01563 0.50288 0.50015 0.0
Eu281 Eu 0.0054 0.54498 0.39274 0.0
C282 C 0.07434 0.54957 0.46717 0.0
C283 C 0.01585 0.47849 0.64143 0.0
C284 C 0.99825 0.50823 0.65713 0.0
C285 C 0.01947 0.46234 0.73129 0.0
C286 C 0.99182 0.51532 0.70988 0.0
C287 C 0.02607 0.45542 0.67861 0.0
C288 C 1.00271 0.49262 0.74765 0.0
C289 C 0.02553 0.47245 0.58728 0.0
O290 O 0.03579 0.49773 0.37092 0.0
O291 O 0.01982 0.46224 0.43288 0.0
C292 C 0.03429 0.46704 0.38939 0.0
O293 O 0.95882 0.50661 0.47785 0.0
O294 O 0.02805 0.57234 0.33252 0.0
O295 O 0.97217 0.56642 0.33079 0.0
O296 O 0.9633 0.50344 0.38927 0.0
C297 C 0.94519 0.49926 0.42932 0.0
O298 O 0.00643 0.55802 0.52919 0.0
O299 O 0.97776 0.57613 0.45432 0.0
O300 O 0.05059 0.56892 0.4463 0.0
O301 O 1.00044 0.46336 0.55056 0.0
O302 O 0.047 0.49571 0.57309 0.0
O303 O 0.0666 0.51706 0.47199 0.0
C304 C 0.99605 0.56616 0.24913 0.0
C305 C 0.00877 0.53447 0.22965 0.0
C306 C 0.98002 0.57959 0.15934 0.0
C307 C 0.0075 0.52558 0.17528 0.0
C308 C 0.98148 0.58852 0.21372 0.0
C309 C 0.99327 0.54814 0.1395 0.0
C310 C 0.99823 0.57636 0.30612 0.0
C311 C 0.98541 0.57916 0.50587 0.0
H312 H 0.99005 0.52621 0.62874 0.0
H313 H 0.0285 0.44457 0.75954 0.0
H314 H 0.97851 0.53863 0.72119 0.0
H315 H 0.03984 0.43243 0.66714 0.0
H316 H 0.0199 0.51673 0.25647 0.0
H317 H 0.96921 0.59764 0.1328 0.0
H318 H 0.01752 0.501 0.1612 0.0
H319 H 0.97153 0.61308 0.22813 0.0
C320 C 0.07808 0.06778 0.39538 0.0
C321 C 0.08415 0.06576 0.44997 0.0
C322 C 0.09911 0.08919 0.36861 0.0
C323 C 0.12784 0.10819 0.39666 0.0
C324 C 0.13459 0.10558 0.45168 0.0
C325 C 0.11226 0.08497 0.47785 0.0
C326 C 0.08997 0.09213 0.31051 0.0
C327 C 0.16554 0.1244 0.48289 0.0
C328 C 0.19888 0.14082 0.31629 0.0
C329 C 0.1928 0.17636 0.31784 0.0
C330 C 0.17828 0.11837 0.34231 0.0
C331 C 0.15013 0.13159 0.36877 0.0
C332 C 0.14331 0.16737 0.3687 0.0
C333 C 0.16517 0.18939 0.34429 0.0
C334 C 0.18727 0.08074 0.34286 0.0
C335 C 0.11291 0.18248 0.39446 0.0
H336 H 0.05614 0.05332 0.37375 0.0
H337 H 0.11717 0.08333 0.51997 0.0
H338 H 0.08516 0.11958 0.30375 0.0
H339 H 0.11192 0.08411 0.28788 0.0
H340 H 0.0666 0.07592 0.29455 0.0
H341 H 0.16866 0.11771 0.52439 0.0
H342 H 0.18953 0.11795 0.46411 0.0
H343 H 0.16281 0.15284 0.48304 0.0
H344 H 0.2206 0.13085 0.29653 0.0
H345 H 0.1605 0.21692 0.3455 0.0
H346 H 0.16507 0.06377 0.32459 0.0
H347 H 0.19252 0.07425 0.3842 0.0
H348 H 0.21033 0.07464 0.32143 0.0
H349 H 0.08866 0.1676 0.37897 0.0
H350 H 0.1097 0.21021 0.38767 0.0
H351 H 0.11644 0.18039 0.43758 0.0
C352 C 0.1005 0.92689 0.60382 0.0
C353 C 0.06768 0.92166 0.57587 0.0
C354 C 0.11551 0.9007 0.63196 0.0
C355 C 0.09699 0.86869 0.63302 0.0
C356 C 0.06383 0.86322 0.60479 0.0
C357 C 0.0497 0.88967 0.57617 0.0
C358 C 0.15115 0.9074 0.66087 0.0
C359 C 0.04302 0.82971 0.60567 0.0
C360 C 0.15186 0.7931 0.66838 0.0
C361 C 0.14981 0.79363 0.72306 0.0
C362 C 0.13385 0.81655 0.63831 0.0
C363 C 0.11276 0.84094 0.66322 0.0
C364 C 0.10891 0.84034 0.71776 0.0
C365 C 0.12764 0.81681 0.74714 0.0
C366 C 0.13888 0.81637 0.58036 0.0
C367 C 0.08615 0.86555 0.74554 0.0
H368 H 0.11446 0.95158 0.60384 0.0
H369 H 0.02403 0.88569 0.55543 0.0
H370 H 0.14987 0.90551 0.7037 0.0
H371 H 0.16894 0.88739 0.64691 0.0
H372 H 0.16239 0.9334 0.65525 0.0
H373 H 0.01766 0.82952 0.58158 0.0
H374 H 0.05783 0.80747 0.59062 0.0
H375 H 0.03822 0.8256 0.64685 0.0
H376 H 0.16872 0.77524 0.64912 0.0
H377 H 0.12575 0.81736 0.78923 0.0
H378 H 0.15233 0.84096 0.57311 0.0
H379 H 0.11344 0.81483 0.55647 0.0
H380 H 0.15442 0.79435 0.56627 0.0
H381 H 0.09764 0.89224 0.74692 0.0
H382 H 0.08306 0.85942 0.78654 0.0
H383 H 0.06012 0.86541 0.72351 0.0
C384 C 0.27166 0.8684 0.8593 0.0
C385 C 0.26976 0.8385 0.88613 0.0
C386 C 0.29551 0.8955 0.87784 0.0
C387 C 0.3183 0.89185 0.92325 0.0
C388 C 0.31389 0.86339 0.95346 0.0
C389 C 0.28924 0.83709 0.93471 0.0
C390 C 0.29868 0.9262 0.84579 0.0
C391 C 0.33792 0.85845 1.00191 0.0
C392 C 0.41105 0.92133 0.91587 0.0
C393 C 0.41448 0.94974 0.95372 0.0
C394 C 0.37962 0.90236 0.90555 0.0
C395 C 0.35082 0.91311 0.93245 0.0
C396 C 0.35383 0.94282 0.9691 0.0
C397 C 0.38607 0.9605 0.98018 0.0
C398 C 0.37757 0.87026 0.867 0.0
C399 C 0.32324 0.95569 0.9967 0.0
H400 H 0.25594 0.86978 0.82227 0.0
H401 H 0.28753 0.81405 0.95574 0.0
H402 H 0.30449 0.95055 0.87178 0.0
H403 H 0.32034 0.92243 0.8206 0.0
H404 H 0.27461 0.92918 0.81972 0.0
H405 H 0.32744 0.8385 0.02555 0.0
H406 H 0.36329 0.84995 0.98957 0.0
H407 H 0.34271 0.8831 0.02741 0.0
H408 H 0.43334 0.91319 0.89584 0.0
H409 H 0.38902 0.98292 1.00904 0.0
H410 H 0.35773 0.87311 0.83374 0.0
H411 H 0.36961 0.84728 0.88674 0.0
H412 H 0.4027 0.8651 0.85066 0.0
H413 H 0.30101 0.95911 0.96731 0.0
H414 H 0.32938 0.98073 0.02096 0.0
H415 H 0.31479 0.93623 0.02271 0.0
C416 C 0.46579 0.09233 0.12422 0.0
C417 C 0.45253 0.07457 0.07612 0.0
C418 C 0.44502 0.11464 0.1531 0.0
C419 C 0.40993 0.11827 0.13414 0.0
C420 C 0.39628 0.09961 0.08621 0.0
C421 C 0.41789 0.07841 0.05741 0.0
C422 C 0.46076 0.13483 0.20323 0.0
C423 C 0.3588 0.10203 0.06526 0.0
C424 C 0.34364 0.15309 0.22434 0.0
C425 C 0.33847 0.18592 0.20666 0.0
C426 C 0.36769 0.13099 0.20226 0.0
C427 C 0.3876 0.14257 0.16286 0.0
C428 C 0.38386 0.1766 0.14743 0.0
C429 C 0.35893 0.19764 0.16889 0.0
C430 C 0.37032 0.09461 0.21884 0.0
C431 C 0.40525 0.19036 0.10675 0.0
H432 H 0.49261 0.08933 0.13869 0.0
H433 H 0.40744 0.06419 0.02067 0.0
H434 H 0.45908 0.16307 0.19931 0.0
H435 H 0.44603 0.12895 0.23679 0.0
H436 H 0.48836 0.1289 0.21277 0.0
H437 H 0.35166 0.08397 0.02942 0.0
H438 H 0.34155 0.09606 0.0959 0.0
H439 H 0.35379 0.12886 0.05536 0.0
H440 H 0.32761 0.14403 0.25334 0.0
H441 H 0.35514 0.22325 0.15569 0.0
H442 H 0.39775 0.08881 0.22969 0.0
H443 H 0.36049 0.07572 0.18522 0.0
H444 H 0.35515 0.09053 0.25276 0.0
H445 H 0.4331 0.18558 0.11637 0.0
H446 H 0.40227 0.21862 0.10399 0.0
H447 H 0.39719 0.17654 0.06748 0.0
C448 C 0.95094 0.92188 0.62811 0.0
C449 C 0.9383 0.94023 0.58585 0.0
C450 C 0.9295 0.89819 0.65009 0.0
C451 C 0.89415 0.89334 0.63045 0.0
C452 C 0.88112 0.91216 0.58819 0.0
C453 C 0.90347 0.93498 0.56588 0.0
C454 C 0.94488 0.87794 0.69383 0.0
C455 C 0.8435 0.9083 0.56669 0.0
C456 C 0.84493 0.80984 0.65273 0.0
C457 C 0.82786 0.81997 0.69741 0.0
C458 C 0.86681 0.83326 0.631 0.0
C459 C 0.87107 0.86809 0.65349 0.0
C460 C 0.85362 0.87856 0.69837 0.0
C461 C 0.83265 0.85425 0.72026 0.0
C462 C 0.88568 0.82058 0.58428 0.0
C463 C 0.85687 0.91554 0.72299 0.0
H464 H 0.97798 0.92543 0.64329 0.0
H465 H 0.89353 0.94915 0.53336 0.0
H466 H 0.93143 0.88372 0.72988 0.0
H467 H 0.94106 0.84969 0.68219 0.0
H468 H 0.97305 0.884 0.70364 0.0
H469 H 0.83704 0.92583 0.53535 0.0
H470 H 0.83726 0.88115 0.55016 0.0
H471 H 0.82666 0.91401 0.599 0.0
H472 H 0.8417 0.78325 0.63522 0.0
H473 H 0.81941 0.86227 0.75461 0.0
H474 H 0.91403 0.82535 0.59369 0.0
H475 H 0.87772 0.83519 0.55004 0.0
H476 H 0.88052 0.79244 0.57258 0.0
H477 H 0.88429 0.92237 0.73737 0.0
H478 H 0.84073 0.91987 0.75654 0.0
H479 H 0.84894 0.93351 0.69295 0.0
C480 C 0.92872 0.08294 0.42527 0.0
C481 C 0.94545 0.08422 0.47648 0.0
C482 C 0.90541 0.1083 0.41091 0.0
C483 C 0.89899 0.13596 0.4484 0.0
C484 C 0.91654 0.13798 0.4997 0.0
C485 C 0.93934 0.11194 0.51327 0.0
C486 C 0.8869 0.10493 0.356 0.0
C487 C 0.91078 0.16734 0.54051 0.0
C488 C 0.85526 0.2135 0.39291 0.0
C489 C 0.82044 0.20653 0.40059 0.0
C490 C 0.88138 0.19146 0.40997 0.0
C491 C 0.87238 0.16151 0.43462 0.0
C492 C 0.83743 0.15489 0.44375 0.0
C493 C 0.81199 0.17756 0.427 0.0
C494 C 0.91845 0.19971 0.40036 0.0
C495 C 0.82665 0.12309 0.46946 0.0
H496 H 0.93318 0.06162 0.39658 0.0
H497 H 0.95239 0.11334 0.55278 0.0
H498 H 0.85855 0.10167 0.35826 0.0
H499 H 0.89135 0.1289 0.33638 0.0
H500 H 0.89556 0.08249 0.33102 0.0
H501 H 0.92822 0.16652 0.57732 0.0
H502 H 0.91508 0.19267 0.52445 0.0
H503 H 0.88355 0.16607 0.55051 0.0
H504 H 0.8621 0.2359 0.37284 0.0
H505 H 0.7852 0.17182 0.43314 0.0
H506 H 0.92731 0.17955 0.37154 0.0
H507 H 0.93564 0.1994 0.43746 0.0
H508 H 0.9216 0.22542 0.38484 0.0
H509 H 0.8322 0.09936 0.44448 0.0
H510 H 0.79863 0.12237 0.47551 0.0
H511 H 0.84183 0.12222 0.50821 0.0
C512 C 0.71023 0.15563 0.20251 0.0
C513 C 0.69312 0.16897 0.24556 0.0
C514 C 0.69323 0.13223 0.16318 0.0
C515 C 0.65854 0.12166 0.16756 0.0
C516 C 0.64172 0.13346 0.21231 0.0
C517 C 0.65923 0.15723 0.25081 0.0
C518 C 0.71177 0.12028 0.11572 0.0
C519 C 0.60479 0.12209 0.21841 0.0
C520 C 0.59711 0.09456 0.04708 0.0
C521 C 0.59512 0.05853 0.04889 0.0
C522 C 0.61907 0.11543 0.08423 0.0
C523 C 0.63908 0.09972 0.12408 0.0
C524 C 0.63875 0.06325 0.12417 0.0
C525 C 0.61691 0.043 0.08619 0.0
C526 C 0.61948 0.15435 0.08252 0.0
C527 C 0.65979 0.04574 0.16625 0.0
H528 H 0.73646 0.16463 0.19809 0.0
H529 H 0.64603 0.16734 0.28417 0.0
H530 H 0.70973 0.09159 0.1083 0.0
H531 H 0.69933 0.13108 0.0802 0.0
H532 H 0.73963 0.12864 0.12053 0.0
H533 H 0.59642 0.13166 0.25734 0.0
H534 H 0.58709 0.132 0.18703 0.0
H535 H 0.6019 0.09335 0.21381 0.0
H536 H 0.58052 0.1066 0.01799 0.0
H537 H 0.61562 0.0151 0.08766 0.0
H538 H 0.64652 0.16495 0.0845 0.0
H539 H 0.60769 0.16646 0.11727 0.0
H540 H 0.6049 0.16215 0.04625 0.0
H541 H 0.68717 0.05552 0.17021 0.0
H542 H 0.65914 0.01707 0.15775 0.0
H543 H 0.6494 0.05198 0.20486 0.0
C544 C 0.69219 0.82721 0.86013 0.0
C545 C 0.68777 0.80921 0.80981 0.0
C546 C 0.66673 0.84906 0.87808 0.0
C547 C 0.63576 0.85242 0.84534 0.0
C548 C 0.63084 0.83382 0.79485 0.0
C549 C 0.65712 0.8127 0.77741 0.0
C550 C 0.67325 0.86898 0.93178 0.0
C551 C 0.59785 0.83622 0.75935 0.0
C552 C 0.56144 0.88892 0.91722 0.0
C553 C 0.56351 0.92395 0.90729 0.0
C554 C 0.58378 0.86491 0.89529 0.0
C555 C 0.60917 0.8764 0.86359 0.0
C556 C 0.61071 0.91151 0.85225 0.0
C557 C 0.58765 0.93476 0.87382 0.0
C558 C 0.5809 0.82749 0.9073 0.0
C559 C 0.63774 0.92489 0.81929 0.0
H560 H 0.71591 0.82472 0.88525 0.0
H561 H 0.65345 0.79852 0.7387 0.0
H562 H 0.67236 0.89726 0.92776 0.0
H563 H 0.65264 0.86229 0.95694 0.0
H564 H 0.69876 0.86353 0.95227 0.0
H565 H 0.59744 0.81893 0.72222 0.0
H566 H 0.57513 0.8292 0.78024 0.0
H567 H 0.5948 0.8633 0.74917 0.0
H568 H 0.54264 0.88032 0.94267 0.0
H569 H 0.58952 0.9618 0.86603 0.0
H570 H 0.60427 0.82108 0.93243 0.0
H571 H 0.57966 0.81001 0.87033 0.0
H572 H 0.55766 0.82205 0.9281 0.0
H573 H 0.66397 0.92242 0.83966 0.0
H574 H 0.63438 0.95252 0.81201 0.0
H575 H 0.63668 0.90916 0.78074 0.0
C576 C 0.59206 0.6056 0.97796 0.0
C577 C 0.58672 0.56989 0.96319 0.0
C578 C 0.61443 0.62621 0.95186 0.0
C579 C 0.63211 0.61084 0.91005 0.0
C580 C 0.62711 0.57477 0.89539 0.0
C581 C 0.60452 0.55485 0.92191 0.0
C582 C 0.61883 0.66458 0.96863 0.0
C583 C 0.64547 0.55717 0.85132 0.0
C584 C 0.66526 0.66757 0.80864 0.0
C585 C 0.70059 0.67265 0.82637 0.0
C586 C 0.64273 0.64776 0.83557 0.0
C587 C 0.6557 0.63239 0.88137 0.0
C588 C 0.69135 0.6372 0.89925 0.0
C589 C 0.71326 0.65726 0.87174 0.0
C590 C 0.60491 0.64348 0.81517 0.0
C591 C 0.7064 0.62117 0.94762 0.0
H592 H 0.57839 0.61762 1.0095 0.0
H593 H 0.60068 0.52735 0.90989 0.0
H594 H 0.64656 0.67162 0.98054 0.0
H595 H 0.6106 0.67961 0.93494 0.0
H596 H 0.60352 0.67259 1.00203 0.0
H597 H 0.63932 0.5288 0.84526 0.0
H598 H 0.638 0.56874 0.81393 0.0
H599 H 0.67393 0.56136 0.86 0.0
H600 H 0.65501 0.67946 0.77395 0.0
H601 H 0.7404 0.66101 0.88612 0.0
H602 H 0.58858 0.65352 0.84615 0.0
H603 H 0.59766 0.61555 0.80554 0.0
H604 H 0.59877 0.6573 0.77939 0.0
H605 H 0.693 0.63063 0.98234 0.0
H606 H 0.73462 0.62728 0.95645 0.0
H607 H 0.70216 0.59255 0.94203 0.0
C608 C 0.66181 0.30739 0.18454 0.0
C609 C 0.65917 0.30671 0.23891 0.0
C610 C 0.64217 0.32977 0.15461 0.0
C611 C 0.61881 0.35175 0.17934 0.0
C612 C 0.61458 0.34993 0.23354 0.0
C613 C 0.63499 0.32758 0.26281 0.0
C614 C 0.64779 0.33108 0.09709 0.0
C615 C 0.58946 0.37255 0.26107 0.0
C616 C 0.60021 0.43703 0.12125 0.0
C617 C 0.56829 0.42933 0.0915 0.0
C618 C 0.61691 0.41195 0.14976 0.0
C619 C 0.60099 0.3785 0.14939 0.0
C620 C 0.56869 0.37057 0.11955 0.0
C621 C 0.55286 0.396 0.09052 0.0
C622 C 0.65165 0.42128 0.18026 0.0
C623 C 0.55064 0.33541 0.11889 0.0
H624 H 0.68029 0.29137 0.16543 0.0
H625 H 0.63262 0.32716 0.30466 0.0
H626 H 0.6227 0.3277 0.07232 0.0
H627 H 0.6592 0.35689 0.09099 0.0
H628 H 0.66538 0.31084 0.08305 0.0
H629 H 0.58654 0.36548 0.30167 0.0
H630 H 0.5987 0.4001 0.26348 0.0
H631 H 0.56362 0.37051 0.23825 0.0
H632 H 0.61226 0.46274 0.12214 0.0
H633 H 0.52793 0.39007 0.06822 0.0
H634 H 0.67135 0.40324 0.16656 0.0
H635 H 0.65001 0.41846 0.22278 0.0
H636 H 0.66074 0.44827 0.17586 0.0
H637 H 0.56727 0.31489 0.10316 0.0
H638 H 0.5253 0.33358 0.09453 0.0
H639 H 0.54623 0.32995 0.15969 0.0
C640 C 0.90449 0.45539 0.37928 0.0
C641 C 0.91115 0.4813 0.42087 0.0
C642 C 0.87488 0.43357 0.37616 0.0
C643 C 0.85104 0.43869 0.41474 0.0
C644 C 0.85627 0.4667 0.45431 0.0
C645 C 0.88675 0.4874 0.4575 0.0
C646 C 0.87036 0.40366 0.33361 0.0
C647 C 0.83069 0.47378 0.4947 0.0
C648 C 0.77096 0.38372 0.36975 0.0
C649 C 0.77895 0.35343 0.39366 0.0
C650 C 0.79225 0.41371 0.3813 0.0
C651 C 0.82272 0.41252 0.4158 0.0
C652 C 0.82905 0.38294 0.44369 0.0
C653 C 0.80661 0.3537 0.43272 0.0
C654 C 0.78387 0.44541 0.35286 0.0
C655 C 0.8615 0.38063 0.48047 0.0
H656 H 0.92352 0.45071 0.35115 0.0
H657 H 0.89189 0.50784 0.48935 0.0
H658 H 0.87073 0.3787 0.35193 0.0
H659 H 0.84495 0.40465 0.31022 0.0
H660 H 0.89105 0.40378 0.30627 0.0
H661 H 0.83435 0.50057 0.51439 0.0
H662 H 0.80363 0.47005 0.47631 0.0
H663 H 0.8343 0.45534 0.52541 0.0
H664 H 0.74907 0.3834 0.34005 0.0
H665 H 0.81259 0.33009 0.45104 0.0
H666 H 0.79976 0.44626 0.31901 0.0
H667 H 0.79008 0.4695 0.37934 0.0
H668 H 0.7561 0.44506 0.33746 0.0
H669 H 0.88427 0.37883 0.45713 0.0
H670 H 0.86053 0.35758 0.50339 0.0
H671 H 0.86562 0.40425 0.50844 0.0
C672 C 0.87629 0.7052 0.69281 0.0
C673 C 0.8451 0.68678 0.69709 0.0
C674 C 0.90161 0.69084 0.6624 0.0
C675 C 0.8959 0.65697 0.63671 0.0
C676 C 0.86479 0.63796 0.64202 0.0
C677 C 0.83957 0.65328 0.67161 0.0
C678 C 0.93407 0.71219 0.65675 0.0
C679 C 0.85799 0.60152 0.61604 0.0
C680 C 0.94131 0.62479 0.51716 0.0
C681 C 0.96641 0.60373 0.53962 0.0
C682 C 0.91933 0.64378 0.54871 0.0
C683 C 0.92219 0.64125 0.60387 0.0
C684 C 0.94865 0.62153 0.62704 0.0
C685 C 0.97064 0.60335 0.59473 0.0
C686 C 0.89197 0.66526 0.52267 0.0
C687 C 0.95245 0.61785 0.6856 0.0
H688 H 0.88039 0.73138 0.71169 0.0
H689 H 0.81546 0.63903 0.6748 0.0
H690 H 0.95733 0.69828 0.67048 0.0
H691 H 0.93595 0.71599 0.61457 0.0
H692 H 0.93463 0.73807 0.67944 0.0
H693 H 0.83312 0.58978 0.62573 0.0
H694 H 0.85723 0.60169 0.57258 0.0
H695 H 0.87935 0.58474 0.62864 0.0
H696 H 0.93797 0.62553 0.47473 0.0
H697 H 0.9902 0.58757 0.61271 0.0
H698 H 0.89228 0.69163 0.54362 0.0
H699 H 0.86595 0.65304 0.52491 0.0
H700 H 0.89564 0.66771 0.48055 0.0
H701 H 0.95247 0.64361 0.70833 0.0
H702 H 0.97661 0.60486 0.69815 0.0
H703 H 0.93002 0.60226 0.69608 0.0
C704 C 0.35826 0.32341 0.20417 0.0
C705 C 0.32204 0.32474 0.19607 0.0
C706 C 0.38009 0.34673 0.18206 0.0
C707 C 0.36546 0.37273 0.15213 0.0
C708 C 0.32888 0.37448 0.14441 0.0
C709 C 0.30765 0.35021 0.16582 0.0
C710 C 0.41886 0.34327 0.19021 0.0
C711 C 0.31217 0.40218 0.11381 0.0
C712 C 0.42458 0.45138 0.13753 0.0
C713 C 0.43418 0.4444 0.08613 0.0
C714 C 0.40162 0.42879 0.15896 0.0
C715 C 0.38849 0.39792 0.12884 0.0
C716 C 0.39809 0.39075 0.0769 0.0
C717 C 0.42045 0.41422 0.056 0.0
C718 C 0.39157 0.43788 0.21403 0.0
C719 C 0.38544 0.3578 0.04382 0.0
H720 H 0.36962 0.30355 0.22692 0.0
H721 H 0.2797 0.3515 0.15953 0.0
H722 H 0.4297 0.33959 0.15148 0.0
H723 H 0.43121 0.3674 0.21129 0.0
H724 H 0.42613 0.3211 0.2132 0.0
H725 H 0.28344 0.40073 0.11268 0.0
H726 H 0.32172 0.42825 0.1318 0.0
H727 H 0.31947 0.39963 0.07274 0.0
H728 H 0.43494 0.47467 0.16108 0.0
H729 H 0.428 0.40837 1.01649 0.0
H730 H 0.40081 0.418 0.24015 0.0
H731 H 0.36292 0.43795 0.21361 0.0
H732 H 0.40255 0.46366 0.23126 0.0
H733 H 0.39409 0.33495 0.06415 0.0
H734 H 0.39514 0.35606 1.00414 0.0
H735 H 0.3567 0.35624 0.0389 0.0
C736 C 0.43715 0.61435 1.00663 0.0
C737 C 0.44394 0.58527 0.97286 0.0
C738 C 0.41372 0.63906 0.99004 0.0
C739 C 0.39617 0.63427 0.93875 0.0
C740 C 0.40347 0.60537 0.90409 0.0
C741 C 0.42747 0.58138 0.92141 0.0
C742 C 0.40711 0.66984 0.02784 0.0
C743 C 0.38498 0.59908 0.84932 0.0
C744 C 0.30725 0.67156 0.91534 0.0
C745 C 0.31411 0.69969 0.88621 0.0
C746 C 0.33382 0.65051 0.93331 0.0
C747 C 0.3683 0.65794 0.92263 0.0
C748 C 0.37571 0.68707 0.89508 0.0
C749 C 0.34849 0.7075 0.8769 0.0
C750 C 0.32474 0.61958 0.96228 0.0
C751 C 0.41227 0.69617 0.88378 0.0
H752 H 0.45008 0.6178 0.04626 0.0
H753 H 0.43253 0.55898 0.89507 0.0
H754 H 0.40995 0.69428 1.00872 0.0
H755 H 0.38012 0.66798 0.03877 0.0
H756 H 0.42506 0.67145 0.06449 0.0
H757 H 0.39474 0.5763 0.82638 0.0
H758 H 0.3568 0.59462 0.85199 0.0
H759 H 0.38809 0.62226 0.82733 0.0
H760 H 0.28085 0.66519 0.92284 0.0
H761 H 0.35411 0.72925 0.85468 0.0
H762 H 0.34009 0.62099 1.00124 0.0
H763 H 0.33141 0.59533 0.93956 0.0
H764 H 0.29677 0.61786 0.96853 0.0
H765 H 0.42987 0.69805 0.92073 0.0
H766 H 0.41409 0.72109 0.86552 0.0
H767 H 0.42169 0.67532 0.85668 0.0
C768 C 0.15914 0.64365 0.71949 0.0
C769 C 0.19359 0.65608 0.7233 0.0
C770 C 0.14503 0.62287 0.67467 0.0
C771 C 0.16589 0.61491 0.63283 0.0
C772 C 0.20124 0.6255 0.63791 0.0
C773 C 0.21479 0.64576 0.68342 0.0
C774 C 0.10728 0.61112 0.67081 0.0
C775 C 0.22416 0.6177 0.59393 0.0
C776 C 0.12505 0.54559 0.53255 0.0
C777 C 0.10485 0.56573 0.49941 0.0
C778 C 0.14727 0.56131 0.57452 0.0
C779 C 0.1497 0.59787 0.58244 0.0
C780 C 0.13278 0.61822 0.54527 0.0
C781 C 0.11028 0.60182 0.50406 0.0
C782 C 0.16535 0.53886 0.61311 0.0
C783 C 0.13596 0.65739 0.55169 0.0
H784 H 0.14282 0.65134 0.75042 0.0
H785 H 0.24157 0.65516 0.68609 0.0
H786 H 0.09244 0.62445 0.63981 0.0
H787 H 0.10435 0.58281 0.65924 0.0
H788 H 0.0956 0.61684 0.70858 0.0
H789 H 0.25209 0.62195 0.60783 0.0
H790 H 0.21972 0.59058 0.57613 0.0
H791 H 0.21782 0.63505 0.56237 0.0
H792 H 0.12152 0.51756 0.52847 0.0
H793 H 0.09523 0.61742 0.47785 0.0
H794 H 0.1517 0.53996 0.64951 0.0
H795 H 0.19246 0.54845 0.62456 0.0
H796 H 0.16552 0.51132 0.59672 0.0
H797 H 0.12172 0.66731 0.5853 0.0
H798 H 0.12517 0.66901 0.51578 0.0
H799 H 0.16349 0.66634 0.5607 0.0
C800 C 0.14745 0.3133 0.26838 0.0
C801 C 0.18076 0.31743 0.29534 0.0
C802 C 0.12134 0.33632 0.27994 0.0
C803 C 0.12864 0.36413 0.31946 0.0
C804 C 0.16215 0.36845 0.34691 0.0
C805 C 0.18781 0.34506 0.33451 0.0
C806 C 0.08592 0.33086 0.24989 0.0
C807 C 0.17087 0.3978 0.38947 0.0
C808 C 0.07411 0.44403 0.32384 0.0
C809 C 0.05417 0.4385 0.3657 0.0
C810 C 0.09761 0.41944 0.30704 0.0
C811 C 0.10121 0.38861 0.33268 0.0
C812 C 0.07981 0.38201 0.37294 0.0
C813 C 0.05651 0.40699 0.38889 0.0
C814 C 0.11972 0.42721 0.26354 0.0
C815 C 0.0827 0.3493 0.40096 0.0
H816 H 0.14166 0.29206 0.23801 0.0
H817 H 0.21341 0.34847 0.35556 0.0
H818 H 0.06605 0.32698 0.27764 0.0
H819 H 0.07913 0.35426 0.22961 0.0
H820 H 0.08452 0.30809 0.22002 0.0
H821 H 0.19816 0.39764 0.40695 0.0
H822 H 0.16654 0.42307 0.37303 0.0
H823 H 0.1535 0.39597 0.42138 0.0
H824 H 0.07242 0.46819 0.30546 0.0
H825 H 0.04113 0.40232 0.42108 0.0
H826 H 0.11828 0.405 0.23279 0.0
H827 H 0.14723 0.43102 0.27984 0.0
H828 H 0.11176 0.45088 0.24468 0.0
H829 H 0.08061 0.3261 0.37196 0.0
H830 H 0.06241 0.34686 0.42857 0.0
H831 H 0.10849 0.34926 0.42368 0.0
C832 C 0.00998 0.04254 0.92303 0.0
C833 C 0.02669 0.01966 0.88876 0.0
C834 C 0.00554 0.03505 0.97486 0.0
C835 C 0.01811 1.00388 0.99321 0.0
C836 C 0.03496 0.98062 0.95887 0.0
C837 C 0.03898 0.98874 0.9071 0.0
C838 C 0.98722 0.06046 1.00996 0.0
C839 C 0.04886 0.94719 0.97688 0.0
C840 C 0.03374 0.99965 0.14195 0.0
C841 C 0.00401 0.98104 0.15296 0.0
C842 C 0.03878 0.00703 0.09021 0.0
C843 C 0.01346 0.99563 0.04826 0.0
C844 C 0.9834 0.97682 0.05907 0.0
C845 C 0.97907 0.96974 0.11116 0.0
C846 C 0.07125 0.02702 0.08043 0.0
C847 C 0.95565 0.96439 1.01563 0.0
H848 H 0.99988 0.06621 0.90903 0.0
H849 H 0.05222 0.97106 0.88117 0.0
H850 H 0.96392 0.04757 0.02293 0.0
H851 H 0.00449 0.06929 0.04596 0.0
H852 H 0.97906 0.08358 0.98984 0.0
H853 H 0.06135 0.93189 0.94547 0.0
H854 H 0.06814 0.95288 1.01162 0.0
H855 H 0.02753 0.93101 0.98939 0.0
H856 H 0.05338 0.0081 0.17379 0.0
H857 H 0.9558 0.95575 0.11927 0.0
H858 H 0.0643 0.05134 0.06275 0.0
H859 H 0.08579 0.01152 0.05182 0.0
H860 H 0.0886 0.03378 0.11718 0.0
H861 H 0.94494 0.98689 0.99644 0.0
H862 H 0.93403 0.94972 0.03039 0.0
H863 H 0.96696 0.94746 0.98485 0.0
C864 C 0.21323 0.75951 0.42914 0.0
C865 C 0.2451 0.74777 0.44995 0.0
C866 C 0.20432 0.75789 0.37431 0.0
C867 C 0.22771 0.74402 0.3392 0.0
C868 C 0.25978 0.73186 0.35996 0.0
C869 C 0.26808 0.73393 0.41491 0.0
C870 C 0.16997 0.77134 0.35392 0.0
C871 C 0.28539 0.71665 0.32408 0.0
C872 C 0.19314 0.71116 0.19846 0.0
C873 C 0.20282 0.73859 0.16969 0.0
C874 C 0.20092 0.71264 0.2535 0.0
C875 C 0.21877 0.74231 0.28076 0.0
C876 C 0.2285 0.77015 0.25202 0.0
C877 C 0.22048 0.76794 0.19698 0.0
C878 C 0.19026 0.68227 0.28245 0.0
C879 C 0.24739 0.80235 0.27946 0.0
H880 H 0.19547 0.77063 0.45578 0.0
H881 H 0.29254 0.72433 0.43051 0.0
H882 H 0.17432 0.79268 0.32873 0.0
H883 H 0.15452 0.75043 0.32897 0.0
H884 H 0.15456 0.78113 0.3863 0.0
H885 H 0.30908 0.70808 0.34637 0.0
H886 H 0.27312 0.69408 0.29865 0.0
H887 H 0.29317 0.73614 0.29763 0.0
H888 H 0.1799 0.68819 0.17778 0.0
H889 H 0.22767 0.78948 0.17533 0.0
H890 H 0.17334 0.69102 0.31336 0.0
H891 H 0.21352 0.67141 0.30258 0.0
H892 H 0.1762 0.66128 0.25567 0.0
H893 H 0.23178 0.81442 0.30995 0.0
H894 H 0.2528 0.82188 0.25163 0.0
H895 H 0.27233 0.79535 0.29992 0.0
C896 C 0.47918 0.98187 0.60184 0.0
C897 C 0.49074 0.01494 0.62484 0.0
C898 C 0.48017 0.97277 0.54759 0.0
C899 C 0.49306 0.99729 0.51554 0.0
C900 C 0.50448 0.03079 0.53841 0.0
C901 C 0.50321 0.03918 0.59272 0.0
C902 C 0.4677 0.93682 0.52462 0.0
C903 C 0.51853 0.05764 0.50564 0.0
C904 C 0.52898 0.96584 0.38713 0.0
C905 C 0.50183 0.97229 0.34949 0.0
C906 C 0.52622 0.97333 0.44126 0.0
C907 C 0.49557 0.98772 0.45833 0.0
C908 C 0.46787 0.9939 0.42066 0.0
C909 C 0.47133 0.98614 0.36669 0.0
C910 C 0.5564 0.96646 0.48016 0.0
C911 C 0.43473 0.0091 0.43734 0.0
H912 H 0.46909 0.96315 0.62625 0.0
H913 H 0.51266 0.0646 0.61026 0.0
H914 H 0.44682 0.93853 0.49237 0.0
H915 H 0.48923 0.92307 0.5072 0.0
H916 H 0.4577 0.92104 0.55464 0.0
H917 H 0.52548 0.08279 0.52915 0.0
H918 H 0.54195 0.04802 0.48803 0.0
H919 H 0.49907 0.06219 0.47262 0.0
H920 H 0.55285 0.95567 0.37421 0.0
H921 H 0.4501 0.99083 0.3379 0.0
H922 H 0.54777 0.94932 0.50942 0.0
H923 H 0.56647 0.9912 0.50226 0.0
H924 H 0.57794 0.95409 0.4606 0.0
H925 H 0.42325 0.99271 0.46526 0.0
H926 H 0.41525 0.0114 0.40329 0.0
H927 H 0.44038 0.03525 0.45835 0.0
C928 C 0.26932 0.23154 0.86989 0.0
C929 C 0.23886 0.24424 0.88886 0.0
C930 C 0.27682 0.23545 0.81795 0.0
C931 C 0.25336 0.25258 0.78416 0.0
C932 C 0.22274 0.26574 0.80322 0.0
C933 C 0.21584 0.26138 0.85527 0.0
C934 C 0.30968 0.22091 0.79904 0.0
C935 C 0.19719 0.28435 0.76855 0.0
C936 C 0.28706 0.28858 0.66388 0.0
C937 C 0.27524 0.26291 0.62349 0.0
C938 C 0.27997 0.28567 0.71627 0.0
C939 C 0.26066 0.25634 0.72866 0.0
C940 C 0.24846 0.23045 0.68804 0.0
C941 C 0.25586 0.23406 0.636 0.0
C942 C 0.29323 0.31394 0.75839 0.0
C943 C 0.22791 0.19871 0.69966 0.0
H944 H 0.28703 0.21794 0.89541 0.0
H945 H 0.1925 0.2717 0.86988 0.0
H946 H 0.3032 0.20119 0.7651 0.0
H947 H 0.32569 0.24184 0.78506 0.0
H948 H 0.32543 0.20871 0.83041 0.0
H949 H 0.17483 0.29346 0.78956 0.0
H950 H 0.21028 0.30707 0.75415 0.0
H951 H 0.18724 0.26683 0.7334 0.0
H952 H 0.30171 0.31113 0.65442 0.0
H953 H 0.24705 0.21388 0.60518 0.0
H954 H 0.31075 0.30294 0.78892 0.0
H955 H 0.27126 0.32502 0.77831 0.0
H956 H 0.30753 0.33526 0.7422 0.0
H957 H 0.24358 0.18401 0.728 0.0
H958 H 0.21996 0.18116 0.66355 0.0
H959 H 0.20431 0.2066 0.7184 0.0
C960 C 0.77884 0.24369 0.93235 0.0
C961 C 0.75746 0.26025 0.96751 0.0
C962 C 0.77059 0.24223 0.87747 0.0
C963 C 0.74023 0.25776 0.85699 0.0
C964 C 0.71845 0.2744 0.89223 0.0
C965 C 0.72728 0.27539 0.94697 0.0
C966 C 0.7944 0.22403 0.84137 0.0
C967 C 0.68593 0.29141 0.87207 0.0
C968 C 0.73579 0.28188 0.71516 0.0
C969 C 0.71509 0.25446 0.68799 0.0
C970 C 0.74403 0.28336 0.77007 0.0
C971 C 0.73137 0.25672 0.7987 0.0
C972 C 0.7105 0.22895 0.77154 0.0
C973 C 0.70259 0.22818 0.71665 0.0
C974 C 0.76621 0.31351 0.79748 0.0
C975 C 0.69666 0.19992 0.80046 0.0
H976 H 0.80193 0.23148 0.9478 0.0
H977 H 0.71082 0.2886 0.97374 0.0
H978 H 0.77988 0.20268 0.81604 0.0
H979 H 0.80427 0.24245 0.81484 0.0
H980 H 0.81688 0.21307 0.86349 0.0
H981 H 0.67162 0.30303 0.90458 0.0
H982 H 0.69262 0.31208 0.84689 0.0
H983 H 0.66846 0.27208 0.84718 0.0
H984 H 0.74519 0.30254 0.69355 0.0
H985 H 0.68696 0.20665 0.69598 0.0
H986 H 0.79005 0.30386 0.81783 0.0
H987 H 0.75198 0.32748 0.82808 0.0
H988 H 0.77387 0.33221 0.76966 0.0
H989 H 0.71848 0.18673 0.82046 0.0
H990 H 0.68061 0.18031 0.77369 0.0
H991 H 0.68068 0.2106 0.83149 0.0
C992 C 0.77468 0.75113 0.37954 0.0
C993 C 0.75133 0.72497 0.39082 0.0
C994 C 0.78275 0.7545 0.32764 0.0
C995 C 0.76716 0.73114 0.28578 0.0
C996 C 0.74391 0.70442 0.29693 0.0
C997 C 0.73628 0.70167 0.34919 0.0
C998 C 0.8076 0.78342 0.3175 0.0
C999 C 0.72687 0.67884 0.25357 0.0
C1000 C 0.76159 0.75937 0.14615 0.0
C1001 C 0.78957 0.74266 0.12515 0.0
C1002 C 0.75403 0.75585 0.19824 0.0
C1003 C 0.77482 0.73496 0.23024 0.0
C1004 C 0.80295 0.71783 0.20919 0.0
C1005 C 0.81002 0.72194 0.15705 0.0
C1006 C 0.72392 0.77473 0.21918 0.0
C1007 C 0.82561 0.69512 0.24178 0.0
H1008 H 0.78609 0.76956 0.4112 0.0
H1009 H 0.71859 0.68108 0.35751 0.0
H1010 H 0.8296 0.77256 0.29742 0.0
H1011 H 0.79428 0.80096 0.29082 0.0
H1012 H 0.81807 0.79898 0.35442 0.0
H1013 H 0.70985 0.65921 0.26883 0.0
H1014 H 0.71109 0.69282 0.2244 0.0
H1015 H 0.74693 0.66518 0.2323 0.0
H1016 H 0.74591 0.77577 0.12208 0.0
H1017 H 0.83141 0.70856 0.14099 0.0
H1018 H 0.73324 0.79273 0.25413 0.0
H1019 H 0.7051 0.75589 0.23224 0.0
H1020 H 0.71019 0.78985 0.18926 0.0
H1021 H 0.83786 0.71054 0.27765 0.0
H1022 H 0.84635 0.68342 0.21956 0.0
H1023 H 0.80959 0.67393 0.25509 0.0
C1024 C 0.50438 0.5188 0.64467 0.0
C1025 C 0.51458 0.48668 0.66118 0.0
C1026 C 0.50725 0.52696 0.59266 0.0
C1027 C 0.52074 0.50248 0.55611 0.0
C1028 C 0.53142 0.47017 0.57264 0.0
C1029 C 0.52819 0.46266 0.62485 0.0
C1030 C 0.49543 0.56164 0.57664 0.0
C1031 C 0.54613 0.44343 0.53508 0.0
C1032 C 0.49776 0.50934 0.40932 0.0
C1033 C 0.52758 0.52614 0.39486 0.0
C1034 C 0.49523 0.50146 0.46152 0.0
C1035 C 0.52322 0.51048 0.5004 0.0
C1036 C 0.55349 0.52723 0.48603 0.0
C1037 C 0.55528 0.5349 0.43354 0.0
C1038 C 0.46243 0.48374 0.47517 0.0
C1039 C 0.58401 0.53708 0.52613 0.0
H1040 H 0.49345 0.53736 0.6722 0.0
H1041 H 0.53661 0.43799 0.63738 0.0
H1042 H 0.51704 0.57591 0.56132 0.0
H1043 H 0.47419 0.55768 0.54431 0.0
H1044 H 0.48607 0.57804 0.60993 0.0
H1045 H 0.55373 0.41977 0.55425 0.0
H1046 H 0.52673 0.43574 0.50111 0.0
H1047 H 0.56921 0.45466 0.51911 0.0
H1048 H 0.47604 0.5029 0.37994 0.0
H1049 H 0.57858 0.5475 0.42265 0.0
H1050 H 0.45049 0.5003 0.50573 0.0
H1051 H 0.46856 0.45893 0.49197 0.0
H1052 H 0.44311 0.47823 0.44036 0.0
H1053 H 0.57586 0.55506 0.55856 0.0
H1054 H 0.60574 0.54976 0.50861 0.0
H1055 H 0.59359 0.51363 0.54394 0.0
C1056 C 0.98671 0.47544 0.83493 0.0
C1057 C 0.99806 0.50113 0.80434 0.0
C1058 C 0.98416 0.4827 0.88921 0.0
C1059 C 0.99345 0.51638 0.91353 0.0
C1060 C 0.00434 0.54258 0.88267 0.0
C1061 C 0.0064 0.53467 0.82841 0.0
C1062 C 0.97208 0.45417 0.92068 0.0
C1063 C 0.0147 0.57875 0.90719 0.0
C1064 C 0.96337 0.54451 0.04776 0.0
C1065 C 0.99291 0.53928 0.08169 0.0
C1066 C 0.96303 0.53687 0.99297 0.0
C1067 C 0.99302 0.5239 0.97159 0.0
C1068 C 0.02286 0.51845 1.00567 0.0
C1069 C 0.02241 0.52611 0.06029 0.0
C1070 C 0.93062 0.54274 0.95795 0.0
C1071 C 0.05544 0.5049 0.98439 0.0
H1072 H 0.97986 0.44958 0.81637 0.0
H1073 H 0.01557 0.55451 0.80508 0.0
H1074 H 0.99314 0.44844 0.95068 0.0
H1075 H 0.94974 0.46268 0.94212 0.0
H1076 H 0.96428 0.42986 0.89543 0.0
H1077 H 0.02139 0.59648 0.87743 0.0
H1078 H 0.99333 0.58987 0.92848 0.0
H1079 H 0.03746 0.57772 0.93659 0.0
H1080 H 0.94038 0.55433 0.06415 0.0
H1081 H 0.04546 0.52244 0.08625 0.0
H1082 H 0.92155 0.51819 0.93437 0.0
H1083 H 0.93635 0.56186 0.92973 0.0
H1084 H 0.90929 0.5524 0.98083 0.0
H1085 H 0.04972 0.47939 0.96142 0.0
H1086 H 0.07634 0.50186 1.0162 0.0
H1087 H 0.06515 0.52292 0.95712 0.0
loop_
_geom_bond_atom_site_label_1
_geom_bond_atom_site_label_2
_geom_bond_distance
_geom_bond_site_symmetry_2
_ccdc_geom_bond_type
Eu0 C9 2.828 1_655 S
Eu0 O11 2.392 . S
Eu0 O13 2.418 1_655 S
Eu0 O18 2.373 1_665 S
Eu0 O21 2.488 1_655 S
Eu0 O22 2.471 . S
Eu0 O23 2.349 1_565 S
Eu1 O10 2.373 1_445 S
Eu1 O14 2.488 1_455 S
Eu1 O15 2.471 . S
Eu1 O16 2.349 1_545 S
Eu1 O19 2.392 . S
Eu1 O20 2.418 1_455 S
Eu1 C30 2.828 1_455 S
C2 O20 1.244 . S
C2 O23 1.265 . S
C3 C4 1.372 1_465 S
C3 C7 1.373 . S
C3 C9 1.505 . S
C4 C3 1.372 1_645 S
C4 C6 1.359 1_655 S
C4 H32 0.948 . S
C5 C7 1.383 . S
C5 C8 1.382 . S
C5 H33 0.930 . S
C6 C4 1.359 1_455 S
C6 C8 1.392 1_545 S
C6 H34 0.930 1_455 S
C7 C3 1.373 . S
C7 C5 1.383 . S
C7 H35 0.931 . S
C8 C5 1.382 . S
C8 C6 1.392 1_565 S
C9 Eu0 2.828 1_455 S
C9 C3 1.505 . S
C9 O21 1.249 . S
C9 O22 1.244 1_455 S
O10 Eu1 2.373 1_665 S
O10 C12 1.258 . S
O11 Eu0 2.392 . S
O11 C12 1.242 . S
C12 O10 1.258 . S
C12 O11 1.242 . S
O13 Eu0 2.418 1_455 S
O13 C17 1.244 . S
O14 Eu1 2.488 1_655 S
O14 C30 1.249 . S
O15 Eu1 2.471 . S
O15 C30 1.244 1_455 S
O16 Eu1 2.349 1_565 S
O16 C17 1.265 . S
C17 O13 1.244 . S
C17 O16 1.265 . S
O18 Eu0 2.373 1_445 S
O18 C31 1.258 . S
O19 Eu1 2.392 . S
O19 C31 1.242 . S
O20 Eu1 2.418 1_655 S
O20 C2 1.244 . S
O21 Eu0 2.488 1_455 S
O21 C9 1.249 . S
O22 Eu0 2.471 . S
O22 C9 1.244 1_655 S
O23 Eu0 2.349 1_545 S
O23 C2 1.265 . S
C24 C25 1.379 1_645 S
C24 C28 1.373 . S
C24 C30 1.505 . S
C25 C24 1.379 1_465 S
C25 C27 1.369 1_455 S
C25 H36 0.930 . S
C26 C28 1.383 . S
C26 C29 1.382 . S
C26 H37 0.930 . S
C27 C25 1.369 1_655 S
C27 C29 1.392 1_565 S
C27 H38 0.930 1_655 S
C28 C24 1.373 . S
C28 C26 1.383 . S
C28 H39 0.931 . S
C29 C26 1.382 . S
C29 C27 1.392 1_545 S
C30 Eu1 2.828 1_655 S
C30 O14 1.249 . S
C30 O15 1.244 1_655 S
C30 C24 1.505 . S
C31 O18 1.258 . S
C31 O19 1.242 . S
H32 C4 0.948 . S
H33 C5 0.930 . S
H34 C6 0.930 1_655 S
H35 C7 0.931 . S
H36 C25 0.930 . S
H37 C26 0.930 . S
H38 C27 0.930 1_455 S
H39 C28 0.931 . S
Eu40 C49 2.828 . S
Eu40 O51 2.392 . S
Eu40 O53 2.418 . S
Eu40 O58 2.373 . S
Eu40 O61 2.488 . S
Eu40 O62 2.471 . S
Eu40 O63 2.349 . S
Eu41 O50 2.373 . S
Eu41 O54 2.488 . S
Eu41 O55 2.471 . S
Eu41 O56 2.349 . S
Eu41 O59 2.392 . S
Eu41 O60 2.418 . S
Eu41 C70 2.828 . S
C42 O60 1.244 . S
C42 O63 1.265 . S
C43 C44 1.379 . S
C43 C47 1.373 . S
C43 C49 1.505 . S
C44 C43 1.379 . S
C44 C46 1.369 . S
C44 H72 0.930 . S
C45 C47 1.383 . S
C45 C48 1.382 . S
C45 H73 0.930 . S
C46 C44 1.369 . S
C46 C48 1.392 . S
C46 H74 0.930 . S
C47 C43 1.373 . S
C47 C45 1.383 . S
C47 H75 0.931 . S
C48 C45 1.382 . S
C48 C46 1.392 . S
C49 Eu40 2.828 . S
C49 C43 1.505 . S
C49 O61 1.249 . S
C49 O62 1.244 . S
O50 Eu41 2.373 . S
O50 C52 1.258 . S
O51 Eu40 2.392 . S
O51 C52 1.242 . S
C52 O50 1.258 . S
C52 O51 1.242 . S
O53 Eu40 2.418 . S
O53 C57 1.244 . S
O54 Eu41 2.488 . S
O54 C70 1.249 . S
O55 Eu41 2.471 . S
O55 C70 1.244 . S
O56 Eu41 2.349 . S
O56 C57 1.265 . S
C57 O53 1.244 . S
C57 O56 1.265 . S
O58 Eu40 2.373 . S
O58 C71 1.258 . S
O59 Eu41 2.392 . S
O59 C71 1.242 . S
O60 Eu41 2.418 . S
O60 C42 1.244 . S
O61 Eu40 2.488 . S
O61 C49 1.249 . S
O62 Eu40 2.471 . S
O62 C49 1.244 . S
O63 Eu40 2.349 . S
O63 C42 1.265 . S
C64 C65 1.379 . S
C64 C68 1.373 . S
C64 C70 1.505 . S
C65 C64 1.379 . S
C65 C67 1.369 1_556 S
C65 H76 0.930 . S
C66 C68 1.383 1_554 S
C66 C69 1.382 . S
C66 H77 0.930 . S
C67 C65 1.369 1_554 S
C67 C69 1.392 . S
C67 H78 0.930 . S
C68 C64 1.373 . S
C68 C66 1.383 1_556 S
C68 H79 0.931 . S
C69 C66 1.382 . S
C69 C67 1.392 . S
C70 Eu41 2.828 . S
C70 O54 1.249 . S
C70 O55 1.244 . S
C70 C64 1.505 . S
C71 O58 1.258 . S
C71 O59 1.242 . S
H72 C44 0.930 . S
H73 C45 0.930 . S
H74 C46 0.930 . S
H75 C47 0.931 . S
H76 C65 0.930 . S
H77 C66 0.930 . S
H78 C67 0.930 . S
H79 C68 0.931 . S
Eu80 C89 2.828 . S
Eu80 O91 2.392 1_554 S
Eu80 O93 2.418 . S
Eu80 O98 2.373 1_565 S
Eu80 O101 2.488 . S
Eu80 O102 2.471 1_565 S
Eu80 O103 2.349 1_565 S
Eu81 O90 2.373 1_545 S
Eu81 O94 2.488 . S
Eu81 O95 2.462 1_545 S
Eu81 O96 2.349 1_545 S
Eu81 O99 2.392 1_556 S
Eu81 O100 2.418 . S
Eu81 C110 2.828 . S
C82 O100 1.244 1_554 S
C82 O103 1.265 . S
C83 C84 1.379 1_565 S
C83 C87 1.373 . S
C83 C89 1.505 . S
C84 C83 1.379 1_545 S
C84 C86 1.369 . S
C84 H112 0.930 . S
C85 C87 1.383 . S
C85 C88 1.382 1_565 S
C85 H113 0.930 . S
C86 C84 1.369 . S
C86 C88 1.392 . S
C86 H114 0.930 . S
C87 C83 1.373 . S
C87 C85 1.383 . S
C87 H115 0.931 . S
C88 C85 1.382 1_545 S
C88 C86 1.392 . S
C89 Eu80 2.828 . S
C89 C83 1.505 . S
C89 O101 1.249 . S
C89 O102 1.244 1_565 S
O90 Eu81 2.373 1_565 S
O90 C92 1.258 . S
O91 Eu80 2.392 1_556 S
O91 C92 1.242 . S
C92 O90 1.258 . S
C92 O91 1.242 . S
O93 Eu80 2.418 . S
O93 C97 1.244 1_554 S
O94 Eu81 2.488 . S
O94 C110 1.249 . S
O95 Eu81 2.462 1_565 S
O95 C110 1.226 1_565 S
O96 Eu81 2.349 1_565 S
O96 C97 1.265 . S
C97 O93 1.244 1_556 S
C97 O96 1.265 . S
O98 Eu80 2.373 1_545 S
O98 C111 1.258 . S
O99 Eu81 2.392 1_554 S
O99 C111 1.242 . S
O100 Eu81 2.418 . S
O100 C82 1.244 1_556 S
O101 Eu80 2.488 . S
O101 C89 1.249 . S
O102 Eu80 2.471 1_545 S
O102 C89 1.244 1_545 S
O103 Eu80 2.349 1_545 S
O103 C82 1.265 . S
C104 C105 1.379 1_545 S
C104 C108 1.373 . S
C104 C110 1.505 . S
C105 C104 1.379 1_565 S
C105 C107 1.369 . S
C105 H116 0.930 . S
C106 C108 1.383 . S
C106 C109 1.382 1_545 S
C106 H117 0.930 . S
C107 C105 1.369 . S
C107 C109 1.392 . S
C107 H118 0.930 . S
C108 C104 1.373 . S
C108 C106 1.383 . S
C108 H119 0.931 . S
C109 C106 1.382 1_565 S
C109 C107 1.392 . S
C110 Eu81 2.828 . S
C110 O94 1.249 . S
C110 O95 1.226 1_545 S
C110 C104 1.505 . S
C111 O98 1.258 . S
C111 O99 1.242 . S
H112 C84 0.930 . S
H113 C85 0.930 . S
H114 C86 0.930 . S
H115 C87 0.931 . S
H116 C105 0.930 . S
H117 C106 0.930 . S
H118 C107 0.930 . S
H119 C108 0.931 . S
Eu120 C129 2.828 . S
Eu120 O131 2.392 . S
Eu120 O133 2.418 . S
Eu120 O138 2.373 . S
Eu120 O141 2.488 . S
Eu120 O142 2.471 . S
Eu120 O143 2.349 . S
Eu121 O130 2.373 . S
Eu121 O134 2.488 . S
Eu121 O135 2.471 . S
Eu121 O136 2.349 . S
Eu121 O139 2.392 . S
Eu121 O140 2.418 . S
Eu121 C150 2.828 . S
C122 O140 1.244 . S
C122 O143 1.265 . S
C123 C124 1.379 . S
C123 C127 1.373 . S
C123 C129 1.505 . S
C124 C123 1.379 . S
C124 C126 1.369 . S
C124 H152 0.930 . S
C125 C127 1.383 . S
C125 C128 1.382 . S
C125 H153 0.930 . S
C126 C124 1.369 . S
C126 C128 1.392 . S
C126 H154 0.930 . S
C127 C123 1.373 . S
C127 C125 1.383 . S
C127 H155 0.931 . S
C128 C125 1.382 . S
C128 C126 1.392 . S
C129 Eu120 2.828 . S
C129 C123 1.505 . S
C129 O141 1.249 . S
C129 O142 1.244 . S
O130 Eu121 2.373 . S
O130 C132 1.258 . S
O131 Eu120 2.392 . S
O131 C132 1.242 . S
C132 O130 1.258 . S
C132 O131 1.242 . S
O133 Eu120 2.418 . S
O133 C137 1.244 . S
O134 Eu121 2.488 . S
O134 C150 1.249 . S
O135 Eu121 2.471 . S
O135 C150 1.244 . S
O136 Eu121 2.349 . S
O136 C137 1.265 . S
C137 O133 1.244 . S
C137 O136 1.265 . S
O138 Eu120 2.373 . S
O138 C151 1.258 . S
O139 Eu121 2.392 . S
O139 C151 1.242 . S
O140 Eu121 2.418 . S
O140 C122 1.244 . S
O141 Eu120 2.488 . S
O141 C129 1.249 . S
O142 Eu120 2.471 . S
O142 C129 1.244 . S
O143 Eu120 2.349 . S
O143 C122 1.265 . S
C144 C145 1.379 . S
C144 C148 1.373 . S
C144 C150 1.505 . S
C145 C144 1.379 . S
C145 C147 1.369 1_554 S
C145 H156 0.930 . S
C146 C148 1.383 1_556 S
C146 C149 1.382 . S
C146 H157 0.930 . S
C147 C145 1.369 1_556 S
C147 C149 1.392 . S
C147 H158 0.930 . S
C148 C144 1.373 . S
C148 C146 1.383 1_554 S
C148 H159 0.931 . S
C149 C146 1.382 . S
C149 C147 1.392 . S
C150 Eu121 2.828 . S
C150 O134 1.249 . S
C150 O135 1.244 . S
C150 C144 1.505 . S
C151 O138 1.258 . S
C151 O139 1.242 . S
H152 C124 0.930 . S
H153 C125 0.930 . S
H154 C126 0.930 . S
H155 C127 0.931 . S
H156 C145 0.930 . S
H157 C146 0.930 . S
H158 C147 0.930 . S
H159 C148 0.931 . S
Eu160 C169 2.828 . S
Eu160 O171 2.392 . S
Eu160 O173 2.418 . S
Eu160 O178 2.373 . S
Eu160 O181 2.488 . S
Eu160 O182 2.471 . S
Eu160 O183 2.349 . S
Eu161 O170 2.373 . S
Eu161 O174 2.488 . S
Eu161 O175 2.471 . S
Eu161 O176 2.349 . S
Eu161 O179 2.392 . S
Eu161 O180 2.418 . S
Eu161 C190 2.828 . S
C162 O180 1.244 . S
C162 O183 1.265 . S
C163 C164 1.379 . S
C163 C167 1.373 . S
C163 C169 1.505 . S
C164 C163 1.379 . S
C164 C166 1.369 1_554 S
C164 H192 0.930 . S
C165 C167 1.383 1_556 S
C165 C168 1.382 . S
C165 H193 0.930 . S
C166 C164 1.369 1_556 S
C166 C168 1.392 . S
C166 H194 0.930 . S
C167 C163 1.373 . S
C167 C165 1.383 1_554 S
C167 H195 0.931 . S
C168 C165 1.382 . S
C168 C166 1.392 . S
C169 Eu160 2.828 . S
C169 C163 1.505 . S
C169 O181 1.249 . S
C169 O182 1.244 . S
O170 Eu161 2.373 . S
O170 C172 1.258 . S
O171 Eu160 2.392 . S
O171 C172 1.242 . S
C172 O170 1.258 . S
C172 O171 1.242 . S
O173 Eu160 2.418 . S
O173 C177 1.244 . S
O174 Eu161 2.488 . S
O174 C190 1.249 . S
O175 Eu161 2.471 . S
O175 C190 1.244 . S
O176 Eu161 2.349 . S
O176 C177 1.265 . S
C177 O173 1.244 . S
C177 O176 1.265 . S
O178 Eu160 2.373 . S
O178 C191 1.258 . S
O179 Eu161 2.392 . S
O179 C191 1.242 . S
O180 Eu161 2.418 . S
O180 C162 1.244 . S
O181 Eu160 2.488 . S
O181 C169 1.249 . S
O182 Eu160 2.471 . S
O182 C169 1.244 . S
O183 Eu160 2.349 . S
O183 C162 1.265 . S
C184 C185 1.379 . S
C184 C188 1.373 . S
C184 C190 1.505 . S
C185 C184 1.379 . S
C185 C187 1.369 . S
C185 H196 0.930 . S
C186 C188 1.383 . S
C186 C189 1.382 . S
C186 H197 0.930 . S
C187 C185 1.369 . S
C187 C189 1.392 . S
C187 H198 0.930 . S
C188 C184 1.373 . S
C188 C186 1.383 . S
C188 H199 0.931 . S
C189 C186 1.382 . S
C189 C187 1.392 . S
C190 Eu161 2.828 . S
C190 O174 1.249 . S
C190 O175 1.244 . S
C190 C184 1.505 . S
C191 O178 1.258 . S
C191 O179 1.242 . S
H192 C164 0.930 . S
H193 C165 0.930 . S
H194 C166 0.930 . S
H195 C167 0.931 . S
H196 C185 0.930 . S
H197 C186 0.930 . S
H198 C187 0.930 . S
H199 C188 0.931 . S
Eu200 C209 2.828 . S
Eu200 O211 2.392 . S
Eu200 O213 2.418 . S
Eu200 O218 2.373 . S
Eu200 O221 2.488 . S
Eu200 O222 2.471 . S
Eu200 O223 2.349 . S
Eu201 O210 2.373 . S
Eu201 O214 2.488 . S
Eu201 O215 2.471 . S
Eu201 O216 2.349 . S
Eu201 O219 2.392 . S
Eu201 O220 2.418 . S
Eu201 C230 2.828 . S
C202 O220 1.244 . S
C202 O223 1.265 . S
C203 C204 1.379 . S
C203 C207 1.373 . S
C203 C209 1.505 . S
C204 C203 1.379 . S
C204 C206 1.369 1_556 S
C204 H232 0.930 . S
C205 C207 1.383 1_554 S
C205 C208 1.382 . S
C205 H233 0.930 . S
C206 C204 1.369 1_554 S
C206 C208 1.392 . S
C206 H234 0.930 . S
C207 C203 1.373 . S
C207 C205 1.383 1_556 S
C207 H235 0.931 . S
C208 C205 1.382 . S
C208 C206 1.392 . S
C209 Eu200 2.828 . S
C209 C203 1.505 . S
C209 O221 1.249 . S
C209 O222 1.244 . S
O210 Eu201 2.373 . S
O210 C212 1.258 . S
O211 Eu200 2.392 . S
O211 C212 1.242 . S
C212 O210 1.258 . S
C212 O211 1.242 . S
O213 Eu200 2.418 . S
O213 C217 1.244 . S
O214 Eu201 2.488 . S
O214 C230 1.249 . S
O215 Eu201 2.471 . S
O215 C230 1.244 . S
O216 Eu201 2.349 . S
O216 C217 1.265 . S
C217 O213 1.244 . S
C217 O216 1.265 . S
O218 Eu200 2.373 . S
O218 C231 1.258 . S
O219 Eu201 2.392 . S
O219 C231 1.242 . S
O220 Eu201 2.418 . S
O220 C202 1.244 . S
O221 Eu200 2.488 . S
O221 C209 1.249 . S
O222 Eu200 2.471 . S
O222 C209 1.244 . S
O223 Eu200 2.349 . S
O223 C202 1.265 . S
C224 C225 1.379 . S
C224 C228 1.373 . S
C224 C230 1.505 . S
C225 C224 1.379 . S
C225 C227 1.369 . S
C225 H236 0.930 . S
C226 C228 1.383 . S
C226 C229 1.382 . S
C226 H237 0.930 . S
C227 C225 1.369 . S
C227 C229 1.392 . S
C227 H238 0.930 . S
C228 C224 1.373 . S
C228 C226 1.383 . S
C228 H239 0.931 . S
C229 C226 1.382 . S
C229 C227 1.392 . S
C230 Eu201 2.828 . S
C230 O214 1.249 . S
C230 O215 1.244 . S
C230 C224 1.505 . S
C231 O218 1.258 . S
C231 O219 1.242 . S
H232 C204 0.930 . S
H233 C205 0.930 . S
H234 C206 0.930 . S
H235 C207 0.931 . S
H236 C225 0.930 . S
H237 C226 0.930 . S
H238 C227 0.930 . S
H239 C228 0.931 . S
Eu240 C249 2.828 . S
Eu240 O251 2.392 . S
Eu240 O253 2.418 . S
Eu240 O258 2.373 . S
Eu240 O261 2.488 . S
Eu240 O262 2.471 . S
Eu240 O263 2.349 . S
Eu241 O250 2.373 . S
Eu241 O254 2.488 . S
Eu241 O255 2.471 . S
Eu241 O256 2.349 . S
Eu241 O259 2.392 . S
Eu241 O260 2.418 . S
Eu241 C270 2.828 . S
C242 O260 1.244 1_556 S
C242 O263 1.265 . S
C243 C244 1.379 . S
C243 C247 1.373 . S
C243 C249 1.505 . S
C244 C243 1.379 . S
C244 C246 1.369 . S
C244 H272 0.930 . S
C245 C247 1.383 . S
C245 C248 1.382 . S
C245 H273 0.930 . S
C246 C244 1.369 . S
C246 C248 1.392 . S
C246 H274 0.930 . S
C247 C243 1.373 . S
C247 C245 1.383 . S
C247 H275 0.931 . S
C248 C245 1.382 . S
C248 C246 1.392 . S
C249 Eu240 2.828 . S
C249 C243 1.505 . S
C249 O261 1.249 . S
C249 O262 1.244 . S
O250 Eu241 2.373 . S
O250 C252 1.258 . S
O251 Eu240 2.392 . S
O251 C252 1.242 1_556 S
C252 O250 1.258 . S
C252 O251 1.242 1_554 S
O253 Eu240 2.418 . S
O253 C257 1.244 1_556 S
O254 Eu241 2.488 . S
O254 C270 1.249 . S
O255 Eu241 2.471 . S
O255 C270 1.244 . S
O256 Eu241 2.349 . S
O256 C257 1.265 . S
C257 O253 1.244 1_554 S
C257 O256 1.265 . S
O258 Eu240 2.373 . S
O258 C271 1.258 . S
O259 Eu241 2.392 . S
O259 C271 1.242 1_554 S
O260 Eu241 2.418 . S
O260 C242 1.244 1_554 S
O261 Eu240 2.488 . S
O261 C249 1.249 . S
O262 Eu240 2.471 . S
O262 C249 1.244 . S
O263 Eu240 2.349 . S
O263 C242 1.265 . S
C264 C265 1.379 . S
C264 C268 1.373 . S
C264 C270 1.505 . S
C265 C264 1.379 . S
C265 C267 1.369 . S
C265 H276 0.930 . S
C266 C268 1.383 . S
C266 C269 1.382 . S
C266 H277 0.930 . S
C267 C265 1.369 . S
C267 C269 1.392 . S
C267 H278 0.930 . S
C268 C264 1.373 . S
C268 C266 1.383 . S
C268 H279 0.931 . S
C269 C266 1.382 . S
C269 C267 1.392 . S
C270 Eu241 2.828 . S
C270 O254 1.249 . S
C270 O255 1.244 . S
C270 C264 1.505 . S
C271 O258 1.258 . S
C271 O259 1.242 1_556 S
H272 C244 0.930 . S
H273 C245 0.930 . S
H274 C246 0.930 . S
H275 C247 0.931 . S
H276 C265 0.930 . S
H277 C266 0.930 . S
H278 C267 0.930 . S
H279 C268 0.931 . S
Eu280 C289 2.828 1_455 S
Eu280 O291 2.392 . S
Eu280 O293 2.418 1_455 S
Eu280 O298 2.373 1_455 S
Eu280 O301 2.488 1_455 S
Eu280 O302 2.471 . S
Eu280 O303 2.349 . S
Eu281 O290 2.373 1_655 S
Eu281 O294 2.488 1_655 S
Eu281 O295 2.471 . S
Eu281 O296 2.349 . S
Eu281 O299 2.392 . S
Eu281 O300 2.418 1_655 S
Eu281 C310 2.828 1_655 S
C282 O300 1.244 . S
C282 O303 1.265 . S
C283 C284 1.379 1_655 S
C283 C287 1.373 . S
C283 C289 1.505 . S
C284 C283 1.379 1_455 S
C284 C286 1.369 1_455 S
C284 H312 0.930 . S
C285 C287 1.383 . S
C285 C288 1.382 . S
C285 H313 0.930 . S
C286 C284 1.369 1_655 S
C286 C288 1.392 . S
C286 H314 0.930 1_655 S
C287 C283 1.373 . S
C287 C285 1.383 . S
C287 H315 0.931 . S
C288 C285 1.382 . S
C288 C286 1.392 . S
C289 Eu280 2.828 1_655 S
C289 C283 1.505 . S
C289 O301 1.249 . S
C289 O302 1.244 1_655 S
O290 Eu281 2.373 1_455 S
O290 C292 1.258 . S
O291 Eu280 2.392 . S
O291 C292 1.242 . S
C292 O290 1.258 . S
C292 O291 1.242 . S
O293 Eu280 2.418 1_655 S
O293 C297 1.244 . S
O294 Eu281 2.488 1_455 S
O294 C310 1.249 . S
O295 Eu281 2.471 . S
O295 C310 1.244 1_655 S
O296 Eu281 2.349 . S
O296 C297 1.265 . S
C297 O293 1.244 . S
C297 O296 1.265 . S
O298 Eu280 2.373 1_655 S
O298 C311 1.258 . S
O299 Eu281 2.392 . S
O299 C311 1.242 . S
O300 Eu281 2.418 1_455 S
O300 C282 1.244 . S
O301 Eu280 2.488 1_655 S
O301 C289 1.249 . S
O302 Eu280 2.471 . S
O302 C289 1.244 1_455 S
O303 Eu280 2.349 . S
O303 C282 1.265 . S
C304 C305 1.379 1_455 S
C304 C308 1.373 . S
C304 C310 1.505 . S
C305 C304 1.379 1_655 S
C305 C307 1.369 1_655 S
C305 H316 0.930 . S
C306 C308 1.383 . S
C306 C309 1.382 . S
C306 H317 0.930 . S
C307 C305 1.369 1_455 S
C307 C309 1.392 . S
C307 H318 0.930 1_455 S
C308 C304 1.373 . S
C308 C306 1.383 . S
C308 H319 0.931 . S
C309 C306 1.382 . S
C309 C307 1.392 . S
C310 Eu281 2.828 1_455 S
C310 O294 1.249 . S
C310 O295 1.244 1_455 S
C310 C304 1.505 . S
C311 O298 1.258 . S
C311 O299 1.242 . S
H312 C284 0.930 . S
H313 C285 0.930 . S
H314 C286 0.930 1_455 S
H315 C287 0.931 . S
H316 C305 0.930 . S
H317 C306 0.930 . S
H318 C307 0.930 1_655 S
H319 C308 0.931 . S
C320 C321 1.391 . S
C320 C322 1.394 . S
C320 H336 0.931 . S
C321 C320 1.391 . S
C321 C325 1.376 . S
C322 C320 1.394 . S
C322 C323 1.369 . S
C322 C326 1.531 . S
C323 C322 1.369 . S
C323 C324 1.410 . S
C323 C331 1.503 . S
C324 C323 1.410 . S
C324 C325 1.392 . S
C324 C327 1.511 . S
C325 C321 1.376 . S
C325 C324 1.392 . S
C325 H337 0.929 . S
C326 C322 1.531 . S
C326 H338 0.960 . S
C326 H339 0.962 . S
C326 H340 0.960 . S
C327 C324 1.511 . S
C327 H341 0.961 . S
C327 H342 0.961 . S
C327 H343 0.961 . S
C328 C329 1.370 . S
C328 C330 1.363 . S
C328 H344 0.931 . S
C329 C328 1.370 . S
C329 C333 1.408 . S
C330 C328 1.363 . S
C330 C331 1.370 . S
C330 C334 1.524 . S
C331 C323 1.503 . S
C331 C330 1.370 . S
C331 C332 1.403 . S
C332 C331 1.403 . S
C332 C333 1.404 . S
C332 C335 1.539 . S
C333 C329 1.408 . S
C333 C332 1.404 . S
C333 H345 0.930 . S
C334 C330 1.524 . S
C334 H346 0.956 . S
C334 H347 0.961 . S
C334 H348 0.961 . S
C335 C332 1.539 . S
C335 H349 0.958 . S
C335 H350 0.961 . S
C335 H351 0.960 . S
H336 C320 0.931 . S
H337 C325 0.929 . S
H338 C326 0.960 . S
H339 C326 0.962 . S
H340 C326 0.960 . S
H341 C327 0.961 . S
H342 C327 0.961 . S
H343 C327 0.961 . S
H344 C328 0.931 . S
H345 C333 0.930 . S
H346 C334 0.956 . S
H347 C334 0.961 . S
H348 C334 0.961 . S
H349 C335 0.958 . S
H350 C335 0.961 . S
H351 C335 0.960 . S
C352 C353 1.391 . S
C352 C354 1.394 . S
C352 H368 0.931 . S
C353 C352 1.391 . S
C353 C357 1.376 . S
C354 C352 1.394 . S
C354 C355 1.369 . S
C354 C358 1.531 . S
C355 C354 1.369 . S
C355 C356 1.410 . S
C355 C363 1.503 . S
C356 C355 1.410 . S
C356 C357 1.392 . S
C356 C359 1.511 . S
C357 C353 1.376 . S
C357 C356 1.392 . S
C357 H369 0.929 . S
C358 C354 1.531 . S
C358 H370 0.960 . S
C358 H371 0.962 . S
C358 H372 0.960 . S
C359 C356 1.511 . S
C359 H373 0.961 . S
C359 H374 0.961 . S
C359 H375 0.961 . S
C360 C361 1.370 . S
C360 C362 1.363 . S
C360 H376 0.931 . S
C361 C360 1.370 . S
C361 C365 1.408 . S
C362 C360 1.363 . S
C362 C363 1.370 . S
C362 C366 1.524 . S
C363 C355 1.503 . S
C363 C362 1.370 . S
C363 C364 1.403 . S
C364 C363 1.403 . S
C364 C365 1.404 . S
C364 C367 1.539 . S
C365 C361 1.408 . S
C365 C364 1.404 . S
C365 H377 0.930 . S
C366 C362 1.524 . S
C366 H378 0.956 . S
C366 H379 0.961 . S
C366 H380 0.961 . S
C367 C364 1.539 . S
C367 H381 0.958 . S
C367 H382 0.961 . S
C367 H383 0.960 . S
H368 C352 0.931 . S
H369 C357 0.929 . S
H370 C358 0.960 . S
H371 C358 0.962 . S
H372 C358 0.960 . S
H373 C359 0.961 . S
H374 C359 0.961 . S
H375 C359 0.961 . S
H376 C360 0.931 . S
H377 C365 0.930 . S
H378 C366 0.956 . S
H379 C366 0.961 . S
H380 C366 0.961 . S
H381 C367 0.958 . S
H382 C367 0.961 . S
H383 C367 0.960 . S
C384 C385 1.391 . S
C384 C386 1.394 . S
C384 H400 0.931 . S
C385 C384 1.391 . S
C385 C389 1.376 . S
C386 C384 1.394 . S
C386 C387 1.369 . S
C386 C390 1.531 . S
C387 C386 1.369 . S
C387 C388 1.410 . S
C387 C395 1.503 . S
C388 C387 1.410 . S
C388 C389 1.392 . S
C388 C391 1.511 . S
C389 C385 1.376 . S
C389 C388 1.392 . S
C389 H401 0.929 . S
C390 C386 1.531 . S
C390 H402 0.960 . S
C390 H403 0.962 . S
C390 H404 0.960 . S
C391 C388 1.511 . S
C391 H405 0.961 . S
C391 H406 0.961 . S
C391 H407 0.961 . S
C392 C393 1.370 . S
C392 C394 1.363 . S
C392 H408 0.931 . S
C393 C392 1.370 . S
C393 C397 1.408 . S
C394 C392 1.363 . S
C394 C395 1.370 . S
C394 C398 1.524 . S
C395 C387 1.503 . S
C395 C394 1.370 . S
C395 C396 1.403 . S
C396 C395 1.403 . S
C396 C397 1.404 . S
C396 C399 1.539 . S
C397 C393 1.408 . S
C397 C396 1.404 . S
C397 H409 0.930 . S
C398 C394 1.524 . S
C398 H410 0.956 . S
C398 H411 0.961 . S
C398 H412 0.961 . S
C399 C396 1.539 . S
C399 H413 0.958 . S
C399 H414 0.961 . S
C399 H415 0.960 . S
H400 C384 0.931 . S
H401 C389 0.929 . S
H402 C390 0.960 . S
H403 C390 0.962 . S
H404 C390 0.960 . S
H405 C391 0.961 . S
H406 C391 0.961 . S
H407 C391 0.961 . S
H408 C392 0.931 . S
H409 C397 0.930 . S
H410 C398 0.956 . S
H411 C398 0.961 . S
H412 C398 0.961 . S
H413 C399 0.958 . S
H414 C399 0.961 . S
H415 C399 0.960 . S
C416 C417 1.391 . S
C416 C418 1.394 . S
C416 H432 0.931 . S
C417 C416 1.391 . S
C417 C421 1.376 . S
C418 C416 1.394 . S
C418 C419 1.369 . S
C418 C422 1.531 . S
C419 C418 1.369 . S
C419 C420 1.410 . S
C419 C427 1.503 . S
C420 C419 1.410 . S
C420 C421 1.392 . S
C420 C423 1.511 . S
C421 C417 1.376 . S
C421 C420 1.392 . S
C421 H433 0.929 . S
C422 C418 1.531 . S
C422 H434 0.960 . S
C422 H435 0.962 . S
C422 H436 0.960 . S
C423 C420 1.511 . S
C423 H437 0.961 . S
C423 H438 0.961 . S
C423 H439 0.961 . S
C424 C425 1.370 . S
C424 C426 1.363 . S
C424 H440 0.931 . S
C425 C424 1.370 . S
C425 C429 1.408 . S
C426 C424 1.363 . S
C426 C427 1.370 . S
C426 C430 1.524 . S
C427 C419 1.503 . S
C427 C426 1.370 . S
C427 C428 1.403 . S
C428 C427 1.403 . S
C428 C429 1.404 . S
C428 C431 1.539 . S
C429 C425 1.408 . S
C429 C428 1.404 . S
C429 H441 0.930 . S
C430 C426 1.524 . S
C430 H442 0.956 . S
C430 H443 0.961 . S
C430 H444 0.961 . S
C431 C428 1.539 . S
C431 H445 0.958 . S
C431 H446 0.961 . S
C431 H447 0.960 . S
H432 C416 0.931 . S
H433 C421 0.929 . S
H434 C422 0.960 . S
H435 C422 0.962 . S
H436 C422 0.960 . S
H437 C423 0.961 . S
H438 C423 0.961 . S
H439 C423 0.961 . S
H440 C424 0.931 . S
H441 C429 0.930 . S
H442 C430 0.956 . S
H443 C430 0.961 . S
H444 C430 0.961 . S
H445 C431 0.958 . S
H446 C431 0.961 . S
H447 C431 0.960 . S
C448 C449 1.391 . S
C448 C450 1.394 . S
C448 H464 0.931 . S
C449 C448 1.391 . S
C449 C453 1.376 . S
C450 C448 1.394 . S
C450 C451 1.369 . S
C450 C454 1.531 . S
C451 C450 1.369 . S
C451 C452 1.410 . S
C451 C459 1.503 . S
C452 C451 1.410 . S
C452 C453 1.392 . S
C452 C455 1.511 . S
C453 C449 1.376 . S
C453 C452 1.392 . S
C453 H465 0.929 . S
C454 C450 1.531 . S
C454 H466 0.960 . S
C454 H467 0.962 . S
C454 H468 0.960 . S
C455 C452 1.511 . S
C455 H469 0.961 . S
C455 H470 0.961 . S
C455 H471 0.961 . S
C456 C457 1.370 . S
C456 C458 1.363 . S
C456 H472 0.931 . S
C457 C456 1.370 . S
C457 C461 1.408 . S
C458 C456 1.363 . S
C458 C459 1.370 . S
C458 C462 1.524 . S
C459 C451 1.503 . S
C459 C458 1.370 . S
C459 C460 1.403 . S
C460 C459 1.403 . S
C460 C461 1.404 . S
C460 C463 1.539 . S
C461 C457 1.408 . S
C461 C460 1.404 . S
C461 H473 0.930 . S
C462 C458 1.524 . S
C462 H474 0.956 . S
C462 H475 0.961 . S
C462 H476 0.961 . S
C463 C460 1.539 . S
C463 H477 0.958 . S
C463 H478 0.961 . S
C463 H479 0.960 . S
H464 C448 0.931 . S
H465 C453 0.929 . S
H466 C454 0.960 . S
H467 C454 0.962 . S
H468 C454 0.960 . S
H469 C455 0.961 . S
H470 C455 0.961 . S
H471 C455 0.961 . S
H472 C456 0.931 . S
H473 C461 0.930 . S
H474 C462 0.956 . S
H475 C462 0.961 . S
H476 C462 0.961 . S
H477 C463 0.958 . S
H478 C463 0.961 . S
H479 C463 0.960 . S
C480 C481 1.391 . S
C480 C482 1.394 . S
C480 H496 0.931 . S
C481 C480 1.391 . S
C481 C485 1.376 . S
C482 C480 1.394 . S
C482 C483 1.369 . S
C482 C486 1.531 . S
C483 C482 1.369 . S
C483 C484 1.410 . S
C483 C491 1.503 . S
C484 C483 1.410 . S
C484 C485 1.392 . S
C484 C487 1.511 . S
C485 C481 1.376 . S
C485 C484 1.392 . S
C485 H497 0.929 . S
C486 C482 1.531 . S
C486 H498 0.960 . S
C486 H499 0.962 . S
C486 H500 0.960 . S
C487 C484 1.511 . S
C487 H501 0.961 . S
C487 H502 0.961 . S
C487 H503 0.961 . S
C488 C489 1.370 . S
C488 C490 1.363 . S
C488 H504 0.931 . S
C489 C488 1.370 . S
C489 C493 1.408 . S
C490 C488 1.363 . S
C490 C491 1.370 . S
C490 C494 1.524 . S
C491 C483 1.503 . S
C491 C490 1.370 . S
C491 C492 1.403 . S
C492 C491 1.403 . S
C492 C493 1.404 . S
C492 C495 1.539 . S
C493 C489 1.408 . S
C493 C492 1.404 . S
C493 H505 0.930 . S
C494 C490 1.524 . S
C494 H506 0.956 . S
C494 H507 0.961 . S
C494 H508 0.961 . S
C495 C492 1.539 . S
C495 H509 0.958 . S
C495 H510 0.961 . S
C495 H511 0.960 . S
H496 C480 0.931 . S
H497 C485 0.929 . S
H498 C486 0.960 . S
H499 C486 0.962 . S
H500 C486 0.960 . S
H501 C487 0.961 . S
H502 C487 0.961 . S
H503 C487 0.961 . S
H504 C488 0.931 . S
H505 C493 0.930 . S
H506 C494 0.956 . S
H507 C494 0.961 . S
H508 C494 0.961 . S
H509 C495 0.958 . S
H510 C495 0.961 . S
H511 C495 0.960 . S
C512 C513 1.391 . S
C512 C514 1.394 . S
C512 H528 0.931 . S
C513 C512 1.391 . S
C513 C517 1.376 . S
C514 C512 1.394 . S
C514 C515 1.369 . S
C514 C518 1.531 . S
C515 C514 1.369 . S
C515 C516 1.410 . S
C515 C523 1.503 . S
C516 C515 1.410 . S
C516 C517 1.392 . S
C516 C519 1.511 . S
C517 C513 1.376 . S
C517 C516 1.392 . S
C517 H529 0.929 . S
C518 C514 1.531 . S
C518 H530 0.960 . S
C518 H531 0.962 . S
C518 H532 0.960 . S
C519 C516 1.511 . S
C519 H533 0.961 . S
C519 H534 0.961 . S
C519 H535 0.961 . S
C520 C521 1.370 . S
C520 C522 1.363 . S
C520 H536 0.935 . S
C521 C520 1.370 . S
C521 C525 1.408 . S
C522 C520 1.363 . S
C522 C523 1.370 . S
C522 C526 1.524 . S
C523 C515 1.503 . S
C523 C522 1.370 . S
C523 C524 1.403 . S
C524 C523 1.403 . S
C524 C525 1.404 . S
C524 C527 1.539 . S
C525 C521 1.408 . S
C525 C524 1.404 . S
C525 H537 0.930 . S
C526 C522 1.524 . S
C526 H538 0.956 . S
C526 H539 0.961 . S
C526 H540 0.961 . S
C527 C524 1.539 . S
C527 H541 0.958 . S
C527 H542 0.961 . S
C527 H543 0.960 . S
H528 C512 0.931 . S
H529 C517 0.929 . S
H530 C518 0.960 . S
H531 C518 0.962 . S
H532 C518 0.960 . S
H533 C519 0.961 . S
H534 C519 0.961 . S
H535 C519 0.961 . S
H536 C520 0.935 . S
H537 C525 0.930 . S
H538 C526 0.956 . S
H539 C526 0.961 . S
H540 C526 0.961 . S
H541 C527 0.958 . S
H542 C527 0.961 . S
H543 C527 0.960 . S
C544 C545 1.391 . S
C544 C546 1.394 . S
C544 H560 0.931 . S
C545 C544 1.391 . S
C545 C549 1.376 . S
C546 C544 1.394 . S
C546 C547 1.369 . S
C546 C550 1.531 . S
C547 C546 1.369 . S
C547 C548 1.410 . S
C547 C555 1.503 . S
C548 C547 1.410 . S
C548 C549 1.392 . S
C548 C551 1.511 . S
C549 C545 1.376 . S
C549 C548 1.392 . S
C549 H561 0.929 . S
C550 C546 1.531 . S
C550 H562 0.960 . S
C550 H563 0.962 . S
C550 H564 0.960 . S
C551 C548 1.511 . S
C551 H565 0.961 . S
C551 H566 0.961 . S
C551 H567 0.961 . S
C552 C553 1.370 . S
C552 C554 1.363 . S
C552 H568 0.931 . S
C553 C552 1.370 . S
C553 C557 1.408 . S
C554 C552 1.363 . S
C554 C555 1.370 . S
C554 C558 1.524 . S
C555 C547 1.503 . S
C555 C554 1.370 . S
C555 C556 1.403 . S
C556 C555 1.403 . S
C556 C557 1.404 . S
C556 C559 1.539 . S
C557 C553 1.408 . S
C557 C556 1.404 . S
C557 H569 0.930 . S
C558 C554 1.524 . S
C558 H570 0.956 . S
C558 H571 0.961 . S
C558 H572 0.961 . S
C559 C556 1.539 . S
C559 H573 0.958 . S
C559 H574 0.961 . S
C559 H575 0.960 . S
H560 C544 0.931 . S
H561 C549 0.929 . S
H562 C550 0.960 . S
H563 C550 0.962 . S
H564 C550 0.960 . S
H565 C551 0.961 . S
H566 C551 0.961 . S
H567 C551 0.961 . S
H568 C552 0.931 . S
H569 C557 0.930 . S
H570 C558 0.956 . S
H571 C558 0.961 . S
H572 C558 0.961 . S
H573 C559 0.958 . S
H574 C559 0.961 . S
H575 C559 0.960 . S
C576 C577 1.391 . S
C576 C578 1.394 . S
C576 H592 0.931 . S
C577 C576 1.391 . S
C577 C581 1.376 . S
C578 C576 1.394 . S
C578 C579 1.369 . S
C578 C582 1.531 . S
C579 C578 1.369 . S
C579 C580 1.410 . S
C579 C587 1.503 . S
C580 C579 1.410 . S
C580 C581 1.392 . S
C580 C583 1.511 . S
C581 C577 1.376 . S
C581 C580 1.392 . S
C581 H593 0.929 . S
C582 C578 1.531 . S
C582 H594 0.960 . S
C582 H595 0.962 . S
C582 H596 0.960 . S
C583 C580 1.511 . S
C583 H597 0.961 . S
C583 H598 0.961 . S
C583 H599 0.961 . S
C584 C585 1.370 . S
C584 C586 1.363 . S
C584 H600 0.931 . S
C585 C584 1.370 . S
C585 C589 1.408 . S
C586 C584 1.363 . S
C586 C587 1.370 . S
C586 C590 1.524 . S
C587 C579 1.503 . S
C587 C586 1.370 . S
C587 C588 1.403 . S
C588 C587 1.403 . S
C588 C589 1.404 . S
C588 C591 1.539 . S
C589 C585 1.408 . S
C589 C588 1.404 . S
C589 H601 0.930 . S
C590 C586 1.524 . S
C590 H602 0.956 . S
C590 H603 0.961 . S
C590 H604 0.961 . S
C591 C588 1.539 . S
C591 H605 0.958 . S
C591 H606 0.961 . S
C591 H607 0.960 . S
H592 C576 0.931 . S
H593 C581 0.929 . S
H594 C582 0.960 . S
H595 C582 0.962 . S
H596 C582 0.960 . S
H597 C583 0.961 . S
H598 C583 0.961 . S
H599 C583 0.961 . S
H600 C584 0.931 . S
H601 C589 0.930 . S
H602 C590 0.956 . S
H603 C590 0.961 . S
H604 C590 0.961 . S
H605 C591 0.958 . S
H606 C591 0.961 . S
H607 C591 0.960 . S
C608 C609 1.391 . S
C608 C610 1.394 . S
C608 H624 0.931 . S
C609 C608 1.391 . S
C609 C613 1.376 . S
C610 C608 1.394 . S
C610 C611 1.369 . S
C610 C614 1.531 . S
C611 C610 1.369 . S
C611 C612 1.410 . S
C611 C619 1.503 . S
C612 C611 1.410 . S
C612 C613 1.392 . S
C612 C615 1.511 . S
C613 C609 1.376 . S
C613 C612 1.392 . S
C613 H625 0.929 . S
C614 C610 1.531 . S
C614 H626 0.960 . S
C614 H627 0.962 . S
C614 H628 0.960 . S
C615 C612 1.511 . S
C615 H629 0.961 . S
C615 H630 0.961 . S
C615 H631 0.961 . S
C616 C617 1.370 . S
C616 C618 1.363 . S
C616 H632 0.931 . S
C617 C616 1.370 . S
C617 C621 1.408 . S
C618 C616 1.363 . S
C618 C619 1.370 . S
C618 C622 1.524 . S
C619 C611 1.503 . S
C619 C618 1.370 . S
C619 C620 1.403 . S
C620 C619 1.403 . S
C620 C621 1.404 . S
C620 C623 1.539 . S
C621 C617 1.408 . S
C621 C620 1.404 . S
C621 H633 0.930 1_554 S
C622 C618 1.524 . S
C622 H634 0.956 . S
C622 H635 0.961 . S
C622 H636 0.961 . S
C623 C620 1.539 . S
C623 H637 0.958 1_554 S
C623 H638 0.961 1_554 S
C623 H639 0.960 . S
H624 C608 0.931 . S
H625 C613 0.929 . S
H626 C614 0.960 . S
H627 C614 0.962 . S
H628 C614 0.960 . S
H629 C615 0.961 . S
H630 C615 0.961 . S
H631 C615 0.961 . S
H632 C616 0.931 . S
H633 C621 0.930 1_556 S
H634 C622 0.956 . S
H635 C622 0.961 . S
H636 C622 0.961 . S
H637 C623 0.958 1_556 S
H638 C623 0.961 1_556 S
H639 C623 0.960 . S
C640 C641 1.391 . S
C640 C642 1.394 . S
C640 H656 0.931 . S
C641 C640 1.391 . S
C641 C645 1.376 . S
C642 C640 1.394 . S
C642 C643 1.369 . S
C642 C646 1.531 . S
C643 C642 1.369 . S
C643 C644 1.410 . S
C643 C651 1.503 . S
C644 C643 1.410 . S
C644 C645 1.392 . S
C644 C647 1.511 . S
C645 C641 1.376 . S
C645 C644 1.392 . S
C645 H657 0.929 . S
C646 C642 1.531 . S
C646 H658 0.960 . S
C646 H659 0.962 . S
C646 H660 0.960 . S
C647 C644 1.511 . S
C647 H661 0.961 . S
C647 H662 0.961 . S
C647 H663 0.961 . S
C648 C649 1.370 . S
C648 C650 1.363 . S
C648 H664 0.931 . S
C649 C648 1.370 . S
C649 C653 1.408 . S
C650 C648 1.363 . S
C650 C651 1.370 . S
C650 C654 1.524 . S
C651 C643 1.503 . S
C651 C650 1.370 . S
C651 C652 1.403 . S
C652 C651 1.403 . S
C652 C653 1.404 . S
C652 C655 1.539 . S
C653 C649 1.408 . S
C653 C652 1.404 . S
C653 H665 0.930 . S
C654 C650 1.524 . S
C654 H666 0.956 . S
C654 H667 0.961 . S
C654 H668 0.961 . S
C655 C652 1.539 . S
C655 H669 0.958 . S
C655 H670 0.961 . S
C655 H671 0.960 . S
H656 C640 0.931 . S
H657 C645 0.929 . S
H658 C646 0.960 . S
H659 C646 0.962 . S
H660 C646 0.960 . S
H661 C647 0.961 . S
H662 C647 0.961 . S
H663 C647 0.961 . S
H664 C648 0.931 . S
H665 C653 0.930 . S
H666 C654 0.956 . S
H667 C654 0.961 . S
H668 C654 0.961 . S
H669 C655 0.958 . S
H670 C655 0.961 . S
H671 C655 0.960 . S
C672 C673 1.391 . S
C672 C674 1.394 . S
C672 H688 0.931 . S
C673 C672 1.391 . S
C673 C677 1.376 . S
C674 C672 1.394 . S
C674 C675 1.369 . S
C674 C678 1.531 . S
C675 C674 1.369 . S
C675 C676 1.410 . S
C675 C683 1.503 . S
C676 C675 1.410 . S
C676 C677 1.392 . S
C676 C679 1.511 . S
C677 C673 1.376 . S
C677 C676 1.392 . S
C677 H689 0.929 . S
C678 C674 1.531 . S
C678 H690 0.960 . S
C678 H691 0.962 . S
C678 H692 0.960 . S
C679 C676 1.511 . S
C679 H693 0.961 . S
C679 H694 0.961 . S
C679 H695 0.961 . S
C680 C681 1.370 . S
C680 C682 1.363 . S
C680 H696 0.931 . S
C681 C680 1.370 . S
C681 C685 1.408 . S
C682 C680 1.363 . S
C682 C683 1.370 . S
C682 C686 1.524 . S
C683 C675 1.503 . S
C683 C682 1.370 . S
C683 C684 1.403 . S
C684 C683 1.403 . S
C684 C685 1.404 . S
C684 C687 1.539 . S
C685 C681 1.408 . S
C685 C684 1.404 . S
C685 H697 0.930 . S
C686 C682 1.524 . S
C686 H698 0.956 . S
C686 H699 0.961 . S
C686 H700 0.961 . S
C687 C684 1.539 . S
C687 H701 0.958 . S
C687 H702 0.961 . S
C687 H703 0.960 . S
H688 C672 0.931 . S
H689 C677 0.929 . S
H690 C678 0.960 . S
H691 C678 0.962 . S
H692 C678 0.960 . S
H693 C679 0.961 . S
H694 C679 0.961 . S
H695 C679 0.961 . S
H696 C680 0.931 . S
H697 C685 0.930 . S
H698 C686 0.956 . S
H699 C686 0.961 . S
H700 C686 0.961 . S
H701 C687 0.958 . S
H702 C687 0.961 . S
H703 C687 0.960 . S
C704 C705 1.391 . S
C704 C706 1.394 . S
C704 H720 0.931 . S
C705 C704 1.391 . S
C705 C709 1.376 . S
C706 C704 1.394 . S
C706 C707 1.369 . S
C706 C710 1.531 . S
C707 C706 1.369 . S
C707 C708 1.410 . S
C707 C715 1.503 . S
C708 C707 1.410 . S
C708 C709 1.392 . S
C708 C711 1.511 . S
C709 C705 1.376 . S
C709 C708 1.392 . S
C709 H721 0.929 . S
C710 C706 1.531 . S
C710 H722 0.960 . S
C710 H723 0.962 . S
C710 H724 0.960 . S
C711 C708 1.511 . S
C711 H725 0.961 . S
C711 H726 0.961 . S
C711 H727 0.961 . S
C712 C713 1.370 . S
C712 C714 1.363 . S
C712 H728 0.931 . S
C713 C712 1.370 . S
C713 C717 1.408 . S
C714 C712 1.363 . S
C714 C715 1.370 . S
C714 C718 1.524 . S
C715 C707 1.503 . S
C715 C714 1.370 . S
C715 C716 1.403 . S
C716 C715 1.403 . S
C716 C717 1.404 . S
C716 C719 1.539 . S
C717 C713 1.408 . S
C717 C716 1.404 . S
C717 H729 0.930 . S
C718 C714 1.524 . S
C718 H730 0.956 . S
C718 H731 0.961 . S
C718 H732 0.961 . S
C719 C716 1.539 . S
C719 H733 0.958 . S
C719 H734 0.961 . S
C719 H735 0.960 . S
H720 C704 0.931 . S
H721 C709 0.929 . S
H722 C710 0.960 . S
H723 C710 0.962 . S
H724 C710 0.960 . S
H725 C711 0.961 . S
H726 C711 0.961 . S
H727 C711 0.961 . S
H728 C712 0.931 . S
H729 C717 0.930 . S
H730 C718 0.956 . S
H731 C718 0.961 . S
H732 C718 0.961 . S
H733 C719 0.958 . S
H734 C719 0.961 . S
H735 C719 0.960 . S
C736 C737 1.391 . S
C736 C738 1.394 . S
C736 H752 0.931 1_556 S
C737 C736 1.391 . S
C737 C741 1.376 . S
C738 C736 1.394 . S
C738 C739 1.369 . S
C738 C742 1.531 . S
C739 C738 1.369 . S
C739 C740 1.410 . S
C739 C747 1.503 . S
C740 C739 1.410 . S
C740 C741 1.392 . S
C740 C743 1.511 . S
C741 C737 1.376 . S
C741 C740 1.392 . S
C741 H753 0.929 . S
C742 C738 1.531 . S
C742 H754 0.960 . S
C742 H755 0.962 . S
C742 H756 0.960 1_556 S
C743 C740 1.511 . S
C743 H757 0.961 . S
C743 H758 0.961 . S
C743 H759 0.961 . S
C744 C745 1.370 . S
C744 C746 1.363 . S
C744 H760 0.931 . S
C745 C744 1.370 . S
C745 C749 1.408 . S
C746 C744 1.363 . S
C746 C747 1.370 . S
C746 C750 1.524 . S
C747 C739 1.503 . S
C747 C746 1.370 . S
C747 C748 1.403 . S
C748 C747 1.403 . S
C748 C749 1.404 . S
C748 C751 1.539 . S
C749 C745 1.408 . S
C749 C748 1.404 . S
C749 H761 0.930 . S
C750 C746 1.524 . S
C750 H762 0.956 . S
C750 H763 0.961 . S
C750 H764 0.961 . S
C751 C748 1.539 . S
C751 H765 0.958 . S
C751 H766 0.961 . S
C751 H767 0.960 . S
H752 C736 0.931 1_554 S
H753 C741 0.929 . S
H754 C742 0.960 . S
H755 C742 0.962 . S
H756 C742 0.960 1_554 S
H757 C743 0.961 . S
H758 C743 0.961 . S
H759 C743 0.961 . S
H760 C744 0.931 . S
H761 C749 0.930 . S
H762 C750 0.956 . S
H763 C750 0.961 . S
H764 C750 0.961 . S
H765 C751 0.958 . S
H766 C751 0.961 . S
H767 C751 0.960 . S
C768 C769 1.391 . S
C768 C770 1.394 . S
C768 H784 0.931 . S
C769 C768 1.391 . S
C769 C773 1.376 . S
C770 C768 1.394 . S
C770 C771 1.369 . S
C770 C774 1.531 . S
C771 C770 1.369 . S
C771 C772 1.410 . S
C771 C779 1.503 . S
C772 C771 1.410 . S
C772 C773 1.392 . S
C772 C775 1.511 . S
C773 C769 1.376 . S
C773 C772 1.392 . S
C773 H785 0.929 . S
C774 C770 1.531 . S
C774 H786 0.960 . S
C774 H787 0.962 . S
C774 H788 0.960 . S
C775 C772 1.511 . S
C775 H789 0.961 . S
C775 H790 0.961 . S
C775 H791 0.961 . S
C776 C777 1.370 . S
C776 C778 1.363 . S
C776 H792 0.931 . S
C777 C776 1.370 . S
C777 C781 1.408 . S
C778 C776 1.363 . S
C778 C779 1.370 . S
C778 C782 1.524 . S
C779 C771 1.503 . S
C779 C778 1.370 . S
C779 C780 1.403 . S
C780 C779 1.403 . S
C780 C781 1.404 . S
C780 C783 1.539 . S
C781 C777 1.408 . S
C781 C780 1.404 . S
C781 H793 0.930 . S
C782 C778 1.524 . S
C782 H794 0.956 . S
C782 H795 0.961 . S
C782 H796 0.961 . S
C783 C780 1.539 . S
C783 H797 0.958 . S
C783 H798 0.961 . S
C783 H799 0.960 . S
H784 C768 0.931 . S
H785 C773 0.929 . S
H786 C774 0.960 . S
H787 C774 0.962 . S
H788 C774 0.960 . S
H789 C775 0.961 . S
H790 C775 0.961 . S
H791 C775 0.961 . S
H792 C776 0.931 . S
H793 C781 0.930 . S
H794 C782 0.956 . S
H795 C782 0.961 . S
H796 C782 0.961 . S
H797 C783 0.958 . S
H798 C783 0.961 . S
H799 C783 0.960 . S
C800 C801 1.391 . S
C800 C802 1.394 . S
C800 H816 0.931 . S
C801 C800 1.391 . S
C801 C805 1.376 . S
C802 C800 1.394 . S
C802 C803 1.369 . S
C802 C806 1.531 . S
C803 C802 1.369 . S
C803 C804 1.410 . S
C803 C811 1.503 . S
C804 C803 1.410 . S
C804 C805 1.392 . S
C804 C807 1.511 . S
C805 C801 1.376 . S
C805 C804 1.392 . S
C805 H817 0.929 . S
C806 C802 1.531 . S
C806 H818 0.960 . S
C806 H819 0.962 . S
C806 H820 0.960 . S
C807 C804 1.511 . S
C807 H821 0.961 . S
C807 H822 0.961 . S
C807 H823 0.961 . S
C808 C809 1.370 . S
C808 C810 1.363 . S
C808 H824 0.931 . S
C809 C808 1.370 . S
C809 C813 1.408 . S
C810 C808 1.363 . S
C810 C811 1.370 . S
C810 C814 1.524 . S
C811 C803 1.503 . S
C811 C810 1.370 . S
C811 C812 1.403 . S
C812 C811 1.403 . S
C812 C813 1.404 . S
C812 C815 1.539 . S
C813 C809 1.408 . S
C813 C812 1.404 . S
C813 H825 0.930 . S
C814 C810 1.524 . S
C814 H826 0.956 . S
C814 H827 0.961 . S
C814 H828 0.961 . S
C815 C812 1.539 . S
C815 H829 0.958 . S
C815 H830 0.961 . S
C815 H831 0.960 . S
H816 C800 0.931 . S
H817 C805 0.929 . S
H818 C806 0.960 . S
H819 C806 0.962 . S
H820 C806 0.960 . S
H821 C807 0.961 . S
H822 C807 0.961 . S
H823 C807 0.961 . S
H824 C808 0.931 . S
H825 C813 0.930 . S
H826 C814 0.956 . S
H827 C814 0.961 . S
H828 C814 0.961 . S
H829 C815 0.958 . S
H830 C815 0.961 . S
H831 C815 0.960 . S
C832 C833 1.391 . S
C832 C834 1.394 . S
C832 H848 0.931 . S
C833 C832 1.391 . S
C833 C837 1.376 1_645 S
C834 C832 1.394 . S
C834 C835 1.369 1_545 S
C834 C838 1.531 . S
C835 C834 1.369 1_565 S
C835 C836 1.410 1_655 S
C835 C843 1.503 1_656 S
C836 C835 1.410 1_455 S
C836 C837 1.392 . S
C836 C839 1.511 . S
C837 C833 1.376 1_465 S
C837 C836 1.392 . S
C837 H849 0.929 . S
C838 C834 1.531 . S
C838 H850 0.960 1_556 S
C838 H851 0.962 1_556 S
C838 H852 0.960 . S
C839 C836 1.511 . S
C839 H853 0.961 . S
C839 H854 0.961 . S
C839 H855 0.961 . S
C840 C841 1.370 1_545 S
C840 C842 1.363 . S
C840 H856 0.931 . S
C841 C840 1.370 1_565 S
C841 C845 1.419 . S
C842 C840 1.363 . S
C842 C843 1.370 1_545 S
C842 C846 1.524 . S
C843 C835 1.503 1_454 S
C843 C842 1.370 1_565 S
C843 C844 1.403 1_455 S
C844 C843 1.403 1_655 S
C844 C845 1.401 1_655 S
C844 C847 1.539 . S
C845 C841 1.419 . S
C845 C844 1.401 1_455 S
C845 H857 0.923 1_455 S
C846 C842 1.524 . S
C846 H858 0.956 . S
C846 H859 0.961 . S
C846 H860 0.961 . S
C847 C844 1.539 . S
C847 H861 0.958 . S
C847 H862 0.961 . S
C847 H863 0.960 1_554 S
H848 C832 0.931 . S
H849 C837 0.929 . S
H850 C838 0.960 1_554 S
H851 C838 0.962 1_554 S
H852 C838 0.960 . S
H853 C839 0.961 . S
H854 C839 0.961 . S
H855 C839 0.961 . S
H856 C840 0.931 . S
H857 C845 0.923 1_655 S
H858 C846 0.956 . S
H859 C846 0.961 . S
H860 C846 0.961 . S
H861 C847 0.958 . S
H862 C847 0.961 . S
H863 C847 0.960 1_556 S
C864 C865 1.391 . S
C864 C866 1.394 . S
C864 H880 0.931 . S
C865 C864 1.391 . S
C865 C869 1.376 . S
C866 C864 1.394 . S
C866 C867 1.369 . S
C866 C870 1.531 . S
C867 C866 1.369 . S
C867 C868 1.410 . S
C867 C875 1.503 . S
C868 C867 1.410 . S
C868 C869 1.392 . S
C868 C871 1.511 . S
C869 C865 1.376 . S
C869 C868 1.392 . S
C869 H881 0.929 . S
C870 C866 1.531 . S
C870 H882 0.960 . S
C870 H883 0.962 . S
C870 H884 0.960 . S
C871 C868 1.511 . S
C871 H885 0.961 . S
C871 H886 0.961 . S
C871 H887 0.961 . S
C872 C873 1.370 . S
C872 C874 1.363 . S
C872 H888 0.931 . S
C873 C872 1.370 . S
C873 C877 1.408 . S
C874 C872 1.363 . S
C874 C875 1.370 . S
C874 C878 1.524 . S
C875 C867 1.503 . S
C875 C874 1.370 . S
C875 C876 1.403 . S
C876 C875 1.403 . S
C876 C877 1.404 . S
C876 C879 1.539 . S
C877 C873 1.408 . S
C877 C876 1.404 . S
C877 H889 0.930 . S
C878 C874 1.524 . S
C878 H890 0.956 . S
C878 H891 0.961 . S
C878 H892 0.961 . S
C879 C876 1.539 . S
C879 H893 0.958 . S
C879 H894 0.961 . S
C879 H895 0.960 . S
H880 C864 0.931 . S
H881 C869 0.929 . S
H882 C870 0.960 . S
H883 C870 0.962 . S
H884 C870 0.960 . S
H885 C871 0.961 . S
H886 C871 0.961 . S
H887 C871 0.961 . S
H888 C872 0.931 . S
H889 C877 0.930 . S
H890 C878 0.956 . S
H891 C878 0.961 . S
H892 C878 0.961 . S
H893 C879 0.958 . S
H894 C879 0.961 . S
H895 C879 0.960 . S
C896 C897 1.391 . S
C896 C898 1.394 . S
C896 H912 0.931 . S
C897 C896 1.391 . S
C897 C901 1.376 1_565 S
C898 C896 1.394 . S
C898 C899 1.369 1_565 S
C898 C902 1.531 . S
C899 C898 1.369 1_545 S
C899 C900 1.410 . S
C899 C907 1.503 . S
C900 C899 1.410 . S
C900 C901 1.392 . S
C900 C903 1.511 . S
C901 C897 1.376 1_545 S
C901 C900 1.392 . S
C901 H913 0.929 . S
C902 C898 1.531 . S
C902 H914 0.960 . S
C902 H915 0.962 . S
C902 H916 0.960 . S
C903 C900 1.511 . S
C903 H917 0.961 . S
C903 H918 0.961 . S
C903 H919 0.961 . S
C904 C905 1.370 1_565 S
C904 C906 1.363 . S
C904 H920 0.931 . S
C905 C904 1.370 1_545 S
C905 C909 1.408 . S
C906 C904 1.363 . S
C906 C907 1.370 1_565 S
C906 C910 1.524 . S
C907 C899 1.503 . S
C907 C906 1.370 1_545 S
C907 C908 1.403 . S
C908 C907 1.403 . S
C908 C909 1.404 . S
C908 C911 1.539 . S
C909 C905 1.408 . S
C909 C908 1.404 . S
C909 H921 0.930 . S
C910 C906 1.524 . S
C910 H922 0.956 . S
C910 H923 0.961 . S
C910 H924 0.961 . S
C911 C908 1.539 . S
C911 H925 0.958 . S
C911 H926 0.961 . S
C911 H927 0.960 . S
H912 C896 0.931 . S
H913 C901 0.929 . S
H914 C902 0.960 . S
H915 C902 0.962 . S
H916 C902 0.960 . S
H917 C903 0.961 . S
H918 C903 0.961 . S
H919 C903 0.961 . S
H920 C904 0.931 . S
H921 C909 0.930 . S
H922 C910 0.956 . S
H923 C910 0.961 . S
H924 C910 0.961 . S
H925 C911 0.958 . S
H926 C911 0.961 . S
H927 C911 0.960 . S
C928 C929 1.391 . S
C928 C930 1.394 . S
C928 H944 0.931 . S
C929 C928 1.391 . S
C929 C933 1.376 . S
C930 C928 1.394 . S
C930 C931 1.369 . S
C930 C934 1.531 . S
C931 C930 1.369 . S
C931 C932 1.410 . S
C931 C939 1.503 . S
C932 C931 1.410 . S
C932 C933 1.392 . S
C932 C935 1.511 . S
C933 C929 1.376 . S
C933 C932 1.392 . S
C933 H945 0.929 . S
C934 C930 1.531 . S
C934 H946 0.960 . S
C934 H947 0.962 . S
C934 H948 0.960 . S
C935 C932 1.511 . S
C935 H949 0.961 . S
C935 H950 0.961 . S
C935 H951 0.961 . S
C936 C937 1.370 . S
C936 C938 1.363 . S
C936 H952 0.931 . S
C937 C936 1.370 . S
C937 C941 1.408 . S
C938 C936 1.363 . S
C938 C939 1.370 . S
C938 C942 1.524 . S
C939 C931 1.503 . S
C939 C938 1.370 . S
C939 C940 1.403 . S
C940 C939 1.403 . S
C940 C941 1.404 . S
C940 C943 1.539 . S
C941 C937 1.408 . S
C941 C940 1.404 . S
C941 H953 0.930 . S
C942 C938 1.524 . S
C942 H954 0.956 . S
C942 H955 0.961 . S
C942 H956 0.961 . S
C943 C940 1.539 . S
C943 H957 0.958 . S
C943 H958 0.961 . S
C943 H959 0.960 . S
H944 C928 0.931 . S
H945 C933 0.929 . S
H946 C934 0.960 . S
H947 C934 0.962 . S
H948 C934 0.960 . S
H949 C935 0.961 . S
H950 C935 0.961 . S
H951 C935 0.961 . S
H952 C936 0.931 . S
H953 C941 0.930 . S
H954 C942 0.956 . S
H955 C942 0.961 . S
H956 C942 0.961 . S
H957 C943 0.958 . S
H958 C943 0.961 . S
H959 C943 0.960 . S
C960 C961 1.391 . S
C960 C962 1.394 . S
C960 H976 0.931 . S
C961 C960 1.391 . S
C961 C965 1.376 . S
C962 C960 1.394 . S
C962 C963 1.369 . S
C962 C966 1.531 . S
C963 C962 1.369 . S
C963 C964 1.410 . S
C963 C971 1.503 . S
C964 C963 1.410 . S
C964 C965 1.392 . S
C964 C967 1.511 . S
C965 C961 1.376 . S
C965 C964 1.392 . S
C965 H977 0.929 . S
C966 C962 1.531 . S
C966 H978 0.960 . S
C966 H979 0.962 . S
C966 H980 0.960 . S
C967 C964 1.511 . S
C967 H981 0.961 . S
C967 H982 0.961 . S
C967 H983 0.961 . S
C968 C969 1.370 . S
C968 C970 1.363 . S
C968 H984 0.931 . S
C969 C968 1.370 . S
C969 C973 1.408 . S
C970 C968 1.363 . S
C970 C971 1.370 . S
C970 C974 1.524 . S
C971 C963 1.503 . S
C971 C970 1.370 . S
C971 C972 1.403 . S
C972 C971 1.403 . S
C972 C973 1.404 . S
C972 C975 1.539 . S
C973 C969 1.408 . S
C973 C972 1.404 . S
C973 H985 0.930 . S
C974 C970 1.524 . S
C974 H986 0.956 . S
C974 H987 0.961 . S
C974 H988 0.961 . S
C975 C972 1.539 . S
C975 H989 0.958 . S
C975 H990 0.961 . S
C975 H991 0.960 . S
H976 C960 0.931 . S
H977 C965 0.929 . S
H978 C966 0.960 . S
H979 C966 0.962 . S
H980 C966 0.960 . S
H981 C967 0.961 . S
H982 C967 0.961 . S
H983 C967 0.961 . S
H984 C968 0.931 . S
H985 C973 0.930 . S
H986 C974 0.956 . S
H987 C974 0.961 . S
H988 C974 0.961 . S
H989 C975 0.958 . S
H990 C975 0.961 . S
H991 C975 0.960 . S
C992 C993 1.391 . S
C992 C994 1.394 . S
C992 H1008 0.931 . S
C993 C992 1.391 . S
C993 C997 1.376 . S
C994 C992 1.394 . S
C994 C995 1.369 . S
C994 C998 1.531 . S
C995 C994 1.369 . S
C995 C996 1.410 . S
C995 C1003 1.503 . S
C996 C995 1.410 . S
C996 C997 1.392 . S
C996 C999 1.511 . S
C997 C993 1.376 . S
C997 C996 1.392 . S
C997 H1009 0.929 . S
C998 C994 1.531 . S
C998 H1010 0.960 . S
C998 H1011 0.962 . S
C998 H1012 0.960 . S
C999 C996 1.511 . S
C999 H1013 0.961 . S
C999 H1014 0.961 . S
C999 H1015 0.961 . S
C1000 C1001 1.370 . S
C1000 C1002 1.363 . S
C1000 H1016 0.931 . S
C1001 C1000 1.370 . S
C1001 C1005 1.408 . S
C1002 C1000 1.363 . S
C1002 C1003 1.370 . S
C1002 C1006 1.524 . S
C1003 C995 1.503 . S
C1003 C1002 1.370 . S
C1003 C1004 1.403 . S
C1004 C1003 1.403 . S
C1004 C1005 1.404 . S
C1004 C1007 1.539 . S
C1005 C1001 1.408 . S
C1005 C1004 1.404 . S
C1005 H1017 0.930 . S
C1006 C1002 1.524 . S
C1006 H1018 0.956 . S
C1006 H1019 0.961 . S
C1006 H1020 0.961 . S
C1007 C1004 1.539 . S
C1007 H1021 0.958 . S
C1007 H1022 0.961 . S
C1007 H1023 0.960 . S
H1008 C992 0.931 . S
H1009 C997 0.929 . S
H1010 C998 0.960 . S
H1011 C998 0.962 . S
H1012 C998 0.960 . S
H1013 C999 0.961 . S
H1014 C999 0.961 . S
H1015 C999 0.961 . S
H1016 C1000 0.931 . S
H1017 C1005 0.930 . S
H1018 C1006 0.956 . S
H1019 C1006 0.961 . S
H1020 C1006 0.961 . S
H1021 C1007 0.958 . S
H1022 C1007 0.961 . S
H1023 C1007 0.960 . S
C1024 C1025 1.391 . S
C1024 C1026 1.394 . S
C1024 H1040 0.931 . S
C1025 C1024 1.391 . S
C1025 C1029 1.376 . S
C1026 C1024 1.394 . S
C1026 C1027 1.369 . S
C1026 C1030 1.531 . S
C1027 C1026 1.369 . S
C1027 C1028 1.410 . S
C1027 C1035 1.503 . S
C1028 C1027 1.410 . S
C1028 C1029 1.392 . S
C1028 C1031 1.511 . S
C1029 C1025 1.376 . S
C1029 C1028 1.392 . S
C1029 H1041 0.929 . S
C1030 C1026 1.531 . S
C1030 H1042 0.960 . S
C1030 H1043 0.962 . S
C1030 H1044 0.960 . S
C1031 C1028 1.511 . S
C1031 H1045 0.961 . S
C1031 H1046 0.961 . S
C1031 H1047 0.961 . S
C1032 C1033 1.370 . S
C1032 C1034 1.363 . S
C1032 H1048 0.931 . S
C1033 C1032 1.370 . S
C1033 C1037 1.408 . S
C1034 C1032 1.363 . S
C1034 C1035 1.370 . S
C1034 C1038 1.524 . S
C1035 C1027 1.503 . S
C1035 C1034 1.370 . S
C1035 C1036 1.403 . S
C1036 C1035 1.403 . S
C1036 C1037 1.404 . S
C1036 C1039 1.539 . S
C1037 C1033 1.408 . S
C1037 C1036 1.404 . S
C1037 H1049 0.930 . S
C1038 C1034 1.524 . S
C1038 H1050 0.956 . S
C1038 H1051 0.961 . S
C1038 H1052 0.961 . S
C1039 C1036 1.539 . S
C1039 H1053 0.958 . S
C1039 H1054 0.961 . S
C1039 H1055 0.960 . S
H1040 C1024 0.931 . S
H1041 C1029 0.929 . S
H1042 C1030 0.960 . S
H1043 C1030 0.962 . S
H1044 C1030 0.960 . S
H1045 C1031 0.961 . S
H1046 C1031 0.961 . S
H1047 C1031 0.961 . S
H1048 C1032 0.931 . S
H1049 C1037 0.930 . S
H1050 C1038 0.956 . S
H1051 C1038 0.961 . S
H1052 C1038 0.961 . S
H1053 C1039 0.958 . S
H1054 C1039 0.961 . S
H1055 C1039 0.960 . S
C1056 C1057 1.391 . S
C1056 C1058 1.394 . S
C1056 H1072 0.931 . S
C1057 C1056 1.391 . S
C1057 C1061 1.376 1_655 S
C1058 C1056 1.394 . S
C1058 C1059 1.382 . S
C1058 C1062 1.531 . S
C1059 C1058 1.382 . S
C1059 C1060 1.398 1_655 S
C1059 C1067 1.503 1_656 S
C1060 C1059 1.398 1_455 S
C1060 C1061 1.392 . S
C1060 C1063 1.511 . S
C1061 C1057 1.376 1_455 S
C1061 C1060 1.392 . S
C1061 H1073 0.929 . S
C1062 C1058 1.531 . S
C1062 H1074 0.960 . S
C1062 H1075 0.962 . S
C1062 H1076 0.960 . S
C1063 C1060 1.511 . S
C1063 H1077 0.961 . S
C1063 H1078 0.961 1_556 S
C1063 H1079 0.961 . S
C1064 C1065 1.370 . S
C1064 C1066 1.363 1_455 S
C1064 H1080 0.931 1_455 S
C1065 C1064 1.370 . S
C1065 C1069 1.408 . S
C1066 C1064 1.363 1_655 S
C1066 C1067 1.370 1_655 S
C1066 C1070 1.524 . S
C1067 C1059 1.503 1_454 S
C1067 C1066 1.370 1_455 S
C1067 C1068 1.403 . S
C1068 C1067 1.403 . S
C1068 C1069 1.404 . S
C1068 C1071 1.539 . S
C1069 C1065 1.408 . S
C1069 C1068 1.404 . S
C1069 H1081 0.930 . S
C1070 C1066 1.524 . S
C1070 H1082 0.956 . S
C1070 H1083 0.961 . S
C1070 H1084 0.961 . S
C1071 C1068 1.539 . S
C1071 H1085 0.958 . S
C1071 H1086 0.961 . S
C1071 H1087 0.960 1_554 S
H1072 C1056 0.931 . S
H1073 C1061 0.929 . S
H1074 C1062 0.960 . S
H1075 C1062 0.962 . S
H1076 C1062 0.960 . S
H1077 C1063 0.961 . S
H1078 C1063 0.961 1_554 S
H1079 C1063 0.961 . S
H1080 C1064 0.931 1_655 S
H1081 C1069 0.930 . S
H1082 C1070 0.956 . S
H1083 C1070 0.961 . S
H1084 C1070 0.961 . S
H1085 C1071 0.958 . S
H1086 C1071 0.961 . S
H1087 C1071 0.960 1_556 S
C321 C31 1.994 . S
C329 C151 1.997 . S
C353 C17 1.516 . S
C361 C71 1.542 . S
C385 C57 0.964 . S
C393 C97 0.993 . S
C417 C111 1.536 . S
C425 C137 1.525 . S
C449 C12 2.001 . S
C457 C212 2.010 . S
C481 C2 1.516 . S
C489 C172 1.545 . S
C513 C162 0.954 . S
C521 C82 0.982 . S
C545 C202 1.527 . S
C553 C92 1.549 . S
C577 C271 2.002 . S
C585 C231 2.006 . S
C609 C191 1.540 . S
C617 C257 1.515 . S
C641 C297 0.946 . S
C649 C177 0.982 . S
C673 C217 1.521 . S
C681 C311 1.549 . S
C705 C132 1.994 . S
C713 C252 2.001 . S
C737 C242 1.502 . S
C745 C52 1.543 . S
C769 C42 0.988 . S
C777 C282 0.966 . S
C801 C122 1.533 . S
C809 C292 1.540 . S
C833 C29 1.492 . S
C841 C8 1.489 . S
C865 C48 1.411 . S
C873 C69 1.376 . S
C897 C109 1.356 . S
C905 C88 1.398 . S
C929 C149 1.474 . S
C937 C128 1.494 . S
C961 C168 1.369 . S
C969 C189 1.392 . S
C993 C229 1.466 . S
C1001 C208 1.497 . S
C1025 C248 1.504 . S
C1033 C269 1.482 . S
C1057 C288 1.357 . S
C1065 C309 1.399 . S
