# Generated by pormake.
# Topology uni, (4)-cn, num edge types: 1
# Building blocks:
#     Node 0, Type 0, BuildingBlock: NAHDIM_clean_sbu_0, # of connection points: 4
#     Node 1, Type 0, BuildingBlock: NAHDIM_clean_sbu_0, # of connection points: 4
#     Node 2, Type 0, BuildingBlock: NAHDIM_clean_sbu_0, # of connection points: 4
#     Node 3, Type 0, BuildingBlock: NAHDIM_clean_sbu_0, # of connection points: 4
#     Node 4, Type 0, BuildingBlock: NAHDIM_clean_sbu_0, # of connection points: 4
#     Node 5, Type 0, BuildingBlock: NAHDIM_clean_sbu_0, # of connection points: 4
#     Edge 6, Type (0, 0), BuildingBlock: XUDNAN_clean_linker_2, # of connection points: 2
#     Edge 7, Type (0, 0), BuildingBlock: XUDNAN_clean_linker_2, # of connection points: 2
#     Edge 8, Type (0, 0), BuildingBlock: XUDNAN_clean_linker_2, # of connection points: 2
#     Edge 9, Type (0, 0), BuildingBlock: XUDNAN_clean_linker_2, # of connection points: 2
#     Edge 10, Type (0, 0), BuildingBlock: XUDNAN_clean_linker_2, # of connection points: 2
#     Edge 11, Type (0, 0), BuildingBlock: XUDNAN_clean_linker_2, # of connection points: 2
#     Edge 12, Type (0, 0), BuildingBlock: XUDNAN_clean_linker_2, # of connection points: 2
#     Edge 13, Type (0, 0), BuildingBlock: XUDNAN_clean_linker_2, # of connection points: 2
#     Edge 14, Type (0, 0), BuildingBlock: XUDNAN_clean_linker_2, # of connection points: 2
#     Edge 15, Type (0, 0), BuildingBlock: XUDNAN_clean_linker_2, # of connection points: 2
#     Edge 16, Type (0, 0), BuildingBlock: XUDNAN_clean_linker_2, # of connection points: 2
#     Edge 17, Type (0, 0), BuildingBlock: XUDNAN_clean_linker_2, # of connection points: 2
# Relax obj value: 0.045
# Max RMSD: 0.077
# Mean RMSD: 0.077
data_MOF--net-uni--node1-NAHDIM_clean_sbu_0--edge1-XUDNAN_clean_linker_2
_symmetry_space_group_name_H-M    P1
_symmetry_Int_Tables_number       1
_symmetry_cell_setting            triclinic
loop_
_symmetry_equiv_pos_as_xyz
'x, y, z'
_cell_length_a     38.807325
_cell_length_b     38.772589
_cell_length_c     23.263776
_cell_angle_alpha  89.999848
_cell_angle_beta   90.038397
_cell_angle_gamma 119.98761
loop_
_atom_site_label
_atom_site_type_symbol
_atom_site_fract_x
_atom_site_fract_y
_atom_site_fract_z
_atom_type_partial_charge
C0 C 0.65142 0.96381 0.15406 0.0
O1 O 0.64813 0.98935 0.18733 0.0
O2 O 0.70022 0.06213 0.05309 0.0
Zn3 Zn 0.64625 0.01319 0.06489 0.0
O4 O 0.61139 0.02595 0.11456 0.0
C5 C 0.60796 0.02023 0.96687 0.0
O6 O 0.61612 0.05273 0.99533 0.0
O7 O 0.6513 0.9678 0.09977 0.0
C8 C 0.62226 0.05004 0.15667 0.0
O9 O 0.6598 0.06922 0.17238 0.0
C10 C 0.7303 0.06972 0.08379 0.0
O11 O 0.72642 0.04527 0.12559 0.0
O12 O 0.6189 0.99695 0.98788 0.0
C13 C 0.73981 0.68399 0.22463 0.0
O14 O 0.74019 0.71424 0.19857 0.0
O15 O 0.66215 0.70546 0.21214 0.0
Zn16 Zn 0.65441 0.64993 0.21563 0.0
O17 O 0.61615 0.61985 0.27972 0.0
C18 C 0.60838 0.63176 0.11362 0.0
O19 O 0.60483 0.66137 0.13417 0.0
O20 O 0.70665 0.65273 0.23422 0.0
C21 C 0.58428 0.62102 0.28694 0.0
O22 O 0.57604 0.64243 0.25179 0.0
C23 C 0.6671 0.72611 0.257 0.0
O24 O 0.66877 0.71164 0.30733 0.0
O25 O 0.63001 0.62104 0.1406 0.0
C26 C 0.10287 0.71965 0.4537 0.0
O27 O 0.08384 0.69914 0.49949 0.0
O28 O 0.99374 0.67614 0.38038 0.0
Zn29 Zn 0.034 0.65814 0.39181 0.0
O30 O 0.02002 0.61892 0.45752 0.0
C31 C 0.0009 0.60242 0.30117 0.0
O32 O 0.96915 0.59315 0.33209 0.0
O33 O 0.08764 0.70718 0.40428 0.0
C34 C 0.03121 0.59329 0.4527 0.0
O35 O 0.05156 0.59425 0.40705 0.0
C36 C 0.95725 0.65739 0.39473 0.0
O37 O 0.94328 0.62396 0.42372 0.0
O38 O 0.03437 0.63068 0.31793 0.0
C39 C 0.38536 0.09748 0.55871 0.0
O40 O 0.36341 0.07316 0.5176 0.0
O41 O 0.36698 0.99724 0.53793 0.0
Zn42 Zn 0.41895 0.04543 0.56118 0.0
O43 O 0.44441 0.03292 0.62715 0.0
C44 C 0.44049 0.056 0.44239 0.0
O45 O 0.40261 0.04481 0.43745 0.0
O46 O 0.41102 0.09142 0.58364 0.0
C47 C 0.45309 0.0054 0.62429 0.0
O48 O 0.44399 0.98348 0.57761 0.0
C49 C 0.34394 0.96713 0.56819 0.0
O50 O 0.35252 0.9658 0.62248 0.0
O51 O 0.45534 0.06 0.49236 0.0
C52 C 0.31941 0.38926 0.78279 0.0
O53 O 0.33925 0.37798 0.81628 0.0
O54 O 0.38296 0.36002 0.6901 0.0
Zn55 Zn 0.38764 0.41271 0.71183 0.0
O56 O 0.42471 0.44421 0.7766 0.0
C57 C 0.4397 0.45644 0.62002 0.0
O58 O 0.46081 0.44231 0.64386 0.0
O59 O 0.33378 0.40417 0.73393 0.0
C60 C 0.45715 0.44933 0.79779 0.0
O61 O 0.47358 0.42936 0.77745 0.0
C62 C 0.39355 0.33752 0.71474 0.0
O63 O 0.41128 0.34761 0.76501 0.0
O64 O 0.40624 0.44757 0.64174 0.0
C65 C 0.96322 0.31937 0.95683 0.0
O66 O 0.99646 0.34209 0.98481 0.0
O67 O 0.05224 0.39036 0.89387 0.0
Zn68 Zn 0.99912 0.38827 0.88986 0.0
O69 O 0.99489 0.42369 0.94913 0.0
C70 C 0.98753 0.4346 0.80131 0.0
O71 O 0.98594 0.45486 0.84547 0.0
O72 O 0.95655 0.3324 0.91042 0.0
C73 C 0.02267 0.45171 0.97774 0.0
O74 O 0.05967 0.46055 0.96936 0.0
C75 C 0.07784 0.40475 0.85374 0.0
O76 O 0.07077 0.4209 0.80893 0.0
O77 O 0.99134 0.40428 0.81012 0.0
H78 H 0.62605 0.07383 0.26876 0.0
H79 H 0.54994 0.03549 0.118 0.0
H80 H 0.49744 0.03898 0.17309 0.0
H81 H 0.55039 0.01613 0.36746 0.0
H82 H 0.56949 0.0523 0.4247 0.0
H83 H 0.60292 0.05144 0.37192 0.0
H84 H 0.62841 0.12565 0.34827 0.0
H85 H 0.59502 0.12675 0.4011 0.0
H86 H 0.59335 0.14112 0.32791 0.0
H87 H 0.45198 0.04272 0.24518 0.0
H88 H 0.41492 0.04297 0.33094 0.0
H89 H 0.51938 0.07657 0.43649 0.0
C90 C 0.59863 0.06696 0.24712 0.0
C91 C 0.59212 0.05471 0.18903 0.0
C92 C 0.55551 0.04501 0.16248 0.0
C93 C 0.52561 0.04708 0.19331 0.0
C94 C 0.5327 0.05871 0.25074 0.0
C95 C 0.5682 0.06834 0.27755 0.0
C96 C 0.5669 0.07677 0.34091 0.0
C97 C 0.57276 0.0474 0.37844 0.0
C98 C 0.59776 0.12016 0.35538 0.0
C99 C 0.52488 0.06961 0.34568 0.0
C100 C 0.50593 0.05982 0.29295 0.0
C101 C 0.46656 0.05062 0.28666 0.0
C102 C 0.44576 0.05084 0.33571 0.0
C103 C 0.4642 0.0598 0.39051 0.0
C104 C 0.50449 0.06983 0.39521 0.0
H105 H 0.59405 0.57629 0.36979 0.0
H106 H 0.51237 0.61489 0.3115 0.0
H107 H 0.46641 0.57704 0.39048 0.0
H108 H 0.52016 0.47726 0.4101 0.0
H109 H 0.54721 0.47595 0.47229 0.0
H110 H 0.57373 0.50627 0.41136 0.0
H111 H 0.60852 0.56833 0.47734 0.0
H112 H 0.58213 0.53821 0.53849 0.0
H113 H 0.57873 0.58173 0.52121 0.0
H114 H 0.42915 0.53459 0.47561 0.0
H115 H 0.40365 0.49107 0.56094 0.0
H116 H 0.51001 0.48068 0.56328 0.0
C117 C 0.56651 0.57682 0.37355 0.0
C118 C 0.5568 0.59853 0.33439 0.0
C119 C 0.52048 0.59848 0.34097 0.0
C120 C 0.49415 0.57707 0.38568 0.0
C121 C 0.50464 0.55596 0.42346 0.0
C122 C 0.53997 0.55572 0.4179 0.0
C123 C 0.54425 0.5307 0.46423 0.0
C124 C 0.54645 0.49545 0.4379 0.0
C125 C 0.58056 0.55628 0.50258 0.0
C126 C 0.50572 0.51676 0.49662 0.0
C127 C 0.48328 0.53165 0.47247 0.0
C128 C 0.44648 0.52277 0.49492 0.0
C129 C 0.43224 0.49801 0.54338 0.0
C130 C 0.45481 0.48245 0.56883 0.0
C131 C 0.49201 0.49207 0.54491 0.0
H132 H 0.98119 0.4991 0.76769 0.0
H133 H 0.99871 0.40432 0.70117 0.0
H134 H 0.00789 0.43275 0.60377 0.0
H135 H 0.9279 0.50658 0.64138 0.0
H136 H 0.95124 0.55998 0.64697 0.0
H137 H 0.94282 0.53036 0.71069 0.0
H138 H 0.0178 0.57185 0.73578 0.0
H139 H 0.02651 0.6014 0.67206 0.0
H140 H 0.05416 0.57603 0.68384 0.0
H141 H 0.02109 0.47446 0.51582 0.0
H142 H 0.03446 0.52505 0.44171 0.0
H143 H 0.00699 0.59229 0.56431 0.0
C144 C 0.98631 0.48392 0.73253 0.0
C145 C 0.98915 0.44939 0.74212 0.0
C146 C 0.99622 0.43066 0.69492 0.0
C147 C 0.0015 0.44661 0.63941 0.0
C148 C 0.99929 0.48109 0.63169 0.0
C149 C 0.99149 0.49934 0.67679 0.0
C150 C 0.99221 0.537 0.65721 0.0
C151 C 0.95109 0.53324 0.66449 0.0
C152 C 0.0246 0.57373 0.68912 0.0
C153 C 0.00252 0.53754 0.5943 0.0
C154 C 0.00635 0.50493 0.58053 0.0
C155 C 0.0177 0.49985 0.52587 0.0
C156 C 0.0254 0.52887 0.48415 0.0
C157 C 0.0216 0.56253 0.49716 0.0
C158 C 0.00966 0.56664 0.55291 0.0
H159 H 0.57481 0.06082 0.91774 0.0
H160 H 0.58948 0.95791 0.89304 0.0
H161 H 0.55067 0.9421 0.80278 0.0
H162 H 0.47448 0.01567 0.86632 0.0
H163 H 0.48152 0.06051 0.83229 0.0
H164 H 0.51071 0.06368 0.89437 0.0
H165 H 0.57553 0.10753 0.8371 0.0
H166 H 0.54654 0.1046 0.77491 0.0
H167 H 0.5835 0.08955 0.76979 0.0
H168 H 0.51047 0.93825 0.71431 0.0
H169 H 0.47227 0.94649 0.63565 0.0
H170 H 0.48359 0.05134 0.72071 0.0
C171 C 0.57002 0.03498 0.8934 0.0
C172 C 0.58527 0.01064 0.9124 0.0
C173 C 0.5781 0.977 0.87929 0.0
C174 C 0.55608 0.96779 0.82801 0.0
C175 C 0.54137 0.99242 0.81066 0.0
C176 C 0.54804 0.02529 0.84248 0.0
C177 C 0.52896 0.04696 0.81486 0.0
C178 C 0.49702 0.04666 0.85432 0.0
C179 C 0.56052 0.08968 0.79817 0.0
C180 C 0.51055 0.02124 0.76233 0.0
C181 C 0.51802 0.98994 0.76051 0.0
C182 C 0.50437 0.96259 0.71541 0.0
C183 C 0.4827 0.96752 0.67094 0.0
C184 C 0.47483 0.99948 0.67205 0.0
C185 C 0.48887 0.02646 0.71864 0.0
H186 H 0.6059 0.56713 0.05854 0.0
H187 H 0.55774 0.64702 0.05254 0.0
H188 H 0.51551 0.60959 0.97082 0.0
H189 H 0.60716 0.55437 0.90254 0.0
H190 H 0.59294 0.50253 0.90753 0.0
H191 H 0.6208 0.53626 0.96493 0.0
H192 H 0.56633 0.49081 0.03756 0.0
H193 H 0.53822 0.45706 0.98037 0.0
H194 H 0.51547 0.4781 0.02508 0.0
H195 H 0.4758 0.56241 0.89464 0.0
H196 H 0.44289 0.50952 0.82258 0.0
H197 H 0.51712 0.46001 0.87303 0.0
C198 C 0.58673 0.57692 0.03965 0.0
C199 C 0.58516 0.61005 0.06216 0.0
C200 C 0.55957 0.62181 0.03628 0.0
C201 C 0.53538 0.60073 0.98975 0.0
C202 C 0.53721 0.56803 0.96912 0.0
C203 C 0.56239 0.55625 0.99264 0.0
C204 C 0.55795 0.51962 0.96203 0.0
C205 C 0.59704 0.52875 0.9325 0.0
C206 C 0.54364 0.48431 0.00376 0.0
C207 C 0.52603 0.51255 0.91823 0.0
C208 C 0.51456 0.54088 0.9235 0.0
C209 C 0.4847 0.54022 0.88966 0.0
C210 C 0.46606 0.50986 0.84898 0.0
C211 C 0.47745 0.48061 0.84198 0.0
C212 C 0.508 0.48212 0.87705 0.0
H213 H 0.07342 0.51187 0.05094 0.0
H214 H 0.94887 0.43961 0.00345 0.0
H215 H 0.93077 0.47262 0.07804 0.0
H216 H 0.05796 0.51027 0.20164 0.0
H217 H 0.09653 0.56105 0.2137 0.0
H218 H 0.10044 0.53332 0.15445 0.0
H219 H 0.10764 0.58816 0.08371 0.0
H220 H 0.1038 0.61611 0.14281 0.0
H221 H 0.07019 0.60271 0.08267 0.0
H222 H 0.9252 0.51012 0.16015 0.0
H223 H 0.93268 0.55133 0.24491 0.0
H224 H 0.06074 0.60073 0.23962 0.0
C225 C 0.04239 0.50325 0.05591 0.0
C226 C 0.01259 0.4731 0.02126 0.0
C227 C 0.9723 0.46258 0.02936 0.0
C228 C 0.96165 0.4812 0.07161 0.0
C229 C 0.99162 0.51047 0.1053 0.0
C230 C 0.03118 0.52166 0.09793 0.0
C231 C 0.05726 0.55334 0.14119 0.0
C232 C 0.07934 0.5386 0.18004 0.0
C233 C 0.08644 0.5924 0.11077 0.0
C234 C 0.02602 0.55764 0.17446 0.0
C235 C 0.98841 0.53266 0.15278 0.0
C236 C 0.95451 0.53008 0.17731 0.0
C237 C 0.95909 0.55353 0.22556 0.0
C238 C 0.99729 0.57934 0.24875 0.0
C239 C 0.03121 0.5816 0.22247 0.0
H240 H 0.66227 0.76333 0.15939 0.0
H241 H 0.67447 0.77636 0.3449 0.0
H242 H 0.67333 0.83932 0.33824 0.0
H243 H 0.72386 0.8685 0.12506 0.0
H244 H 0.69283 0.86617 0.06577 0.0
H245 H 0.69613 0.82289 0.08498 0.0
H246 H 0.61945 0.78189 0.09555 0.0
H247 H 0.61591 0.82504 0.0766 0.0
H248 H 0.59477 0.79933 0.14317 0.0
H249 H 0.66802 0.89918 0.31196 0.0
H250 H 0.66067 0.95294 0.26783 0.0
H251 H 0.65251 0.9014 0.09911 0.0
C252 C 0.66506 0.77956 0.19863 0.0
C253 C 0.66851 0.7649 0.25273 0.0
C254 C 0.67187 0.787 0.30299 0.0
C255 C 0.67124 0.8228 0.29965 0.0
C256 C 0.66737 0.83616 0.24573 0.0
C257 C 0.66454 0.81536 0.19608 0.0
C258 C 0.65989 0.83586 0.14361 0.0
C259 C 0.69529 0.84915 0.10244 0.0
C260 C 0.62014 0.80892 0.11295 0.0
C261 C 0.66016 0.87127 0.17159 0.0
C262 C 0.66455 0.87085 0.23051 0.0
C263 C 0.6648 0.89995 0.26585 0.0
C264 C 0.66051 0.93033 0.24031 0.0
C265 C 0.65608 0.93148 0.17997 0.0
C266 C 0.65603 0.9015 0.1453 0.0
H267 H 0.87548 0.61526 0.39181 0.0
H268 H 0.97755 0.7286 0.34379 0.0
H269 H 0.9329 0.748 0.29638 0.0
H270 H 0.82235 0.59973 0.26203 0.0
H271 H 0.77396 0.57758 0.29521 0.0
H272 H 0.81344 0.5735 0.32928 0.0
H273 H 0.80468 0.60511 0.42226 0.0
H274 H 0.76485 0.6089 0.38869 0.0
H275 H 0.8069 0.65262 0.41845 0.0
H276 H 0.87773 0.75385 0.25003 0.0
H277 H 0.81539 0.74672 0.21087 0.0
H278 H 0.74917 0.62923 0.28783 0.0
C279 C 0.8884 0.64445 0.37224 0.0
C280 C 0.93004 0.67048 0.37176 0.0
C281 C 0.94576 0.70817 0.34483 0.0
C282 C 0.92065 0.71947 0.31773 0.0
C283 C 0.87986 0.69276 0.31785 0.0
C284 C 0.86377 0.65614 0.34468 0.0
C285 C 0.81903 0.63245 0.33678 0.0
C286 C 0.80648 0.59352 0.30386 0.0
C287 C 0.79761 0.62431 0.39501 0.0
C288 C 0.81257 0.66136 0.30094 0.0
C289 C 0.84804 0.696 0.29065 0.0
C290 C 0.84972 0.72694 0.25804 0.0
C291 C 0.81414 0.72255 0.23582 0.0
C292 C 0.77734 0.68742 0.24617 0.0
C293 C 0.77677 0.65643 0.27901 0.0
H294 H 0.14634 0.75326 0.55209 0.0
H295 H 0.14442 0.77323 0.36867 0.0
H296 H 0.20544 0.83854 0.37855 0.0
H297 H 0.1803 0.85345 0.59686 0.0
H298 H 0.21189 0.853 0.65335 0.0
H299 H 0.1683 0.80736 0.6321 0.0
H300 H 0.21169 0.77508 0.61275 0.0
H301 H 0.2554 0.82056 0.63422 0.0
H302 H 0.25355 0.79924 0.56464 0.0
H303 H 0.2653 0.90223 0.40825 0.0
H304 H 0.32218 0.95922 0.45508 0.0
H305 H 0.28639 0.89795 0.61931 0.0
C306 C 0.15882 0.77128 0.51394 0.0
C307 C 0.1405 0.75808 0.45958 0.0
C308 C 0.15788 0.78259 0.41075 0.0
C309 C 0.19252 0.81981 0.41592 0.0
C310 C 0.20959 0.83205 0.47013 0.0
C311 C 0.19355 0.80847 0.51825 0.0
C312 C 0.21799 0.82872 0.57144 0.0
C313 C 0.19313 0.83607 0.61606 0.0
C314 C 0.23571 0.80445 0.59727 0.0
C315 C 0.25008 0.86748 0.5457 0.0
C316 C 0.24456 0.86875 0.48722 0.0
C317 C 0.27004 0.90154 0.45398 0.0
C318 C 0.30225 0.93383 0.4811 0.0
C319 C 0.30887 0.93313 0.54094 0.0
C320 C 0.28224 0.89944 0.57354 0.0
H321 H 0.42382 0.28851 0.74205 0.0
H322 H 0.3467 0.30279 0.62077 0.0
H323 H 0.33527 0.24239 0.56958 0.0
H324 H 0.46975 0.25578 0.63904 0.0
H325 H 0.47234 0.22041 0.68653 0.0
H326 H 0.4733 0.26392 0.71564 0.0
H327 H 0.41273 0.21914 0.78011 0.0
H328 H 0.41164 0.17548 0.75126 0.0
H329 H 0.36783 0.18029 0.74763 0.0
H330 H 0.33255 0.18117 0.53054 0.0
H331 H 0.33998 0.12354 0.50484 0.0
H332 H 0.42003 0.1492 0.64955 0.0
C333 C 0.40427 0.27874 0.70502 0.0
C334 C 0.38608 0.3004 0.68559 0.0
C335 C 0.36103 0.2868 0.63654 0.0
C336 C 0.35426 0.25244 0.60715 0.0
C337 C 0.37283 0.23197 0.62711 0.0
C338 C 0.39738 0.24455 0.67479 0.0
C339 C 0.41454 0.21758 0.68606 0.0
C340 C 0.46019 0.24082 0.68153 0.0
C341 C 0.40086 0.1969 0.74475 0.0
C342 C 0.39593 0.18809 0.63708 0.0
C343 C 0.37178 0.19684 0.60387 0.0
C344 C 0.35135 0.17396 0.55623 0.0
C345 C 0.35576 0.14125 0.542 0.0
C346 C 0.38061 0.13181 0.57507 0.0
C347 C 0.40088 0.15565 0.62329 0.0
H348 H 0.13639 0.42871 0.77214 0.0
H349 H 0.10019 0.37075 0.93854 0.0
H350 H 0.15799 0.36034 0.93846 0.0
H351 H 0.16857 0.36492 0.71321 0.0
H352 H 0.21025 0.40402 0.67515 0.0
H353 H 0.16689 0.40826 0.68916 0.0
H354 H 0.21071 0.47596 0.74004 0.0
H355 H 0.25426 0.47207 0.72581 0.0
H356 H 0.24269 0.47899 0.79843 0.0
H357 H 0.21893 0.35485 0.91907 0.0
H358 H 0.27951 0.35634 0.8831 0.0
H359 H 0.27533 0.41742 0.72906 0.0
C360 C 0.14072 0.41409 0.80882 0.0
C361 C 0.11373 0.40058 0.85539 0.0
C362 C 0.12047 0.38144 0.90241 0.0
C363 C 0.15319 0.37533 0.90273 0.0
C364 C 0.1789 0.38857 0.85578 0.0
C365 C 0.17315 0.40773 0.80983 0.0
C366 C 0.20491 0.41869 0.76442 0.0
C367 C 0.18655 0.39771 0.70711 0.0
C368 C 0.22961 0.46413 0.75675 0.0
C369 C 0.22927 0.40244 0.79179 0.0
C370 C 0.21384 0.38525 0.84451 0.0
C371 C 0.23132 0.36829 0.87789 0.0
C372 C 0.2657 0.36923 0.85702 0.0
C373 C 0.28217 0.38693 0.80322 0.0
C374 C 0.26344 0.40352 0.77023 0.0
H375 H 0.8858 0.26985 0.92183 0.0
H376 H 0.9736 0.28089 0.04745 0.0
H377 H 0.924 0.21773 0.092 0.0
H378 H 0.80362 0.23109 0.01833 0.0
H379 H 0.76793 0.19732 0.9669 0.0
H380 H 0.81081 0.24248 0.94264 0.0
H381 H 0.83047 0.20154 0.87603 0.0
H382 H 0.78752 0.15625 0.89991 0.0
H383 H 0.83641 0.16196 0.90608 0.0
H384 H 0.86478 0.15467 0.12494 0.0
H385 H 0.79952 0.09526 0.14377 0.0
H386 H 0.74957 0.12511 0.99775 0.0
C387 C 0.8947 0.25876 0.95831 0.0
C388 C 0.93365 0.28031 0.98104 0.0
C389 C 0.94397 0.26496 0.02923 0.0
C390 C 0.91601 0.22906 0.05487 0.0
C391 C 0.87779 0.20882 0.0319 0.0
C392 C 0.86705 0.22298 0.98468 0.0
C393 C 0.82361 0.19586 0.9696 0.0
C394 C 0.80012 0.21802 0.97469 0.0
C395 C 0.81927 0.17783 0.90933 0.0
C396 C 0.81164 0.16445 0.01597 0.0
C397 C 0.84341 0.17245 0.05128 0.0
C398 C 0.83967 0.14798 0.09749 0.0
C399 C 0.80245 0.11431 0.10786 0.0
C400 C 0.76939 0.10547 0.07229 0.0
C401 C 0.77422 0.131 0.02576 0.0
loop_
_geom_bond_atom_site_label_1
_geom_bond_atom_site_label_2
_geom_bond_distance
_geom_bond_site_symmetry_2
_ccdc_geom_bond_type
C0 O1 1.160 . S
C0 O7 1.185 . S
O1 C0 1.160 . S
O2 Zn3 1.899 . S
O2 C10 1.284 . S
Zn3 O2 1.899 . S
Zn3 O4 2.032 . S
Zn3 O7 2.086 1_545 S
Zn3 O12 1.982 1_544 S
O4 Zn3 2.032 . S
O4 C8 1.278 . S
C5 O6 1.203 . S
C5 O12 1.237 1_545 S
O6 C5 1.203 . S
O7 C0 1.185 . S
O7 Zn3 2.086 1_565 S
C8 O4 1.278 . S
C8 O9 1.211 . S
O9 C8 1.211 . S
C10 O2 1.284 . S
C10 O11 1.273 . S
O11 C10 1.273 . S
O12 Zn3 1.982 1_566 S
O12 C5 1.237 1_565 S
C13 O14 1.160 . S
C13 O20 1.185 . S
O14 C13 1.160 . S
O15 Zn16 1.899 . S
O15 C23 1.284 . S
Zn16 O15 1.899 . S
Zn16 O17 2.032 . S
Zn16 O20 2.086 . S
Zn16 O25 1.977 . S
O17 Zn16 2.032 . S
O17 C21 1.278 . S
C18 O19 1.203 . S
C18 O25 1.267 . S
O19 C18 1.203 . S
O20 C13 1.185 . S
O20 Zn16 2.086 . S
C21 O17 1.278 . S
C21 O22 1.211 . S
O22 C21 1.211 . S
C23 O15 1.284 . S
C23 O24 1.273 . S
O24 C23 1.273 . S
O25 Zn16 1.977 . S
O25 C18 1.267 . S
C26 O27 1.160 . S
C26 O33 1.185 . S
O27 C26 1.160 . S
O28 Zn29 1.899 . S
O28 C36 1.284 1_455 S
Zn29 O28 1.899 . S
Zn29 O30 2.032 . S
Zn29 O33 2.086 . S
Zn29 O38 1.977 . S
O30 Zn29 2.032 . S
O30 C34 1.278 . S
C31 O32 1.203 1_455 S
C31 O38 1.267 . S
O32 C31 1.203 1_655 S
O33 C26 1.185 . S
O33 Zn29 2.086 . S
C34 O30 1.278 . S
C34 O35 1.211 . S
O35 C34 1.211 . S
C36 O28 1.284 1_655 S
C36 O37 1.273 . S
O37 C36 1.273 . S
O38 Zn29 1.977 . S
O38 C31 1.267 . S
C39 O40 1.160 . S
C39 O46 1.185 . S
O40 C39 1.160 . S
O41 Zn42 1.899 . S
O41 C49 1.284 1_545 S
Zn42 O41 1.899 . S
Zn42 O43 2.032 . S
Zn42 O46 2.086 . S
Zn42 O51 1.977 . S
O43 Zn42 2.032 . S
O43 C47 1.278 . S
C44 O45 1.203 1_545 S
C44 O51 1.267 . S
O45 C44 1.203 1_565 S
O46 C39 1.185 . S
O46 Zn42 2.086 . S
C47 O43 1.278 . S
C47 O48 1.211 . S
O48 C47 1.211 . S
C49 O41 1.284 1_565 S
C49 O50 1.273 . S
O50 C49 1.273 . S
O51 Zn42 1.977 . S
O51 C44 1.267 . S
C52 O53 1.160 . S
C52 O59 1.185 . S
O53 C52 1.160 . S
O54 Zn55 1.899 . S
O54 C62 1.284 . S
Zn55 O54 1.899 . S
Zn55 O56 2.032 . S
Zn55 O59 2.086 . S
Zn55 O64 1.977 . S
O56 Zn55 2.032 . S
O56 C60 1.278 . S
C57 O58 1.203 . S
C57 O64 1.267 . S
O58 C57 1.203 . S
O59 C52 1.185 . S
O59 Zn55 2.086 . S
C60 O56 1.278 . S
C60 O61 1.211 . S
O61 C60 1.211 . S
C62 O54 1.284 . S
C62 O63 1.273 . S
O63 C62 1.273 . S
O64 Zn55 1.977 . S
O64 C57 1.267 . S
C65 O66 1.160 . S
C65 O72 1.185 . S
O66 C65 1.160 . S
O67 Zn68 1.899 . S
O67 C75 1.284 . S
Zn68 O67 1.899 . S
Zn68 O69 2.032 . S
Zn68 O72 2.086 1_455 S
Zn68 O77 1.977 1_455 S
O69 Zn68 2.032 . S
O69 C73 1.278 . S
C70 O71 1.203 . S
C70 O77 1.267 1_455 S
O71 C70 1.203 . S
O72 C65 1.185 . S
O72 Zn68 2.086 1_655 S
C73 O69 1.278 . S
C73 O74 1.211 . S
O74 C73 1.211 . S
C75 O67 1.284 . S
C75 O76 1.273 . S
O76 C75 1.273 . S
O77 Zn68 1.977 1_655 S
O77 C70 1.267 1_655 S
H78 C90 0.930 . S
H79 C92 0.930 . S
H80 C93 0.930 . S
H81 C97 0.959 . S
H82 C97 0.959 . S
H83 C97 0.961 . S
H84 C98 0.960 . S
H85 C98 0.961 . S
H86 C98 0.959 . S
H87 C101 0.929 . S
H88 C102 0.940 . S
H89 C104 0.930 . S
C90 H78 0.930 . S
C90 C91 1.399 . S
C90 C95 1.399 . S
C91 C90 1.399 . S
C91 C92 1.376 1_545 S
C92 H79 0.930 . S
C92 C91 1.376 1_565 S
C92 C93 1.388 . S
C93 H80 0.930 . S
C93 C92 1.388 . S
C93 C94 1.390 1_565 S
C94 C93 1.390 1_545 S
C94 C95 1.394 . S
C94 C100 1.465 . S
C95 C90 1.399 . S
C95 C94 1.394 . S
C95 C96 1.516 . S
C96 C95 1.516 . S
C96 C97 1.502 . S
C96 C98 1.561 . S
C96 C99 1.526 . S
C97 H81 0.959 . S
C97 H82 0.959 . S
C97 H83 0.961 . S
C97 C96 1.502 . S
C98 H84 0.960 . S
C98 H85 0.961 . S
C98 H86 0.959 . S
C98 C96 1.561 . S
C99 C96 1.526 . S
C99 C100 1.396 . S
C99 C104 1.390 . S
C100 C94 1.465 . S
C100 C99 1.396 . S
C100 C101 1.399 1_545 S
C101 H87 0.929 . S
C101 C100 1.399 1_565 S
C101 C102 1.401 . S
C102 H88 0.940 . S
C102 C101 1.401 . S
C102 C103 1.365 1_565 S
C103 C102 1.365 1_545 S
C103 C104 1.387 . S
C104 H89 0.930 . S
C104 C99 1.390 . S
C104 C103 1.387 . S
H105 C117 0.930 . S
H106 C119 0.930 . S
H107 C120 0.930 . S
H108 C124 0.959 . S
H109 C124 0.959 . S
H110 C124 0.961 . S
H111 C125 0.960 . S
H112 C125 0.961 . S
H113 C125 0.959 . S
H114 C128 0.929 . S
H115 C129 0.931 . S
H116 C131 0.930 . S
C117 H105 0.930 . S
C117 C118 1.399 . S
C117 C122 1.399 . S
C118 C117 1.399 . S
C118 C119 1.376 . S
C119 H106 0.930 . S
C119 C118 1.376 . S
C119 C120 1.388 . S
C120 H107 0.930 . S
C120 C119 1.388 . S
C120 C121 1.390 . S
C121 C120 1.390 . S
C121 C122 1.394 . S
C121 C127 1.465 . S
C122 C117 1.399 . S
C122 C121 1.394 . S
C122 C123 1.516 . S
C123 C122 1.516 . S
C123 C124 1.502 . S
C123 C125 1.561 . S
C123 C126 1.526 . S
C124 H108 0.959 . S
C124 H109 0.959 . S
C124 H110 0.961 . S
C124 C123 1.502 . S
C125 H111 0.960 . S
C125 H112 0.961 . S
C125 H113 0.959 . S
C125 C123 1.561 . S
C126 C123 1.526 . S
C126 C127 1.396 . S
C126 C131 1.390 . S
C127 C121 1.465 . S
C127 C126 1.396 . S
C127 C128 1.399 . S
C128 H114 0.929 . S
C128 C127 1.399 . S
C128 C129 1.385 . S
C129 H115 0.931 . S
C129 C128 1.385 . S
C129 C130 1.389 . S
C130 C129 1.389 . S
C130 C131 1.387 . S
C131 H116 0.930 . S
C131 C126 1.390 . S
C131 C130 1.387 . S
H132 C144 0.930 1_655 S
H133 C146 0.930 . S
H134 C147 0.930 . S
H135 C151 0.959 . S
H136 C151 0.959 . S
H137 C151 0.961 . S
H138 C152 0.960 . S
H139 C152 0.961 . S
H140 C152 0.959 . S
H141 C155 0.929 . S
H142 C156 0.931 . S
H143 C158 0.930 . S
C144 H132 0.930 1_455 S
C144 C145 1.399 . S
C144 C149 1.399 . S
C145 C144 1.399 . S
C145 C146 1.376 . S
C146 H133 0.930 . S
C146 C145 1.376 . S
C146 C147 1.388 . S
C147 H134 0.930 . S
C147 C146 1.388 . S
C147 C148 1.390 . S
C148 C147 1.390 . S
C148 C149 1.394 . S
C148 C154 1.465 . S
C149 C144 1.399 . S
C149 C148 1.394 . S
C149 C150 1.516 . S
C150 C149 1.516 . S
C150 C151 1.502 1_455 S
C150 C152 1.561 . S
C150 C153 1.526 . S
C151 H135 0.959 . S
C151 H136 0.959 . S
C151 H137 0.961 . S
C151 C150 1.502 1_655 S
C152 H138 0.960 . S
C152 H139 0.961 . S
C152 H140 0.959 . S
C152 C150 1.561 . S
C153 C150 1.526 . S
C153 C154 1.396 . S
C153 C158 1.390 . S
C154 C148 1.465 . S
C154 C153 1.396 . S
C154 C155 1.399 . S
C155 H141 0.929 . S
C155 C154 1.399 . S
C155 C156 1.385 . S
C156 H142 0.931 . S
C156 C155 1.385 . S
C156 C157 1.389 . S
C157 C156 1.389 . S
C157 C158 1.387 . S
C158 H143 0.930 . S
C158 C153 1.390 . S
C158 C157 1.387 . S
H159 C171 0.930 . S
H160 C173 0.930 . S
H161 C174 0.930 . S
H162 C178 0.959 . S
H163 C178 0.959 . S
H164 C178 0.961 . S
H165 C179 0.960 . S
H166 C179 0.961 . S
H167 C179 0.959 . S
H168 C182 0.929 . S
H169 C183 0.931 . S
H170 C185 0.930 . S
C171 H159 0.930 . S
C171 C172 1.399 . S
C171 C176 1.399 . S
C172 C171 1.399 . S
C172 C173 1.376 1_545 S
C173 H160 0.930 . S
C173 C172 1.376 1_565 S
C173 C174 1.388 . S
C174 H161 0.930 . S
C174 C173 1.388 . S
C174 C175 1.390 1_565 S
C175 C174 1.390 1_545 S
C175 C176 1.394 . S
C175 C181 1.465 . S
C176 C171 1.399 . S
C176 C175 1.394 . S
C176 C177 1.516 . S
C177 C176 1.516 . S
C177 C178 1.502 . S
C177 C179 1.561 . S
C177 C180 1.526 . S
C178 H162 0.959 . S
C178 H163 0.959 . S
C178 H164 0.961 . S
C178 C177 1.502 . S
C179 H165 0.960 . S
C179 H166 0.961 . S
C179 H167 0.959 . S
C179 C177 1.561 . S
C180 C177 1.526 . S
C180 C181 1.396 . S
C180 C185 1.390 . S
C181 C175 1.465 . S
C181 C180 1.396 . S
C181 C182 1.399 1_545 S
C182 H168 0.929 . S
C182 C181 1.399 1_565 S
C182 C183 1.385 . S
C183 H169 0.931 . S
C183 C182 1.385 . S
C183 C184 1.389 1_565 S
C184 C183 1.389 1_545 S
C184 C185 1.387 . S
C185 H170 0.930 . S
C185 C180 1.390 . S
C185 C184 1.387 . S
H186 C198 0.930 . S
H187 C200 0.930 . S
H188 C201 0.930 . S
H189 C205 0.959 . S
H190 C205 0.959 . S
H191 C205 0.961 . S
H192 C206 0.960 . S
H193 C206 0.961 . S
H194 C206 0.959 . S
H195 C209 0.929 . S
H196 C210 0.931 . S
H197 C212 0.930 . S
C198 H186 0.930 . S
C198 C199 1.399 . S
C198 C203 1.399 . S
C199 C198 1.399 . S
C199 C200 1.376 . S
C200 H187 0.930 . S
C200 C199 1.376 . S
C200 C201 1.388 . S
C201 H188 0.930 . S
C201 C200 1.388 . S
C201 C202 1.390 . S
C202 C201 1.390 . S
C202 C203 1.394 . S
C202 C208 1.465 1_554 S
C203 C198 1.399 . S
C203 C202 1.394 . S
C203 C204 1.516 1_554 S
C204 C203 1.516 1_556 S
C204 C205 1.502 . S
C204 C206 1.561 1_556 S
C204 C207 1.526 . S
C205 H189 0.959 . S
C205 H190 0.959 . S
C205 H191 0.961 . S
C205 C204 1.502 . S
C206 H192 0.960 . S
C206 H193 0.961 . S
C206 H194 0.959 . S
C206 C204 1.561 1_554 S
C207 C204 1.526 . S
C207 C208 1.396 . S
C207 C212 1.390 . S
C208 C202 1.465 1_556 S
C208 C207 1.396 . S
C208 C209 1.399 . S
C209 H195 0.929 . S
C209 C208 1.399 . S
C209 C210 1.385 . S
C210 H196 0.931 . S
C210 C209 1.385 . S
C210 C211 1.389 . S
C211 C210 1.389 . S
C211 C212 1.387 . S
C212 H197 0.930 . S
C212 C207 1.390 . S
C212 C211 1.387 . S
H213 C225 0.930 . S
H214 C227 0.930 . S
H215 C228 0.930 . S
H216 C232 0.959 . S
H217 C232 0.959 . S
H218 C232 0.961 . S
H219 C233 0.960 . S
H220 C233 0.961 . S
H221 C233 0.959 . S
H222 C236 0.929 . S
H223 C237 0.931 . S
H224 C239 0.930 . S
C225 H213 0.930 . S
C225 C226 1.399 . S
C225 C230 1.399 . S
C226 C225 1.399 . S
C226 C227 1.376 1_455 S
C227 H214 0.930 . S
C227 C226 1.376 1_655 S
C227 C228 1.388 . S
C228 H215 0.930 . S
C228 C227 1.388 . S
C228 C229 1.390 1_655 S
C229 C228 1.390 1_455 S
C229 C230 1.394 . S
C229 C235 1.465 . S
C230 C225 1.399 . S
C230 C229 1.394 . S
C230 C231 1.516 . S
C231 C230 1.516 . S
C231 C232 1.502 . S
C231 C233 1.561 . S
C231 C234 1.526 . S
C232 H216 0.959 . S
C232 H217 0.959 . S
C232 H218 0.961 . S
C232 C231 1.502 . S
C233 H219 0.960 . S
C233 H220 0.961 . S
C233 H221 0.959 . S
C233 C231 1.561 . S
C234 C231 1.526 . S
C234 C235 1.396 . S
C234 C239 1.390 . S
C235 C229 1.465 . S
C235 C234 1.396 . S
C235 C236 1.399 1_455 S
C236 H222 0.929 . S
C236 C235 1.399 1_655 S
C236 C237 1.385 . S
C237 H223 0.931 . S
C237 C236 1.385 . S
C237 C238 1.389 1_655 S
C238 C237 1.389 1_455 S
C238 C239 1.387 . S
C239 H224 0.930 . S
C239 C234 1.390 . S
C239 C238 1.387 . S
H240 C252 0.930 . S
H241 C254 0.930 . S
H242 C255 0.930 . S
H243 C259 0.959 . S
H244 C259 0.959 . S
H245 C259 0.961 . S
H246 C260 0.960 . S
H247 C260 0.961 . S
H248 C260 0.959 . S
H249 C263 0.929 . S
H250 C264 0.931 . S
H251 C266 0.930 . S
C252 H240 0.930 . S
C252 C253 1.399 . S
C252 C257 1.399 . S
C253 C252 1.399 . S
C253 C254 1.376 . S
C254 H241 0.930 . S
C254 C253 1.376 . S
C254 C255 1.388 . S
C255 H242 0.930 . S
C255 C254 1.388 . S
C255 C256 1.390 . S
C256 C255 1.390 . S
C256 C257 1.394 . S
C256 C262 1.465 . S
C257 C252 1.399 . S
C257 C256 1.394 . S
C257 C258 1.516 . S
C258 C257 1.516 . S
C258 C259 1.502 . S
C258 C260 1.561 . S
C258 C261 1.526 . S
C259 H243 0.959 . S
C259 H244 0.959 . S
C259 H245 0.961 . S
C259 C258 1.502 . S
C260 H246 0.960 . S
C260 H247 0.961 . S
C260 H248 0.959 . S
C260 C258 1.561 . S
C261 C258 1.526 . S
C261 C262 1.396 . S
C261 C266 1.390 . S
C262 C256 1.465 . S
C262 C261 1.396 . S
C262 C263 1.399 . S
C263 H249 0.929 . S
C263 C262 1.399 . S
C263 C264 1.385 . S
C264 H250 0.931 . S
C264 C263 1.385 . S
C264 C265 1.389 . S
C265 C264 1.389 . S
C265 C266 1.387 . S
C266 H251 0.930 . S
C266 C261 1.390 . S
C266 C265 1.387 . S
H267 C279 0.930 . S
H268 C281 0.930 . S
H269 C282 0.930 . S
H270 C286 0.959 . S
H271 C286 0.959 . S
H272 C286 0.961 . S
H273 C287 0.960 . S
H274 C287 0.961 . S
H275 C287 0.959 . S
H276 C290 0.929 . S
H277 C291 0.931 . S
H278 C293 0.930 . S
C279 H267 0.930 . S
C279 C280 1.399 . S
C279 C284 1.399 . S
C280 C279 1.399 . S
C280 C281 1.376 . S
C281 H268 0.930 . S
C281 C280 1.376 . S
C281 C282 1.388 . S
C282 H269 0.930 . S
C282 C281 1.388 . S
C282 C283 1.390 . S
C283 C282 1.390 . S
C283 C284 1.394 . S
C283 C289 1.465 . S
C284 C279 1.399 . S
C284 C283 1.394 . S
C284 C285 1.516 . S
C285 C284 1.516 . S
C285 C286 1.502 . S
C285 C287 1.561 . S
C285 C288 1.526 . S
C286 H270 0.959 . S
C286 H271 0.959 . S
C286 H272 0.961 . S
C286 C285 1.502 . S
C287 H273 0.960 . S
C287 H274 0.961 . S
C287 H275 0.959 . S
C287 C285 1.561 . S
C288 C285 1.526 . S
C288 C289 1.396 . S
C288 C293 1.390 . S
C289 C283 1.465 . S
C289 C288 1.396 . S
C289 C290 1.399 . S
C290 H276 0.929 . S
C290 C289 1.399 . S
C290 C291 1.385 . S
C291 H277 0.931 . S
C291 C290 1.385 . S
C291 C292 1.389 . S
C292 C291 1.389 . S
C292 C293 1.387 . S
C293 H278 0.930 . S
C293 C288 1.390 . S
C293 C292 1.387 . S
H294 C306 0.930 . S
H295 C308 0.930 . S
H296 C309 0.930 . S
H297 C313 0.959 . S
H298 C313 0.959 . S
H299 C313 0.961 . S
H300 C314 0.960 . S
H301 C314 0.961 . S
H302 C314 0.959 . S
H303 C317 0.929 . S
H304 C318 0.931 . S
H305 C320 0.930 . S
C306 H294 0.930 . S
C306 C307 1.399 . S
C306 C311 1.399 . S
C307 C306 1.399 . S
C307 C308 1.376 . S
C308 H295 0.930 . S
C308 C307 1.376 . S
C308 C309 1.388 . S
C309 H296 0.930 . S
C309 C308 1.388 . S
C309 C310 1.390 . S
C310 C309 1.390 . S
C310 C311 1.394 . S
C310 C316 1.465 . S
C311 C306 1.399 . S
C311 C310 1.394 . S
C311 C312 1.516 . S
C312 C311 1.516 . S
C312 C313 1.502 . S
C312 C314 1.561 . S
C312 C315 1.526 . S
C313 H297 0.959 . S
C313 H298 0.959 . S
C313 H299 0.961 . S
C313 C312 1.502 . S
C314 H300 0.960 . S
C314 H301 0.961 . S
C314 H302 0.959 . S
C314 C312 1.561 . S
C315 C312 1.526 . S
C315 C316 1.396 . S
C315 C320 1.390 . S
C316 C310 1.465 . S
C316 C315 1.396 . S
C316 C317 1.399 . S
C317 H303 0.929 . S
C317 C316 1.399 . S
C317 C318 1.385 . S
C318 H304 0.931 . S
C318 C317 1.385 . S
C318 C319 1.389 . S
C319 C318 1.389 . S
C319 C320 1.387 . S
C320 H305 0.930 . S
C320 C315 1.390 . S
C320 C319 1.387 . S
H321 C333 0.930 . S
H322 C335 0.930 . S
H323 C336 0.930 . S
H324 C340 0.959 . S
H325 C340 0.959 . S
H326 C340 0.961 . S
H327 C341 0.960 . S
H328 C341 0.961 . S
H329 C341 0.959 . S
H330 C344 0.929 . S
H331 C345 0.931 . S
H332 C347 0.930 . S
C333 H321 0.930 . S
C333 C334 1.399 . S
C333 C338 1.399 . S
C334 C333 1.399 . S
C334 C335 1.376 . S
C335 H322 0.930 . S
C335 C334 1.376 . S
C335 C336 1.388 . S
C336 H323 0.930 . S
C336 C335 1.388 . S
C336 C337 1.390 . S
C337 C336 1.390 . S
C337 C338 1.394 . S
C337 C343 1.465 . S
C338 C333 1.399 . S
C338 C337 1.394 . S
C338 C339 1.516 . S
C339 C338 1.516 . S
C339 C340 1.502 . S
C339 C341 1.561 . S
C339 C342 1.526 . S
C340 H324 0.959 . S
C340 H325 0.959 . S
C340 H326 0.961 . S
C340 C339 1.502 . S
C341 H327 0.960 . S
C341 H328 0.961 . S
C341 H329 0.959 . S
C341 C339 1.561 . S
C342 C339 1.526 . S
C342 C343 1.396 . S
C342 C347 1.390 . S
C343 C337 1.465 . S
C343 C342 1.396 . S
C343 C344 1.399 . S
C344 H330 0.929 . S
C344 C343 1.399 . S
C344 C345 1.385 . S
C345 H331 0.931 . S
C345 C344 1.385 . S
C345 C346 1.389 . S
C346 C345 1.389 . S
C346 C347 1.387 . S
C347 H332 0.930 . S
C347 C342 1.390 . S
C347 C346 1.387 . S
H348 C360 0.930 . S
H349 C362 0.930 . S
H350 C363 0.930 . S
H351 C367 0.959 . S
H352 C367 0.959 . S
H353 C367 0.961 . S
H354 C368 0.960 . S
H355 C368 0.961 . S
H356 C368 0.959 . S
H357 C371 0.929 . S
H358 C372 0.931 . S
H359 C374 0.930 . S
C360 H348 0.930 . S
C360 C361 1.399 . S
C360 C365 1.399 . S
C361 C360 1.399 . S
C361 C362 1.376 . S
C362 H349 0.930 . S
C362 C361 1.376 . S
C362 C363 1.388 . S
C363 H350 0.930 . S
C363 C362 1.388 . S
C363 C364 1.390 . S
C364 C363 1.390 . S
C364 C365 1.394 . S
C364 C370 1.465 . S
C365 C360 1.399 . S
C365 C364 1.394 . S
C365 C366 1.516 . S
C366 C365 1.516 . S
C366 C367 1.502 . S
C366 C368 1.561 . S
C366 C369 1.526 . S
C367 H351 0.959 . S
C367 H352 0.959 . S
C367 H353 0.961 . S
C367 C366 1.502 . S
C368 H354 0.960 . S
C368 H355 0.961 . S
C368 H356 0.959 . S
C368 C366 1.561 . S
C369 C366 1.526 . S
C369 C370 1.396 . S
C369 C374 1.390 . S
C370 C364 1.465 . S
C370 C369 1.396 . S
C370 C371 1.399 . S
C371 H357 0.929 . S
C371 C370 1.399 . S
C371 C372 1.385 . S
C372 H358 0.931 . S
C372 C371 1.385 . S
C372 C373 1.389 . S
C373 C372 1.389 . S
C373 C374 1.387 . S
C374 H359 0.930 . S
C374 C369 1.390 . S
C374 C373 1.387 . S
H375 C387 0.930 . S
H376 C389 0.930 1_554 S
H377 C390 0.930 . S
H378 C394 0.959 . S
H379 C394 0.959 . S
H380 C394 0.961 . S
H381 C395 0.960 . S
H382 C395 0.961 . S
H383 C395 0.959 . S
H384 C398 0.929 . S
H385 C399 0.931 . S
H386 C401 0.930 . S
C387 H375 0.930 . S
C387 C388 1.399 . S
C387 C392 1.399 . S
C388 C387 1.399 . S
C388 C389 1.376 . S
C389 H376 0.930 1_556 S
C389 C388 1.376 . S
C389 C390 1.388 1_556 S
C390 H377 0.930 . S
C390 C389 1.388 1_554 S
C390 C391 1.390 1_554 S
C391 C390 1.390 1_556 S
C391 C392 1.394 . S
C391 C397 1.465 1_556 S
C392 C387 1.399 . S
C392 C391 1.394 . S
C392 C393 1.516 . S
C393 C392 1.516 . S
C393 C394 1.502 . S
C393 C395 1.561 . S
C393 C396 1.526 . S
C394 H378 0.959 . S
C394 H379 0.959 . S
C394 H380 0.961 . S
C394 C393 1.502 . S
C395 H381 0.960 . S
C395 H382 0.961 . S
C395 H383 0.959 . S
C395 C393 1.561 . S
C396 C393 1.526 . S
C396 C397 1.396 1_556 S
C396 C401 1.390 . S
C397 C391 1.465 1_554 S
C397 C396 1.396 1_554 S
C397 C398 1.399 . S
C398 H384 0.929 . S
C398 C397 1.399 . S
C398 C399 1.385 . S
C399 H385 0.931 . S
C399 C398 1.385 . S
C399 C400 1.389 . S
C400 C399 1.389 . S
C400 C401 1.387 1_554 S
C401 H386 0.930 . S
C401 C396 1.390 . S
C401 C400 1.387 1_556 S
C91 C8 1.349 . S
C103 C44 1.358 . S
C118 C21 1.353 . S
C130 C57 1.404 . S
C145 C70 1.362 . S
C157 C34 1.345 . S
C172 C5 1.402 . S
C184 C47 1.351 . S
C199 C18 1.350 . S
C211 C60 1.375 . S
C226 C73 1.384 1_554 S
C238 C31 1.353 . S
C253 C23 1.394 . S
C265 C0 1.403 . S
C280 C36 1.425 . S
C292 C13 1.383 . S
C307 C26 1.418 . S
C319 C49 1.408 . S
C334 C62 1.426 . S
C346 C39 1.388 . S
C361 C75 1.419 . S
C373 C52 1.379 . S
C388 C65 1.379 . S
C400 C10 1.417 . S
