# Generated by pormake.
# Topology gie, (4)-cn, num edge types: 1
# Building blocks:
#     Node 0, Type 0, BuildingBlock: CEKHIL_clean_sbu_0, # of connection points: 4
#     Node 1, Type 0, BuildingBlock: CEKHIL_clean_sbu_0, # of connection points: 4
#     Node 2, Type 0, BuildingBlock: CEKHIL_clean_sbu_0, # of connection points: 4
#     Node 3, Type 0, BuildingBlock: CEKHIL_clean_sbu_0, # of connection points: 4
#     Node 4, Type 0, BuildingBlock: CEKHIL_clean_sbu_0, # of connection points: 4
#     Node 5, Type 0, BuildingBlock: CEKHIL_clean_sbu_0, # of connection points: 4
#     Node 6, Type 0, BuildingBlock: CEKHIL_clean_sbu_0, # of connection points: 4
#     Node 7, Type 0, BuildingBlock: CEKHIL_clean_sbu_0, # of connection points: 4
#     Node 8, Type 0, BuildingBlock: CEKHIL_clean_sbu_0, # of connection points: 4
#     Node 9, Type 0, BuildingBlock: CEKHIL_clean_sbu_0, # of connection points: 4
#     Node 10, Type 0, BuildingBlock: CEKHIL_clean_sbu_0, # of connection points: 4
#     Node 11, Type 0, BuildingBlock: CEKHIL_clean_sbu_0, # of connection points: 4
#     Node 12, Type 0, BuildingBlock: CEKHIL_clean_sbu_0, # of connection points: 4
#     Node 13, Type 0, BuildingBlock: CEKHIL_clean_sbu_0, # of connection points: 4
#     Node 14, Type 0, BuildingBlock: CEKHIL_clean_sbu_0, # of connection points: 4
#     Node 15, Type 0, BuildingBlock: CEKHIL_clean_sbu_0, # of connection points: 4
#     Node 16, Type 0, BuildingBlock: CEKHIL_clean_sbu_0, # of connection points: 4
#     Node 17, Type 0, BuildingBlock: CEKHIL_clean_sbu_0, # of connection points: 4
#     Node 18, Type 0, BuildingBlock: CEKHIL_clean_sbu_0, # of connection points: 4
#     Node 19, Type 0, BuildingBlock: CEKHIL_clean_sbu_0, # of connection points: 4
#     Node 20, Type 0, BuildingBlock: CEKHIL_clean_sbu_0, # of connection points: 4
#     Node 21, Type 0, BuildingBlock: CEKHIL_clean_sbu_0, # of connection points: 4
#     Node 22, Type 0, BuildingBlock: CEKHIL_clean_sbu_0, # of connection points: 4
#     Node 23, Type 0, BuildingBlock: CEKHIL_clean_sbu_0, # of connection points: 4
#     Node 24, Type 0, BuildingBlock: CEKHIL_clean_sbu_0, # of connection points: 4
#     Node 25, Type 0, BuildingBlock: CEKHIL_clean_sbu_0, # of connection points: 4
#     Node 26, Type 0, BuildingBlock: CEKHIL_clean_sbu_0, # of connection points: 4
#     Node 27, Type 0, BuildingBlock: CEKHIL_clean_sbu_0, # of connection points: 4
#     Node 28, Type 0, BuildingBlock: CEKHIL_clean_sbu_0, # of connection points: 4
#     Node 29, Type 0, BuildingBlock: CEKHIL_clean_sbu_0, # of connection points: 4
#     Node 30, Type 0, BuildingBlock: CEKHIL_clean_sbu_0, # of connection points: 4
#     Node 31, Type 0, BuildingBlock: CEKHIL_clean_sbu_0, # of connection points: 4
#     Node 32, Type 0, BuildingBlock: CEKHIL_clean_sbu_0, # of connection points: 4
#     Node 33, Type 0, BuildingBlock: CEKHIL_clean_sbu_0, # of connection points: 4
#     Node 34, Type 0, BuildingBlock: CEKHIL_clean_sbu_0, # of connection points: 4
#     Node 35, Type 0, BuildingBlock: CEKHIL_clean_sbu_0, # of connection points: 4
#     Node 36, Type 0, BuildingBlock: CEKHIL_clean_sbu_0, # of connection points: 4
#     Node 37, Type 0, BuildingBlock: CEKHIL_clean_sbu_0, # of connection points: 4
#     Node 38, Type 0, BuildingBlock: CEKHIL_clean_sbu_0, # of connection points: 4
#     Node 39, Type 0, BuildingBlock: CEKHIL_clean_sbu_0, # of connection points: 4
#     Node 40, Type 0, BuildingBlock: CEKHIL_clean_sbu_0, # of connection points: 4
#     Node 41, Type 0, BuildingBlock: CEKHIL_clean_sbu_0, # of connection points: 4
#     Node 42, Type 0, BuildingBlock: CEKHIL_clean_sbu_0, # of connection points: 4
#     Node 43, Type 0, BuildingBlock: CEKHIL_clean_sbu_0, # of connection points: 4
#     Node 44, Type 0, BuildingBlock: CEKHIL_clean_sbu_0, # of connection points: 4
#     Node 45, Type 0, BuildingBlock: CEKHIL_clean_sbu_0, # of connection points: 4
#     Node 46, Type 0, BuildingBlock: CEKHIL_clean_sbu_0, # of connection points: 4
#     Node 47, Type 0, BuildingBlock: CEKHIL_clean_sbu_0, # of connection points: 4
#     Node 48, Type 0, BuildingBlock: CEKHIL_clean_sbu_0, # of connection points: 4
#     Node 49, Type 0, BuildingBlock: CEKHIL_clean_sbu_0, # of connection points: 4
#     Node 50, Type 0, BuildingBlock: CEKHIL_clean_sbu_0, # of connection points: 4
#     Node 51, Type 0, BuildingBlock: CEKHIL_clean_sbu_0, # of connection points: 4
#     Node 52, Type 0, BuildingBlock: CEKHIL_clean_sbu_0, # of connection points: 4
#     Node 53, Type 0, BuildingBlock: CEKHIL_clean_sbu_0, # of connection points: 4
#     Node 54, Type 0, BuildingBlock: CEKHIL_clean_sbu_0, # of connection points: 4
#     Node 55, Type 0, BuildingBlock: CEKHIL_clean_sbu_0, # of connection points: 4
#     Node 56, Type 0, BuildingBlock: CEKHIL_clean_sbu_0, # of connection points: 4
#     Node 57, Type 0, BuildingBlock: CEKHIL_clean_sbu_0, # of connection points: 4
#     Node 58, Type 0, BuildingBlock: CEKHIL_clean_sbu_0, # of connection points: 4
#     Node 59, Type 0, BuildingBlock: CEKHIL_clean_sbu_0, # of connection points: 4
#     Node 60, Type 0, BuildingBlock: CEKHIL_clean_sbu_0, # of connection points: 4
#     Node 61, Type 0, BuildingBlock: CEKHIL_clean_sbu_0, # of connection points: 4
#     Node 62, Type 0, BuildingBlock: CEKHIL_clean_sbu_0, # of connection points: 4
#     Node 63, Type 0, BuildingBlock: CEKHIL_clean_sbu_0, # of connection points: 4
#     Node 64, Type 0, BuildingBlock: CEKHIL_clean_sbu_0, # of connection points: 4
#     Node 65, Type 0, BuildingBlock: CEKHIL_clean_sbu_0, # of connection points: 4
#     Node 66, Type 0, BuildingBlock: CEKHIL_clean_sbu_0, # of connection points: 4
#     Node 67, Type 0, BuildingBlock: CEKHIL_clean_sbu_0, # of connection points: 4
#     Node 68, Type 0, BuildingBlock: CEKHIL_clean_sbu_0, # of connection points: 4
#     Node 69, Type 0, BuildingBlock: CEKHIL_clean_sbu_0, # of connection points: 4
#     Node 70, Type 0, BuildingBlock: CEKHIL_clean_sbu_0, # of connection points: 4
#     Node 71, Type 0, BuildingBlock: CEKHIL_clean_sbu_0, # of connection points: 4
#     Node 72, Type 0, BuildingBlock: CEKHIL_clean_sbu_0, # of connection points: 4
#     Node 73, Type 0, BuildingBlock: CEKHIL_clean_sbu_0, # of connection points: 4
#     Node 74, Type 0, BuildingBlock: CEKHIL_clean_sbu_0, # of connection points: 4
#     Node 75, Type 0, BuildingBlock: CEKHIL_clean_sbu_0, # of connection points: 4
#     Node 76, Type 0, BuildingBlock: CEKHIL_clean_sbu_0, # of connection points: 4
#     Node 77, Type 0, BuildingBlock: CEKHIL_clean_sbu_0, # of connection points: 4
#     Node 78, Type 0, BuildingBlock: CEKHIL_clean_sbu_0, # of connection points: 4
#     Node 79, Type 0, BuildingBlock: CEKHIL_clean_sbu_0, # of connection points: 4
#     Node 80, Type 0, BuildingBlock: CEKHIL_clean_sbu_0, # of connection points: 4
#     Node 81, Type 0, BuildingBlock: CEKHIL_clean_sbu_0, # of connection points: 4
#     Node 82, Type 0, BuildingBlock: CEKHIL_clean_sbu_0, # of connection points: 4
#     Node 83, Type 0, BuildingBlock: CEKHIL_clean_sbu_0, # of connection points: 4
#     Node 84, Type 0, BuildingBlock: CEKHIL_clean_sbu_0, # of connection points: 4
#     Node 85, Type 0, BuildingBlock: CEKHIL_clean_sbu_0, # of connection points: 4
#     Node 86, Type 0, BuildingBlock: CEKHIL_clean_sbu_0, # of connection points: 4
#     Node 87, Type 0, BuildingBlock: CEKHIL_clean_sbu_0, # of connection points: 4
#     Node 88, Type 0, BuildingBlock: CEKHIL_clean_sbu_0, # of connection points: 4
#     Node 89, Type 0, BuildingBlock: CEKHIL_clean_sbu_0, # of connection points: 4
#     Node 90, Type 0, BuildingBlock: CEKHIL_clean_sbu_0, # of connection points: 4
#     Node 91, Type 0, BuildingBlock: CEKHIL_clean_sbu_0, # of connection points: 4
#     Node 92, Type 0, BuildingBlock: CEKHIL_clean_sbu_0, # of connection points: 4
#     Node 93, Type 0, BuildingBlock: CEKHIL_clean_sbu_0, # of connection points: 4
#     Node 94, Type 0, BuildingBlock: CEKHIL_clean_sbu_0, # of connection points: 4
#     Node 95, Type 0, BuildingBlock: CEKHIL_clean_sbu_0, # of connection points: 4
#     Edge 96, Type (0, 0), BuildingBlock: OJICUG_clean_linker_0, # of connection points: 2
#     Edge 97, Type (0, 0), BuildingBlock: OJICUG_clean_linker_0, # of connection points: 2
#     Edge 98, Type (0, 0), BuildingBlock: OJICUG_clean_linker_0, # of connection points: 2
#     Edge 99, Type (0, 0), BuildingBlock: OJICUG_clean_linker_0, # of connection points: 2
#     Edge 100, Type (0, 0), BuildingBlock: OJICUG_clean_linker_0, # of connection points: 2
#     Edge 101, Type (0, 0), BuildingBlock: OJICUG_clean_linker_0, # of connection points: 2
#     Edge 102, Type (0, 0), BuildingBlock: OJICUG_clean_linker_0, # of connection points: 2
#     Edge 103, Type (0, 0), BuildingBlock: OJICUG_clean_linker_0, # of connection points: 2
#     Edge 104, Type (0, 0), BuildingBlock: OJICUG_clean_linker_0, # of connection points: 2
#     Edge 105, Type (0, 0), BuildingBlock: OJICUG_clean_linker_0, # of connection points: 2
#     Edge 106, Type (0, 0), BuildingBlock: OJICUG_clean_linker_0, # of connection points: 2
#     Edge 107, Type (0, 0), BuildingBlock: OJICUG_clean_linker_0, # of connection points: 2
#     Edge 108, Type (0, 0), BuildingBlock: OJICUG_clean_linker_0, # of connection points: 2
#     Edge 109, Type (0, 0), BuildingBlock: OJICUG_clean_linker_0, # of connection points: 2
#     Edge 110, Type (0, 0), BuildingBlock: OJICUG_clean_linker_0, # of connection points: 2
#     Edge 111, Type (0, 0), BuildingBlock: OJICUG_clean_linker_0, # of connection points: 2
#     Edge 112, Type (0, 0), BuildingBlock: OJICUG_clean_linker_0, # of connection points: 2
#     Edge 113, Type (0, 0), BuildingBlock: OJICUG_clean_linker_0, # of connection points: 2
#     Edge 114, Type (0, 0), BuildingBlock: OJICUG_clean_linker_0, # of connection points: 2
#     Edge 115, Type (0, 0), BuildingBlock: OJICUG_clean_linker_0, # of connection points: 2
#     Edge 116, Type (0, 0), BuildingBlock: OJICUG_clean_linker_0, # of connection points: 2
#     Edge 117, Type (0, 0), BuildingBlock: OJICUG_clean_linker_0, # of connection points: 2
#     Edge 118, Type (0, 0), BuildingBlock: OJICUG_clean_linker_0, # of connection points: 2
#     Edge 119, Type (0, 0), BuildingBlock: OJICUG_clean_linker_0, # of connection points: 2
#     Edge 120, Type (0, 0), BuildingBlock: OJICUG_clean_linker_0, # of connection points: 2
#     Edge 121, Type (0, 0), BuildingBlock: OJICUG_clean_linker_0, # of connection points: 2
#     Edge 122, Type (0, 0), BuildingBlock: OJICUG_clean_linker_0, # of connection points: 2
#     Edge 123, Type (0, 0), BuildingBlock: OJICUG_clean_linker_0, # of connection points: 2
#     Edge 124, Type (0, 0), BuildingBlock: OJICUG_clean_linker_0, # of connection points: 2
#     Edge 125, Type (0, 0), BuildingBlock: OJICUG_clean_linker_0, # of connection points: 2
#     Edge 126, Type (0, 0), BuildingBlock: OJICUG_clean_linker_0, # of connection points: 2
#     Edge 127, Type (0, 0), BuildingBlock: OJICUG_clean_linker_0, # of connection points: 2
#     Edge 128, Type (0, 0), BuildingBlock: OJICUG_clean_linker_0, # of connection points: 2
#     Edge 129, Type (0, 0), BuildingBlock: OJICUG_clean_linker_0, # of connection points: 2
#     Edge 130, Type (0, 0), BuildingBlock: OJICUG_clean_linker_0, # of connection points: 2
#     Edge 131, Type (0, 0), BuildingBlock: OJICUG_clean_linker_0, # of connection points: 2
#     Edge 132, Type (0, 0), BuildingBlock: OJICUG_clean_linker_0, # of connection points: 2
#     Edge 133, Type (0, 0), BuildingBlock: OJICUG_clean_linker_0, # of connection points: 2
#     Edge 134, Type (0, 0), BuildingBlock: OJICUG_clean_linker_0, # of connection points: 2
#     Edge 135, Type (0, 0), BuildingBlock: OJICUG_clean_linker_0, # of connection points: 2
#     Edge 136, Type (0, 0), BuildingBlock: OJICUG_clean_linker_0, # of connection points: 2
#     Edge 137, Type (0, 0), BuildingBlock: OJICUG_clean_linker_0, # of connection points: 2
#     Edge 138, Type (0, 0), BuildingBlock: OJICUG_clean_linker_0, # of connection points: 2
#     Edge 139, Type (0, 0), BuildingBlock: OJICUG_clean_linker_0, # of connection points: 2
#     Edge 140, Type (0, 0), BuildingBlock: OJICUG_clean_linker_0, # of connection points: 2
#     Edge 141, Type (0, 0), BuildingBlock: OJICUG_clean_linker_0, # of connection points: 2
#     Edge 142, Type (0, 0), BuildingBlock: OJICUG_clean_linker_0, # of connection points: 2
#     Edge 143, Type (0, 0), BuildingBlock: OJICUG_clean_linker_0, # of connection points: 2
#     Edge 144, Type (0, 0), BuildingBlock: OJICUG_clean_linker_0, # of connection points: 2
#     Edge 145, Type (0, 0), BuildingBlock: OJICUG_clean_linker_0, # of connection points: 2
#     Edge 146, Type (0, 0), BuildingBlock: OJICUG_clean_linker_0, # of connection points: 2
#     Edge 147, Type (0, 0), BuildingBlock: OJICUG_clean_linker_0, # of connection points: 2
#     Edge 148, Type (0, 0), BuildingBlock: OJICUG_clean_linker_0, # of connection points: 2
#     Edge 149, Type (0, 0), BuildingBlock: OJICUG_clean_linker_0, # of connection points: 2
#     Edge 150, Type (0, 0), BuildingBlock: OJICUG_clean_linker_0, # of connection points: 2
#     Edge 151, Type (0, 0), BuildingBlock: OJICUG_clean_linker_0, # of connection points: 2
#     Edge 152, Type (0, 0), BuildingBlock: OJICUG_clean_linker_0, # of connection points: 2
#     Edge 153, Type (0, 0), BuildingBlock: OJICUG_clean_linker_0, # of connection points: 2
#     Edge 154, Type (0, 0), BuildingBlock: OJICUG_clean_linker_0, # of connection points: 2
#     Edge 155, Type (0, 0), BuildingBlock: OJICUG_clean_linker_0, # of connection points: 2
#     Edge 156, Type (0, 0), BuildingBlock: OJICUG_clean_linker_0, # of connection points: 2
#     Edge 157, Type (0, 0), BuildingBlock: OJICUG_clean_linker_0, # of connection points: 2
#     Edge 158, Type (0, 0), BuildingBlock: OJICUG_clean_linker_0, # of connection points: 2
#     Edge 159, Type (0, 0), BuildingBlock: OJICUG_clean_linker_0, # of connection points: 2
#     Edge 160, Type (0, 0), BuildingBlock: OJICUG_clean_linker_0, # of connection points: 2
#     Edge 161, Type (0, 0), BuildingBlock: OJICUG_clean_linker_0, # of connection points: 2
#     Edge 162, Type (0, 0), BuildingBlock: OJICUG_clean_linker_0, # of connection points: 2
#     Edge 163, Type (0, 0), BuildingBlock: OJICUG_clean_linker_0, # of connection points: 2
#     Edge 164, Type (0, 0), BuildingBlock: OJICUG_clean_linker_0, # of connection points: 2
#     Edge 165, Type (0, 0), BuildingBlock: OJICUG_clean_linker_0, # of connection points: 2
#     Edge 166, Type (0, 0), BuildingBlock: OJICUG_clean_linker_0, # of connection points: 2
#     Edge 167, Type (0, 0), BuildingBlock: OJICUG_clean_linker_0, # of connection points: 2
#     Edge 168, Type (0, 0), BuildingBlock: OJICUG_clean_linker_0, # of connection points: 2
#     Edge 169, Type (0, 0), BuildingBlock: OJICUG_clean_linker_0, # of connection points: 2
#     Edge 170, Type (0, 0), BuildingBlock: OJICUG_clean_linker_0, # of connection points: 2
#     Edge 171, Type (0, 0), BuildingBlock: OJICUG_clean_linker_0, # of connection points: 2
#     Edge 172, Type (0, 0), BuildingBlock: OJICUG_clean_linker_0, # of connection points: 2
#     Edge 173, Type (0, 0), BuildingBlock: OJICUG_clean_linker_0, # of connection points: 2
#     Edge 174, Type (0, 0), BuildingBlock: OJICUG_clean_linker_0, # of connection points: 2
#     Edge 175, Type (0, 0), BuildingBlock: OJICUG_clean_linker_0, # of connection points: 2
#     Edge 176, Type (0, 0), BuildingBlock: OJICUG_clean_linker_0, # of connection points: 2
#     Edge 177, Type (0, 0), BuildingBlock: OJICUG_clean_linker_0, # of connection points: 2
#     Edge 178, Type (0, 0), BuildingBlock: OJICUG_clean_linker_0, # of connection points: 2
#     Edge 179, Type (0, 0), BuildingBlock: OJICUG_clean_linker_0, # of connection points: 2
#     Edge 180, Type (0, 0), BuildingBlock: OJICUG_clean_linker_0, # of connection points: 2
#     Edge 181, Type (0, 0), BuildingBlock: OJICUG_clean_linker_0, # of connection points: 2
#     Edge 182, Type (0, 0), BuildingBlock: OJICUG_clean_linker_0, # of connection points: 2
#     Edge 183, Type (0, 0), BuildingBlock: OJICUG_clean_linker_0, # of connection points: 2
#     Edge 184, Type (0, 0), BuildingBlock: OJICUG_clean_linker_0, # of connection points: 2
#     Edge 185, Type (0, 0), BuildingBlock: OJICUG_clean_linker_0, # of connection points: 2
#     Edge 186, Type (0, 0), BuildingBlock: OJICUG_clean_linker_0, # of connection points: 2
#     Edge 187, Type (0, 0), BuildingBlock: OJICUG_clean_linker_0, # of connection points: 2
#     Edge 188, Type (0, 0), BuildingBlock: OJICUG_clean_linker_0, # of connection points: 2
#     Edge 189, Type (0, 0), BuildingBlock: OJICUG_clean_linker_0, # of connection points: 2
#     Edge 190, Type (0, 0), BuildingBlock: OJICUG_clean_linker_0, # of connection points: 2
#     Edge 191, Type (0, 0), BuildingBlock: OJICUG_clean_linker_0, # of connection points: 2
#     Edge 192, Type (0, 0), BuildingBlock: OJICUG_clean_linker_0, # of connection points: 2
#     Edge 193, Type (0, 0), BuildingBlock: OJICUG_clean_linker_0, # of connection points: 2
#     Edge 194, Type (0, 0), BuildingBlock: OJICUG_clean_linker_0, # of connection points: 2
#     Edge 195, Type (0, 0), BuildingBlock: OJICUG_clean_linker_0, # of connection points: 2
#     Edge 196, Type (0, 0), BuildingBlock: OJICUG_clean_linker_0, # of connection points: 2
#     Edge 197, Type (0, 0), BuildingBlock: OJICUG_clean_linker_0, # of connection points: 2
#     Edge 198, Type (0, 0), BuildingBlock: OJICUG_clean_linker_0, # of connection points: 2
#     Edge 199, Type (0, 0), BuildingBlock: OJICUG_clean_linker_0, # of connection points: 2
#     Edge 200, Type (0, 0), BuildingBlock: OJICUG_clean_linker_0, # of connection points: 2
#     Edge 201, Type (0, 0), BuildingBlock: OJICUG_clean_linker_0, # of connection points: 2
#     Edge 202, Type (0, 0), BuildingBlock: OJICUG_clean_linker_0, # of connection points: 2
#     Edge 203, Type (0, 0), BuildingBlock: OJICUG_clean_linker_0, # of connection points: 2
#     Edge 204, Type (0, 0), BuildingBlock: OJICUG_clean_linker_0, # of connection points: 2
#     Edge 205, Type (0, 0), BuildingBlock: OJICUG_clean_linker_0, # of connection points: 2
#     Edge 206, Type (0, 0), BuildingBlock: OJICUG_clean_linker_0, # of connection points: 2
#     Edge 207, Type (0, 0), BuildingBlock: OJICUG_clean_linker_0, # of connection points: 2
#     Edge 208, Type (0, 0), BuildingBlock: OJICUG_clean_linker_0, # of connection points: 2
#     Edge 209, Type (0, 0), BuildingBlock: OJICUG_clean_linker_0, # of connection points: 2
#     Edge 210, Type (0, 0), BuildingBlock: OJICUG_clean_linker_0, # of connection points: 2
#     Edge 211, Type (0, 0), BuildingBlock: OJICUG_clean_linker_0, # of connection points: 2
#     Edge 212, Type (0, 0), BuildingBlock: OJICUG_clean_linker_0, # of connection points: 2
#     Edge 213, Type (0, 0), BuildingBlock: OJICUG_clean_linker_0, # of connection points: 2
#     Edge 214, Type (0, 0), BuildingBlock: OJICUG_clean_linker_0, # of connection points: 2
#     Edge 215, Type (0, 0), BuildingBlock: OJICUG_clean_linker_0, # of connection points: 2
#     Edge 216, Type (0, 0), BuildingBlock: OJICUG_clean_linker_0, # of connection points: 2
#     Edge 217, Type (0, 0), BuildingBlock: OJICUG_clean_linker_0, # of connection points: 2
#     Edge 218, Type (0, 0), BuildingBlock: OJICUG_clean_linker_0, # of connection points: 2
#     Edge 219, Type (0, 0), BuildingBlock: OJICUG_clean_linker_0, # of connection points: 2
#     Edge 220, Type (0, 0), BuildingBlock: OJICUG_clean_linker_0, # of connection points: 2
#     Edge 221, Type (0, 0), BuildingBlock: OJICUG_clean_linker_0, # of connection points: 2
#     Edge 222, Type (0, 0), BuildingBlock: OJICUG_clean_linker_0, # of connection points: 2
#     Edge 223, Type (0, 0), BuildingBlock: OJICUG_clean_linker_0, # of connection points: 2
#     Edge 224, Type (0, 0), BuildingBlock: OJICUG_clean_linker_0, # of connection points: 2
#     Edge 225, Type (0, 0), BuildingBlock: OJICUG_clean_linker_0, # of connection points: 2
#     Edge 226, Type (0, 0), BuildingBlock: OJICUG_clean_linker_0, # of connection points: 2
#     Edge 227, Type (0, 0), BuildingBlock: OJICUG_clean_linker_0, # of connection points: 2
#     Edge 228, Type (0, 0), BuildingBlock: OJICUG_clean_linker_0, # of connection points: 2
#     Edge 229, Type (0, 0), BuildingBlock: OJICUG_clean_linker_0, # of connection points: 2
#     Edge 230, Type (0, 0), BuildingBlock: OJICUG_clean_linker_0, # of connection points: 2
#     Edge 231, Type (0, 0), BuildingBlock: OJICUG_clean_linker_0, # of connection points: 2
#     Edge 232, Type (0, 0), BuildingBlock: OJICUG_clean_linker_0, # of connection points: 2
#     Edge 233, Type (0, 0), BuildingBlock: OJICUG_clean_linker_0, # of connection points: 2
#     Edge 234, Type (0, 0), BuildingBlock: OJICUG_clean_linker_0, # of connection points: 2
#     Edge 235, Type (0, 0), BuildingBlock: OJICUG_clean_linker_0, # of connection points: 2
#     Edge 236, Type (0, 0), BuildingBlock: OJICUG_clean_linker_0, # of connection points: 2
#     Edge 237, Type (0, 0), BuildingBlock: OJICUG_clean_linker_0, # of connection points: 2
#     Edge 238, Type (0, 0), BuildingBlock: OJICUG_clean_linker_0, # of connection points: 2
#     Edge 239, Type (0, 0), BuildingBlock: OJICUG_clean_linker_0, # of connection points: 2
#     Edge 240, Type (0, 0), BuildingBlock: OJICUG_clean_linker_0, # of connection points: 2
#     Edge 241, Type (0, 0), BuildingBlock: OJICUG_clean_linker_0, # of connection points: 2
#     Edge 242, Type (0, 0), BuildingBlock: OJICUG_clean_linker_0, # of connection points: 2
#     Edge 243, Type (0, 0), BuildingBlock: OJICUG_clean_linker_0, # of connection points: 2
#     Edge 244, Type (0, 0), BuildingBlock: OJICUG_clean_linker_0, # of connection points: 2
#     Edge 245, Type (0, 0), BuildingBlock: OJICUG_clean_linker_0, # of connection points: 2
#     Edge 246, Type (0, 0), BuildingBlock: OJICUG_clean_linker_0, # of connection points: 2
#     Edge 247, Type (0, 0), BuildingBlock: OJICUG_clean_linker_0, # of connection points: 2
#     Edge 248, Type (0, 0), BuildingBlock: OJICUG_clean_linker_0, # of connection points: 2
#     Edge 249, Type (0, 0), BuildingBlock: OJICUG_clean_linker_0, # of connection points: 2
#     Edge 250, Type (0, 0), BuildingBlock: OJICUG_clean_linker_0, # of connection points: 2
#     Edge 251, Type (0, 0), BuildingBlock: OJICUG_clean_linker_0, # of connection points: 2
#     Edge 252, Type (0, 0), BuildingBlock: OJICUG_clean_linker_0, # of connection points: 2
#     Edge 253, Type (0, 0), BuildingBlock: OJICUG_clean_linker_0, # of connection points: 2
#     Edge 254, Type (0, 0), BuildingBlock: OJICUG_clean_linker_0, # of connection points: 2
#     Edge 255, Type (0, 0), BuildingBlock: OJICUG_clean_linker_0, # of connection points: 2
#     Edge 256, Type (0, 0), BuildingBlock: OJICUG_clean_linker_0, # of connection points: 2
#     Edge 257, Type (0, 0), BuildingBlock: OJICUG_clean_linker_0, # of connection points: 2
#     Edge 258, Type (0, 0), BuildingBlock: OJICUG_clean_linker_0, # of connection points: 2
#     Edge 259, Type (0, 0), BuildingBlock: OJICUG_clean_linker_0, # of connection points: 2
#     Edge 260, Type (0, 0), BuildingBlock: OJICUG_clean_linker_0, # of connection points: 2
#     Edge 261, Type (0, 0), BuildingBlock: OJICUG_clean_linker_0, # of connection points: 2
#     Edge 262, Type (0, 0), BuildingBlock: OJICUG_clean_linker_0, # of connection points: 2
#     Edge 263, Type (0, 0), BuildingBlock: OJICUG_clean_linker_0, # of connection points: 2
#     Edge 264, Type (0, 0), BuildingBlock: OJICUG_clean_linker_0, # of connection points: 2
#     Edge 265, Type (0, 0), BuildingBlock: OJICUG_clean_linker_0, # of connection points: 2
#     Edge 266, Type (0, 0), BuildingBlock: OJICUG_clean_linker_0, # of connection points: 2
#     Edge 267, Type (0, 0), BuildingBlock: OJICUG_clean_linker_0, # of connection points: 2
#     Edge 268, Type (0, 0), BuildingBlock: OJICUG_clean_linker_0, # of connection points: 2
#     Edge 269, Type (0, 0), BuildingBlock: OJICUG_clean_linker_0, # of connection points: 2
#     Edge 270, Type (0, 0), BuildingBlock: OJICUG_clean_linker_0, # of connection points: 2
#     Edge 271, Type (0, 0), BuildingBlock: OJICUG_clean_linker_0, # of connection points: 2
#     Edge 272, Type (0, 0), BuildingBlock: OJICUG_clean_linker_0, # of connection points: 2
#     Edge 273, Type (0, 0), BuildingBlock: OJICUG_clean_linker_0, # of connection points: 2
#     Edge 274, Type (0, 0), BuildingBlock: OJICUG_clean_linker_0, # of connection points: 2
#     Edge 275, Type (0, 0), BuildingBlock: OJICUG_clean_linker_0, # of connection points: 2
#     Edge 276, Type (0, 0), BuildingBlock: OJICUG_clean_linker_0, # of connection points: 2
#     Edge 277, Type (0, 0), BuildingBlock: OJICUG_clean_linker_0, # of connection points: 2
#     Edge 278, Type (0, 0), BuildingBlock: OJICUG_clean_linker_0, # of connection points: 2
#     Edge 279, Type (0, 0), BuildingBlock: OJICUG_clean_linker_0, # of connection points: 2
#     Edge 280, Type (0, 0), BuildingBlock: OJICUG_clean_linker_0, # of connection points: 2
#     Edge 281, Type (0, 0), BuildingBlock: OJICUG_clean_linker_0, # of connection points: 2
#     Edge 282, Type (0, 0), BuildingBlock: OJICUG_clean_linker_0, # of connection points: 2
#     Edge 283, Type (0, 0), BuildingBlock: OJICUG_clean_linker_0, # of connection points: 2
#     Edge 284, Type (0, 0), BuildingBlock: OJICUG_clean_linker_0, # of connection points: 2
#     Edge 285, Type (0, 0), BuildingBlock: OJICUG_clean_linker_0, # of connection points: 2
#     Edge 286, Type (0, 0), BuildingBlock: OJICUG_clean_linker_0, # of connection points: 2
#     Edge 287, Type (0, 0), BuildingBlock: OJICUG_clean_linker_0, # of connection points: 2
# Relax obj value: 0.129
# Max RMSD: 0.220
# Mean RMSD: 0.209
data_MOF--net-gie--node1-CEKHIL_clean_sbu_0--edge1-OJICUG_clean_linker_0
_symmetry_space_group_name_H-M    P1
_symmetry_Int_Tables_number       1
_symmetry_cell_setting            triclinic
loop_
_symmetry_equiv_pos_as_xyz
'x, y, z'
_cell_length_a     62.41215
_cell_length_b     61.831441
_cell_length_c     61.770261
_cell_angle_alpha  89.994208
_cell_angle_beta   89.993579
_cell_angle_gamma 90.014221
loop_
_atom_site_label
_atom_site_type_symbol
_atom_site_fract_x
_atom_site_fract_y
_atom_site_fract_z
_atom_type_partial_charge
Co0 Co 0.9973 0.12618 0.39744 0.0
O1 O 0.97843 0.10433 0.40788 0.0
O2 O 0.98626 0.10973 0.37321 0.0
C3 C 0.02383 0.11995 0.42083 0.0
O4 O 0.0168 0.14718 0.3814 0.0
Co5 Co 0.00758 0.16447 0.42802 0.0
O6 O 0.03157 0.16813 0.40723 0.0
C7 C 0.9666 0.16411 0.40482 0.0
C8 C 0.97601 0.09864 0.38785 0.0
C9 C 0.0308 0.16103 0.38786 0.0
O10 O 0.97278 0.14683 0.39519 0.0
O11 O 0.97764 0.1734 0.41962 0.0
O12 O 0.02177 0.10823 0.40353 0.0
O13 O 0.00829 0.13328 0.42483 0.0
Co14 Co 0.12088 0.75039 0.64979 0.0
O15 O 0.14212 0.7313 0.66133 0.0
O16 O 0.1363 0.73667 0.62631 0.0
C17 C 0.12814 0.77896 0.67093 0.0
O18 O 0.10056 0.76935 0.6323 0.0
Co19 Co 0.08361 0.76477 0.67958 0.0
O20 O 0.08045 0.78715 0.65676 0.0
C21 C 0.08169 0.72189 0.65931 0.0
C22 C 0.14714 0.72691 0.64144 0.0
C23 C 0.08723 0.78435 0.6375 0.0
O24 O 0.09939 0.7263 0.64968 0.0
O25 O 0.07288 0.73471 0.67295 0.0
O26 O 0.13958 0.77501 0.65383 0.0
O27 O 0.11451 0.76405 0.67624 0.0
Co28 Co 0.49792 0.86907 0.8991 0.0
O29 O 0.51631 0.89151 0.9091 0.0
O30 O 0.50885 0.88508 0.87452 0.0
C31 C 0.47112 0.87532 0.92213 0.0
O32 O 0.47893 0.84731 0.88347 0.0
Co33 Co 0.48826 0.83133 0.93058 0.0
O34 O 0.46453 0.82659 0.90971 0.0
C35 C 0.52943 0.83208 0.90777 0.0
C36 C 0.51885 0.89668 0.88894 0.0
C37 C 0.46522 0.83329 0.8902 0.0
O38 O 0.52286 0.84888 0.89756 0.0
O39 O 0.5185 0.82293 0.92275 0.0
O40 O 0.47306 0.88668 0.90458 0.0
O41 O 0.4869 0.86242 0.92656 0.0
Co42 Co 0.37404 0.24589 0.14865 0.0
O43 O 0.3527 0.26495 0.16 0.0
O44 O 0.35865 0.2594 0.12501 0.0
C45 C 0.36676 0.21747 0.16995 0.0
O46 O 0.39456 0.22687 0.13145 0.0
Co47 Co 0.41117 0.23199 0.17885 0.0
O48 O 0.41453 0.2094 0.15627 0.0
C49 C 0.4129 0.27479 0.15842 0.0
C50 C 0.34773 0.26919 0.14007 0.0
C51 C 0.40787 0.21196 0.13693 0.0
O52 O 0.39542 0.2701 0.14852 0.0
O53 O 0.42163 0.26215 0.17229 0.0
O54 O 0.35542 0.22123 0.15274 0.0
O55 O 0.3803 0.23247 0.17524 0.0
Co56 Co 0.99701 0.86971 0.09627 0.0
O57 O 0.97842 0.89204 0.08644 0.0
O58 O 0.98614 0.88562 0.12096 0.0
C59 C 0.0236 0.87619 0.07304 0.0
O60 O 0.01624 0.84798 0.11168 0.0
Co61 Co 0.00653 0.83213 0.06457 0.0
O62 O 0.03044 0.82738 0.08523 0.0
C63 C 0.96557 0.83261 0.08774 0.0
C64 C 0.97595 0.89715 0.10661 0.0
C65 C 0.02991 0.83399 0.10477 0.0
O66 O 0.97219 0.84937 0.09796 0.0
O67 O 0.97638 0.82356 0.07262 0.0
O68 O 0.02174 0.88749 0.09063 0.0
O69 O 0.00786 0.86321 0.06871 0.0
Co70 Co 0.3742 0.74914 0.34631 0.0
O71 O 0.35281 0.73011 0.33501 0.0
O72 O 0.35884 0.73563 0.36998 0.0
C73 C 0.36697 0.77759 0.32501 0.0
O74 O 0.39479 0.76812 0.36348 0.0
Co75 Co 0.41134 0.76283 0.31607 0.0
O76 O 0.41487 0.78542 0.33862 0.0
C77 C 0.41295 0.72009 0.33658 0.0
C78 C 0.34792 0.7258 0.35495 0.0
C79 C 0.4082 0.78294 0.35796 0.0
O80 O 0.39549 0.72488 0.34645 0.0
O81 O 0.42174 0.73265 0.32268 0.0
O82 O 0.35564 0.77385 0.34223 0.0
O83 O 0.38046 0.76254 0.31971 0.0
Co84 Co 0.49699 0.12594 0.59764 0.0
O85 O 0.51576 0.10403 0.58718 0.0
O86 O 0.508 0.10949 0.62185 0.0
C87 C 0.47041 0.11974 0.57427 0.0
O88 O 0.47763 0.14696 0.61378 0.0
Co89 Co 0.48663 0.16429 0.5672 0.0
O90 O 0.46276 0.16802 0.58812 0.0
C91 C 0.52776 0.16381 0.59016 0.0
C92 C 0.51818 0.09834 0.60721 0.0
C93 C 0.46363 0.16087 0.60745 0.0
O94 O 0.52159 0.14654 0.59982 0.0
O95 O 0.51665 0.17314 0.57543 0.0
O96 O 0.47244 0.10806 0.5916 0.0
O97 O 0.48595 0.13307 0.57026 0.0
Co98 Co 0.12003 0.24684 0.8466 0.0
O99 O 0.14144 0.26595 0.83548 0.0
O100 O 0.13537 0.26012 0.8704 0.0
C101 C 0.1273 0.21859 0.82508 0.0
O102 O 0.0994 0.22775 0.86359 0.0
Co103 Co 0.08294 0.23335 0.81619 0.0
O104 O 0.07929 0.21065 0.83862 0.0
C105 C 0.0813 0.27594 0.83703 0.0
C106 C 0.14633 0.27005 0.85546 0.0
C107 C 0.08594 0.21301 0.85799 0.0
O108 O 0.09875 0.27109 0.84689 0.0
O109 O 0.07254 0.26348 0.82302 0.0
O110 O 0.13859 0.22218 0.84236 0.0
O111 O 0.11381 0.23366 0.81987 0.0
Co112 Co 0.39002 0.00395 0.12373 0.0
O113 O 0.39982 0.02794 0.10702 0.0
O114 O 0.41447 0.01729 0.13792 0.0
C115 C 0.38684 0.98136 0.09554 0.0
O116 O 0.38422 0.97928 0.14489 0.0
Co117 Co 0.34463 0.9854 0.11569 0.0
O118 O 0.35659 0.96021 0.13151 0.0
C119 C 0.34961 0.02459 0.14235 0.0
C120 C 0.41454 0.0306 0.12157 0.0
C121 C 0.3721 0.96242 0.14475 0.0
O122 O 0.37003 0.02323 0.14018 0.0
O123 O 0.33644 0.01157 0.13323 0.0
O124 O 0.40529 0.9841 0.10488 0.0
O125 O 0.37145 0.99359 0.10229 0.0
Co126 Co 0.24797 0.14974 0.37581 0.0
O127 O 0.26668 0.16007 0.35373 0.0
O128 O 0.25894 0.12546 0.35944 0.0
C129 C 0.22133 0.17301 0.36965 0.0
O130 O 0.22867 0.13369 0.397 0.0
Co131 Co 0.23776 0.18025 0.41414 0.0
O132 O 0.21388 0.1594 0.41804 0.0
C133 C 0.27887 0.1573 0.4136 0.0
C134 C 0.2691 0.14001 0.34815 0.0
C135 C 0.21471 0.14006 0.41094 0.0
O136 O 0.27264 0.14765 0.39634 0.0
O137 O 0.26778 0.17201 0.42297 0.0
O138 O 0.22336 0.15568 0.35799 0.0
O139 O 0.23693 0.1771 0.3829 0.0
Co140 Co 0.1049 0.99179 0.62377 0.0
O141 O 0.09546 0.96763 0.60708 0.0
O142 O 0.08055 0.97821 0.63787 0.0
C143 C 0.10799 0.01432 0.59551 0.0
O144 O 0.11023 0.01651 0.64495 0.0
Co145 Co 0.15003 0.0111 0.61606 0.0
O146 O 0.13769 0.03606 0.63193 0.0
C147 C 0.14547 0.97176 0.64261 0.0
C148 C 0.08071 0.96484 0.62158 0.0
C149 C 0.12211 0.03353 0.64504 0.0
O150 O 0.12504 0.9728 0.64034 0.0
O151 O 0.15849 0.985 0.63359 0.0
O152 O 0.08952 0.01141 0.60478 0.0
O153 O 0.1235 0.00233 0.60244 0.0
Co154 Co 0.24653 0.84573 0.87598 0.0
O155 O 0.22818 0.83581 0.85344 0.0
O156 O 0.23569 0.87033 0.86 0.0
C157 C 0.2733 0.82271 0.86976 0.0
O158 O 0.26549 0.86129 0.89782 0.0
Co159 Co 0.25608 0.81425 0.91375 0.0
O160 O 0.27983 0.83507 0.91858 0.0
C161 C 0.21491 0.83701 0.91289 0.0
C162 C 0.2257 0.85597 0.84832 0.0
C163 C 0.27917 0.85457 0.91187 0.0
O164 O 0.22154 0.84725 0.89613 0.0
O165 O 0.2258 0.82204 0.92207 0.0
O166 O 0.27142 0.84026 0.8584 0.0
O167 O 0.25749 0.81828 0.88263 0.0
Co168 Co 0.38952 0.99091 0.37098 0.0
O169 O 0.39924 0.96687 0.38765 0.0
O170 O 0.41398 0.97761 0.35682 0.0
C171 C 0.38629 0.01345 0.39922 0.0
O172 O 0.38386 0.01561 0.34986 0.0
Co173 Co 0.34415 0.0095 0.37885 0.0
O174 O 0.35619 0.0347 0.36311 0.0
C175 C 0.34917 0.97033 0.35217 0.0
C176 C 0.41398 0.96424 0.37312 0.0
C177 C 0.37177 0.03248 0.34994 0.0
O178 O 0.36958 0.97168 0.35443 0.0
O179 O 0.33597 0.98335 0.36125 0.0
O180 O 0.40476 0.0107 0.38991 0.0
O181 O 0.37089 0.00125 0.3924 0.0
Co182 Co 0.24676 0.14892 0.61912 0.0
O183 O 0.22801 0.15941 0.64108 0.0
O184 O 0.23548 0.12474 0.63544 0.0
C185 C 0.27353 0.17201 0.62543 0.0
O186 O 0.26606 0.13276 0.59803 0.0
Co187 Co 0.25738 0.17945 0.58088 0.0
O188 O 0.28112 0.15842 0.57709 0.0
C189 C 0.21604 0.15693 0.5813 0.0
C190 C 0.22535 0.13939 0.64663 0.0
C191 C 0.28013 0.13907 0.58416 0.0
O192 O 0.22218 0.14707 0.59848 0.0
O193 O 0.22725 0.17161 0.57204 0.0
O194 O 0.27133 0.15469 0.63708 0.0
O195 O 0.25802 0.1762 0.61211 0.0
Co196 Co 0.10449 0.00544 0.87186 0.0
O197 O 0.09441 0.02928 0.88861 0.0
O198 O 0.07997 0.01859 0.85763 0.0
C199 C 0.10783 0.98273 0.89997 0.0
O200 O 0.11053 0.98093 0.8506 0.0
Co201 Co 0.15004 0.98729 0.8799 0.0
O202 O 0.13843 0.96212 0.86378 0.0
C203 C 0.14474 0.02658 0.85342 0.0
C204 C 0.07974 0.03186 0.87401 0.0
C205 C 0.12287 0.96424 0.85058 0.0
O206 O 0.12433 0.02498 0.85552 0.0
O207 O 0.15801 0.01367 0.86255 0.0
O208 O 0.08937 0.98536 0.8906 0.0
O209 O 0.12312 0.99515 0.89329 0.0
Co210 Co 0.24775 0.84447 0.11889 0.0
O211 O 0.26601 0.83418 0.14137 0.0
O212 O 0.2586 0.86879 0.13531 0.0
C213 C 0.22089 0.82138 0.12467 0.0
O214 O 0.2289 0.86044 0.09722 0.0
Co215 Co 0.23821 0.81365 0.0806 0.0
O216 O 0.21455 0.83461 0.07597 0.0
C217 C 0.27942 0.83636 0.08189 0.0
C218 C 0.26852 0.85425 0.14682 0.0
C219 C 0.21526 0.85399 0.08298 0.0
O220 O 0.2728 0.84629 0.09884 0.0
O221 O 0.2685 0.82157 0.07245 0.0
O222 O 0.22278 0.83876 0.13629 0.0
O223 O 0.23674 0.81713 0.11178 0.0
Co224 Co 0.12396 0.39849 -0.00035 0.0
O225 O 0.10273 0.40978 0.98041 0.0
O226 O 0.10848 0.37485 0.98624 0.0
C227 C 0.11669 0.42002 0.02792 0.0
O228 O 0.14431 0.38131 0.01887 0.0
Co229 Co 0.16122 0.4285 0.01353 0.0
O230 O 0.16438 0.40606 0.03629 0.0
C231 C 0.16297 0.40783 0.97081 0.0
C232 C 0.09766 0.38987 0.9763 0.0
C233 C 0.1576 0.38677 0.03382 0.0
O234 O 0.14541 0.39808 0.9755 0.0
O235 O 0.17174 0.42171 0.98341 0.0
O236 O 0.10529 0.40285 0.02424 0.0
O237 O 0.13032 0.42512 0.01292 0.0
Co238 Co 0.62373 0.09549 0.99579 0.0
O239 O 0.60216 0.0846 0.01488 0.0
O240 O 0.6087 0.11942 0.00919 0.0
C241 C 0.61623 0.07421 0.96741 0.0
O242 O 0.64458 0.11224 0.97672 0.0
Co243 Co 0.66045 0.06468 0.98225 0.0
O244 O 0.66431 0.08705 0.95953 0.0
C245 C 0.66221 0.08515 0.02503 0.0
C246 C 0.59756 0.10461 0.01909 0.0
C247 C 0.65791 0.10648 0.9619 0.0
O248 O 0.64498 0.09537 0.02011 0.0
O249 O 0.6708 0.07109 0.01252 0.0
O250 O 0.60513 0.09158 0.97107 0.0
O251 O 0.62963 0.06878 0.98251 0.0
Co252 Co 0.1388 0.37504 0.24094 0.0
O253 O 0.1489 0.35807 0.21729 0.0
O254 O 0.16323 0.38922 0.22755 0.0
C255 C 0.13575 0.34717 0.26392 0.0
O256 O 0.13267 0.39646 0.26528 0.0
Co257 Co 0.09336 0.36679 0.25935 0.0
O258 O 0.10499 0.38315 0.28436 0.0
C259 C 0.09835 0.39282 0.21971 0.0
C260 C 0.16356 0.37264 0.21454 0.0
C261 C 0.12043 0.39645 0.28207 0.0
O262 O 0.11878 0.39096 0.22127 0.0
O263 O 0.08519 0.38372 0.23276 0.0
O264 O 0.15412 0.35667 0.26119 0.0
O265 O 0.12037 0.35359 0.25149 0.0
Co266 Co 0.87074 0.89954 0.49648 0.0
O267 O 0.89222 0.91062 0.51554 0.0
O268 O 0.88591 0.87574 0.50992 0.0
C269 C 0.87816 0.92081 0.46804 0.0
O270 O 0.85004 0.88258 0.47746 0.0
Co271 Co 0.83384 0.93002 0.4827 0.0
O272 O 0.83021 0.90754 0.46006 0.0
C273 C 0.83199 0.90951 0.52548 0.0
C274 C 0.89699 0.89065 0.51974 0.0
C275 C 0.83672 0.88816 0.46258 0.0
O276 O 0.84941 0.89955 0.52076 0.0
O277 O 0.82332 0.92343 0.51287 0.0
O278 O 0.88934 0.90351 0.47177 0.0
O279 O 0.8647 0.92619 0.48309 0.0
Co280 Co 0.85408 0.1212 0.24135 0.0
O281 O 0.84374 0.13774 0.21748 0.0
O282 O 0.82958 0.10672 0.22841 0.0
C283 C 0.85732 0.14951 0.26379 0.0
O284 O 0.86043 0.10015 0.26596 0.0
Co285 Co 0.89963 0.12976 0.25928 0.0
O286 O 0.88834 0.11357 0.28458 0.0
C287 C 0.89438 0.10319 0.22002 0.0
C288 C 0.82914 0.12304 0.21506 0.0
C289 C 0.87288 0.10025 0.28259 0.0
O290 O 0.87395 0.10497 0.22176 0.0
O291 O 0.90761 0.11254 0.23283 0.0
O292 O 0.83893 0.13993 0.26143 0.0
O293 O 0.87259 0.14283 0.25135 0.0
Co294 Co 0.37048 0.59671 0.49961 0.0
O295 O 0.39237 0.58562 0.48104 0.0
O296 O 0.38566 0.6205 0.48608 0.0
C297 C 0.37764 0.57584 0.5284 0.0
O298 O 0.34926 0.61362 0.51812 0.0
Co299 Co 0.3337 0.56586 0.51289 0.0
O300 O 0.3293 0.58852 0.5352 0.0
C301 C 0.33254 0.5858 0.46985 0.0
C302 C 0.39698 0.60556 0.47657 0.0
C303 C 0.33568 0.60795 0.53273 0.0
O304 O 0.34962 0.59617 0.47495 0.0
O305 O 0.32382 0.57182 0.48237 0.0
O306 O 0.3887 0.59324 0.52469 0.0
O307 O 0.36451 0.57014 0.51317 0.0
Co308 Co 0.13997 0.62148 0.25413 0.0
O309 O 0.15047 0.63836 0.27771 0.0
O310 O 0.16444 0.60711 0.26724 0.0
C311 C 0.13672 0.6493 0.23108 0.0
O312 O 0.13338 0.6001 0.22986 0.0
Co313 Co 0.09426 0.63002 0.23649 0.0
O314 O 0.10538 0.61351 0.21133 0.0
C315 C 0.0997 0.60404 0.27609 0.0
C316 C 0.16497 0.6236 0.28037 0.0
C317 C 0.12082 0.60016 0.21331 0.0
O318 O 0.12012 0.60565 0.27408 0.0
O319 O 0.08639 0.61331 0.26332 0.0
O320 O 0.15511 0.6398 0.23365 0.0
O321 O 0.12152 0.64298 0.2438 0.0
Co322 Co 0.35454 0.37471 0.75416 0.0
O323 O 0.3441 0.35796 0.77782 0.0
O324 O 0.33 0.38909 0.76718 0.0
C325 C 0.35776 0.34664 0.73146 0.0
O326 O 0.36107 0.39591 0.72972 0.0
Co327 Co 0.40018 0.36611 0.73647 0.0
O328 O 0.38892 0.38227 0.71116 0.0
C329 C 0.39479 0.39248 0.77581 0.0
C330 C 0.32949 0.37261 0.78032 0.0
C331 C 0.37354 0.39568 0.7131 0.0
O332 O 0.37437 0.39072 0.77396 0.0
O333 O 0.40808 0.38322 0.76302 0.0
O334 O 0.33939 0.35622 0.73388 0.0
O335 O 0.373 0.35312 0.74404 0.0
Co336 Co 0.99634 0.86988 0.59866 0.0
O337 O 0.0149 0.89161 0.58727 0.0
O338 O 0.00899 0.88625 0.62225 0.0
C339 C 0.9688 0.8761 0.57621 0.0
O340 O 0.97759 0.84905 0.61588 0.0
Co341 Co 0.98426 0.8314 0.5689 0.0
O342 O 0.96175 0.82743 0.59127 0.0
C343 C 0.02653 0.8318 0.58961 0.0
C344 C 0.01884 0.89707 0.60713 0.0
C345 C 0.96354 0.83481 0.61045 0.0
O346 O 0.02086 0.84902 0.59969 0.0
O347 O 0.01466 0.82253 0.57546 0.0
O348 O 0.97152 0.88795 0.59336 0.0
O349 O 0.98408 0.86262 0.5719 0.0
Co350 Co 0.87382 0.24779 0.34575 0.0
O351 O 0.85275 0.26769 0.33579 0.0
O352 O 0.858 0.25884 0.37028 0.0
C353 C 0.86696 0.2218 0.32149 0.0
O354 O 0.89399 0.22744 0.36158 0.0
Co355 Co 0.91154 0.23624 0.31511 0.0
O356 O 0.91509 0.21226 0.33621 0.0
C357 C 0.91243 0.27755 0.33861 0.0
C358 C 0.84738 0.26993 0.35594 0.0
C359 C 0.90783 0.21331 0.35548 0.0
O360 O 0.89515 0.27189 0.3484 0.0
O361 O 0.92109 0.26618 0.32365 0.0
O362 O 0.8553 0.22356 0.33881 0.0
O363 O 0.88069 0.23716 0.31826 0.0
Co364 Co 0.49883 0.12571 0.0988 0.0
O365 O 0.48038 0.10394 0.08731 0.0
O366 O 0.48616 0.10922 0.12231 0.0
C367 C 0.52645 0.11961 0.07638 0.0
O368 O 0.51742 0.1465 0.1162 0.0
Co369 Co 0.51111 0.16432 0.06929 0.0
O370 O 0.53341 0.16832 0.09186 0.0
C371 C 0.46869 0.16382 0.08976 0.0
C372 C 0.47642 0.09838 0.10715 0.0
C373 C 0.53145 0.16083 0.11098 0.0
O374 O 0.47425 0.14653 0.09981 0.0
O375 O 0.48067 0.17311 0.07571 0.0
O376 O 0.52372 0.10772 0.0935 0.0
O377 O 0.51117 0.1331 0.0721 0.0
Co378 Co 0.62014 0.74788 0.84688 0.0
O379 O 0.64025 0.72743 0.83604 0.0
O380 O 0.63679 0.73654 0.87068 0.0
C381 C 0.62658 0.77357 0.82217 0.0
O382 O 0.60123 0.76876 0.86356 0.0
Co383 Co 0.58139 0.7604 0.81802 0.0
O384 O 0.57951 0.78455 0.83915 0.0
C385 C 0.58041 0.71924 0.84186 0.0
C386 C 0.64653 0.72517 0.85592 0.0
C387 C 0.58756 0.78328 0.85807 0.0
O388 O 0.59834 0.72436 0.85069 0.0
O389 O 0.57138 0.73081 0.82727 0.0
O390 O 0.63893 0.7716 0.83896 0.0
O391 O 0.6123 0.75859 0.81968 0.0
Co392 Co 0.99491 0.12656 0.89624 0.0
O393 O 0.01349 0.10496 0.90779 0.0
O394 O 0.00764 0.11006 0.87278 0.0
C395 C 0.96736 0.12035 0.91872 0.0
O396 O 0.97613 0.14721 0.87884 0.0
Co397 Co 0.98257 0.16517 0.92571 0.0
O398 O 0.96006 0.16883 0.9033 0.0
C399 C 0.02489 0.16487 0.90506 0.0
C400 C 0.01747 0.09935 0.88798 0.0
C401 C 0.96196 0.16137 0.88416 0.0
O402 O 0.01937 0.14752 0.8951 0.0
O403 O 0.01294 0.17415 0.91913 0.0
O404 O 0.97013 0.10844 0.90163 0.0
O405 O 0.98258 0.13394 0.92294 0.0
Co406 Co 0.62121 0.24729 0.64859 0.0
O407 O 0.64233 0.26712 0.65858 0.0
O408 O 0.63727 0.25815 0.6241 0.0
C409 C 0.62783 0.2214 0.67302 0.0
O410 O 0.60098 0.22695 0.6328 0.0
Co411 Co 0.58333 0.23609 0.67923 0.0
O412 O 0.57973 0.21204 0.65821 0.0
C413 C 0.58271 0.27725 0.65541 0.0
C414 C 0.64788 0.26923 0.63847 0.0
C415 C 0.58704 0.21294 0.63896 0.0
O416 O 0.6 0.27148 0.6457 0.0
O417 O 0.57399 0.26602 0.67046 0.0
O418 O 0.63958 0.22301 0.65576 0.0
O419 O 0.61417 0.23684 0.6761 0.0
Co420 Co 0.49884 0.86974 0.39582 0.0
O421 O 0.48014 0.89129 0.40727 0.0
O422 O 0.48607 0.88607 0.37228 0.0
C423 C 0.52633 0.87614 0.41829 0.0
O424 O 0.5177 0.84914 0.37849 0.0
Co425 Co 0.5114 0.83128 0.42543 0.0
O426 O 0.53386 0.8276 0.40296 0.0
C427 C 0.46903 0.83135 0.40488 0.0
C428 C 0.47616 0.89678 0.38743 0.0
C429 C 0.5319 0.83502 0.38381 0.0
O430 O 0.47448 0.84865 0.39478 0.0
O431 O 0.48104 0.82221 0.41899 0.0
O432 O 0.52353 0.88801 0.40117 0.0
O433 O 0.51117 0.86249 0.42252 0.0
Co434 Co 0.87337 0.74907 0.14771 0.0
O435 O 0.85285 0.72884 0.15822 0.0
O436 O 0.85698 0.73786 0.12363 0.0
C437 C 0.86685 0.77483 0.17231 0.0
O438 O 0.89284 0.76971 0.13136 0.0
Co439 Co 0.91177 0.76111 0.1773 0.0
O440 O 0.91443 0.78515 0.15613 0.0
C441 C 0.91257 0.71988 0.1536 0.0
C442 C 0.84692 0.72658 0.13824 0.0
C443 C 0.90668 0.784 0.13707 0.0
O444 O 0.89493 0.72529 0.14435 0.0
O445 O 0.92148 0.73134 0.16836 0.0
O446 O 0.85474 0.77302 0.15532 0.0
O447 O 0.88088 0.75968 0.17503 0.0
Co448 Co 0.58934 0.00108 0.86479 0.0
O449 O 0.58008 0.02092 0.88655 0.0
O450 O 0.61409 0.01376 0.87896 0.0
C451 C 0.56765 0.97378 0.87383 0.0
O452 O 0.60423 0.98048 0.8438 0.0
Co453 Co 0.55596 0.98795 0.8296 0.0
O454 O 0.57786 0.9655 0.8237 0.0
C455 C 0.57554 0.03095 0.82796 0.0
C456 C 0.60017 0.02413 0.89074 0.0
C457 C 0.59726 0.96645 0.83009 0.0
O458 O 0.58879 0.02501 0.84275 0.0
O459 O 0.55989 0.01916 0.82163 0.0
O460 O 0.58535 0.97699 0.88438 0.0
O461 O 0.56233 0.98878 0.86026 0.0
Co462 Co 0.74841 0.84959 0.61911 0.0
O463 O 0.72963 0.83793 0.64052 0.0
O464 O 0.73559 0.87294 0.63566 0.0
C465 C 0.77591 0.8271 0.62532 0.0
O466 O 0.76735 0.86709 0.59867 0.0
Co467 Co 0.76095 0.82037 0.58034 0.0
O468 O 0.78345 0.84281 0.57687 0.0
C469 C 0.71863 0.84095 0.58058 0.0
C470 C 0.72561 0.8577 0.64618 0.0
C471 C 0.78154 0.86188 0.58449 0.0
O472 O 0.7241 0.85086 0.59798 0.0
O473 O 0.73061 0.82693 0.57128 0.0
O474 O 0.77306 0.84407 0.63739 0.0
O475 O 0.76076 0.82298 0.61162 0.0
Co476 Co 0.90557 0.99387 0.36544 0.0
O477 O 0.91468 0.97396 0.38721 0.0
O478 O 0.88072 0.9814 0.37965 0.0
C479 C 0.92749 0.02103 0.3744 0.0
O480 O 0.89083 0.01457 0.34443 0.0
Co481 Co 0.93903 0.00674 0.3302 0.0
O482 O 0.91736 0.02948 0.32448 0.0
C483 C 0.91903 0.96392 0.32852 0.0
C484 C 0.89457 0.97092 0.39143 0.0
C485 C 0.89794 0.02864 0.33082 0.0
O486 O 0.9059 0.96992 0.3434 0.0
O487 O 0.93475 0.9756 0.32216 0.0
O488 O 0.90979 0.01796 0.385 0.0
O489 O 0.93266 0.00596 0.36085 0.0
Co490 Co 0.74462 0.14465 0.11988 0.0
O491 O 0.76307 0.15631 0.14154 0.0
O492 O 0.75723 0.1213 0.13663 0.0
C493 C 0.7171 0.16722 0.12583 0.0
O494 O 0.72595 0.12717 0.0992 0.0
Co495 Co 0.73245 0.17394 0.08102 0.0
O496 O 0.71004 0.15146 0.07727 0.0
C497 C 0.77477 0.15329 0.08164 0.0
C498 C 0.76698 0.13656 0.14734 0.0
C499 C 0.71192 0.13238 0.08486 0.0
O500 O 0.76919 0.14339 0.09902 0.0
O501 O 0.76286 0.16733 0.07228 0.0
O502 O 0.71974 0.15019 0.13786 0.0
O503 O 0.73239 0.1713 0.11228 0.0
Co504 Co 0.58795 0.9933 0.63021 0.0
O505 O 0.57888 0.97339 0.60841 0.0
O506 O 0.61282 0.98072 0.6162 0.0
C507 C 0.56622 0.02052 0.62107 0.0
O508 O 0.6027 0.01395 0.65124 0.0
Co509 Co 0.55443 0.00645 0.66527 0.0
O510 O 0.57621 0.02906 0.67108 0.0
C511 C 0.57416 0.96352 0.66715 0.0
C512 C 0.59901 0.97029 0.60432 0.0
C513 C 0.59565 0.02809 0.66481 0.0
O514 O 0.58737 0.9694 0.65229 0.0
O515 O 0.5585 0.97531 0.67346 0.0
O516 O 0.58396 0.01736 0.61057 0.0
O517 O 0.56089 0.00552 0.63463 0.0
Co518 Co 0.74543 0.84977 0.37648 0.0
O519 O 0.76385 0.83803 0.3548 0.0
O520 O 0.75812 0.87306 0.35976 0.0
C521 C 0.71776 0.82736 0.37062 0.0
O522 O 0.72688 0.86741 0.3971 0.0
Co523 Co 0.73309 0.82072 0.41545 0.0
O524 O 0.71085 0.84337 0.41922 0.0
C525 C 0.77556 0.84106 0.41471 0.0
C526 C 0.76783 0.85779 0.34905 0.0
C527 C 0.71284 0.86238 0.4115 0.0
O528 O 0.77001 0.85094 0.39731 0.0
O529 O 0.76356 0.82714 0.42415 0.0
O530 O 0.72052 0.84434 0.35855 0.0
O531 O 0.73303 0.8232 0.38416 0.0
Co532 Co 0.90476 0.00124 0.12993 0.0
O533 O 0.91402 0.0209 0.10799 0.0
O534 O 0.88001 0.01373 0.1156 0.0
C535 C 0.92653 0.97389 0.12123 0.0
O536 O 0.88986 0.98084 0.15109 0.0
Co537 Co 0.93811 0.98849 0.16531 0.0
O538 O 0.91615 0.96616 0.17151 0.0
C539 C 0.91841 0.03145 0.16655 0.0
C540 C 0.89393 0.02404 0.10374 0.0
C541 C 0.89678 0.96702 0.16505 0.0
O542 O 0.90521 0.02538 0.15176 0.0
O543 O 0.93408 0.01975 0.17299 0.0
O544 O 0.90885 0.97695 0.1106 0.0
O545 O 0.93179 0.98905 0.13465 0.0
Co546 Co 0.74893 0.14573 0.87519 0.0
O547 O 0.73036 0.15723 0.85353 0.0
O548 O 0.73653 0.12228 0.85842 0.0
C549 C 0.77627 0.16858 0.86928 0.0
O550 O 0.76774 0.12836 0.89583 0.0
Co551 Co 0.76085 0.17498 0.91413 0.0
O552 O 0.78341 0.15267 0.91791 0.0
C553 C 0.71873 0.1539 0.9135 0.0
C554 C 0.72663 0.13744 0.84773 0.0
C555 C 0.78169 0.13361 0.91024 0.0
O556 O 0.72437 0.14416 0.89605 0.0
O557 O 0.73052 0.16801 0.92292 0.0
O558 O 0.77376 0.15155 0.85723 0.0
O559 O 0.76094 0.17249 0.88285 0.0
Co560 Co 0.86874 0.59701 0.99674 0.0
O561 O 0.8889 0.58654 0.01736 0.0
O562 O 0.88485 0.62109 0.00823 0.0
C563 C 0.87582 0.57254 0.97103 0.0
O564 O 0.84972 0.61335 0.97571 0.0
Co565 Co 0.83058 0.56759 0.98384 0.0
O566 O 0.8287 0.58858 0.95956 0.0
C567 C 0.82891 0.59121 0.02511 0.0
C568 C 0.89479 0.60652 0.01965 0.0
C569 C 0.83639 0.60763 0.96094 0.0
O570 O 0.84673 0.60032 0.02012 0.0
O571 O 0.82012 0.57659 0.01338 0.0
O572 O 0.88785 0.58954 0.97316 0.0
O573 O 0.86147 0.56971 0.9859 0.0
Co574 Co 0.371 0.89744 -0.00132 0.0
O575 O 0.39135 0.9082 0.9784 0.0
O576 O 0.38766 0.8736 0.98743 0.0
C577 C 0.37735 0.92209 0.02446 0.0
O578 O 0.35183 0.88083 0.01939 0.0
Co579 Co 0.33231 0.92647 0.01104 0.0
O580 O 0.33009 0.90527 0.0351 0.0
C581 C 0.33153 0.90276 0.96975 0.0
C582 C 0.39757 0.88832 0.97617 0.0
C583 C 0.33805 0.88632 0.03382 0.0
O584 O 0.34937 0.89379 0.97497 0.0
O585 O 0.32253 0.91738 0.98131 0.0
O586 O 0.38963 0.90525 0.02259 0.0
O587 O 0.36321 0.92464 0.00936 0.0
Co588 Co 0.84001 0.61586 0.74299 0.0
O589 O 0.83038 0.63737 0.72302 0.0
O590 O 0.86449 0.63062 0.73048 0.0
C591 C 0.81786 0.62435 0.77018 0.0
O592 O 0.85534 0.59533 0.76371 0.0
Co593 Co 0.80749 0.57986 0.75614 0.0
O594 O 0.82955 0.57439 0.77856 0.0
C595 C 0.82742 0.57852 0.71322 0.0
C596 C 0.85039 0.64207 0.71998 0.0
C597 C 0.84876 0.58134 0.77765 0.0
O598 O 0.84021 0.59375 0.71908 0.0
O599 O 0.81187 0.57187 0.72498 0.0
O600 O 0.83531 0.63534 0.76708 0.0
O601 O 0.81303 0.61063 0.75515 0.0
Co602 Co 0.12357 0.09719 0.49776 0.0
O603 O 0.10291 0.08657 0.47775 0.0
O604 O 0.10707 0.12118 0.48651 0.0
C605 C 0.1172 0.07278 0.52375 0.0
O606 O 0.14318 0.11361 0.5182 0.0
Co607 Co 0.16202 0.06762 0.50961 0.0
O608 O 0.16483 0.08885 0.53358 0.0
C609 C 0.16262 0.09128 0.46832 0.0
C610 C 0.09691 0.1065 0.47541 0.0
C611 C 0.1571 0.1079 0.53243 0.0
O612 O 0.14497 0.10047 0.47378 0.0
O613 O 0.17159 0.07655 0.47976 0.0
O614 O 0.10509 0.08975 0.5219 0.0
O615 O 0.13112 0.06995 0.50848 0.0
Co616 Co 0.15526 0.88136 0.74411 0.0
O617 O 0.16434 0.85969 0.7241 0.0
O618 O 0.13039 0.86748 0.73133 0.0
C619 C 0.1769 0.87193 0.77134 0.0
O620 O 0.14056 0.90235 0.76487 0.0
Co621 Co 0.18895 0.91613 0.75752 0.0
O622 O 0.16714 0.92195 0.78011 0.0
C623 C 0.16931 0.91834 0.71453 0.0
C624 C 0.14422 0.85567 0.72086 0.0
C625 C 0.14766 0.91582 0.77908 0.0
O626 O 0.15601 0.90354 0.72032 0.0
O627 O 0.18498 0.9245 0.72639 0.0
O628 O 0.15909 0.86159 0.76809 0.0
O629 O 0.18231 0.88558 0.75643 0.0
Co630 Co 0.62375 0.39658 0.4966 0.0
O631 O 0.60392 0.40762 0.51727 0.0
O632 O 0.6071 0.37296 0.5083 0.0
C633 C 0.61708 0.4212 0.47085 0.0
O634 O 0.64227 0.37966 0.47557 0.0
Co635 Co 0.66245 0.42508 0.4831 0.0
O636 O 0.66374 0.4038 0.45904 0.0
C637 C 0.66394 0.40166 0.52454 0.0
C638 C 0.59752 0.38781 0.51967 0.0
C639 C 0.65566 0.38493 0.46069 0.0
O640 O 0.64587 0.39285 0.51986 0.0
O641 O 0.67283 0.41607 0.51263 0.0
O642 O 0.60469 0.40448 0.47305 0.0
O643 O 0.63159 0.42365 0.48561 0.0
Co644 Co 0.84043 0.38028 0.75054 0.0
O645 O 0.83093 0.35902 0.77083 0.0
O646 O 0.86502 0.36616 0.76358 0.0
C647 C 0.81866 0.37085 0.72338 0.0
O648 O 0.85559 0.40073 0.72958 0.0
Co649 Co 0.80742 0.41544 0.73644 0.0
O650 O 0.82946 0.42061 0.71392 0.0
C651 C 0.82697 0.41797 0.77948 0.0
C652 C 0.85097 0.35471 0.77416 0.0
C653 C 0.84882 0.41415 0.71517 0.0
O654 O 0.84001 0.40281 0.77402 0.0
O655 O 0.81147 0.4242 0.76745 0.0
O656 O 0.83628 0.36025 0.72681 0.0
O657 O 0.81348 0.3848 0.73808 0.0
Co658 Co 0.6549 0.61567 0.25254 0.0
O659 O 0.66414 0.63709 0.27276 0.0
O660 O 0.63014 0.6298 0.26522 0.0
C661 C 0.67688 0.62502 0.22553 0.0
O662 O 0.63999 0.59504 0.23159 0.0
Co663 Co 0.68813 0.58052 0.23905 0.0
O664 O 0.66622 0.57485 0.21652 0.0
C665 C 0.66819 0.57826 0.28193 0.0
C666 C 0.64405 0.64139 0.27583 0.0
C667 C 0.64687 0.58135 0.21749 0.0
O668 O 0.65514 0.5933 0.27619 0.0
O669 O 0.68386 0.57202 0.27011 0.0
O670 O 0.65918 0.63556 0.22873 0.0
O671 O 0.68198 0.61116 0.24035 0.0
Co672 Co 0.49604 0.62573 0.90039 0.0
O673 O 0.47779 0.6033 0.91071 0.0
O674 O 0.48484 0.60963 0.87602 0.0
C675 C 0.52312 0.61965 0.92312 0.0
O676 O 0.5148 0.64745 0.88439 0.0
Co677 Co 0.50606 0.66366 0.93152 0.0
O678 O 0.52948 0.66839 0.91029 0.0
C679 C 0.46461 0.66273 0.90925 0.0
C680 C 0.47501 0.59807 0.8906 0.0
C681 C 0.52855 0.66156 0.89083 0.0
O682 O 0.47107 0.64589 0.89906 0.0
O683 O 0.47571 0.67199 0.92403 0.0
O684 O 0.52099 0.60819 0.90566 0.0
O685 O 0.50737 0.63255 0.92766 0.0
Co686 Co 0.62048 0.24868 0.14928 0.0
O687 O 0.6417 0.22937 0.16042 0.0
O688 O 0.63562 0.23515 0.12549 0.0
C689 C 0.62801 0.27697 0.17066 0.0
O690 O 0.60006 0.26796 0.13226 0.0
Co691 Co 0.58352 0.26261 0.17966 0.0
O692 O 0.58025 0.28538 0.15725 0.0
C693 C 0.58145 0.21998 0.15897 0.0
C694 C 0.64648 0.22513 0.14044 0.0
C695 C 0.58685 0.28292 0.13787 0.0
O696 O 0.59894 0.22465 0.14909 0.0
O697 O 0.5728 0.23257 0.17293 0.0
O698 O 0.63931 0.27317 0.15342 0.0
O699 O 0.6144 0.26202 0.17594 0.0
Co700 Co 0.99712 0.37036 0.39749 0.0
O701 O 0.01566 0.39225 0.40842 0.0
O702 O 0.00867 0.38686 0.37356 0.0
C703 C 0.97003 0.37642 0.42027 0.0
O704 O 0.97809 0.34934 0.3809 0.0
Co705 Co 0.98614 0.33195 0.42772 0.0
O706 O 0.96272 0.32827 0.40628 0.0
C707 C 0.0278 0.33259 0.40576 0.0
C708 C 0.01854 0.39797 0.38845 0.0
C709 C 0.96397 0.33544 0.38697 0.0
O710 O 0.02177 0.34977 0.39585 0.0
O711 O 0.01639 0.32328 0.42028 0.0
O712 O 0.9724 0.38821 0.40306 0.0
O713 O 0.98553 0.36314 0.42455 0.0
Co714 Co 0.87375 0.74704 0.6483 0.0
O715 O 0.85255 0.76632 0.65952 0.0
O716 O 0.85849 0.76052 0.62457 0.0
C717 C 0.86624 0.71879 0.66978 0.0
O718 O 0.89413 0.72779 0.63119 0.0
Co719 Co 0.91079 0.73297 0.67852 0.0
O720 O 0.91402 0.71028 0.65604 0.0
C721 C 0.91286 0.77566 0.65786 0.0
C722 C 0.84763 0.77049 0.63956 0.0
C723 C 0.90736 0.71282 0.63669 0.0
O724 O 0.89531 0.77108 0.64803 0.0
O725 O 0.9215 0.76301 0.67177 0.0
O726 O 0.85494 0.72254 0.65255 0.0
O727 O 0.87991 0.73371 0.67496 0.0
Co728 Co 0.49722 0.36963 0.59713 0.0
O729 O 0.47855 0.39156 0.5865 0.0
O730 O 0.48612 0.38619 0.62123 0.0
C731 C 0.52397 0.37562 0.57393 0.0
O732 O 0.5165 0.34861 0.61342 0.0
Co733 Co 0.50761 0.33116 0.56681 0.0
O734 O 0.53143 0.32753 0.5878 0.0
C735 C 0.46636 0.33184 0.58954 0.0
C736 C 0.47605 0.39734 0.6065 0.0
C737 C 0.53054 0.33473 0.60712 0.0
O738 O 0.47256 0.34908 0.59925 0.0
O739 O 0.4775 0.32247 0.57487 0.0
O740 O 0.52185 0.38744 0.59115 0.0
O741 O 0.50838 0.36236 0.56988 0.0
Co742 Co 0.87329 0.24994 0.84635 0.0
O743 O 0.85188 0.2309 0.83506 0.0
O744 O 0.85786 0.2365 0.87002 0.0
C745 C 0.86618 0.27835 0.82495 0.0
O746 O 0.89389 0.26894 0.8635 0.0
Co747 Co 0.91051 0.26357 0.81609 0.0
O748 O 0.9141 0.28613 0.83867 0.0
C749 C 0.91198 0.22081 0.8366 0.0
C750 C 0.84696 0.22664 0.855 0.0
C751 C 0.90738 0.2837 0.85801 0.0
O752 O 0.89457 0.22566 0.84654 0.0
O753 O 0.92076 0.23334 0.82266 0.0
O754 O 0.85478 0.27469 0.84214 0.0
O755 O 0.87964 0.26326 0.81974 0.0
Co756 Co 0.99614 0.62568 0.09522 0.0
O757 O 0.01409 0.60308 0.08475 0.0
O758 O 0.00757 0.60963 0.1195 0.0
C759 C 0.96869 0.61966 0.07293 0.0
O760 O 0.97773 0.64756 0.11137 0.0
Co761 Co 0.9859 0.66351 0.06404 0.0
O762 O 0.96272 0.66833 0.08553 0.0
C763 C 0.02767 0.66243 0.08566 0.0
C764 C 0.01711 0.59794 0.10485 0.0
C765 C 0.9639 0.66163 0.10502 0.0
O766 O 0.02126 0.64569 0.09606 0.0
O767 O 0.01641 0.67169 0.07101 0.0
O768 O 0.97098 0.60826 0.09042 0.0
O769 O 0.98446 0.63243 0.06809 0.0
Co770 Co 0.62064 0.74659 0.34683 0.0
O771 O 0.64213 0.76574 0.33592 0.0
O772 O 0.63562 0.76006 0.37078 0.0
C773 C 0.62822 0.71825 0.32557 0.0
O774 O 0.59986 0.72745 0.3636 0.0
Co775 Co 0.58398 0.73294 0.31593 0.0
O776 O 0.58021 0.71023 0.33833 0.0
C777 C 0.58204 0.77563 0.33648 0.0
C778 C 0.64671 0.76999 0.35594 0.0
C779 C 0.5866 0.7126 0.35779 0.0
O780 O 0.59929 0.77078 0.34671 0.0
O781 O 0.57351 0.76312 0.32238 0.0
O782 O 0.63934 0.72196 0.34294 0.0
O783 O 0.61479 0.73328 0.32012 0.0
Co784 Co 0.89232 0.50389 0.62307 0.0
O785 O 0.90214 0.5279 0.60642 0.0
O786 O 0.91687 0.51709 0.63722 0.0
C787 C 0.88886 0.48146 0.59476 0.0
O788 O 0.88652 0.47916 0.64414 0.0
Co789 Co 0.84679 0.48555 0.6151 0.0
O790 O 0.85871 0.46029 0.63085 0.0
C791 C 0.85207 0.52475 0.64173 0.0
C792 C 0.91689 0.53049 0.62094 0.0
C793 C 0.87429 0.46238 0.64402 0.0
O794 O 0.87249 0.52319 0.63968 0.0
O795 O 0.83883 0.51189 0.63248 0.0
O796 O 0.9074 0.48403 0.60399 0.0
O797 O 0.8736 0.49373 0.60172 0.0
Co798 Co 0.7469 0.64814 0.87463 0.0
O799 O 0.76519 0.65839 0.85219 0.0
O800 O 0.75805 0.62375 0.85844 0.0
C801 C 0.71994 0.671 0.86852 0.0
O802 O 0.72804 0.63235 0.89647 0.0
Co803 Co 0.73716 0.67959 0.91246 0.0
O804 O 0.71368 0.65848 0.91737 0.0
C805 C 0.77842 0.65698 0.9116 0.0
C806 C 0.76795 0.63832 0.84692 0.0
C807 C 0.71443 0.63899 0.91066 0.0
O808 O 0.77187 0.64672 0.89482 0.0
O809 O 0.76746 0.67193 0.92074 0.0
O810 O 0.72194 0.65353 0.85706 0.0
O811 O 0.73574 0.67545 0.88139 0.0
Co812 Co 0.60387 0.49189 0.12467 0.0
O813 O 0.59411 0.46799 0.10782 0.0
O814 O 0.57939 0.47847 0.13874 0.0
C815 C 0.60715 0.51461 0.09656 0.0
O816 O 0.60962 0.51644 0.14597 0.0
Co817 Co 0.64928 0.51052 0.11681 0.0
O818 O 0.63731 0.53559 0.1328 0.0
C819 C 0.64424 0.47111 0.14317 0.0
C820 C 0.57938 0.46522 0.12234 0.0
C821 C 0.62176 0.53329 0.14599 0.0
O822 O 0.62382 0.47253 0.14105 0.0
O823 O 0.65742 0.48416 0.13411 0.0
O824 O 0.58867 0.51185 0.10585 0.0
O825 O 0.6225 0.50235 0.10334 0.0
Co826 Co 0.74611 0.34533 0.37615 0.0
O827 O 0.72851 0.33483 0.35326 0.0
O828 O 0.73473 0.36956 0.35999 0.0
C829 C 0.77376 0.32324 0.37037 0.0
O830 O 0.76416 0.36152 0.39833 0.0
Co831 Co 0.75604 0.31417 0.41405 0.0
O832 O 0.77904 0.33574 0.41925 0.0
C833 C 0.7142 0.3356 0.41257 0.0
C834 C 0.72545 0.3549 0.3481 0.0
C835 C 0.77785 0.35521 0.41256 0.0
O836 O 0.72073 0.34598 0.39586 0.0
O837 O 0.72544 0.32102 0.42196 0.0
O838 O 0.77148 0.34076 0.35904 0.0
O839 O 0.75788 0.31823 0.38295 0.0
Co840 Co 0.89053 0.49221 0.87083 0.0
O841 O 0.89981 0.46806 0.8876 0.0
O842 O 0.91521 0.47885 0.85712 0.0
C843 C 0.88681 0.51456 0.89915 0.0
O844 O 0.88541 0.51699 0.84965 0.0
Co845 Co 0.84517 0.51122 0.87784 0.0
O846 O 0.85769 0.53635 0.86237 0.0
C847 C 0.85043 0.472 0.85121 0.0
C848 C 0.91483 0.46542 0.87337 0.0
C849 C 0.87345 0.53396 0.84948 0.0
O850 O 0.87081 0.47317 0.85381 0.0
O851 O 0.83719 0.48512 0.86008 0.0
O852 O 0.90546 0.51184 0.89019 0.0
O853 O 0.87151 0.50252 0.89186 0.0
Co854 Co 0.74605 0.64997 0.11997 0.0
O855 O 0.72845 0.66055 0.14285 0.0
O856 O 0.73493 0.62581 0.13644 0.0
C857 C 0.77353 0.67242 0.1254 0.0
O858 O 0.7641 0.63368 0.09789 0.0
Co859 Co 0.75576 0.68085 0.08171 0.0
O860 O 0.77872 0.65925 0.0765 0.0
C861 C 0.7141 0.65897 0.08343 0.0
C862 C 0.72559 0.6405 0.14824 0.0
C863 C 0.77761 0.63985 0.08341 0.0
O864 O 0.72063 0.64888 0.10033 0.0
O865 O 0.72524 0.67354 0.07391 0.0
O866 O 0.77147 0.655 0.13693 0.0
O867 O 0.75757 0.67709 0.11283 0.0
Co868 Co 0.6036 0.50315 0.3717 0.0
O869 O 0.59374 0.52705 0.38849 0.0
O870 O 0.57912 0.51648 0.35756 0.0
C871 C 0.60688 0.48046 0.39983 0.0
O872 O 0.60948 0.47858 0.35045 0.0
Co873 Co 0.64907 0.48472 0.37971 0.0
O874 O 0.63723 0.4596 0.3637 0.0
C875 C 0.64397 0.52405 0.35324 0.0
C876 C 0.57904 0.52975 0.37394 0.0
C877 C 0.6217 0.46179 0.35048 0.0
O878 O 0.62354 0.52256 0.35531 0.0
O879 O 0.65717 0.51107 0.36238 0.0
O880 O 0.58841 0.48316 0.39052 0.0
O881 O 0.62221 0.49278 0.39307 0.0
Co882 Co 0.74908 0.34485 0.61851 0.0
O883 O 0.76708 0.33479 0.64127 0.0
O884 O 0.76014 0.36937 0.6345 0.0
C885 C 0.72186 0.32228 0.62456 0.0
O886 O 0.73051 0.36055 0.59639 0.0
Co887 Co 0.73963 0.31332 0.58081 0.0
O888 O 0.7161 0.33431 0.5757 0.0
C889 C 0.78093 0.3358 0.58184 0.0
C890 C 0.76983 0.35493 0.64633 0.0
C891 C 0.71687 0.35384 0.58228 0.0
O892 O 0.77428 0.346 0.5986 0.0
O893 O 0.76997 0.32094 0.57254 0.0
O894 O 0.72396 0.33985 0.63584 0.0
O895 O 0.73776 0.3175 0.61191 0.0
Co896 Co 0.62362 0.89986 0.49889 0.0
O897 O 0.60218 0.91098 0.47978 0.0
O898 O 0.60869 0.8761 0.48514 0.0
C899 C 0.61593 0.92081 0.52746 0.0
O900 O 0.6443 0.88283 0.51785 0.0
Co901 Co 0.6603 0.9304 0.51318 0.0
O902 O 0.66398 0.90769 0.53558 0.0
C903 C 0.66252 0.91024 0.47025 0.0
C904 C 0.59759 0.89101 0.47537 0.0
C905 C 0.65756 0.88831 0.53282 0.0
O906 O 0.64507 0.90021 0.47476 0.0
O907 O 0.67109 0.92405 0.48306 0.0
O908 O 0.60485 0.90349 0.52352 0.0
O909 O 0.62946 0.92641 0.51254 0.0
Co910 Co 0.12472 0.59635 0.49723 0.0
O911 O 0.1027 0.5859 0.51599 0.0
O912 O 0.10974 0.6206 0.51012 0.0
C913 C 0.11756 0.57497 0.46887 0.0
O914 O 0.14614 0.61261 0.47838 0.0
Co915 Co 0.1613 0.56488 0.48499 0.0
O916 O 0.16591 0.58687 0.46205 0.0
C917 C 0.1625 0.58602 0.52741 0.0
C918 C 0.09829 0.60599 0.51997 0.0
C919 C 0.15968 0.60642 0.46395 0.0
O920 O 0.14547 0.59628 0.52195 0.0
O921 O 0.17121 0.57167 0.51533 0.0
O922 O 0.10658 0.59249 0.47221 0.0
O923 O 0.13053 0.56943 0.48431 0.0
Co924 Co 0.63904 0.87321 0.74071 0.0
O925 O 0.64866 0.85664 0.71652 0.0
O926 O 0.66333 0.88748 0.72723 0.0
C927 C 0.63603 0.84494 0.76324 0.0
O928 O 0.63353 0.89433 0.76545 0.0
Co929 Co 0.5939 0.86523 0.75993 0.0
O930 O 0.606 0.88131 0.78491 0.0
C931 C 0.59842 0.89176 0.72054 0.0
C932 C 0.66331 0.87124 0.71379 0.0
C933 C 0.62155 0.89445 0.78241 0.0
O934 O 0.61886 0.88966 0.72166 0.0
O935 O 0.58542 0.88265 0.73375 0.0
O936 O 0.65447 0.85428 0.76038 0.0
O937 O 0.62053 0.8518 0.7512 0.0
Co938 Co 0.3705 0.39753 0.99657 0.0
O939 O 0.39156 0.40871 0.01603 0.0
O940 O 0.38594 0.37381 0.00986 0.0
C941 C 0.37788 0.41933 0.96856 0.0
O942 O 0.35026 0.38053 0.97704 0.0
Co943 Co 0.33329 0.4277 0.98286 0.0
O944 O 0.33028 0.40551 0.95983 0.0
C945 C 0.33142 0.40665 0.02537 0.0
C946 C 0.39664 0.38878 0.02002 0.0
C947 C 0.33704 0.38619 0.96209 0.0
O948 O 0.34892 0.39685 0.02059 0.0
O949 O 0.32274 0.42071 0.01292 0.0
O950 O 0.38932 0.40217 0.97214 0.0
O951 O 0.36417 0.42425 0.98354 0.0
Co952 Co 0.3546 0.62103 0.74191 0.0
O953 O 0.34532 0.63788 0.71779 0.0
O954 O 0.33027 0.6071 0.72816 0.0
C955 C 0.35767 0.64909 0.76466 0.0
O956 O 0.35976 0.59972 0.76656 0.0
Co957 Co 0.39968 0.62851 0.76146 0.0
O958 O 0.3871 0.61265 0.78634 0.0
C959 C 0.39521 0.60236 0.72182 0.0
C960 C 0.33055 0.62345 0.71486 0.0
C961 C 0.37152 0.59959 0.78369 0.0
O962 O 0.37478 0.60456 0.72288 0.0
O963 O 0.4082 0.6113 0.73516 0.0
O964 O 0.33917 0.63993 0.76161 0.0
O965 O 0.3732 0.6422 0.75267 0.0
Co966 Co 0.87001 0.09588 -0.00095 0.0
O967 O 0.89155 0.08511 0.97989 0.0
O968 O 0.88506 0.11989 0.98582 0.0
C969 C 0.87752 0.07439 0.02728 0.0
O970 O 0.84918 0.1125 0.01825 0.0
Co971 Co 0.83326 0.065 0.01233 0.0
O972 O 0.82944 0.08717 0.03525 0.0
C973 C 0.83146 0.0859 0.96976 0.0
C974 C 0.89618 0.10514 0.97582 0.0
C975 C 0.83586 0.10662 0.03302 0.0
O976 O 0.84875 0.09598 0.97475 0.0
O977 O 0.82283 0.07175 0.98216 0.0
O978 O 0.88861 0.09179 0.02372 0.0
O979 O 0.8641 0.06906 0.01216 0.0
Co980 Co 0.63971 0.1211 0.75369 0.0
O981 O 0.64989 0.1378 0.77752 0.0
O982 O 0.66414 0.10674 0.76689 0.0
C983 C 0.63664 0.14926 0.73105 0.0
O984 O 0.63349 0.09989 0.72918 0.0
Co985 Co 0.59429 0.12954 0.73541 0.0
O986 O 0.60575 0.11326 0.71027 0.0
C987 C 0.59928 0.103 0.77472 0.0
C988 C 0.6645 0.12316 0.78011 0.0
C989 C 0.62115 0.09991 0.71247 0.0
O990 O 0.61972 0.10497 0.77323 0.0
O991 O 0.58612 0.11219 0.76174 0.0
O992 O 0.655 0.13969 0.7336 0.0
O993 O 0.62127 0.14268 0.74342 0.0
Co994 Co 0.85413 0.87389 0.25439 0.0
O995 O 0.84427 0.85709 0.27832 0.0
O996 O 0.82976 0.88808 0.2678 0.0
C997 C 0.85724 0.84582 0.23163 0.0
O998 O 0.85993 0.89518 0.22987 0.0
Co999 Co 0.89943 0.8659 0.23557 0.0
O1000 O 0.88753 0.88209 0.21057 0.0
C1001 C 0.89463 0.89222 0.27507 0.0
C1002 C 0.82963 0.87169 0.28106 0.0
C1003 C 0.87203 0.89528 0.21299 0.0
O1004 O 0.87419 0.89015 0.27376 0.0
O1005 O 0.90772 0.88314 0.26192 0.0
O1006 O 0.83881 0.85519 0.23442 0.0
O1007 O 0.87265 0.85251 0.24388 0.0
Co1008 Co 0.49597 0.36935 0.09931 0.0
O1009 O 0.5144 0.3912 0.08792 0.0
O1010 O 0.50841 0.38593 0.12289 0.0
C1011 C 0.46845 0.37529 0.07673 0.0
O1012 O 0.4773 0.34847 0.11655 0.0
Co1013 Co 0.48411 0.3307 0.06962 0.0
O1014 O 0.46156 0.32674 0.09195 0.0
C1015 C 0.52632 0.33135 0.09049 0.0
C1016 C 0.51818 0.39682 0.10777 0.0
C1017 C 0.4633 0.33418 0.11112 0.0
O1018 O 0.52062 0.34861 0.1005 0.0
O1019 O 0.51452 0.32204 0.07632 0.0
O1020 O 0.47104 0.38723 0.09384 0.0
O1021 O 0.48384 0.3619 0.07255 0.0
Co1022 Co 0.37343 0.74621 0.84817 0.0
O1023 O 0.35314 0.76642 0.83724 0.0
O1024 O 0.3568 0.75764 0.87194 0.0
C1025 C 0.36705 0.7203 0.82369 0.0
O1026 O 0.39252 0.72561 0.86497 0.0
Co1027 Co 0.41212 0.73355 0.81924 0.0
O1028 O 0.41419 0.70963 0.84062 0.0
C1029 C 0.41292 0.77503 0.84253 0.0
C1030 C 0.3469 0.76878 0.85712 0.0
C1031 C 0.40621 0.71107 0.85957 0.0
O1032 O 0.39511 0.7699 0.85163 0.0
O1033 O 0.42189 0.76335 0.828 0.0
O1034 O 0.35475 0.7223 0.84053 0.0
O1035 O 0.38123 0.73534 0.82105 0.0
Co1036 Co -0.00079 0.62749 0.59902 0.0
O1037 O 0.98122 0.60543 0.58739 0.0
O1038 O 0.98661 0.61081 0.62244 0.0
C1039 C 0.02709 0.62168 0.57686 0.0
O1040 O 0.01742 0.64857 0.61652 0.0
Co1041 Co 0.01118 0.66619 0.56954 0.0
O1042 O 0.0334 0.67038 0.59216 0.0
C1043 C 0.96864 0.66518 0.5897 0.0
C1044 C 0.97725 0.59975 0.60718 0.0
C1045 C 0.03141 0.66294 0.61131 0.0
O1046 O 0.97434 0.64796 0.59979 0.0
O1047 O 0.9806 0.67463 0.57575 0.0
O1048 O 0.02437 0.60986 0.59403 0.0
O1049 O 0.01168 0.63496 0.57238 0.0
Co1050 Co 0.12111 0.24936 0.34682 0.0
O1051 O 0.14208 0.22971 0.33617 0.0
O1052 O 0.13765 0.23816 0.37084 0.0
C1053 C 0.12726 0.27554 0.32256 0.0
O1054 O 0.10114 0.26948 0.36324 0.0
Co1055 Co 0.08269 0.26091 0.31699 0.0
O1056 O 0.0796 0.28476 0.3383 0.0
C1057 C 0.08258 0.21939 0.34021 0.0
C1058 C 0.14801 0.2273 0.35613 0.0
C1059 C 0.08719 0.28363 0.35743 0.0
O1060 O 0.09998 0.22509 0.34977 0.0
O1061 O 0.07363 0.2308 0.32544 0.0
O1062 O 0.13931 0.27378 0.3396 0.0
O1063 O 0.11357 0.26011 0.31959 0.0
Co1064 Co 0.49563 0.62573 0.39646 0.0
O1065 O 0.51415 0.60404 0.40798 0.0
O1066 O 0.50808 0.60902 0.37299 0.0
C1067 C 0.46819 0.61978 0.41918 0.0
O1068 O 0.47687 0.64639 0.37907 0.0
Co1069 Co 0.48356 0.66454 0.42582 0.0
O1070 O 0.46103 0.66828 0.40345 0.0
C1071 C 0.52578 0.66398 0.4049 0.0
C1072 C 0.5179 0.59826 0.38817 0.0
C1073 C 0.46283 0.6607 0.38434 0.0
O1074 O 0.52019 0.64657 0.39506 0.0
O1075 O 0.51392 0.67334 0.419 0.0
O1076 O 0.47078 0.60777 0.40212 0.0
O1077 O 0.4835 0.63331 0.42321 0.0
Co1078 Co 0.12044 0.74497 0.14579 0.0
O1079 O 0.14103 0.76485 0.15677 0.0
O1080 O 0.13728 0.75625 0.12204 0.0
C1081 C 0.12649 0.71895 0.17028 0.0
O1082 O 0.10102 0.72468 0.12897 0.0
Co1083 Co 0.08161 0.73288 0.17476 0.0
O1084 O 0.07915 0.70903 0.15336 0.0
C1085 C 0.08149 0.77447 0.15164 0.0
C1086 C 0.14729 0.76724 0.13691 0.0
C1087 C 0.08711 0.71036 0.13439 0.0
O1088 O 0.09913 0.76901 0.14241 0.0
O1089 O 0.07239 0.76291 0.1662 0.0
O1090 O 0.13875 0.72075 0.1534 0.0
O1091 O 0.11253 0.73418 0.17293 0.0
Co1092 Co -0.00163 0.36995 0.89697 0.0
O1093 O 0.97981 0.39169 0.90832 0.0
O1094 O 0.98596 0.38645 0.87336 0.0
C1095 C 0.02582 0.37601 0.91962 0.0
O1096 O 0.01714 0.34921 0.87972 0.0
Co1097 Co 0.01036 0.33127 0.9265 0.0
O1098 O 0.03297 0.32745 0.90421 0.0
C1099 C 0.96818 0.33174 0.90556 0.0
C1100 C 0.97608 0.39727 0.88844 0.0
C1101 C 0.03119 0.33495 0.88507 0.0
O1102 O 0.97381 0.3491 0.89567 0.0
O1103 O 0.98002 0.3224 0.91969 0.0
O1104 O 0.02321 0.38794 0.90251 0.0
O1105 O 0.01049 0.36251 0.92376 0.0
Co1106 Co 0.37333 0.24862 0.64904 0.0
O1107 O 0.35239 0.22884 0.65953 0.0
O1108 O 0.35702 0.23738 0.62489 0.0
C1109 C 0.36693 0.27474 0.67325 0.0
O1110 O 0.39331 0.26884 0.63275 0.0
Co1111 Co 0.41154 0.26024 0.67905 0.0
O1112 O 0.41474 0.28413 0.65778 0.0
C1113 C 0.41197 0.21883 0.65569 0.0
C1114 C 0.34662 0.22643 0.63952 0.0
C1115 C 0.40723 0.28301 0.63862 0.0
O1116 O 0.39455 0.22447 0.64616 0.0
O1117 O 0.42087 0.23024 0.67049 0.0
O1118 O 0.35498 0.27292 0.65614 0.0
O1119 O 0.38067 0.25938 0.67633 0.0
Co1120 Co 0.08975 0.50226 0.36645 0.0
O1121 O 0.08118 0.52206 0.3885 0.0
O1122 O 0.11496 0.51434 0.38033 0.0
C1123 C 0.06768 0.47527 0.37554 0.0
O1124 O 0.10391 0.48162 0.345 0.0
Co1125 Co 0.0555 0.49007 0.3317 0.0
O1126 O 0.07701 0.46744 0.32504 0.0
C1127 C 0.0758 0.53275 0.3302 0.0
C1128 C 0.10138 0.52489 0.39237 0.0
C1129 C 0.09651 0.46796 0.33114 0.0
O1130 O 0.08928 0.52641 0.34462 0.0
O1131 O 0.05978 0.52132 0.32414 0.0
O1132 O 0.08558 0.47802 0.38588 0.0
O1133 O 0.06248 0.49051 0.36221 0.0
Co1134 Co 0.24823 0.34809 0.12023 0.0
O1135 O 0.22977 0.33704 0.14222 0.0
O1136 O 0.23586 0.37189 0.13649 0.0
C1137 C 0.27567 0.32552 0.12644 0.0
O1138 O 0.26696 0.36498 0.09912 0.0
Co1139 Co 0.25989 0.31793 0.08188 0.0
O1140 O 0.28255 0.34008 0.07765 0.0
C1141 C 0.21781 0.33904 0.08227 0.0
C1142 C 0.22601 0.35696 0.14756 0.0
C1143 C 0.28092 0.35932 0.08487 0.0
O1144 O 0.22359 0.34914 0.09947 0.0
O1145 O 0.22953 0.32474 0.07306 0.0
O1146 O 0.27315 0.34275 0.1382 0.0
O1147 O 0.26026 0.32123 0.11309 0.0
Co1148 Co 0.40427 0.49375 0.86667 0.0
O1149 O 0.41375 0.47393 0.88835 0.0
O1150 O 0.37966 0.48088 0.8809 0.0
C1151 C 0.42588 0.52115 0.87565 0.0
O1152 O 0.38916 0.51424 0.84577 0.0
Co1153 Co 0.43747 0.50716 0.83137 0.0
O1154 O 0.41523 0.5292 0.82524 0.0
C1155 C 0.41817 0.46403 0.82978 0.0
C1156 C 0.3937 0.47055 0.89259 0.0
C1157 C 0.39588 0.52814 0.8318 0.0
O1158 O 0.40488 0.46987 0.84458 0.0
O1159 O 0.43376 0.47591 0.82348 0.0
O1160 O 0.40823 0.51786 0.88628 0.0
O1161 O 0.43118 0.5062 0.86203 0.0
Co1162 Co 0.24556 0.64677 0.62054 0.0
O1163 O 0.26478 0.65818 0.64169 0.0
O1164 O 0.25824 0.62326 0.6369 0.0
C1165 C 0.21845 0.66967 0.62711 0.0
O1166 O 0.22621 0.6294 0.60046 0.0
Co1167 Co 0.23257 0.67589 0.58185 0.0
O1168 O 0.20984 0.65361 0.57881 0.0
C1169 C 0.27475 0.65491 0.58144 0.0
C1170 C 0.26854 0.63833 0.64731 0.0
C1171 C 0.21182 0.63457 0.58647 0.0
O1172 O 0.26956 0.64517 0.59903 0.0
O1173 O 0.26269 0.66896 0.57229 0.0
O1174 O 0.22123 0.65268 0.63916 0.0
O1175 O 0.23342 0.67352 0.61313 0.0
Co1176 Co 0.08859 0.49435 0.12933 0.0
O1177 O 0.07977 0.47436 0.10753 0.0
O1178 O 0.11363 0.48185 0.11549 0.0
C1179 C 0.0667 0.52136 0.11996 0.0
O1180 O 0.10303 0.51509 0.15051 0.0
Co1181 Co 0.05463 0.50722 0.16407 0.0
O1182 O 0.0763 0.52981 0.17033 0.0
C1183 C 0.07453 0.46438 0.16595 0.0
C1184 C 0.09993 0.47127 0.10362 0.0
C1185 C 0.09579 0.52902 0.1642 0.0
O1186 O 0.08798 0.47045 0.1514 0.0
O1187 O 0.05868 0.47602 0.17202 0.0
O1188 O 0.08457 0.51838 0.10963 0.0
O1189 O 0.06143 0.50634 0.13353 0.0
Co1190 Co 0.24569 0.34904 0.87568 0.0
O1191 O 0.26384 0.33784 0.85352 0.0
O1192 O 0.25814 0.37274 0.85928 0.0
C1193 C 0.21803 0.32669 0.86962 0.0
O1194 O 0.22727 0.36608 0.89694 0.0
Co1195 Co 0.23398 0.31894 0.91406 0.0
O1196 O 0.21152 0.34126 0.91841 0.0
C1197 C 0.27631 0.33955 0.91334 0.0
C1198 C 0.26768 0.35771 0.84808 0.0
C1199 C 0.2133 0.36051 0.91122 0.0
O1200 O 0.27053 0.34983 0.89625 0.0
O1201 O 0.2645 0.32533 0.92256 0.0
O1202 O 0.22059 0.34394 0.85791 0.0
O1203 O 0.23349 0.32227 0.88287 0.0
Co1204 Co 0.40608 0.50211 0.63005 0.0
O1205 O 0.41484 0.52237 0.60844 0.0
O1206 O 0.38101 0.51465 0.61636 0.0
C1207 C 0.428 0.47518 0.62044 0.0
O1208 O 0.39164 0.48111 0.65098 0.0
Co1209 Co 0.43997 0.48879 0.6647 0.0
O1210 O 0.4184 0.46594 0.67038 0.0
C1211 C 0.4198 0.53149 0.66734 0.0
C1212 C 0.39466 0.52537 0.60455 0.0
C1213 C 0.3989 0.46687 0.66431 0.0
O1214 O 0.4066 0.52573 0.65242 0.0
O1215 O 0.43559 0.51974 0.6734 0.0
O1216 O 0.41016 0.4783 0.61009 0.0
O1217 O 0.43325 0.49008 0.63415 0.0
Co1218 Co 0.24982 0.64514 0.37539 0.0
O1219 O 0.23088 0.65684 0.35415 0.0
O1220 O 0.23714 0.62184 0.35861 0.0
C1221 C 0.27705 0.66803 0.3692 0.0
O1222 O 0.26897 0.62761 0.39557 0.0
Co1223 Co 0.2625 0.67413 0.41433 0.0
O1224 O 0.28513 0.65179 0.41744 0.0
C1225 C 0.22037 0.65303 0.41432 0.0
C1226 C 0.22709 0.6371 0.34821 0.0
C1227 C 0.28322 0.63277 0.40971 0.0
O1228 O 0.22565 0.64341 0.39668 0.0
O1229 O 0.23234 0.66707 0.4236 0.0
O1230 O 0.27434 0.65112 0.35703 0.0
O1231 O 0.26196 0.67181 0.38306 0.0
Co1232 Co 0.37091 0.09648 0.49693 0.0
O1233 O 0.39166 0.08577 0.51682 0.0
O1234 O 0.38749 0.12041 0.50819 0.0
C1235 C 0.37712 0.07213 0.47083 0.0
O1236 O 0.35126 0.11302 0.4766 0.0
Co1237 Co 0.33234 0.06707 0.48506 0.0
O1238 O 0.32949 0.0884 0.46118 0.0
C1239 C 0.33197 0.09046 0.5265 0.0
C1240 C 0.39769 0.1057 0.51921 0.0
C1241 C 0.33729 0.10742 0.46239 0.0
O1242 O 0.3496 0.09969 0.52101 0.0
O1243 O 0.32294 0.07581 0.51501 0.0
O1244 O 0.38927 0.08907 0.47267 0.0
O1245 O 0.36325 0.06928 0.48614 0.0
Co1246 Co 0.87062 0.39813 0.49778 0.0
O1247 O 0.89043 0.40912 0.47704 0.0
O1248 O 0.88697 0.37444 0.48587 0.0
C1249 C 0.87763 0.42254 0.52362 0.0
O1250 O 0.8521 0.38118 0.51881 0.0
Co1251 Co 0.83218 0.42671 0.51173 0.0
O1252 O 0.83079 0.40525 0.53562 0.0
C1253 C 0.83028 0.40357 0.47015 0.0
C1254 C 0.89661 0.38926 0.4745 0.0
C1255 C 0.83877 0.38636 0.53378 0.0
O1256 O 0.84836 0.39471 0.47465 0.0
O1257 O 0.82148 0.41787 0.48224 0.0
O1258 O 0.88988 0.40574 0.52125 0.0
O1259 O 0.86304 0.42519 0.50897 0.0
Co1260 Co 0.33953 0.11547 0.24365 0.0
O1261 O 0.33042 0.13706 0.22357 0.0
O1262 O 0.36439 0.1294 0.23092 0.0
C1263 C 0.31776 0.12485 0.27083 0.0
O1264 O 0.35429 0.0946 0.26446 0.0
Co1265 Co 0.30597 0.08057 0.25705 0.0
O1266 O 0.3278 0.07482 0.27964 0.0
C1267 C 0.32578 0.07833 0.21412 0.0
C1268 C 0.35054 0.14113 0.22038 0.0
C1269 C 0.34724 0.08107 0.27863 0.0
O1270 O 0.33897 0.09323 0.2199 0.0
O1271 O 0.31009 0.07214 0.22595 0.0
O1272 O 0.33553 0.13528 0.2676 0.0
O1273 O 0.31247 0.11116 0.25592 0.0
Co1274 Co 0.62353 0.59798 -0.00071 0.0
O1275 O 0.60322 0.5871 0.97903 0.0
O1276 O 0.60696 0.62176 0.98782 0.0
C1277 C 0.61705 0.57355 0.02525 0.0
O1278 O 0.64259 0.61474 0.01997 0.0
Co1279 Co 0.66217 0.56914 0.01205 0.0
O1280 O 0.66399 0.59033 0.03616 0.0
C1281 C 0.66298 0.59217 0.97038 0.0
C1282 C 0.59703 0.60698 0.97666 0.0
C1283 C 0.65607 0.60928 0.0347 0.0
O1284 O 0.64524 0.60136 0.97557 0.0
O1285 O 0.67193 0.57768 0.98214 0.0
O1286 O 0.60481 0.59039 0.0232 0.0
O1287 O 0.63126 0.57086 0.01022 0.0
Co1288 Co 0.65479 0.37948 0.24382 0.0
O1289 O 0.664 0.35803 0.22361 0.0
O1290 O 0.63001 0.36538 0.23111 0.0
C1291 C 0.67671 0.37011 0.27085 0.0
O1292 O 0.63992 0.40013 0.26477 0.0
Co1293 Co 0.68811 0.41456 0.25738 0.0
O1294 O 0.66625 0.4201 0.27999 0.0
C1295 C 0.66825 0.41685 0.21447 0.0
C1296 C 0.64391 0.35377 0.22052 0.0
C1297 C 0.64686 0.41369 0.27898 0.0
O1298 O 0.65513 0.40185 0.22018 0.0
O1299 O 0.68391 0.42306 0.22632 0.0
O1300 O 0.65901 0.35957 0.26764 0.0
O1301 O 0.68185 0.38394 0.25603 0.0
Co1302 Co 0.12381 0.89824 0.99642 0.0
O1303 O 0.10351 0.90917 0.01668 0.0
O1304 O 0.10692 0.87455 0.00764 0.0
C1305 C 0.11769 0.92295 0.97062 0.0
O1306 O 0.14282 0.88145 0.97574 0.0
Co1307 Co 0.16278 0.92686 0.98412 0.0
O1308 O 0.16476 0.9057 0.96 0.0
C1309 C 0.16337 0.90304 0.02535 0.0
C1310 C 0.09709 0.88934 0.01887 0.0
C1311 C 0.15663 0.88682 0.96129 0.0
O1312 O 0.14538 0.89436 0.02017 0.0
O1313 O 0.17256 0.91753 0.01378 0.0
O1314 O 0.10529 0.9062 0.9725 0.0
O1315 O 0.13185 0.9254 0.98573 0.0
Co1316 Co 0.33941 0.8793 0.25093 0.0
O1317 O 0.33036 0.85772 0.27109 0.0
O1318 O 0.3643 0.86542 0.26366 0.0
C1319 C 0.31757 0.86983 0.22384 0.0
O1320 O 0.35414 0.90016 0.23007 0.0
Co1321 Co 0.30584 0.91413 0.23744 0.0
O1322 O 0.32767 0.91992 0.21486 0.0
C1323 C 0.32561 0.91647 0.28039 0.0
C1324 C 0.35049 0.85368 0.27425 0.0
C1325 C 0.34711 0.91369 0.21589 0.0
O1326 O 0.33884 0.90159 0.27465 0.0
O1327 O 0.30993 0.9226 0.26853 0.0
O1328 O 0.33536 0.85944 0.22703 0.0
O1329 O 0.31232 0.88356 0.23871 0.0
Co1330 Co 0.15439 0.11655 0.75115 0.0
O1331 O 0.16366 0.13835 0.77094 0.0
O1332 O 0.12964 0.13078 0.76377 0.0
C1333 C 0.17616 0.1254 0.7238 0.0
O1334 O 0.13946 0.09552 0.73063 0.0
Co1335 Co 0.18772 0.08128 0.73817 0.0
O1336 O 0.16572 0.07513 0.71586 0.0
C1337 C 0.16814 0.07987 0.78123 0.0
C1338 C 0.14357 0.14255 0.77415 0.0
C1339 C 0.14635 0.08161 0.71675 0.0
O1340 O 0.15487 0.0946 0.77521 0.0
O1341 O 0.18382 0.07354 0.76946 0.0
O1342 O 0.15848 0.13601 0.72692 0.0
O1343 O 0.18139 0.1119 0.7389 0.0
C1344 C 0.06674 0.17506 0.37873 0.0
C1345 C 0.0456 0.17097 0.3723 0.0
H1346 H 0.09533 0.193 0.37315 0.0
C1347 C 0.03794 0.17989 0.35291 0.0
H1348 H 0.07299 0.16818 0.39358 0.0
C1349 C 0.05061 0.19457 0.3413 0.0
C1350 C 0.07114 0.20025 0.34887 0.0
H1351 H 0.02161 0.17698 0.34775 0.0
H1352 H 0.04376 0.20249 0.32727 0.0
C1353 C 0.07948 0.18936 0.367 0.0
C1354 C 0.05078 0.79934 0.59176 0.0
C1355 C 0.0464 0.82103 0.59708 0.0
H1356 H 0.06796 0.77052 0.60044 0.0
C1357 C 0.05938 0.83143 0.61254 0.0
H1358 H 0.0412 0.7909 0.57982 0.0
C1359 C 0.07441 0.81974 0.62437 0.0
C1360 C 0.07713 0.79757 0.62064 0.0
H1361 H 0.05681 0.84824 0.61677 0.0
H1362 H 0.08282 0.82767 0.63752 0.0
C1363 C 0.06616 0.78768 0.60345 0.0
C1364 C 0.41649 0.80469 0.86969 0.0
C1365 C 0.42468 0.79387 0.85143 0.0
H1366 H 0.42315 0.8258 0.89626 0.0
C1367 C 0.44526 0.7994 0.84386 0.0
H1368 H 0.40064 0.80113 0.87588 0.0
C1369 C 0.45802 0.814 0.85545 0.0
C1370 C 0.45044 0.82297 0.87486 0.0
H1371 H 0.45199 0.79151 0.82976 0.0
H1372 H 0.47434 0.8169 0.8502 0.0
C1373 C 0.42934 0.81889 0.88139 0.0
C1374 C 0.44436 0.19625 0.09143 0.0
C1375 C 0.44883 0.17467 0.09715 0.0
H1376 H 0.42707 0.22516 0.09957 0.0
C1377 C 0.43593 0.16453 0.11285 0.0
H1378 H 0.45385 0.2045 0.07929 0.0
C1379 C 0.42087 0.17639 0.12448 0.0
C1380 C 0.41805 0.19846 0.12032 0.0
H1381 H 0.43857 0.14782 0.1174 0.0
H1382 H 0.41251 0.16867 0.13779 0.0
C1383 C 0.42895 0.20807 0.10293 0.0
C1384 C 0.03714 0.81453 0.13942 0.0
C1385 C 0.04468 0.82343 0.11996 0.0
H1386 H 0.04296 0.79178 0.16494 0.0
C1387 C 0.06562 0.81889 0.11316 0.0
H1388 H 0.02096 0.81776 0.14488 0.0
C1389 C 0.07827 0.80432 0.12464 0.0
C1390 C 0.07005 0.7936 0.14293 0.0
H1391 H 0.07179 0.82572 0.09824 0.0
H1392 H 0.09396 0.80042 0.11823 0.0
C1393 C 0.0497 0.79958 0.15079 0.0
C1394 C 0.42111 0.81855 0.37039 0.0
C1395 C 0.41842 0.79645 0.37453 0.0
H1396 H 0.43869 0.84721 0.37742 0.0
C1397 C 0.4295 0.78686 0.39181 0.0
H1398 H 0.41262 0.82624 0.35716 0.0
C1399 C 0.44491 0.79875 0.40324 0.0
C1400 C 0.44922 0.82037 0.39754 0.0
H1401 H 0.42773 0.76975 0.39513 0.0
H1402 H 0.45454 0.79053 0.41529 0.0
C1403 C 0.43617 0.83047 0.38195 0.0
C1404 C 0.44415 0.19431 0.65423 0.0
C1405 C 0.42348 0.19978 0.64693 0.0
H1406 H 0.47322 0.17699 0.64741 0.0
C1407 C 0.415 0.18881 0.6289 0.0
H1408 H 0.4511 0.20231 0.66816 0.0
C1409 C 0.42772 0.17464 0.61701 0.0
C1410 C 0.44896 0.17075 0.62316 0.0
H1411 H 0.39904 0.19228 0.62296 0.0
H1412 H 0.42134 0.1677 0.60224 0.0
C1413 C 0.45679 0.17975 0.64245 0.0
C1414 C 0.07265 0.17746 0.87022 0.0
C1415 C 0.07561 0.1995 0.87449 0.0
H1416 H 0.05483 0.14894 0.87719 0.0
C1417 C 0.06474 0.20908 0.89192 0.0
H1418 H 0.08097 0.16977 0.85687 0.0
C1419 C 0.04929 0.19728 0.90338 0.0
C1420 C 0.04473 0.17574 0.89759 0.0
H1421 H 0.06673 0.22615 0.89535 0.0
H1422 H 0.03984 0.20551 0.91556 0.0
C1423 C 0.05755 0.16562 0.88181 0.0
C1424 C 0.35444 0.05812 0.16421 0.0
C1425 C 0.34142 0.04068 0.15795 0.0
H1426 H 0.35961 0.08384 0.18661 0.0
C1427 C 0.32186 0.03732 0.16869 0.0
H1428 H 0.36951 0.06127 0.15608 0.0
C1429 C 0.31623 0.05017 0.18642 0.0
C1430 C 0.32999 0.06672 0.1936 0.0
H1431 H 0.31148 0.02399 0.16423 0.0
H1432 H 0.30153 0.04655 0.19501 0.0
C1433 C 0.34875 0.07105 0.18176 0.0
C1434 C 0.16597 0.11866 0.43884 0.0
C1435 C 0.17427 0.10036 0.44949 0.0
H1436 H 0.17251 0.14559 0.41815 0.0
C1437 C 0.19491 0.09303 0.44391 0.0
H1438 H 0.15005 0.12466 0.44242 0.0
C1439 C 0.20765 0.10494 0.42953 0.0
C1440 C 0.19997 0.12441 0.42082 0.0
H1441 H 0.20174 0.07891 0.45165 0.0
H1442 H 0.22402 0.09989 0.42664 0.0
C1443 C 0.17878 0.13068 0.42487 0.0
C1444 C 0.14106 0.93803 0.66421 0.0
C1445 C 0.15381 0.95576 0.6582 0.0
H1446 H 0.13608 0.91215 0.68646 0.0
C1447 C 0.17315 0.95948 0.66922 0.0
H1448 H 0.12618 0.9346 0.65585 0.0
C1449 C 0.17877 0.9467 0.687 0.0
C1450 C 0.16522 0.92987 0.69394 0.0
H1451 H 0.18331 0.97304 0.66495 0.0
H1452 H 0.19327 0.9506 0.69581 0.0
C1453 C 0.14674 0.92517 0.68181 0.0
C1454 C 0.315 0.86328 0.92649 0.0
C1455 C 0.29396 0.86989 0.92218 0.0
H1456 H 0.34366 0.8689 0.94429 0.0
C1457 C 0.28648 0.88947 0.93083 0.0
H1458 H 0.32113 0.84829 0.91982 0.0
C1459 C 0.29926 0.90121 0.9453 0.0
C1460 C 0.31976 0.89361 0.95103 0.0
H1461 H 0.27022 0.89479 0.92774 0.0
H1462 H 0.29259 0.91547 0.95293 0.0
C1463 C 0.32787 0.87513 0.94055 0.0
C1464 C 0.32152 0.95757 0.32573 0.0
C1465 C 0.34103 0.95423 0.33656 0.0
H1466 H 0.3013 0.94829 0.29934 0.0
C1467 C 0.35408 0.93678 0.33037 0.0
H1468 H 0.31114 0.9709 0.33012 0.0
C1469 C 0.34846 0.92381 0.31282 0.0
C1470 C 0.32975 0.92813 0.3009 0.0
H1471 H 0.3691 0.93364 0.33858 0.0
H1472 H 0.35933 0.91102 0.30804 0.0
C1473 C 0.31597 0.94469 0.30799 0.0
C1474 C 0.31605 0.12955 0.57032 0.0
C1475 C 0.29482 0.12337 0.57429 0.0
H1476 H 0.34475 0.12353 0.55271 0.0
C1477 C 0.28705 0.104 0.56544 0.0
H1478 H 0.3224 0.14438 0.57714 0.0
C1479 C 0.29973 0.09214 0.55098 0.0
C1480 C 0.3204 0.09942 0.54544 0.0
H1481 H 0.27064 0.09901 0.56827 0.0
H1482 H 0.29282 0.07812 0.54312 0.0
C1483 C 0.32881 0.11758 0.55625 0.0
C1484 C 0.17251 0.03961 0.82726 0.0
C1485 C 0.15281 0.04273 0.83781 0.0
H1486 H 0.19285 0.04889 0.80097 0.0
C1487 C 0.13956 0.05989 0.83128 0.0
H1488 H 0.18308 0.02652 0.83193 0.0
C1489 C 0.14514 0.07272 0.8136 0.0
C1490 C 0.16403 0.06854 0.80193 0.0
H1491 H 0.12438 0.06285 0.83926 0.0
H1492 H 0.1341 0.08524 0.80851 0.0
C1493 C 0.17803 0.05235 0.80941 0.0
C1494 C 0.1795 0.86317 0.06845 0.0
C1495 C 0.20061 0.86955 0.07279 0.0
H1496 H 0.15091 0.86916 0.05066 0.0
C1497 C 0.2083 0.88908 0.06422 0.0
H1498 H 0.17323 0.8482 0.07503 0.0
C1499 C 0.19564 0.90102 0.04979 0.0
C1500 C 0.17505 0.89367 0.04403 0.0
H1501 H 0.22461 0.89421 0.06732 0.0
H1502 H 0.20246 0.91525 0.04223 0.0
C1503 C 0.16676 0.87522 0.05443 0.0
C1504 C 0.18547 0.36269 0.08144 0.0
C1505 C 0.19804 0.34667 0.0714 0.0
H1506 H 0.1625 0.38799 0.07712 0.0
C1507 C 0.1934 0.34084 0.04987 0.0
H1508 H 0.18825 0.36735 0.09811 0.0
C1509 C 0.17817 0.3525 0.03797 0.0
C1510 C 0.16762 0.37017 0.04745 0.0
H1511 H 0.20264 0.32847 0.04171 0.0
H1512 H 0.17616 0.34902 0.0209 0.0
C1513 C 0.1706 0.37448 0.0695 0.0
C1514 C 0.67876 0.1406 0.95764 0.0
C1515 C 0.66831 0.12283 0.94824 0.0
H1516 H 0.70321 0.16467 0.9539 0.0
C1517 C 0.6716 0.11824 0.92629 0.0
H1518 H 0.67651 0.14431 0.97463 0.0
C1519 C 0.6866 0.12991 0.91438 0.0
C1520 C 0.69899 0.14611 0.92436 0.0
H1521 H 0.66358 0.10465 0.91872 0.0
H1522 H 0.68956 0.12507 0.8978 0.0
C1523 C 0.69412 0.15215 0.94578 0.0
C1524 C 0.10322 0.41454 0.18609 0.0
C1525 C 0.09009 0.40816 0.20342 0.0
H1526 H 0.10849 0.43707 0.1605 0.0
C1527 C 0.07038 0.41867 0.20658 0.0
H1528 H 0.11839 0.40656 0.18308 0.0
C1529 C 0.06476 0.43639 0.19372 0.0
C1530 C 0.07867 0.44376 0.17738 0.0
H1531 H 0.05991 0.4141 0.2198 0.0
H1532 H 0.04996 0.44484 0.19722 0.0
C1533 C 0.09753 0.43208 0.17315 0.0
C1534 C 0.80007 0.84276 0.44703 0.0
C1535 C 0.79545 0.8485 0.42548 0.0
H1536 H 0.81756 0.85085 0.47587 0.0
C1537 C 0.80826 0.86423 0.41526 0.0
H1538 H 0.79065 0.8306 0.45533 0.0
C1539 C 0.82337 0.87585 0.42706 0.0
C1540 C 0.82636 0.87165 0.44912 0.0
H1541 H 0.8055 0.8688 0.39856 0.0
H1542 H 0.83168 0.88916 0.4193 0.0
C1543 C 0.81554 0.85424 0.45878 0.0
C1544 C 0.88935 0.08109 0.18667 0.0
C1545 C 0.90258 0.08774 0.20382 0.0
H1546 H 0.88408 0.05833 0.16127 0.0
C1547 C 0.92242 0.07744 0.20685 0.0
H1548 H 0.87406 0.08888 0.18377 0.0
C1549 C 0.92811 0.05971 0.19405 0.0
C1550 C 0.91414 0.0521 0.17788 0.0
H1551 H 0.93297 0.08222 0.21992 0.0
H1552 H 0.94304 0.05145 0.19746 0.0
C1553 C 0.89511 0.06353 0.17377 0.0
C1554 C 0.29854 0.65293 0.54854 0.0
C1555 C 0.29436 0.64732 0.57023 0.0
H1556 H 0.31569 0.64485 0.51947 0.0
C1557 C 0.30742 0.63172 0.58029 0.0
H1558 H 0.2889 0.66497 0.54035 0.0
C1559 C 0.32247 0.62019 0.56832 0.0
C1560 C 0.32514 0.62434 0.5462 0.0
H1561 H 0.30498 0.62722 0.59706 0.0
H1562 H 0.33103 0.60702 0.57602 0.0
C1563 C 0.31395 0.64154 0.5366 0.0
C1564 C 0.07154 0.57879 0.29 0.0
C1565 C 0.09158 0.58881 0.29257 0.0
H1566 H 0.05077 0.5531 0.29988 0.0
C1567 C 0.10507 0.58203 0.30947 0.0
H1568 H 0.06078 0.58368 0.27714 0.0
C1569 C 0.09934 0.56456 0.32252 0.0
C1570 C 0.08009 0.55337 0.31882 0.0
H1571 H 0.12051 0.58961 0.31203 0.0
H1572 H 0.11055 0.55923 0.33479 0.0
C1573 C 0.06588 0.56117 0.30295 0.0
C1574 C 0.39521 0.43173 0.82238 0.0
C1575 C 0.41411 0.44342 0.81831 0.0
H1576 H 0.37442 0.40622 0.81225 0.0
C1577 C 0.42813 0.43609 0.80206 0.0
H1578 H 0.38415 0.43671 0.83495 0.0
C1579 C 0.42261 0.41838 0.78915 0.0
C1580 C 0.40289 0.40785 0.79215 0.0
H1581 H 0.44296 0.44455 0.79868 0.0
H1582 H 0.43318 0.41383 0.776 0.0
C1583 C 0.38962 0.41421 0.80937 0.0
C1584 C 0.9153 0.80851 0.63451 0.0
C1585 C 0.92469 0.79506 0.65027 0.0
H1586 H 0.92054 0.83186 0.60949 0.0
C1587 C 0.94632 0.79843 0.65584 0.0
H1588 H 0.89862 0.80669 0.63001 0.0
C1589 C 0.95877 0.81336 0.64426 0.0
C1590 C 0.94975 0.8249 0.62695 0.0
H1591 H 0.95403 0.78845 0.66795 0.0
H1592 H 0.97579 0.81443 0.64756 0.0
C1593 C 0.92778 0.82306 0.62279 0.0
C1594 C 0.94144 0.19586 0.4027 0.0
C1595 C 0.9473 0.17492 0.39603 0.0
H1596 H 0.9236 0.22454 0.39501 0.0
C1597 C 0.93646 0.1655 0.37838 0.0
H1598 H 0.94933 0.20352 0.41631 0.0
C1599 C 0.92212 0.17761 0.36612 0.0
C1600 C 0.91785 0.19914 0.37159 0.0
H1601 H 0.9402 0.14928 0.37296 0.0
H1602 H 0.91533 0.17056 0.35159 0.0
C1603 C 0.92667 0.20787 0.39059 0.0
C1604 C 0.56703 0.17244 0.12395 0.0
C1605 C 0.54498 0.17073 0.12769 0.0
H1606 H 0.59612 0.1887 0.13165 0.0
C1607 C 0.53569 0.18237 0.1448 0.0
H1608 H 0.57447 0.16356 0.11082 0.0
C1609 C 0.54799 0.19729 0.15654 0.0
C1610 C 0.56972 0.20054 0.15136 0.0
H1611 H 0.51861 0.18138 0.14777 0.0
H1612 H 0.54009 0.20737 0.16845 0.0
C1613 C 0.57935 0.18697 0.13585 0.0
C1614 C 0.57446 0.81914 0.86966 0.0
C1615 C 0.5783 0.79742 0.87467 0.0
H1616 H 0.55666 0.84756 0.87694 0.0
C1617 C 0.56934 0.78846 0.89349 0.0
H1618 H 0.58137 0.82635 0.85527 0.0
C1619 C 0.55464 0.80042 0.90574 0.0
C1620 C 0.54901 0.8215 0.89935 0.0
H1621 H 0.57208 0.77164 0.89755 0.0
H1622 H 0.5465 0.79256 0.91908 0.0
C1623 C 0.56019 0.83119 0.88207 0.0
C1624 C 0.95744 0.18264 0.85021 0.0
C1625 C 0.94828 0.17123 0.86754 0.0
H1626 H 0.95299 0.20756 0.82648 0.0
C1627 C 0.92631 0.17324 0.87163 0.0
H1628 H 0.97446 0.18142 0.84696 0.0
C1629 C 0.91399 0.18788 0.85986 0.0
C1630 C 0.92355 0.20125 0.84412 0.0
H1631 H 0.91897 0.16453 0.88493 0.0
H1632 H 0.89732 0.18986 0.86433 0.0
C1633 C 0.94515 0.19765 0.83858 0.0
C1634 C 0.55806 0.16517 0.61643 0.0
C1635 C 0.54717 0.17457 0.59881 0.0
H1636 H 0.57939 0.17023 0.64305 0.0
C1637 C 0.5531 0.19545 0.592 0.0
H1638 H 0.55425 0.14899 0.62195 0.0
C1639 C 0.56804 0.20743 0.60395 0.0
C1640 C 0.57692 0.19873 0.62293 0.0
H1641 H 0.54518 0.20309 0.57841 0.0
H1642 H 0.57116 0.22406 0.59944 0.0
C1643 C 0.57256 0.17725 0.62853 0.0
C1644 C 0.53639 0.81357 0.34999 0.0
C1645 C 0.54556 0.82518 0.36718 0.0
H1646 H 0.5409 0.78849 0.32644 0.0
C1647 C 0.56757 0.8234 0.37113 0.0
H1648 H 0.51934 0.81461 0.34685 0.0
C1649 C 0.57993 0.80878 0.35939 0.0
C1650 C 0.57038 0.7952 0.34384 0.0
H1651 H 0.57492 0.83227 0.38432 0.0
H1652 H 0.59665 0.80697 0.36376 0.0
C1653 C 0.54873 0.79857 0.3384 0.0
C1654 C 0.92537 0.78912 0.10186 0.0
C1655 C 0.91636 0.79808 0.12066 0.0
H1656 H 0.94834 0.79314 0.07638 0.0
C1657 C 0.92042 0.81972 0.1258 0.0
H1658 H 0.92246 0.77234 0.09771 0.0
C1659 C 0.93487 0.8317 0.11352 0.0
C1660 C 0.946 0.82202 0.09621 0.0
H1661 H 0.91349 0.82695 0.14018 0.0
H1662 H 0.93852 0.84802 0.11874 0.0
C1663 C 0.94024 0.80099 0.08973 0.0
C1664 C 0.60875 0.92853 0.83083 0.0
C1665 C 0.61137 0.94929 0.82213 0.0
H1666 H 0.6105 0.89449 0.825 0.0
C1667 C 0.6219 0.95182 0.80224 0.0
H1668 H 0.6003 0.92628 0.846 0.0
C1669 C 0.62782 0.9336 0.79017 0.0
C1670 C 0.62279 0.91275 0.79773 0.0
H1671 H 0.62362 0.96773 0.7951 0.0
H1672 H 0.63414 0.93593 0.774 0.0
C1673 C 0.61443 0.91037 0.81872 0.0
C1674 C 0.79861 0.90748 0.54838 0.0
C1675 C 0.82026 0.902 0.54499 0.0
H1676 H 0.76917 0.89903 0.56433 0.0
C1677 C 0.82972 0.88631 0.55847 0.0
H1678 H 0.79085 0.91955 0.53838 0.0
C1679 C 0.81728 0.87452 0.573 0.0
C1680 C 0.79528 0.87854 0.5748 0.0
H1681 H 0.84641 0.88188 0.55664 0.0
H1682 H 0.82456 0.86124 0.58178 0.0
C1683 C 0.7862 0.89583 0.56329 0.0
C1684 C 0.87273 0.04314 0.30338 0.0
C1685 C 0.88395 0.0459 0.32286 0.0
H1686 H 0.85972 0.05868 0.27529 0.0
C1687 C 0.88714 0.06678 0.33104 0.0
H1688 H 0.87055 0.02712 0.29663 0.0
C1689 C 0.88124 0.08479 0.31882 0.0
C1690 C 0.87213 0.08214 0.29818 0.0
H1691 H 0.8961 0.0692 0.34588 0.0
H1692 H 0.88553 0.10073 0.32469 0.0
C1693 C 0.86663 0.06121 0.29117 0.0
C1694 C 0.66409 0.10788 0.05833 0.0
C1695 C 0.67376 0.09246 0.0447 0.0
H1696 H 0.66891 0.13267 0.08201 0.0
C1697 C 0.69542 0.08709 0.04814 0.0
H1698 H 0.64737 0.11219 0.05647 0.0
C1699 C 0.70765 0.09864 0.06327 0.0
C1700 C 0.69836 0.11571 0.07496 0.0
H1701 H 0.70334 0.07524 0.03802 0.0
H1702 H 0.72471 0.09558 0.06436 0.0
C1703 C 0.67635 0.11957 0.0731 0.0
C1704 C 0.60691 0.06609 0.66428 0.0
C1705 C 0.60974 0.04527 0.67274 0.0
H1706 H 0.60893 0.10009 0.67023 0.0
C1707 C 0.62075 0.04259 0.69234 0.0
H1708 H 0.59811 0.06845 0.64933 0.0
C1709 C 0.62701 0.06072 0.70439 0.0
C1710 C 0.62187 0.08164 0.69707 0.0
H1711 H 0.62265 0.02662 0.69931 0.0
H1712 H 0.63375 0.05829 0.72036 0.0
C1713 C 0.61296 0.08416 0.67633 0.0
C1714 C 0.70862 0.89609 0.43312 0.0
C1715 C 0.69933 0.8792 0.42118 0.0
H1716 H 0.7041 0.91953 0.45829 0.0
C1717 C 0.67721 0.87573 0.42245 0.0
H1718 H 0.72576 0.89885 0.43247 0.0
C1719 C 0.66479 0.88763 0.43689 0.0
C1720 C 0.67439 0.90287 0.4508 0.0
H1721 H 0.66978 0.86276 0.41333 0.0
H1722 H 0.64795 0.88361 0.43833 0.0
C1723 C 0.69622 0.90784 0.44794 0.0
C1724 C 0.87223 0.95263 0.1931 0.0
C1725 C 0.88263 0.94997 0.17316 0.0
H1726 H 0.85994 0.9369 0.22142 0.0
C1727 C 0.88501 0.92917 0.16449 0.0
H1728 H 0.8707 0.96857 0.20022 0.0
C1729 C 0.87921 0.91108 0.17665 0.0
C1730 C 0.87095 0.91358 0.19767 0.0
H1731 H 0.89336 0.92682 0.14928 0.0
H1732 H 0.88295 0.89516 0.17039 0.0
C1733 C 0.86617 0.93449 0.20523 0.0
C1734 C 0.82953 0.10915 0.93682 0.0
C1735 C 0.81991 0.09346 0.95018 0.0
H1736 H 0.82467 0.13424 0.91346 0.0
C1737 C 0.79829 0.08801 0.94658 0.0
H1738 H 0.84622 0.11355 0.93881 0.0
C1739 C 0.78606 0.09968 0.93153 0.0
C1740 C 0.7953 0.11697 0.92012 0.0
H1741 H 0.79041 0.07595 0.95649 0.0
H1742 H 0.76904 0.0965 0.9303 0.0
C1743 C 0.81728 0.12097 0.92216 0.0
C1744 C 0.80362 0.65518 0.9433 0.0
C1745 C 0.79798 0.64862 0.92226 0.0
H1746 H 0.821 0.64721 0.9722 0.0
C1747 C 0.80908 0.63121 0.91274 0.0
H1748 H 0.79554 0.66863 0.95102 0.0
C1749 C 0.82327 0.61886 0.92494 0.0
C1750 C 0.82711 0.62405 0.94664 0.0
H1751 H 0.80553 0.62595 0.8964 0.0
H1752 H 0.83014 0.6044 0.91786 0.0
C1753 C 0.81824 0.64299 0.9554 0.0
C1754 C 0.30493 0.83863 0.05043 0.0
C1755 C 0.29906 0.84491 0.0715 0.0
H1756 H 0.3227 0.84693 0.02186 0.0
C1757 C 0.31007 0.86219 0.08136 0.0
H1758 H 0.29692 0.82529 0.04244 0.0
C1759 C 0.32446 0.87465 0.06951 0.0
C1760 C 0.32857 0.86972 0.0478 0.0
H1761 H 0.30635 0.86725 0.09773 0.0
H1762 H 0.33126 0.88902 0.07685 0.0
C1763 C 0.31974 0.85093 0.03868 0.0
C1764 C 0.87981 0.54176 0.81034 0.0
C1765 C 0.87487 0.54933 0.83122 0.0
H1766 H 0.87532 0.54659 0.77621 0.0
C1767 C 0.86654 0.57031 0.83363 0.0
H1768 H 0.88611 0.52561 0.80799 0.0
C1769 C 0.8607 0.58235 0.81547 0.0
C1770 C 0.86313 0.5736 0.79469 0.0
H1771 H 0.86268 0.57657 0.84954 0.0
H1772 H 0.85222 0.59748 0.81775 0.0
C1773 C 0.87372 0.55377 0.79213 0.0
C1774 C 0.17614 0.14288 0.53746 0.0
C1775 C 0.16683 0.12428 0.54648 0.0
H1776 H 0.19934 0.16812 0.54152 0.0
C1777 C 0.17066 0.11922 0.56822 0.0
H1778 H 0.17342 0.14695 0.52062 0.0
C1779 C 0.18513 0.13141 0.58025 0.0
C1780 C 0.19652 0.14853 0.57055 0.0
H1781 H 0.16352 0.10498 0.57547 0.0
H1782 H 0.18858 0.12626 0.59665 0.0
C1783 C 0.19103 0.15491 0.5494 0.0
C1784 C 0.12275 0.94358 0.7934 0.0
C1785 C 0.13359 0.92391 0.79621 0.0
H1786 H 0.11014 0.97186 0.80891 0.0
C1787 C 0.13641 0.91562 0.81713 0.0
H1788 H 0.12086 0.95042 0.77736 0.0
C1789 C 0.13059 0.92791 0.83513 0.0
C1790 C 0.12189 0.9487 0.83244 0.0
H1791 H 0.14509 0.90063 0.81959 0.0
H1792 H 0.13464 0.92194 0.85111 0.0
C1793 C 0.11671 0.95585 0.81146 0.0
C1794 C 0.6683 0.37271 0.42484 0.0
C1795 C 0.66475 0.36811 0.44672 0.0
H1796 H 0.68607 0.36519 0.39642 0.0
C1797 C 0.67403 0.3496 0.45597 0.0
H1798 H 0.66113 0.38684 0.4174 0.0
C1799 C 0.68885 0.33739 0.44414 0.0
C1800 C 0.69429 0.34351 0.4229 0.0
H1801 H 0.67149 0.34585 0.47291 0.0
H1802 H 0.69729 0.3244 0.45223 0.0
C1803 C 0.68269 0.36031 0.41292 0.0
C1804 C 0.86652 0.42598 0.6593 0.0
C1805 C 0.87532 0.44672 0.66206 0.0
H1806 H 0.85167 0.39882 0.67471 0.0
C1807 C 0.88049 0.45378 0.68307 0.0
H1808 H 0.8625 0.42007 0.64329 0.0
C1809 C 0.87425 0.44153 0.70108 0.0
C1810 C 0.86321 0.42198 0.69818 0.0
H1811 H 0.88716 0.46974 0.68569 0.0
H1812 H 0.8761 0.44834 0.71714 0.0
C1813 C 0.86048 0.41372 0.67725 0.0
C1814 C 0.63514 0.58183 0.17958 0.0
C1815 C 0.63262 0.57335 0.20046 0.0
H1816 H 0.63306 0.57574 0.14558 0.0
C1817 C 0.62194 0.55359 0.20325 0.0
H1818 H 0.6437 0.5969 0.17714 0.0
C1819 C 0.61578 0.54141 0.18516 0.0
C1820 C 0.6207 0.54875 0.16419 0.0
H1821 H 0.62028 0.54661 0.21925 0.0
H1822 H 0.60936 0.52533 0.18768 0.0
C1823 C 0.6292 0.56964 0.16156 0.0
C1824 C 0.57705 0.68988 0.86937 0.0
C1825 C 0.56865 0.70058 0.85113 0.0
H1826 H 0.5707 0.66903 0.89623 0.0
C1827 C 0.54793 0.6951 0.84394 0.0
H1828 H 0.59302 0.69341 0.87528 0.0
C1829 C 0.53528 0.68065 0.85586 0.0
C1830 C 0.54311 0.67179 0.87522 0.0
H1831 H 0.54103 0.7029 0.82987 0.0
H1832 H 0.51888 0.67777 0.85088 0.0
C1833 C 0.56432 0.67585 0.8814 0.0
C1834 C 0.5587 0.33051 0.11414 0.0
C1835 C 0.54613 0.32051 0.09808 0.0
H1836 H 0.58177 0.32615 0.13937 0.0
C1837 C 0.55085 0.29906 0.09211 0.0
H1838 H 0.55586 0.34712 0.1189 0.0
C1839 C 0.56616 0.28718 0.10366 0.0
C1840 C 0.57672 0.29659 0.12137 0.0
H1841 H 0.54161 0.29093 0.07969 0.0
H1842 H 0.56824 0.27015 0.10007 0.0
C1843 C 0.57366 0.31858 0.12582 0.0
C1844 C 0.92802 0.32225 0.37677 0.0
C1845 C 0.94947 0.32567 0.37103 0.0
H1846 H 0.89919 0.30496 0.37049 0.0
C1847 C 0.95756 0.3162 0.35208 0.0
H1848 H 0.92145 0.32955 0.39127 0.0
C1849 C 0.94493 0.30164 0.34027 0.0
C1850 C 0.92402 0.29662 0.34723 0.0
H1851 H 0.97414 0.31859 0.34746 0.0
H1852 H 0.95206 0.29327 0.32666 0.0
C1853 C 0.91534 0.30807 0.36485 0.0
C1854 C 0.94391 0.69731 0.59119 0.0
C1855 C 0.94861 0.67581 0.59699 0.0
H1856 H 0.92634 0.72607 0.59925 0.0
C1857 C 0.93579 0.66557 0.61269 0.0
H1858 H 0.95333 0.70562 0.57903 0.0
C1859 C 0.92062 0.67731 0.62429 0.0
C1860 C 0.91759 0.69935 0.62009 0.0
H1861 H 0.93861 0.6489 0.6173 0.0
H1862 H 0.91234 0.66955 0.63763 0.0
C1863 C 0.92839 0.70901 0.60265 0.0
C1864 C 0.56656 0.32113 0.61652 0.0
C1865 C 0.54534 0.325 0.6228 0.0
H1866 H 0.59534 0.30361 0.62238 0.0
C1867 C 0.53769 0.31612 0.64222 0.0
H1868 H 0.57281 0.32798 0.60165 0.0
C1869 C 0.55046 0.30169 0.65402 0.0
C1870 C 0.5711 0.29622 0.6466 0.0
H1871 H 0.52129 0.31888 0.64729 0.0
H1872 H 0.54364 0.29378 0.66806 0.0
C1873 C 0.57941 0.30708 0.62842 0.0
C1874 C 0.93569 0.33104 0.88205 0.0
C1875 C 0.94838 0.3209 0.89793 0.0
H1876 H 0.91245 0.32693 0.85694 0.0
C1877 C 0.94374 0.29937 0.90368 0.0
H1878 H 0.93847 0.34772 0.87746 0.0
C1879 C 0.92835 0.28759 0.8921 0.0
C1880 C 0.91763 0.29719 0.87459 0.0
H1881 H 0.95307 0.29112 0.91594 0.0
H1882 H 0.92631 0.27052 0.89551 0.0
C1883 C 0.92066 0.31922 0.87034 0.0
C1884 C 0.92817 0.67567 0.11483 0.0
C1885 C 0.94951 0.67191 0.12073 0.0
H1886 H 0.89947 0.69318 0.12108 0.0
C1887 C 0.95759 0.68117 0.13979 0.0
H1888 H 0.9216 0.66852 0.10025 0.0
C1889 C 0.94504 0.69576 0.15163 0.0
C1890 C 0.9242 0.70101 0.14463 0.0
H1891 H 0.97409 0.6785 0.14454 0.0
H1892 H 0.95214 0.7039 0.1654 0.0
C1893 C 0.91555 0.68987 0.12679 0.0
C1894 C 0.55033 0.69628 0.40336 0.0
C1895 C 0.54553 0.67488 0.39724 0.0
H1896 H 0.56787 0.72518 0.39564 0.0
C1897 C 0.55803 0.66498 0.38107 0.0
H1898 H 0.54115 0.70434 0.41587 0.0
C1899 C 0.57304 0.67695 0.36947 0.0
C1900 C 0.57623 0.69888 0.37412 0.0
H1901 H 0.55512 0.64842 0.37617 0.0
H1902 H 0.58113 0.66944 0.35588 0.0
C1903 C 0.5657 0.7082 0.39189 0.0
C1904 C 0.8181 0.55079 0.68506 0.0
C1905 C 0.832 0.567 0.69273 0.0
H1906 H 0.81339 0.52488 0.66258 0.0
C1907 C 0.85119 0.57097 0.6815 0.0
H1908 H 0.80307 0.54747 0.69317 0.0
C1909 C 0.85711 0.55799 0.66405 0.0
C1910 C 0.84388 0.54089 0.65728 0.0
H1911 H 0.86218 0.58346 0.68678 0.0
H1912 H 0.87247 0.56084 0.65639 0.0
C1913 C 0.82395 0.53792 0.66743 0.0
C1914 C 0.70778 0.60465 0.93082 0.0
C1915 C 0.69988 0.62362 0.92126 0.0
H1916 H 0.70223 0.5796 0.95416 0.0
C1917 C 0.67869 0.62995 0.92526 0.0
H1918 H 0.72417 0.59959 0.92803 0.0
C1919 C 0.66609 0.61852 0.93992 0.0
C1920 C 0.67459 0.60075 0.95128 0.0
H1921 H 0.67227 0.6445 0.91794 0.0
H1922 H 0.65017 0.62457 0.94337 0.0
C1923 C 0.69525 0.59332 0.94586 0.0
C1924 C 0.64512 0.4244 0.1823 0.0
C1925 C 0.66397 0.42858 0.19403 0.0
H1926 H 0.62424 0.43444 0.15682 0.0
C1927 C 0.67776 0.44511 0.18687 0.0
H1928 H 0.63423 0.41163 0.18715 0.0
C1929 C 0.67208 0.4581 0.16926 0.0
C1930 C 0.65244 0.4549 0.15863 0.0
H1931 H 0.69253 0.44861 0.19538 0.0
H1932 H 0.68249 0.4714 0.16482 0.0
C1933 C 0.63937 0.43747 0.16487 0.0
C1934 C 0.81379 0.3653 0.42579 0.0
C1935 C 0.79225 0.3709 0.42282 0.0
H1936 H 0.84295 0.37173 0.44244 0.0
C1937 C 0.78413 0.38956 0.43279 0.0
H1938 H 0.82036 0.351 0.41811 0.0
C1939 C 0.79696 0.40134 0.44721 0.0
C1940 C 0.81811 0.39467 0.45157 0.0
H1941 H 0.76747 0.39404 0.43077 0.0
H1942 H 0.7899 0.41479 0.45587 0.0
C1943 C 0.82667 0.3772 0.4398 0.0
C1944 C 0.81742 0.44645 0.80682 0.0
C1945 C 0.83114 0.42977 0.7999 0.0
H1946 H 0.8126 0.47276 0.82882 0.0
C1947 C 0.8498 0.42544 0.81189 0.0
H1948 H 0.80281 0.45007 0.7981 0.0
C1949 C 0.8554 0.43845 0.82942 0.0
C1950 C 0.84239 0.45597 0.83548 0.0
H1951 H 0.86062 0.41257 0.80722 0.0
H1952 H 0.87037 0.43527 0.83771 0.0
C1953 C 0.82295 0.45938 0.82452 0.0
C1954 C 0.78337 0.60546 0.06312 0.0
C1955 C 0.79177 0.62403 0.07303 0.0
H1956 H 0.78862 0.58025 0.03988 0.0
C1957 C 0.81332 0.62945 0.06981 0.0
H1958 H 0.76669 0.60112 0.06534 0.0
C1959 C 0.82591 0.61749 0.05559 0.0
C1960 C 0.81704 0.60013 0.04387 0.0
H1961 H 0.8201 0.64368 0.07743 0.0
H1962 H 0.8422 0.62282 0.05276 0.0
C1963 C 0.7959 0.59361 0.0485 0.0
C1964 C 0.67763 0.55011 0.30965 0.0
C1965 C 0.66381 0.56654 0.30235 0.0
H1966 H 0.68235 0.52391 0.33182 0.0
C1967 C 0.64485 0.57063 0.31394 0.0
H1968 H 0.69249 0.54668 0.30126 0.0
C1969 C 0.63905 0.55757 0.33137 0.0
C1970 C 0.65217 0.54025 0.33776 0.0
H1971 H 0.63393 0.58331 0.30898 0.0
H1972 H 0.62385 0.56053 0.3393 0.0
C1973 C 0.6719 0.53714 0.32726 0.0
C1974 C 0.66793 0.3744 0.55405 0.0
C1975 C 0.67602 0.39261 0.54311 0.0
H1976 H 0.67476 0.34786 0.57515 0.0
C1977 C 0.69673 0.40007 0.54831 0.0
H1978 H 0.652 0.36827 0.55073 0.0
C1979 C 0.70965 0.38845 0.56276 0.0
C1980 C 0.70209 0.36914 0.57192 0.0
H1981 H 0.7034 0.41413 0.54031 0.0
H1982 H 0.72602 0.39364 0.56545 0.0
C1983 C 0.68092 0.36267 0.56811 0.0
C1984 C 0.6858 0.86391 0.58003 0.0
C1985 C 0.69882 0.84844 0.5697 0.0
H1986 H 0.66223 0.88871 0.57615 0.0
C1987 C 0.69445 0.843 0.54801 0.0
H1988 H 0.68836 0.86823 0.59683 0.0
C1989 C 0.679 0.85454 0.5363 0.0
C1990 C 0.66794 0.87169 0.54612 0.0
H1991 H 0.70405 0.83105 0.53963 0.0
H1992 H 0.67717 0.8514 0.51914 0.0
C1993 C 0.67071 0.87559 0.56827 0.0
C1994 C 0.1885 0.62872 0.41596 0.0
C1995 C 0.20084 0.64521 0.42553 0.0
H1996 H 0.16556 0.60351 0.42089 0.0
C1997 C 0.19605 0.65165 0.44685 0.0
H1998 H 0.19142 0.62354 0.39946 0.0
C1999 C 0.18076 0.64032 0.459 0.0
C2000 C 0.1703 0.62236 0.44999 0.0
H2001 H 0.20511 0.66439 0.45466 0.0
H2002 H 0.17852 0.6444 0.47591 0.0
C2003 C 0.17357 0.61727 0.42815 0.0
C2004 C 0.57055 0.91811 0.70819 0.0
C2005 C 0.59 0.90729 0.70452 0.0
H2006 H 0.55024 0.94452 0.69928 0.0
C2007 C 0.60275 0.91343 0.68682 0.0
H2008 H 0.56038 0.91374 0.72171 0.0
C2009 C 0.59696 0.93099 0.67396 0.0
C2010 C 0.57836 0.94294 0.67863 0.0
H2011 H 0.61772 0.90522 0.68343 0.0
H2012 H 0.60763 0.93576 0.66097 0.0
C2013 C 0.56482 0.93585 0.6954 0.0
C2014 C 0.31642 0.35201 0.9575 0.0
C2015 C 0.327 0.36978 0.94824 0.0
H2016 H 0.29178 0.32818 0.95358 0.0
C2017 C 0.3239 0.37445 0.92628 0.0
H2018 H 0.31853 0.34825 0.9745 0.0
C2019 C 0.30885 0.36296 0.91426 0.0
C2020 C 0.29624 0.34687 0.92415 0.0
H2021 H 0.33201 0.38805 0.91882 0.0
H2022 H 0.30596 0.36791 0.89769 0.0
C2023 C 0.30104 0.34064 0.94553 0.0
C2024 C 0.39675 0.5637 0.67474 0.0
C2025 C 0.41545 0.55184 0.67916 0.0
H2026 H 0.37584 0.58918 0.68464 0.0
C2027 C 0.42898 0.55876 0.69602 0.0
H2028 H 0.38608 0.55905 0.66172 0.0
C2029 C 0.42316 0.57626 0.70909 0.0
C2030 C 0.40363 0.58701 0.70562 0.0
H2031 H 0.44364 0.55014 0.69972 0.0
H2032 H 0.43334 0.58051 0.72264 0.0
C2033 C 0.39086 0.58102 0.68788 0.0
C2034 C 0.7994 0.15194 0.04936 0.0
C2035 C 0.79458 0.14576 0.07076 0.0
H2036 H 0.81702 0.14437 0.02047 0.0
C2037 C 0.80713 0.12965 0.08067 0.0
H2038 H 0.79018 0.1644 0.0413 0.0
C2039 C 0.82222 0.11816 0.06871 0.0
C2040 C 0.82543 0.12286 0.04677 0.0
H2041 H 0.80422 0.12471 0.09724 0.0
H2042 H 0.83034 0.1046 0.07621 0.0
C2043 C 0.81484 0.14058 0.03745 0.0
C2044 C 0.56585 0.05895 0.80017 0.0
C2045 C 0.57967 0.05162 0.81659 0.0
H2046 H 0.56105 0.08135 0.77417 0.0
C2047 C 0.59843 0.06341 0.82101 0.0
H2048 H 0.55114 0.05041 0.79651 0.0
C2049 C 0.6041 0.08106 0.8082 0.0
C2050 C 0.59104 0.08745 0.79083 0.0
H2051 H 0.60933 0.05844 0.83372 0.0
H2052 H 0.61919 0.08913 0.81136 0.0
C2053 C 0.57145 0.07679 0.78745 0.0
C2054 C 0.89579 0.93174 0.32145 0.0
C2055 C 0.91468 0.94335 0.31709 0.0
H2056 H 0.87479 0.90626 0.31171 0.0
C2057 C 0.92842 0.93593 0.30063 0.0
H2058 H 0.88494 0.93678 0.33417 0.0
C2059 C 0.92265 0.91821 0.28784 0.0
C2060 C 0.90296 0.90772 0.29118 0.0
H2061 H 0.94323 0.94433 0.29701 0.0
H2062 H 0.93303 0.91359 0.27457 0.0
C2063 C 0.88996 0.91419 0.30857 0.0
C2064 C 0.45859 0.31278 0.14497 0.0
C2065 C 0.44954 0.32425 0.12762 0.0
H2066 H 0.45395 0.28785 0.16865 0.0
C2067 C 0.42758 0.3223 0.12344 0.0
H2068 H 0.47559 0.31395 0.14829 0.0
C2069 C 0.41516 0.30769 0.13514 0.0
C2070 C 0.4246 0.29429 0.15091 0.0
H2071 H 0.42032 0.33105 0.11011 0.0
H2072 H 0.3985 0.30577 0.1306 0.0
C2073 C 0.4462 0.29779 0.15653 0.0
C2074 C 0.42475 0.70632 0.89486 0.0
C2075 C 0.41554 0.69713 0.87627 0.0
H2076 H 0.44784 0.70247 0.92024 0.0
C2077 C 0.41918 0.67532 0.87157 0.0
H2078 H 0.42215 0.72322 0.89868 0.0
C2079 C 0.4335 0.66337 0.884 0.0
C2080 C 0.44494 0.67325 0.901 0.0
H2081 H 0.41207 0.66793 0.85736 0.0
H2082 H 0.43689 0.6469 0.87909 0.0
C2083 C 0.4395 0.69446 0.90713 0.0
C2084 C 0.06702 0.67441 0.62428 0.0
C2085 C 0.04495 0.67284 0.628 0.0
H2086 H 0.0962 0.6905 0.63201 0.0
C2087 C 0.03571 0.68457 0.64507 0.0
H2088 H 0.07442 0.66547 0.61118 0.0
C2089 C 0.04809 0.69941 0.65682 0.0
C2090 C 0.06986 0.70251 0.65168 0.0
H2091 H 0.01862 0.68369 0.64802 0.0
H2092 H 0.04023 0.70955 0.66871 0.0
C2093 C 0.07942 0.68888 0.63619 0.0
C2094 C 0.06782 0.28873 0.39225 0.0
C2095 C 0.07734 0.29771 0.37372 0.0
H2096 H 0.04434 0.29286 0.41723 0.0
C2097 C 0.07361 0.31942 0.36859 0.0
H2098 H 0.07045 0.27191 0.39637 0.0
C2099 C 0.05901 0.33148 0.3806 0.0
C2100 C 0.04741 0.32183 0.39761 0.0
H2101 H 0.08092 0.32664 0.35441 0.0
H2102 H 0.05564 0.34786 0.37538 0.0
C2103 C 0.05281 0.30071 0.4041 0.0
C2104 C 0.44614 0.69697 0.3387 0.0
C2105 C 0.42453 0.70054 0.34416 0.0
H2106 H 0.47543 0.68075 0.34717 0.0
C2107 C 0.41493 0.68719 0.35989 0.0
H2108 H 0.45401 0.70686 0.3266 0.0
C2109 C 0.42722 0.67257 0.37172 0.0
C2110 C 0.4492 0.67057 0.36769 0.0
H2111 H 0.39825 0.68917 0.36431 0.0
H2112 H 0.41985 0.66388 0.38502 0.0
C2113 C 0.4584 0.68196 0.35037 0.0
C2114 C 0.05292 0.69409 0.0874 0.0
C2115 C 0.04757 0.67285 0.09352 0.0
H2116 H 0.07048 0.72278 0.09567 0.0
C2117 C 0.05935 0.66283 0.11018 0.0
H2118 H 0.0443 0.7022 0.07453 0.0
C2119 C 0.07397 0.67468 0.12238 0.0
C2120 C 0.07754 0.69653 0.11774 0.0
H2121 H 0.05604 0.64633 0.11506 0.0
H2122 H 0.08135 0.6672 0.13638 0.0
C2123 C 0.06795 0.70585 0.09942 0.0
C2124 C 0.0792 0.30857 0.86068 0.0
C2125 C 0.06969 0.2954 0.84476 0.0
H2126 H 0.07416 0.33162 0.88601 0.0
C2127 C 0.0481 0.29902 0.83923 0.0
H2128 H 0.09586 0.30656 0.86516 0.0
C2129 C 0.03578 0.3139 0.851 0.0
C2130 C 0.0449 0.32511 0.86848 0.0
H2131 H 0.04029 0.28927 0.82699 0.0
H2132 H 0.01877 0.31517 0.84771 0.0
C2133 C 0.06685 0.32305 0.8726 0.0
C2134 C 0.43573 0.33073 0.61543 0.0
C2135 C 0.44688 0.32113 0.59809 0.0
H2136 H 0.41424 0.32589 0.64197 0.0
C2137 C 0.44116 0.30011 0.59155 0.0
H2138 H 0.43936 0.34702 0.62072 0.0
C2139 C 0.42624 0.28818 0.60358 0.0
C2140 C 0.41714 0.29709 0.62235 0.0
H2141 H 0.44928 0.29231 0.57817 0.0
H2142 H 0.42333 0.27143 0.59934 0.0
C2143 C 0.42123 0.31871 0.62761 0.0
C2144 C 0.1208 0.45357 0.30284 0.0
C2145 C 0.11023 0.45074 0.32267 0.0
H2146 H 0.13304 0.43811 0.27434 0.0
C2147 C 0.10736 0.42984 0.33092 0.0
H2148 H 0.12271 0.46961 0.29603 0.0
C2149 C 0.11294 0.41188 0.3185 0.0
C2150 C 0.12145 0.41458 0.2976 0.0
H2151 H 0.09886 0.42737 0.34604 0.0
H2152 H 0.1089 0.39591 0.32448 0.0
C2153 C 0.12661 0.43554 0.29043 0.0
C2154 C 0.29822 0.40473 0.04854 0.0
C2155 C 0.31971 0.39891 0.04479 0.0
H2156 H 0.26888 0.39674 0.06495 0.0
C2157 C 0.32906 0.38285 0.05791 0.0
H2158 H 0.29054 0.41709 0.03883 0.0
C2159 C 0.31663 0.37116 0.07252 0.0
C2160 C 0.29476 0.37563 0.07476 0.0
H2161 H 0.34565 0.37813 0.05579 0.0
H2162 H 0.32381 0.35768 0.08108 0.0
C2163 C 0.28583 0.39319 0.06355 0.0
C2164 C 0.38354 0.56579 0.83245 0.0
C2165 C 0.38153 0.54499 0.82367 0.0
H2166 H 0.38138 0.5998 0.82656 0.0
C2167 C 0.37149 0.5423 0.80355 0.0
H2168 H 0.39162 0.56817 0.84781 0.0
C2169 C 0.36552 0.56041 0.79134 0.0
C2170 C 0.37004 0.58133 0.79902 0.0
H2171 H 0.37024 0.52636 0.79635 0.0
H2172 H 0.35964 0.55798 0.77502 0.0
C2173 C 0.37784 0.58386 0.82021 0.0
C2174 C 0.17625 0.62185 0.57451 0.0
C2175 C 0.19819 0.61779 0.57686 0.0
H2176 H 0.14745 0.61422 0.55771 0.0
C2177 C 0.20741 0.60013 0.56603 0.0
H2178 H 0.16884 0.63537 0.5828 0.0
C2179 C 0.19528 0.58819 0.55112 0.0
C2180 C 0.17377 0.59373 0.5471 0.0
H2181 H 0.2244 0.59685 0.56755 0.0
H2182 H 0.2032 0.57586 0.54159 0.0
C2183 C 0.16408 0.60975 0.56001 0.0
C2184 C 0.12669 0.56108 0.20464 0.0
C2185 C 0.12153 0.5821 0.19767 0.0
H2186 H 0.12254 0.52706 0.19889 0.0
C2187 C 0.11272 0.58496 0.17692 0.0
H2188 H 0.13335 0.5584 0.22061 0.0
C2189 C 0.10685 0.5671 0.16449 0.0
C2190 C 0.10974 0.54613 0.17256 0.0
H2191 H 0.10869 0.60098 0.17109 0.0
H2192 H 0.09814 0.56969 0.14952 0.0
C2193 C 0.12061 0.54314 0.19221 0.0
C2194 C 0.16524 0.38432 0.93806 0.0
C2195 C 0.17467 0.40019 0.95135 0.0
H2196 H 0.17037 0.35926 0.91474 0.0
C2197 C 0.19624 0.40585 0.94774 0.0
H2198 H 0.1486 0.37973 0.94006 0.0
C2199 C 0.2086 0.39429 0.93272 0.0
C2200 C 0.19956 0.37689 0.92135 0.0
H2201 H 0.20398 0.41806 0.95758 0.0
H2202 H 0.22559 0.39769 0.93144 0.0
C2203 C 0.17763 0.37262 0.92343 0.0
C2204 C 0.37361 0.45263 0.69182 0.0
C2205 C 0.38492 0.44968 0.67243 0.0
H2206 H 0.36044 0.43737 0.72001 0.0
C2207 C 0.3881 0.42872 0.66445 0.0
H2208 H 0.37142 0.46872 0.69841 0.0
C2209 C 0.38208 0.41084 0.6768 0.0
C2210 C 0.37289 0.41368 0.69737 0.0
H2211 H 0.39712 0.42615 0.64967 0.0
H2212 H 0.38634 0.39484 0.67107 0.0
C2213 C 0.36742 0.43468 0.70418 0.0
C2214 C 0.29963 0.58739 0.44628 0.0
C2215 C 0.32122 0.59289 0.44996 0.0
H2216 H 0.27046 0.59574 0.42981 0.0
C2217 C 0.33096 0.60832 0.43638 0.0
H2218 H 0.29167 0.5755 0.45634 0.0
C2219 C 0.31879 0.61996 0.42151 0.0
C2220 C 0.2968 0.61603 0.41948 0.0
H2221 H 0.34765 0.61273 0.43842 0.0
H2222 H 0.32625 0.63313 0.4127 0.0
C2223 C 0.2875 0.59888 0.43103 0.0
C2224 C 0.31861 0.14263 0.4574 0.0
C2225 C 0.32763 0.12389 0.44837 0.0
H2226 H 0.29579 0.16822 0.45337 0.0
C2227 C 0.32367 0.11888 0.42665 0.0
H2228 H 0.32144 0.14667 0.47423 0.0
C2229 C 0.30936 0.13129 0.41464 0.0
C2230 C 0.29826 0.14859 0.42434 0.0
H2231 H 0.33059 0.10454 0.41938 0.0
H2232 H 0.30581 0.12619 0.39825 0.0
C2233 C 0.30388 0.15488 0.44548 0.0
C2234 C 0.8261 0.37387 0.56954 0.0
C2235 C 0.8297 0.36943 0.54764 0.0
H2236 H 0.80854 0.3659 0.59797 0.0
C2237 C 0.82066 0.35083 0.53832 0.0
H2238 H 0.83308 0.38806 0.57705 0.0
C2239 C 0.80606 0.33831 0.55011 0.0
C2240 C 0.80061 0.34419 0.57141 0.0
H2241 H 0.82324 0.34719 0.52135 0.0
H2242 H 0.79781 0.32521 0.54199 0.0
C2243 C 0.81193 0.36117 0.58143 0.0
C2244 C 0.3644 0.06894 0.33461 0.0
C2245 C 0.37295 0.04809 0.33188 0.0
H2246 H 0.35 0.0963 0.31913 0.0
C2247 C 0.37812 0.04096 0.3109 0.0
H2248 H 0.36038 0.07489 0.3506 0.0
C2249 C 0.37213 0.05329 0.29286 0.0
C2250 C 0.36136 0.07298 0.29571 0.0
H2251 H 0.38461 0.02492 0.30831 0.0
H2252 H 0.37397 0.04646 0.27681 0.0
C2253 C 0.35862 0.08128 0.31664 0.0
C2254 C 0.67407 0.64477 0.03992 0.0
C2255 C 0.66523 0.6259 0.04886 0.0
H2256 H 0.69678 0.67044 0.04403 0.0
C2257 C 0.66904 0.62094 0.07063 0.0
H2258 H 0.67132 0.64882 0.02309 0.0
C2259 C 0.68323 0.63342 0.08271 0.0
C2260 C 0.69437 0.6507 0.07301 0.0
H2261 H 0.66218 0.60654 0.07785 0.0
H2262 H 0.6868 0.6283 0.09909 0.0
C2263 C 0.6887 0.65708 0.05191 0.0
C2264 C 0.62945 0.42548 0.33498 0.0
C2265 C 0.62072 0.44627 0.33233 0.0
H2266 H 0.64413 0.39832 0.31944 0.0
C2267 C 0.61559 0.45346 0.31135 0.0
H2268 H 0.63346 0.41948 0.35096 0.0
C2269 C 0.62175 0.44126 0.29328 0.0
C2270 C 0.63266 0.42163 0.29608 0.0
H2271 H 0.60898 0.46946 0.30881 0.0
H2272 H 0.6199 0.44815 0.27725 0.0
C2273 C 0.63541 0.41328 0.31698 0.0
C2274 C 0.16971 0.87496 0.9255 0.0
C2275 C 0.16592 0.87015 0.94729 0.0
H2276 H 0.18752 0.86748 0.8971 0.0
C2277 C 0.17495 0.85147 0.95643 0.0
H2278 H 0.16274 0.88924 0.91815 0.0
C2279 C 0.18969 0.83918 0.94457 0.0
C2280 C 0.19528 0.84538 0.9234 0.0
H2281 H 0.17224 0.84758 0.97331 0.0
H2282 H 0.19789 0.82597 0.95256 0.0
C2283 C 0.18401 0.8625 0.91354 0.0
C2284 C 0.37205 0.94155 0.20182 0.0
C2285 C 0.36129 0.92185 0.19888 0.0
H2286 H 0.38466 0.96993 0.18649 0.0
C2287 C 0.35867 0.9136 0.17792 0.0
H2288 H 0.3738 0.94835 0.21789 0.0
C2289 C 0.36459 0.92595 0.16 0.0
C2290 C 0.37315 0.94679 0.16281 0.0
H2291 H 0.35006 0.89858 0.17535 0.0
H2292 H 0.36067 0.92002 0.14398 0.0
C2293 C 0.37817 0.9539 0.18384 0.0
C2294 C 0.12189 0.05352 0.70238 0.0
C2295 C 0.13218 0.0735 0.69971 0.0
H2296 H 0.10984 0.02512 0.68665 0.0
C2297 C 0.13453 0.08217 0.67889 0.0
H2298 H 0.12038 0.04641 0.71834 0.0
C2299 C 0.12885 0.06995 0.66078 0.0
C2300 C 0.12075 0.04889 0.6633 0.0
H2301 H 0.1428 0.09741 0.67653 0.0
H2302 H 0.13261 0.07621 0.64484 0.0
C2303 C 0.11596 0.04134 0.68423 0.0
C2304 C 0.04765 0.13261 0.45111 0.0
C2305 C 0.04293 0.11778 0.43455 0.0
H2306 H 0.06908 0.14091 0.47709 0.0
C2307 C 0.05677 0.1003 0.43086 0.0
H2308 H 0.03727 0.14632 0.45412 0.0
C2309 C 0.07459 0.09719 0.44389 0.0
C2310 C 0.07916 0.11162 0.46074 0.0
H2311 H 0.05365 0.08866 0.41814 0.0
H2312 H 0.0847 0.08326 0.44087 0.0
C2313 C 0.06584 0.12963 0.46408 0.0
C2314 C 0.11977 0.82499 0.71081 0.0
C2315 C 0.13805 0.83761 0.70665 0.0
H2316 H 0.10239 0.79599 0.70293 0.0
C2317 C 0.1521 0.83143 0.69007 0.0
H2318 H 0.10881 0.82939 0.72366 0.0
C2319 C 0.14843 0.81264 0.67826 0.0
C2320 C 0.13078 0.79938 0.68298 0.0
H2321 H 0.16627 0.84091 0.6865 0.0
H2322 H 0.15984 0.80822 0.66582 0.0
C2323 C 0.11625 0.80584 0.69913 0.0
C2324 C 0.42901 0.86556 0.96524 0.0
C2325 C 0.41542 0.88329 0.96159 0.0
H2326 H 0.4579 0.84922 0.95569 0.0
C2327 C 0.41983 0.89757 0.94455 0.0
H2328 H 0.4259 0.85441 0.9784 0.0
C2329 C 0.43777 0.89456 0.93165 0.0
C2330 C 0.45189 0.87738 0.93568 0.0
H2331 H 0.40951 0.91128 0.94131 0.0
H2332 H 0.44079 0.90607 0.91878 0.0
C2333 C 0.44732 0.86271 0.95243 0.0
C2334 C 0.37855 0.19082 0.19841 0.0
C2335 C 0.36407 0.19715 0.18216 0.0
H2336 H 0.38591 0.16746 0.22313 0.0
C2337 C 0.34643 0.18387 0.1775 0.0
H2338 H 0.39239 0.2007 0.20217 0.0
C2339 C 0.34272 0.16518 0.18943 0.0
C2340 C 0.35672 0.15912 0.2061 0.0
H2341 H 0.33506 0.1882 0.16498 0.0
H2342 H 0.32856 0.15567 0.18589 0.0
C2343 C 0.37498 0.17177 0.21022 0.0
C2344 C 0.04748 0.86357 0.04282 0.0
C2345 C 0.0427 0.87843 0.05933 0.0
H2346 H 0.06908 0.85512 0.01706 0.0
C2347 C 0.05652 0.89593 0.06303 0.0
H2348 H 0.03711 0.84985 0.03981 0.0
C2349 C 0.07445 0.89898 0.05011 0.0
C2350 C 0.07913 0.88445 0.03338 0.0
H2351 H 0.05331 0.90761 0.07569 0.0
H2352 H 0.08456 0.9129 0.05314 0.0
C2353 C 0.06578 0.86647 0.02999 0.0
C2354 C 0.37865 0.80414 0.29639 0.0
C2355 C 0.36423 0.79785 0.31271 0.0
H2356 H 0.3859 0.8274 0.27152 0.0
C2357 C 0.34657 0.81112 0.31736 0.0
H2358 H 0.3925 0.79428 0.29264 0.0
C2359 C 0.34278 0.82974 0.30533 0.0
C2360 C 0.35673 0.83575 0.28859 0.0
H2361 H 0.33524 0.80683 0.32994 0.0
H2362 H 0.32861 0.83923 0.30887 0.0
C2363 C 0.375 0.82313 0.28449 0.0
C2364 C 0.42031 0.09617 0.55049 0.0
C2365 C 0.41546 0.1108 0.53389 0.0
H2366 H 0.44134 0.08767 0.57619 0.0
C2367 C 0.42844 0.12914 0.5309 0.0
H2368 H 0.41048 0.08197 0.55324 0.0
C2369 C 0.44652 0.1323 0.54399 0.0
C2370 C 0.45147 0.11732 0.56036 0.0
H2371 H 0.42499 0.1406 0.5181 0.0
H2372 H 0.45661 0.14629 0.54128 0.0
C2373 C 0.43801 0.09946 0.56366 0.0
C2374 C 0.15165 0.16671 0.80495 0.0
C2375 C 0.13751 0.1606 0.78841 0.0
H2376 H 0.15935 0.18965 0.82946 0.0
C2377 C 0.11913 0.17313 0.78452 0.0
H2378 H 0.1659 0.15729 0.80833 0.0
C2379 C 0.11553 0.1921 0.79646 0.0
C2380 C 0.13009 0.19844 0.81263 0.0
H2381 H 0.10809 0.16877 0.77171 0.0
H2382 H 0.10156 0.20186 0.7929 0.0
C2383 C 0.14789 0.18529 0.81702 0.0
C2384 C 0.45878 0.07157 0.1323 0.0
C2385 C 0.46089 0.08096 0.11167 0.0
H2386 H 0.44245 0.04779 0.15174 0.0
C2387 C 0.44785 0.07356 0.09473 0.0
H2388 H 0.46868 0.07698 0.14564 0.0
C2389 C 0.43293 0.05728 0.09822 0.0
C2390 C 0.43075 0.04773 0.1187 0.0
H2391 H 0.44899 0.08047 0.07865 0.0
H2392 H 0.42316 0.05209 0.08469 0.0
C2393 C 0.44387 0.05488 0.13577 0.0
C2394 C 0.18854 0.18315 0.34978 0.0
C2395 C 0.20223 0.18672 0.36742 0.0
H2396 H 0.16069 0.19316 0.3326 0.0
C2397 C 0.19732 0.20313 0.38237 0.0
H2398 H 0.19182 0.17057 0.33803 0.0
C2399 C 0.17907 0.21601 0.37937 0.0
C2400 C 0.16589 0.21276 0.36123 0.0
H2401 H 0.20758 0.20604 0.39621 0.0
H2402 H 0.17568 0.22887 0.39077 0.0
C2403 C 0.17068 0.1961 0.34665 0.0
C2404 C 0.03625 0.9241 0.6322 0.0
C2405 C 0.03452 0.91432 0.61172 0.0
H2406 H 0.05221 0.94821 0.65149 0.0
C2407 C 0.04805 0.92124 0.59495 0.0
H2408 H 0.02598 0.91905 0.6454 0.0
C2409 C 0.06298 0.93751 0.59845 0.0
C2410 C 0.06469 0.94753 0.61875 0.0
H2411 H 0.04724 0.91399 0.57901 0.0
H2412 H 0.0731 0.94235 0.58504 0.0
C2413 C 0.05116 0.94077 0.63566 0.0
C2414 C 0.31545 0.77979 0.87981 0.0
C2415 C 0.32904 0.78335 0.86203 0.0
H2416 H 0.28653 0.78938 0.89609 0.0
C2417 C 0.3246 0.80024 0.84761 0.0
H2418 H 0.31858 0.76673 0.89106 0.0
C2419 C 0.30663 0.8131 0.85052 0.0
C2420 C 0.29252 0.80918 0.86776 0.0
H2421 H 0.33491 0.8034 0.83386 0.0
H2422 H 0.30358 0.82587 0.83891 0.0
C2423 C 0.29711 0.79256 0.88256 0.0
C2424 C 0.45859 0.92372 0.36238 0.0
C2425 C 0.46044 0.91399 0.38288 0.0
H2426 H 0.44244 0.94772 0.34311 0.0
C2427 C 0.44699 0.92092 0.39971 0.0
H2428 H 0.4688 0.91866 0.34914 0.0
C2429 C 0.432 0.93712 0.39625 0.0
C2430 C 0.43015 0.94707 0.37592 0.0
H2431 H 0.44791 0.91371 0.41567 0.0
H2432 H 0.42194 0.94196 0.4097 0.0
C2433 C 0.44361 0.94033 0.35896 0.0
C2434 C 0.29756 0.20216 0.61293 0.0
C2435 C 0.29266 0.18565 0.62776 0.0
H2436 H 0.31914 0.22805 0.60477 0.0
C2437 C 0.30631 0.182 0.64542 0.0
H2438 H 0.28734 0.20515 0.59909 0.0
C2439 C 0.32412 0.195 0.6487 0.0
C2440 C 0.32887 0.21179 0.63425 0.0
H2441 H 0.30303 0.16932 0.65707 0.0
H2442 H 0.33407 0.19202 0.66276 0.0
C2443 C 0.31575 0.2151 0.61607 0.0
C2444 C 0.05031 0.05591 0.85963 0.0
C2445 C 0.06343 0.04891 0.87676 0.0
H2446 H 0.0254 0.07781 0.8496 0.0
C2447 C 0.06118 0.05856 0.89719 0.0
H2448 H 0.05179 0.04875 0.8437 0.0
C2449 C 0.04617 0.07478 0.90056 0.0
C2450 C 0.03311 0.08201 0.88356 0.0
H2451 H 0.07096 0.0535 0.91076 0.0
H2452 H 0.04498 0.08176 0.9166 0.0
C2453 C 0.03531 0.07253 0.86298 0.0
C2454 C 0.19714 0.79123 0.11163 0.0
C2455 C 0.20168 0.80778 0.12653 0.0
H2456 H 0.17572 0.76538 0.10297 0.0
C2457 C 0.18754 0.81157 0.14376 0.0
H2458 H 0.20775 0.78815 0.0981 0.0
C2459 C 0.1696 0.79865 0.14658 0.0
C2460 C 0.1652 0.78181 0.13207 0.0
H2461 H 0.19054 0.82428 0.15545 0.0
H2462 H 0.15926 0.80172 0.16033 0.0
C2463 C 0.17882 0.77838 0.1143 0.0
C2464 C 0.09632 0.42779 0.06146 0.0
C2465 C 0.11392 0.43245 0.0481 0.0
H2466 H 0.07835 0.43638 0.08955 0.0
C2467 C 0.12823 0.44893 0.05421 0.0
H2468 H 0.08508 0.4151 0.05731 0.0
C2469 C 0.12452 0.46098 0.07311 0.0
C2470 C 0.10629 0.45685 0.0858 0.0
H2471 H 0.14203 0.4527 0.04428 0.0
H2472 H 0.13531 0.47406 0.07724 0.0
C2473 C 0.09247 0.43995 0.07998 0.0
C2474 C 0.59212 0.05477 0.9151 0.0
C2475 C 0.60623 0.03826 0.9089 0.0
H2476 H 0.58437 0.07904 0.93829 0.0
C2477 C 0.62451 0.03416 0.92152 0.0
H2478 H 0.57793 0.05829 0.90562 0.0
C2479 C 0.62803 0.04586 0.94066 0.0
C2480 C 0.6135 0.062 0.9471 0.0
H2481 H 0.63552 0.02136 0.91711 0.0
H2482 H 0.64192 0.04214 0.95049 0.0
C2483 C 0.5958 0.06662 0.93387 0.0
C2484 C 0.1829 0.34866 0.18922 0.0
C2485 C 0.18007 0.36948 0.19776 0.0
H2486 H 0.19957 0.32852 0.16702 0.0
C2487 C 0.19277 0.38654 0.1899 0.0
H2488 H 0.17349 0.33511 0.19502 0.0
C2489 C 0.20784 0.38275 0.17342 0.0
C2490 C 0.21053 0.3618 0.16495 0.0
H2491 H 0.19085 0.40276 0.19622 0.0
H2492 H 0.21735 0.3961 0.16739 0.0
C2493 C 0.19797 0.34485 0.17315 0.0
C2494 C 0.89861 0.9283 0.43447 0.0
C2495 C 0.88095 0.93302 0.44772 0.0
H2496 H 0.91653 0.93654 0.40623 0.0
C2497 C 0.86653 0.94928 0.44132 0.0
H2498 H 0.90994 0.91578 0.43886 0.0
C2499 C 0.87014 0.96101 0.42221 0.0
C2500 C 0.8884 0.9568 0.40957 0.0
H2501 H 0.85268 0.95309 0.45117 0.0
H2502 H 0.85923 0.97391 0.41783 0.0
C2503 C 0.90237 0.94016 0.41573 0.0
C2504 C 0.80987 0.14622 0.18893 0.0
C2505 C 0.81269 0.12568 0.19814 0.0
H2506 H 0.79331 0.16562 0.166 0.0
C2507 C 0.80008 0.10835 0.19073 0.0
H2508 H 0.81922 0.15995 0.19436 0.0
C2509 C 0.78511 0.1116 0.17404 0.0
C2510 C 0.78243 0.13227 0.1649 0.0
H2511 H 0.802 0.09233 0.19755 0.0
H2512 H 0.77565 0.09805 0.16837 0.0
C2513 C 0.79491 0.14948 0.17265 0.0
C2514 C 0.39785 0.56873 0.5622 0.0
C2515 C 0.38043 0.56369 0.54875 0.0
H2516 H 0.4158 0.56057 0.59046 0.0
C2517 C 0.36633 0.54704 0.5549 0.0
H2518 H 0.40893 0.58156 0.55802 0.0
C2519 C 0.37009 0.5352 0.57391 0.0
C2520 C 0.38818 0.53968 0.58668 0.0
H2521 H 0.35266 0.54298 0.5449 0.0
H2522 H 0.35948 0.52197 0.57805 0.0
C2523 C 0.40178 0.55675 0.58083 0.0
C2524 C 0.19861 0.64989 0.32343 0.0
C2525 C 0.2115 0.63281 0.33075 0.0
H2526 H 0.17402 0.66028 0.30199 0.0
C2527 C 0.20922 0.61227 0.32121 0.0
H2528 H 0.19989 0.66591 0.33043 0.0
C2529 C 0.19427 0.60904 0.3045 0.0
C2530 C 0.1813 0.62625 0.29743 0.0
H2531 H 0.219 0.59883 0.32654 0.0
H2532 H 0.1927 0.59314 0.29733 0.0
C2533 C 0.18368 0.64664 0.3071 0.0
C2534 C 0.28601 0.38336 0.82213 0.0
C2535 C 0.28286 0.36237 0.83034 0.0
H2536 H 0.30326 0.40324 0.79937 0.0
C2537 C 0.29465 0.34517 0.82154 0.0
H2538 H 0.27707 0.3969 0.82861 0.0
C2539 C 0.30951 0.34878 0.80523 0.0
C2540 C 0.31291 0.36965 0.79705 0.0
H2541 H 0.29264 0.32878 0.8274 0.0
H2542 H 0.31837 0.33505 0.79901 0.0
C2543 C 0.30088 0.38697 0.80541 0.0
C2544 C 0.9264 0.86651 0.53329 0.0
C2545 C 0.91437 0.88563 0.53501 0.0
H2546 H 0.95358 0.84858 0.54487 0.0
C2547 C 0.91982 0.90091 0.55087 0.0
H2548 H 0.92251 0.85453 0.52111 0.0
C2549 C 0.9372 0.89741 0.56452 0.0
C2550 C 0.94978 0.87874 0.56235 0.0
H2551 H 0.91072 0.91572 0.55263 0.0
H2552 H 0.94109 0.90966 0.57643 0.0
C2553 C 0.94418 0.86319 0.54675 0.0
C2554 C 0.84716 0.18925 0.30888 0.0
C2555 C 0.86491 0.20308 0.30697 0.0
H2556 H 0.83081 0.16144 0.29657 0.0
C2557 C 0.88052 0.19881 0.2912 0.0
H2558 H 0.83489 0.19217 0.32093 0.0
C2559 C 0.87833 0.18101 0.27745 0.0
C2560 C 0.86033 0.16746 0.27908 0.0
H2561 H 0.89441 0.20917 0.28948 0.0
H2562 H 0.89051 0.17812 0.26529 0.0
C2563 C 0.84481 0.17168 0.29494 0.0
C2564 C 0.5579 0.09819 0.06445 0.0
C2565 C 0.54536 0.11689 0.06237 0.0
H2566 H 0.58415 0.07972 0.05226 0.0
C2567 C 0.55083 0.13237 0.04663 0.0
H2568 H 0.55411 0.086 0.07646 0.0
C2569 C 0.56842 0.12893 0.03294 0.0
C2570 C 0.58038 0.10976 0.03457 0.0
H2571 H 0.54146 0.147 0.04482 0.0
H2572 H 0.5722 0.14085 0.02067 0.0
C2573 C 0.57508 0.09457 0.05057 0.0
C2574 C 0.61253 0.7966 0.79211 0.0
C2575 C 0.62859 0.79206 0.80734 0.0
H2576 H 0.60217 0.81725 0.76632 0.0
C2577 C 0.64678 0.80539 0.80837 0.0
H2578 H 0.59829 0.78663 0.79107 0.0
C2579 C 0.6491 0.82271 0.79412 0.0
C2580 C 0.63313 0.82719 0.7788 0.0
H2581 H 0.65941 0.80226 0.81999 0.0
H2582 H 0.66343 0.83256 0.79509 0.0
C2583 C 0.61471 0.81414 0.77804 0.0
C2584 C 0.91869 0.09523 0.94436 0.0
C2585 C 0.91337 0.11037 0.9604 0.0
H2586 H 0.93971 0.08674 0.91851 0.0
C2587 C 0.92532 0.12954 0.9621 0.0
H2588 H 0.90963 0.08039 0.9426 0.0
C2589 C 0.94294 0.13304 0.94846 0.0
C2590 C 0.94845 0.1176 0.9327 0.0
H2591 H 0.92151 0.14142 0.9744 0.0
H2592 H 0.9523 0.14767 0.95033 0.0
C2593 C 0.93591 0.0989 0.93054 0.0
C2594 C 0.64944 0.1712 0.69985 0.0
C2595 C 0.63381 0.16715 0.71566 0.0
H2596 H 0.65965 0.19153 0.67385 0.0
C2597 C 0.6159 0.18083 0.71714 0.0
H2598 H 0.66336 0.16086 0.69834 0.0
C2599 C 0.61392 0.1986 0.70332 0.0
C2600 C 0.62965 0.20271 0.68762 0.0
H2601 H 0.60364 0.17807 0.72925 0.0
H2602 H 0.6001 0.20907 0.70493 0.0
C2603 C 0.6473 0.18874 0.68585 0.0
C2604 C 0.55758 0.89779 0.43038 0.0
C2605 C 0.54525 0.8789 0.43225 0.0
H2606 H 0.58372 0.91635 0.4427 0.0
C2607 C 0.55097 0.86325 0.4477 0.0
H2608 H 0.55358 0.91011 0.41859 0.0
C2609 C 0.5686 0.86666 0.46132 0.0
C2610 C 0.58036 0.88598 0.45992 0.0
H2611 H 0.54177 0.84848 0.44934 0.0
H2612 H 0.57258 0.85459 0.47337 0.0
C2613 C 0.57481 0.90138 0.44421 0.0
C2614 C 0.87848 0.815 0.21686 0.0
C2615 C 0.86021 0.82822 0.21592 0.0
H2616 H 0.8948 0.78742 0.20388 0.0
C2617 C 0.84444 0.82406 0.2003 0.0
H2618 H 0.89087 0.81787 0.2288 0.0
C2619 C 0.8468 0.80683 0.18594 0.0
C2620 C 0.86483 0.7933 0.18717 0.0
H2621 H 0.83023 0.83406 0.19919 0.0
H2622 H 0.83433 0.80392 0.17409 0.0
C2623 C 0.8807 0.79755 0.20268 0.0
C2624 C 0.56024 0.9402 0.89422 0.0
C2625 C 0.55547 0.95364 0.87658 0.0
H2626 H 0.5524 0.91157 0.91172 0.0
C2627 C 0.53938 0.94745 0.86191 0.0
H2628 H 0.57265 0.94448 0.90571 0.0
C2629 C 0.52795 0.92822 0.86517 0.0
C2630 C 0.5323 0.91531 0.88334 0.0
H2631 H 0.53556 0.95748 0.84807 0.0
H2632 H 0.51526 0.92389 0.85403 0.0
C2633 C 0.54868 0.92133 0.89764 0.0
C2634 C 0.81828 0.78427 0.61546 0.0
C2635 C 0.83029 0.78584 0.63462 0.0
H2636 H 0.79115 0.79601 0.59757 0.0
C2637 C 0.82486 0.80158 0.65002 0.0
H2638 H 0.82216 0.77219 0.60339 0.0
C2639 C 0.8075 0.81527 0.6466 0.0
C2640 C 0.79493 0.81325 0.62789 0.0
H2641 H 0.83395 0.80323 0.66488 0.0
H2642 H 0.80361 0.82709 0.65894 0.0
C2643 C 0.80053 0.79777 0.61221 0.0
C2644 C 0.95567 0.04721 0.36197 0.0
C2645 C 0.93963 0.04125 0.37679 0.0
H2646 H 0.97966 0.07071 0.35354 0.0
C2647 C 0.9348 0.05503 0.39413 0.0
H2648 H 0.95954 0.03692 0.34834 0.0
C2649 C 0.94625 0.07405 0.39712 0.0
C2650 C 0.96259 0.07987 0.38266 0.0
H2651 H 0.92242 0.05094 0.40573 0.0
H2652 H 0.9425 0.08409 0.41099 0.0
C2653 C 0.967 0.06657 0.36479 0.0
C2654 C 0.6755 0.21086 0.11622 0.0
C2655 C 0.66354 0.2095 0.13543 0.0
H2656 H 0.70231 0.19861 0.09817 0.0
C2657 C 0.66871 0.19359 0.15076 0.0
H2658 H 0.67181 0.22305 0.10418 0.0
C2659 C 0.68576 0.17954 0.14722 0.0
C2660 C 0.6983 0.18136 0.12846 0.0
H2661 H 0.65964 0.19209 0.16565 0.0
H2662 H 0.68947 0.16762 0.15952 0.0
C2663 C 0.69295 0.197 0.11285 0.0
C2664 C 0.55902 0.05438 0.60104 0.0
C2665 C 0.55417 0.04077 0.61852 0.0
H2666 H 0.55145 0.08336 0.58398 0.0
C2667 C 0.53821 0.04694 0.63335 0.0
H2668 H 0.57133 0.05011 0.58944 0.0
C2669 C 0.52701 0.06634 0.63041 0.0
C2670 C 0.53145 0.07948 0.61243 0.0
H2671 H 0.53433 0.03677 0.64707 0.0
H2672 H 0.51443 0.07065 0.64169 0.0
C2673 C 0.54768 0.07345 0.59794 0.0
C2674 C 0.67587 0.78394 0.3802 0.0
C2675 C 0.66382 0.78553 0.36106 0.0
H2676 H 0.70289 0.79586 0.39816 0.0
C2677 C 0.669 0.80154 0.34584 0.0
H2678 H 0.67217 0.77167 0.39214 0.0
C2679 C 0.68617 0.81544 0.34938 0.0
C2680 C 0.69882 0.81338 0.36804 0.0
H2681 H 0.65986 0.80321 0.33102 0.0
H2682 H 0.68988 0.82744 0.33716 0.0
C2683 C 0.69344 0.79766 0.38357 0.0
C2684 C 0.96685 0.92891 0.13007 0.0
C2685 C 0.96227 0.91557 0.11228 0.0
H2686 H 0.95927 0.95844 0.14671 0.0
C2687 C 0.94546 0.92105 0.09827 0.0
H2688 H 0.97987 0.925 0.14098 0.0
C2689 C 0.93374 0.93984 0.10156 0.0
C2690 C 0.93877 0.95374 0.11875 0.0
H2691 H 0.94156 0.91094 0.08449 0.0
H2692 H 0.92102 0.9437 0.09026 0.0
C2693 C 0.95524 0.94805 0.13319 0.0
C2694 C 0.81782 0.21229 0.8791 0.0
C2695 C 0.82976 0.21108 0.85986 0.0
H2696 H 0.79104 0.19988 0.89711 0.0
C2697 C 0.82451 0.19533 0.84439 0.0
H2698 H 0.82156 0.22436 0.89124 0.0
C2699 C 0.80745 0.18125 0.84785 0.0
C2700 C 0.79498 0.18288 0.86667 0.0
H2701 H 0.83355 0.19394 0.82948 0.0
H2702 H 0.80372 0.16943 0.83547 0.0
C2703 C 0.80035 0.19841 0.88239 0.0
C2704 C 0.86239 0.54258 0.94753 0.0
C2705 C 0.87823 0.55791 0.95244 0.0
H2706 H 0.85255 0.51696 0.92642 0.0
C2707 C 0.89658 0.55929 0.93935 0.0
H2708 H 0.84804 0.54128 0.9573 0.0
C2709 C 0.89927 0.54529 0.92189 0.0
C2710 C 0.88351 0.52988 0.91702 0.0
H2711 H 0.90905 0.571 0.94278 0.0
H2712 H 0.91371 0.54652 0.91224 0.0
C2713 C 0.86493 0.52876 0.92982 0.0
C2714 C 0.36337 0.95236 0.04724 0.0
C2715 C 0.37931 0.93694 0.04294 0.0
H2716 H 0.35312 0.97839 0.06763 0.0
C2717 C 0.39737 0.93581 0.05644 0.0
H2718 H 0.34923 0.95348 0.03713 0.0
C2719 C 0.3997 0.95014 0.07369 0.0
C2720 C 0.38386 0.96567 0.07791 0.0
H2721 H 0.4099 0.92405 0.0535 0.0
H2722 H 0.41394 0.9491 0.08366 0.0
C2723 C 0.36555 0.96652 0.06472 0.0
C2724 C 0.7979 0.64758 0.82257 0.0
C2725 C 0.78167 0.633 0.82837 0.0
H2726 H 0.82201 0.65614 0.79972 0.0
C2727 C 0.77777 0.61484 0.81532 0.0
H2728 H 0.80129 0.66166 0.83244 0.0
C2729 C 0.78949 0.61184 0.7962 0.0
C2730 C 0.80542 0.62679 0.79024 0.0
H2731 H 0.76522 0.60347 0.81947 0.0
H2732 H 0.78601 0.59799 0.78607 0.0
C2733 C 0.80974 0.64443 0.80381 0.0
C2734 C 0.13125 0.04276 0.54679 0.0
C2735 C 0.11529 0.05811 0.54237 0.0
H2736 H 0.1416 0.01698 0.56745 0.0
C2737 C 0.09728 0.0594 0.55594 0.0
H2738 H 0.14535 0.04152 0.53664 0.0
C2739 C 0.09502 0.04526 0.57336 0.0
C2740 C 0.11088 0.02981 0.57771 0.0
H2741 H 0.08473 0.07112 0.5529 0.0
H2742 H 0.08082 0.04641 0.58338 0.0
C2743 C 0.12914 0.02881 0.56445 0.0
C2744 C 0.21661 0.88001 0.817 0.0
C2745 C 0.21232 0.86167 0.82967 0.0
H2746 H 0.20895 0.89749 0.78797 0.0
C2747 C 0.19601 0.84739 0.82342 0.0
H2748 H 0.22924 0.89115 0.8215 0.0
C2749 C 0.18443 0.85104 0.80458 0.0
C2750 C 0.18913 0.86888 0.79141 0.0
H2751 H 0.19233 0.83317 0.83299 0.0
H2752 H 0.17206 0.83957 0.80013 0.0
C2753 C 0.20518 0.8835 0.7978 0.0
C2754 C 0.59413 0.44931 0.4219 0.0
C2755 C 0.60999 0.46476 0.41743 0.0
H2756 H 0.58409 0.42327 0.44229 0.0
C2757 C 0.62849 0.46552 0.43035 0.0
H2758 H 0.57974 0.44834 0.41214 0.0
C2759 C 0.63086 0.45135 0.44779 0.0
C2760 C 0.6149 0.43602 0.45236 0.0
H2761 H 0.64095 0.47731 0.42724 0.0
H2762 H 0.64516 0.45241 0.45768 0.0
C2763 C 0.59664 0.43496 0.43913 0.0
C2764 C 0.77932 0.37916 0.67742 0.0
C2765 C 0.78318 0.36051 0.66506 0.0
H2766 H 0.78732 0.39692 0.70618 0.0
C2767 C 0.79907 0.34589 0.67166 0.0
H2768 H 0.76702 0.39057 0.67266 0.0
C2769 C 0.81066 0.34955 0.69049 0.0
C2770 C 0.80639 0.36774 0.70333 0.0
H2771 H 0.80242 0.33143 0.66234 0.0
H2772 H 0.8227 0.33784 0.6952 0.0
C2773 C 0.79075 0.38266 0.69662 0.0
C2774 C 0.69716 0.65031 0.17424 0.0
C2775 C 0.71247 0.63526 0.16726 0.0
H2776 H 0.67395 0.65873 0.19809 0.0
C2777 C 0.71591 0.61636 0.17936 0.0
H2778 H 0.69416 0.66499 0.16516 0.0
C2779 C 0.70453 0.61294 0.19861 0.0
C2780 C 0.68934 0.62819 0.20561 0.0
H2781 H 0.72777 0.60461 0.17431 0.0
H2782 H 0.70755 0.59842 0.20792 0.0
C2783 C 0.6856 0.64673 0.19311 0.0
C2784 C 0.55656 0.60048 0.93244 0.0
C2785 C 0.54248 0.61769 0.93647 0.0
H2786 H 0.58489 0.58381 0.942 0.0
C2787 C 0.54718 0.63246 0.95308 0.0
H2788 H 0.55344 0.58889 0.91967 0.0
C2789 C 0.56558 0.6297 0.96577 0.0
C2790 C 0.57914 0.61193 0.96213 0.0
H2791 H 0.53661 0.64597 0.95635 0.0
H2792 H 0.56878 0.64092 0.97884 0.0
C2793 C 0.5746 0.59756 0.94522 0.0
C2794 C 0.61615 0.30376 0.19895 0.0
C2795 C 0.63067 0.29734 0.18278 0.0
H2796 H 0.60865 0.32731 0.22345 0.0
C2797 C 0.64828 0.31065 0.17803 0.0
H2798 H 0.60233 0.29388 0.20277 0.0
C2799 C 0.6519 0.32946 0.1898 0.0
C2800 C 0.63784 0.33563 0.20638 0.0
H2801 H 0.65969 0.30625 0.16556 0.0
H2802 H 0.66603 0.339 0.18619 0.0
C2803 C 0.61962 0.32294 0.21059 0.0
C2804 C 0.94588 0.36345 0.45006 0.0
C2805 C 0.95071 0.37844 0.43368 0.0
H2806 H 0.92434 0.35488 0.47581 0.0
C2807 C 0.93686 0.39593 0.43002 0.0
H2808 H 0.95625 0.34973 0.45303 0.0
C2809 C 0.91894 0.39892 0.44299 0.0
C2810 C 0.91431 0.38433 0.4597 0.0
H2811 H 0.94009 0.40769 0.41743 0.0
H2812 H 0.90884 0.41288 0.44009 0.0
C2813 C 0.92762 0.36629 0.46292 0.0
C2814 C 0.87469 0.67281 0.70969 0.0
C2815 C 0.85618 0.6604 0.70594 0.0
H2816 H 0.89229 0.70155 0.70138 0.0
C2817 C 0.84179 0.66685 0.68975 0.0
H2818 H 0.88594 0.66822 0.72222 0.0
C2819 C 0.84544 0.68559 0.67787 0.0
C2820 C 0.86342 0.69856 0.68211 0.0
H2821 H 0.82743 0.65755 0.68648 0.0
H2822 H 0.83382 0.69019 0.66569 0.0
C2823 C 0.8782 0.69192 0.69795 0.0
C2824 C 0.54788 0.36248 0.54397 0.0
C2825 C 0.54322 0.37749 0.56039 0.0
H2826 H 0.56935 0.35373 0.5182 0.0
C2827 C 0.55727 0.39482 0.56406 0.0
H2828 H 0.53735 0.34888 0.54098 0.0
C2829 C 0.57523 0.39762 0.55113 0.0
C2830 C 0.57971 0.38301 0.5344 0.0
H2831 H 0.55419 0.40658 0.57668 0.0
H2832 H 0.58549 0.41145 0.55409 0.0
C2833 C 0.56619 0.36515 0.53111 0.0
C2834 C 0.84264 0.33076 0.80511 0.0
C2835 C 0.85685 0.3367 0.78856 0.0
H2836 H 0.8346 0.30784 0.82955 0.0
C2837 C 0.87506 0.32392 0.78466 0.0
H2838 H 0.82851 0.34038 0.80849 0.0
C2839 C 0.87838 0.30487 0.79654 0.0
C2840 C 0.86371 0.29866 0.81267 0.0
H2841 H 0.88615 0.32812 0.77184 0.0
H2842 H 0.89219 0.2949 0.79294 0.0
C2843 C 0.84611 0.31208 0.81713 0.0
C2844 C 0.91676 0.59785 0.05162 0.0
C2845 C 0.91247 0.61181 0.0343 0.0
H2846 H 0.9378 0.58957 0.0774 0.0
C2847 C 0.9262 0.62936 0.03027 0.0
H2848 H 0.90631 0.58429 0.05513 0.0
C2849 C 0.94461 0.63223 0.04291 0.0
C2850 C 0.94915 0.61777 0.05984 0.0
H2851 H 0.92318 0.64026 0.01689 0.0
H2852 H 0.95536 0.6455 0.03929 0.0
C2853 C 0.93482 0.60088 0.06435 0.0
C2854 C 0.61986 0.6723 0.28564 0.0
C2855 C 0.63799 0.65955 0.28994 0.0
H2856 H 0.60265 0.70143 0.29335 0.0
C2857 C 0.652 0.66566 0.30658 0.0
H2858 H 0.60893 0.66796 0.27272 0.0
C2859 C 0.6484 0.68449 0.31833 0.0
C2860 C 0.63087 0.69786 0.31349 0.0
H2861 H 0.66608 0.65608 0.31026 0.0
H2862 H 0.65976 0.68886 0.33085 0.0
C2863 C 0.61641 0.69149 0.29724 0.0
C2864 C 0.9356 0.55688 0.5976 0.0
C2865 C 0.93296 0.54775 0.61821 0.0
H2866 H 0.95157 0.58018 0.5781 0.0
C2867 C 0.94528 0.55563 0.63556 0.0
H2868 H 0.92646 0.55109 0.58386 0.0
C2869 C 0.95975 0.57273 0.63226 0.0
C2870 C 0.96224 0.58182 0.61153 0.0
H2871 H 0.94347 0.54887 0.65163 0.0
H2872 H 0.96898 0.57877 0.64582 0.0
C2873 C 0.95009 0.57359 0.59429 0.0
C2874 C 0.66848 0.69337 0.84665 0.0
C2875 C 0.66427 0.71047 0.8609 0.0
H2876 H 0.68928 0.66751 0.83806 0.0
C2877 C 0.67799 0.71411 0.87854 0.0
H2878 H 0.65804 0.69014 0.83301 0.0
C2879 C 0.69627 0.70125 0.88129 0.0
C2880 C 0.70066 0.68447 0.86662 0.0
H2881 H 0.67504 0.72732 0.88967 0.0
H2882 H 0.70698 0.70453 0.89469 0.0
C2883 C 0.68639 0.68042 0.84956 0.0
C2884 C 0.55027 0.44061 0.13649 0.0
C2885 C 0.56328 0.44799 0.11943 0.0
H2886 H 0.52574 0.41818 0.14634 0.0
C2887 C 0.56117 0.43849 0.09892 0.0
H2888 H 0.55165 0.44765 0.15249 0.0
C2889 C 0.54644 0.42204 0.0954 0.0
C2890 C 0.53352 0.41441 0.11234 0.0
H2891 H 0.57086 0.44385 0.08538 0.0
H2892 H 0.54536 0.41518 0.07929 0.0
C2893 C 0.53555 0.42376 0.133 0.0
C2894 C 0.7977 0.29282 0.38235 0.0
C2895 C 0.79327 0.31013 0.3683 0.0
H2896 H 0.81898 0.26647 0.38972 0.0
C2897 C 0.80766 0.31495 0.35153 0.0
H2898 H 0.7869 0.28894 0.39552 0.0
C2899 C 0.82562 0.30218 0.34817 0.0
C2900 C 0.82978 0.2845 0.36168 0.0
H2901 H 0.8048 0.32829 0.34053 0.0
H2902 H 0.8361 0.30596 0.33469 0.0
C2903 C 0.81604 0.28014 0.37916 0.0
C2904 C 0.94432 0.44114 0.85958 0.0
C2905 C 0.93084 0.44816 0.87642 0.0
H2906 H 0.96925 0.41907 0.85003 0.0
C2907 C 0.93249 0.43835 0.89683 0.0
H2908 H 0.9433 0.44842 0.84367 0.0
C2909 C 0.94725 0.42197 0.90048 0.0
C2910 C 0.96066 0.41473 0.88376 0.0
H2911 H 0.92242 0.44343 0.91019 0.0
H2912 H 0.948 0.41487 0.9165 0.0
C2913 C 0.95905 0.42436 0.86319 0.0
C2914 C 0.80754 0.68131 0.14382 0.0
C2915 C 0.79295 0.68575 0.12713 0.0
H2916 H 0.83607 0.69079 0.16021 0.0
C2917 C 0.79708 0.7029 0.1128 0.0
H2918 H 0.80489 0.6681 0.15504 0.0
C2919 C 0.81534 0.7158 0.11561 0.0
C2920 C 0.8293 0.71181 0.13298 0.0
H2921 H 0.78613 0.70649 0.09968 0.0
H2922 H 0.81806 0.72932 0.1048 0.0
C2923 C 0.82542 0.69429 0.1468 0.0
C2924 C 0.54594 0.57289 0.40073 0.0
C2925 C 0.53319 0.5806 0.3837 0.0
H2926 H 0.57021 0.55099 0.41089 0.0
C2927 C 0.53534 0.57126 0.36304 0.0
H2928 H 0.54474 0.57971 0.41684 0.0
C2929 C 0.55004 0.55438 0.35963 0.0
C2930 C 0.5629 0.54696 0.37677 0.0
H2931 H 0.52566 0.5769 0.34963 0.0
H2932 H 0.55153 0.54739 0.34363 0.0
C2933 C 0.56064 0.5564 0.3973 0.0
C2934 C 0.67958 0.27915 0.61555 0.0
C2935 C 0.66565 0.28367 0.63283 0.0
H2936 H 0.70894 0.28778 0.59948 0.0
C2937 C 0.66977 0.30137 0.64634 0.0
H2938 H 0.67668 0.26546 0.60502 0.0
C2939 C 0.68783 0.31402 0.64315 0.0
C2940 C 0.70237 0.30909 0.62655 0.0
H2941 H 0.65915 0.30526 0.65967 0.0
H2942 H 0.69062 0.32739 0.65413 0.0
C2943 C 0.69802 0.29174 0.61252 0.0
C2944 C 0.59516 0.92806 0.56088 0.0
C2945 C 0.61298 0.93283 0.54786 0.0
H2946 H 0.57699 0.93614 0.589 0.0
C2947 C 0.62741 0.94896 0.55455 0.0
H2948 H 0.58381 0.91564 0.55625 0.0
C2949 C 0.62367 0.96052 0.57373 0.0
C2950 C 0.60526 0.95629 0.58614 0.0
H2951 H 0.64139 0.95279 0.54488 0.0
H2952 H 0.6346 0.97332 0.57834 0.0
C2953 C 0.59126 0.93977 0.57969 0.0
C2954 C 0.09851 0.56854 0.43428 0.0
C2955 C 0.11513 0.5628 0.44848 0.0
H2956 H 0.08142 0.56107 0.40532 0.0
C2957 C 0.12876 0.54555 0.44297 0.0
H2958 H 0.08783 0.58186 0.43793 0.0
C2959 C 0.12527 0.5338 0.42384 0.0
C2960 C 0.10792 0.53902 0.41032 0.0
H2961 H 0.14182 0.54094 0.45355 0.0
H2962 H 0.13543 0.52008 0.42018 0.0
C2963 C 0.09486 0.55669 0.41554 0.0
C2964 C 0.68096 0.84858 0.68598 0.0
C2965 C 0.67936 0.86865 0.69645 0.0
H2966 H 0.69674 0.82953 0.66216 0.0
C2967 C 0.69307 0.88557 0.69013 0.0
H2968 H 0.67068 0.83518 0.69046 0.0
C2969 C 0.7081 0.88234 0.67351 0.0
C2970 C 0.70975 0.86207 0.66333 0.0
H2971 H 0.69211 0.90124 0.69792 0.0
H2972 H 0.71854 0.89554 0.66884 0.0
C2973 C 0.696 0.8453 0.66975 0.0
C2974 C 0.40214 0.43987 0.91676 0.0
C2975 C 0.38779 0.45619 0.91062 0.0
H2976 H 0.41012 0.41547 0.93972 0.0
C2977 C 0.36932 0.45981 0.92311 0.0
H2978 H 0.41647 0.43671 0.90736 0.0
C2979 C 0.36583 0.44781 0.94207 0.0
C2980 C 0.3806 0.43186 0.94844 0.0
H2981 H 0.35811 0.47245 0.91874 0.0
H2982 H 0.35179 0.45114 0.95181 0.0
C2983 C 0.39851 0.42774 0.93534 0.0
C2984 C 0.30056 0.60976 0.69115 0.0
C2985 C 0.31462 0.62638 0.69746 0.0
H2986 H 0.27487 0.60038 0.6699 0.0
C2987 C 0.31347 0.64649 0.68698 0.0
H2988 H 0.30117 0.59409 0.69894 0.0
C2989 C 0.29849 0.6501 0.67076 0.0
C2990 C 0.28438 0.63364 0.66438 0.0
H2991 H 0.32403 0.65966 0.69145 0.0
H2992 H 0.29807 0.66589 0.66316 0.0
C2993 C 0.2856 0.61333 0.67455 0.0
C2994 C 0.86586 0.04586 0.05393 0.0
C2995 C 0.88038 0.06201 0.04748 0.0
H2996 H 0.85847 0.02129 0.07747 0.0
C2997 C 0.89818 0.06653 0.0606 0.0
H2998 H 0.8519 0.04221 0.04418 0.0
C2999 C 0.90196 0.05462 0.0793 0.0
C3000 C 0.88785 0.03812 0.08555 0.0
H3001 H 0.90961 0.07896 0.05616 0.0
H3002 H 0.9162 0.0581 0.08871 0.0
C3003 C 0.86949 0.03408 0.07301 0.0
C3004 C 0.69848 0.15002 0.82249 0.0
C3005 C 0.71117 0.13296 0.83021 0.0
H3006 H 0.674 0.16019 0.80083 0.0
C3007 C 0.7087 0.11225 0.8211 0.0
H3008 H 0.69992 0.16618 0.82913 0.0
C3009 C 0.69372 0.10881 0.80446 0.0
C3010 C 0.6809 0.12599 0.79706 0.0
H3011 H 0.71832 0.09882 0.82676 0.0
H3012 H 0.69197 0.09277 0.79765 0.0
C3013 C 0.68351 0.14656 0.80625 0.0
C3014 C 0.81114 0.84847 0.30779 0.0
C3015 C 0.81344 0.86892 0.29822 0.0
H3016 H 0.79498 0.82905 0.33106 0.0
C3017 C 0.80046 0.88606 0.3054 0.0
H3018 H 0.8208 0.83488 0.30258 0.0
C3019 C 0.78557 0.88272 0.32213 0.0
C3020 C 0.78333 0.86214 0.33155 0.0
H3021 H 0.80198 0.902 0.2983 0.0
H3022 H 0.77578 0.89613 0.32756 0.0
C3023 C 0.79623 0.8451 0.32413 0.0
C3024 C 0.44421 0.36206 0.04708 0.0
C3025 C 0.44939 0.37758 0.06287 0.0
H3026 H 0.4229 0.35318 0.02121 0.0
C3027 C 0.43634 0.3959 0.0652 0.0
H3028 H 0.45397 0.34771 0.04508 0.0
C3029 C 0.41894 0.39912 0.0515 0.0
C3030 C 0.41396 0.38391 0.03542 0.0
H3031 H 0.43988 0.40811 0.07726 0.0
H3032 H 0.40948 0.4137 0.05338 0.0
C3033 C 0.42643 0.3651 0.03356 0.0
C3034 C 0.3446 0.67113 0.79567 0.0
C3035 C 0.36058 0.66672 0.78033 0.0
H3036 H 0.33428 0.69152 0.82159 0.0
C3037 C 0.379 0.67975 0.77962 0.0
H3038 H 0.33027 0.66128 0.7966 0.0
C3039 C 0.38117 0.69726 0.79372 0.0
C3040 C 0.36509 0.70176 0.80895 0.0
H3041 H 0.39155 0.67668 0.7679 0.0
H3042 H 0.39539 0.70724 0.79269 0.0
C3043 C 0.34691 0.68841 0.80997 0.0
C3044 C 0.06905 0.6305 0.5333 0.0
C3045 C 0.0811 0.61143 0.53531 0.0
H3046 H 0.04196 0.64864 0.54481 0.0
C3047 C 0.07589 0.59653 0.5516 0.0
H3048 H 0.07277 0.64218 0.52078 0.0
C3049 C 0.05869 0.60032 0.5654 0.0
C3050 C 0.04604 0.6189 0.56294 0.0
H3051 H 0.08505 0.58178 0.55361 0.0
H3052 H 0.05498 0.58834 0.57763 0.0
C3053 C 0.05142 0.63411 0.54691 0.0
C3054 C 0.11304 0.29826 0.29239 0.0
C3055 C 0.12889 0.29425 0.30799 0.0
H3056 H 0.10263 0.31854 0.26633 0.0
C3057 C 0.14655 0.30824 0.30954 0.0
H3058 H 0.09921 0.28778 0.29095 0.0
C3059 C 0.14862 0.32564 0.29536 0.0
C3060 C 0.13291 0.32952 0.27959 0.0
H3061 H 0.15898 0.30553 0.32147 0.0
H3062 H 0.16257 0.33598 0.29667 0.0
C3063 C 0.11496 0.31589 0.27839 0.0
C3064 C 0.43684 0.59845 0.43152 0.0
C3065 C 0.44934 0.61722 0.43329 0.0
H3066 H 0.41059 0.58014 0.44394 0.0
C3067 C 0.44382 0.63295 0.44876 0.0
H3068 H 0.44067 0.58607 0.41973 0.0
C3069 C 0.42619 0.6297 0.46247 0.0
C3070 C 0.41426 0.61049 0.46113 0.0
H3071 H 0.45315 0.64763 0.45034 0.0
H3072 H 0.42235 0.64182 0.47452 0.0
C3073 C 0.41963 0.59503 0.44542 0.0
C3074 C 0.14651 0.68706 0.1842 0.0
C3075 C 0.12853 0.70065 0.18535 0.0
H3076 H 0.16324 0.66016 0.19792 0.0
C3077 C 0.11284 0.69678 0.20116 0.0
H3078 H 0.15885 0.68967 0.17214 0.0
C3079 C 0.11524 0.6797 0.21575 0.0
C3080 C 0.13351 0.66647 0.21494 0.0
H3081 H 0.09877 0.70696 0.2023 0.0
H3082 H 0.10301 0.67714 0.22794 0.0
C3083 C 0.14905 0.6702 0.19896 0.0
C3084 C 0.07491 0.40042 0.94519 0.0
C3085 C 0.08023 0.38504 0.96099 0.0
H3086 H 0.05373 0.40941 0.91962 0.0
C3087 C 0.06805 0.366 0.96264 0.0
H3088 H 0.08412 0.41518 0.94349 0.0
C3089 C 0.05027 0.36285 0.94913 0.0
C3090 C 0.0448 0.37849 0.93357 0.0
H3091 H 0.07184 0.35395 0.97477 0.0
H3092 H 0.04077 0.3483 0.95094 0.0
C3093 C 0.05752 0.39709 0.9315 0.0
C3094 C 0.3474 0.30737 0.68603 0.0
C3095 C 0.36509 0.29346 0.68779 0.0
H3096 H 0.33119 0.33513 0.69861 0.0
C3097 C 0.3808 0.29759 0.70351 0.0
H3098 H 0.33507 0.30457 0.67401 0.0
C3099 C 0.37871 0.31529 0.7174 0.0
C3100 C 0.36073 0.32887 0.71596 0.0
H3101 H 0.39465 0.28717 0.7051 0.0
H3102 H 0.39093 0.31805 0.72954 0.0
C3103 C 0.34516 0.32484 0.7001 0.0
C3104 C 0.03943 0.44931 0.36291 0.0
C3105 C 0.05532 0.45519 0.37792 0.0
H3106 H 0.01547 0.42592 0.35416 0.0
C3107 C 0.05979 0.44146 0.3954 0.0
H3108 H 0.03583 0.45958 0.34919 0.0
C3109 C 0.04816 0.42252 0.39828 0.0
C3110 C 0.03205 0.41675 0.38357 0.0
H3111 H 0.07203 0.44553 0.40715 0.0
H3112 H 0.05164 0.41249 0.41224 0.0
C3113 C 0.02797 0.43003 0.36561 0.0
C3114 C 0.30754 0.31386 0.14738 0.0
C3115 C 0.29472 0.31167 0.12886 0.0
H3116 H 0.3343 0.30203 0.16534 0.0
C3117 C 0.30014 0.29609 0.11322 0.0
H3118 H 0.30379 0.32576 0.15968 0.0
C3119 C 0.31799 0.28268 0.1163 0.0
C3120 C 0.33027 0.28443 0.13526 0.0
H3121 H 0.29056 0.29419 0.09872 0.0
H3122 H 0.32174 0.27052 0.10426 0.0
C3123 C 0.325 0.30026 0.15064 0.0
C3124 C 0.43372 0.55446 0.89633 0.0
C3125 C 0.43812 0.54124 0.87844 0.0
H3126 H 0.44197 0.58287 0.91402 0.0
C3127 C 0.45395 0.54756 0.86354 0.0
H3128 H 0.42152 0.55005 0.90802 0.0
C3129 C 0.46547 0.56673 0.86679 0.0
C3130 C 0.4615 0.57944 0.88519 0.0
H3131 H 0.45748 0.5377 0.8495 0.0
H3132 H 0.47793 0.57117 0.85542 0.0
C3133 C 0.4454 0.57326 0.89976 0.0
C3134 C 0.1938 0.69895 0.61397 0.0
C3135 C 0.19965 0.6838 0.62987 0.0
H3136 H 0.17206 0.72436 0.60495 0.0
C3137 C 0.18751 0.68234 0.64893 0.0
H3138 H 0.20284 0.70028 0.59906 0.0
C3139 C 0.17027 0.6962 0.65239 0.0
C3140 C 0.16453 0.71155 0.6367 0.0
H3141 H 0.19162 0.67081 0.66146 0.0
H3142 H 0.16149 0.69496 0.66747 0.0
C3143 C 0.17617 0.7126 0.61726 0.0
C3144 C 0.05836 0.55431 0.09893 0.0
C3145 C 0.05421 0.54126 0.11701 0.0
H3146 H 0.04981 0.58254 0.08108 0.0
C3147 C 0.03848 0.54762 0.13199 0.0
H3148 H 0.07046 0.54986 0.08717 0.0
C3149 C 0.02687 0.56672 0.1287 0.0
C3150 C 0.03063 0.5793 0.11017 0.0
H3151 H 0.03514 0.53788 0.14616 0.0
H3152 H 0.01453 0.57122 0.14017 0.0
C3153 C 0.04657 0.57304 0.09546 0.0
C3154 C 0.19371 0.29702 0.8826 0.0
C3155 C 0.19901 0.31282 0.86713 0.0
H3156 H 0.17231 0.27118 0.89128 0.0
C3157 C 0.18614 0.31515 0.84866 0.0
H3158 H 0.20333 0.29503 0.89705 0.0
C3159 C 0.16879 0.30144 0.84525 0.0
C3160 C 0.16366 0.28538 0.86043 0.0
H3161 H 0.18979 0.32722 0.83649 0.0
H3162 H 0.15946 0.30332 0.83058 0.0
C3163 C 0.17596 0.28351 0.87938 0.0
C3164 C 0.45594 0.44869 0.63267 0.0
C3165 C 0.44014 0.455 0.61774 0.0
H3166 H 0.47955 0.42484 0.64112 0.0
C3167 C 0.43549 0.44157 0.60007 0.0
H3168 H 0.45968 0.45872 0.64653 0.0
C3169 C 0.44683 0.4225 0.59695 0.0
C3170 C 0.46285 0.41629 0.6116 0.0
H3171 H 0.42331 0.44597 0.58838 0.0
H3172 H 0.4432 0.41271 0.58287 0.0
C3173 C 0.46712 0.42928 0.62972 0.0
C3174 C 0.30138 0.69758 0.3824 0.0
C3175 C 0.29581 0.68224 0.36657 0.0
H3176 H 0.32278 0.72333 0.39134 0.0
C3177 C 0.30814 0.68071 0.34765 0.0
H3178 H 0.29217 0.69897 0.39719 0.0
C3179 C 0.32526 0.69471 0.34421 0.0
C3180 C 0.33069 0.71029 0.35979 0.0
H3181 H 0.30426 0.66902 0.33519 0.0
H3182 H 0.33419 0.6934 0.32922 0.0
C3183 C 0.3189 0.7114 0.37912 0.0
C3184 C 0.39686 0.05883 0.4385 0.0
C3185 C 0.37896 0.05746 0.45219 0.0
H3186 H 0.41324 0.04585 0.41101 0.0
C3187 C 0.36306 0.04197 0.44793 0.0
H3188 H 0.40935 0.07065 0.4414 0.0
C3189 C 0.36515 0.02796 0.43031 0.0
C3190 C 0.38333 0.02903 0.41695 0.0
H3191 H 0.34904 0.04067 0.45818 0.0
H3192 H 0.35277 0.01602 0.42744 0.0
C3193 C 0.39911 0.04464 0.42112 0.0
C3194 C 0.86427 0.45267 0.54692 0.0
C3195 C 0.88011 0.4373 0.54212 0.0
H3196 H 0.85452 0.47857 0.56769 0.0
C3197 C 0.89854 0.43614 0.5551 0.0
H3198 H 0.84986 0.45381 0.53722 0.0
C3199 C 0.90131 0.45041 0.57235 0.0
C3200 C 0.88556 0.46588 0.57708 0.0
H3201 H 0.91101 0.42442 0.55175 0.0
H3202 H 0.91581 0.44936 0.58194 0.0
C3203 C 0.86691 0.46675 0.56438 0.0
C3204 C 0.28968 0.11297 0.29737 0.0
C3205 C 0.30551 0.1278 0.29092 0.0
H3206 H 0.26586 0.10493 0.32119 0.0
C3207 C 0.31001 0.14571 0.30408 0.0
H3208 H 0.28606 0.09893 0.28755 0.0
C3209 C 0.29848 0.14917 0.32299 0.0
C3210 C 0.28242 0.13464 0.32934 0.0
H3211 H 0.32221 0.15734 0.29957 0.0
H3212 H 0.30201 0.16342 0.33256 0.0
C3213 C 0.2783 0.11627 0.31663 0.0
C3214 C 0.6309 0.54344 0.0483 0.0
C3215 C 0.61498 0.55882 0.04382 0.0
H3216 H 0.64103 0.51751 0.06887 0.0
C3217 C 0.59685 0.56003 0.05722 0.0
H3218 H 0.6451 0.54226 0.03828 0.0
C3219 C 0.59441 0.54577 0.07453 0.0
C3220 C 0.61022 0.53026 0.07891 0.0
H3221 H 0.58433 0.57177 0.05414 0.0
H3222 H 0.58012 0.54685 0.08442 0.0
C3223 C 0.62861 0.52936 0.06583 0.0
C3224 C 0.68516 0.3487 0.30355 0.0
C3225 C 0.68909 0.36706 0.29084 0.0
H3226 H 0.6936 0.33064 0.33167 0.0
C3227 C 0.70441 0.38226 0.29767 0.0
H3228 H 0.67338 0.33677 0.29871 0.0
C3229 C 0.71579 0.37893 0.31693 0.0
C3230 C 0.71221 0.36017 0.32921 0.0
H3231 H 0.70758 0.39665 0.2882 0.0
H3232 H 0.72779 0.3906 0.32183 0.0
C3233 C 0.69671 0.34521 0.32243 0.0
C3234 C 0.12928 0.96774 0.93063 0.0
C3235 C 0.11094 0.96692 0.91747 0.0
H3236 H 0.14572 0.95454 0.95808 0.0
C3237 C 0.09519 0.95128 0.92161 0.0
H3238 H 0.14166 0.97969 0.92778 0.0
C3239 C 0.09761 0.93681 0.93874 0.0
C3240 C 0.11569 0.93792 0.95222 0.0
H3241 H 0.08093 0.95024 0.91166 0.0
H3242 H 0.08513 0.92498 0.94162 0.0
C3243 C 0.13157 0.95343 0.94799 0.0
C3244 C 0.30949 0.84867 0.19086 0.0
C3245 C 0.30519 0.86674 0.20385 0.0
H3246 H 0.30124 0.83073 0.16259 0.0
C3247 C 0.2894 0.88159 0.19734 0.0
H3248 H 0.32163 0.837 0.19542 0.0
C3249 C 0.27791 0.87818 0.17817 0.0
C3250 C 0.28185 0.85967 0.16562 0.0
H3251 H 0.28593 0.89576 0.20703 0.0
H3252 H 0.26554 0.88956 0.17355 0.0
C3253 C 0.29783 0.84508 0.17204 0.0
C3254 C 0.18389 0.14553 0.69008 0.0
C3255 C 0.18841 0.12794 0.70365 0.0
H3256 H 0.19204 0.16274 0.66133 0.0
C3257 C 0.20435 0.11306 0.6976 0.0
H3258 H 0.1716 0.15718 0.69427 0.0
C3259 C 0.21587 0.11605 0.67837 0.0
C3260 C 0.21178 0.13416 0.6653 0.0
H3261 H 0.20798 0.09924 0.70773 0.0
H3262 H 0.22843 0.10472 0.67415 0.0
C3263 C 0.19556 0.1487 0.6712 0.0
loop_
_geom_bond_atom_site_label_1
_geom_bond_atom_site_label_2
_geom_bond_distance
_geom_bond_site_symmetry_2
_ccdc_geom_bond_type
Co0 O1 2.216 1_455 S
Co0 O2 2.091 1_455 S
Co0 O4 2.004 . S
Co0 O10 2.021 1_455 S
Co0 O12 2.137 . S
Co0 O13 2.244 . S
O1 Co0 2.216 1_655 S
O1 C8 1.247 . S
O2 Co0 2.091 1_655 S
O2 C8 1.261 . S
C3 O12 1.247 . S
C3 O13 1.272 . S
O4 Co0 2.004 . S
O4 C9 1.259 . S
Co5 O6 2.061 . S
Co5 O11 2.052 1_455 S
Co5 O13 2.135 . S
O6 Co5 2.061 . S
O6 C9 1.235 . S
C7 O10 1.238 . S
C7 O11 1.241 . S
C8 O1 1.247 . S
C8 O2 1.261 . S
C9 O4 1.259 . S
C9 O6 1.235 . S
O10 Co0 2.021 1_655 S
O10 C7 1.238 . S
O11 Co5 2.052 1_655 S
O11 C7 1.241 . S
O12 Co0 2.137 . S
O12 C3 1.247 . S
O13 Co0 2.244 . S
O13 C3 1.272 . S
O13 Co5 2.135 . S
Co14 O15 2.216 . S
Co14 O16 2.091 . S
Co14 O18 2.004 . S
Co14 O24 2.021 . S
Co14 O26 2.137 . S
Co14 O27 2.244 . S
O15 Co14 2.216 . S
O15 C22 1.247 . S
O16 Co14 2.091 . S
O16 C22 1.261 . S
C17 O26 1.247 . S
C17 O27 1.272 . S
O18 Co14 2.004 . S
O18 C23 1.259 . S
Co19 O20 2.061 . S
Co19 O25 2.052 . S
Co19 O27 2.135 . S
O20 Co19 2.061 . S
O20 C23 1.235 . S
C21 O24 1.238 . S
C21 O25 1.241 . S
C22 O15 1.247 . S
C22 O16 1.261 . S
C23 O18 1.259 . S
C23 O20 1.235 . S
O24 Co14 2.021 . S
O24 C21 1.238 . S
O25 Co19 2.052 . S
O25 C21 1.241 . S
O26 Co14 2.137 . S
O26 C17 1.247 . S
O27 Co14 2.244 . S
O27 C17 1.272 . S
O27 Co19 2.135 . S
Co28 O29 2.216 . S
Co28 O30 2.091 . S
Co28 O32 2.004 . S
Co28 O38 2.021 . S
Co28 O40 2.137 . S
Co28 O41 2.244 . S
O29 Co28 2.216 . S
O29 C36 1.247 . S
O30 Co28 2.091 . S
O30 C36 1.261 . S
C31 O40 1.247 . S
C31 O41 1.272 . S
O32 Co28 2.004 . S
O32 C37 1.259 . S
Co33 O34 2.061 . S
Co33 O39 2.052 . S
Co33 O41 2.135 . S
O34 Co33 2.061 . S
O34 C37 1.235 . S
C35 O38 1.238 . S
C35 O39 1.241 . S
C36 O29 1.247 . S
C36 O30 1.261 . S
C37 O32 1.259 . S
C37 O34 1.235 . S
O38 Co28 2.021 . S
O38 C35 1.238 . S
O39 Co33 2.052 . S
O39 C35 1.241 . S
O40 Co28 2.137 . S
O40 C31 1.247 . S
O41 Co28 2.244 . S
O41 C31 1.272 . S
O41 Co33 2.135 . S
Co42 O43 2.216 . S
Co42 O44 2.091 . S
Co42 O46 2.004 . S
Co42 O52 2.021 . S
Co42 O54 2.137 . S
Co42 O55 2.244 . S
O43 Co42 2.216 . S
O43 C50 1.247 . S
O44 Co42 2.091 . S
O44 C50 1.261 . S
C45 O54 1.247 . S
C45 O55 1.272 . S
O46 Co42 2.004 . S
O46 C51 1.259 . S
Co47 O48 2.061 . S
Co47 O53 2.052 . S
Co47 O55 2.135 . S
O48 Co47 2.061 . S
O48 C51 1.235 . S
C49 O52 1.238 . S
C49 O53 1.241 . S
C50 O43 1.247 . S
C50 O44 1.261 . S
C51 O46 1.259 . S
C51 O48 1.235 . S
O52 Co42 2.021 . S
O52 C49 1.238 . S
O53 Co47 2.052 . S
O53 C49 1.241 . S
O54 Co42 2.137 . S
O54 C45 1.247 . S
O55 Co42 2.244 . S
O55 C45 1.272 . S
O55 Co47 2.135 . S
Co56 O57 2.216 1_455 S
Co56 O58 2.091 1_455 S
Co56 O60 2.004 . S
Co56 O66 2.021 1_455 S
Co56 O68 2.137 . S
Co56 O69 2.244 . S
O57 Co56 2.216 1_655 S
O57 C64 1.247 . S
O58 Co56 2.091 1_655 S
O58 C64 1.261 . S
C59 O68 1.247 . S
C59 O69 1.272 . S
O60 Co56 2.004 . S
O60 C65 1.259 . S
Co61 O62 2.061 . S
Co61 O67 2.052 1_455 S
Co61 O69 2.135 . S
O62 Co61 2.061 . S
O62 C65 1.235 . S
C63 O66 1.238 . S
C63 O67 1.241 . S
C64 O57 1.247 . S
C64 O58 1.261 . S
C65 O60 1.259 . S
C65 O62 1.235 . S
O66 Co56 2.021 1_655 S
O66 C63 1.238 . S
O67 Co61 2.052 1_655 S
O67 C63 1.241 . S
O68 Co56 2.137 . S
O68 C59 1.247 . S
O69 Co56 2.244 . S
O69 C59 1.272 . S
O69 Co61 2.135 . S
Co70 O71 2.216 . S
Co70 O72 2.091 . S
Co70 O74 2.004 . S
Co70 O80 2.021 . S
Co70 O82 2.137 . S
Co70 O83 2.244 . S
O71 Co70 2.216 . S
O71 C78 1.247 . S
O72 Co70 2.091 . S
O72 C78 1.261 . S
C73 O82 1.247 . S
C73 O83 1.272 . S
O74 Co70 2.004 . S
O74 C79 1.259 . S
Co75 O76 2.061 . S
Co75 O81 2.052 . S
Co75 O83 2.135 . S
O76 Co75 2.061 . S
O76 C79 1.235 . S
C77 O80 1.238 . S
C77 O81 1.241 . S
C78 O71 1.247 . S
C78 O72 1.261 . S
C79 O74 1.259 . S
C79 O76 1.235 . S
O80 Co70 2.021 . S
O80 C77 1.238 . S
O81 Co75 2.052 . S
O81 C77 1.241 . S
O82 Co70 2.137 . S
O82 C73 1.247 . S
O83 Co70 2.244 . S
O83 C73 1.272 . S
O83 Co75 2.135 . S
Co84 O85 2.216 . S
Co84 O86 2.091 . S
Co84 O88 2.004 . S
Co84 O94 2.021 . S
Co84 O96 2.137 . S
Co84 O97 2.244 . S
O85 Co84 2.216 . S
O85 C92 1.247 . S
O86 Co84 2.091 . S
O86 C92 1.261 . S
C87 O96 1.247 . S
C87 O97 1.272 . S
O88 Co84 2.004 . S
O88 C93 1.259 . S
Co89 O90 2.061 . S
Co89 O95 2.052 . S
Co89 O97 2.135 . S
O90 Co89 2.061 . S
O90 C93 1.235 . S
C91 O94 1.238 . S
C91 O95 1.241 . S
C92 O85 1.247 . S
C92 O86 1.261 . S
C93 O88 1.259 . S
C93 O90 1.235 . S
O94 Co84 2.021 . S
O94 C91 1.238 . S
O95 Co89 2.052 . S
O95 C91 1.241 . S
O96 Co84 2.137 . S
O96 C87 1.247 . S
O97 Co84 2.244 . S
O97 C87 1.272 . S
O97 Co89 2.135 . S
Co98 O99 2.216 . S
Co98 O100 2.091 . S
Co98 O102 2.004 . S
Co98 O108 2.021 . S
Co98 O110 2.137 . S
Co98 O111 2.244 . S
O99 Co98 2.216 . S
O99 C106 1.247 . S
O100 Co98 2.091 . S
O100 C106 1.261 . S
C101 O110 1.247 . S
C101 O111 1.272 . S
O102 Co98 2.004 . S
O102 C107 1.259 . S
Co103 O104 2.061 . S
Co103 O109 2.052 . S
Co103 O111 2.135 . S
O104 Co103 2.061 . S
O104 C107 1.235 . S
C105 O108 1.238 . S
C105 O109 1.241 . S
C106 O99 1.247 . S
C106 O100 1.261 . S
C107 O102 1.259 . S
C107 O104 1.235 . S
O108 Co98 2.021 . S
O108 C105 1.238 . S
O109 Co103 2.052 . S
O109 C105 1.241 . S
O110 Co98 2.137 . S
O110 C101 1.247 . S
O111 Co98 2.244 . S
O111 C101 1.272 . S
O111 Co103 2.135 . S
Co112 O113 2.216 . S
Co112 O114 2.091 . S
Co112 O116 2.004 1_545 S
Co112 O122 2.021 . S
Co112 O124 2.137 1_545 S
Co112 O125 2.244 1_545 S
O113 Co112 2.216 . S
O113 C120 1.247 . S
O114 Co112 2.091 . S
O114 C120 1.261 . S
C115 O124 1.247 . S
C115 O125 1.272 . S
O116 Co112 2.004 1_565 S
O116 C121 1.259 . S
Co117 O118 2.061 . S
Co117 O123 2.052 1_565 S
Co117 O125 2.135 . S
O118 Co117 2.061 . S
O118 C121 1.235 . S
C119 O122 1.238 . S
C119 O123 1.241 . S
C120 O113 1.247 . S
C120 O114 1.261 . S
C121 O116 1.259 . S
C121 O118 1.235 . S
O122 Co112 2.021 . S
O122 C119 1.238 . S
O123 Co117 2.052 1_545 S
O123 C119 1.241 . S
O124 Co112 2.137 1_565 S
O124 C115 1.247 . S
O125 Co112 2.244 1_565 S
O125 C115 1.272 . S
O125 Co117 2.135 . S
Co126 O127 2.216 . S
Co126 O128 2.091 . S
Co126 O130 2.004 . S
Co126 O136 2.021 . S
Co126 O138 2.137 . S
Co126 O139 2.244 . S
O127 Co126 2.216 . S
O127 C134 1.247 . S
O128 Co126 2.091 . S
O128 C134 1.261 . S
C129 O138 1.247 . S
C129 O139 1.272 . S
O130 Co126 2.004 . S
O130 C135 1.259 . S
Co131 O132 2.061 . S
Co131 O137 2.052 . S
Co131 O139 2.135 . S
O132 Co131 2.061 . S
O132 C135 1.235 . S
C133 O136 1.238 . S
C133 O137 1.241 . S
C134 O127 1.247 . S
C134 O128 1.261 . S
C135 O130 1.259 . S
C135 O132 1.235 . S
O136 Co126 2.021 . S
O136 C133 1.238 . S
O137 Co131 2.052 . S
O137 C133 1.241 . S
O138 Co126 2.137 . S
O138 C129 1.247 . S
O139 Co126 2.244 . S
O139 C129 1.272 . S
O139 Co131 2.135 . S
Co140 O141 2.216 . S
Co140 O142 2.091 . S
Co140 O144 2.004 1_565 S
Co140 O150 2.021 . S
Co140 O152 2.137 1_565 S
Co140 O153 2.244 1_565 S
O141 Co140 2.216 . S
O141 C148 1.247 . S
O142 Co140 2.091 . S
O142 C148 1.261 . S
C143 O152 1.247 . S
C143 O153 1.272 . S
O144 Co140 2.004 1_545 S
O144 C149 1.259 . S
Co145 O146 2.061 . S
Co145 O151 2.052 1_545 S
Co145 O153 2.135 . S
O146 Co145 2.061 . S
O146 C149 1.235 . S
C147 O150 1.238 . S
C147 O151 1.241 . S
C148 O141 1.247 . S
C148 O142 1.261 . S
C149 O144 1.259 . S
C149 O146 1.235 . S
O150 Co140 2.021 . S
O150 C147 1.238 . S
O151 Co145 2.052 1_565 S
O151 C147 1.241 . S
O152 Co140 2.137 1_545 S
O152 C143 1.247 . S
O153 Co140 2.244 1_545 S
O153 C143 1.272 . S
O153 Co145 2.135 . S
Co154 O155 2.216 . S
Co154 O156 2.091 . S
Co154 O158 2.004 . S
Co154 O164 2.021 . S
Co154 O166 2.137 . S
Co154 O167 2.244 . S
O155 Co154 2.216 . S
O155 C162 1.247 . S
O156 Co154 2.091 . S
O156 C162 1.261 . S
C157 O166 1.247 . S
C157 O167 1.272 . S
O158 Co154 2.004 . S
O158 C163 1.259 . S
Co159 O160 2.061 . S
Co159 O165 2.052 . S
Co159 O167 2.135 . S
O160 Co159 2.061 . S
O160 C163 1.235 . S
C161 O164 1.238 . S
C161 O165 1.241 . S
C162 O155 1.247 . S
C162 O156 1.261 . S
C163 O158 1.259 . S
C163 O160 1.235 . S
O164 Co154 2.021 . S
O164 C161 1.238 . S
O165 Co159 2.052 . S
O165 C161 1.241 . S
O166 Co154 2.137 . S
O166 C157 1.247 . S
O167 Co154 2.244 . S
O167 C157 1.272 . S
O167 Co159 2.135 . S
Co168 O169 2.216 . S
Co168 O170 2.091 . S
Co168 O172 2.004 1_565 S
Co168 O178 2.021 . S
Co168 O180 2.137 1_565 S
Co168 O181 2.244 1_565 S
O169 Co168 2.216 . S
O169 C176 1.247 . S
O170 Co168 2.091 . S
O170 C176 1.261 . S
C171 O180 1.247 . S
C171 O181 1.272 . S
O172 Co168 2.004 1_545 S
O172 C177 1.259 . S
Co173 O174 2.061 . S
Co173 O179 2.052 1_545 S
Co173 O181 2.135 . S
O174 Co173 2.061 . S
O174 C177 1.235 . S
C175 O178 1.238 . S
C175 O179 1.241 . S
C176 O169 1.247 . S
C176 O170 1.261 . S
C177 O172 1.259 . S
C177 O174 1.235 . S
O178 Co168 2.021 . S
O178 C175 1.238 . S
O179 Co173 2.052 1_565 S
O179 C175 1.241 . S
O180 Co168 2.137 1_545 S
O180 C171 1.247 . S
O181 Co168 2.244 1_545 S
O181 C171 1.272 . S
O181 Co173 2.135 . S
Co182 O183 2.216 . S
Co182 O184 2.091 . S
Co182 O186 2.004 . S
Co182 O192 2.021 . S
Co182 O194 2.137 . S
Co182 O195 2.244 . S
O183 Co182 2.216 . S
O183 C190 1.247 . S
O184 Co182 2.091 . S
O184 C190 1.261 . S
C185 O194 1.247 . S
C185 O195 1.272 . S
O186 Co182 2.004 . S
O186 C191 1.259 . S
Co187 O188 2.061 . S
Co187 O193 2.052 . S
Co187 O195 2.135 . S
O188 Co187 2.061 . S
O188 C191 1.235 . S
C189 O192 1.238 . S
C189 O193 1.241 . S
C190 O183 1.247 . S
C190 O184 1.261 . S
C191 O186 1.259 . S
C191 O188 1.235 . S
O192 Co182 2.021 . S
O192 C189 1.238 . S
O193 Co187 2.052 . S
O193 C189 1.241 . S
O194 Co182 2.137 . S
O194 C185 1.247 . S
O195 Co182 2.244 . S
O195 C185 1.272 . S
O195 Co187 2.135 . S
Co196 O197 2.216 . S
Co196 O198 2.091 . S
Co196 O200 2.004 1_545 S
Co196 O206 2.021 . S
Co196 O208 2.137 1_545 S
Co196 O209 2.244 1_545 S
O197 Co196 2.216 . S
O197 C204 1.247 . S
O198 Co196 2.091 . S
O198 C204 1.261 . S
C199 O208 1.247 . S
C199 O209 1.272 . S
O200 Co196 2.004 1_565 S
O200 C205 1.259 . S
Co201 O202 2.061 . S
Co201 O207 2.052 1_565 S
Co201 O209 2.135 . S
O202 Co201 2.061 . S
O202 C205 1.235 . S
C203 O206 1.238 . S
C203 O207 1.241 . S
C204 O197 1.247 . S
C204 O198 1.261 . S
C205 O200 1.259 . S
C205 O202 1.235 . S
O206 Co196 2.021 . S
O206 C203 1.238 . S
O207 Co201 2.052 1_545 S
O207 C203 1.241 . S
O208 Co196 2.137 1_565 S
O208 C199 1.247 . S
O209 Co196 2.244 1_565 S
O209 C199 1.272 . S
O209 Co201 2.135 . S
Co210 O211 2.216 . S
Co210 O212 2.091 . S
Co210 O214 2.004 . S
Co210 O220 2.021 . S
Co210 O222 2.137 . S
Co210 O223 2.244 . S
O211 Co210 2.216 . S
O211 C218 1.247 . S
O212 Co210 2.091 . S
O212 C218 1.261 . S
C213 O222 1.247 . S
C213 O223 1.272 . S
O214 Co210 2.004 . S
O214 C219 1.259 . S
Co215 O216 2.061 . S
Co215 O221 2.052 . S
Co215 O223 2.135 . S
O216 Co215 2.061 . S
O216 C219 1.235 . S
C217 O220 1.238 . S
C217 O221 1.241 . S
C218 O211 1.247 . S
C218 O212 1.261 . S
C219 O214 1.259 . S
C219 O216 1.235 . S
O220 Co210 2.021 . S
O220 C217 1.238 . S
O221 Co215 2.052 . S
O221 C217 1.241 . S
O222 Co210 2.137 . S
O222 C213 1.247 . S
O223 Co210 2.244 . S
O223 C213 1.272 . S
O223 Co215 2.135 . S
Co224 O225 2.216 1_554 S
Co224 O226 2.091 1_554 S
Co224 O228 2.004 . S
Co224 O234 2.021 1_554 S
Co224 O236 2.137 . S
Co224 O237 2.244 . S
O225 Co224 2.216 1_556 S
O225 C232 1.247 . S
O226 Co224 2.091 1_556 S
O226 C232 1.261 . S
C227 O236 1.247 . S
C227 O237 1.272 . S
O228 Co224 2.004 . S
O228 C233 1.259 . S
Co229 O230 2.061 . S
Co229 O235 2.052 1_554 S
Co229 O237 2.135 . S
O230 Co229 2.061 . S
O230 C233 1.235 . S
C231 O234 1.238 . S
C231 O235 1.241 . S
C232 O225 1.247 . S
C232 O226 1.261 . S
C233 O228 1.259 . S
C233 O230 1.235 . S
O234 Co224 2.021 1_556 S
O234 C231 1.238 . S
O235 Co229 2.052 1_556 S
O235 C231 1.241 . S
O236 Co224 2.137 . S
O236 C227 1.247 . S
O237 Co224 2.244 . S
O237 C227 1.272 . S
O237 Co229 2.135 . S
Co238 O239 2.216 1_556 S
Co238 O240 2.091 1_556 S
Co238 O242 2.004 . S
Co238 O248 2.021 1_556 S
Co238 O250 2.137 . S
Co238 O251 2.244 . S
O239 Co238 2.216 1_554 S
O239 C246 1.247 . S
O240 Co238 2.091 1_554 S
O240 C246 1.261 . S
C241 O250 1.247 . S
C241 O251 1.272 . S
O242 Co238 2.004 . S
O242 C247 1.259 . S
Co243 O244 2.061 . S
Co243 O249 2.052 1_556 S
Co243 O251 2.135 . S
O244 Co243 2.061 . S
O244 C247 1.235 . S
C245 O248 1.238 . S
C245 O249 1.241 . S
C246 O239 1.247 . S
C246 O240 1.261 . S
C247 O242 1.259 . S
C247 O244 1.235 . S
O248 Co238 2.021 1_554 S
O248 C245 1.238 . S
O249 Co243 2.052 1_554 S
O249 C245 1.241 . S
O250 Co238 2.137 . S
O250 C241 1.247 . S
O251 Co238 2.244 . S
O251 C241 1.272 . S
O251 Co243 2.135 . S
Co252 O253 2.216 . S
Co252 O254 2.091 . S
Co252 O256 2.004 . S
Co252 O262 2.021 . S
Co252 O264 2.137 . S
Co252 O265 2.244 . S
O253 Co252 2.216 . S
O253 C260 1.247 . S
O254 Co252 2.091 . S
O254 C260 1.261 . S
C255 O264 1.247 . S
C255 O265 1.272 . S
O256 Co252 2.004 . S
O256 C261 1.259 . S
Co257 O258 2.061 . S
Co257 O263 2.052 . S
Co257 O265 2.135 . S
O258 Co257 2.061 . S
O258 C261 1.235 . S
C259 O262 1.238 . S
C259 O263 1.241 . S
C260 O253 1.247 . S
C260 O254 1.261 . S
C261 O256 1.259 . S
C261 O258 1.235 . S
O262 Co252 2.021 . S
O262 C259 1.238 . S
O263 Co257 2.052 . S
O263 C259 1.241 . S
O264 Co252 2.137 . S
O264 C255 1.247 . S
O265 Co252 2.244 . S
O265 C255 1.272 . S
O265 Co257 2.135 . S
Co266 O267 2.216 . S
Co266 O268 2.091 . S
Co266 O270 2.004 . S
Co266 O276 2.021 . S
Co266 O278 2.137 . S
Co266 O279 2.244 . S
O267 Co266 2.216 . S
O267 C274 1.247 . S
O268 Co266 2.091 . S
O268 C274 1.261 . S
C269 O278 1.247 . S
C269 O279 1.272 . S
O270 Co266 2.004 . S
O270 C275 1.259 . S
Co271 O272 2.061 . S
Co271 O277 2.052 . S
Co271 O279 2.135 . S
O272 Co271 2.061 . S
O272 C275 1.235 . S
C273 O276 1.238 . S
C273 O277 1.241 . S
C274 O267 1.247 . S
C274 O268 1.261 . S
C275 O270 1.259 . S
C275 O272 1.235 . S
O276 Co266 2.021 . S
O276 C273 1.238 . S
O277 Co271 2.052 . S
O277 C273 1.241 . S
O278 Co266 2.137 . S
O278 C269 1.247 . S
O279 Co266 2.244 . S
O279 C269 1.272 . S
O279 Co271 2.135 . S
Co280 O281 2.216 . S
Co280 O282 2.091 . S
Co280 O284 2.004 . S
Co280 O290 2.021 . S
Co280 O292 2.137 . S
Co280 O293 2.244 . S
O281 Co280 2.216 . S
O281 C288 1.247 . S
O282 Co280 2.091 . S
O282 C288 1.261 . S
C283 O292 1.247 . S
C283 O293 1.272 . S
O284 Co280 2.004 . S
O284 C289 1.259 . S
Co285 O286 2.061 . S
Co285 O291 2.052 . S
Co285 O293 2.135 . S
O286 Co285 2.061 . S
O286 C289 1.235 . S
C287 O290 1.238 . S
C287 O291 1.241 . S
C288 O281 1.247 . S
C288 O282 1.261 . S
C289 O284 1.259 . S
C289 O286 1.235 . S
O290 Co280 2.021 . S
O290 C287 1.238 . S
O291 Co285 2.052 . S
O291 C287 1.241 . S
O292 Co280 2.137 . S
O292 C283 1.247 . S
O293 Co280 2.244 . S
O293 C283 1.272 . S
O293 Co285 2.135 . S
Co294 O295 2.216 . S
Co294 O296 2.091 . S
Co294 O298 2.004 . S
Co294 O304 2.021 . S
Co294 O306 2.137 . S
Co294 O307 2.244 . S
O295 Co294 2.216 . S
O295 C302 1.247 . S
O296 Co294 2.091 . S
O296 C302 1.261 . S
C297 O306 1.247 . S
C297 O307 1.272 . S
O298 Co294 2.004 . S
O298 C303 1.259 . S
Co299 O300 2.061 . S
Co299 O305 2.052 . S
Co299 O307 2.135 . S
O300 Co299 2.061 . S
O300 C303 1.235 . S
C301 O304 1.238 . S
C301 O305 1.241 . S
C302 O295 1.247 . S
C302 O296 1.261 . S
C303 O298 1.259 . S
C303 O300 1.235 . S
O304 Co294 2.021 . S
O304 C301 1.238 . S
O305 Co299 2.052 . S
O305 C301 1.241 . S
O306 Co294 2.137 . S
O306 C297 1.247 . S
O307 Co294 2.244 . S
O307 C297 1.272 . S
O307 Co299 2.135 . S
Co308 O309 2.216 . S
Co308 O310 2.091 . S
Co308 O312 2.004 . S
Co308 O318 2.021 . S
Co308 O320 2.137 . S
Co308 O321 2.244 . S
O309 Co308 2.216 . S
O309 C316 1.247 . S
O310 Co308 2.091 . S
O310 C316 1.261 . S
C311 O320 1.247 . S
C311 O321 1.272 . S
O312 Co308 2.004 . S
O312 C317 1.259 . S
Co313 O314 2.061 . S
Co313 O319 2.052 . S
Co313 O321 2.135 . S
O314 Co313 2.061 . S
O314 C317 1.235 . S
C315 O318 1.238 . S
C315 O319 1.241 . S
C316 O309 1.247 . S
C316 O310 1.261 . S
C317 O312 1.259 . S
C317 O314 1.235 . S
O318 Co308 2.021 . S
O318 C315 1.238 . S
O319 Co313 2.052 . S
O319 C315 1.241 . S
O320 Co308 2.137 . S
O320 C311 1.247 . S
O321 Co308 2.244 . S
O321 C311 1.272 . S
O321 Co313 2.135 . S
Co322 O323 2.216 . S
Co322 O324 2.091 . S
Co322 O326 2.004 . S
Co322 O332 2.021 . S
Co322 O334 2.137 . S
Co322 O335 2.244 . S
O323 Co322 2.216 . S
O323 C330 1.247 . S
O324 Co322 2.091 . S
O324 C330 1.261 . S
C325 O334 1.247 . S
C325 O335 1.272 . S
O326 Co322 2.004 . S
O326 C331 1.259 . S
Co327 O328 2.061 . S
Co327 O333 2.052 . S
Co327 O335 2.135 . S
O328 Co327 2.061 . S
O328 C331 1.235 . S
C329 O332 1.238 . S
C329 O333 1.241 . S
C330 O323 1.247 . S
C330 O324 1.261 . S
C331 O326 1.259 . S
C331 O328 1.235 . S
O332 Co322 2.021 . S
O332 C329 1.238 . S
O333 Co327 2.052 . S
O333 C329 1.241 . S
O334 Co322 2.137 . S
O334 C325 1.247 . S
O335 Co322 2.244 . S
O335 C325 1.272 . S
O335 Co327 2.135 . S
Co336 O337 2.216 1_655 S
Co336 O338 2.091 1_655 S
Co336 O340 2.004 . S
Co336 O346 2.021 1_655 S
Co336 O348 2.137 . S
Co336 O349 2.244 . S
O337 Co336 2.216 1_455 S
O337 C344 1.247 . S
O338 Co336 2.091 1_455 S
O338 C344 1.261 . S
C339 O348 1.247 . S
C339 O349 1.272 . S
O340 Co336 2.004 . S
O340 C345 1.259 . S
Co341 O342 2.061 . S
Co341 O347 2.052 1_655 S
Co341 O349 2.135 . S
O342 Co341 2.061 . S
O342 C345 1.235 . S
C343 O346 1.238 . S
C343 O347 1.241 . S
C344 O337 1.247 . S
C344 O338 1.261 . S
C345 O340 1.259 . S
C345 O342 1.235 . S
O346 Co336 2.021 1_455 S
O346 C343 1.238 . S
O347 Co341 2.052 1_455 S
O347 C343 1.241 . S
O348 Co336 2.137 . S
O348 C339 1.247 . S
O349 Co336 2.244 . S
O349 C339 1.272 . S
O349 Co341 2.135 . S
Co350 O351 2.216 . S
Co350 O352 2.091 . S
Co350 O354 2.004 . S
Co350 O360 2.021 . S
Co350 O362 2.137 . S
Co350 O363 2.244 . S
O351 Co350 2.216 . S
O351 C358 1.247 . S
O352 Co350 2.091 . S
O352 C358 1.261 . S
C353 O362 1.247 . S
C353 O363 1.272 . S
O354 Co350 2.004 . S
O354 C359 1.259 . S
Co355 O356 2.061 . S
Co355 O361 2.052 . S
Co355 O363 2.135 . S
O356 Co355 2.061 . S
O356 C359 1.235 . S
C357 O360 1.238 . S
C357 O361 1.241 . S
C358 O351 1.247 . S
C358 O352 1.261 . S
C359 O354 1.259 . S
C359 O356 1.235 . S
O360 Co350 2.021 . S
O360 C357 1.238 . S
O361 Co355 2.052 . S
O361 C357 1.241 . S
O362 Co350 2.137 . S
O362 C353 1.247 . S
O363 Co350 2.244 . S
O363 C353 1.272 . S
O363 Co355 2.135 . S
Co364 O365 2.216 . S
Co364 O366 2.091 . S
Co364 O368 2.004 . S
Co364 O374 2.021 . S
Co364 O376 2.137 . S
Co364 O377 2.244 . S
O365 Co364 2.216 . S
O365 C372 1.247 . S
O366 Co364 2.091 . S
O366 C372 1.261 . S
C367 O376 1.247 . S
C367 O377 1.272 . S
O368 Co364 2.004 . S
O368 C373 1.259 . S
Co369 O370 2.061 . S
Co369 O375 2.052 . S
Co369 O377 2.135 . S
O370 Co369 2.061 . S
O370 C373 1.235 . S
C371 O374 1.238 . S
C371 O375 1.241 . S
C372 O365 1.247 . S
C372 O366 1.261 . S
C373 O368 1.259 . S
C373 O370 1.235 . S
O374 Co364 2.021 . S
O374 C371 1.238 . S
O375 Co369 2.052 . S
O375 C371 1.241 . S
O376 Co364 2.137 . S
O376 C367 1.247 . S
O377 Co364 2.244 . S
O377 C367 1.272 . S
O377 Co369 2.135 . S
Co378 O379 2.216 . S
Co378 O380 2.091 . S
Co378 O382 2.004 . S
Co378 O388 2.021 . S
Co378 O390 2.137 . S
Co378 O391 2.244 . S
O379 Co378 2.216 . S
O379 C386 1.247 . S
O380 Co378 2.091 . S
O380 C386 1.261 . S
C381 O390 1.247 . S
C381 O391 1.272 . S
O382 Co378 2.004 . S
O382 C387 1.259 . S
Co383 O384 2.061 . S
Co383 O389 2.052 . S
Co383 O391 2.135 . S
O384 Co383 2.061 . S
O384 C387 1.235 . S
C385 O388 1.238 . S
C385 O389 1.241 . S
C386 O379 1.247 . S
C386 O380 1.261 . S
C387 O382 1.259 . S
C387 O384 1.235 . S
O388 Co378 2.021 . S
O388 C385 1.238 . S
O389 Co383 2.052 . S
O389 C385 1.241 . S
O390 Co378 2.137 . S
O390 C381 1.247 . S
O391 Co378 2.244 . S
O391 C381 1.272 . S
O391 Co383 2.135 . S
Co392 O393 2.216 1_655 S
Co392 O394 2.091 1_655 S
Co392 O396 2.004 . S
Co392 O402 2.021 1_655 S
Co392 O404 2.137 . S
Co392 O405 2.244 . S
O393 Co392 2.216 1_455 S
O393 C400 1.247 . S
O394 Co392 2.091 1_455 S
O394 C400 1.261 . S
C395 O404 1.247 . S
C395 O405 1.272 . S
O396 Co392 2.004 . S
O396 C401 1.259 . S
Co397 O398 2.061 . S
Co397 O403 2.052 1_655 S
Co397 O405 2.135 . S
O398 Co397 2.061 . S
O398 C401 1.235 . S
C399 O402 1.238 . S
C399 O403 1.241 . S
C400 O393 1.247 . S
C400 O394 1.261 . S
C401 O396 1.259 . S
C401 O398 1.235 . S
O402 Co392 2.021 1_455 S
O402 C399 1.238 . S
O403 Co397 2.052 1_455 S
O403 C399 1.241 . S
O404 Co392 2.137 . S
O404 C395 1.247 . S
O405 Co392 2.244 . S
O405 C395 1.272 . S
O405 Co397 2.135 . S
Co406 O407 2.216 . S
Co406 O408 2.091 . S
Co406 O410 2.004 . S
Co406 O416 2.021 . S
Co406 O418 2.137 . S
Co406 O419 2.244 . S
O407 Co406 2.216 . S
O407 C414 1.247 . S
O408 Co406 2.091 . S
O408 C414 1.261 . S
C409 O418 1.247 . S
C409 O419 1.272 . S
O410 Co406 2.004 . S
O410 C415 1.259 . S
Co411 O412 2.061 . S
Co411 O417 2.052 . S
Co411 O419 2.135 . S
O412 Co411 2.061 . S
O412 C415 1.235 . S
C413 O416 1.238 . S
C413 O417 1.241 . S
C414 O407 1.247 . S
C414 O408 1.261 . S
C415 O410 1.259 . S
C415 O412 1.235 . S
O416 Co406 2.021 . S
O416 C413 1.238 . S
O417 Co411 2.052 . S
O417 C413 1.241 . S
O418 Co406 2.137 . S
O418 C409 1.247 . S
O419 Co406 2.244 . S
O419 C409 1.272 . S
O419 Co411 2.135 . S
Co420 O421 2.216 . S
Co420 O422 2.091 . S
Co420 O424 2.004 . S
Co420 O430 2.021 . S
Co420 O432 2.137 . S
Co420 O433 2.244 . S
O421 Co420 2.216 . S
O421 C428 1.247 . S
O422 Co420 2.091 . S
O422 C428 1.261 . S
C423 O432 1.247 . S
C423 O433 1.272 . S
O424 Co420 2.004 . S
O424 C429 1.259 . S
Co425 O426 2.061 . S
Co425 O431 2.052 . S
Co425 O433 2.135 . S
O426 Co425 2.061 . S
O426 C429 1.235 . S
C427 O430 1.238 . S
C427 O431 1.241 . S
C428 O421 1.247 . S
C428 O422 1.261 . S
C429 O424 1.259 . S
C429 O426 1.235 . S
O430 Co420 2.021 . S
O430 C427 1.238 . S
O431 Co425 2.052 . S
O431 C427 1.241 . S
O432 Co420 2.137 . S
O432 C423 1.247 . S
O433 Co420 2.244 . S
O433 C423 1.272 . S
O433 Co425 2.135 . S
Co434 O435 2.216 . S
Co434 O436 2.091 . S
Co434 O438 2.004 . S
Co434 O444 2.021 . S
Co434 O446 2.137 . S
Co434 O447 2.244 . S
O435 Co434 2.216 . S
O435 C442 1.247 . S
O436 Co434 2.091 . S
O436 C442 1.261 . S
C437 O446 1.247 . S
C437 O447 1.272 . S
O438 Co434 2.004 . S
O438 C443 1.259 . S
Co439 O440 2.061 . S
Co439 O445 2.052 . S
Co439 O447 2.135 . S
O440 Co439 2.061 . S
O440 C443 1.235 . S
C441 O444 1.238 . S
C441 O445 1.241 . S
C442 O435 1.247 . S
C442 O436 1.261 . S
C443 O438 1.259 . S
C443 O440 1.235 . S
O444 Co434 2.021 . S
O444 C441 1.238 . S
O445 Co439 2.052 . S
O445 C441 1.241 . S
O446 Co434 2.137 . S
O446 C437 1.247 . S
O447 Co434 2.244 . S
O447 C437 1.272 . S
O447 Co439 2.135 . S
Co448 O449 2.216 1_565 S
Co448 O450 2.091 1_565 S
Co448 O452 2.004 . S
Co448 O458 2.021 1_565 S
Co448 O460 2.137 . S
Co448 O461 2.244 . S
O449 Co448 2.216 1_545 S
O449 C456 1.247 . S
O450 Co448 2.091 1_545 S
O450 C456 1.261 . S
C451 O460 1.247 . S
C451 O461 1.272 . S
O452 Co448 2.004 . S
O452 C457 1.259 . S
Co453 O454 2.061 . S
Co453 O459 2.052 1_565 S
Co453 O461 2.135 . S
O454 Co453 2.061 . S
O454 C457 1.235 . S
C455 O458 1.238 . S
C455 O459 1.241 . S
C456 O449 1.247 . S
C456 O450 1.261 . S
C457 O452 1.259 . S
C457 O454 1.235 . S
O458 Co448 2.021 1_545 S
O458 C455 1.238 . S
O459 Co453 2.052 1_545 S
O459 C455 1.241 . S
O460 Co448 2.137 . S
O460 C451 1.247 . S
O461 Co448 2.244 . S
O461 C451 1.272 . S
O461 Co453 2.135 . S
Co462 O463 2.216 . S
Co462 O464 2.091 . S
Co462 O466 2.004 . S
Co462 O472 2.021 . S
Co462 O474 2.137 . S
Co462 O475 2.244 . S
O463 Co462 2.216 . S
O463 C470 1.247 . S
O464 Co462 2.091 . S
O464 C470 1.261 . S
C465 O474 1.247 . S
C465 O475 1.272 . S
O466 Co462 2.004 . S
O466 C471 1.259 . S
Co467 O468 2.061 . S
Co467 O473 2.052 . S
Co467 O475 2.135 . S
O468 Co467 2.061 . S
O468 C471 1.235 . S
C469 O472 1.238 . S
C469 O473 1.241 . S
C470 O463 1.247 . S
C470 O464 1.261 . S
C471 O466 1.259 . S
C471 O468 1.235 . S
O472 Co462 2.021 . S
O472 C469 1.238 . S
O473 Co467 2.052 . S
O473 C469 1.241 . S
O474 Co462 2.137 . S
O474 C465 1.247 . S
O475 Co462 2.244 . S
O475 C465 1.272 . S
O475 Co467 2.135 . S
Co476 O477 2.216 1_545 S
Co476 O478 2.091 1_545 S
Co476 O480 2.004 . S
Co476 O486 2.021 1_545 S
Co476 O488 2.137 . S
Co476 O489 2.244 . S
O477 Co476 2.216 1_565 S
O477 C484 1.247 . S
O478 Co476 2.091 1_565 S
O478 C484 1.261 . S
C479 O488 1.247 . S
C479 O489 1.272 . S
O480 Co476 2.004 . S
O480 C485 1.259 . S
Co481 O482 2.061 . S
Co481 O487 2.052 1_545 S
Co481 O489 2.135 . S
O482 Co481 2.061 . S
O482 C485 1.235 . S
C483 O486 1.238 . S
C483 O487 1.241 . S
C484 O477 1.247 . S
C484 O478 1.261 . S
C485 O480 1.259 . S
C485 O482 1.235 . S
O486 Co476 2.021 1_565 S
O486 C483 1.238 . S
O487 Co481 2.052 1_565 S
O487 C483 1.241 . S
O488 Co476 2.137 . S
O488 C479 1.247 . S
O489 Co476 2.244 . S
O489 C479 1.272 . S
O489 Co481 2.135 . S
Co490 O491 2.216 . S
Co490 O492 2.091 . S
Co490 O494 2.004 . S
Co490 O500 2.021 . S
Co490 O502 2.137 . S
Co490 O503 2.244 . S
O491 Co490 2.216 . S
O491 C498 1.247 . S
O492 Co490 2.091 . S
O492 C498 1.261 . S
C493 O502 1.247 . S
C493 O503 1.272 . S
O494 Co490 2.004 . S
O494 C499 1.259 . S
Co495 O496 2.061 . S
Co495 O501 2.052 . S
Co495 O503 2.135 . S
O496 Co495 2.061 . S
O496 C499 1.235 . S
C497 O500 1.238 . S
C497 O501 1.241 . S
C498 O491 1.247 . S
C498 O492 1.261 . S
C499 O494 1.259 . S
C499 O496 1.235 . S
O500 Co490 2.021 . S
O500 C497 1.238 . S
O501 Co495 2.052 . S
O501 C497 1.241 . S
O502 Co490 2.137 . S
O502 C493 1.247 . S
O503 Co490 2.244 . S
O503 C493 1.272 . S
O503 Co495 2.135 . S
Co504 O505 2.216 1_545 S
Co504 O506 2.091 1_545 S
Co504 O508 2.004 . S
Co504 O514 2.021 1_545 S
Co504 O516 2.137 . S
Co504 O517 2.244 . S
O505 Co504 2.216 1_565 S
O505 C512 1.247 . S
O506 Co504 2.091 1_565 S
O506 C512 1.261 . S
C507 O516 1.247 . S
C507 O517 1.272 . S
O508 Co504 2.004 . S
O508 C513 1.259 . S
Co509 O510 2.061 . S
Co509 O515 2.052 1_545 S
Co509 O517 2.135 . S
O510 Co509 2.061 . S
O510 C513 1.235 . S
C511 O514 1.238 . S
C511 O515 1.241 . S
C512 O505 1.247 . S
C512 O506 1.261 . S
C513 O508 1.259 . S
C513 O510 1.235 . S
O514 Co504 2.021 1_565 S
O514 C511 1.238 . S
O515 Co509 2.052 1_565 S
O515 C511 1.241 . S
O516 Co504 2.137 . S
O516 C507 1.247 . S
O517 Co504 2.244 . S
O517 C507 1.272 . S
O517 Co509 2.135 . S
Co518 O519 2.216 . S
Co518 O520 2.091 . S
Co518 O522 2.004 . S
Co518 O528 2.021 . S
Co518 O530 2.137 . S
Co518 O531 2.244 . S
O519 Co518 2.216 . S
O519 C526 1.247 . S
O520 Co518 2.091 . S
O520 C526 1.261 . S
C521 O530 1.247 . S
C521 O531 1.272 . S
O522 Co518 2.004 . S
O522 C527 1.259 . S
Co523 O524 2.061 . S
Co523 O529 2.052 . S
Co523 O531 2.135 . S
O524 Co523 2.061 . S
O524 C527 1.235 . S
C525 O528 1.238 . S
C525 O529 1.241 . S
C526 O519 1.247 . S
C526 O520 1.261 . S
C527 O522 1.259 . S
C527 O524 1.235 . S
O528 Co518 2.021 . S
O528 C525 1.238 . S
O529 Co523 2.052 . S
O529 C525 1.241 . S
O530 Co518 2.137 . S
O530 C521 1.247 . S
O531 Co518 2.244 . S
O531 C521 1.272 . S
O531 Co523 2.135 . S
Co532 O533 2.216 1_565 S
Co532 O534 2.091 1_565 S
Co532 O536 2.004 . S
Co532 O542 2.021 1_565 S
Co532 O544 2.137 . S
Co532 O545 2.244 . S
O533 Co532 2.216 1_545 S
O533 C540 1.247 . S
O534 Co532 2.091 1_545 S
O534 C540 1.261 . S
C535 O544 1.247 . S
C535 O545 1.272 . S
O536 Co532 2.004 . S
O536 C541 1.259 . S
Co537 O538 2.061 . S
Co537 O543 2.052 1_565 S
Co537 O545 2.135 . S
O538 Co537 2.061 . S
O538 C541 1.235 . S
C539 O542 1.238 . S
C539 O543 1.241 . S
C540 O533 1.247 . S
C540 O534 1.261 . S
C541 O536 1.259 . S
C541 O538 1.235 . S
O542 Co532 2.021 1_545 S
O542 C539 1.238 . S
O543 Co537 2.052 1_545 S
O543 C539 1.241 . S
O544 Co532 2.137 . S
O544 C535 1.247 . S
O545 Co532 2.244 . S
O545 C535 1.272 . S
O545 Co537 2.135 . S
Co546 O547 2.216 . S
Co546 O548 2.091 . S
Co546 O550 2.004 . S
Co546 O556 2.021 . S
Co546 O558 2.137 . S
Co546 O559 2.244 . S
O547 Co546 2.216 . S
O547 C554 1.247 . S
O548 Co546 2.091 . S
O548 C554 1.261 . S
C549 O558 1.247 . S
C549 O559 1.272 . S
O550 Co546 2.004 . S
O550 C555 1.259 . S
Co551 O552 2.061 . S
Co551 O557 2.052 . S
Co551 O559 2.135 . S
O552 Co551 2.061 . S
O552 C555 1.235 . S
C553 O556 1.238 . S
C553 O557 1.241 . S
C554 O547 1.247 . S
C554 O548 1.261 . S
C555 O550 1.259 . S
C555 O552 1.235 . S
O556 Co546 2.021 . S
O556 C553 1.238 . S
O557 Co551 2.052 . S
O557 C553 1.241 . S
O558 Co546 2.137 . S
O558 C549 1.247 . S
O559 Co546 2.244 . S
O559 C549 1.272 . S
O559 Co551 2.135 . S
Co560 O561 2.216 1_556 S
Co560 O562 2.091 1_556 S
Co560 O564 2.004 . S
Co560 O570 2.021 1_556 S
Co560 O572 2.137 . S
Co560 O573 2.244 . S
O561 Co560 2.216 1_554 S
O561 C568 1.247 . S
O562 Co560 2.091 1_554 S
O562 C568 1.261 . S
C563 O572 1.247 . S
C563 O573 1.272 . S
O564 Co560 2.004 . S
O564 C569 1.259 . S
Co565 O566 2.061 . S
Co565 O571 2.052 1_556 S
Co565 O573 2.135 . S
O566 Co565 2.061 . S
O566 C569 1.235 . S
C567 O570 1.238 . S
C567 O571 1.241 . S
C568 O561 1.247 . S
C568 O562 1.261 . S
C569 O564 1.259 . S
C569 O566 1.235 . S
O570 Co560 2.021 1_554 S
O570 C567 1.238 . S
O571 Co565 2.052 1_554 S
O571 C567 1.241 . S
O572 Co560 2.137 . S
O572 C563 1.247 . S
O573 Co560 2.244 . S
O573 C563 1.272 . S
O573 Co565 2.135 . S
Co574 O575 2.216 1_554 S
Co574 O576 2.091 1_554 S
Co574 O578 2.004 . S
Co574 O584 2.021 1_554 S
Co574 O586 2.137 . S
Co574 O587 2.244 . S
O575 Co574 2.216 1_556 S
O575 C582 1.247 . S
O576 Co574 2.091 1_556 S
O576 C582 1.261 . S
C577 O586 1.247 . S
C577 O587 1.272 . S
O578 Co574 2.004 . S
O578 C583 1.259 . S
Co579 O580 2.061 . S
Co579 O585 2.052 1_554 S
Co579 O587 2.135 . S
O580 Co579 2.061 . S
O580 C583 1.235 . S
C581 O584 1.238 . S
C581 O585 1.241 . S
C582 O575 1.247 . S
C582 O576 1.261 . S
C583 O578 1.259 . S
C583 O580 1.235 . S
O584 Co574 2.021 1_556 S
O584 C581 1.238 . S
O585 Co579 2.052 1_556 S
O585 C581 1.241 . S
O586 Co574 2.137 . S
O586 C577 1.247 . S
O587 Co574 2.244 . S
O587 C577 1.272 . S
O587 Co579 2.135 . S
Co588 O589 2.216 . S
Co588 O590 2.091 . S
Co588 O592 2.004 . S
Co588 O598 2.021 . S
Co588 O600 2.137 . S
Co588 O601 2.244 . S
O589 Co588 2.216 . S
O589 C596 1.247 . S
O590 Co588 2.091 . S
O590 C596 1.261 . S
C591 O600 1.247 . S
C591 O601 1.272 . S
O592 Co588 2.004 . S
O592 C597 1.259 . S
Co593 O594 2.061 . S
Co593 O599 2.052 . S
Co593 O601 2.135 . S
O594 Co593 2.061 . S
O594 C597 1.235 . S
C595 O598 1.238 . S
C595 O599 1.241 . S
C596 O589 1.247 . S
C596 O590 1.261 . S
C597 O592 1.259 . S
C597 O594 1.235 . S
O598 Co588 2.021 . S
O598 C595 1.238 . S
O599 Co593 2.052 . S
O599 C595 1.241 . S
O600 Co588 2.137 . S
O600 C591 1.247 . S
O601 Co588 2.244 . S
O601 C591 1.272 . S
O601 Co593 2.135 . S
Co602 O603 2.216 . S
Co602 O604 2.091 . S
Co602 O606 2.004 . S
Co602 O612 2.021 . S
Co602 O614 2.137 . S
Co602 O615 2.244 . S
O603 Co602 2.216 . S
O603 C610 1.247 . S
O604 Co602 2.091 . S
O604 C610 1.261 . S
C605 O614 1.247 . S
C605 O615 1.272 . S
O606 Co602 2.004 . S
O606 C611 1.259 . S
Co607 O608 2.061 . S
Co607 O613 2.052 . S
Co607 O615 2.135 . S
O608 Co607 2.061 . S
O608 C611 1.235 . S
C609 O612 1.238 . S
C609 O613 1.241 . S
C610 O603 1.247 . S
C610 O604 1.261 . S
C611 O606 1.259 . S
C611 O608 1.235 . S
O612 Co602 2.021 . S
O612 C609 1.238 . S
O613 Co607 2.052 . S
O613 C609 1.241 . S
O614 Co602 2.137 . S
O614 C605 1.247 . S
O615 Co602 2.244 . S
O615 C605 1.272 . S
O615 Co607 2.135 . S
Co616 O617 2.216 . S
Co616 O618 2.091 . S
Co616 O620 2.004 . S
Co616 O626 2.021 . S
Co616 O628 2.137 . S
Co616 O629 2.244 . S
O617 Co616 2.216 . S
O617 C624 1.247 . S
O618 Co616 2.091 . S
O618 C624 1.261 . S
C619 O628 1.247 . S
C619 O629 1.272 . S
O620 Co616 2.004 . S
O620 C625 1.259 . S
Co621 O622 2.061 . S
Co621 O627 2.052 . S
Co621 O629 2.135 . S
O622 Co621 2.061 . S
O622 C625 1.235 . S
C623 O626 1.238 . S
C623 O627 1.241 . S
C624 O617 1.247 . S
C624 O618 1.261 . S
C625 O620 1.259 . S
C625 O622 1.235 . S
O626 Co616 2.021 . S
O626 C623 1.238 . S
O627 Co621 2.052 . S
O627 C623 1.241 . S
O628 Co616 2.137 . S
O628 C619 1.247 . S
O629 Co616 2.244 . S
O629 C619 1.272 . S
O629 Co621 2.135 . S
Co630 O631 2.216 . S
Co630 O632 2.091 . S
Co630 O634 2.004 . S
Co630 O640 2.021 . S
Co630 O642 2.137 . S
Co630 O643 2.244 . S
O631 Co630 2.216 . S
O631 C638 1.247 . S
O632 Co630 2.091 . S
O632 C638 1.261 . S
C633 O642 1.247 . S
C633 O643 1.272 . S
O634 Co630 2.004 . S
O634 C639 1.259 . S
Co635 O636 2.061 . S
Co635 O641 2.052 . S
Co635 O643 2.135 . S
O636 Co635 2.061 . S
O636 C639 1.235 . S
C637 O640 1.238 . S
C637 O641 1.241 . S
C638 O631 1.247 . S
C638 O632 1.261 . S
C639 O634 1.259 . S
C639 O636 1.235 . S
O640 Co630 2.021 . S
O640 C637 1.238 . S
O641 Co635 2.052 . S
O641 C637 1.241 . S
O642 Co630 2.137 . S
O642 C633 1.247 . S
O643 Co630 2.244 . S
O643 C633 1.272 . S
O643 Co635 2.135 . S
Co644 O645 2.216 . S
Co644 O646 2.091 . S
Co644 O648 2.004 . S
Co644 O654 2.021 . S
Co644 O656 2.137 . S
Co644 O657 2.244 . S
O645 Co644 2.216 . S
O645 C652 1.247 . S
O646 Co644 2.091 . S
O646 C652 1.261 . S
C647 O656 1.247 . S
C647 O657 1.272 . S
O648 Co644 2.004 . S
O648 C653 1.259 . S
Co649 O650 2.061 . S
Co649 O655 2.052 . S
Co649 O657 2.135 . S
O650 Co649 2.061 . S
O650 C653 1.235 . S
C651 O654 1.238 . S
C651 O655 1.241 . S
C652 O645 1.247 . S
C652 O646 1.261 . S
C653 O648 1.259 . S
C653 O650 1.235 . S
O654 Co644 2.021 . S
O654 C651 1.238 . S
O655 Co649 2.052 . S
O655 C651 1.241 . S
O656 Co644 2.137 . S
O656 C647 1.247 . S
O657 Co644 2.244 . S
O657 C647 1.272 . S
O657 Co649 2.135 . S
Co658 O659 2.216 . S
Co658 O660 2.091 . S
Co658 O662 2.004 . S
Co658 O668 2.021 . S
Co658 O670 2.137 . S
Co658 O671 2.244 . S
O659 Co658 2.216 . S
O659 C666 1.247 . S
O660 Co658 2.091 . S
O660 C666 1.261 . S
C661 O670 1.247 . S
C661 O671 1.272 . S
O662 Co658 2.004 . S
O662 C667 1.259 . S
Co663 O664 2.061 . S
Co663 O669 2.052 . S
Co663 O671 2.135 . S
O664 Co663 2.061 . S
O664 C667 1.235 . S
C665 O668 1.238 . S
C665 O669 1.241 . S
C666 O659 1.247 . S
C666 O660 1.261 . S
C667 O662 1.259 . S
C667 O664 1.235 . S
O668 Co658 2.021 . S
O668 C665 1.238 . S
O669 Co663 2.052 . S
O669 C665 1.241 . S
O670 Co658 2.137 . S
O670 C661 1.247 . S
O671 Co658 2.244 . S
O671 C661 1.272 . S
O671 Co663 2.135 . S
Co672 O673 2.216 . S
Co672 O674 2.091 . S
Co672 O676 2.004 . S
Co672 O682 2.021 . S
Co672 O684 2.137 . S
Co672 O685 2.244 . S
O673 Co672 2.216 . S
O673 C680 1.247 . S
O674 Co672 2.091 . S
O674 C680 1.261 . S
C675 O684 1.247 . S
C675 O685 1.272 . S
O676 Co672 2.004 . S
O676 C681 1.259 . S
Co677 O678 2.061 . S
Co677 O683 2.052 . S
Co677 O685 2.135 . S
O678 Co677 2.061 . S
O678 C681 1.235 . S
C679 O682 1.238 . S
C679 O683 1.241 . S
C680 O673 1.247 . S
C680 O674 1.261 . S
C681 O676 1.259 . S
C681 O678 1.235 . S
O682 Co672 2.021 . S
O682 C679 1.238 . S
O683 Co677 2.052 . S
O683 C679 1.241 . S
O684 Co672 2.137 . S
O684 C675 1.247 . S
O685 Co672 2.244 . S
O685 C675 1.272 . S
O685 Co677 2.135 . S
Co686 O687 2.216 . S
Co686 O688 2.091 . S
Co686 O690 2.004 . S
Co686 O696 2.021 . S
Co686 O698 2.137 . S
Co686 O699 2.244 . S
O687 Co686 2.216 . S
O687 C694 1.247 . S
O688 Co686 2.091 . S
O688 C694 1.261 . S
C689 O698 1.247 . S
C689 O699 1.272 . S
O690 Co686 2.004 . S
O690 C695 1.259 . S
Co691 O692 2.061 . S
Co691 O697 2.052 . S
Co691 O699 2.135 . S
O692 Co691 2.061 . S
O692 C695 1.235 . S
C693 O696 1.238 . S
C693 O697 1.241 . S
C694 O687 1.247 . S
C694 O688 1.261 . S
C695 O690 1.259 . S
C695 O692 1.235 . S
O696 Co686 2.021 . S
O696 C693 1.238 . S
O697 Co691 2.052 . S
O697 C693 1.241 . S
O698 Co686 2.137 . S
O698 C689 1.247 . S
O699 Co686 2.244 . S
O699 C689 1.272 . S
O699 Co691 2.135 . S
Co700 O701 2.216 1_655 S
Co700 O702 2.091 1_655 S
Co700 O704 2.004 . S
Co700 O710 2.021 1_655 S
Co700 O712 2.137 . S
Co700 O713 2.244 . S
O701 Co700 2.216 1_455 S
O701 C708 1.247 . S
O702 Co700 2.091 1_455 S
O702 C708 1.261 . S
C703 O712 1.247 . S
C703 O713 1.272 . S
O704 Co700 2.004 . S
O704 C709 1.259 . S
Co705 O706 2.061 . S
Co705 O711 2.052 1_655 S
Co705 O713 2.135 . S
O706 Co705 2.061 . S
O706 C709 1.235 . S
C707 O710 1.238 . S
C707 O711 1.241 . S
C708 O701 1.247 . S
C708 O702 1.261 . S
C709 O704 1.259 . S
C709 O706 1.235 . S
O710 Co700 2.021 1_455 S
O710 C707 1.238 . S
O711 Co705 2.052 1_455 S
O711 C707 1.241 . S
O712 Co700 2.137 . S
O712 C703 1.247 . S
O713 Co700 2.244 . S
O713 C703 1.272 . S
O713 Co705 2.135 . S
Co714 O715 2.216 . S
Co714 O716 2.091 . S
Co714 O718 2.004 . S
Co714 O724 2.021 . S
Co714 O726 2.137 . S
Co714 O727 2.244 . S
O715 Co714 2.216 . S
O715 C722 1.247 . S
O716 Co714 2.091 . S
O716 C722 1.261 . S
C717 O726 1.247 . S
C717 O727 1.272 . S
O718 Co714 2.004 . S
O718 C723 1.259 . S
Co719 O720 2.061 . S
Co719 O725 2.052 . S
Co719 O727 2.135 . S
O720 Co719 2.061 . S
O720 C723 1.235 . S
C721 O724 1.238 . S
C721 O725 1.241 . S
C722 O715 1.247 . S
C722 O716 1.261 . S
C723 O718 1.259 . S
C723 O720 1.235 . S
O724 Co714 2.021 . S
O724 C721 1.238 . S
O725 Co719 2.052 . S
O725 C721 1.241 . S
O726 Co714 2.137 . S
O726 C717 1.247 . S
O727 Co714 2.244 . S
O727 C717 1.272 . S
O727 Co719 2.135 . S
Co728 O729 2.216 . S
Co728 O730 2.091 . S
Co728 O732 2.004 . S
Co728 O738 2.021 . S
Co728 O740 2.137 . S
Co728 O741 2.244 . S
O729 Co728 2.216 . S
O729 C736 1.247 . S
O730 Co728 2.091 . S
O730 C736 1.261 . S
C731 O740 1.247 . S
C731 O741 1.272 . S
O732 Co728 2.004 . S
O732 C737 1.259 . S
Co733 O734 2.061 . S
Co733 O739 2.052 . S
Co733 O741 2.135 . S
O734 Co733 2.061 . S
O734 C737 1.235 . S
C735 O738 1.238 . S
C735 O739 1.241 . S
C736 O729 1.247 . S
C736 O730 1.261 . S
C737 O732 1.259 . S
C737 O734 1.235 . S
O738 Co728 2.021 . S
O738 C735 1.238 . S
O739 Co733 2.052 . S
O739 C735 1.241 . S
O740 Co728 2.137 . S
O740 C731 1.247 . S
O741 Co728 2.244 . S
O741 C731 1.272 . S
O741 Co733 2.135 . S
Co742 O743 2.216 . S
Co742 O744 2.091 . S
Co742 O746 2.004 . S
Co742 O752 2.021 . S
Co742 O754 2.137 . S
Co742 O755 2.244 . S
O743 Co742 2.216 . S
O743 C750 1.247 . S
O744 Co742 2.091 . S
O744 C750 1.261 . S
C745 O754 1.247 . S
C745 O755 1.272 . S
O746 Co742 2.004 . S
O746 C751 1.259 . S
Co747 O748 2.061 . S
Co747 O753 2.052 . S
Co747 O755 2.135 . S
O748 Co747 2.061 . S
O748 C751 1.235 . S
C749 O752 1.238 . S
C749 O753 1.241 . S
C750 O743 1.247 . S
C750 O744 1.261 . S
C751 O746 1.259 . S
C751 O748 1.235 . S
O752 Co742 2.021 . S
O752 C749 1.238 . S
O753 Co747 2.052 . S
O753 C749 1.241 . S
O754 Co742 2.137 . S
O754 C745 1.247 . S
O755 Co742 2.244 . S
O755 C745 1.272 . S
O755 Co747 2.135 . S
Co756 O757 2.216 1_655 S
Co756 O758 2.091 1_655 S
Co756 O760 2.004 . S
Co756 O766 2.021 1_655 S
Co756 O768 2.137 . S
Co756 O769 2.244 . S
O757 Co756 2.216 1_455 S
O757 C764 1.247 . S
O758 Co756 2.091 1_455 S
O758 C764 1.261 . S
C759 O768 1.247 . S
C759 O769 1.272 . S
O760 Co756 2.004 . S
O760 C765 1.259 . S
Co761 O762 2.061 . S
Co761 O767 2.052 1_655 S
Co761 O769 2.135 . S
O762 Co761 2.061 . S
O762 C765 1.235 . S
C763 O766 1.238 . S
C763 O767 1.241 . S
C764 O757 1.247 . S
C764 O758 1.261 . S
C765 O760 1.259 . S
C765 O762 1.235 . S
O766 Co756 2.021 1_455 S
O766 C763 1.238 . S
O767 Co761 2.052 1_455 S
O767 C763 1.241 . S
O768 Co756 2.137 . S
O768 C759 1.247 . S
O769 Co756 2.244 . S
O769 C759 1.272 . S
O769 Co761 2.135 . S
Co770 O771 2.216 . S
Co770 O772 2.091 . S
Co770 O774 2.004 . S
Co770 O780 2.021 . S
Co770 O782 2.137 . S
Co770 O783 2.244 . S
O771 Co770 2.216 . S
O771 C778 1.247 . S
O772 Co770 2.091 . S
O772 C778 1.261 . S
C773 O782 1.247 . S
C773 O783 1.272 . S
O774 Co770 2.004 . S
O774 C779 1.259 . S
Co775 O776 2.061 . S
Co775 O781 2.052 . S
Co775 O783 2.135 . S
O776 Co775 2.061 . S
O776 C779 1.235 . S
C777 O780 1.238 . S
C777 O781 1.241 . S
C778 O771 1.247 . S
C778 O772 1.261 . S
C779 O774 1.259 . S
C779 O776 1.235 . S
O780 Co770 2.021 . S
O780 C777 1.238 . S
O781 Co775 2.052 . S
O781 C777 1.241 . S
O782 Co770 2.137 . S
O782 C773 1.247 . S
O783 Co770 2.244 . S
O783 C773 1.272 . S
O783 Co775 2.135 . S
Co784 O785 2.216 . S
Co784 O786 2.091 . S
Co784 O788 2.004 . S
Co784 O794 2.021 . S
Co784 O796 2.137 . S
Co784 O797 2.244 . S
O785 Co784 2.216 . S
O785 C792 1.247 . S
O786 Co784 2.091 . S
O786 C792 1.261 . S
C787 O796 1.247 . S
C787 O797 1.272 . S
O788 Co784 2.004 . S
O788 C793 1.259 . S
Co789 O790 2.061 . S
Co789 O795 2.052 . S
Co789 O797 2.135 . S
O790 Co789 2.061 . S
O790 C793 1.235 . S
C791 O794 1.238 . S
C791 O795 1.241 . S
C792 O785 1.247 . S
C792 O786 1.261 . S
C793 O788 1.259 . S
C793 O790 1.235 . S
O794 Co784 2.021 . S
O794 C791 1.238 . S
O795 Co789 2.052 . S
O795 C791 1.241 . S
O796 Co784 2.137 . S
O796 C787 1.247 . S
O797 Co784 2.244 . S
O797 C787 1.272 . S
O797 Co789 2.135 . S
Co798 O799 2.216 . S
Co798 O800 2.091 . S
Co798 O802 2.004 . S
Co798 O808 2.021 . S
Co798 O810 2.137 . S
Co798 O811 2.244 . S
O799 Co798 2.216 . S
O799 C806 1.247 . S
O800 Co798 2.091 . S
O800 C806 1.261 . S
C801 O810 1.247 . S
C801 O811 1.272 . S
O802 Co798 2.004 . S
O802 C807 1.259 . S
Co803 O804 2.061 . S
Co803 O809 2.052 . S
Co803 O811 2.135 . S
O804 Co803 2.061 . S
O804 C807 1.235 . S
C805 O808 1.238 . S
C805 O809 1.241 . S
C806 O799 1.247 . S
C806 O800 1.261 . S
C807 O802 1.259 . S
C807 O804 1.235 . S
O808 Co798 2.021 . S
O808 C805 1.238 . S
O809 Co803 2.052 . S
O809 C805 1.241 . S
O810 Co798 2.137 . S
O810 C801 1.247 . S
O811 Co798 2.244 . S
O811 C801 1.272 . S
O811 Co803 2.135 . S
Co812 O813 2.216 . S
Co812 O814 2.091 . S
Co812 O816 2.004 . S
Co812 O822 2.021 . S
Co812 O824 2.137 . S
Co812 O825 2.244 . S
O813 Co812 2.216 . S
O813 C820 1.247 . S
O814 Co812 2.091 . S
O814 C820 1.261 . S
C815 O824 1.247 . S
C815 O825 1.272 . S
O816 Co812 2.004 . S
O816 C821 1.259 . S
Co817 O818 2.061 . S
Co817 O823 2.052 . S
Co817 O825 2.135 . S
O818 Co817 2.061 . S
O818 C821 1.235 . S
C819 O822 1.238 . S
C819 O823 1.241 . S
C820 O813 1.247 . S
C820 O814 1.261 . S
C821 O816 1.259 . S
C821 O818 1.235 . S
O822 Co812 2.021 . S
O822 C819 1.238 . S
O823 Co817 2.052 . S
O823 C819 1.241 . S
O824 Co812 2.137 . S
O824 C815 1.247 . S
O825 Co812 2.244 . S
O825 C815 1.272 . S
O825 Co817 2.135 . S
Co826 O827 2.216 . S
Co826 O828 2.091 . S
Co826 O830 2.004 . S
Co826 O836 2.021 . S
Co826 O838 2.137 . S
Co826 O839 2.244 . S
O827 Co826 2.216 . S
O827 C834 1.247 . S
O828 Co826 2.091 . S
O828 C834 1.261 . S
C829 O838 1.247 . S
C829 O839 1.272 . S
O830 Co826 2.004 . S
O830 C835 1.259 . S
Co831 O832 2.061 . S
Co831 O837 2.052 . S
Co831 O839 2.135 . S
O832 Co831 2.061 . S
O832 C835 1.235 . S
C833 O836 1.238 . S
C833 O837 1.241 . S
C834 O827 1.247 . S
C834 O828 1.261 . S
C835 O830 1.259 . S
C835 O832 1.235 . S
O836 Co826 2.021 . S
O836 C833 1.238 . S
O837 Co831 2.052 . S
O837 C833 1.241 . S
O838 Co826 2.137 . S
O838 C829 1.247 . S
O839 Co826 2.244 . S
O839 C829 1.272 . S
O839 Co831 2.135 . S
Co840 O841 2.216 . S
Co840 O842 2.091 . S
Co840 O844 2.004 . S
Co840 O850 2.021 . S
Co840 O852 2.137 . S
Co840 O853 2.244 . S
O841 Co840 2.216 . S
O841 C848 1.247 . S
O842 Co840 2.091 . S
O842 C848 1.261 . S
C843 O852 1.247 . S
C843 O853 1.272 . S
O844 Co840 2.004 . S
O844 C849 1.259 . S
Co845 O846 2.061 . S
Co845 O851 2.052 . S
Co845 O853 2.135 . S
O846 Co845 2.061 . S
O846 C849 1.235 . S
C847 O850 1.238 . S
C847 O851 1.241 . S
C848 O841 1.247 . S
C848 O842 1.261 . S
C849 O844 1.259 . S
C849 O846 1.235 . S
O850 Co840 2.021 . S
O850 C847 1.238 . S
O851 Co845 2.052 . S
O851 C847 1.241 . S
O852 Co840 2.137 . S
O852 C843 1.247 . S
O853 Co840 2.244 . S
O853 C843 1.272 . S
O853 Co845 2.135 . S
Co854 O855 2.216 . S
Co854 O856 2.091 . S
Co854 O858 2.004 . S
Co854 O864 2.021 . S
Co854 O866 2.137 . S
Co854 O867 2.244 . S
O855 Co854 2.216 . S
O855 C862 1.247 . S
O856 Co854 2.091 . S
O856 C862 1.261 . S
C857 O866 1.247 . S
C857 O867 1.272 . S
O858 Co854 2.004 . S
O858 C863 1.259 . S
Co859 O860 2.061 . S
Co859 O865 2.052 . S
Co859 O867 2.135 . S
O860 Co859 2.061 . S
O860 C863 1.235 . S
C861 O864 1.238 . S
C861 O865 1.241 . S
C862 O855 1.247 . S
C862 O856 1.261 . S
C863 O858 1.259 . S
C863 O860 1.235 . S
O864 Co854 2.021 . S
O864 C861 1.238 . S
O865 Co859 2.052 . S
O865 C861 1.241 . S
O866 Co854 2.137 . S
O866 C857 1.247 . S
O867 Co854 2.244 . S
O867 C857 1.272 . S
O867 Co859 2.135 . S
Co868 O869 2.216 . S
Co868 O870 2.091 . S
Co868 O872 2.004 . S
Co868 O878 2.021 . S
Co868 O880 2.137 . S
Co868 O881 2.244 . S
O869 Co868 2.216 . S
O869 C876 1.247 . S
O870 Co868 2.091 . S
O870 C876 1.261 . S
C871 O880 1.247 . S
C871 O881 1.272 . S
O872 Co868 2.004 . S
O872 C877 1.259 . S
Co873 O874 2.061 . S
Co873 O879 2.052 . S
Co873 O881 2.135 . S
O874 Co873 2.061 . S
O874 C877 1.235 . S
C875 O878 1.238 . S
C875 O879 1.241 . S
C876 O869 1.247 . S
C876 O870 1.261 . S
C877 O872 1.259 . S
C877 O874 1.235 . S
O878 Co868 2.021 . S
O878 C875 1.238 . S
O879 Co873 2.052 . S
O879 C875 1.241 . S
O880 Co868 2.137 . S
O880 C871 1.247 . S
O881 Co868 2.244 . S
O881 C871 1.272 . S
O881 Co873 2.135 . S
Co882 O883 2.216 . S
Co882 O884 2.091 . S
Co882 O886 2.004 . S
Co882 O892 2.021 . S
Co882 O894 2.137 . S
Co882 O895 2.244 . S
O883 Co882 2.216 . S
O883 C890 1.247 . S
O884 Co882 2.091 . S
O884 C890 1.261 . S
C885 O894 1.247 . S
C885 O895 1.272 . S
O886 Co882 2.004 . S
O886 C891 1.259 . S
Co887 O888 2.061 . S
Co887 O893 2.052 . S
Co887 O895 2.135 . S
O888 Co887 2.061 . S
O888 C891 1.235 . S
C889 O892 1.238 . S
C889 O893 1.241 . S
C890 O883 1.247 . S
C890 O884 1.261 . S
C891 O886 1.259 . S
C891 O888 1.235 . S
O892 Co882 2.021 . S
O892 C889 1.238 . S
O893 Co887 2.052 . S
O893 C889 1.241 . S
O894 Co882 2.137 . S
O894 C885 1.247 . S
O895 Co882 2.244 . S
O895 C885 1.272 . S
O895 Co887 2.135 . S
Co896 O897 2.216 . S
Co896 O898 2.091 . S
Co896 O900 2.004 . S
Co896 O906 2.021 . S
Co896 O908 2.137 . S
Co896 O909 2.244 . S
O897 Co896 2.216 . S
O897 C904 1.247 . S
O898 Co896 2.091 . S
O898 C904 1.261 . S
C899 O908 1.247 . S
C899 O909 1.272 . S
O900 Co896 2.004 . S
O900 C905 1.259 . S
Co901 O902 2.061 . S
Co901 O907 2.052 . S
Co901 O909 2.135 . S
O902 Co901 2.061 . S
O902 C905 1.235 . S
C903 O906 1.238 . S
C903 O907 1.241 . S
C904 O897 1.247 . S
C904 O898 1.261 . S
C905 O900 1.259 . S
C905 O902 1.235 . S
O906 Co896 2.021 . S
O906 C903 1.238 . S
O907 Co901 2.052 . S
O907 C903 1.241 . S
O908 Co896 2.137 . S
O908 C899 1.247 . S
O909 Co896 2.244 . S
O909 C899 1.272 . S
O909 Co901 2.135 . S
Co910 O911 2.216 . S
Co910 O912 2.091 . S
Co910 O914 2.004 . S
Co910 O920 2.021 . S
Co910 O922 2.137 . S
Co910 O923 2.244 . S
O911 Co910 2.216 . S
O911 C918 1.247 . S
O912 Co910 2.091 . S
O912 C918 1.261 . S
C913 O922 1.247 . S
C913 O923 1.272 . S
O914 Co910 2.004 . S
O914 C919 1.259 . S
Co915 O916 2.061 . S
Co915 O921 2.052 . S
Co915 O923 2.135 . S
O916 Co915 2.061 . S
O916 C919 1.235 . S
C917 O920 1.238 . S
C917 O921 1.241 . S
C918 O911 1.247 . S
C918 O912 1.261 . S
C919 O914 1.259 . S
C919 O916 1.235 . S
O920 Co910 2.021 . S
O920 C917 1.238 . S
O921 Co915 2.052 . S
O921 C917 1.241 . S
O922 Co910 2.137 . S
O922 C913 1.247 . S
O923 Co910 2.244 . S
O923 C913 1.272 . S
O923 Co915 2.135 . S
Co924 O925 2.216 . S
Co924 O926 2.091 . S
Co924 O928 2.004 . S
Co924 O934 2.021 . S
Co924 O936 2.137 . S
Co924 O937 2.244 . S
O925 Co924 2.216 . S
O925 C932 1.247 . S
O926 Co924 2.091 . S
O926 C932 1.261 . S
C927 O936 1.247 . S
C927 O937 1.272 . S
O928 Co924 2.004 . S
O928 C933 1.259 . S
Co929 O930 2.061 . S
Co929 O935 2.052 . S
Co929 O937 2.135 . S
O930 Co929 2.061 . S
O930 C933 1.235 . S
C931 O934 1.238 . S
C931 O935 1.241 . S
C932 O925 1.247 . S
C932 O926 1.261 . S
C933 O928 1.259 . S
C933 O930 1.235 . S
O934 Co924 2.021 . S
O934 C931 1.238 . S
O935 Co929 2.052 . S
O935 C931 1.241 . S
O936 Co924 2.137 . S
O936 C927 1.247 . S
O937 Co924 2.244 . S
O937 C927 1.272 . S
O937 Co929 2.135 . S
Co938 O939 2.216 1_556 S
Co938 O940 2.091 1_556 S
Co938 O942 2.004 . S
Co938 O948 2.021 1_556 S
Co938 O950 2.137 . S
Co938 O951 2.244 . S
O939 Co938 2.216 1_554 S
O939 C946 1.247 . S
O940 Co938 2.091 1_554 S
O940 C946 1.261 . S
C941 O950 1.247 . S
C941 O951 1.272 . S
O942 Co938 2.004 . S
O942 C947 1.259 . S
Co943 O944 2.061 . S
Co943 O949 2.052 1_556 S
Co943 O951 2.135 . S
O944 Co943 2.061 . S
O944 C947 1.235 . S
C945 O948 1.238 . S
C945 O949 1.241 . S
C946 O939 1.247 . S
C946 O940 1.261 . S
C947 O942 1.259 . S
C947 O944 1.235 . S
O948 Co938 2.021 1_554 S
O948 C945 1.238 . S
O949 Co943 2.052 1_554 S
O949 C945 1.241 . S
O950 Co938 2.137 . S
O950 C941 1.247 . S
O951 Co938 2.244 . S
O951 C941 1.272 . S
O951 Co943 2.135 . S
Co952 O953 2.216 . S
Co952 O954 2.091 . S
Co952 O956 2.004 . S
Co952 O962 2.021 . S
Co952 O964 2.137 . S
Co952 O965 2.244 . S
O953 Co952 2.216 . S
O953 C960 1.247 . S
O954 Co952 2.091 . S
O954 C960 1.261 . S
C955 O964 1.247 . S
C955 O965 1.272 . S
O956 Co952 2.004 . S
O956 C961 1.259 . S
Co957 O958 2.061 . S
Co957 O963 2.052 . S
Co957 O965 2.135 . S
O958 Co957 2.061 . S
O958 C961 1.235 . S
C959 O962 1.238 . S
C959 O963 1.241 . S
C960 O953 1.247 . S
C960 O954 1.261 . S
C961 O956 1.259 . S
C961 O958 1.235 . S
O962 Co952 2.021 . S
O962 C959 1.238 . S
O963 Co957 2.052 . S
O963 C959 1.241 . S
O964 Co952 2.137 . S
O964 C955 1.247 . S
O965 Co952 2.244 . S
O965 C955 1.272 . S
O965 Co957 2.135 . S
Co966 O967 2.216 1_554 S
Co966 O968 2.091 1_554 S
Co966 O970 2.004 . S
Co966 O976 2.021 1_554 S
Co966 O978 2.137 . S
Co966 O979 2.244 . S
O967 Co966 2.216 1_556 S
O967 C974 1.247 . S
O968 Co966 2.091 1_556 S
O968 C974 1.261 . S
C969 O978 1.247 . S
C969 O979 1.272 . S
O970 Co966 2.004 . S
O970 C975 1.259 . S
Co971 O972 2.061 . S
Co971 O977 2.052 1_554 S
Co971 O979 2.135 . S
O972 Co971 2.061 . S
O972 C975 1.235 . S
C973 O976 1.238 . S
C973 O977 1.241 . S
C974 O967 1.247 . S
C974 O968 1.261 . S
C975 O970 1.259 . S
C975 O972 1.235 . S
O976 Co966 2.021 1_556 S
O976 C973 1.238 . S
O977 Co971 2.052 1_556 S
O977 C973 1.241 . S
O978 Co966 2.137 . S
O978 C969 1.247 . S
O979 Co966 2.244 . S
O979 C969 1.272 . S
O979 Co971 2.135 . S
Co980 O981 2.216 . S
Co980 O982 2.091 . S
Co980 O984 2.004 . S
Co980 O990 2.021 . S
Co980 O992 2.137 . S
Co980 O993 2.244 . S
O981 Co980 2.216 . S
O981 C988 1.247 . S
O982 Co980 2.091 . S
O982 C988 1.261 . S
C983 O992 1.247 . S
C983 O993 1.272 . S
O984 Co980 2.004 . S
O984 C989 1.259 . S
Co985 O986 2.061 . S
Co985 O991 2.052 . S
Co985 O993 2.135 . S
O986 Co985 2.061 . S
O986 C989 1.235 . S
C987 O990 1.238 . S
C987 O991 1.241 . S
C988 O981 1.247 . S
C988 O982 1.261 . S
C989 O984 1.259 . S
C989 O986 1.235 . S
O990 Co980 2.021 . S
O990 C987 1.238 . S
O991 Co985 2.052 . S
O991 C987 1.241 . S
O992 Co980 2.137 . S
O992 C983 1.247 . S
O993 Co980 2.244 . S
O993 C983 1.272 . S
O993 Co985 2.135 . S
Co994 O995 2.216 . S
Co994 O996 2.091 . S
Co994 O998 2.004 . S
Co994 O1004 2.021 . S
Co994 O1006 2.137 . S
Co994 O1007 2.244 . S
O995 Co994 2.216 . S
O995 C1002 1.247 . S
O996 Co994 2.091 . S
O996 C1002 1.261 . S
C997 O1006 1.247 . S
C997 O1007 1.272 . S
O998 Co994 2.004 . S
O998 C1003 1.259 . S
Co999 O1000 2.061 . S
Co999 O1005 2.052 . S
Co999 O1007 2.135 . S
O1000 Co999 2.061 . S
O1000 C1003 1.235 . S
C1001 O1004 1.238 . S
C1001 O1005 1.241 . S
C1002 O995 1.247 . S
C1002 O996 1.261 . S
C1003 O998 1.259 . S
C1003 O1000 1.235 . S
O1004 Co994 2.021 . S
O1004 C1001 1.238 . S
O1005 Co999 2.052 . S
O1005 C1001 1.241 . S
O1006 Co994 2.137 . S
O1006 C997 1.247 . S
O1007 Co994 2.244 . S
O1007 C997 1.272 . S
O1007 Co999 2.135 . S
Co1008 O1009 2.216 . S
Co1008 O1010 2.091 . S
Co1008 O1012 2.004 . S
Co1008 O1018 2.021 . S
Co1008 O1020 2.137 . S
Co1008 O1021 2.244 . S
O1009 Co1008 2.216 . S
O1009 C1016 1.247 . S
O1010 Co1008 2.091 . S
O1010 C1016 1.261 . S
C1011 O1020 1.247 . S
C1011 O1021 1.272 . S
O1012 Co1008 2.004 . S
O1012 C1017 1.259 . S
Co1013 O1014 2.061 . S
Co1013 O1019 2.052 . S
Co1013 O1021 2.135 . S
O1014 Co1013 2.061 . S
O1014 C1017 1.235 . S
C1015 O1018 1.238 . S
C1015 O1019 1.241 . S
C1016 O1009 1.247 . S
C1016 O1010 1.261 . S
C1017 O1012 1.259 . S
C1017 O1014 1.235 . S
O1018 Co1008 2.021 . S
O1018 C1015 1.238 . S
O1019 Co1013 2.052 . S
O1019 C1015 1.241 . S
O1020 Co1008 2.137 . S
O1020 C1011 1.247 . S
O1021 Co1008 2.244 . S
O1021 C1011 1.272 . S
O1021 Co1013 2.135 . S
Co1022 O1023 2.216 . S
Co1022 O1024 2.091 . S
Co1022 O1026 2.004 . S
Co1022 O1032 2.021 . S
Co1022 O1034 2.137 . S
Co1022 O1035 2.244 . S
O1023 Co1022 2.216 . S
O1023 C1030 1.247 . S
O1024 Co1022 2.091 . S
O1024 C1030 1.261 . S
C1025 O1034 1.247 . S
C1025 O1035 1.272 . S
O1026 Co1022 2.004 . S
O1026 C1031 1.259 . S
Co1027 O1028 2.061 . S
Co1027 O1033 2.052 . S
Co1027 O1035 2.135 . S
O1028 Co1027 2.061 . S
O1028 C1031 1.235 . S
C1029 O1032 1.238 . S
C1029 O1033 1.241 . S
C1030 O1023 1.247 . S
C1030 O1024 1.261 . S
C1031 O1026 1.259 . S
C1031 O1028 1.235 . S
O1032 Co1022 2.021 . S
O1032 C1029 1.238 . S
O1033 Co1027 2.052 . S
O1033 C1029 1.241 . S
O1034 Co1022 2.137 . S
O1034 C1025 1.247 . S
O1035 Co1022 2.244 . S
O1035 C1025 1.272 . S
O1035 Co1027 2.135 . S
Co1036 O1037 2.216 1_455 S
Co1036 O1038 2.091 1_455 S
Co1036 O1040 2.004 . S
Co1036 O1046 2.021 1_455 S
Co1036 O1048 2.137 . S
Co1036 O1049 2.244 . S
O1037 Co1036 2.216 1_655 S
O1037 C1044 1.247 . S
O1038 Co1036 2.091 1_655 S
O1038 C1044 1.261 . S
C1039 O1048 1.247 . S
C1039 O1049 1.272 . S
O1040 Co1036 2.004 . S
O1040 C1045 1.259 . S
Co1041 O1042 2.061 . S
Co1041 O1047 2.052 1_455 S
Co1041 O1049 2.135 . S
O1042 Co1041 2.061 . S
O1042 C1045 1.235 . S
C1043 O1046 1.238 . S
C1043 O1047 1.241 . S
C1044 O1037 1.247 . S
C1044 O1038 1.261 . S
C1045 O1040 1.259 . S
C1045 O1042 1.235 . S
O1046 Co1036 2.021 1_655 S
O1046 C1043 1.238 . S
O1047 Co1041 2.052 1_655 S
O1047 C1043 1.241 . S
O1048 Co1036 2.137 . S
O1048 C1039 1.247 . S
O1049 Co1036 2.244 . S
O1049 C1039 1.272 . S
O1049 Co1041 2.135 . S
Co1050 O1051 2.216 . S
Co1050 O1052 2.091 . S
Co1050 O1054 2.004 . S
Co1050 O1060 2.021 . S
Co1050 O1062 2.137 . S
Co1050 O1063 2.244 . S
O1051 Co1050 2.216 . S
O1051 C1058 1.247 . S
O1052 Co1050 2.091 . S
O1052 C1058 1.261 . S
C1053 O1062 1.247 . S
C1053 O1063 1.272 . S
O1054 Co1050 2.004 . S
O1054 C1059 1.259 . S
Co1055 O1056 2.061 . S
Co1055 O1061 2.052 . S
Co1055 O1063 2.135 . S
O1056 Co1055 2.061 . S
O1056 C1059 1.235 . S
C1057 O1060 1.238 . S
C1057 O1061 1.241 . S
C1058 O1051 1.247 . S
C1058 O1052 1.261 . S
C1059 O1054 1.259 . S
C1059 O1056 1.235 . S
O1060 Co1050 2.021 . S
O1060 C1057 1.238 . S
O1061 Co1055 2.052 . S
O1061 C1057 1.241 . S
O1062 Co1050 2.137 . S
O1062 C1053 1.247 . S
O1063 Co1050 2.244 . S
O1063 C1053 1.272 . S
O1063 Co1055 2.135 . S
Co1064 O1065 2.216 . S
Co1064 O1066 2.091 . S
Co1064 O1068 2.004 . S
Co1064 O1074 2.021 . S
Co1064 O1076 2.137 . S
Co1064 O1077 2.244 . S
O1065 Co1064 2.216 . S
O1065 C1072 1.247 . S
O1066 Co1064 2.091 . S
O1066 C1072 1.261 . S
C1067 O1076 1.247 . S
C1067 O1077 1.272 . S
O1068 Co1064 2.004 . S
O1068 C1073 1.259 . S
Co1069 O1070 2.061 . S
Co1069 O1075 2.052 . S
Co1069 O1077 2.135 . S
O1070 Co1069 2.061 . S
O1070 C1073 1.235 . S
C1071 O1074 1.238 . S
C1071 O1075 1.241 . S
C1072 O1065 1.247 . S
C1072 O1066 1.261 . S
C1073 O1068 1.259 . S
C1073 O1070 1.235 . S
O1074 Co1064 2.021 . S
O1074 C1071 1.238 . S
O1075 Co1069 2.052 . S
O1075 C1071 1.241 . S
O1076 Co1064 2.137 . S
O1076 C1067 1.247 . S
O1077 Co1064 2.244 . S
O1077 C1067 1.272 . S
O1077 Co1069 2.135 . S
Co1078 O1079 2.216 . S
Co1078 O1080 2.091 . S
Co1078 O1082 2.004 . S
Co1078 O1088 2.021 . S
Co1078 O1090 2.137 . S
Co1078 O1091 2.244 . S
O1079 Co1078 2.216 . S
O1079 C1086 1.247 . S
O1080 Co1078 2.091 . S
O1080 C1086 1.261 . S
C1081 O1090 1.247 . S
C1081 O1091 1.272 . S
O1082 Co1078 2.004 . S
O1082 C1087 1.259 . S
Co1083 O1084 2.061 . S
Co1083 O1089 2.052 . S
Co1083 O1091 2.135 . S
O1084 Co1083 2.061 . S
O1084 C1087 1.235 . S
C1085 O1088 1.238 . S
C1085 O1089 1.241 . S
C1086 O1079 1.247 . S
C1086 O1080 1.261 . S
C1087 O1082 1.259 . S
C1087 O1084 1.235 . S
O1088 Co1078 2.021 . S
O1088 C1085 1.238 . S
O1089 Co1083 2.052 . S
O1089 C1085 1.241 . S
O1090 Co1078 2.137 . S
O1090 C1081 1.247 . S
O1091 Co1078 2.244 . S
O1091 C1081 1.272 . S
O1091 Co1083 2.135 . S
Co1092 O1093 2.216 1_455 S
Co1092 O1094 2.091 1_455 S
Co1092 O1096 2.004 . S
Co1092 O1102 2.021 1_455 S
Co1092 O1104 2.137 . S
Co1092 O1105 2.244 . S
O1093 Co1092 2.216 1_655 S
O1093 C1100 1.247 . S
O1094 Co1092 2.091 1_655 S
O1094 C1100 1.261 . S
C1095 O1104 1.247 . S
C1095 O1105 1.272 . S
O1096 Co1092 2.004 . S
O1096 C1101 1.259 . S
Co1097 O1098 2.061 . S
Co1097 O1103 2.052 1_455 S
Co1097 O1105 2.135 . S
O1098 Co1097 2.061 . S
O1098 C1101 1.235 . S
C1099 O1102 1.238 . S
C1099 O1103 1.241 . S
C1100 O1093 1.247 . S
C1100 O1094 1.261 . S
C1101 O1096 1.259 . S
C1101 O1098 1.235 . S
O1102 Co1092 2.021 1_655 S
O1102 C1099 1.238 . S
O1103 Co1097 2.052 1_655 S
O1103 C1099 1.241 . S
O1104 Co1092 2.137 . S
O1104 C1095 1.247 . S
O1105 Co1092 2.244 . S
O1105 C1095 1.272 . S
O1105 Co1097 2.135 . S
Co1106 O1107 2.216 . S
Co1106 O1108 2.091 . S
Co1106 O1110 2.004 . S
Co1106 O1116 2.021 . S
Co1106 O1118 2.137 . S
Co1106 O1119 2.244 . S
O1107 Co1106 2.216 . S
O1107 C1114 1.247 . S
O1108 Co1106 2.091 . S
O1108 C1114 1.261 . S
C1109 O1118 1.247 . S
C1109 O1119 1.272 . S
O1110 Co1106 2.004 . S
O1110 C1115 1.259 . S
Co1111 O1112 2.061 . S
Co1111 O1117 2.052 . S
Co1111 O1119 2.135 . S
O1112 Co1111 2.061 . S
O1112 C1115 1.235 . S
C1113 O1116 1.238 . S
C1113 O1117 1.241 . S
C1114 O1107 1.247 . S
C1114 O1108 1.261 . S
C1115 O1110 1.259 . S
C1115 O1112 1.235 . S
O1116 Co1106 2.021 . S
O1116 C1113 1.238 . S
O1117 Co1111 2.052 . S
O1117 C1113 1.241 . S
O1118 Co1106 2.137 . S
O1118 C1109 1.247 . S
O1119 Co1106 2.244 . S
O1119 C1109 1.272 . S
O1119 Co1111 2.135 . S
Co1120 O1121 2.216 . S
Co1120 O1122 2.091 . S
Co1120 O1124 2.004 . S
Co1120 O1130 2.021 . S
Co1120 O1132 2.137 . S
Co1120 O1133 2.244 . S
O1121 Co1120 2.216 . S
O1121 C1128 1.247 . S
O1122 Co1120 2.091 . S
O1122 C1128 1.261 . S
C1123 O1132 1.247 . S
C1123 O1133 1.272 . S
O1124 Co1120 2.004 . S
O1124 C1129 1.259 . S
Co1125 O1126 2.061 . S
Co1125 O1131 2.052 . S
Co1125 O1133 2.135 . S
O1126 Co1125 2.061 . S
O1126 C1129 1.235 . S
C1127 O1130 1.238 . S
C1127 O1131 1.241 . S
C1128 O1121 1.247 . S
C1128 O1122 1.261 . S
C1129 O1124 1.259 . S
C1129 O1126 1.235 . S
O1130 Co1120 2.021 . S
O1130 C1127 1.238 . S
O1131 Co1125 2.052 . S
O1131 C1127 1.241 . S
O1132 Co1120 2.137 . S
O1132 C1123 1.247 . S
O1133 Co1120 2.244 . S
O1133 C1123 1.272 . S
O1133 Co1125 2.135 . S
Co1134 O1135 2.216 . S
Co1134 O1136 2.091 . S
Co1134 O1138 2.004 . S
Co1134 O1144 2.021 . S
Co1134 O1146 2.137 . S
Co1134 O1147 2.244 . S
O1135 Co1134 2.216 . S
O1135 C1142 1.247 . S
O1136 Co1134 2.091 . S
O1136 C1142 1.261 . S
C1137 O1146 1.247 . S
C1137 O1147 1.272 . S
O1138 Co1134 2.004 . S
O1138 C1143 1.259 . S
Co1139 O1140 2.061 . S
Co1139 O1145 2.052 . S
Co1139 O1147 2.135 . S
O1140 Co1139 2.061 . S
O1140 C1143 1.235 . S
C1141 O1144 1.238 . S
C1141 O1145 1.241 . S
C1142 O1135 1.247 . S
C1142 O1136 1.261 . S
C1143 O1138 1.259 . S
C1143 O1140 1.235 . S
O1144 Co1134 2.021 . S
O1144 C1141 1.238 . S
O1145 Co1139 2.052 . S
O1145 C1141 1.241 . S
O1146 Co1134 2.137 . S
O1146 C1137 1.247 . S
O1147 Co1134 2.244 . S
O1147 C1137 1.272 . S
O1147 Co1139 2.135 . S
Co1148 O1149 2.216 . S
Co1148 O1150 2.091 . S
Co1148 O1152 2.004 . S
Co1148 O1158 2.021 . S
Co1148 O1160 2.137 . S
Co1148 O1161 2.244 . S
O1149 Co1148 2.216 . S
O1149 C1156 1.247 . S
O1150 Co1148 2.091 . S
O1150 C1156 1.261 . S
C1151 O1160 1.247 . S
C1151 O1161 1.272 . S
O1152 Co1148 2.004 . S
O1152 C1157 1.259 . S
Co1153 O1154 2.061 . S
Co1153 O1159 2.052 . S
Co1153 O1161 2.135 . S
O1154 Co1153 2.061 . S
O1154 C1157 1.235 . S
C1155 O1158 1.238 . S
C1155 O1159 1.241 . S
C1156 O1149 1.247 . S
C1156 O1150 1.261 . S
C1157 O1152 1.259 . S
C1157 O1154 1.235 . S
O1158 Co1148 2.021 . S
O1158 C1155 1.238 . S
O1159 Co1153 2.052 . S
O1159 C1155 1.241 . S
O1160 Co1148 2.137 . S
O1160 C1151 1.247 . S
O1161 Co1148 2.244 . S
O1161 C1151 1.272 . S
O1161 Co1153 2.135 . S
Co1162 O1163 2.216 . S
Co1162 O1164 2.091 . S
Co1162 O1166 2.004 . S
Co1162 O1172 2.021 . S
Co1162 O1174 2.137 . S
Co1162 O1175 2.244 . S
O1163 Co1162 2.216 . S
O1163 C1170 1.247 . S
O1164 Co1162 2.091 . S
O1164 C1170 1.261 . S
C1165 O1174 1.247 . S
C1165 O1175 1.272 . S
O1166 Co1162 2.004 . S
O1166 C1171 1.259 . S
Co1167 O1168 2.061 . S
Co1167 O1173 2.052 . S
Co1167 O1175 2.135 . S
O1168 Co1167 2.061 . S
O1168 C1171 1.235 . S
C1169 O1172 1.238 . S
C1169 O1173 1.241 . S
C1170 O1163 1.247 . S
C1170 O1164 1.261 . S
C1171 O1166 1.259 . S
C1171 O1168 1.235 . S
O1172 Co1162 2.021 . S
O1172 C1169 1.238 . S
O1173 Co1167 2.052 . S
O1173 C1169 1.241 . S
O1174 Co1162 2.137 . S
O1174 C1165 1.247 . S
O1175 Co1162 2.244 . S
O1175 C1165 1.272 . S
O1175 Co1167 2.135 . S
Co1176 O1177 2.216 . S
Co1176 O1178 2.091 . S
Co1176 O1180 2.004 . S
Co1176 O1186 2.021 . S
Co1176 O1188 2.137 . S
Co1176 O1189 2.244 . S
O1177 Co1176 2.216 . S
O1177 C1184 1.247 . S
O1178 Co1176 2.091 . S
O1178 C1184 1.261 . S
C1179 O1188 1.247 . S
C1179 O1189 1.272 . S
O1180 Co1176 2.004 . S
O1180 C1185 1.259 . S
Co1181 O1182 2.061 . S
Co1181 O1187 2.052 . S
Co1181 O1189 2.135 . S
O1182 Co1181 2.061 . S
O1182 C1185 1.235 . S
C1183 O1186 1.238 . S
C1183 O1187 1.241 . S
C1184 O1177 1.247 . S
C1184 O1178 1.261 . S
C1185 O1180 1.259 . S
C1185 O1182 1.235 . S
O1186 Co1176 2.021 . S
O1186 C1183 1.238 . S
O1187 Co1181 2.052 . S
O1187 C1183 1.241 . S
O1188 Co1176 2.137 . S
O1188 C1179 1.247 . S
O1189 Co1176 2.244 . S
O1189 C1179 1.272 . S
O1189 Co1181 2.135 . S
Co1190 O1191 2.216 . S
Co1190 O1192 2.091 . S
Co1190 O1194 2.004 . S
Co1190 O1200 2.021 . S
Co1190 O1202 2.137 . S
Co1190 O1203 2.244 . S
O1191 Co1190 2.216 . S
O1191 C1198 1.247 . S
O1192 Co1190 2.091 . S
O1192 C1198 1.261 . S
C1193 O1202 1.247 . S
C1193 O1203 1.272 . S
O1194 Co1190 2.004 . S
O1194 C1199 1.259 . S
Co1195 O1196 2.061 . S
Co1195 O1201 2.052 . S
Co1195 O1203 2.135 . S
O1196 Co1195 2.061 . S
O1196 C1199 1.235 . S
C1197 O1200 1.238 . S
C1197 O1201 1.241 . S
C1198 O1191 1.247 . S
C1198 O1192 1.261 . S
C1199 O1194 1.259 . S
C1199 O1196 1.235 . S
O1200 Co1190 2.021 . S
O1200 C1197 1.238 . S
O1201 Co1195 2.052 . S
O1201 C1197 1.241 . S
O1202 Co1190 2.137 . S
O1202 C1193 1.247 . S
O1203 Co1190 2.244 . S
O1203 C1193 1.272 . S
O1203 Co1195 2.135 . S
Co1204 O1205 2.216 . S
Co1204 O1206 2.091 . S
Co1204 O1208 2.004 . S
Co1204 O1214 2.021 . S
Co1204 O1216 2.137 . S
Co1204 O1217 2.244 . S
O1205 Co1204 2.216 . S
O1205 C1212 1.247 . S
O1206 Co1204 2.091 . S
O1206 C1212 1.261 . S
C1207 O1216 1.247 . S
C1207 O1217 1.272 . S
O1208 Co1204 2.004 . S
O1208 C1213 1.259 . S
Co1209 O1210 2.061 . S
Co1209 O1215 2.052 . S
Co1209 O1217 2.135 . S
O1210 Co1209 2.061 . S
O1210 C1213 1.235 . S
C1211 O1214 1.238 . S
C1211 O1215 1.241 . S
C1212 O1205 1.247 . S
C1212 O1206 1.261 . S
C1213 O1208 1.259 . S
C1213 O1210 1.235 . S
O1214 Co1204 2.021 . S
O1214 C1211 1.238 . S
O1215 Co1209 2.052 . S
O1215 C1211 1.241 . S
O1216 Co1204 2.137 . S
O1216 C1207 1.247 . S
O1217 Co1204 2.244 . S
O1217 C1207 1.272 . S
O1217 Co1209 2.135 . S
Co1218 O1219 2.216 . S
Co1218 O1220 2.091 . S
Co1218 O1222 2.004 . S
Co1218 O1228 2.021 . S
Co1218 O1230 2.137 . S
Co1218 O1231 2.244 . S
O1219 Co1218 2.216 . S
O1219 C1226 1.247 . S
O1220 Co1218 2.091 . S
O1220 C1226 1.261 . S
C1221 O1230 1.247 . S
C1221 O1231 1.272 . S
O1222 Co1218 2.004 . S
O1222 C1227 1.259 . S
Co1223 O1224 2.061 . S
Co1223 O1229 2.052 . S
Co1223 O1231 2.135 . S
O1224 Co1223 2.061 . S
O1224 C1227 1.235 . S
C1225 O1228 1.238 . S
C1225 O1229 1.241 . S
C1226 O1219 1.247 . S
C1226 O1220 1.261 . S
C1227 O1222 1.259 . S
C1227 O1224 1.235 . S
O1228 Co1218 2.021 . S
O1228 C1225 1.238 . S
O1229 Co1223 2.052 . S
O1229 C1225 1.241 . S
O1230 Co1218 2.137 . S
O1230 C1221 1.247 . S
O1231 Co1218 2.244 . S
O1231 C1221 1.272 . S
O1231 Co1223 2.135 . S
Co1232 O1233 2.216 . S
Co1232 O1234 2.091 . S
Co1232 O1236 2.004 . S
Co1232 O1242 2.021 . S
Co1232 O1244 2.137 . S
Co1232 O1245 2.244 . S
O1233 Co1232 2.216 . S
O1233 C1240 1.247 . S
O1234 Co1232 2.091 . S
O1234 C1240 1.261 . S
C1235 O1244 1.247 . S
C1235 O1245 1.272 . S
O1236 Co1232 2.004 . S
O1236 C1241 1.259 . S
Co1237 O1238 2.061 . S
Co1237 O1243 2.052 . S
Co1237 O1245 2.135 . S
O1238 Co1237 2.061 . S
O1238 C1241 1.235 . S
C1239 O1242 1.238 . S
C1239 O1243 1.241 . S
C1240 O1233 1.247 . S
C1240 O1234 1.261 . S
C1241 O1236 1.259 . S
C1241 O1238 1.235 . S
O1242 Co1232 2.021 . S
O1242 C1239 1.238 . S
O1243 Co1237 2.052 . S
O1243 C1239 1.241 . S
O1244 Co1232 2.137 . S
O1244 C1235 1.247 . S
O1245 Co1232 2.244 . S
O1245 C1235 1.272 . S
O1245 Co1237 2.135 . S
Co1246 O1247 2.216 . S
Co1246 O1248 2.091 . S
Co1246 O1250 2.004 . S
Co1246 O1256 2.021 . S
Co1246 O1258 2.137 . S
Co1246 O1259 2.244 . S
O1247 Co1246 2.216 . S
O1247 C1254 1.247 . S
O1248 Co1246 2.091 . S
O1248 C1254 1.261 . S
C1249 O1258 1.247 . S
C1249 O1259 1.272 . S
O1250 Co1246 2.004 . S
O1250 C1255 1.259 . S
Co1251 O1252 2.061 . S
Co1251 O1257 2.052 . S
Co1251 O1259 2.135 . S
O1252 Co1251 2.061 . S
O1252 C1255 1.235 . S
C1253 O1256 1.238 . S
C1253 O1257 1.241 . S
C1254 O1247 1.247 . S
C1254 O1248 1.261 . S
C1255 O1250 1.259 . S
C1255 O1252 1.235 . S
O1256 Co1246 2.021 . S
O1256 C1253 1.238 . S
O1257 Co1251 2.052 . S
O1257 C1253 1.241 . S
O1258 Co1246 2.137 . S
O1258 C1249 1.247 . S
O1259 Co1246 2.244 . S
O1259 C1249 1.272 . S
O1259 Co1251 2.135 . S
Co1260 O1261 2.216 . S
Co1260 O1262 2.091 . S
Co1260 O1264 2.004 . S
Co1260 O1270 2.021 . S
Co1260 O1272 2.137 . S
Co1260 O1273 2.244 . S
O1261 Co1260 2.216 . S
O1261 C1268 1.247 . S
O1262 Co1260 2.091 . S
O1262 C1268 1.261 . S
C1263 O1272 1.247 . S
C1263 O1273 1.272 . S
O1264 Co1260 2.004 . S
O1264 C1269 1.259 . S
Co1265 O1266 2.061 . S
Co1265 O1271 2.052 . S
Co1265 O1273 2.135 . S
O1266 Co1265 2.061 . S
O1266 C1269 1.235 . S
C1267 O1270 1.238 . S
C1267 O1271 1.241 . S
C1268 O1261 1.247 . S
C1268 O1262 1.261 . S
C1269 O1264 1.259 . S
C1269 O1266 1.235 . S
O1270 Co1260 2.021 . S
O1270 C1267 1.238 . S
O1271 Co1265 2.052 . S
O1271 C1267 1.241 . S
O1272 Co1260 2.137 . S
O1272 C1263 1.247 . S
O1273 Co1260 2.244 . S
O1273 C1263 1.272 . S
O1273 Co1265 2.135 . S
Co1274 O1275 2.216 1_554 S
Co1274 O1276 2.091 1_554 S
Co1274 O1278 2.004 . S
Co1274 O1284 2.021 1_554 S
Co1274 O1286 2.137 . S
Co1274 O1287 2.244 . S
O1275 Co1274 2.216 1_556 S
O1275 C1282 1.247 . S
O1276 Co1274 2.091 1_556 S
O1276 C1282 1.261 . S
C1277 O1286 1.247 . S
C1277 O1287 1.272 . S
O1278 Co1274 2.004 . S
O1278 C1283 1.259 . S
Co1279 O1280 2.061 . S
Co1279 O1285 2.052 1_554 S
Co1279 O1287 2.135 . S
O1280 Co1279 2.061 . S
O1280 C1283 1.235 . S
C1281 O1284 1.238 . S
C1281 O1285 1.241 . S
C1282 O1275 1.247 . S
C1282 O1276 1.261 . S
C1283 O1278 1.259 . S
C1283 O1280 1.235 . S
O1284 Co1274 2.021 1_556 S
O1284 C1281 1.238 . S
O1285 Co1279 2.052 1_556 S
O1285 C1281 1.241 . S
O1286 Co1274 2.137 . S
O1286 C1277 1.247 . S
O1287 Co1274 2.244 . S
O1287 C1277 1.272 . S
O1287 Co1279 2.135 . S
Co1288 O1289 2.216 . S
Co1288 O1290 2.091 . S
Co1288 O1292 2.004 . S
Co1288 O1298 2.021 . S
Co1288 O1300 2.137 . S
Co1288 O1301 2.244 . S
O1289 Co1288 2.216 . S
O1289 C1296 1.247 . S
O1290 Co1288 2.091 . S
O1290 C1296 1.261 . S
C1291 O1300 1.247 . S
C1291 O1301 1.272 . S
O1292 Co1288 2.004 . S
O1292 C1297 1.259 . S
Co1293 O1294 2.061 . S
Co1293 O1299 2.052 . S
Co1293 O1301 2.135 . S
O1294 Co1293 2.061 . S
O1294 C1297 1.235 . S
C1295 O1298 1.238 . S
C1295 O1299 1.241 . S
C1296 O1289 1.247 . S
C1296 O1290 1.261 . S
C1297 O1292 1.259 . S
C1297 O1294 1.235 . S
O1298 Co1288 2.021 . S
O1298 C1295 1.238 . S
O1299 Co1293 2.052 . S
O1299 C1295 1.241 . S
O1300 Co1288 2.137 . S
O1300 C1291 1.247 . S
O1301 Co1288 2.244 . S
O1301 C1291 1.272 . S
O1301 Co1293 2.135 . S
Co1302 O1303 2.216 1_556 S
Co1302 O1304 2.091 1_556 S
Co1302 O1306 2.004 . S
Co1302 O1312 2.021 1_556 S
Co1302 O1314 2.137 . S
Co1302 O1315 2.244 . S
O1303 Co1302 2.216 1_554 S
O1303 C1310 1.247 . S
O1304 Co1302 2.091 1_554 S
O1304 C1310 1.261 . S
C1305 O1314 1.247 . S
C1305 O1315 1.272 . S
O1306 Co1302 2.004 . S
O1306 C1311 1.259 . S
Co1307 O1308 2.061 . S
Co1307 O1313 2.052 1_556 S
Co1307 O1315 2.135 . S
O1308 Co1307 2.061 . S
O1308 C1311 1.235 . S
C1309 O1312 1.238 . S
C1309 O1313 1.241 . S
C1310 O1303 1.247 . S
C1310 O1304 1.261 . S
C1311 O1306 1.259 . S
C1311 O1308 1.235 . S
O1312 Co1302 2.021 1_554 S
O1312 C1309 1.238 . S
O1313 Co1307 2.052 1_554 S
O1313 C1309 1.241 . S
O1314 Co1302 2.137 . S
O1314 C1305 1.247 . S
O1315 Co1302 2.244 . S
O1315 C1305 1.272 . S
O1315 Co1307 2.135 . S
Co1316 O1317 2.216 . S
Co1316 O1318 2.091 . S
Co1316 O1320 2.004 . S
Co1316 O1326 2.021 . S
Co1316 O1328 2.137 . S
Co1316 O1329 2.244 . S
O1317 Co1316 2.216 . S
O1317 C1324 1.247 . S
O1318 Co1316 2.091 . S
O1318 C1324 1.261 . S
C1319 O1328 1.247 . S
C1319 O1329 1.272 . S
O1320 Co1316 2.004 . S
O1320 C1325 1.259 . S
Co1321 O1322 2.061 . S
Co1321 O1327 2.052 . S
Co1321 O1329 2.135 . S
O1322 Co1321 2.061 . S
O1322 C1325 1.235 . S
C1323 O1326 1.238 . S
C1323 O1327 1.241 . S
C1324 O1317 1.247 . S
C1324 O1318 1.261 . S
C1325 O1320 1.259 . S
C1325 O1322 1.235 . S
O1326 Co1316 2.021 . S
O1326 C1323 1.238 . S
O1327 Co1321 2.052 . S
O1327 C1323 1.241 . S
O1328 Co1316 2.137 . S
O1328 C1319 1.247 . S
O1329 Co1316 2.244 . S
O1329 C1319 1.272 . S
O1329 Co1321 2.135 . S
Co1330 O1331 2.216 . S
Co1330 O1332 2.091 . S
Co1330 O1334 2.004 . S
Co1330 O1340 2.021 . S
Co1330 O1342 2.137 . S
Co1330 O1343 2.244 . S
O1331 Co1330 2.216 . S
O1331 C1338 1.247 . S
O1332 Co1330 2.091 . S
O1332 C1338 1.261 . S
C1333 O1342 1.247 . S
C1333 O1343 1.272 . S
O1334 Co1330 2.004 . S
O1334 C1339 1.259 . S
Co1335 O1336 2.061 . S
Co1335 O1341 2.052 . S
Co1335 O1343 2.135 . S
O1336 Co1335 2.061 . S
O1336 C1339 1.235 . S
C1337 O1340 1.238 . S
C1337 O1341 1.241 . S
C1338 O1331 1.247 . S
C1338 O1332 1.261 . S
C1339 O1334 1.259 . S
C1339 O1336 1.235 . S
O1340 Co1330 2.021 . S
O1340 C1337 1.238 . S
O1341 Co1335 2.052 . S
O1341 C1337 1.241 . S
O1342 Co1330 2.137 . S
O1342 C1333 1.247 . S
O1343 Co1330 2.244 . S
O1343 C1333 1.272 . S
O1343 Co1335 2.135 . S
C1344 C1345 1.387 . S
C1344 H1348 0.950 . S
C1344 C1353 1.390 . S
C1345 C1344 1.387 . S
C1345 C1347 1.387 . S
H1346 C1353 0.950 . S
C1347 C1345 1.387 . S
C1347 C1349 1.390 . S
C1347 H1351 0.950 . S
H1348 C1344 0.950 . S
C1349 C1347 1.390 . S
C1349 C1350 1.387 . S
C1349 H1352 0.950 . S
C1350 C1349 1.387 . S
C1350 C1353 1.387 . S
H1351 C1347 0.950 . S
H1352 C1349 0.950 . S
C1353 C1344 1.390 . S
C1353 H1346 0.950 . S
C1353 C1350 1.387 . S
C1354 C1355 1.387 . S
C1354 H1358 0.950 . S
C1354 C1363 1.390 . S
C1355 C1354 1.387 . S
C1355 C1357 1.387 . S
H1356 C1363 0.950 . S
C1357 C1355 1.387 . S
C1357 C1359 1.390 . S
C1357 H1361 0.950 . S
H1358 C1354 0.950 . S
C1359 C1357 1.390 . S
C1359 C1360 1.387 . S
C1359 H1362 0.950 . S
C1360 C1359 1.387 . S
C1360 C1363 1.387 . S
H1361 C1357 0.950 . S
H1362 C1359 0.950 . S
C1363 C1354 1.390 . S
C1363 H1356 0.950 . S
C1363 C1360 1.387 . S
C1364 C1365 1.387 . S
C1364 H1368 0.950 . S
C1364 C1373 1.390 . S
C1365 C1364 1.387 . S
C1365 C1367 1.387 . S
H1366 C1373 0.950 . S
C1367 C1365 1.387 . S
C1367 C1369 1.390 . S
C1367 H1371 0.950 . S
H1368 C1364 0.950 . S
C1369 C1367 1.390 . S
C1369 C1370 1.387 . S
C1369 H1372 0.950 . S
C1370 C1369 1.387 . S
C1370 C1373 1.387 . S
H1371 C1367 0.950 . S
H1372 C1369 0.950 . S
C1373 C1364 1.390 . S
C1373 H1366 0.950 . S
C1373 C1370 1.387 . S
C1374 C1375 1.387 . S
C1374 H1378 0.950 . S
C1374 C1383 1.390 . S
C1375 C1374 1.387 . S
C1375 C1377 1.387 . S
H1376 C1383 0.950 . S
C1377 C1375 1.387 . S
C1377 C1379 1.390 . S
C1377 H1381 0.950 . S
H1378 C1374 0.950 . S
C1379 C1377 1.390 . S
C1379 C1380 1.387 . S
C1379 H1382 0.950 . S
C1380 C1379 1.387 . S
C1380 C1383 1.387 . S
H1381 C1377 0.950 . S
H1382 C1379 0.950 . S
C1383 C1374 1.390 . S
C1383 H1376 0.950 . S
C1383 C1380 1.387 . S
C1384 C1385 1.387 . S
C1384 H1388 0.950 . S
C1384 C1393 1.390 . S
C1385 C1384 1.387 . S
C1385 C1387 1.387 . S
H1386 C1393 0.950 . S
C1387 C1385 1.387 . S
C1387 C1389 1.390 . S
C1387 H1391 0.950 . S
H1388 C1384 0.950 . S
C1389 C1387 1.390 . S
C1389 C1390 1.387 . S
C1389 H1392 0.950 . S
C1390 C1389 1.387 . S
C1390 C1393 1.387 . S
H1391 C1387 0.950 . S
H1392 C1389 0.950 . S
C1393 C1384 1.390 . S
C1393 H1386 0.950 . S
C1393 C1390 1.387 . S
C1394 C1395 1.387 . S
C1394 H1398 0.950 . S
C1394 C1403 1.390 . S
C1395 C1394 1.387 . S
C1395 C1397 1.387 . S
H1396 C1403 0.950 . S
C1397 C1395 1.387 . S
C1397 C1399 1.390 . S
C1397 H1401 0.950 . S
H1398 C1394 0.950 . S
C1399 C1397 1.390 . S
C1399 C1400 1.387 . S
C1399 H1402 0.950 . S
C1400 C1399 1.387 . S
C1400 C1403 1.387 . S
H1401 C1397 0.950 . S
H1402 C1399 0.950 . S
C1403 C1394 1.390 . S
C1403 H1396 0.950 . S
C1403 C1400 1.387 . S
C1404 C1405 1.387 . S
C1404 H1408 0.950 . S
C1404 C1413 1.390 . S
C1405 C1404 1.387 . S
C1405 C1407 1.387 . S
H1406 C1413 0.950 . S
C1407 C1405 1.387 . S
C1407 C1409 1.390 . S
C1407 H1411 0.950 . S
H1408 C1404 0.950 . S
C1409 C1407 1.390 . S
C1409 C1410 1.387 . S
C1409 H1412 0.950 . S
C1410 C1409 1.387 . S
C1410 C1413 1.387 . S
H1411 C1407 0.950 . S
H1412 C1409 0.950 . S
C1413 C1404 1.390 . S
C1413 H1406 0.950 . S
C1413 C1410 1.387 . S
C1414 C1415 1.387 . S
C1414 H1418 0.950 . S
C1414 C1423 1.390 . S
C1415 C1414 1.387 . S
C1415 C1417 1.387 . S
H1416 C1423 0.950 . S
C1417 C1415 1.387 . S
C1417 C1419 1.390 . S
C1417 H1421 0.950 . S
H1418 C1414 0.950 . S
C1419 C1417 1.390 . S
C1419 C1420 1.387 . S
C1419 H1422 0.950 . S
C1420 C1419 1.387 . S
C1420 C1423 1.387 . S
H1421 C1417 0.950 . S
H1422 C1419 0.950 . S
C1423 C1414 1.390 . S
C1423 H1416 0.950 . S
C1423 C1420 1.387 . S
C1424 C1425 1.387 . S
C1424 H1428 0.950 . S
C1424 C1433 1.390 . S
C1425 C1424 1.387 . S
C1425 C1427 1.387 . S
H1426 C1433 0.950 . S
C1427 C1425 1.387 . S
C1427 C1429 1.390 . S
C1427 H1431 0.950 . S
H1428 C1424 0.950 . S
C1429 C1427 1.390 . S
C1429 C1430 1.387 . S
C1429 H1432 0.950 . S
C1430 C1429 1.387 . S
C1430 C1433 1.387 . S
H1431 C1427 0.950 . S
H1432 C1429 0.950 . S
C1433 C1424 1.390 . S
C1433 H1426 0.950 . S
C1433 C1430 1.387 . S
C1434 C1435 1.387 . S
C1434 H1438 0.950 . S
C1434 C1443 1.390 . S
C1435 C1434 1.387 . S
C1435 C1437 1.387 . S
H1436 C1443 0.950 . S
C1437 C1435 1.387 . S
C1437 C1439 1.390 . S
C1437 H1441 0.950 . S
H1438 C1434 0.950 . S
C1439 C1437 1.390 . S
C1439 C1440 1.387 . S
C1439 H1442 0.950 . S
C1440 C1439 1.387 . S
C1440 C1443 1.387 . S
H1441 C1437 0.950 . S
H1442 C1439 0.950 . S
C1443 C1434 1.390 . S
C1443 H1436 0.950 . S
C1443 C1440 1.387 . S
C1444 C1445 1.387 . S
C1444 H1448 0.950 . S
C1444 C1453 1.390 . S
C1445 C1444 1.387 . S
C1445 C1447 1.387 . S
H1446 C1453 0.950 . S
C1447 C1445 1.387 . S
C1447 C1449 1.390 . S
C1447 H1451 0.950 . S
H1448 C1444 0.950 . S
C1449 C1447 1.390 . S
C1449 C1450 1.387 . S
C1449 H1452 0.950 . S
C1450 C1449 1.387 . S
C1450 C1453 1.387 . S
H1451 C1447 0.950 . S
H1452 C1449 0.950 . S
C1453 C1444 1.390 . S
C1453 H1446 0.950 . S
C1453 C1450 1.387 . S
C1454 C1455 1.387 . S
C1454 H1458 0.950 . S
C1454 C1463 1.390 . S
C1455 C1454 1.387 . S
C1455 C1457 1.387 . S
H1456 C1463 0.950 . S
C1457 C1455 1.387 . S
C1457 C1459 1.390 . S
C1457 H1461 0.950 . S
H1458 C1454 0.950 . S
C1459 C1457 1.390 . S
C1459 C1460 1.387 . S
C1459 H1462 0.950 . S
C1460 C1459 1.387 . S
C1460 C1463 1.387 . S
H1461 C1457 0.950 . S
H1462 C1459 0.950 . S
C1463 C1454 1.390 . S
C1463 H1456 0.950 . S
C1463 C1460 1.387 . S
C1464 C1465 1.387 . S
C1464 H1468 0.950 . S
C1464 C1473 1.390 . S
C1465 C1464 1.387 . S
C1465 C1467 1.387 . S
H1466 C1473 0.950 . S
C1467 C1465 1.387 . S
C1467 C1469 1.390 . S
C1467 H1471 0.950 . S
H1468 C1464 0.950 . S
C1469 C1467 1.390 . S
C1469 C1470 1.387 . S
C1469 H1472 0.950 . S
C1470 C1469 1.387 . S
C1470 C1473 1.387 . S
H1471 C1467 0.950 . S
H1472 C1469 0.950 . S
C1473 C1464 1.390 . S
C1473 H1466 0.950 . S
C1473 C1470 1.387 . S
C1474 C1475 1.387 . S
C1474 H1478 0.950 . S
C1474 C1483 1.390 . S
C1475 C1474 1.387 . S
C1475 C1477 1.387 . S
H1476 C1483 0.950 . S
C1477 C1475 1.387 . S
C1477 C1479 1.390 . S
C1477 H1481 0.950 . S
H1478 C1474 0.950 . S
C1479 C1477 1.390 . S
C1479 C1480 1.387 . S
C1479 H1482 0.950 . S
C1480 C1479 1.387 . S
C1480 C1483 1.387 . S
H1481 C1477 0.950 . S
H1482 C1479 0.950 . S
C1483 C1474 1.390 . S
C1483 H1476 0.950 . S
C1483 C1480 1.387 . S
C1484 C1485 1.387 . S
C1484 H1488 0.950 . S
C1484 C1493 1.390 . S
C1485 C1484 1.387 . S
C1485 C1487 1.387 . S
H1486 C1493 0.950 . S
C1487 C1485 1.387 . S
C1487 C1489 1.390 . S
C1487 H1491 0.950 . S
H1488 C1484 0.950 . S
C1489 C1487 1.390 . S
C1489 C1490 1.387 . S
C1489 H1492 0.950 . S
C1490 C1489 1.387 . S
C1490 C1493 1.387 . S
H1491 C1487 0.950 . S
H1492 C1489 0.950 . S
C1493 C1484 1.390 . S
C1493 H1486 0.950 . S
C1493 C1490 1.387 . S
C1494 C1495 1.387 . S
C1494 H1498 0.950 . S
C1494 C1503 1.390 . S
C1495 C1494 1.387 . S
C1495 C1497 1.387 . S
H1496 C1503 0.950 . S
C1497 C1495 1.387 . S
C1497 C1499 1.390 . S
C1497 H1501 0.950 . S
H1498 C1494 0.950 . S
C1499 C1497 1.390 . S
C1499 C1500 1.387 . S
C1499 H1502 0.950 . S
C1500 C1499 1.387 . S
C1500 C1503 1.387 . S
H1501 C1497 0.950 . S
H1502 C1499 0.950 . S
C1503 C1494 1.390 . S
C1503 H1496 0.950 . S
C1503 C1500 1.387 . S
C1504 C1505 1.387 . S
C1504 H1508 0.950 . S
C1504 C1513 1.390 . S
C1505 C1504 1.387 . S
C1505 C1507 1.387 . S
H1506 C1513 0.950 . S
C1507 C1505 1.387 . S
C1507 C1509 1.390 . S
C1507 H1511 0.950 . S
H1508 C1504 0.950 . S
C1509 C1507 1.390 . S
C1509 C1510 1.387 . S
C1509 H1512 0.950 . S
C1510 C1509 1.387 . S
C1510 C1513 1.387 . S
H1511 C1507 0.950 . S
H1512 C1509 0.950 . S
C1513 C1504 1.390 . S
C1513 H1506 0.950 . S
C1513 C1510 1.387 . S
C1514 C1515 1.387 . S
C1514 H1518 0.950 . S
C1514 C1523 1.390 . S
C1515 C1514 1.387 . S
C1515 C1517 1.387 . S
H1516 C1523 0.950 . S
C1517 C1515 1.387 . S
C1517 C1519 1.390 . S
C1517 H1521 0.950 . S
H1518 C1514 0.950 . S
C1519 C1517 1.390 . S
C1519 C1520 1.387 . S
C1519 H1522 0.950 . S
C1520 C1519 1.387 . S
C1520 C1523 1.387 . S
H1521 C1517 0.950 . S
H1522 C1519 0.950 . S
C1523 C1514 1.390 . S
C1523 H1516 0.950 . S
C1523 C1520 1.387 . S
C1524 C1525 1.387 . S
C1524 H1528 0.950 . S
C1524 C1533 1.390 . S
C1525 C1524 1.387 . S
C1525 C1527 1.387 . S
H1526 C1533 0.950 . S
C1527 C1525 1.387 . S
C1527 C1529 1.390 . S
C1527 H1531 0.950 . S
H1528 C1524 0.950 . S
C1529 C1527 1.390 . S
C1529 C1530 1.387 . S
C1529 H1532 0.950 . S
C1530 C1529 1.387 . S
C1530 C1533 1.387 . S
H1531 C1527 0.950 . S
H1532 C1529 0.950 . S
C1533 C1524 1.390 . S
C1533 H1526 0.950 . S
C1533 C1530 1.387 . S
C1534 C1535 1.387 . S
C1534 H1538 0.950 . S
C1534 C1543 1.390 . S
C1535 C1534 1.387 . S
C1535 C1537 1.387 . S
H1536 C1543 0.950 . S
C1537 C1535 1.387 . S
C1537 C1539 1.390 . S
C1537 H1541 0.950 . S
H1538 C1534 0.950 . S
C1539 C1537 1.390 . S
C1539 C1540 1.387 . S
C1539 H1542 0.950 . S
C1540 C1539 1.387 . S
C1540 C1543 1.387 . S
H1541 C1537 0.950 . S
H1542 C1539 0.950 . S
C1543 C1534 1.390 . S
C1543 H1536 0.950 . S
C1543 C1540 1.387 . S
C1544 C1545 1.387 . S
C1544 H1548 0.950 . S
C1544 C1553 1.390 . S
C1545 C1544 1.387 . S
C1545 C1547 1.387 . S
H1546 C1553 0.950 . S
C1547 C1545 1.387 . S
C1547 C1549 1.390 . S
C1547 H1551 0.950 . S
H1548 C1544 0.950 . S
C1549 C1547 1.390 . S
C1549 C1550 1.387 . S
C1549 H1552 0.950 . S
C1550 C1549 1.387 . S
C1550 C1553 1.387 . S
H1551 C1547 0.950 . S
H1552 C1549 0.950 . S
C1553 C1544 1.390 . S
C1553 H1546 0.950 . S
C1553 C1550 1.387 . S
C1554 C1555 1.387 . S
C1554 H1558 0.950 . S
C1554 C1563 1.390 . S
C1555 C1554 1.387 . S
C1555 C1557 1.387 . S
H1556 C1563 0.950 . S
C1557 C1555 1.387 . S
C1557 C1559 1.390 . S
C1557 H1561 0.950 . S
H1558 C1554 0.950 . S
C1559 C1557 1.390 . S
C1559 C1560 1.387 . S
C1559 H1562 0.950 . S
C1560 C1559 1.387 . S
C1560 C1563 1.387 . S
H1561 C1557 0.950 . S
H1562 C1559 0.950 . S
C1563 C1554 1.390 . S
C1563 H1556 0.950 . S
C1563 C1560 1.387 . S
C1564 C1565 1.387 . S
C1564 H1568 0.950 . S
C1564 C1573 1.390 . S
C1565 C1564 1.387 . S
C1565 C1567 1.387 . S
H1566 C1573 0.950 . S
C1567 C1565 1.387 . S
C1567 C1569 1.390 . S
C1567 H1571 0.950 . S
H1568 C1564 0.950 . S
C1569 C1567 1.390 . S
C1569 C1570 1.387 . S
C1569 H1572 0.950 . S
C1570 C1569 1.387 . S
C1570 C1573 1.387 . S
H1571 C1567 0.950 . S
H1572 C1569 0.950 . S
C1573 C1564 1.390 . S
C1573 H1566 0.950 . S
C1573 C1570 1.387 . S
C1574 C1575 1.387 . S
C1574 H1578 0.950 . S
C1574 C1583 1.390 . S
C1575 C1574 1.387 . S
C1575 C1577 1.387 . S
H1576 C1583 0.950 . S
C1577 C1575 1.387 . S
C1577 C1579 1.390 . S
C1577 H1581 0.950 . S
H1578 C1574 0.950 . S
C1579 C1577 1.390 . S
C1579 C1580 1.387 . S
C1579 H1582 0.950 . S
C1580 C1579 1.387 . S
C1580 C1583 1.387 . S
H1581 C1577 0.950 . S
H1582 C1579 0.950 . S
C1583 C1574 1.390 . S
C1583 H1576 0.950 . S
C1583 C1580 1.387 . S
C1584 C1585 1.387 . S
C1584 H1588 0.950 . S
C1584 C1593 1.390 . S
C1585 C1584 1.387 . S
C1585 C1587 1.387 . S
H1586 C1593 0.950 . S
C1587 C1585 1.387 . S
C1587 C1589 1.390 . S
C1587 H1591 0.950 . S
H1588 C1584 0.950 . S
C1589 C1587 1.390 . S
C1589 C1590 1.387 . S
C1589 H1592 0.950 . S
C1590 C1589 1.387 . S
C1590 C1593 1.387 . S
H1591 C1587 0.950 . S
H1592 C1589 0.950 . S
C1593 C1584 1.390 . S
C1593 H1586 0.950 . S
C1593 C1590 1.387 . S
C1594 C1595 1.387 . S
C1594 H1598 0.950 . S
C1594 C1603 1.390 . S
C1595 C1594 1.387 . S
C1595 C1597 1.387 . S
H1596 C1603 0.950 . S
C1597 C1595 1.387 . S
C1597 C1599 1.390 . S
C1597 H1601 0.950 . S
H1598 C1594 0.950 . S
C1599 C1597 1.390 . S
C1599 C1600 1.387 . S
C1599 H1602 0.950 . S
C1600 C1599 1.387 . S
C1600 C1603 1.387 . S
H1601 C1597 0.950 . S
H1602 C1599 0.950 . S
C1603 C1594 1.390 . S
C1603 H1596 0.950 . S
C1603 C1600 1.387 . S
C1604 C1605 1.387 . S
C1604 H1608 0.950 . S
C1604 C1613 1.390 . S
C1605 C1604 1.387 . S
C1605 C1607 1.387 . S
H1606 C1613 0.950 . S
C1607 C1605 1.387 . S
C1607 C1609 1.390 . S
C1607 H1611 0.950 . S
H1608 C1604 0.950 . S
C1609 C1607 1.390 . S
C1609 C1610 1.387 . S
C1609 H1612 0.950 . S
C1610 C1609 1.387 . S
C1610 C1613 1.387 . S
H1611 C1607 0.950 . S
H1612 C1609 0.950 . S
C1613 C1604 1.390 . S
C1613 H1606 0.950 . S
C1613 C1610 1.387 . S
C1614 C1615 1.387 . S
C1614 H1618 0.950 . S
C1614 C1623 1.390 . S
C1615 C1614 1.387 . S
C1615 C1617 1.387 . S
H1616 C1623 0.950 . S
C1617 C1615 1.387 . S
C1617 C1619 1.390 . S
C1617 H1621 0.950 . S
H1618 C1614 0.950 . S
C1619 C1617 1.390 . S
C1619 C1620 1.387 . S
C1619 H1622 0.950 . S
C1620 C1619 1.387 . S
C1620 C1623 1.387 . S
H1621 C1617 0.950 . S
H1622 C1619 0.950 . S
C1623 C1614 1.390 . S
C1623 H1616 0.950 . S
C1623 C1620 1.387 . S
C1624 C1625 1.387 . S
C1624 H1628 0.950 . S
C1624 C1633 1.390 . S
C1625 C1624 1.387 . S
C1625 C1627 1.387 . S
H1626 C1633 0.950 . S
C1627 C1625 1.387 . S
C1627 C1629 1.390 . S
C1627 H1631 0.950 . S
H1628 C1624 0.950 . S
C1629 C1627 1.390 . S
C1629 C1630 1.387 . S
C1629 H1632 0.950 . S
C1630 C1629 1.387 . S
C1630 C1633 1.387 . S
H1631 C1627 0.950 . S
H1632 C1629 0.950 . S
C1633 C1624 1.390 . S
C1633 H1626 0.950 . S
C1633 C1630 1.387 . S
C1634 C1635 1.387 . S
C1634 H1638 0.950 . S
C1634 C1643 1.390 . S
C1635 C1634 1.387 . S
C1635 C1637 1.387 . S
H1636 C1643 0.950 . S
C1637 C1635 1.387 . S
C1637 C1639 1.390 . S
C1637 H1641 0.950 . S
H1638 C1634 0.950 . S
C1639 C1637 1.390 . S
C1639 C1640 1.387 . S
C1639 H1642 0.950 . S
C1640 C1639 1.387 . S
C1640 C1643 1.387 . S
H1641 C1637 0.950 . S
H1642 C1639 0.950 . S
C1643 C1634 1.390 . S
C1643 H1636 0.950 . S
C1643 C1640 1.387 . S
C1644 C1645 1.387 . S
C1644 H1648 0.950 . S
C1644 C1653 1.390 . S
C1645 C1644 1.387 . S
C1645 C1647 1.387 . S
H1646 C1653 0.950 . S
C1647 C1645 1.387 . S
C1647 C1649 1.390 . S
C1647 H1651 0.950 . S
H1648 C1644 0.950 . S
C1649 C1647 1.390 . S
C1649 C1650 1.387 . S
C1649 H1652 0.950 . S
C1650 C1649 1.387 . S
C1650 C1653 1.387 . S
H1651 C1647 0.950 . S
H1652 C1649 0.950 . S
C1653 C1644 1.390 . S
C1653 H1646 0.950 . S
C1653 C1650 1.387 . S
C1654 C1655 1.387 . S
C1654 H1658 0.950 . S
C1654 C1663 1.390 . S
C1655 C1654 1.387 . S
C1655 C1657 1.387 . S
H1656 C1663 0.950 . S
C1657 C1655 1.387 . S
C1657 C1659 1.390 . S
C1657 H1661 0.950 . S
H1658 C1654 0.950 . S
C1659 C1657 1.390 . S
C1659 C1660 1.387 . S
C1659 H1662 0.950 . S
C1660 C1659 1.387 . S
C1660 C1663 1.387 . S
H1661 C1657 0.950 . S
H1662 C1659 0.950 . S
C1663 C1654 1.390 . S
C1663 H1656 0.950 . S
C1663 C1660 1.387 . S
C1664 C1665 1.387 . S
C1664 H1668 0.950 . S
C1664 C1673 1.390 . S
C1665 C1664 1.387 . S
C1665 C1667 1.387 . S
H1666 C1673 0.950 . S
C1667 C1665 1.387 . S
C1667 C1669 1.390 . S
C1667 H1671 0.950 . S
H1668 C1664 0.950 . S
C1669 C1667 1.390 . S
C1669 C1670 1.387 . S
C1669 H1672 0.950 . S
C1670 C1669 1.387 . S
C1670 C1673 1.387 . S
H1671 C1667 0.950 . S
H1672 C1669 0.950 . S
C1673 C1664 1.390 . S
C1673 H1666 0.950 . S
C1673 C1670 1.387 . S
C1674 C1675 1.387 . S
C1674 H1678 0.950 . S
C1674 C1683 1.390 . S
C1675 C1674 1.387 . S
C1675 C1677 1.387 . S
H1676 C1683 0.950 . S
C1677 C1675 1.387 . S
C1677 C1679 1.390 . S
C1677 H1681 0.950 . S
H1678 C1674 0.950 . S
C1679 C1677 1.390 . S
C1679 C1680 1.387 . S
C1679 H1682 0.950 . S
C1680 C1679 1.387 . S
C1680 C1683 1.387 . S
H1681 C1677 0.950 . S
H1682 C1679 0.950 . S
C1683 C1674 1.390 . S
C1683 H1676 0.950 . S
C1683 C1680 1.387 . S
C1684 C1685 1.387 . S
C1684 H1688 0.950 . S
C1684 C1693 1.390 . S
C1685 C1684 1.387 . S
C1685 C1687 1.387 . S
H1686 C1693 0.950 . S
C1687 C1685 1.387 . S
C1687 C1689 1.390 . S
C1687 H1691 0.950 . S
H1688 C1684 0.950 . S
C1689 C1687 1.390 . S
C1689 C1690 1.387 . S
C1689 H1692 0.950 . S
C1690 C1689 1.387 . S
C1690 C1693 1.387 . S
H1691 C1687 0.950 . S
H1692 C1689 0.950 . S
C1693 C1684 1.390 . S
C1693 H1686 0.950 . S
C1693 C1690 1.387 . S
C1694 C1695 1.387 . S
C1694 H1698 0.950 . S
C1694 C1703 1.390 . S
C1695 C1694 1.387 . S
C1695 C1697 1.387 . S
H1696 C1703 0.950 . S
C1697 C1695 1.387 . S
C1697 C1699 1.390 . S
C1697 H1701 0.950 . S
H1698 C1694 0.950 . S
C1699 C1697 1.390 . S
C1699 C1700 1.387 . S
C1699 H1702 0.950 . S
C1700 C1699 1.387 . S
C1700 C1703 1.387 . S
H1701 C1697 0.950 . S
H1702 C1699 0.950 . S
C1703 C1694 1.390 . S
C1703 H1696 0.950 . S
C1703 C1700 1.387 . S
C1704 C1705 1.387 . S
C1704 H1708 0.950 . S
C1704 C1713 1.390 . S
C1705 C1704 1.387 . S
C1705 C1707 1.387 . S
H1706 C1713 0.950 . S
C1707 C1705 1.387 . S
C1707 C1709 1.390 . S
C1707 H1711 0.950 . S
H1708 C1704 0.950 . S
C1709 C1707 1.390 . S
C1709 C1710 1.387 . S
C1709 H1712 0.950 . S
C1710 C1709 1.387 . S
C1710 C1713 1.387 . S
H1711 C1707 0.950 . S
H1712 C1709 0.950 . S
C1713 C1704 1.390 . S
C1713 H1706 0.950 . S
C1713 C1710 1.387 . S
C1714 C1715 1.387 . S
C1714 H1718 0.950 . S
C1714 C1723 1.390 . S
C1715 C1714 1.387 . S
C1715 C1717 1.387 . S
H1716 C1723 0.950 . S
C1717 C1715 1.387 . S
C1717 C1719 1.390 . S
C1717 H1721 0.950 . S
H1718 C1714 0.950 . S
C1719 C1717 1.390 . S
C1719 C1720 1.387 . S
C1719 H1722 0.950 . S
C1720 C1719 1.387 . S
C1720 C1723 1.387 . S
H1721 C1717 0.950 . S
H1722 C1719 0.950 . S
C1723 C1714 1.390 . S
C1723 H1716 0.950 . S
C1723 C1720 1.387 . S
C1724 C1725 1.387 . S
C1724 H1728 0.950 . S
C1724 C1733 1.390 . S
C1725 C1724 1.387 . S
C1725 C1727 1.387 . S
H1726 C1733 0.950 . S
C1727 C1725 1.387 . S
C1727 C1729 1.390 . S
C1727 H1731 0.950 . S
H1728 C1724 0.950 . S
C1729 C1727 1.390 . S
C1729 C1730 1.387 . S
C1729 H1732 0.950 . S
C1730 C1729 1.387 . S
C1730 C1733 1.387 . S
H1731 C1727 0.950 . S
H1732 C1729 0.950 . S
C1733 C1724 1.390 . S
C1733 H1726 0.950 . S
C1733 C1730 1.387 . S
C1734 C1735 1.387 . S
C1734 H1738 0.950 . S
C1734 C1743 1.390 . S
C1735 C1734 1.387 . S
C1735 C1737 1.387 . S
H1736 C1743 0.950 . S
C1737 C1735 1.387 . S
C1737 C1739 1.390 . S
C1737 H1741 0.950 . S
H1738 C1734 0.950 . S
C1739 C1737 1.390 . S
C1739 C1740 1.387 . S
C1739 H1742 0.950 . S
C1740 C1739 1.387 . S
C1740 C1743 1.387 . S
H1741 C1737 0.950 . S
H1742 C1739 0.950 . S
C1743 C1734 1.390 . S
C1743 H1736 0.950 . S
C1743 C1740 1.387 . S
C1744 C1745 1.387 . S
C1744 H1748 0.950 . S
C1744 C1753 1.390 . S
C1745 C1744 1.387 . S
C1745 C1747 1.387 . S
H1746 C1753 0.950 . S
C1747 C1745 1.387 . S
C1747 C1749 1.390 . S
C1747 H1751 0.950 . S
H1748 C1744 0.950 . S
C1749 C1747 1.390 . S
C1749 C1750 1.387 . S
C1749 H1752 0.950 . S
C1750 C1749 1.387 . S
C1750 C1753 1.387 . S
H1751 C1747 0.950 . S
H1752 C1749 0.950 . S
C1753 C1744 1.390 . S
C1753 H1746 0.950 . S
C1753 C1750 1.387 . S
C1754 C1755 1.387 . S
C1754 H1758 0.950 . S
C1754 C1763 1.390 . S
C1755 C1754 1.387 . S
C1755 C1757 1.387 . S
H1756 C1763 0.950 . S
C1757 C1755 1.387 . S
C1757 C1759 1.390 . S
C1757 H1761 0.950 . S
H1758 C1754 0.950 . S
C1759 C1757 1.390 . S
C1759 C1760 1.387 . S
C1759 H1762 0.950 . S
C1760 C1759 1.387 . S
C1760 C1763 1.387 . S
H1761 C1757 0.950 . S
H1762 C1759 0.950 . S
C1763 C1754 1.390 . S
C1763 H1756 0.950 . S
C1763 C1760 1.387 . S
C1764 C1765 1.387 . S
C1764 H1768 0.950 . S
C1764 C1773 1.390 . S
C1765 C1764 1.387 . S
C1765 C1767 1.387 . S
H1766 C1773 0.950 . S
C1767 C1765 1.387 . S
C1767 C1769 1.390 . S
C1767 H1771 0.950 . S
H1768 C1764 0.950 . S
C1769 C1767 1.390 . S
C1769 C1770 1.387 . S
C1769 H1772 0.950 . S
C1770 C1769 1.387 . S
C1770 C1773 1.387 . S
H1771 C1767 0.950 . S
H1772 C1769 0.950 . S
C1773 C1764 1.390 . S
C1773 H1766 0.950 . S
C1773 C1770 1.387 . S
C1774 C1775 1.387 . S
C1774 H1778 0.950 . S
C1774 C1783 1.390 . S
C1775 C1774 1.387 . S
C1775 C1777 1.387 . S
H1776 C1783 0.950 . S
C1777 C1775 1.387 . S
C1777 C1779 1.390 . S
C1777 H1781 0.950 . S
H1778 C1774 0.950 . S
C1779 C1777 1.390 . S
C1779 C1780 1.387 . S
C1779 H1782 0.950 . S
C1780 C1779 1.387 . S
C1780 C1783 1.387 . S
H1781 C1777 0.950 . S
H1782 C1779 0.950 . S
C1783 C1774 1.390 . S
C1783 H1776 0.950 . S
C1783 C1780 1.387 . S
C1784 C1785 1.387 . S
C1784 H1788 0.950 . S
C1784 C1793 1.390 . S
C1785 C1784 1.387 . S
C1785 C1787 1.387 . S
H1786 C1793 0.950 . S
C1787 C1785 1.387 . S
C1787 C1789 1.390 . S
C1787 H1791 0.950 . S
H1788 C1784 0.950 . S
C1789 C1787 1.390 . S
C1789 C1790 1.387 . S
C1789 H1792 0.950 . S
C1790 C1789 1.387 . S
C1790 C1793 1.387 . S
H1791 C1787 0.950 . S
H1792 C1789 0.950 . S
C1793 C1784 1.390 . S
C1793 H1786 0.950 . S
C1793 C1790 1.387 . S
C1794 C1795 1.387 . S
C1794 H1798 0.950 . S
C1794 C1803 1.390 . S
C1795 C1794 1.387 . S
C1795 C1797 1.387 . S
H1796 C1803 0.950 . S
C1797 C1795 1.387 . S
C1797 C1799 1.390 . S
C1797 H1801 0.950 . S
H1798 C1794 0.950 . S
C1799 C1797 1.390 . S
C1799 C1800 1.387 . S
C1799 H1802 0.950 . S
C1800 C1799 1.387 . S
C1800 C1803 1.387 . S
H1801 C1797 0.950 . S
H1802 C1799 0.950 . S
C1803 C1794 1.390 . S
C1803 H1796 0.950 . S
C1803 C1800 1.387 . S
C1804 C1805 1.387 . S
C1804 H1808 0.950 . S
C1804 C1813 1.390 . S
C1805 C1804 1.387 . S
C1805 C1807 1.387 . S
H1806 C1813 0.950 . S
C1807 C1805 1.387 . S
C1807 C1809 1.390 . S
C1807 H1811 0.950 . S
H1808 C1804 0.950 . S
C1809 C1807 1.390 . S
C1809 C1810 1.387 . S
C1809 H1812 0.950 . S
C1810 C1809 1.387 . S
C1810 C1813 1.387 . S
H1811 C1807 0.950 . S
H1812 C1809 0.950 . S
C1813 C1804 1.390 . S
C1813 H1806 0.950 . S
C1813 C1810 1.387 . S
C1814 C1815 1.387 . S
C1814 H1818 0.950 . S
C1814 C1823 1.390 . S
C1815 C1814 1.387 . S
C1815 C1817 1.387 . S
H1816 C1823 0.950 . S
C1817 C1815 1.387 . S
C1817 C1819 1.390 . S
C1817 H1821 0.950 . S
H1818 C1814 0.950 . S
C1819 C1817 1.390 . S
C1819 C1820 1.387 . S
C1819 H1822 0.950 . S
C1820 C1819 1.387 . S
C1820 C1823 1.387 . S
H1821 C1817 0.950 . S
H1822 C1819 0.950 . S
C1823 C1814 1.390 . S
C1823 H1816 0.950 . S
C1823 C1820 1.387 . S
C1824 C1825 1.387 . S
C1824 H1828 0.950 . S
C1824 C1833 1.390 . S
C1825 C1824 1.387 . S
C1825 C1827 1.387 . S
H1826 C1833 0.950 . S
C1827 C1825 1.387 . S
C1827 C1829 1.390 . S
C1827 H1831 0.950 . S
H1828 C1824 0.950 . S
C1829 C1827 1.390 . S
C1829 C1830 1.387 . S
C1829 H1832 0.950 . S
C1830 C1829 1.387 . S
C1830 C1833 1.387 . S
H1831 C1827 0.950 . S
H1832 C1829 0.950 . S
C1833 C1824 1.390 . S
C1833 H1826 0.950 . S
C1833 C1830 1.387 . S
C1834 C1835 1.387 . S
C1834 H1838 0.950 . S
C1834 C1843 1.390 . S
C1835 C1834 1.387 . S
C1835 C1837 1.387 . S
H1836 C1843 0.950 . S
C1837 C1835 1.387 . S
C1837 C1839 1.390 . S
C1837 H1841 0.950 . S
H1838 C1834 0.950 . S
C1839 C1837 1.390 . S
C1839 C1840 1.387 . S
C1839 H1842 0.950 . S
C1840 C1839 1.387 . S
C1840 C1843 1.387 . S
H1841 C1837 0.950 . S
H1842 C1839 0.950 . S
C1843 C1834 1.390 . S
C1843 H1836 0.950 . S
C1843 C1840 1.387 . S
C1844 C1845 1.387 . S
C1844 H1848 0.950 . S
C1844 C1853 1.390 . S
C1845 C1844 1.387 . S
C1845 C1847 1.387 . S
H1846 C1853 0.950 . S
C1847 C1845 1.387 . S
C1847 C1849 1.390 . S
C1847 H1851 0.950 . S
H1848 C1844 0.950 . S
C1849 C1847 1.390 . S
C1849 C1850 1.387 . S
C1849 H1852 0.950 . S
C1850 C1849 1.387 . S
C1850 C1853 1.387 . S
H1851 C1847 0.950 . S
H1852 C1849 0.950 . S
C1853 C1844 1.390 . S
C1853 H1846 0.950 . S
C1853 C1850 1.387 . S
C1854 C1855 1.387 . S
C1854 H1858 0.950 . S
C1854 C1863 1.390 . S
C1855 C1854 1.387 . S
C1855 C1857 1.387 . S
H1856 C1863 0.950 . S
C1857 C1855 1.387 . S
C1857 C1859 1.390 . S
C1857 H1861 0.950 . S
H1858 C1854 0.950 . S
C1859 C1857 1.390 . S
C1859 C1860 1.387 . S
C1859 H1862 0.950 . S
C1860 C1859 1.387 . S
C1860 C1863 1.387 . S
H1861 C1857 0.950 . S
H1862 C1859 0.950 . S
C1863 C1854 1.390 . S
C1863 H1856 0.950 . S
C1863 C1860 1.387 . S
C1864 C1865 1.387 . S
C1864 H1868 0.950 . S
C1864 C1873 1.390 . S
C1865 C1864 1.387 . S
C1865 C1867 1.387 . S
H1866 C1873 0.950 . S
C1867 C1865 1.387 . S
C1867 C1869 1.390 . S
C1867 H1871 0.950 . S
H1868 C1864 0.950 . S
C1869 C1867 1.390 . S
C1869 C1870 1.387 . S
C1869 H1872 0.950 . S
C1870 C1869 1.387 . S
C1870 C1873 1.387 . S
H1871 C1867 0.950 . S
H1872 C1869 0.950 . S
C1873 C1864 1.390 . S
C1873 H1866 0.950 . S
C1873 C1870 1.387 . S
C1874 C1875 1.387 . S
C1874 H1878 0.950 . S
C1874 C1883 1.390 . S
C1875 C1874 1.387 . S
C1875 C1877 1.387 . S
H1876 C1883 0.950 . S
C1877 C1875 1.387 . S
C1877 C1879 1.390 . S
C1877 H1881 0.950 . S
H1878 C1874 0.950 . S
C1879 C1877 1.390 . S
C1879 C1880 1.387 . S
C1879 H1882 0.950 . S
C1880 C1879 1.387 . S
C1880 C1883 1.387 . S
H1881 C1877 0.950 . S
H1882 C1879 0.950 . S
C1883 C1874 1.390 . S
C1883 H1876 0.950 . S
C1883 C1880 1.387 . S
C1884 C1885 1.387 . S
C1884 H1888 0.950 . S
C1884 C1893 1.390 . S
C1885 C1884 1.387 . S
C1885 C1887 1.387 . S
H1886 C1893 0.950 . S
C1887 C1885 1.387 . S
C1887 C1889 1.390 . S
C1887 H1891 0.950 . S
H1888 C1884 0.950 . S
C1889 C1887 1.390 . S
C1889 C1890 1.387 . S
C1889 H1892 0.950 . S
C1890 C1889 1.387 . S
C1890 C1893 1.387 . S
H1891 C1887 0.950 . S
H1892 C1889 0.950 . S
C1893 C1884 1.390 . S
C1893 H1886 0.950 . S
C1893 C1890 1.387 . S
C1894 C1895 1.387 . S
C1894 H1898 0.950 . S
C1894 C1903 1.390 . S
C1895 C1894 1.387 . S
C1895 C1897 1.387 . S
H1896 C1903 0.950 . S
C1897 C1895 1.387 . S
C1897 C1899 1.390 . S
C1897 H1901 0.950 . S
H1898 C1894 0.950 . S
C1899 C1897 1.390 . S
C1899 C1900 1.387 . S
C1899 H1902 0.950 . S
C1900 C1899 1.387 . S
C1900 C1903 1.387 . S
H1901 C1897 0.950 . S
H1902 C1899 0.950 . S
C1903 C1894 1.390 . S
C1903 H1896 0.950 . S
C1903 C1900 1.387 . S
C1904 C1905 1.387 . S
C1904 H1908 0.950 . S
C1904 C1913 1.390 . S
C1905 C1904 1.387 . S
C1905 C1907 1.387 . S
H1906 C1913 0.950 . S
C1907 C1905 1.387 . S
C1907 C1909 1.390 . S
C1907 H1911 0.950 . S
H1908 C1904 0.950 . S
C1909 C1907 1.390 . S
C1909 C1910 1.387 . S
C1909 H1912 0.950 . S
C1910 C1909 1.387 . S
C1910 C1913 1.387 . S
H1911 C1907 0.950 . S
H1912 C1909 0.950 . S
C1913 C1904 1.390 . S
C1913 H1906 0.950 . S
C1913 C1910 1.387 . S
C1914 C1915 1.387 . S
C1914 H1918 0.950 . S
C1914 C1923 1.390 . S
C1915 C1914 1.387 . S
C1915 C1917 1.387 . S
H1916 C1923 0.950 . S
C1917 C1915 1.387 . S
C1917 C1919 1.390 . S
C1917 H1921 0.950 . S
H1918 C1914 0.950 . S
C1919 C1917 1.390 . S
C1919 C1920 1.387 . S
C1919 H1922 0.950 . S
C1920 C1919 1.387 . S
C1920 C1923 1.387 . S
H1921 C1917 0.950 . S
H1922 C1919 0.950 . S
C1923 C1914 1.390 . S
C1923 H1916 0.950 . S
C1923 C1920 1.387 . S
C1924 C1925 1.387 . S
C1924 H1928 0.950 . S
C1924 C1933 1.390 . S
C1925 C1924 1.387 . S
C1925 C1927 1.387 . S
H1926 C1933 0.950 . S
C1927 C1925 1.387 . S
C1927 C1929 1.390 . S
C1927 H1931 0.950 . S
H1928 C1924 0.950 . S
C1929 C1927 1.390 . S
C1929 C1930 1.387 . S
C1929 H1932 0.950 . S
C1930 C1929 1.387 . S
C1930 C1933 1.387 . S
H1931 C1927 0.950 . S
H1932 C1929 0.950 . S
C1933 C1924 1.390 . S
C1933 H1926 0.950 . S
C1933 C1930 1.387 . S
C1934 C1935 1.387 . S
C1934 H1938 0.950 . S
C1934 C1943 1.390 . S
C1935 C1934 1.387 . S
C1935 C1937 1.387 . S
H1936 C1943 0.950 . S
C1937 C1935 1.387 . S
C1937 C1939 1.390 . S
C1937 H1941 0.950 . S
H1938 C1934 0.950 . S
C1939 C1937 1.390 . S
C1939 C1940 1.387 . S
C1939 H1942 0.950 . S
C1940 C1939 1.387 . S
C1940 C1943 1.387 . S
H1941 C1937 0.950 . S
H1942 C1939 0.950 . S
C1943 C1934 1.390 . S
C1943 H1936 0.950 . S
C1943 C1940 1.387 . S
C1944 C1945 1.387 . S
C1944 H1948 0.950 . S
C1944 C1953 1.390 . S
C1945 C1944 1.387 . S
C1945 C1947 1.387 . S
H1946 C1953 0.950 . S
C1947 C1945 1.387 . S
C1947 C1949 1.390 . S
C1947 H1951 0.950 . S
H1948 C1944 0.950 . S
C1949 C1947 1.390 . S
C1949 C1950 1.387 . S
C1949 H1952 0.950 . S
C1950 C1949 1.387 . S
C1950 C1953 1.387 . S
H1951 C1947 0.950 . S
H1952 C1949 0.950 . S
C1953 C1944 1.390 . S
C1953 H1946 0.950 . S
C1953 C1950 1.387 . S
C1954 C1955 1.387 . S
C1954 H1958 0.950 . S
C1954 C1963 1.390 . S
C1955 C1954 1.387 . S
C1955 C1957 1.387 . S
H1956 C1963 0.950 . S
C1957 C1955 1.387 . S
C1957 C1959 1.390 . S
C1957 H1961 0.950 . S
H1958 C1954 0.950 . S
C1959 C1957 1.390 . S
C1959 C1960 1.387 . S
C1959 H1962 0.950 . S
C1960 C1959 1.387 . S
C1960 C1963 1.387 . S
H1961 C1957 0.950 . S
H1962 C1959 0.950 . S
C1963 C1954 1.390 . S
C1963 H1956 0.950 . S
C1963 C1960 1.387 . S
C1964 C1965 1.387 . S
C1964 H1968 0.950 . S
C1964 C1973 1.390 . S
C1965 C1964 1.387 . S
C1965 C1967 1.387 . S
H1966 C1973 0.950 . S
C1967 C1965 1.387 . S
C1967 C1969 1.390 . S
C1967 H1971 0.950 . S
H1968 C1964 0.950 . S
C1969 C1967 1.390 . S
C1969 C1970 1.387 . S
C1969 H1972 0.950 . S
C1970 C1969 1.387 . S
C1970 C1973 1.387 . S
H1971 C1967 0.950 . S
H1972 C1969 0.950 . S
C1973 C1964 1.390 . S
C1973 H1966 0.950 . S
C1973 C1970 1.387 . S
C1974 C1975 1.387 . S
C1974 H1978 0.950 . S
C1974 C1983 1.390 . S
C1975 C1974 1.387 . S
C1975 C1977 1.387 . S
H1976 C1983 0.950 . S
C1977 C1975 1.387 . S
C1977 C1979 1.390 . S
C1977 H1981 0.950 . S
H1978 C1974 0.950 . S
C1979 C1977 1.390 . S
C1979 C1980 1.387 . S
C1979 H1982 0.950 . S
C1980 C1979 1.387 . S
C1980 C1983 1.387 . S
H1981 C1977 0.950 . S
H1982 C1979 0.950 . S
C1983 C1974 1.390 . S
C1983 H1976 0.950 . S
C1983 C1980 1.387 . S
C1984 C1985 1.387 . S
C1984 H1988 0.950 . S
C1984 C1993 1.390 . S
C1985 C1984 1.387 . S
C1985 C1987 1.387 . S
H1986 C1993 0.950 . S
C1987 C1985 1.387 . S
C1987 C1989 1.390 . S
C1987 H1991 0.950 . S
H1988 C1984 0.950 . S
C1989 C1987 1.390 . S
C1989 C1990 1.387 . S
C1989 H1992 0.950 . S
C1990 C1989 1.387 . S
C1990 C1993 1.387 . S
H1991 C1987 0.950 . S
H1992 C1989 0.950 . S
C1993 C1984 1.390 . S
C1993 H1986 0.950 . S
C1993 C1990 1.387 . S
C1994 C1995 1.387 . S
C1994 H1998 0.950 . S
C1994 C2003 1.390 . S
C1995 C1994 1.387 . S
C1995 C1997 1.387 . S
H1996 C2003 0.950 . S
C1997 C1995 1.387 . S
C1997 C1999 1.390 . S
C1997 H2001 0.950 . S
H1998 C1994 0.950 . S
C1999 C1997 1.390 . S
C1999 C2000 1.387 . S
C1999 H2002 0.950 . S
C2000 C1999 1.387 . S
C2000 C2003 1.387 . S
H2001 C1997 0.950 . S
H2002 C1999 0.950 . S
C2003 C1994 1.390 . S
C2003 H1996 0.950 . S
C2003 C2000 1.387 . S
C2004 C2005 1.387 . S
C2004 H2008 0.950 . S
C2004 C2013 1.390 . S
C2005 C2004 1.387 . S
C2005 C2007 1.387 . S
H2006 C2013 0.950 . S
C2007 C2005 1.387 . S
C2007 C2009 1.390 . S
C2007 H2011 0.950 . S
H2008 C2004 0.950 . S
C2009 C2007 1.390 . S
C2009 C2010 1.387 . S
C2009 H2012 0.950 . S
C2010 C2009 1.387 . S
C2010 C2013 1.387 . S
H2011 C2007 0.950 . S
H2012 C2009 0.950 . S
C2013 C2004 1.390 . S
C2013 H2006 0.950 . S
C2013 C2010 1.387 . S
C2014 C2015 1.387 . S
C2014 H2018 0.950 . S
C2014 C2023 1.390 . S
C2015 C2014 1.387 . S
C2015 C2017 1.387 . S
H2016 C2023 0.950 . S
C2017 C2015 1.387 . S
C2017 C2019 1.390 . S
C2017 H2021 0.950 . S
H2018 C2014 0.950 . S
C2019 C2017 1.390 . S
C2019 C2020 1.387 . S
C2019 H2022 0.950 . S
C2020 C2019 1.387 . S
C2020 C2023 1.387 . S
H2021 C2017 0.950 . S
H2022 C2019 0.950 . S
C2023 C2014 1.390 . S
C2023 H2016 0.950 . S
C2023 C2020 1.387 . S
C2024 C2025 1.387 . S
C2024 H2028 0.950 . S
C2024 C2033 1.390 . S
C2025 C2024 1.387 . S
C2025 C2027 1.387 . S
H2026 C2033 0.950 . S
C2027 C2025 1.387 . S
C2027 C2029 1.390 . S
C2027 H2031 0.950 . S
H2028 C2024 0.950 . S
C2029 C2027 1.390 . S
C2029 C2030 1.387 . S
C2029 H2032 0.950 . S
C2030 C2029 1.387 . S
C2030 C2033 1.387 . S
H2031 C2027 0.950 . S
H2032 C2029 0.950 . S
C2033 C2024 1.390 . S
C2033 H2026 0.950 . S
C2033 C2030 1.387 . S
C2034 C2035 1.387 . S
C2034 H2038 0.950 . S
C2034 C2043 1.390 . S
C2035 C2034 1.387 . S
C2035 C2037 1.387 . S
H2036 C2043 0.950 . S
C2037 C2035 1.387 . S
C2037 C2039 1.390 . S
C2037 H2041 0.950 . S
H2038 C2034 0.950 . S
C2039 C2037 1.390 . S
C2039 C2040 1.387 . S
C2039 H2042 0.950 . S
C2040 C2039 1.387 . S
C2040 C2043 1.387 . S
H2041 C2037 0.950 . S
H2042 C2039 0.950 . S
C2043 C2034 1.390 . S
C2043 H2036 0.950 . S
C2043 C2040 1.387 . S
C2044 C2045 1.387 . S
C2044 H2048 0.950 . S
C2044 C2053 1.390 . S
C2045 C2044 1.387 . S
C2045 C2047 1.387 . S
H2046 C2053 0.950 . S
C2047 C2045 1.387 . S
C2047 C2049 1.390 . S
C2047 H2051 0.950 . S
H2048 C2044 0.950 . S
C2049 C2047 1.390 . S
C2049 C2050 1.387 . S
C2049 H2052 0.950 . S
C2050 C2049 1.387 . S
C2050 C2053 1.387 . S
H2051 C2047 0.950 . S
H2052 C2049 0.950 . S
C2053 C2044 1.390 . S
C2053 H2046 0.950 . S
C2053 C2050 1.387 . S
C2054 C2055 1.387 . S
C2054 H2058 0.950 . S
C2054 C2063 1.390 . S
C2055 C2054 1.387 . S
C2055 C2057 1.387 . S
H2056 C2063 0.950 . S
C2057 C2055 1.387 . S
C2057 C2059 1.390 . S
C2057 H2061 0.950 . S
H2058 C2054 0.950 . S
C2059 C2057 1.390 . S
C2059 C2060 1.387 . S
C2059 H2062 0.950 . S
C2060 C2059 1.387 . S
C2060 C2063 1.387 . S
H2061 C2057 0.950 . S
H2062 C2059 0.950 . S
C2063 C2054 1.390 . S
C2063 H2056 0.950 . S
C2063 C2060 1.387 . S
C2064 C2065 1.387 . S
C2064 H2068 0.950 . S
C2064 C2073 1.390 . S
C2065 C2064 1.387 . S
C2065 C2067 1.387 . S
H2066 C2073 0.950 . S
C2067 C2065 1.387 . S
C2067 C2069 1.390 . S
C2067 H2071 0.950 . S
H2068 C2064 0.950 . S
C2069 C2067 1.390 . S
C2069 C2070 1.387 . S
C2069 H2072 0.950 . S
C2070 C2069 1.387 . S
C2070 C2073 1.387 . S
H2071 C2067 0.950 . S
H2072 C2069 0.950 . S
C2073 C2064 1.390 . S
C2073 H2066 0.950 . S
C2073 C2070 1.387 . S
C2074 C2075 1.387 . S
C2074 H2078 0.950 . S
C2074 C2083 1.390 . S
C2075 C2074 1.387 . S
C2075 C2077 1.387 . S
H2076 C2083 0.950 . S
C2077 C2075 1.387 . S
C2077 C2079 1.390 . S
C2077 H2081 0.950 . S
H2078 C2074 0.950 . S
C2079 C2077 1.390 . S
C2079 C2080 1.387 . S
C2079 H2082 0.950 . S
C2080 C2079 1.387 . S
C2080 C2083 1.387 . S
H2081 C2077 0.950 . S
H2082 C2079 0.950 . S
C2083 C2074 1.390 . S
C2083 H2076 0.950 . S
C2083 C2080 1.387 . S
C2084 C2085 1.387 . S
C2084 H2088 0.950 . S
C2084 C2093 1.390 . S
C2085 C2084 1.387 . S
C2085 C2087 1.387 . S
H2086 C2093 0.950 . S
C2087 C2085 1.387 . S
C2087 C2089 1.390 . S
C2087 H2091 0.950 . S
H2088 C2084 0.950 . S
C2089 C2087 1.390 . S
C2089 C2090 1.387 . S
C2089 H2092 0.950 . S
C2090 C2089 1.387 . S
C2090 C2093 1.387 . S
H2091 C2087 0.950 . S
H2092 C2089 0.950 . S
C2093 C2084 1.390 . S
C2093 H2086 0.950 . S
C2093 C2090 1.387 . S
C2094 C2095 1.387 . S
C2094 H2098 0.950 . S
C2094 C2103 1.390 . S
C2095 C2094 1.387 . S
C2095 C2097 1.387 . S
H2096 C2103 0.950 . S
C2097 C2095 1.387 . S
C2097 C2099 1.390 . S
C2097 H2101 0.950 . S
H2098 C2094 0.950 . S
C2099 C2097 1.390 . S
C2099 C2100 1.387 . S
C2099 H2102 0.950 . S
C2100 C2099 1.387 . S
C2100 C2103 1.387 . S
H2101 C2097 0.950 . S
H2102 C2099 0.950 . S
C2103 C2094 1.390 . S
C2103 H2096 0.950 . S
C2103 C2100 1.387 . S
C2104 C2105 1.387 . S
C2104 H2108 0.950 . S
C2104 C2113 1.390 . S
C2105 C2104 1.387 . S
C2105 C2107 1.387 . S
H2106 C2113 0.950 . S
C2107 C2105 1.387 . S
C2107 C2109 1.390 . S
C2107 H2111 0.950 . S
H2108 C2104 0.950 . S
C2109 C2107 1.390 . S
C2109 C2110 1.387 . S
C2109 H2112 0.950 . S
C2110 C2109 1.387 . S
C2110 C2113 1.387 . S
H2111 C2107 0.950 . S
H2112 C2109 0.950 . S
C2113 C2104 1.390 . S
C2113 H2106 0.950 . S
C2113 C2110 1.387 . S
C2114 C2115 1.387 . S
C2114 H2118 0.950 . S
C2114 C2123 1.390 . S
C2115 C2114 1.387 . S
C2115 C2117 1.387 . S
H2116 C2123 0.950 . S
C2117 C2115 1.387 . S
C2117 C2119 1.390 . S
C2117 H2121 0.950 . S
H2118 C2114 0.950 . S
C2119 C2117 1.390 . S
C2119 C2120 1.387 . S
C2119 H2122 0.950 . S
C2120 C2119 1.387 . S
C2120 C2123 1.387 . S
H2121 C2117 0.950 . S
H2122 C2119 0.950 . S
C2123 C2114 1.390 . S
C2123 H2116 0.950 . S
C2123 C2120 1.387 . S
C2124 C2125 1.387 . S
C2124 H2128 0.950 . S
C2124 C2133 1.390 . S
C2125 C2124 1.387 . S
C2125 C2127 1.387 . S
H2126 C2133 0.950 . S
C2127 C2125 1.387 . S
C2127 C2129 1.390 . S
C2127 H2131 0.950 . S
H2128 C2124 0.950 . S
C2129 C2127 1.390 . S
C2129 C2130 1.387 . S
C2129 H2132 0.950 . S
C2130 C2129 1.387 . S
C2130 C2133 1.387 . S
H2131 C2127 0.950 . S
H2132 C2129 0.950 . S
C2133 C2124 1.390 . S
C2133 H2126 0.950 . S
C2133 C2130 1.387 . S
C2134 C2135 1.387 . S
C2134 H2138 0.950 . S
C2134 C2143 1.390 . S
C2135 C2134 1.387 . S
C2135 C2137 1.387 . S
H2136 C2143 0.950 . S
C2137 C2135 1.387 . S
C2137 C2139 1.390 . S
C2137 H2141 0.950 . S
H2138 C2134 0.950 . S
C2139 C2137 1.390 . S
C2139 C2140 1.387 . S
C2139 H2142 0.950 . S
C2140 C2139 1.387 . S
C2140 C2143 1.387 . S
H2141 C2137 0.950 . S
H2142 C2139 0.950 . S
C2143 C2134 1.390 . S
C2143 H2136 0.950 . S
C2143 C2140 1.387 . S
C2144 C2145 1.387 . S
C2144 H2148 0.950 . S
C2144 C2153 1.390 . S
C2145 C2144 1.387 . S
C2145 C2147 1.387 . S
H2146 C2153 0.950 . S
C2147 C2145 1.387 . S
C2147 C2149 1.390 . S
C2147 H2151 0.950 . S
H2148 C2144 0.950 . S
C2149 C2147 1.390 . S
C2149 C2150 1.387 . S
C2149 H2152 0.950 . S
C2150 C2149 1.387 . S
C2150 C2153 1.387 . S
H2151 C2147 0.950 . S
H2152 C2149 0.950 . S
C2153 C2144 1.390 . S
C2153 H2146 0.950 . S
C2153 C2150 1.387 . S
C2154 C2155 1.387 . S
C2154 H2158 0.950 . S
C2154 C2163 1.390 . S
C2155 C2154 1.387 . S
C2155 C2157 1.387 . S
H2156 C2163 0.950 . S
C2157 C2155 1.387 . S
C2157 C2159 1.390 . S
C2157 H2161 0.950 . S
H2158 C2154 0.950 . S
C2159 C2157 1.390 . S
C2159 C2160 1.387 . S
C2159 H2162 0.950 . S
C2160 C2159 1.387 . S
C2160 C2163 1.387 . S
H2161 C2157 0.950 . S
H2162 C2159 0.950 . S
C2163 C2154 1.390 . S
C2163 H2156 0.950 . S
C2163 C2160 1.387 . S
C2164 C2165 1.387 . S
C2164 H2168 0.950 . S
C2164 C2173 1.390 . S
C2165 C2164 1.387 . S
C2165 C2167 1.387 . S
H2166 C2173 0.950 . S
C2167 C2165 1.387 . S
C2167 C2169 1.390 . S
C2167 H2171 0.950 . S
H2168 C2164 0.950 . S
C2169 C2167 1.390 . S
C2169 C2170 1.387 . S
C2169 H2172 0.950 . S
C2170 C2169 1.387 . S
C2170 C2173 1.387 . S
H2171 C2167 0.950 . S
H2172 C2169 0.950 . S
C2173 C2164 1.390 . S
C2173 H2166 0.950 . S
C2173 C2170 1.387 . S
C2174 C2175 1.387 . S
C2174 H2178 0.950 . S
C2174 C2183 1.390 . S
C2175 C2174 1.387 . S
C2175 C2177 1.387 . S
H2176 C2183 0.950 . S
C2177 C2175 1.387 . S
C2177 C2179 1.390 . S
C2177 H2181 0.950 . S
H2178 C2174 0.950 . S
C2179 C2177 1.390 . S
C2179 C2180 1.387 . S
C2179 H2182 0.950 . S
C2180 C2179 1.387 . S
C2180 C2183 1.387 . S
H2181 C2177 0.950 . S
H2182 C2179 0.950 . S
C2183 C2174 1.390 . S
C2183 H2176 0.950 . S
C2183 C2180 1.387 . S
C2184 C2185 1.387 . S
C2184 H2188 0.950 . S
C2184 C2193 1.390 . S
C2185 C2184 1.387 . S
C2185 C2187 1.387 . S
H2186 C2193 0.950 . S
C2187 C2185 1.387 . S
C2187 C2189 1.390 . S
C2187 H2191 0.950 . S
H2188 C2184 0.950 . S
C2189 C2187 1.390 . S
C2189 C2190 1.387 . S
C2189 H2192 0.950 . S
C2190 C2189 1.387 . S
C2190 C2193 1.387 . S
H2191 C2187 0.950 . S
H2192 C2189 0.950 . S
C2193 C2184 1.390 . S
C2193 H2186 0.950 . S
C2193 C2190 1.387 . S
C2194 C2195 1.387 . S
C2194 H2198 0.950 . S
C2194 C2203 1.390 . S
C2195 C2194 1.387 . S
C2195 C2197 1.387 . S
H2196 C2203 0.950 . S
C2197 C2195 1.387 . S
C2197 C2199 1.390 . S
C2197 H2201 0.950 . S
H2198 C2194 0.950 . S
C2199 C2197 1.390 . S
C2199 C2200 1.387 . S
C2199 H2202 0.950 . S
C2200 C2199 1.387 . S
C2200 C2203 1.387 . S
H2201 C2197 0.950 . S
H2202 C2199 0.950 . S
C2203 C2194 1.390 . S
C2203 H2196 0.950 . S
C2203 C2200 1.387 . S
C2204 C2205 1.387 . S
C2204 H2208 0.950 . S
C2204 C2213 1.390 . S
C2205 C2204 1.387 . S
C2205 C2207 1.387 . S
H2206 C2213 0.950 . S
C2207 C2205 1.387 . S
C2207 C2209 1.390 . S
C2207 H2211 0.950 . S
H2208 C2204 0.950 . S
C2209 C2207 1.390 . S
C2209 C2210 1.387 . S
C2209 H2212 0.950 . S
C2210 C2209 1.387 . S
C2210 C2213 1.387 . S
H2211 C2207 0.950 . S
H2212 C2209 0.950 . S
C2213 C2204 1.390 . S
C2213 H2206 0.950 . S
C2213 C2210 1.387 . S
C2214 C2215 1.387 . S
C2214 H2218 0.950 . S
C2214 C2223 1.390 . S
C2215 C2214 1.387 . S
C2215 C2217 1.387 . S
H2216 C2223 0.950 . S
C2217 C2215 1.387 . S
C2217 C2219 1.390 . S
C2217 H2221 0.950 . S
H2218 C2214 0.950 . S
C2219 C2217 1.390 . S
C2219 C2220 1.387 . S
C2219 H2222 0.950 . S
C2220 C2219 1.387 . S
C2220 C2223 1.387 . S
H2221 C2217 0.950 . S
H2222 C2219 0.950 . S
C2223 C2214 1.390 . S
C2223 H2216 0.950 . S
C2223 C2220 1.387 . S
C2224 C2225 1.387 . S
C2224 H2228 0.950 . S
C2224 C2233 1.390 . S
C2225 C2224 1.387 . S
C2225 C2227 1.387 . S
H2226 C2233 0.950 . S
C2227 C2225 1.387 . S
C2227 C2229 1.390 . S
C2227 H2231 0.950 . S
H2228 C2224 0.950 . S
C2229 C2227 1.390 . S
C2229 C2230 1.387 . S
C2229 H2232 0.950 . S
C2230 C2229 1.387 . S
C2230 C2233 1.387 . S
H2231 C2227 0.950 . S
H2232 C2229 0.950 . S
C2233 C2224 1.390 . S
C2233 H2226 0.950 . S
C2233 C2230 1.387 . S
C2234 C2235 1.387 . S
C2234 H2238 0.950 . S
C2234 C2243 1.390 . S
C2235 C2234 1.387 . S
C2235 C2237 1.387 . S
H2236 C2243 0.950 . S
C2237 C2235 1.387 . S
C2237 C2239 1.390 . S
C2237 H2241 0.950 . S
H2238 C2234 0.950 . S
C2239 C2237 1.390 . S
C2239 C2240 1.387 . S
C2239 H2242 0.950 . S
C2240 C2239 1.387 . S
C2240 C2243 1.387 . S
H2241 C2237 0.950 . S
H2242 C2239 0.950 . S
C2243 C2234 1.390 . S
C2243 H2236 0.950 . S
C2243 C2240 1.387 . S
C2244 C2245 1.387 . S
C2244 H2248 0.950 . S
C2244 C2253 1.390 . S
C2245 C2244 1.387 . S
C2245 C2247 1.387 . S
H2246 C2253 0.950 . S
C2247 C2245 1.387 . S
C2247 C2249 1.390 . S
C2247 H2251 0.950 . S
H2248 C2244 0.950 . S
C2249 C2247 1.390 . S
C2249 C2250 1.387 . S
C2249 H2252 0.950 . S
C2250 C2249 1.387 . S
C2250 C2253 1.387 . S
H2251 C2247 0.950 . S
H2252 C2249 0.950 . S
C2253 C2244 1.390 . S
C2253 H2246 0.950 . S
C2253 C2250 1.387 . S
C2254 C2255 1.387 . S
C2254 H2258 0.950 . S
C2254 C2263 1.390 . S
C2255 C2254 1.387 . S
C2255 C2257 1.387 . S
H2256 C2263 0.950 . S
C2257 C2255 1.387 . S
C2257 C2259 1.390 . S
C2257 H2261 0.950 . S
H2258 C2254 0.950 . S
C2259 C2257 1.390 . S
C2259 C2260 1.387 . S
C2259 H2262 0.950 . S
C2260 C2259 1.387 . S
C2260 C2263 1.387 . S
H2261 C2257 0.950 . S
H2262 C2259 0.950 . S
C2263 C2254 1.390 . S
C2263 H2256 0.950 . S
C2263 C2260 1.387 . S
C2264 C2265 1.387 . S
C2264 H2268 0.950 . S
C2264 C2273 1.390 . S
C2265 C2264 1.387 . S
C2265 C2267 1.387 . S
H2266 C2273 0.950 . S
C2267 C2265 1.387 . S
C2267 C2269 1.390 . S
C2267 H2271 0.950 . S
H2268 C2264 0.950 . S
C2269 C2267 1.390 . S
C2269 C2270 1.387 . S
C2269 H2272 0.950 . S
C2270 C2269 1.387 . S
C2270 C2273 1.387 . S
H2271 C2267 0.950 . S
H2272 C2269 0.950 . S
C2273 C2264 1.390 . S
C2273 H2266 0.950 . S
C2273 C2270 1.387 . S
C2274 C2275 1.387 . S
C2274 H2278 0.950 . S
C2274 C2283 1.390 . S
C2275 C2274 1.387 . S
C2275 C2277 1.387 . S
H2276 C2283 0.950 . S
C2277 C2275 1.387 . S
C2277 C2279 1.390 . S
C2277 H2281 0.950 . S
H2278 C2274 0.950 . S
C2279 C2277 1.390 . S
C2279 C2280 1.387 . S
C2279 H2282 0.950 . S
C2280 C2279 1.387 . S
C2280 C2283 1.387 . S
H2281 C2277 0.950 . S
H2282 C2279 0.950 . S
C2283 C2274 1.390 . S
C2283 H2276 0.950 . S
C2283 C2280 1.387 . S
C2284 C2285 1.387 . S
C2284 H2288 0.950 . S
C2284 C2293 1.390 . S
C2285 C2284 1.387 . S
C2285 C2287 1.387 . S
H2286 C2293 0.950 . S
C2287 C2285 1.387 . S
C2287 C2289 1.390 . S
C2287 H2291 0.950 . S
H2288 C2284 0.950 . S
C2289 C2287 1.390 . S
C2289 C2290 1.387 . S
C2289 H2292 0.950 . S
C2290 C2289 1.387 . S
C2290 C2293 1.387 . S
H2291 C2287 0.950 . S
H2292 C2289 0.950 . S
C2293 C2284 1.390 . S
C2293 H2286 0.950 . S
C2293 C2290 1.387 . S
C2294 C2295 1.387 . S
C2294 H2298 0.950 . S
C2294 C2303 1.390 . S
C2295 C2294 1.387 . S
C2295 C2297 1.387 . S
H2296 C2303 0.950 . S
C2297 C2295 1.387 . S
C2297 C2299 1.390 . S
C2297 H2301 0.950 . S
H2298 C2294 0.950 . S
C2299 C2297 1.390 . S
C2299 C2300 1.387 . S
C2299 H2302 0.950 . S
C2300 C2299 1.387 . S
C2300 C2303 1.387 . S
H2301 C2297 0.950 . S
H2302 C2299 0.950 . S
C2303 C2294 1.390 . S
C2303 H2296 0.950 . S
C2303 C2300 1.387 . S
C2304 C2305 1.387 . S
C2304 H2308 0.950 . S
C2304 C2313 1.390 . S
C2305 C2304 1.387 . S
C2305 C2307 1.387 . S
H2306 C2313 0.950 . S
C2307 C2305 1.387 . S
C2307 C2309 1.390 . S
C2307 H2311 0.950 . S
H2308 C2304 0.950 . S
C2309 C2307 1.390 . S
C2309 C2310 1.387 . S
C2309 H2312 0.950 . S
C2310 C2309 1.387 . S
C2310 C2313 1.387 . S
H2311 C2307 0.950 . S
H2312 C2309 0.950 . S
C2313 C2304 1.390 . S
C2313 H2306 0.950 . S
C2313 C2310 1.387 . S
C2314 C2315 1.387 . S
C2314 H2318 0.950 . S
C2314 C2323 1.390 . S
C2315 C2314 1.387 . S
C2315 C2317 1.387 . S
H2316 C2323 0.950 . S
C2317 C2315 1.387 . S
C2317 C2319 1.390 . S
C2317 H2321 0.950 . S
H2318 C2314 0.950 . S
C2319 C2317 1.390 . S
C2319 C2320 1.387 . S
C2319 H2322 0.950 . S
C2320 C2319 1.387 . S
C2320 C2323 1.387 . S
H2321 C2317 0.950 . S
H2322 C2319 0.950 . S
C2323 C2314 1.390 . S
C2323 H2316 0.950 . S
C2323 C2320 1.387 . S
C2324 C2325 1.387 . S
C2324 H2328 0.990 . S
C2324 C2333 1.390 . S
C2325 C2324 1.387 . S
C2325 C2327 1.387 . S
H2326 C2333 0.950 . S
C2327 C2325 1.387 . S
C2327 C2329 1.390 . S
C2327 H2331 0.950 . S
H2328 C2324 0.990 . S
C2329 C2327 1.390 . S
C2329 C2330 1.387 . S
C2329 H2332 0.950 . S
C2330 C2329 1.387 . S
C2330 C2333 1.387 . S
H2331 C2327 0.950 . S
H2332 C2329 0.950 . S
C2333 C2324 1.390 . S
C2333 H2326 0.950 . S
C2333 C2330 1.387 . S
C2334 C2335 1.387 . S
C2334 H2338 0.950 . S
C2334 C2343 1.390 . S
C2335 C2334 1.387 . S
C2335 C2337 1.387 . S
H2336 C2343 0.950 . S
C2337 C2335 1.387 . S
C2337 C2339 1.390 . S
C2337 H2341 0.950 . S
H2338 C2334 0.950 . S
C2339 C2337 1.390 . S
C2339 C2340 1.387 . S
C2339 H2342 0.950 . S
C2340 C2339 1.387 . S
C2340 C2343 1.387 . S
H2341 C2337 0.950 . S
H2342 C2339 0.950 . S
C2343 C2334 1.390 . S
C2343 H2336 0.950 . S
C2343 C2340 1.387 . S
C2344 C2345 1.387 . S
C2344 H2348 0.950 . S
C2344 C2353 1.390 . S
C2345 C2344 1.387 . S
C2345 C2347 1.387 . S
H2346 C2353 0.950 . S
C2347 C2345 1.387 . S
C2347 C2349 1.390 . S
C2347 H2351 0.950 . S
H2348 C2344 0.950 . S
C2349 C2347 1.390 . S
C2349 C2350 1.387 . S
C2349 H2352 0.950 . S
C2350 C2349 1.387 . S
C2350 C2353 1.387 . S
H2351 C2347 0.950 . S
H2352 C2349 0.950 . S
C2353 C2344 1.390 . S
C2353 H2346 0.950 . S
C2353 C2350 1.387 . S
C2354 C2355 1.387 . S
C2354 H2358 0.950 . S
C2354 C2363 1.390 . S
C2355 C2354 1.387 . S
C2355 C2357 1.387 . S
H2356 C2363 0.950 . S
C2357 C2355 1.387 . S
C2357 C2359 1.390 . S
C2357 H2361 0.950 . S
H2358 C2354 0.950 . S
C2359 C2357 1.390 . S
C2359 C2360 1.387 . S
C2359 H2362 0.950 . S
C2360 C2359 1.387 . S
C2360 C2363 1.387 . S
H2361 C2357 0.950 . S
H2362 C2359 0.950 . S
C2363 C2354 1.390 . S
C2363 H2356 0.950 . S
C2363 C2360 1.387 . S
C2364 C2365 1.387 . S
C2364 H2368 0.950 . S
C2364 C2373 1.390 . S
C2365 C2364 1.387 . S
C2365 C2367 1.387 . S
H2366 C2373 0.950 . S
C2367 C2365 1.387 . S
C2367 C2369 1.390 . S
C2367 H2371 0.950 . S
H2368 C2364 0.950 . S
C2369 C2367 1.390 . S
C2369 C2370 1.387 . S
C2369 H2372 0.950 . S
C2370 C2369 1.387 . S
C2370 C2373 1.387 . S
H2371 C2367 0.950 . S
H2372 C2369 0.950 . S
C2373 C2364 1.390 . S
C2373 H2366 0.950 . S
C2373 C2370 1.387 . S
C2374 C2375 1.387 . S
C2374 H2378 0.950 . S
C2374 C2383 1.390 . S
C2375 C2374 1.387 . S
C2375 C2377 1.387 . S
H2376 C2383 0.950 . S
C2377 C2375 1.387 . S
C2377 C2379 1.390 . S
C2377 H2381 0.950 . S
H2378 C2374 0.950 . S
C2379 C2377 1.390 . S
C2379 C2380 1.387 . S
C2379 H2382 0.950 . S
C2380 C2379 1.387 . S
C2380 C2383 1.387 . S
H2381 C2377 0.950 . S
H2382 C2379 0.950 . S
C2383 C2374 1.390 . S
C2383 H2376 0.950 . S
C2383 C2380 1.387 . S
C2384 C2385 1.387 . S
C2384 H2388 0.950 . S
C2384 C2393 1.390 . S
C2385 C2384 1.387 . S
C2385 C2387 1.387 . S
H2386 C2393 0.950 . S
C2387 C2385 1.387 . S
C2387 C2389 1.390 . S
C2387 H2391 0.950 . S
H2388 C2384 0.950 . S
C2389 C2387 1.390 . S
C2389 C2390 1.387 . S
C2389 H2392 0.950 . S
C2390 C2389 1.387 . S
C2390 C2393 1.387 . S
H2391 C2387 0.950 . S
H2392 C2389 0.950 . S
C2393 C2384 1.390 . S
C2393 H2386 0.950 . S
C2393 C2390 1.387 . S
C2394 C2395 1.387 . S
C2394 H2398 0.950 . S
C2394 C2403 1.390 . S
C2395 C2394 1.387 . S
C2395 C2397 1.387 . S
H2396 C2403 0.950 . S
C2397 C2395 1.387 . S
C2397 C2399 1.390 . S
C2397 H2401 0.950 . S
H2398 C2394 0.950 . S
C2399 C2397 1.390 . S
C2399 C2400 1.387 . S
C2399 H2402 0.950 . S
C2400 C2399 1.387 . S
C2400 C2403 1.387 . S
H2401 C2397 0.950 . S
H2402 C2399 0.950 . S
C2403 C2394 1.390 . S
C2403 H2396 0.950 . S
C2403 C2400 1.387 . S
C2404 C2405 1.387 . S
C2404 H2408 0.950 . S
C2404 C2413 1.390 . S
C2405 C2404 1.387 . S
C2405 C2407 1.387 . S
H2406 C2413 0.950 . S
C2407 C2405 1.387 . S
C2407 C2409 1.390 . S
C2407 H2411 0.950 . S
H2408 C2404 0.950 . S
C2409 C2407 1.390 . S
C2409 C2410 1.387 . S
C2409 H2412 0.950 . S
C2410 C2409 1.387 . S
C2410 C2413 1.387 . S
H2411 C2407 0.950 . S
H2412 C2409 0.950 . S
C2413 C2404 1.390 . S
C2413 H2406 0.950 . S
C2413 C2410 1.387 . S
C2414 C2415 1.387 . S
C2414 H2418 0.950 . S
C2414 C2423 1.390 . S
C2415 C2414 1.387 . S
C2415 C2417 1.387 . S
H2416 C2423 0.950 . S
C2417 C2415 1.387 . S
C2417 C2419 1.390 . S
C2417 H2421 0.950 . S
H2418 C2414 0.950 . S
C2419 C2417 1.390 . S
C2419 C2420 1.387 . S
C2419 H2422 0.950 . S
C2420 C2419 1.387 . S
C2420 C2423 1.387 . S
H2421 C2417 0.950 . S
H2422 C2419 0.950 . S
C2423 C2414 1.390 . S
C2423 H2416 0.950 . S
C2423 C2420 1.387 . S
C2424 C2425 1.387 . S
C2424 H2428 0.950 . S
C2424 C2433 1.390 . S
C2425 C2424 1.387 . S
C2425 C2427 1.387 . S
H2426 C2433 0.950 . S
C2427 C2425 1.387 . S
C2427 C2429 1.390 . S
C2427 H2431 0.950 . S
H2428 C2424 0.950 . S
C2429 C2427 1.390 . S
C2429 C2430 1.387 . S
C2429 H2432 0.950 . S
C2430 C2429 1.387 . S
C2430 C2433 1.387 . S
H2431 C2427 0.950 . S
H2432 C2429 0.950 . S
C2433 C2424 1.390 . S
C2433 H2426 0.950 . S
C2433 C2430 1.387 . S
C2434 C2435 1.387 . S
C2434 H2438 0.950 . S
C2434 C2443 1.390 . S
C2435 C2434 1.387 . S
C2435 C2437 1.387 . S
H2436 C2443 0.950 . S
C2437 C2435 1.387 . S
C2437 C2439 1.390 . S
C2437 H2441 0.950 . S
H2438 C2434 0.950 . S
C2439 C2437 1.390 . S
C2439 C2440 1.387 . S
C2439 H2442 0.950 . S
C2440 C2439 1.387 . S
C2440 C2443 1.387 . S
H2441 C2437 0.950 . S
H2442 C2439 0.950 . S
C2443 C2434 1.390 . S
C2443 H2436 0.950 . S
C2443 C2440 1.387 . S
C2444 C2445 1.387 . S
C2444 H2448 0.950 . S
C2444 C2453 1.390 . S
C2445 C2444 1.387 . S
C2445 C2447 1.387 . S
H2446 C2453 0.950 . S
C2447 C2445 1.387 . S
C2447 C2449 1.390 . S
C2447 H2451 0.950 . S
H2448 C2444 0.950 . S
C2449 C2447 1.390 . S
C2449 C2450 1.387 . S
C2449 H2452 0.950 . S
C2450 C2449 1.387 . S
C2450 C2453 1.387 . S
H2451 C2447 0.950 . S
H2452 C2449 0.950 . S
C2453 C2444 1.390 . S
C2453 H2446 0.950 . S
C2453 C2450 1.387 . S
C2454 C2455 1.387 . S
C2454 H2458 0.950 . S
C2454 C2463 1.390 . S
C2455 C2454 1.387 . S
C2455 C2457 1.387 . S
H2456 C2463 0.950 . S
C2457 C2455 1.387 . S
C2457 C2459 1.390 . S
C2457 H2461 0.950 . S
H2458 C2454 0.950 . S
C2459 C2457 1.390 . S
C2459 C2460 1.387 . S
C2459 H2462 0.950 . S
C2460 C2459 1.387 . S
C2460 C2463 1.387 . S
H2461 C2457 0.950 . S
H2462 C2459 0.950 . S
C2463 C2454 1.390 . S
C2463 H2456 0.950 . S
C2463 C2460 1.387 . S
C2464 C2465 1.387 . S
C2464 H2468 0.950 . S
C2464 C2473 1.390 . S
C2465 C2464 1.387 . S
C2465 C2467 1.387 . S
H2466 C2473 0.950 . S
C2467 C2465 1.387 . S
C2467 C2469 1.390 . S
C2467 H2471 0.950 . S
H2468 C2464 0.950 . S
C2469 C2467 1.390 . S
C2469 C2470 1.387 . S
C2469 H2472 0.950 . S
C2470 C2469 1.387 . S
C2470 C2473 1.387 . S
H2471 C2467 0.950 . S
H2472 C2469 0.950 . S
C2473 C2464 1.390 . S
C2473 H2466 0.950 . S
C2473 C2470 1.387 . S
C2474 C2475 1.387 . S
C2474 H2478 0.950 . S
C2474 C2483 1.390 . S
C2475 C2474 1.387 . S
C2475 C2477 1.387 . S
H2476 C2483 0.950 . S
C2477 C2475 1.387 . S
C2477 C2479 1.390 . S
C2477 H2481 0.950 . S
H2478 C2474 0.950 . S
C2479 C2477 1.390 . S
C2479 C2480 1.387 . S
C2479 H2482 0.950 . S
C2480 C2479 1.387 . S
C2480 C2483 1.387 . S
H2481 C2477 0.950 . S
H2482 C2479 0.950 . S
C2483 C2474 1.390 . S
C2483 H2476 0.950 . S
C2483 C2480 1.387 . S
C2484 C2485 1.387 . S
C2484 H2488 0.950 . S
C2484 C2493 1.390 . S
C2485 C2484 1.387 . S
C2485 C2487 1.387 . S
H2486 C2493 0.950 . S
C2487 C2485 1.387 . S
C2487 C2489 1.390 . S
C2487 H2491 0.950 . S
H2488 C2484 0.950 . S
C2489 C2487 1.390 . S
C2489 C2490 1.387 . S
C2489 H2492 0.950 . S
C2490 C2489 1.387 . S
C2490 C2493 1.387 . S
H2491 C2487 0.950 . S
H2492 C2489 0.950 . S
C2493 C2484 1.390 . S
C2493 H2486 0.950 . S
C2493 C2490 1.387 . S
C2494 C2495 1.387 . S
C2494 H2498 0.950 . S
C2494 C2503 1.390 . S
C2495 C2494 1.387 . S
C2495 C2497 1.387 . S
H2496 C2503 0.950 . S
C2497 C2495 1.387 . S
C2497 C2499 1.390 . S
C2497 H2501 0.950 . S
H2498 C2494 0.950 . S
C2499 C2497 1.390 . S
C2499 C2500 1.387 . S
C2499 H2502 0.950 . S
C2500 C2499 1.387 . S
C2500 C2503 1.387 . S
H2501 C2497 0.950 . S
H2502 C2499 0.950 . S
C2503 C2494 1.390 . S
C2503 H2496 0.950 . S
C2503 C2500 1.387 . S
C2504 C2505 1.387 . S
C2504 H2508 0.950 . S
C2504 C2513 1.390 . S
C2505 C2504 1.387 . S
C2505 C2507 1.387 . S
H2506 C2513 0.950 . S
C2507 C2505 1.387 . S
C2507 C2509 1.390 . S
C2507 H2511 0.950 . S
H2508 C2504 0.950 . S
C2509 C2507 1.390 . S
C2509 C2510 1.387 . S
C2509 H2512 0.950 . S
C2510 C2509 1.387 . S
C2510 C2513 1.387 . S
H2511 C2507 0.950 . S
H2512 C2509 0.950 . S
C2513 C2504 1.390 . S
C2513 H2506 0.950 . S
C2513 C2510 1.387 . S
C2514 C2515 1.387 . S
C2514 H2518 0.950 . S
C2514 C2523 1.390 . S
C2515 C2514 1.387 . S
C2515 C2517 1.387 . S
H2516 C2523 0.950 . S
C2517 C2515 1.387 . S
C2517 C2519 1.390 . S
C2517 H2521 0.950 . S
H2518 C2514 0.950 . S
C2519 C2517 1.390 . S
C2519 C2520 1.387 . S
C2519 H2522 0.950 . S
C2520 C2519 1.387 . S
C2520 C2523 1.387 . S
H2521 C2517 0.950 . S
H2522 C2519 0.950 . S
C2523 C2514 1.390 . S
C2523 H2516 0.950 . S
C2523 C2520 1.387 . S
C2524 C2525 1.387 . S
C2524 H2528 0.950 . S
C2524 C2533 1.390 . S
C2525 C2524 1.387 . S
C2525 C2527 1.387 . S
H2526 C2533 0.950 . S
C2527 C2525 1.387 . S
C2527 C2529 1.390 . S
C2527 H2531 0.950 . S
H2528 C2524 0.950 . S
C2529 C2527 1.390 . S
C2529 C2530 1.387 . S
C2529 H2532 0.950 . S
C2530 C2529 1.387 . S
C2530 C2533 1.387 . S
H2531 C2527 0.950 . S
H2532 C2529 0.950 . S
C2533 C2524 1.390 . S
C2533 H2526 0.950 . S
C2533 C2530 1.387 . S
C2534 C2535 1.387 . S
C2534 H2538 0.950 . S
C2534 C2543 1.390 . S
C2535 C2534 1.387 . S
C2535 C2537 1.387 . S
H2536 C2543 0.950 . S
C2537 C2535 1.387 . S
C2537 C2539 1.390 . S
C2537 H2541 0.950 . S
H2538 C2534 0.950 . S
C2539 C2537 1.390 . S
C2539 C2540 1.387 . S
C2539 H2542 0.950 . S
C2540 C2539 1.387 . S
C2540 C2543 1.387 . S
H2541 C2537 0.950 . S
H2542 C2539 0.950 . S
C2543 C2534 1.390 . S
C2543 H2536 0.950 . S
C2543 C2540 1.387 . S
C2544 C2545 1.387 . S
C2544 H2548 0.950 . S
C2544 C2553 1.390 . S
C2545 C2544 1.387 . S
C2545 C2547 1.387 . S
H2546 C2553 0.950 . S
C2547 C2545 1.387 . S
C2547 C2549 1.390 . S
C2547 H2551 0.950 . S
H2548 C2544 0.950 . S
C2549 C2547 1.390 . S
C2549 C2550 1.387 . S
C2549 H2552 0.950 . S
C2550 C2549 1.387 . S
C2550 C2553 1.387 . S
H2551 C2547 0.950 . S
H2552 C2549 0.950 . S
C2553 C2544 1.390 . S
C2553 H2546 0.950 . S
C2553 C2550 1.387 . S
C2554 C2555 1.387 . S
C2554 H2558 0.950 . S
C2554 C2563 1.390 . S
C2555 C2554 1.387 . S
C2555 C2557 1.387 . S
H2556 C2563 0.950 . S
C2557 C2555 1.387 . S
C2557 C2559 1.390 . S
C2557 H2561 0.950 . S
H2558 C2554 0.950 . S
C2559 C2557 1.390 . S
C2559 C2560 1.387 . S
C2559 H2562 0.950 . S
C2560 C2559 1.387 . S
C2560 C2563 1.387 . S
H2561 C2557 0.950 . S
H2562 C2559 0.950 . S
C2563 C2554 1.390 . S
C2563 H2556 0.950 . S
C2563 C2560 1.387 . S
C2564 C2565 1.387 . S
C2564 H2568 0.950 . S
C2564 C2573 1.390 . S
C2565 C2564 1.387 . S
C2565 C2567 1.387 . S
H2566 C2573 0.950 . S
C2567 C2565 1.387 . S
C2567 C2569 1.390 . S
C2567 H2571 0.950 . S
H2568 C2564 0.950 . S
C2569 C2567 1.390 . S
C2569 C2570 1.387 . S
C2569 H2572 0.950 . S
C2570 C2569 1.387 . S
C2570 C2573 1.387 . S
H2571 C2567 0.950 . S
H2572 C2569 0.950 . S
C2573 C2564 1.390 . S
C2573 H2566 0.950 . S
C2573 C2570 1.387 . S
C2574 C2575 1.387 . S
C2574 H2578 0.950 . S
C2574 C2583 1.390 . S
C2575 C2574 1.387 . S
C2575 C2577 1.387 . S
H2576 C2583 0.950 . S
C2577 C2575 1.387 . S
C2577 C2579 1.390 . S
C2577 H2581 0.950 . S
H2578 C2574 0.950 . S
C2579 C2577 1.390 . S
C2579 C2580 1.387 . S
C2579 H2582 0.950 . S
C2580 C2579 1.387 . S
C2580 C2583 1.387 . S
H2581 C2577 0.950 . S
H2582 C2579 0.950 . S
C2583 C2574 1.390 . S
C2583 H2576 0.950 . S
C2583 C2580 1.387 . S
C2584 C2585 1.387 . S
C2584 H2588 0.950 . S
C2584 C2593 1.390 . S
C2585 C2584 1.387 . S
C2585 C2587 1.387 . S
H2586 C2593 0.950 . S
C2587 C2585 1.387 . S
C2587 C2589 1.390 . S
C2587 H2591 0.950 . S
H2588 C2584 0.950 . S
C2589 C2587 1.390 . S
C2589 C2590 1.387 . S
C2589 H2592 0.950 . S
C2590 C2589 1.387 . S
C2590 C2593 1.387 . S
H2591 C2587 0.950 . S
H2592 C2589 0.950 . S
C2593 C2584 1.390 . S
C2593 H2586 0.950 . S
C2593 C2590 1.387 . S
C2594 C2595 1.387 . S
C2594 H2598 0.950 . S
C2594 C2603 1.390 . S
C2595 C2594 1.387 . S
C2595 C2597 1.387 . S
H2596 C2603 0.950 . S
C2597 C2595 1.387 . S
C2597 C2599 1.390 . S
C2597 H2601 0.950 . S
H2598 C2594 0.950 . S
C2599 C2597 1.390 . S
C2599 C2600 1.387 . S
C2599 H2602 0.950 . S
C2600 C2599 1.387 . S
C2600 C2603 1.387 . S
H2601 C2597 0.950 . S
H2602 C2599 0.950 . S
C2603 C2594 1.390 . S
C2603 H2596 0.950 . S
C2603 C2600 1.387 . S
C2604 C2605 1.387 . S
C2604 H2608 0.950 . S
C2604 C2613 1.390 . S
C2605 C2604 1.387 . S
C2605 C2607 1.387 . S
H2606 C2613 0.950 . S
C2607 C2605 1.387 . S
C2607 C2609 1.390 . S
C2607 H2611 0.950 . S
H2608 C2604 0.950 . S
C2609 C2607 1.390 . S
C2609 C2610 1.387 . S
C2609 H2612 0.950 . S
C2610 C2609 1.387 . S
C2610 C2613 1.387 . S
H2611 C2607 0.950 . S
H2612 C2609 0.950 . S
C2613 C2604 1.390 . S
C2613 H2606 0.950 . S
C2613 C2610 1.387 . S
C2614 C2615 1.387 . S
C2614 H2618 0.950 . S
C2614 C2623 1.390 . S
C2615 C2614 1.387 . S
C2615 C2617 1.387 . S
H2616 C2623 0.950 . S
C2617 C2615 1.387 . S
C2617 C2619 1.390 . S
C2617 H2621 0.950 . S
H2618 C2614 0.950 . S
C2619 C2617 1.390 . S
C2619 C2620 1.387 . S
C2619 H2622 0.950 . S
C2620 C2619 1.387 . S
C2620 C2623 1.387 . S
H2621 C2617 0.950 . S
H2622 C2619 0.950 . S
C2623 C2614 1.390 . S
C2623 H2616 0.950 . S
C2623 C2620 1.387 . S
C2624 C2625 1.387 . S
C2624 H2628 0.950 . S
C2624 C2633 1.390 . S
C2625 C2624 1.387 . S
C2625 C2627 1.387 . S
H2626 C2633 0.950 . S
C2627 C2625 1.387 . S
C2627 C2629 1.390 . S
C2627 H2631 0.950 . S
H2628 C2624 0.950 . S
C2629 C2627 1.390 . S
C2629 C2630 1.387 . S
C2629 H2632 0.950 . S
C2630 C2629 1.387 . S
C2630 C2633 1.387 . S
H2631 C2627 0.950 . S
H2632 C2629 0.950 . S
C2633 C2624 1.390 . S
C2633 H2626 0.950 . S
C2633 C2630 1.387 . S
C2634 C2635 1.387 . S
C2634 H2638 0.950 . S
C2634 C2643 1.390 . S
C2635 C2634 1.387 . S
C2635 C2637 1.387 . S
H2636 C2643 0.950 . S
C2637 C2635 1.387 . S
C2637 C2639 1.390 . S
C2637 H2641 0.950 . S
H2638 C2634 0.950 . S
C2639 C2637 1.390 . S
C2639 C2640 1.387 . S
C2639 H2642 0.950 . S
C2640 C2639 1.387 . S
C2640 C2643 1.387 . S
H2641 C2637 0.950 . S
H2642 C2639 0.950 . S
C2643 C2634 1.390 . S
C2643 H2636 0.950 . S
C2643 C2640 1.387 . S
C2644 C2645 1.387 . S
C2644 H2648 0.950 . S
C2644 C2653 1.390 . S
C2645 C2644 1.387 . S
C2645 C2647 1.387 . S
H2646 C2653 0.950 . S
C2647 C2645 1.387 . S
C2647 C2649 1.390 . S
C2647 H2651 0.950 . S
H2648 C2644 0.950 . S
C2649 C2647 1.390 . S
C2649 C2650 1.387 . S
C2649 H2652 0.950 . S
C2650 C2649 1.387 . S
C2650 C2653 1.387 . S
H2651 C2647 0.950 . S
H2652 C2649 0.950 . S
C2653 C2644 1.390 . S
C2653 H2646 0.950 . S
C2653 C2650 1.387 . S
C2654 C2655 1.387 . S
C2654 H2658 0.950 . S
C2654 C2663 1.390 . S
C2655 C2654 1.387 . S
C2655 C2657 1.387 . S
H2656 C2663 0.950 . S
C2657 C2655 1.387 . S
C2657 C2659 1.390 . S
C2657 H2661 0.950 . S
H2658 C2654 0.950 . S
C2659 C2657 1.390 . S
C2659 C2660 1.387 . S
C2659 H2662 0.950 . S
C2660 C2659 1.387 . S
C2660 C2663 1.387 . S
H2661 C2657 0.950 . S
H2662 C2659 0.950 . S
C2663 C2654 1.390 . S
C2663 H2656 0.950 . S
C2663 C2660 1.387 . S
C2664 C2665 1.387 . S
C2664 H2668 0.950 . S
C2664 C2673 1.390 . S
C2665 C2664 1.387 . S
C2665 C2667 1.387 . S
H2666 C2673 0.950 . S
C2667 C2665 1.387 . S
C2667 C2669 1.390 . S
C2667 H2671 0.950 . S
H2668 C2664 0.950 . S
C2669 C2667 1.390 . S
C2669 C2670 1.387 . S
C2669 H2672 0.950 . S
C2670 C2669 1.387 . S
C2670 C2673 1.387 . S
H2671 C2667 0.950 . S
H2672 C2669 0.950 . S
C2673 C2664 1.390 . S
C2673 H2666 0.950 . S
C2673 C2670 1.387 . S
C2674 C2675 1.387 . S
C2674 H2678 0.950 . S
C2674 C2683 1.390 . S
C2675 C2674 1.387 . S
C2675 C2677 1.387 . S
H2676 C2683 0.950 . S
C2677 C2675 1.387 . S
C2677 C2679 1.390 . S
C2677 H2681 0.950 . S
H2678 C2674 0.950 . S
C2679 C2677 1.390 . S
C2679 C2680 1.387 . S
C2679 H2682 0.950 . S
C2680 C2679 1.387 . S
C2680 C2683 1.387 . S
H2681 C2677 0.950 . S
H2682 C2679 0.950 . S
C2683 C2674 1.390 . S
C2683 H2676 0.950 . S
C2683 C2680 1.387 . S
C2684 C2685 1.387 . S
C2684 H2688 0.950 . S
C2684 C2693 1.390 . S
C2685 C2684 1.387 . S
C2685 C2687 1.387 . S
H2686 C2693 0.950 . S
C2687 C2685 1.387 . S
C2687 C2689 1.390 . S
C2687 H2691 0.950 . S
H2688 C2684 0.950 . S
C2689 C2687 1.390 . S
C2689 C2690 1.387 . S
C2689 H2692 0.950 . S
C2690 C2689 1.387 . S
C2690 C2693 1.387 . S
H2691 C2687 0.950 . S
H2692 C2689 0.950 . S
C2693 C2684 1.390 . S
C2693 H2686 0.950 . S
C2693 C2690 1.387 . S
C2694 C2695 1.387 . S
C2694 H2698 0.950 . S
C2694 C2703 1.390 . S
C2695 C2694 1.387 . S
C2695 C2697 1.387 . S
H2696 C2703 0.950 . S
C2697 C2695 1.387 . S
C2697 C2699 1.390 . S
C2697 H2701 0.950 . S
H2698 C2694 0.950 . S
C2699 C2697 1.390 . S
C2699 C2700 1.387 . S
C2699 H2702 0.950 . S
C2700 C2699 1.387 . S
C2700 C2703 1.387 . S
H2701 C2697 0.950 . S
H2702 C2699 0.950 . S
C2703 C2694 1.390 . S
C2703 H2696 0.950 . S
C2703 C2700 1.387 . S
C2704 C2705 1.387 . S
C2704 H2708 0.950 . S
C2704 C2713 1.390 . S
C2705 C2704 1.387 . S
C2705 C2707 1.387 . S
H2706 C2713 0.950 . S
C2707 C2705 1.387 . S
C2707 C2709 1.390 . S
C2707 H2711 0.950 . S
H2708 C2704 0.950 . S
C2709 C2707 1.390 . S
C2709 C2710 1.387 . S
C2709 H2712 0.950 . S
C2710 C2709 1.387 . S
C2710 C2713 1.387 . S
H2711 C2707 0.950 . S
H2712 C2709 0.950 . S
C2713 C2704 1.390 . S
C2713 H2706 0.950 . S
C2713 C2710 1.387 . S
C2714 C2715 1.387 . S
C2714 H2718 0.950 . S
C2714 C2723 1.390 . S
C2715 C2714 1.387 . S
C2715 C2717 1.387 . S
H2716 C2723 0.950 . S
C2717 C2715 1.387 . S
C2717 C2719 1.390 . S
C2717 H2721 0.950 . S
H2718 C2714 0.950 . S
C2719 C2717 1.390 . S
C2719 C2720 1.387 . S
C2719 H2722 0.950 . S
C2720 C2719 1.387 . S
C2720 C2723 1.387 . S
H2721 C2717 0.950 . S
H2722 C2719 0.950 . S
C2723 C2714 1.390 . S
C2723 H2716 0.950 . S
C2723 C2720 1.387 . S
C2724 C2725 1.387 . S
C2724 H2728 0.950 . S
C2724 C2733 1.390 . S
C2725 C2724 1.387 . S
C2725 C2727 1.387 . S
H2726 C2733 0.950 . S
C2727 C2725 1.387 . S
C2727 C2729 1.390 . S
C2727 H2731 0.950 . S
H2728 C2724 0.950 . S
C2729 C2727 1.390 . S
C2729 C2730 1.387 . S
C2729 H2732 0.950 . S
C2730 C2729 1.387 . S
C2730 C2733 1.387 . S
H2731 C2727 0.950 . S
H2732 C2729 0.950 . S
C2733 C2724 1.390 . S
C2733 H2726 0.950 . S
C2733 C2730 1.387 . S
C2734 C2735 1.387 . S
C2734 H2738 0.950 . S
C2734 C2743 1.390 . S
C2735 C2734 1.387 . S
C2735 C2737 1.387 . S
H2736 C2743 0.950 . S
C2737 C2735 1.387 . S
C2737 C2739 1.390 . S
C2737 H2741 0.950 . S
H2738 C2734 0.950 . S
C2739 C2737 1.390 . S
C2739 C2740 1.387 . S
C2739 H2742 0.950 . S
C2740 C2739 1.387 . S
C2740 C2743 1.387 . S
H2741 C2737 0.950 . S
H2742 C2739 0.950 . S
C2743 C2734 1.390 . S
C2743 H2736 0.950 . S
C2743 C2740 1.387 . S
C2744 C2745 1.387 . S
C2744 H2748 0.950 . S
C2744 C2753 1.390 . S
C2745 C2744 1.387 . S
C2745 C2747 1.387 . S
H2746 C2753 0.950 . S
C2747 C2745 1.387 . S
C2747 C2749 1.390 . S
C2747 H2751 0.950 . S
H2748 C2744 0.950 . S
C2749 C2747 1.390 . S
C2749 C2750 1.387 . S
C2749 H2752 0.950 . S
C2750 C2749 1.387 . S
C2750 C2753 1.387 . S
H2751 C2747 0.950 . S
H2752 C2749 0.950 . S
C2753 C2744 1.390 . S
C2753 H2746 0.950 . S
C2753 C2750 1.387 . S
C2754 C2755 1.387 . S
C2754 H2758 0.950 . S
C2754 C2763 1.390 . S
C2755 C2754 1.387 . S
C2755 C2757 1.387 . S
H2756 C2763 0.950 . S
C2757 C2755 1.387 . S
C2757 C2759 1.390 . S
C2757 H2761 0.950 . S
H2758 C2754 0.950 . S
C2759 C2757 1.390 . S
C2759 C2760 1.387 . S
C2759 H2762 0.950 . S
C2760 C2759 1.387 . S
C2760 C2763 1.387 . S
H2761 C2757 0.950 . S
H2762 C2759 0.950 . S
C2763 C2754 1.390 . S
C2763 H2756 0.950 . S
C2763 C2760 1.387 . S
C2764 C2765 1.387 . S
C2764 H2768 0.950 . S
C2764 C2773 1.390 . S
C2765 C2764 1.387 . S
C2765 C2767 1.387 . S
H2766 C2773 0.950 . S
C2767 C2765 1.387 . S
C2767 C2769 1.390 . S
C2767 H2771 0.950 . S
H2768 C2764 0.950 . S
C2769 C2767 1.390 . S
C2769 C2770 1.387 . S
C2769 H2772 0.950 . S
C2770 C2769 1.387 . S
C2770 C2773 1.387 . S
H2771 C2767 0.950 . S
H2772 C2769 0.950 . S
C2773 C2764 1.390 . S
C2773 H2766 0.950 . S
C2773 C2770 1.387 . S
C2774 C2775 1.387 . S
C2774 H2778 0.950 . S
C2774 C2783 1.390 . S
C2775 C2774 1.387 . S
C2775 C2777 1.387 . S
H2776 C2783 0.950 . S
C2777 C2775 1.387 . S
C2777 C2779 1.390 . S
C2777 H2781 0.950 . S
H2778 C2774 0.950 . S
C2779 C2777 1.390 . S
C2779 C2780 1.387 . S
C2779 H2782 0.950 . S
C2780 C2779 1.387 . S
C2780 C2783 1.387 . S
H2781 C2777 0.950 . S
H2782 C2779 0.950 . S
C2783 C2774 1.390 . S
C2783 H2776 0.950 . S
C2783 C2780 1.387 . S
C2784 C2785 1.387 . S
C2784 H2788 0.950 . S
C2784 C2793 1.390 . S
C2785 C2784 1.387 . S
C2785 C2787 1.387 . S
H2786 C2793 0.950 . S
C2787 C2785 1.387 . S
C2787 C2789 1.390 . S
C2787 H2791 0.950 . S
H2788 C2784 0.950 . S
C2789 C2787 1.390 . S
C2789 C2790 1.387 . S
C2789 H2792 0.950 . S
C2790 C2789 1.387 . S
C2790 C2793 1.387 . S
H2791 C2787 0.950 . S
H2792 C2789 0.950 . S
C2793 C2784 1.390 . S
C2793 H2786 0.950 . S
C2793 C2790 1.387 . S
C2794 C2795 1.387 . S
C2794 H2798 0.950 . S
C2794 C2803 1.390 . S
C2795 C2794 1.387 . S
C2795 C2797 1.387 . S
H2796 C2803 0.950 . S
C2797 C2795 1.387 . S
C2797 C2799 1.390 . S
C2797 H2801 0.950 . S
H2798 C2794 0.950 . S
C2799 C2797 1.390 . S
C2799 C2800 1.387 . S
C2799 H2802 0.950 . S
C2800 C2799 1.387 . S
C2800 C2803 1.387 . S
H2801 C2797 0.950 . S
H2802 C2799 0.950 . S
C2803 C2794 1.390 . S
C2803 H2796 0.950 . S
C2803 C2800 1.387 . S
C2804 C2805 1.387 . S
C2804 H2808 0.950 . S
C2804 C2813 1.390 . S
C2805 C2804 1.387 . S
C2805 C2807 1.387 . S
H2806 C2813 0.950 . S
C2807 C2805 1.387 . S
C2807 C2809 1.390 . S
C2807 H2811 0.950 . S
H2808 C2804 0.950 . S
C2809 C2807 1.390 . S
C2809 C2810 1.387 . S
C2809 H2812 0.950 . S
C2810 C2809 1.387 . S
C2810 C2813 1.387 . S
H2811 C2807 0.950 . S
H2812 C2809 0.950 . S
C2813 C2804 1.390 . S
C2813 H2806 0.950 . S
C2813 C2810 1.387 . S
C2814 C2815 1.387 . S
C2814 H2818 0.950 . S
C2814 C2823 1.390 . S
C2815 C2814 1.387 . S
C2815 C2817 1.387 . S
H2816 C2823 0.950 . S
C2817 C2815 1.387 . S
C2817 C2819 1.390 . S
C2817 H2821 0.950 . S
H2818 C2814 0.950 . S
C2819 C2817 1.390 . S
C2819 C2820 1.387 . S
C2819 H2822 0.950 . S
C2820 C2819 1.387 . S
C2820 C2823 1.387 . S
H2821 C2817 0.950 . S
H2822 C2819 0.950 . S
C2823 C2814 1.390 . S
C2823 H2816 0.950 . S
C2823 C2820 1.387 . S
C2824 C2825 1.387 . S
C2824 H2828 0.950 . S
C2824 C2833 1.390 . S
C2825 C2824 1.387 . S
C2825 C2827 1.387 . S
H2826 C2833 0.950 . S
C2827 C2825 1.387 . S
C2827 C2829 1.390 . S
C2827 H2831 0.950 . S
H2828 C2824 0.950 . S
C2829 C2827 1.390 . S
C2829 C2830 1.387 . S
C2829 H2832 0.950 . S
C2830 C2829 1.387 . S
C2830 C2833 1.387 . S
H2831 C2827 0.950 . S
H2832 C2829 0.950 . S
C2833 C2824 1.390 . S
C2833 H2826 0.950 . S
C2833 C2830 1.387 . S
C2834 C2835 1.387 . S
C2834 H2838 0.950 . S
C2834 C2843 1.390 . S
C2835 C2834 1.387 . S
C2835 C2837 1.387 . S
H2836 C2843 0.950 . S
C2837 C2835 1.387 . S
C2837 C2839 1.390 . S
C2837 H2841 0.950 . S
H2838 C2834 0.950 . S
C2839 C2837 1.390 . S
C2839 C2840 1.387 . S
C2839 H2842 0.950 . S
C2840 C2839 1.387 . S
C2840 C2843 1.387 . S
H2841 C2837 0.950 . S
H2842 C2839 0.950 . S
C2843 C2834 1.390 . S
C2843 H2836 0.950 . S
C2843 C2840 1.387 . S
C2844 C2845 1.387 . S
C2844 H2848 0.950 . S
C2844 C2853 1.390 . S
C2845 C2844 1.387 . S
C2845 C2847 1.387 . S
H2846 C2853 0.950 . S
C2847 C2845 1.387 . S
C2847 C2849 1.390 . S
C2847 H2851 0.950 1_554 S
H2848 C2844 0.950 . S
C2849 C2847 1.390 . S
C2849 C2850 1.387 . S
C2849 H2852 0.950 . S
C2850 C2849 1.387 . S
C2850 C2853 1.387 . S
H2851 C2847 0.950 1_556 S
H2852 C2849 0.950 . S
C2853 C2844 1.390 . S
C2853 H2846 0.950 . S
C2853 C2850 1.387 . S
C2854 C2855 1.387 . S
C2854 H2858 0.950 . S
C2854 C2863 1.390 . S
C2855 C2854 1.387 . S
C2855 C2857 1.387 . S
H2856 C2863 0.950 . S
C2857 C2855 1.387 . S
C2857 C2859 1.390 . S
C2857 H2861 0.950 . S
H2858 C2854 0.950 . S
C2859 C2857 1.390 . S
C2859 C2860 1.387 . S
C2859 H2862 0.950 . S
C2860 C2859 1.387 . S
C2860 C2863 1.387 . S
H2861 C2857 0.950 . S
H2862 C2859 0.950 . S
C2863 C2854 1.390 . S
C2863 H2856 0.950 . S
C2863 C2860 1.387 . S
C2864 C2865 1.387 . S
C2864 H2868 0.950 . S
C2864 C2873 1.390 . S
C2865 C2864 1.387 . S
C2865 C2867 1.387 . S
H2866 C2873 0.950 . S
C2867 C2865 1.387 . S
C2867 C2869 1.390 . S
C2867 H2871 0.950 . S
H2868 C2864 0.950 . S
C2869 C2867 1.390 . S
C2869 C2870 1.387 . S
C2869 H2872 0.950 . S
C2870 C2869 1.387 . S
C2870 C2873 1.387 . S
H2871 C2867 0.950 . S
H2872 C2869 0.950 . S
C2873 C2864 1.390 . S
C2873 H2866 0.950 . S
C2873 C2870 1.387 . S
C2874 C2875 1.387 . S
C2874 H2878 0.950 . S
C2874 C2883 1.390 . S
C2875 C2874 1.387 . S
C2875 C2877 1.387 . S
H2876 C2883 0.950 . S
C2877 C2875 1.387 . S
C2877 C2879 1.390 . S
C2877 H2881 0.950 . S
H2878 C2874 0.950 . S
C2879 C2877 1.390 . S
C2879 C2880 1.387 . S
C2879 H2882 0.950 . S
C2880 C2879 1.387 . S
C2880 C2883 1.387 . S
H2881 C2877 0.950 . S
H2882 C2879 0.950 . S
C2883 C2874 1.390 . S
C2883 H2876 0.950 . S
C2883 C2880 1.387 . S
C2884 C2885 1.387 . S
C2884 H2888 0.950 . S
C2884 C2893 1.390 . S
C2885 C2884 1.387 . S
C2885 C2887 1.387 . S
H2886 C2893 0.950 . S
C2887 C2885 1.387 . S
C2887 C2889 1.390 . S
C2887 H2891 0.950 . S
H2888 C2884 0.950 . S
C2889 C2887 1.390 . S
C2889 C2890 1.387 . S
C2889 H2892 0.950 . S
C2890 C2889 1.387 . S
C2890 C2893 1.387 . S
H2891 C2887 0.950 . S
H2892 C2889 0.950 . S
C2893 C2884 1.390 . S
C2893 H2886 0.950 . S
C2893 C2890 1.387 . S
C2894 C2895 1.387 . S
C2894 H2898 0.950 . S
C2894 C2903 1.390 . S
C2895 C2894 1.387 . S
C2895 C2897 1.387 . S
H2896 C2903 0.950 . S
C2897 C2895 1.387 . S
C2897 C2899 1.390 . S
C2897 H2901 0.950 . S
H2898 C2894 0.950 . S
C2899 C2897 1.390 . S
C2899 C2900 1.387 . S
C2899 H2902 0.950 . S
C2900 C2899 1.387 . S
C2900 C2903 1.387 . S
H2901 C2897 0.950 . S
H2902 C2899 0.950 . S
C2903 C2894 1.390 . S
C2903 H2896 0.950 . S
C2903 C2900 1.387 . S
C2904 C2905 1.387 . S
C2904 H2908 0.950 . S
C2904 C2913 1.390 . S
C2905 C2904 1.387 . S
C2905 C2907 1.387 . S
H2906 C2913 0.950 . S
C2907 C2905 1.387 . S
C2907 C2909 1.390 . S
C2907 H2911 0.950 . S
H2908 C2904 0.950 . S
C2909 C2907 1.390 . S
C2909 C2910 1.387 . S
C2909 H2912 0.950 . S
C2910 C2909 1.387 . S
C2910 C2913 1.387 . S
H2911 C2907 0.950 . S
H2912 C2909 0.950 . S
C2913 C2904 1.390 . S
C2913 H2906 0.950 . S
C2913 C2910 1.387 . S
C2914 C2915 1.387 . S
C2914 H2918 0.950 . S
C2914 C2923 1.390 . S
C2915 C2914 1.387 . S
C2915 C2917 1.387 . S
H2916 C2923 0.950 . S
C2917 C2915 1.387 . S
C2917 C2919 1.390 . S
C2917 H2921 0.950 . S
H2918 C2914 0.950 . S
C2919 C2917 1.390 . S
C2919 C2920 1.387 . S
C2919 H2922 0.950 . S
C2920 C2919 1.387 . S
C2920 C2923 1.387 . S
H2921 C2917 0.950 . S
H2922 C2919 0.950 . S
C2923 C2914 1.390 . S
C2923 H2916 0.950 . S
C2923 C2920 1.387 . S
C2924 C2925 1.387 . S
C2924 H2928 0.950 . S
C2924 C2933 1.390 . S
C2925 C2924 1.387 . S
C2925 C2927 1.387 . S
H2926 C2933 0.950 . S
C2927 C2925 1.387 . S
C2927 C2929 1.390 . S
C2927 H2931 0.950 . S
H2928 C2924 0.950 . S
C2929 C2927 1.390 . S
C2929 C2930 1.387 . S
C2929 H2932 0.950 . S
C2930 C2929 1.387 . S
C2930 C2933 1.387 . S
H2931 C2927 0.950 . S
H2932 C2929 0.950 . S
C2933 C2924 1.390 . S
C2933 H2926 0.950 . S
C2933 C2930 1.387 . S
C2934 C2935 1.387 . S
C2934 H2938 0.950 . S
C2934 C2943 1.390 . S
C2935 C2934 1.387 . S
C2935 C2937 1.387 . S
H2936 C2943 0.950 . S
C2937 C2935 1.387 . S
C2937 C2939 1.390 . S
C2937 H2941 0.950 . S
H2938 C2934 0.950 . S
C2939 C2937 1.390 . S
C2939 C2940 1.387 . S
C2939 H2942 0.950 . S
C2940 C2939 1.387 . S
C2940 C2943 1.387 . S
H2941 C2937 0.950 . S
H2942 C2939 0.950 . S
C2943 C2934 1.390 . S
C2943 H2936 0.950 . S
C2943 C2940 1.387 . S
C2944 C2945 1.387 . S
C2944 H2948 0.950 . S
C2944 C2953 1.390 . S
C2945 C2944 1.387 . S
C2945 C2947 1.387 . S
H2946 C2953 0.950 . S
C2947 C2945 1.387 . S
C2947 C2949 1.390 . S
C2947 H2951 0.950 . S
H2948 C2944 0.950 . S
C2949 C2947 1.390 . S
C2949 C2950 1.387 . S
C2949 H2952 0.950 . S
C2950 C2949 1.387 . S
C2950 C2953 1.387 . S
H2951 C2947 0.950 . S
H2952 C2949 0.950 . S
C2953 C2944 1.390 . S
C2953 H2946 0.950 . S
C2953 C2950 1.387 . S
C2954 C2955 1.387 . S
C2954 H2958 0.950 . S
C2954 C2963 1.390 . S
C2955 C2954 1.387 . S
C2955 C2957 1.387 . S
H2956 C2963 0.950 . S
C2957 C2955 1.387 . S
C2957 C2959 1.390 . S
C2957 H2961 0.950 . S
H2958 C2954 0.950 . S
C2959 C2957 1.390 . S
C2959 C2960 1.387 . S
C2959 H2962 0.950 . S
C2960 C2959 1.387 . S
C2960 C2963 1.387 . S
H2961 C2957 0.950 . S
H2962 C2959 0.950 . S
C2963 C2954 1.390 . S
C2963 H2956 0.950 . S
C2963 C2960 1.387 . S
C2964 C2965 1.387 . S
C2964 H2968 0.950 . S
C2964 C2973 1.390 . S
C2965 C2964 1.387 . S
C2965 C2967 1.387 . S
H2966 C2973 0.950 . S
C2967 C2965 1.387 . S
C2967 C2969 1.390 . S
C2967 H2971 0.950 . S
H2968 C2964 0.950 . S
C2969 C2967 1.390 . S
C2969 C2970 1.387 . S
C2969 H2972 0.950 . S
C2970 C2969 1.387 . S
C2970 C2973 1.387 . S
H2971 C2967 0.950 . S
H2972 C2969 0.950 . S
C2973 C2964 1.390 . S
C2973 H2966 0.950 . S
C2973 C2970 1.387 . S
C2974 C2975 1.387 . S
C2974 H2978 0.950 . S
C2974 C2983 1.390 . S
C2975 C2974 1.387 . S
C2975 C2977 1.387 . S
H2976 C2983 0.950 . S
C2977 C2975 1.387 . S
C2977 C2979 1.390 . S
C2977 H2981 0.950 . S
H2978 C2974 0.950 . S
C2979 C2977 1.390 . S
C2979 C2980 1.387 . S
C2979 H2982 0.950 . S
C2980 C2979 1.387 . S
C2980 C2983 1.387 . S
H2981 C2977 0.950 . S
H2982 C2979 0.950 . S
C2983 C2974 1.390 . S
C2983 H2976 0.950 . S
C2983 C2980 1.387 . S
C2984 C2985 1.387 . S
C2984 H2988 0.950 . S
C2984 C2993 1.390 . S
C2985 C2984 1.387 . S
C2985 C2987 1.387 . S
H2986 C2993 0.950 . S
C2987 C2985 1.387 . S
C2987 C2989 1.390 . S
C2987 H2991 0.950 . S
H2988 C2984 0.950 . S
C2989 C2987 1.390 . S
C2989 C2990 1.387 . S
C2989 H2992 0.950 . S
C2990 C2989 1.387 . S
C2990 C2993 1.387 . S
H2991 C2987 0.950 . S
H2992 C2989 0.950 . S
C2993 C2984 1.390 . S
C2993 H2986 0.950 . S
C2993 C2990 1.387 . S
C2994 C2995 1.387 . S
C2994 H2998 0.950 . S
C2994 C3003 1.390 . S
C2995 C2994 1.387 . S
C2995 C2997 1.387 . S
H2996 C3003 0.950 . S
C2997 C2995 1.387 . S
C2997 C2999 1.390 . S
C2997 H3001 0.950 . S
H2998 C2994 0.950 . S
C2999 C2997 1.390 . S
C2999 C3000 1.387 . S
C2999 H3002 0.950 . S
C3000 C2999 1.387 . S
C3000 C3003 1.387 . S
H3001 C2997 0.950 . S
H3002 C2999 0.950 . S
C3003 C2994 1.390 . S
C3003 H2996 0.950 . S
C3003 C3000 1.387 . S
C3004 C3005 1.387 . S
C3004 H3008 0.950 . S
C3004 C3013 1.390 . S
C3005 C3004 1.387 . S
C3005 C3007 1.387 . S
H3006 C3013 0.950 . S
C3007 C3005 1.387 . S
C3007 C3009 1.390 . S
C3007 H3011 0.950 . S
H3008 C3004 0.950 . S
C3009 C3007 1.390 . S
C3009 C3010 1.387 . S
C3009 H3012 0.950 . S
C3010 C3009 1.387 . S
C3010 C3013 1.387 . S
H3011 C3007 0.950 . S
H3012 C3009 0.950 . S
C3013 C3004 1.390 . S
C3013 H3006 0.950 . S
C3013 C3010 1.387 . S
C3014 C3015 1.387 . S
C3014 H3018 0.950 . S
C3014 C3023 1.390 . S
C3015 C3014 1.387 . S
C3015 C3017 1.387 . S
H3016 C3023 0.950 . S
C3017 C3015 1.387 . S
C3017 C3019 1.390 . S
C3017 H3021 0.950 . S
H3018 C3014 0.950 . S
C3019 C3017 1.390 . S
C3019 C3020 1.387 . S
C3019 H3022 0.950 . S
C3020 C3019 1.387 . S
C3020 C3023 1.387 . S
H3021 C3017 0.950 . S
H3022 C3019 0.950 . S
C3023 C3014 1.390 . S
C3023 H3016 0.950 . S
C3023 C3020 1.387 . S
C3024 C3025 1.387 . S
C3024 H3028 0.950 . S
C3024 C3033 1.390 . S
C3025 C3024 1.387 . S
C3025 C3027 1.387 . S
H3026 C3033 0.950 . S
C3027 C3025 1.387 . S
C3027 C3029 1.390 . S
C3027 H3031 0.950 . S
H3028 C3024 0.950 . S
C3029 C3027 1.390 . S
C3029 C3030 1.387 . S
C3029 H3032 0.950 . S
C3030 C3029 1.387 . S
C3030 C3033 1.387 . S
H3031 C3027 0.950 . S
H3032 C3029 0.950 . S
C3033 C3024 1.390 . S
C3033 H3026 0.950 . S
C3033 C3030 1.387 . S
C3034 C3035 1.387 . S
C3034 H3038 0.950 . S
C3034 C3043 1.390 . S
C3035 C3034 1.387 . S
C3035 C3037 1.387 . S
H3036 C3043 0.950 . S
C3037 C3035 1.387 . S
C3037 C3039 1.390 . S
C3037 H3041 0.950 . S
H3038 C3034 0.950 . S
C3039 C3037 1.390 . S
C3039 C3040 1.387 . S
C3039 H3042 0.950 . S
C3040 C3039 1.387 . S
C3040 C3043 1.387 . S
H3041 C3037 0.950 . S
H3042 C3039 0.950 . S
C3043 C3034 1.390 . S
C3043 H3036 0.950 . S
C3043 C3040 1.387 . S
C3044 C3045 1.387 . S
C3044 H3048 0.950 . S
C3044 C3053 1.390 . S
C3045 C3044 1.387 . S
C3045 C3047 1.387 . S
H3046 C3053 0.950 . S
C3047 C3045 1.387 . S
C3047 C3049 1.390 . S
C3047 H3051 0.950 . S
H3048 C3044 0.950 . S
C3049 C3047 1.390 . S
C3049 C3050 1.387 . S
C3049 H3052 0.950 . S
C3050 C3049 1.387 . S
C3050 C3053 1.387 . S
H3051 C3047 0.950 . S
H3052 C3049 0.950 . S
C3053 C3044 1.390 . S
C3053 H3046 0.950 . S
C3053 C3050 1.387 . S
C3054 C3055 1.387 . S
C3054 H3058 0.950 . S
C3054 C3063 1.390 . S
C3055 C3054 1.387 . S
C3055 C3057 1.387 . S
H3056 C3063 0.950 . S
C3057 C3055 1.387 . S
C3057 C3059 1.390 . S
C3057 H3061 0.950 . S
H3058 C3054 0.950 . S
C3059 C3057 1.390 . S
C3059 C3060 1.387 . S
C3059 H3062 0.950 . S
C3060 C3059 1.387 . S
C3060 C3063 1.387 . S
H3061 C3057 0.950 . S
H3062 C3059 0.950 . S
C3063 C3054 1.390 . S
C3063 H3056 0.950 . S
C3063 C3060 1.387 . S
C3064 C3065 1.387 . S
C3064 H3068 0.950 . S
C3064 C3073 1.390 . S
C3065 C3064 1.387 . S
C3065 C3067 1.387 . S
H3066 C3073 0.950 . S
C3067 C3065 1.387 . S
C3067 C3069 1.390 . S
C3067 H3071 0.950 . S
H3068 C3064 0.950 . S
C3069 C3067 1.390 . S
C3069 C3070 1.387 . S
C3069 H3072 0.950 . S
C3070 C3069 1.387 . S
C3070 C3073 1.387 . S
H3071 C3067 0.950 . S
H3072 C3069 0.950 . S
C3073 C3064 1.390 . S
C3073 H3066 0.950 . S
C3073 C3070 1.387 . S
C3074 C3075 1.387 . S
C3074 H3078 0.950 . S
C3074 C3083 1.390 . S
C3075 C3074 1.387 . S
C3075 C3077 1.387 . S
H3076 C3083 0.950 . S
C3077 C3075 1.387 . S
C3077 C3079 1.390 . S
C3077 H3081 0.950 . S
H3078 C3074 0.950 . S
C3079 C3077 1.390 . S
C3079 C3080 1.387 . S
C3079 H3082 0.950 . S
C3080 C3079 1.387 . S
C3080 C3083 1.387 . S
H3081 C3077 0.950 . S
H3082 C3079 0.950 . S
C3083 C3074 1.390 . S
C3083 H3076 0.950 . S
C3083 C3080 1.387 . S
C3084 C3085 1.387 . S
C3084 H3088 0.950 . S
C3084 C3093 1.390 . S
C3085 C3084 1.387 . S
C3085 C3087 1.387 . S
H3086 C3093 0.950 . S
C3087 C3085 1.387 . S
C3087 C3089 1.390 . S
C3087 H3091 0.950 . S
H3088 C3084 0.950 . S
C3089 C3087 1.390 . S
C3089 C3090 1.387 . S
C3089 H3092 0.950 . S
C3090 C3089 1.387 . S
C3090 C3093 1.387 . S
H3091 C3087 0.950 . S
H3092 C3089 0.950 . S
C3093 C3084 1.390 . S
C3093 H3086 0.950 . S
C3093 C3090 1.387 . S
C3094 C3095 1.387 . S
C3094 H3098 0.950 . S
C3094 C3103 1.390 . S
C3095 C3094 1.387 . S
C3095 C3097 1.387 . S
H3096 C3103 0.950 . S
C3097 C3095 1.387 . S
C3097 C3099 1.390 . S
C3097 H3101 0.950 . S
H3098 C3094 0.950 . S
C3099 C3097 1.390 . S
C3099 C3100 1.387 . S
C3099 H3102 0.950 . S
C3100 C3099 1.387 . S
C3100 C3103 1.387 . S
H3101 C3097 0.950 . S
H3102 C3099 0.950 . S
C3103 C3094 1.390 . S
C3103 H3096 0.950 . S
C3103 C3100 1.387 . S
C3104 C3105 1.387 . S
C3104 H3108 0.950 . S
C3104 C3113 1.390 . S
C3105 C3104 1.387 . S
C3105 C3107 1.387 . S
H3106 C3113 0.950 . S
C3107 C3105 1.387 . S
C3107 C3109 1.390 . S
C3107 H3111 0.950 . S
H3108 C3104 0.950 . S
C3109 C3107 1.390 . S
C3109 C3110 1.387 . S
C3109 H3112 0.950 . S
C3110 C3109 1.387 . S
C3110 C3113 1.387 . S
H3111 C3107 0.950 . S
H3112 C3109 0.950 . S
C3113 C3104 1.390 . S
C3113 H3106 0.950 . S
C3113 C3110 1.387 . S
C3114 C3115 1.387 . S
C3114 H3118 0.950 . S
C3114 C3123 1.390 . S
C3115 C3114 1.387 . S
C3115 C3117 1.387 . S
H3116 C3123 0.950 . S
C3117 C3115 1.387 . S
C3117 C3119 1.390 . S
C3117 H3121 0.950 . S
H3118 C3114 0.950 . S
C3119 C3117 1.390 . S
C3119 C3120 1.387 . S
C3119 H3122 0.950 . S
C3120 C3119 1.387 . S
C3120 C3123 1.387 . S
H3121 C3117 0.950 . S
H3122 C3119 0.950 . S
C3123 C3114 1.390 . S
C3123 H3116 0.950 . S
C3123 C3120 1.387 . S
C3124 C3125 1.387 . S
C3124 H3128 0.950 . S
C3124 C3133 1.390 . S
C3125 C3124 1.387 . S
C3125 C3127 1.387 . S
H3126 C3133 0.950 . S
C3127 C3125 1.387 . S
C3127 C3129 1.390 . S
C3127 H3131 0.950 . S
H3128 C3124 0.950 . S
C3129 C3127 1.390 . S
C3129 C3130 1.387 . S
C3129 H3132 0.950 . S
C3130 C3129 1.387 . S
C3130 C3133 1.387 . S
H3131 C3127 0.950 . S
H3132 C3129 0.950 . S
C3133 C3124 1.390 . S
C3133 H3126 0.950 . S
C3133 C3130 1.387 . S
C3134 C3135 1.387 . S
C3134 H3138 0.950 . S
C3134 C3143 1.390 . S
C3135 C3134 1.387 . S
C3135 C3137 1.387 . S
H3136 C3143 0.950 . S
C3137 C3135 1.387 . S
C3137 C3139 1.390 . S
C3137 H3141 0.950 . S
H3138 C3134 0.950 . S
C3139 C3137 1.390 . S
C3139 C3140 1.387 . S
C3139 H3142 0.950 . S
C3140 C3139 1.387 . S
C3140 C3143 1.387 . S
H3141 C3137 0.950 . S
H3142 C3139 0.950 . S
C3143 C3134 1.390 . S
C3143 H3136 0.950 . S
C3143 C3140 1.387 . S
C3144 C3145 1.387 . S
C3144 H3148 0.950 . S
C3144 C3153 1.390 . S
C3145 C3144 1.387 . S
C3145 C3147 1.387 . S
H3146 C3153 0.950 . S
C3147 C3145 1.387 . S
C3147 C3149 1.390 . S
C3147 H3151 0.950 . S
H3148 C3144 0.950 . S
C3149 C3147 1.390 . S
C3149 C3150 1.387 . S
C3149 H3152 0.950 . S
C3150 C3149 1.387 . S
C3150 C3153 1.387 . S
H3151 C3147 0.950 . S
H3152 C3149 0.950 . S
C3153 C3144 1.390 . S
C3153 H3146 0.950 . S
C3153 C3150 1.387 . S
C3154 C3155 1.387 . S
C3154 H3158 0.950 . S
C3154 C3163 1.390 . S
C3155 C3154 1.387 . S
C3155 C3157 1.387 . S
H3156 C3163 0.950 . S
C3157 C3155 1.387 . S
C3157 C3159 1.390 . S
C3157 H3161 0.950 . S
H3158 C3154 0.950 . S
C3159 C3157 1.390 . S
C3159 C3160 1.387 . S
C3159 H3162 0.950 . S
C3160 C3159 1.387 . S
C3160 C3163 1.387 . S
H3161 C3157 0.950 . S
H3162 C3159 0.950 . S
C3163 C3154 1.390 . S
C3163 H3156 0.950 . S
C3163 C3160 1.387 . S
C3164 C3165 1.387 . S
C3164 H3168 0.950 . S
C3164 C3173 1.390 . S
C3165 C3164 1.387 . S
C3165 C3167 1.387 . S
H3166 C3173 0.950 . S
C3167 C3165 1.387 . S
C3167 C3169 1.390 . S
C3167 H3171 0.950 . S
H3168 C3164 0.950 . S
C3169 C3167 1.390 . S
C3169 C3170 1.387 . S
C3169 H3172 0.950 . S
C3170 C3169 1.387 . S
C3170 C3173 1.387 . S
H3171 C3167 0.950 . S
H3172 C3169 0.950 . S
C3173 C3164 1.390 . S
C3173 H3166 0.950 . S
C3173 C3170 1.387 . S
C3174 C3175 1.387 . S
C3174 H3178 0.950 . S
C3174 C3183 1.390 . S
C3175 C3174 1.387 . S
C3175 C3177 1.387 . S
H3176 C3183 0.950 . S
C3177 C3175 1.387 . S
C3177 C3179 1.390 . S
C3177 H3181 0.950 . S
H3178 C3174 0.950 . S
C3179 C3177 1.390 . S
C3179 C3180 1.387 . S
C3179 H3182 0.950 . S
C3180 C3179 1.387 . S
C3180 C3183 1.387 . S
H3181 C3177 0.950 . S
H3182 C3179 0.950 . S
C3183 C3174 1.390 . S
C3183 H3176 0.950 . S
C3183 C3180 1.387 . S
C3184 C3185 1.387 . S
C3184 H3188 0.950 . S
C3184 C3193 1.390 . S
C3185 C3184 1.387 . S
C3185 C3187 1.387 . S
H3186 C3193 0.950 . S
C3187 C3185 1.387 . S
C3187 C3189 1.390 . S
C3187 H3191 0.950 . S
H3188 C3184 0.950 . S
C3189 C3187 1.390 . S
C3189 C3190 1.387 . S
C3189 H3192 0.950 . S
C3190 C3189 1.387 . S
C3190 C3193 1.387 . S
H3191 C3187 0.950 . S
H3192 C3189 0.950 . S
C3193 C3184 1.390 . S
C3193 H3186 0.950 . S
C3193 C3190 1.387 . S
C3194 C3195 1.387 . S
C3194 H3198 0.950 . S
C3194 C3203 1.390 . S
C3195 C3194 1.387 . S
C3195 C3197 1.387 . S
H3196 C3203 0.950 . S
C3197 C3195 1.387 . S
C3197 C3199 1.390 . S
C3197 H3201 0.950 . S
H3198 C3194 0.950 . S
C3199 C3197 1.390 . S
C3199 C3200 1.387 . S
C3199 H3202 0.950 . S
C3200 C3199 1.387 . S
C3200 C3203 1.387 . S
H3201 C3197 0.950 . S
H3202 C3199 0.950 . S
C3203 C3194 1.390 . S
C3203 H3196 0.950 . S
C3203 C3200 1.387 . S
C3204 C3205 1.387 . S
C3204 H3208 0.950 . S
C3204 C3213 1.390 . S
C3205 C3204 1.387 . S
C3205 C3207 1.387 . S
H3206 C3213 0.950 . S
C3207 C3205 1.387 . S
C3207 C3209 1.390 . S
C3207 H3211 0.950 . S
H3208 C3204 0.950 . S
C3209 C3207 1.390 . S
C3209 C3210 1.387 . S
C3209 H3212 0.950 . S
C3210 C3209 1.387 . S
C3210 C3213 1.387 . S
H3211 C3207 0.950 . S
H3212 C3209 0.950 . S
C3213 C3204 1.390 . S
C3213 H3206 0.950 . S
C3213 C3210 1.387 . S
C3214 C3215 1.387 . S
C3214 H3218 0.950 . S
C3214 C3223 1.390 . S
C3215 C3214 1.387 . S
C3215 C3217 1.387 . S
H3216 C3223 0.950 . S
C3217 C3215 1.387 . S
C3217 C3219 1.390 . S
C3217 H3221 0.950 . S
H3218 C3214 0.950 . S
C3219 C3217 1.390 . S
C3219 C3220 1.387 . S
C3219 H3222 0.950 . S
C3220 C3219 1.387 . S
C3220 C3223 1.387 . S
H3221 C3217 0.950 . S
H3222 C3219 0.950 . S
C3223 C3214 1.390 . S
C3223 H3216 0.950 . S
C3223 C3220 1.387 . S
C3224 C3225 1.387 . S
C3224 H3228 0.950 . S
C3224 C3233 1.390 . S
C3225 C3224 1.387 . S
C3225 C3227 1.387 . S
H3226 C3233 0.950 . S
C3227 C3225 1.387 . S
C3227 C3229 1.390 . S
C3227 H3231 0.950 . S
H3228 C3224 0.950 . S
C3229 C3227 1.390 . S
C3229 C3230 1.387 . S
C3229 H3232 0.950 . S
C3230 C3229 1.387 . S
C3230 C3233 1.387 . S
H3231 C3227 0.950 . S
H3232 C3229 0.950 . S
C3233 C3224 1.390 . S
C3233 H3226 0.950 . S
C3233 C3230 1.387 . S
C3234 C3235 1.387 . S
C3234 H3238 0.950 . S
C3234 C3243 1.390 . S
C3235 C3234 1.387 . S
C3235 C3237 1.387 . S
H3236 C3243 0.950 . S
C3237 C3235 1.387 . S
C3237 C3239 1.390 . S
C3237 H3241 0.950 . S
H3238 C3234 0.950 . S
C3239 C3237 1.390 . S
C3239 C3240 1.387 . S
C3239 H3242 0.950 . S
C3240 C3239 1.387 . S
C3240 C3243 1.387 . S
H3241 C3237 0.950 . S
H3242 C3239 0.950 . S
C3243 C3234 1.390 . S
C3243 H3236 0.950 . S
C3243 C3240 1.387 . S
C3244 C3245 1.387 . S
C3244 H3248 0.950 . S
C3244 C3253 1.390 . S
C3245 C3244 1.387 . S
C3245 C3247 1.387 . S
H3246 C3253 0.950 . S
C3247 C3245 1.387 . S
C3247 C3249 1.390 . S
C3247 H3251 0.950 . S
H3248 C3244 0.950 . S
C3249 C3247 1.390 . S
C3249 C3250 1.387 . S
C3249 H3252 0.950 . S
C3250 C3249 1.387 . S
C3250 C3253 1.387 . S
H3251 C3247 0.950 . S
H3252 C3249 0.950 . S
C3253 C3244 1.390 . S
C3253 H3246 0.950 . S
C3253 C3250 1.387 . S
C3254 C3255 1.387 . S
C3254 H3258 0.950 . S
C3254 C3263 1.390 . S
C3255 C3254 1.387 . S
C3255 C3257 1.387 . S
H3256 C3263 0.950 . S
C3257 C3255 1.387 . S
C3257 C3259 1.390 . S
C3257 H3261 0.950 . S
H3258 C3254 0.950 . S
C3259 C3257 1.390 . S
C3259 C3260 1.387 . S
C3259 H3262 0.950 . S
C3260 C3259 1.387 . S
C3260 C3263 1.387 . S
H3261 C3257 0.950 . S
H3262 C3259 0.950 . S
C3263 C3254 1.390 . S
C3263 H3256 0.950 . S
C3263 C3260 1.387 . S
C1345 C9 1.427 . S
C1350 C1057 1.400 . S
C1355 C343 1.378 . S
C1360 C23 1.410 . S
C1365 C1029 1.399 . S
C1370 C37 1.428 . S
C1375 C371 1.379 . S
C1380 C51 1.410 . S
C1385 C65 1.429 . S
C1390 C1085 1.397 . S
C1395 C79 1.408 . S
C1400 C427 1.381 . S
C1405 C1113 1.397 . S
C1410 C93 1.429 . S
C1415 C107 1.408 . S
C1420 C399 1.381 . S
C1425 C119 1.407 . S
C1430 C1267 1.398 . S
C1435 C609 1.406 . S
C1440 C135 1.434 . S
C1445 C147 1.406 . S
C1450 C623 1.399 . S
C1455 C163 1.435 . S
C1460 C581 1.405 . S
C1465 C175 1.406 . S
C1470 C1323 1.396 . S
C1475 C191 1.434 . S
C1480 C1239 1.406 . S
C1485 C203 1.407 . S
C1490 C1337 1.395 . S
C1495 C219 1.434 . S
C1500 C1309 1.406 . S
C1505 C1141 1.379 . S
C1510 C233 1.404 . S
C1515 C247 1.414 . S
C1520 C553 1.383 . S
C1525 C259 1.403 . S
C1530 C1183 1.393 . S
C1535 C525 1.382 . S
C1540 C275 1.414 . S
C1545 C287 1.435 . S
C1550 C539 1.435 . S
C1555 C1169 1.376 . S
C1560 C303 1.406 . S
C1565 C315 1.400 . S
C1570 C1127 1.390 . S
C1575 C1155 1.392 . S
C1580 C329 1.400 . S
C1585 C721 1.329 . S
C1590 C345 1.370 . S
C1595 C7 1.361 . S
C1600 C359 1.397 . S
C1605 C373 1.370 . S
C1610 C693 1.329 . S
C1615 C387 1.398 . S
C1620 C35 1.358 . S
C1625 C401 1.369 . S
C1630 C749 1.330 . S
C1635 C91 1.358 . S
C1640 C415 1.399 . S
C1645 C429 1.370 . S
C1650 C777 1.329 . S
C1655 C443 1.397 . S
C1660 C63 1.361 . S
C1665 C457 1.335 . S
C1670 C933 1.247 . S
C1675 C273 1.321 . S
C1680 C471 1.364 . S
C1685 C485 1.333 . S
C1690 C289 1.250 . S
C1695 C245 1.319 . S
C1700 C499 1.365 . S
C1705 C513 1.334 . S
C1710 C989 1.247 . S
C1715 C527 1.364 . S
C1720 C903 1.320 . S
C1725 C541 1.335 . S
C1730 C1003 1.251 . S
C1735 C973 1.319 . S
C1740 C555 1.364 . S
C1745 C805 1.359 . S
C1750 C569 1.392 . S
C1755 C217 1.353 . S
C1760 C583 1.385 . S
C1765 C849 1.298 . S
C1770 C597 1.386 . S
C1775 C611 1.385 . S
C1780 C189 1.353 . S
C1785 C625 1.380 . S
C1790 C205 1.293 . S
C1795 C639 1.393 . S
C1800 C833 1.356 . S
C1805 C793 1.293 . S
C1810 C653 1.386 . S
C1815 C667 1.386 . S
C1820 C821 1.295 . S
C1825 C385 1.407 . S
C1830 C681 1.438 . S
C1835 C1015 1.377 . S
C1840 C695 1.402 . S
C1845 C709 1.437 . S
C1850 C357 1.407 . S
C1855 C1043 1.374 . S
C1860 C723 1.404 . S
C1865 C737 1.437 . S
C1870 C413 1.407 . S
C1875 C1099 1.377 . S
C1880 C751 1.402 . S
C1885 C765 1.438 . S
C1890 C441 1.408 . S
C1895 C1071 1.374 . S
C1900 C779 1.404 . S
C1905 C595 1.394 . S
C1910 C791 1.404 . S
C1915 C807 1.442 . S
C1920 C1281 1.410 . S
C1925 C1295 1.396 . S
C1930 C819 1.406 . S
C1935 C835 1.441 . S
C1940 C1253 1.411 . S
C1945 C651 1.394 . S
C1950 C847 1.404 . S
C1955 C863 1.441 . S
C1960 C567 1.412 . S
C1965 C665 1.396 . S
C1970 C875 1.406 . S
C1975 C637 1.412 . S
C1980 C891 1.441 . S
C1985 C469 1.385 . S
C1990 C905 1.412 . S
C1995 C1225 1.378 . S
C2000 C919 1.405 . S
C2005 C931 1.433 . S
C2010 C511 1.434 . S
C2015 C947 1.406 . S
C2020 C1197 1.376 . S
C2025 C1211 1.392 . S
C2030 C959 1.402 . S
C2035 C497 1.383 . S
C2040 C975 1.414 . S
C2045 C455 1.429 . S
C2050 C987 1.436 . S
C2055 C483 1.431 . S
C2060 C1001 1.436 . S
C2065 C1017 1.373 . S
C2070 C49 1.332 . S
C2075 C1031 1.376 . S
C2080 C679 1.348 . S
C2085 C1045 1.373 . S
C2090 C21 1.329 . S
C2095 C1059 1.376 . S
C2100 C707 1.347 . S
C2105 C77 1.331 . S
C2110 C1073 1.372 . S
C2115 C763 1.348 . S
C2120 C1087 1.376 . S
C2125 C105 1.328 . S
C2130 C1101 1.374 . S
C2135 C735 1.345 . S
C2140 C1115 1.377 . S
C2145 C1129 1.382 . S
C2150 C261 1.291 . S
C2155 C945 1.323 . S
C2160 C1143 1.366 . S
C2165 C1157 1.382 . S
C2170 C961 1.287 . S
C2175 C1171 1.366 . S
C2180 C917 1.322 . S
C2185 C317 1.292 . S
C2190 C1185 1.381 . S
C2195 C231 1.322 . S
C2200 C1199 1.366 . S
C2205 C1213 1.382 . S
C2210 C331 1.290 . S
C2215 C301 1.324 . S
C2220 C1227 1.366 . S
C2225 C1241 1.385 . S
C2230 C133 1.352 . S
C2235 C1255 1.394 . S
C2240 C889 1.356 . S
C2245 C177 1.289 . S
C2250 C1269 1.382 . S
C2255 C1283 1.392 . S
C2260 C861 1.359 . S
C2265 C877 1.293 . S
C2270 C1297 1.386 . S
C2275 C1311 1.387 . S
C2280 C161 1.350 . S
C2285 C1325 1.381 . S
C2290 C121 1.293 . S
C2295 C1339 1.381 . S
C2300 C149 1.293 . S
C2305 C3 1.362 . S
C2310 C610 1.424 . S
C2315 C624 1.442 . S
C2320 C17 1.373 . S
C2325 C582 1.424 . S
C2330 C31 1.363 . S
C2335 C45 1.372 . S
C2340 C1268 1.441 . S
C2345 C59 1.362 . S
C2350 C1310 1.423 . S
C2355 C73 1.373 . S
C2360 C1324 1.442 . S
C2365 C1240 1.424 . S
C2370 C87 1.366 . S
C2375 C1338 1.442 . S
C2380 C101 1.374 . S
C2385 C372 1.375 . S
C2390 C120 1.352 . S
C2395 C129 1.359 . S
C2400 C1058 1.414 . S
C2405 C344 1.374 . S
C2410 C148 1.351 . S
C2415 C1030 1.413 . S
C2420 C157 1.356 . S
C2425 C428 1.374 . S
C2430 C176 1.351 . S
C2435 C185 1.356 . S
C2440 C1114 1.413 . S
C2445 C204 1.352 . S
C2450 C400 1.375 . S
C2455 C213 1.356 . S
C2460 C1086 1.413 . S
C2465 C227 1.366 . S
C2470 C1184 1.434 . S
C2475 C456 1.444 . S
C2480 C241 1.382 . S
C2485 C260 1.355 . S
C2490 C1142 1.377 . S
C2495 C269 1.378 . S
C2500 C484 1.447 . S
C2505 C288 1.334 . S
C2510 C498 1.354 . S
C2515 C297 1.368 . S
C2520 C1212 1.435 . S
C2525 C1226 1.377 . S
C2530 C316 1.355 . S
C2535 C1198 1.376 . S
C2540 C330 1.352 . S
C2545 C274 1.422 . S
C2550 C339 1.361 . S
C2555 C353 1.410 . S
C2560 C283 1.464 . S
C2565 C367 1.359 . S
C2570 C246 1.421 . S
C2575 C381 1.413 . S
C2580 C927 1.465 . S
C2585 C974 1.421 . S
C2590 C395 1.360 . S
C2595 C983 1.463 . S
C2600 C409 1.411 . S
C2605 C423 1.359 . S
C2610 C904 1.422 . S
C2615 C997 1.464 . S
C2620 C437 1.413 . S
C2625 C451 1.349 . S
C2630 C36 1.414 . S
C2635 C722 1.420 . S
C2640 C465 1.362 . S
C2645 C479 1.351 . S
C2650 C8 1.413 . S
C2655 C694 1.420 . S
C2660 C493 1.361 . S
C2665 C507 1.348 . S
C2670 C92 1.412 . S
C2675 C778 1.420 . S
C2680 C521 1.362 . S
C2685 C64 1.419 . S
C2690 C535 1.345 . S
C2695 C750 1.420 . S
C2700 C549 1.361 . S
C2705 C563 1.405 . S
C2710 C843 1.459 . S
C2715 C577 1.407 . S
C2720 C115 1.460 . S
C2725 C806 1.460 . S
C2730 C591 1.383 . S
C2735 C605 1.407 . S
C2740 C143 1.459 . S
C2745 C162 1.463 . S
C2750 C619 1.388 . S
C2755 C871 1.458 . S
C2760 C633 1.403 . S
C2765 C890 1.461 . S
C2770 C647 1.386 . S
C2775 C862 1.460 . S
C2780 C661 1.383 . S
C2785 C675 1.366 . S
C2790 C1282 1.419 . S
C2795 C689 1.378 . S
C2800 C1296 1.446 . S
C2805 C703 1.362 . S
C2810 C1254 1.419 . S
C2815 C596 1.445 . S
C2820 C717 1.377 . S
C2825 C731 1.363 . S
C2830 C638 1.419 . S
C2835 C652 1.445 . S
C2840 C745 1.378 . S
C2845 C568 1.419 . S
C2850 C759 1.364 . S
C2855 C666 1.445 . S
C2860 C773 1.376 . S
C2865 C792 1.362 . S
C2870 C1044 1.384 . S
C2875 C386 1.431 . S
C2880 C801 1.372 . S
C2885 C820 1.360 . S
C2890 C1016 1.384 . S
C2895 C829 1.369 . S
C2900 C358 1.430 . S
C2905 C848 1.359 . S
C2910 C1100 1.383 . S
C2915 C857 1.372 . S
C2920 C442 1.431 . S
C2925 C1072 1.384 . S
C2930 C876 1.362 . S
C2935 C414 1.431 . S
C2940 C885 1.371 . S
C2945 C899 1.377 . S
C2950 C512 1.446 . S
C2955 C913 1.366 . S
C2960 C1128 1.434 . S
C2965 C932 1.334 . S
C2970 C470 1.354 . S
C2975 C1156 1.435 . S
C2980 C941 1.368 . S
C2985 C960 1.352 . S
C2990 C1170 1.376 . S
C2995 C969 1.378 . S
C3000 C540 1.447 . S
C3005 C554 1.354 . S
C3010 C988 1.334 . S
C3015 C1002 1.335 . S
C3020 C526 1.354 . S
C3025 C1011 1.358 . S
C3030 C946 1.417 . S
C3035 C955 1.449 . S
C3040 C1025 1.394 . S
C3045 C918 1.417 . S
C3050 C1039 1.358 . S
C3055 C1053 1.396 . S
C3060 C255 1.449 . S
C3065 C1067 1.354 . S
C3070 C302 1.416 . S
C3075 C1081 1.393 . S
C3080 C311 1.448 . S
C3085 C232 1.416 . S
C3090 C1095 1.355 . S
C3095 C1109 1.393 . S
C3100 C325 1.448 . S
C3105 C1123 1.382 . S
C3110 C708 1.456 . S
C3115 C1137 1.356 . S
C3120 C50 1.418 . S
C3125 C1151 1.378 . S
C3130 C680 1.455 . S
C3135 C1165 1.359 . S
C3140 C22 1.419 . S
C3145 C1179 1.378 . S
C3150 C764 1.455 . S
C3155 C1193 1.359 . S
C3160 C106 1.419 . S
C3165 C1207 1.382 . S
C3170 C736 1.456 . S
C3175 C1221 1.360 . S
C3180 C78 1.419 . S
C3185 C1235 1.404 . S
C3190 C171 1.459 . S
C3195 C1249 1.404 . S
C3200 C787 1.458 . S
C3205 C1263 1.388 . S
C3210 C134 1.463 . S
C3215 C1277 1.405 . S
C3220 C815 1.459 . S
C3225 C1291 1.383 . S
C3230 C834 1.460 . S
C3235 C199 1.460 . S
C3240 C1305 1.405 . S
C3245 C1319 1.384 . S
C3250 C218 1.462 . S
C3255 C1333 1.385 . S
C3260 C190 1.462 . S
