# Generated by pormake.
# Topology uou, (4)-cn, num edge types: 1
# Building blocks:
#     Node 0, Type 0, BuildingBlock: AZAVOO_clean_sbu_0, # of connection points: 4
#     Node 1, Type 0, BuildingBlock: AZAVOO_clean_sbu_0, # of connection points: 4
#     Node 2, Type 0, BuildingBlock: AZAVOO_clean_sbu_0, # of connection points: 4
#     Node 3, Type 0, BuildingBlock: AZAVOO_clean_sbu_0, # of connection points: 4
#     Node 4, Type 0, BuildingBlock: AZAVOO_clean_sbu_0, # of connection points: 4
#     Node 5, Type 0, BuildingBlock: AZAVOO_clean_sbu_0, # of connection points: 4
#     Node 6, Type 0, BuildingBlock: AZAVOO_clean_sbu_0, # of connection points: 4
#     Node 7, Type 0, BuildingBlock: AZAVOO_clean_sbu_0, # of connection points: 4
#     Node 8, Type 0, BuildingBlock: AZAVOO_clean_sbu_0, # of connection points: 4
#     Node 9, Type 0, BuildingBlock: AZAVOO_clean_sbu_0, # of connection points: 4
#     Node 10, Type 0, BuildingBlock: AZAVOO_clean_sbu_0, # of connection points: 4
#     Node 11, Type 0, BuildingBlock: AZAVOO_clean_sbu_0, # of connection points: 4
#     Node 12, Type 0, BuildingBlock: AZAVOO_clean_sbu_0, # of connection points: 4
#     Node 13, Type 0, BuildingBlock: AZAVOO_clean_sbu_0, # of connection points: 4
#     Node 14, Type 0, BuildingBlock: AZAVOO_clean_sbu_0, # of connection points: 4
#     Node 15, Type 0, BuildingBlock: AZAVOO_clean_sbu_0, # of connection points: 4
#     Edge 16, Type (0, 0), BuildingBlock: OJICUG_clean_linker_0, # of connection points: 2
#     Edge 17, Type (0, 0), BuildingBlock: OJICUG_clean_linker_0, # of connection points: 2
#     Edge 18, Type (0, 0), BuildingBlock: OJICUG_clean_linker_0, # of connection points: 2
#     Edge 19, Type (0, 0), BuildingBlock: OJICUG_clean_linker_0, # of connection points: 2
#     Edge 20, Type (0, 0), BuildingBlock: OJICUG_clean_linker_0, # of connection points: 2
#     Edge 21, Type (0, 0), BuildingBlock: OJICUG_clean_linker_0, # of connection points: 2
#     Edge 22, Type (0, 0), BuildingBlock: OJICUG_clean_linker_0, # of connection points: 2
#     Edge 23, Type (0, 0), BuildingBlock: OJICUG_clean_linker_0, # of connection points: 2
#     Edge 24, Type (0, 0), BuildingBlock: OJICUG_clean_linker_0, # of connection points: 2
#     Edge 25, Type (0, 0), BuildingBlock: OJICUG_clean_linker_0, # of connection points: 2
#     Edge 26, Type (0, 0), BuildingBlock: OJICUG_clean_linker_0, # of connection points: 2
#     Edge 27, Type (0, 0), BuildingBlock: OJICUG_clean_linker_0, # of connection points: 2
#     Edge 28, Type (0, 0), BuildingBlock: OJICUG_clean_linker_0, # of connection points: 2
#     Edge 29, Type (0, 0), BuildingBlock: OJICUG_clean_linker_0, # of connection points: 2
#     Edge 30, Type (0, 0), BuildingBlock: OJICUG_clean_linker_0, # of connection points: 2
#     Edge 31, Type (0, 0), BuildingBlock: OJICUG_clean_linker_0, # of connection points: 2
#     Edge 32, Type (0, 0), BuildingBlock: OJICUG_clean_linker_0, # of connection points: 2
#     Edge 33, Type (0, 0), BuildingBlock: OJICUG_clean_linker_0, # of connection points: 2
#     Edge 34, Type (0, 0), BuildingBlock: OJICUG_clean_linker_0, # of connection points: 2
#     Edge 35, Type (0, 0), BuildingBlock: OJICUG_clean_linker_0, # of connection points: 2
#     Edge 36, Type (0, 0), BuildingBlock: OJICUG_clean_linker_0, # of connection points: 2
#     Edge 37, Type (0, 0), BuildingBlock: OJICUG_clean_linker_0, # of connection points: 2
#     Edge 38, Type (0, 0), BuildingBlock: OJICUG_clean_linker_0, # of connection points: 2
#     Edge 39, Type (0, 0), BuildingBlock: OJICUG_clean_linker_0, # of connection points: 2
#     Edge 40, Type (0, 0), BuildingBlock: OJICUG_clean_linker_0, # of connection points: 2
#     Edge 41, Type (0, 0), BuildingBlock: OJICUG_clean_linker_0, # of connection points: 2
#     Edge 42, Type (0, 0), BuildingBlock: OJICUG_clean_linker_0, # of connection points: 2
#     Edge 43, Type (0, 0), BuildingBlock: OJICUG_clean_linker_0, # of connection points: 2
#     Edge 44, Type (0, 0), BuildingBlock: OJICUG_clean_linker_0, # of connection points: 2
#     Edge 45, Type (0, 0), BuildingBlock: OJICUG_clean_linker_0, # of connection points: 2
#     Edge 46, Type (0, 0), BuildingBlock: OJICUG_clean_linker_0, # of connection points: 2
#     Edge 47, Type (0, 0), BuildingBlock: OJICUG_clean_linker_0, # of connection points: 2
# Relax obj value: 0.175
# Max RMSD: 0.214
# Mean RMSD: 0.188
data_MOF--net-uou--node1-AZAVOO_clean_sbu_0--edge1-OJICUG_clean_linker_0
_symmetry_space_group_name_H-M    P1
_symmetry_Int_Tables_number       1
_symmetry_cell_setting            triclinic
loop_
_symmetry_equiv_pos_as_xyz
'x, y, z'
_cell_length_a     29.359355
_cell_length_b     26.397671
_cell_length_c     38.360574
_cell_angle_alpha  89.373345
_cell_angle_beta   90.358194
_cell_angle_gamma 90.124612
loop_
_atom_site_label
_atom_site_type_symbol
_atom_site_fract_x
_atom_site_fract_y
_atom_site_fract_z
_atom_type_partial_charge
Mg0 Mg 0.11041 0.0304 0.14655 0.0
O1 O 0.05422 0.02407 0.18637 0.0
O2 O 0.03307 0.94391 0.19505 0.0
Mg3 Mg 0.07937 0.89762 0.15919 0.0
C4 C 0.02957 0.99101 0.20162 0.0
C5 C 0.0915 0.13634 0.11264 0.0
O6 O 0.10289 0.11164 0.08445 0.0
O7 O 0.06239 1.01336 0.10212 0.0
O8 O 0.04632 0.93104 0.10905 0.0
O9 O 0.16158 0.02188 0.18881 0.0
O10 O 0.13227 0.95807 0.15914 0.0
C11 C 0.04318 0.97276 0.09194 0.0
C12 C 0.15933 0.97351 0.18339 0.0
O13 O 0.09432 0.11408 0.14209 0.0
Mg14 Mg 0.38647 0.87078 0.13451 0.0
O15 O 0.41811 0.92602 0.17276 0.0
O16 O 0.37747 0.99751 0.17348 0.0
Mg17 Mg 0.31679 0.98551 0.13616 0.0
C18 C 0.41101 0.97057 0.18411 0.0
C19 C 0.4701 0.8095 0.10723 0.0
O20 O 0.4526 0.8234 0.07702 0.0
O21 O 0.41116 0.91941 0.08924 0.0
O22 O 0.36378 0.98578 0.0882 0.0
O23 O 0.34406 0.83839 0.17778 0.0
O24 O 0.32465 0.90303 0.14324 0.0
C25 C 0.39651 0.96042 0.07529 0.0
C26 C 0.31629 0.87489 0.17003 0.0
O27 O 0.45112 0.82377 0.13513 0.0
Mg28 Mg 0.61166 1.00198 0.34921 0.0
O29 O 0.5552 1.00845 0.30911 0.0
O30 O 0.53405 0.08863 0.30068 0.0
Mg31 Mg 0.5803 0.1347 0.33723 0.0
C32 C 0.53052 0.04159 0.29384 0.0
C33 C 0.59337 0.89537 0.38235 0.0
O34 O 0.60486 0.91974 0.41078 0.0
O35 O 0.56377 0.01805 0.39341 0.0
O36 O 0.54721 0.10024 0.38677 0.0
O37 O 0.66236 1.01124 0.30722 0.0
O38 O 0.63329 0.0746 0.3371 0.0
C39 C 0.54426 0.05827 0.40359 0.0
C40 C 0.65999 0.05954 0.31279 0.0
O41 O 0.59582 0.91813 0.35308 0.0
Mg42 Mg 0.88781 0.16272 0.35997 0.0
O43 O 0.91848 0.1073 0.32178 0.0
O44 O 0.8773 0.03602 0.32093 0.0
Mg45 Mg 0.81714 0.0484 0.35809 0.0
C46 C 0.91093 0.0628 0.3104 0.0
C47 C 0.97256 0.22388 0.38694 0.0
O48 O 0.95585 0.21014 0.41731 0.0
O49 O 0.91265 0.11404 0.40541 0.0
O50 O 0.86458 0.04805 0.40621 0.0
O51 O 0.84497 0.19533 0.31666 0.0
O52 O 0.82559 0.13085 0.35126 0.0
C53 C 0.89764 0.07317 0.41931 0.0
C54 C 0.81696 0.15909 0.32451 0.0
O55 O 0.95278 0.20945 0.35921 0.0
Mg56 Mg 0.91822 0.96223 0.89815 0.0
O57 O 0.93248 0.87524 0.90117 0.0
O58 O 0.90395 0.8495 0.95222 0.0
Mg59 Mg 0.86869 0.91506 0.9798 0.0
C60 C 0.92606 0.84077 0.92436 0.0
C61 C 0.9652 0.99799 0.83064 0.0
O62 O 0.98006 0.03111 0.85339 0.0
O63 O 0.84178 0.95598 0.88493 0.0
O64 O 0.81543 0.93211 0.93705 0.0
O65 O 0.98327 0.97562 0.92754 0.0
O66 O 0.91627 0.96548 0.95259 0.0
C67 C 0.80872 0.94621 0.90546 0.0
C68 C 0.95956 0.971 0.95574 0.0
O69 O 0.93803 0.96339 0.8408 0.0
Mg70 Mg 0.52236 0.03536 0.88884 0.0
O71 O 0.51481 0.12153 0.89763 0.0
O72 O 0.54202 0.13542 0.95103 0.0
Mg73 Mg 0.56879 0.06111 0.97564 0.0
C74 C 0.52265 0.15119 0.92305 0.0
C75 C 0.51957 1.01543 0.80954 0.0
O76 O 0.54322 0.97629 0.82082 0.0
O77 O 0.60021 0.03594 0.87946 0.0
O78 O 0.62282 0.04128 0.93504 0.0
O79 O 0.45467 0.0235 0.91577 0.0
O80 O 0.52139 0.01975 0.9422 0.0
C81 C 0.63135 0.03377 0.9029 0.0
C82 C 0.47795 0.01716 0.94426 0.0
O83 O 0.50617 0.04795 0.83137 0.0
Mg84 Mg 0.41967 0.06621 0.59631 0.0
O85 O 0.43403 0.15321 0.59317 0.0
O86 O 0.40467 0.17869 0.54208 0.0
Mg87 Mg 0.3687 0.11292 0.51476 0.0
C88 C 0.42727 0.18757 0.56991 0.0
C89 C 0.46713 0.03094 0.6642 0.0
O90 O 0.48185 0.99753 0.64178 0.0
O91 O 0.34366 0.07251 0.60966 0.0
O92 O 0.31605 0.09641 0.55769 0.0
O93 O 0.48424 0.05301 0.56713 0.0
O94 O 0.41692 0.06276 0.54189 0.0
C95 C 0.31013 0.08242 0.58935 0.0
C96 C 0.46021 0.0575 0.53886 0.0
O97 O 0.44011 0.06545 0.65361 0.0
Mg98 Mg 0.02301 0.99578 0.60665 0.0
O99 O 0.01506 0.90979 0.597 0.0
O100 O 0.04165 0.89691 0.54355 0.0
Mg101 Mg 0.06861 0.97155 0.51972 0.0
C102 C 0.02253 0.88062 0.57133 0.0
C103 C 0.0193 1.01489 0.68612 0.0
O104 O 0.04233 0.05475 0.67531 0.0
O105 O 0.10098 0.99495 0.61636 0.0
O106 O 0.123 0.99013 0.56081 0.0
O107 O 0.95527 1.00839 0.57928 0.0
O108 O 0.02192 1.01242 0.55342 0.0
C109 C 0.13192 0.99713 0.59303 0.0
C110 C 0.97852 1.01524 0.55104 0.0
O111 O 0.00678 0.98214 0.66398 0.0
Mg112 Mg 0.61342 0.53549 0.14766 0.0
O113 O 0.5579 0.52809 0.18799 0.0
O114 O 0.537 0.44766 0.19585 0.0
Mg115 Mg 0.58285 0.40227 0.15917 0.0
C116 C 0.53354 0.49456 0.20304 0.0
C117 C 0.59407 0.64211 0.11503 0.0
O118 O 0.60545 0.61809 0.08657 0.0
O119 O 0.56465 0.51928 0.10343 0.0
O120 O 0.54914 0.43672 0.10971 0.0
O121 O 0.66552 0.52595 0.1893 0.0
O122 O 0.63544 0.46296 0.15927 0.0
C123 C 0.54552 0.47875 0.09303 0.0
C124 C 0.66298 0.47773 0.18338 0.0
O125 O 0.59711 0.61922 0.14424 0.0
Mg126 Mg 0.88625 0.36796 0.13066 0.0
O127 O 0.91955 0.42388 0.16764 0.0
O128 O 0.87972 0.49593 0.16807 0.0
Mg129 Mg 0.81816 0.48387 0.13161 0.0
C130 C 0.91322 0.4688 0.17856 0.0
C131 C 0.96881 0.30475 0.1033 0.0
O132 O 0.95109 0.31805 0.07304 0.0
O133 O 0.9104 0.41472 0.08435 0.0
O134 O 0.86413 0.48204 0.0831 0.0
O135 O 0.84471 0.33774 0.1751 0.0
O136 O 0.82507 0.40147 0.13981 0.0
C137 C 0.89611 0.45565 0.07008 0.0
C138 C 0.81721 0.37444 0.16722 0.0
O139 O 0.95033 0.32002 0.13114 0.0
Mg140 Mg 0.11301 0.49927 0.34449 0.0
O141 O 0.05745 0.50599 0.30363 0.0
O142 O 0.03635 0.58624 0.29547 0.0
Mg143 Mg 0.08199 0.6321 0.33259 0.0
C144 C 0.03303 0.5393 0.28828 0.0
C145 C 0.09512 0.39276 0.37747 0.0
O146 O 0.10724 0.41721 0.40571 0.0
O147 O 0.06428 0.51519 0.3882 0.0
O148 O 0.04821 0.59754 0.38182 0.0
O149 O 0.16484 0.50886 0.30327 0.0
O150 O 0.13492 0.57193 0.33292 0.0
C151 C 0.04486 0.55544 0.39843 0.0
C152 C 0.16236 0.55711 0.30904 0.0
O153 O 0.09706 0.41543 0.34814 0.0
Mg154 Mg 0.38854 0.66295 0.36149 0.0
O155 O 0.42084 0.60815 0.32364 0.0
O156 O 0.38066 0.53617 0.32236 0.0
Mg157 Mg 0.31967 0.54733 0.3589 0.0
C158 C 0.41411 0.56352 0.31219 0.0
C159 C 0.47159 0.72555 0.38971 0.0
O160 O 0.45414 0.71158 0.41977 0.0
O161 O 0.41329 0.61469 0.40708 0.0
O162 O 0.36634 0.54771 0.40748 0.0
O163 O 0.34619 0.69478 0.31766 0.0
O164 O 0.327 0.6299 0.35197 0.0
C165 C 0.39879 0.5735 0.42083 0.0
C166 C 0.31861 0.65793 0.32507 0.0
O167 O 0.45281 0.71083 0.36165 0.0
Mg168 Mg 0.4209 0.46652 0.89923 0.0
O169 O 0.43557 0.37966 0.90292 0.0
O170 O 0.40696 0.35443 0.95408 0.0
Mg171 Mg 0.3712 0.42025 0.98102 0.0
C172 C 0.42919 0.34546 0.92632 0.0
C173 C 0.444 0.50959 0.8265 0.0
O174 O 0.43517 0.55089 0.84402 0.0
O175 O 0.34466 0.4593 0.88575 0.0
O176 O 0.31808 0.43586 0.9379 0.0
O177 O 0.48569 0.48102 0.92871 0.0
O178 O 0.41862 0.47062 0.9536 0.0
C179 C 0.31152 0.44938 0.90617 0.0
C180 C 0.46185 0.47662 0.95686 0.0
O181 O 0.44077 0.46693 0.84195 0.0
Mg182 Mg 0.024 0.5325 0.88477 0.0
O183 O 0.0147 0.61833 0.89434 0.0
O184 O 0.03988 0.63134 0.94842 0.0
Mg185 Mg 0.0671 0.55712 0.97278 0.0
C186 C 0.02118 0.64746 0.92026 0.0
C187 C 0.02351 0.51398 0.80524 0.0
O188 O 0.04738 0.47501 0.81653 0.0
O189 O 0.10218 0.5348 0.87689 0.0
O190 O 0.12261 0.53934 0.933 0.0
O191 O 0.95568 0.51861 0.91046 0.0
O192 O 0.02173 0.51562 0.93788 0.0
C193 C 0.13247 0.53267 0.901 0.0
C194 C 0.97831 0.51204 0.93922 0.0
O195 O 0.00925 0.54594 0.82714 0.0
Mg196 Mg 0.92271 0.56413 0.59216 0.0
O197 O 0.93671 0.65114 0.58918 0.0
O198 O 0.90657 0.67715 0.53848 0.0
Mg199 Mg 0.87043 0.61136 0.51124 0.0
C200 C 0.92949 0.68577 0.56621 0.0
C201 C 0.97178 0.52949 0.65975 0.0
O202 O -0.01286 0.49657 0.63725 0.0
O203 O 0.84696 0.57029 0.60622 0.0
O204 O 0.8184 0.59459 0.55463 0.0
O205 O -0.0132 0.55113 0.56231 0.0
O206 O 0.91909 0.56097 0.53772 0.0
C207 C 0.81306 0.58037 0.58631 0.0
C208 C 0.96231 0.55564 0.53427 0.0
O209 O 0.94393 0.56326 0.6493 0.0
Mg210 Mg 0.52588 0.49684 0.6075 0.0
O211 O 0.51636 0.41073 0.59887 0.0
O212 O 0.54199 0.39641 0.54533 0.0
Mg213 Mg 0.56968 0.46995 0.52045 0.0
C214 C 0.52301 0.38097 0.57339 0.0
C215 C 0.49776 0.5241 0.68181 0.0
O216 O 0.49574 0.56795 0.66533 0.0
O217 O 0.60396 0.49487 0.61652 0.0
O218 O 0.62496 0.48853 0.56082 0.0
O219 O 0.4579 0.51018 0.58071 0.0
O220 O 0.52415 0.51232 0.55416 0.0
C221 C 0.63453 0.49605 0.59287 0.0
C222 C 0.48077 0.516 0.55219 0.0
O223 O 0.51021 0.48527 0.66508 0.0
C224 C 0.23575 0.86207 0.18375 0.0
C225 C 0.27679 0.88681 0.19122 0.0
H226 H 0.16401 0.87073 0.17666 0.0
C227 C 0.27606 0.9339 0.2077 0.0
H228 H 0.23579 0.82569 0.17092 0.0
C229 C 0.23507 0.95996 0.21093 0.0
C230 C 0.19489 0.93919 0.19702 0.0
H231 H 0.30761 0.95342 0.21371 0.0
H232 H 0.23616 0.99885 0.21963 0.0
C233 C 0.19471 0.88816 0.18679 0.0
C234 C 0.7345 0.07417 0.28415 0.0
C235 C 0.69491 0.09436 0.29891 0.0
H236 H 0.80685 0.08147 0.28013 0.0
C237 C 0.69499 0.14525 0.30941 0.0
H238 H 0.73532 0.03541 0.27519 0.0
C239 C 0.73604 0.17175 0.31184 0.0
C240 C 0.77683 0.14752 0.30351 0.0
H241 H 0.66471 0.16224 0.32018 0.0
H242 H 0.73652 0.20793 0.32491 0.0
C243 C 0.77552 0.10064 0.28674 0.0
C244 C 0.75284 1.00493 0.87533 0.0
C245 C 0.76147 0.96111 0.89577 0.0
H246 H 0.70428 0.06327 0.86143 0.0
C247 C 0.72501 0.93828 0.91349 0.0
H248 H 0.78039 0.0238 0.86172 0.0
C249 C 0.68217 0.96093 0.91348 0.0
C250 C 0.67442 1.00693 0.89569 0.0
H251 H 0.73037 0.90461 0.92939 0.0
H252 H 0.65549 0.94379 0.9291 0.0
C253 C 0.70947 0.02781 0.87533 0.0
C254 C 0.18302 0.07 0.58329 0.0
C255 C 0.17535 0.02351 0.60046 0.0
H256 H 0.23148 0.126 0.5673 0.0
C257 C 0.21097 1.00139 0.61982 0.0
H258 H 0.15594 0.08799 0.56836 0.0
C259 C 0.25467 0.02365 0.61945 0.0
C260 C 0.26308 0.06798 0.59953 0.0
H261 H 0.20588 0.96546 0.63313 0.0
H262 H 0.28252 1.00391 0.63227 0.0
C263 C 0.22624 0.09195 0.58281 0.0
C264 C 0.73696 0.36431 0.18282 0.0
C265 C 0.77881 0.38804 0.18909 0.0
H266 H 0.66521 0.37476 0.17745 0.0
C267 C 0.77982 0.43549 0.20511 0.0
H268 H 0.73566 0.32768 0.17036 0.0
C269 C 0.73958 0.46274 0.20908 0.0
C270 C 0.6984 0.44276 0.19639 0.0
H271 H 0.81201 0.45423 0.2102 0.0
H272 H 0.74187 0.50177 0.21735 0.0
C273 C 0.69668 0.39157 0.18663 0.0
C274 C 0.27913 0.59847 0.28676 0.0
C275 C 0.27933 0.6455 0.30336 0.0
H276 H 0.23985 0.53304 0.27405 0.0
C277 C 0.23803 0.66958 0.31033 0.0
H278 H 0.31088 0.57946 0.28117 0.0
C279 C 0.19724 0.64291 0.30661 0.0
C280 C 0.1979 0.59198 0.2962 0.0
H281 H 0.23767 0.70588 0.32325 0.0
H282 H 0.16631 0.65985 0.31632 0.0
C283 C 0.23838 0.57185 0.28286 0.0
C284 C 0.18462 0.46144 0.91293 0.0
C285 C 0.17626 0.50684 0.89456 0.0
H286 H 0.23361 0.40664 0.92991 0.0
C287 C 0.21123 0.52808 0.87429 0.0
H288 H 0.15801 0.44396 0.92844 0.0
C289 C 0.25505 0.50626 0.87499 0.0
C290 C 0.26417 0.46313 0.89599 0.0
H291 H 0.20558 0.56306 0.85992 0.0
H292 H 0.28246 0.52545 0.86141 0.0
C293 C 0.22788 0.43984 0.91361 0.0
C294 C 0.68573 0.56852 0.58212 0.0
C295 C 0.67827 0.52219 0.59955 0.0
H296 H 0.73405 0.6241 0.56519 0.0
C297 C 0.71431 0.4999 0.61835 0.0
H298 H 0.65834 0.5866 0.56758 0.0
C299 C 0.7581 0.52187 0.61722 0.0
C300 C 0.7662 0.56606 0.59707 0.0
H301 H 0.70941 0.46406 0.63182 0.0
H302 H 0.78618 0.50204 0.62966 0.0
C303 C 0.72905 0.59016 0.58086 0.0
C304 C 0.9722 0.07614 0.26651 0.0
C305 C 0.94108 0.04323 0.28283 0.0
H306 H 0.02367 0.0858 0.22818 0.0
C307 C 0.9386 0.9926 0.27185 0.0
H308 H 0.97491 0.11547 0.27403 0.0
C309 C 0.96705 0.97528 0.24529 0.0
C310 C -0.00189 1.00845 0.22904 0.0
H311 H 0.91489 0.9663 0.28384 0.0
H312 H 0.96469 0.93604 0.23753 0.0
C313 C 0.00012 0.05909 0.23994 0.0
C314 C 0.47286 0.95704 0.22804 0.0
C315 C 0.44153 0.98997 0.21182 0.0
H316 H 0.52467 0.94718 0.26655 0.0
C317 C 0.43911 0.04044 0.22311 0.0
H318 H 0.47555 0.91784 0.22027 0.0
C319 C 0.46775 0.05756 0.24991 0.0
C320 C 0.49895 0.02434 0.2661 0.0
H321 H 0.41524 0.06674 0.2112 0.0
H322 H 0.46539 0.09667 0.25793 0.0
C323 C 0.50098 0.9739 0.25486 0.0
C324 C 0.97852 0.96925 0.73451 0.0
C325 C 0.00649 1.00945 0.72325 0.0
H326 H 0.94339 0.93411 0.7772 0.0
C327 C 0.02129 0.04524 0.74771 0.0
H328 H 0.96649 0.94103 0.71633 0.0
C329 C 0.0081 0.04124 0.78256 0.0
C330 C 0.9797 1.00143 0.79377 0.0
H331 H 0.04291 0.07664 0.73994 0.0
H332 H 0.01997 0.06966 0.80065 0.0
C333 C 0.9652 0.96532 0.7694 0.0
C334 C 0.50977 0.98837 0.71301 0.0
C335 C 0.48135 0.02786 0.70125 0.0
H336 H 0.54416 0.95353 0.75632 0.0
C337 C 0.46641 0.06396 0.72527 0.0
H338 H 0.52196 0.95997 0.69519 0.0
C339 C 0.47925 0.06033 0.76037 0.0
C340 C 0.50723 0.02045 0.7722 0.0
H341 H 0.44457 0.09493 0.71704 0.0
H342 H 0.46688 0.08854 0.77827 0.0
C343 C 0.52252 0.98467 0.74809 0.0
C344 C 0.50459 0.56136 0.24264 0.0
C345 C 0.50227 0.51119 0.23083 0.0
H346 H 0.47935 0.61675 0.27748 0.0
C347 C 0.47092 0.47768 0.2464 0.0
H348 H 0.52845 0.58826 0.23145 0.0
C349 C 0.4423 0.4943 0.27305 0.0
C350 C 0.44488 0.54455 0.28482 0.0
H351 H 0.46834 0.43877 0.23795 0.0
H352 H 0.41824 0.4678 0.28442 0.0
C353 C 0.47648 0.57772 0.26931 0.0
C354 C 0.97018 0.55547 0.24446 0.0
C355 C 0.00187 0.52237 0.26019 0.0
H356 H 0.9171 0.56465 0.20622 0.0
C357 C 0.00457 0.4723 0.24828 0.0
H358 H 0.96732 0.59431 0.25298 0.0
C359 C 0.9764 0.4556 0.22144 0.0
C360 C 0.94435 0.48831 0.20585 0.0
H361 H 0.02873 0.44573 0.25955 0.0
H362 H 0.97953 0.41663 0.21324 0.0
C363 C 0.9415 0.53851 0.21763 0.0
C364 C 0.47268 0.56371 0.73744 0.0
C365 C 0.48463 0.52008 0.71894 0.0
H366 H 0.45056 0.59461 0.78574 0.0
C367 C 0.48322 0.47281 0.73615 0.0
H368 H 0.4734 0.60073 0.72499 0.0
C369 C 0.46993 0.46927 0.77106 0.0
C370 C 0.45793 0.51296 0.78951 0.0
H371 H 0.49215 0.43846 0.72263 0.0
H372 H 0.46912 0.4323 0.78357 0.0
C373 C 0.45955 0.5602 0.77231 0.0
C374 C 0.02767 0.48394 0.74365 0.0
C375 C 0.01161 0.51921 0.76782 0.0
H376 H 0.02779 0.45957 0.69067 0.0
C377 C 0.98314 0.55866 0.756 0.0
H378 H 0.04971 0.45315 0.75187 0.0
C379 C 0.97045 0.56227 0.72087 0.0
C380 C -0.01394 0.52659 0.6968 0.0
H381 H 0.97019 0.58648 0.77394 0.0
H382 H 0.94816 0.59284 0.71267 0.0
C383 C 0.01507 0.48762 0.70853 0.0
C384 C 0.0531 0.20414 0.07711 0.0
C385 C 0.06712 0.18514 0.10981 0.0
H386 H 0.01099 0.25718 0.04934 0.0
C387 C 0.05294 0.20998 0.14007 0.0
H388 H 0.0636 0.186 0.05328 0.0
C389 C 0.02278 0.25065 0.13781 0.0
C390 C 0.00612 0.26731 0.10525 0.0
H391 H 0.06347 0.19659 0.16567 0.0
H392 H 0.01104 0.26756 0.16173 0.0
C393 C 0.02283 0.24486 0.07485 0.0
C394 C 0.52416 0.75498 0.14138 0.0
C395 C 0.50774 0.77245 0.10893 0.0
H396 H 0.56496 0.7005 0.16874 0.0
C397 C 0.52501 0.7511 0.07834 0.0
H398 H 0.51199 0.77104 0.16545 0.0
C399 C 0.55559 0.71063 0.08022 0.0
C400 C 0.56937 0.69078 0.11275 0.0
H401 H 0.51339 0.76406 0.05292 0.0
H402 H 0.56652 0.69333 0.05622 0.0
C403 C 0.55464 0.71457 0.14326 0.0
C404 C 0.52518 0.78065 0.35593 0.0
C405 C 0.50881 0.7633 0.38827 0.0
H406 H 0.56538 0.83561 0.32871 0.0
C407 C 0.52561 0.78543 0.41894 0.0
H408 H 0.51337 0.764 0.33181 0.0
C409 C 0.55565 0.82653 0.41716 0.0
C410 C 0.56932 0.84623 0.38468 0.0
H411 H 0.514 0.77259 0.44429 0.0
H412 H 0.5662 0.84442 0.44118 0.0
C413 C 0.5551 0.82169 0.35415 0.0
C414 C 0.05568 0.31929 0.34992 0.0
C415 C 0.07093 0.34374 0.3802 0.0
H416 H 0.01295 0.2619 0.32832 0.0
C417 C 0.05811 0.32413 0.41292 0.0
H418 H 0.06527 0.33314 0.32431 0.0
C419 C 0.02791 0.28324 0.41522 0.0
C420 C 0.01005 0.26123 0.38486 0.0
H421 H 0.06948 0.34194 0.43675 0.0
H422 H 0.01697 0.27049 0.44077 0.0
C423 C 0.02558 0.27845 0.35223 0.0
C424 C -0.01343 0.72375 0.88899 0.0
C425 C -0.00016 0.69879 0.92011 0.0
H426 H 0.95332 0.78865 0.86563 0.0
C427 C -0.01145 0.72119 0.95199 0.0
H428 H -0.00557 0.70742 0.86396 0.0
C429 C 0.9639 0.76635 0.9529 0.0
C430 C 0.95046 0.79142 0.92198 0.0
H431 H -0.00241 0.70306 0.97653 0.0
H432 H 0.95584 0.782 0.97811 0.0
C433 C 0.96277 0.77007 0.88991 0.0
C434 C 0.46479 0.27381 0.89218 0.0
C435 C 0.45354 0.29608 0.92417 0.0
H436 H 0.49511 0.21013 0.8665 0.0
C437 C 0.46771 0.27174 0.95517 0.0
H438 H 0.45474 0.29182 0.86783 0.0
C439 C 0.49196 0.2263 0.95442 0.0
C440 C 0.50206 0.20289 0.92264 0.0
H441 H 0.46044 0.28815 0.98029 0.0
H442 H 0.50153 0.20869 0.97902 0.0
C443 C 0.48816 0.22722 0.89144 0.0
C444 C 0.46542 0.26146 0.54118 0.0
C445 C 0.45187 0.23692 0.57217 0.0
H446 H 0.49933 0.32436 0.51738 0.0
C447 C 0.46421 0.25884 0.60418 0.0
H448 H 0.45734 0.24535 0.51603 0.0
C449 C 0.48813 0.30521 0.60497 0.0
C450 C 0.50151 0.32964 0.57378 0.0
H451 H 0.45467 0.24066 0.62851 0.0
H452 H 0.496 0.322 0.62993 0.0
C453 C 0.49021 0.30665 0.54197 0.0
C454 C -0.01114 0.80365 0.60219 0.0
C455 C 0.00186 0.82889 0.57121 0.0
H456 H 0.95632 0.73813 0.62518 0.0
C457 C -0.00909 0.8063 0.5392 0.0
H458 H -0.00351 0.82011 0.6273 0.0
C459 C 0.96676 0.76069 0.53802 0.0
C460 C 0.95357 0.73538 0.5688 0.0
H461 H -0.00023 0.82465 0.51476 0.0
H462 H 0.95885 0.7449 0.51273 0.0
C463 C 0.96562 0.7569 0.601 0.0
C464 C 0.0154 1.00604 -0.00189 0.0
C465 C 0.98129 0.97066 0.99035 0.0
H466 H 0.06075 0.03541 0.0368 0.0
C467 C 0.96702 0.93628 0.01628 0.0
H468 H 0.02674 0.03303 0.97851 0.0
C469 C -0.01317 0.93705 0.04948 0.0
C470 C 0.02047 0.97302 0.05751 0.0
H471 H 0.94123 0.90814 0.01074 0.0
H472 H 0.97573 0.90965 0.06889 0.0
C473 C 0.03441 1.00768 0.03153 0.0
C474 C 0.48268 0.98103 0.00414 0.0
C475 C 0.45669 1.00567 0.97817 0.0
H476 H 0.48382 0.94698 0.05497 0.0
C477 C 0.41097 0.01729 0.98483 0.0
H478 H 0.51801 0.97135 -0.00029 0.0
C479 C 0.39161 1.00419 0.01701 0.0
C480 C 0.41742 0.97813 0.04249 0.0
H481 H 0.39028 0.03634 0.96525 0.0
H482 H 0.35614 1.01304 0.02153 0.0
C483 C 0.46313 0.96688 0.03577 0.0
C484 C 0.51634 0.02364 0.49691 0.0
C485 C 0.48168 0.05819 0.50436 0.0
H486 H 0.56235 0.99561 0.45872 0.0
C487 C 0.46701 0.09238 0.47835 0.0
H488 H 0.52803 0.99683 0.51658 0.0
C489 C 0.48705 0.09233 0.4454 0.0
C490 C 0.52131 0.05724 0.43771 0.0
H491 H 0.44079 0.11989 0.48366 0.0
H492 H 0.47567 0.11961 0.42594 0.0
C493 C 0.53557 0.02268 0.46373 0.0
C494 C 0.91161 1.01568 0.50976 0.0
C495 C 0.95731 0.02733 0.51702 0.0
H496 H 0.85695 0.02013 0.47243 0.0
C497 C -0.01656 0.05236 0.49148 0.0
H498 H 0.89082 0.99634 0.52899 0.0
C499 C 0.96406 0.06675 0.45968 0.0
C500 C 0.91838 0.05539 0.45233 0.0
H501 H 0.01876 0.06207 0.49638 0.0
H502 H -0.01513 0.08688 0.44082 0.0
C503 C 0.89241 0.02905 0.47742 0.0
C504 C 0.53606 0.51431 0.03283 0.0
C505 C 0.52248 0.47934 0.05872 0.0
H506 H 0.52821 0.53969 0.97981 0.0
C507 C 0.48912 0.44307 0.05064 0.0
H508 H 0.56217 0.54228 0.03814 0.0
C509 C 0.46936 0.44217 0.01743 0.0
C510 C 0.48338 0.47672 0.99154 0.0
H511 H 0.47831 0.41543 0.06998 0.0
H512 H 0.44388 0.41371 0.01183 0.0
C513 C 0.51709 0.51254 -0.00062 0.0
C514 C 0.89146 0.49912 0.01163 0.0
C515 C 0.91691 0.47238 0.037 0.0
H516 H 0.89065 0.53196 0.96005 0.0
C517 C 0.96232 0.45996 0.03009 0.0
H518 H 0.85622 0.50886 0.0163 0.0
C519 C 0.98202 0.47395 -0.0015 0.0
C520 C 0.95648 0.49964 0.97275 0.0
H521 H 0.98273 0.43949 0.04917 0.0
H522 H 0.01717 0.46361 0.99399 0.0
C523 C 0.91096 0.51209 0.97947 0.0
C524 C 0.96813 0.58985 0.47348 0.0
C525 C 0.9832 0.55595 0.49954 0.0
H526 H 0.9762 0.61667 0.4209 0.0
C527 C 0.01771 0.52128 0.49195 0.0
H528 H 0.94196 0.61739 0.47888 0.0
C529 C 0.0365 0.52002 0.45863 0.0
C530 C 0.02197 0.5544 0.43259 0.0
H531 H 0.02967 0.49465 0.51164 0.0
H532 H 0.06325 0.49293 0.45354 0.0
C533 C -0.01223 0.58953 0.44038 0.0
C534 C 0.41338 0.51653 0.51137 0.0
C535 C 0.4592 0.52807 0.51832 0.0
H536 H 0.3584 0.52091 0.47429 0.0
C537 C 0.48512 0.55293 0.4926 0.0
H538 H 0.39276 0.49731 0.53076 0.0
C539 C 0.46546 0.56725 0.46089 0.0
C540 C 0.4197 0.55594 0.45383 0.0
H541 H 0.52052 0.56255 0.49728 0.0
H542 H 0.48612 0.58724 0.44187 0.0
C543 C 0.39391 0.52978 0.47909 0.0
loop_
_geom_bond_atom_site_label_1
_geom_bond_atom_site_label_2
_geom_bond_distance
_geom_bond_site_symmetry_2
_ccdc_geom_bond_type
Mg0 O1 2.028 . S
Mg0 O7 1.986 . S
Mg0 O9 2.114 . S
Mg0 O10 2.251 1_545 S
Mg0 O13 2.010 . S
O1 Mg0 2.028 . S
O1 C4 1.250 . S
O2 Mg3 2.028 . S
O2 C4 1.248 1_565 S
Mg3 O2 2.028 . S
Mg3 O8 2.032 . S
Mg3 O10 2.079 . S
C4 O1 1.250 . S
C4 O2 1.248 1_545 S
C5 O6 1.264 . S
C5 O13 1.249 . S
O6 C5 1.264 . S
O7 Mg0 1.986 . S
O7 C11 1.246 1_545 S
O8 Mg3 2.032 . S
O8 C11 1.259 . S
O9 Mg0 2.114 . S
O9 C12 1.252 . S
O10 Mg0 2.251 1_565 S
O10 Mg3 2.079 . S
O10 C12 1.273 1_565 S
C11 O7 1.246 1_565 S
C11 O8 1.259 . S
C12 O9 1.252 . S
C12 O10 1.273 1_545 S
O13 Mg0 2.010 . S
O13 C5 1.249 . S
Mg14 O15 2.028 . S
Mg14 O21 1.986 . S
Mg14 O23 2.114 . S
Mg14 O24 2.251 1_565 S
Mg14 O27 2.010 . S
O15 Mg14 2.028 . S
O15 C18 1.250 . S
O16 Mg17 2.028 . S
O16 C18 1.248 1_545 S
Mg17 O16 2.028 . S
Mg17 O22 2.032 . S
Mg17 O24 2.079 . S
C18 O15 1.250 . S
C18 O16 1.248 1_565 S
C19 O20 1.264 . S
C19 O27 1.249 . S
O20 C19 1.264 . S
O21 Mg14 1.986 . S
O21 C25 1.246 1_565 S
O22 Mg17 2.032 . S
O22 C25 1.259 . S
O23 Mg14 2.114 . S
O23 C26 1.252 . S
O24 Mg14 2.251 1_545 S
O24 Mg17 2.079 . S
O24 C26 1.273 1_545 S
C25 O21 1.246 1_545 S
C25 O22 1.259 . S
C26 O23 1.252 . S
C26 O24 1.273 1_565 S
O27 Mg14 2.010 . S
O27 C19 1.249 . S
Mg28 O29 2.028 . S
Mg28 O35 1.986 . S
Mg28 O37 2.114 . S
Mg28 O38 2.251 1_565 S
Mg28 O41 2.010 . S
O29 Mg28 2.028 . S
O29 C32 1.250 . S
O30 Mg31 2.028 . S
O30 C32 1.248 1_545 S
Mg31 O30 2.028 . S
Mg31 O36 2.032 . S
Mg31 O38 2.079 . S
C32 O29 1.250 . S
C32 O30 1.248 1_565 S
C33 O34 1.264 . S
C33 O41 1.249 . S
O34 C33 1.264 . S
O35 Mg28 1.986 . S
O35 C39 1.246 1_565 S
O36 Mg31 2.032 . S
O36 C39 1.259 . S
O37 Mg28 2.114 . S
O37 C40 1.252 . S
O38 Mg28 2.251 1_545 S
O38 Mg31 2.079 . S
O38 C40 1.273 1_545 S
C39 O35 1.246 1_545 S
C39 O36 1.259 . S
C40 O37 1.252 . S
C40 O38 1.273 1_565 S
O41 Mg28 2.010 . S
O41 C33 1.249 . S
Mg42 O43 2.028 . S
Mg42 O49 1.986 . S
Mg42 O51 2.114 . S
Mg42 O52 2.251 1_545 S
Mg42 O55 2.010 . S
O43 Mg42 2.028 . S
O43 C46 1.250 . S
O44 Mg45 2.028 . S
O44 C46 1.248 1_565 S
Mg45 O44 2.028 . S
Mg45 O50 2.032 . S
Mg45 O52 2.079 . S
C46 O43 1.250 . S
C46 O44 1.248 1_545 S
C47 O48 1.264 . S
C47 O55 1.249 . S
O48 C47 1.264 . S
O49 Mg42 1.986 . S
O49 C53 1.246 1_545 S
O50 Mg45 2.032 . S
O50 C53 1.259 . S
O51 Mg42 2.114 . S
O51 C54 1.252 . S
O52 Mg42 2.251 1_565 S
O52 Mg45 2.079 . S
O52 C54 1.273 1_565 S
C53 O49 1.246 1_565 S
C53 O50 1.259 . S
C54 O51 1.252 . S
C54 O52 1.273 1_545 S
O55 Mg42 2.010 . S
O55 C47 1.249 . S
Mg56 O57 2.028 . S
Mg56 O63 1.986 . S
Mg56 O65 2.114 1_655 S
Mg56 O66 2.251 . S
Mg56 O69 2.010 . S
O57 Mg56 2.028 . S
O57 C60 1.250 . S
O58 Mg59 2.028 . S
O58 C60 1.248 . S
Mg59 O58 2.028 . S
Mg59 O64 2.032 . S
Mg59 O66 2.079 . S
C60 O57 1.250 . S
C60 O58 1.248 . S
C61 O62 1.264 1_565 S
C61 O69 1.249 . S
O62 C61 1.264 1_545 S
O63 Mg56 1.986 . S
O63 C67 1.246 . S
O64 Mg59 2.032 . S
O64 C67 1.259 . S
O65 Mg56 2.114 1_455 S
O65 C68 1.252 1_455 S
O66 Mg56 2.251 . S
O66 Mg59 2.079 . S
O66 C68 1.273 . S
C67 O63 1.246 . S
C67 O64 1.259 . S
C68 O65 1.252 1_655 S
C68 O66 1.273 . S
O69 Mg56 2.010 . S
O69 C61 1.249 . S
Mg70 O71 2.028 . S
Mg70 O77 1.986 . S
Mg70 O79 2.114 . S
Mg70 O80 2.251 . S
Mg70 O83 2.010 . S
O71 Mg70 2.028 . S
O71 C74 1.250 . S
O72 Mg73 2.028 . S
O72 C74 1.248 . S
Mg73 O72 2.028 . S
Mg73 O78 2.032 . S
Mg73 O80 2.079 . S
C74 O71 1.250 . S
C74 O72 1.248 . S
C75 O76 1.264 1_545 S
C75 O83 1.249 . S
O76 C75 1.264 1_565 S
O77 Mg70 1.986 . S
O77 C81 1.246 . S
O78 Mg73 2.032 . S
O78 C81 1.259 . S
O79 Mg70 2.114 . S
O79 C82 1.252 . S
O80 Mg70 2.251 . S
O80 Mg73 2.079 . S
O80 C82 1.273 . S
C81 O77 1.246 . S
C81 O78 1.259 . S
C82 O79 1.252 . S
C82 O80 1.273 . S
O83 Mg70 2.010 . S
O83 C75 1.249 . S
Mg84 O85 2.028 . S
Mg84 O91 1.986 . S
Mg84 O93 2.114 . S
Mg84 O94 2.251 . S
Mg84 O97 2.010 . S
O85 Mg84 2.028 . S
O85 C88 1.250 . S
O86 Mg87 2.028 . S
O86 C88 1.248 . S
Mg87 O86 2.028 . S
Mg87 O92 2.032 . S
Mg87 O94 2.079 . S
C88 O85 1.250 . S
C88 O86 1.248 . S
C89 O90 1.264 1_545 S
C89 O97 1.249 . S
O90 C89 1.264 1_565 S
O91 Mg84 1.986 . S
O91 C95 1.246 . S
O92 Mg87 2.032 . S
O92 C95 1.259 . S
O93 Mg84 2.114 . S
O93 C96 1.252 . S
O94 Mg84 2.251 . S
O94 Mg87 2.079 . S
O94 C96 1.273 . S
C95 O91 1.246 . S
C95 O92 1.259 . S
C96 O93 1.252 . S
C96 O94 1.273 . S
O97 Mg84 2.010 . S
O97 C89 1.249 . S
Mg98 O99 2.028 . S
Mg98 O105 1.986 . S
Mg98 O107 2.114 1_455 S
Mg98 O108 2.251 . S
Mg98 O111 2.010 . S
O99 Mg98 2.028 . S
O99 C102 1.250 . S
O100 Mg101 2.028 . S
O100 C102 1.248 . S
Mg101 O100 2.028 . S
Mg101 O106 2.032 . S
Mg101 O108 2.079 . S
C102 O99 1.250 . S
C102 O100 1.248 . S
C103 O104 1.264 1_565 S
C103 O111 1.249 . S
O104 C103 1.264 1_545 S
O105 Mg98 1.986 . S
O105 C109 1.246 . S
O106 Mg101 2.032 . S
O106 C109 1.259 . S
O107 Mg98 2.114 1_655 S
O107 C110 1.252 1_655 S
O108 Mg98 2.251 . S
O108 Mg101 2.079 . S
O108 C110 1.273 . S
C109 O105 1.246 . S
C109 O106 1.259 . S
C110 O107 1.252 1_455 S
C110 O108 1.273 . S
O111 Mg98 2.010 . S
O111 C103 1.249 . S
Mg112 O113 2.028 . S
Mg112 O119 1.986 . S
Mg112 O121 2.114 . S
Mg112 O122 2.251 . S
Mg112 O125 2.010 . S
O113 Mg112 2.028 . S
O113 C116 1.250 . S
O114 Mg115 2.028 . S
O114 C116 1.248 . S
Mg115 O114 2.028 . S
Mg115 O120 2.032 . S
Mg115 O122 2.079 . S
C116 O113 1.250 . S
C116 O114 1.248 . S
C117 O118 1.264 . S
C117 O125 1.249 . S
O118 C117 1.264 . S
O119 Mg112 1.986 . S
O119 C123 1.246 . S
O120 Mg115 2.032 . S
O120 C123 1.259 . S
O121 Mg112 2.114 . S
O121 C124 1.252 . S
O122 Mg112 2.251 . S
O122 Mg115 2.079 . S
O122 C124 1.273 . S
C123 O119 1.246 . S
C123 O120 1.259 . S
C124 O121 1.252 . S
C124 O122 1.273 . S
O125 Mg112 2.010 . S
O125 C117 1.249 . S
Mg126 O127 2.028 . S
Mg126 O133 1.986 . S
Mg126 O135 2.114 . S
Mg126 O136 2.251 . S
Mg126 O139 2.010 . S
O127 Mg126 2.028 . S
O127 C130 1.250 . S
O128 Mg129 2.028 . S
O128 C130 1.248 . S
Mg129 O128 2.028 . S
Mg129 O134 2.032 . S
Mg129 O136 2.079 . S
C130 O127 1.250 . S
C130 O128 1.248 . S
C131 O132 1.264 . S
C131 O139 1.249 . S
O132 C131 1.264 . S
O133 Mg126 1.986 . S
O133 C137 1.246 . S
O134 Mg129 2.032 . S
O134 C137 1.259 . S
O135 Mg126 2.114 . S
O135 C138 1.252 . S
O136 Mg126 2.251 . S
O136 Mg129 2.079 . S
O136 C138 1.273 . S
C137 O133 1.246 . S
C137 O134 1.259 . S
C138 O135 1.252 . S
C138 O136 1.273 . S
O139 Mg126 2.010 . S
O139 C131 1.249 . S
Mg140 O141 2.028 . S
Mg140 O147 1.986 . S
Mg140 O149 2.114 . S
Mg140 O150 2.251 . S
Mg140 O153 2.010 . S
O141 Mg140 2.028 . S
O141 C144 1.250 . S
O142 Mg143 2.028 . S
O142 C144 1.248 . S
Mg143 O142 2.028 . S
Mg143 O148 2.032 . S
Mg143 O150 2.079 . S
C144 O141 1.250 . S
C144 O142 1.248 . S
C145 O146 1.264 . S
C145 O153 1.249 . S
O146 C145 1.264 . S
O147 Mg140 1.986 . S
O147 C151 1.246 . S
O148 Mg143 2.032 . S
O148 C151 1.259 . S
O149 Mg140 2.114 . S
O149 C152 1.252 . S
O150 Mg140 2.251 . S
O150 Mg143 2.079 . S
O150 C152 1.273 . S
C151 O147 1.246 . S
C151 O148 1.259 . S
C152 O149 1.252 . S
C152 O150 1.273 . S
O153 Mg140 2.010 . S
O153 C145 1.249 . S
Mg154 O155 2.028 . S
Mg154 O161 1.986 . S
Mg154 O163 2.114 . S
Mg154 O164 2.251 . S
Mg154 O167 2.010 . S
O155 Mg154 2.028 . S
O155 C158 1.250 . S
O156 Mg157 2.028 . S
O156 C158 1.248 . S
Mg157 O156 2.028 . S
Mg157 O162 2.032 . S
Mg157 O164 2.079 . S
C158 O155 1.250 . S
C158 O156 1.248 . S
C159 O160 1.264 . S
C159 O167 1.249 . S
O160 C159 1.264 . S
O161 Mg154 1.986 . S
O161 C165 1.246 . S
O162 Mg157 2.032 . S
O162 C165 1.259 . S
O163 Mg154 2.114 . S
O163 C166 1.252 . S
O164 Mg154 2.251 . S
O164 Mg157 2.079 . S
O164 C166 1.273 . S
C165 O161 1.246 . S
C165 O162 1.259 . S
C166 O163 1.252 . S
C166 O164 1.273 . S
O167 Mg154 2.010 . S
O167 C159 1.249 . S
Mg168 O169 2.028 . S
Mg168 O175 1.986 . S
Mg168 O177 2.114 . S
Mg168 O178 2.251 . S
Mg168 O181 2.010 . S
O169 Mg168 2.028 . S
O169 C172 1.250 . S
O170 Mg171 2.028 . S
O170 C172 1.248 . S
Mg171 O170 2.028 . S
Mg171 O176 2.032 . S
Mg171 O178 2.079 . S
C172 O169 1.250 . S
C172 O170 1.248 . S
C173 O174 1.264 . S
C173 O181 1.249 . S
O174 C173 1.264 . S
O175 Mg168 1.986 . S
O175 C179 1.246 . S
O176 Mg171 2.032 . S
O176 C179 1.259 . S
O177 Mg168 2.114 . S
O177 C180 1.252 . S
O178 Mg168 2.251 . S
O178 Mg171 2.079 . S
O178 C180 1.273 . S
C179 O175 1.246 . S
C179 O176 1.259 . S
C180 O177 1.252 . S
C180 O178 1.273 . S
O181 Mg168 2.010 . S
O181 C173 1.249 . S
Mg182 O183 2.028 . S
Mg182 O189 1.986 . S
Mg182 O191 2.114 1_455 S
Mg182 O192 2.251 . S
Mg182 O195 2.010 . S
O183 Mg182 2.028 . S
O183 C186 1.250 . S
O184 Mg185 2.028 . S
O184 C186 1.248 . S
Mg185 O184 2.028 . S
Mg185 O190 2.032 . S
Mg185 O192 2.079 . S
C186 O183 1.250 . S
C186 O184 1.248 . S
C187 O188 1.264 . S
C187 O195 1.249 . S
O188 C187 1.264 . S
O189 Mg182 1.986 . S
O189 C193 1.246 . S
O190 Mg185 2.032 . S
O190 C193 1.259 . S
O191 Mg182 2.114 1_655 S
O191 C194 1.252 1_655 S
O192 Mg182 2.251 . S
O192 Mg185 2.079 . S
O192 C194 1.273 . S
C193 O189 1.246 . S
C193 O190 1.259 . S
C194 O191 1.252 1_455 S
C194 O192 1.273 . S
O195 Mg182 2.010 . S
O195 C187 1.249 . S
Mg196 O197 2.028 . S
Mg196 O203 1.986 . S
Mg196 O205 2.114 1_655 S
Mg196 O206 2.251 . S
Mg196 O209 2.010 . S
O197 Mg196 2.028 . S
O197 C200 1.250 . S
O198 Mg199 2.028 . S
O198 C200 1.248 . S
Mg199 O198 2.028 . S
Mg199 O204 2.032 . S
Mg199 O206 2.079 . S
C200 O197 1.250 . S
C200 O198 1.248 . S
C201 O202 1.264 . S
C201 O209 1.249 . S
O202 C201 1.264 . S
O203 Mg196 1.986 . S
O203 C207 1.246 . S
O204 Mg199 2.032 . S
O204 C207 1.259 . S
O205 Mg196 2.114 1_455 S
O205 C208 1.252 1_455 S
O206 Mg196 2.251 . S
O206 Mg199 2.079 . S
O206 C208 1.273 . S
C207 O203 1.246 . S
C207 O204 1.259 . S
C208 O205 1.252 1_655 S
C208 O206 1.273 . S
O209 Mg196 2.010 . S
O209 C201 1.249 . S
Mg210 O211 2.028 . S
Mg210 O217 1.986 . S
Mg210 O219 2.114 . S
Mg210 O220 2.251 . S
Mg210 O223 2.010 . S
O211 Mg210 2.028 . S
O211 C214 1.250 . S
O212 Mg213 2.028 . S
O212 C214 1.248 . S
Mg213 O212 2.028 . S
Mg213 O218 2.032 . S
Mg213 O220 2.079 . S
C214 O211 1.250 . S
C214 O212 1.248 . S
C215 O216 1.264 . S
C215 O223 1.249 . S
O216 C215 1.264 . S
O217 Mg210 1.986 . S
O217 C221 1.246 . S
O218 Mg213 2.032 . S
O218 C221 1.259 . S
O219 Mg210 2.114 . S
O219 C222 1.252 . S
O220 Mg210 2.251 . S
O220 Mg213 2.079 . S
O220 C222 1.273 . S
C221 O217 1.246 . S
C221 O218 1.259 . S
C222 O219 1.252 . S
C222 O220 1.273 . S
O223 Mg210 2.010 . S
O223 C215 1.249 . S
C224 C225 1.387 . S
C224 H228 0.950 . S
C224 C233 1.390 1_565 S
C225 C224 1.387 . S
C225 C227 1.387 . S
H226 C233 0.950 . S
C227 C225 1.387 . S
C227 C229 1.390 1_565 S
C227 H231 0.950 . S
H228 C224 0.950 . S
C229 C227 1.390 1_545 S
C229 C230 1.387 . S
C229 H232 0.950 . S
C230 C229 1.387 . S
C230 C233 1.387 . S
H231 C227 0.950 . S
H232 C229 0.950 . S
C233 C224 1.390 1_545 S
C233 H226 0.950 . S
C233 C230 1.387 . S
C234 C235 1.387 . S
C234 H238 0.950 . S
C234 C243 1.390 1_565 S
C235 C234 1.387 . S
C235 C237 1.387 . S
H236 C243 0.950 . S
C237 C235 1.387 . S
C237 C239 1.390 1_565 S
C237 H241 0.950 . S
H238 C234 0.950 . S
C239 C237 1.390 1_545 S
C239 C240 1.387 . S
C239 H242 0.950 . S
C240 C239 1.387 . S
C240 C243 1.387 . S
H241 C237 0.950 . S
H242 C239 0.950 . S
C243 C234 1.390 1_545 S
C243 H236 0.950 . S
C243 C240 1.387 . S
C244 C245 1.387 . S
C244 H248 0.950 . S
C244 C253 1.390 1_565 S
C245 C244 1.387 . S
C245 C247 1.387 . S
H246 C253 0.950 . S
C247 C245 1.387 . S
C247 C249 1.390 1_565 S
C247 H251 0.950 . S
H248 C244 0.950 . S
C249 C247 1.390 1_545 S
C249 C250 1.387 . S
C249 H252 0.950 . S
C250 C249 1.387 . S
C250 C253 1.387 . S
H251 C247 0.950 . S
H252 C249 0.950 . S
C253 C244 1.390 1_545 S
C253 H246 0.950 . S
C253 C250 1.387 . S
C254 C255 1.387 . S
C254 H258 0.950 . S
C254 C263 1.390 1_565 S
C255 C254 1.387 . S
C255 C257 1.387 . S
H256 C263 0.950 . S
C257 C255 1.387 . S
C257 C259 1.390 1_565 S
C257 H261 0.950 . S
H258 C254 0.950 . S
C259 C257 1.390 1_545 S
C259 C260 1.387 . S
C259 H262 0.950 . S
C260 C259 1.387 . S
C260 C263 1.387 . S
H261 C257 0.950 . S
H262 C259 0.950 . S
C263 C254 1.390 1_545 S
C263 H256 0.950 . S
C263 C260 1.387 . S
C264 C265 1.387 . S
C264 H268 0.950 . S
C264 C273 1.390 . S
C265 C264 1.387 . S
C265 C267 1.387 . S
H266 C273 0.950 . S
C267 C265 1.387 . S
C267 C269 1.390 . S
C267 H271 0.950 . S
H268 C264 0.950 . S
C269 C267 1.390 . S
C269 C270 1.387 . S
C269 H272 0.950 . S
C270 C269 1.387 . S
C270 C273 1.387 . S
H271 C267 0.950 . S
H272 C269 0.950 . S
C273 C264 1.390 . S
C273 H266 0.950 . S
C273 C270 1.387 . S
C274 C275 1.387 . S
C274 H278 0.950 . S
C274 C283 1.390 . S
C275 C274 1.387 . S
C275 C277 1.387 . S
H276 C283 0.950 . S
C277 C275 1.387 . S
C277 C279 1.390 . S
C277 H281 0.950 . S
H278 C274 0.950 . S
C279 C277 1.390 . S
C279 C280 1.387 . S
C279 H282 0.950 . S
C280 C279 1.387 . S
C280 C283 1.387 . S
H281 C277 0.950 . S
H282 C279 0.950 . S
C283 C274 1.390 . S
C283 H276 0.950 . S
C283 C280 1.387 . S
C284 C285 1.387 . S
C284 H288 0.950 . S
C284 C293 1.390 . S
C285 C284 1.387 . S
C285 C287 1.387 . S
H286 C293 0.950 . S
C287 C285 1.387 . S
C287 C289 1.390 . S
C287 H291 0.950 . S
H288 C284 0.950 . S
C289 C287 1.390 . S
C289 C290 1.387 . S
C289 H292 0.950 . S
C290 C289 1.387 . S
C290 C293 1.387 . S
H291 C287 0.950 . S
H292 C289 0.950 . S
C293 C284 1.390 . S
C293 H286 0.950 . S
C293 C290 1.387 . S
C294 C295 1.387 . S
C294 H298 0.950 . S
C294 C303 1.390 . S
C295 C294 1.387 . S
C295 C297 1.387 . S
H296 C303 0.950 . S
C297 C295 1.387 . S
C297 C299 1.390 . S
C297 H301 0.950 . S
H298 C294 0.950 . S
C299 C297 1.390 . S
C299 C300 1.387 . S
C299 H302 0.950 . S
C300 C299 1.387 . S
C300 C303 1.387 . S
H301 C297 0.950 . S
H302 C299 0.950 . S
C303 C294 1.390 . S
C303 H296 0.950 . S
C303 C300 1.387 . S
C304 C305 1.387 . S
C304 H308 0.950 . S
C304 C313 1.390 1_655 S
C305 C304 1.387 . S
C305 C307 1.387 1_545 S
H306 C313 0.950 . S
C307 C305 1.387 1_565 S
C307 C309 1.390 1_655 S
C307 H311 0.950 . S
H308 C304 0.950 . S
C309 C307 1.390 1_455 S
C309 C310 1.387 1_565 S
C309 H312 0.950 . S
C310 C309 1.387 1_545 S
C310 C313 1.387 . S
H311 C307 0.950 . S
H312 C309 0.950 . S
C313 C304 1.390 1_455 S
C313 H306 0.950 . S
C313 C310 1.387 . S
C314 C315 1.387 . S
C314 H318 0.950 . S
C314 C323 1.390 . S
C315 C314 1.387 . S
C315 C317 1.387 1_565 S
H316 C323 0.950 . S
C317 C315 1.387 1_545 S
C317 C319 1.390 . S
C317 H321 0.950 . S
H318 C314 0.950 . S
C319 C317 1.390 . S
C319 C320 1.387 1_545 S
C319 H322 0.950 . S
C320 C319 1.387 1_565 S
C320 C323 1.387 . S
H321 C317 0.950 . S
H322 C319 0.950 . S
C323 C314 1.390 . S
C323 H316 0.950 . S
C323 C320 1.387 . S
C324 C325 1.388 . S
C324 H328 0.950 . S
C324 C333 1.389 1_455 S
C325 C324 1.388 . S
C325 C327 1.388 1_565 S
H326 C333 0.950 . S
C327 C325 1.388 1_545 S
C327 C329 1.389 1_455 S
C327 H331 0.950 . S
H328 C324 0.950 . S
C329 C327 1.389 1_655 S
C329 C330 1.388 1_545 S
C329 H332 0.950 . S
C330 C329 1.388 1_565 S
C330 C333 1.388 . S
H331 C327 0.950 . S
H332 C329 0.950 . S
C333 C324 1.389 1_655 S
C333 H326 0.950 . S
C333 C330 1.388 . S
C334 C335 1.387 1_565 S
C334 H338 0.950 . S
C334 C343 1.390 . S
C335 C334 1.387 1_545 S
C335 C337 1.387 . S
H336 C343 0.950 . S
C337 C335 1.387 . S
C337 C339 1.390 . S
C337 H341 0.950 . S
H338 C334 0.950 . S
C339 C337 1.390 . S
C339 C340 1.387 . S
C339 H342 0.950 . S
C340 C339 1.387 . S
C340 C343 1.387 1_545 S
H341 C337 0.950 . S
H342 C339 0.950 . S
C343 C334 1.390 . S
C343 H336 0.950 . S
C343 C340 1.387 1_565 S
C344 C345 1.387 . S
C344 H348 0.950 . S
C344 C353 1.390 . S
C345 C344 1.387 . S
C345 C347 1.387 . S
H346 C353 0.950 . S
C347 C345 1.387 . S
C347 C349 1.390 . S
C347 H351 0.950 . S
H348 C344 0.950 . S
C349 C347 1.390 . S
C349 C350 1.387 . S
C349 H352 0.950 . S
C350 C349 1.387 . S
C350 C353 1.387 . S
H351 C347 0.950 . S
H352 C349 0.950 . S
C353 C344 1.390 . S
C353 H346 0.950 . S
C353 C350 1.387 . S
C354 C355 1.387 . S
C354 H358 0.950 . S
C354 C363 1.390 1_455 S
C355 C354 1.387 . S
C355 C357 1.387 . S
H356 C363 0.950 . S
C357 C355 1.387 . S
C357 C359 1.390 1_455 S
C357 H361 0.950 . S
H358 C354 0.950 . S
C359 C357 1.390 1_655 S
C359 C360 1.387 . S
C359 H362 0.950 . S
C360 C359 1.387 . S
C360 C363 1.387 . S
H361 C357 0.950 . S
H362 C359 0.950 . S
C363 C354 1.390 1_655 S
C363 H356 0.950 . S
C363 C360 1.387 . S
C364 C365 1.387 . S
C364 H368 0.950 . S
C364 C373 1.390 . S
C365 C364 1.387 . S
C365 C367 1.387 . S
H366 C373 0.950 . S
C367 C365 1.387 . S
C367 C369 1.390 . S
C367 H371 0.950 . S
H368 C364 0.950 . S
C369 C367 1.390 . S
C369 C370 1.387 . S
C369 H372 0.950 . S
C370 C369 1.387 . S
C370 C373 1.387 . S
H371 C367 0.950 . S
H372 C369 0.950 . S
C373 C364 1.390 . S
C373 H366 0.950 . S
C373 C370 1.387 . S
C374 C375 1.387 . S
C374 H378 0.950 . S
C374 C383 1.390 1_455 S
C375 C374 1.387 . S
C375 C377 1.387 . S
H376 C383 0.950 . S
C377 C375 1.387 . S
C377 C379 1.390 1_455 S
C377 H381 0.950 . S
H378 C374 0.950 . S
C379 C377 1.390 1_655 S
C379 C380 1.387 . S
C379 H382 0.950 . S
C380 C379 1.387 . S
C380 C383 1.387 . S
H381 C377 0.950 . S
H382 C379 0.950 . S
C383 C374 1.390 1_655 S
C383 H376 0.950 . S
C383 C380 1.387 . S
C384 C385 1.387 . S
C384 H388 0.950 . S
C384 C393 1.390 1_455 S
C385 C384 1.387 . S
C385 C387 1.387 . S
H386 C393 0.950 . S
C387 C385 1.387 . S
C387 C389 1.390 1_455 S
C387 H391 0.950 . S
H388 C384 0.950 . S
C389 C387 1.390 1_655 S
C389 C390 1.387 . S
C389 H392 0.950 . S
C390 C389 1.387 . S
C390 C393 1.387 . S
H391 C387 0.950 . S
H392 C389 0.950 . S
C393 C384 1.390 1_655 S
C393 H386 0.950 . S
C393 C390 1.387 . S
C394 C395 1.387 . S
C394 H398 0.950 . S
C394 C403 1.390 . S
C395 C394 1.387 . S
C395 C397 1.387 . S
H396 C403 0.950 . S
C397 C395 1.387 . S
C397 C399 1.390 . S
C397 H401 0.950 . S
H398 C394 0.950 . S
C399 C397 1.390 . S
C399 C400 1.387 . S
C399 H402 0.950 . S
C400 C399 1.387 . S
C400 C403 1.387 . S
H401 C397 0.950 . S
H402 C399 0.950 . S
C403 C394 1.390 . S
C403 H396 0.950 . S
C403 C400 1.387 . S
C404 C405 1.387 . S
C404 H408 0.950 . S
C404 C413 1.390 . S
C405 C404 1.387 . S
C405 C407 1.387 . S
H406 C413 0.950 . S
C407 C405 1.387 . S
C407 C409 1.390 . S
C407 H411 0.950 . S
H408 C404 0.950 . S
C409 C407 1.390 . S
C409 C410 1.387 . S
C409 H412 0.950 . S
C410 C409 1.387 . S
C410 C413 1.387 . S
H411 C407 0.950 . S
H412 C409 0.950 . S
C413 C404 1.390 . S
C413 H406 0.950 . S
C413 C410 1.387 . S
C414 C415 1.387 . S
C414 H418 0.950 . S
C414 C423 1.390 1_455 S
C415 C414 1.387 . S
C415 C417 1.387 . S
H416 C423 0.950 . S
C417 C415 1.387 . S
C417 C419 1.390 1_455 S
C417 H421 0.950 . S
H418 C414 0.950 . S
C419 C417 1.390 1_655 S
C419 C420 1.387 . S
C419 H422 0.950 . S
C420 C419 1.387 . S
C420 C423 1.387 . S
H421 C417 0.950 . S
H422 C419 0.950 . S
C423 C414 1.390 1_655 S
C423 H416 0.950 . S
C423 C420 1.387 . S
C424 C425 1.387 . S
C424 H428 0.950 . S
C424 C433 1.390 1_455 S
C425 C424 1.387 . S
C425 C427 1.387 . S
H426 C433 0.950 . S
C427 C425 1.387 . S
C427 C429 1.390 1_455 S
C427 H431 0.950 . S
H428 C424 0.950 . S
C429 C427 1.390 1_655 S
C429 C430 1.387 . S
C429 H432 0.950 . S
C430 C429 1.387 . S
C430 C433 1.387 . S
H431 C427 0.950 . S
H432 C429 0.950 . S
C433 C424 1.390 1_655 S
C433 H426 0.950 . S
C433 C430 1.387 . S
C434 C435 1.387 . S
C434 H438 0.950 . S
C434 C443 1.390 . S
C435 C434 1.387 . S
C435 C437 1.387 . S
H436 C443 0.950 . S
C437 C435 1.387 . S
C437 C439 1.390 . S
C437 H441 0.950 . S
H438 C434 0.950 . S
C439 C437 1.390 . S
C439 C440 1.387 . S
C439 H442 0.950 . S
C440 C439 1.387 . S
C440 C443 1.387 . S
H441 C437 0.950 . S
H442 C439 0.950 . S
C443 C434 1.390 . S
C443 H436 0.950 . S
C443 C440 1.387 . S
C444 C445 1.387 . S
C444 H448 0.950 . S
C444 C453 1.390 . S
C445 C444 1.387 . S
C445 C447 1.387 . S
H446 C453 0.950 . S
C447 C445 1.387 . S
C447 C449 1.390 . S
C447 H451 0.950 . S
H448 C444 0.950 . S
C449 C447 1.390 . S
C449 C450 1.387 . S
C449 H452 0.950 . S
C450 C449 1.387 . S
C450 C453 1.387 . S
H451 C447 0.950 . S
H452 C449 0.950 . S
C453 C444 1.390 . S
C453 H446 0.950 . S
C453 C450 1.387 . S
C454 C455 1.387 . S
C454 H458 0.950 . S
C454 C463 1.390 1_455 S
C455 C454 1.387 . S
C455 C457 1.387 . S
H456 C463 0.950 . S
C457 C455 1.387 . S
C457 C459 1.390 1_455 S
C457 H461 0.950 . S
H458 C454 0.950 . S
C459 C457 1.390 1_655 S
C459 C460 1.387 . S
C459 H462 0.950 . S
C460 C459 1.387 . S
C460 C463 1.387 . S
H461 C457 0.950 . S
H462 C459 0.950 . S
C463 C454 1.390 1_655 S
C463 H456 0.950 . S
C463 C460 1.387 . S
C464 C465 1.389 1_545 S
C464 H468 0.950 . S
C464 C473 1.389 1_656 S
C465 C464 1.389 1_565 S
C465 C467 1.387 . S
H466 C473 0.950 . S
C467 C465 1.387 . S
C467 C469 1.390 1_656 S
C467 H471 0.950 . S
H468 C464 0.950 . S
C469 C467 1.390 1_454 S
C469 C470 1.387 . S
C469 H472 0.950 . S
C470 C469 1.387 . S
C470 C473 1.387 1_565 S
H471 C467 0.950 . S
H472 C469 0.950 . S
C473 C464 1.389 1_454 S
C473 H466 0.950 . S
C473 C470 1.387 1_545 S
C474 C475 1.387 1_565 S
C474 H478 0.950 . S
C474 C483 1.390 1_556 S
C475 C474 1.387 1_545 S
C475 C477 1.387 . S
H476 C483 0.950 . S
C477 C475 1.387 . S
C477 C479 1.390 1_556 S
C477 H481 0.950 . S
H478 C474 0.950 . S
C479 C477 1.390 1_554 S
C479 C480 1.387 . S
C479 H482 0.950 . S
C480 C479 1.387 . S
C480 C483 1.387 1_545 S
H481 C477 0.950 . S
H482 C479 0.950 . S
C483 C474 1.390 1_554 S
C483 H476 0.950 . S
C483 C480 1.387 1_565 S
C484 C485 1.387 1_565 S
C484 H488 0.950 . S
C484 C493 1.390 . S
C485 C484 1.387 1_545 S
C485 C487 1.387 . S
H486 C493 0.950 . S
C487 C485 1.387 . S
C487 C489 1.390 . S
C487 H491 0.950 . S
H488 C484 0.950 . S
C489 C487 1.390 . S
C489 C490 1.387 . S
C489 H492 0.950 . S
C490 C489 1.387 . S
C490 C493 1.387 1_545 S
H491 C487 0.950 . S
H492 C489 0.950 . S
C493 C484 1.390 . S
C493 H486 0.950 . S
C493 C490 1.387 1_565 S
C494 C495 1.387 1_655 S
C494 H498 0.950 . S
C494 C503 1.390 . S
C495 C494 1.387 1_455 S
C495 C497 1.387 1_565 S
H496 C503 0.950 . S
C497 C495 1.387 1_545 S
C497 C499 1.390 . S
C497 H501 0.950 . S
H498 C494 0.950 . S
C499 C497 1.390 . S
C499 C500 1.387 1_445 S
C499 H502 0.950 . S
C500 C499 1.387 1_665 S
C500 C503 1.387 . S
H501 C497 0.950 . S
H502 C499 0.950 . S
C503 C494 1.390 . S
C503 H496 0.950 . S
C503 C500 1.387 . S
C504 C505 1.387 . S
C504 H508 0.950 . S
C504 C513 1.390 1_554 S
C505 C504 1.387 . S
C505 C507 1.387 . S
H506 C513 0.950 . S
C507 C505 1.387 . S
C507 C509 1.390 1_554 S
C507 H511 0.950 . S
H508 C504 0.950 . S
C509 C507 1.390 1_556 S
C509 C510 1.387 . S
C509 H512 0.950 . S
C510 C509 1.387 . S
C510 C513 1.387 . S
H511 C507 0.950 . S
H512 C509 0.950 . S
C513 C504 1.390 1_556 S
C513 H506 0.950 . S
C513 C510 1.387 . S
C514 C515 1.387 1_455 S
C514 H518 0.950 . S
C514 C523 1.390 1_554 S
C515 C514 1.387 1_655 S
C515 C517 1.387 . S
H516 C523 0.950 . S
C517 C515 1.387 . S
C517 C519 1.390 1_554 S
C517 H521 0.950 . S
H518 C514 0.950 . S
C519 C517 1.390 1_556 S
C519 C520 1.387 1_655 S
C519 H522 0.950 . S
C520 C519 1.387 1_455 S
C520 C523 1.387 . S
H521 C517 0.950 . S
H522 C519 0.950 . S
C523 C514 1.390 1_556 S
C523 H516 0.950 . S
C523 C520 1.387 . S
C524 C525 1.387 . S
C524 H528 0.950 . S
C524 C533 1.390 1_655 S
C525 C524 1.387 . S
C525 C527 1.387 . S
H526 C533 0.950 . S
C527 C525 1.387 . S
C527 C529 1.390 1_655 S
C527 H531 0.950 . S
H528 C524 0.950 . S
C529 C527 1.390 1_455 S
C529 C530 1.387 . S
C529 H532 0.950 . S
C530 C529 1.387 . S
C530 C533 1.387 . S
H531 C527 0.950 . S
H532 C529 0.950 . S
C533 C524 1.390 1_455 S
C533 H526 0.950 . S
C533 C530 1.387 . S
C534 C535 1.387 . S
C534 H538 0.950 . S
C534 C543 1.390 . S
C535 C534 1.387 . S
C535 C537 1.387 . S
H536 C543 0.950 . S
C537 C535 1.387 . S
C537 C539 1.390 . S
C537 H541 0.950 . S
H538 C534 0.950 . S
C539 C537 1.390 . S
C539 C540 1.387 . S
C539 H542 0.950 . S
C540 C539 1.387 . S
C540 C543 1.387 . S
H541 C537 0.950 . S
H542 C539 0.950 . S
C543 C534 1.390 . S
C543 H536 0.950 . S
C543 C540 1.387 . S
C225 C26 1.483 . S
C230 C12 1.483 . S
C235 C40 1.482 . S
C240 C54 1.482 . S
C245 C67 1.602 . S
C250 C81 1.602 . S
C255 C109 1.603 . S
C260 C95 1.603 . S
C265 C138 1.483 . S
C270 C124 1.483 . S
C275 C166 1.482 . S
C280 C152 1.482 . S
C285 C193 1.603 . S
C290 C179 1.603 . S
C295 C221 1.602 . S
C300 C207 1.602 . S
C305 C46 1.175 . S
C310 C4 1.175 . S
C315 C18 1.175 . S
C320 C32 1.175 . S
C325 C103 1.201 . S
C330 C61 1.201 . S
C335 C89 1.199 . S
C340 C75 1.199 . S
C345 C116 1.175 . S
C350 C158 1.175 . S
C355 C144 1.177 . S
C360 C130 1.177 . S
C365 C215 1.199 . S
C370 C173 1.199 . S
C375 C187 1.199 . S
C380 C201 1.199 . S
C385 C5 1.309 . S
C390 C131 1.309 . S
C395 C19 1.311 . S
C400 C117 1.311 . S
C405 C159 1.311 . S
C410 C33 1.311 . S
C415 C145 1.311 . S
C420 C47 1.311 . S
C425 C186 1.670 . S
C430 C60 1.670 . S
C435 C172 1.670 . S
C440 C74 1.670 . S
C445 C88 1.669 . S
C450 C214 1.669 . S
C455 C102 1.670 . S
C460 C200 1.670 . S
C465 C68 1.324 . S
C470 C11 1.341 . S
C475 C82 1.324 . S
C480 C25 1.341 . S
C485 C96 1.324 . S
C490 C39 1.341 . S
C495 C110 1.321 . S
C500 C53 1.338 . S
C505 C123 1.340 . S
C510 C180 1.322 . S
C515 C137 1.338 . S
C520 C194 1.321 . S
C525 C208 1.321 . S
C530 C151 1.338 . S
C535 C222 1.321 . S
C540 C165 1.338 . S
