# Generated by pormake.
# Topology som, (6)-cn, num edge types: 1
# Building blocks:
#     Node 0, Type 0, BuildingBlock: BETDIP_clean_sbu_0, # of connection points: 6
#     Node 1, Type 0, BuildingBlock: BETDIP_clean_sbu_0, # of connection points: 6
#     Node 2, Type 0, BuildingBlock: BETDIP_clean_sbu_0, # of connection points: 6
#     Node 3, Type 0, BuildingBlock: BETDIP_clean_sbu_0, # of connection points: 6
#     Node 4, Type 0, BuildingBlock: BETDIP_clean_sbu_0, # of connection points: 6
#     Node 5, Type 0, BuildingBlock: BETDIP_clean_sbu_0, # of connection points: 6
#     Node 6, Type 0, BuildingBlock: BETDIP_clean_sbu_0, # of connection points: 6
#     Node 7, Type 0, BuildingBlock: BETDIP_clean_sbu_0, # of connection points: 6
#     Node 8, Type 0, BuildingBlock: BETDIP_clean_sbu_0, # of connection points: 6
#     Node 9, Type 0, BuildingBlock: BETDIP_clean_sbu_0, # of connection points: 6
#     Node 10, Type 0, BuildingBlock: BETDIP_clean_sbu_0, # of connection points: 6
#     Node 11, Type 0, BuildingBlock: BETDIP_clean_sbu_0, # of connection points: 6
#     Node 12, Type 0, BuildingBlock: BETDIP_clean_sbu_0, # of connection points: 6
#     Node 13, Type 0, BuildingBlock: BETDIP_clean_sbu_0, # of connection points: 6
#     Node 14, Type 0, BuildingBlock: BETDIP_clean_sbu_0, # of connection points: 6
#     Node 15, Type 0, BuildingBlock: BETDIP_clean_sbu_0, # of connection points: 6
#     Node 16, Type 0, BuildingBlock: BETDIP_clean_sbu_0, # of connection points: 6
#     Node 17, Type 0, BuildingBlock: BETDIP_clean_sbu_0, # of connection points: 6
#     Node 18, Type 0, BuildingBlock: BETDIP_clean_sbu_0, # of connection points: 6
#     Node 19, Type 0, BuildingBlock: BETDIP_clean_sbu_0, # of connection points: 6
#     Node 20, Type 0, BuildingBlock: BETDIP_clean_sbu_0, # of connection points: 6
#     Node 21, Type 0, BuildingBlock: BETDIP_clean_sbu_0, # of connection points: 6
#     Node 22, Type 0, BuildingBlock: BETDIP_clean_sbu_0, # of connection points: 6
#     Node 23, Type 0, BuildingBlock: BETDIP_clean_sbu_0, # of connection points: 6
#     Node 24, Type 0, BuildingBlock: BETDIP_clean_sbu_0, # of connection points: 6
#     Node 25, Type 0, BuildingBlock: BETDIP_clean_sbu_0, # of connection points: 6
#     Node 26, Type 0, BuildingBlock: BETDIP_clean_sbu_0, # of connection points: 6
#     Node 27, Type 0, BuildingBlock: BETDIP_clean_sbu_0, # of connection points: 6
#     Node 28, Type 0, BuildingBlock: BETDIP_clean_sbu_0, # of connection points: 6
#     Node 29, Type 0, BuildingBlock: BETDIP_clean_sbu_0, # of connection points: 6
#     Node 30, Type 0, BuildingBlock: BETDIP_clean_sbu_0, # of connection points: 6
#     Node 31, Type 0, BuildingBlock: BETDIP_clean_sbu_0, # of connection points: 6
#     Edge 32, Type (0, 0), BuildingBlock: UVAHIK_clean_linker_0, # of connection points: 2
#     Edge 33, Type (0, 0), BuildingBlock: UVAHIK_clean_linker_0, # of connection points: 2
#     Edge 34, Type (0, 0), BuildingBlock: UVAHIK_clean_linker_0, # of connection points: 2
#     Edge 35, Type (0, 0), BuildingBlock: UVAHIK_clean_linker_0, # of connection points: 2
#     Edge 36, Type (0, 0), BuildingBlock: UVAHIK_clean_linker_0, # of connection points: 2
#     Edge 37, Type (0, 0), BuildingBlock: UVAHIK_clean_linker_0, # of connection points: 2
#     Edge 38, Type (0, 0), BuildingBlock: UVAHIK_clean_linker_0, # of connection points: 2
#     Edge 39, Type (0, 0), BuildingBlock: UVAHIK_clean_linker_0, # of connection points: 2
#     Edge 40, Type (0, 0), BuildingBlock: UVAHIK_clean_linker_0, # of connection points: 2
#     Edge 41, Type (0, 0), BuildingBlock: UVAHIK_clean_linker_0, # of connection points: 2
#     Edge 42, Type (0, 0), BuildingBlock: UVAHIK_clean_linker_0, # of connection points: 2
#     Edge 43, Type (0, 0), BuildingBlock: UVAHIK_clean_linker_0, # of connection points: 2
#     Edge 44, Type (0, 0), BuildingBlock: UVAHIK_clean_linker_0, # of connection points: 2
#     Edge 45, Type (0, 0), BuildingBlock: UVAHIK_clean_linker_0, # of connection points: 2
#     Edge 46, Type (0, 0), BuildingBlock: UVAHIK_clean_linker_0, # of connection points: 2
#     Edge 47, Type (0, 0), BuildingBlock: UVAHIK_clean_linker_0, # of connection points: 2
#     Edge 48, Type (0, 0), BuildingBlock: UVAHIK_clean_linker_0, # of connection points: 2
#     Edge 49, Type (0, 0), BuildingBlock: UVAHIK_clean_linker_0, # of connection points: 2
#     Edge 50, Type (0, 0), BuildingBlock: UVAHIK_clean_linker_0, # of connection points: 2
#     Edge 51, Type (0, 0), BuildingBlock: UVAHIK_clean_linker_0, # of connection points: 2
#     Edge 52, Type (0, 0), BuildingBlock: UVAHIK_clean_linker_0, # of connection points: 2
#     Edge 53, Type (0, 0), BuildingBlock: UVAHIK_clean_linker_0, # of connection points: 2
#     Edge 54, Type (0, 0), BuildingBlock: UVAHIK_clean_linker_0, # of connection points: 2
#     Edge 55, Type (0, 0), BuildingBlock: UVAHIK_clean_linker_0, # of connection points: 2
#     Edge 56, Type (0, 0), BuildingBlock: UVAHIK_clean_linker_0, # of connection points: 2
#     Edge 57, Type (0, 0), BuildingBlock: UVAHIK_clean_linker_0, # of connection points: 2
#     Edge 58, Type (0, 0), BuildingBlock: UVAHIK_clean_linker_0, # of connection points: 2
#     Edge 59, Type (0, 0), BuildingBlock: UVAHIK_clean_linker_0, # of connection points: 2
#     Edge 60, Type (0, 0), BuildingBlock: UVAHIK_clean_linker_0, # of connection points: 2
#     Edge 61, Type (0, 0), BuildingBlock: UVAHIK_clean_linker_0, # of connection points: 2
#     Edge 62, Type (0, 0), BuildingBlock: UVAHIK_clean_linker_0, # of connection points: 2
#     Edge 63, Type (0, 0), BuildingBlock: UVAHIK_clean_linker_0, # of connection points: 2
#     Edge 64, Type (0, 0), BuildingBlock: UVAHIK_clean_linker_0, # of connection points: 2
#     Edge 65, Type (0, 0), BuildingBlock: UVAHIK_clean_linker_0, # of connection points: 2
#     Edge 66, Type (0, 0), BuildingBlock: UVAHIK_clean_linker_0, # of connection points: 2
#     Edge 67, Type (0, 0), BuildingBlock: UVAHIK_clean_linker_0, # of connection points: 2
#     Edge 68, Type (0, 0), BuildingBlock: UVAHIK_clean_linker_0, # of connection points: 2
#     Edge 69, Type (0, 0), BuildingBlock: UVAHIK_clean_linker_0, # of connection points: 2
#     Edge 70, Type (0, 0), BuildingBlock: UVAHIK_clean_linker_0, # of connection points: 2
#     Edge 71, Type (0, 0), BuildingBlock: UVAHIK_clean_linker_0, # of connection points: 2
#     Edge 72, Type (0, 0), BuildingBlock: UVAHIK_clean_linker_0, # of connection points: 2
#     Edge 73, Type (0, 0), BuildingBlock: UVAHIK_clean_linker_0, # of connection points: 2
#     Edge 74, Type (0, 0), BuildingBlock: UVAHIK_clean_linker_0, # of connection points: 2
#     Edge 75, Type (0, 0), BuildingBlock: UVAHIK_clean_linker_0, # of connection points: 2
#     Edge 76, Type (0, 0), BuildingBlock: UVAHIK_clean_linker_0, # of connection points: 2
#     Edge 77, Type (0, 0), BuildingBlock: UVAHIK_clean_linker_0, # of connection points: 2
#     Edge 78, Type (0, 0), BuildingBlock: UVAHIK_clean_linker_0, # of connection points: 2
#     Edge 79, Type (0, 0), BuildingBlock: UVAHIK_clean_linker_0, # of connection points: 2
#     Edge 80, Type (0, 0), BuildingBlock: UVAHIK_clean_linker_0, # of connection points: 2
#     Edge 81, Type (0, 0), BuildingBlock: UVAHIK_clean_linker_0, # of connection points: 2
#     Edge 82, Type (0, 0), BuildingBlock: UVAHIK_clean_linker_0, # of connection points: 2
#     Edge 83, Type (0, 0), BuildingBlock: UVAHIK_clean_linker_0, # of connection points: 2
#     Edge 84, Type (0, 0), BuildingBlock: UVAHIK_clean_linker_0, # of connection points: 2
#     Edge 85, Type (0, 0), BuildingBlock: UVAHIK_clean_linker_0, # of connection points: 2
#     Edge 86, Type (0, 0), BuildingBlock: UVAHIK_clean_linker_0, # of connection points: 2
#     Edge 87, Type (0, 0), BuildingBlock: UVAHIK_clean_linker_0, # of connection points: 2
#     Edge 88, Type (0, 0), BuildingBlock: UVAHIK_clean_linker_0, # of connection points: 2
#     Edge 89, Type (0, 0), BuildingBlock: UVAHIK_clean_linker_0, # of connection points: 2
#     Edge 90, Type (0, 0), BuildingBlock: UVAHIK_clean_linker_0, # of connection points: 2
#     Edge 91, Type (0, 0), BuildingBlock: UVAHIK_clean_linker_0, # of connection points: 2
#     Edge 92, Type (0, 0), BuildingBlock: UVAHIK_clean_linker_0, # of connection points: 2
#     Edge 93, Type (0, 0), BuildingBlock: UVAHIK_clean_linker_0, # of connection points: 2
#     Edge 94, Type (0, 0), BuildingBlock: UVAHIK_clean_linker_0, # of connection points: 2
#     Edge 95, Type (0, 0), BuildingBlock: UVAHIK_clean_linker_0, # of connection points: 2
#     Edge 96, Type (0, 0), BuildingBlock: UVAHIK_clean_linker_0, # of connection points: 2
#     Edge 97, Type (0, 0), BuildingBlock: UVAHIK_clean_linker_0, # of connection points: 2
#     Edge 98, Type (0, 0), BuildingBlock: UVAHIK_clean_linker_0, # of connection points: 2
#     Edge 99, Type (0, 0), BuildingBlock: UVAHIK_clean_linker_0, # of connection points: 2
#     Edge 100, Type (0, 0), BuildingBlock: UVAHIK_clean_linker_0, # of connection points: 2
#     Edge 101, Type (0, 0), BuildingBlock: UVAHIK_clean_linker_0, # of connection points: 2
#     Edge 102, Type (0, 0), BuildingBlock: UVAHIK_clean_linker_0, # of connection points: 2
#     Edge 103, Type (0, 0), BuildingBlock: UVAHIK_clean_linker_0, # of connection points: 2
#     Edge 104, Type (0, 0), BuildingBlock: UVAHIK_clean_linker_0, # of connection points: 2
#     Edge 105, Type (0, 0), BuildingBlock: UVAHIK_clean_linker_0, # of connection points: 2
#     Edge 106, Type (0, 0), BuildingBlock: UVAHIK_clean_linker_0, # of connection points: 2
#     Edge 107, Type (0, 0), BuildingBlock: UVAHIK_clean_linker_0, # of connection points: 2
#     Edge 108, Type (0, 0), BuildingBlock: UVAHIK_clean_linker_0, # of connection points: 2
#     Edge 109, Type (0, 0), BuildingBlock: UVAHIK_clean_linker_0, # of connection points: 2
#     Edge 110, Type (0, 0), BuildingBlock: UVAHIK_clean_linker_0, # of connection points: 2
#     Edge 111, Type (0, 0), BuildingBlock: UVAHIK_clean_linker_0, # of connection points: 2
#     Edge 112, Type (0, 0), BuildingBlock: UVAHIK_clean_linker_0, # of connection points: 2
#     Edge 113, Type (0, 0), BuildingBlock: UVAHIK_clean_linker_0, # of connection points: 2
#     Edge 114, Type (0, 0), BuildingBlock: UVAHIK_clean_linker_0, # of connection points: 2
#     Edge 115, Type (0, 0), BuildingBlock: UVAHIK_clean_linker_0, # of connection points: 2
#     Edge 116, Type (0, 0), BuildingBlock: UVAHIK_clean_linker_0, # of connection points: 2
#     Edge 117, Type (0, 0), BuildingBlock: UVAHIK_clean_linker_0, # of connection points: 2
#     Edge 118, Type (0, 0), BuildingBlock: UVAHIK_clean_linker_0, # of connection points: 2
#     Edge 119, Type (0, 0), BuildingBlock: UVAHIK_clean_linker_0, # of connection points: 2
#     Edge 120, Type (0, 0), BuildingBlock: UVAHIK_clean_linker_0, # of connection points: 2
#     Edge 121, Type (0, 0), BuildingBlock: UVAHIK_clean_linker_0, # of connection points: 2
#     Edge 122, Type (0, 0), BuildingBlock: UVAHIK_clean_linker_0, # of connection points: 2
#     Edge 123, Type (0, 0), BuildingBlock: UVAHIK_clean_linker_0, # of connection points: 2
#     Edge 124, Type (0, 0), BuildingBlock: UVAHIK_clean_linker_0, # of connection points: 2
#     Edge 125, Type (0, 0), BuildingBlock: UVAHIK_clean_linker_0, # of connection points: 2
#     Edge 126, Type (0, 0), BuildingBlock: UVAHIK_clean_linker_0, # of connection points: 2
#     Edge 127, Type (0, 0), BuildingBlock: UVAHIK_clean_linker_0, # of connection points: 2
# Relax obj value: 0.070
# Max RMSD: 0.132
# Mean RMSD: 0.132
data_MOF--net-som--node1-BETDIP_clean_sbu_0--edge1-UVAHIK_clean_linker_0
_symmetry_space_group_name_H-M    P1
_symmetry_Int_Tables_number       1
_symmetry_cell_setting            triclinic
loop_
_symmetry_equiv_pos_as_xyz
'x, y, z'
_cell_length_a     30.260539
_cell_length_b     72.758105
_cell_length_c     145.29975
_cell_angle_alpha  89.979722
_cell_angle_beta   90.016142
_cell_angle_gamma 89.98331
loop_
_atom_site_label
_atom_site_type_symbol
_atom_site_fract_x
_atom_site_fract_y
_atom_site_fract_z
_atom_type_partial_charge
Tb0 Tb 0.9971 0.49682 0.07752 0.0
Tb1 Tb 0.08693 0.47915 0.07865 0.0
C2 C 0.91933 0.50597 0.0733 0.0
C3 C 0.87272 0.50014 0.07434 0.0
C4 C 0.84584 0.49922 0.06648 0.0
C5 C 0.80054 0.49571 0.06726 0.0
C6 C 0.78094 0.49312 0.07595 0.0
C7 C 0.80817 0.49353 0.08381 0.0
C8 C 0.8536 0.49698 0.08301 0.0
C9 C 0.03511 0.49737 0.09391 0.0
C10 C 1.00457 0.45385 0.08121 0.0
C11 C 0.1645 0.47019 0.0832 0.0
C12 C 0.21131 0.47574 0.08218 0.0
C13 C 0.23792 0.47679 0.09008 0.0
C14 C 0.2834 0.47991 0.08934 0.0
C15 C 0.30346 0.48199 0.08066 0.0
C16 C 0.27649 0.48146 0.07276 0.0
C17 C 0.23089 0.47839 0.07351 0.0
C18 C 0.05076 0.47881 0.06205 0.0
C19 C 0.07716 0.5224 0.07484 0.0
O20 O 0.94468 0.49589 0.06801 0.0
O21 O 0.93998 0.51183 0.08065 0.0
O22 O 0.03563 0.4844 0.08821 0.0
O23 O 1.01005 0.51038 0.09078 0.0
O24 O 0.98016 0.46777 0.07834 0.0
O25 O 0.04722 0.45571 0.08301 0.0
O26 O 0.13901 0.48067 0.08824 0.0
O27 O 0.14417 0.46393 0.0759 0.0
O28 O 0.04884 0.49162 0.06786 0.0
O29 O 0.07678 0.46618 0.06523 0.0
O30 O 0.10266 0.50884 0.0779 0.0
O31 O 0.03546 0.51962 0.07263 0.0
H32 H 0.8597 0.50175 0.05972 0.0
H33 H 0.78061 0.49571 0.06107 0.0
H34 H 0.7943 0.49135 0.09059 0.0
H35 H 0.8735 0.49755 0.08921 0.0
H36 H 0.22369 0.47464 0.09684 0.0
H37 H 0.30309 0.48002 0.09556 0.0
H38 H 0.29069 0.48327 0.06598 0.0
H39 H 0.21122 0.47768 0.06729 0.0
Tb40 Tb 0.29342 0.73734 0.07643 0.0
Tb41 Tb 0.20269 0.75401 0.07784 0.0
C42 C 0.371 0.7286 0.07188 0.0
C43 C 0.4175 0.73463 0.07273 0.0
C44 C 0.44472 0.73408 0.06493 0.0
C45 C 0.49002 0.73761 0.06565 0.0
C46 C 0.50924 0.74169 0.07423 0.0
C47 C 0.48161 0.74282 0.08201 0.0
C48 C 0.43617 0.73936 0.08127 0.0
C49 C 0.258 0.73747 0.09308 0.0
C50 C 0.28369 0.78034 0.0796 0.0
C51 C 0.12532 0.76264 0.08266 0.0
C52 C 0.07851 0.75721 0.0816 0.0
C53 C 0.05105 0.75742 0.08937 0.0
C54 C 1.0056 0.75438 0.08852 0.0
C55 C 0.98647 0.75108 0.07985 0.0
C56 C 1.0143 0.75035 0.07209 0.0
C57 C 0.05988 0.75336 0.07295 0.0
C58 C 0.23627 0.75354 0.06101 0.0
C59 C 0.21488 0.71064 0.07495 0.0
O60 O 0.34483 0.73852 0.06669 0.0
O61 O 0.35134 0.72273 0.07934 0.0
O62 O 0.25561 0.75001 0.08716 0.0
O63 O 0.28375 0.72463 0.09003 0.0
O64 O 0.30852 0.76664 0.07662 0.0
O65 O 0.24171 0.77788 0.08185 0.0
O66 O 0.15091 0.75176 0.08747 0.0
O67 O 0.14535 0.76937 0.07543 0.0
O68 O 0.23994 0.74117 0.06702 0.0
O69 O 0.20986 0.76606 0.06413 0.0
O70 O 0.18869 0.72417 0.07777 0.0
O71 O 0.25594 0.71367 0.07236 0.0
H72 H 0.43112 0.73034 0.05828 0.0
H73 H 0.51027 0.73642 0.05953 0.0
H74 H 0.4952 0.74619 0.08869 0.0
H75 H 0.41593 0.73996 0.08741 0.0
H76 H 0.06462 0.7605 0.0961 0.0
H77 H 0.98525 0.75527 0.09464 0.0
H78 H 1.0008 0.74759 0.06532 0.0
H79 H 0.08032 0.75306 0.06683 0.0
Tb80 Tb 1.00284 0.73703 0.19818 0.0
Tb81 Tb 0.09355 0.7537 0.19689 0.0
C82 C 0.9252 0.72826 0.20266 0.0
C83 C 0.87874 0.73438 0.20183 0.0
C84 C 0.85189 0.73428 0.2097 0.0
C85 C 0.80657 0.73784 0.20903 0.0
C86 C 0.78699 0.74148 0.20043 0.0
C87 C 0.81425 0.74218 0.19259 0.0
C88 C 0.85968 0.7387 0.19328 0.0
C89 C 0.03855 0.73734 0.18157 0.0
C90 C 1.01259 0.78008 0.19515 0.0
C91 C 0.171 0.76237 0.19216 0.0
C92 C 0.21778 0.75692 0.19329 0.0
C93 C 0.24519 0.75666 0.18551 0.0
C94 C 0.29063 0.75361 0.18639 0.0
C95 C 0.30979 0.75081 0.19511 0.0
C96 C 0.28201 0.75055 0.20288 0.0
C97 C 0.23645 0.75356 0.20199 0.0
C98 C 0.05968 0.75303 0.21369 0.0
C99 C 0.08137 0.71028 0.19963 0.0
O100 O 0.95141 0.73799 0.20793 0.0
O101 O 0.94488 0.72255 0.19517 0.0
O102 O 0.04082 0.74982 0.18751 0.0
O103 O 1.01279 0.72446 0.18457 0.0
O104 O 0.98771 0.76633 0.19806 0.0
O105 O 0.05461 0.77764 0.19293 0.0
O106 O 0.14556 0.75151 0.18732 0.0
O107 O 0.15074 0.7691 0.19937 0.0
O108 O 0.05613 0.74072 0.20765 0.0
O109 O 0.08614 0.76559 0.21063 0.0
O110 O 0.10766 0.72386 0.19692 0.0
O111 O 0.0402 0.71326 0.20217 0.0
H112 H 0.86577 0.73087 0.21637 0.0
H113 H 0.7866 0.737 0.2152 0.0
H114 H 0.80035 0.7452 0.18588 0.0
H115 H 0.8796 0.73893 0.18709 0.0
H116 H 0.2316 0.75936 0.17874 0.0
H117 H 0.31096 0.75412 0.18027 0.0
H118 H 0.29555 0.74818 0.20968 0.0
H119 H 0.21606 0.75364 0.20811 0.0
Tb120 Tb 0.29725 0.49635 0.19836 0.0
Tb121 Tb 0.20778 0.47854 0.19719 0.0
C122 C 0.37492 0.50565 0.20256 0.0
C123 C 0.42167 0.49987 0.20156 0.0
C124 C 0.44646 0.49594 0.20949 0.0
C125 C 0.49194 0.49268 0.20891 0.0
C126 C 0.51387 0.49339 0.20038 0.0
C127 C 0.48872 0.49672 0.19239 0.0
C128 C 0.44315 0.49995 0.19297 0.0
C129 C 0.25936 0.4969 0.18196 0.0
C130 C 0.29035 0.45335 0.19471 0.0
C131 C 0.13028 0.46949 0.19266 0.0
C132 C 0.08341 0.47508 0.19364 0.0
C133 C 0.05859 0.47887 0.1857 0.0
C134 C 1.01301 0.48191 0.18626 0.0
C135 C 0.99102 0.48111 0.19479 0.0
C136 C 1.01619 0.4779 0.20278 0.0
C137 C 0.06186 0.47489 0.20222 0.0
C138 C 0.2438 0.47824 0.21381 0.0
C139 C 0.21694 0.5218 0.20101 0.0
O140 O 0.34957 0.49564 0.20788 0.0
O141 O 0.35421 0.51144 0.19519 0.0
O142 O 0.25902 0.48388 0.18764 0.0
O143 O 0.28408 0.50998 0.18512 0.0
O144 O 0.31458 0.46733 0.19758 0.0
O145 O 0.24771 0.45514 0.19288 0.0
O146 O 0.15583 0.47988 0.18758 0.0
O147 O 0.15063 0.46328 0.19997 0.0
O148 O 0.24556 0.49107 0.208 0.0
O149 O 0.21804 0.46555 0.21061 0.0
O150 O 0.19169 0.50821 0.19791 0.0
O151 O 0.25861 0.51907 0.20326 0.0
H152 H 0.43084 0.49588 0.2162 0.0
H153 H 0.51002 0.48984 0.21518 0.0
H154 H 0.50449 0.49754 0.18572 0.0
H155 H 0.4251 0.50305 0.18673 0.0
H156 H 0.07429 0.47901 0.179 0.0
H157 H 0.99489 0.48466 0.17998 0.0
H158 H 1.0004 0.47701 0.20945 0.0
H159 H 0.07994 0.47189 0.20847 0.0
Tb160 Tb 0.95429 0.50288 0.9473 0.0
Tb161 Tb 0.04505 0.48627 0.94878 0.0
C162 C 0.87693 0.51131 0.9424 0.0
C163 C 0.83014 0.50593 0.94355 0.0
C164 C 0.80274 0.50549 0.93576 0.0
C165 C 0.75731 0.50247 0.93666 0.0
C166 C 0.73815 0.49986 0.94539 0.0
C167 C 0.76592 0.49978 0.95317 0.0
C168 C 0.81149 0.50276 0.95226 0.0
C169 C 0.98767 0.50276 0.96415 0.0
C170 C 0.96655 0.4596 0.95051 0.0
C171 C 0.12272 0.47761 0.95331 0.0
C172 C 0.16922 0.4836 0.95239 0.0
C173 C 0.19623 0.48375 0.96024 0.0
C174 C 0.24154 0.48724 0.9595 0.0
C175 C 0.26097 0.49059 0.95086 0.0
C176 C 0.23357 0.49102 0.94303 0.0
C177 C 0.18813 0.4876 0.94378 0.0
C178 C 1.00929 0.48614 0.93215 0.0
C179 C 0.0352 0.52921 0.94544 0.0
O180 O 0.90246 0.50019 0.93772 0.0
O181 O 0.89705 0.51841 0.94953 0.0
O182 O 0.99169 0.49028 0.95821 0.0
O183 O 0.96105 0.51514 0.96096 0.0
O184 O 0.94041 0.47303 0.94756 0.0
O185 O 1.0076 0.46275 0.95309 0.0
O186 O 0.0967 0.48765 0.95847 0.0
O187 O 0.10286 0.47156 0.94591 0.0
O188 O 1.00722 0.49875 0.93802 0.0
O189 O 0.03497 0.47331 0.93524 0.0
O190 O 0.06007 0.51558 0.94849 0.0
O191 O 0.99326 0.52668 0.94318 0.0
H192 H 0.81633 0.50804 0.92898 0.0
H193 H 0.73698 0.50285 0.93053 0.0
H194 H 0.75239 0.49755 0.95998 0.0
H195 H 0.83188 0.50298 0.95839 0.0
H196 H 0.18247 0.48058 0.96694 0.0
H197 H 0.26162 0.4866 0.96566 0.0
H198 H 0.24734 0.49381 0.93629 0.0
H199 H 0.16808 0.48764 0.9376 0.0
Tb200 Tb 0.84051 0.22792 0.94711 0.0
Tb201 Tb 0.75018 0.24483 0.94844 0.0
C202 C 0.91787 0.21934 0.9423 0.0
C203 C 0.96475 0.2246 0.94353 0.0
C204 C 0.99011 0.22896 0.93575 0.0
C205 C 0.03571 0.23171 0.9365 0.0
C206 C 0.05713 0.23005 0.94505 0.0
C207 C 0.03142 0.2263 0.95291 0.0
C208 C 0.98573 0.22358 0.95216 0.0
C209 C 0.80645 0.22796 0.96389 0.0
C210 C 0.82917 0.27118 0.95052 0.0
C211 C 0.6724 0.25366 0.95277 0.0
C212 C 0.6259 0.24752 0.95187 0.0
C213 C 0.60205 0.24281 0.95981 0.0
C214 C 0.55668 0.23927 0.95934 0.0
C215 C 0.53394 0.24049 0.95092 0.0
C216 C 0.55817 0.24459 0.94291 0.0
C217 C 0.60361 0.2481 0.94337 0.0
C218 C 0.78678 0.24511 0.93189 0.0
C219 C 0.75926 0.20188 0.94508 0.0
O220 O 0.89262 0.23057 0.93761 0.0
O221 O 0.89731 0.21211 0.94935 0.0
O222 O 0.80294 0.2405 0.95796 0.0
O223 O 0.83304 0.21553 0.96074 0.0
O224 O 0.85513 0.25771 0.94755 0.0
O225 O 0.78786 0.26814 0.95294 0.0
O226 O 0.69843 0.24393 0.95808 0.0
O227 O 0.6925 0.25947 0.94534 0.0
O228 O 0.78817 0.23235 0.9377 0.0
O229 O 0.76152 0.25805 0.93501 0.0
O230 O 0.73455 0.21558 0.9481 0.0
O231 O 0.8013 0.20427 0.94288 0.0
H232 H 0.97481 0.22975 0.92902 0.0
H233 H 0.05428 0.23491 0.93033 0.0
H234 H 0.0468 0.22475 0.95959 0.0
H235 H 0.96717 0.22014 0.95829 0.0
H236 H 0.61829 0.24237 0.96645 0.0
H237 H 0.53927 0.23584 0.96562 0.0
H238 H 0.54174 0.24584 0.93631 0.0
H239 H 0.6209 0.25182 0.93712 0.0
Tb240 Tb 0.95293 0.22954 0.82829 0.0
Tb241 Tb 0.04362 0.24617 0.82693 0.0
C242 C 0.87559 0.22093 0.83312 0.0
C243 C 0.82876 0.22633 0.83203 0.0
C244 C 0.80145 0.22653 0.83982 0.0
C245 C 0.75599 0.22954 0.83896 0.0
C246 C 0.73669 0.23236 0.83026 0.0
C247 C 0.76438 0.23269 0.82247 0.0
C248 C 0.80997 0.22972 0.82334 0.0
C249 C 0.98633 0.23005 0.81145 0.0
C250 C 0.96518 0.27292 0.82544 0.0
C251 C 0.12132 0.25493 0.82248 0.0
C252 C 0.16775 0.24881 0.82334 0.0
C253 C 0.19476 0.24896 0.81549 0.0
C254 C 0.24005 0.24536 0.8162 0.0
C255 C 0.25944 0.2416 0.8248 0.0
C256 C 0.23203 0.24087 0.83262 0.0
C257 C 0.18662 0.2444 0.8319 0.0
C258 C 1.00784 0.24592 0.84356 0.0
C259 C 0.03391 0.20316 0.83002 0.0
O260 O 0.90111 0.2319 0.83789 0.0
O261 O 0.89569 0.21409 0.82593 0.0
O262 O 0.99029 0.24242 0.81746 0.0
O263 O 0.95985 0.21756 0.81458 0.0
O264 O 0.93892 0.25938 0.82821 0.0
O265 O 1.00627 0.26988 0.82287 0.0
O266 O 0.09517 0.24518 0.81721 0.0
O267 O 0.10154 0.26067 0.82996 0.0
O268 O 1.0058 0.23343 0.83762 0.0
O269 O 0.03347 0.25882 0.84054 0.0
O270 O 0.05872 0.21687 0.82704 0.0
O271 O 0.99196 0.20563 0.83228 0.0
H272 H 0.81515 0.22381 0.84658 0.0
H273 H 0.73575 0.22897 0.8451 0.0
H274 H 0.75075 0.23508 0.81568 0.0
H275 H 0.83029 0.22969 0.8172 0.0
H276 H 0.18103 0.25245 0.80883 0.0
H277 H 0.26014 0.24623 0.81005 0.0
H278 H 0.24577 0.23776 0.83933 0.0
H279 H 0.16657 0.24411 0.83808 0.0
Tb280 Tb 0.83966 0.50469 0.82854 0.0
Tb281 Tb 0.74987 0.48702 0.82741 0.0
C282 C 0.91719 0.5136 0.83313 0.0
C283 C 0.96402 0.50805 0.83212 0.0
C284 C 0.99057 0.50692 0.84002 0.0
C285 C 0.03606 0.50381 0.83929 0.0
C286 C 0.05619 0.50182 0.83062 0.0
C287 C 0.02928 0.50242 0.82271 0.0
C288 C 0.98367 0.50548 0.82345 0.0
C289 C 0.80369 0.50509 0.81194 0.0
C290 C 0.82995 0.46146 0.82468 0.0
C291 C 0.67205 0.47783 0.82326 0.0
C292 C 0.62545 0.48368 0.82432 0.0
C293 C 0.59856 0.48469 0.81647 0.0
C294 C 0.55327 0.48821 0.81726 0.0
C295 C 0.53369 0.49072 0.82595 0.0
C296 C 0.56094 0.49022 0.83381 0.0
C297 C 0.60636 0.48677 0.83301 0.0
C298 C 0.78817 0.48643 0.84378 0.0
C299 C 0.75727 0.53 0.83106 0.0
O300 O 0.89167 0.50309 0.83815 0.0
O301 O 0.89692 0.51992 0.82583 0.0
O302 O 0.80151 0.49225 0.81774 0.0
O303 O 0.8298 0.51767 0.81512 0.0
O304 O 0.85541 0.475 0.82777 0.0
O305 O 0.78825 0.46426 0.82247 0.0
O306 O 0.69732 0.48785 0.81793 0.0
O307 O 0.69283 0.47203 0.83062 0.0
O308 O 0.78835 0.49942 0.83809 0.0
O309 O 0.76327 0.47338 0.84065 0.0
O310 O 0.73289 0.51606 0.8282 0.0
O311 O 0.79992 0.52814 0.83287 0.0
H312 H 0.97628 0.50901 0.84678 0.0
H313 H 0.05569 0.50365 0.84552 0.0
H314 H 0.04354 0.50068 0.81593 0.0
H315 H 0.96405 0.50625 0.81723 0.0
H316 H 0.6124 0.48221 0.8097 0.0
H317 H 0.53333 0.48828 0.81107 0.0
H318 H 0.54708 0.49234 0.8406 0.0
H319 H 0.62626 0.48612 0.83919 0.0
Tb320 Tb 0.99863 -0.0037 0.5781 0.0
Tb321 Tb 0.08819 0.97877 0.57901 0.0
C322 C 0.92059 0.0055 0.57415 0.0
C323 C 0.87405 -0.00049 0.57534 0.0
C324 C 0.85174 0.99072 0.56809 0.0
C325 C 0.80638 0.98717 0.56867 0.0
C326 C 0.78212 -0.00757 0.5765 0.0
C327 C 0.80473 0.00074 0.58386 0.0
C328 C 0.85009 0.00429 0.58328 0.0
C329 C 0.03698 -0.00339 0.59445 0.0
C330 C 1.00627 0.9533 0.58155 0.0
C331 C 0.16608 0.96977 0.58327 0.0
C332 C 0.21284 0.97533 0.58198 0.0
C333 C 0.23602 0.98362 0.58926 0.0
C334 C 0.28154 0.98674 0.58861 0.0
C335 C 0.30511 0.98152 0.58068 0.0
C336 C 0.28165 0.97371 0.57329 0.0
C337 C 0.23611 0.97061 0.57394 0.0
C338 C 0.05175 0.9788 0.56243 0.0
C339 C 0.07805 0.02212 0.57562 0.0
O340 O 0.94583 -0.00433 0.56872 0.0
O341 O 0.94175 0.01127 0.58145 0.0
O342 O 0.03737 0.98369 0.58872 0.0
O343 O 1.01197 0.00967 0.59138 0.0
O344 O 0.98176 0.96722 0.57872 0.0
O345 O 0.04886 0.95523 0.58337 0.0
O346 O 0.14101 0.98029 0.58838 0.0
O347 O 0.14492 0.96332 0.57611 0.0
O348 O 0.04998 -0.0085 0.5683 0.0
O349 O 0.07764 0.96608 0.56554 0.0
O350 O 0.10382 0.0085 0.5785 0.0
O351 O 0.03649 0.01929 0.57334 0.0
H352 H 0.86909 0.98704 0.56183 0.0
H353 H 0.79017 0.98053 0.56292 0.0
H354 H 0.78707 0.00519 0.58995 0.0
H355 H 0.86601 0.01132 0.58895 0.0
H356 H 0.21917 0.98723 0.59558 0.0
H357 H 0.2984 -0.00698 0.59438 0.0
H358 H 0.29873 0.9693 0.56713 0.0
H359 H 0.2195 0.96397 0.56824 0.0
Tb360 Tb 0.29801 0.23594 0.57738 0.0
Tb361 Tb 0.20802 0.25336 0.57854 0.0
C362 C 0.37577 0.22686 0.57313 0.0
C363 C 0.42238 0.2327 0.57413 0.0
C364 C 0.44945 0.23306 0.5663 0.0
C365 C 0.49476 0.23653 0.56708 0.0
C366 C 0.51418 0.23964 0.57574 0.0
C367 C 0.48674 0.2398 0.58357 0.0
C368 C 0.44129 0.2364 0.58278 0.0
C369 C 0.26044 0.23554 0.59382 0.0
C370 C 0.29008 0.27891 0.58094 0.0
C371 C 0.13044 0.26222 0.58311 0.0
C372 C 0.08367 0.2566 0.58212 0.0
C373 C 0.05686 0.25603 0.58999 0.0
C374 C 1.0114 0.25286 0.58924 0.0
C375 C 0.99159 0.25025 0.58058 0.0
C376 C 1.01877 0.25029 0.57271 0.0
C377 C 0.06435 0.25341 0.57347 0.0
C378 C 0.24368 0.2536 0.5619 0.0
C379 C 0.21848 0.21007 0.57493 0.0
O380 O 0.3503 0.23691 0.56785 0.0
O381 O 0.35529 0.22103 0.58051 0.0
O382 O 0.2596 0.24842 0.58807 0.0
O383 O 0.28558 0.22254 0.59072 0.0
O384 O 0.31459 0.26502 0.57807 0.0
O385 O 0.24751 0.27695 0.5828 0.0
O386 O 0.15606 0.25177 0.58815 0.0
O387 O 0.15061 0.26847 0.57579 0.0
O388 O 0.24595 0.24084 0.56774 0.0
O389 O 0.21769 0.26621 0.56509 0.0
O390 O 0.19276 0.22361 0.57793 0.0
O391 O 0.25999 0.21297 0.57263 0.0
H392 H 0.43572 0.23012 0.55957 0.0
H393 H 0.51485 0.23608 0.56091 0.0
H394 H 0.50048 0.2424 0.59033 0.0
H395 H 0.42122 0.23626 0.58895 0.0
H396 H 0.07091 0.2586 0.59673 0.0
H397 H 0.99155 0.25315 0.59544 0.0
H398 H 1.00476 0.24806 0.56594 0.0
H399 H 0.08421 0.25374 0.56727 0.0
Tb400 Tb 0.99727 0.23707 0.69814 0.0
Tb401 Tb 0.08715 0.25464 0.69701 0.0
C402 C 0.91954 0.22795 0.70238 0.0
C403 C 0.87294 0.23382 0.70138 0.0
C404 C 0.8459 0.23426 0.70922 0.0
C405 C 0.8006 0.23776 0.70844 0.0
C406 C 0.78115 0.24084 0.69978 0.0
C407 C 0.80855 0.24094 0.69195 0.0
C408 C 0.85399 0.2375 0.69273 0.0
C409 C 0.03506 0.2366 0.68173 0.0
C410 C 1.00488 0.28006 0.69454 0.0
C411 C 0.16474 0.26362 0.6925 0.0
C412 C 0.21155 0.25801 0.69348 0.0
C413 C 0.23827 0.25736 0.6856 0.0
C414 C 0.28375 0.25422 0.68634 0.0
C415 C 0.30368 0.25171 0.695 0.0
C416 C 0.27659 0.25183 0.70288 0.0
C417 C 0.231 0.25493 0.70214 0.0
C418 C 0.0512 0.25482 0.71363 0.0
C419 C 0.07709 0.21132 0.70056 0.0
O420 O 0.94501 0.23793 0.70768 0.0
O421 O 0.94003 0.22217 0.69499 0.0
O422 O 0.03575 0.24954 0.68745 0.0
O423 O 1.00993 0.22361 0.68485 0.0
O424 O 0.98045 0.26613 0.69738 0.0
O425 O 0.04752 0.27819 0.69272 0.0
O426 O 0.1392 0.25326 0.68741 0.0
O427 O 0.14448 0.26973 0.69984 0.0
O428 O 0.04918 0.24206 0.70779 0.0
O429 O 0.07712 0.26748 0.71046 0.0
O430 O 0.10269 0.22492 0.69759 0.0
O431 O 0.03553 0.21413 0.70287 0.0
H432 H 0.85965 0.23133 0.71595 0.0
H433 H 0.78054 0.23737 0.71461 0.0
H434 H 0.7948 0.24351 0.68518 0.0
H435 H 0.87403 0.23731 0.68656 0.0
H436 H 0.22413 0.25985 0.67886 0.0
H437 H 0.30353 0.25444 0.68013 0.0
H438 H 0.2907 0.24969 0.70965 0.0
H439 H 0.21122 0.25532 0.70835 0.0
Tb440 Tb 0.29557 -0.00345 0.69927 0.0
Tb441 Tb 0.20494 0.97989 0.69786 0.0
C442 C 0.37328 0.00519 0.70375 0.0
C443 C 0.41978 -0.00076 0.70274 0.0
C444 C 0.44655 -0.00176 0.71061 0.0
C445 C 0.49187 -0.00522 0.70984 0.0
C446 C 0.51155 -0.00766 0.70116 0.0
C447 C 0.4844 -0.00724 0.69328 0.0
C448 C 0.43896 -0.00385 0.69406 0.0
C449 C 0.25962 -0.00322 0.68266 0.0
C450 C 0.28593 0.95361 0.69587 0.0
C451 C 0.12745 0.97145 0.69307 0.0
C452 C 0.08071 0.97689 0.69426 0.0
C453 C 0.05362 0.97816 0.68645 0.0
C454 C 1.00819 0.98121 0.68734 0.0
C455 C 0.98871 0.983 0.69609 0.0
C456 C 1.01616 0.98226 0.70391 0.0
C457 C 0.06172 0.97926 0.70301 0.0
C458 C 0.23896 0.97994 0.71467 0.0
C459 C 0.21699 0.02316 0.70116 0.0
O460 O 0.34745 -0.00499 0.70889 0.0
O461 O 0.35316 0.01141 0.69641 0.0
O462 O 0.25754 0.9841 0.6885 0.0
O463 O 0.28529 0.00959 0.68576 0.0
O464 O 0.3108 0.96726 0.6989 0.0
O465 O 0.24389 0.95612 0.69368 0.0
O466 O 0.15289 0.9825 0.68833 0.0
O467 O 0.14777 0.96438 0.70019 0.0
O468 O 0.24245 -0.00756 0.70873 0.0
O469 O 0.21242 0.96751 0.7115 0.0
O470 O 0.19089 0.00974 0.69819 0.0
O471 O 0.25811 0.01998 0.70369 0.0
H472 H 0.4326 0.00071 0.71737 0.0
H473 H 0.51176 -0.00525 0.71604 0.0
H474 H 0.49838 0.99068 0.6865 0.0
H475 H 0.41914 -0.00321 0.68787 0.0
H476 H 0.06744 0.97623 0.67963 0.0
H477 H 0.98809 0.98148 0.68117 0.0
H478 H 1.00238 0.98384 0.71074 0.0
H479 H 0.08182 0.97839 0.70916 0.0
Tb480 Tb 0.95346 0.00428 0.4478 0.0
Tb481 Tb 0.04416 0.98752 0.44923 0.0
C482 C 0.87616 0.01296 0.44294 0.0
C483 C 0.82931 0.00756 0.44395 0.0
C484 C 0.80168 0.00839 0.43622 0.0
C485 C 0.75622 0.00534 0.43705 0.0
C486 C 0.73726 0.00143 0.44568 0.0
C487 C 0.76528 9e-05 0.4534 0.0
C488 C 0.81087 0.0031 0.45254 0.0
C489 C 0.98692 0.00387 0.46464 0.0
C490 C 0.96544 0.96092 0.45077 0.0
C491 C 0.12177 0.97867 0.45372 0.0
C492 C 0.16827 0.98471 0.45292 0.0
C493 C 0.19572 0.98352 0.46068 0.0
C494 C 0.24101 0.98708 0.45997 0.0
C495 C 0.26 -0.00816 0.45146 0.0
C496 C 0.23215 -0.00641 0.44374 0.0
C497 C 0.18672 0.9901 0.44446 0.0
C498 C 1.00834 0.98762 0.4326 0.0
C499 C 0.03459 0.03053 0.44606 0.0
O500 O 0.90179 0.00207 0.43815 0.0
O501 O 0.89608 0.01964 0.45019 0.0
O502 O 0.99078 -0.00855 0.45865 0.0
O503 O 0.96048 0.01636 0.4615 0.0
O504 O 0.93936 0.97446 0.44792 0.0
O505 O 1.00653 0.96393 0.45336 0.0
O506 O 0.0956 0.98843 0.45898 0.0
O507 O 0.10211 0.97303 0.44621 0.0
O508 O 1.00637 0.00019 0.4385 0.0
O509 O 0.03388 0.97472 0.43567 0.0
O510 O 0.05936 0.01681 0.44904 0.0
O511 O 0.9926 0.02812 0.4438 0.0
H512 H 0.81512 0.01194 0.42953 0.0
H513 H 0.73574 0.00672 0.43098 0.0
H514 H 0.75192 -0.00316 0.46012 0.0
H515 H 0.83148 0.00233 0.45863 0.0
H516 H 0.18229 0.97927 0.46726 0.0
H517 H 0.26142 0.98539 0.46604 0.0
H518 H 0.24556 -0.00251 0.43711 0.0
H519 H 0.16628 0.99119 0.43836 0.0
Tb520 Tb 0.84019 0.72922 0.44683 0.0
Tb521 Tb 0.74983 0.74607 0.44822 0.0
C522 C 0.91755 0.72073 0.44199 0.0
C523 C 0.96443 0.72603 0.44321 0.0
C524 C 0.98952 0.73073 0.43544 0.0
C525 C 0.03512 0.73351 0.43615 0.0
C526 C 0.05682 0.73153 0.44466 0.0
C527 C 0.03138 0.72743 0.45251 0.0
C528 C 0.98569 0.72468 0.45179 0.0
C529 C 0.80623 0.72909 0.46362 0.0
C530 C 0.82876 0.77244 0.45037 0.0
C531 C 0.67204 0.75481 0.45259 0.0
C532 C 0.62554 0.74875 0.4516 0.0
C533 C 0.60151 0.7438 0.45949 0.0
C534 C 0.55615 0.74028 0.45895 0.0
C535 C 0.53359 0.74174 0.45051 0.0
C536 C 0.55799 0.7461 0.44256 0.0
C537 C 0.60343 0.74959 0.44309 0.0
C538 C 0.78625 0.74643 0.43165 0.0
C539 C 0.75902 0.70314 0.44477 0.0
O540 O 0.89221 0.73196 0.43732 0.0
O541 O 0.89709 0.71345 0.44903 0.0
O542 O 0.80265 0.74168 0.45772 0.0
O543 O 0.83282 0.7167 0.46043 0.0
O544 O 0.85468 0.75902 0.44732 0.0
O545 O 0.7875 0.76932 0.4528 0.0
O546 O 0.69796 0.74485 0.45782 0.0
O547 O 0.69227 0.76089 0.44523 0.0
O548 O 0.78775 0.73367 0.43745 0.0
O549 O 0.76092 0.75933 0.43478 0.0
O550 O 0.73427 0.71681 0.44781 0.0
O551 O 0.80105 0.70559 0.44257 0.0
H552 H 0.97401 0.73177 0.42873 0.0
H553 H 0.05348 0.73698 0.42999 0.0
H554 H 0.04698 0.72563 0.45916 0.0
H555 H 0.96736 0.72097 0.45792 0.0
H556 H 0.61761 0.74315 0.46614 0.0
H557 H 0.53862 0.73665 0.46519 0.0
H558 H 0.54171 0.74755 0.43596 0.0
H559 H 0.62085 0.7535 0.43688 0.0
Tb560 Tb 0.9566 0.72789 0.32797 0.0
Tb561 Tb 0.04582 0.74581 0.32695 0.0
C562 C 0.87896 0.71881 0.33239 0.0
C563 C 0.83209 0.72436 0.33122 0.0
C564 C 0.80848 0.73128 0.33879 0.0
C565 C 0.76292 0.73437 0.33819 0.0
C566 C 0.73972 0.73049 0.33003 0.0
C567 C 0.76362 0.72405 0.32237 0.0
C568 C 0.80922 0.72099 0.32296 0.0
C569 C 0.99286 0.72763 0.3114 0.0
C570 C 0.9655 0.77115 0.32413 0.0
C571 C 0.12375 0.7552 0.32301 0.0
C572 C 0.17041 0.74933 0.32418 0.0
C573 C 0.19367 0.74201 0.31666 0.0
C574 C 0.23909 0.73858 0.31727 0.0
C575 C 0.2625 0.74252 0.3254 0.0
C576 C 0.23894 0.74934 0.33302 0.0
C577 C 0.19349 0.75275 0.33241 0.0
C578 C 1.00718 0.74628 0.34328 0.0
C579 C 0.03919 0.70279 0.33056 0.0
O580 O 0.90421 0.72935 0.33746 0.0
O581 O 0.8998 0.7124 0.32518 0.0
O582 O 0.99462 0.74048 0.31719 0.0
O583 O 0.96707 0.71494 0.31457 0.0
O584 O 0.9403 0.75753 0.32722 0.0
O585 O 1.00726 0.76846 0.32194 0.0
O586 O 0.09868 0.7453 0.31758 0.0
O587 O 0.10249 0.76093 0.33031 0.0
O588 O 1.00746 0.73326 0.33761 0.0
O589 O 0.03169 0.75945 0.34014 0.0
O590 O 0.06333 0.71679 0.3277 0.0
O591 O 0.99654 0.70456 0.33238 0.0
H592 H 0.82507 0.73385 0.34527 0.0
H593 H 0.74577 0.7396 0.34418 0.0
H594 H 0.74685 0.7207 0.316 0.0
H595 H 0.82621 0.71544 0.31702 0.0
H596 H 0.17697 0.73938 0.31019 0.0
H597 H 0.25598 0.73307 0.31131 0.0
H598 H 0.25591 0.75274 0.33935 0.0
H599 H 0.1768 0.75861 0.33832 0.0
Tb600 Tb 0.84296 0.00304 0.32891 0.0
Tb601 Tb 0.75217 0.9864 0.32756 0.0
C602 C 0.92028 0.01169 0.33375 0.0
C603 C 0.9671 0.00629 0.33268 0.0
C604 C 0.99479 0.00684 0.34041 0.0
C605 C 0.04023 0.0038 0.33954 0.0
C606 C 0.05912 0.00017 0.33088 0.0
C607 C 0.03105 -0.00089 0.32315 0.0
C608 C 0.98547 0.00212 0.32405 0.0
C609 C 0.80949 0.00248 0.31209 0.0
C610 C 0.83069 0.95964 0.32614 0.0
C611 C 0.67452 0.9776 0.32309 0.0
C612 C 0.62806 0.98374 0.32384 0.0
C613 C 0.6009 0.98282 0.31603 0.0
C614 C 0.55559 0.9864 0.31669 0.0
C615 C 0.53633 0.99091 0.32521 0.0
C616 C 0.5639 -0.00757 0.33298 0.0
C617 C 0.60934 0.98892 0.33231 0.0
C618 C 0.78797 0.98671 0.34419 0.0
C619 C 0.76196 0.02944 0.33058 0.0
O620 O 0.89474 0.00075 0.33853 0.0
O621 O 0.90023 0.01845 0.32653 0.0
O622 O 0.80553 0.99013 0.31811 0.0
O623 O 0.83602 0.01497 0.31519 0.0
O624 O 0.85703 0.9732 0.32884 0.0
O625 O 0.78949 0.96261 0.32361 0.0
O626 O 0.70083 0.98721 0.31779 0.0
O627 O 0.69406 0.97207 0.33063 0.0
O628 O 0.79005 -0.00082 0.33823 0.0
O629 O 0.76227 0.97381 0.34119 0.0
O630 O 0.73712 0.01571 0.32764 0.0
O631 O 0.80393 0.02698 0.33285 0.0
H632 H 0.98141 0.01016 0.34713 0.0
H633 H 0.06076 0.00495 0.34562 0.0
H634 H 0.04436 -0.0039 0.3164 0.0
H635 H 0.96483 0.00156 0.31796 0.0
H636 H 0.61454 0.97874 0.30945 0.0
H637 H 0.53539 0.9849 0.31058 0.0
H638 H 0.55027 -0.00387 0.33962 0.0
H639 H 0.62953 0.98981 0.33845 0.0
Tb640 Tb 0.50122 0.49532 0.57702 0.0
Tb641 Tb 0.59186 0.47856 0.57846 0.0
C642 C 0.42362 0.50404 0.57247 0.0
C643 C 0.37711 0.49804 0.57339 0.0
C644 C 0.35016 0.49781 0.56554 0.0
C645 C 0.30484 0.49431 0.56627 0.0
C646 C 0.28534 0.49105 0.57491 0.0
C647 C 0.3127 0.4907 0.58275 0.0
C648 C 0.35813 0.49413 0.58201 0.0
C649 C 0.53676 0.49529 0.59366 0.0
C650 C 0.51075 0.45232 0.58029 0.0
C651 C 0.66927 0.46995 0.58327 0.0
C652 C 0.71607 0.47535 0.58213 0.0
C653 C 0.74338 0.47588 0.58993 0.0
C654 C 0.78883 0.47891 0.58905 0.0
C655 C 0.80811 0.48142 0.58033 0.0
C656 C 0.78043 0.48141 0.57253 0.0
C657 C 0.73486 0.47842 0.57342 0.0
C658 C 0.55817 0.47893 0.56163 0.0
C659 C 0.57994 0.5219 0.57543 0.0
O660 O 0.44966 0.49402 0.56731 0.0
O661 O 0.44346 0.51007 0.57989 0.0
O662 O 0.53903 0.48269 0.58778 0.0
O663 O 0.51107 0.50813 0.59058 0.0
O664 O 0.48599 0.46603 0.57728 0.0
O665 O 0.55275 0.45476 0.58253 0.0
O666 O 0.6438 0.48093 0.58804 0.0
O667 O 0.64904 0.46306 0.5761 0.0
O668 O 0.55461 0.49135 0.56761 0.0
O669 O 0.58458 0.46642 0.56477 0.0
O670 O 0.606 0.50838 0.57831 0.0
O671 O 0.53886 0.51887 0.57284 0.0
H672 H 0.36396 0.50091 0.55883 0.0
H673 H 0.2848 0.49488 0.5601 0.0
H674 H 0.29889 0.48798 0.58949 0.0
H675 H 0.37813 0.49416 0.58819 0.0
H676 H 0.72971 0.4734 0.59671 0.0
H677 H 0.80908 0.4786 0.59519 0.0
H678 H 0.79405 0.48355 0.56572 0.0
H679 H 0.71456 0.47813 0.56728 0.0
Tb680 Tb 0.79591 0.73667 0.57676 0.0
Tb681 Tb 0.70557 0.75361 0.57817 0.0
C682 C 0.87357 0.72788 0.57231 0.0
C683 C 0.92012 0.73389 0.57324 0.0
C684 C 0.94465 0.73773 0.56527 0.0
C685 C 0.99004 0.74119 0.5658 0.0
C686 C 1.01212 0.74077 0.57432 0.0
C687 C 0.9872 0.73755 0.58234 0.0
C688 C 0.94172 0.73413 0.58181 0.0
C689 C 0.75974 0.73632 0.59334 0.0
C690 C 0.78693 0.7796 0.58025 0.0
C691 C 0.62824 0.76222 0.58298 0.0
C692 C 0.58134 0.75691 0.58184 0.0
C693 C 0.55596 0.75321 0.58971 0.0
C694 C 0.51035 0.75044 0.58902 0.0
C695 C 0.48893 0.75141 0.58044 0.0
C696 C 0.51467 0.75448 0.57251 0.0
C697 C 0.56037 0.75722 0.5732 0.0
C698 C 0.73979 0.75368 0.56138 0.0
C699 C 0.7168 0.71036 0.57468 0.0
O700 O 0.84759 0.73787 0.5671 0.0
O701 O 0.85351 0.72183 0.57969 0.0
O702 O 0.75802 0.74909 0.58754 0.0
O703 O 0.78507 0.72342 0.5902 0.0
O704 O 0.81161 0.76591 0.5772 0.0
O705 O 0.74485 0.77721 0.58242 0.0
O706 O 0.65365 0.75115 0.58772 0.0
O707 O 0.64858 0.76926 0.57586 0.0
O708 O 0.74299 0.7411 0.56729 0.0
O709 O 0.71336 0.76614 0.56457 0.0
O710 O 0.69098 0.72382 0.57773 0.0
O711 O 0.75805 0.71343 0.57222 0.0
H712 H 0.9289 0.73755 0.55857 0.0
H713 H 1.00796 0.74394 0.5595 0.0
H714 H 1.0031 0.73695 0.58901 0.0
H715 H 0.92385 0.73113 0.58809 0.0
H716 H 0.57127 0.75296 0.59645 0.0
H717 H 0.49176 0.74777 0.59525 0.0
H718 H 0.4993 0.75547 0.5658 0.0
H719 H 0.57898 0.76013 0.56701 0.0
Tb720 Tb 0.49898 0.7372 0.69789 0.0
Tb721 Tb 0.5888 0.75483 0.69673 0.0
C722 C 0.42121 0.72809 0.70211 0.0
C723 C 0.3746 0.73392 0.70102 0.0
C724 C 0.3478 0.73516 0.70888 0.0
C725 C 0.30251 0.73866 0.70808 0.0
C726 C 0.28283 0.74091 0.69937 0.0
C727 C 0.30998 0.74017 0.69151 0.0
C728 C 0.35541 0.73674 0.69232 0.0
C729 C 0.53691 0.73658 0.6815 0.0
C730 C 0.50647 0.78017 0.69419 0.0
C731 C 0.66637 0.76374 0.69218 0.0
C732 C 0.71318 0.75817 0.69321 0.0
C733 C 0.73966 0.75681 0.68531 0.0
C734 C 0.78515 0.75369 0.68606 0.0
C735 C 0.80534 0.75194 0.69474 0.0
C736 C 0.77851 0.75277 0.70265 0.0
C737 C 0.73291 0.75583 0.7019 0.0
C738 C 0.55274 0.75518 0.71334 0.0
C739 C 0.57901 0.7116 0.70059 0.0
O740 O 0.44651 0.73823 0.70737 0.0
O741 O 0.44193 0.72213 0.69478 0.0
O742 O 0.53745 0.74958 0.68718 0.0
O743 O 0.5119 0.72358 0.68464 0.0
O744 O 0.48205 0.76625 0.69705 0.0
O745 O 0.54912 0.7783 0.69238 0.0
O746 O 0.64087 0.75324 0.68715 0.0
O747 O 0.64604 0.77005 0.69947 0.0
O748 O 0.55077 0.74239 0.70753 0.0
O749 O 0.5788 0.76779 0.71016 0.0
O750 O 0.60447 0.72512 0.69748 0.0
O751 O 0.53736 0.71443 0.70282 0.0
H752 H 0.36173 0.73289 0.71566 0.0
H753 H 0.28264 0.73892 0.71427 0.0
H754 H 0.29604 0.74208 0.68471 0.0
H755 H 0.37523 0.7359 0.68613 0.0
H756 H 0.72532 0.75872 0.67854 0.0
H757 H 0.80473 0.75335 0.67982 0.0
H758 H 0.79282 0.75121 0.70944 0.0
H759 H 0.71335 0.75679 0.70812 0.0
Tb760 Tb 0.79223 0.49629 0.69876 0.0
Tb761 Tb 0.70151 0.47956 0.69743 0.0
C762 C 0.8698 0.50515 0.70327 0.0
C763 C 0.91629 0.49904 0.70251 0.0
C764 C 0.94358 0.50019 0.71029 0.0
C765 C 0.98888 0.49661 0.70962 0.0
C766 C 1.00802 0.49186 0.70113 0.0
C767 C 0.98031 0.49013 0.69338 0.0
C768 C 0.93488 0.49365 0.69407 0.0
C769 C 0.7566 0.49593 0.68213 0.0
C770 C 0.78264 0.45324 0.69576 0.0
C771 C 0.62414 0.47079 0.69268 0.0
C772 C 0.57731 0.47621 0.69371 0.0
C773 C 0.54965 0.47545 0.68597 0.0
C774 C 0.5042 0.47851 0.68682 0.0
C775 C 0.48526 0.48236 0.69545 0.0
C776 C 0.51329 0.48364 0.70317 0.0
C777 C 0.55888 0.48061 0.70231 0.0
C778 C 0.73532 0.48026 0.71425 0.0
C779 C 0.7136 0.52298 0.70012 0.0
O780 O 0.84353 0.49549 0.70855 0.0
O781 O 0.85027 0.51069 0.69572 0.0
O782 O 0.75434 0.48345 0.68809 0.0
O783 O 0.78228 0.50883 0.68513 0.0
O784 O 0.80741 0.467 0.69869 0.0
O785 O 0.74063 0.45565 0.6935 0.0
O786 O 0.64967 0.48155 0.68781 0.0
O787 O 0.6442 0.46425 0.69996 0.0
O788 O 0.73885 0.49257 0.7082 0.0
O789 O 0.70895 0.46767 0.71118 0.0
O790 O 0.68738 0.50939 0.6974 0.0
O791 O 0.75473 0.52004 0.7027 0.0
H792 H 0.93004 0.50444 0.71686 0.0
H793 H 1.00918 0.49827 0.71571 0.0
H794 H 0.99384 0.48625 0.68676 0.0
H795 H 0.91456 0.49258 0.68795 0.0
H796 H 0.56307 0.47195 0.67928 0.0
H797 H 0.48371 0.47719 0.68074 0.0
H798 H 0.49995 0.48683 0.70989 0.0
H799 H 0.57949 0.48133 0.70839 0.0
Tb800 Tb 0.45868 0.50385 0.44722 0.0
Tb801 Tb 0.54825 0.4863 0.44819 0.0
C802 C 0.38091 0.51275 0.44282 0.0
C803 C 0.33411 0.50724 0.44409 0.0
C804 C 0.31064 0.49955 0.43669 0.0
C805 C 0.26509 0.49649 0.43734 0.0
C806 C 0.2418 0.50117 0.44539 0.0
C807 C 0.26557 0.50837 0.45289 0.0
C808 C 0.31114 0.51141 0.45225 0.0
C809 C 0.49485 0.50404 0.46381 0.0
C810 C 0.46869 0.46057 0.45089 0.0
C811 C 0.62632 0.47708 0.4521 0.0
C812 C 0.67285 0.48308 0.45092 0.0
C813 C 0.69548 0.49131 0.45829 0.0
C814 C 0.74084 0.49485 0.45771 0.0
C815 C 0.76479 0.49012 0.44976 0.0
C816 C 0.74187 0.48239 0.44227 0.0
C817 C 0.69649 0.47886 0.44286 0.0
C818 C 0.5096 0.48589 0.43184 0.0
C819 C 0.54069 0.52927 0.44466 0.0
O820 O 0.40605 0.50206 0.43781 0.0
O821 O 0.40192 0.51941 0.44995 0.0
O822 O 0.49696 0.49127 0.45798 0.0
O823 O 0.46878 0.51667 0.46066 0.0
O824 O 0.44297 0.47414 0.44792 0.0
O825 O 0.51037 0.46341 0.45308 0.0
O826 O 0.60111 0.48688 0.45755 0.0
O827 O 0.60513 0.47135 0.44479 0.0
O828 O 0.50958 0.49882 0.43756 0.0
O829 O 0.53446 0.47278 0.43494 0.0
O830 O 0.56515 0.51537 0.44753 0.0
O831 O 0.49811 0.52732 0.44282 0.0
H832 H 0.32729 0.49637 0.43029 0.0
H833 H 0.24802 0.49067 0.43147 0.0
H834 H 0.24871 0.51235 0.45915 0.0
H835 H 0.32802 0.51757 0.45805 0.0
H836 H 0.67836 0.49456 0.46464 0.0
H837 H 0.75728 0.50105 0.46355 0.0
H838 H 0.7593 0.47836 0.43609 0.0
H839 H 0.68032 0.47227 0.43709 0.0
Tb840 Tb 0.33747 0.22942 0.44724 0.0
Tb841 Tb 0.248 0.24694 0.44826 0.0
C842 C 0.41522 0.2205 0.44283 0.0
C843 C 0.46202 0.22601 0.44413 0.0
C844 C 0.48553 0.23378 0.43675 0.0
C845 C 0.53107 0.23686 0.43742 0.0
C846 C 0.55433 0.2321 0.44547 0.0
C847 C 0.53052 0.22483 0.45295 0.0
C848 C 0.48496 0.22178 0.45228 0.0
C849 C 0.30194 0.2294 0.46389 0.0
C850 C 0.32741 0.27276 0.45069 0.0
C851 C 0.16999 0.25618 0.45222 0.0
C852 C 0.12341 0.25021 0.45107 0.0
C853 C 0.10085 0.24197 0.45845 0.0
C854 C 0.05547 0.23844 0.45788 0.0
C855 C 0.03142 0.2432 0.44994 0.0
C856 C 0.05428 0.25096 0.44245 0.0
C857 C 0.09967 0.25447 0.44302 0.0
C858 C 0.28605 0.24716 0.43185 0.0
C859 C 0.25543 0.20395 0.44486 0.0
O860 O 0.39009 0.23122 0.43783 0.0
O861 O 0.39419 0.21383 0.44995 0.0
O862 O 0.29961 0.24214 0.45803 0.0
O863 O 0.32777 0.21673 0.46071 0.0
O864 O 0.35309 0.25915 0.44776 0.0
O865 O 0.28591 0.26992 0.45301 0.0
O866 O 0.19527 0.24637 0.45766 0.0
O867 O 0.19108 0.26191 0.4449 0.0
O868 O 0.2863 0.2343 0.43761 0.0
O869 O 0.26129 0.26029 0.43494 0.0
O870 O 0.23111 0.21788 0.44774 0.0
O871 O 0.29792 0.20589 0.44293 0.0
H872 H 0.46891 0.23702 0.43035 0.0
H873 H 0.54817 0.24273 0.43157 0.0
H874 H 0.54735 0.2208 0.45921 0.0
H875 H 0.46806 0.21556 0.45807 0.0
H876 H 0.11804 0.23869 0.46478 0.0
H877 H 0.03908 0.23222 0.46373 0.0
H878 H 0.03679 0.25502 0.43627 0.0
H879 H 0.11579 0.26108 0.43724 0.0
Tb880 Tb 0.4581 0.22811 0.32855 0.0
Tb881 Tb 0.54786 0.24581 0.32738 0.0
C882 C 0.38061 0.21918 0.33315 0.0
C883 C 0.33376 0.22471 0.33214 0.0
C884 C 0.30716 0.22571 0.34003 0.0
C885 C 0.26166 0.22883 0.3393 0.0
C886 C 0.24159 0.23095 0.33062 0.0
C887 C 0.26855 0.23047 0.32272 0.0
C888 C 0.31416 0.2274 0.32347 0.0
C889 C 0.4939 0.22772 0.31193 0.0
C890 C 0.4677 0.27135 0.32468 0.0
C891 C 0.62563 0.255 0.3232 0.0
C892 C 0.67226 0.24919 0.32425 0.0
C893 C 0.69923 0.24837 0.31641 0.0
C894 C 0.74455 0.24489 0.3172 0.0
C895 C 0.76408 0.24224 0.32589 0.0
C896 C 0.73676 0.24254 0.33374 0.0
C897 C 0.69131 0.24595 0.33293 0.0
C898 C 0.50973 0.2464 0.34377 0.0
C899 C 0.54058 0.20283 0.33108 0.0
O900 O 0.40613 0.22973 0.33815 0.0
O901 O 0.40086 0.21284 0.32586 0.0
O902 O 0.49612 0.24056 0.31772 0.0
O903 O 0.46788 0.21513 0.31513 0.0
O904 O 0.44229 0.25779 0.32776 0.0
O905 O 0.5094 0.26858 0.32247 0.0
O906 O 0.60034 0.24494 0.31789 0.0
O907 O 0.60491 0.26082 0.33055 0.0
O908 O 0.50948 0.23341 0.33808 0.0
O909 O 0.53465 0.25944 0.34062 0.0
O910 O 0.5649 0.21677 0.3282 0.0
O911 O 0.49793 0.20467 0.3329 0.0
H912 H 0.32141 0.22353 0.34679 0.0
H913 H 0.24199 0.22889 0.34552 0.0
H914 H 0.25434 0.23231 0.31594 0.0
H915 H 0.33383 0.22673 0.31725 0.0
H916 H 0.68543 0.25096 0.30965 0.0
H917 H 0.76454 0.24497 0.31102 0.0
H918 H 0.75058 0.24031 0.34052 0.0
H919 H 0.67135 0.24645 0.33911 0.0
Tb920 Tb 0.34105 0.5029 0.32851 0.0
Tb921 Tb 0.25053 0.48616 0.32709 0.0
C922 C 0.41828 0.51153 0.33339 0.0
C923 C 0.4652 0.50629 0.33223 0.0
C924 C 0.49145 0.50389 0.3401 0.0
C925 C 0.53705 0.5012 0.33931 0.0
C926 C 0.55757 0.50093 0.33063 0.0
C927 C 0.53094 0.50266 0.32272 0.0
C928 C 0.48523 0.50533 0.32351 0.0
C929 C 0.30777 0.50247 0.31166 0.0
C930 C 0.32924 0.45952 0.32556 0.0
C931 C 0.17295 0.47731 0.32261 0.0
C932 C 0.12642 0.48348 0.3233 0.0
C933 C 0.10186 0.48595 0.31519 0.0
C934 C 0.05643 0.48942 0.31558 0.0
C935 C 0.03435 0.49037 0.32408 0.0
C936 C 0.05933 0.48857 0.33221 0.0
C937 C 0.10485 0.48515 0.33183 0.0
C938 C 0.28633 0.48626 0.34372 0.0
C939 C 0.25991 0.52916 0.33023 0.0
O940 O 0.39296 0.50034 0.33807 0.0
O941 O 0.39795 0.51863 0.32628 0.0
O942 O 0.30385 0.49006 0.31765 0.0
O943 O 0.33423 0.51495 0.3148 0.0
O944 O 0.3554 0.47309 0.32833 0.0
O945 O 0.28803 0.46248 0.32304 0.0
O946 O 0.19939 0.48679 0.31728 0.0
O947 O 0.19244 0.47182 0.33017 0.0
O948 O 0.28822 0.49884 0.33782 0.0
O949 O 0.2609 0.47333 0.34065 0.0
O950 O 0.2352 0.51545 0.32723 0.0
O951 O 0.30184 0.52672 0.33252 0.0
H952 H 0.47681 0.50461 0.3469 0.0
H953 H 0.55633 0.49956 0.34554 0.0
H954 H 0.5456 0.50266 0.31592 0.0
H955 H 0.46586 0.50717 0.31731 0.0
H956 H 0.11762 0.48467 0.30853 0.0
H957 H 0.03848 0.49107 0.30918 0.0
H958 H 0.04345 0.48906 0.33889 0.0
H959 H 0.12278 0.48324 0.33821 0.0
Tb960 Tb 0.49774 -0.00332 0.07786 0.0
Tb961 Tb 0.58719 0.97901 0.079 0.0
C962 C 0.41991 0.00589 0.07372 0.0
C963 C 0.37326 -0.0 0.07483 0.0
C964 C 0.34967 -0.00648 0.06716 0.0
C965 C 0.30426 0.99008 0.06775 0.0
C966 C 0.28119 -0.00682 0.07601 0.0
C967 C 0.3051 -0.00086 0.08377 0.0
C968 C 0.35056 0.00255 0.08318 0.0
C969 C 0.53533 -0.003 0.0943 0.0
C970 C 0.50491 0.95368 0.0814 0.0
C971 C 0.66487 0.97002 0.08344 0.0
C972 C 0.7117 0.97558 0.08227 0.0
C973 C 0.73572 0.98183 0.08993 0.0
C974 C 0.78128 0.9849 0.08931 0.0
C975 C 0.80405 0.98165 0.08102 0.0
C976 C 0.7797 0.97593 0.07328 0.0
C977 C 0.7341 0.9729 0.0739 0.0
C978 C 0.55152 0.97895 0.06235 0.0
C979 C 0.57756 0.02234 0.07544 0.0
O980 O 0.44526 -0.00412 0.06839 0.0
O981 O 0.44082 0.01181 0.08103 0.0
O982 O 0.53589 0.98408 0.08858 0.0
O983 O 0.51052 0.01009 0.09117 0.0
O984 O 0.48066 0.96763 0.07851 0.0
O985 O 0.54746 0.95554 0.0833 0.0
O986 O 0.63957 0.98057 0.08849 0.0
O987 O 0.64407 0.96356 0.07624 0.0
O988 O 0.54955 -0.0083 0.06819 0.0
O989 O 0.57719 0.96622 0.06554 0.0
O990 O 0.60299 0.00872 0.07846 0.0
O991 O 0.53606 0.01956 0.07309 0.0
H992 H 0.36613 -0.00843 0.06062 0.0
H993 H 0.28711 0.98523 0.06168 0.0
H994 H 0.28841 0.00188 0.09022 0.0
H995 H 0.36754 0.00772 0.08921 0.0
H996 H 0.71946 0.98388 0.09649 0.0
H997 H 0.79877 0.98958 0.09537 0.0
H998 H 0.79613 0.9731 0.06681 0.0
H999 H 0.71675 0.9679 0.06788 0.0
Tb1000 Tb 0.79492 0.23734 0.07698 0.0
Tb1001 Tb 0.70407 0.2539 0.07834 0.0
C1002 C 0.87263 0.22872 0.07248 0.0
C1003 C 0.91906 0.23476 0.07342 0.0
C1004 C 0.94611 0.23494 0.06558 0.0
C1005 C 0.99138 0.23849 0.06634 0.0
C1006 C 1.01073 0.24185 0.07498 0.0
C1007 C 0.98328 0.24226 0.08281 0.0
C1008 C 0.93788 0.23878 0.08204 0.0
C1009 C 0.75904 0.23724 0.09358 0.0
C1010 C 0.78487 0.2803 0.08024 0.0
C1011 C 0.62662 0.26238 0.08314 0.0
C1012 C 0.57985 0.25694 0.08203 0.0
C1013 C 0.55261 0.25648 0.08983 0.0
C1014 C 0.50717 0.25345 0.08897 0.0
C1015 C 0.48784 0.25085 0.08026 0.0
C1016 C 0.51545 0.25078 0.07245 0.0
C1017 C 0.56102 0.25377 0.07333 0.0
C1018 C 0.73809 0.25367 0.06153 0.0
C1019 C 0.71653 0.2106 0.07521 0.0
O1020 O 0.8466 0.23875 0.06731 0.0
O1021 O 0.85275 0.22265 0.07988 0.0
O1022 O 0.75678 0.24985 0.0877 0.0
O1023 O 0.78489 0.22445 0.09052 0.0
O1024 O 0.80989 0.26665 0.07727 0.0
O1025 O 0.74284 0.27777 0.08244 0.0
O1026 O 0.65218 0.25142 0.08791 0.0
O1027 O 0.64673 0.26928 0.07596 0.0
O1028 O 0.74171 0.24126 0.06752 0.0
O1029 O 0.71137 0.26609 0.06465 0.0
O1030 O 0.69025 0.22403 0.07811 0.0
O1031 O 0.75763 0.21378 0.07268 0.0
H1032 H 0.93241 0.23176 0.05888 0.0
H1033 H 1.01151 0.23786 0.06019 0.0
H1034 H 0.99699 0.24506 0.08955 0.0
H1035 H 0.91778 0.2388 0.0882 0.0
H1036 H 0.56633 0.25903 0.0966 0.0
H1037 H 0.48696 0.25382 0.09512 0.0
H1038 H 0.50178 0.24856 0.06566 0.0
H1039 H 0.58128 0.254 0.06718 0.0
Tb1040 Tb 0.50236 0.23672 0.19855 0.0
Tb1041 Tb 0.59258 0.25357 0.19734 0.0
C1042 C 0.42455 0.22786 0.20285 0.0
C1043 C 0.3781 0.23411 0.20196 0.0
C1044 C 0.35499 0.23989 0.20983 0.0
C1045 C 0.30963 0.24354 0.20941 0.0
C1046 C 0.28618 0.24136 0.20112 0.0
C1047 C 0.30965 0.23615 0.19317 0.0
C1048 C 0.35504 0.23253 0.19359 0.0
C1049 C 0.53844 0.23701 0.18197 0.0
C1050 C 0.51147 0.27977 0.19551 0.0
C1051 C 0.67012 0.26231 0.19273 0.0
C1052 C 0.71696 0.25698 0.19404 0.0
C1053 C 0.74198 0.25154 0.18638 0.0
C1054 C 0.78756 0.24872 0.18714 0.0
C1055 C 0.80932 0.25141 0.1956 0.0
C1056 C 0.78397 0.25627 0.20335 0.0
C1057 C 0.73832 0.25905 0.20258 0.0
C1058 C 0.55853 0.25289 0.21413 0.0
C1059 C 0.58101 0.21013 0.20011 0.0
O1060 O 0.45072 0.23739 0.20822 0.0
O1061 O 0.4446 0.22222 0.19539 0.0
O1062 O 0.54027 0.24957 0.18788 0.0
O1063 O 0.51305 0.22404 0.18499 0.0
O1064 O 0.4868 0.266 0.19846 0.0
O1065 O 0.55347 0.27738 0.19327 0.0
O1066 O 0.64506 0.25124 0.18791 0.0
O1067 O 0.64921 0.26935 0.19978 0.0
O1068 O 0.55526 0.24054 0.2081 0.0
O1069 O 0.58476 0.2655 0.21105 0.0
O1070 O 0.60716 0.22376 0.19741 0.0
O1071 O 0.53976 0.21304 0.20261 0.0
H1072 H 0.37176 0.24108 0.21639 0.0
H1073 H 0.2928 0.2478 0.21563 0.0
H1074 H 0.29266 0.23412 0.18669 0.0
H1075 H 0.37167 0.22794 0.18741 0.0
H1076 H 0.72644 0.24995 0.1797 0.0
H1077 H 0.80586 0.24468 0.18107 0.0
H1078 H 0.79961 0.25864 0.20994 0.0
H1079 H 0.7201 0.26337 0.20862 0.0
Tb1080 Tb 0.79754 -0.00355 0.19875 0.0
Tb1081 Tb 0.70831 0.9785 0.19769 0.0
C1082 C 0.87538 0.0058 0.20279 0.0
C1083 C 0.92208 -1e-05 0.20164 0.0
C1084 C 0.94575 -0.00663 0.20927 0.0
C1085 C 0.99119 0.99 0.20866 0.0
C1086 C 1.01422 -0.0067 0.20041 0.0
C1087 C 0.99024 -0.0006 0.19269 0.0
C1088 C 0.94474 0.00274 0.1933 0.0
C1089 C 0.75914 -0.003 0.1824 0.0
C1090 C 0.791 0.95346 0.19506 0.0
C1091 C 0.63066 0.96939 0.1933 0.0
C1092 C 0.5838 0.97496 0.19442 0.0
C1093 C 0.55996 0.98125 0.18674 0.0
C1094 C 0.5144 0.98436 0.18732 0.0
C1095 C 0.49143 0.98112 0.19558 0.0
C1096 C 0.51557 0.97534 0.20334 0.0
C1097 C 0.56118 0.97227 0.20277 0.0
C1098 C 0.74485 0.97817 0.21426 0.0
C1099 C 0.71716 0.02176 0.20157 0.0
O1100 O 0.85028 -0.00424 0.20815 0.0
O1101 O 0.85422 0.01167 0.1955 0.0
O1102 O 0.75914 0.98395 0.18806 0.0
O1103 O 0.78377 0.01012 0.18555 0.0
O1104 O 0.81512 0.96746 0.19794 0.0
O1105 O 0.7483 0.9552 0.19327 0.0
O1106 O 0.65596 0.97982 0.18819 0.0
O1107 O 0.65144 0.96311 0.20055 0.0
O1108 O 0.74627 0.99104 0.20848 0.0
O1109 O 0.71919 0.96544 0.21107 0.0
O1110 O 0.69198 0.00814 0.19846 0.0
O1111 O 0.75891 0.01907 0.20376 0.0
H1112 H 0.92934 0.99126 0.21581 0.0
H1113 H 1.0084 0.98504 0.21471 0.0
H1114 H 1.00689 0.00229 0.18626 0.0
H1115 H 0.9277 0.00803 0.1873 0.0
H1116 H 0.57638 0.9833 0.18019 0.0
H1117 H 0.49707 0.98908 0.18124 0.0
H1118 H 0.49899 0.97251 0.20979 0.0
H1119 H 0.57836 0.96724 0.2088 0.0
Tb1120 Tb 0.45844 0.00253 0.94764 0.0
Tb1121 Tb 0.54812 0.98511 0.94878 0.0
C1122 C 0.38079 0.01131 0.9431 0.0
C1123 C 0.33398 0.00579 0.9443 0.0
C1124 C 0.31001 -0.00068 0.93668 0.0
C1125 C 0.26446 -0.00372 0.93731 0.0
C1126 C 0.24165 -0.00024 0.94557 0.0
C1127 C 0.26595 0.00569 0.95328 0.0
C1128 C 0.31155 0.0087 0.95265 0.0
C1129 C 0.49373 0.00272 0.96431 0.0
C1130 C 0.46877 0.95924 0.95125 0.0
C1131 C 0.62607 0.97602 0.95288 0.0
C1132 C 0.67264 0.98195 0.95173 0.0
C1133 C 0.6961 0.98875 0.95935 0.0
C1134 C 0.74149 -0.00778 0.95875 0.0
C1135 C 0.76465 0.98884 0.95053 0.0
C1136 C 0.74088 0.98257 0.94282 0.0
C1137 C 0.69545 0.97912 0.94341 0.0
C1138 C 0.51035 0.98478 0.93234 0.0
C1139 C 0.54037 0.02808 0.94525 0.0
O1140 O 0.40613 0.00058 0.93815 0.0
O1141 O 0.4015 0.01805 0.95024 0.0
O1142 O 0.49628 0.98996 0.95848 0.0
O1143 O 0.46775 0.01532 0.9611 0.0
O1144 O 0.44308 0.97278 0.94823 0.0
O1145 O 0.51021 0.96217 0.95359 0.0
O1146 O 0.60073 0.98599 0.95822 0.0
O1147 O 0.6051 0.97007 0.94558 0.0
O1148 O 0.50989 -0.00236 0.93809 0.0
O1149 O 0.53524 0.9717 0.93546 0.0
O1150 O 0.5648 0.01421 0.94818 0.0
O1151 O 0.49791 0.02606 0.94331 0.0
H1152 H 0.3263 -0.00291 0.93014 0.0
H1153 H 0.24699 -0.00857 0.93128 0.0
H1154 H 0.24949 0.00871 0.95972 0.0
H1155 H 0.32887 0.01386 0.95864 0.0
H1156 H 0.67957 0.99092 0.96587 0.0
H1157 H 0.75856 -0.00269 0.96478 0.0
H1158 H 0.75765 0.9796 0.9364 0.0
H1159 H 0.67857 0.9737 0.93743 0.0
Tb1160 Tb 0.33661 0.72823 0.94666 0.0
Tb1161 Tb 0.24712 0.74585 0.94754 0.0
C1162 C 0.41441 0.71925 0.94234 0.0
C1163 C 0.46121 0.72475 0.94363 0.0
C1164 C 0.48465 0.73262 0.93627 0.0
C1165 C 0.5302 0.73567 0.93693 0.0
C1166 C 0.55353 0.7308 0.94494 0.0
C1167 C 0.52981 0.72342 0.95241 0.0
C1168 C 0.48424 0.72039 0.95176 0.0
C1169 C 0.3002 0.72809 0.96322 0.0
C1170 C 0.32671 0.77154 0.95024 0.0
C1171 C 0.16902 0.75513 0.95138 0.0
C1172 C 0.1225 0.74908 0.95024 0.0
C1173 C 0.10017 0.74064 0.9576 0.0
C1174 C 0.05482 0.73705 0.95705 0.0
C1175 C 0.03058 0.74192 0.94915 0.0
C1176 C 0.0532 0.74987 0.94169 0.0
C1177 C 0.09856 0.75346 0.94224 0.0
C1178 C 0.28604 0.74624 0.93123 0.0
C1179 C 0.25452 0.70286 0.94408 0.0
O1180 O 0.38935 0.7299 0.93728 0.0
O1181 O 0.39329 0.71268 0.94947 0.0
O1182 O 0.29823 0.74086 0.95738 0.0
O1183 O 0.3262 0.71542 0.96009 0.0
O1184 O 0.35249 0.75792 0.94737 0.0
O1185 O 0.28495 0.76878 0.95238 0.0
O1186 O 0.19429 0.74553 0.95691 0.0
O1187 O 0.19017 0.76065 0.94403 0.0
O1188 O 0.28591 0.73329 0.93695 0.0
O1189 O 0.26122 0.75937 0.93431 0.0
O1190 O 0.2301 0.7168 0.94692 0.0
O1191 O 0.29713 0.70476 0.94227 0.0
H1192 H 0.46797 0.73595 0.92988 0.0
H1193 H 0.54724 0.74163 0.93109 0.0
H1194 H 0.54671 0.71929 0.95865 0.0
H1195 H 0.4674 0.71409 0.95752 0.0
H1196 H 0.11751 0.73727 0.9639 0.0
H1197 H 0.03861 0.73069 0.96288 0.0
H1198 H 0.03554 0.75402 0.93555 0.0
H1199 H 0.11449 0.76021 0.93648 0.0
Tb1200 Tb 0.45497 0.72964 0.82793 0.0
Tb1201 Tb 0.54573 0.74633 0.82656 0.0
C1202 C 0.37766 0.72107 0.8328 0.0
C1203 C 0.33084 0.72647 0.83175 0.0
C1204 C 0.30314 0.72571 0.83947 0.0
C1205 C 0.2577 0.72878 0.83861 0.0
C1206 C 0.23883 0.73265 0.82997 0.0
C1207 C 0.26691 0.73392 0.82226 0.0
C1208 C 0.31249 0.73088 0.82314 0.0
C1209 C 0.48867 0.72991 0.81112 0.0
C1210 C 0.46707 0.77297 0.8248 0.0
C1211 C 0.62337 0.75514 0.8221 0.0
C1212 C 0.66988 0.74909 0.82288 0.0
C1213 C 0.69718 0.75022 0.8151 0.0
C1214 C 0.74248 0.74666 0.81579 0.0
C1215 C 0.76161 0.74196 0.82429 0.0
C1216 C 0.73391 0.74025 0.83204 0.0
C1217 C 0.68846 0.74375 0.83134 0.0
C1218 C 0.5096 0.74634 0.84316 0.0
C1219 C 0.53605 0.70334 0.82977 0.0
O1220 O 0.40325 0.73202 0.83756 0.0
O1221 O 0.39761 0.71427 0.82558 0.0
O1222 O 0.49251 0.74234 0.8171 0.0
O1223 O 0.46209 0.71747 0.81426 0.0
O1224 O 0.44088 0.75949 0.82767 0.0
O1225 O 0.50828 0.76989 0.82231 0.0
O1226 O 0.5972 0.74541 0.81683 0.0
O1227 O 0.60374 0.76074 0.82962 0.0
O1228 O 0.50774 0.73375 0.83727 0.0
O1229 O 0.53518 0.75923 0.84009 0.0
O1230 O 0.56089 0.71703 0.82679 0.0
O1231 O 0.49403 0.7058 0.83199 0.0
H1232 H 0.31651 0.7222 0.84617 0.0
H1233 H 0.23716 0.72746 0.84467 0.0
H1234 H 0.25362 0.73713 0.81553 0.0
H1235 H 0.33316 0.7316 0.81706 0.0
H1236 H 0.68364 0.75443 0.80853 0.0
H1237 H 0.76278 0.74831 0.8097 0.0
H1238 H 0.74744 0.73641 0.83866 0.0
H1239 H 0.66814 0.7427 0.83745 0.0
Tb1240 Tb 0.33716 0.00433 0.82919 0.0
Tb1241 Tb 0.24727 0.98683 0.828 0.0
C1242 C 0.41475 0.01309 0.8338 0.0
C1243 C 0.46154 0.00759 0.83265 0.0
C1244 C 0.48797 0.00543 0.84052 0.0
C1245 C 0.53345 0.00234 0.83972 0.0
C1246 C 0.55367 0.00143 0.83101 0.0
C1247 C 0.52689 0.00306 0.82312 0.0
C1248 C 0.48131 0.00609 0.82393 0.0
C1249 C 0.30167 0.00466 0.81253 0.0
C1250 C 0.32702 0.96108 0.82543 0.0
C1251 C 0.16945 0.97778 0.82379 0.0
C1252 C 0.12287 0.98363 0.8249 0.0
C1253 C 0.09635 0.98561 0.81704 0.0
C1254 C 0.05103 0.98906 0.81784 0.0
C1255 C 0.03105 0.9905 0.82656 0.0
C1256 C 0.05791 0.98905 0.83444 0.0
C1257 C 0.10335 0.98567 0.83363 0.0
C1258 C 0.28518 0.98621 0.84441 0.0
C1259 C 0.25498 0.02977 0.83167 0.0
O1260 O 0.38939 0.00234 0.83872 0.0
O1261 O 0.39423 0.01976 0.8266 0.0
O1262 O 0.29918 -0.00813 0.81836 0.0
O1263 O 0.32783 0.0172 0.81573 0.0
O1264 O 0.35264 0.97461 0.82848 0.0
O1265 O 0.28546 0.96396 0.82314 0.0
O1266 O 0.19474 0.98794 0.81853 0.0
O1267 O 0.19025 0.97174 0.83109 0.0
O1268 O 0.28567 -0.00082 0.83871 0.0
O1269 O 0.2601 0.97323 0.84127 0.0
O1270 O 0.23052 0.01589 0.82878 0.0
O1271 O 0.29757 0.02783 0.83353 0.0
H1272 H 0.47361 0.00669 0.84732 0.0
H1273 H 0.553 0.00137 0.84594 0.0
H1274 H 0.54124 0.00216 0.81631 0.0
H1275 H 0.46182 0.00768 0.81773 0.0
H1276 H 0.1105 0.98394 0.81024 0.0
H1277 H 0.03137 0.98989 0.81163 0.0
H1278 H 0.04373 0.99034 0.84125 0.0
H1279 H 0.12291 0.98425 0.83983 0.0
C1280 C 0.93601 0.43579 0.08387 0.0
C1281 C 0.9822 0.4362 0.08292 0.0
C1282 C 0.91388 0.41917 0.08494 0.0
C1283 C 0.92957 0.36982 0.09029 0.0
H1284 H 0.82185 0.36456 0.07603 0.0
C1285 C 0.85203 0.30003 0.0812 0.0
C1286 C 0.80583 0.29833 0.08178 0.0
C1287 C 0.87229 0.31702 0.08249 0.0
C1288 C 0.85148 0.36591 0.08016 0.0
H1289 H 0.04164 0.41961 0.08259 0.0
H1290 H 1.00275 0.39033 0.0842 0.0
H1291 H 0.86052 0.39385 0.07612 0.0
H1292 H 0.74467 0.31306 0.08428 0.0
H1293 H 0.7803 0.34294 0.08644 0.0
H1294 H 0.921 0.34159 0.09407 0.0
C1295 C 0.98374 0.40294 0.08429 0.0
C1296 C 0.87367 0.38269 0.08023 0.0
C1297 C 1.00602 0.41967 0.08332 0.0
C1298 C 0.78031 0.31396 0.08377 0.0
C1299 C 0.80064 0.33103 0.08498 0.0
C1300 C 0.90748 0.35298 0.09017 0.0
C1301 C 0.93734 0.40252 0.08496 0.0
C1302 C 0.91312 0.38482 0.08524 0.0
C1303 C 0.84681 0.3327 0.08431 0.0
C1304 C 0.86844 0.35085 0.08504 0.0
H1305 H 0.91674 0.44835 0.08375 0.0
H1306 H 0.87826 0.41937 0.08567 0.0
H1307 H 0.95949 0.3711 0.09433 0.0
H1308 H 0.87273 0.28825 0.07972 0.0
H1309 H 0.90787 0.31796 0.08182 0.0
C1310 C 0.43627 0.93558 0.08386 0.0
C1311 C 0.48249 0.936 0.08299 0.0
C1312 C 0.41408 0.91893 0.08479 0.0
C1313 C 0.42947 0.86945 0.08984 0.0
H1314 H 0.32195 0.86464 0.07548 0.0
C1315 C 0.35109 0.79995 0.08049 0.0
C1316 C 0.30487 0.79835 0.0811 0.0
C1317 C 0.37159 0.81688 0.08178 0.0
C1318 C 0.35154 0.86587 0.07963 0.0
H1319 H 0.54192 0.9194 0.08265 0.0
H1320 H 0.50293 0.89009 0.084 0.0
H1321 H 0.36089 0.89387 0.07574 0.0
H1322 H 0.24394 0.8132 0.08365 0.0
H1323 H 0.28 0.84298 0.08583 0.0
H1324 H 0.42057 0.84115 0.09347 0.0
C1325 C 0.48393 0.9027 0.08414 0.0
C1326 C 0.37388 0.88261 0.0798 0.0
C1327 C 0.50627 0.91945 0.08332 0.0
C1328 C 0.27959 0.81402 0.08312 0.0
C1329 C 0.30016 0.83104 0.08434 0.0
C1330 C 0.40724 0.85264 0.08962 0.0
C1331 C 0.4375 0.90228 0.08474 0.0
C1332 C 0.41323 0.88458 0.08487 0.0
C1333 C 0.34634 0.83261 0.08366 0.0
C1334 C 0.36825 0.85068 0.08446 0.0
H1335 H 0.41702 0.94814 0.08378 0.0
H1336 H 0.37843 0.91913 0.08546 0.0
H1337 H 0.45931 0.8706 0.09392 0.0
H1338 H 0.37162 0.78813 0.07897 0.0
H1339 H 0.40718 0.81775 0.0811 0.0
C1340 C 0.85991 0.93552 0.19253 0.0
C1341 C 0.81366 0.93586 0.19336 0.0
C1342 C 0.88224 0.91894 0.19145 0.0
C1343 C 0.86714 0.86973 0.18574 0.0
H1344 H 0.97454 0.86416 0.20008 0.0
C1345 C 0.94525 0.79975 0.19432 0.0
C1346 C 0.99148 0.79814 0.19375 0.0
C1347 C 0.92483 0.81675 0.19318 0.0
C1348 C 0.945 0.86561 0.19592 0.0
H1349 H 0.75435 0.91918 0.19347 0.0
H1350 H 0.79357 0.88999 0.19183 0.0
H1351 H 0.93556 0.8934 0.20017 0.0
H1352 H 0.05252 0.81305 0.19143 0.0
H1353 H 1.01661 0.84295 0.18952 0.0
H1354 H 0.87611 0.84163 0.18176 0.0
C1355 C 0.81249 0.90262 0.19185 0.0
C1356 C 0.92263 0.88236 0.19596 0.0
C1357 C 0.79002 0.9193 0.19284 0.0
C1358 C 1.01686 0.81387 0.19192 0.0
C1359 C 0.99637 0.83096 0.19085 0.0
C1360 C 0.8894 0.85291 0.18576 0.0
C1361 C 0.85893 0.90226 0.19128 0.0
C1362 C 0.8833 0.88459 0.19092 0.0
C1363 C 0.95017 0.83254 0.19151 0.0
C1364 C 0.92834 0.85067 0.19091 0.0
H1365 H 0.87907 0.94809 0.19277 0.0
H1366 H 0.91789 0.91919 0.19081 0.0
H1367 H 0.83733 0.87108 0.18167 0.0
H1368 H 0.92465 0.78788 0.19569 0.0
H1369 H 0.88923 0.81761 0.19383 0.0
C1370 C 0.35907 0.43524 0.19225 0.0
C1371 C 0.31283 0.43568 0.19309 0.0
C1372 C 0.38123 0.41859 0.19126 0.0
C1373 C 0.36562 0.36924 0.18591 0.0
H1374 H 0.4733 0.36396 0.20017 0.0
C1375 C 0.44402 0.2994 0.19475 0.0
C1376 C 0.49022 0.2978 0.1941 0.0
C1377 C 0.4235 0.31638 0.19358 0.0
C1378 C 0.44366 0.36532 0.19605 0.0
H1379 H 0.25337 0.4191 0.19333 0.0
H1380 H 0.2923 0.3898 0.19186 0.0
H1381 H 0.43447 0.39323 0.20011 0.0
H1382 H 0.55111 0.31271 0.19161 0.0
H1383 H 0.51504 0.34256 0.18965 0.0
H1384 H 0.37435 0.34103 0.1821 0.0
C1385 C 0.31134 0.4024 0.19179 0.0
C1386 C 0.42138 0.38208 0.196 0.0
C1387 C 0.28903 0.41915 0.19268 0.0
C1388 C 0.51547 0.31353 0.19216 0.0
C1389 C 0.49489 0.33059 0.19107 0.0
C1390 C 0.38778 0.3524 0.18602 0.0
C1391 C 0.35777 0.40195 0.19121 0.0
C1392 C 0.38198 0.38422 0.19096 0.0
C1393 C 0.44873 0.33215 0.1918 0.0
C1394 C 0.42683 0.35027 0.19114 0.0
H1395 H 0.37834 0.44779 0.19239 0.0
H1396 H 0.41688 0.41878 0.1906 0.0
H1397 H 0.33574 0.37052 0.18185 0.0
H1398 H 0.42352 0.28755 0.19621 0.0
H1399 H 0.38792 0.31724 0.1943 0.0
C1400 C 0.03082 0.56284 0.94184 0.0
C1401 C 0.05625 0.54723 0.9439 0.0
C1402 C 0.05121 0.5799 0.94062 0.0
C1403 C 0.15811 0.60178 0.93548 0.0
H1404 H 0.11093 0.64276 0.9494 0.0
C1405 C 0.25623 0.66867 0.9421 0.0
C1406 C 0.23228 0.68517 0.94244 0.0
C1407 C 0.23408 0.6519 0.9412 0.0
C1408 C 0.12415 0.63157 0.94533 0.0
H1409 H 0.12306 0.53713 0.94608 0.0
H1410 H 0.15833 0.56682 0.94395 0.0
H1411 H 0.07234 0.61345 0.94955 0.0
H1412 H 0.16673 0.69722 0.94158 0.0
H1413 H 0.12847 0.66816 0.93977 0.0
H1414 H 0.21007 0.61989 0.93129 0.0
C1415 C 0.12276 0.56588 0.94324 0.0
C1416 C 0.10201 0.61478 0.94543 0.0
C1417 C 0.10244 0.54891 0.94454 0.0
C1418 C 0.18609 0.68469 0.9415 0.0
C1419 C 0.1641 0.66802 0.9405 0.0
C1420 C 0.18014 0.61863 0.93532 0.0
C1421 C 0.09736 0.58155 0.94135 0.0
C1422 C 0.11903 0.59968 0.9406 0.0
C1423 C 0.18768 0.6514 0.94053 0.0
C1424 C 0.1636 0.63367 0.94032 0.0
H1425 H 0.99518 0.56196 0.94129 0.0
H1426 H 0.03093 0.5918 0.93911 0.0
H1427 H 0.17168 0.59035 0.93163 0.0
H1428 H 0.29186 0.66867 0.94282 0.0
H1429 H 0.25319 0.63931 0.94133 0.0
C1430 C 0.69186 0.18227 0.94415 0.0
C1431 C 0.73808 0.18387 0.94359 0.0
C1432 C 0.67148 0.16526 0.943 0.0
C1433 C 0.6921 0.11652 0.94593 0.0
H1434 H 0.58453 0.11054 0.9317 0.0
C1435 C 0.60878 0.04631 0.94275 0.0
C1436 C 0.56254 0.04577 0.94357 0.0
C1437 C 0.63064 0.06298 0.94162 0.0
C1438 C 0.61432 0.11204 0.93576 0.0
H1439 H 0.79915 0.16898 0.94124 0.0
H1440 H 0.76332 0.13909 0.93933 0.0
H1441 H 0.62281 0.14011 0.93167 0.0
H1442 H 0.50275 0.06217 0.94361 0.0
H1443 H 0.54118 0.09153 0.9419 0.0
H1444 H 0.68315 0.08878 0.9503 0.0
C1445 C 0.74305 0.15107 0.94066 0.0
C1446 C 0.63628 0.12892 0.93571 0.0
C1447 C 0.76349 0.16816 0.94172 0.0
C1448 C 0.53843 0.06221 0.94299 0.0
C1449 C 0.56044 0.07899 0.94197 0.0
C1450 C 0.67002 0.09973 0.94605 0.0
C1451 C 0.69688 0.14948 0.94135 0.0
C1452 C 0.67521 0.13132 0.94084 0.0
C1453 C 0.60686 0.07954 0.9414 0.0
C1454 C 0.63077 0.09731 0.941 0.0
H1455 H 0.67126 0.19413 0.94553 0.0
H1456 H 0.63588 0.16438 0.94367 0.0
H1457 H 0.72162 0.11811 0.95007 0.0
H1458 H 0.62828 0.03383 0.94302 0.0
H1459 H 0.6663 0.06287 0.94099 0.0
C1460 C 0.1013 0.18351 0.8308 0.0
C1461 C 0.05512 0.18515 0.8315 0.0
C1462 C 0.12184 0.16658 0.8321 0.0
C1463 C 0.10158 0.11756 0.83017 0.0
H1464 H 0.2102 0.11298 0.84419 0.0
C1465 C 0.18656 0.04789 0.83437 0.0
C1466 C 0.23271 0.04746 0.83334 0.0
C1467 C 0.16444 0.06455 0.83533 0.0
C1468 C 0.18011 0.11409 0.84019 0.0
H1469 H 0.99429 0.17035 0.83422 0.0
H1470 H 0.0304 0.14057 0.83641 0.0
H1471 H 0.17144 0.14243 0.84373 0.0
H1472 H 0.29212 0.06403 0.83279 0.0
H1473 H 0.25322 0.09336 0.83421 0.0
H1474 H 0.1107 0.08951 0.82636 0.0
C1475 C 0.05051 0.15248 0.83485 0.0
C1476 C 0.15787 0.1309 0.83996 0.0
C1477 C 0.02991 0.1695 0.83361 0.0
C1478 C 0.25652 0.064 0.83358 0.0
C1479 C 0.23424 0.08076 0.83444 0.0
C1480 C 0.12393 0.10082 0.83034 0.0
C1481 C 0.09666 0.15089 0.83407 0.0
C1482 C 0.11858 0.13281 0.83489 0.0
C1483 C 0.18785 0.0812 0.83517 0.0
C1484 C 0.16357 0.0989 0.83531 0.0
H1485 H 0.12178 0.1953 0.82921 0.0
H1486 H 0.15739 0.16569 0.83134 0.0
H1487 H 0.07176 0.11874 0.82608 0.0
H1488 H 0.16732 0.03533 0.83437 0.0
H1489 H 0.12885 0.06436 0.83612 0.0
C1490 C 0.53195 0.66966 0.8333 0.0
C1491 C 0.55724 0.68533 0.83128 0.0
C1492 C 0.55252 0.65263 0.83451 0.0
C1493 C 0.65972 0.63093 0.83967 0.0
H1494 H 0.61296 0.58983 0.82579 0.0
C1495 C 0.75863 0.5642 0.83306 0.0
C1496 C 0.73487 0.54766 0.83273 0.0
C1497 C 0.73628 0.58094 0.83396 0.0
C1498 C 0.62607 0.60106 0.82985 0.0
H1499 H 0.62398 0.69553 0.82915 0.0
H1500 H 0.65953 0.66589 0.83124 0.0
H1501 H 0.57402 0.61907 0.82562 0.0
H1502 H 0.66947 0.53549 0.83364 0.0
H1503 H 0.63089 0.56448 0.83545 0.0
H1504 H 0.71194 0.61293 0.84387 0.0
C1505 C 0.62394 0.66677 0.83194 0.0
C1506 C 0.60372 0.6178 0.82974 0.0
C1507 C 0.60345 0.68372 0.83066 0.0
C1508 C 0.68869 0.54805 0.8337 0.0
C1509 C 0.6665 0.56469 0.83471 0.0
C1510 C 0.68196 0.61412 0.83984 0.0
C1511 C 0.59869 0.65104 0.83381 0.0
C1512 C 0.62058 0.63295 0.83456 0.0
C1513 C 0.68988 0.58135 0.83464 0.0
C1514 C 0.66558 0.59904 0.83485 0.0
H1515 H 0.49631 0.6705 0.83384 0.0
H1516 H 0.53235 0.64069 0.83599 0.0
H1517 H 0.67317 0.64239 0.84352 0.0
H1518 H 0.79424 0.56427 0.83232 0.0
H1519 H 0.75524 0.59355 0.83381 0.0
C1520 C 1.00823 0.9191 0.58352 0.0
C1521 C 0.98415 0.93557 0.58317 0.0
C1522 C 0.98621 0.90229 0.58442 0.0
C1523 C 0.87639 0.88184 0.58028 0.0
H1524 H 0.92411 0.84067 0.59401 0.0
C1525 C 0.78292 0.81322 0.58388 0.0
C1526 C 0.8082 0.79756 0.58182 0.0
C1527 C 0.80345 0.83024 0.58509 0.0
C1528 C 0.9105 0.85208 0.59015 0.0
H1529 H 0.91851 0.94753 0.58401 0.0
H1530 H 0.88047 0.91842 0.58582 0.0
H1531 H 0.96244 0.87022 0.59432 0.0
H1532 H 0.87492 0.78736 0.57965 0.0
H1533 H 0.91045 0.81701 0.58176 0.0
H1534 H 0.8246 0.86369 0.57609 0.0
C1535 C 0.9161 0.91832 0.58511 0.0
C1536 C 0.93249 0.86895 0.59029 0.0
C1537 C 0.93797 0.93502 0.5841 0.0
C1538 C 0.85441 0.79917 0.58119 0.0
C1539 C 0.87488 0.81612 0.58248 0.0
C1540 C 0.85429 0.86504 0.5802 0.0
C1541 C 0.93981 0.90174 0.58507 0.0
C1542 C 0.91585 0.88397 0.58529 0.0
C1543 C 0.8496 0.83184 0.58435 0.0
C1544 C 0.87136 0.84996 0.58505 0.0
H1545 H 0.04386 0.91914 0.58281 0.0
H1546 H 1.00541 0.88973 0.58429 0.0
H1547 H 0.86311 0.89301 0.57621 0.0
H1548 H 0.74727 0.81239 0.58442 0.0
H1549 H 0.78327 0.84217 0.58658 0.0
C1550 C 0.28842 0.31311 0.58298 0.0
C1551 C 0.31232 0.29659 0.58262 0.0
C1552 C 0.31063 0.32986 0.58394 0.0
C1553 C 0.42074 0.35014 0.57994 0.0
H1554 H 0.37345 0.39119 0.59381 0.0
C1555 C 0.51478 0.41863 0.58376 0.0
C1556 C 0.48952 0.43433 0.58177 0.0
C1557 C 0.49419 0.40159 0.58491 0.0
C1558 C 0.38695 0.37981 0.5899 0.0
H1559 H 0.37782 0.2845 0.58349 0.0
H1560 H 0.41615 0.3135 0.5854 0.0
H1561 H 0.33473 0.36172 0.59398 0.0
H1562 H 0.42281 0.44459 0.57965 0.0
H1563 H 0.38721 0.41494 0.58164 0.0
H1564 H 0.47279 0.36824 0.57583 0.0
C1565 C 0.38054 0.31368 0.58465 0.0
C1566 C 0.36474 0.36299 0.58997 0.0
C1567 C 0.3585 0.29704 0.58359 0.0
C1568 C 0.44331 0.43274 0.58114 0.0
C1569 C 0.42279 0.41579 0.58236 0.0
C1570 C 0.44306 0.36689 0.57993 0.0
C1571 C 0.35703 0.33031 0.58463 0.0
C1572 C 0.38121 0.34802 0.58492 0.0
C1573 C 0.44802 0.40003 0.58417 0.0
C1574 C 0.42614 0.38193 0.58483 0.0
H1575 H 0.2528 0.31313 0.58224 0.0
H1576 H 0.29158 0.34245 0.58383 0.0
H1577 H 0.4339 0.339 0.57583 0.0
H1578 H 0.55042 0.41944 0.58431 0.0
H1579 H 0.51434 0.38962 0.58636 0.0
C1580 C 0.93635 0.29811 0.69184 0.0
C1581 C 0.9825 0.29773 0.69288 0.0
C1582 C 0.91413 0.31474 0.69085 0.0
C1583 C 0.92948 0.36424 0.68588 0.0
H1584 H 0.82104 0.36891 0.69995 0.0
C1585 C 0.85015 0.43366 0.69502 0.0
C1586 C 0.80395 0.43524 0.69432 0.0
C1587 C 0.87079 0.41674 0.69378 0.0
C1588 C 0.85089 0.36772 0.69587 0.0
H1589 H 0.0418 0.31437 0.69342 0.0
H1590 H 1.00272 0.34366 0.69195 0.0
H1591 H 0.86021 0.33972 0.69977 0.0
H1592 H 0.74321 0.42034 0.69166 0.0
H1593 H 0.77952 0.39057 0.68956 0.0
H1594 H 0.92058 0.39253 0.68224 0.0
C1595 C 0.98382 0.33103 0.69174 0.0
C1596 C 0.87336 0.351 0.69576 0.0
C1597 C 1.00621 0.3143 0.69263 0.0
C1598 C 0.77883 0.41954 0.69226 0.0
C1599 C 0.79955 0.40253 0.69108 0.0
C1600 C 0.9071 0.38103 0.68605 0.0
C1601 C 0.93743 0.33142 0.69099 0.0
C1602 C 0.91304 0.34909 0.6908 0.0
C1603 C 0.84572 0.401 0.69186 0.0
C1604 C 0.86778 0.38294 0.6911 0.0
H1605 H 0.91718 0.28554 0.69184 0.0
H1606 H 0.87854 0.31452 0.69006 0.0
H1607 H 0.95958 0.36314 0.68189 0.0
H1608 H 0.87056 0.4455 0.69657 0.0
H1609 H 0.90636 0.41591 0.69453 0.0
C1610 C 0.50796 0.81438 0.69221 0.0
C1611 C 0.48414 0.79785 0.69251 0.0
C1612 C 0.48568 0.83114 0.69133 0.0
C1613 C 0.37552 0.85128 0.69546 0.0
H1614 H 0.42285 0.89275 0.68191 0.0
C1615 C 0.28173 0.92 0.6922 0.0
C1616 C 0.30707 0.93562 0.69429 0.0
C1617 C 0.30223 0.90297 0.69093 0.0
C1618 C 0.40933 0.88126 0.68572 0.0
H1619 H 0.41871 0.78573 0.69158 0.0
H1620 H 0.38023 0.81476 0.68979 0.0
H1621 H 0.46148 0.86326 0.68149 0.0
H1622 H 0.37385 0.94575 0.69645 0.0
H1623 H 0.40929 0.91612 0.69425 0.0
H1624 H 0.32356 0.86929 0.69973 0.0
C1625 C 0.41585 0.81494 0.69054 0.0
C1626 C 0.4315 0.86442 0.68552 0.0
C1627 C 0.43797 0.79829 0.69153 0.0
C1628 C 0.35328 0.93397 0.6949 0.0
C1629 C 0.37371 0.91703 0.69356 0.0
C1630 C 0.35325 0.86805 0.69561 0.0
C1631 C 0.43928 0.83159 0.69063 0.0
C1632 C 0.41503 0.8493 0.69046 0.0
C1633 C 0.3484 0.90135 0.69164 0.0
C1634 C 0.3702 0.88324 0.69083 0.0
H1635 H 0.54357 0.81443 0.69297 0.0
H1636 H 0.50468 0.84374 0.6915 0.0
H1637 H 0.36236 0.84002 0.69949 0.0
H1638 H 0.24609 0.92086 0.69167 0.0
H1639 H 0.28201 0.89107 0.68941 0.0
C1640 C 0.10205 0.0501 0.44519 0.0
C1641 C 0.05583 0.04853 0.44458 0.0
C1642 C 0.12259 0.06705 0.44395 0.0
C1643 C 0.10254 0.11597 0.44634 0.0
H1644 H 0.21032 0.12103 0.43209 0.0
C1645 C 0.1869 0.1858 0.44238 0.0
C1646 C 0.23312 0.18626 0.44326 0.0
C1647 C 0.16482 0.16915 0.44141 0.0
C1648 C 0.18048 0.11979 0.43616 0.0
H1649 H 0.99492 0.06344 0.44208 0.0
H1650 H 0.03104 0.09324 0.44 0.0
H1651 H 0.17162 0.09156 0.43239 0.0
H1652 H 0.29267 0.16973 0.44354 0.0
H1653 H 0.25386 0.14039 0.44211 0.0
H1654 H 0.11184 0.14389 0.45037 0.0
C1655 C 0.05118 0.08127 0.44144 0.0
C1656 C 0.15827 0.10297 0.4363 0.0
C1657 C 0.03057 0.06424 0.4426 0.0
C1658 C 0.25702 0.16975 0.44287 0.0
C1659 C 0.23478 0.15299 0.44201 0.0
C1660 C 0.12486 0.13272 0.44626 0.0
C1661 C 0.09736 0.08281 0.44214 0.0
C1662 C 0.11927 0.1009 0.44144 0.0
C1663 C 0.18836 0.15252 0.44141 0.0
C1664 C 0.16419 0.1348 0.4412 0.0
H1665 H 0.12255 0.03825 0.44667 0.0
H1666 H 0.15818 0.06789 0.44465 0.0
H1667 H 0.07295 0.11465 0.45048 0.0
H1668 H 0.16757 0.19834 0.4425 0.0
H1669 H 0.12918 0.16931 0.44073 0.0
C1670 C 0.69171 0.68348 0.44383 0.0
C1671 C 0.73792 0.68514 0.44324 0.0
C1672 C 0.67141 0.66647 0.44264 0.0
C1673 C 0.69236 0.61771 0.44537 0.0
H1674 H 0.58454 0.61184 0.43121 0.0
C1675 C 0.60906 0.5475 0.44209 0.0
C1676 C 0.56285 0.54697 0.44296 0.0
C1677 C 0.6309 0.56418 0.44097 0.0
C1678 C 0.6144 0.61331 0.43525 0.0
H1679 H 0.79903 0.67034 0.44079 0.0
H1680 H 0.76333 0.64044 0.4388 0.0
H1681 H 0.62268 0.64144 0.43125 0.0
H1682 H 0.50308 0.56337 0.44311 0.0
H1683 H 0.54147 0.59274 0.44141 0.0
H1684 H 0.68362 0.5899 0.44965 0.0
C1685 C 0.74302 0.65239 0.44019 0.0
C1686 C 0.63629 0.6302 0.43524 0.0
C1687 C 0.76338 0.66947 0.4413 0.0
C1688 C 0.53873 0.56341 0.44244 0.0
C1689 C 0.56072 0.58019 0.44142 0.0
C1690 C 0.67036 0.60089 0.44544 0.0
C1691 C 0.69687 0.65074 0.4409 0.0
C1692 C 0.6753 0.63257 0.44035 0.0
C1693 C 0.60713 0.58075 0.44081 0.0
C1694 C 0.63101 0.59852 0.44042 0.0
H1695 H 0.67107 0.6953 0.44527 0.0
H1696 H 0.63583 0.66555 0.44333 0.0
H1697 H 0.72196 0.61926 0.44949 0.0
H1698 H 0.62855 0.53502 0.44231 0.0
H1699 H 0.66654 0.56407 0.44029 0.0
C1700 C 0.19255 0.54884 0.33101 0.0
C1701 C 0.23875 0.54721 0.33163 0.0
C1702 C 0.17213 0.56584 0.33215 0.0
C1703 C 0.19245 0.6147 0.32949 0.0
H1704 H 0.08479 0.62019 0.34373 0.0
C1705 C 0.10799 0.68472 0.33301 0.0
C1706 C 0.06173 0.68514 0.33221 0.0
C1707 C 0.13017 0.66809 0.33405 0.0
C1708 C 0.1146 0.61883 0.33966 0.0
H1709 H 0.29976 0.56209 0.33405 0.0
H1710 H 0.26385 0.59199 0.33596 0.0
H1711 H 0.12333 0.59068 0.34359 0.0
H1712 H 1.00227 0.66856 0.33209 0.0
H1713 H 0.04122 0.63929 0.33365 0.0
H1714 H 0.18325 0.64254 0.32529 0.0
C1715 C 0.24363 0.58002 0.33458 0.0
C1716 C 0.13672 0.60199 0.33962 0.0
C1717 C 0.26411 0.56293 0.33352 0.0
C1718 C 0.03794 0.66862 0.33271 0.0
C1719 C 0.06026 0.65189 0.33365 0.0
C1720 C 0.17021 0.63148 0.32947 0.0
C1721 C 0.19746 0.58161 0.33387 0.0
C1722 C 0.17567 0.59975 0.33447 0.0
C1723 C 0.10671 0.65144 0.3342 0.0
C1724 C 0.1309 0.63372 0.33452 0.0
H1725 H 0.17198 0.53699 0.32959 0.0
H1726 H 0.13654 0.56672 0.33145 0.0
H1727 H 0.22202 0.61326 0.32535 0.0
H1728 H 0.12726 0.69726 0.33279 0.0
H1729 H 0.16584 0.66828 0.33468 0.0
C1730 C 0.76611 0.06319 0.33394 0.0
C1731 C 0.74081 0.04748 0.33199 0.0
C1732 C 0.74556 0.08025 0.33505 0.0
C1733 C 0.63837 0.10205 0.34008 0.0
H1734 H 0.68509 0.1429 0.326 0.0
C1735 C 0.53934 0.16864 0.33318 0.0
C1736 C 0.56306 0.18519 0.33278 0.0
C1737 C 0.56172 0.15193 0.33414 0.0
C1738 C 0.67199 0.13175 0.33012 0.0
H1739 H 0.67406 0.03727 0.32988 0.0
H1740 H 0.63855 0.06695 0.33181 0.0
H1741 H 0.72407 0.11367 0.32599 0.0
H1742 H 0.62845 0.19739 0.3336 0.0
H1743 H 0.6671 0.16844 0.33551 0.0
H1744 H 0.58613 0.12012 0.34418 0.0
C1745 C 0.67413 0.06608 0.33253 0.0
C1746 C 0.69436 0.11501 0.3301 0.0
C1747 C 0.6946 0.0491 0.33134 0.0
C1748 C 0.60925 0.18482 0.33373 0.0
C1749 C 0.63148 0.16821 0.33479 0.0
C1750 C 0.6161 0.11886 0.34016 0.0
C1751 C 0.69939 0.08183 0.33433 0.0
C1752 C 0.67751 0.09995 0.33499 0.0
C1753 C 0.60813 0.15154 0.33481 0.0
C1754 C 0.63247 0.13385 0.33511 0.0
H1755 H 0.80175 0.06235 0.33449 0.0
H1756 H 0.76574 0.09221 0.33648 0.0
H1757 H 0.62492 0.09066 0.34399 0.0
H1758 H 0.50371 0.16856 0.33246 0.0
H1759 H 0.54278 0.1393 0.33405 0.0
C1760 C 0.06368 0.51381 0.10785 0.0
C1761 C 0.05825 0.49741 0.1029 0.0
C1762 C 0.08581 0.51386 0.11633 0.0
C1763 C 0.16004 0.4849 0.13119 0.0
H1764 H 0.12485 0.51965 0.15005 0.0
C1765 C 0.21974 0.48061 0.16918 0.0
C1766 C 0.23613 0.49701 0.17298 0.0
C1767 C 0.19827 0.48068 0.16063 0.0
C1768 C 0.1352 0.50993 0.14483 0.0
H1769 H 0.07124 0.46815 0.10296 0.0
H1770 H 0.10806 0.468 0.11788 0.0
H1771 H 0.08663 0.51952 0.13528 0.0
H1772 H 0.24231 0.52637 0.1709 0.0
H1773 H 0.20385 0.52657 0.15604 0.0
H1774 H 0.20765 0.47497 0.14096 0.0
C1775 C 0.09665 0.48101 0.11516 0.0
C1776 C 0.11347 0.5099 0.1363 0.0
C1777 C 0.07515 0.48103 0.10661 0.0
C1778 C 0.23013 0.51352 0.16812 0.0
C1779 C 0.20795 0.51364 0.15964 0.0
C1780 C 0.18121 0.48474 0.13977 0.0
C1781 C 0.10248 0.49744 0.12017 0.0
C1782 C 0.12562 0.49743 0.12932 0.0
C1783 C 0.19203 0.49721 0.15577 0.0
C1784 C 0.16916 0.49729 0.14668 0.0
H1785 H 0.0513 0.52667 0.10512 0.0
H1786 H 0.09026 0.52688 0.11981 0.0
H1787 H 0.17125 0.47533 0.12599 0.0
H1788 H 0.22386 0.46768 0.17278 0.0
H1789 H 0.18607 0.46783 0.15786 0.0
C1790 C 0.2181 0.75388 0.10577 0.0
C1791 C 0.23551 0.73753 0.10213 0.0
C1792 C 0.19724 0.75397 0.11438 0.0
C1793 C 0.18275 0.72528 0.13571 0.0
H1794 H 0.08823 0.75995 0.14055 0.0
C1795 C 0.06606 0.72114 0.16748 0.0
C1796 C 0.06133 0.73746 0.17255 0.0
C1797 C 0.08795 0.72119 0.15898 0.0
C1798 C 0.11475 0.75026 0.13931 0.0
H1799 H 0.24388 0.7084 0.10453 0.0
H1800 H 0.20585 0.70826 0.11931 0.0
H1801 H 0.12377 0.75965 0.1255 0.0
H1802 H 0.0755 0.76663 0.1727 0.0
H1803 H 0.11261 0.76682 0.15769 0.0
H1804 H 0.17211 0.71549 0.14948 0.0
C1805 C 0.20956 0.72123 0.11574 0.0
C1806 C 0.13545 0.75013 0.13068 0.0
C1807 C 0.23114 0.72124 0.10721 0.0
C1808 C 0.07864 0.75386 0.16893 0.0
C1809 C 0.09973 0.75398 0.16034 0.0
C1810 C 0.16141 0.72518 0.14427 0.0
C1811 C 0.19248 0.73763 0.11952 0.0
C1812 C 0.16997 0.73768 0.12874 0.0
C1813 C 0.10475 0.73763 0.15529 0.0
C1814 C 0.12732 0.73771 0.14618 0.0
H1815 H 0.22118 0.76667 0.10201 0.0
H1816 H 0.18549 0.76697 0.11704 0.0
H1817 H 0.20971 0.71575 0.13465 0.0
H1818 H 0.05318 0.70829 0.17012 0.0
H1819 H 0.09117 0.7084 0.15522 0.0
C1820 C 0.81766 0.46991 0.85762 0.0
C1821 C 0.81134 0.4864 0.85276 0.0
C1822 C 0.83971 0.46985 0.86611 0.0
C1823 C 0.86477 0.49863 0.88606 0.0
H1824 H 0.96119 0.4647 0.8905 0.0
C1825 C 0.96886 0.50246 0.91949 0.0
C1826 C 0.98671 0.48616 0.9231 0.0
C1827 C 0.94784 0.50252 0.91089 0.0
C1828 C 0.93384 0.47407 0.88949 0.0
H1829 H 0.8229 0.51578 0.85298 0.0
H1830 H 0.86038 0.51576 0.86794 0.0
H1831 H 0.92346 0.46451 0.87568 0.0
H1832 H 0.99582 0.45708 0.92065 0.0
H1833 H 0.95761 0.45691 0.90587 0.0
H1834 H 0.87365 0.5078 0.89991 0.0
C1835 C 0.84858 0.50286 0.86515 0.0
C1836 C 0.9124 0.47401 0.88094 0.0
C1837 C 0.82728 0.50286 0.85658 0.0
C1838 C 0.9827 0.46989 0.91799 0.0
C1839 C 0.96101 0.46986 0.90946 0.0
C1840 C 0.88562 0.49847 0.89467 0.0
C1841 C 0.85513 0.48635 0.87 0.0
C1842 C 0.87776 0.48634 0.87911 0.0
C1843 C 0.9434 0.48621 0.90573 0.0
C1844 C 0.92069 0.48624 0.89653 0.0
H1845 H 0.80583 0.45702 0.85482 0.0
H1846 H 0.84409 0.45694 0.8697 0.0
H1847 H 0.83782 0.50815 0.88488 0.0
H1848 H 0.97166 0.51524 0.92327 0.0
H1849 H 0.93568 0.51549 0.90826 0.0
C1850 C 0.96771 0.22935 0.85617 0.0
C1851 C 0.98506 0.24576 0.85258 0.0
C1852 C 0.94657 0.22919 0.86476 0.0
C1853 C 0.88509 0.25802 0.88088 0.0
H1854 H 0.9215 0.22303 0.89952 0.0
C1855 C 0.81471 0.26154 0.91791 0.0
C1856 C 0.80965 0.24514 0.92288 0.0
C1857 C 0.83655 0.26162 0.9094 0.0
C1858 C 0.91017 0.23271 0.89438 0.0
H1859 H 0.99327 0.27491 0.85505 0.0
H1860 H 0.95524 0.27472 0.86995 0.0
H1861 H 0.95731 0.22287 0.88449 0.0
H1862 H 0.82306 0.21592 0.92285 0.0
H1863 H 0.85924 0.2158 0.90786 0.0
H1864 H 0.83688 0.26749 0.89052 0.0
C1865 C 0.95843 0.26196 0.86617 0.0
C1866 C 0.93102 0.23265 0.88576 0.0
C1867 C 0.98035 0.26205 0.85767 0.0
C1868 C 0.82667 0.2288 0.91917 0.0
C1869 C 0.84781 0.2288 0.91059 0.0
C1870 C 0.86361 0.25786 0.88943 0.0
C1871 C 0.94155 0.24551 0.86984 0.0
C1872 C 0.91889 0.24537 0.87894 0.0
C1873 C 0.85322 0.24523 0.90555 0.0
C1874 C 0.87593 0.24527 0.89635 0.0
H1875 H 0.97082 0.21659 0.85239 0.0
H1876 H 0.93363 0.21633 0.86738 0.0
H1877 H 0.8747 0.26786 0.87572 0.0
H1878 H 0.80227 0.27438 0.92065 0.0
H1879 H 0.84075 0.27465 0.90592 0.0
C1880 C 0.06632 0.01309 0.6083 0.0
C1881 C 0.06043 -0.00336 0.60341 0.0
C1882 C 0.08854 0.01318 0.61676 0.0
C1883 C 0.16168 0.98407 0.63181 0.0
H1884 H 0.12765 0.01956 0.6504 0.0
C1885 C 0.21945 0.98046 0.66997 0.0
C1886 C 0.23702 -0.00321 0.67361 0.0
C1887 C 0.1984 0.98044 0.66137 0.0
C1888 C 0.13766 0.00963 0.64526 0.0
H1889 H 0.07281 0.96735 0.60355 0.0
H1890 H 0.10969 0.96725 0.61846 0.0
H1891 H 0.08958 0.01929 0.63563 0.0
H1892 H 0.24577 0.02594 0.6712 0.0
H1893 H 0.20793 0.02599 0.65627 0.0
H1894 H 0.20868 0.97405 0.64168 0.0
C1895 C 0.09859 0.98027 0.6157 0.0
C1896 C 0.11603 0.00952 0.63672 0.0
C1897 C 0.07706 0.98026 0.60716 0.0
C1898 C 0.23266 0.01314 0.66854 0.0
C1899 C 0.21085 0.01319 0.66003 0.0
C1900 C 0.18269 0.98398 0.64041 0.0
C1901 C 0.10479 -0.00326 0.62066 0.0
C1902 C 0.12779 -0.00321 0.62983 0.0
C1903 C 0.19372 -0.00319 0.65632 0.0
C1904 C 0.17107 -0.00319 0.64721 0.0
H1905 H 0.05421 0.02596 0.60552 0.0
H1906 H 0.09335 0.02624 0.62018 0.0
H1907 H 0.17258 0.97428 0.62668 0.0
H1908 H 0.22228 0.96766 0.67373 0.0
H1909 H 0.18525 0.96764 0.65873 0.0
C1910 C 0.23193 0.21921 0.60781 0.0
C1911 C 0.23734 0.23556 0.60282 0.0
C1912 C 0.20974 0.21921 0.61628 0.0
C1913 C 0.13535 0.24832 0.63103 0.0
H1914 H 0.17002 0.21362 0.64997 0.0
C1915 C 0.07522 0.25281 0.66899 0.0
C1916 C 0.05845 0.23645 0.67277 0.0
C1917 C 0.09685 0.25269 0.66046 0.0
C1918 C 0.15982 0.22333 0.64473 0.0
H1919 H 0.22429 0.26481 0.6028 0.0
H1920 H 0.18741 0.26508 0.6177 0.0
H1921 H 0.20847 0.21363 0.63523 0.0
H1922 H 0.05177 0.20712 0.67067 0.0
H1923 H 0.09053 0.20683 0.65585 0.0
H1924 H 0.08768 0.25836 0.64075 0.0
C1925 C 0.19885 0.25205 0.61502 0.0
C1926 C 0.18169 0.22329 0.63622 0.0
C1927 C 0.22039 0.25196 0.60648 0.0
C1928 C 0.06424 0.21994 0.66791 0.0
C1929 C 0.08659 0.21976 0.65945 0.0
C1930 C 0.11406 0.24855 0.6396 0.0
C1931 C 0.193 0.23566 0.62007 0.0
C1932 C 0.16973 0.23574 0.6292 0.0
C1933 C 0.10289 0.23615 0.6556 0.0
C1934 C 0.12592 0.23602 0.64653 0.0
H1935 H 0.24435 0.20633 0.60511 0.0
H1936 H 0.20528 0.20622 0.61979 0.0
H1937 H 0.12427 0.25788 0.62581 0.0
H1938 H 0.07127 0.26574 0.67259 0.0
H1939 H 0.10933 0.26551 0.6577 0.0
C1940 C 0.98044 0.97128 0.41859 0.0
C1941 C 0.98549 0.98767 0.42359 0.0
C1942 C 0.95849 0.97125 0.41009 0.0
C1943 C 0.9318 0.00011 0.39032 0.0
H1944 H 0.83664 0.96563 0.38581 0.0
C1945 C 0.82806 0.00331 0.35679 0.0
C1946 C 0.81064 0.98692 0.35322 0.0
C1947 C 0.84903 0.00352 0.3654 0.0
C1948 C 0.86366 0.97516 0.38683 0.0
H1949 H 0.97183 0.01689 0.42362 0.0
H1950 H 0.93458 0.01694 0.40862 0.0
H1951 H 0.87437 0.96555 0.40063 0.0
H1952 H 0.80234 0.95781 0.35573 0.0
H1953 H 0.84054 0.95789 0.37049 0.0
H1954 H 0.92268 0.00932 0.37648 0.0
C1955 C 0.94728 0.0041 0.41132 0.0
C1956 C 0.88507 0.97516 0.39539 0.0
C1957 C 0.96844 0.00406 0.4199 0.0
C1958 C 0.8151 0.97069 0.35836 0.0
C1959 C 0.83678 0.97081 0.36688 0.0
C1960 C 0.91101 -0.00012 0.38169 0.0
C1961 C 0.94192 0.98768 0.40634 0.0
C1962 C 0.91925 0.98768 0.39724 0.0
C1963 C 0.85386 0.98726 0.37059 0.0
C1964 C 0.87643 0.98744 0.37981 0.0
H1965 H 0.99313 0.95844 0.42129 0.0
H1966 H 0.95503 0.95842 0.40639 0.0
H1967 H 0.95839 0.00979 0.39152 0.0
H1968 H 0.82491 0.01605 0.35299 0.0
H1969 H 0.8608 0.01656 0.36801 0.0
C1970 C 0.96809 0.72978 0.35607 0.0
C1971 C 0.9839 0.74627 0.35225 0.0
C1972 C 0.94675 0.72975 0.36464 0.0
C1973 C 0.88292 0.75862 0.38044 0.0
H1974 H 0.9215 0.72468 0.39937 0.0
C1975 C 0.81313 0.76273 0.41752 0.0
C1976 C 0.80883 0.74642 0.4226 0.0
C1977 C 0.83476 0.76275 0.40899 0.0
C1978 C 0.90959 0.73406 0.39415 0.0
H1979 H 0.98911 0.77566 0.3543 0.0
H1980 H 0.95084 0.77568 0.36917 0.0
H1981 H 0.95723 0.72435 0.38434 0.0
H1982 H 0.82337 0.71729 0.42272 0.0
H1983 H 0.85929 0.71706 0.40771 0.0
H1984 H 0.83433 0.76798 0.39003 0.0
C1985 C 0.95532 0.76277 0.36558 0.0
C1986 C 0.93037 0.7339 0.38553 0.0
C1987 C 0.97738 0.76275 0.3571 0.0
C1988 C 0.82638 0.7301 0.41897 0.0
C1989 C 0.84737 0.73004 0.41037 0.0
C1990 C 0.86157 0.75856 0.389 0.0
C1991 C 0.94004 0.74626 0.36948 0.0
C1992 C 0.91743 0.74624 0.37859 0.0
C1993 C 0.85204 0.74638 0.40523 0.0
C1994 C 0.87467 0.74634 0.39603 0.0
H1995 H 0.97261 0.71687 0.35248 0.0
H1996 H 0.93505 0.71684 0.36743 0.0
H1997 H 0.8719 0.76816 0.37519 0.0
H1998 H 0.80024 0.77555 0.4202 0.0
H1999 H 0.83835 0.77571 0.40542 0.0
C2000 C 0.57675 0.47896 0.60637 0.0
C2001 C 0.55932 0.49528 0.60271 0.0
C2002 C 0.59767 0.47892 0.61498 0.0
C2003 C 0.61228 0.50774 0.63626 0.0
H2004 H 0.7069 0.47313 0.64114 0.0
C2005 C 0.72901 0.51207 0.66802 0.0
C2006 C 0.73383 0.49577 0.67311 0.0
C2007 C 0.70711 0.51198 0.65952 0.0
C2008 C 0.68035 0.48281 0.63989 0.0
H2009 H 0.55097 0.52443 0.60505 0.0
H2010 H 0.58911 0.52466 0.61982 0.0
H2011 H 0.67127 0.47333 0.62609 0.0
H2012 H 0.71983 0.46657 0.67328 0.0
H2013 H 0.68271 0.46632 0.65828 0.0
H2014 H 0.62297 0.51761 0.65 0.0
C2015 C 0.58537 0.51167 0.61628 0.0
C2016 C 0.6596 0.48288 0.63126 0.0
C2017 C 0.56373 0.51161 0.60776 0.0
C2018 C 0.71662 0.47934 0.6695 0.0
C2019 C 0.69552 0.47918 0.66091 0.0
C2020 C 0.63367 0.50789 0.64482 0.0
C2021 C 0.60248 0.4953 0.62009 0.0
C2022 C 0.62504 0.4953 0.6293 0.0
C2023 C 0.69039 0.49551 0.65584 0.0
C2024 C 0.6678 0.49538 0.64674 0.0
H2025 H 0.57364 0.46614 0.60264 0.0
H2026 H 0.60944 0.46594 0.61767 0.0
H2027 H 0.58529 0.51726 0.63518 0.0
H2028 H 0.74182 0.52494 0.67066 0.0
H2029 H 0.70381 0.52475 0.65575 0.0
C2030 C 0.71944 0.75255 0.60602 0.0
C2031 C 0.73697 0.73625 0.60237 0.0
C2032 C 0.69816 0.75255 0.61458 0.0
C2033 C 0.68274 0.72381 0.63585 0.0
H2034 H 0.58751 0.75827 0.64043 0.0
C2035 C 0.56606 0.71996 0.66766 0.0
C2036 C 0.56008 0.73647 0.67251 0.0
C2037 C 0.58819 0.71984 0.65918 0.0
C2038 C 0.61423 0.74863 0.63927 0.0
H2039 H 0.74525 0.70708 0.6047 0.0
H2040 H 0.7066 0.7068 0.61942 0.0
H2041 H 0.62368 0.75793 0.62545 0.0
H2042 H 0.57231 0.7658 0.67231 0.0
H2043 H 0.60992 0.76567 0.65737 0.0
H2044 H 0.67179 0.71415 0.64962 0.0
C2045 C 0.71043 0.7198 0.61589 0.0
C2046 C 0.63528 0.74849 0.63068 0.0
C2047 C 0.73238 0.71989 0.60739 0.0
C2048 C 0.57642 0.75288 0.66871 0.0
C2049 C 0.59779 0.75281 0.66015 0.0
C2050 C 0.66109 0.72375 0.64438 0.0
C2051 C 0.69313 0.73616 0.61966 0.0
C2052 C 0.6701 0.73613 0.62883 0.0
C2053 C 0.60402 0.73629 0.6553 0.0
C2054 C 0.62676 0.73622 0.6462 0.0
H2055 H 0.72269 0.7654 0.60231 0.0
H2056 H 0.68626 0.76552 0.61726 0.0
H2057 H 0.70987 0.71433 0.63484 0.0
H2058 H 0.55393 0.70711 0.67045 0.0
H2059 H 0.5923 0.70692 0.65558 0.0
C2060 C 0.31389 0.46993 0.35778 0.0
C2061 C 0.30927 0.48628 0.35273 0.0
C2062 C 0.33594 0.4699 0.36627 0.0
C2063 C 0.36437 0.49907 0.38588 0.0
H2064 H 0.45728 0.46363 0.3906 0.0
C2065 C 0.46992 0.50239 0.41914 0.0
C2066 C 0.48628 0.48594 0.42288 0.0
C2067 C 0.44848 0.50248 0.41059 0.0
C2068 C 0.43089 0.47344 0.38951 0.0
H2069 H 0.32381 0.51543 0.35259 0.0
H2070 H 0.3613 0.51546 0.36756 0.0
H2071 H 0.41921 0.4635 0.37582 0.0
H2072 H 0.49216 0.45663 0.42072 0.0
H2073 H 0.45319 0.45654 0.40604 0.0
H2074 H 0.37455 0.50866 0.39962 0.0
C2075 C 0.34816 0.50266 0.36492 0.0
C2076 C 0.40926 0.47341 0.38098 0.0
C2077 C 0.32685 0.50263 0.35635 0.0
C2078 C 0.48024 0.46954 0.41796 0.0
C2079 C 0.45812 0.46956 0.40948 0.0
C2080 C 0.38539 0.4989 0.39447 0.0
C2081 C 0.35307 0.48628 0.36996 0.0
C2082 C 0.3759 0.48627 0.37905 0.0
C2083 C 0.44212 0.48605 0.40561 0.0
C2084 C 0.41919 0.48613 0.39643 0.0
H2085 H 0.30078 0.45713 0.35514 0.0
H2086 H 0.33902 0.45709 0.37002 0.0
H2087 H 0.33841 0.50902 0.38462 0.0
H2088 H 0.4743 0.51527 0.42277 0.0
H2089 H 0.43757 0.51554 0.40784 0.0
C2090 C 0.31507 0.26345 0.4179 0.0
C2091 C 0.30931 0.24706 0.42288 0.0
C2092 C 0.33724 0.26339 0.40943 0.0
C2093 C 0.36435 0.23405 0.38975 0.0
H2094 H 0.45833 0.26898 0.38505 0.0
C2095 C 0.46995 0.2301 0.35652 0.0
C2096 C 0.48656 0.24647 0.35275 0.0
C2097 C 0.44855 0.23014 0.36508 0.0
C2098 C 0.43166 0.25931 0.38613 0.0
H2099 H 0.32204 0.21777 0.42289 0.0
H2100 H 0.3598 0.21758 0.40797 0.0
H2101 H 0.42028 0.26931 0.39983 0.0
H2102 H 0.49305 0.27577 0.35487 0.0
H2103 H 0.45425 0.27608 0.36957 0.0
H2104 H 0.3743 0.22439 0.37602 0.0
C2105 C 0.34741 0.23048 0.41065 0.0
C2106 C 0.41003 0.25946 0.39466 0.0
C2107 C 0.32596 0.2306 0.4192 0.0
C2108 C 0.4809 0.26292 0.35765 0.0
C2109 C 0.45888 0.26303 0.36614 0.0
C2110 C 0.38542 0.2341 0.38116 0.0
C2111 C 0.3534 0.24689 0.40568 0.0
C2112 C 0.37626 0.24678 0.39659 0.0
C2113 C 0.44255 0.24662 0.37004 0.0
C2114 C 0.4196 0.24668 0.37921 0.0
H2115 H 0.30269 0.27634 0.42059 0.0
H2116 H 0.34113 0.27623 0.40574 0.0
H2117 H 0.33808 0.22425 0.391 0.0
H2118 H 0.47404 0.21719 0.35291 0.0
H2119 H 0.43738 0.21714 0.36785 0.0
C2120 C 0.72997 0.01348 0.16852 0.0
C2121 C 0.7359 -0.00296 0.17342 0.0
C2122 C 0.70786 0.01355 0.16004 0.0
C2123 C 0.63461 0.98446 0.14505 0.0
H2124 H 0.66901 0.01967 0.12634 0.0
C2125 C 0.57524 0.98061 0.10702 0.0
C2126 C 0.55847 -0.00298 0.10329 0.0
C2127 C 0.59664 0.98061 0.11558 0.0
C2128 C 0.65888 0.00982 0.13152 0.0
H2129 H 0.72375 0.96773 0.17327 0.0
H2130 H 0.68694 0.96761 0.15834 0.0
H2131 H 0.7071 0.01947 0.14112 0.0
H2132 H 0.55155 0.02631 0.10551 0.0
H2133 H 0.58988 0.02638 0.12037 0.0
H2134 H 0.58736 0.97448 0.13523 0.0
C2135 C 0.69797 0.98063 0.16111 0.0
C2136 C 0.68054 0.00975 0.14005 0.0
C2137 C 0.71945 0.98064 0.16966 0.0
C2138 C 0.56403 0.01345 0.10823 0.0
C2139 C 0.58613 0.0135 0.11671 0.0
C2140 C 0.61352 0.98434 0.13646 0.0
C2141 C 0.6917 -0.0029 0.15615 0.0
C2142 C 0.66867 -0.00289 0.14699 0.0
C2143 C 0.60244 -0.00294 0.12051 0.0
C2144 C 0.62527 -0.00294 0.12961 0.0
H2145 H 0.74198 0.02636 0.17129 0.0
H2146 H 0.70303 0.02659 0.1566 0.0
H2147 H 0.62364 0.97475 0.15021 0.0
H2148 H 0.57148 0.96774 0.10336 0.0
H2149 H 0.60915 0.96775 0.11829 0.0
C2150 C 0.71891 0.25359 0.10626 0.0
C2151 C 0.73648 0.23727 0.10263 0.0
C2152 C 0.69796 0.25365 0.11486 0.0
C2153 C 0.68343 0.22498 0.1362 0.0
H2154 H 0.58858 0.25953 0.14097 0.0
C2155 C 0.56651 0.22078 0.16793 0.0
C2156 C 0.56141 0.23713 0.17296 0.0
C2157 C 0.58854 0.22083 0.15945 0.0
C2158 C 0.6152 0.24987 0.13974 0.0
H2159 H 0.74506 0.20814 0.10503 0.0
H2160 H 0.70688 0.20796 0.1198 0.0
H2161 H 0.62428 0.25924 0.12593 0.0
H2162 H 0.57512 0.26635 0.17307 0.0
H2163 H 0.61247 0.26652 0.15809 0.0
H2164 H 0.67274 0.21522 0.14997 0.0
C2165 C 0.71052 0.22094 0.11624 0.0
C2166 C 0.63599 0.24975 0.13113 0.0
C2167 C 0.73219 0.22096 0.10771 0.0
C2168 C 0.57853 0.25355 0.16933 0.0
C2169 C 0.59976 0.25366 0.16075 0.0
C2170 C 0.66201 0.22488 0.14475 0.0
C2171 C 0.69326 0.23731 0.12 0.0
C2172 C 0.67063 0.23735 0.12921 0.0
C2173 C 0.60513 0.23729 0.15573 0.0
C2174 C 0.62779 0.23737 0.14663 0.0
H2175 H 0.72193 0.26639 0.1025 0.0
H2176 H 0.68609 0.26664 0.11752 0.0
H2177 H 0.71048 0.21548 0.13515 0.0
H2178 H 0.5538 0.20792 0.17059 0.0
H2179 H 0.59202 0.20802 0.15571 0.0
C2180 C 0.31432 0.96952 0.85823 0.0
C2181 C 0.30858 0.98604 0.85337 0.0
C2182 C 0.33664 0.96932 0.86669 0.0
C2183 C 0.3641 -0.00193 0.88655 0.0
H2184 H 0.45833 0.96306 0.89095 0.0
C2185 C 0.47034 0.00129 0.9197 0.0
C2186 C 0.48717 0.98486 0.92336 0.0
C2187 C 0.4488 0.00142 0.91116 0.0
C2188 C 0.43159 0.97274 0.88995 0.0
H2189 H 0.32147 0.01532 0.85355 0.0
H2190 H 0.35949 0.01505 0.86845 0.0
H2191 H 0.41997 0.96312 0.87619 0.0
H2192 H 0.4939 0.95561 0.92107 0.0
H2193 H 0.45482 0.95559 0.90639 0.0
H2194 H 0.37426 0.00735 0.90034 0.0
C2195 C 0.34698 0.00224 0.86569 0.0
C2196 C 0.40979 0.97282 0.88144 0.0
C2197 C 0.32538 0.00239 0.85715 0.0
C2198 C 0.48159 0.96852 0.91837 0.0
C2199 C 0.4594 0.96857 0.90989 0.0
C2200 C 0.38533 -0.00221 0.89512 0.0
C2201 C 0.35296 0.9857 0.87055 0.0
C2202 C 0.37594 0.98554 0.87962 0.0
C2203 C 0.44283 0.98505 0.90611 0.0
C2204 C 0.41963 0.98518 0.89696 0.0
H2205 H 0.30182 0.95671 0.85546 0.0
H2206 H 0.34053 0.95638 0.87029 0.0
H2207 H 0.33776 0.00789 0.88539 0.0
H2208 H 0.47436 0.01412 0.92338 0.0
H2209 H 0.43747 0.01448 0.90847 0.0
C2210 C 0.46923 0.72992 0.85579 0.0
C2211 C 0.48676 0.74628 0.85217 0.0
C2212 C 0.44799 0.72984 0.86436 0.0
C2213 C 0.38694 0.75902 0.88045 0.0
H2214 H 0.42144 0.72359 0.89904 0.0
C2215 C 0.31572 0.76264 0.9174 0.0
C2216 C 0.30954 0.74621 0.92229 0.0
C2217 C 0.33794 0.76267 0.90893 0.0
C2218 C 0.41066 0.7334 0.89391 0.0
H2219 H 0.49527 0.77542 0.85461 0.0
H2220 H 0.45715 0.77539 0.8695 0.0
H2221 H 0.45766 0.72334 0.88405 0.0
H2222 H 0.32144 0.71688 0.92215 0.0
H2223 H 0.35836 0.71669 0.90724 0.0
H2224 H 0.33891 0.76874 0.89006 0.0
C2225 C 0.46021 0.7626 0.86574 0.0
C2226 C 0.43173 0.73329 0.88532 0.0
C2227 C 0.48219 0.76261 0.85724 0.0
C2228 C 0.32591 0.72978 0.91854 0.0
C2229 C 0.34746 0.72974 0.91 0.0
C2230 C 0.36527 0.75893 0.88897 0.0
C2231 C 0.4431 0.7462 0.86942 0.0
C2232 C 0.42028 0.74616 0.87851 0.0
C2233 C 0.35391 0.7462 0.90505 0.0
C2234 C 0.3769 0.74618 0.89588 0.0
H2235 H 0.47224 0.71713 0.85202 0.0
H2236 H 0.43487 0.71702 0.86699 0.0
H2237 H 0.37705 0.76897 0.8753 0.0
H2238 H 0.3038 0.77555 0.92017 0.0
H2239 H 0.34295 0.77572 0.90551 0.0
C2240 C 0.15404 0.68716 0.0745 0.0
C2241 C 0.1992 0.69151 0.07477 0.0
C2242 C 0.14061 0.66875 0.07428 0.0
C2243 C 0.17605 0.6227 0.08077 0.0
H2244 H 0.09965 0.60542 0.06119 0.0
C2245 C 0.13861 0.54556 0.0759 0.0
C2246 C 0.09451 0.54123 0.07384 0.0
C2247 C 0.15304 0.56382 0.07552 0.0
C2248 C 0.12061 0.61005 0.06676 0.0
H2249 H 0.26562 0.68015 0.07528 0.0
H2250 H 0.24208 0.64829 0.07503 0.0
H2251 H 0.11818 0.638 0.06213 0.0
H2252 H 0.03116 0.55264 0.06963 0.0
H2253 H 0.05581 0.5841 0.06925 0.0
H2254 H 0.17779 0.59495 0.08557 0.0
C2255 C 0.21717 0.659 0.07491 0.0
C2256 C 0.13107 0.62868 0.06729 0.0
C2257 C 0.23054 0.67725 0.07497 0.0
C2258 C 0.06548 0.5554 0.07123 0.0
C2259 C 0.07971 0.57353 0.07093 0.0
C2260 C 0.16512 0.60411 0.08032 0.0
C2261 C 0.1722 0.65458 0.07453 0.0
C2262 C 0.15893 0.63512 0.07428 0.0
C2263 C 0.1235 0.57802 0.07314 0.0
C2264 C 0.13723 0.59757 0.07332 0.0
H2265 H 0.12929 0.69792 0.07435 0.0
H2266 H 0.10566 0.66557 0.07401 0.0
H2267 H 0.19756 0.62743 0.08624 0.0
H2268 H 0.16174 0.53493 0.07791 0.0
H2269 H 0.18721 0.56683 0.07715 0.0
C2270 C 0.06577 0.67693 0.19914 0.0
C2271 C 0.09703 0.69116 0.19977 0.0
C2272 C 0.07906 0.65866 0.19928 0.0
C2273 C 0.16265 0.62828 0.20794 0.0
H2274 H 0.12048 0.59447 0.18924 0.0
C2275 C 0.22783 0.55468 0.20499 0.0
C2276 C 0.19943 0.54062 0.20198 0.0
C2277 C 0.21381 0.57286 0.20513 0.0
C2278 C 0.13184 0.60365 0.19461 0.0
H2279 H 0.16674 0.69751 0.20097 0.0
H2280 H 0.19018 0.66512 0.20146 0.0
H2281 H 0.10152 0.627 0.18823 0.0
H2282 H 0.13333 0.53453 0.1971 0.0
H2283 H 0.10815 0.5665 0.1976 0.0
H2284 H 0.19187 0.60499 0.2145 0.0
C2285 C 0.15537 0.66834 0.2008 0.0
C2286 C 0.12141 0.62227 0.19397 0.0
C2287 C 0.14206 0.68677 0.2005 0.0
C2288 C 0.15599 0.54508 0.19943 0.0
C2289 C 0.14175 0.56338 0.19964 0.0
C2290 C 0.17259 0.60961 0.20866 0.0
C2291 C 0.12384 0.6542 0.20016 0.0
C2292 C 0.1369 0.63472 0.2006 0.0
C2293 C 0.17082 0.57749 0.20237 0.0
C2294 C 0.15757 0.59709 0.20196 0.0
H2295 H 0.03082 0.67988 0.19847 0.0
H2296 H 0.05417 0.64799 0.19885 0.0
H2297 H 0.17423 0.63761 0.21322 0.0
H2298 H 0.2616 0.55181 0.207 0.0
H2299 H 0.23736 0.58334 0.20711 0.0
C2300 C 0.81515 0.30448 0.95273 0.0
C2301 C 0.84557 0.2902 0.9512 0.0
C2302 C 0.82898 0.32266 0.95297 0.0
C2303 C 0.91932 0.35295 0.9455 0.0
H2304 H 0.86268 0.38735 0.96218 0.0
C2305 C 0.98193 0.42621 0.95163 0.0
C2306 C 0.95077 0.44048 0.9509 0.0
C2307 C 0.96849 0.40797 0.95168 0.0
C2308 C 0.87835 0.37789 0.95744 0.0
H2309 H 0.91458 0.28377 0.94883 0.0
H2310 H 0.93925 0.3158 0.94952 0.0
H2311 H 0.84328 0.35483 0.96284 0.0
H2312 H 0.881 0.44685 0.94973 0.0
H2313 H 0.8572 0.41455 0.95003 0.0
H2314 H 0.95525 0.37608 0.94031 0.0
C2315 C 0.90443 0.31282 0.95036 0.0
C2316 C 0.86737 0.3593 0.9578 0.0
C2317 C 0.89042 0.2945 0.95002 0.0
C2318 C 0.90566 0.43612 0.95031 0.0
C2319 C 0.8921 0.41773 0.9505 0.0
C2320 C 0.93069 0.37151 0.94523 0.0
C2321 C 0.87371 0.32709 0.95179 0.0
C2322 C 0.88749 0.34663 0.95179 0.0
C2323 C 0.92357 0.40356 0.9511 0.0
C2324 C 0.91015 0.38411 0.95117 0.0
H2325 H 0.7802 0.30171 0.95355 0.0
H2326 H 0.80427 0.33328 0.95387 0.0
H2327 H 0.93483 0.34364 0.94067 0.0
H2328 H 1.01701 0.42907 0.95203 0.0
H2329 H 0.99327 0.39727 0.95225 0.0
C2330 C 0.81847 0.42855 0.82084 0.0
C2331 C 0.84726 0.44261 0.82368 0.0
C2332 C 0.83244 0.41038 0.82062 0.0
C2333 C 0.9157 0.37955 0.83065 0.0
H2334 H 0.87101 0.3457 0.81222 0.0
C2335 C 0.981 0.30627 0.82572 0.0
C2336 C 0.94961 0.29206 0.82528 0.0
C2337 C 0.96778 0.32454 0.82563 0.0
C2338 C 0.88324 0.355 0.81745 0.0
H2339 H 0.91393 0.44869 0.82821 0.0
H2340 H 0.939 0.41672 0.82758 0.0
H2341 H 0.85325 0.37833 0.81109 0.0
H2342 H 0.87974 0.28576 0.82446 0.0
H2343 H 0.85639 0.31816 0.82406 0.0
H2344 H 0.94678 0.35615 0.83683 0.0
C2345 C 0.90517 0.41984 0.82572 0.0
C2346 C 0.87323 0.37367 0.81682 0.0
C2347 C 0.89098 0.43815 0.82601 0.0
C2348 C 0.90452 0.29648 0.82478 0.0
C2349 C 0.89126 0.31491 0.82453 0.0
C2350 C 0.9262 0.36092 0.83121 0.0
C2351 C 0.87577 0.40574 0.82314 0.0
C2352 C 0.88907 0.38614 0.82345 0.0
C2353 C 0.92292 0.32903 0.82499 0.0
C2354 C 0.90988 0.34852 0.82464 0.0
H2355 H 0.78446 0.43143 0.81901 0.0
H2356 H 0.80865 0.3999 0.81877 0.0
H2357 H 0.92773 0.38869 0.83597 0.0
H2358 H 1.01601 0.3033 0.82622 0.0
H2359 H 0.99275 0.3352 0.82592 0.0
C2360 C 0.06392 0.05554 0.57419 0.0
C2361 C 0.09462 0.04111 0.57501 0.0
C2362 C 0.07793 0.07369 0.574 0.0
C2363 C 0.16805 0.10339 0.56799 0.0
H2364 H 0.11325 0.13784 0.5849 0.0
C2365 C 0.23185 0.17683 0.57236 0.0
C2366 C 0.20173 0.19112 0.57412 0.0
C2367 C 0.21787 0.15867 0.57211 0.0
C2368 C 0.12828 0.12848 0.58002 0.0
H2369 H 0.1642 0.03438 0.57616 0.0
H2370 H 0.18903 0.06656 0.57561 0.0
H2371 H 0.09277 0.10543 0.58542 0.0
H2372 H 0.13301 0.1976 0.57679 0.0
H2373 H 0.10803 0.16561 0.57607 0.0
H2374 H 0.20261 0.12638 0.56238 0.0
C2375 C 0.15403 0.06355 0.57518 0.0
C2376 C 0.1169 0.10993 0.58039 0.0
C2377 C 0.13989 0.04523 0.57551 0.0
C2378 C 0.15695 0.18686 0.57544 0.0
C2379 C 0.14278 0.16856 0.57508 0.0
C2380 C 0.17901 0.12198 0.56753 0.0
C2381 C 0.12297 0.07787 0.57453 0.0
C2382 C 0.13682 0.09726 0.5744 0.0
C2383 C 0.17327 0.15426 0.57349 0.0
C2384 C 0.15946 0.13473 0.57358 0.0
H2385 H 0.02873 0.0529 0.57385 0.0
H2386 H 0.05347 0.08451 0.5734 0.0
H2387 H 0.18322 0.09386 0.56321 0.0
H2388 H 0.26674 0.17955 0.57141 0.0
H2389 H 0.24244 0.14804 0.57107 0.0
C2390 C 0.06376 0.17795 0.70265 0.0
C2391 C 0.09397 0.19237 0.70125 0.0
C2392 C 0.07797 0.15981 0.70279 0.0
C2393 C 0.17047 0.13025 0.70747 0.0
H2394 H 0.10963 0.09553 0.69163 0.0
C2395 C 0.23201 0.0565 0.70275 0.0
C2396 C 0.20106 0.04225 0.7017 0.0
C2397 C 0.21851 0.07474 0.70291 0.0
C2398 C 0.12644 0.10497 0.69621 0.0
H2399 H 0.163 0.1991 0.69909 0.0
H2400 H 0.1882 0.16698 0.69953 0.0
H2401 H 0.08875 0.1279 0.69135 0.0
H2402 H 0.13152 0.03592 0.7001 0.0
H2403 H 0.10745 0.06804 0.70067 0.0
H2404 H 0.20727 0.10736 0.71256 0.0
C2405 C 0.1534 0.16997 0.70045 0.0
C2406 C 0.11477 0.1235 0.69598 0.0
C2407 C 0.13903 0.18826 0.70018 0.0
C2408 C 0.15607 0.04664 0.7009 0.0
C2409 C 0.1424 0.06501 0.70118 0.0
C2410 C 0.18176 0.11167 0.7078 0.0
C2411 C 0.12275 0.15564 0.70163 0.0
C2412 C 0.13675 0.13626 0.70159 0.0
C2413 C 0.17361 0.07926 0.70215 0.0
C2414 C 0.16002 0.09883 0.70213 0.0
H2415 H 0.02874 0.18056 0.70347 0.0
H2416 H 0.05386 0.14899 0.70382 0.0
H2417 H 0.18733 0.13984 0.71196 0.0
H2418 H 0.26707 0.05365 0.70325 0.0
H2419 H 0.24355 0.08532 0.70344 0.0
C2420 C 0.88962 0.79589 0.44952 0.0
C2421 C 0.84516 0.79145 0.45113 0.0
C2422 C 0.90348 0.81423 0.44985 0.0
C2423 C 0.86792 0.86044 0.45799 0.0
H2424 H 0.95086 0.8778 0.43962 0.0
C2425 C 0.90438 0.93752 0.45076 0.0
C2426 C 0.94959 0.94181 0.45099 0.0
C2427 C 0.89074 0.91914 0.45085 0.0
C2428 C 0.92766 0.87307 0.44478 0.0
H2429 H 0.78039 0.80274 0.45435 0.0
H2430 H 0.80416 0.83434 0.45466 0.0
H2431 H 0.93078 0.84533 0.44 0.0
H2432 H 1.01594 0.93032 0.45131 0.0
H2433 H 0.99204 0.89852 0.45136 0.0
H2434 H 0.86424 0.88837 0.4626 0.0
C2435 C 0.82872 0.82381 0.4534 0.0
C2436 C 0.91651 0.85449 0.44507 0.0
C2437 C 0.81504 0.8056 0.45315 0.0
C2438 C 0.98079 0.92749 0.45121 0.0
C2439 C 0.96724 0.90926 0.45116 0.0
C2440 C 0.87865 0.87906 0.45762 0.0
C2441 C 0.87301 0.82839 0.45173 0.0
C2442 C 0.88651 0.84796 0.45168 0.0
C2443 C 0.92221 0.90492 0.45099 0.0
C2444 C 0.9087 0.88548 0.45103 0.0
H2445 H 0.91355 0.78527 0.44796 0.0
H2446 H 0.938 0.81732 0.44864 0.0
H2447 H 0.84527 0.85581 0.46327 0.0
H2448 H 0.87971 0.94831 0.45056 0.0
H2449 H 0.85575 0.91601 0.4507 0.0
C2450 C 0.90466 0.79442 0.32584 0.0
C2451 C 0.94787 0.78995 0.32314 0.0
C2452 C 0.89046 0.81273 0.32567 0.0
C2453 C 0.92075 0.85903 0.31664 0.0
H2454 H 0.8518 0.87624 0.3374 0.0
C2455 C 0.8913 0.93612 0.32508 0.0
C2456 C 0.84635 0.94052 0.32597 0.0
C2457 C 0.90455 0.91769 0.32471 0.0
C2458 C 0.8711 0.87156 0.33157 0.0
H2459 H 1.00959 0.80109 0.31786 0.0
H2460 H 0.98544 0.83264 0.31783 0.0
H2461 H 0.87044 0.8437 0.33622 0.0
H2462 H 0.78025 0.92926 0.32752 0.0
H2463 H 0.80351 0.89736 0.32703 0.0
H2464 H 0.92211 0.88709 0.31215 0.0
C2465 C 0.96204 0.82217 0.3199 0.0
C2466 C 0.88134 0.85293 0.33084 0.0
C2467 C 0.97601 0.80399 0.32 0.0
C2468 C 0.81513 0.9263 0.32672 0.0
C2469 C 0.82837 0.90803 0.32652 0.0
C2470 C 0.911 0.8777 0.31745 0.0
C2471 C 0.91934 0.82683 0.32284 0.0
C2472 C 0.90628 0.84645 0.32336 0.0
C2473 C 0.87306 0.90356 0.32545 0.0
C2474 C 0.88602 0.88407 0.32491 0.0
H2475 H 0.88221 0.78389 0.32827 0.0
H2476 H 0.85708 0.81586 0.32785 0.0
H2477 H 0.93941 0.85446 0.31071 0.0
H2478 H 0.91594 0.94686 0.32451 0.0
H2479 H 0.93929 0.91447 0.32391 0.0
C2480 C 0.56465 0.55533 0.57493 0.0
C2481 C 0.59582 0.54101 0.57515 0.0
C2482 C 0.57825 0.57356 0.57487 0.0
C2483 C 0.66663 0.60357 0.56807 0.0
H2484 H 0.61523 0.63775 0.58557 0.0
C2485 C 0.73035 0.67716 0.57197 0.0
C2486 C 0.70034 0.69135 0.57399 0.0
C2487 C 0.71667 0.65895 0.57184 0.0
C2488 C 0.62929 0.62846 0.58054 0.0
H2489 H 0.6657 0.53448 0.57548 0.0
H2490 H 0.68975 0.56677 0.57517 0.0
H2491 H 0.59517 0.60529 0.5862 0.0
H2492 H 0.6321 0.69758 0.57727 0.0
H2493 H 0.60762 0.66553 0.57678 0.0
H2494 H 0.69976 0.62667 0.56221 0.0
C2495 C 0.65474 0.56365 0.57509 0.0
C2496 C 0.61815 0.60989 0.58096 0.0
C2497 C 0.64106 0.54528 0.57529 0.0
C2498 C 0.65595 0.68693 0.5757 0.0
C2499 C 0.64208 0.66859 0.57548 0.0
C2500 C 0.67734 0.62218 0.56756 0.0
C2501 C 0.6233 0.57788 0.57494 0.0
C2502 C 0.63686 0.59731 0.57475 0.0
C2503 C 0.67247 0.6544 0.57362 0.0
C2504 C 0.659 0.63482 0.57383 0.0
H2505 H 0.5295 0.55252 0.5749 0.0
H2506 H 0.55347 0.58431 0.57467 0.0
H2507 H 0.68082 0.59413 0.56312 0.0
H2508 H 0.76495 0.68 0.57069 0.0
H2509 H 0.74118 0.64839 0.57058 0.0
C2510 C 0.65291 0.54652 0.70079 0.0
C2511 C 0.69797 0.54212 0.70019 0.0
C2512 C 0.63962 0.56496 0.70098 0.0
C2513 C 0.67403 0.61089 0.69402 0.0
H2514 H 0.60271 0.62856 0.71433 0.0
C2515 C 0.63978 0.6882 0.69915 0.0
C2516 C 0.59626 0.69274 0.7016 0.0
C2517 C 0.65385 0.66988 0.69944 0.0
C2518 C 0.62223 0.62382 0.70855 0.0
H2519 H 0.76427 0.55336 0.699 0.0
H2520 H 0.74095 0.58526 0.6992 0.0
H2521 H 0.62024 0.5959 0.71323 0.0
H2522 H 0.53372 0.68168 0.70648 0.0
H2523 H 0.55768 0.65012 0.70673 0.0
H2524 H 0.67534 0.63862 0.68918 0.0
C2525 C 0.71603 0.5746 0.69961 0.0
C2526 C 0.6321 0.60514 0.70793 0.0
C2527 C 0.72929 0.55633 0.69958 0.0
C2528 C 0.56757 0.67875 0.70456 0.0
C2529 C 0.58142 0.66056 0.70478 0.0
C2530 C 0.66367 0.62954 0.69456 0.0
C2531 C 0.67121 0.57908 0.70036 0.0
C2532 C 0.65817 0.59857 0.70068 0.0
C2533 C 0.62452 0.65584 0.70214 0.0
C2534 C 0.63764 0.63622 0.70183 0.0
H2535 H 0.62819 0.5358 0.70124 0.0
H2536 H 0.60478 0.5682 0.70154 0.0
H2537 H 0.69417 0.60605 0.68835 0.0
H2538 H 0.66265 0.6987 0.69685 0.0
H2539 H 0.68752 0.6667 0.69748 0.0
C2540 C 0.40687 0.43748 0.4506 0.0
C2541 C 0.45178 0.44166 0.45178 0.0
C2542 C 0.39252 0.41921 0.45104 0.0
C2543 C 0.42885 0.37262 0.45859 0.0
H2544 H 0.34129 0.35608 0.44097 0.0
C2545 C 0.38921 0.29589 0.45068 0.0
C2546 C 0.34398 0.29175 0.4513 0.0
C2547 C 0.40333 0.31421 0.451 0.0
C2548 C 0.36579 0.36058 0.44592 0.0
H2549 H 0.51685 0.42998 0.45432 0.0
H2550 H 0.49222 0.39853 0.4548 0.0
H2551 H 0.36193 0.38847 0.44139 0.0
H2552 H 0.27817 0.30351 0.4527 0.0
H2553 H 0.30288 0.33513 0.45313 0.0
H2554 H 0.43327 0.34451 0.46292 0.0
C2555 C 0.4677 0.4092 0.45382 0.0
C2556 C 0.37726 0.37912 0.44623 0.0
C2557 C 0.48186 0.42733 0.45347 0.0
C2558 C 0.31332 0.30616 0.45225 0.0
C2559 C 0.32731 0.32432 0.45243 0.0
C2560 C 0.41779 0.35403 0.45817 0.0
C2561 C 0.42296 0.40487 0.45258 0.0
C2562 C 0.40894 0.38536 0.45257 0.0
C2563 C 0.37229 0.32852 0.45176 0.0
C2564 C 0.38611 0.34791 0.45186 0.0
H2565 H 0.38296 0.44826 0.4493 0.0
H2566 H 0.35767 0.41632 0.45017 0.0
H2567 H 0.45283 0.37701 0.46366 0.0
H2568 H 0.41349 0.28505 0.44993 0.0
H2569 H 0.43829 0.31724 0.45047 0.0
C2570 C 0.47912 0.30434 0.321 0.0
C2571 C 0.45028 0.29018 0.32369 0.0
C2572 C 0.4649 0.32249 0.32077 0.0
C2573 C 0.38021 0.35299 0.33052 0.0
H2574 H 0.42587 0.38714 0.31232 0.0
C2575 C 0.31396 0.4261 0.32558 0.0
C2576 C 0.34512 0.44042 0.32531 0.0
C2577 C 0.32751 0.40787 0.32543 0.0
C2578 C 0.41334 0.37775 0.31749 0.0
H2579 H 0.3833 0.28388 0.32794 0.0
H2580 H 0.35783 0.31579 0.32729 0.0
H2581 H 0.44442 0.35458 0.31121 0.0
H2582 H 0.41494 0.44693 0.32472 0.0
H2583 H 0.43887 0.41462 0.32423 0.0
H2584 H 0.3481 0.37622 0.3366 0.0
C2585 C 0.39187 0.31278 0.32556 0.0
C2586 C 0.42381 0.35912 0.31686 0.0
C2587 C 0.4063 0.29451 0.32586 0.0
C2588 C 0.39031 0.43614 0.32491 0.0
C2589 C 0.40391 0.41775 0.32461 0.0
C2590 C 0.36927 0.37157 0.33106 0.0
C2591 C 0.42128 0.32699 0.32312 0.0
C2592 C 0.40762 0.34654 0.32341 0.0
C2593 C 0.37248 0.40353 0.32492 0.0
C2594 C 0.38591 0.38408 0.32457 0.0
H2595 H 0.51333 0.30157 0.3193 0.0
H2596 H 0.4887 0.33305 0.31904 0.0
H2597 H 0.36789 0.34376 0.33577 0.0
H2598 H 0.27886 0.42895 0.32598 0.0
H2599 H 0.30271 0.39713 0.3256 0.0
C2600 C 0.56457 0.05567 0.07305 0.0
C2601 C 0.59454 0.04128 0.07475 0.0
C2602 C 0.57874 0.07381 0.07297 0.0
C2603 C 0.6719 0.10342 0.06903 0.0
H2604 H 0.60794 0.13816 0.08432 0.0
C2605 C 0.73205 0.17724 0.07406 0.0
C2606 C 0.70082 0.19147 0.07476 0.0
C2607 C 0.71874 0.15899 0.07389 0.0
C2608 C 0.62566 0.12871 0.0799 0.0
H2609 H 0.66315 0.03461 0.07749 0.0
H2610 H 0.6883 0.06674 0.07715 0.0
H2611 H 0.58718 0.10577 0.08445 0.0
H2612 H 0.63103 0.19777 0.07581 0.0
H2613 H 0.6073 0.1656 0.07523 0.0
H2614 H 0.70954 0.12631 0.06423 0.0
C2615 C 0.65372 0.06372 0.07595 0.0
C2616 C 0.61404 0.11018 0.08004 0.0
C2617 C 0.63937 0.04542 0.07616 0.0
C2618 C 0.65577 0.18706 0.07526 0.0
C2619 C 0.6423 0.16866 0.07498 0.0
C2620 C 0.68317 0.122 0.06878 0.0
C2621 C 0.62324 0.07802 0.07449 0.0
C2622 C 0.63713 0.09741 0.07462 0.0
C2623 C 0.67376 0.15443 0.07431 0.0
C2624 C 0.66031 0.13485 0.07425 0.0
H2625 H 0.52975 0.05303 0.07195 0.0
H2626 H 0.5548 0.08461 0.07171 0.0
H2627 H 0.68966 0.09382 0.06469 0.0
H2628 H 0.76715 0.18014 0.07381 0.0
H2629 H 0.74393 0.14843 0.07362 0.0
C2630 C 0.5657 0.17676 0.19958 0.0
C2631 C 0.59683 0.19103 0.20026 0.0
C2632 C 0.57911 0.15851 0.19973 0.0
C2633 C 0.66242 0.1282 0.20853 0.0
H2634 H 0.62121 0.09439 0.18973 0.0
C2635 C 0.72772 0.05459 0.20568 0.0
C2636 C 0.69951 0.04054 0.20258 0.0
C2637 C 0.71367 0.07276 0.20583 0.0
C2638 C 0.6323 0.10357 0.19513 0.0
H2639 H 0.66645 0.19747 0.20157 0.0
H2640 H 0.6901 0.1651 0.20208 0.0
H2641 H 0.60229 0.12692 0.18869 0.0
H2642 H 0.63367 0.03448 0.19755 0.0
H2643 H 0.60842 0.06643 0.19805 0.0
H2644 H 0.6913 0.1049 0.21515 0.0
C2645 C 0.6553 0.16828 0.20137 0.0
C2646 C 0.6219 0.12219 0.19446 0.0
C2647 C 0.64187 0.1867 0.20105 0.0
C2648 C 0.65618 0.04501 0.19995 0.0
C2649 C 0.64191 0.06331 0.20017 0.0
C2650 C 0.67233 0.10953 0.20927 0.0
C2651 C 0.62389 0.1541 0.20068 0.0
C2652 C 0.63704 0.13464 0.20114 0.0
C2653 C 0.67083 0.07741 0.20298 0.0
C2654 C 0.65763 0.09701 0.20254 0.0
H2655 H 0.53075 0.17968 0.19886 0.0
H2656 H 0.55431 0.14781 0.19926 0.0
H2657 H 0.67372 0.13753 0.21384 0.0
H2658 H 0.7614 0.0517 0.20776 0.0
H2659 H 0.73711 0.08323 0.20788 0.0
C2660 C 0.38893 0.79445 0.95061 0.0
C2661 C 0.34365 0.79044 0.95111 0.0
C2662 C 0.40345 0.81269 0.95122 0.0
C2663 C 0.36525 0.85933 0.95823 0.0
H2664 H 0.45944 0.87582 0.94216 0.0
C2665 C 0.40732 0.93597 0.95077 0.0
C2666 C 0.45221 0.94025 0.95196 0.0
C2667 C 0.39334 0.91763 0.95104 0.0
C2668 C 0.43312 0.87133 0.94669 0.0
H2669 H 0.27805 0.80237 0.95248 0.0
H2670 H 0.30306 0.83375 0.95325 0.0
H2671 H 0.43839 0.84346 0.94219 0.0
H2672 H 0.51753 0.92869 0.95442 0.0
H2673 H 0.49308 0.89703 0.95477 0.0
H2674 H 0.35941 0.88741 0.96251 0.0
C2675 C 0.32765 0.82299 0.95271 0.0
C2676 C 0.42136 0.85281 0.94677 0.0
C2677 C 0.3133 0.8049 0.95221 0.0
C2678 C 0.48263 0.92594 0.9535 0.0
C2679 C 0.46881 0.90776 0.95364 0.0
C2680 C 0.37662 0.87789 0.95804 0.0
C2681 C 0.37283 0.82714 0.95224 0.0
C2682 C 0.3872 0.8466 0.95253 0.0
C2683 C 0.42422 0.90343 0.95235 0.0
C2684 C 0.41065 0.884 0.95228 0.0
H2685 H 0.41302 0.78357 0.94978 0.0
H2686 H 0.43858 0.81545 0.95092 0.0
H2687 H 0.33931 0.85494 0.96287 0.0
H2688 H 0.3832 0.94671 0.94956 0.0
H2689 H 0.35868 0.91451 0.95002 0.0
C2690 C 0.48219 0.80637 0.82374 0.0
C2691 C 0.45112 0.79206 0.82434 0.0
C2692 C 0.46861 0.82459 0.82355 0.0
C2693 C 0.37472 0.85462 0.82931 0.0
H2694 H 0.43946 0.88977 0.81438 0.0
C2695 C 0.31398 0.92785 0.82274 0.0
C2696 C 0.34394 0.94216 0.8246 0.0
C2697 C 0.3281 0.90969 0.82253 0.0
C2698 C 0.42147 0.88009 0.81864 0.0
H2699 H 0.38136 0.7856 0.82517 0.0
H2700 H 0.35719 0.81771 0.82453 0.0
H2701 H 0.4596 0.85731 0.81388 0.0
H2702 H 0.41249 0.94867 0.82749 0.0
H2703 H 0.43752 0.91654 0.82694 0.0
H2704 H 0.33581 0.87746 0.83382 0.0
C2705 C 0.39225 0.81474 0.82439 0.0
C2706 C 0.43289 0.86153 0.81837 0.0
C2707 C 0.40597 0.79637 0.82471 0.0
C2708 C 0.38871 0.93793 0.82604 0.0
C2709 C 0.403 0.91963 0.82571 0.0
C2710 C 0.36296 0.87314 0.82947 0.0
C2711 C 0.42354 0.82904 0.82383 0.0
C2712 C 0.40981 0.84859 0.82375 0.0
C2713 C 0.37252 0.90541 0.8241 0.0
C2714 C 0.38632 0.886 0.82416 0.0
H2715 H 0.51734 0.80355 0.8236 0.0
H2716 H 0.49366 0.83521 0.82336 0.0
H2717 H 0.35681 0.8451 0.83366 0.0
H2718 H 0.27921 0.93055 0.8216 0.0
H2719 H 0.30417 0.89896 0.82116 0.0
C2720 C 0.70837 0.48017 0.0704 0.0
C2721 C 0.73207 0.49086 0.07678 0.0
C2722 C 0.66224 0.47892 0.07087 0.0
C2723 C 0.5667 0.48659 0.08652 0.0
H2724 H 0.49975 0.48805 0.06377 0.0
C2725 C 0.37641 0.49456 0.08623 0.0
C2726 C 0.35246 0.48388 0.07988 0.0
C2727 C 0.42257 0.49554 0.08578 0.0
C2728 C 0.5179 0.48742 0.07019 0.0
H2729 H 0.72549 0.50862 0.08868 0.0
H2730 H 0.64522 0.50647 0.08951 0.0
H2731 H 0.58022 0.48901 0.06326 0.0
H2732 H 0.35869 0.46583 0.06807 0.0
H2733 H 0.43904 0.46756 0.06728 0.0
H2734 H 0.50436 0.48504 0.09344 0.0
C2735 C 0.66232 0.4988 0.08421 0.0
C2736 C 0.56414 0.48795 0.0699 0.0
C2737 C 0.70845 0.50002 0.08374 0.0
C2738 C 0.37591 0.47443 0.07299 0.0
C2739 C 0.42208 0.4754 0.07254 0.0
C2740 C 0.52046 0.48607 0.08681 0.0
C2741 C 0.63853 0.48835 0.07774 0.0
C2742 C 0.58921 0.48755 0.07806 0.0
C2743 C 0.44609 0.48587 0.07897 0.0
C2744 C 0.49541 0.4865 0.07865 0.0
H2745 H 0.7255 0.4727 0.06503 0.0
H2746 H 0.64517 0.47046 0.06588 0.0
H2747 H 0.58484 0.48597 0.09293 0.0
H2748 H 0.35944 0.50225 0.09154 0.0
H2749 H 0.43984 0.50401 0.09074 0.0
C2750 C 0.58102 0.73569 0.08247 0.0
C2751 C 0.55811 0.74381 0.07508 0.0
C2752 C 0.62716 0.73665 0.08298 0.0
C2753 C 0.72434 0.7623 0.0742 0.0
H2754 H 0.78865 0.71853 0.08147 0.0
C2755 C 0.91496 0.75772 0.07159 0.0
C2756 C 0.93754 0.74922 0.07891 0.0
C2757 C 0.86881 0.75687 0.07099 0.0
C2758 C 0.77125 0.73095 0.07952 0.0
H2759 H 0.56596 0.75979 0.06259 0.0
H2760 H 0.64642 0.7613 0.06344 0.0
H2761 H 0.70817 0.7179 0.08088 0.0
H2762 H 0.92901 0.73272 0.09122 0.0
H2763 H 0.84866 0.73148 0.09026 0.0
H2764 H 0.78741 0.77537 0.07286 0.0
C2765 C 0.62868 0.75425 0.06886 0.0
C2766 C 0.72502 0.73059 0.07919 0.0
C2767 C 0.58253 0.75323 0.06833 0.0
C2768 C 0.91275 0.73958 0.08553 0.0
C2769 C 0.86663 0.73871 0.08493 0.0
C2770 C 0.77058 0.76267 0.07454 0.0
C2771 C 0.65164 0.7458 0.07614 0.0
C2772 C 0.70093 0.74626 0.07653 0.0
C2773 C 0.84398 0.74747 0.07769 0.0
C2774 C 0.79468 0.747 0.07721 0.0
H2775 H 0.56338 0.72816 0.08774 0.0
H2776 H 0.64367 0.73018 0.08875 0.0
H2777 H 0.70688 0.7747 0.07224 0.0
H2778 H 0.93286 0.76543 0.06642 0.0
H2779 H 0.85259 0.76358 0.06526 0.0
C2780 C 0.71491 0.735 0.19242 0.0
C2781 C 0.73809 0.74356 0.19964 0.0
C2782 C 0.66876 0.73593 0.19197 0.0
C2783 C 0.57195 0.76216 0.20047 0.0
H2784 H 0.5074 0.71798 0.194 0.0
C2785 C 0.38135 0.7579 0.20324 0.0
C2786 C 0.35871 0.74896 0.19606 0.0
C2787 C 0.42749 0.75705 0.20384 0.0
C2788 C 0.52487 0.7305 0.19572 0.0
H2789 H 0.73074 0.76027 0.21189 0.0
H2790 H 0.65022 0.76177 0.21115 0.0
H2791 H 0.58789 0.71733 0.19453 0.0
H2792 H 0.36708 0.73167 0.18403 0.0
H2793 H 0.44744 0.73041 0.18499 0.0
H2794 H 0.50893 0.77536 0.20162 0.0
C2795 C 0.66778 0.75438 0.20582 0.0
C2796 C 0.5711 0.73013 0.19602 0.0
C2797 C 0.71394 0.75338 0.20629 0.0
C2798 C 0.3834 0.73888 0.1896 0.0
C2799 C 0.42952 0.738 0.19021 0.0
C2800 C 0.5257 0.76254 0.20015 0.0
C2801 C 0.64455 0.74551 0.1987 0.0
C2802 C 0.59527 0.74596 0.19838 0.0
C2803 C 0.45224 0.7472 0.19729 0.0
C2804 C 0.50152 0.74672 0.19776 0.0
H2805 H 0.73235 0.72715 0.18723 0.0
H2806 H 0.65203 0.72913 0.18633 0.0
H2807 H 0.58948 0.77467 0.20219 0.0
H2808 H 0.3635 0.76595 0.20828 0.0
H2809 H 0.44377 0.76411 0.20945 0.0
C2810 C 0.92139 0.49233 0.20254 0.0
C2811 C 0.94189 0.48281 0.19528 0.0
C2812 C 0.87525 0.49347 0.20308 0.0
C2813 C 0.77287 0.47077 0.19477 0.0
H2814 H 0.71686 0.51622 0.20237 0.0
C2815 C 0.5833 0.48195 0.19261 0.0
C2816 C 0.56296 0.49152 0.19988 0.0
C2817 C 0.62944 0.48071 0.19206 0.0
C2818 C 0.73194 0.50335 0.20033 0.0
H2819 H 0.92949 0.46686 0.18293 0.0
H2820 H 0.84935 0.46921 0.18375 0.0
H2821 H 0.79716 0.51456 0.2014 0.0
H2822 H 0.57564 0.50743 0.21224 0.0
H2823 H 0.65572 0.5049 0.21139 0.0
H2824 H 0.70762 0.45957 0.1937 0.0
C2825 C 0.8689 0.47565 0.1891 0.0
C2826 C 0.77807 0.5024 0.19978 0.0
C2827 C 0.91498 0.47452 0.18856 0.0
C2828 C 0.59001 0.49973 0.2066 0.0
C2829 C 0.63606 0.4985 0.20605 0.0
C2830 C 0.72673 0.47173 0.19532 0.0
C2831 C 0.84837 0.48509 0.19638 0.0
C2832 C 0.79918 0.4861 0.19699 0.0
C2833 C 0.65645 0.48905 0.19876 0.0
C2834 C 0.70563 0.48802 0.19812 0.0
H2835 H 0.94101 0.49901 0.2078 0.0
H2836 H 0.86063 0.5007 0.20884 0.0
H2837 H 0.78796 0.4579 0.19274 0.0
H2838 H 0.56357 0.47534 0.18735 0.0
H2839 H 0.64395 0.47346 0.1863 0.0
C2840 C 0.66657 0.50713 0.95347 0.0
C2841 C 0.68923 0.49803 0.94635 0.0
C2842 C 0.62043 0.50628 0.95407 0.0
C2843 C 0.5231 0.47955 0.94609 0.0
H2844 H 0.45843 0.52386 0.95231 0.0
C2845 C 0.33296 0.48389 0.94285 0.0
C2846 C 0.30986 0.49265 0.95002 0.0
C2847 C 0.3791 0.48483 0.94237 0.0
C2848 C 0.47597 0.51131 0.95066 0.0
H2849 H 0.6809 0.48048 0.93441 0.0
H2850 H 0.60054 0.47923 0.93537 0.0
H2851 H 0.53897 0.52454 0.95173 0.0
H2852 H 0.31735 0.50972 0.96215 0.0
H2853 H 0.39784 0.51121 0.96136 0.0
H2854 H 0.4601 0.46633 0.94499 0.0
C2855 C 0.61844 0.48694 0.94054 0.0
C2856 C 0.52221 0.51169 0.95034 0.0
C2857 C 0.66456 0.48781 0.93993 0.0
C2858 C 0.33408 0.50267 0.95659 0.0
C2859 C 0.38024 0.50366 0.95608 0.0
C2860 C 0.47687 0.47918 0.9464 0.0
C2861 C 0.5957 0.49628 0.94757 0.0
C2862 C 0.54642 0.49581 0.94804 0.0
C2863 C 0.4034 0.4946 0.94902 0.0
C2864 C 0.45267 0.49506 0.94867 0.0
H2865 H 0.6844 0.51529 0.95847 0.0
H2866 H 0.60413 0.51346 0.95964 0.0
H2867 H 0.54059 0.46699 0.94444 0.0
H2868 H 0.31547 0.47589 0.93773 0.0
H2869 H 0.39577 0.47787 0.93677 0.0
C2870 C 0.46422 0.22938 0.94318 0.0
C2871 C 0.48491 0.23844 0.95056 0.0
C2872 C 0.41809 0.22816 0.94271 0.0
C2873 C 0.31634 0.25045 0.95148 0.0
H2874 H 0.25939 0.20579 0.94307 0.0
C2875 C 0.12661 0.24021 0.9532 0.0
C2876 C 0.10623 0.23141 0.9457 0.0
C2877 C 0.17274 0.24103 0.95387 0.0
C2878 C 0.27476 0.21845 0.94534 0.0
H2879 H 0.47292 0.25339 0.96324 0.0
H2880 H 0.3928 0.2509 0.96253 0.0
H2881 H 0.33976 0.20705 0.94411 0.0
H2882 H 0.11875 0.21636 0.93308 0.0
H2883 H 0.19889 0.21816 0.93413 0.0
H2884 H 0.25137 0.26187 0.95269 0.0
C2885 C 0.41219 0.24489 0.95704 0.0
C2886 C 0.32089 0.21916 0.94593 0.0
C2887 C 0.45825 0.2461 0.95751 0.0
C2888 C 0.1332 0.22348 0.93888 0.0
C2889 C 0.17926 0.22429 0.93955 0.0
C2890 C 0.27022 0.24974 0.95088 0.0
C2891 C 0.39146 0.23602 0.94961 0.0
C2892 C 0.3423 0.23518 0.94901 0.0
C2893 C 0.19967 0.23302 0.94707 0.0
C2894 C 0.24881 0.23374 0.94779 0.0
H2895 H 0.48369 0.22318 0.93775 0.0
H2896 H 0.40328 0.22136 0.93684 0.0
H2897 H 0.3317 0.26312 0.95373 0.0
H2898 H 0.10692 0.24658 0.95854 0.0
H2899 H 0.1873 0.24772 0.9598 0.0
C2900 C 0.66302 0.24408 0.83586 0.0
C2901 C 0.68774 0.23414 0.82934 0.0
C2902 C 0.61688 0.24483 0.83529 0.0
C2903 C 0.52273 0.23773 0.81931 0.0
H2904 H 0.45496 0.23322 0.84184 0.0
C2905 C 0.33244 0.22963 0.81896 0.0
C2906 C 0.3083 0.23941 0.82563 0.0
C2907 C 0.37858 0.22851 0.81947 0.0
C2908 C 0.47332 0.2347 0.83549 0.0
H2909 H 0.68294 0.21723 0.81709 0.0
H2910 H 0.60257 0.2186 0.81609 0.0
H2911 H 0.53542 0.23274 0.84249 0.0
H2912 H 0.31406 0.2557 0.83807 0.0
H2913 H 0.39432 0.2538 0.83894 0.0
H2914 H 0.46063 0.23977 0.81232 0.0
C2915 C 0.61893 0.22601 0.82158 0.0
C2916 C 0.51954 0.23444 0.83586 0.0
C2917 C 0.6651 0.22525 0.82215 0.0
C2918 C 0.33146 0.2478 0.83289 0.0
C2919 C 0.37759 0.24672 0.83339 0.0
C2920 C 0.47649 0.23803 0.81894 0.0
C2921 C 0.59417 0.23567 0.8282 0.0
C2922 C 0.54488 0.23599 0.82778 0.0
C2923 C 0.40183 0.23717 0.82665 0.0
C2924 C 0.45113 0.23654 0.82703 0.0
H2925 H 0.67936 0.25133 0.8414 0.0
H2926 H 0.59898 0.25269 0.84041 0.0
H2927 H 0.54113 0.2392 0.81296 0.0
H2928 H 0.31564 0.22279 0.81334 0.0
H2929 H 0.39601 0.22076 0.81425 0.0
C2930 C 0.12868 0.50946 0.82299 0.0
C2931 C 0.1052 0.49994 0.82985 0.0
C2932 C 0.17486 0.5085 0.82255 0.0
C2933 C 0.27319 0.4977 0.83682 0.0
H2934 H 0.33304 0.49498 0.81327 0.0
C2935 C 0.46121 0.48377 0.83374 0.0
C2936 C 0.48482 0.493 0.8268 0.0
C2937 C 0.41508 0.48499 0.83421 0.0
C2938 C 0.31693 0.49598 0.81991 0.0
H2939 H 0.11215 0.48148 0.84148 0.0
H2940 H 0.19255 0.47973 0.8407 0.0
H2941 H 0.25257 0.49594 0.81377 0.0
H2942 H 0.47825 0.51128 0.81508 0.0
H2943 H 0.39793 0.51352 0.81594 0.0
H2944 H 0.33755 0.49774 0.84295 0.0
C2945 C 0.1753 0.48824 0.83575 0.0
C2946 C 0.27069 0.4965 0.82019 0.0
C2947 C 0.12913 0.48921 0.83619 0.0
C2948 C 0.46112 0.50376 0.82044 0.0
C2949 C 0.415 0.50501 0.82092 0.0
C2950 C 0.31943 0.49718 0.83653 0.0
C2951 C 0.19884 0.49798 0.82897 0.0
C2952 C 0.24816 0.49734 0.82865 0.0
C2953 C 0.39129 0.49551 0.82776 0.0
C2954 C 0.34196 0.4963 0.82807 0.0
H2955 H 0.11148 0.51811 0.81808 0.0
H2956 H 0.19183 0.51639 0.81731 0.0
H2957 H 0.25706 0.49866 0.84345 0.0
H2958 H 0.47825 0.47512 0.83866 0.0
H2959 H 0.39799 0.47728 0.83949 0.0
C2960 C 0.37554 0.98862 0.57211 0.0
C2961 C 0.35418 0.98334 0.58029 0.0
C2962 C 0.4217 0.98957 0.57167 0.0
C2963 C 0.52274 0.9723 0.58325 0.0
H2964 H 0.58019 0.01184 0.56996 0.0
C2965 C 0.71167 0.98489 0.58496 0.0
C2966 C 0.73316 0.99018 0.57679 0.0
C2967 C 0.66553 0.98368 0.58532 0.0
C2968 C 0.56469 0.00057 0.57361 0.0
H2969 H 0.365 0.97485 0.59443 0.0
H2970 H 0.44523 0.97691 0.59373 0.0
H2971 H 0.49977 0.01081 0.57076 0.0
H2972 H 0.72266 -0.00168 0.56259 0.0
H2973 H 0.64245 -0.00417 0.56317 0.0
H2974 H 0.58769 0.96209 0.58612 0.0
C2975 C 0.42633 0.98013 0.58761 0.0
C2976 C 0.51853 -1e-05 0.57407 0.0
C2977 C 0.38021 0.97919 0.58804 0.0
C2978 C 0.70733 -0.006 0.56897 0.0
C2979 C 0.66124 -0.00719 0.56933 0.0
C2980 C 0.56891 0.97289 0.5828 0.0
C2981 C 0.44772 0.98523 0.5794 0.0
C2982 C 0.49692 0.98585 0.5789 0.0
C2983 C 0.6397 0.98776 0.57753 0.0
C2984 C 0.5905 0.98704 0.57797 0.0
H2985 H 0.35658 -0.00794 0.56602 0.0
H2986 H 0.43703 -0.00661 0.56521 0.0
H2987 H 0.50725 0.96104 0.5869 0.0
H2988 H 0.73051 0.9817 0.59109 0.0
H2989 H 0.65006 0.97989 0.59176 0.0
C2990 C 0.58636 0.23299 0.58371 0.0
C2991 C 0.56306 0.24182 0.57659 0.0
C2992 C 0.63251 0.23407 0.5842 0.0
C2993 C 0.72885 0.26102 0.57595 0.0
H2994 H 0.7945 0.21687 0.58203 0.0
C2995 C 0.91933 0.25739 0.57271 0.0
C2996 C 0.94261 0.24832 0.57976 0.0
C2997 C 0.87317 0.25643 0.57224 0.0
C2998 C 0.77672 0.22939 0.58042 0.0
H2999 H 0.57022 0.25916 0.56454 0.0
H3000 H 0.65064 0.26088 0.56533 0.0
H3001 H 0.714 0.21596 0.58157 0.0
H3002 H 0.93531 0.23071 0.59171 0.0
H3003 H 0.8549 0.22925 0.59097 0.0
H3004 H 0.79157 0.27445 0.57481 0.0
C3005 C 0.63322 0.25318 0.57057 0.0
C3006 C 0.73048 0.22887 0.58017 0.0
C3007 C 0.58708 0.25205 0.57007 0.0
C3008 C 0.9185 0.23801 0.58624 0.0
C3009 C 0.87235 0.23702 0.58576 0.0
C3010 C 0.7751 0.26154 0.57621 0.0
C3011 C 0.6566 0.24405 0.57759 0.0
C3012 C 0.7059 0.24468 0.57793 0.0
C3013 C 0.849 0.24634 0.5788 0.0
C3014 C 0.79968 0.24573 0.57845 0.0
H3015 H 0.56905 0.22484 0.5888 0.0
H3016 H 0.64932 0.22706 0.58976 0.0
H3017 H 0.71105 0.27352 0.57433 0.0
H3018 H 0.9367 0.26561 0.56766 0.0
H3019 H 0.8564 0.26359 0.56672 0.0
C3020 C 0.70829 0.25335 0.70543 0.0
C3021 C 0.73227 0.24306 0.69893 0.0
C3022 C 0.66216 0.25452 0.70493 0.0
C3023 C 0.56479 0.23023 0.69539 0.0
H3024 H 0.50385 0.2759 0.70066 0.0
C3025 C 0.37675 0.23943 0.68933 0.0
C3026 C 0.35268 0.24979 0.69579 0.0
C3027 C 0.42291 0.23843 0.6898 0.0
C3028 C 0.52027 0.26297 0.69928 0.0
H3029 H 0.72619 0.226 0.68676 0.0
H3030 H 0.64592 0.22829 0.68579 0.0
H3031 H 0.58438 0.27491 0.70113 0.0
H3032 H 0.3587 0.26721 0.70784 0.0
H3033 H 0.43899 0.26517 0.70877 0.0
H3034 H 0.50073 0.21827 0.69356 0.0
C3035 C 0.66278 0.23532 0.69134 0.0
C3036 C 0.56653 0.26241 0.69954 0.0
C3037 C 0.70892 0.2342 0.69183 0.0
C3038 C 0.37602 0.25893 0.70281 0.0
C3039 C 0.42219 0.25796 0.70327 0.0
C3040 C 0.51855 0.23078 0.69514 0.0
C3041 C 0.63873 0.24537 0.69793 0.0
C3042 C 0.58942 0.24604 0.69759 0.0
C3043 C 0.44631 0.2478 0.69674 0.0
C3044 C 0.49563 0.24716 0.69708 0.0
H3045 H 0.7252 0.26048 0.71094 0.0
H3046 H 0.64477 0.26227 0.71016 0.0
H3047 H 0.58123 0.2173 0.69401 0.0
H3048 H 0.35989 0.23207 0.68389 0.0
H3049 H 0.44032 0.2306 0.68461 0.0
C3050 C 0.91542 -0.00428 0.69083 0.0
C3051 C 0.93979 0.98481 0.69701 0.0
C3052 C 0.86929 -0.0034 0.69139 0.0
C3053 C 0.77261 0.97098 0.70037 0.0
H3054 H 0.71095 0.01695 0.69621 0.0
C3055 C 0.58441 0.97957 0.70664 0.0
C3056 C 0.56044 0.99032 0.70032 0.0
C3057 C 0.63057 0.97857 0.70617 0.0
C3058 C 0.7276 0.00395 0.69728 0.0
H3059 H 0.93441 0.9663 0.70866 0.0
H3060 H 0.85412 0.96812 0.70976 0.0
H3061 H 0.79146 0.01624 0.69574 0.0
H3062 H 0.56648 0.0084 0.68852 0.0
H3063 H 0.64679 0.00643 0.6876 0.0
H3064 H 0.70869 0.95871 0.70193 0.0
C3065 C 0.87067 0.97586 0.7044 0.0
C3066 C 0.77383 0.00354 0.69702 0.0
C3067 C 0.91682 0.97501 0.70385 0.0
C3068 C 0.58378 -0.00017 0.69344 0.0
C3069 C 0.62993 -0.00111 0.69298 0.0
C3070 C 0.72636 0.97139 0.70064 0.0
C3071 C 0.84625 0.98656 0.69814 0.0
C3072 C 0.79697 0.98705 0.69854 0.0
C3073 C 0.65397 0.98837 0.69939 0.0
C3074 C 0.70324 0.98788 0.69908 0.0
H3075 H 0.93202 0.00359 0.68553 0.0
H3076 H 0.85162 0.00487 0.6864 0.0
H3077 H 0.78924 0.95797 0.70143 0.0
H3078 H 0.56749 0.97194 0.71198 0.0
H3079 H 0.64799 0.97044 0.71125 0.0
C3080 C 0.66592 0.00743 0.45412 0.0
C3081 C 0.68833 -0.00048 0.44662 0.0
C3082 C 0.61977 0.00656 0.45473 0.0
C3083 C 0.5219 0.98145 0.44573 0.0
H3084 H 0.45786 0.02457 0.45399 0.0
C3085 C 0.3316 0.98654 0.44304 0.0
C3086 C 0.30887 -0.00597 0.4506 0.0
C3087 C 0.37773 0.98752 0.4425 0.0
C3088 C 0.47522 0.01234 0.45175 0.0
H3089 H 0.67948 0.98403 0.434 0.0
H3090 H 0.59915 0.98278 0.43498 0.0
H3091 H 0.53838 0.02523 0.45333 0.0
H3092 H 0.31705 0.00894 0.46341 0.0
H3093 H 0.39749 0.01049 0.46253 0.0
H3094 H 0.45873 0.96857 0.44414 0.0
C3095 C 0.61724 0.98956 0.44044 0.0
C3096 C 0.52147 0.0127 0.45139 0.0
C3097 C 0.66336 0.99044 0.43983 0.0
C3098 C 0.33347 0.00287 0.45753 0.0
C3099 C 0.37961 0.00391 0.45698 0.0
C3100 C 0.47567 0.98109 0.44609 0.0
C3101 C 0.59476 -0.00227 0.44787 0.0
C3102 C 0.54546 -0.00274 0.44837 0.0
C3103 C 0.4024 -0.00392 0.4495 0.0
C3104 C 0.45169 -0.00346 0.44909 0.0
H3105 H 0.68395 0.01469 0.45943 0.0
H3106 H 0.6037 0.01281 0.46061 0.0
H3107 H 0.53921 0.9692 0.44351 0.0
H3108 H 0.31383 0.97947 0.43762 0.0
H3109 H 0.3941 0.98155 0.43659 0.0
C3110 C 0.45771 0.74703 0.45708 0.0
C3111 C 0.48459 0.73966 0.45009 0.0
C3112 C 0.41167 0.74576 0.45656 0.0
C3113 C 0.3206 0.73924 0.43991 0.0
H3114 H 0.25116 0.72915 0.46177 0.0
C3115 C 0.13269 0.72528 0.43831 0.0
C3116 C 0.10593 0.73289 0.44525 0.0
C3117 C 0.17877 0.72609 0.43892 0.0
C3118 C 0.27001 0.7322 0.45562 0.0
H3119 H 0.48377 0.7248 0.43716 0.0
H3120 H 0.4034 0.72261 0.43625 0.0
H3121 H 0.33158 0.73011 0.46281 0.0
H3122 H 0.107 0.74757 0.45824 0.0
H3123 H 0.18744 0.749 0.4593 0.0
H3124 H 0.25907 0.74137 0.43272 0.0
C3125 C 0.41803 0.7296 0.44208 0.0
C3126 C 0.31616 0.73273 0.45622 0.0
C3127 C 0.46414 0.73085 0.4426 0.0
C3128 C 0.12654 0.74137 0.45282 0.0
C3129 C 0.17269 0.74217 0.45343 0.0
C3130 C 0.27447 0.73872 0.43932 0.0
C3131 C 0.39119 0.73713 0.44903 0.0
C3132 C 0.34206 0.73626 0.44837 0.0
C3133 C 0.1994 0.73452 0.4465 0.0
C3134 C 0.24855 0.7352 0.44716 0.0
H3135 H 0.47219 0.75422 0.46287 0.0
H3136 H 0.39207 0.75196 0.46197 0.0
H3137 H 0.33943 0.74231 0.43377 0.0
H3138 H 0.11807 0.7183 0.43248 0.0
H3139 H 0.19825 0.71978 0.43353 0.0
C3140 C 0.33257 0.7338 0.33376 0.0
C3141 C 0.31153 0.74041 0.32578 0.0
C3142 C 0.37871 0.73254 0.3342 0.0
C3143 C 0.4804 0.75112 0.32344 0.0
H3144 H 0.53686 0.7094 0.33516 0.0
C3145 C 0.66948 0.73896 0.32166 0.0
C3146 C 0.69061 0.73232 0.32963 0.0
C3147 C 0.62332 0.74005 0.32121 0.0
C3148 C 0.52166 0.72126 0.33196 0.0
H3149 H 0.32294 0.75095 0.31201 0.0
H3150 H 0.40309 0.74838 0.31271 0.0
H3151 H 0.45646 0.71083 0.33433 0.0
H3152 H 0.67932 0.72151 0.34335 0.0
H3153 H 0.59913 0.72382 0.34264 0.0
H3154 H 0.54556 0.76157 0.32108 0.0
C3155 C 0.38395 0.74434 0.31867 0.0
C3156 C 0.47549 0.72207 0.33148 0.0
C3157 C 0.33787 0.74558 0.31823 0.0
C3158 C 0.66432 0.72692 0.33714 0.0
C3159 C 0.61821 0.728 0.33669 0.0
C3160 C 0.52656 0.75031 0.32392 0.0
C3161 C 0.40503 0.73791 0.32668 0.0
C3162 C 0.45424 0.73701 0.3272 0.0
C3163 C 0.59705 0.73451 0.32871 0.0
C3164 C 0.54783 0.73538 0.32819 0.0
H3165 H 0.31336 0.72955 0.33968 0.0
H3166 H 0.39379 0.72766 0.3405 0.0
H3167 H 0.46519 0.76298 0.32023 0.0
H3168 H 0.68862 0.74339 0.31577 0.0
H3169 H 0.6082 0.74497 0.31492 0.0
C3170 C 0.13038 0.00649 0.32247 0.0
C3171 C 0.10803 -0.00171 0.3299 0.0
C3172 C 0.17651 0.00564 0.32183 0.0
C3173 C 0.27442 0.98015 0.33057 0.0
H3174 H 0.33842 0.02363 0.32278 0.0
C3175 C 0.46455 0.98525 0.33349 0.0
C3176 C 0.48743 -0.00696 0.32602 0.0
C3177 C 0.41841 0.98618 0.33398 0.0
C3178 C 0.32106 0.0113 0.32488 0.0
H3179 H 0.11694 0.9823 0.34236 0.0
H3180 H 0.19726 0.98107 0.34134 0.0
H3181 H 0.25788 0.02425 0.32342 0.0
H3182 H 0.47954 0.00839 0.31333 0.0
H3183 H 0.39905 0.00987 0.31414 0.0
H3184 H 0.3376 0.96723 0.33206 0.0
C3185 C 0.17913 0.98807 0.33596 0.0
C3186 C 0.27482 0.01164 0.32523 0.0
C3187 C 0.13302 0.98894 0.33659 0.0
C3188 C 0.46299 0.0021 0.31914 0.0
C3189 C 0.41683 0.0031 0.31965 0.0
C3190 C 0.32064 0.97982 0.33023 0.0
C3191 C 0.20156 -0.00347 0.32861 0.0
C3192 C 0.25085 -0.00392 0.32809 0.0
C3193 C 0.39389 -0.00502 0.32703 0.0
C3194 C 0.3446 -0.0046 0.3274 0.0
H3195 H 0.11231 0.01397 0.31723 0.0
H3196 H 0.19256 0.01212 0.31602 0.0
H3197 H 0.25712 0.96781 0.33266 0.0
H3198 H 0.48221 0.978 0.33887 0.0
H3199 H 0.40191 0.97999 0.33982 0.0
C3200 C 0.21328 0.49779 0.58288 0.0
C3201 C 0.23645 0.48897 0.57575 0.0
C3202 C 0.16714 0.49681 0.58336 0.0
C3203 C 0.07044 0.47014 0.57515 0.0
H3204 H 1.00552 0.51444 0.58125 0.0
C3205 C 0.8798 0.47409 0.5723 0.0
C3206 C 0.85704 0.48325 0.57939 0.0
C3207 C 0.92595 0.47496 0.57171 0.0
C3208 C 0.0231 0.50188 0.57963 0.0
H3209 H 0.22907 0.47177 0.56366 0.0
H3210 H 0.14859 0.47021 0.56445 0.0
H3211 H 0.08601 0.51518 0.5807 0.0
H3212 H 0.86522 0.50093 0.59128 0.0
H3213 H 0.94558 0.50223 0.59034 0.0
H3214 H 1.00753 0.45682 0.5741 0.0
C3215 C 0.16614 0.47783 0.5697 0.0
C3216 C 0.06932 0.50231 0.57932 0.0
C3217 C 0.21229 0.47886 0.5692 0.0
C3218 C 0.88163 0.49356 0.58578 0.0
C3219 C 0.92776 0.49446 0.58519 0.0
C3220 C 0.0242 0.46971 0.57547 0.0
C3221 C 0.14291 0.48695 0.57674 0.0
C3222 C 0.09363 0.48643 0.57709 0.0
C3223 C 0.95059 0.48505 0.57819 0.0
C3224 C 0.99988 0.48557 0.57772 0.0
H3225 H 0.23072 0.50585 0.58798 0.0
H3226 H 0.15043 0.50381 0.58894 0.0
H3227 H 0.08806 0.45759 0.57352 0.0
H3228 H 0.86205 0.46586 0.56731 0.0
H3229 H 0.94231 0.46774 0.56616 0.0
C3230 C 0.41291 0.75853 0.58648 0.0
C3231 C 0.43981 0.75005 0.57982 0.0
C3232 C 0.36684 0.75767 0.58585 0.0
C3233 C 0.27591 0.74945 0.5693 0.0
H3234 H 0.20597 0.74223 0.59136 0.0
C3235 C 0.08825 0.7345 0.56809 0.0
C3236 C 0.06115 0.74279 0.57478 0.0
C3237 C 0.13428 0.73579 0.56864 0.0
C3238 C 0.22495 0.74449 0.58515 0.0
H3239 H 0.43897 0.73377 0.56732 0.0
H3240 H 0.35855 0.73226 0.56623 0.0
H3241 H 0.28632 0.74331 0.59246 0.0
H3242 H 0.06161 0.75928 0.58721 0.0
H3243 H 0.14197 0.76152 0.58818 0.0
H3244 H 0.21451 0.75059 0.56198 0.0
C3245 C 0.37319 0.7398 0.57188 0.0
C3246 C 0.27108 0.74509 0.58577 0.0
C3247 C 0.41934 0.74065 0.57251 0.0
C3248 C 0.0814 0.75252 0.58201 0.0
C3249 C 0.12751 0.75379 0.58256 0.0
C3250 C 0.22977 0.74885 0.56867 0.0
C3251 C 0.34634 0.74832 0.57854 0.0
C3252 C 0.29718 0.74757 0.57785 0.0
C3253 C 0.15455 0.74538 0.5759 0.0
C3254 C 0.20368 0.74634 0.57659 0.0
H3255 H 0.42743 0.76621 0.5921 0.0
H3256 H 0.34727 0.76466 0.59102 0.0
H3257 H 0.29489 0.75169 0.56308 0.0
H3258 H 0.07394 0.72659 0.56253 0.0
H3259 H 0.15403 0.72889 0.56348 0.0
C3260 C 0.87821 0.73914 0.68926 0.0
C3261 C 0.85435 0.75007 0.69551 0.0
C3262 C 0.92438 0.73816 0.68969 0.0
C3263 C 1.01989 0.74688 0.70516 0.0
H3264 H 0.08657 0.74742 0.68238 0.0
C3265 C 0.21032 0.75412 0.7048 0.0
C3266 C 0.23396 0.74316 0.69853 0.0
C3267 C 0.16419 0.75536 0.70433 0.0
C3268 C 0.0685 0.74706 0.68881 0.0
H3269 H 0.86074 0.76859 0.70712 0.0
H3270 H 0.94109 0.76687 0.7079 0.0
H3271 H 1.00608 0.74834 0.68189 0.0
H3272 H 0.22726 0.7249 0.68682 0.0
H3273 H 0.14699 0.72704 0.68599 0.0
H3274 H 0.08229 0.74557 0.71208 0.0
C3275 C 0.92407 0.75883 0.70273 0.0
C3276 C 1.02226 0.74757 0.68853 0.0
C3277 C 0.87789 0.75979 0.70229 0.0
C3278 C 0.21027 0.7337 0.69167 0.0
C3279 C 0.16414 0.73492 0.69121 0.0
C3280 C 0.06613 0.74636 0.70544 0.0
C3281 C 0.94798 0.7481 0.69639 0.0
C3282 C 0.9973 0.74747 0.6967 0.0
C3283 C 0.14042 0.74564 0.69757 0.0
C3284 C 0.0911 0.74643 0.69727 0.0
H3285 H 0.86117 0.73125 0.68403 0.0
H3286 H 0.94158 0.7295 0.68481 0.0
H3287 H 1.00182 0.74652 0.71159 0.0
H3288 H 0.22751 0.7618 0.71009 0.0
H3289 H 0.14717 0.76402 0.70924 0.0
C3290 C 0.0797 0.49724 0.69275 0.0
C3291 C 0.05689 0.48969 0.70029 0.0
C3292 C 0.12584 0.49628 0.69225 0.0
C3293 C 0.22326 0.47141 0.7015 0.0
H3294 H 0.28721 0.51464 0.69337 0.0
C3295 C 0.41395 0.47629 0.70389 0.0
C3296 C 0.43633 0.48427 0.6964 0.0
C3297 C 0.36781 0.47715 0.7045 0.0
C3298 C 0.26991 0.50237 0.69556 0.0
H3299 H 0.06492 0.4747 0.71309 0.0
H3300 H 0.14539 0.47317 0.71225 0.0
H3301 H 0.20673 0.51525 0.69398 0.0
H3302 H 0.42745 0.49988 0.68381 0.0
H3303 H 0.34713 0.50113 0.68481 0.0
H3304 H 0.28644 0.4585 0.70306 0.0
C3305 C 0.12756 0.47979 0.7067 0.0
C3306 C 0.22368 0.50271 0.69591 0.0
C3307 C 0.08141 0.48081 0.70723 0.0
C3308 C 0.41136 0.49341 0.68963 0.0
C3309 C 0.36524 0.4943 0.69025 0.0
C3310 C 0.26951 0.47105 0.70115 0.0
C3311 C 0.15043 0.48768 0.69925 0.0
C3312 C 0.19972 0.48723 0.69887 0.0
C3313 C 0.34278 0.48605 0.69766 0.0
C3314 C 0.29348 0.48652 0.69816 0.0
H3315 H 0.06199 0.50434 0.68734 0.0
H3316 H 0.14228 0.50229 0.68635 0.0
H3317 H 0.20591 0.45915 0.7037 0.0
H3318 H 0.432 0.46897 0.70918 0.0
H3319 H 0.35174 0.47085 0.71037 0.0
C3320 C 0.8351 0.49817 0.44135 0.0
C3321 C 0.81377 0.49232 0.44944 0.0
C3322 C 0.88124 0.4994 0.44097 0.0
C3323 C 0.98232 0.4817 0.45229 0.0
H3324 H 0.03949 0.52219 0.43969 0.0
C3325 C 0.17148 0.49356 0.45389 0.0
C3326 C 0.19272 0.49941 0.4458 0.0
C3327 C 0.12532 0.49261 0.45435 0.0
C3328 C 0.02408 0.51067 0.44314 0.0
H3329 H 0.82457 0.48317 0.46348 0.0
H3330 H 0.90477 0.48568 0.46287 0.0
H3331 H 0.95906 0.52104 0.44049 0.0
H3332 H 0.18167 0.50894 0.43183 0.0
H3333 H 0.10145 0.50685 0.43255 0.0
H3334 H 0.0473 0.4713 0.45493 0.0
C3335 C 0.88586 0.48913 0.45678 0.0
C3336 C 0.97791 0.51002 0.44361 0.0
C3337 C 0.83977 0.48794 0.45717 0.0
C3338 C 0.16657 0.50414 0.43814 0.0
C3339 C 0.12045 0.50319 0.4386 0.0
C3340 C 0.02848 0.48234 0.45182 0.0
C3341 C 0.90723 0.49476 0.44866 0.0
C3342 C 0.95642 0.49553 0.44819 0.0
C3343 C 0.09919 0.49751 0.44672 0.0
C3344 C 0.04998 0.49683 0.44724 0.0
H3345 H 0.81612 0.50181 0.4353 0.0
H3346 H 0.89657 0.50364 0.43458 0.0
H3347 H 0.9669 0.47018 0.45575 0.0
H3348 H 0.19054 0.48967 0.4599 0.0
H3349 H 0.1101 0.48833 0.46074 0.0
C3350 C 0.95647 0.24531 0.45736 0.0
C3351 C 0.98243 0.24099 0.44963 0.0
C3352 C 0.91037 0.2441 0.45698 0.0
C3353 C 0.81826 0.22331 0.44377 0.0
H3354 H 0.74882 0.26188 0.45518 0.0
C3355 C 0.62963 0.22924 0.43825 0.0
C3356 C 0.60341 0.23388 0.4459 0.0
C3357 C 0.67575 0.23019 0.43873 0.0
C3358 C 0.76766 0.25088 0.45205 0.0
H3359 H 0.97999 0.23161 0.43547 0.0
H3360 H 0.89955 0.22977 0.43476 0.0
H3361 H 0.82923 0.26301 0.45602 0.0
H3362 H 0.60549 0.24346 0.46003 0.0
H3363 H 0.68593 0.2448 0.46091 0.0
H3364 H 0.7567 0.21118 0.4398 0.0
C3365 C 0.91491 0.23396 0.44116 0.0
C3366 C 0.81382 0.25152 0.45253 0.0
C3367 C 0.96105 0.2352 0.44154 0.0
C3368 C 0.62459 0.23964 0.45403 0.0
C3369 C 0.67076 0.24059 0.4545 0.0
C3370 C 0.77209 0.22267 0.44329 0.0
C3371 C 0.88895 0.23853 0.44886 0.0
C3372 C 0.83975 0.23775 0.44839 0.0
C3373 C 0.69696 0.23578 0.44687 0.0
C3374 C 0.74617 0.23645 0.44741 0.0
H3375 H 0.9717 0.25003 0.46368 0.0
H3376 H 0.8915 0.24751 0.46308 0.0
H3377 H 0.83712 0.21233 0.44062 0.0
H3378 H 0.61458 0.22452 0.43192 0.0
H3379 H 0.69479 0.2266 0.43268 0.0
C3380 C 0.16909 0.22346 0.32294 0.0
C3381 C 0.19258 0.23287 0.32984 0.0
C3382 C 0.12291 0.22446 0.3225 0.0
C3383 C 0.02686 0.25214 0.33036 0.0
H3384 H 0.96059 0.20787 0.32487 0.0
C3385 C 0.83644 0.24917 0.33374 0.0
C3386 C 0.81297 0.24002 0.32675 0.0
C3387 C 0.88258 0.24802 0.33422 0.0
C3388 C 0.97856 0.22041 0.32632 0.0
H3389 H 0.18563 0.25112 0.34155 0.0
H3390 H 0.10521 0.25267 0.34086 0.0
H3391 H 0.04111 0.20677 0.32533 0.0
H3392 H 0.81984 0.22203 0.31494 0.0
H3393 H 0.90025 0.22018 0.31572 0.0
H3394 H 0.96431 0.26577 0.33135 0.0
C3395 C 0.1225 0.24458 0.33574 0.0
C3396 C 0.02481 0.21979 0.32657 0.0
C3397 C 0.16866 0.24355 0.3362 0.0
C3398 C 0.83683 0.2294 0.32036 0.0
C3399 C 0.88297 0.2282 0.32087 0.0
C3400 C 0.98062 0.25276 0.33011 0.0
C3401 C 0.09894 0.23494 0.32892 0.0
C3402 C 0.04961 0.23565 0.32859 0.0
C3403 C 0.90651 0.23763 0.32775 0.0
C3404 C 0.95582 0.2369 0.32809 0.0
H3405 H 0.18629 0.21494 0.31799 0.0
H3406 H 0.106 0.21704 0.31708 0.0
H3407 H 0.0448 0.26469 0.3318 0.0
H3408 H 0.81926 0.25763 0.33872 0.0
H3409 H 0.89952 0.25528 0.33969 0.0
C3410 C 0.95835 0.48283 0.31814 0.0
C3411 C 0.98527 0.49231 0.32446 0.0
C3412 C 0.91229 0.48402 0.31865 0.0
C3413 C 0.82113 0.51222 0.32824 0.0
H3414 H 0.75187 0.46806 0.32434 0.0
C3415 C 0.63398 0.50926 0.33604 0.0
C3416 C 0.60665 0.49965 0.32986 0.0
C3417 C 0.68 0.50843 0.33527 0.0
C3418 C 0.77064 0.48058 0.32534 0.0
H3419 H 0.98445 0.51075 0.33618 0.0
H3420 H 0.90407 0.51257 0.33717 0.0
H3421 H 0.83215 0.46669 0.32322 0.0
H3422 H 0.6067 0.48148 0.31803 0.0
H3423 H 0.68703 0.48026 0.31659 0.0
H3424 H 0.75959 0.52609 0.33039 0.0
C3425 C 0.91868 0.50434 0.33175 0.0
C3426 C 0.81674 0.47979 0.32469 0.0
C3427 C 0.96481 0.50314 0.33125 0.0
C3428 C 0.62666 0.48916 0.32287 0.0
C3429 C 0.67277 0.48831 0.3221 0.0
C3430 C 0.77502 0.513 0.32889 0.0
C3431 C 0.8918 0.49471 0.32549 0.0
C3432 C 0.84263 0.4956 0.32614 0.0
C3433 C 0.70004 0.49798 0.32828 0.0
C3434 C 0.74915 0.49718 0.32747 0.0
H3435 H 0.97283 0.47415 0.31289 0.0
H3436 H 0.89272 0.4766 0.31364 0.0
H3437 H 0.83991 0.52473 0.32925 0.0
H3438 H 0.61981 0.5177 0.34142 0.0
H3439 H 0.6999 0.51589 0.34021 0.0
C3440 C 0.87966 0.97734 0.08793 0.0
C3441 C 0.85316 0.98339 0.08057 0.0
C3442 C 0.92577 0.97837 0.08744 0.0
C3443 C 1.01795 0.98184 0.07077 0.0
H3444 H 0.08583 -0.00377 0.09222 0.0
C3445 C 0.20554 -0.00306 0.06904 0.0
C3446 C 0.23216 0.99107 0.07642 0.0
C3447 C 0.15947 -0.00435 0.06951 0.0
C3448 C 0.06745 -0.00804 0.0862 0.0
H3449 H 0.85476 -0.00437 0.06696 0.0
H3450 H 0.93519 -0.00257 0.0661 0.0
H3451 H 1.00543 -0.00491 0.09311 0.0
H3452 H 0.23083 0.97884 0.09003 0.0
H3453 H 0.15046 0.97658 0.09086 0.0
H3454 H 0.07998 0.97871 0.06385 0.0
C3455 C 0.92024 -0.00837 0.07221 0.0
C3456 C 1.02128 0.99133 0.0867 0.0
C3457 C 0.87408 0.99061 0.07271 0.0
C3458 C 0.2114 0.98373 0.08427 0.0
C3459 C 0.16528 0.98245 0.08475 0.0
C3460 C 0.06412 0.98246 0.07026 0.0
C3461 C 0.9467 0.98546 0.07956 0.0
C3462 C 0.9959 0.98627 0.079 0.0
C3463 C 0.13869 0.98848 0.07739 0.0
C3464 C 0.0895 0.98754 0.07796 0.0
H3465 H 0.86484 0.97137 0.09402 0.0
H3466 H 0.94505 0.97322 0.09317 0.0
H3467 H 0.99955 0.97758 0.06474 0.0
H3468 H 0.22023 0.00299 0.06296 0.0
H3469 H 0.14009 0.00069 0.06378 0.0
C3470 C 0.08378 0.25401 0.06928 0.0
C3471 C 0.05958 0.24395 0.07584 0.0
C3472 C 0.12993 0.255 0.06979 0.0
C3473 C 0.2265 0.2304 0.07942 0.0
H3474 H 0.28874 0.27574 0.07412 0.0
C3475 C 0.41433 0.23882 0.08576 0.0
C3476 C 0.43891 0.24905 0.07933 0.0
C3477 C 0.3682 0.238 0.08519 0.0
C3478 C 0.27194 0.2629 0.0755 0.0
H3479 H 0.0652 0.22714 0.08812 0.0
H3480 H 0.1455 0.22912 0.08908 0.0
H3481 H 0.20819 0.27514 0.07358 0.0
H3482 H 0.43391 0.26637 0.06722 0.0
H3483 H 0.35361 0.26462 0.06612 0.0
H3484 H 0.29018 0.21814 0.08132 0.0
C3485 C 0.12882 0.2361 0.08349 0.0
C3486 C 0.22569 0.26256 0.07521 0.0
C3487 C 0.08268 0.23517 0.083 0.0
C3488 C 0.41615 0.2582 0.07224 0.0
C3489 C 0.37 0.2574 0.07168 0.0
C3490 C 0.27273 0.23072 0.0797 0.0
C3491 C 0.15309 0.24589 0.07684 0.0
C3492 C 0.20236 0.24631 0.07718 0.0
C3493 C 0.34537 0.2474 0.07819 0.0
C3494 C 0.29609 0.24698 0.07776 0.0
H3495 H 0.06704 0.26107 0.06372 0.0
H3496 H 0.14753 0.26256 0.06452 0.0
H3497 H 0.20968 0.21756 0.08081 0.0
H3498 H 0.43076 0.23146 0.09126 0.0
H3499 H 0.35037 0.23029 0.09037 0.0
C3500 C 0.88526 0.25699 0.18913 0.0
C3501 C 0.85842 0.25002 0.19622 0.0
C3502 C 0.93133 0.25625 0.18979 0.0
C3503 C 1.02256 0.23241 0.2019 0.0
H3504 H 0.09173 0.27416 0.19367 0.0
C3505 C 0.21086 0.23686 0.2081 0.0
C3506 C 0.23718 0.24354 0.20085 0.0
C3507 C 0.16478 0.23806 0.20769 0.0
C3508 C 0.07297 0.2623 0.19591 0.0
H3509 H 0.85933 0.23657 0.20954 0.0
H3510 H 0.93973 0.23555 0.21077 0.0
H3511 H 1.01135 0.27523 0.19265 0.0
H3512 H 0.23534 0.25714 0.18757 0.0
H3513 H 0.15493 0.25895 0.18679 0.0
H3514 H 0.08417 0.21947 0.20514 0.0
C3515 C 0.92507 0.24144 0.20464 0.0
C3516 C 0.02683 0.26291 0.19532 0.0
C3517 C 0.87893 0.2422 0.20398 0.0
C3518 C 0.21615 0.25169 0.19324 0.0
C3519 C 0.17001 0.25291 0.19284 0.0
C3520 C 0.0687 0.23181 0.20249 0.0
C3521 C 0.95187 0.24853 0.19757 0.0
C3522 C 1.00102 0.24795 0.19829 0.0
C3523 C 0.14371 0.24598 0.20003 0.0
C3524 C 0.09452 0.24673 0.19949 0.0
H3525 H 0.87071 0.26335 0.18311 0.0
H3526 H 0.95088 0.26164 0.18416 0.0
H3527 H 1.00382 0.22054 0.20412 0.0
H3528 H 0.2258 0.23029 0.21402 0.0
H3529 H 0.14564 0.2328 0.21341 0.0
C3530 C 0.42135 0.99022 0.20383 0.0
C3531 C 0.44232 0.98295 0.19599 0.0
C3532 C 0.37519 0.99135 0.20429 0.0
C3533 C 0.2733 0.97173 0.19401 0.0
H3534 H 0.21708 0.01435 0.20492 0.0
C3535 C 0.0841 0.98404 0.19214 0.0
C3536 C 0.06327 0.99127 0.2 0.0
C3537 C 0.13025 0.98279 0.19167 0.0
C3538 C 0.23222 0.00224 0.20194 0.0
H3539 H 0.43075 0.97105 0.18251 0.0
H3540 H 0.35057 0.97341 0.18323 0.0
H3541 H 0.29743 0.01286 0.20405 0.0
H3542 H 0.07504 0.00295 0.21352 0.0
H3543 H 0.15517 0.0004 0.21278 0.0
H3544 H 0.20805 0.96113 0.1919 0.0
C3545 C 0.36977 0.97807 0.18907 0.0
C3546 C 0.27836 0.00139 0.20144 0.0
C3547 C 0.41588 0.97695 0.18861 0.0
C3548 C 0.08981 -0.00291 0.2074 0.0
C3549 C 0.13589 -0.00414 0.20693 0.0
C3550 C 0.22714 0.97259 0.1945 0.0
C3551 C 0.34877 0.98521 0.19693 0.0
C3552 C 0.29955 0.98613 0.19747 0.0
C3553 C 0.15677 0.98879 0.19904 0.0
C3554 C 0.20597 0.98785 0.19849 0.0
H3555 H 0.4406 -0.00488 0.20961 0.0
H3556 H 0.3602 -0.00324 0.21049 0.0
H3557 H 0.28843 0.95962 0.19103 0.0
H3558 H 0.06474 0.97929 0.18634 0.0
H3559 H 0.14516 0.97741 0.18545 0.0
C3560 C 0.83447 -0.00196 0.94223 0.0
C3561 C 0.81366 0.99095 0.95013 0.0
C3562 C 0.8806 -0.00072 0.94176 0.0
C3563 C 0.98164 -0.00039 0.95626 0.0
H3564 H 0.04034 0.98614 0.93353 0.0
C3565 C 0.17156 0.99108 0.95392 0.0
C3566 C 0.19255 -0.00193 0.94602 0.0
C3567 C 0.1254 0.99013 0.95441 0.0
C3568 C 0.02448 0.99014 0.9399 0.0
H3569 H 0.82542 0.97943 0.96369 0.0
H3570 H 0.90558 0.98165 0.96287 0.0
H3571 H 0.95993 0.98514 0.93441 0.0
H3572 H 0.18104 0.00977 0.93249 0.0
H3573 H 0.10082 0.00802 0.93333 0.0
H3574 H 0.04622 0.00458 0.96176 0.0
C3575 C 0.88625 0.98653 0.95709 0.0
C3576 C 0.97832 0.98959 0.94041 0.0
C3577 C 0.84018 0.98529 0.95756 0.0
C3578 C 0.16614 0.00397 0.93861 0.0
C3579 C 0.12004 0.003 0.9391 0.0
C3580 C 0.02781 0.00015 0.95576 0.0
C3581 C 0.9071 -0.00655 0.94917 0.0
C3582 C 0.95628 -0.0057 0.94859 0.0
C3583 C 0.09903 -0.00387 0.94702 0.0
C3584 C 0.04985 -0.00458 0.94758 0.0
H3585 H 0.8151 0.00276 0.93643 0.0
H3586 H 0.89549 0.00494 0.9356 0.0
H3587 H 0.96578 0.0036 0.96264 0.0
H3588 H 0.19081 0.98619 0.9597 0.0
H3589 H 0.11037 0.9845 0.96056 0.0
C3590 C 0.96013 0.73395 0.94078 0.0
C3591 C 0.98161 0.73964 0.94888 0.0
C3592 C 0.91399 0.73269 0.94043 0.0
C3593 C 0.81309 0.75008 0.95192 0.0
H3594 H 0.75579 0.70988 0.93911 0.0
C3595 C 0.6239 0.7382 0.95349 0.0
C3596 C 0.60262 0.73255 0.94536 0.0
C3597 C 0.67007 0.73913 0.95394 0.0
C3598 C 0.77124 0.72132 0.94263 0.0
H3599 H 0.97109 0.74847 0.96297 0.0
H3600 H 0.89089 0.7459 0.96242 0.0
H3601 H 0.83623 0.71102 0.93989 0.0
H3602 H 0.6136 0.72335 0.93134 0.0
H3603 H 0.69382 0.7254 0.93207 0.0
H3604 H 0.74813 0.76041 0.95464 0.0
C3605 C 0.90968 0.74259 0.9563 0.0
C3606 C 0.81741 0.72197 0.94308 0.0
C3607 C 0.95578 0.74382 0.95665 0.0
C3608 C 0.62874 0.72799 0.93768 0.0
C3609 C 0.67485 0.72892 0.93814 0.0
C3610 C 0.76692 0.74944 0.95146 0.0
C3611 C 0.88815 0.73714 0.94817 0.0
C3612 C 0.83895 0.73635 0.94773 0.0
C3613 C 0.69616 0.73441 0.94629 0.0
C3614 C 0.74537 0.73507 0.9468 0.0
H3615 H 0.97898 0.73047 0.93469 0.0
H3616 H 0.89853 0.72858 0.93403 0.0
H3617 H 0.82855 0.76152 0.95543 0.0
H3618 H 0.60487 0.74196 0.95951 0.0
H3619 H 0.68532 0.74326 0.96036 0.0
C3620 C 0.16756 0.7266 0.82151 0.0
C3621 C 0.18992 0.73458 0.829 0.0
C3622 C 0.12141 0.72746 0.82089 0.0
C3623 C 0.02347 0.75262 0.82982 0.0
H3624 H 0.95959 0.70935 0.82172 0.0
C3625 C 0.83331 0.74737 0.83266 0.0
C3626 C 0.81049 0.73979 0.82513 0.0
C3627 C 0.87946 0.74643 0.83316 0.0
C3628 C 0.97691 0.72162 0.82391 0.0
H3629 H 0.18103 0.75018 0.84158 0.0
H3630 H 0.10071 0.75142 0.84058 0.0
H3631 H 0.04013 0.70875 0.82235 0.0
H3632 H 0.81851 0.72478 0.81235 0.0
H3633 H 0.89898 0.7233 0.81318 0.0
H3634 H 0.96025 0.76545 0.83141 0.0
C3635 C 0.11883 0.7446 0.83513 0.0
C3636 C 0.02316 0.72129 0.82425 0.0
C3637 C 0.16494 0.74372 0.83576 0.0
C3638 C 0.83501 0.73091 0.8182 0.0
C3639 C 0.88116 0.72992 0.81872 0.0
C3640 C 0.97724 0.75293 0.82949 0.0
C3641 C 0.09638 0.73635 0.82773 0.0
C3642 C 0.04708 0.73678 0.82723 0.0
C3643 C 0.90404 0.73783 0.82616 0.0
C3644 C 0.95332 0.73742 0.82654 0.0
H3645 H 0.18561 0.71928 0.81622 0.0
H3646 H 0.10535 0.72116 0.81502 0.0
H3647 H 0.04073 0.7649 0.832 0.0
H3648 H 0.8156 0.75447 0.83807 0.0
H3649 H 0.8959 0.75247 0.83905 0.0
C3650 C 0.62631 0.00999 0.8237 0.0
C3651 C 0.60266 -0.00042 0.83021 0.0
C3652 C 0.67247 0.00901 0.82326 0.0
C3653 C 0.76818 0.98012 0.83012 0.0
H3654 H 0.83478 0.02506 0.82646 0.0
C3655 C 0.95835 0.98244 0.83395 0.0
C3656 C 0.98215 -0.00739 0.82738 0.0
C3657 C 0.91221 0.98354 0.83438 0.0
C3658 C 0.81671 0.01235 0.82739 0.0
H3659 H 0.60927 0.97961 0.84121 0.0
H3660 H 0.68971 0.97809 0.84052 0.0
H3661 H 0.75425 0.02616 0.82687 0.0
H3662 H 0.97588 0.01231 0.81625 0.0
H3663 H 0.89542 0.0141 0.81694 0.0
H3664 H 0.83064 0.96632 0.83065 0.0
C3665 C 0.67255 0.98694 0.83571 0.0
C3666 C 0.77047 0.01297 0.82761 0.0
C3667 C 0.62639 0.98795 0.83617 0.0
C3668 C 0.95862 0.00417 0.82135 0.0
C3669 C 0.91247 0.00532 0.8218 0.0
C3670 C 0.81442 0.9795 0.8299 0.0
C3671 C 0.69626 -0.00244 0.82929 0.0
C3672 C 0.74556 -0.00313 0.82898 0.0
C3673 C 0.88861 -0.00511 0.82827 0.0
C3674 C 0.83932 -0.00439 0.82855 0.0
H3675 H 0.60923 0.01924 0.81907 0.0
H3676 H 0.68953 0.01721 0.81815 0.0
H3677 H 0.75014 0.9674 0.83104 0.0
H3678 H 0.97529 0.97324 0.83864 0.0
H3679 H 0.89501 0.97549 0.83953 0.0
C3680 C 1.02144 0.49708 0.04869 0.0
C3681 C 0.04014 0.48081 0.05214 0.0
C3682 C 1.015 0.49938 0.03919 0.0
C3683 C 1.00887 0.4736 0.01704 0.0
H3684 H 0.03695 0.52093 1.00628 0.0
C3685 C 1.01691 0.48443 0.97751 0.0
C3686 C 0.99772 0.50062 0.97408 0.0
C3687 C 0.02308 0.48205 0.98701 0.0
C3688 C 0.02855 0.50766 1.00917 0.0
H3689 H 0.06566 0.45401 0.0484 0.0
H3690 H 0.05482 0.45802 0.0319 0.0
H3691 H 0.0433 0.51665 0.02286 0.0
H3692 H 0.971 0.52719 0.97786 0.0
H3693 H 0.98153 0.52306 0.99437 0.0
H3694 H 0.99422 0.46461 1.00333 0.0
C3695 C 0.0447 0.46899 0.03647 0.0
C3696 C 0.03208 0.50522 0.01871 0.0
C3697 C 0.05113 0.46671 0.04595 0.0
C3698 C 0.98591 0.51456 0.9803 0.0
C3699 C 0.99215 0.51221 0.98977 0.0
C3700 C 1.00539 0.47604 1.0075 0.0
C3701 C 0.02703 0.48544 0.03294 0.0
C3702 C 1.02228 0.48815 0.02278 0.0
C3703 C 1.01039 0.49585 0.99328 0.0
C3704 C 1.01515 0.49311 1.00343 0.0
H3705 H 1.01253 0.50817 0.0533 0.0
H3706 H 1.00065 0.51212 0.03675 0.0
H3707 H 1.00043 0.46033 0.01993 0.0
H3708 H 0.02645 0.47346 0.97288 0.0
H3709 H 0.03781 0.46938 0.98944 0.0
C3710 C 0.30039 0.71607 0.97935 0.0
C3711 C 0.28957 0.73016 0.97313 0.0
C3712 C 0.29402 0.71842 0.98882 0.0
C3713 C 0.23463 0.74673 1.00613 0.0
H3714 H 0.32642 0.72921 0.02257 0.0
C3715 C 0.23472 0.76505 0.04481 0.0
C3716 C 0.24625 0.75118 0.05109 0.0
C3717 C 0.24077 0.76251 0.03534 0.0
C3718 C 0.30021 0.734 0.0181 0.0
H3719 H 0.26242 0.7576 0.97193 0.0
H3720 H 0.25134 0.76179 0.98848 0.0
H3721 H 0.33391 0.72461 1.00603 0.0
H3722 H 0.27417 0.7239 0.05241 0.0
H3723 H 0.28453 0.71934 0.03586 0.0
H3724 H 0.2009 0.75611 0.01819 0.0
C3725 C 0.26456 0.74884 0.98604 0.0
C3726 C 0.30448 0.73136 1.00859 0.0
C3727 C 0.27101 0.74648 0.97656 0.0
C3728 C 0.26504 0.73485 0.04773 0.0
C3729 C 0.27109 0.73228 0.03824 0.0
C3730 C 0.23034 0.74936 0.01563 0.0
C3731 C 0.27657 0.73492 0.99232 0.0
C3732 C 0.27176 0.73769 1.00247 0.0
C3733 C 0.25849 0.746 0.03191 0.0
C3734 C 0.26311 0.74307 0.02176 0.0
H3735 H 0.31452 0.70328 0.97691 0.0
H3736 H 0.30285 0.70727 0.9934 0.0
H3737 H 0.20846 0.75154 1.00165 0.0
H3738 H 0.22041 0.77784 0.04719 0.0
H3739 H 0.23151 0.77353 0.03072 0.0
C3740 C 1.02234 0.7459 0.29806 0.0
C3741 C 1.00366 0.72961 0.30149 0.0
C3742 C 0.02907 0.74818 0.28857 0.0
C3743 C 0.98992 0.73059 0.266 0.0
H3744 H 0.09382 0.75531 0.25654 0.0
C3745 C 0.03058 0.73424 0.22691 0.0
C3746 C 0.04942 0.7506 0.22359 0.0
C3747 C 0.02425 0.73161 0.23639 0.0
C3748 C 0.06431 0.74857 0.25906 0.0
H3749 H 0.97874 0.70273 0.29774 0.0
H3750 H 0.99091 0.70658 0.28126 0.0
H3751 H 0.08574 0.75075 0.27307 0.0
H3752 H 0.07503 0.77725 0.22756 0.0
H3753 H 0.06344 0.77283 0.24401 0.0
H3754 H 0.96843 0.72846 0.25199 0.0
C3755 C 0.99963 0.71776 0.28583 0.0
C3756 C 0.05971 0.74594 0.26856 0.0
C3757 C 0.99297 0.71548 0.29529 0.0
C3758 C 0.0607 0.76443 0.22991 0.0
C3759 C 0.05438 0.76183 0.23936 0.0
C3760 C 0.99451 0.73324 0.2565 0.0
C3761 C 1.01725 0.73423 0.28232 0.0
C3762 C 1.02243 0.73692 0.27217 0.0
C3763 C 0.03661 0.74529 0.24275 0.0
C3764 C 0.03171 0.74231 0.25289 0.0
H3765 H 0.03083 0.75705 0.30267 0.0
H3766 H 0.0424 0.7611 0.28613 0.0
H3767 H 0.96041 0.72386 0.26853 0.0
H3768 H 1.02164 0.72331 0.2222 0.0
H3769 H 1.01078 0.71865 0.23873 0.0
C3770 C 0.24362 0.4661 0.22992 0.0
C3771 C 0.25439 0.48023 0.22372 0.0
C3772 C 0.25006 0.46837 0.23939 0.0
C3773 C 0.26223 0.50461 0.25715 0.0
H3774 H 0.30102 0.46411 0.27252 0.0
C3775 C 0.30904 0.51416 0.29549 0.0
C3776 C 0.29759 0.50023 0.30174 0.0
C3777 C 0.30262 0.51176 0.28603 0.0
C3778 C 0.28959 0.47551 0.26835 0.0
H3779 H 0.28161 0.50766 0.22257 0.0
H3780 H 0.2935 0.5116 0.23911 0.0
H3781 H 0.29462 0.45981 0.25593 0.0
H3782 H 0.26941 0.47299 0.30302 0.0
H3783 H 0.25775 0.4688 0.28647 0.0
H3784 H 0.25728 0.52031 0.26957 0.0
C3785 C 0.27932 0.49884 0.23667 0.0
C3786 C 0.286 0.47305 0.25882 0.0
C3787 C 0.27287 0.49654 0.22718 0.0
C3788 C 0.27864 0.48396 0.29835 0.0
C3789 C 0.2723 0.48152 0.28887 0.0
C3790 C 0.26586 0.50707 0.26668 0.0
C3791 C 0.26751 0.48486 0.24292 0.0
C3792 C 0.27227 0.48757 0.25307 0.0
C3793 C 0.28459 0.49533 0.28257 0.0
C3794 C 0.27962 0.49256 0.27242 0.0
H3795 H 0.22927 0.45337 0.22746 0.0
H3796 H 0.24013 0.45738 0.24396 0.0
H3797 H 0.25075 0.516 0.25299 0.0
H3798 H 0.32376 0.52686 0.29789 0.0
H3799 H 0.31295 0.52262 0.28141 0.0
C3800 C 0.808 0.21631 0.98008 0.0
C3801 C 0.79597 0.2301 0.9738 0.0
C3802 C 0.80133 0.21873 0.98954 0.0
C3803 C 0.73915 0.24648 1.00666 0.0
H3804 H 0.83151 0.2303 0.02332 0.0
C3805 C 0.73649 0.26513 0.04532 0.0
C3806 C 0.74854 0.2514 0.05163 0.0
C3807 C 0.7431 0.26261 0.03587 0.0
C3808 C 0.80515 0.23472 0.01878 0.0
H3809 H 0.76654 0.25711 0.97247 0.0
H3810 H 0.75503 0.26144 0.98899 0.0
H3811 H 0.84001 0.22563 1.0068 0.0
H3812 H 0.77798 0.22441 0.05303 0.0
H3813 H 0.78939 0.2199 0.03651 0.0
H3814 H 0.70429 0.25557 0.01865 0.0
C3815 C 0.76937 0.24865 0.98662 0.0
C3816 C 0.81 0.23203 1.00929 0.0
C3817 C 0.77608 0.24622 0.97715 0.0
C3818 C 0.76842 0.23525 0.04833 0.0
C3819 C 0.77507 0.23271 0.03885 0.0
C3820 C 0.7343 0.24917 0.01616 0.0
C3821 C 0.78242 0.23502 0.99296 0.0
C3822 C 0.77707 0.23787 1.00309 0.0
C3823 C 0.76198 0.24628 0.03248 0.0
C3824 C 0.76726 0.24335 0.02236 0.0
H3825 H 0.82319 0.20369 0.97771 0.0
H3826 H 0.81103 0.20779 0.99417 0.0
H3827 H 0.7128 0.2509 1.00213 0.0
H3828 H 0.72133 0.27778 0.04766 0.0
H3829 H 0.7334 0.27351 0.03121 0.0
C3830 C 1.01532 0.24864 0.79815 0.0
C3831 C 0.99635 0.23236 0.80153 0.0
C3832 C 1.02145 0.25115 0.78866 0.0
C3833 C 0.98078 0.234 0.76606 0.0
H3834 H 0.08464 0.25852 0.75645 0.0
C3835 C 1.02192 0.23652 0.72699 0.0
C3836 C 0.04057 0.2528 0.72354 0.0
C3837 C 1.01538 0.23423 0.73648 0.0
C3838 C 0.05514 0.25183 0.75901 0.0
H3839 H 0.9703 0.20573 0.79766 0.0
H3840 H 0.98155 0.20994 0.78119 0.0
H3841 H 0.07692 0.25406 0.773 0.0
H3842 H 0.06565 0.27967 0.72728 0.0
H3843 H 0.05384 0.2758 0.74377 0.0
H3844 H 0.95906 0.23173 0.75207 0.0
C3845 C 0.99087 0.22097 0.7858 0.0
C3846 C 0.05072 0.24927 0.76853 0.0
C3847 C 0.98474 0.21848 0.79526 0.0
C3848 C 0.05144 0.26691 0.72973 0.0
C3849 C 0.04498 0.26463 0.7392 0.0
C3850 C 0.98522 0.23654 0.75655 0.0
C3851 C 1.00878 0.23742 0.78234 0.0
C3852 C 1.01352 0.24028 0.77219 0.0
C3853 C 0.0274 0.24818 0.74273 0.0
C3854 C 1.02246 0.2455 0.75288 0.0
H3855 H 0.02452 0.25959 0.80282 0.0
H3856 H 0.03504 0.26406 0.78626 0.0
H3857 H 0.95127 0.22731 0.76862 0.0
H3858 H 1.01329 0.22538 0.72238 0.0
H3859 H 1.00205 0.22132 0.73894 0.0
C3860 C 0.80365 0.51732 0.79585 0.0
C3861 C 0.79276 0.5032 0.80204 0.0
C3862 C 0.79681 0.51512 0.78638 0.0
C3863 C 0.73599 0.48721 0.76912 0.0
H3864 H 0.82724 0.50457 0.75251 0.0
C3865 C 0.73437 0.46883 0.73046 0.0
C3866 C 0.74566 0.48267 0.72414 0.0
C3867 C 0.74081 0.4714 0.73991 0.0
C3868 C 0.80117 0.49982 0.75703 0.0
H3869 H 0.76509 0.47584 0.8032 0.0
H3870 H 0.75325 0.47191 0.78666 0.0
H3871 H 0.83559 0.50906 0.76905 0.0
H3872 H 0.77358 0.50993 0.72275 0.0
H3873 H 0.78469 0.51454 0.73928 0.0
H3874 H 0.70158 0.47797 0.7571 0.0
C3875 C 0.76684 0.48478 0.78911 0.0
C3876 C 0.80594 0.50241 0.76653 0.0
C3877 C 0.77374 0.48699 0.79859 0.0
C3878 C 0.76462 0.499 0.72746 0.0
C3879 C 0.77109 0.5016 0.73693 0.0
C3880 C 0.73122 0.48463 0.75961 0.0
C3881 C 0.77883 0.49873 0.78286 0.0
C3882 C 0.77345 0.49612 0.77272 0.0
C3883 C 0.75873 0.48791 0.7433 0.0
C3884 C 0.7638 0.49085 0.75343 0.0
H3885 H 0.81814 0.53002 0.7983 0.0
H3886 H 0.80567 0.5263 0.78182 0.0
H3887 H 0.70996 0.48244 0.77364 0.0
H3888 H 0.71994 0.45604 0.72811 0.0
H3889 H 0.73173 0.4604 0.74456 0.0
C3890 C 1.02244 -0.00269 0.54914 0.0
C3891 C 0.04101 0.98096 0.55253 0.0
C3892 C 1.01583 -0.00027 0.53966 0.0
C3893 C 1.00886 0.97418 0.51745 0.0
H3894 H 0.03731 0.02154 0.50676 0.0
C3895 C 1.01616 0.98533 0.47793 0.0
C3896 C 0.99713 0.00161 0.47455 0.0
C3897 C 1.0225 0.98286 0.48742 0.0
C3898 C 0.02881 0.00827 0.50963 0.0
H3899 H 0.06613 0.95415 0.54869 0.0
H3900 H 0.055 0.95837 0.53221 0.0
H3901 H 0.04397 0.0171 0.52333 0.0
H3902 H 0.97086 0.02821 0.47842 0.0
H3903 H 0.98169 0.02391 0.49491 0.0
H3904 H 0.99379 0.96535 0.50374 0.0
C3905 C 0.04511 0.96931 0.53683 0.0
C3906 C 0.03251 0.00573 0.51916 0.0
C3907 C 0.05171 0.96691 0.54629 0.0
C3908 C 0.98564 0.01551 0.48082 0.0
C3909 C 0.99206 0.01307 0.49028 0.0
C3910 C 1.0052 0.97672 0.50792 0.0
C3911 C 0.02755 0.98583 0.53336 0.0
C3912 C 1.02259 0.98865 0.52321 0.0
C3913 C 1.01014 -0.00336 0.49373 0.0
C3914 C 1.01509 -0.0062 0.50387 0.0
H3915 H 1.01375 0.00837 0.55379 0.0
H3916 H 1.00158 0.01252 0.53726 0.0
H3917 H 1.00032 0.96091 0.52031 0.0
H3918 H 0.02544 0.97439 0.47327 0.0
H3919 H 0.03711 0.97013 0.48981 0.0
C3920 C 0.3027 0.21732 0.47999 0.0
C3921 C 0.29198 0.23151 0.47382 0.0
C3922 C 0.29705 0.21966 0.48948 0.0
C3923 C 0.24008 0.2483 0.50701 0.0
H3924 H 0.3319 0.2297 0.52316 0.0
C3925 C 0.24297 0.26573 0.5458 0.0
C3926 C 0.25371 0.25153 0.55196 0.0
C3927 C 0.24865 0.26342 0.53631 0.0
C3928 C 0.30569 0.23481 0.51877 0.0
H3929 H 0.26574 0.25912 0.47273 0.0
H3930 H 0.25599 0.2633 0.48932 0.0
H3931 H 0.33822 0.22533 0.50658 0.0
H3932 H 0.28001 0.22393 0.55304 0.0
H3933 H 0.28981 0.21979 0.53645 0.0
H3934 H 0.20754 0.25777 0.5192 0.0
C3935 C 0.26856 0.25028 0.48683 0.0
C3936 C 0.30929 0.23229 0.50924 0.0
C3937 C 0.27424 0.24793 0.47732 0.0
C3938 C 0.2715 0.23513 0.54846 0.0
C3939 C 0.27721 0.2328 0.53895 0.0
C3940 C 0.23648 0.25081 0.51654 0.0
C3941 C 0.28049 0.23626 0.49305 0.0
C3942 C 0.27651 0.23898 0.50322 0.0
C3943 C 0.26526 0.24683 0.53273 0.0
C3944 C 0.26925 0.24412 0.52256 0.0
H3945 H 0.31619 0.20446 0.4775 0.0
H3946 H 0.30576 0.20842 0.49402 0.0
H3947 H 0.21387 0.2534 0.50262 0.0
H3948 H 0.22943 0.27858 0.5483 0.0
H3949 H 0.23992 0.27466 0.53178 0.0
C3950 C 0.27232 0.98647 0.79915 0.0
C3951 C 0.29126 0.00268 0.80261 0.0
C3952 C 0.26603 0.98417 0.78966 0.0
C3953 C 0.3069 0.00153 0.76717 0.0
H3954 H 0.20292 0.97727 0.75744 0.0
C3955 C 0.26796 -0.0016 0.728 0.0
C3956 C 0.24891 0.98216 0.7246 0.0
C3957 C 0.27394 0.00089 0.73749 0.0
C3958 C 0.23246 0.98388 0.76004 0.0
H3959 H 0.31709 0.02943 0.79888 0.0
H3960 H 0.30567 0.02557 0.78238 0.0
H3961 H 0.21023 0.98176 0.774 0.0
H3962 H 0.22254 0.95556 0.72843 0.0
H3963 H 0.2335 0.95973 0.74493 0.0
H3964 H 0.32917 0.00362 0.75321 0.0
C3965 C 0.29642 0.01445 0.78694 0.0
C3966 C 0.23662 0.98647 0.76955 0.0
C3967 C 0.30265 0.01673 0.79642 0.0
C3968 C 0.23706 0.96828 0.73085 0.0
C3969 C 0.24303 0.97075 0.74032 0.0
C3970 C 0.30275 -0.00107 0.75765 0.0
C3971 C 0.27857 -0.00195 0.78341 0.0
C3972 C 0.2739 -0.00466 0.77325 0.0
C3973 C 0.26101 0.98717 0.7438 0.0
C3974 C 0.26551 0.99004 0.75395 0.0
H3975 H 0.26329 0.97538 0.80376 0.0
H3976 H 0.25249 0.97131 0.7872 0.0
H3977 H 0.33644 0.00814 0.76976 0.0
H3978 H 0.27735 0.00935 0.72334 0.0
H3979 H 0.28759 0.01377 0.73991 0.0
C3980 C 0.77619 0.74725 0.47694 0.0
C3981 C 0.7959 0.73114 0.47354 0.0
C3982 C 0.76968 0.7496 0.48643 0.0
C3983 C 0.81064 0.73267 0.50902 0.0
H3984 H 0.70542 0.75633 0.51854 0.0
C3985 C 0.76967 0.73541 0.54808 0.0
C3986 C 0.75012 0.75156 0.55147 0.0
C3987 C 0.77616 0.73301 0.5386 0.0
C3988 C 0.7353 0.74989 0.516 0.0
H3989 H 0.82296 0.70465 0.47736 0.0
H3990 H 0.81114 0.7086 0.49384 0.0
H3991 H 0.71352 0.75183 0.502 0.0
H3992 H 0.72334 0.77809 0.54762 0.0
H3993 H 0.73512 0.77405 0.53114 0.0
H3994 H 0.8324 0.73072 0.52302 0.0
C3995 C 0.80145 0.7196 0.48924 0.0
C3996 C 0.73992 0.7473 0.5065 0.0
C3997 C 0.80792 0.71727 0.47978 0.0
C3998 C 0.73825 0.76544 0.54522 0.0
C3999 C 0.7447 0.76305 0.53575 0.0
C4000 C 0.80601 0.73526 0.51852 0.0
C4001 C 0.78275 0.73589 0.49272 0.0
C4002 C 0.77765 0.73864 0.50286 0.0
C4003 C 0.76323 0.74671 0.53229 0.0
C4004 C 0.7683 0.74392 0.52215 0.0
H4005 H 0.76665 0.7582 0.47229 0.0
H4006 H 0.7555 0.76239 0.48884 0.0
H4007 H 0.84052 0.72624 0.50648 0.0
H4008 H 0.77908 0.72445 0.55274 0.0
H4009 H 0.79023 0.72019 0.5362 0.0
C4010 C 0.77387 -0.00352 0.22763 0.0
C4011 C 0.75553 0.98015 0.22417 0.0
C4012 C 0.78036 -0.00123 0.23712 0.0
C4013 C 0.78735 0.97295 0.25926 0.0
H4014 H 0.7583 0.02017 0.27003 0.0
C4015 C 0.78028 0.9839 0.29881 0.0
C4016 C 0.79918 0.0002 0.30218 0.0
C4017 C 0.77384 0.98143 0.28932 0.0
C4018 C 0.76697 0.00694 0.26714 0.0
H4019 H 0.73072 0.95323 0.2279 0.0
H4020 H 0.74164 0.95722 0.2444 0.0
H4021 H 0.75171 0.01586 0.25345 0.0
H4022 H 0.82517 0.02684 0.2983 0.0
H4023 H 0.81418 0.02255 0.28182 0.0
H4024 H 0.80253 0.96403 0.27296 0.0
C4025 C 0.75144 0.96824 0.23983 0.0
C4026 C 0.7633 0.00447 0.25761 0.0
C4027 C 0.74496 0.96598 0.23036 0.0
C4028 C 0.81048 0.01412 0.29591 0.0
C4029 C 0.80396 0.01169 0.28645 0.0
C4030 C 0.79097 0.97541 0.2688 0.0
C4031 C 0.76873 0.98475 0.24337 0.0
C4032 C 0.77349 0.98745 0.25352 0.0
C4033 C 0.78598 -0.00476 0.28301 0.0
C4034 C 0.7809 -0.00755 0.27287 0.0
H4035 H 0.78246 0.00763 0.22302 0.0
H4036 H 0.79442 0.01155 0.23956 0.0
H4037 H 0.79607 0.95973 0.25637 0.0
H4038 H 0.77116 0.97293 0.30348 0.0
H4039 H 0.75933 0.96869 0.28694 0.0
C4040 C 0.55957 0.46734 0.54544 0.0
C4041 C 0.54803 0.48123 0.55171 0.0
C4042 C 0.55326 0.46982 0.53598 0.0
C4043 C 0.54024 0.50625 0.51837 0.0
H4044 H 0.50194 0.46587 0.5029 0.0
C4045 C 0.49441 0.516 0.47995 0.0
C4046 C 0.50544 0.50196 0.47372 0.0
C4047 C 0.50082 0.51363 0.48941 0.0
C4048 C 0.51326 0.47724 0.50709 0.0
H4049 H 0.51974 0.50844 0.55302 0.0
H4050 H 0.50822 0.51277 0.53647 0.0
H4051 H 0.5083 0.46139 0.51947 0.0
H4052 H 0.53312 0.47462 0.4725 0.0
H4053 H 0.54493 0.47052 0.48904 0.0
H4054 H 0.54525 0.52209 0.50598 0.0
C4055 C 0.5228 0.50003 0.53885 0.0
C4056 C 0.5168 0.47468 0.51662 0.0
C4057 C 0.52906 0.49752 0.54834 0.0
C4058 C 0.52417 0.48566 0.47714 0.0
C4059 C 0.53057 0.48327 0.48663 0.0
C4060 C 0.53673 0.5088 0.50884 0.0
C4061 C 0.53521 0.48627 0.53254 0.0
C4062 C 0.53037 0.48914 0.52239 0.0
C4063 C 0.51849 0.49715 0.49291 0.0
C4064 C 0.5232 0.49433 0.50306 0.0
H4065 H 0.57432 0.45464 0.54783 0.0
H4066 H 0.56368 0.45901 0.53135 0.0
H4067 H 0.55153 0.51761 0.52257 0.0
H4068 H 0.47986 0.52872 0.47752 0.0
H4069 H 0.49068 0.52455 0.49401 0.0
C4070 C 0.48695 0.71834 0.79493 0.0
C4071 C 0.49871 0.73219 0.80121 0.0
C4072 C 0.49303 0.72086 0.78547 0.0
C4073 C 0.55294 0.74918 0.76821 0.0
H4074 H 0.46079 0.732 0.75177 0.0
C4075 C 0.55324 0.76721 0.72946 0.0
C4076 C 0.54216 0.75315 0.72325 0.0
C4077 C 0.54686 0.76487 0.73893 0.0
C4078 C 0.48707 0.73672 0.75625 0.0
H4079 H 0.52712 0.75938 0.80251 0.0
H4080 H 0.53756 0.76389 0.78596 0.0
H4081 H 0.45324 0.72741 0.76832 0.0
H4082 H 0.51457 0.72579 0.72206 0.0
H4083 H 0.5035 0.72163 0.73861 0.0
H4084 H 0.58675 0.75851 0.75614 0.0
C4085 C 0.52389 0.75099 0.78835 0.0
C4086 C 0.48278 0.73407 0.76576 0.0
C4087 C 0.5178 0.74845 0.79783 0.0
C4088 C 0.52337 0.73688 0.72668 0.0
C4089 C 0.51692 0.73454 0.73617 0.0
C4090 C 0.55721 0.75185 0.7587 0.0
C4091 C 0.51105 0.73731 0.78202 0.0
C4092 C 0.51569 0.74023 0.77188 0.0
C4093 C 0.52916 0.74841 0.74244 0.0
C4094 C 0.52435 0.74565 0.75258 0.0
H4095 H 0.4724 0.70561 0.79733 0.0
H4096 H 0.48357 0.70987 0.78085 0.0
H4097 H 0.57927 0.75388 0.77268 0.0
H4098 H 0.56756 0.77995 0.72702 0.0
H4099 H 0.5559 0.77599 0.74351 0.0
C4100 C 0.49356 0.21552 0.29584 0.0
C4101 C 0.50451 0.22965 0.30201 0.0
C4102 C 0.50002 0.21775 0.28636 0.0
C4103 C 0.5598 0.24584 0.269 0.0
H4104 H 0.46822 0.22826 0.25253 0.0
C4105 C 0.55971 0.2643 0.23035 0.0
C4106 C 0.54846 0.25044 0.22404 0.0
C4107 C 0.55362 0.2617 0.2398 0.0
C4108 C 0.49438 0.23307 0.25701 0.0
H4109 H 0.53192 0.25705 0.30313 0.0
H4110 H 0.5431 0.26104 0.28658 0.0
H4111 H 0.46056 0.22372 0.26908 0.0
H4112 H 0.52095 0.2231 0.22268 0.0
H4113 H 0.51045 0.21844 0.23923 0.0
H4114 H 0.59361 0.2552 0.25694 0.0
C4115 C 0.52975 0.24814 0.28905 0.0
C4116 C 0.49001 0.23046 0.26652 0.0
C4117 C 0.52323 0.2459 0.29854 0.0
C4118 C 0.52987 0.23405 0.22738 0.0
C4119 C 0.52375 0.23142 0.23686 0.0
C4120 C 0.56418 0.24845 0.25949 0.0
C4121 C 0.51767 0.23418 0.28281 0.0
C4122 C 0.52263 0.23683 0.27266 0.0
C4123 C 0.5361 0.24513 0.24322 0.0
C4124 C 0.53147 0.24215 0.25336 0.0
H4125 H 0.47928 0.20279 0.29831 0.0
H4126 H 0.49111 0.20656 0.28181 0.0
H4127 H 0.58593 0.25068 0.27348 0.0
H4128 H 0.57385 0.27714 0.22798 0.0
H4129 H 0.56267 0.27271 0.24444 0.0
C4130 C 0.52371 -0.00253 0.04892 0.0
C4131 C 0.54142 0.98104 0.05242 0.0
C4132 C 0.51786 -0.00018 0.03941 0.0
C4133 C 0.51127 0.97403 0.01728 0.0
H4134 H 0.54306 0.02094 1.0065 0.0
C4135 C 0.52167 0.98431 0.97776 0.0
C4136 C 0.50376 0.00068 0.97425 0.0
C4137 C 0.52743 0.982 0.98727 0.0
C4138 C 0.53362 0.00779 1.00939 0.0
H4139 H 0.56575 0.95402 0.04874 0.0
H4140 H 0.55588 0.9581 0.03222 0.0
H4141 H 0.54819 0.01672 0.02311 0.0
H4142 H 0.47899 0.02765 0.9779 0.0
H4143 H 0.48877 0.02364 0.99443 0.0
H4144 H 0.49674 0.96511 1.00356 0.0
C4145 C 0.54612 0.96916 0.03677 0.0
C4146 C 0.53645 0.00539 0.01894 0.0
C4147 C 0.55199 0.96684 0.04625 0.0
C4148 C 0.49291 0.01487 0.9804 0.0
C4149 C 0.49873 0.01259 0.98989 0.0
C4150 C 0.50846 0.97644 1.00773 0.0
C4151 C 0.52946 0.98575 0.03319 0.0
C4152 C 0.52534 0.98846 0.02303 0.0
C4153 C 0.51556 -0.00396 0.99348 0.0
C4154 C 0.51959 -0.00665 1.00365 0.0
H4155 H 0.51515 0.00864 0.05351 0.0
H4156 H 0.50431 0.01267 0.03693 0.0
H4157 H 0.50182 0.96089 0.02017 0.0
H4158 H 0.53046 0.97315 0.97318 0.0
H4159 H 0.54112 0.96918 0.98977 0.0
loop_
_geom_bond_atom_site_label_1
_geom_bond_atom_site_label_2
_geom_bond_distance
_geom_bond_site_symmetry_2
_ccdc_geom_bond_type
Tb0 C2 2.809 . S
Tb0 O20 2.484 . S
Tb0 O21 2.440 . S
Tb0 O22 2.658 1_655 S
Tb0 O23 2.416 . S
Tb0 O24 2.378 . S
Tb0 O28 2.325 1_655 S
Tb0 O31 2.341 1_655 S
Tb1 C11 2.809 . S
Tb1 O22 2.325 . S
Tb1 O25 2.341 . S
Tb1 O26 2.484 . S
Tb1 O27 2.440 . S
Tb1 O28 2.658 . S
Tb1 O29 2.409 . S
Tb1 O30 2.378 . S
C2 Tb0 2.809 . S
C2 C3 1.514 . S
C2 O20 1.248 . S
C2 O21 1.266 . S
C3 C2 1.514 . S
C3 C4 1.359 . S
C3 C8 1.348 . S
C4 C3 1.359 . S
C4 C5 1.380 . S
C4 H32 0.929 . S
C5 C4 1.380 . S
C5 C6 1.347 . S
C5 H33 0.931 . S
C6 C5 1.347 . S
C6 C7 1.369 . S
C7 C6 1.369 . S
C7 C8 1.408 . S
C7 H34 0.930 . S
C8 C3 1.348 . S
C8 C7 1.408 . S
C8 H35 0.930 . S
C9 O22 1.281 . S
C9 O23 1.230 1_455 S
C10 O24 1.236 . S
C10 O25 1.266 1_655 S
C11 Tb1 2.809 . S
C11 C12 1.514 . S
C11 O26 1.248 . S
C11 O27 1.266 . S
C12 C11 1.514 . S
C12 C13 1.359 . S
C12 C17 1.348 . S
C13 C12 1.359 . S
C13 C14 1.380 . S
C13 H36 0.929 . S
C14 C13 1.380 . S
C14 C15 1.347 . S
C14 H37 0.931 . S
C15 C14 1.347 . S
C15 C16 1.369 . S
C16 C15 1.369 . S
C16 C17 1.408 . S
C16 H38 0.930 . S
C17 C12 1.348 . S
C17 C16 1.408 . S
C17 H39 0.930 . S
C18 O28 1.281 . S
C18 O29 1.254 . S
C19 O30 1.236 . S
C19 O31 1.266 . S
O20 Tb0 2.484 . S
O20 C2 1.248 . S
O21 Tb0 2.440 . S
O21 C2 1.266 . S
O22 Tb0 2.658 1_455 S
O22 Tb1 2.325 . S
O22 C9 1.281 . S
O23 Tb0 2.416 . S
O23 C9 1.230 1_655 S
O24 Tb0 2.378 . S
O24 C10 1.236 . S
O25 Tb1 2.341 . S
O25 C10 1.266 1_455 S
O26 Tb1 2.484 . S
O26 C11 1.248 . S
O27 Tb1 2.440 . S
O27 C11 1.266 . S
O28 Tb0 2.325 1_455 S
O28 Tb1 2.658 . S
O28 C18 1.281 . S
O29 Tb1 2.409 . S
O29 C18 1.254 . S
O30 Tb1 2.378 . S
O30 C19 1.236 . S
O31 Tb0 2.341 1_455 S
O31 C19 1.266 . S
H32 C4 0.929 . S
H33 C5 0.931 . S
H34 C7 0.930 . S
H35 C8 0.930 . S
H36 C13 0.929 . S
H37 C14 0.931 . S
H38 C16 0.930 . S
H39 C17 0.930 . S
Tb40 C42 2.809 . S
Tb40 O60 2.484 . S
Tb40 O61 2.440 . S
Tb40 O62 2.658 . S
Tb40 O63 2.409 . S
Tb40 O64 2.378 . S
Tb40 O68 2.325 . S
Tb40 O71 2.341 . S
Tb41 C51 2.809 . S
Tb41 O62 2.325 . S
Tb41 O65 2.341 . S
Tb41 O66 2.484 . S
Tb41 O67 2.440 . S
Tb41 O68 2.658 . S
Tb41 O69 2.409 . S
Tb41 O70 2.378 . S
C42 Tb40 2.809 . S
C42 C43 1.514 . S
C42 O60 1.248 . S
C42 O61 1.266 . S
C43 C42 1.514 . S
C43 C44 1.359 . S
C43 C48 1.348 . S
C44 C43 1.359 . S
C44 C45 1.380 . S
C44 H72 0.929 . S
C45 C44 1.380 . S
C45 C46 1.347 . S
C45 H73 0.931 . S
C46 C45 1.347 . S
C46 C47 1.369 . S
C47 C46 1.369 . S
C47 C48 1.408 . S
C47 H74 0.930 . S
C48 C43 1.348 . S
C48 C47 1.408 . S
C48 H75 0.930 . S
C49 O62 1.281 . S
C49 O63 1.254 . S
C50 O64 1.236 . S
C50 O65 1.266 . S
C51 Tb41 2.809 . S
C51 C52 1.514 . S
C51 O66 1.248 . S
C51 O67 1.266 . S
C52 C51 1.514 . S
C52 C53 1.359 . S
C52 C57 1.348 . S
C53 C52 1.359 . S
C53 C54 1.380 1_455 S
C53 H76 0.929 . S
C54 C53 1.380 1_655 S
C54 C55 1.347 . S
C54 H77 0.931 . S
C55 C54 1.347 . S
C55 C56 1.369 . S
C56 C55 1.369 . S
C56 C57 1.408 1_655 S
C56 H78 0.930 . S
C57 C52 1.348 . S
C57 C56 1.408 1_455 S
C57 H79 0.930 . S
C58 O68 1.281 . S
C58 O69 1.254 . S
C59 O70 1.236 . S
C59 O71 1.266 . S
O60 Tb40 2.484 . S
O60 C42 1.248 . S
O61 Tb40 2.440 . S
O61 C42 1.266 . S
O62 Tb40 2.658 . S
O62 Tb41 2.325 . S
O62 C49 1.281 . S
O63 Tb40 2.409 . S
O63 C49 1.254 . S
O64 Tb40 2.378 . S
O64 C50 1.236 . S
O65 Tb41 2.341 . S
O65 C50 1.266 . S
O66 Tb41 2.484 . S
O66 C51 1.248 . S
O67 Tb41 2.440 . S
O67 C51 1.266 . S
O68 Tb40 2.325 . S
O68 Tb41 2.658 . S
O68 C58 1.281 . S
O69 Tb41 2.409 . S
O69 C58 1.254 . S
O70 Tb41 2.378 . S
O70 C59 1.236 . S
O71 Tb40 2.341 . S
O71 C59 1.266 . S
H72 C44 0.929 . S
H73 C45 0.931 . S
H74 C47 0.930 . S
H75 C48 0.930 . S
H76 C53 0.929 . S
H77 C54 0.931 . S
H78 C56 0.930 . S
H79 C57 0.930 . S
Tb80 C82 2.809 . S
Tb80 O100 2.484 . S
Tb80 O101 2.440 . S
Tb80 O102 2.658 1_655 S
Tb80 O103 2.416 . S
Tb80 O104 2.378 . S
Tb80 O108 2.325 1_655 S
Tb80 O111 2.341 1_655 S
Tb81 C91 2.809 . S
Tb81 O102 2.325 . S
Tb81 O105 2.341 . S
Tb81 O106 2.484 . S
Tb81 O107 2.440 . S
Tb81 O108 2.658 . S
Tb81 O109 2.409 . S
Tb81 O110 2.378 . S
C82 Tb80 2.809 . S
C82 C83 1.514 . S
C82 O100 1.248 . S
C82 O101 1.266 . S
C83 C82 1.514 . S
C83 C84 1.359 . S
C83 C88 1.348 . S
C84 C83 1.359 . S
C84 C85 1.380 . S
C84 H112 0.929 . S
C85 C84 1.380 . S
C85 C86 1.347 . S
C85 H113 0.931 . S
C86 C85 1.347 . S
C86 C87 1.369 . S
C87 C86 1.369 . S
C87 C88 1.408 . S
C87 H114 0.930 . S
C88 C83 1.348 . S
C88 C87 1.408 . S
C88 H115 0.930 . S
C89 O102 1.281 . S
C89 O103 1.230 1_455 S
C90 O104 1.236 . S
C90 O105 1.266 1_655 S
C91 Tb81 2.809 . S
C91 C92 1.514 . S
C91 O106 1.248 . S
C91 O107 1.266 . S
C92 C91 1.514 . S
C92 C93 1.359 . S
C92 C97 1.348 . S
C93 C92 1.359 . S
C93 C94 1.380 . S
C93 H116 0.929 . S
C94 C93 1.380 . S
C94 C95 1.347 . S
C94 H117 0.931 . S
C95 C94 1.347 . S
C95 C96 1.369 . S
C96 C95 1.369 . S
C96 C97 1.408 . S
C96 H118 0.930 . S
C97 C92 1.348 . S
C97 C96 1.408 . S
C97 H119 0.930 . S
C98 O108 1.281 . S
C98 O109 1.254 . S
C99 O110 1.236 . S
C99 O111 1.266 . S
O100 Tb80 2.484 . S
O100 C82 1.248 . S
O101 Tb80 2.440 . S
O101 C82 1.266 . S
O102 Tb80 2.658 1_455 S
O102 Tb81 2.325 . S
O102 C89 1.281 . S
O103 Tb80 2.416 . S
O103 C89 1.230 1_655 S
O104 Tb80 2.378 . S
O104 C90 1.236 . S
O105 Tb81 2.341 . S
O105 C90 1.266 1_455 S
O106 Tb81 2.484 . S
O106 C91 1.248 . S
O107 Tb81 2.440 . S
O107 C91 1.266 . S
O108 Tb80 2.325 1_455 S
O108 Tb81 2.658 . S
O108 C98 1.281 . S
O109 Tb81 2.409 . S
O109 C98 1.254 . S
O110 Tb81 2.378 . S
O110 C99 1.236 . S
O111 Tb80 2.341 1_455 S
O111 C99 1.266 . S
H112 C84 0.929 . S
H113 C85 0.931 . S
H114 C87 0.930 . S
H115 C88 0.930 . S
H116 C93 0.929 . S
H117 C94 0.931 . S
H118 C96 0.930 . S
H119 C97 0.930 . S
Tb120 C122 2.809 . S
Tb120 O140 2.484 . S
Tb120 O141 2.440 . S
Tb120 O142 2.658 . S
Tb120 O143 2.409 . S
Tb120 O144 2.378 . S
Tb120 O148 2.325 . S
Tb120 O151 2.341 . S
Tb121 C131 2.809 . S
Tb121 O142 2.325 . S
Tb121 O145 2.341 . S
Tb121 O146 2.484 . S
Tb121 O147 2.440 . S
Tb121 O148 2.658 . S
Tb121 O149 2.409 . S
Tb121 O150 2.378 . S
C122 Tb120 2.809 . S
C122 C123 1.514 . S
C122 O140 1.248 . S
C122 O141 1.266 . S
C123 C122 1.514 . S
C123 C124 1.359 . S
C123 C128 1.348 . S
C124 C123 1.359 . S
C124 C125 1.380 . S
C124 H152 0.929 . S
C125 C124 1.380 . S
C125 C126 1.347 . S
C125 H153 0.931 . S
C126 C125 1.347 . S
C126 C127 1.369 . S
C127 C126 1.369 . S
C127 C128 1.408 . S
C127 H154 0.930 . S
C128 C123 1.348 . S
C128 C127 1.408 . S
C128 H155 0.930 . S
C129 O142 1.281 . S
C129 O143 1.254 . S
C130 O144 1.236 . S
C130 O145 1.266 . S
C131 Tb121 2.809 . S
C131 C132 1.514 . S
C131 O146 1.248 . S
C131 O147 1.266 . S
C132 C131 1.514 . S
C132 C133 1.359 . S
C132 C137 1.348 . S
C133 C132 1.359 . S
C133 C134 1.380 1_455 S
C133 H156 0.929 . S
C134 C133 1.380 1_655 S
C134 C135 1.347 . S
C134 H157 0.931 . S
C135 C134 1.347 . S
C135 C136 1.369 . S
C136 C135 1.369 . S
C136 C137 1.408 1_655 S
C136 H158 0.930 . S
C137 C132 1.348 . S
C137 C136 1.408 1_455 S
C137 H159 0.930 . S
C138 O148 1.281 . S
C138 O149 1.254 . S
C139 O150 1.236 . S
C139 O151 1.266 . S
O140 Tb120 2.484 . S
O140 C122 1.248 . S
O141 Tb120 2.440 . S
O141 C122 1.266 . S
O142 Tb120 2.658 . S
O142 Tb121 2.325 . S
O142 C129 1.281 . S
O143 Tb120 2.409 . S
O143 C129 1.254 . S
O144 Tb120 2.378 . S
O144 C130 1.236 . S
O145 Tb121 2.341 . S
O145 C130 1.266 . S
O146 Tb121 2.484 . S
O146 C131 1.248 . S
O147 Tb121 2.440 . S
O147 C131 1.266 . S
O148 Tb120 2.325 . S
O148 Tb121 2.658 . S
O148 C138 1.281 . S
O149 Tb121 2.409 . S
O149 C138 1.254 . S
O150 Tb121 2.378 . S
O150 C139 1.236 . S
O151 Tb120 2.341 . S
O151 C139 1.266 . S
H152 C124 0.929 . S
H153 C125 0.931 . S
H154 C127 0.930 . S
H155 C128 0.930 . S
H156 C133 0.929 . S
H157 C134 0.931 . S
H158 C136 0.930 . S
H159 C137 0.930 . S
Tb160 C162 2.809 . S
Tb160 O180 2.484 . S
Tb160 O181 2.440 . S
Tb160 O182 2.658 . S
Tb160 O183 2.409 . S
Tb160 O184 2.378 . S
Tb160 O188 2.325 . S
Tb160 O191 2.341 . S
Tb161 C171 2.809 . S
Tb161 O182 2.325 1_455 S
Tb161 O185 2.341 1_455 S
Tb161 O186 2.484 . S
Tb161 O187 2.440 . S
Tb161 O188 2.658 1_455 S
Tb161 O189 2.416 . S
Tb161 O190 2.378 . S
C162 Tb160 2.809 . S
C162 C163 1.514 . S
C162 O180 1.248 . S
C162 O181 1.266 . S
C163 C162 1.514 . S
C163 C164 1.359 . S
C163 C168 1.348 . S
C164 C163 1.359 . S
C164 C165 1.380 . S
C164 H192 0.929 . S
C165 C164 1.380 . S
C165 C166 1.347 . S
C165 H193 0.931 . S
C166 C165 1.347 . S
C166 C167 1.369 . S
C167 C166 1.369 . S
C167 C168 1.408 . S
C167 H194 0.930 . S
C168 C163 1.348 . S
C168 C167 1.408 . S
C168 H195 0.930 . S
C169 O182 1.281 . S
C169 O183 1.254 . S
C170 O184 1.236 . S
C170 O185 1.266 . S
C171 Tb161 2.809 . S
C171 C172 1.514 . S
C171 O186 1.248 . S
C171 O187 1.266 . S
C172 C171 1.514 . S
C172 C173 1.359 . S
C172 C177 1.348 . S
C173 C172 1.359 . S
C173 C174 1.380 . S
C173 H196 0.929 . S
C174 C173 1.380 . S
C174 C175 1.347 . S
C174 H197 0.931 . S
C175 C174 1.347 . S
C175 C176 1.369 . S
C176 C175 1.369 . S
C176 C177 1.408 . S
C176 H198 0.930 . S
C177 C172 1.348 . S
C177 C176 1.408 . S
C177 H199 0.930 . S
C178 O188 1.281 . S
C178 O189 1.230 1_655 S
C179 O190 1.236 . S
C179 O191 1.266 1_455 S
O180 Tb160 2.484 . S
O180 C162 1.248 . S
O181 Tb160 2.440 . S
O181 C162 1.266 . S
O182 Tb160 2.658 . S
O182 Tb161 2.325 1_655 S
O182 C169 1.281 . S
O183 Tb160 2.409 . S
O183 C169 1.254 . S
O184 Tb160 2.378 . S
O184 C170 1.236 . S
O185 Tb161 2.341 1_655 S
O185 C170 1.266 . S
O186 Tb161 2.484 . S
O186 C171 1.248 . S
O187 Tb161 2.440 . S
O187 C171 1.266 . S
O188 Tb160 2.325 . S
O188 Tb161 2.658 1_655 S
O188 C178 1.281 . S
O189 Tb161 2.416 . S
O189 C178 1.230 1_455 S
O190 Tb161 2.378 . S
O190 C179 1.236 . S
O191 Tb160 2.341 . S
O191 C179 1.266 1_655 S
H192 C164 0.929 . S
H193 C165 0.931 . S
H194 C167 0.930 . S
H195 C168 0.930 . S
H196 C173 0.929 . S
H197 C174 0.931 . S
H198 C176 0.930 . S
H199 C177 0.930 . S
Tb200 C202 2.809 . S
Tb200 O220 2.484 . S
Tb200 O221 2.440 . S
Tb200 O222 2.658 . S
Tb200 O223 2.409 . S
Tb200 O224 2.378 . S
Tb200 O228 2.325 . S
Tb200 O231 2.341 . S
Tb201 C211 2.809 . S
Tb201 O222 2.325 . S
Tb201 O225 2.341 . S
Tb201 O226 2.484 . S
Tb201 O227 2.440 . S
Tb201 O228 2.658 . S
Tb201 O229 2.409 . S
Tb201 O230 2.378 . S
C202 Tb200 2.809 . S
C202 C203 1.514 . S
C202 O220 1.248 . S
C202 O221 1.266 . S
C203 C202 1.514 . S
C203 C204 1.359 . S
C203 C208 1.348 . S
C204 C203 1.359 . S
C204 C205 1.380 1_655 S
C204 H232 0.929 . S
C205 C204 1.380 1_455 S
C205 C206 1.347 . S
C205 H233 0.931 . S
C206 C205 1.347 . S
C206 C207 1.369 . S
C207 C206 1.369 . S
C207 C208 1.408 1_455 S
C207 H234 0.930 . S
C208 C203 1.348 . S
C208 C207 1.408 1_655 S
C208 H235 0.930 . S
C209 O222 1.281 . S
C209 O223 1.254 . S
C210 O224 1.236 . S
C210 O225 1.266 . S
C211 Tb201 2.809 . S
C211 C212 1.514 . S
C211 O226 1.248 . S
C211 O227 1.266 . S
C212 C211 1.514 . S
C212 C213 1.359 . S
C212 C217 1.348 . S
C213 C212 1.359 . S
C213 C214 1.380 . S
C213 H236 0.929 . S
C214 C213 1.380 . S
C214 C215 1.347 . S
C214 H237 0.931 . S
C215 C214 1.347 . S
C215 C216 1.369 . S
C216 C215 1.369 . S
C216 C217 1.408 . S
C216 H238 0.930 . S
C217 C212 1.348 . S
C217 C216 1.408 . S
C217 H239 0.930 . S
C218 O228 1.281 . S
C218 O229 1.254 . S
C219 O230 1.236 . S
C219 O231 1.266 . S
O220 Tb200 2.484 . S
O220 C202 1.248 . S
O221 Tb200 2.440 . S
O221 C202 1.266 . S
O222 Tb200 2.658 . S
O222 Tb201 2.325 . S
O222 C209 1.281 . S
O223 Tb200 2.409 . S
O223 C209 1.254 . S
O224 Tb200 2.378 . S
O224 C210 1.236 . S
O225 Tb201 2.341 . S
O225 C210 1.266 . S
O226 Tb201 2.484 . S
O226 C211 1.248 . S
O227 Tb201 2.440 . S
O227 C211 1.266 . S
O228 Tb200 2.325 . S
O228 Tb201 2.658 . S
O228 C218 1.281 . S
O229 Tb201 2.409 . S
O229 C218 1.254 . S
O230 Tb201 2.378 . S
O230 C219 1.236 . S
O231 Tb200 2.341 . S
O231 C219 1.266 . S
H232 C204 0.929 . S
H233 C205 0.931 . S
H234 C207 0.930 . S
H235 C208 0.930 . S
H236 C213 0.929 . S
H237 C214 0.931 . S
H238 C216 0.930 . S
H239 C217 0.930 . S
Tb240 C242 2.809 . S
Tb240 O260 2.484 . S
Tb240 O261 2.440 . S
Tb240 O262 2.658 . S
Tb240 O263 2.409 . S
Tb240 O264 2.378 . S
Tb240 O268 2.325 . S
Tb240 O271 2.341 . S
Tb241 C251 2.809 . S
Tb241 O262 2.325 1_455 S
Tb241 O265 2.341 1_455 S
Tb241 O266 2.484 . S
Tb241 O267 2.440 . S
Tb241 O268 2.658 1_455 S
Tb241 O269 2.416 . S
Tb241 O270 2.378 . S
C242 Tb240 2.809 . S
C242 C243 1.514 . S
C242 O260 1.248 . S
C242 O261 1.266 . S
C243 C242 1.514 . S
C243 C244 1.359 . S
C243 C248 1.348 . S
C244 C243 1.359 . S
C244 C245 1.380 . S
C244 H272 0.929 . S
C245 C244 1.380 . S
C245 C246 1.347 . S
C245 H273 0.931 . S
C246 C245 1.347 . S
C246 C247 1.369 . S
C247 C246 1.369 . S
C247 C248 1.408 . S
C247 H274 0.930 . S
C248 C243 1.348 . S
C248 C247 1.408 . S
C248 H275 0.930 . S
C249 O262 1.281 . S
C249 O263 1.254 . S
C250 O264 1.236 . S
C250 O265 1.266 . S
C251 Tb241 2.809 . S
C251 C252 1.514 . S
C251 O266 1.248 . S
C251 O267 1.266 . S
C252 C251 1.514 . S
C252 C253 1.359 . S
C252 C257 1.348 . S
C253 C252 1.359 . S
C253 C254 1.380 . S
C253 H276 0.929 . S
C254 C253 1.380 . S
C254 C255 1.347 . S
C254 H277 0.931 . S
C255 C254 1.347 . S
C255 C256 1.369 . S
C256 C255 1.369 . S
C256 C257 1.408 . S
C256 H278 0.930 . S
C257 C252 1.348 . S
C257 C256 1.408 . S
C257 H279 0.930 . S
C258 O268 1.281 . S
C258 O269 1.230 1_655 S
C259 O270 1.236 . S
C259 O271 1.266 1_455 S
O260 Tb240 2.484 . S
O260 C242 1.248 . S
O261 Tb240 2.440 . S
O261 C242 1.266 . S
O262 Tb240 2.658 . S
O262 Tb241 2.325 1_655 S
O262 C249 1.281 . S
O263 Tb240 2.409 . S
O263 C249 1.254 . S
O264 Tb240 2.378 . S
O264 C250 1.236 . S
O265 Tb241 2.341 1_655 S
O265 C250 1.266 . S
O266 Tb241 2.484 . S
O266 C251 1.248 . S
O267 Tb241 2.440 . S
O267 C251 1.266 . S
O268 Tb240 2.325 . S
O268 Tb241 2.658 1_655 S
O268 C258 1.281 . S
O269 Tb241 2.416 . S
O269 C258 1.230 1_455 S
O270 Tb241 2.378 . S
O270 C259 1.236 . S
O271 Tb240 2.341 . S
O271 C259 1.266 1_655 S
H272 C244 0.929 . S
H273 C245 0.931 . S
H274 C247 0.930 . S
H275 C248 0.930 . S
H276 C253 0.929 . S
H277 C254 0.931 . S
H278 C256 0.930 . S
H279 C257 0.930 . S
Tb280 C282 2.809 . S
Tb280 O300 2.484 . S
Tb280 O301 2.440 . S
Tb280 O302 2.658 . S
Tb280 O303 2.409 . S
Tb280 O304 2.378 . S
Tb280 O308 2.325 . S
Tb280 O311 2.341 . S
Tb281 C291 2.809 . S
Tb281 O302 2.325 . S
Tb281 O305 2.341 . S
Tb281 O306 2.484 . S
Tb281 O307 2.440 . S
Tb281 O308 2.658 . S
Tb281 O309 2.409 . S
Tb281 O310 2.378 . S
C282 Tb280 2.809 . S
C282 C283 1.514 . S
C282 O300 1.248 . S
C282 O301 1.266 . S
C283 C282 1.514 . S
C283 C284 1.359 . S
C283 C288 1.348 . S
C284 C283 1.359 . S
C284 C285 1.380 1_655 S
C284 H312 0.929 . S
C285 C284 1.380 1_455 S
C285 C286 1.347 . S
C285 H313 0.931 . S
C286 C285 1.347 . S
C286 C287 1.369 . S
C287 C286 1.369 . S
C287 C288 1.408 1_455 S
C287 H314 0.930 . S
C288 C283 1.348 . S
C288 C287 1.408 1_655 S
C288 H315 0.930 . S
C289 O302 1.281 . S
C289 O303 1.254 . S
C290 O304 1.236 . S
C290 O305 1.266 . S
C291 Tb281 2.809 . S
C291 C292 1.514 . S
C291 O306 1.248 . S
C291 O307 1.266 . S
C292 C291 1.514 . S
C292 C293 1.359 . S
C292 C297 1.348 . S
C293 C292 1.359 . S
C293 C294 1.380 . S
C293 H316 0.929 . S
C294 C293 1.380 . S
C294 C295 1.347 . S
C294 H317 0.931 . S
C295 C294 1.347 . S
C295 C296 1.369 . S
C296 C295 1.369 . S
C296 C297 1.408 . S
C296 H318 0.930 . S
C297 C292 1.348 . S
C297 C296 1.408 . S
C297 H319 0.930 . S
C298 O308 1.281 . S
C298 O309 1.254 . S
C299 O310 1.236 . S
C299 O311 1.266 . S
O300 Tb280 2.484 . S
O300 C282 1.248 . S
O301 Tb280 2.440 . S
O301 C282 1.266 . S
O302 Tb280 2.658 . S
O302 Tb281 2.325 . S
O302 C289 1.281 . S
O303 Tb280 2.409 . S
O303 C289 1.254 . S
O304 Tb280 2.378 . S
O304 C290 1.236 . S
O305 Tb281 2.341 . S
O305 C290 1.266 . S
O306 Tb281 2.484 . S
O306 C291 1.248 . S
O307 Tb281 2.440 . S
O307 C291 1.266 . S
O308 Tb280 2.325 . S
O308 Tb281 2.658 . S
O308 C298 1.281 . S
O309 Tb281 2.409 . S
O309 C298 1.254 . S
O310 Tb281 2.378 . S
O310 C299 1.236 . S
O311 Tb280 2.341 . S
O311 C299 1.266 . S
H312 C284 0.929 . S
H313 C285 0.931 . S
H314 C287 0.930 . S
H315 C288 0.930 . S
H316 C293 0.929 . S
H317 C294 0.931 . S
H318 C296 0.930 . S
H319 C297 0.930 . S
Tb320 C322 2.809 1_545 S
Tb320 O340 2.484 1_545 S
Tb320 O341 2.440 . S
Tb320 O342 2.658 1_645 S
Tb320 O343 2.416 . S
Tb320 O344 2.378 1_545 S
Tb320 O348 2.325 1_645 S
Tb320 O351 2.341 1_655 S
Tb321 C331 2.809 . S
Tb321 O342 2.325 . S
Tb321 O345 2.341 . S
Tb321 O346 2.484 . S
Tb321 O347 2.440 . S
Tb321 O348 2.658 . S
Tb321 O349 2.409 . S
Tb321 O350 2.378 1_565 S
C322 Tb320 2.809 1_565 S
C322 C323 1.514 . S
C322 O340 1.248 . S
C322 O341 1.266 1_565 S
C323 C322 1.514 . S
C323 C324 1.359 . S
C323 C328 1.348 . S
C324 C323 1.359 . S
C324 C325 1.380 . S
C324 H352 0.929 . S
C325 C324 1.380 . S
C325 C326 1.347 . S
C325 H353 0.931 . S
C326 C325 1.347 . S
C326 C327 1.369 . S
C327 C326 1.369 . S
C327 C328 1.408 . S
C327 H354 0.930 . S
C328 C323 1.348 . S
C328 C327 1.408 . S
C328 H355 0.930 . S
C329 O342 1.281 . S
C329 O343 1.230 1_465 S
C330 O344 1.236 . S
C330 O345 1.266 1_655 S
C331 Tb321 2.809 . S
C331 C332 1.514 . S
C331 O346 1.248 . S
C331 O347 1.266 . S
C332 C331 1.514 . S
C332 C333 1.359 1_565 S
C332 C337 1.348 . S
C333 C332 1.359 1_545 S
C333 C334 1.380 . S
C333 H356 0.929 . S
C334 C333 1.380 . S
C334 C335 1.347 . S
C334 H357 0.931 . S
C335 C334 1.347 . S
C335 C336 1.369 . S
C336 C335 1.369 . S
C336 C337 1.408 1_545 S
C336 H358 0.933 . S
C337 C332 1.348 . S
C337 C336 1.408 1_565 S
C337 H359 0.930 . S
C338 O348 1.281 . S
C338 O349 1.254 . S
C339 O350 1.236 . S
C339 O351 1.266 . S
O340 Tb320 2.484 1_565 S
O340 C322 1.248 . S
O341 Tb320 2.440 . S
O341 C322 1.266 1_545 S
O342 Tb320 2.658 1_465 S
O342 Tb321 2.325 . S
O342 C329 1.281 . S
O343 Tb320 2.416 . S
O343 C329 1.230 1_645 S
O344 Tb320 2.378 1_565 S
O344 C330 1.236 . S
O345 Tb321 2.341 . S
O345 C330 1.266 1_455 S
O346 Tb321 2.484 . S
O346 C331 1.248 . S
O347 Tb321 2.440 . S
O347 C331 1.266 . S
O348 Tb320 2.325 1_465 S
O348 Tb321 2.658 . S
O348 C338 1.281 . S
O349 Tb321 2.409 . S
O349 C338 1.254 . S
O350 Tb321 2.378 1_545 S
O350 C339 1.236 . S
O351 Tb320 2.341 1_455 S
O351 C339 1.266 . S
H352 C324 0.929 . S
H353 C325 0.931 . S
H354 C327 0.930 . S
H355 C328 0.930 . S
H356 C333 0.929 . S
H357 C334 0.931 . S
H358 C336 0.933 . S
H359 C337 0.930 . S
Tb360 C362 2.809 . S
Tb360 O380 2.484 . S
Tb360 O381 2.440 . S
Tb360 O382 2.658 . S
Tb360 O383 2.409 . S
Tb360 O384 2.378 . S
Tb360 O388 2.325 . S
Tb360 O391 2.341 . S
Tb361 C371 2.809 . S
Tb361 O382 2.325 . S
Tb361 O385 2.341 . S
Tb361 O386 2.484 . S
Tb361 O387 2.440 . S
Tb361 O388 2.658 . S
Tb361 O389 2.409 . S
Tb361 O390 2.378 . S
C362 Tb360 2.809 . S
C362 C363 1.514 . S
C362 O380 1.248 . S
C362 O381 1.266 . S
C363 C362 1.514 . S
C363 C364 1.359 . S
C363 C368 1.348 . S
C364 C363 1.359 . S
C364 C365 1.380 . S
C364 H392 0.929 . S
C365 C364 1.380 . S
C365 C366 1.347 . S
C365 H393 0.931 . S
C366 C365 1.347 . S
C366 C367 1.369 . S
C367 C366 1.369 . S
C367 C368 1.408 . S
C367 H394 0.930 . S
C368 C363 1.348 . S
C368 C367 1.408 . S
C368 H395 0.930 . S
C369 O382 1.281 . S
C369 O383 1.254 . S
C370 O384 1.236 . S
C370 O385 1.266 . S
C371 Tb361 2.809 . S
C371 C372 1.514 . S
C371 O386 1.248 . S
C371 O387 1.266 . S
C372 C371 1.514 . S
C372 C373 1.359 . S
C372 C377 1.348 . S
C373 C372 1.359 . S
C373 C374 1.380 1_455 S
C373 H396 0.929 . S
C374 C373 1.380 1_655 S
C374 C375 1.347 . S
C374 H397 0.931 . S
C375 C374 1.347 . S
C375 C376 1.369 . S
C376 C375 1.369 . S
C376 C377 1.408 1_655 S
C376 H398 0.930 . S
C377 C372 1.348 . S
C377 C376 1.408 1_455 S
C377 H399 0.930 . S
C378 O388 1.281 . S
C378 O389 1.254 . S
C379 O390 1.236 . S
C379 O391 1.266 . S
O380 Tb360 2.484 . S
O380 C362 1.248 . S
O381 Tb360 2.440 . S
O381 C362 1.266 . S
O382 Tb360 2.658 . S
O382 Tb361 2.325 . S
O382 C369 1.281 . S
O383 Tb360 2.409 . S
O383 C369 1.254 . S
O384 Tb360 2.378 . S
O384 C370 1.236 . S
O385 Tb361 2.341 . S
O385 C370 1.266 . S
O386 Tb361 2.484 . S
O386 C371 1.248 . S
O387 Tb361 2.440 . S
O387 C371 1.266 . S
O388 Tb360 2.325 . S
O388 Tb361 2.658 . S
O388 C378 1.281 . S
O389 Tb361 2.409 . S
O389 C378 1.254 . S
O390 Tb361 2.378 . S
O390 C379 1.236 . S
O391 Tb360 2.341 . S
O391 C379 1.266 . S
H392 C364 0.929 . S
H393 C365 0.931 . S
H394 C367 0.930 . S
H395 C368 0.930 . S
H396 C373 0.929 . S
H397 C374 0.931 . S
H398 C376 0.930 . S
H399 C377 0.930 . S
Tb400 C402 2.809 . S
Tb400 O420 2.484 . S
Tb400 O421 2.440 . S
Tb400 O422 2.658 1_655 S
Tb400 O423 2.416 . S
Tb400 O424 2.378 . S
Tb400 O428 2.325 1_655 S
Tb400 O431 2.341 1_655 S
Tb401 C411 2.809 . S
Tb401 O422 2.325 . S
Tb401 O425 2.341 . S
Tb401 O426 2.484 . S
Tb401 O427 2.440 . S
Tb401 O428 2.658 . S
Tb401 O429 2.409 . S
Tb401 O430 2.378 . S
C402 Tb400 2.809 . S
C402 C403 1.514 . S
C402 O420 1.248 . S
C402 O421 1.266 . S
C403 C402 1.514 . S
C403 C404 1.359 . S
C403 C408 1.348 . S
C404 C403 1.359 . S
C404 C405 1.380 . S
C404 H432 0.929 . S
C405 C404 1.380 . S
C405 C406 1.347 . S
C405 H433 0.931 . S
C406 C405 1.347 . S
C406 C407 1.369 . S
C407 C406 1.369 . S
C407 C408 1.408 . S
C407 H434 0.930 . S
C408 C403 1.348 . S
C408 C407 1.408 . S
C408 H435 0.930 . S
C409 O422 1.281 . S
C409 O423 1.230 1_455 S
C410 O424 1.236 . S
C410 O425 1.266 1_655 S
C411 Tb401 2.809 . S
C411 C412 1.514 . S
C411 O426 1.248 . S
C411 O427 1.266 . S
C412 C411 1.514 . S
C412 C413 1.359 . S
C412 C417 1.348 . S
C413 C412 1.359 . S
C413 C414 1.380 . S
C413 H436 0.929 . S
C414 C413 1.380 . S
C414 C415 1.347 . S
C414 H437 0.931 . S
C415 C414 1.347 . S
C415 C416 1.369 . S
C416 C415 1.369 . S
C416 C417 1.408 . S
C416 H438 0.930 . S
C417 C412 1.348 . S
C417 C416 1.408 . S
C417 H439 0.930 . S
C418 O428 1.281 . S
C418 O429 1.254 . S
C419 O430 1.236 . S
C419 O431 1.266 . S
O420 Tb400 2.484 . S
O420 C402 1.248 . S
O421 Tb400 2.440 . S
O421 C402 1.266 . S
O422 Tb400 2.658 1_455 S
O422 Tb401 2.325 . S
O422 C409 1.281 . S
O423 Tb400 2.416 . S
O423 C409 1.230 1_655 S
O424 Tb400 2.378 . S
O424 C410 1.236 . S
O425 Tb401 2.341 . S
O425 C410 1.266 1_455 S
O426 Tb401 2.484 . S
O426 C411 1.248 . S
O427 Tb401 2.440 . S
O427 C411 1.266 . S
O428 Tb400 2.325 1_455 S
O428 Tb401 2.658 . S
O428 C418 1.281 . S
O429 Tb401 2.409 . S
O429 C418 1.254 . S
O430 Tb401 2.378 . S
O430 C419 1.236 . S
O431 Tb400 2.341 1_455 S
O431 C419 1.266 . S
H432 C404 0.929 . S
H433 C405 0.931 . S
H434 C407 0.930 . S
H435 C408 0.930 . S
H436 C413 0.929 . S
H437 C414 0.931 . S
H438 C416 0.930 . S
H439 C417 0.930 . S
Tb440 C442 2.809 1_545 S
Tb440 O460 2.484 1_545 S
Tb440 O461 2.440 . S
Tb440 O462 2.658 1_545 S
Tb440 O463 2.409 . S
Tb440 O464 2.378 1_545 S
Tb440 O468 2.325 1_545 S
Tb440 O471 2.341 . S
Tb441 C451 2.809 . S
Tb441 O462 2.325 . S
Tb441 O465 2.341 . S
Tb441 O466 2.484 . S
Tb441 O467 2.440 . S
Tb441 O468 2.658 . S
Tb441 O469 2.409 . S
Tb441 O470 2.378 1_565 S
C442 Tb440 2.809 1_565 S
C442 C443 1.514 . S
C442 O460 1.248 . S
C442 O461 1.266 1_565 S
C443 C442 1.514 . S
C443 C444 1.359 . S
C443 C448 1.348 . S
C444 C443 1.359 . S
C444 C445 1.380 . S
C444 H472 0.929 . S
C445 C444 1.380 . S
C445 C446 1.347 . S
C445 H473 0.931 . S
C446 C445 1.347 . S
C446 C447 1.369 . S
C447 C446 1.369 . S
C447 C448 1.408 . S
C447 H474 0.930 . S
C448 C443 1.348 . S
C448 C447 1.408 . S
C448 H475 0.930 . S
C449 O462 1.281 . S
C449 O463 1.254 1_565 S
C450 O464 1.236 . S
C450 O465 1.266 . S
C451 Tb441 2.809 . S
C451 C452 1.514 . S
C451 O466 1.248 . S
C451 O467 1.266 . S
C452 C451 1.514 . S
C452 C453 1.359 1_565 S
C452 C457 1.348 . S
C453 C452 1.359 1_545 S
C453 C454 1.380 1_455 S
C453 H476 0.929 . S
C454 C453 1.380 1_655 S
C454 C455 1.347 . S
C454 H477 0.931 . S
C455 C454 1.347 . S
C455 C456 1.369 . S
C456 C455 1.369 . S
C456 C457 1.408 1_645 S
C456 H478 0.933 . S
C457 C452 1.348 . S
C457 C456 1.408 1_465 S
C457 H479 0.930 . S
C458 O468 1.281 . S
C458 O469 1.254 . S
C459 O470 1.236 . S
C459 O471 1.266 . S
O460 Tb440 2.484 1_565 S
O460 C442 1.248 . S
O461 Tb440 2.440 . S
O461 C442 1.266 1_545 S
O462 Tb440 2.658 1_565 S
O462 Tb441 2.325 . S
O462 C449 1.281 . S
O463 Tb440 2.409 . S
O463 C449 1.254 1_545 S
O464 Tb440 2.378 1_565 S
O464 C450 1.236 . S
O465 Tb441 2.341 . S
O465 C450 1.266 . S
O466 Tb441 2.484 . S
O466 C451 1.248 . S
O467 Tb441 2.440 . S
O467 C451 1.266 . S
O468 Tb440 2.325 1_565 S
O468 Tb441 2.658 . S
O468 C458 1.281 . S
O469 Tb441 2.409 . S
O469 C458 1.254 . S
O470 Tb441 2.378 1_545 S
O470 C459 1.236 . S
O471 Tb440 2.341 . S
O471 C459 1.266 . S
H472 C444 0.929 . S
H473 C445 0.931 . S
H474 C447 0.930 . S
H475 C448 0.930 . S
H476 C453 0.929 . S
H477 C454 0.931 . S
H478 C456 0.933 . S
H479 C457 0.930 . S
Tb480 C482 2.809 . S
Tb480 O500 2.484 . S
Tb480 O501 2.440 . S
Tb480 O502 2.658 . S
Tb480 O503 2.409 . S
Tb480 O504 2.378 1_545 S
Tb480 O508 2.325 . S
Tb480 O511 2.341 . S
Tb481 C491 2.809 1_565 S
Tb481 O502 2.325 1_465 S
Tb481 O505 2.341 1_455 S
Tb481 O506 2.484 1_565 S
Tb481 O507 2.440 . S
Tb481 O508 2.658 1_465 S
Tb481 O509 2.416 . S
Tb481 O510 2.378 1_565 S
C482 Tb480 2.809 . S
C482 C483 1.514 . S
C482 O500 1.248 . S
C482 O501 1.266 . S
C483 C482 1.514 . S
C483 C484 1.359 1_545 S
C483 C488 1.348 . S
C484 C483 1.359 1_565 S
C484 C485 1.380 . S
C484 H512 0.929 . S
C485 C484 1.380 . S
C485 C486 1.347 . S
C485 H513 0.931 . S
C486 C485 1.347 . S
C486 C487 1.369 . S
C487 C486 1.369 . S
C487 C488 1.408 1_565 S
C487 H514 0.933 . S
C488 C483 1.348 . S
C488 C487 1.408 1_545 S
C488 H515 0.930 . S
C489 O502 1.281 . S
C489 O503 1.254 . S
C490 O504 1.236 . S
C490 O505 1.266 . S
C491 Tb481 2.809 1_545 S
C491 C492 1.514 . S
C491 O506 1.248 . S
C491 O507 1.266 1_545 S
C492 C491 1.514 . S
C492 C493 1.359 . S
C492 C497 1.348 . S
C493 C492 1.359 . S
C493 C494 1.380 . S
C493 H516 0.929 . S
C494 C493 1.380 . S
C494 C495 1.347 . S
C494 H517 0.931 . S
C495 C494 1.347 . S
C495 C496 1.369 . S
C496 C495 1.369 . S
C496 C497 1.408 . S
C496 H518 0.930 . S
C497 C492 1.348 . S
C497 C496 1.408 . S
C497 H519 0.930 . S
C498 O508 1.281 . S
C498 O509 1.230 1_645 S
C499 O510 1.236 . S
C499 O511 1.266 1_455 S
O500 Tb480 2.484 . S
O500 C482 1.248 . S
O501 Tb480 2.440 . S
O501 C482 1.266 . S
O502 Tb480 2.658 . S
O502 Tb481 2.325 1_645 S
O502 C489 1.281 . S
O503 Tb480 2.409 . S
O503 C489 1.254 . S
O504 Tb480 2.378 1_565 S
O504 C490 1.236 . S
O505 Tb481 2.341 1_655 S
O505 C490 1.266 . S
O506 Tb481 2.484 1_545 S
O506 C491 1.248 . S
O507 Tb481 2.440 . S
O507 C491 1.266 1_565 S
O508 Tb480 2.325 . S
O508 Tb481 2.658 1_645 S
O508 C498 1.281 . S
O509 Tb481 2.416 . S
O509 C498 1.230 1_465 S
O510 Tb481 2.378 1_545 S
O510 C499 1.236 . S
O511 Tb480 2.341 . S
O511 C499 1.266 1_655 S
H512 C484 0.929 . S
H513 C485 0.931 . S
H514 C487 0.933 . S
H515 C488 0.930 . S
H516 C493 0.929 . S
H517 C494 0.931 . S
H518 C496 0.930 . S
H519 C497 0.930 . S
Tb520 C522 2.809 . S
Tb520 O540 2.484 . S
Tb520 O541 2.440 . S
Tb520 O542 2.658 . S
Tb520 O543 2.409 . S
Tb520 O544 2.378 . S
Tb520 O548 2.325 . S
Tb520 O551 2.341 . S
Tb521 C531 2.809 . S
Tb521 O542 2.325 . S
Tb521 O545 2.341 . S
Tb521 O546 2.484 . S
Tb521 O547 2.440 . S
Tb521 O548 2.658 . S
Tb521 O549 2.409 . S
Tb521 O550 2.378 . S
C522 Tb520 2.809 . S
C522 C523 1.514 . S
C522 O540 1.248 . S
C522 O541 1.266 . S
C523 C522 1.514 . S
C523 C524 1.359 . S
C523 C528 1.348 . S
C524 C523 1.359 . S
C524 C525 1.380 1_655 S
C524 H552 0.929 . S
C525 C524 1.380 1_455 S
C525 C526 1.347 . S
C525 H553 0.931 . S
C526 C525 1.347 . S
C526 C527 1.369 . S
C527 C526 1.369 . S
C527 C528 1.408 1_455 S
C527 H554 0.930 . S
C528 C523 1.348 . S
C528 C527 1.408 1_655 S
C528 H555 0.930 . S
C529 O542 1.281 . S
C529 O543 1.254 . S
C530 O544 1.236 . S
C530 O545 1.266 . S
C531 Tb521 2.809 . S
C531 C532 1.514 . S
C531 O546 1.248 . S
C531 O547 1.266 . S
C532 C531 1.514 . S
C532 C533 1.359 . S
C532 C537 1.348 . S
C533 C532 1.359 . S
C533 C534 1.380 . S
C533 H556 0.929 . S
C534 C533 1.380 . S
C534 C535 1.347 . S
C534 H557 0.931 . S
C535 C534 1.347 . S
C535 C536 1.369 . S
C536 C535 1.369 . S
C536 C537 1.408 . S
C536 H558 0.930 . S
C537 C532 1.348 . S
C537 C536 1.408 . S
C537 H559 0.930 . S
C538 O548 1.281 . S
C538 O549 1.254 . S
C539 O550 1.236 . S
C539 O551 1.266 . S
O540 Tb520 2.484 . S
O540 C522 1.248 . S
O541 Tb520 2.440 . S
O541 C522 1.266 . S
O542 Tb520 2.658 . S
O542 Tb521 2.325 . S
O542 C529 1.281 . S
O543 Tb520 2.409 . S
O543 C529 1.254 . S
O544 Tb520 2.378 . S
O544 C530 1.236 . S
O545 Tb521 2.341 . S
O545 C530 1.266 . S
O546 Tb521 2.484 . S
O546 C531 1.248 . S
O547 Tb521 2.440 . S
O547 C531 1.266 . S
O548 Tb520 2.325 . S
O548 Tb521 2.658 . S
O548 C538 1.281 . S
O549 Tb521 2.409 . S
O549 C538 1.254 . S
O550 Tb521 2.378 . S
O550 C539 1.236 . S
O551 Tb520 2.341 . S
O551 C539 1.266 . S
H552 C524 0.929 . S
H553 C525 0.931 . S
H554 C527 0.930 . S
H555 C528 0.930 . S
H556 C533 0.929 . S
H557 C534 0.931 . S
H558 C536 0.930 . S
H559 C537 0.930 . S
Tb560 C562 2.809 . S
Tb560 O580 2.484 . S
Tb560 O581 2.440 . S
Tb560 O582 2.658 . S
Tb560 O583 2.409 . S
Tb560 O584 2.378 . S
Tb560 O588 2.325 . S
Tb560 O591 2.341 . S
Tb561 C571 2.809 . S
Tb561 O582 2.325 1_455 S
Tb561 O585 2.341 1_455 S
Tb561 O586 2.484 . S
Tb561 O587 2.440 . S
Tb561 O588 2.658 1_455 S
Tb561 O589 2.416 . S
Tb561 O590 2.378 . S
C562 Tb560 2.809 . S
C562 C563 1.514 . S
C562 O580 1.248 . S
C562 O581 1.266 . S
C563 C562 1.514 . S
C563 C564 1.359 . S
C563 C568 1.348 . S
C564 C563 1.359 . S
C564 C565 1.380 . S
C564 H592 0.929 . S
C565 C564 1.380 . S
C565 C566 1.347 . S
C565 H593 0.931 . S
C566 C565 1.347 . S
C566 C567 1.369 . S
C567 C566 1.369 . S
C567 C568 1.408 . S
C567 H594 0.930 . S
C568 C563 1.348 . S
C568 C567 1.408 . S
C568 H595 0.930 . S
C569 O582 1.281 . S
C569 O583 1.254 . S
C570 O584 1.236 . S
C570 O585 1.266 . S
C571 Tb561 2.809 . S
C571 C572 1.514 . S
C571 O586 1.248 . S
C571 O587 1.266 . S
C572 C571 1.514 . S
C572 C573 1.359 . S
C572 C577 1.348 . S
C573 C572 1.359 . S
C573 C574 1.380 . S
C573 H596 0.929 . S
C574 C573 1.380 . S
C574 C575 1.347 . S
C574 H597 0.931 . S
C575 C574 1.347 . S
C575 C576 1.369 . S
C576 C575 1.369 . S
C576 C577 1.408 . S
C576 H598 0.930 . S
C577 C572 1.348 . S
C577 C576 1.408 . S
C577 H599 0.930 . S
C578 O588 1.281 . S
C578 O589 1.230 1_655 S
C579 O590 1.236 . S
C579 O591 1.266 1_455 S
O580 Tb560 2.484 . S
O580 C562 1.248 . S
O581 Tb560 2.440 . S
O581 C562 1.266 . S
O582 Tb560 2.658 . S
O582 Tb561 2.325 1_655 S
O582 C569 1.281 . S
O583 Tb560 2.409 . S
O583 C569 1.254 . S
O584 Tb560 2.378 . S
O584 C570 1.236 . S
O585 Tb561 2.341 1_655 S
O585 C570 1.266 . S
O586 Tb561 2.484 . S
O586 C571 1.248 . S
O587 Tb561 2.440 . S
O587 C571 1.266 . S
O588 Tb560 2.325 . S
O588 Tb561 2.658 1_655 S
O588 C578 1.281 . S
O589 Tb561 2.416 . S
O589 C578 1.230 1_455 S
O590 Tb561 2.378 . S
O590 C579 1.236 . S
O591 Tb560 2.341 . S
O591 C579 1.266 1_655 S
H592 C564 0.929 . S
H593 C565 0.931 . S
H594 C567 0.930 . S
H595 C568 0.930 . S
H596 C573 0.929 . S
H597 C574 0.931 . S
H598 C576 0.930 . S
H599 C577 0.930 . S
Tb600 C602 2.809 . S
Tb600 O620 2.484 . S
Tb600 O621 2.440 . S
Tb600 O622 2.658 . S
Tb600 O623 2.409 . S
Tb600 O624 2.378 1_545 S
Tb600 O628 2.325 . S
Tb600 O631 2.341 . S
Tb601 C611 2.809 1_565 S
Tb601 O622 2.325 1_565 S
Tb601 O625 2.341 . S
Tb601 O626 2.484 1_565 S
Tb601 O627 2.440 . S
Tb601 O628 2.658 1_565 S
Tb601 O629 2.409 . S
Tb601 O630 2.378 1_565 S
C602 Tb600 2.809 . S
C602 C603 1.514 . S
C602 O620 1.248 . S
C602 O621 1.266 . S
C603 C602 1.514 . S
C603 C604 1.359 1_545 S
C603 C608 1.348 . S
C604 C603 1.359 1_565 S
C604 C605 1.380 1_655 S
C604 H632 0.929 . S
C605 C604 1.380 1_455 S
C605 C606 1.347 . S
C605 H633 0.931 . S
C606 C605 1.347 . S
C606 C607 1.369 . S
C607 C606 1.369 . S
C607 C608 1.408 1_465 S
C607 H634 0.933 . S
C608 C603 1.348 . S
C608 C607 1.408 1_645 S
C608 H635 0.930 . S
C609 O622 1.281 . S
C609 O623 1.254 . S
C610 O624 1.236 . S
C610 O625 1.266 . S
C611 Tb601 2.809 1_545 S
C611 C612 1.514 . S
C611 O626 1.248 . S
C611 O627 1.266 1_545 S
C612 C611 1.514 . S
C612 C613 1.359 . S
C612 C617 1.348 . S
C613 C612 1.359 . S
C613 C614 1.380 . S
C613 H636 0.929 . S
C614 C613 1.380 . S
C614 C615 1.347 . S
C614 H637 0.931 . S
C615 C614 1.347 . S
C615 C616 1.369 . S
C616 C615 1.369 . S
C616 C617 1.408 . S
C616 H638 0.930 . S
C617 C612 1.348 . S
C617 C616 1.408 . S
C617 H639 0.930 . S
C618 O628 1.281 . S
C618 O629 1.254 1_545 S
C619 O630 1.236 . S
C619 O631 1.266 . S
O620 Tb600 2.484 . S
O620 C602 1.248 . S
O621 Tb600 2.440 . S
O621 C602 1.266 . S
O622 Tb600 2.658 . S
O622 Tb601 2.325 1_545 S
O622 C609 1.281 . S
O623 Tb600 2.409 . S
O623 C609 1.254 . S
O624 Tb600 2.378 1_565 S
O624 C610 1.236 . S
O625 Tb601 2.341 . S
O625 C610 1.266 . S
O626 Tb601 2.484 1_545 S
O626 C611 1.248 . S
O627 Tb601 2.440 . S
O627 C611 1.266 1_565 S
O628 Tb600 2.325 . S
O628 Tb601 2.658 1_545 S
O628 C618 1.281 . S
O629 Tb601 2.409 . S
O629 C618 1.254 1_565 S
O630 Tb601 2.378 1_545 S
O630 C619 1.236 . S
O631 Tb600 2.341 . S
O631 C619 1.266 . S
H632 C604 0.929 . S
H633 C605 0.931 . S
H634 C607 0.933 . S
H635 C608 0.930 . S
H636 C613 0.929 . S
H637 C614 0.931 . S
H638 C616 0.930 . S
H639 C617 0.930 . S
Tb640 C642 2.809 . S
Tb640 O660 2.484 . S
Tb640 O661 2.440 . S
Tb640 O662 2.658 . S
Tb640 O663 2.409 . S
Tb640 O664 2.378 . S
Tb640 O668 2.325 . S
Tb640 O671 2.341 . S
Tb641 C651 2.809 . S
Tb641 O662 2.325 . S
Tb641 O665 2.341 . S
Tb641 O666 2.484 . S
Tb641 O667 2.440 . S
Tb641 O668 2.658 . S
Tb641 O669 2.409 . S
Tb641 O670 2.378 . S
C642 Tb640 2.809 . S
C642 C643 1.514 . S
C642 O660 1.248 . S
C642 O661 1.266 . S
C643 C642 1.514 . S
C643 C644 1.359 . S
C643 C648 1.348 . S
C644 C643 1.359 . S
C644 C645 1.380 . S
C644 H672 0.929 . S
C645 C644 1.380 . S
C645 C646 1.347 . S
C645 H673 0.931 . S
C646 C645 1.347 . S
C646 C647 1.369 . S
C647 C646 1.369 . S
C647 C648 1.408 . S
C647 H674 0.930 . S
C648 C643 1.348 . S
C648 C647 1.408 . S
C648 H675 0.930 . S
C649 O662 1.281 . S
C649 O663 1.254 . S
C650 O664 1.236 . S
C650 O665 1.266 . S
C651 Tb641 2.809 . S
C651 C652 1.514 . S
C651 O666 1.248 . S
C651 O667 1.266 . S
C652 C651 1.514 . S
C652 C653 1.359 . S
C652 C657 1.348 . S
C653 C652 1.359 . S
C653 C654 1.380 . S
C653 H676 0.929 . S
C654 C653 1.380 . S
C654 C655 1.347 . S
C654 H677 0.931 . S
C655 C654 1.347 . S
C655 C656 1.369 . S
C656 C655 1.369 . S
C656 C657 1.408 . S
C656 H678 0.930 . S
C657 C652 1.348 . S
C657 C656 1.408 . S
C657 H679 0.930 . S
C658 O668 1.281 . S
C658 O669 1.254 . S
C659 O670 1.236 . S
C659 O671 1.266 . S
O660 Tb640 2.484 . S
O660 C642 1.248 . S
O661 Tb640 2.440 . S
O661 C642 1.266 . S
O662 Tb640 2.658 . S
O662 Tb641 2.325 . S
O662 C649 1.281 . S
O663 Tb640 2.409 . S
O663 C649 1.254 . S
O664 Tb640 2.378 . S
O664 C650 1.236 . S
O665 Tb641 2.341 . S
O665 C650 1.266 . S
O666 Tb641 2.484 . S
O666 C651 1.248 . S
O667 Tb641 2.440 . S
O667 C651 1.266 . S
O668 Tb640 2.325 . S
O668 Tb641 2.658 . S
O668 C658 1.281 . S
O669 Tb641 2.409 . S
O669 C658 1.254 . S
O670 Tb641 2.378 . S
O670 C659 1.236 . S
O671 Tb640 2.341 . S
O671 C659 1.266 . S
H672 C644 0.929 . S
H673 C645 0.931 . S
H674 C647 0.930 . S
H675 C648 0.930 . S
H676 C653 0.929 . S
H677 C654 0.931 . S
H678 C656 0.930 . S
H679 C657 0.930 . S
Tb680 C682 2.809 . S
Tb680 O700 2.484 . S
Tb680 O701 2.440 . S
Tb680 O702 2.658 . S
Tb680 O703 2.409 . S
Tb680 O704 2.378 . S
Tb680 O708 2.325 . S
Tb680 O711 2.341 . S
Tb681 C691 2.809 . S
Tb681 O702 2.325 . S
Tb681 O705 2.341 . S
Tb681 O706 2.484 . S
Tb681 O707 2.440 . S
Tb681 O708 2.658 . S
Tb681 O709 2.409 . S
Tb681 O710 2.378 . S
C682 Tb680 2.809 . S
C682 C683 1.514 . S
C682 O700 1.248 . S
C682 O701 1.266 . S
C683 C682 1.514 . S
C683 C684 1.359 . S
C683 C688 1.348 . S
C684 C683 1.359 . S
C684 C685 1.380 . S
C684 H712 0.929 . S
C685 C684 1.380 . S
C685 C686 1.347 . S
C685 H713 0.931 . S
C686 C685 1.347 . S
C686 C687 1.369 . S
C687 C686 1.369 . S
C687 C688 1.408 . S
C687 H714 0.930 . S
C688 C683 1.348 . S
C688 C687 1.408 . S
C688 H715 0.930 . S
C689 O702 1.281 . S
C689 O703 1.254 . S
C690 O704 1.236 . S
C690 O705 1.266 . S
C691 Tb681 2.809 . S
C691 C692 1.514 . S
C691 O706 1.248 . S
C691 O707 1.266 . S
C692 C691 1.514 . S
C692 C693 1.359 . S
C692 C697 1.348 . S
C693 C692 1.359 . S
C693 C694 1.380 . S
C693 H716 0.929 . S
C694 C693 1.380 . S
C694 C695 1.347 . S
C694 H717 0.931 . S
C695 C694 1.347 . S
C695 C696 1.369 . S
C696 C695 1.369 . S
C696 C697 1.408 . S
C696 H718 0.930 . S
C697 C692 1.348 . S
C697 C696 1.408 . S
C697 H719 0.930 . S
C698 O708 1.281 . S
C698 O709 1.254 . S
C699 O710 1.236 . S
C699 O711 1.266 . S
O700 Tb680 2.484 . S
O700 C682 1.248 . S
O701 Tb680 2.440 . S
O701 C682 1.266 . S
O702 Tb680 2.658 . S
O702 Tb681 2.325 . S
O702 C689 1.281 . S
O703 Tb680 2.409 . S
O703 C689 1.254 . S
O704 Tb680 2.378 . S
O704 C690 1.236 . S
O705 Tb681 2.341 . S
O705 C690 1.266 . S
O706 Tb681 2.484 . S
O706 C691 1.248 . S
O707 Tb681 2.440 . S
O707 C691 1.266 . S
O708 Tb680 2.325 . S
O708 Tb681 2.658 . S
O708 C698 1.281 . S
O709 Tb681 2.409 . S
O709 C698 1.254 . S
O710 Tb681 2.378 . S
O710 C699 1.236 . S
O711 Tb680 2.341 . S
O711 C699 1.266 . S
H712 C684 0.929 . S
H713 C685 0.931 . S
H714 C687 0.930 . S
H715 C688 0.930 . S
H716 C693 0.929 . S
H717 C694 0.931 . S
H718 C696 0.930 . S
H719 C697 0.930 . S
Tb720 C722 2.809 . S
Tb720 O740 2.484 . S
Tb720 O741 2.440 . S
Tb720 O742 2.658 . S
Tb720 O743 2.409 . S
Tb720 O744 2.378 . S
Tb720 O748 2.325 . S
Tb720 O751 2.341 . S
Tb721 C731 2.809 . S
Tb721 O742 2.325 . S
Tb721 O745 2.341 . S
Tb721 O746 2.484 . S
Tb721 O747 2.440 . S
Tb721 O748 2.658 . S
Tb721 O749 2.409 . S
Tb721 O750 2.378 . S
C722 Tb720 2.809 . S
C722 C723 1.514 . S
C722 O740 1.248 . S
C722 O741 1.266 . S
C723 C722 1.514 . S
C723 C724 1.359 . S
C723 C728 1.348 . S
C724 C723 1.359 . S
C724 C725 1.380 . S
C724 H752 0.929 . S
C725 C724 1.380 . S
C725 C726 1.347 . S
C725 H753 0.931 . S
C726 C725 1.347 . S
C726 C727 1.369 . S
C727 C726 1.369 . S
C727 C728 1.408 . S
C727 H754 0.930 . S
C728 C723 1.348 . S
C728 C727 1.408 . S
C728 H755 0.930 . S
C729 O742 1.281 . S
C729 O743 1.254 . S
C730 O744 1.236 . S
C730 O745 1.266 . S
C731 Tb721 2.809 . S
C731 C732 1.514 . S
C731 O746 1.248 . S
C731 O747 1.266 . S
C732 C731 1.514 . S
C732 C733 1.359 . S
C732 C737 1.348 . S
C733 C732 1.359 . S
C733 C734 1.380 . S
C733 H756 0.929 . S
C734 C733 1.380 . S
C734 C735 1.347 . S
C734 H757 0.931 . S
C735 C734 1.347 . S
C735 C736 1.369 . S
C736 C735 1.369 . S
C736 C737 1.408 . S
C736 H758 0.930 . S
C737 C732 1.348 . S
C737 C736 1.408 . S
C737 H759 0.930 . S
C738 O748 1.281 . S
C738 O749 1.254 . S
C739 O750 1.236 . S
C739 O751 1.266 . S
O740 Tb720 2.484 . S
O740 C722 1.248 . S
O741 Tb720 2.440 . S
O741 C722 1.266 . S
O742 Tb720 2.658 . S
O742 Tb721 2.325 . S
O742 C729 1.281 . S
O743 Tb720 2.409 . S
O743 C729 1.254 . S
O744 Tb720 2.378 . S
O744 C730 1.236 . S
O745 Tb721 2.341 . S
O745 C730 1.266 . S
O746 Tb721 2.484 . S
O746 C731 1.248 . S
O747 Tb721 2.440 . S
O747 C731 1.266 . S
O748 Tb720 2.325 . S
O748 Tb721 2.658 . S
O748 C738 1.281 . S
O749 Tb721 2.409 . S
O749 C738 1.254 . S
O750 Tb721 2.378 . S
O750 C739 1.236 . S
O751 Tb720 2.341 . S
O751 C739 1.266 . S
H752 C724 0.929 . S
H753 C725 0.931 . S
H754 C727 0.930 . S
H755 C728 0.930 . S
H756 C733 0.929 . S
H757 C734 0.931 . S
H758 C736 0.930 . S
H759 C737 0.930 . S
Tb760 C762 2.809 . S
Tb760 O780 2.484 . S
Tb760 O781 2.440 . S
Tb760 O782 2.658 . S
Tb760 O783 2.409 . S
Tb760 O784 2.378 . S
Tb760 O788 2.325 . S
Tb760 O791 2.341 . S
Tb761 C771 2.809 . S
Tb761 O782 2.325 . S
Tb761 O785 2.341 . S
Tb761 O786 2.484 . S
Tb761 O787 2.440 . S
Tb761 O788 2.658 . S
Tb761 O789 2.409 . S
Tb761 O790 2.378 . S
C762 Tb760 2.809 . S
C762 C763 1.514 . S
C762 O780 1.248 . S
C762 O781 1.266 . S
C763 C762 1.514 . S
C763 C764 1.359 . S
C763 C768 1.348 . S
C764 C763 1.359 . S
C764 C765 1.380 . S
C764 H792 0.929 . S
C765 C764 1.380 . S
C765 C766 1.347 . S
C765 H793 0.931 . S
C766 C765 1.347 . S
C766 C767 1.369 . S
C767 C766 1.369 . S
C767 C768 1.408 . S
C767 H794 0.930 . S
C768 C763 1.348 . S
C768 C767 1.408 . S
C768 H795 0.930 . S
C769 O782 1.281 . S
C769 O783 1.254 . S
C770 O784 1.236 . S
C770 O785 1.266 . S
C771 Tb761 2.809 . S
C771 C772 1.514 . S
C771 O786 1.248 . S
C771 O787 1.266 . S
C772 C771 1.514 . S
C772 C773 1.359 . S
C772 C777 1.348 . S
C773 C772 1.359 . S
C773 C774 1.380 . S
C773 H796 0.929 . S
C774 C773 1.380 . S
C774 C775 1.347 . S
C774 H797 0.931 . S
C775 C774 1.347 . S
C775 C776 1.369 . S
C776 C775 1.369 . S
C776 C777 1.408 . S
C776 H798 0.930 . S
C777 C772 1.348 . S
C777 C776 1.408 . S
C777 H799 0.930 . S
C778 O788 1.281 . S
C778 O789 1.254 . S
C779 O790 1.236 . S
C779 O791 1.266 . S
O780 Tb760 2.484 . S
O780 C762 1.248 . S
O781 Tb760 2.440 . S
O781 C762 1.266 . S
O782 Tb760 2.658 . S
O782 Tb761 2.325 . S
O782 C769 1.281 . S
O783 Tb760 2.409 . S
O783 C769 1.254 . S
O784 Tb760 2.378 . S
O784 C770 1.236 . S
O785 Tb761 2.341 . S
O785 C770 1.266 . S
O786 Tb761 2.484 . S
O786 C771 1.248 . S
O787 Tb761 2.440 . S
O787 C771 1.266 . S
O788 Tb760 2.325 . S
O788 Tb761 2.658 . S
O788 C778 1.281 . S
O789 Tb761 2.409 . S
O789 C778 1.254 . S
O790 Tb761 2.378 . S
O790 C779 1.236 . S
O791 Tb760 2.341 . S
O791 C779 1.266 . S
H792 C764 0.929 . S
H793 C765 0.931 . S
H794 C767 0.930 . S
H795 C768 0.930 . S
H796 C773 0.929 . S
H797 C774 0.931 . S
H798 C776 0.930 . S
H799 C777 0.930 . S
Tb800 C802 2.809 . S
Tb800 O820 2.484 . S
Tb800 O821 2.440 . S
Tb800 O822 2.658 . S
Tb800 O823 2.409 . S
Tb800 O824 2.378 . S
Tb800 O828 2.325 . S
Tb800 O831 2.341 . S
Tb801 C811 2.809 . S
Tb801 O822 2.325 . S
Tb801 O825 2.341 . S
Tb801 O826 2.484 . S
Tb801 O827 2.440 . S
Tb801 O828 2.658 . S
Tb801 O829 2.409 . S
Tb801 O830 2.378 . S
C802 Tb800 2.809 . S
C802 C803 1.514 . S
C802 O820 1.248 . S
C802 O821 1.266 . S
C803 C802 1.514 . S
C803 C804 1.359 . S
C803 C808 1.348 . S
C804 C803 1.359 . S
C804 C805 1.380 . S
C804 H832 0.929 . S
C805 C804 1.380 . S
C805 C806 1.347 . S
C805 H833 0.931 . S
C806 C805 1.347 . S
C806 C807 1.369 . S
C807 C806 1.369 . S
C807 C808 1.408 . S
C807 H834 0.930 . S
C808 C803 1.348 . S
C808 C807 1.408 . S
C808 H835 0.930 . S
C809 O822 1.281 . S
C809 O823 1.254 . S
C810 O824 1.236 . S
C810 O825 1.266 . S
C811 Tb801 2.809 . S
C811 C812 1.514 . S
C811 O826 1.248 . S
C811 O827 1.266 . S
C812 C811 1.514 . S
C812 C813 1.359 . S
C812 C817 1.348 . S
C813 C812 1.359 . S
C813 C814 1.380 . S
C813 H836 0.929 . S
C814 C813 1.380 . S
C814 C815 1.347 . S
C814 H837 0.931 . S
C815 C814 1.347 . S
C815 C816 1.369 . S
C816 C815 1.369 . S
C816 C817 1.408 . S
C816 H838 0.930 . S
C817 C812 1.348 . S
C817 C816 1.408 . S
C817 H839 0.930 . S
C818 O828 1.281 . S
C818 O829 1.254 . S
C819 O830 1.236 . S
C819 O831 1.266 . S
O820 Tb800 2.484 . S
O820 C802 1.248 . S
O821 Tb800 2.440 . S
O821 C802 1.266 . S
O822 Tb800 2.658 . S
O822 Tb801 2.325 . S
O822 C809 1.281 . S
O823 Tb800 2.409 . S
O823 C809 1.254 . S
O824 Tb800 2.378 . S
O824 C810 1.236 . S
O825 Tb801 2.341 . S
O825 C810 1.266 . S
O826 Tb801 2.484 . S
O826 C811 1.248 . S
O827 Tb801 2.440 . S
O827 C811 1.266 . S
O828 Tb800 2.325 . S
O828 Tb801 2.658 . S
O828 C818 1.281 . S
O829 Tb801 2.409 . S
O829 C818 1.254 . S
O830 Tb801 2.378 . S
O830 C819 1.236 . S
O831 Tb800 2.341 . S
O831 C819 1.266 . S
H832 C804 0.929 . S
H833 C805 0.931 . S
H834 C807 0.930 . S
H835 C808 0.930 . S
H836 C813 0.929 . S
H837 C814 0.931 . S
H838 C816 0.930 . S
H839 C817 0.930 . S
Tb840 C842 2.809 . S
Tb840 O860 2.484 . S
Tb840 O861 2.440 . S
Tb840 O862 2.658 . S
Tb840 O863 2.409 . S
Tb840 O864 2.378 . S
Tb840 O868 2.325 . S
Tb840 O871 2.341 . S
Tb841 C851 2.809 . S
Tb841 O862 2.325 . S
Tb841 O865 2.341 . S
Tb841 O866 2.484 . S
Tb841 O867 2.440 . S
Tb841 O868 2.658 . S
Tb841 O869 2.409 . S
Tb841 O870 2.378 . S
C842 Tb840 2.809 . S
C842 C843 1.514 . S
C842 O860 1.248 . S
C842 O861 1.266 . S
C843 C842 1.514 . S
C843 C844 1.359 . S
C843 C848 1.348 . S
C844 C843 1.359 . S
C844 C845 1.380 . S
C844 H872 0.929 . S
C845 C844 1.380 . S
C845 C846 1.347 . S
C845 H873 0.931 . S
C846 C845 1.347 . S
C846 C847 1.369 . S
C847 C846 1.369 . S
C847 C848 1.408 . S
C847 H874 0.930 . S
C848 C843 1.348 . S
C848 C847 1.408 . S
C848 H875 0.930 . S
C849 O862 1.281 . S
C849 O863 1.254 . S
C850 O864 1.236 . S
C850 O865 1.266 . S
C851 Tb841 2.809 . S
C851 C852 1.514 . S
C851 O866 1.248 . S
C851 O867 1.266 . S
C852 C851 1.514 . S
C852 C853 1.359 . S
C852 C857 1.348 . S
C853 C852 1.359 . S
C853 C854 1.380 . S
C853 H876 0.929 . S
C854 C853 1.380 . S
C854 C855 1.347 . S
C854 H877 0.931 . S
C855 C854 1.347 . S
C855 C856 1.369 . S
C856 C855 1.369 . S
C856 C857 1.408 . S
C856 H878 0.930 . S
C857 C852 1.348 . S
C857 C856 1.408 . S
C857 H879 0.930 . S
C858 O868 1.281 . S
C858 O869 1.254 . S
C859 O870 1.236 . S
C859 O871 1.266 . S
O860 Tb840 2.484 . S
O860 C842 1.248 . S
O861 Tb840 2.440 . S
O861 C842 1.266 . S
O862 Tb840 2.658 . S
O862 Tb841 2.325 . S
O862 C849 1.281 . S
O863 Tb840 2.409 . S
O863 C849 1.254 . S
O864 Tb840 2.378 . S
O864 C850 1.236 . S
O865 Tb841 2.341 . S
O865 C850 1.266 . S
O866 Tb841 2.484 . S
O866 C851 1.248 . S
O867 Tb841 2.440 . S
O867 C851 1.266 . S
O868 Tb840 2.325 . S
O868 Tb841 2.658 . S
O868 C858 1.281 . S
O869 Tb841 2.409 . S
O869 C858 1.254 . S
O870 Tb841 2.378 . S
O870 C859 1.236 . S
O871 Tb840 2.341 . S
O871 C859 1.266 . S
H872 C844 0.929 . S
H873 C845 0.931 . S
H874 C847 0.930 . S
H875 C848 0.930 . S
H876 C853 0.929 . S
H877 C854 0.931 . S
H878 C856 0.930 . S
H879 C857 0.930 . S
Tb880 C882 2.809 . S
Tb880 O900 2.484 . S
Tb880 O901 2.440 . S
Tb880 O902 2.658 . S
Tb880 O903 2.409 . S
Tb880 O904 2.378 . S
Tb880 O908 2.325 . S
Tb880 O911 2.341 . S
Tb881 C891 2.809 . S
Tb881 O902 2.325 . S
Tb881 O905 2.341 . S
Tb881 O906 2.484 . S
Tb881 O907 2.440 . S
Tb881 O908 2.658 . S
Tb881 O909 2.409 . S
Tb881 O910 2.378 . S
C882 Tb880 2.809 . S
C882 C883 1.514 . S
C882 O900 1.248 . S
C882 O901 1.266 . S
C883 C882 1.514 . S
C883 C884 1.359 . S
C883 C888 1.348 . S
C884 C883 1.359 . S
C884 C885 1.380 . S
C884 H912 0.929 . S
C885 C884 1.380 . S
C885 C886 1.347 . S
C885 H913 0.931 . S
C886 C885 1.347 . S
C886 C887 1.369 . S
C887 C886 1.369 . S
C887 C888 1.408 . S
C887 H914 0.930 . S
C888 C883 1.348 . S
C888 C887 1.408 . S
C888 H915 0.930 . S
C889 O902 1.281 . S
C889 O903 1.254 . S
C890 O904 1.236 . S
C890 O905 1.266 . S
C891 Tb881 2.809 . S
C891 C892 1.514 . S
C891 O906 1.248 . S
C891 O907 1.266 . S
C892 C891 1.514 . S
C892 C893 1.359 . S
C892 C897 1.348 . S
C893 C892 1.359 . S
C893 C894 1.380 . S
C893 H916 0.929 . S
C894 C893 1.380 . S
C894 C895 1.347 . S
C894 H917 0.931 . S
C895 C894 1.347 . S
C895 C896 1.369 . S
C896 C895 1.369 . S
C896 C897 1.408 . S
C896 H918 0.930 . S
C897 C892 1.348 . S
C897 C896 1.408 . S
C897 H919 0.930 . S
C898 O908 1.281 . S
C898 O909 1.254 . S
C899 O910 1.236 . S
C899 O911 1.266 . S
O900 Tb880 2.484 . S
O900 C882 1.248 . S
O901 Tb880 2.440 . S
O901 C882 1.266 . S
O902 Tb880 2.658 . S
O902 Tb881 2.325 . S
O902 C889 1.281 . S
O903 Tb880 2.409 . S
O903 C889 1.254 . S
O904 Tb880 2.378 . S
O904 C890 1.236 . S
O905 Tb881 2.341 . S
O905 C890 1.266 . S
O906 Tb881 2.484 . S
O906 C891 1.248 . S
O907 Tb881 2.440 . S
O907 C891 1.266 . S
O908 Tb880 2.325 . S
O908 Tb881 2.658 . S
O908 C898 1.281 . S
O909 Tb881 2.409 . S
O909 C898 1.254 . S
O910 Tb881 2.378 . S
O910 C899 1.236 . S
O911 Tb880 2.341 . S
O911 C899 1.266 . S
H912 C884 0.929 . S
H913 C885 0.931 . S
H914 C887 0.930 . S
H915 C888 0.930 . S
H916 C893 0.929 . S
H917 C894 0.931 . S
H918 C896 0.930 . S
H919 C897 0.930 . S
Tb920 C922 2.809 . S
Tb920 O940 2.484 . S
Tb920 O941 2.440 . S
Tb920 O942 2.658 . S
Tb920 O943 2.409 . S
Tb920 O944 2.378 . S
Tb920 O948 2.325 . S
Tb920 O951 2.341 . S
Tb921 C931 2.809 . S
Tb921 O942 2.325 . S
Tb921 O945 2.341 . S
Tb921 O946 2.484 . S
Tb921 O947 2.440 . S
Tb921 O948 2.658 . S
Tb921 O949 2.409 . S
Tb921 O950 2.378 . S
C922 Tb920 2.809 . S
C922 C923 1.514 . S
C922 O940 1.248 . S
C922 O941 1.266 . S
C923 C922 1.514 . S
C923 C924 1.359 . S
C923 C928 1.348 . S
C924 C923 1.359 . S
C924 C925 1.380 . S
C924 H952 0.929 . S
C925 C924 1.380 . S
C925 C926 1.347 . S
C925 H953 0.931 . S
C926 C925 1.347 . S
C926 C927 1.369 . S
C927 C926 1.369 . S
C927 C928 1.408 . S
C927 H954 0.930 . S
C928 C923 1.348 . S
C928 C927 1.408 . S
C928 H955 0.930 . S
C929 O942 1.281 . S
C929 O943 1.254 . S
C930 O944 1.236 . S
C930 O945 1.266 . S
C931 Tb921 2.809 . S
C931 C932 1.514 . S
C931 O946 1.248 . S
C931 O947 1.266 . S
C932 C931 1.514 . S
C932 C933 1.359 . S
C932 C937 1.348 . S
C933 C932 1.359 . S
C933 C934 1.380 . S
C933 H956 0.929 . S
C934 C933 1.380 . S
C934 C935 1.347 . S
C934 H957 0.931 . S
C935 C934 1.347 . S
C935 C936 1.369 . S
C936 C935 1.369 . S
C936 C937 1.408 . S
C936 H958 0.930 . S
C937 C932 1.348 . S
C937 C936 1.408 . S
C937 H959 0.930 . S
C938 O948 1.281 . S
C938 O949 1.254 . S
C939 O950 1.236 . S
C939 O951 1.266 . S
O940 Tb920 2.484 . S
O940 C922 1.248 . S
O941 Tb920 2.440 . S
O941 C922 1.266 . S
O942 Tb920 2.658 . S
O942 Tb921 2.325 . S
O942 C929 1.281 . S
O943 Tb920 2.409 . S
O943 C929 1.254 . S
O944 Tb920 2.378 . S
O944 C930 1.236 . S
O945 Tb921 2.341 . S
O945 C930 1.266 . S
O946 Tb921 2.484 . S
O946 C931 1.248 . S
O947 Tb921 2.440 . S
O947 C931 1.266 . S
O948 Tb920 2.325 . S
O948 Tb921 2.658 . S
O948 C938 1.281 . S
O949 Tb921 2.409 . S
O949 C938 1.254 . S
O950 Tb921 2.378 . S
O950 C939 1.236 . S
O951 Tb920 2.341 . S
O951 C939 1.266 . S
H952 C924 0.929 . S
H953 C925 0.931 . S
H954 C927 0.930 . S
H955 C928 0.930 . S
H956 C933 0.929 . S
H957 C934 0.931 . S
H958 C936 0.930 . S
H959 C937 0.930 . S
Tb960 C962 2.809 1_545 S
Tb960 O980 2.484 1_545 S
Tb960 O981 2.440 . S
Tb960 O982 2.658 1_545 S
Tb960 O983 2.409 . S
Tb960 O984 2.378 1_545 S
Tb960 O988 2.325 1_545 S
Tb960 O991 2.341 . S
Tb961 C971 2.809 . S
Tb961 O982 2.325 . S
Tb961 O985 2.341 . S
Tb961 O986 2.484 . S
Tb961 O987 2.440 . S
Tb961 O988 2.658 . S
Tb961 O989 2.409 . S
Tb961 O990 2.378 1_565 S
C962 Tb960 2.809 1_565 S
C962 C963 1.514 . S
C962 O980 1.248 . S
C962 O981 1.266 1_565 S
C963 C962 1.514 . S
C963 C964 1.359 . S
C963 C968 1.348 . S
C964 C963 1.359 . S
C964 C965 1.380 . S
C964 H992 0.929 . S
C965 C964 1.380 . S
C965 C966 1.347 . S
C965 H993 0.931 . S
C966 C965 1.347 . S
C966 C967 1.369 . S
C967 C966 1.369 . S
C967 C968 1.408 . S
C967 H994 0.930 . S
C968 C963 1.348 . S
C968 C967 1.408 . S
C968 H995 0.930 . S
C969 O982 1.281 . S
C969 O983 1.254 1_565 S
C970 O984 1.236 . S
C970 O985 1.266 . S
C971 Tb961 2.809 . S
C971 C972 1.514 . S
C971 O986 1.248 . S
C971 O987 1.266 . S
C972 C971 1.514 . S
C972 C973 1.359 1_565 S
C972 C977 1.348 . S
C973 C972 1.359 1_545 S
C973 C974 1.380 . S
C973 H996 0.929 . S
C974 C973 1.380 . S
C974 C975 1.347 . S
C974 H997 0.931 . S
C975 C974 1.347 . S
C975 C976 1.369 . S
C976 C975 1.369 . S
C976 C977 1.408 1_545 S
C976 H998 0.933 . S
C977 C972 1.348 . S
C977 C976 1.408 1_565 S
C977 H999 0.930 . S
C978 O988 1.281 . S
C978 O989 1.254 . S
C979 O990 1.236 . S
C979 O991 1.266 . S
O980 Tb960 2.484 1_565 S
O980 C962 1.248 . S
O981 Tb960 2.440 . S
O981 C962 1.266 1_545 S
O982 Tb960 2.658 1_565 S
O982 Tb961 2.325 . S
O982 C969 1.281 . S
O983 Tb960 2.409 . S
O983 C969 1.254 1_545 S
O984 Tb960 2.378 1_565 S
O984 C970 1.236 . S
O985 Tb961 2.341 . S
O985 C970 1.266 . S
O986 Tb961 2.484 . S
O986 C971 1.248 . S
O987 Tb961 2.440 . S
O987 C971 1.266 . S
O988 Tb960 2.325 1_565 S
O988 Tb961 2.658 . S
O988 C978 1.281 . S
O989 Tb961 2.409 . S
O989 C978 1.254 . S
O990 Tb961 2.378 1_545 S
O990 C979 1.236 . S
O991 Tb960 2.341 . S
O991 C979 1.266 . S
H992 C964 0.929 . S
H993 C965 0.931 . S
H994 C967 0.930 . S
H995 C968 0.930 . S
H996 C973 0.929 . S
H997 C974 0.931 . S
H998 C976 0.933 . S
H999 C977 0.930 . S
Tb1000 C1002 2.809 . S
Tb1000 O1020 2.484 . S
Tb1000 O1021 2.440 . S
Tb1000 O1022 2.658 . S
Tb1000 O1023 2.409 . S
Tb1000 O1024 2.378 . S
Tb1000 O1028 2.325 . S
Tb1000 O1031 2.341 . S
Tb1001 C1011 2.809 . S
Tb1001 O1022 2.325 . S
Tb1001 O1025 2.341 . S
Tb1001 O1026 2.484 . S
Tb1001 O1027 2.440 . S
Tb1001 O1028 2.658 . S
Tb1001 O1029 2.409 . S
Tb1001 O1030 2.378 . S
C1002 Tb1000 2.809 . S
C1002 C1003 1.514 . S
C1002 O1020 1.248 . S
C1002 O1021 1.266 . S
C1003 C1002 1.514 . S
C1003 C1004 1.359 . S
C1003 C1008 1.348 . S
C1004 C1003 1.359 . S
C1004 C1005 1.380 . S
C1004 H1032 0.929 . S
C1005 C1004 1.380 . S
C1005 C1006 1.347 . S
C1005 H1033 0.931 . S
C1006 C1005 1.347 . S
C1006 C1007 1.369 . S
C1007 C1006 1.369 . S
C1007 C1008 1.408 . S
C1007 H1034 0.930 . S
C1008 C1003 1.348 . S
C1008 C1007 1.408 . S
C1008 H1035 0.930 . S
C1009 O1022 1.281 . S
C1009 O1023 1.254 . S
C1010 O1024 1.236 . S
C1010 O1025 1.266 . S
C1011 Tb1001 2.809 . S
C1011 C1012 1.514 . S
C1011 O1026 1.248 . S
C1011 O1027 1.266 . S
C1012 C1011 1.514 . S
C1012 C1013 1.359 . S
C1012 C1017 1.348 . S
C1013 C1012 1.359 . S
C1013 C1014 1.380 . S
C1013 H1036 0.929 . S
C1014 C1013 1.380 . S
C1014 C1015 1.347 . S
C1014 H1037 0.931 . S
C1015 C1014 1.347 . S
C1015 C1016 1.369 . S
C1016 C1015 1.369 . S
C1016 C1017 1.408 . S
C1016 H1038 0.930 . S
C1017 C1012 1.348 . S
C1017 C1016 1.408 . S
C1017 H1039 0.930 . S
C1018 O1028 1.281 . S
C1018 O1029 1.254 . S
C1019 O1030 1.236 . S
C1019 O1031 1.266 . S
O1020 Tb1000 2.484 . S
O1020 C1002 1.248 . S
O1021 Tb1000 2.440 . S
O1021 C1002 1.266 . S
O1022 Tb1000 2.658 . S
O1022 Tb1001 2.325 . S
O1022 C1009 1.281 . S
O1023 Tb1000 2.409 . S
O1023 C1009 1.254 . S
O1024 Tb1000 2.378 . S
O1024 C1010 1.236 . S
O1025 Tb1001 2.341 . S
O1025 C1010 1.266 . S
O1026 Tb1001 2.484 . S
O1026 C1011 1.248 . S
O1027 Tb1001 2.440 . S
O1027 C1011 1.266 . S
O1028 Tb1000 2.325 . S
O1028 Tb1001 2.658 . S
O1028 C1018 1.281 . S
O1029 Tb1001 2.409 . S
O1029 C1018 1.254 . S
O1030 Tb1001 2.378 . S
O1030 C1019 1.236 . S
O1031 Tb1000 2.341 . S
O1031 C1019 1.266 . S
H1032 C1004 0.929 . S
H1033 C1005 0.931 . S
H1034 C1007 0.930 . S
H1035 C1008 0.930 . S
H1036 C1013 0.929 . S
H1037 C1014 0.931 . S
H1038 C1016 0.930 . S
H1039 C1017 0.930 . S
Tb1040 C1042 2.809 . S
Tb1040 O1060 2.484 . S
Tb1040 O1061 2.440 . S
Tb1040 O1062 2.658 . S
Tb1040 O1063 2.409 . S
Tb1040 O1064 2.378 . S
Tb1040 O1068 2.325 . S
Tb1040 O1071 2.341 . S
Tb1041 C1051 2.809 . S
Tb1041 O1062 2.325 . S
Tb1041 O1065 2.341 . S
Tb1041 O1066 2.484 . S
Tb1041 O1067 2.440 . S
Tb1041 O1068 2.658 . S
Tb1041 O1069 2.409 . S
Tb1041 O1070 2.378 . S
C1042 Tb1040 2.809 . S
C1042 C1043 1.514 . S
C1042 O1060 1.248 . S
C1042 O1061 1.266 . S
C1043 C1042 1.514 . S
C1043 C1044 1.359 . S
C1043 C1048 1.348 . S
C1044 C1043 1.359 . S
C1044 C1045 1.380 . S
C1044 H1072 0.929 . S
C1045 C1044 1.380 . S
C1045 C1046 1.347 . S
C1045 H1073 0.931 . S
C1046 C1045 1.347 . S
C1046 C1047 1.369 . S
C1047 C1046 1.369 . S
C1047 C1048 1.408 . S
C1047 H1074 0.930 . S
C1048 C1043 1.348 . S
C1048 C1047 1.408 . S
C1048 H1075 0.930 . S
C1049 O1062 1.281 . S
C1049 O1063 1.254 . S
C1050 O1064 1.236 . S
C1050 O1065 1.266 . S
C1051 Tb1041 2.809 . S
C1051 C1052 1.514 . S
C1051 O1066 1.248 . S
C1051 O1067 1.266 . S
C1052 C1051 1.514 . S
C1052 C1053 1.359 . S
C1052 C1057 1.348 . S
C1053 C1052 1.359 . S
C1053 C1054 1.380 . S
C1053 H1076 0.929 . S
C1054 C1053 1.380 . S
C1054 C1055 1.347 . S
C1054 H1077 0.931 . S
C1055 C1054 1.347 . S
C1055 C1056 1.369 . S
C1056 C1055 1.369 . S
C1056 C1057 1.408 . S
C1056 H1078 0.930 . S
C1057 C1052 1.348 . S
C1057 C1056 1.408 . S
C1057 H1079 0.930 . S
C1058 O1068 1.281 . S
C1058 O1069 1.254 . S
C1059 O1070 1.236 . S
C1059 O1071 1.266 . S
O1060 Tb1040 2.484 . S
O1060 C1042 1.248 . S
O1061 Tb1040 2.440 . S
O1061 C1042 1.266 . S
O1062 Tb1040 2.658 . S
O1062 Tb1041 2.325 . S
O1062 C1049 1.281 . S
O1063 Tb1040 2.409 . S
O1063 C1049 1.254 . S
O1064 Tb1040 2.378 . S
O1064 C1050 1.236 . S
O1065 Tb1041 2.341 . S
O1065 C1050 1.266 . S
O1066 Tb1041 2.484 . S
O1066 C1051 1.248 . S
O1067 Tb1041 2.440 . S
O1067 C1051 1.266 . S
O1068 Tb1040 2.325 . S
O1068 Tb1041 2.658 . S
O1068 C1058 1.281 . S
O1069 Tb1041 2.409 . S
O1069 C1058 1.254 . S
O1070 Tb1041 2.378 . S
O1070 C1059 1.236 . S
O1071 Tb1040 2.341 . S
O1071 C1059 1.266 . S
H1072 C1044 0.929 . S
H1073 C1045 0.931 . S
H1074 C1047 0.930 . S
H1075 C1048 0.930 . S
H1076 C1053 0.929 . S
H1077 C1054 0.931 . S
H1078 C1056 0.930 . S
H1079 C1057 0.930 . S
Tb1080 C1082 2.809 1_545 S
Tb1080 O1100 2.484 1_545 S
Tb1080 O1101 2.440 . S
Tb1080 O1102 2.658 1_545 S
Tb1080 O1103 2.409 . S
Tb1080 O1104 2.378 1_545 S
Tb1080 O1108 2.325 1_545 S
Tb1080 O1111 2.341 . S
Tb1081 C1091 2.809 . S
Tb1081 O1102 2.325 . S
Tb1081 O1105 2.341 . S
Tb1081 O1106 2.484 . S
Tb1081 O1107 2.440 . S
Tb1081 O1108 2.658 . S
Tb1081 O1109 2.409 . S
Tb1081 O1110 2.378 1_565 S
C1082 Tb1080 2.809 1_565 S
C1082 C1083 1.514 . S
C1082 O1100 1.248 . S
C1082 O1101 1.266 1_565 S
C1083 C1082 1.514 . S
C1083 C1084 1.359 . S
C1083 C1088 1.348 . S
C1084 C1083 1.359 . S
C1084 C1085 1.380 . S
C1084 H1112 0.929 . S
C1085 C1084 1.380 . S
C1085 C1086 1.347 . S
C1085 H1113 0.931 . S
C1086 C1085 1.347 . S
C1086 C1087 1.369 . S
C1087 C1086 1.369 . S
C1087 C1088 1.408 . S
C1087 H1114 0.930 . S
C1088 C1083 1.348 . S
C1088 C1087 1.408 . S
C1088 H1115 0.930 . S
C1089 O1102 1.281 . S
C1089 O1103 1.254 1_565 S
C1090 O1104 1.236 . S
C1090 O1105 1.266 . S
C1091 Tb1081 2.809 . S
C1091 C1092 1.514 . S
C1091 O1106 1.248 . S
C1091 O1107 1.266 . S
C1092 C1091 1.514 . S
C1092 C1093 1.359 1_565 S
C1092 C1097 1.348 . S
C1093 C1092 1.359 1_545 S
C1093 C1094 1.380 . S
C1093 H1116 0.929 . S
C1094 C1093 1.380 . S
C1094 C1095 1.347 . S
C1094 H1117 0.931 . S
C1095 C1094 1.347 . S
C1095 C1096 1.369 . S
C1096 C1095 1.369 . S
C1096 C1097 1.408 1_545 S
C1096 H1118 0.933 . S
C1097 C1092 1.348 . S
C1097 C1096 1.408 1_565 S
C1097 H1119 0.930 . S
C1098 O1108 1.281 . S
C1098 O1109 1.254 . S
C1099 O1110 1.236 . S
C1099 O1111 1.266 . S
O1100 Tb1080 2.484 1_565 S
O1100 C1082 1.248 . S
O1101 Tb1080 2.440 . S
O1101 C1082 1.266 1_545 S
O1102 Tb1080 2.658 1_565 S
O1102 Tb1081 2.325 . S
O1102 C1089 1.281 . S
O1103 Tb1080 2.409 . S
O1103 C1089 1.254 1_545 S
O1104 Tb1080 2.378 1_565 S
O1104 C1090 1.236 . S
O1105 Tb1081 2.341 . S
O1105 C1090 1.266 . S
O1106 Tb1081 2.484 . S
O1106 C1091 1.248 . S
O1107 Tb1081 2.440 . S
O1107 C1091 1.266 . S
O1108 Tb1080 2.325 1_565 S
O1108 Tb1081 2.658 . S
O1108 C1098 1.281 . S
O1109 Tb1081 2.409 . S
O1109 C1098 1.254 . S
O1110 Tb1081 2.378 1_545 S
O1110 C1099 1.236 . S
O1111 Tb1080 2.341 . S
O1111 C1099 1.266 . S
H1112 C1084 0.929 . S
H1113 C1085 0.931 . S
H1114 C1087 0.930 . S
H1115 C1088 0.930 . S
H1116 C1093 0.929 . S
H1117 C1094 0.931 . S
H1118 C1096 0.933 . S
H1119 C1097 0.930 . S
Tb1120 C1122 2.809 . S
Tb1120 O1140 2.484 . S
Tb1120 O1141 2.440 . S
Tb1120 O1142 2.658 . S
Tb1120 O1143 2.409 . S
Tb1120 O1144 2.378 1_545 S
Tb1120 O1148 2.325 . S
Tb1120 O1151 2.341 . S
Tb1121 C1131 2.809 1_565 S
Tb1121 O1142 2.325 1_565 S
Tb1121 O1145 2.341 . S
Tb1121 O1146 2.484 1_565 S
Tb1121 O1147 2.440 . S
Tb1121 O1148 2.658 1_565 S
Tb1121 O1149 2.409 . S
Tb1121 O1150 2.378 1_565 S
C1122 Tb1120 2.809 . S
C1122 C1123 1.514 . S
C1122 O1140 1.248 . S
C1122 O1141 1.266 . S
C1123 C1122 1.514 . S
C1123 C1124 1.359 1_545 S
C1123 C1128 1.348 . S
C1124 C1123 1.359 1_565 S
C1124 C1125 1.380 . S
C1124 H1152 0.929 . S
C1125 C1124 1.380 . S
C1125 C1126 1.347 . S
C1125 H1153 0.931 . S
C1126 C1125 1.347 . S
C1126 C1127 1.369 . S
C1127 C1126 1.369 . S
C1127 C1128 1.408 1_565 S
C1127 H1154 0.933 . S
C1128 C1123 1.348 . S
C1128 C1127 1.408 1_545 S
C1128 H1155 0.930 . S
C1129 O1142 1.281 . S
C1129 O1143 1.254 . S
C1130 O1144 1.236 . S
C1130 O1145 1.266 . S
C1131 Tb1121 2.809 1_545 S
C1131 C1132 1.514 . S
C1131 O1146 1.248 . S
C1131 O1147 1.266 1_545 S
C1132 C1131 1.514 . S
C1132 C1133 1.359 . S
C1132 C1137 1.348 . S
C1133 C1132 1.359 . S
C1133 C1134 1.380 . S
C1133 H1156 0.929 . S
C1134 C1133 1.380 . S
C1134 C1135 1.347 . S
C1134 H1157 0.931 . S
C1135 C1134 1.347 . S
C1135 C1136 1.369 . S
C1136 C1135 1.369 . S
C1136 C1137 1.408 . S
C1136 H1158 0.930 . S
C1137 C1132 1.348 . S
C1137 C1136 1.408 . S
C1137 H1159 0.930 . S
C1138 O1148 1.281 . S
C1138 O1149 1.254 1_545 S
C1139 O1150 1.236 . S
C1139 O1151 1.266 . S
O1140 Tb1120 2.484 . S
O1140 C1122 1.248 . S
O1141 Tb1120 2.440 . S
O1141 C1122 1.266 . S
O1142 Tb1120 2.658 . S
O1142 Tb1121 2.325 1_545 S
O1142 C1129 1.281 . S
O1143 Tb1120 2.409 . S
O1143 C1129 1.254 . S
O1144 Tb1120 2.378 1_565 S
O1144 C1130 1.236 . S
O1145 Tb1121 2.341 . S
O1145 C1130 1.266 . S
O1146 Tb1121 2.484 1_545 S
O1146 C1131 1.248 . S
O1147 Tb1121 2.440 . S
O1147 C1131 1.266 1_565 S
O1148 Tb1120 2.325 . S
O1148 Tb1121 2.658 1_545 S
O1148 C1138 1.281 . S
O1149 Tb1121 2.409 . S
O1149 C1138 1.254 1_565 S
O1150 Tb1121 2.378 1_545 S
O1150 C1139 1.236 . S
O1151 Tb1120 2.341 . S
O1151 C1139 1.266 . S
H1152 C1124 0.929 . S
H1153 C1125 0.931 . S
H1154 C1127 0.933 . S
H1155 C1128 0.930 . S
H1156 C1133 0.929 . S
H1157 C1134 0.931 . S
H1158 C1136 0.930 . S
H1159 C1137 0.930 . S
Tb1160 C1162 2.809 . S
Tb1160 O1180 2.484 . S
Tb1160 O1181 2.440 . S
Tb1160 O1182 2.658 . S
Tb1160 O1183 2.409 . S
Tb1160 O1184 2.378 . S
Tb1160 O1188 2.325 . S
Tb1160 O1191 2.341 . S
Tb1161 C1171 2.809 . S
Tb1161 O1182 2.325 . S
Tb1161 O1185 2.341 . S
Tb1161 O1186 2.484 . S
Tb1161 O1187 2.440 . S
Tb1161 O1188 2.658 . S
Tb1161 O1189 2.409 . S
Tb1161 O1190 2.378 . S
C1162 Tb1160 2.809 . S
C1162 C1163 1.514 . S
C1162 O1180 1.248 . S
C1162 O1181 1.266 . S
C1163 C1162 1.514 . S
C1163 C1164 1.359 . S
C1163 C1168 1.348 . S
C1164 C1163 1.359 . S
C1164 C1165 1.380 . S
C1164 H1192 0.929 . S
C1165 C1164 1.380 . S
C1165 C1166 1.347 . S
C1165 H1193 0.931 . S
C1166 C1165 1.347 . S
C1166 C1167 1.369 . S
C1167 C1166 1.369 . S
C1167 C1168 1.408 . S
C1167 H1194 0.930 . S
C1168 C1163 1.348 . S
C1168 C1167 1.408 . S
C1168 H1195 0.930 . S
C1169 O1182 1.281 . S
C1169 O1183 1.254 . S
C1170 O1184 1.236 . S
C1170 O1185 1.266 . S
C1171 Tb1161 2.809 . S
C1171 C1172 1.514 . S
C1171 O1186 1.248 . S
C1171 O1187 1.266 . S
C1172 C1171 1.514 . S
C1172 C1173 1.359 . S
C1172 C1177 1.348 . S
C1173 C1172 1.359 . S
C1173 C1174 1.380 . S
C1173 H1196 0.929 . S
C1174 C1173 1.380 . S
C1174 C1175 1.347 . S
C1174 H1197 0.931 . S
C1175 C1174 1.347 . S
C1175 C1176 1.369 . S
C1176 C1175 1.369 . S
C1176 C1177 1.408 . S
C1176 H1198 0.930 . S
C1177 C1172 1.348 . S
C1177 C1176 1.408 . S
C1177 H1199 0.930 . S
C1178 O1188 1.281 . S
C1178 O1189 1.254 . S
C1179 O1190 1.236 . S
C1179 O1191 1.266 . S
O1180 Tb1160 2.484 . S
O1180 C1162 1.248 . S
O1181 Tb1160 2.440 . S
O1181 C1162 1.266 . S
O1182 Tb1160 2.658 . S
O1182 Tb1161 2.325 . S
O1182 C1169 1.281 . S
O1183 Tb1160 2.409 . S
O1183 C1169 1.254 . S
O1184 Tb1160 2.378 . S
O1184 C1170 1.236 . S
O1185 Tb1161 2.341 . S
O1185 C1170 1.266 . S
O1186 Tb1161 2.484 . S
O1186 C1171 1.248 . S
O1187 Tb1161 2.440 . S
O1187 C1171 1.266 . S
O1188 Tb1160 2.325 . S
O1188 Tb1161 2.658 . S
O1188 C1178 1.281 . S
O1189 Tb1161 2.409 . S
O1189 C1178 1.254 . S
O1190 Tb1161 2.378 . S
O1190 C1179 1.236 . S
O1191 Tb1160 2.341 . S
O1191 C1179 1.266 . S
H1192 C1164 0.929 . S
H1193 C1165 0.931 . S
H1194 C1167 0.930 . S
H1195 C1168 0.930 . S
H1196 C1173 0.929 . S
H1197 C1174 0.931 . S
H1198 C1176 0.930 . S
H1199 C1177 0.930 . S
Tb1200 C1202 2.809 . S
Tb1200 O1220 2.484 . S
Tb1200 O1221 2.440 . S
Tb1200 O1222 2.658 . S
Tb1200 O1223 2.409 . S
Tb1200 O1224 2.378 . S
Tb1200 O1228 2.325 . S
Tb1200 O1231 2.341 . S
Tb1201 C1211 2.809 . S
Tb1201 O1222 2.325 . S
Tb1201 O1225 2.341 . S
Tb1201 O1226 2.484 . S
Tb1201 O1227 2.440 . S
Tb1201 O1228 2.658 . S
Tb1201 O1229 2.409 . S
Tb1201 O1230 2.378 . S
C1202 Tb1200 2.809 . S
C1202 C1203 1.514 . S
C1202 O1220 1.248 . S
C1202 O1221 1.266 . S
C1203 C1202 1.514 . S
C1203 C1204 1.359 . S
C1203 C1208 1.348 . S
C1204 C1203 1.359 . S
C1204 C1205 1.380 . S
C1204 H1232 0.929 . S
C1205 C1204 1.380 . S
C1205 C1206 1.347 . S
C1205 H1233 0.931 . S
C1206 C1205 1.347 . S
C1206 C1207 1.369 . S
C1207 C1206 1.369 . S
C1207 C1208 1.408 . S
C1207 H1234 0.930 . S
C1208 C1203 1.348 . S
C1208 C1207 1.408 . S
C1208 H1235 0.930 . S
C1209 O1222 1.281 . S
C1209 O1223 1.254 . S
C1210 O1224 1.236 . S
C1210 O1225 1.266 . S
C1211 Tb1201 2.809 . S
C1211 C1212 1.514 . S
C1211 O1226 1.248 . S
C1211 O1227 1.266 . S
C1212 C1211 1.514 . S
C1212 C1213 1.359 . S
C1212 C1217 1.348 . S
C1213 C1212 1.359 . S
C1213 C1214 1.380 . S
C1213 H1236 0.929 . S
C1214 C1213 1.380 . S
C1214 C1215 1.347 . S
C1214 H1237 0.931 . S
C1215 C1214 1.347 . S
C1215 C1216 1.369 . S
C1216 C1215 1.369 . S
C1216 C1217 1.408 . S
C1216 H1238 0.930 . S
C1217 C1212 1.348 . S
C1217 C1216 1.408 . S
C1217 H1239 0.930 . S
C1218 O1228 1.281 . S
C1218 O1229 1.254 . S
C1219 O1230 1.236 . S
C1219 O1231 1.266 . S
O1220 Tb1200 2.484 . S
O1220 C1202 1.248 . S
O1221 Tb1200 2.440 . S
O1221 C1202 1.266 . S
O1222 Tb1200 2.658 . S
O1222 Tb1201 2.325 . S
O1222 C1209 1.281 . S
O1223 Tb1200 2.409 . S
O1223 C1209 1.254 . S
O1224 Tb1200 2.378 . S
O1224 C1210 1.236 . S
O1225 Tb1201 2.341 . S
O1225 C1210 1.266 . S
O1226 Tb1201 2.484 . S
O1226 C1211 1.248 . S
O1227 Tb1201 2.440 . S
O1227 C1211 1.266 . S
O1228 Tb1200 2.325 . S
O1228 Tb1201 2.658 . S
O1228 C1218 1.281 . S
O1229 Tb1201 2.409 . S
O1229 C1218 1.254 . S
O1230 Tb1201 2.378 . S
O1230 C1219 1.236 . S
O1231 Tb1200 2.341 . S
O1231 C1219 1.266 . S
H1232 C1204 0.929 . S
H1233 C1205 0.931 . S
H1234 C1207 0.930 . S
H1235 C1208 0.930 . S
H1236 C1213 0.929 . S
H1237 C1214 0.931 . S
H1238 C1216 0.930 . S
H1239 C1217 0.930 . S
Tb1240 C1242 2.809 . S
Tb1240 O1260 2.484 . S
Tb1240 O1261 2.440 . S
Tb1240 O1262 2.658 . S
Tb1240 O1263 2.409 . S
Tb1240 O1264 2.378 1_545 S
Tb1240 O1268 2.325 . S
Tb1240 O1271 2.341 . S
Tb1241 C1251 2.809 1_565 S
Tb1241 O1262 2.325 1_565 S
Tb1241 O1265 2.341 . S
Tb1241 O1266 2.484 1_565 S
Tb1241 O1267 2.440 . S
Tb1241 O1268 2.658 1_565 S
Tb1241 O1269 2.409 . S
Tb1241 O1270 2.378 1_565 S
C1242 Tb1240 2.809 . S
C1242 C1243 1.514 . S
C1242 O1260 1.248 . S
C1242 O1261 1.266 . S
C1243 C1242 1.514 . S
C1243 C1244 1.359 1_545 S
C1243 C1248 1.348 . S
C1244 C1243 1.359 1_565 S
C1244 C1245 1.380 . S
C1244 H1272 0.929 . S
C1245 C1244 1.380 . S
C1245 C1246 1.347 . S
C1245 H1273 0.931 . S
C1246 C1245 1.347 . S
C1246 C1247 1.369 . S
C1247 C1246 1.369 . S
C1247 C1248 1.408 1_565 S
C1247 H1274 0.933 . S
C1248 C1243 1.348 . S
C1248 C1247 1.408 1_545 S
C1248 H1275 0.930 . S
C1249 O1262 1.281 . S
C1249 O1263 1.254 . S
C1250 O1264 1.236 . S
C1250 O1265 1.266 . S
C1251 Tb1241 2.809 1_545 S
C1251 C1252 1.514 . S
C1251 O1266 1.248 . S
C1251 O1267 1.266 1_545 S
C1252 C1251 1.514 . S
C1252 C1253 1.359 . S
C1252 C1257 1.348 . S
C1253 C1252 1.359 . S
C1253 C1254 1.380 . S
C1253 H1276 0.929 . S
C1254 C1253 1.380 . S
C1254 C1255 1.347 . S
C1254 H1277 0.931 . S
C1255 C1254 1.347 . S
C1255 C1256 1.369 . S
C1256 C1255 1.369 . S
C1256 C1257 1.408 . S
C1256 H1278 0.930 . S
C1257 C1252 1.348 . S
C1257 C1256 1.408 . S
C1257 H1279 0.930 . S
C1258 O1268 1.281 . S
C1258 O1269 1.254 1_545 S
C1259 O1270 1.236 . S
C1259 O1271 1.266 . S
O1260 Tb1240 2.484 . S
O1260 C1242 1.248 . S
O1261 Tb1240 2.440 . S
O1261 C1242 1.266 . S
O1262 Tb1240 2.658 . S
O1262 Tb1241 2.325 1_545 S
O1262 C1249 1.281 . S
O1263 Tb1240 2.409 . S
O1263 C1249 1.254 . S
O1264 Tb1240 2.378 1_565 S
O1264 C1250 1.236 . S
O1265 Tb1241 2.341 . S
O1265 C1250 1.266 . S
O1266 Tb1241 2.484 1_545 S
O1266 C1251 1.248 . S
O1267 Tb1241 2.440 . S
O1267 C1251 1.266 1_565 S
O1268 Tb1240 2.325 . S
O1268 Tb1241 2.658 1_545 S
O1268 C1258 1.281 . S
O1269 Tb1241 2.409 . S
O1269 C1258 1.254 1_565 S
O1270 Tb1241 2.378 1_545 S
O1270 C1259 1.236 . S
O1271 Tb1240 2.341 . S
O1271 C1259 1.266 . S
H1272 C1244 0.929 . S
H1273 C1245 0.931 . S
H1274 C1247 0.933 . S
H1275 C1248 0.930 . S
H1276 C1253 0.929 . S
H1277 C1254 0.931 . S
H1278 C1256 0.930 . S
H1279 C1257 0.930 . S
C1280 C1281 1.349 . S
C1280 C1282 1.327 . S
C1280 H1305 0.950 . S
C1281 C1280 1.349 . S
C1281 C1297 1.349 . S
C1282 C1280 1.327 . S
C1282 C1301 1.429 . S
C1282 H1306 0.950 . S
C1283 C1300 1.574 . S
C1283 C1302 1.368 . S
C1283 H1307 0.949 . S
H1284 C1288 0.949 . S
C1285 C1286 1.349 . S
C1285 C1287 1.327 . S
C1285 H1308 0.950 . S
C1286 C1285 1.349 . S
C1286 C1298 1.349 . S
C1287 C1285 1.327 . S
C1287 C1303 1.429 . S
C1287 H1309 0.950 . S
C1288 H1284 0.949 . S
C1288 C1296 1.574 . S
C1288 C1304 1.368 . S
H1289 C1297 0.950 . S
H1290 C1295 0.950 . S
H1291 C1296 0.949 . S
H1292 C1298 0.950 . S
H1293 C1299 0.950 . S
H1294 C1300 0.949 . S
C1295 H1290 0.950 . S
C1295 C1297 1.327 . S
C1295 C1301 1.429 . S
C1296 C1288 1.574 . S
C1296 H1291 0.949 . S
C1296 C1302 1.368 . S
C1297 C1281 1.349 . S
C1297 H1289 0.950 . S
C1297 C1295 1.327 . S
C1298 C1286 1.349 . S
C1298 H1292 0.950 . S
C1298 C1299 1.327 . S
C1299 H1293 0.950 . S
C1299 C1298 1.327 . S
C1299 C1303 1.429 . S
C1300 C1283 1.574 . S
C1300 H1294 0.949 . S
C1300 C1304 1.368 . S
C1301 C1282 1.429 . S
C1301 C1295 1.429 . S
C1301 C1302 1.523 . S
C1302 C1283 1.368 . S
C1302 C1296 1.368 . S
C1302 C1301 1.523 . S
C1303 C1287 1.429 . S
C1303 C1299 1.429 . S
C1303 C1304 1.523 . S
C1304 C1288 1.368 . S
C1304 C1300 1.368 . S
C1304 C1303 1.523 . S
H1305 C1280 0.950 . S
H1306 C1282 0.950 . S
H1307 C1283 0.949 . S
H1308 C1285 0.950 . S
H1309 C1287 0.950 . S
C1310 C1311 1.349 . S
C1310 C1312 1.327 . S
C1310 H1335 0.950 . S
C1311 C1310 1.349 . S
C1311 C1327 1.349 . S
C1312 C1310 1.327 . S
C1312 C1331 1.429 . S
C1312 H1336 0.950 . S
C1313 C1330 1.574 . S
C1313 C1332 1.368 . S
C1313 H1337 0.949 . S
H1314 C1318 0.949 . S
C1315 C1316 1.349 . S
C1315 C1317 1.327 . S
C1315 H1338 0.950 . S
C1316 C1315 1.349 . S
C1316 C1328 1.349 . S
C1317 C1315 1.327 . S
C1317 C1333 1.429 . S
C1317 H1339 0.950 . S
C1318 H1314 0.949 . S
C1318 C1326 1.574 . S
C1318 C1334 1.368 . S
H1319 C1327 0.950 . S
H1320 C1325 0.950 . S
H1321 C1326 0.949 . S
H1322 C1328 0.950 . S
H1323 C1329 0.950 . S
H1324 C1330 0.949 . S
C1325 H1320 0.950 . S
C1325 C1327 1.327 . S
C1325 C1331 1.429 . S
C1326 C1318 1.574 . S
C1326 H1321 0.949 . S
C1326 C1332 1.368 . S
C1327 C1311 1.349 . S
C1327 H1319 0.950 . S
C1327 C1325 1.327 . S
C1328 C1316 1.349 . S
C1328 H1322 0.950 . S
C1328 C1329 1.327 . S
C1329 H1323 0.950 . S
C1329 C1328 1.327 . S
C1329 C1333 1.429 . S
C1330 C1313 1.574 . S
C1330 H1324 0.949 . S
C1330 C1334 1.368 . S
C1331 C1312 1.429 . S
C1331 C1325 1.429 . S
C1331 C1332 1.523 . S
C1332 C1313 1.368 . S
C1332 C1326 1.368 . S
C1332 C1331 1.523 . S
C1333 C1317 1.429 . S
C1333 C1329 1.429 . S
C1333 C1334 1.523 . S
C1334 C1318 1.368 . S
C1334 C1330 1.368 . S
C1334 C1333 1.523 . S
H1335 C1310 0.950 . S
H1336 C1312 0.950 . S
H1337 C1313 0.949 . S
H1338 C1315 0.950 . S
H1339 C1317 0.950 . S
C1340 C1341 1.349 . S
C1340 C1342 1.327 . S
C1340 H1365 0.950 . S
C1341 C1340 1.349 . S
C1341 C1357 1.349 . S
C1342 C1340 1.327 . S
C1342 C1361 1.429 . S
C1342 H1366 0.950 . S
C1343 C1360 1.574 . S
C1343 C1362 1.368 . S
C1343 H1367 0.949 . S
H1344 C1348 0.949 . S
C1345 C1346 1.349 . S
C1345 C1347 1.327 . S
C1345 H1368 0.950 . S
C1346 C1345 1.349 . S
C1346 C1358 1.349 . S
C1347 C1345 1.327 . S
C1347 C1363 1.429 . S
C1347 H1369 0.950 . S
C1348 H1344 0.949 . S
C1348 C1356 1.574 . S
C1348 C1364 1.368 . S
H1349 C1357 0.950 . S
H1350 C1355 0.950 . S
H1351 C1356 0.949 . S
H1352 C1358 0.950 . S
H1353 C1359 0.950 . S
H1354 C1360 0.949 . S
C1355 H1350 0.950 . S
C1355 C1357 1.327 . S
C1355 C1361 1.429 . S
C1356 C1348 1.574 . S
C1356 H1351 0.949 . S
C1356 C1362 1.368 . S
C1357 C1341 1.349 . S
C1357 H1349 0.950 . S
C1357 C1355 1.327 . S
C1358 C1346 1.349 . S
C1358 H1352 0.950 . S
C1358 C1359 1.327 . S
C1359 H1353 0.950 . S
C1359 C1358 1.327 . S
C1359 C1363 1.429 . S
C1360 C1343 1.574 . S
C1360 H1354 0.949 . S
C1360 C1364 1.368 . S
C1361 C1342 1.429 . S
C1361 C1355 1.429 . S
C1361 C1362 1.523 . S
C1362 C1343 1.368 . S
C1362 C1356 1.368 . S
C1362 C1361 1.523 . S
C1363 C1347 1.429 . S
C1363 C1359 1.429 . S
C1363 C1364 1.523 . S
C1364 C1348 1.368 . S
C1364 C1360 1.368 . S
C1364 C1363 1.523 . S
H1365 C1340 0.950 . S
H1366 C1342 0.950 . S
H1367 C1343 0.949 . S
H1368 C1345 0.950 . S
H1369 C1347 0.950 . S
C1370 C1371 1.349 . S
C1370 C1372 1.327 . S
C1370 H1395 0.950 . S
C1371 C1370 1.349 . S
C1371 C1387 1.349 . S
C1372 C1370 1.327 . S
C1372 C1391 1.429 . S
C1372 H1396 0.950 . S
C1373 C1390 1.574 . S
C1373 C1392 1.368 . S
C1373 H1397 0.949 . S
H1374 C1378 0.949 . S
C1375 C1376 1.349 . S
C1375 C1377 1.327 . S
C1375 H1398 0.950 . S
C1376 C1375 1.349 . S
C1376 C1388 1.349 . S
C1377 C1375 1.327 . S
C1377 C1393 1.429 . S
C1377 H1399 0.950 . S
C1378 H1374 0.949 . S
C1378 C1386 1.574 . S
C1378 C1394 1.368 . S
H1379 C1387 0.950 . S
H1380 C1385 0.950 . S
H1381 C1386 0.949 . S
H1382 C1388 0.950 . S
H1383 C1389 0.950 . S
H1384 C1390 0.949 . S
C1385 H1380 0.950 . S
C1385 C1387 1.327 . S
C1385 C1391 1.429 . S
C1386 C1378 1.574 . S
C1386 H1381 0.949 . S
C1386 C1392 1.368 . S
C1387 C1371 1.349 . S
C1387 H1379 0.950 . S
C1387 C1385 1.327 . S
C1388 C1376 1.349 . S
C1388 H1382 0.950 . S
C1388 C1389 1.327 . S
C1389 H1383 0.950 . S
C1389 C1388 1.327 . S
C1389 C1393 1.429 . S
C1390 C1373 1.574 . S
C1390 H1384 0.949 . S
C1390 C1394 1.368 . S
C1391 C1372 1.429 . S
C1391 C1385 1.429 . S
C1391 C1392 1.523 . S
C1392 C1373 1.368 . S
C1392 C1386 1.368 . S
C1392 C1391 1.523 . S
C1393 C1377 1.429 . S
C1393 C1389 1.429 . S
C1393 C1394 1.523 . S
C1394 C1378 1.368 . S
C1394 C1390 1.368 . S
C1394 C1393 1.523 . S
H1395 C1370 0.950 . S
H1396 C1372 0.950 . S
H1397 C1373 0.949 . S
H1398 C1375 0.950 . S
H1399 C1377 0.950 . S
C1400 C1401 1.349 . S
C1400 C1402 1.327 . S
C1400 H1425 0.950 . S
C1401 C1400 1.349 . S
C1401 C1417 1.349 . S
C1402 C1400 1.327 . S
C1402 C1421 1.429 . S
C1402 H1426 0.950 . S
C1403 C1420 1.574 . S
C1403 C1422 1.368 . S
C1403 H1427 0.949 . S
H1404 C1408 0.949 . S
C1405 C1406 1.349 . S
C1405 C1407 1.327 . S
C1405 H1428 0.950 . S
C1406 C1405 1.349 . S
C1406 C1418 1.349 . S
C1407 C1405 1.327 . S
C1407 C1423 1.429 . S
C1407 H1429 0.950 . S
C1408 H1404 0.949 . S
C1408 C1416 1.574 . S
C1408 C1424 1.368 . S
H1409 C1417 0.950 . S
H1410 C1415 0.950 . S
H1411 C1416 0.949 . S
H1412 C1418 0.950 . S
H1413 C1419 0.950 . S
H1414 C1420 0.949 . S
C1415 H1410 0.950 . S
C1415 C1417 1.327 . S
C1415 C1421 1.429 . S
C1416 C1408 1.574 . S
C1416 H1411 0.949 . S
C1416 C1422 1.368 . S
C1417 C1401 1.349 . S
C1417 H1409 0.950 . S
C1417 C1415 1.327 . S
C1418 C1406 1.349 . S
C1418 H1412 0.950 . S
C1418 C1419 1.327 . S
C1419 H1413 0.950 . S
C1419 C1418 1.327 . S
C1419 C1423 1.429 . S
C1420 C1403 1.574 . S
C1420 H1414 0.949 . S
C1420 C1424 1.368 . S
C1421 C1402 1.429 . S
C1421 C1415 1.429 . S
C1421 C1422 1.523 . S
C1422 C1403 1.368 . S
C1422 C1416 1.368 . S
C1422 C1421 1.523 . S
C1423 C1407 1.429 . S
C1423 C1419 1.429 . S
C1423 C1424 1.523 . S
C1424 C1408 1.368 . S
C1424 C1420 1.368 . S
C1424 C1423 1.523 . S
H1425 C1400 0.950 . S
H1426 C1402 0.950 . S
H1427 C1403 0.949 . S
H1428 C1405 0.950 . S
H1429 C1407 0.950 . S
C1430 C1431 1.349 . S
C1430 C1432 1.327 . S
C1430 H1455 0.950 . S
C1431 C1430 1.349 . S
C1431 C1447 1.349 . S
C1432 C1430 1.327 . S
C1432 C1451 1.429 . S
C1432 H1456 0.950 . S
C1433 C1450 1.574 . S
C1433 C1452 1.368 . S
C1433 H1457 0.949 . S
H1434 C1438 0.949 . S
C1435 C1436 1.349 . S
C1435 C1437 1.327 . S
C1435 H1458 0.950 . S
C1436 C1435 1.349 . S
C1436 C1448 1.349 . S
C1437 C1435 1.327 . S
C1437 C1453 1.429 . S
C1437 H1459 0.950 . S
C1438 H1434 0.949 . S
C1438 C1446 1.574 . S
C1438 C1454 1.368 . S
H1439 C1447 0.950 . S
H1440 C1445 0.950 . S
H1441 C1446 0.949 . S
H1442 C1448 0.950 . S
H1443 C1449 0.950 . S
H1444 C1450 0.949 . S
C1445 H1440 0.950 . S
C1445 C1447 1.327 . S
C1445 C1451 1.429 . S
C1446 C1438 1.574 . S
C1446 H1441 0.949 . S
C1446 C1452 1.368 . S
C1447 C1431 1.349 . S
C1447 H1439 0.950 . S
C1447 C1445 1.327 . S
C1448 C1436 1.349 . S
C1448 H1442 0.950 . S
C1448 C1449 1.327 . S
C1449 H1443 0.950 . S
C1449 C1448 1.327 . S
C1449 C1453 1.429 . S
C1450 C1433 1.574 . S
C1450 H1444 0.949 . S
C1450 C1454 1.368 . S
C1451 C1432 1.429 . S
C1451 C1445 1.429 . S
C1451 C1452 1.523 . S
C1452 C1433 1.368 . S
C1452 C1446 1.368 . S
C1452 C1451 1.523 . S
C1453 C1437 1.429 . S
C1453 C1449 1.429 . S
C1453 C1454 1.523 . S
C1454 C1438 1.368 . S
C1454 C1450 1.368 . S
C1454 C1453 1.523 . S
H1455 C1430 0.950 . S
H1456 C1432 0.950 . S
H1457 C1433 0.949 . S
H1458 C1435 0.950 . S
H1459 C1437 0.950 . S
C1460 C1461 1.349 . S
C1460 C1462 1.327 . S
C1460 H1485 0.950 . S
C1461 C1460 1.349 . S
C1461 C1477 1.349 . S
C1462 C1460 1.327 . S
C1462 C1481 1.429 . S
C1462 H1486 0.950 . S
C1463 C1480 1.574 . S
C1463 C1482 1.368 . S
C1463 H1487 0.949 . S
H1464 C1468 0.949 . S
C1465 C1466 1.349 . S
C1465 C1467 1.327 . S
C1465 H1488 0.950 . S
C1466 C1465 1.349 . S
C1466 C1478 1.349 . S
C1467 C1465 1.327 . S
C1467 C1483 1.429 . S
C1467 H1489 0.950 . S
C1468 H1464 0.949 . S
C1468 C1476 1.574 . S
C1468 C1484 1.368 . S
H1469 C1477 0.950 . S
H1470 C1475 0.950 . S
H1471 C1476 0.949 . S
H1472 C1478 0.950 . S
H1473 C1479 0.950 . S
H1474 C1480 0.949 . S
C1475 H1470 0.950 . S
C1475 C1477 1.327 . S
C1475 C1481 1.429 . S
C1476 C1468 1.574 . S
C1476 H1471 0.949 . S
C1476 C1482 1.368 . S
C1477 C1461 1.349 . S
C1477 H1469 0.950 . S
C1477 C1475 1.327 . S
C1478 C1466 1.349 . S
C1478 H1472 0.950 . S
C1478 C1479 1.327 . S
C1479 H1473 0.950 . S
C1479 C1478 1.327 . S
C1479 C1483 1.429 . S
C1480 C1463 1.574 . S
C1480 H1474 0.949 . S
C1480 C1484 1.368 . S
C1481 C1462 1.429 . S
C1481 C1475 1.429 . S
C1481 C1482 1.523 . S
C1482 C1463 1.368 . S
C1482 C1476 1.368 . S
C1482 C1481 1.523 . S
C1483 C1467 1.429 . S
C1483 C1479 1.429 . S
C1483 C1484 1.523 . S
C1484 C1468 1.368 . S
C1484 C1480 1.368 . S
C1484 C1483 1.523 . S
H1485 C1460 0.950 . S
H1486 C1462 0.950 . S
H1487 C1463 0.949 . S
H1488 C1465 0.950 . S
H1489 C1467 0.950 . S
C1490 C1491 1.349 . S
C1490 C1492 1.327 . S
C1490 H1515 0.950 . S
C1491 C1490 1.349 . S
C1491 C1507 1.349 . S
C1492 C1490 1.327 . S
C1492 C1511 1.429 . S
C1492 H1516 0.950 . S
C1493 C1510 1.574 . S
C1493 C1512 1.368 . S
C1493 H1517 0.949 . S
H1494 C1498 0.949 . S
C1495 C1496 1.349 . S
C1495 C1497 1.327 . S
C1495 H1518 0.950 . S
C1496 C1495 1.349 . S
C1496 C1508 1.349 . S
C1497 C1495 1.327 . S
C1497 C1513 1.429 . S
C1497 H1519 0.950 . S
C1498 H1494 0.949 . S
C1498 C1506 1.574 . S
C1498 C1514 1.368 . S
H1499 C1507 0.950 . S
H1500 C1505 0.950 . S
H1501 C1506 0.949 . S
H1502 C1508 0.950 . S
H1503 C1509 0.950 . S
H1504 C1510 0.949 . S
C1505 H1500 0.950 . S
C1505 C1507 1.327 . S
C1505 C1511 1.429 . S
C1506 C1498 1.574 . S
C1506 H1501 0.949 . S
C1506 C1512 1.368 . S
C1507 C1491 1.349 . S
C1507 H1499 0.950 . S
C1507 C1505 1.327 . S
C1508 C1496 1.349 . S
C1508 H1502 0.950 . S
C1508 C1509 1.327 . S
C1509 H1503 0.950 . S
C1509 C1508 1.327 . S
C1509 C1513 1.429 . S
C1510 C1493 1.574 . S
C1510 H1504 0.949 . S
C1510 C1514 1.368 . S
C1511 C1492 1.429 . S
C1511 C1505 1.429 . S
C1511 C1512 1.523 . S
C1512 C1493 1.368 . S
C1512 C1506 1.368 . S
C1512 C1511 1.523 . S
C1513 C1497 1.429 . S
C1513 C1509 1.429 . S
C1513 C1514 1.523 . S
C1514 C1498 1.368 . S
C1514 C1510 1.368 . S
C1514 C1513 1.523 . S
H1515 C1490 0.950 . S
H1516 C1492 0.950 . S
H1517 C1493 0.949 . S
H1518 C1495 0.950 . S
H1519 C1497 0.950 . S
C1520 C1521 1.349 . S
C1520 C1522 1.327 . S
C1520 H1545 0.950 . S
C1521 C1520 1.349 . S
C1521 C1537 1.349 . S
C1522 C1520 1.327 . S
C1522 C1541 1.429 . S
C1522 H1546 0.950 . S
C1523 C1540 1.574 . S
C1523 C1542 1.368 . S
C1523 H1547 0.949 . S
H1524 C1528 0.949 . S
C1525 C1526 1.349 . S
C1525 C1527 1.327 . S
C1525 H1548 0.950 . S
C1526 C1525 1.349 . S
C1526 C1538 1.349 . S
C1527 C1525 1.327 . S
C1527 C1543 1.429 . S
C1527 H1549 0.950 . S
C1528 H1524 0.949 . S
C1528 C1536 1.574 . S
C1528 C1544 1.368 . S
H1529 C1537 0.950 . S
H1530 C1535 0.950 . S
H1531 C1536 0.949 . S
H1532 C1538 0.950 . S
H1533 C1539 0.950 . S
H1534 C1540 0.949 . S
C1535 H1530 0.950 . S
C1535 C1537 1.327 . S
C1535 C1541 1.429 . S
C1536 C1528 1.574 . S
C1536 H1531 0.949 . S
C1536 C1542 1.368 . S
C1537 C1521 1.349 . S
C1537 H1529 0.950 . S
C1537 C1535 1.327 . S
C1538 C1526 1.349 . S
C1538 H1532 0.950 . S
C1538 C1539 1.327 . S
C1539 H1533 0.950 . S
C1539 C1538 1.327 . S
C1539 C1543 1.429 . S
C1540 C1523 1.574 . S
C1540 H1534 0.949 . S
C1540 C1544 1.368 . S
C1541 C1522 1.429 . S
C1541 C1535 1.429 . S
C1541 C1542 1.523 . S
C1542 C1523 1.368 . S
C1542 C1536 1.368 . S
C1542 C1541 1.523 . S
C1543 C1527 1.429 . S
C1543 C1539 1.429 . S
C1543 C1544 1.523 . S
C1544 C1528 1.368 . S
C1544 C1540 1.368 . S
C1544 C1543 1.523 . S
H1545 C1520 0.950 . S
H1546 C1522 0.950 . S
H1547 C1523 0.949 . S
H1548 C1525 0.950 . S
H1549 C1527 0.950 . S
C1550 C1551 1.349 . S
C1550 C1552 1.327 . S
C1550 H1575 0.950 . S
C1551 C1550 1.349 . S
C1551 C1567 1.349 . S
C1552 C1550 1.327 . S
C1552 C1571 1.429 . S
C1552 H1576 0.950 . S
C1553 C1570 1.574 . S
C1553 C1572 1.368 . S
C1553 H1577 0.949 . S
H1554 C1558 0.949 . S
C1555 C1556 1.349 . S
C1555 C1557 1.327 . S
C1555 H1578 0.950 . S
C1556 C1555 1.349 . S
C1556 C1568 1.349 . S
C1557 C1555 1.327 . S
C1557 C1573 1.429 . S
C1557 H1579 0.950 . S
C1558 H1554 0.949 . S
C1558 C1566 1.574 . S
C1558 C1574 1.368 . S
H1559 C1567 0.950 . S
H1560 C1565 0.950 . S
H1561 C1566 0.949 . S
H1562 C1568 0.950 . S
H1563 C1569 0.950 . S
H1564 C1570 0.949 . S
C1565 H1560 0.950 . S
C1565 C1567 1.327 . S
C1565 C1571 1.429 . S
C1566 C1558 1.574 . S
C1566 H1561 0.949 . S
C1566 C1572 1.368 . S
C1567 C1551 1.349 . S
C1567 H1559 0.950 . S
C1567 C1565 1.327 . S
C1568 C1556 1.349 . S
C1568 H1562 0.950 . S
C1568 C1569 1.327 . S
C1569 H1563 0.950 . S
C1569 C1568 1.327 . S
C1569 C1573 1.429 . S
C1570 C1553 1.574 . S
C1570 H1564 0.949 . S
C1570 C1574 1.368 . S
C1571 C1552 1.429 . S
C1571 C1565 1.429 . S
C1571 C1572 1.523 . S
C1572 C1553 1.368 . S
C1572 C1566 1.368 . S
C1572 C1571 1.523 . S
C1573 C1557 1.429 . S
C1573 C1569 1.429 . S
C1573 C1574 1.523 . S
C1574 C1558 1.368 . S
C1574 C1570 1.368 . S
C1574 C1573 1.523 . S
H1575 C1550 0.950 . S
H1576 C1552 0.950 . S
H1577 C1553 0.949 . S
H1578 C1555 0.950 . S
H1579 C1557 0.950 . S
C1580 C1581 1.349 . S
C1580 C1582 1.327 . S
C1580 H1605 0.950 . S
C1581 C1580 1.349 . S
C1581 C1597 1.349 . S
C1582 C1580 1.327 . S
C1582 C1601 1.429 . S
C1582 H1606 0.950 . S
C1583 C1600 1.574 . S
C1583 C1602 1.368 . S
C1583 H1607 0.949 . S
H1584 C1588 0.949 . S
C1585 C1586 1.349 . S
C1585 C1587 1.327 . S
C1585 H1608 0.950 . S
C1586 C1585 1.349 . S
C1586 C1598 1.349 . S
C1587 C1585 1.327 . S
C1587 C1603 1.429 . S
C1587 H1609 0.950 . S
C1588 H1584 0.949 . S
C1588 C1596 1.574 . S
C1588 C1604 1.368 . S
H1589 C1597 0.950 . S
H1590 C1595 0.950 . S
H1591 C1596 0.949 . S
H1592 C1598 0.950 . S
H1593 C1599 0.950 . S
H1594 C1600 0.949 . S
C1595 H1590 0.950 . S
C1595 C1597 1.327 . S
C1595 C1601 1.429 . S
C1596 C1588 1.574 . S
C1596 H1591 0.949 . S
C1596 C1602 1.368 . S
C1597 C1581 1.349 . S
C1597 H1589 0.950 . S
C1597 C1595 1.327 . S
C1598 C1586 1.349 . S
C1598 H1592 0.950 . S
C1598 C1599 1.327 . S
C1599 H1593 0.950 . S
C1599 C1598 1.327 . S
C1599 C1603 1.429 . S
C1600 C1583 1.574 . S
C1600 H1594 0.949 . S
C1600 C1604 1.368 . S
C1601 C1582 1.429 . S
C1601 C1595 1.429 . S
C1601 C1602 1.523 . S
C1602 C1583 1.368 . S
C1602 C1596 1.368 . S
C1602 C1601 1.523 . S
C1603 C1587 1.429 . S
C1603 C1599 1.429 . S
C1603 C1604 1.523 . S
C1604 C1588 1.368 . S
C1604 C1600 1.368 . S
C1604 C1603 1.523 . S
H1605 C1580 0.950 . S
H1606 C1582 0.950 . S
H1607 C1583 0.949 . S
H1608 C1585 0.950 . S
H1609 C1587 0.950 . S
C1610 C1611 1.349 . S
C1610 C1612 1.327 . S
C1610 H1635 0.950 . S
C1611 C1610 1.349 . S
C1611 C1627 1.349 . S
C1612 C1610 1.327 . S
C1612 C1631 1.429 . S
C1612 H1636 0.950 . S
C1613 C1630 1.574 . S
C1613 C1632 1.368 . S
C1613 H1637 0.949 . S
H1614 C1618 0.949 . S
C1615 C1616 1.349 . S
C1615 C1617 1.327 . S
C1615 H1638 0.950 . S
C1616 C1615 1.349 . S
C1616 C1628 1.349 . S
C1617 C1615 1.327 . S
C1617 C1633 1.429 . S
C1617 H1639 0.950 . S
C1618 H1614 0.949 . S
C1618 C1626 1.574 . S
C1618 C1634 1.368 . S
H1619 C1627 0.950 . S
H1620 C1625 0.950 . S
H1621 C1626 0.949 . S
H1622 C1628 0.950 . S
H1623 C1629 0.950 . S
H1624 C1630 0.949 . S
C1625 H1620 0.950 . S
C1625 C1627 1.327 . S
C1625 C1631 1.429 . S
C1626 C1618 1.574 . S
C1626 H1621 0.949 . S
C1626 C1632 1.368 . S
C1627 C1611 1.349 . S
C1627 H1619 0.950 . S
C1627 C1625 1.327 . S
C1628 C1616 1.349 . S
C1628 H1622 0.950 . S
C1628 C1629 1.327 . S
C1629 H1623 0.950 . S
C1629 C1628 1.327 . S
C1629 C1633 1.429 . S
C1630 C1613 1.574 . S
C1630 H1624 0.949 . S
C1630 C1634 1.368 . S
C1631 C1612 1.429 . S
C1631 C1625 1.429 . S
C1631 C1632 1.523 . S
C1632 C1613 1.368 . S
C1632 C1626 1.368 . S
C1632 C1631 1.523 . S
C1633 C1617 1.429 . S
C1633 C1629 1.429 . S
C1633 C1634 1.523 . S
C1634 C1618 1.368 . S
C1634 C1630 1.368 . S
C1634 C1633 1.523 . S
H1635 C1610 0.950 . S
H1636 C1612 0.950 . S
H1637 C1613 0.949 . S
H1638 C1615 0.950 . S
H1639 C1617 0.950 . S
C1640 C1641 1.349 . S
C1640 C1642 1.327 . S
C1640 H1665 0.950 . S
C1641 C1640 1.349 . S
C1641 C1657 1.349 . S
C1642 C1640 1.327 . S
C1642 C1661 1.429 . S
C1642 H1666 0.950 . S
C1643 C1660 1.574 . S
C1643 C1662 1.368 . S
C1643 H1667 0.949 . S
H1644 C1648 0.949 . S
C1645 C1646 1.349 . S
C1645 C1647 1.327 . S
C1645 H1668 0.950 . S
C1646 C1645 1.349 . S
C1646 C1658 1.349 . S
C1647 C1645 1.327 . S
C1647 C1663 1.429 . S
C1647 H1669 0.950 . S
C1648 H1644 0.949 . S
C1648 C1656 1.574 . S
C1648 C1664 1.368 . S
H1649 C1657 0.950 . S
H1650 C1655 0.950 . S
H1651 C1656 0.949 . S
H1652 C1658 0.950 . S
H1653 C1659 0.950 . S
H1654 C1660 0.949 . S
C1655 H1650 0.950 . S
C1655 C1657 1.327 . S
C1655 C1661 1.429 . S
C1656 C1648 1.574 . S
C1656 H1651 0.949 . S
C1656 C1662 1.368 . S
C1657 C1641 1.349 . S
C1657 H1649 0.950 . S
C1657 C1655 1.327 . S
C1658 C1646 1.349 . S
C1658 H1652 0.950 . S
C1658 C1659 1.327 . S
C1659 H1653 0.950 . S
C1659 C1658 1.327 . S
C1659 C1663 1.429 . S
C1660 C1643 1.574 . S
C1660 H1654 0.949 . S
C1660 C1664 1.368 . S
C1661 C1642 1.429 . S
C1661 C1655 1.429 . S
C1661 C1662 1.523 . S
C1662 C1643 1.368 . S
C1662 C1656 1.368 . S
C1662 C1661 1.523 . S
C1663 C1647 1.429 . S
C1663 C1659 1.429 . S
C1663 C1664 1.523 . S
C1664 C1648 1.368 . S
C1664 C1660 1.368 . S
C1664 C1663 1.523 . S
H1665 C1640 0.950 . S
H1666 C1642 0.950 . S
H1667 C1643 0.949 . S
H1668 C1645 0.950 . S
H1669 C1647 0.950 . S
C1670 C1671 1.349 . S
C1670 C1672 1.327 . S
C1670 H1695 0.950 . S
C1671 C1670 1.349 . S
C1671 C1687 1.349 . S
C1672 C1670 1.327 . S
C1672 C1691 1.429 . S
C1672 H1696 0.950 . S
C1673 C1690 1.574 . S
C1673 C1692 1.368 . S
C1673 H1697 0.949 . S
H1674 C1678 0.949 . S
C1675 C1676 1.349 . S
C1675 C1677 1.327 . S
C1675 H1698 0.950 . S
C1676 C1675 1.349 . S
C1676 C1688 1.349 . S
C1677 C1675 1.327 . S
C1677 C1693 1.429 . S
C1677 H1699 0.950 . S
C1678 H1674 0.949 . S
C1678 C1686 1.574 . S
C1678 C1694 1.368 . S
H1679 C1687 0.950 . S
H1680 C1685 0.950 . S
H1681 C1686 0.949 . S
H1682 C1688 0.950 . S
H1683 C1689 0.950 . S
H1684 C1690 0.949 . S
C1685 H1680 0.950 . S
C1685 C1687 1.327 . S
C1685 C1691 1.429 . S
C1686 C1678 1.574 . S
C1686 H1681 0.949 . S
C1686 C1692 1.368 . S
C1687 C1671 1.349 . S
C1687 H1679 0.950 . S
C1687 C1685 1.327 . S
C1688 C1676 1.349 . S
C1688 H1682 0.950 . S
C1688 C1689 1.327 . S
C1689 H1683 0.950 . S
C1689 C1688 1.327 . S
C1689 C1693 1.429 . S
C1690 C1673 1.574 . S
C1690 H1684 0.949 . S
C1690 C1694 1.368 . S
C1691 C1672 1.429 . S
C1691 C1685 1.429 . S
C1691 C1692 1.523 . S
C1692 C1673 1.368 . S
C1692 C1686 1.368 . S
C1692 C1691 1.523 . S
C1693 C1677 1.429 . S
C1693 C1689 1.429 . S
C1693 C1694 1.523 . S
C1694 C1678 1.368 . S
C1694 C1690 1.368 . S
C1694 C1693 1.523 . S
H1695 C1670 0.950 . S
H1696 C1672 0.950 . S
H1697 C1673 0.949 . S
H1698 C1675 0.950 . S
H1699 C1677 0.950 . S
C1700 C1701 1.349 . S
C1700 C1702 1.327 . S
C1700 H1725 0.950 . S
C1701 C1700 1.349 . S
C1701 C1717 1.349 . S
C1702 C1700 1.327 . S
C1702 C1721 1.429 . S
C1702 H1726 0.950 . S
C1703 C1720 1.574 . S
C1703 C1722 1.368 . S
C1703 H1727 0.949 . S
H1704 C1708 0.949 . S
C1705 C1706 1.349 . S
C1705 C1707 1.327 . S
C1705 H1728 0.950 . S
C1706 C1705 1.349 . S
C1706 C1718 1.349 . S
C1707 C1705 1.327 . S
C1707 C1723 1.429 . S
C1707 H1729 0.950 . S
C1708 H1704 0.949 . S
C1708 C1716 1.574 . S
C1708 C1724 1.368 . S
H1709 C1717 0.950 . S
H1710 C1715 0.950 . S
H1711 C1716 0.949 . S
H1712 C1718 0.950 . S
H1713 C1719 0.950 . S
H1714 C1720 0.949 . S
C1715 H1710 0.950 . S
C1715 C1717 1.327 . S
C1715 C1721 1.429 . S
C1716 C1708 1.574 . S
C1716 H1711 0.949 . S
C1716 C1722 1.368 . S
C1717 C1701 1.349 . S
C1717 H1709 0.950 . S
C1717 C1715 1.327 . S
C1718 C1706 1.349 . S
C1718 H1712 0.950 . S
C1718 C1719 1.327 . S
C1719 H1713 0.950 . S
C1719 C1718 1.327 . S
C1719 C1723 1.429 . S
C1720 C1703 1.574 . S
C1720 H1714 0.949 . S
C1720 C1724 1.368 . S
C1721 C1702 1.429 . S
C1721 C1715 1.429 . S
C1721 C1722 1.523 . S
C1722 C1703 1.368 . S
C1722 C1716 1.368 . S
C1722 C1721 1.523 . S
C1723 C1707 1.429 . S
C1723 C1719 1.429 . S
C1723 C1724 1.523 . S
C1724 C1708 1.368 . S
C1724 C1720 1.368 . S
C1724 C1723 1.523 . S
H1725 C1700 0.950 . S
H1726 C1702 0.950 . S
H1727 C1703 0.949 . S
H1728 C1705 0.950 . S
H1729 C1707 0.950 . S
C1730 C1731 1.349 . S
C1730 C1732 1.327 . S
C1730 H1755 0.950 . S
C1731 C1730 1.349 . S
C1731 C1747 1.349 . S
C1732 C1730 1.327 . S
C1732 C1751 1.429 . S
C1732 H1756 0.950 . S
C1733 C1750 1.574 . S
C1733 C1752 1.368 . S
C1733 H1757 0.949 . S
H1734 C1738 0.949 . S
C1735 C1736 1.349 . S
C1735 C1737 1.327 . S
C1735 H1758 0.950 . S
C1736 C1735 1.349 . S
C1736 C1748 1.349 . S
C1737 C1735 1.327 . S
C1737 C1753 1.429 . S
C1737 H1759 0.950 . S
C1738 H1734 0.949 . S
C1738 C1746 1.574 . S
C1738 C1754 1.368 . S
H1739 C1747 0.950 . S
H1740 C1745 0.950 . S
H1741 C1746 0.949 . S
H1742 C1748 0.950 . S
H1743 C1749 0.950 . S
H1744 C1750 0.949 . S
C1745 H1740 0.950 . S
C1745 C1747 1.327 . S
C1745 C1751 1.429 . S
C1746 C1738 1.574 . S
C1746 H1741 0.949 . S
C1746 C1752 1.368 . S
C1747 C1731 1.349 . S
C1747 H1739 0.950 . S
C1747 C1745 1.327 . S
C1748 C1736 1.349 . S
C1748 H1742 0.950 . S
C1748 C1749 1.327 . S
C1749 H1743 0.950 . S
C1749 C1748 1.327 . S
C1749 C1753 1.429 . S
C1750 C1733 1.574 . S
C1750 H1744 0.949 . S
C1750 C1754 1.368 . S
C1751 C1732 1.429 . S
C1751 C1745 1.429 . S
C1751 C1752 1.523 . S
C1752 C1733 1.368 . S
C1752 C1746 1.368 . S
C1752 C1751 1.523 . S
C1753 C1737 1.429 . S
C1753 C1749 1.429 . S
C1753 C1754 1.523 . S
C1754 C1738 1.368 . S
C1754 C1750 1.368 . S
C1754 C1753 1.523 . S
H1755 C1730 0.950 . S
H1756 C1732 0.950 . S
H1757 C1733 0.949 . S
H1758 C1735 0.950 . S
H1759 C1737 0.950 . S
C1760 C1761 1.349 . S
C1760 C1762 1.327 . S
C1760 H1785 0.950 . S
C1761 C1760 1.349 . S
C1761 C1777 1.349 . S
C1762 C1760 1.327 . S
C1762 C1781 1.429 . S
C1762 H1786 0.950 . S
C1763 C1780 1.574 . S
C1763 C1782 1.368 . S
C1763 H1787 0.949 . S
H1764 C1768 0.949 . S
C1765 C1766 1.349 . S
C1765 C1767 1.327 . S
C1765 H1788 0.950 . S
C1766 C1765 1.349 . S
C1766 C1778 1.349 . S
C1767 C1765 1.327 . S
C1767 C1783 1.429 . S
C1767 H1789 0.950 . S
C1768 H1764 0.949 . S
C1768 C1776 1.574 . S
C1768 C1784 1.368 . S
H1769 C1777 0.950 . S
H1770 C1775 0.950 . S
H1771 C1776 0.949 . S
H1772 C1778 0.950 . S
H1773 C1779 0.950 . S
H1774 C1780 0.949 . S
C1775 H1770 0.950 . S
C1775 C1777 1.327 . S
C1775 C1781 1.429 . S
C1776 C1768 1.574 . S
C1776 H1771 0.949 . S
C1776 C1782 1.368 . S
C1777 C1761 1.349 . S
C1777 H1769 0.950 . S
C1777 C1775 1.327 . S
C1778 C1766 1.349 . S
C1778 H1772 0.950 . S
C1778 C1779 1.327 . S
C1779 H1773 0.950 . S
C1779 C1778 1.327 . S
C1779 C1783 1.429 . S
C1780 C1763 1.574 . S
C1780 H1774 0.949 . S
C1780 C1784 1.368 . S
C1781 C1762 1.429 . S
C1781 C1775 1.429 . S
C1781 C1782 1.523 . S
C1782 C1763 1.368 . S
C1782 C1776 1.368 . S
C1782 C1781 1.523 . S
C1783 C1767 1.429 . S
C1783 C1779 1.429 . S
C1783 C1784 1.523 . S
C1784 C1768 1.368 . S
C1784 C1780 1.368 . S
C1784 C1783 1.523 . S
H1785 C1760 0.950 . S
H1786 C1762 0.950 . S
H1787 C1763 0.949 . S
H1788 C1765 0.950 . S
H1789 C1767 0.950 . S
C1790 C1791 1.349 . S
C1790 C1792 1.327 . S
C1790 H1815 0.950 . S
C1791 C1790 1.349 . S
C1791 C1807 1.349 . S
C1792 C1790 1.327 . S
C1792 C1811 1.429 . S
C1792 H1816 0.950 . S
C1793 C1810 1.574 . S
C1793 C1812 1.368 . S
C1793 H1817 0.949 . S
H1794 C1798 0.949 . S
C1795 C1796 1.349 . S
C1795 C1797 1.327 . S
C1795 H1818 0.950 . S
C1796 C1795 1.349 . S
C1796 C1808 1.349 . S
C1797 C1795 1.327 . S
C1797 C1813 1.429 . S
C1797 H1819 0.950 . S
C1798 H1794 0.949 . S
C1798 C1806 1.574 . S
C1798 C1814 1.368 . S
H1799 C1807 0.950 . S
H1800 C1805 0.950 . S
H1801 C1806 0.949 . S
H1802 C1808 0.950 . S
H1803 C1809 0.950 . S
H1804 C1810 0.949 . S
C1805 H1800 0.950 . S
C1805 C1807 1.327 . S
C1805 C1811 1.429 . S
C1806 C1798 1.574 . S
C1806 H1801 0.949 . S
C1806 C1812 1.368 . S
C1807 C1791 1.349 . S
C1807 H1799 0.950 . S
C1807 C1805 1.327 . S
C1808 C1796 1.349 . S
C1808 H1802 0.950 . S
C1808 C1809 1.327 . S
C1809 H1803 0.950 . S
C1809 C1808 1.327 . S
C1809 C1813 1.429 . S
C1810 C1793 1.574 . S
C1810 H1804 0.949 . S
C1810 C1814 1.368 . S
C1811 C1792 1.429 . S
C1811 C1805 1.429 . S
C1811 C1812 1.523 . S
C1812 C1793 1.368 . S
C1812 C1806 1.368 . S
C1812 C1811 1.523 . S
C1813 C1797 1.429 . S
C1813 C1809 1.429 . S
C1813 C1814 1.523 . S
C1814 C1798 1.368 . S
C1814 C1810 1.368 . S
C1814 C1813 1.523 . S
H1815 C1790 0.950 . S
H1816 C1792 0.950 . S
H1817 C1793 0.949 . S
H1818 C1795 0.950 . S
H1819 C1797 0.950 . S
C1820 C1821 1.349 . S
C1820 C1822 1.327 . S
C1820 H1845 0.950 . S
C1821 C1820 1.349 . S
C1821 C1837 1.349 . S
C1822 C1820 1.327 . S
C1822 C1841 1.429 . S
C1822 H1846 0.950 . S
C1823 C1840 1.574 . S
C1823 C1842 1.368 . S
C1823 H1847 0.949 . S
H1824 C1828 0.949 . S
C1825 C1826 1.349 . S
C1825 C1827 1.327 . S
C1825 H1848 0.950 . S
C1826 C1825 1.349 . S
C1826 C1838 1.349 . S
C1827 C1825 1.327 . S
C1827 C1843 1.429 . S
C1827 H1849 0.950 . S
C1828 H1824 0.949 . S
C1828 C1836 1.574 . S
C1828 C1844 1.368 . S
H1829 C1837 0.950 . S
H1830 C1835 0.950 . S
H1831 C1836 0.949 . S
H1832 C1838 0.950 . S
H1833 C1839 0.950 . S
H1834 C1840 0.949 . S
C1835 H1830 0.950 . S
C1835 C1837 1.327 . S
C1835 C1841 1.429 . S
C1836 C1828 1.574 . S
C1836 H1831 0.949 . S
C1836 C1842 1.368 . S
C1837 C1821 1.349 . S
C1837 H1829 0.950 . S
C1837 C1835 1.327 . S
C1838 C1826 1.349 . S
C1838 H1832 0.950 . S
C1838 C1839 1.327 . S
C1839 H1833 0.950 . S
C1839 C1838 1.327 . S
C1839 C1843 1.429 . S
C1840 C1823 1.574 . S
C1840 H1834 0.949 . S
C1840 C1844 1.368 . S
C1841 C1822 1.429 . S
C1841 C1835 1.429 . S
C1841 C1842 1.523 . S
C1842 C1823 1.368 . S
C1842 C1836 1.368 . S
C1842 C1841 1.523 . S
C1843 C1827 1.429 . S
C1843 C1839 1.429 . S
C1843 C1844 1.523 . S
C1844 C1828 1.368 . S
C1844 C1840 1.368 . S
C1844 C1843 1.523 . S
H1845 C1820 0.950 . S
H1846 C1822 0.950 . S
H1847 C1823 0.949 . S
H1848 C1825 0.950 . S
H1849 C1827 0.950 . S
C1850 C1851 1.349 . S
C1850 C1852 1.327 . S
C1850 H1875 0.950 . S
C1851 C1850 1.349 . S
C1851 C1867 1.349 . S
C1852 C1850 1.327 . S
C1852 C1871 1.429 . S
C1852 H1876 0.950 . S
C1853 C1870 1.574 . S
C1853 C1872 1.368 . S
C1853 H1877 0.949 . S
H1854 C1858 0.949 . S
C1855 C1856 1.349 . S
C1855 C1857 1.327 . S
C1855 H1878 0.950 . S
C1856 C1855 1.349 . S
C1856 C1868 1.349 . S
C1857 C1855 1.327 . S
C1857 C1873 1.429 . S
C1857 H1879 0.950 . S
C1858 H1854 0.949 . S
C1858 C1866 1.574 . S
C1858 C1874 1.368 . S
H1859 C1867 0.950 . S
H1860 C1865 0.950 . S
H1861 C1866 0.949 . S
H1862 C1868 0.950 . S
H1863 C1869 0.950 . S
H1864 C1870 0.949 . S
C1865 H1860 0.950 . S
C1865 C1867 1.327 . S
C1865 C1871 1.429 . S
C1866 C1858 1.574 . S
C1866 H1861 0.949 . S
C1866 C1872 1.368 . S
C1867 C1851 1.349 . S
C1867 H1859 0.950 . S
C1867 C1865 1.327 . S
C1868 C1856 1.349 . S
C1868 H1862 0.950 . S
C1868 C1869 1.327 . S
C1869 H1863 0.950 . S
C1869 C1868 1.327 . S
C1869 C1873 1.429 . S
C1870 C1853 1.574 . S
C1870 H1864 0.949 . S
C1870 C1874 1.368 . S
C1871 C1852 1.429 . S
C1871 C1865 1.429 . S
C1871 C1872 1.523 . S
C1872 C1853 1.368 . S
C1872 C1866 1.368 . S
C1872 C1871 1.523 . S
C1873 C1857 1.429 . S
C1873 C1869 1.429 . S
C1873 C1874 1.523 . S
C1874 C1858 1.368 . S
C1874 C1870 1.368 . S
C1874 C1873 1.523 . S
H1875 C1850 0.950 . S
H1876 C1852 0.950 . S
H1877 C1853 0.949 . S
H1878 C1855 0.950 . S
H1879 C1857 0.950 . S
C1880 C1881 1.349 1_545 S
C1880 C1882 1.327 . S
C1880 H1905 0.950 . S
C1881 C1880 1.349 1_565 S
C1881 C1897 1.349 . S
C1882 C1880 1.327 . S
C1882 C1901 1.429 1_545 S
C1882 H1906 0.950 . S
C1883 C1900 1.574 . S
C1883 C1902 1.368 . S
C1883 H1907 0.949 . S
H1884 C1888 0.949 . S
C1885 C1886 1.349 . S
C1885 C1887 1.327 . S
C1885 H1908 0.950 . S
C1886 C1885 1.349 . S
C1886 C1898 1.349 1_565 S
C1887 C1885 1.327 . S
C1887 C1903 1.429 . S
C1887 H1909 0.950 . S
C1888 H1884 0.949 . S
C1888 C1896 1.574 . S
C1888 C1904 1.368 1_545 S
H1889 C1897 0.950 . S
H1890 C1895 0.950 . S
H1891 C1896 0.949 . S
H1892 C1898 0.950 . S
H1893 C1899 0.950 . S
H1894 C1900 0.949 . S
C1895 H1890 0.950 . S
C1895 C1897 1.327 . S
C1895 C1901 1.429 . S
C1896 C1888 1.574 . S
C1896 H1891 0.949 . S
C1896 C1902 1.368 1_545 S
C1897 C1881 1.349 . S
C1897 H1889 0.950 . S
C1897 C1895 1.327 . S
C1898 C1886 1.349 1_545 S
C1898 H1892 0.950 . S
C1898 C1899 1.327 . S
C1899 H1893 0.950 . S
C1899 C1898 1.327 . S
C1899 C1903 1.429 1_545 S
C1900 C1883 1.574 . S
C1900 H1894 0.949 . S
C1900 C1904 1.368 . S
C1901 C1882 1.429 1_565 S
C1901 C1895 1.429 . S
C1901 C1902 1.523 . S
C1902 C1883 1.368 . S
C1902 C1896 1.368 1_565 S
C1902 C1901 1.523 . S
C1903 C1887 1.429 . S
C1903 C1899 1.429 1_565 S
C1903 C1904 1.523 . S
C1904 C1888 1.368 1_565 S
C1904 C1900 1.368 . S
C1904 C1903 1.523 . S
H1905 C1880 0.950 . S
H1906 C1882 0.950 . S
H1907 C1883 0.949 . S
H1908 C1885 0.950 . S
H1909 C1887 0.950 . S
C1910 C1911 1.349 . S
C1910 C1912 1.327 . S
C1910 H1935 0.950 . S
C1911 C1910 1.349 . S
C1911 C1927 1.349 . S
C1912 C1910 1.327 . S
C1912 C1931 1.429 . S
C1912 H1936 0.950 . S
C1913 C1930 1.574 . S
C1913 C1932 1.368 . S
C1913 H1937 0.949 . S
H1914 C1918 0.949 . S
C1915 C1916 1.349 . S
C1915 C1917 1.327 . S
C1915 H1938 0.950 . S
C1916 C1915 1.349 . S
C1916 C1928 1.349 . S
C1917 C1915 1.327 . S
C1917 C1933 1.429 . S
C1917 H1939 0.950 . S
C1918 H1914 0.949 . S
C1918 C1926 1.574 . S
C1918 C1934 1.368 . S
H1919 C1927 0.950 . S
H1920 C1925 0.950 . S
H1921 C1926 0.949 . S
H1922 C1928 0.950 . S
H1923 C1929 0.950 . S
H1924 C1930 0.949 . S
C1925 H1920 0.950 . S
C1925 C1927 1.327 . S
C1925 C1931 1.429 . S
C1926 C1918 1.574 . S
C1926 H1921 0.949 . S
C1926 C1932 1.368 . S
C1927 C1911 1.349 . S
C1927 H1919 0.950 . S
C1927 C1925 1.327 . S
C1928 C1916 1.349 . S
C1928 H1922 0.950 . S
C1928 C1929 1.327 . S
C1929 H1923 0.950 . S
C1929 C1928 1.327 . S
C1929 C1933 1.429 . S
C1930 C1913 1.574 . S
C1930 H1924 0.949 . S
C1930 C1934 1.368 . S
C1931 C1912 1.429 . S
C1931 C1925 1.429 . S
C1931 C1932 1.523 . S
C1932 C1913 1.368 . S
C1932 C1926 1.368 . S
C1932 C1931 1.523 . S
C1933 C1917 1.429 . S
C1933 C1929 1.429 . S
C1933 C1934 1.523 . S
C1934 C1918 1.368 . S
C1934 C1930 1.368 . S
C1934 C1933 1.523 . S
H1935 C1910 0.950 . S
H1936 C1912 0.950 . S
H1937 C1913 0.949 . S
H1938 C1915 0.950 . S
H1939 C1917 0.950 . S
C1940 C1941 1.349 1_565 S
C1940 C1942 1.327 . S
C1940 H1965 0.950 . S
C1941 C1940 1.349 1_545 S
C1941 C1957 1.349 . S
C1942 C1940 1.327 . S
C1942 C1961 1.429 1_565 S
C1942 H1966 0.950 . S
C1943 C1960 1.574 . S
C1943 C1962 1.368 . S
C1943 H1967 0.949 . S
H1944 C1948 0.949 . S
C1945 C1946 1.349 . S
C1945 C1947 1.327 . S
C1945 H1968 0.950 . S
C1946 C1945 1.349 . S
C1946 C1958 1.349 1_545 S
C1947 C1945 1.327 . S
C1947 C1963 1.429 . S
C1947 H1969 0.950 . S
C1948 H1944 0.949 . S
C1948 C1956 1.574 . S
C1948 C1964 1.368 1_565 S
H1949 C1957 0.950 . S
H1950 C1955 0.950 . S
H1951 C1956 0.949 . S
H1952 C1958 0.950 . S
H1953 C1959 0.950 . S
H1954 C1960 0.949 . S
C1955 H1950 0.950 . S
C1955 C1957 1.327 . S
C1955 C1961 1.429 . S
C1956 C1948 1.574 . S
C1956 H1951 0.949 . S
C1956 C1962 1.368 1_565 S
C1957 C1941 1.349 . S
C1957 H1949 0.950 . S
C1957 C1955 1.327 . S
C1958 C1946 1.349 1_565 S
C1958 H1952 0.950 . S
C1958 C1959 1.327 . S
C1959 H1953 0.950 . S
C1959 C1958 1.327 . S
C1959 C1963 1.429 1_565 S
C1960 C1943 1.574 . S
C1960 H1954 0.949 . S
C1960 C1964 1.368 . S
C1961 C1942 1.429 1_545 S
C1961 C1955 1.429 . S
C1961 C1962 1.523 . S
C1962 C1943 1.368 . S
C1962 C1956 1.368 1_545 S
C1962 C1961 1.523 . S
C1963 C1947 1.429 . S
C1963 C1959 1.429 1_545 S
C1963 C1964 1.523 . S
C1964 C1948 1.368 1_545 S
C1964 C1960 1.368 . S
C1964 C1963 1.523 . S
H1965 C1940 0.950 . S
H1966 C1942 0.950 . S
H1967 C1943 0.949 . S
H1968 C1945 0.950 . S
H1969 C1947 0.950 . S
C1970 C1971 1.349 . S
C1970 C1972 1.327 . S
C1970 H1995 0.950 . S
C1971 C1970 1.349 . S
C1971 C1987 1.349 . S
C1972 C1970 1.327 . S
C1972 C1991 1.429 . S
C1972 H1996 0.950 . S
C1973 C1990 1.574 . S
C1973 C1992 1.368 . S
C1973 H1997 0.949 . S
H1974 C1978 0.949 . S
C1975 C1976 1.349 . S
C1975 C1977 1.327 . S
C1975 H1998 0.950 . S
C1976 C1975 1.349 . S
C1976 C1988 1.349 . S
C1977 C1975 1.327 . S
C1977 C1993 1.429 . S
C1977 H1999 0.950 . S
C1978 H1974 0.949 . S
C1978 C1986 1.574 . S
C1978 C1994 1.368 . S
H1979 C1987 0.950 . S
H1980 C1985 0.950 . S
H1981 C1986 0.949 . S
H1982 C1988 0.950 . S
H1983 C1989 0.950 . S
H1984 C1990 0.949 . S
C1985 H1980 0.950 . S
C1985 C1987 1.327 . S
C1985 C1991 1.429 . S
C1986 C1978 1.574 . S
C1986 H1981 0.949 . S
C1986 C1992 1.368 . S
C1987 C1971 1.349 . S
C1987 H1979 0.950 . S
C1987 C1985 1.327 . S
C1988 C1976 1.349 . S
C1988 H1982 0.950 . S
C1988 C1989 1.327 . S
C1989 H1983 0.950 . S
C1989 C1988 1.327 . S
C1989 C1993 1.429 . S
C1990 C1973 1.574 . S
C1990 H1984 0.949 . S
C1990 C1994 1.368 . S
C1991 C1972 1.429 . S
C1991 C1985 1.429 . S
C1991 C1992 1.523 . S
C1992 C1973 1.368 . S
C1992 C1986 1.368 . S
C1992 C1991 1.523 . S
C1993 C1977 1.429 . S
C1993 C1989 1.429 . S
C1993 C1994 1.523 . S
C1994 C1978 1.368 . S
C1994 C1990 1.368 . S
C1994 C1993 1.523 . S
H1995 C1970 0.950 . S
H1996 C1972 0.950 . S
H1997 C1973 0.949 . S
H1998 C1975 0.950 . S
H1999 C1977 0.950 . S
C2000 C2001 1.349 . S
C2000 C2002 1.327 . S
C2000 H2025 0.950 . S
C2001 C2000 1.349 . S
C2001 C2017 1.349 . S
C2002 C2000 1.327 . S
C2002 C2021 1.429 . S
C2002 H2026 0.950 . S
C2003 C2020 1.574 . S
C2003 C2022 1.368 . S
C2003 H2027 0.949 . S
H2004 C2008 0.949 . S
C2005 C2006 1.349 . S
C2005 C2007 1.327 . S
C2005 H2028 0.950 . S
C2006 C2005 1.349 . S
C2006 C2018 1.349 . S
C2007 C2005 1.327 . S
C2007 C2023 1.429 . S
C2007 H2029 0.950 . S
C2008 H2004 0.949 . S
C2008 C2016 1.574 . S
C2008 C2024 1.368 . S
H2009 C2017 0.950 . S
H2010 C2015 0.950 . S
H2011 C2016 0.949 . S
H2012 C2018 0.950 . S
H2013 C2019 0.950 . S
H2014 C2020 0.949 . S
C2015 H2010 0.950 . S
C2015 C2017 1.327 . S
C2015 C2021 1.429 . S
C2016 C2008 1.574 . S
C2016 H2011 0.949 . S
C2016 C2022 1.368 . S
C2017 C2001 1.349 . S
C2017 H2009 0.950 . S
C2017 C2015 1.327 . S
C2018 C2006 1.349 . S
C2018 H2012 0.950 . S
C2018 C2019 1.327 . S
C2019 H2013 0.950 . S
C2019 C2018 1.327 . S
C2019 C2023 1.429 . S
C2020 C2003 1.574 . S
C2020 H2014 0.949 . S
C2020 C2024 1.368 . S
C2021 C2002 1.429 . S
C2021 C2015 1.429 . S
C2021 C2022 1.523 . S
C2022 C2003 1.368 . S
C2022 C2016 1.368 . S
C2022 C2021 1.523 . S
C2023 C2007 1.429 . S
C2023 C2019 1.429 . S
C2023 C2024 1.523 . S
C2024 C2008 1.368 . S
C2024 C2020 1.368 . S
C2024 C2023 1.523 . S
H2025 C2000 0.950 . S
H2026 C2002 0.950 . S
H2027 C2003 0.949 . S
H2028 C2005 0.950 . S
H2029 C2007 0.950 . S
C2030 C2031 1.349 . S
C2030 C2032 1.327 . S
C2030 H2055 0.950 . S
C2031 C2030 1.349 . S
C2031 C2047 1.349 . S
C2032 C2030 1.327 . S
C2032 C2051 1.429 . S
C2032 H2056 0.950 . S
C2033 C2050 1.574 . S
C2033 C2052 1.368 . S
C2033 H2057 0.949 . S
H2034 C2038 0.949 . S
C2035 C2036 1.349 . S
C2035 C2037 1.327 . S
C2035 H2058 0.950 . S
C2036 C2035 1.349 . S
C2036 C2048 1.349 . S
C2037 C2035 1.327 . S
C2037 C2053 1.429 . S
C2037 H2059 0.950 . S
C2038 H2034 0.949 . S
C2038 C2046 1.574 . S
C2038 C2054 1.368 . S
H2039 C2047 0.950 . S
H2040 C2045 0.950 . S
H2041 C2046 0.949 . S
H2042 C2048 0.950 . S
H2043 C2049 0.950 . S
H2044 C2050 0.949 . S
C2045 H2040 0.950 . S
C2045 C2047 1.327 . S
C2045 C2051 1.429 . S
C2046 C2038 1.574 . S
C2046 H2041 0.949 . S
C2046 C2052 1.368 . S
C2047 C2031 1.349 . S
C2047 H2039 0.950 . S
C2047 C2045 1.327 . S
C2048 C2036 1.349 . S
C2048 H2042 0.950 . S
C2048 C2049 1.327 . S
C2049 H2043 0.950 . S
C2049 C2048 1.327 . S
C2049 C2053 1.429 . S
C2050 C2033 1.574 . S
C2050 H2044 0.949 . S
C2050 C2054 1.368 . S
C2051 C2032 1.429 . S
C2051 C2045 1.429 . S
C2051 C2052 1.523 . S
C2052 C2033 1.368 . S
C2052 C2046 1.368 . S
C2052 C2051 1.523 . S
C2053 C2037 1.429 . S
C2053 C2049 1.429 . S
C2053 C2054 1.523 . S
C2054 C2038 1.368 . S
C2054 C2050 1.368 . S
C2054 C2053 1.523 . S
H2055 C2030 0.950 . S
H2056 C2032 0.950 . S
H2057 C2033 0.949 . S
H2058 C2035 0.950 . S
H2059 C2037 0.950 . S
C2060 C2061 1.349 . S
C2060 C2062 1.327 . S
C2060 H2085 0.950 . S
C2061 C2060 1.349 . S
C2061 C2077 1.349 . S
C2062 C2060 1.327 . S
C2062 C2081 1.429 . S
C2062 H2086 0.950 . S
C2063 C2080 1.574 . S
C2063 C2082 1.368 . S
C2063 H2087 0.949 . S
H2064 C2068 0.949 . S
C2065 C2066 1.349 . S
C2065 C2067 1.327 . S
C2065 H2088 0.950 . S
C2066 C2065 1.349 . S
C2066 C2078 1.349 . S
C2067 C2065 1.327 . S
C2067 C2083 1.429 . S
C2067 H2089 0.950 . S
C2068 H2064 0.949 . S
C2068 C2076 1.574 . S
C2068 C2084 1.368 . S
H2069 C2077 0.950 . S
H2070 C2075 0.950 . S
H2071 C2076 0.949 . S
H2072 C2078 0.950 . S
H2073 C2079 0.950 . S
H2074 C2080 0.949 . S
C2075 H2070 0.950 . S
C2075 C2077 1.327 . S
C2075 C2081 1.429 . S
C2076 C2068 1.574 . S
C2076 H2071 0.949 . S
C2076 C2082 1.368 . S
C2077 C2061 1.349 . S
C2077 H2069 0.950 . S
C2077 C2075 1.327 . S
C2078 C2066 1.349 . S
C2078 H2072 0.950 . S
C2078 C2079 1.327 . S
C2079 H2073 0.950 . S
C2079 C2078 1.327 . S
C2079 C2083 1.429 . S
C2080 C2063 1.574 . S
C2080 H2074 0.949 . S
C2080 C2084 1.368 . S
C2081 C2062 1.429 . S
C2081 C2075 1.429 . S
C2081 C2082 1.523 . S
C2082 C2063 1.368 . S
C2082 C2076 1.368 . S
C2082 C2081 1.523 . S
C2083 C2067 1.429 . S
C2083 C2079 1.429 . S
C2083 C2084 1.523 . S
C2084 C2068 1.368 . S
C2084 C2080 1.368 . S
C2084 C2083 1.523 . S
H2085 C2060 0.950 . S
H2086 C2062 0.950 . S
H2087 C2063 0.949 . S
H2088 C2065 0.950 . S
H2089 C2067 0.950 . S
C2090 C2091 1.349 . S
C2090 C2092 1.327 . S
C2090 H2115 0.950 . S
C2091 C2090 1.349 . S
C2091 C2107 1.349 . S
C2092 C2090 1.327 . S
C2092 C2111 1.429 . S
C2092 H2116 0.950 . S
C2093 C2110 1.574 . S
C2093 C2112 1.368 . S
C2093 H2117 0.949 . S
H2094 C2098 0.949 . S
C2095 C2096 1.349 . S
C2095 C2097 1.327 . S
C2095 H2118 0.950 . S
C2096 C2095 1.349 . S
C2096 C2108 1.349 . S
C2097 C2095 1.327 . S
C2097 C2113 1.429 . S
C2097 H2119 0.950 . S
C2098 H2094 0.949 . S
C2098 C2106 1.574 . S
C2098 C2114 1.368 . S
H2099 C2107 0.950 . S
H2100 C2105 0.950 . S
H2101 C2106 0.949 . S
H2102 C2108 0.950 . S
H2103 C2109 0.950 . S
H2104 C2110 0.949 . S
C2105 H2100 0.950 . S
C2105 C2107 1.327 . S
C2105 C2111 1.429 . S
C2106 C2098 1.574 . S
C2106 H2101 0.949 . S
C2106 C2112 1.368 . S
C2107 C2091 1.349 . S
C2107 H2099 0.950 . S
C2107 C2105 1.327 . S
C2108 C2096 1.349 . S
C2108 H2102 0.950 . S
C2108 C2109 1.327 . S
C2109 H2103 0.950 . S
C2109 C2108 1.327 . S
C2109 C2113 1.429 . S
C2110 C2093 1.574 . S
C2110 H2104 0.949 . S
C2110 C2114 1.368 . S
C2111 C2092 1.429 . S
C2111 C2105 1.429 . S
C2111 C2112 1.523 . S
C2112 C2093 1.368 . S
C2112 C2106 1.368 . S
C2112 C2111 1.523 . S
C2113 C2097 1.429 . S
C2113 C2109 1.429 . S
C2113 C2114 1.523 . S
C2114 C2098 1.368 . S
C2114 C2110 1.368 . S
C2114 C2113 1.523 . S
H2115 C2090 0.950 . S
H2116 C2092 0.950 . S
H2117 C2093 0.949 . S
H2118 C2095 0.950 . S
H2119 C2097 0.950 . S
C2120 C2121 1.349 1_545 S
C2120 C2122 1.327 . S
C2120 H2145 0.950 . S
C2121 C2120 1.349 1_565 S
C2121 C2137 1.349 . S
C2122 C2120 1.327 . S
C2122 C2141 1.429 1_545 S
C2122 H2146 0.950 . S
C2123 C2140 1.574 . S
C2123 C2142 1.368 . S
C2123 H2147 0.949 . S
H2124 C2128 0.949 . S
C2125 C2126 1.349 . S
C2125 C2127 1.327 . S
C2125 H2148 0.950 . S
C2126 C2125 1.349 . S
C2126 C2138 1.349 1_565 S
C2127 C2125 1.327 . S
C2127 C2143 1.429 . S
C2127 H2149 0.950 . S
C2128 H2124 0.949 . S
C2128 C2136 1.574 . S
C2128 C2144 1.368 1_545 S
H2129 C2137 0.950 . S
H2130 C2135 0.950 . S
H2131 C2136 0.949 . S
H2132 C2138 0.950 . S
H2133 C2139 0.950 . S
H2134 C2140 0.949 . S
C2135 H2130 0.950 . S
C2135 C2137 1.327 . S
C2135 C2141 1.429 . S
C2136 C2128 1.574 . S
C2136 H2131 0.949 . S
C2136 C2142 1.368 1_545 S
C2137 C2121 1.349 . S
C2137 H2129 0.950 . S
C2137 C2135 1.327 . S
C2138 C2126 1.349 1_545 S
C2138 H2132 0.950 . S
C2138 C2139 1.327 . S
C2139 H2133 0.950 . S
C2139 C2138 1.327 . S
C2139 C2143 1.429 1_545 S
C2140 C2123 1.574 . S
C2140 H2134 0.949 . S
C2140 C2144 1.368 . S
C2141 C2122 1.429 1_565 S
C2141 C2135 1.429 . S
C2141 C2142 1.523 . S
C2142 C2123 1.368 . S
C2142 C2136 1.368 1_565 S
C2142 C2141 1.523 . S
C2143 C2127 1.429 . S
C2143 C2139 1.429 1_565 S
C2143 C2144 1.523 . S
C2144 C2128 1.368 1_565 S
C2144 C2140 1.368 . S
C2144 C2143 1.523 . S
H2145 C2120 0.950 . S
H2146 C2122 0.950 . S
H2147 C2123 0.949 . S
H2148 C2125 0.950 . S
H2149 C2127 0.950 . S
C2150 C2151 1.349 . S
C2150 C2152 1.327 . S
C2150 H2175 0.950 . S
C2151 C2150 1.349 . S
C2151 C2167 1.349 . S
C2152 C2150 1.327 . S
C2152 C2171 1.429 . S
C2152 H2176 0.950 . S
C2153 C2170 1.574 . S
C2153 C2172 1.368 . S
C2153 H2177 0.949 . S
H2154 C2158 0.949 . S
C2155 C2156 1.349 . S
C2155 C2157 1.327 . S
C2155 H2178 0.950 . S
C2156 C2155 1.349 . S
C2156 C2168 1.349 . S
C2157 C2155 1.327 . S
C2157 C2173 1.429 . S
C2157 H2179 0.950 . S
C2158 H2154 0.949 . S
C2158 C2166 1.574 . S
C2158 C2174 1.368 . S
H2159 C2167 0.950 . S
H2160 C2165 0.950 . S
H2161 C2166 0.949 . S
H2162 C2168 0.950 . S
H2163 C2169 0.950 . S
H2164 C2170 0.949 . S
C2165 H2160 0.950 . S
C2165 C2167 1.327 . S
C2165 C2171 1.429 . S
C2166 C2158 1.574 . S
C2166 H2161 0.949 . S
C2166 C2172 1.368 . S
C2167 C2151 1.349 . S
C2167 H2159 0.950 . S
C2167 C2165 1.327 . S
C2168 C2156 1.349 . S
C2168 H2162 0.950 . S
C2168 C2169 1.327 . S
C2169 H2163 0.950 . S
C2169 C2168 1.327 . S
C2169 C2173 1.429 . S
C2170 C2153 1.574 . S
C2170 H2164 0.949 . S
C2170 C2174 1.368 . S
C2171 C2152 1.429 . S
C2171 C2165 1.429 . S
C2171 C2172 1.523 . S
C2172 C2153 1.368 . S
C2172 C2166 1.368 . S
C2172 C2171 1.523 . S
C2173 C2157 1.429 . S
C2173 C2169 1.429 . S
C2173 C2174 1.523 . S
C2174 C2158 1.368 . S
C2174 C2170 1.368 . S
C2174 C2173 1.523 . S
H2175 C2150 0.950 . S
H2176 C2152 0.950 . S
H2177 C2153 0.949 . S
H2178 C2155 0.950 . S
H2179 C2157 0.950 . S
C2180 C2181 1.349 1_565 S
C2180 C2182 1.327 . S
C2180 H2205 0.950 . S
C2181 C2180 1.349 1_545 S
C2181 C2197 1.349 . S
C2182 C2180 1.327 . S
C2182 C2201 1.429 1_565 S
C2182 H2206 0.950 . S
C2183 C2200 1.574 . S
C2183 C2202 1.368 . S
C2183 H2207 0.949 . S
H2184 C2188 0.949 . S
C2185 C2186 1.349 . S
C2185 C2187 1.327 . S
C2185 H2208 0.950 . S
C2186 C2185 1.349 . S
C2186 C2198 1.349 1_545 S
C2187 C2185 1.327 . S
C2187 C2203 1.429 . S
C2187 H2209 0.950 . S
C2188 H2184 0.949 . S
C2188 C2196 1.574 . S
C2188 C2204 1.368 1_565 S
H2189 C2197 0.950 . S
H2190 C2195 0.950 . S
H2191 C2196 0.949 . S
H2192 C2198 0.950 . S
H2193 C2199 0.950 . S
H2194 C2200 0.949 . S
C2195 H2190 0.950 . S
C2195 C2197 1.327 . S
C2195 C2201 1.429 . S
C2196 C2188 1.574 . S
C2196 H2191 0.949 . S
C2196 C2202 1.368 1_565 S
C2197 C2181 1.349 . S
C2197 H2189 0.950 . S
C2197 C2195 1.327 . S
C2198 C2186 1.349 1_565 S
C2198 H2192 0.950 . S
C2198 C2199 1.327 . S
C2199 H2193 0.950 . S
C2199 C2198 1.327 . S
C2199 C2203 1.429 1_565 S
C2200 C2183 1.574 . S
C2200 H2194 0.949 . S
C2200 C2204 1.368 . S
C2201 C2182 1.429 1_545 S
C2201 C2195 1.429 . S
C2201 C2202 1.523 . S
C2202 C2183 1.368 . S
C2202 C2196 1.368 1_545 S
C2202 C2201 1.523 . S
C2203 C2187 1.429 . S
C2203 C2199 1.429 1_545 S
C2203 C2204 1.523 . S
C2204 C2188 1.368 1_545 S
C2204 C2200 1.368 . S
C2204 C2203 1.523 . S
H2205 C2180 0.950 . S
H2206 C2182 0.950 . S
H2207 C2183 0.949 . S
H2208 C2185 0.950 . S
H2209 C2187 0.950 . S
C2210 C2211 1.349 . S
C2210 C2212 1.327 . S
C2210 H2235 0.950 . S
C2211 C2210 1.349 . S
C2211 C2227 1.349 . S
C2212 C2210 1.327 . S
C2212 C2231 1.429 . S
C2212 H2236 0.950 . S
C2213 C2230 1.574 . S
C2213 C2232 1.368 . S
C2213 H2237 0.949 . S
H2214 C2218 0.949 . S
C2215 C2216 1.349 . S
C2215 C2217 1.327 . S
C2215 H2238 0.950 . S
C2216 C2215 1.349 . S
C2216 C2228 1.349 . S
C2217 C2215 1.327 . S
C2217 C2233 1.429 . S
C2217 H2239 0.950 . S
C2218 H2214 0.949 . S
C2218 C2226 1.574 . S
C2218 C2234 1.368 . S
H2219 C2227 0.950 . S
H2220 C2225 0.950 . S
H2221 C2226 0.949 . S
H2222 C2228 0.950 . S
H2223 C2229 0.950 . S
H2224 C2230 0.949 . S
C2225 H2220 0.950 . S
C2225 C2227 1.327 . S
C2225 C2231 1.429 . S
C2226 C2218 1.574 . S
C2226 H2221 0.949 . S
C2226 C2232 1.368 . S
C2227 C2211 1.349 . S
C2227 H2219 0.950 . S
C2227 C2225 1.327 . S
C2228 C2216 1.349 . S
C2228 H2222 0.950 . S
C2228 C2229 1.327 . S
C2229 H2223 0.950 . S
C2229 C2228 1.327 . S
C2229 C2233 1.429 . S
C2230 C2213 1.574 . S
C2230 H2224 0.949 . S
C2230 C2234 1.368 . S
C2231 C2212 1.429 . S
C2231 C2225 1.429 . S
C2231 C2232 1.523 . S
C2232 C2213 1.368 . S
C2232 C2226 1.368 . S
C2232 C2231 1.523 . S
C2233 C2217 1.429 . S
C2233 C2229 1.429 . S
C2233 C2234 1.523 . S
C2234 C2218 1.368 . S
C2234 C2230 1.368 . S
C2234 C2233 1.523 . S
H2235 C2210 0.950 . S
H2236 C2212 0.950 . S
H2237 C2213 0.949 . S
H2238 C2215 0.950 . S
H2239 C2217 0.950 . S
C2240 C2241 1.349 . S
C2240 C2242 1.327 . S
C2240 H2265 0.950 . S
C2241 C2240 1.349 . S
C2241 C2257 1.349 . S
C2242 C2240 1.327 . S
C2242 C2261 1.429 . S
C2242 H2266 0.950 . S
C2243 C2260 1.574 . S
C2243 C2262 1.368 . S
C2243 H2267 0.949 . S
H2244 C2248 0.949 . S
C2245 C2246 1.349 . S
C2245 C2247 1.327 . S
C2245 H2268 0.950 . S
C2246 C2245 1.349 . S
C2246 C2258 1.349 . S
C2247 C2245 1.327 . S
C2247 C2263 1.429 . S
C2247 H2269 0.950 . S
C2248 H2244 0.949 . S
C2248 C2256 1.574 . S
C2248 C2264 1.368 . S
H2249 C2257 0.950 . S
H2250 C2255 0.950 . S
H2251 C2256 0.949 . S
H2252 C2258 0.950 . S
H2253 C2259 0.950 . S
H2254 C2260 0.949 . S
C2255 H2250 0.950 . S
C2255 C2257 1.327 . S
C2255 C2261 1.429 . S
C2256 C2248 1.574 . S
C2256 H2251 0.949 . S
C2256 C2262 1.368 . S
C2257 C2241 1.349 . S
C2257 H2249 0.950 . S
C2257 C2255 1.327 . S
C2258 C2246 1.349 . S
C2258 H2252 0.950 . S
C2258 C2259 1.327 . S
C2259 H2253 0.950 . S
C2259 C2258 1.327 . S
C2259 C2263 1.429 . S
C2260 C2243 1.574 . S
C2260 H2254 0.949 . S
C2260 C2264 1.368 . S
C2261 C2242 1.429 . S
C2261 C2255 1.429 . S
C2261 C2262 1.523 . S
C2262 C2243 1.368 . S
C2262 C2256 1.368 . S
C2262 C2261 1.523 . S
C2263 C2247 1.429 . S
C2263 C2259 1.429 . S
C2263 C2264 1.523 . S
C2264 C2248 1.368 . S
C2264 C2260 1.368 . S
C2264 C2263 1.523 . S
H2265 C2240 0.950 . S
H2266 C2242 0.950 . S
H2267 C2243 0.949 . S
H2268 C2245 0.950 . S
H2269 C2247 0.950 . S
C2270 C2271 1.349 . S
C2270 C2272 1.327 . S
C2270 H2295 0.950 . S
C2271 C2270 1.349 . S
C2271 C2287 1.349 . S
C2272 C2270 1.327 . S
C2272 C2291 1.429 . S
C2272 H2296 0.950 . S
C2273 C2290 1.574 . S
C2273 C2292 1.368 . S
C2273 H2297 0.949 . S
H2274 C2278 0.949 . S
C2275 C2276 1.349 . S
C2275 C2277 1.327 . S
C2275 H2298 0.950 . S
C2276 C2275 1.349 . S
C2276 C2288 1.349 . S
C2277 C2275 1.327 . S
C2277 C2293 1.429 . S
C2277 H2299 0.950 . S
C2278 H2274 0.949 . S
C2278 C2286 1.574 . S
C2278 C2294 1.368 . S
H2279 C2287 0.950 . S
H2280 C2285 0.950 . S
H2281 C2286 0.949 . S
H2282 C2288 0.950 . S
H2283 C2289 0.950 . S
H2284 C2290 0.949 . S
C2285 H2280 0.950 . S
C2285 C2287 1.327 . S
C2285 C2291 1.429 . S
C2286 C2278 1.574 . S
C2286 H2281 0.949 . S
C2286 C2292 1.368 . S
C2287 C2271 1.349 . S
C2287 H2279 0.950 . S
C2287 C2285 1.327 . S
C2288 C2276 1.349 . S
C2288 H2282 0.950 . S
C2288 C2289 1.327 . S
C2289 H2283 0.950 . S
C2289 C2288 1.327 . S
C2289 C2293 1.429 . S
C2290 C2273 1.574 . S
C2290 H2284 0.949 . S
C2290 C2294 1.368 . S
C2291 C2272 1.429 . S
C2291 C2285 1.429 . S
C2291 C2292 1.523 . S
C2292 C2273 1.368 . S
C2292 C2286 1.368 . S
C2292 C2291 1.523 . S
C2293 C2277 1.429 . S
C2293 C2289 1.429 . S
C2293 C2294 1.523 . S
C2294 C2278 1.368 . S
C2294 C2290 1.368 . S
C2294 C2293 1.523 . S
H2295 C2270 0.950 . S
H2296 C2272 0.950 . S
H2297 C2273 0.949 . S
H2298 C2275 0.950 . S
H2299 C2277 0.950 . S
C2300 C2301 1.349 . S
C2300 C2302 1.327 . S
C2300 H2325 0.950 . S
C2301 C2300 1.349 . S
C2301 C2317 1.349 . S
C2302 C2300 1.327 . S
C2302 C2321 1.429 . S
C2302 H2326 0.950 . S
C2303 C2320 1.574 . S
C2303 C2322 1.368 . S
C2303 H2327 0.949 . S
H2304 C2308 0.949 . S
C2305 C2306 1.349 . S
C2305 C2307 1.327 . S
C2305 H2328 0.950 . S
C2306 C2305 1.349 . S
C2306 C2318 1.349 . S
C2307 C2305 1.327 . S
C2307 C2323 1.429 . S
C2307 H2329 0.950 . S
C2308 H2304 0.949 . S
C2308 C2316 1.574 . S
C2308 C2324 1.368 . S
H2309 C2317 0.950 . S
H2310 C2315 0.950 . S
H2311 C2316 0.949 . S
H2312 C2318 0.950 . S
H2313 C2319 0.950 . S
H2314 C2320 0.949 . S
C2315 H2310 0.950 . S
C2315 C2317 1.327 . S
C2315 C2321 1.429 . S
C2316 C2308 1.574 . S
C2316 H2311 0.949 . S
C2316 C2322 1.368 . S
C2317 C2301 1.349 . S
C2317 H2309 0.950 . S
C2317 C2315 1.327 . S
C2318 C2306 1.349 . S
C2318 H2312 0.950 . S
C2318 C2319 1.327 . S
C2319 H2313 0.950 . S
C2319 C2318 1.327 . S
C2319 C2323 1.429 . S
C2320 C2303 1.574 . S
C2320 H2314 0.949 . S
C2320 C2324 1.368 . S
C2321 C2302 1.429 . S
C2321 C2315 1.429 . S
C2321 C2322 1.523 . S
C2322 C2303 1.368 . S
C2322 C2316 1.368 . S
C2322 C2321 1.523 . S
C2323 C2307 1.429 . S
C2323 C2319 1.429 . S
C2323 C2324 1.523 . S
C2324 C2308 1.368 . S
C2324 C2320 1.368 . S
C2324 C2323 1.523 . S
H2325 C2300 0.950 . S
H2326 C2302 0.950 . S
H2327 C2303 0.949 . S
H2328 C2305 0.950 . S
H2329 C2307 0.950 . S
C2330 C2331 1.349 . S
C2330 C2332 1.327 . S
C2330 H2355 0.950 . S
C2331 C2330 1.349 . S
C2331 C2347 1.349 . S
C2332 C2330 1.327 . S
C2332 C2351 1.429 . S
C2332 H2356 0.950 . S
C2333 C2350 1.574 . S
C2333 C2352 1.368 . S
C2333 H2357 0.949 . S
H2334 C2338 0.949 . S
C2335 C2336 1.349 . S
C2335 C2337 1.327 . S
C2335 H2358 0.950 . S
C2336 C2335 1.349 . S
C2336 C2348 1.349 . S
C2337 C2335 1.327 . S
C2337 C2353 1.429 . S
C2337 H2359 0.950 . S
C2338 H2334 0.949 . S
C2338 C2346 1.574 . S
C2338 C2354 1.368 . S
H2339 C2347 0.950 . S
H2340 C2345 0.950 . S
H2341 C2346 0.949 . S
H2342 C2348 0.950 . S
H2343 C2349 0.950 . S
H2344 C2350 0.949 . S
C2345 H2340 0.950 . S
C2345 C2347 1.327 . S
C2345 C2351 1.429 . S
C2346 C2338 1.574 . S
C2346 H2341 0.949 . S
C2346 C2352 1.368 . S
C2347 C2331 1.349 . S
C2347 H2339 0.950 . S
C2347 C2345 1.327 . S
C2348 C2336 1.349 . S
C2348 H2342 0.950 . S
C2348 C2349 1.327 . S
C2349 H2343 0.950 . S
C2349 C2348 1.327 . S
C2349 C2353 1.429 . S
C2350 C2333 1.574 . S
C2350 H2344 0.949 . S
C2350 C2354 1.368 . S
C2351 C2332 1.429 . S
C2351 C2345 1.429 . S
C2351 C2352 1.523 . S
C2352 C2333 1.368 . S
C2352 C2346 1.368 . S
C2352 C2351 1.523 . S
C2353 C2337 1.429 . S
C2353 C2349 1.429 . S
C2353 C2354 1.523 . S
C2354 C2338 1.368 . S
C2354 C2350 1.368 . S
C2354 C2353 1.523 . S
H2355 C2330 0.950 . S
H2356 C2332 0.950 . S
H2357 C2333 0.949 . S
H2358 C2335 0.950 . S
H2359 C2337 0.950 . S
C2360 C2361 1.349 . S
C2360 C2362 1.327 . S
C2360 H2385 0.950 . S
C2361 C2360 1.349 . S
C2361 C2377 1.349 . S
C2362 C2360 1.327 . S
C2362 C2381 1.429 . S
C2362 H2386 0.950 . S
C2363 C2380 1.574 . S
C2363 C2382 1.368 . S
C2363 H2387 0.949 . S
H2364 C2368 0.949 . S
C2365 C2366 1.349 . S
C2365 C2367 1.327 . S
C2365 H2388 0.950 . S
C2366 C2365 1.349 . S
C2366 C2378 1.349 . S
C2367 C2365 1.327 . S
C2367 C2383 1.429 . S
C2367 H2389 0.950 . S
C2368 H2364 0.949 . S
C2368 C2376 1.574 . S
C2368 C2384 1.368 . S
H2369 C2377 0.950 . S
H2370 C2375 0.950 . S
H2371 C2376 0.949 . S
H2372 C2378 0.950 . S
H2373 C2379 0.950 . S
H2374 C2380 0.949 . S
C2375 H2370 0.950 . S
C2375 C2377 1.327 . S
C2375 C2381 1.429 . S
C2376 C2368 1.574 . S
C2376 H2371 0.949 . S
C2376 C2382 1.368 . S
C2377 C2361 1.349 . S
C2377 H2369 0.950 . S
C2377 C2375 1.327 . S
C2378 C2366 1.349 . S
C2378 H2372 0.950 . S
C2378 C2379 1.327 . S
C2379 H2373 0.950 . S
C2379 C2378 1.327 . S
C2379 C2383 1.429 . S
C2380 C2363 1.574 . S
C2380 H2374 0.949 . S
C2380 C2384 1.368 . S
C2381 C2362 1.429 . S
C2381 C2375 1.429 . S
C2381 C2382 1.523 . S
C2382 C2363 1.368 . S
C2382 C2376 1.368 . S
C2382 C2381 1.523 . S
C2383 C2367 1.429 . S
C2383 C2379 1.429 . S
C2383 C2384 1.523 . S
C2384 C2368 1.368 . S
C2384 C2380 1.368 . S
C2384 C2383 1.523 . S
H2385 C2360 0.950 . S
H2386 C2362 0.950 . S
H2387 C2363 0.949 . S
H2388 C2365 0.950 . S
H2389 C2367 0.950 . S
C2390 C2391 1.349 . S
C2390 C2392 1.327 . S
C2390 H2415 0.950 . S
C2391 C2390 1.349 . S
C2391 C2407 1.349 . S
C2392 C2390 1.327 . S
C2392 C2411 1.429 . S
C2392 H2416 0.950 . S
C2393 C2410 1.574 . S
C2393 C2412 1.368 . S
C2393 H2417 0.949 . S
H2394 C2398 0.949 . S
C2395 C2396 1.349 . S
C2395 C2397 1.327 . S
C2395 H2418 0.950 . S
C2396 C2395 1.349 . S
C2396 C2408 1.349 . S
C2397 C2395 1.327 . S
C2397 C2413 1.429 . S
C2397 H2419 0.950 . S
C2398 H2394 0.949 . S
C2398 C2406 1.574 . S
C2398 C2414 1.368 . S
H2399 C2407 0.950 . S
H2400 C2405 0.950 . S
H2401 C2406 0.949 . S
H2402 C2408 0.950 . S
H2403 C2409 0.950 . S
H2404 C2410 0.949 . S
C2405 H2400 0.950 . S
C2405 C2407 1.327 . S
C2405 C2411 1.429 . S
C2406 C2398 1.574 . S
C2406 H2401 0.949 . S
C2406 C2412 1.368 . S
C2407 C2391 1.349 . S
C2407 H2399 0.950 . S
C2407 C2405 1.327 . S
C2408 C2396 1.349 . S
C2408 H2402 0.950 . S
C2408 C2409 1.327 . S
C2409 H2403 0.950 . S
C2409 C2408 1.327 . S
C2409 C2413 1.429 . S
C2410 C2393 1.574 . S
C2410 H2404 0.949 . S
C2410 C2414 1.368 . S
C2411 C2392 1.429 . S
C2411 C2405 1.429 . S
C2411 C2412 1.523 . S
C2412 C2393 1.368 . S
C2412 C2406 1.368 . S
C2412 C2411 1.523 . S
C2413 C2397 1.429 . S
C2413 C2409 1.429 . S
C2413 C2414 1.523 . S
C2414 C2398 1.368 . S
C2414 C2410 1.368 . S
C2414 C2413 1.523 . S
H2415 C2390 0.950 . S
H2416 C2392 0.950 . S
H2417 C2393 0.949 . S
H2418 C2395 0.950 . S
H2419 C2397 0.950 . S
C2420 C2421 1.349 . S
C2420 C2422 1.327 . S
C2420 H2445 0.950 . S
C2421 C2420 1.349 . S
C2421 C2437 1.349 . S
C2422 C2420 1.327 . S
C2422 C2441 1.429 . S
C2422 H2446 0.950 . S
C2423 C2440 1.574 . S
C2423 C2442 1.368 . S
C2423 H2447 0.949 . S
H2424 C2428 0.949 . S
C2425 C2426 1.349 . S
C2425 C2427 1.327 . S
C2425 H2448 0.950 . S
C2426 C2425 1.349 . S
C2426 C2438 1.349 . S
C2427 C2425 1.327 . S
C2427 C2443 1.429 . S
C2427 H2449 0.950 . S
C2428 H2424 0.949 . S
C2428 C2436 1.574 . S
C2428 C2444 1.368 . S
H2429 C2437 0.950 . S
H2430 C2435 0.950 . S
H2431 C2436 0.949 . S
H2432 C2438 0.950 . S
H2433 C2439 0.950 . S
H2434 C2440 0.949 . S
C2435 H2430 0.950 . S
C2435 C2437 1.327 . S
C2435 C2441 1.429 . S
C2436 C2428 1.574 . S
C2436 H2431 0.949 . S
C2436 C2442 1.368 . S
C2437 C2421 1.349 . S
C2437 H2429 0.950 . S
C2437 C2435 1.327 . S
C2438 C2426 1.349 . S
C2438 H2432 0.950 . S
C2438 C2439 1.327 . S
C2439 H2433 0.950 . S
C2439 C2438 1.327 . S
C2439 C2443 1.429 . S
C2440 C2423 1.574 . S
C2440 H2434 0.949 . S
C2440 C2444 1.368 . S
C2441 C2422 1.429 . S
C2441 C2435 1.429 . S
C2441 C2442 1.523 . S
C2442 C2423 1.368 . S
C2442 C2436 1.368 . S
C2442 C2441 1.523 . S
C2443 C2427 1.429 . S
C2443 C2439 1.429 . S
C2443 C2444 1.523 . S
C2444 C2428 1.368 . S
C2444 C2440 1.368 . S
C2444 C2443 1.523 . S
H2445 C2420 0.950 . S
H2446 C2422 0.950 . S
H2447 C2423 0.949 . S
H2448 C2425 0.950 . S
H2449 C2427 0.950 . S
C2450 C2451 1.349 . S
C2450 C2452 1.327 . S
C2450 H2475 0.950 . S
C2451 C2450 1.349 . S
C2451 C2467 1.349 . S
C2452 C2450 1.327 . S
C2452 C2471 1.429 . S
C2452 H2476 0.950 . S
C2453 C2470 1.574 . S
C2453 C2472 1.368 . S
C2453 H2477 0.949 . S
H2454 C2458 0.949 . S
C2455 C2456 1.349 . S
C2455 C2457 1.327 . S
C2455 H2478 0.950 . S
C2456 C2455 1.349 . S
C2456 C2468 1.349 . S
C2457 C2455 1.327 . S
C2457 C2473 1.429 . S
C2457 H2479 0.950 . S
C2458 H2454 0.949 . S
C2458 C2466 1.574 . S
C2458 C2474 1.368 . S
H2459 C2467 0.950 . S
H2460 C2465 0.950 . S
H2461 C2466 0.949 . S
H2462 C2468 0.950 . S
H2463 C2469 0.950 . S
H2464 C2470 0.949 . S
C2465 H2460 0.950 . S
C2465 C2467 1.327 . S
C2465 C2471 1.429 . S
C2466 C2458 1.574 . S
C2466 H2461 0.949 . S
C2466 C2472 1.368 . S
C2467 C2451 1.349 . S
C2467 H2459 0.950 . S
C2467 C2465 1.327 . S
C2468 C2456 1.349 . S
C2468 H2462 0.950 . S
C2468 C2469 1.327 . S
C2469 H2463 0.950 . S
C2469 C2468 1.327 . S
C2469 C2473 1.429 . S
C2470 C2453 1.574 . S
C2470 H2464 0.949 . S
C2470 C2474 1.368 . S
C2471 C2452 1.429 . S
C2471 C2465 1.429 . S
C2471 C2472 1.523 . S
C2472 C2453 1.368 . S
C2472 C2466 1.368 . S
C2472 C2471 1.523 . S
C2473 C2457 1.429 . S
C2473 C2469 1.429 . S
C2473 C2474 1.523 . S
C2474 C2458 1.368 . S
C2474 C2470 1.368 . S
C2474 C2473 1.523 . S
H2475 C2450 0.950 . S
H2476 C2452 0.950 . S
H2477 C2453 0.949 . S
H2478 C2455 0.950 . S
H2479 C2457 0.950 . S
C2480 C2481 1.349 . S
C2480 C2482 1.327 . S
C2480 H2505 0.950 . S
C2481 C2480 1.349 . S
C2481 C2497 1.349 . S
C2482 C2480 1.327 . S
C2482 C2501 1.429 . S
C2482 H2506 0.950 . S
C2483 C2500 1.574 . S
C2483 C2502 1.368 . S
C2483 H2507 0.949 . S
H2484 C2488 0.949 . S
C2485 C2486 1.349 . S
C2485 C2487 1.327 . S
C2485 H2508 0.950 . S
C2486 C2485 1.349 . S
C2486 C2498 1.349 . S
C2487 C2485 1.327 . S
C2487 C2503 1.429 . S
C2487 H2509 0.950 . S
C2488 H2484 0.949 . S
C2488 C2496 1.574 . S
C2488 C2504 1.368 . S
H2489 C2497 0.950 . S
H2490 C2495 0.950 . S
H2491 C2496 0.949 . S
H2492 C2498 0.950 . S
H2493 C2499 0.950 . S
H2494 C2500 0.949 . S
C2495 H2490 0.950 . S
C2495 C2497 1.327 . S
C2495 C2501 1.429 . S
C2496 C2488 1.574 . S
C2496 H2491 0.949 . S
C2496 C2502 1.368 . S
C2497 C2481 1.349 . S
C2497 H2489 0.950 . S
C2497 C2495 1.327 . S
C2498 C2486 1.349 . S
C2498 H2492 0.950 . S
C2498 C2499 1.327 . S
C2499 H2493 0.950 . S
C2499 C2498 1.327 . S
C2499 C2503 1.429 . S
C2500 C2483 1.574 . S
C2500 H2494 0.949 . S
C2500 C2504 1.368 . S
C2501 C2482 1.429 . S
C2501 C2495 1.429 . S
C2501 C2502 1.523 . S
C2502 C2483 1.368 . S
C2502 C2496 1.368 . S
C2502 C2501 1.523 . S
C2503 C2487 1.429 . S
C2503 C2499 1.429 . S
C2503 C2504 1.523 . S
C2504 C2488 1.368 . S
C2504 C2500 1.368 . S
C2504 C2503 1.523 . S
H2505 C2480 0.950 . S
H2506 C2482 0.950 . S
H2507 C2483 0.949 . S
H2508 C2485 0.950 . S
H2509 C2487 0.950 . S
C2510 C2511 1.349 . S
C2510 C2512 1.327 . S
C2510 H2535 0.950 . S
C2511 C2510 1.349 . S
C2511 C2527 1.349 . S
C2512 C2510 1.327 . S
C2512 C2531 1.429 . S
C2512 H2536 0.950 . S
C2513 C2530 1.574 . S
C2513 C2532 1.368 . S
C2513 H2537 0.949 . S
H2514 C2518 0.949 . S
C2515 C2516 1.349 . S
C2515 C2517 1.327 . S
C2515 H2538 0.950 . S
C2516 C2515 1.349 . S
C2516 C2528 1.349 . S
C2517 C2515 1.327 . S
C2517 C2533 1.429 . S
C2517 H2539 0.950 . S
C2518 H2514 0.949 . S
C2518 C2526 1.574 . S
C2518 C2534 1.368 . S
H2519 C2527 0.950 . S
H2520 C2525 0.950 . S
H2521 C2526 0.949 . S
H2522 C2528 0.950 . S
H2523 C2529 0.950 . S
H2524 C2530 0.949 . S
C2525 H2520 0.950 . S
C2525 C2527 1.327 . S
C2525 C2531 1.429 . S
C2526 C2518 1.574 . S
C2526 H2521 0.949 . S
C2526 C2532 1.368 . S
C2527 C2511 1.349 . S
C2527 H2519 0.950 . S
C2527 C2525 1.327 . S
C2528 C2516 1.349 . S
C2528 H2522 0.950 . S
C2528 C2529 1.327 . S
C2529 H2523 0.950 . S
C2529 C2528 1.327 . S
C2529 C2533 1.429 . S
C2530 C2513 1.574 . S
C2530 H2524 0.949 . S
C2530 C2534 1.368 . S
C2531 C2512 1.429 . S
C2531 C2525 1.429 . S
C2531 C2532 1.523 . S
C2532 C2513 1.368 . S
C2532 C2526 1.368 . S
C2532 C2531 1.523 . S
C2533 C2517 1.429 . S
C2533 C2529 1.429 . S
C2533 C2534 1.523 . S
C2534 C2518 1.368 . S
C2534 C2530 1.368 . S
C2534 C2533 1.523 . S
H2535 C2510 0.950 . S
H2536 C2512 0.950 . S
H2537 C2513 0.949 . S
H2538 C2515 0.950 . S
H2539 C2517 0.950 . S
C2540 C2541 1.349 . S
C2540 C2542 1.327 . S
C2540 H2565 0.950 . S
C2541 C2540 1.349 . S
C2541 C2557 1.349 . S
C2542 C2540 1.327 . S
C2542 C2561 1.429 . S
C2542 H2566 0.950 . S
C2543 C2560 1.574 . S
C2543 C2562 1.368 . S
C2543 H2567 0.949 . S
H2544 C2548 0.949 . S
C2545 C2546 1.349 . S
C2545 C2547 1.327 . S
C2545 H2568 0.950 . S
C2546 C2545 1.349 . S
C2546 C2558 1.349 . S
C2547 C2545 1.327 . S
C2547 C2563 1.429 . S
C2547 H2569 0.950 . S
C2548 H2544 0.949 . S
C2548 C2556 1.574 . S
C2548 C2564 1.368 . S
H2549 C2557 0.950 . S
H2550 C2555 0.950 . S
H2551 C2556 0.949 . S
H2552 C2558 0.950 . S
H2553 C2559 0.950 . S
H2554 C2560 0.949 . S
C2555 H2550 0.950 . S
C2555 C2557 1.327 . S
C2555 C2561 1.429 . S
C2556 C2548 1.574 . S
C2556 H2551 0.949 . S
C2556 C2562 1.368 . S
C2557 C2541 1.349 . S
C2557 H2549 0.950 . S
C2557 C2555 1.327 . S
C2558 C2546 1.349 . S
C2558 H2552 0.950 . S
C2558 C2559 1.327 . S
C2559 H2553 0.950 . S
C2559 C2558 1.327 . S
C2559 C2563 1.429 . S
C2560 C2543 1.574 . S
C2560 H2554 0.949 . S
C2560 C2564 1.368 . S
C2561 C2542 1.429 . S
C2561 C2555 1.429 . S
C2561 C2562 1.523 . S
C2562 C2543 1.368 . S
C2562 C2556 1.368 . S
C2562 C2561 1.523 . S
C2563 C2547 1.429 . S
C2563 C2559 1.429 . S
C2563 C2564 1.523 . S
C2564 C2548 1.368 . S
C2564 C2560 1.368 . S
C2564 C2563 1.523 . S
H2565 C2540 0.950 . S
H2566 C2542 0.950 . S
H2567 C2543 0.949 . S
H2568 C2545 0.950 . S
H2569 C2547 0.950 . S
C2570 C2571 1.349 . S
C2570 C2572 1.327 . S
C2570 H2595 0.950 . S
C2571 C2570 1.349 . S
C2571 C2587 1.349 . S
C2572 C2570 1.327 . S
C2572 C2591 1.429 . S
C2572 H2596 0.950 . S
C2573 C2590 1.574 . S
C2573 C2592 1.368 . S
C2573 H2597 0.949 . S
H2574 C2578 0.949 . S
C2575 C2576 1.349 . S
C2575 C2577 1.327 . S
C2575 H2598 0.950 . S
C2576 C2575 1.349 . S
C2576 C2588 1.349 . S
C2577 C2575 1.327 . S
C2577 C2593 1.429 . S
C2577 H2599 0.950 . S
C2578 H2574 0.949 . S
C2578 C2586 1.574 . S
C2578 C2594 1.368 . S
H2579 C2587 0.950 . S
H2580 C2585 0.950 . S
H2581 C2586 0.949 . S
H2582 C2588 0.950 . S
H2583 C2589 0.950 . S
H2584 C2590 0.949 . S
C2585 H2580 0.950 . S
C2585 C2587 1.327 . S
C2585 C2591 1.429 . S
C2586 C2578 1.574 . S
C2586 H2581 0.949 . S
C2586 C2592 1.368 . S
C2587 C2571 1.349 . S
C2587 H2579 0.950 . S
C2587 C2585 1.327 . S
C2588 C2576 1.349 . S
C2588 H2582 0.950 . S
C2588 C2589 1.327 . S
C2589 H2583 0.950 . S
C2589 C2588 1.327 . S
C2589 C2593 1.429 . S
C2590 C2573 1.574 . S
C2590 H2584 0.949 . S
C2590 C2594 1.368 . S
C2591 C2572 1.429 . S
C2591 C2585 1.429 . S
C2591 C2592 1.523 . S
C2592 C2573 1.368 . S
C2592 C2586 1.368 . S
C2592 C2591 1.523 . S
C2593 C2577 1.429 . S
C2593 C2589 1.429 . S
C2593 C2594 1.523 . S
C2594 C2578 1.368 . S
C2594 C2590 1.368 . S
C2594 C2593 1.523 . S
H2595 C2570 0.950 . S
H2596 C2572 0.950 . S
H2597 C2573 0.949 . S
H2598 C2575 0.950 . S
H2599 C2577 0.950 . S
C2600 C2601 1.349 . S
C2600 C2602 1.327 . S
C2600 H2625 0.950 . S
C2601 C2600 1.349 . S
C2601 C2617 1.349 . S
C2602 C2600 1.327 . S
C2602 C2621 1.429 . S
C2602 H2626 0.950 . S
C2603 C2620 1.574 . S
C2603 C2622 1.368 . S
C2603 H2627 0.949 . S
H2604 C2608 0.949 . S
C2605 C2606 1.349 . S
C2605 C2607 1.327 . S
C2605 H2628 0.950 . S
C2606 C2605 1.349 . S
C2606 C2618 1.349 . S
C2607 C2605 1.327 . S
C2607 C2623 1.429 . S
C2607 H2629 0.950 . S
C2608 H2604 0.949 . S
C2608 C2616 1.574 . S
C2608 C2624 1.368 . S
H2609 C2617 0.950 . S
H2610 C2615 0.950 . S
H2611 C2616 0.949 . S
H2612 C2618 0.950 . S
H2613 C2619 0.950 . S
H2614 C2620 0.949 . S
C2615 H2610 0.950 . S
C2615 C2617 1.327 . S
C2615 C2621 1.429 . S
C2616 C2608 1.574 . S
C2616 H2611 0.949 . S
C2616 C2622 1.368 . S
C2617 C2601 1.349 . S
C2617 H2609 0.950 . S
C2617 C2615 1.327 . S
C2618 C2606 1.349 . S
C2618 H2612 0.950 . S
C2618 C2619 1.327 . S
C2619 H2613 0.950 . S
C2619 C2618 1.327 . S
C2619 C2623 1.429 . S
C2620 C2603 1.574 . S
C2620 H2614 0.949 . S
C2620 C2624 1.368 . S
C2621 C2602 1.429 . S
C2621 C2615 1.429 . S
C2621 C2622 1.523 . S
C2622 C2603 1.368 . S
C2622 C2616 1.368 . S
C2622 C2621 1.523 . S
C2623 C2607 1.429 . S
C2623 C2619 1.429 . S
C2623 C2624 1.523 . S
C2624 C2608 1.368 . S
C2624 C2620 1.368 . S
C2624 C2623 1.523 . S
H2625 C2600 0.950 . S
H2626 C2602 0.950 . S
H2627 C2603 0.949 . S
H2628 C2605 0.950 . S
H2629 C2607 0.950 . S
C2630 C2631 1.349 . S
C2630 C2632 1.327 . S
C2630 H2655 0.950 . S
C2631 C2630 1.349 . S
C2631 C2647 1.349 . S
C2632 C2630 1.327 . S
C2632 C2651 1.429 . S
C2632 H2656 0.950 . S
C2633 C2650 1.574 . S
C2633 C2652 1.368 . S
C2633 H2657 0.949 . S
H2634 C2638 0.949 . S
C2635 C2636 1.349 . S
C2635 C2637 1.327 . S
C2635 H2658 0.950 . S
C2636 C2635 1.349 . S
C2636 C2648 1.349 . S
C2637 C2635 1.327 . S
C2637 C2653 1.429 . S
C2637 H2659 0.950 . S
C2638 H2634 0.949 . S
C2638 C2646 1.574 . S
C2638 C2654 1.368 . S
H2639 C2647 0.950 . S
H2640 C2645 0.950 . S
H2641 C2646 0.949 . S
H2642 C2648 0.950 . S
H2643 C2649 0.950 . S
H2644 C2650 0.949 . S
C2645 H2640 0.950 . S
C2645 C2647 1.327 . S
C2645 C2651 1.429 . S
C2646 C2638 1.574 . S
C2646 H2641 0.949 . S
C2646 C2652 1.368 . S
C2647 C2631 1.349 . S
C2647 H2639 0.950 . S
C2647 C2645 1.327 . S
C2648 C2636 1.349 . S
C2648 H2642 0.950 . S
C2648 C2649 1.327 . S
C2649 H2643 0.950 . S
C2649 C2648 1.327 . S
C2649 C2653 1.429 . S
C2650 C2633 1.574 . S
C2650 H2644 0.949 . S
C2650 C2654 1.368 . S
C2651 C2632 1.429 . S
C2651 C2645 1.429 . S
C2651 C2652 1.523 . S
C2652 C2633 1.368 . S
C2652 C2646 1.368 . S
C2652 C2651 1.523 . S
C2653 C2637 1.429 . S
C2653 C2649 1.429 . S
C2653 C2654 1.523 . S
C2654 C2638 1.368 . S
C2654 C2650 1.368 . S
C2654 C2653 1.523 . S
H2655 C2630 0.950 . S
H2656 C2632 0.950 . S
H2657 C2633 0.949 . S
H2658 C2635 0.950 . S
H2659 C2637 0.950 . S
C2660 C2661 1.349 . S
C2660 C2662 1.327 . S
C2660 H2685 0.950 . S
C2661 C2660 1.349 . S
C2661 C2677 1.349 . S
C2662 C2660 1.327 . S
C2662 C2681 1.429 . S
C2662 H2686 0.950 . S
C2663 C2680 1.574 . S
C2663 C2682 1.368 . S
C2663 H2687 0.949 . S
H2664 C2668 0.949 . S
C2665 C2666 1.349 . S
C2665 C2667 1.327 . S
C2665 H2688 0.950 . S
C2666 C2665 1.349 . S
C2666 C2678 1.349 . S
C2667 C2665 1.327 . S
C2667 C2683 1.429 . S
C2667 H2689 0.950 . S
C2668 H2664 0.949 . S
C2668 C2676 1.574 . S
C2668 C2684 1.368 . S
H2669 C2677 0.950 . S
H2670 C2675 0.950 . S
H2671 C2676 0.949 . S
H2672 C2678 0.950 . S
H2673 C2679 0.950 . S
H2674 C2680 0.949 . S
C2675 H2670 0.950 . S
C2675 C2677 1.327 . S
C2675 C2681 1.429 . S
C2676 C2668 1.574 . S
C2676 H2671 0.949 . S
C2676 C2682 1.368 . S
C2677 C2661 1.349 . S
C2677 H2669 0.950 . S
C2677 C2675 1.327 . S
C2678 C2666 1.349 . S
C2678 H2672 0.950 . S
C2678 C2679 1.327 . S
C2679 H2673 0.950 . S
C2679 C2678 1.327 . S
C2679 C2683 1.429 . S
C2680 C2663 1.574 . S
C2680 H2674 0.949 . S
C2680 C2684 1.368 . S
C2681 C2662 1.429 . S
C2681 C2675 1.429 . S
C2681 C2682 1.523 . S
C2682 C2663 1.368 . S
C2682 C2676 1.368 . S
C2682 C2681 1.523 . S
C2683 C2667 1.429 . S
C2683 C2679 1.429 . S
C2683 C2684 1.523 . S
C2684 C2668 1.368 . S
C2684 C2680 1.368 . S
C2684 C2683 1.523 . S
H2685 C2660 0.950 . S
H2686 C2662 0.950 . S
H2687 C2663 0.949 . S
H2688 C2665 0.950 . S
H2689 C2667 0.950 . S
C2690 C2691 1.349 . S
C2690 C2692 1.327 . S
C2690 H2715 0.950 . S
C2691 C2690 1.349 . S
C2691 C2707 1.349 . S
C2692 C2690 1.327 . S
C2692 C2711 1.429 . S
C2692 H2716 0.950 . S
C2693 C2710 1.574 . S
C2693 C2712 1.368 . S
C2693 H2717 0.949 . S
H2694 C2698 0.949 . S
C2695 C2696 1.349 . S
C2695 C2697 1.327 . S
C2695 H2718 0.950 . S
C2696 C2695 1.349 . S
C2696 C2708 1.349 . S
C2697 C2695 1.327 . S
C2697 C2713 1.429 . S
C2697 H2719 0.950 . S
C2698 H2694 0.949 . S
C2698 C2706 1.574 . S
C2698 C2714 1.368 . S
H2699 C2707 0.950 . S
H2700 C2705 0.950 . S
H2701 C2706 0.949 . S
H2702 C2708 0.950 . S
H2703 C2709 0.950 . S
H2704 C2710 0.949 . S
C2705 H2700 0.950 . S
C2705 C2707 1.327 . S
C2705 C2711 1.429 . S
C2706 C2698 1.574 . S
C2706 H2701 0.949 . S
C2706 C2712 1.368 . S
C2707 C2691 1.349 . S
C2707 H2699 0.950 . S
C2707 C2705 1.327 . S
C2708 C2696 1.349 . S
C2708 H2702 0.950 . S
C2708 C2709 1.327 . S
C2709 H2703 0.950 . S
C2709 C2708 1.327 . S
C2709 C2713 1.429 . S
C2710 C2693 1.574 . S
C2710 H2704 0.949 . S
C2710 C2714 1.368 . S
C2711 C2692 1.429 . S
C2711 C2705 1.429 . S
C2711 C2712 1.523 . S
C2712 C2693 1.368 . S
C2712 C2706 1.368 . S
C2712 C2711 1.523 . S
C2713 C2697 1.429 . S
C2713 C2709 1.429 . S
C2713 C2714 1.523 . S
C2714 C2698 1.368 . S
C2714 C2710 1.368 . S
C2714 C2713 1.523 . S
H2715 C2690 0.950 . S
H2716 C2692 0.950 . S
H2717 C2693 0.949 . S
H2718 C2695 0.950 . S
H2719 C2697 0.950 . S
C2720 C2721 1.349 . S
C2720 C2722 1.327 . S
C2720 H2745 0.950 . S
C2721 C2720 1.349 . S
C2721 C2737 1.349 . S
C2722 C2720 1.327 . S
C2722 C2741 1.429 . S
C2722 H2746 0.950 . S
C2723 C2740 1.574 . S
C2723 C2742 1.368 . S
C2723 H2747 0.949 . S
H2724 C2728 0.949 . S
C2725 C2726 1.349 . S
C2725 C2727 1.327 . S
C2725 H2748 0.950 . S
C2726 C2725 1.349 . S
C2726 C2738 1.349 . S
C2727 C2725 1.327 . S
C2727 C2743 1.429 . S
C2727 H2749 0.950 . S
C2728 H2724 0.949 . S
C2728 C2736 1.574 . S
C2728 C2744 1.368 . S
H2729 C2737 0.950 . S
H2730 C2735 0.950 . S
H2731 C2736 0.949 . S
H2732 C2738 0.950 . S
H2733 C2739 0.950 . S
H2734 C2740 0.949 . S
C2735 H2730 0.950 . S
C2735 C2737 1.327 . S
C2735 C2741 1.429 . S
C2736 C2728 1.574 . S
C2736 H2731 0.949 . S
C2736 C2742 1.368 . S
C2737 C2721 1.349 . S
C2737 H2729 0.950 . S
C2737 C2735 1.327 . S
C2738 C2726 1.349 . S
C2738 H2732 0.950 . S
C2738 C2739 1.327 . S
C2739 H2733 0.950 . S
C2739 C2738 1.327 . S
C2739 C2743 1.429 . S
C2740 C2723 1.574 . S
C2740 H2734 0.949 . S
C2740 C2744 1.368 . S
C2741 C2722 1.429 . S
C2741 C2735 1.429 . S
C2741 C2742 1.523 . S
C2742 C2723 1.368 . S
C2742 C2736 1.368 . S
C2742 C2741 1.523 . S
C2743 C2727 1.429 . S
C2743 C2739 1.429 . S
C2743 C2744 1.523 . S
C2744 C2728 1.368 . S
C2744 C2740 1.368 . S
C2744 C2743 1.523 . S
H2745 C2720 0.950 . S
H2746 C2722 0.950 . S
H2747 C2723 0.949 . S
H2748 C2725 0.950 . S
H2749 C2727 0.950 . S
C2750 C2751 1.349 . S
C2750 C2752 1.327 . S
C2750 H2775 0.950 . S
C2751 C2750 1.349 . S
C2751 C2767 1.349 . S
C2752 C2750 1.327 . S
C2752 C2771 1.429 . S
C2752 H2776 0.950 . S
C2753 C2770 1.574 . S
C2753 C2772 1.368 . S
C2753 H2777 0.949 . S
H2754 C2758 0.949 . S
C2755 C2756 1.349 . S
C2755 C2757 1.327 . S
C2755 H2778 0.950 . S
C2756 C2755 1.349 . S
C2756 C2768 1.349 . S
C2757 C2755 1.327 . S
C2757 C2773 1.429 . S
C2757 H2779 0.950 . S
C2758 H2754 0.949 . S
C2758 C2766 1.574 . S
C2758 C2774 1.368 . S
H2759 C2767 0.950 . S
H2760 C2765 0.950 . S
H2761 C2766 0.949 . S
H2762 C2768 0.950 . S
H2763 C2769 0.950 . S
H2764 C2770 0.949 . S
C2765 H2760 0.950 . S
C2765 C2767 1.327 . S
C2765 C2771 1.429 . S
C2766 C2758 1.574 . S
C2766 H2761 0.949 . S
C2766 C2772 1.368 . S
C2767 C2751 1.349 . S
C2767 H2759 0.950 . S
C2767 C2765 1.327 . S
C2768 C2756 1.349 . S
C2768 H2762 0.950 . S
C2768 C2769 1.327 . S
C2769 H2763 0.950 . S
C2769 C2768 1.327 . S
C2769 C2773 1.429 . S
C2770 C2753 1.574 . S
C2770 H2764 0.949 . S
C2770 C2774 1.368 . S
C2771 C2752 1.429 . S
C2771 C2765 1.429 . S
C2771 C2772 1.523 . S
C2772 C2753 1.368 . S
C2772 C2766 1.368 . S
C2772 C2771 1.523 . S
C2773 C2757 1.429 . S
C2773 C2769 1.429 . S
C2773 C2774 1.523 . S
C2774 C2758 1.368 . S
C2774 C2770 1.368 . S
C2774 C2773 1.523 . S
H2775 C2750 0.950 . S
H2776 C2752 0.950 . S
H2777 C2753 0.949 . S
H2778 C2755 0.950 . S
H2779 C2757 0.950 . S
C2780 C2781 1.349 . S
C2780 C2782 1.327 . S
C2780 H2805 0.950 . S
C2781 C2780 1.349 . S
C2781 C2797 1.349 . S
C2782 C2780 1.327 . S
C2782 C2801 1.429 . S
C2782 H2806 0.950 . S
C2783 C2800 1.574 . S
C2783 C2802 1.368 . S
C2783 H2807 0.949 . S
H2784 C2788 0.949 . S
C2785 C2786 1.349 . S
C2785 C2787 1.327 . S
C2785 H2808 0.950 . S
C2786 C2785 1.349 . S
C2786 C2798 1.349 . S
C2787 C2785 1.327 . S
C2787 C2803 1.429 . S
C2787 H2809 0.950 . S
C2788 H2784 0.949 . S
C2788 C2796 1.574 . S
C2788 C2804 1.368 . S
H2789 C2797 0.950 . S
H2790 C2795 0.950 . S
H2791 C2796 0.949 . S
H2792 C2798 0.950 . S
H2793 C2799 0.950 . S
H2794 C2800 0.949 . S
C2795 H2790 0.950 . S
C2795 C2797 1.327 . S
C2795 C2801 1.429 . S
C2796 C2788 1.574 . S
C2796 H2791 0.949 . S
C2796 C2802 1.368 . S
C2797 C2781 1.349 . S
C2797 H2789 0.950 . S
C2797 C2795 1.327 . S
C2798 C2786 1.349 . S
C2798 H2792 0.950 . S
C2798 C2799 1.327 . S
C2799 H2793 0.950 . S
C2799 C2798 1.327 . S
C2799 C2803 1.429 . S
C2800 C2783 1.574 . S
C2800 H2794 0.949 . S
C2800 C2804 1.368 . S
C2801 C2782 1.429 . S
C2801 C2795 1.429 . S
C2801 C2802 1.523 . S
C2802 C2783 1.368 . S
C2802 C2796 1.368 . S
C2802 C2801 1.523 . S
C2803 C2787 1.429 . S
C2803 C2799 1.429 . S
C2803 C2804 1.523 . S
C2804 C2788 1.368 . S
C2804 C2800 1.368 . S
C2804 C2803 1.523 . S
H2805 C2780 0.950 . S
H2806 C2782 0.950 . S
H2807 C2783 0.949 . S
H2808 C2785 0.950 . S
H2809 C2787 0.950 . S
C2810 C2811 1.349 . S
C2810 C2812 1.327 . S
C2810 H2835 0.950 . S
C2811 C2810 1.349 . S
C2811 C2827 1.349 . S
C2812 C2810 1.327 . S
C2812 C2831 1.429 . S
C2812 H2836 0.950 . S
C2813 C2830 1.574 . S
C2813 C2832 1.368 . S
C2813 H2837 0.949 . S
H2814 C2818 0.949 . S
C2815 C2816 1.349 . S
C2815 C2817 1.327 . S
C2815 H2838 0.950 . S
C2816 C2815 1.349 . S
C2816 C2828 1.349 . S
C2817 C2815 1.327 . S
C2817 C2833 1.429 . S
C2817 H2839 0.950 . S
C2818 H2814 0.949 . S
C2818 C2826 1.574 . S
C2818 C2834 1.368 . S
H2819 C2827 0.950 . S
H2820 C2825 0.950 . S
H2821 C2826 0.949 . S
H2822 C2828 0.950 . S
H2823 C2829 0.950 . S
H2824 C2830 0.949 . S
C2825 H2820 0.950 . S
C2825 C2827 1.327 . S
C2825 C2831 1.429 . S
C2826 C2818 1.574 . S
C2826 H2821 0.949 . S
C2826 C2832 1.368 . S
C2827 C2811 1.349 . S
C2827 H2819 0.950 . S
C2827 C2825 1.327 . S
C2828 C2816 1.349 . S
C2828 H2822 0.950 . S
C2828 C2829 1.327 . S
C2829 H2823 0.950 . S
C2829 C2828 1.327 . S
C2829 C2833 1.429 . S
C2830 C2813 1.574 . S
C2830 H2824 0.949 . S
C2830 C2834 1.368 . S
C2831 C2812 1.429 . S
C2831 C2825 1.429 . S
C2831 C2832 1.523 . S
C2832 C2813 1.368 . S
C2832 C2826 1.368 . S
C2832 C2831 1.523 . S
C2833 C2817 1.429 . S
C2833 C2829 1.429 . S
C2833 C2834 1.523 . S
C2834 C2818 1.368 . S
C2834 C2830 1.368 . S
C2834 C2833 1.523 . S
H2835 C2810 0.950 . S
H2836 C2812 0.950 . S
H2837 C2813 0.949 . S
H2838 C2815 0.950 . S
H2839 C2817 0.950 . S
C2840 C2841 1.349 . S
C2840 C2842 1.327 . S
C2840 H2865 0.950 . S
C2841 C2840 1.349 . S
C2841 C2857 1.349 . S
C2842 C2840 1.327 . S
C2842 C2861 1.429 . S
C2842 H2866 0.950 . S
C2843 C2860 1.574 . S
C2843 C2862 1.368 . S
C2843 H2867 0.949 . S
H2844 C2848 0.949 . S
C2845 C2846 1.349 . S
C2845 C2847 1.327 . S
C2845 H2868 0.950 . S
C2846 C2845 1.349 . S
C2846 C2858 1.349 . S
C2847 C2845 1.327 . S
C2847 C2863 1.429 . S
C2847 H2869 0.950 . S
C2848 H2844 0.949 . S
C2848 C2856 1.574 . S
C2848 C2864 1.368 . S
H2849 C2857 0.950 . S
H2850 C2855 0.950 . S
H2851 C2856 0.949 . S
H2852 C2858 0.950 . S
H2853 C2859 0.950 . S
H2854 C2860 0.949 . S
C2855 H2850 0.950 . S
C2855 C2857 1.327 . S
C2855 C2861 1.429 . S
C2856 C2848 1.574 . S
C2856 H2851 0.949 . S
C2856 C2862 1.368 . S
C2857 C2841 1.349 . S
C2857 H2849 0.950 . S
C2857 C2855 1.327 . S
C2858 C2846 1.349 . S
C2858 H2852 0.950 . S
C2858 C2859 1.327 . S
C2859 H2853 0.950 . S
C2859 C2858 1.327 . S
C2859 C2863 1.429 . S
C2860 C2843 1.574 . S
C2860 H2854 0.949 . S
C2860 C2864 1.368 . S
C2861 C2842 1.429 . S
C2861 C2855 1.429 . S
C2861 C2862 1.523 . S
C2862 C2843 1.368 . S
C2862 C2856 1.368 . S
C2862 C2861 1.523 . S
C2863 C2847 1.429 . S
C2863 C2859 1.429 . S
C2863 C2864 1.523 . S
C2864 C2848 1.368 . S
C2864 C2860 1.368 . S
C2864 C2863 1.523 . S
H2865 C2840 0.950 . S
H2866 C2842 0.950 . S
H2867 C2843 0.949 . S
H2868 C2845 0.950 . S
H2869 C2847 0.950 . S
C2870 C2871 1.349 . S
C2870 C2872 1.327 . S
C2870 H2895 0.950 . S
C2871 C2870 1.349 . S
C2871 C2887 1.349 . S
C2872 C2870 1.327 . S
C2872 C2891 1.429 . S
C2872 H2896 0.950 . S
C2873 C2890 1.574 . S
C2873 C2892 1.368 . S
C2873 H2897 0.949 . S
H2874 C2878 0.949 . S
C2875 C2876 1.349 . S
C2875 C2877 1.327 . S
C2875 H2898 0.950 . S
C2876 C2875 1.349 . S
C2876 C2888 1.349 . S
C2877 C2875 1.327 . S
C2877 C2893 1.429 . S
C2877 H2899 0.950 . S
C2878 H2874 0.949 . S
C2878 C2886 1.574 . S
C2878 C2894 1.368 . S
H2879 C2887 0.950 . S
H2880 C2885 0.950 . S
H2881 C2886 0.949 . S
H2882 C2888 0.950 . S
H2883 C2889 0.950 . S
H2884 C2890 0.949 . S
C2885 H2880 0.950 . S
C2885 C2887 1.327 . S
C2885 C2891 1.429 . S
C2886 C2878 1.574 . S
C2886 H2881 0.949 . S
C2886 C2892 1.368 . S
C2887 C2871 1.349 . S
C2887 H2879 0.950 . S
C2887 C2885 1.327 . S
C2888 C2876 1.349 . S
C2888 H2882 0.950 . S
C2888 C2889 1.327 . S
C2889 H2883 0.950 . S
C2889 C2888 1.327 . S
C2889 C2893 1.429 . S
C2890 C2873 1.574 . S
C2890 H2884 0.949 . S
C2890 C2894 1.368 . S
C2891 C2872 1.429 . S
C2891 C2885 1.429 . S
C2891 C2892 1.523 . S
C2892 C2873 1.368 . S
C2892 C2886 1.368 . S
C2892 C2891 1.523 . S
C2893 C2877 1.429 . S
C2893 C2889 1.429 . S
C2893 C2894 1.523 . S
C2894 C2878 1.368 . S
C2894 C2890 1.368 . S
C2894 C2893 1.523 . S
H2895 C2870 0.950 . S
H2896 C2872 0.950 . S
H2897 C2873 0.949 . S
H2898 C2875 0.950 . S
H2899 C2877 0.950 . S
C2900 C2901 1.349 . S
C2900 C2902 1.327 . S
C2900 H2925 0.950 . S
C2901 C2900 1.349 . S
C2901 C2917 1.349 . S
C2902 C2900 1.327 . S
C2902 C2921 1.429 . S
C2902 H2926 0.950 . S
C2903 C2920 1.574 . S
C2903 C2922 1.368 . S
C2903 H2927 0.949 . S
H2904 C2908 0.949 . S
C2905 C2906 1.349 . S
C2905 C2907 1.327 . S
C2905 H2928 0.950 . S
C2906 C2905 1.349 . S
C2906 C2918 1.349 . S
C2907 C2905 1.327 . S
C2907 C2923 1.429 . S
C2907 H2929 0.950 . S
C2908 H2904 0.949 . S
C2908 C2916 1.574 . S
C2908 C2924 1.368 . S
H2909 C2917 0.950 . S
H2910 C2915 0.950 . S
H2911 C2916 0.949 . S
H2912 C2918 0.950 . S
H2913 C2919 0.950 . S
H2914 C2920 0.949 . S
C2915 H2910 0.950 . S
C2915 C2917 1.327 . S
C2915 C2921 1.429 . S
C2916 C2908 1.574 . S
C2916 H2911 0.949 . S
C2916 C2922 1.368 . S
C2917 C2901 1.349 . S
C2917 H2909 0.950 . S
C2917 C2915 1.327 . S
C2918 C2906 1.349 . S
C2918 H2912 0.950 . S
C2918 C2919 1.327 . S
C2919 H2913 0.950 . S
C2919 C2918 1.327 . S
C2919 C2923 1.429 . S
C2920 C2903 1.574 . S
C2920 H2914 0.949 . S
C2920 C2924 1.368 . S
C2921 C2902 1.429 . S
C2921 C2915 1.429 . S
C2921 C2922 1.523 . S
C2922 C2903 1.368 . S
C2922 C2916 1.368 . S
C2922 C2921 1.523 . S
C2923 C2907 1.429 . S
C2923 C2919 1.429 . S
C2923 C2924 1.523 . S
C2924 C2908 1.368 . S
C2924 C2920 1.368 . S
C2924 C2923 1.523 . S
H2925 C2900 0.950 . S
H2926 C2902 0.950 . S
H2927 C2903 0.949 . S
H2928 C2905 0.950 . S
H2929 C2907 0.950 . S
C2930 C2931 1.349 . S
C2930 C2932 1.327 . S
C2930 H2955 0.950 . S
C2931 C2930 1.349 . S
C2931 C2947 1.349 . S
C2932 C2930 1.327 . S
C2932 C2951 1.429 . S
C2932 H2956 0.950 . S
C2933 C2950 1.574 . S
C2933 C2952 1.368 . S
C2933 H2957 0.949 . S
H2934 C2938 0.949 . S
C2935 C2936 1.349 . S
C2935 C2937 1.327 . S
C2935 H2958 0.950 . S
C2936 C2935 1.349 . S
C2936 C2948 1.349 . S
C2937 C2935 1.327 . S
C2937 C2953 1.429 . S
C2937 H2959 0.950 . S
C2938 H2934 0.949 . S
C2938 C2946 1.574 . S
C2938 C2954 1.368 . S
H2939 C2947 0.950 . S
H2940 C2945 0.950 . S
H2941 C2946 0.949 . S
H2942 C2948 0.950 . S
H2943 C2949 0.950 . S
H2944 C2950 0.949 . S
C2945 H2940 0.950 . S
C2945 C2947 1.327 . S
C2945 C2951 1.429 . S
C2946 C2938 1.574 . S
C2946 H2941 0.949 . S
C2946 C2952 1.368 . S
C2947 C2931 1.349 . S
C2947 H2939 0.950 . S
C2947 C2945 1.327 . S
C2948 C2936 1.349 . S
C2948 H2942 0.950 . S
C2948 C2949 1.327 . S
C2949 H2943 0.950 . S
C2949 C2948 1.327 . S
C2949 C2953 1.429 . S
C2950 C2933 1.574 . S
C2950 H2944 0.949 . S
C2950 C2954 1.368 . S
C2951 C2932 1.429 . S
C2951 C2945 1.429 . S
C2951 C2952 1.523 . S
C2952 C2933 1.368 . S
C2952 C2946 1.368 . S
C2952 C2951 1.523 . S
C2953 C2937 1.429 . S
C2953 C2949 1.429 . S
C2953 C2954 1.523 . S
C2954 C2938 1.368 . S
C2954 C2950 1.368 . S
C2954 C2953 1.523 . S
H2955 C2930 0.950 . S
H2956 C2932 0.950 . S
H2957 C2933 0.949 . S
H2958 C2935 0.950 . S
H2959 C2937 0.950 . S
C2960 C2961 1.349 . S
C2960 C2962 1.327 . S
C2960 H2985 0.950 . S
C2961 C2960 1.349 . S
C2961 C2977 1.349 1_545 S
C2962 C2960 1.327 . S
C2962 C2981 1.429 . S
C2962 H2986 0.950 . S
C2963 C2980 1.574 . S
C2963 C2982 1.368 . S
C2963 H2987 0.949 . S
H2964 C2968 0.949 1_545 S
C2965 C2966 1.349 . S
C2965 C2967 1.327 . S
C2965 H2988 0.950 . S
C2966 C2965 1.349 . S
C2966 C2978 1.349 . S
C2967 C2965 1.327 . S
C2967 C2983 1.429 . S
C2967 H2989 0.950 . S
C2968 H2964 0.949 1_565 S
C2968 C2976 1.574 1_565 S
C2968 C2984 1.368 . S
H2969 C2977 0.950 . S
H2970 C2975 0.950 . S
H2971 C2976 0.949 . S
H2972 C2978 0.950 . S
H2973 C2979 0.950 . S
H2974 C2980 0.949 . S
C2975 H2970 0.950 . S
C2975 C2977 1.327 . S
C2975 C2981 1.428 1_565 S
C2976 C2968 1.574 1_545 S
C2976 H2971 0.949 . S
C2976 C2982 1.368 1_545 S
C2977 C2961 1.349 1_565 S
C2977 H2969 0.950 . S
C2977 C2975 1.327 . S
C2978 C2966 1.349 . S
C2978 H2972 0.950 . S
C2978 C2979 1.327 . S
C2979 H2973 0.950 . S
C2979 C2978 1.327 . S
C2979 C2983 1.429 . S
C2980 C2963 1.574 . S
C2980 H2974 0.949 . S
C2980 C2984 1.368 . S
C2981 C2962 1.429 . S
C2981 C2975 1.428 1_545 S
C2981 C2982 1.523 1_545 S
C2982 C2963 1.368 . S
C2982 C2976 1.368 1_565 S
C2982 C2981 1.523 1_565 S
C2983 C2967 1.429 . S
C2983 C2979 1.429 . S
C2983 C2984 1.523 . S
C2984 C2968 1.368 . S
C2984 C2980 1.368 . S
C2984 C2983 1.523 . S
H2985 C2960 0.950 . S
H2986 C2962 0.950 . S
H2987 C2963 0.949 . S
H2988 C2965 0.950 . S
H2989 C2967 0.950 . S
C2990 C2991 1.349 . S
C2990 C2992 1.327 . S
C2990 H3015 0.950 . S
C2991 C2990 1.349 . S
C2991 C3007 1.349 . S
C2992 C2990 1.327 . S
C2992 C3011 1.429 . S
C2992 H3016 0.950 . S
C2993 C3010 1.574 . S
C2993 C3012 1.368 . S
C2993 H3017 0.949 . S
H2994 C2998 0.949 . S
C2995 C2996 1.349 . S
C2995 C2997 1.327 . S
C2995 H3018 0.950 . S
C2996 C2995 1.349 . S
C2996 C3008 1.349 . S
C2997 C2995 1.327 . S
C2997 C3013 1.429 . S
C2997 H3019 0.950 . S
C2998 H2994 0.949 . S
C2998 C3006 1.574 . S
C2998 C3014 1.368 . S
H2999 C3007 0.950 . S
H3000 C3005 0.950 . S
H3001 C3006 0.949 . S
H3002 C3008 0.950 . S
H3003 C3009 0.950 . S
H3004 C3010 0.949 . S
C3005 H3000 0.950 . S
C3005 C3007 1.327 . S
C3005 C3011 1.429 . S
C3006 C2998 1.574 . S
C3006 H3001 0.949 . S
C3006 C3012 1.368 . S
C3007 C2991 1.349 . S
C3007 H2999 0.950 . S
C3007 C3005 1.327 . S
C3008 C2996 1.349 . S
C3008 H3002 0.950 . S
C3008 C3009 1.327 . S
C3009 H3003 0.950 . S
C3009 C3008 1.327 . S
C3009 C3013 1.429 . S
C3010 C2993 1.574 . S
C3010 H3004 0.949 . S
C3010 C3014 1.368 . S
C3011 C2992 1.429 . S
C3011 C3005 1.429 . S
C3011 C3012 1.523 . S
C3012 C2993 1.368 . S
C3012 C3006 1.368 . S
C3012 C3011 1.523 . S
C3013 C2997 1.429 . S
C3013 C3009 1.429 . S
C3013 C3014 1.523 . S
C3014 C2998 1.368 . S
C3014 C3010 1.368 . S
C3014 C3013 1.523 . S
H3015 C2990 0.950 . S
H3016 C2992 0.950 . S
H3017 C2993 0.949 . S
H3018 C2995 0.950 . S
H3019 C2997 0.950 . S
C3020 C3021 1.349 . S
C3020 C3022 1.327 . S
C3020 H3045 0.950 . S
C3021 C3020 1.349 . S
C3021 C3037 1.349 . S
C3022 C3020 1.327 . S
C3022 C3041 1.429 . S
C3022 H3046 0.950 . S
C3023 C3040 1.574 . S
C3023 C3042 1.368 . S
C3023 H3047 0.949 . S
H3024 C3028 0.949 . S
C3025 C3026 1.349 . S
C3025 C3027 1.327 . S
C3025 H3048 0.950 . S
C3026 C3025 1.349 . S
C3026 C3038 1.349 . S
C3027 C3025 1.327 . S
C3027 C3043 1.429 . S
C3027 H3049 0.950 . S
C3028 H3024 0.949 . S
C3028 C3036 1.574 . S
C3028 C3044 1.368 . S
H3029 C3037 0.950 . S
H3030 C3035 0.950 . S
H3031 C3036 0.949 . S
H3032 C3038 0.950 . S
H3033 C3039 0.950 . S
H3034 C3040 0.949 . S
C3035 H3030 0.950 . S
C3035 C3037 1.327 . S
C3035 C3041 1.429 . S
C3036 C3028 1.574 . S
C3036 H3031 0.949 . S
C3036 C3042 1.368 . S
C3037 C3021 1.349 . S
C3037 H3029 0.950 . S
C3037 C3035 1.327 . S
C3038 C3026 1.349 . S
C3038 H3032 0.950 . S
C3038 C3039 1.327 . S
C3039 H3033 0.950 . S
C3039 C3038 1.327 . S
C3039 C3043 1.429 . S
C3040 C3023 1.574 . S
C3040 H3034 0.949 . S
C3040 C3044 1.368 . S
C3041 C3022 1.429 . S
C3041 C3035 1.429 . S
C3041 C3042 1.523 . S
C3042 C3023 1.368 . S
C3042 C3036 1.368 . S
C3042 C3041 1.523 . S
C3043 C3027 1.429 . S
C3043 C3039 1.429 . S
C3043 C3044 1.523 . S
C3044 C3028 1.368 . S
C3044 C3040 1.368 . S
C3044 C3043 1.523 . S
H3045 C3020 0.950 . S
H3046 C3022 0.950 . S
H3047 C3023 0.949 . S
H3048 C3025 0.950 . S
H3049 C3027 0.950 . S
C3050 C3051 1.349 . S
C3050 C3052 1.327 . S
C3050 H3075 0.950 . S
C3051 C3050 1.349 . S
C3051 C3067 1.349 1_545 S
C3052 C3050 1.327 . S
C3052 C3071 1.429 . S
C3052 H3076 0.950 . S
C3053 C3070 1.574 . S
C3053 C3072 1.368 . S
C3053 H3077 0.949 . S
H3054 C3058 0.949 . S
C3055 C3056 1.349 . S
C3055 C3057 1.327 . S
C3055 H3078 0.950 . S
C3056 C3055 1.349 . S
C3056 C3068 1.349 . S
C3057 C3055 1.327 . S
C3057 C3073 1.429 . S
C3057 H3079 0.950 . S
C3058 H3054 0.949 . S
C3058 C3066 1.574 . S
C3058 C3074 1.368 1_545 S
H3059 C3067 0.950 . S
H3060 C3065 0.950 . S
H3061 C3066 0.949 . S
H3062 C3068 0.950 1_545 S
H3063 C3069 0.950 . S
H3064 C3070 0.949 . S
C3065 H3060 0.950 . S
C3065 C3067 1.327 . S
C3065 C3071 1.428 1_565 S
C3066 C3058 1.574 . S
C3066 H3061 0.949 . S
C3066 C3072 1.368 1_545 S
C3067 C3051 1.349 1_565 S
C3067 H3059 0.950 . S
C3067 C3065 1.327 . S
C3068 C3056 1.349 . S
C3068 H3062 0.950 1_565 S
C3068 C3069 1.327 1_565 S
C3069 H3063 0.950 . S
C3069 C3068 1.327 1_545 S
C3069 C3073 1.429 1_545 S
C3070 C3053 1.574 . S
C3070 H3064 0.949 . S
C3070 C3074 1.368 . S
C3071 C3052 1.429 . S
C3071 C3065 1.428 1_545 S
C3071 C3072 1.523 1_545 S
C3072 C3053 1.368 . S
C3072 C3066 1.368 1_565 S
C3072 C3071 1.523 1_565 S
C3073 C3057 1.429 . S
C3073 C3069 1.429 1_565 S
C3073 C3074 1.523 . S
C3074 C3058 1.368 1_565 S
C3074 C3070 1.368 . S
C3074 C3073 1.523 . S
H3075 C3050 0.950 . S
H3076 C3052 0.950 . S
H3077 C3053 0.949 . S
H3078 C3055 0.950 . S
H3079 C3057 0.950 . S
C3080 C3081 1.349 1_545 S
C3080 C3082 1.327 . S
C3080 H3105 0.950 . S
C3081 C3080 1.349 1_565 S
C3081 C3097 1.349 . S
C3082 C3080 1.327 . S
C3082 C3101 1.428 1_545 S
C3082 H3106 0.950 . S
C3083 C3100 1.574 . S
C3083 C3102 1.368 1_565 S
C3083 H3107 0.949 . S
H3084 C3088 0.949 . S
C3085 C3086 1.349 . S
C3085 C3087 1.327 . S
C3085 H3108 0.950 . S
C3086 C3085 1.349 . S
C3086 C3098 1.349 . S
C3087 C3085 1.327 . S
C3087 C3103 1.429 . S
C3087 H3109 0.950 1_545 S
C3088 H3084 0.949 . S
C3088 C3096 1.574 . S
C3088 C3104 1.368 . S
H3089 C3097 0.950 . S
H3090 C3095 0.950 . S
H3091 C3096 0.949 . S
H3092 C3098 0.950 . S
H3093 C3099 0.950 . S
H3094 C3100 0.949 . S
C3095 H3090 0.950 . S
C3095 C3097 1.327 . S
C3095 C3101 1.429 . S
C3096 C3088 1.574 . S
C3096 H3091 0.949 . S
C3096 C3102 1.368 . S
C3097 C3081 1.349 . S
C3097 H3089 0.950 . S
C3097 C3095 1.327 . S
C3098 C3086 1.349 . S
C3098 H3092 0.950 . S
C3098 C3099 1.327 . S
C3099 H3093 0.950 . S
C3099 C3098 1.327 . S
C3099 C3103 1.429 . S
C3100 C3083 1.574 . S
C3100 H3094 0.949 . S
C3100 C3104 1.368 1_565 S
C3101 C3082 1.428 1_565 S
C3101 C3095 1.429 . S
C3101 C3102 1.523 1_565 S
C3102 C3083 1.368 1_545 S
C3102 C3096 1.368 . S
C3102 C3101 1.523 1_545 S
C3103 C3087 1.429 . S
C3103 C3099 1.429 . S
C3103 C3104 1.523 . S
C3104 C3088 1.368 . S
C3104 C3100 1.368 1_545 S
C3104 C3103 1.523 . S
H3105 C3080 0.950 . S
H3106 C3082 0.950 . S
H3107 C3083 0.949 . S
H3108 C3085 0.950 . S
H3109 C3087 0.950 1_565 S
C3110 C3111 1.349 . S
C3110 C3112 1.327 . S
C3110 H3135 0.950 . S
C3111 C3110 1.349 . S
C3111 C3127 1.349 . S
C3112 C3110 1.327 . S
C3112 C3131 1.429 . S
C3112 H3136 0.950 . S
C3113 C3130 1.574 . S
C3113 C3132 1.368 . S
C3113 H3137 0.949 . S
H3114 C3118 0.949 . S
C3115 C3116 1.349 . S
C3115 C3117 1.327 . S
C3115 H3138 0.950 . S
C3116 C3115 1.349 . S
C3116 C3128 1.349 . S
C3117 C3115 1.327 . S
C3117 C3133 1.429 . S
C3117 H3139 0.950 . S
C3118 H3114 0.949 . S
C3118 C3126 1.574 . S
C3118 C3134 1.368 . S
H3119 C3127 0.950 . S
H3120 C3125 0.950 . S
H3121 C3126 0.949 . S
H3122 C3128 0.950 . S
H3123 C3129 0.950 . S
H3124 C3130 0.949 . S
C3125 H3120 0.950 . S
C3125 C3127 1.327 . S
C3125 C3131 1.429 . S
C3126 C3118 1.574 . S
C3126 H3121 0.949 . S
C3126 C3132 1.368 . S
C3127 C3111 1.349 . S
C3127 H3119 0.950 . S
C3127 C3125 1.327 . S
C3128 C3116 1.349 . S
C3128 H3122 0.950 . S
C3128 C3129 1.327 . S
C3129 H3123 0.950 . S
C3129 C3128 1.327 . S
C3129 C3133 1.429 . S
C3130 C3113 1.574 . S
C3130 H3124 0.949 . S
C3130 C3134 1.368 . S
C3131 C3112 1.429 . S
C3131 C3125 1.429 . S
C3131 C3132 1.523 . S
C3132 C3113 1.368 . S
C3132 C3126 1.368 . S
C3132 C3131 1.523 . S
C3133 C3117 1.429 . S
C3133 C3129 1.429 . S
C3133 C3134 1.523 . S
C3134 C3118 1.368 . S
C3134 C3130 1.368 . S
C3134 C3133 1.523 . S
H3135 C3110 0.950 . S
H3136 C3112 0.950 . S
H3137 C3113 0.949 . S
H3138 C3115 0.950 . S
H3139 C3117 0.950 . S
C3140 C3141 1.349 . S
C3140 C3142 1.327 . S
C3140 H3165 0.950 . S
C3141 C3140 1.349 . S
C3141 C3157 1.349 . S
C3142 C3140 1.327 . S
C3142 C3161 1.429 . S
C3142 H3166 0.950 . S
C3143 C3160 1.574 . S
C3143 C3162 1.368 . S
C3143 H3167 0.949 . S
H3144 C3148 0.949 . S
C3145 C3146 1.349 . S
C3145 C3147 1.327 . S
C3145 H3168 0.950 . S
C3146 C3145 1.349 . S
C3146 C3158 1.349 . S
C3147 C3145 1.327 . S
C3147 C3163 1.429 . S
C3147 H3169 0.950 . S
C3148 H3144 0.949 . S
C3148 C3156 1.574 . S
C3148 C3164 1.368 . S
H3149 C3157 0.950 . S
H3150 C3155 0.950 . S
H3151 C3156 0.949 . S
H3152 C3158 0.950 . S
H3153 C3159 0.950 . S
H3154 C3160 0.949 . S
C3155 H3150 0.950 . S
C3155 C3157 1.327 . S
C3155 C3161 1.429 . S
C3156 C3148 1.574 . S
C3156 H3151 0.949 . S
C3156 C3162 1.368 . S
C3157 C3141 1.349 . S
C3157 H3149 0.950 . S
C3157 C3155 1.327 . S
C3158 C3146 1.349 . S
C3158 H3152 0.950 . S
C3158 C3159 1.327 . S
C3159 H3153 0.950 . S
C3159 C3158 1.327 . S
C3159 C3163 1.429 . S
C3160 C3143 1.574 . S
C3160 H3154 0.949 . S
C3160 C3164 1.368 . S
C3161 C3142 1.429 . S
C3161 C3155 1.429 . S
C3161 C3162 1.523 . S
C3162 C3143 1.368 . S
C3162 C3156 1.368 . S
C3162 C3161 1.523 . S
C3163 C3147 1.429 . S
C3163 C3159 1.429 . S
C3163 C3164 1.523 . S
C3164 C3148 1.368 . S
C3164 C3160 1.368 . S
C3164 C3163 1.523 . S
H3165 C3140 0.950 . S
H3166 C3142 0.950 . S
H3167 C3143 0.949 . S
H3168 C3145 0.950 . S
H3169 C3147 0.950 . S
C3170 C3171 1.349 1_545 S
C3170 C3172 1.327 . S
C3170 H3195 0.950 . S
C3171 C3170 1.349 1_565 S
C3171 C3187 1.349 . S
C3172 C3170 1.327 . S
C3172 C3191 1.428 1_545 S
C3172 H3196 0.950 . S
C3173 C3190 1.574 . S
C3173 C3192 1.368 1_565 S
C3173 H3197 0.949 . S
H3174 C3178 0.949 . S
C3175 C3176 1.349 . S
C3175 C3177 1.327 . S
C3175 H3198 0.950 1_545 S
C3176 C3175 1.349 . S
C3176 C3188 1.349 . S
C3177 C3175 1.327 . S
C3177 C3193 1.429 . S
C3177 H3199 0.950 1_545 S
C3178 H3174 0.949 . S
C3178 C3186 1.574 . S
C3178 C3194 1.368 . S
H3179 C3187 0.950 . S
H3180 C3185 0.950 . S
H3181 C3186 0.949 . S
H3182 C3188 0.950 . S
H3183 C3189 0.950 . S
H3184 C3190 0.949 . S
C3185 H3180 0.950 . S
C3185 C3187 1.327 . S
C3185 C3191 1.429 . S
C3186 C3178 1.574 . S
C3186 H3181 0.949 . S
C3186 C3192 1.368 . S
C3187 C3171 1.349 . S
C3187 H3179 0.950 . S
C3187 C3185 1.327 . S
C3188 C3176 1.349 . S
C3188 H3182 0.950 . S
C3188 C3189 1.327 . S
C3189 H3183 0.950 . S
C3189 C3188 1.327 . S
C3189 C3193 1.429 . S
C3190 C3173 1.574 . S
C3190 H3184 0.949 . S
C3190 C3194 1.368 1_565 S
C3191 C3172 1.428 1_565 S
C3191 C3185 1.429 . S
C3191 C3192 1.523 1_565 S
C3192 C3173 1.368 1_545 S
C3192 C3186 1.368 . S
C3192 C3191 1.523 1_545 S
C3193 C3177 1.429 . S
C3193 C3189 1.429 . S
C3193 C3194 1.523 . S
C3194 C3178 1.368 . S
C3194 C3190 1.368 1_545 S
C3194 C3193 1.523 . S
H3195 C3170 0.950 . S
H3196 C3172 0.950 . S
H3197 C3173 0.949 . S
H3198 C3175 0.950 1_565 S
H3199 C3177 0.950 1_565 S
C3200 C3201 1.349 . S
C3200 C3202 1.327 . S
C3200 H3225 0.950 . S
C3201 C3200 1.349 . S
C3201 C3217 1.349 . S
C3202 C3200 1.327 . S
C3202 C3221 1.429 . S
C3202 H3226 0.950 . S
C3203 C3220 1.574 . S
C3203 C3222 1.368 . S
C3203 H3227 0.949 . S
H3204 C3208 0.950 . S
C3205 C3206 1.349 . S
C3205 C3207 1.327 . S
C3205 H3228 0.950 . S
C3206 C3205 1.349 . S
C3206 C3218 1.349 . S
C3207 C3205 1.327 . S
C3207 C3223 1.429 . S
C3207 H3229 0.950 . S
C3208 H3204 0.950 . S
C3208 C3216 1.574 . S
C3208 C3224 1.368 1_455 S
H3209 C3217 0.950 . S
H3210 C3215 0.950 . S
H3211 C3216 0.949 . S
H3212 C3218 0.950 . S
H3213 C3219 0.950 . S
H3214 C3220 0.949 1_655 S
C3215 H3210 0.950 . S
C3215 C3217 1.327 . S
C3215 C3221 1.429 . S
C3216 C3208 1.574 . S
C3216 H3211 0.949 . S
C3216 C3222 1.368 . S
C3217 C3201 1.349 . S
C3217 H3209 0.950 . S
C3217 C3215 1.327 . S
C3218 C3206 1.349 . S
C3218 H3212 0.950 . S
C3218 C3219 1.327 . S
C3219 H3213 0.950 . S
C3219 C3218 1.327 . S
C3219 C3223 1.429 . S
C3220 C3203 1.574 . S
C3220 H3214 0.949 1_455 S
C3220 C3224 1.368 1_455 S
C3221 C3202 1.429 . S
C3221 C3215 1.429 . S
C3221 C3222 1.523 . S
C3222 C3203 1.368 . S
C3222 C3216 1.368 . S
C3222 C3221 1.523 . S
C3223 C3207 1.429 . S
C3223 C3219 1.429 . S
C3223 C3224 1.523 . S
C3224 C3208 1.368 1_655 S
C3224 C3220 1.368 1_655 S
C3224 C3223 1.523 . S
H3225 C3200 0.950 . S
H3226 C3202 0.950 . S
H3227 C3203 0.949 . S
H3228 C3205 0.950 . S
H3229 C3207 0.950 . S
C3230 C3231 1.349 . S
C3230 C3232 1.327 . S
C3230 H3255 0.950 . S
C3231 C3230 1.349 . S
C3231 C3247 1.349 . S
C3232 C3230 1.327 . S
C3232 C3251 1.429 . S
C3232 H3256 0.950 . S
C3233 C3250 1.574 . S
C3233 C3252 1.368 . S
C3233 H3257 0.949 . S
H3234 C3238 0.949 . S
C3235 C3236 1.349 . S
C3235 C3237 1.327 . S
C3235 H3258 0.950 . S
C3236 C3235 1.349 . S
C3236 C3248 1.349 . S
C3237 C3235 1.327 . S
C3237 C3253 1.429 . S
C3237 H3259 0.950 . S
C3238 H3234 0.949 . S
C3238 C3246 1.574 . S
C3238 C3254 1.368 . S
H3239 C3247 0.950 . S
H3240 C3245 0.950 . S
H3241 C3246 0.949 . S
H3242 C3248 0.950 . S
H3243 C3249 0.950 . S
H3244 C3250 0.949 . S
C3245 H3240 0.950 . S
C3245 C3247 1.327 . S
C3245 C3251 1.429 . S
C3246 C3238 1.574 . S
C3246 H3241 0.949 . S
C3246 C3252 1.368 . S
C3247 C3231 1.349 . S
C3247 H3239 0.950 . S
C3247 C3245 1.327 . S
C3248 C3236 1.349 . S
C3248 H3242 0.950 . S
C3248 C3249 1.327 . S
C3249 H3243 0.950 . S
C3249 C3248 1.327 . S
C3249 C3253 1.429 . S
C3250 C3233 1.574 . S
C3250 H3244 0.949 . S
C3250 C3254 1.368 . S
C3251 C3232 1.429 . S
C3251 C3245 1.429 . S
C3251 C3252 1.523 . S
C3252 C3233 1.368 . S
C3252 C3246 1.368 . S
C3252 C3251 1.523 . S
C3253 C3237 1.429 . S
C3253 C3249 1.429 . S
C3253 C3254 1.523 . S
C3254 C3238 1.368 . S
C3254 C3250 1.368 . S
C3254 C3253 1.523 . S
H3255 C3230 0.950 . S
H3256 C3232 0.950 . S
H3257 C3233 0.949 . S
H3258 C3235 0.950 . S
H3259 C3237 0.950 . S
C3260 C3261 1.349 . S
C3260 C3262 1.327 . S
C3260 H3285 0.950 . S
C3261 C3260 1.349 . S
C3261 C3277 1.349 . S
C3262 C3260 1.327 . S
C3262 C3281 1.429 . S
C3262 H3286 0.950 . S
C3263 C3280 1.574 . S
C3263 C3282 1.368 1_455 S
C3263 H3287 0.949 1_455 S
H3264 C3268 0.949 . S
C3265 C3266 1.349 . S
C3265 C3267 1.327 . S
C3265 H3288 0.950 . S
C3266 C3265 1.349 . S
C3266 C3278 1.349 . S
C3267 C3265 1.327 . S
C3267 C3283 1.429 . S
C3267 H3289 0.950 . S
C3268 H3264 0.949 . S
C3268 C3276 1.574 . S
C3268 C3284 1.368 . S
H3269 C3277 0.950 . S
H3270 C3275 0.950 . S
H3271 C3276 0.949 1_655 S
H3272 C3278 0.950 . S
H3273 C3279 0.950 . S
H3274 C3280 0.949 . S
C3275 H3270 0.950 . S
C3275 C3277 1.327 . S
C3275 C3281 1.429 . S
C3276 C3268 1.574 . S
C3276 H3271 0.949 1_455 S
C3276 C3282 1.368 1_455 S
C3277 C3261 1.349 . S
C3277 H3269 0.950 . S
C3277 C3275 1.327 . S
C3278 C3266 1.349 . S
C3278 H3272 0.950 . S
C3278 C3279 1.327 . S
C3279 H3273 0.950 . S
C3279 C3278 1.327 . S
C3279 C3283 1.429 . S
C3280 C3263 1.574 . S
C3280 H3274 0.949 . S
C3280 C3284 1.368 . S
C3281 C3262 1.429 . S
C3281 C3275 1.429 . S
C3281 C3282 1.523 . S
C3282 C3263 1.368 1_655 S
C3282 C3276 1.368 1_655 S
C3282 C3281 1.523 . S
C3283 C3267 1.429 . S
C3283 C3279 1.429 . S
C3283 C3284 1.523 . S
C3284 C3268 1.368 . S
C3284 C3280 1.368 . S
C3284 C3283 1.523 . S
H3285 C3260 0.950 . S
H3286 C3262 0.950 . S
H3287 C3263 0.949 1_655 S
H3288 C3265 0.950 . S
H3289 C3267 0.950 . S
C3290 C3291 1.349 . S
C3290 C3292 1.327 . S
C3290 H3315 0.950 . S
C3291 C3290 1.349 . S
C3291 C3307 1.349 . S
C3292 C3290 1.327 . S
C3292 C3311 1.429 . S
C3292 H3316 0.950 . S
C3293 C3310 1.574 . S
C3293 C3312 1.368 . S
C3293 H3317 0.949 . S
H3294 C3298 0.949 . S
C3295 C3296 1.349 . S
C3295 C3297 1.327 . S
C3295 H3318 0.950 . S
C3296 C3295 1.349 . S
C3296 C3308 1.349 . S
C3297 C3295 1.327 . S
C3297 C3313 1.429 . S
C3297 H3319 0.950 . S
C3298 H3294 0.949 . S
C3298 C3306 1.574 . S
C3298 C3314 1.368 . S
H3299 C3307 0.950 . S
H3300 C3305 0.950 . S
H3301 C3306 0.949 . S
H3302 C3308 0.950 . S
H3303 C3309 0.950 . S
H3304 C3310 0.949 . S
C3305 H3300 0.950 . S
C3305 C3307 1.327 . S
C3305 C3311 1.429 . S
C3306 C3298 1.574 . S
C3306 H3301 0.949 . S
C3306 C3312 1.368 . S
C3307 C3291 1.349 . S
C3307 H3299 0.950 . S
C3307 C3305 1.327 . S
C3308 C3296 1.349 . S
C3308 H3302 0.950 . S
C3308 C3309 1.327 . S
C3309 H3303 0.950 . S
C3309 C3308 1.327 . S
C3309 C3313 1.429 . S
C3310 C3293 1.574 . S
C3310 H3304 0.949 . S
C3310 C3314 1.368 . S
C3311 C3292 1.429 . S
C3311 C3305 1.429 . S
C3311 C3312 1.523 . S
C3312 C3293 1.368 . S
C3312 C3306 1.368 . S
C3312 C3311 1.523 . S
C3313 C3297 1.429 . S
C3313 C3309 1.429 . S
C3313 C3314 1.523 . S
C3314 C3298 1.368 . S
C3314 C3310 1.368 . S
C3314 C3313 1.523 . S
H3315 C3290 0.950 . S
H3316 C3292 0.950 . S
H3317 C3293 0.949 . S
H3318 C3295 0.950 . S
H3319 C3297 0.950 . S
C3320 C3321 1.349 . S
C3320 C3322 1.327 . S
C3320 H3345 0.950 . S
C3321 C3320 1.349 . S
C3321 C3337 1.349 . S
C3322 C3320 1.327 . S
C3322 C3341 1.429 . S
C3322 H3346 0.950 . S
C3323 C3340 1.574 . S
C3323 C3342 1.368 . S
C3323 H3347 0.949 . S
H3324 C3328 0.949 1_455 S
C3325 C3326 1.349 . S
C3325 C3327 1.327 . S
C3325 H3348 0.950 . S
C3326 C3325 1.349 . S
C3326 C3338 1.349 . S
C3327 C3325 1.327 . S
C3327 C3343 1.429 . S
C3327 H3349 0.950 . S
C3328 H3324 0.949 1_655 S
C3328 C3336 1.574 . S
C3328 C3344 1.368 1_655 S
H3329 C3337 0.950 . S
H3330 C3335 0.950 . S
H3331 C3336 0.949 . S
H3332 C3338 0.950 . S
H3333 C3339 0.950 . S
H3334 C3340 0.938 1_455 S
C3335 H3330 0.950 . S
C3335 C3337 1.327 . S
C3335 C3341 1.429 . S
C3336 C3328 1.574 . S
C3336 H3331 0.949 . S
C3336 C3342 1.368 . S
C3337 C3321 1.349 . S
C3337 H3329 0.950 . S
C3337 C3335 1.327 . S
C3338 C3326 1.349 . S
C3338 H3332 0.950 . S
C3338 C3339 1.327 . S
C3339 H3333 0.950 . S
C3339 C3338 1.327 . S
C3339 C3343 1.429 . S
C3340 C3323 1.574 . S
C3340 H3334 0.938 1_655 S
C3340 C3344 1.368 1_655 S
C3341 C3322 1.429 . S
C3341 C3335 1.429 . S
C3341 C3342 1.523 . S
C3342 C3323 1.368 . S
C3342 C3336 1.368 . S
C3342 C3341 1.523 . S
C3343 C3327 1.429 . S
C3343 C3339 1.429 . S
C3343 C3344 1.523 . S
C3344 C3328 1.368 1_455 S
C3344 C3340 1.368 1_455 S
C3344 C3343 1.523 . S
H3345 C3320 0.950 . S
H3346 C3322 0.950 . S
H3347 C3323 0.949 . S
H3348 C3325 0.950 . S
H3349 C3327 0.950 . S
C3350 C3351 1.349 . S
C3350 C3352 1.327 . S
C3350 H3375 0.950 . S
C3351 C3350 1.349 . S
C3351 C3367 1.349 . S
C3352 C3350 1.327 . S
C3352 C3371 1.429 . S
C3352 H3376 0.950 . S
C3353 C3370 1.574 . S
C3353 C3372 1.368 . S
C3353 H3377 0.949 . S
H3354 C3358 0.949 . S
C3355 C3356 1.349 . S
C3355 C3357 1.327 . S
C3355 H3378 0.950 . S
C3356 C3355 1.349 . S
C3356 C3368 1.349 . S
C3357 C3355 1.327 . S
C3357 C3373 1.429 . S
C3357 H3379 0.950 . S
C3358 H3354 0.949 . S
C3358 C3366 1.574 . S
C3358 C3374 1.368 . S
H3359 C3367 0.950 . S
H3360 C3365 0.950 . S
H3361 C3366 0.949 . S
H3362 C3368 0.950 . S
H3363 C3369 0.950 . S
H3364 C3370 0.949 . S
C3365 H3360 0.950 . S
C3365 C3367 1.327 . S
C3365 C3371 1.429 . S
C3366 C3358 1.574 . S
C3366 H3361 0.949 . S
C3366 C3372 1.368 . S
C3367 C3351 1.349 . S
C3367 H3359 0.950 . S
C3367 C3365 1.327 . S
C3368 C3356 1.349 . S
C3368 H3362 0.950 . S
C3368 C3369 1.327 . S
C3369 H3363 0.950 . S
C3369 C3368 1.327 . S
C3369 C3373 1.429 . S
C3370 C3353 1.574 . S
C3370 H3364 0.949 . S
C3370 C3374 1.368 . S
C3371 C3352 1.429 . S
C3371 C3365 1.429 . S
C3371 C3372 1.523 . S
C3372 C3353 1.368 . S
C3372 C3366 1.368 . S
C3372 C3371 1.523 . S
C3373 C3357 1.429 . S
C3373 C3369 1.429 . S
C3373 C3374 1.523 . S
C3374 C3358 1.368 . S
C3374 C3370 1.368 . S
C3374 C3373 1.523 . S
H3375 C3350 0.950 . S
H3376 C3352 0.950 . S
H3377 C3353 0.949 . S
H3378 C3355 0.950 . S
H3379 C3357 0.950 . S
C3380 C3381 1.349 . S
C3380 C3382 1.327 . S
C3380 H3405 0.950 . S
C3381 C3380 1.349 . S
C3381 C3397 1.349 . S
C3382 C3380 1.327 . S
C3382 C3401 1.429 . S
C3382 H3406 0.950 . S
C3383 C3400 1.574 . S
C3383 C3402 1.368 1_655 S
C3383 H3407 0.949 1_655 S
H3384 C3388 0.949 . S
C3385 C3386 1.349 . S
C3385 C3387 1.327 . S
C3385 H3408 0.950 . S
C3386 C3385 1.349 . S
C3386 C3398 1.349 . S
C3387 C3385 1.327 . S
C3387 C3403 1.429 . S
C3387 H3409 0.950 . S
C3388 H3384 0.949 . S
C3388 C3396 1.574 . S
C3388 C3404 1.368 . S
H3389 C3397 0.950 . S
H3390 C3395 0.950 . S
H3391 C3396 0.949 1_455 S
H3392 C3398 0.950 . S
H3393 C3399 0.950 . S
H3394 C3400 0.949 . S
C3395 H3390 0.950 . S
C3395 C3397 1.327 . S
C3395 C3401 1.429 . S
C3396 C3388 1.574 . S
C3396 H3391 0.949 1_655 S
C3396 C3402 1.368 1_655 S
C3397 C3381 1.349 . S
C3397 H3389 0.950 . S
C3397 C3395 1.327 . S
C3398 C3386 1.349 . S
C3398 H3392 0.950 . S
C3398 C3399 1.327 . S
C3399 H3393 0.950 . S
C3399 C3398 1.327 . S
C3399 C3403 1.429 . S
C3400 C3383 1.574 . S
C3400 H3394 0.949 . S
C3400 C3404 1.368 . S
C3401 C3382 1.429 . S
C3401 C3395 1.429 . S
C3401 C3402 1.523 . S
C3402 C3383 1.368 1_455 S
C3402 C3396 1.368 1_455 S
C3402 C3401 1.523 . S
C3403 C3387 1.429 . S
C3403 C3399 1.429 . S
C3403 C3404 1.523 . S
C3404 C3388 1.368 . S
C3404 C3400 1.368 . S
C3404 C3403 1.523 . S
H3405 C3380 0.950 . S
H3406 C3382 0.950 . S
H3407 C3383 0.949 1_455 S
H3408 C3385 0.950 . S
H3409 C3387 0.950 . S
C3410 C3411 1.349 . S
C3410 C3412 1.327 . S
C3410 H3435 0.950 . S
C3411 C3410 1.349 . S
C3411 C3427 1.349 . S
C3412 C3410 1.327 . S
C3412 C3431 1.429 . S
C3412 H3436 0.950 . S
C3413 C3430 1.574 . S
C3413 C3432 1.368 . S
C3413 H3437 0.949 . S
H3414 C3418 0.949 . S
C3415 C3416 1.349 . S
C3415 C3417 1.327 . S
C3415 H3438 0.950 . S
C3416 C3415 1.349 . S
C3416 C3428 1.349 . S
C3417 C3415 1.327 . S
C3417 C3433 1.429 . S
C3417 H3439 0.950 . S
C3418 H3414 0.949 . S
C3418 C3426 1.574 . S
C3418 C3434 1.368 . S
H3419 C3427 0.950 . S
H3420 C3425 0.950 . S
H3421 C3426 0.949 . S
H3422 C3428 0.950 . S
H3423 C3429 0.950 . S
H3424 C3430 0.949 . S
C3425 H3420 0.950 . S
C3425 C3427 1.327 . S
C3425 C3431 1.429 . S
C3426 C3418 1.574 . S
C3426 H3421 0.949 . S
C3426 C3432 1.368 . S
C3427 C3411 1.349 . S
C3427 H3419 0.950 . S
C3427 C3425 1.327 . S
C3428 C3416 1.349 . S
C3428 H3422 0.950 . S
C3428 C3429 1.327 . S
C3429 H3423 0.950 . S
C3429 C3428 1.327 . S
C3429 C3433 1.429 . S
C3430 C3413 1.574 . S
C3430 H3424 0.949 . S
C3430 C3434 1.368 . S
C3431 C3412 1.429 . S
C3431 C3425 1.429 . S
C3431 C3432 1.523 . S
C3432 C3413 1.368 . S
C3432 C3426 1.368 . S
C3432 C3431 1.523 . S
C3433 C3417 1.429 . S
C3433 C3429 1.429 . S
C3433 C3434 1.523 . S
C3434 C3418 1.368 . S
C3434 C3430 1.368 . S
C3434 C3433 1.523 . S
H3435 C3410 0.950 . S
H3436 C3412 0.950 . S
H3437 C3413 0.949 . S
H3438 C3415 0.950 . S
H3439 C3417 0.950 . S
C3440 C3441 1.349 . S
C3440 C3442 1.330 . S
C3440 H3465 0.950 . S
C3441 C3440 1.349 . S
C3441 C3457 1.349 . S
C3442 C3440 1.330 . S
C3442 C3461 1.428 . S
C3442 H3466 0.947 1_545 S
C3443 C3460 1.574 . S
C3443 C3462 1.368 1_455 S
C3443 H3467 0.958 1_455 S
H3444 C3448 0.949 . S
C3445 C3446 1.349 . S
C3445 C3447 1.327 . S
C3445 H3468 0.950 . S
C3446 C3445 1.349 . S
C3446 C3458 1.349 . S
C3447 C3445 1.327 . S
C3447 C3463 1.429 . S
C3447 H3469 0.950 . S
C3448 H3444 0.949 . S
C3448 C3456 1.574 . S
C3448 C3464 1.368 . S
H3449 C3457 0.950 . S
H3450 C3455 0.950 . S
H3451 C3456 0.949 1_655 S
H3452 C3458 0.950 . S
H3453 C3459 0.950 . S
H3454 C3460 0.949 . S
C3455 H3450 0.950 . S
C3455 C3457 1.327 . S
C3455 C3461 1.429 . S
C3456 C3448 1.574 . S
C3456 H3451 0.949 1_455 S
C3456 C3462 1.368 1_455 S
C3457 C3441 1.349 . S
C3457 H3449 0.950 . S
C3457 C3455 1.327 . S
C3458 C3446 1.349 . S
C3458 H3452 0.950 . S
C3458 C3459 1.327 . S
C3459 H3453 0.950 . S
C3459 C3458 1.327 . S
C3459 C3463 1.429 . S
C3460 C3443 1.574 . S
C3460 H3454 0.949 . S
C3460 C3464 1.368 . S
C3461 C3442 1.428 . S
C3461 C3455 1.429 . S
C3461 C3462 1.523 1_545 S
C3462 C3443 1.368 1_655 S
C3462 C3456 1.368 1_655 S
C3462 C3461 1.523 1_565 S
C3463 C3447 1.429 . S
C3463 C3459 1.429 . S
C3463 C3464 1.523 . S
C3464 C3448 1.368 . S
C3464 C3460 1.368 . S
C3464 C3463 1.523 . S
H3465 C3440 0.950 . S
H3466 C3442 0.947 1_565 S
H3467 C3443 0.958 1_655 S
H3468 C3445 0.950 . S
H3469 C3447 0.950 . S
C3470 C3471 1.349 . S
C3470 C3472 1.327 . S
C3470 H3495 0.950 . S
C3471 C3470 1.349 . S
C3471 C3487 1.349 . S
C3472 C3470 1.327 . S
C3472 C3491 1.429 . S
C3472 H3496 0.950 . S
C3473 C3490 1.574 . S
C3473 C3492 1.368 . S
C3473 H3497 0.949 . S
H3474 C3478 0.949 . S
C3475 C3476 1.349 . S
C3475 C3477 1.327 . S
C3475 H3498 0.950 . S
C3476 C3475 1.349 . S
C3476 C3488 1.349 . S
C3477 C3475 1.327 . S
C3477 C3493 1.429 . S
C3477 H3499 0.950 . S
C3478 H3474 0.949 . S
C3478 C3486 1.574 . S
C3478 C3494 1.368 . S
H3479 C3487 0.950 . S
H3480 C3485 0.950 . S
H3481 C3486 0.949 . S
H3482 C3488 0.950 . S
H3483 C3489 0.950 . S
H3484 C3490 0.949 . S
C3485 H3480 0.950 . S
C3485 C3487 1.327 . S
C3485 C3491 1.429 . S
C3486 C3478 1.574 . S
C3486 H3481 0.949 . S
C3486 C3492 1.368 . S
C3487 C3471 1.349 . S
C3487 H3479 0.950 . S
C3487 C3485 1.327 . S
C3488 C3476 1.349 . S
C3488 H3482 0.950 . S
C3488 C3489 1.327 . S
C3489 H3483 0.950 . S
C3489 C3488 1.327 . S
C3489 C3493 1.429 . S
C3490 C3473 1.574 . S
C3490 H3484 0.949 . S
C3490 C3494 1.368 . S
C3491 C3472 1.429 . S
C3491 C3485 1.429 . S
C3491 C3492 1.523 . S
C3492 C3473 1.368 . S
C3492 C3486 1.368 . S
C3492 C3491 1.523 . S
C3493 C3477 1.429 . S
C3493 C3489 1.429 . S
C3493 C3494 1.523 . S
C3494 C3478 1.368 . S
C3494 C3490 1.368 . S
C3494 C3493 1.523 . S
H3495 C3470 0.950 . S
H3496 C3472 0.950 . S
H3497 C3473 0.949 . S
H3498 C3475 0.950 . S
H3499 C3477 0.950 . S
C3500 C3501 1.349 . S
C3500 C3502 1.327 . S
C3500 H3525 0.950 . S
C3501 C3500 1.349 . S
C3501 C3517 1.349 . S
C3502 C3500 1.327 . S
C3502 C3521 1.429 . S
C3502 H3526 0.950 . S
C3503 C3520 1.574 . S
C3503 C3522 1.368 1_455 S
C3503 H3527 0.949 1_455 S
H3504 C3508 0.949 . S
C3505 C3506 1.349 . S
C3505 C3507 1.327 . S
C3505 H3528 0.950 . S
C3506 C3505 1.349 . S
C3506 C3518 1.349 . S
C3507 C3505 1.327 . S
C3507 C3523 1.429 . S
C3507 H3529 0.950 . S
C3508 H3504 0.949 . S
C3508 C3516 1.574 . S
C3508 C3524 1.368 . S
H3509 C3517 0.950 . S
H3510 C3515 0.950 . S
H3511 C3516 0.949 1_655 S
H3512 C3518 0.950 . S
H3513 C3519 0.950 . S
H3514 C3520 0.949 . S
C3515 H3510 0.950 . S
C3515 C3517 1.327 . S
C3515 C3521 1.429 . S
C3516 C3508 1.574 . S
C3516 H3511 0.949 1_455 S
C3516 C3522 1.368 1_455 S
C3517 C3501 1.349 . S
C3517 H3509 0.950 . S
C3517 C3515 1.327 . S
C3518 C3506 1.349 . S
C3518 H3512 0.950 . S
C3518 C3519 1.327 . S
C3519 H3513 0.950 . S
C3519 C3518 1.327 . S
C3519 C3523 1.429 . S
C3520 C3503 1.574 . S
C3520 H3514 0.949 . S
C3520 C3524 1.368 . S
C3521 C3502 1.429 . S
C3521 C3515 1.429 . S
C3521 C3522 1.523 . S
C3522 C3503 1.368 1_655 S
C3522 C3516 1.368 1_655 S
C3522 C3521 1.523 . S
C3523 C3507 1.429 . S
C3523 C3519 1.429 . S
C3523 C3524 1.523 . S
C3524 C3508 1.368 . S
C3524 C3520 1.368 . S
C3524 C3523 1.523 . S
H3525 C3500 0.950 . S
H3526 C3502 0.950 . S
H3527 C3503 0.949 1_655 S
H3528 C3505 0.950 . S
H3529 C3507 0.950 . S
C3530 C3531 1.349 . S
C3530 C3532 1.327 . S
C3530 H3555 0.950 . S
C3531 C3530 1.349 . S
C3531 C3547 1.349 1_545 S
C3532 C3530 1.327 . S
C3532 C3551 1.429 . S
C3532 H3556 0.950 . S
C3533 C3550 1.574 . S
C3533 C3552 1.368 . S
C3533 H3557 0.949 . S
H3534 C3538 0.949 . S
C3535 C3536 1.349 . S
C3535 C3537 1.327 . S
C3535 H3558 0.950 . S
C3536 C3535 1.349 . S
C3536 C3548 1.349 . S
C3537 C3535 1.327 . S
C3537 C3553 1.429 . S
C3537 H3559 0.950 . S
C3538 H3534 0.949 . S
C3538 C3546 1.574 . S
C3538 C3554 1.368 1_545 S
H3539 C3547 0.950 . S
H3540 C3545 0.950 . S
H3541 C3546 0.949 . S
H3542 C3548 0.950 . S
H3543 C3549 0.950 1_545 S
H3544 C3550 0.949 . S
C3545 H3540 0.950 . S
C3545 C3547 1.327 . S
C3545 C3551 1.428 1_565 S
C3546 C3538 1.574 . S
C3546 H3541 0.949 . S
C3546 C3552 1.368 1_545 S
C3547 C3531 1.349 1_565 S
C3547 H3539 0.950 . S
C3547 C3545 1.327 . S
C3548 C3536 1.349 . S
C3548 H3542 0.950 . S
C3548 C3549 1.327 . S
C3549 H3543 0.950 1_565 S
C3549 C3548 1.327 . S
C3549 C3553 1.429 . S
C3550 C3533 1.574 . S
C3550 H3544 0.949 . S
C3550 C3554 1.368 . S
C3551 C3532 1.429 . S
C3551 C3545 1.428 1_545 S
C3551 C3552 1.523 1_545 S
C3552 C3533 1.368 . S
C3552 C3546 1.368 1_565 S
C3552 C3551 1.523 1_565 S
C3553 C3537 1.429 . S
C3553 C3549 1.429 . S
C3553 C3554 1.523 . S
C3554 C3538 1.368 1_565 S
C3554 C3550 1.368 . S
C3554 C3553 1.523 . S
H3555 C3530 0.950 . S
H3556 C3532 0.950 . S
H3557 C3533 0.949 . S
H3558 C3535 0.950 . S
H3559 C3537 0.950 . S
C3560 C3561 1.349 . S
C3560 C3562 1.327 . S
C3560 H3585 0.950 . S
C3561 C3560 1.349 . S
C3561 C3577 1.349 . S
C3562 C3560 1.327 . S
C3562 C3581 1.429 . S
C3562 H3586 0.950 . S
C3563 C3580 1.574 . S
C3563 C3582 1.368 . S
C3563 H3587 0.949 . S
H3564 C3568 0.949 1_455 S
C3565 C3566 1.349 . S
C3565 C3567 1.327 . S
C3565 H3588 0.950 . S
C3566 C3565 1.349 . S
C3566 C3578 1.349 . S
C3567 C3565 1.327 . S
C3567 C3583 1.429 . S
C3567 H3589 0.950 . S
C3568 H3564 0.949 1_655 S
C3568 C3576 1.574 . S
C3568 C3584 1.368 1_655 S
H3569 C3577 0.950 . S
H3570 C3575 0.950 . S
H3571 C3576 0.949 . S
H3572 C3578 0.950 . S
H3573 C3579 0.946 1_545 S
H3574 C3580 0.961 1_455 S
C3575 H3570 0.950 . S
C3575 C3577 1.327 . S
C3575 C3581 1.429 . S
C3576 C3568 1.574 . S
C3576 H3571 0.949 . S
C3576 C3582 1.368 . S
C3577 C3561 1.349 . S
C3577 H3569 0.950 . S
C3577 C3575 1.327 . S
C3578 C3566 1.349 . S
C3578 H3572 0.950 . S
C3578 C3579 1.332 . S
C3579 H3573 0.946 1_565 S
C3579 C3578 1.332 . S
C3579 C3583 1.428 . S
C3580 C3563 1.574 . S
C3580 H3574 0.961 1_655 S
C3580 C3584 1.368 1_655 S
C3581 C3562 1.429 . S
C3581 C3575 1.429 . S
C3581 C3582 1.523 . S
C3582 C3563 1.368 . S
C3582 C3576 1.368 . S
C3582 C3581 1.523 . S
C3583 C3567 1.429 . S
C3583 C3579 1.428 . S
C3583 C3584 1.523 1_565 S
C3584 C3568 1.368 1_455 S
C3584 C3580 1.368 1_455 S
C3584 C3583 1.523 1_545 S
H3585 C3560 0.950 . S
H3586 C3562 0.950 . S
H3587 C3563 0.949 . S
H3588 C3565 0.950 . S
H3589 C3567 0.950 . S
C3590 C3591 1.349 . S
C3590 C3592 1.327 . S
C3590 H3615 0.950 . S
C3591 C3590 1.349 . S
C3591 C3607 1.349 . S
C3592 C3590 1.327 . S
C3592 C3611 1.429 . S
C3592 H3616 0.950 . S
C3593 C3610 1.574 . S
C3593 C3612 1.368 . S
C3593 H3617 0.949 . S
H3594 C3598 0.949 . S
C3595 C3596 1.349 . S
C3595 C3597 1.327 . S
C3595 H3618 0.950 . S
C3596 C3595 1.349 . S
C3596 C3608 1.349 . S
C3597 C3595 1.327 . S
C3597 C3613 1.429 . S
C3597 H3619 0.950 . S
C3598 H3594 0.949 . S
C3598 C3606 1.574 . S
C3598 C3614 1.368 . S
H3599 C3607 0.950 . S
H3600 C3605 0.950 . S
H3601 C3606 0.949 . S
H3602 C3608 0.950 . S
H3603 C3609 0.950 . S
H3604 C3610 0.949 . S
C3605 H3600 0.950 . S
C3605 C3607 1.327 . S
C3605 C3611 1.429 . S
C3606 C3598 1.574 . S
C3606 H3601 0.949 . S
C3606 C3612 1.368 . S
C3607 C3591 1.349 . S
C3607 H3599 0.950 . S
C3607 C3605 1.327 . S
C3608 C3596 1.349 . S
C3608 H3602 0.950 . S
C3608 C3609 1.327 . S
C3609 H3603 0.950 . S
C3609 C3608 1.327 . S
C3609 C3613 1.429 . S
C3610 C3593 1.574 . S
C3610 H3604 0.949 . S
C3610 C3614 1.368 . S
C3611 C3592 1.429 . S
C3611 C3605 1.429 . S
C3611 C3612 1.523 . S
C3612 C3593 1.368 . S
C3612 C3606 1.368 . S
C3612 C3611 1.523 . S
C3613 C3597 1.429 . S
C3613 C3609 1.429 . S
C3613 C3614 1.523 . S
C3614 C3598 1.368 . S
C3614 C3610 1.368 . S
C3614 C3613 1.523 . S
H3615 C3590 0.950 . S
H3616 C3592 0.950 . S
H3617 C3593 0.949 . S
H3618 C3595 0.950 . S
H3619 C3597 0.950 . S
C3620 C3621 1.349 . S
C3620 C3622 1.327 . S
C3620 H3645 0.950 . S
C3621 C3620 1.349 . S
C3621 C3637 1.349 . S
C3622 C3620 1.327 . S
C3622 C3641 1.429 . S
C3622 H3646 0.950 . S
C3623 C3640 1.574 . S
C3623 C3642 1.368 1_655 S
C3623 H3647 0.949 1_655 S
H3624 C3628 0.949 . S
C3625 C3626 1.349 . S
C3625 C3627 1.327 . S
C3625 H3648 0.950 . S
C3626 C3625 1.349 . S
C3626 C3638 1.349 . S
C3627 C3625 1.327 . S
C3627 C3643 1.429 . S
C3627 H3649 0.950 . S
C3628 H3624 0.949 . S
C3628 C3636 1.574 . S
C3628 C3644 1.368 . S
H3629 C3637 0.950 . S
H3630 C3635 0.950 . S
H3631 C3636 0.949 1_455 S
H3632 C3638 0.950 . S
H3633 C3639 0.950 . S
H3634 C3640 0.949 . S
C3635 H3630 0.950 . S
C3635 C3637 1.327 . S
C3635 C3641 1.429 . S
C3636 C3628 1.574 . S
C3636 H3631 0.949 1_655 S
C3636 C3642 1.368 1_655 S
C3637 C3621 1.349 . S
C3637 H3629 0.950 . S
C3637 C3635 1.327 . S
C3638 C3626 1.349 . S
C3638 H3632 0.950 . S
C3638 C3639 1.327 . S
C3639 H3633 0.950 . S
C3639 C3638 1.327 . S
C3639 C3643 1.429 . S
C3640 C3623 1.574 . S
C3640 H3634 0.949 . S
C3640 C3644 1.368 . S
C3641 C3622 1.429 . S
C3641 C3635 1.429 . S
C3641 C3642 1.523 . S
C3642 C3623 1.368 1_455 S
C3642 C3636 1.368 1_455 S
C3642 C3641 1.523 . S
C3643 C3627 1.429 . S
C3643 C3639 1.429 . S
C3643 C3644 1.523 . S
C3644 C3628 1.368 . S
C3644 C3640 1.368 . S
C3644 C3643 1.523 . S
H3645 C3620 0.950 . S
H3646 C3622 0.950 . S
H3647 C3623 0.949 1_455 S
H3648 C3625 0.950 . S
H3649 C3627 0.950 . S
C3650 C3651 1.349 1_545 S
C3650 C3652 1.327 . S
C3650 H3675 0.950 . S
C3651 C3650 1.349 1_565 S
C3651 C3667 1.349 . S
C3652 C3650 1.327 . S
C3652 C3671 1.428 1_545 S
C3652 H3676 0.950 . S
C3653 C3670 1.574 . S
C3653 C3672 1.368 1_565 S
C3653 H3677 0.949 . S
H3654 C3658 0.949 . S
C3655 C3656 1.349 . S
C3655 C3657 1.327 1_545 S
C3655 H3678 0.950 1_545 S
C3656 C3655 1.349 . S
C3656 C3668 1.349 . S
C3657 C3655 1.327 1_565 S
C3657 C3673 1.429 1_565 S
C3657 H3679 0.950 . S
C3658 H3654 0.949 . S
C3658 C3666 1.574 . S
C3658 C3674 1.368 . S
H3659 C3667 0.950 . S
H3660 C3665 0.950 . S
H3661 C3666 0.949 . S
H3662 C3668 0.950 . S
H3663 C3669 0.950 . S
H3664 C3670 0.949 . S
C3665 H3660 0.950 . S
C3665 C3667 1.327 . S
C3665 C3671 1.429 . S
C3666 C3658 1.574 . S
C3666 H3661 0.949 . S
C3666 C3672 1.368 . S
C3667 C3651 1.349 . S
C3667 H3659 0.950 . S
C3667 C3665 1.327 . S
C3668 C3656 1.349 . S
C3668 H3662 0.950 . S
C3668 C3669 1.327 . S
C3669 H3663 0.950 . S
C3669 C3668 1.327 . S
C3669 C3673 1.429 . S
C3670 C3653 1.574 . S
C3670 H3664 0.949 . S
C3670 C3674 1.368 1_565 S
C3671 C3652 1.428 1_565 S
C3671 C3665 1.429 . S
C3671 C3672 1.523 1_565 S
C3672 C3653 1.368 1_545 S
C3672 C3666 1.368 . S
C3672 C3671 1.523 1_545 S
C3673 C3657 1.429 1_545 S
C3673 C3669 1.429 . S
C3673 C3674 1.523 . S
C3674 C3658 1.368 . S
C3674 C3670 1.368 1_545 S
C3674 C3673 1.523 . S
H3675 C3650 0.950 . S
H3676 C3652 0.950 . S
H3677 C3653 0.949 . S
H3678 C3655 0.950 1_565 S
H3679 C3657 0.950 . S
C3680 C3681 1.349 . S
C3680 C3682 1.327 . S
C3680 H3705 0.950 . S
C3681 C3680 1.349 . S
C3681 C3697 1.349 1_455 S
C3682 C3680 1.327 . S
C3682 C3701 1.429 . S
C3682 H3706 0.950 . S
C3683 C3700 1.574 1_554 S
C3683 C3702 1.368 1_655 S
C3683 H3707 0.949 . S
H3684 C3688 0.949 . S
C3685 C3686 1.349 . S
C3685 C3687 1.327 . S
C3685 H3708 0.950 . S
C3686 C3685 1.349 . S
C3686 C3698 1.349 1_655 S
C3687 C3685 1.327 . S
C3687 C3703 1.429 . S
C3687 H3709 0.950 . S
C3688 H3684 0.949 . S
C3688 C3696 1.574 1_556 S
C3688 C3704 1.368 1_455 S
H3689 C3697 0.950 . S
H3690 C3695 0.950 . S
H3691 C3696 0.949 . S
H3692 C3698 0.950 . S
H3693 C3699 0.950 . S
H3694 C3700 0.949 . S
C3695 H3690 0.950 . S
C3695 C3697 1.327 . S
C3695 C3701 1.429 1_655 S
C3696 C3688 1.574 1_554 S
C3696 H3691 0.949 . S
C3696 C3702 1.368 . S
C3697 C3681 1.349 1_655 S
C3697 H3689 0.950 . S
C3697 C3695 1.327 . S
C3698 C3686 1.349 1_455 S
C3698 H3692 0.950 . S
C3698 C3699 1.327 . S
C3699 H3693 0.950 . S
C3699 C3698 1.327 . S
C3699 C3703 1.429 1_455 S
C3700 C3683 1.574 1_556 S
C3700 H3694 0.949 . S
C3700 C3704 1.368 . S
C3701 C3682 1.429 . S
C3701 C3695 1.429 1_455 S
C3701 C3702 1.523 . S
C3702 C3683 1.368 1_455 S
C3702 C3696 1.368 . S
C3702 C3701 1.523 . S
C3703 C3687 1.429 . S
C3703 C3699 1.429 1_655 S
C3703 C3704 1.523 . S
C3704 C3688 1.368 1_655 S
C3704 C3700 1.368 . S
C3704 C3703 1.523 . S
H3705 C3680 0.950 . S
H3706 C3682 0.950 . S
H3707 C3683 0.949 . S
H3708 C3685 0.950 . S
H3709 C3687 0.950 . S
C3710 C3711 1.349 . S
C3710 C3712 1.327 . S
C3710 H3735 0.950 . S
C3711 C3710 1.349 . S
C3711 C3727 1.349 . S
C3712 C3710 1.327 . S
C3712 C3731 1.429 . S
C3712 H3736 0.950 . S
C3713 C3730 1.574 1_556 S
C3713 C3732 1.368 . S
C3713 H3737 0.949 . S
H3714 C3718 0.949 . S
C3715 C3716 1.349 . S
C3715 C3717 1.327 . S
C3715 H3738 0.950 . S
C3716 C3715 1.349 . S
C3716 C3728 1.349 . S
C3717 C3715 1.327 . S
C3717 C3733 1.429 . S
C3717 H3739 0.950 . S
C3718 H3714 0.949 . S
C3718 C3726 1.574 1_554 S
C3718 C3734 1.368 . S
H3719 C3727 0.950 . S
H3720 C3725 0.950 . S
H3721 C3726 0.949 . S
H3722 C3728 0.950 . S
H3723 C3729 0.950 . S
H3724 C3730 0.949 . S
C3725 H3720 0.950 . S
C3725 C3727 1.327 . S
C3725 C3731 1.429 . S
C3726 C3718 1.574 1_556 S
C3726 H3721 0.949 . S
C3726 C3732 1.368 . S
C3727 C3711 1.349 . S
C3727 H3719 0.950 . S
C3727 C3725 1.327 . S
C3728 C3716 1.349 . S
C3728 H3722 0.950 . S
C3728 C3729 1.327 . S
C3729 H3723 0.950 . S
C3729 C3728 1.327 . S
C3729 C3733 1.429 . S
C3730 C3713 1.574 1_554 S
C3730 H3724 0.949 . S
C3730 C3734 1.368 . S
C3731 C3712 1.429 . S
C3731 C3725 1.429 . S
C3731 C3732 1.523 . S
C3732 C3713 1.368 . S
C3732 C3726 1.368 . S
C3732 C3731 1.523 . S
C3733 C3717 1.429 . S
C3733 C3729 1.429 . S
C3733 C3734 1.523 . S
C3734 C3718 1.368 . S
C3734 C3730 1.368 . S
C3734 C3733 1.523 . S
H3735 C3710 0.950 . S
H3736 C3712 0.950 . S
H3737 C3713 0.949 . S
H3738 C3715 0.950 . S
H3739 C3717 0.950 . S
C3740 C3741 1.349 1_455 S
C3740 C3742 1.327 . S
C3740 H3765 0.950 . S
C3741 C3740 1.349 1_655 S
C3741 C3757 1.349 . S
C3742 C3740 1.327 . S
C3742 C3761 1.429 1_455 S
C3742 H3766 0.950 . S
C3743 C3760 1.574 . S
C3743 C3762 1.368 . S
C3743 H3767 0.949 . S
H3744 C3748 0.949 . S
C3745 C3746 1.349 1_655 S
C3745 C3747 1.327 . S
C3745 H3768 0.950 . S
C3746 C3745 1.349 1_455 S
C3746 C3758 1.349 . S
C3747 C3745 1.327 . S
C3747 C3763 1.429 1_655 S
C3747 H3769 0.950 . S
C3748 H3744 0.949 . S
C3748 C3756 1.574 . S
C3748 C3764 1.368 . S
H3749 C3757 0.950 . S
H3750 C3755 0.950 . S
H3751 C3756 0.949 . S
H3752 C3758 0.950 . S
H3753 C3759 0.950 . S
H3754 C3760 0.949 . S
C3755 H3750 0.950 . S
C3755 C3757 1.327 . S
C3755 C3761 1.429 . S
C3756 C3748 1.574 . S
C3756 H3751 0.949 . S
C3756 C3762 1.368 1_455 S
C3757 C3741 1.349 . S
C3757 H3749 0.950 . S
C3757 C3755 1.327 . S
C3758 C3746 1.349 . S
C3758 H3752 0.950 . S
C3758 C3759 1.327 . S
C3759 H3753 0.950 . S
C3759 C3758 1.327 . S
C3759 C3763 1.429 . S
C3760 C3743 1.574 . S
C3760 H3754 0.949 . S
C3760 C3764 1.368 1_655 S
C3761 C3742 1.429 1_655 S
C3761 C3755 1.429 . S
C3761 C3762 1.523 . S
C3762 C3743 1.368 . S
C3762 C3756 1.368 1_655 S
C3762 C3761 1.523 . S
C3763 C3747 1.429 1_455 S
C3763 C3759 1.429 . S
C3763 C3764 1.523 . S
C3764 C3748 1.368 . S
C3764 C3760 1.368 1_455 S
C3764 C3763 1.523 . S
H3765 C3740 0.950 . S
H3766 C3742 0.950 . S
H3767 C3743 0.949 . S
H3768 C3745 0.950 . S
H3769 C3747 0.950 . S
C3770 C3771 1.349 . S
C3770 C3772 1.327 . S
C3770 H3795 0.950 . S
C3771 C3770 1.349 . S
C3771 C3787 1.349 . S
C3772 C3770 1.327 . S
C3772 C3791 1.429 . S
C3772 H3796 0.950 . S
C3773 C3790 1.574 . S
C3773 C3792 1.368 . S
C3773 H3797 0.949 . S
H3774 C3778 0.949 . S
C3775 C3776 1.349 . S
C3775 C3777 1.327 . S
C3775 H3798 0.950 . S
C3776 C3775 1.349 . S
C3776 C3788 1.349 . S
C3777 C3775 1.327 . S
C3777 C3793 1.429 . S
C3777 H3799 0.950 . S
C3778 H3774 0.949 . S
C3778 C3786 1.574 . S
C3778 C3794 1.368 . S
H3779 C3787 0.950 . S
H3780 C3785 0.950 . S
H3781 C3786 0.949 . S
H3782 C3788 0.950 . S
H3783 C3789 0.950 . S
H3784 C3790 0.949 . S
C3785 H3780 0.950 . S
C3785 C3787 1.327 . S
C3785 C3791 1.429 . S
C3786 C3778 1.574 . S
C3786 H3781 0.949 . S
C3786 C3792 1.368 . S
C3787 C3771 1.349 . S
C3787 H3779 0.950 . S
C3787 C3785 1.327 . S
C3788 C3776 1.349 . S
C3788 H3782 0.950 . S
C3788 C3789 1.327 . S
C3789 H3783 0.950 . S
C3789 C3788 1.327 . S
C3789 C3793 1.429 . S
C3790 C3773 1.574 . S
C3790 H3784 0.949 . S
C3790 C3794 1.368 . S
C3791 C3772 1.429 . S
C3791 C3785 1.429 . S
C3791 C3792 1.523 . S
C3792 C3773 1.368 . S
C3792 C3786 1.368 . S
C3792 C3791 1.523 . S
C3793 C3777 1.429 . S
C3793 C3789 1.429 . S
C3793 C3794 1.523 . S
C3794 C3778 1.368 . S
C3794 C3790 1.368 . S
C3794 C3793 1.523 . S
H3795 C3770 0.950 . S
H3796 C3772 0.950 . S
H3797 C3773 0.949 . S
H3798 C3775 0.950 . S
H3799 C3777 0.950 . S
C3800 C3801 1.349 . S
C3800 C3802 1.327 . S
C3800 H3825 0.950 . S
C3801 C3800 1.349 . S
C3801 C3817 1.349 . S
C3802 C3800 1.327 . S
C3802 C3821 1.429 . S
C3802 H3826 0.950 . S
C3803 C3820 1.574 1_556 S
C3803 C3822 1.368 . S
C3803 H3827 0.949 . S
H3804 C3808 0.949 . S
C3805 C3806 1.349 . S
C3805 C3807 1.327 . S
C3805 H3828 0.950 . S
C3806 C3805 1.349 . S
C3806 C3818 1.349 . S
C3807 C3805 1.327 . S
C3807 C3823 1.429 . S
C3807 H3829 0.950 . S
C3808 H3804 0.949 . S
C3808 C3816 1.574 1_554 S
C3808 C3824 1.368 . S
H3809 C3817 0.950 . S
H3810 C3815 0.950 . S
H3811 C3816 0.949 . S
H3812 C3818 0.950 . S
H3813 C3819 0.950 . S
H3814 C3820 0.949 . S
C3815 H3810 0.950 . S
C3815 C3817 1.327 . S
C3815 C3821 1.429 . S
C3816 C3808 1.574 1_556 S
C3816 H3811 0.949 . S
C3816 C3822 1.368 . S
C3817 C3801 1.349 . S
C3817 H3809 0.950 . S
C3817 C3815 1.327 . S
C3818 C3806 1.349 . S
C3818 H3812 0.950 . S
C3818 C3819 1.327 . S
C3819 H3813 0.950 . S
C3819 C3818 1.327 . S
C3819 C3823 1.429 . S
C3820 C3803 1.574 1_554 S
C3820 H3814 0.949 . S
C3820 C3824 1.368 . S
C3821 C3802 1.429 . S
C3821 C3815 1.429 . S
C3821 C3822 1.523 . S
C3822 C3803 1.368 . S
C3822 C3816 1.368 . S
C3822 C3821 1.523 . S
C3823 C3807 1.429 . S
C3823 C3819 1.429 . S
C3823 C3824 1.523 . S
C3824 C3808 1.368 . S
C3824 C3820 1.368 . S
C3824 C3823 1.523 . S
H3825 C3800 0.950 . S
H3826 C3802 0.950 . S
H3827 C3803 0.949 . S
H3828 C3805 0.950 . S
H3829 C3807 0.950 . S
C3830 C3831 1.349 1_455 S
C3830 C3832 1.327 . S
C3830 H3855 0.950 . S
C3831 C3830 1.349 1_655 S
C3831 C3847 1.349 . S
C3832 C3830 1.327 . S
C3832 C3851 1.429 1_455 S
C3832 H3856 0.950 . S
C3833 C3850 1.574 . S
C3833 C3852 1.368 . S
C3833 H3857 0.949 . S
H3834 C3838 0.949 . S
C3835 C3836 1.349 1_655 S
C3835 C3837 1.327 . S
C3835 H3858 0.950 . S
C3836 C3835 1.349 1_455 S
C3836 C3848 1.349 . S
C3837 C3835 1.327 . S
C3837 C3853 1.429 1_655 S
C3837 H3859 0.950 . S
C3838 H3834 0.949 . S
C3838 C3846 1.574 . S
C3838 C3854 1.368 . S
H3839 C3847 0.950 . S
H3840 C3845 0.950 . S
H3841 C3846 0.949 . S
H3842 C3848 0.950 . S
H3843 C3849 0.950 . S
H3844 C3850 0.949 . S
C3845 H3840 0.950 . S
C3845 C3847 1.327 . S
C3845 C3851 1.429 . S
C3846 C3838 1.574 . S
C3846 H3841 0.949 . S
C3846 C3852 1.368 1_455 S
C3847 C3831 1.349 . S
C3847 H3839 0.950 . S
C3847 C3845 1.327 . S
C3848 C3836 1.349 . S
C3848 H3842 0.950 . S
C3848 C3849 1.327 . S
C3849 H3843 0.950 . S
C3849 C3848 1.327 . S
C3849 C3853 1.429 . S
C3850 C3833 1.574 . S
C3850 H3844 0.949 . S
C3850 C3854 1.368 1_655 S
C3851 C3832 1.429 1_655 S
C3851 C3845 1.429 . S
C3851 C3852 1.523 . S
C3852 C3833 1.368 . S
C3852 C3846 1.368 1_655 S
C3852 C3851 1.523 . S
C3853 C3837 1.429 1_455 S
C3853 C3849 1.429 . S
C3853 C3854 1.523 . S
C3854 C3838 1.368 . S
C3854 C3850 1.368 1_455 S
C3854 C3853 1.523 . S
H3855 C3830 0.950 . S
H3856 C3832 0.950 . S
H3857 C3833 0.949 . S
H3858 C3835 0.950 . S
H3859 C3837 0.950 . S
C3860 C3861 1.349 . S
C3860 C3862 1.327 . S
C3860 H3885 0.950 . S
C3861 C3860 1.349 . S
C3861 C3877 1.349 . S
C3862 C3860 1.327 . S
C3862 C3881 1.429 . S
C3862 H3886 0.950 . S
C3863 C3880 1.574 . S
C3863 C3882 1.368 . S
C3863 H3887 0.949 . S
H3864 C3868 0.949 . S
C3865 C3866 1.349 . S
C3865 C3867 1.327 . S
C3865 H3888 0.950 . S
C3866 C3865 1.349 . S
C3866 C3878 1.349 . S
C3867 C3865 1.327 . S
C3867 C3883 1.429 . S
C3867 H3889 0.950 . S
C3868 H3864 0.949 . S
C3868 C3876 1.574 . S
C3868 C3884 1.368 . S
H3869 C3877 0.950 . S
H3870 C3875 0.950 . S
H3871 C3876 0.949 . S
H3872 C3878 0.950 . S
H3873 C3879 0.950 . S
H3874 C3880 0.949 . S
C3875 H3870 0.950 . S
C3875 C3877 1.327 . S
C3875 C3881 1.429 . S
C3876 C3868 1.574 . S
C3876 H3871 0.949 . S
C3876 C3882 1.368 . S
C3877 C3861 1.349 . S
C3877 H3869 0.950 . S
C3877 C3875 1.327 . S
C3878 C3866 1.349 . S
C3878 H3872 0.950 . S
C3878 C3879 1.327 . S
C3879 H3873 0.950 . S
C3879 C3878 1.327 . S
C3879 C3883 1.429 . S
C3880 C3863 1.574 . S
C3880 H3874 0.949 . S
C3880 C3884 1.368 . S
C3881 C3862 1.429 . S
C3881 C3875 1.429 . S
C3881 C3882 1.523 . S
C3882 C3863 1.368 . S
C3882 C3876 1.368 . S
C3882 C3881 1.523 . S
C3883 C3867 1.429 . S
C3883 C3879 1.429 . S
C3883 C3884 1.523 . S
C3884 C3868 1.368 . S
C3884 C3880 1.368 . S
C3884 C3883 1.523 . S
H3885 C3860 0.950 . S
H3886 C3862 0.950 . S
H3887 C3863 0.949 . S
H3888 C3865 0.950 . S
H3889 C3867 0.950 . S
C3890 C3891 1.349 1_545 S
C3890 C3892 1.327 . S
C3890 H3915 0.950 . S
C3891 C3890 1.349 1_565 S
C3891 C3907 1.349 1_455 S
C3892 C3890 1.327 . S
C3892 C3911 1.429 1_545 S
C3892 H3916 0.950 . S
C3893 C3910 1.574 . S
C3893 C3912 1.406 1_655 S
C3893 H3917 0.949 . S
H3894 C3898 0.949 . S
C3895 C3896 1.349 1_565 S
C3895 C3897 1.327 . S
C3895 H3918 0.950 . S
C3896 C3895 1.349 1_545 S
C3896 C3908 1.349 1_655 S
C3897 C3895 1.327 . S
C3897 C3913 1.429 1_565 S
C3897 H3919 0.950 . S
C3898 H3894 0.949 . S
C3898 C3906 1.574 . S
C3898 C3914 1.406 1_455 S
H3899 C3907 0.950 . S
H3900 C3905 0.950 . S
H3901 C3906 0.949 . S
H3902 C3908 0.950 . S
H3903 C3909 0.950 . S
H3904 C3910 0.949 . S
C3905 H3900 0.950 . S
C3905 C3907 1.327 . S
C3905 C3911 1.429 1_655 S
C3906 C3898 1.574 . S
C3906 H3901 0.949 . S
C3906 C3912 1.330 1_545 S
C3907 C3891 1.349 1_655 S
C3907 H3899 0.950 . S
C3907 C3905 1.327 . S
C3908 C3896 1.349 1_455 S
C3908 H3902 0.950 . S
C3908 C3909 1.327 . S
C3909 H3903 0.950 . S
C3909 C3908 1.327 . S
C3909 C3913 1.429 1_455 S
C3910 C3893 1.574 . S
C3910 H3904 0.949 . S
C3910 C3914 1.330 1_565 S
C3911 C3892 1.429 1_565 S
C3911 C3905 1.429 1_455 S
C3911 C3912 1.526 . S
C3912 C3893 1.406 1_455 S
C3912 C3906 1.330 1_565 S
C3912 C3911 1.526 . S
C3913 C3897 1.429 1_545 S
C3913 C3909 1.429 1_655 S
C3913 C3914 1.526 . S
C3914 C3898 1.406 1_655 S
C3914 C3910 1.330 1_545 S
C3914 C3913 1.526 . S
H3915 C3890 0.950 . S
H3916 C3892 0.950 . S
H3917 C3893 0.949 . S
H3918 C3895 0.950 . S
H3919 C3897 0.950 . S
C3920 C3921 1.349 . S
C3920 C3922 1.327 . S
C3920 H3945 0.950 . S
C3921 C3920 1.349 . S
C3921 C3937 1.349 . S
C3922 C3920 1.327 . S
C3922 C3941 1.429 . S
C3922 H3946 0.950 . S
C3923 C3940 1.574 . S
C3923 C3942 1.368 . S
C3923 H3947 0.949 . S
H3924 C3928 0.949 . S
C3925 C3926 1.349 . S
C3925 C3927 1.327 . S
C3925 H3948 0.950 . S
C3926 C3925 1.349 . S
C3926 C3938 1.349 . S
C3927 C3925 1.327 . S
C3927 C3943 1.429 . S
C3927 H3949 0.950 . S
C3928 H3924 0.949 . S
C3928 C3936 1.574 . S
C3928 C3944 1.368 . S
H3929 C3937 0.950 . S
H3930 C3935 0.950 . S
H3931 C3936 0.949 . S
H3932 C3938 0.950 . S
H3933 C3939 0.950 . S
H3934 C3940 0.949 . S
C3935 H3930 0.950 . S
C3935 C3937 1.327 . S
C3935 C3941 1.429 . S
C3936 C3928 1.574 . S
C3936 H3931 0.949 . S
C3936 C3942 1.368 . S
C3937 C3921 1.349 . S
C3937 H3929 0.950 . S
C3937 C3935 1.327 . S
C3938 C3926 1.349 . S
C3938 H3932 0.950 . S
C3938 C3939 1.327 . S
C3939 H3933 0.950 . S
C3939 C3938 1.327 . S
C3939 C3943 1.429 . S
C3940 C3923 1.574 . S
C3940 H3934 0.949 . S
C3940 C3944 1.368 . S
C3941 C3922 1.429 . S
C3941 C3935 1.429 . S
C3941 C3942 1.523 . S
C3942 C3923 1.368 . S
C3942 C3936 1.368 . S
C3942 C3941 1.523 . S
C3943 C3927 1.429 . S
C3943 C3939 1.429 . S
C3943 C3944 1.523 . S
C3944 C3928 1.368 . S
C3944 C3940 1.368 . S
C3944 C3943 1.523 . S
H3945 C3920 0.950 . S
H3946 C3922 0.950 . S
H3947 C3923 0.949 . S
H3948 C3925 0.950 . S
H3949 C3927 0.950 . S
C3950 C3951 1.349 1_565 S
C3950 C3952 1.327 . S
C3950 H3975 0.950 . S
C3951 C3950 1.349 1_545 S
C3951 C3967 1.349 . S
C3952 C3950 1.327 . S
C3952 C3971 1.429 1_565 S
C3952 H3976 0.950 . S
C3953 C3970 1.574 . S
C3953 C3972 1.405 . S
C3953 H3977 0.949 . S
H3954 C3958 0.949 . S
C3955 C3956 1.349 1_545 S
C3955 C3957 1.327 . S
C3955 H3978 0.950 . S
C3956 C3955 1.349 1_565 S
C3956 C3968 1.349 . S
C3957 C3955 1.327 . S
C3957 C3973 1.429 1_545 S
C3957 H3979 0.950 . S
C3958 H3954 0.949 . S
C3958 C3966 1.574 . S
C3958 C3974 1.405 . S
H3959 C3967 0.950 . S
H3960 C3965 0.950 . S
H3961 C3966 0.949 . S
H3962 C3968 0.950 . S
H3963 C3969 0.950 . S
H3964 C3970 0.949 . S
C3965 H3960 0.950 . S
C3965 C3967 1.327 . S
C3965 C3971 1.429 . S
C3966 C3958 1.574 . S
C3966 H3961 0.949 . S
C3966 C3972 1.330 1_565 S
C3967 C3951 1.349 . S
C3967 H3959 0.950 . S
C3967 C3965 1.327 . S
C3968 C3956 1.349 . S
C3968 H3962 0.950 . S
C3968 C3969 1.327 . S
C3969 H3963 0.950 . S
C3969 C3968 1.327 . S
C3969 C3973 1.429 . S
C3970 C3953 1.574 . S
C3970 H3964 0.949 . S
C3970 C3974 1.330 1_545 S
C3971 C3952 1.429 1_545 S
C3971 C3965 1.429 . S
C3971 C3972 1.526 . S
C3972 C3953 1.405 . S
C3972 C3966 1.330 1_545 S
C3972 C3971 1.526 . S
C3973 C3957 1.429 1_565 S
C3973 C3969 1.429 . S
C3973 C3974 1.526 . S
C3974 C3958 1.405 . S
C3974 C3970 1.330 1_565 S
C3974 C3973 1.526 . S
H3975 C3950 0.950 . S
H3976 C3952 0.950 . S
H3977 C3953 0.949 . S
H3978 C3955 0.950 . S
H3979 C3957 0.950 . S
C3980 C3981 1.349 . S
C3980 C3982 1.327 . S
C3980 H4005 0.950 . S
C3981 C3980 1.349 . S
C3981 C3997 1.349 . S
C3982 C3980 1.327 . S
C3982 C4001 1.429 . S
C3982 H4006 0.950 . S
C3983 C4000 1.574 . S
C3983 C4002 1.368 . S
C3983 H4007 0.949 . S
H3984 C3988 0.949 . S
C3985 C3986 1.349 . S
C3985 C3987 1.327 . S
C3985 H4008 0.950 . S
C3986 C3985 1.349 . S
C3986 C3998 1.349 . S
C3987 C3985 1.327 . S
C3987 C4003 1.429 . S
C3987 H4009 0.950 . S
C3988 H3984 0.949 . S
C3988 C3996 1.574 . S
C3988 C4004 1.368 . S
H3989 C3997 0.950 . S
H3990 C3995 0.950 . S
H3991 C3996 0.949 . S
H3992 C3998 0.950 . S
H3993 C3999 0.950 . S
H3994 C4000 0.949 . S
C3995 H3990 0.950 . S
C3995 C3997 1.327 . S
C3995 C4001 1.429 . S
C3996 C3988 1.574 . S
C3996 H3991 0.949 . S
C3996 C4002 1.368 . S
C3997 C3981 1.349 . S
C3997 H3989 0.950 . S
C3997 C3995 1.327 . S
C3998 C3986 1.349 . S
C3998 H3992 0.950 . S
C3998 C3999 1.327 . S
C3999 H3993 0.950 . S
C3999 C3998 1.327 . S
C3999 C4003 1.429 . S
C4000 C3983 1.574 . S
C4000 H3994 0.949 . S
C4000 C4004 1.368 . S
C4001 C3982 1.429 . S
C4001 C3995 1.429 . S
C4001 C4002 1.523 . S
C4002 C3983 1.368 . S
C4002 C3996 1.368 . S
C4002 C4001 1.523 . S
C4003 C3987 1.429 . S
C4003 C3999 1.429 . S
C4003 C4004 1.523 . S
C4004 C3988 1.368 . S
C4004 C4000 1.368 . S
C4004 C4003 1.523 . S
H4005 C3980 0.950 . S
H4006 C3982 0.950 . S
H4007 C3983 0.949 . S
H4008 C3985 0.950 . S
H4009 C3987 0.950 . S
C4010 C4011 1.349 1_545 S
C4010 C4012 1.327 . S
C4010 H4035 0.950 . S
C4011 C4010 1.349 1_565 S
C4011 C4027 1.349 . S
C4012 C4010 1.327 . S
C4012 C4031 1.429 1_545 S
C4012 H4036 0.950 . S
C4013 C4030 1.574 . S
C4013 C4032 1.405 . S
C4013 H4037 0.949 . S
H4014 C4018 0.949 . S
C4015 C4016 1.349 1_565 S
C4015 C4017 1.327 . S
C4015 H4038 0.950 . S
C4016 C4015 1.349 1_545 S
C4016 C4028 1.349 . S
C4017 C4015 1.327 . S
C4017 C4033 1.429 1_565 S
C4017 H4039 0.950 . S
C4018 H4014 0.949 . S
C4018 C4026 1.574 . S
C4018 C4034 1.405 . S
H4019 C4027 0.950 . S
H4020 C4025 0.950 . S
H4021 C4026 0.949 . S
H4022 C4028 0.950 . S
H4023 C4029 0.950 . S
H4024 C4030 0.949 . S
C4025 H4020 0.950 . S
C4025 C4027 1.327 . S
C4025 C4031 1.429 . S
C4026 C4018 1.574 . S
C4026 H4021 0.949 . S
C4026 C4032 1.331 1_545 S
C4027 C4011 1.349 . S
C4027 H4019 0.950 . S
C4027 C4025 1.327 . S
C4028 C4016 1.349 . S
C4028 H4022 0.950 . S
C4028 C4029 1.327 . S
C4029 H4023 0.950 . S
C4029 C4028 1.327 . S
C4029 C4033 1.429 . S
C4030 C4013 1.574 . S
C4030 H4024 0.949 . S
C4030 C4034 1.331 1_565 S
C4031 C4012 1.429 1_565 S
C4031 C4025 1.429 . S
C4031 C4032 1.526 . S
C4032 C4013 1.405 . S
C4032 C4026 1.331 1_565 S
C4032 C4031 1.526 . S
C4033 C4017 1.429 1_545 S
C4033 C4029 1.429 . S
C4033 C4034 1.526 . S
C4034 C4018 1.405 . S
C4034 C4030 1.331 1_545 S
C4034 C4033 1.526 . S
H4035 C4010 0.950 . S
H4036 C4012 0.950 . S
H4037 C4013 0.949 . S
H4038 C4015 0.950 . S
H4039 C4017 0.950 . S
C4040 C4041 1.349 . S
C4040 C4042 1.327 . S
C4040 H4065 0.950 . S
C4041 C4040 1.349 . S
C4041 C4057 1.349 . S
C4042 C4040 1.327 . S
C4042 C4061 1.429 . S
C4042 H4066 0.950 . S
C4043 C4060 1.574 . S
C4043 C4062 1.368 . S
C4043 H4067 0.949 . S
H4044 C4048 0.949 . S
C4045 C4046 1.349 . S
C4045 C4047 1.327 . S
C4045 H4068 0.950 . S
C4046 C4045 1.349 . S
C4046 C4058 1.349 . S
C4047 C4045 1.327 . S
C4047 C4063 1.429 . S
C4047 H4069 0.950 . S
C4048 H4044 0.949 . S
C4048 C4056 1.574 . S
C4048 C4064 1.368 . S
H4049 C4057 0.950 . S
H4050 C4055 0.950 . S
H4051 C4056 0.949 . S
H4052 C4058 0.950 . S
H4053 C4059 0.950 . S
H4054 C4060 0.949 . S
C4055 H4050 0.950 . S
C4055 C4057 1.327 . S
C4055 C4061 1.429 . S
C4056 C4048 1.574 . S
C4056 H4051 0.949 . S
C4056 C4062 1.368 . S
C4057 C4041 1.349 . S
C4057 H4049 0.950 . S
C4057 C4055 1.327 . S
C4058 C4046 1.349 . S
C4058 H4052 0.950 . S
C4058 C4059 1.327 . S
C4059 H4053 0.950 . S
C4059 C4058 1.327 . S
C4059 C4063 1.429 . S
C4060 C4043 1.574 . S
C4060 H4054 0.949 . S
C4060 C4064 1.368 . S
C4061 C4042 1.429 . S
C4061 C4055 1.429 . S
C4061 C4062 1.523 . S
C4062 C4043 1.368 . S
C4062 C4056 1.368 . S
C4062 C4061 1.523 . S
C4063 C4047 1.429 . S
C4063 C4059 1.429 . S
C4063 C4064 1.523 . S
C4064 C4048 1.368 . S
C4064 C4060 1.368 . S
C4064 C4063 1.523 . S
H4065 C4040 0.950 . S
H4066 C4042 0.950 . S
H4067 C4043 0.949 . S
H4068 C4045 0.950 . S
H4069 C4047 0.950 . S
C4070 C4071 1.349 . S
C4070 C4072 1.327 . S
C4070 H4095 0.950 . S
C4071 C4070 1.349 . S
C4071 C4087 1.349 . S
C4072 C4070 1.327 . S
C4072 C4091 1.429 . S
C4072 H4096 0.950 . S
C4073 C4090 1.574 . S
C4073 C4092 1.368 . S
C4073 H4097 0.949 . S
H4074 C4078 0.949 . S
C4075 C4076 1.349 . S
C4075 C4077 1.327 . S
C4075 H4098 0.950 . S
C4076 C4075 1.349 . S
C4076 C4088 1.349 . S
C4077 C4075 1.327 . S
C4077 C4093 1.429 . S
C4077 H4099 0.950 . S
C4078 H4074 0.949 . S
C4078 C4086 1.574 . S
C4078 C4094 1.368 . S
H4079 C4087 0.950 . S
H4080 C4085 0.950 . S
H4081 C4086 0.949 . S
H4082 C4088 0.950 . S
H4083 C4089 0.950 . S
H4084 C4090 0.949 . S
C4085 H4080 0.950 . S
C4085 C4087 1.327 . S
C4085 C4091 1.429 . S
C4086 C4078 1.574 . S
C4086 H4081 0.949 . S
C4086 C4092 1.368 . S
C4087 C4071 1.349 . S
C4087 H4079 0.950 . S
C4087 C4085 1.327 . S
C4088 C4076 1.349 . S
C4088 H4082 0.950 . S
C4088 C4089 1.327 . S
C4089 H4083 0.950 . S
C4089 C4088 1.327 . S
C4089 C4093 1.429 . S
C4090 C4073 1.574 . S
C4090 H4084 0.949 . S
C4090 C4094 1.368 . S
C4091 C4072 1.429 . S
C4091 C4085 1.429 . S
C4091 C4092 1.523 . S
C4092 C4073 1.368 . S
C4092 C4086 1.368 . S
C4092 C4091 1.523 . S
C4093 C4077 1.429 . S
C4093 C4089 1.429 . S
C4093 C4094 1.523 . S
C4094 C4078 1.368 . S
C4094 C4090 1.368 . S
C4094 C4093 1.523 . S
H4095 C4070 0.950 . S
H4096 C4072 0.950 . S
H4097 C4073 0.949 . S
H4098 C4075 0.950 . S
H4099 C4077 0.950 . S
C4100 C4101 1.349 . S
C4100 C4102 1.327 . S
C4100 H4125 0.950 . S
C4101 C4100 1.349 . S
C4101 C4117 1.349 . S
C4102 C4100 1.327 . S
C4102 C4121 1.429 . S
C4102 H4126 0.950 . S
C4103 C4120 1.574 . S
C4103 C4122 1.368 . S
C4103 H4127 0.949 . S
H4104 C4108 0.949 . S
C4105 C4106 1.349 . S
C4105 C4107 1.327 . S
C4105 H4128 0.950 . S
C4106 C4105 1.349 . S
C4106 C4118 1.349 . S
C4107 C4105 1.327 . S
C4107 C4123 1.429 . S
C4107 H4129 0.950 . S
C4108 H4104 0.949 . S
C4108 C4116 1.574 . S
C4108 C4124 1.368 . S
H4109 C4117 0.950 . S
H4110 C4115 0.950 . S
H4111 C4116 0.949 . S
H4112 C4118 0.950 . S
H4113 C4119 0.950 . S
H4114 C4120 0.949 . S
C4115 H4110 0.950 . S
C4115 C4117 1.327 . S
C4115 C4121 1.429 . S
C4116 C4108 1.574 . S
C4116 H4111 0.949 . S
C4116 C4122 1.368 . S
C4117 C4101 1.349 . S
C4117 H4109 0.950 . S
C4117 C4115 1.327 . S
C4118 C4106 1.349 . S
C4118 H4112 0.950 . S
C4118 C4119 1.327 . S
C4119 H4113 0.950 . S
C4119 C4118 1.327 . S
C4119 C4123 1.429 . S
C4120 C4103 1.574 . S
C4120 H4114 0.949 . S
C4120 C4124 1.368 . S
C4121 C4102 1.429 . S
C4121 C4115 1.429 . S
C4121 C4122 1.523 . S
C4122 C4103 1.368 . S
C4122 C4116 1.368 . S
C4122 C4121 1.523 . S
C4123 C4107 1.429 . S
C4123 C4119 1.429 . S
C4123 C4124 1.523 . S
C4124 C4108 1.368 . S
C4124 C4120 1.368 . S
C4124 C4123 1.523 . S
H4125 C4100 0.950 . S
H4126 C4102 0.950 . S
H4127 C4103 0.949 . S
H4128 C4105 0.950 . S
H4129 C4107 0.950 . S
C4130 C4131 1.349 1_545 S
C4130 C4132 1.327 . S
C4130 H4155 0.950 . S
C4131 C4130 1.349 1_565 S
C4131 C4147 1.349 . S
C4132 C4130 1.327 . S
C4132 C4151 1.429 1_545 S
C4132 H4156 0.950 . S
C4133 C4150 1.574 1_554 S
C4133 C4152 1.411 . S
C4133 H4157 0.949 . S
H4134 C4138 0.949 . S
C4135 C4136 1.349 1_565 S
C4135 C4137 1.327 . S
C4135 H4158 0.950 . S
C4136 C4135 1.349 1_545 S
C4136 C4148 1.349 . S
C4137 C4135 1.327 . S
C4137 C4153 1.429 1_565 S
C4137 H4159 0.950 . S
C4138 H4134 0.949 . S
C4138 C4146 1.574 1_556 S
C4138 C4154 1.411 . S
H4139 C4147 0.950 . S
H4140 C4145 0.950 . S
H4141 C4146 0.949 . S
H4142 C4148 0.950 . S
H4143 C4149 0.950 . S
H4144 C4150 0.949 . S
C4145 H4140 0.950 . S
C4145 C4147 1.327 . S
C4145 C4151 1.429 . S
C4146 C4138 1.574 1_554 S
C4146 H4141 0.949 . S
C4146 C4152 1.325 1_545 S
C4147 C4131 1.349 . S
C4147 H4139 0.950 . S
C4147 C4145 1.327 . S
C4148 C4136 1.349 . S
C4148 H4142 0.950 . S
C4148 C4149 1.327 . S
C4149 H4143 0.950 . S
C4149 C4148 1.327 . S
C4149 C4153 1.429 . S
C4150 C4133 1.574 1_556 S
C4150 H4144 0.949 . S
C4150 C4154 1.325 1_565 S
C4151 C4132 1.429 1_565 S
C4151 C4145 1.429 . S
C4151 C4152 1.526 . S
C4152 C4133 1.411 . S
C4152 C4146 1.325 1_565 S
C4152 C4151 1.526 . S
C4153 C4137 1.429 1_545 S
C4153 C4149 1.429 . S
C4153 C4154 1.526 . S
C4154 C4138 1.411 . S
C4154 C4150 1.325 1_545 S
C4154 C4153 1.526 . S
H4155 C4130 0.950 . S
H4156 C4132 0.950 . S
H4157 C4133 0.949 . S
H4158 C4135 0.950 . S
H4159 C4137 0.950 . S
C1281 C10 1.543 . S
C1286 C1010 1.543 . S
C1311 C970 1.543 . S
C1316 C50 1.543 . S
C1341 C1090 1.543 . S
C1346 C90 1.543 . S
C1371 C130 1.543 . S
C1376 C1050 1.543 . S
C1401 C179 1.543 . S
C1406 C1179 1.543 . S
C1431 C219 1.543 . S
C1436 C1139 1.543 . S
C1461 C259 1.543 . S
C1466 C1259 1.543 . S
C1491 C1219 1.543 . S
C1496 C299 1.543 . S
C1521 C330 1.543 . S
C1526 C690 1.543 . S
C1551 C370 1.543 . S
C1556 C650 1.543 . S
C1581 C410 1.543 . S
C1586 C770 1.543 . S
C1611 C730 1.543 . S
C1616 C450 1.543 . S
C1641 C499 1.543 . S
C1646 C859 1.543 . S
C1671 C539 1.543 . S
C1676 C819 1.543 . S
C1701 C939 1.543 . S
C1706 C579 1.543 . S
C1731 C619 1.543 . S
C1736 C899 1.543 . S
C1761 C9 1.568 . S
C1766 C129 1.568 . S
C1791 C49 1.568 . S
C1796 C89 1.568 . S
C1821 C298 1.568 . S
C1826 C178 1.568 . S
C1851 C258 1.568 . S
C1856 C218 1.568 . S
C1881 C329 1.568 . S
C1886 C449 1.568 . S
C1911 C369 1.568 . S
C1916 C409 1.568 . S
C1941 C498 1.568 . S
C1946 C618 1.568 . S
C1971 C578 1.568 . S
C1976 C538 1.568 . S
C2001 C649 1.568 . S
C2006 C769 1.568 . S
C2031 C689 1.568 . S
C2036 C729 1.568 . S
C2061 C938 1.568 . S
C2066 C818 1.568 . S
C2091 C858 1.568 . S
C2096 C898 1.568 . S
C2121 C1089 1.568 . S
C2126 C969 1.568 . S
C2151 C1009 1.568 . S
C2156 C1049 1.568 . S
C2181 C1258 1.568 . S
C2186 C1138 1.568 . S
C2211 C1218 1.568 . S
C2216 C1178 1.568 . S
C2241 C59 1.620 . S
C2246 C19 1.620 . S
C2271 C99 1.620 . S
C2276 C139 1.620 . S
C2301 C210 1.620 . S
C2306 C170 1.620 . S
C2331 C290 1.620 . S
C2336 C250 1.620 . S
C2361 C339 1.620 . S
C2366 C379 1.620 . S
C2391 C419 1.620 . S
C2396 C459 1.620 . S
C2421 C530 1.620 . S
C2426 C490 1.620 . S
C2451 C570 1.620 . S
C2456 C610 1.620 . S
C2481 C659 1.620 . S
C2486 C699 1.620 . S
C2511 C779 1.620 . S
C2516 C739 1.620 . S
C2541 C810 1.620 . S
C2546 C850 1.620 . S
C2571 C890 1.620 . S
C2576 C930 1.620 . S
C2601 C979 1.620 . S
C2606 C1019 1.620 . S
C2631 C1059 1.620 . S
C2636 C1099 1.620 . S
C2661 C1170 1.620 . S
C2666 C1130 1.620 . S
C2691 C1210 1.620 . S
C2696 C1250 1.620 . S
C2721 C6 1.770 . S
C2726 C15 1.770 . S
C2751 C46 1.770 . S
C2756 C55 1.770 . S
C2781 C86 1.770 . S
C2786 C95 1.770 . S
C2811 C135 1.770 . S
C2816 C126 1.770 . S
C2841 C166 1.770 . S
C2846 C175 1.770 . S
C2871 C215 1.770 . S
C2876 C206 1.770 . S
C2901 C246 1.770 . S
C2906 C255 1.770 . S
C2931 C286 1.770 . S
C2936 C295 1.770 . S
C2961 C335 1.770 . S
C2966 C326 1.770 . S
C2991 C366 1.770 . S
C2996 C375 1.770 . S
C3021 C406 1.770 . S
C3026 C415 1.770 . S
C3051 C455 1.770 . S
C3056 C446 1.770 . S
C3081 C486 1.770 . S
C3086 C495 1.770 . S
C3111 C535 1.770 . S
C3116 C526 1.770 . S
C3141 C575 1.770 . S
C3146 C566 1.770 . S
C3171 C606 1.770 . S
C3176 C615 1.770 . S
C3201 C646 1.770 . S
C3206 C655 1.770 . S
C3231 C695 1.770 . S
C3236 C686 1.770 1_455 S
C3261 C735 1.770 . S
C3266 C726 1.770 . S
C3291 C766 1.770 1_455 S
C3296 C775 1.770 . S
C3321 C815 1.770 . S
C3326 C806 1.770 . S
C3351 C855 1.770 1_655 S
C3356 C846 1.770 . S
C3381 C886 1.770 . S
C3386 C895 1.770 . S
C3411 C935 1.770 1_655 S
C3416 C926 1.770 . S
C3441 C975 1.770 . S
C3446 C966 1.770 . S
C3471 C1006 1.770 1_455 S
C3476 C1015 1.770 . S
C3501 C1055 1.770 . S
C3506 C1046 1.770 . S
C3531 C1095 1.770 . S
C3536 C1086 1.770 1_455 S
C3561 C1135 1.770 . S
C3566 C1126 1.770 . S
C3591 C1175 1.770 1_655 S
C3596 C1166 1.770 . S
C3621 C1206 1.770 . S
C3626 C1215 1.770 . S
C3651 C1246 1.770 . S
C3656 C1255 1.770 1_655 S
C3681 C18 1.476 . S
C3686 C169 1.476 . S
C3711 C1169 1.476 . S
C3716 C58 1.476 . S
C3741 C569 1.475 . S
C3746 C98 1.475 . S
C3771 C138 1.476 . S
C3776 C929 1.476 . S
C3801 C209 1.476 . S
C3806 C1018 1.476 . S
C3831 C249 1.475 . S
C3836 C418 1.475 . S
C3861 C289 1.476 . S
C3866 C778 1.476 . S
C3891 C338 1.476 . S
C3896 C489 1.476 . S
C3921 C849 1.476 . S
C3926 C378 1.476 . S
C3951 C1249 1.476 . S
C3956 C458 1.476 . S
C3981 C529 1.476 . S
C3986 C698 1.476 . S
C4011 C1098 1.476 . S
C4016 C609 1.476 . S
C4041 C658 1.476 . S
C4046 C809 1.476 . S
C4071 C1209 1.475 . S
C4076 C738 1.475 . S
C4101 C889 1.475 . S
C4106 C1058 1.475 . S
C4131 C978 1.476 . S
C4136 C1129 1.476 . S
