# Generated by pormake.
# Topology wnr, (7)-cn, num edge types: 1
# Building blocks:
#     Node 0, Type 0, BuildingBlock: NUHQUE_clean_sbu_2, # of connection points: 7
#     Node 1, Type 0, BuildingBlock: NUHQUE_clean_sbu_2, # of connection points: 7
#     Node 2, Type 0, BuildingBlock: NUHQUE_clean_sbu_2, # of connection points: 7
#     Node 3, Type 0, BuildingBlock: NUHQUE_clean_sbu_2, # of connection points: 7
#     Node 4, Type 0, BuildingBlock: NUHQUE_clean_sbu_2, # of connection points: 7
#     Node 5, Type 0, BuildingBlock: NUHQUE_clean_sbu_2, # of connection points: 7
#     Edge 6, Type (0, 0), BuildingBlock: ZUJKAS_clean_linker_0, # of connection points: 2
#     Edge 7, Type (0, 0), BuildingBlock: ZUJKAS_clean_linker_0, # of connection points: 2
#     Edge 8, Type (0, 0), BuildingBlock: ZUJKAS_clean_linker_0, # of connection points: 2
#     Edge 9, Type (0, 0), BuildingBlock: ZUJKAS_clean_linker_0, # of connection points: 2
#     Edge 10, Type (0, 0), BuildingBlock: ZUJKAS_clean_linker_0, # of connection points: 2
#     Edge 11, Type (0, 0), BuildingBlock: ZUJKAS_clean_linker_0, # of connection points: 2
#     Edge 12, Type (0, 0), BuildingBlock: ZUJKAS_clean_linker_0, # of connection points: 2
#     Edge 13, Type (0, 0), BuildingBlock: ZUJKAS_clean_linker_0, # of connection points: 2
#     Edge 14, Type (0, 0), BuildingBlock: ZUJKAS_clean_linker_0, # of connection points: 2
#     Edge 15, Type (0, 0), BuildingBlock: ZUJKAS_clean_linker_0, # of connection points: 2
#     Edge 16, Type (0, 0), BuildingBlock: ZUJKAS_clean_linker_0, # of connection points: 2
#     Edge 17, Type (0, 0), BuildingBlock: ZUJKAS_clean_linker_0, # of connection points: 2
#     Edge 18, Type (0, 0), BuildingBlock: ZUJKAS_clean_linker_0, # of connection points: 2
#     Edge 19, Type (0, 0), BuildingBlock: ZUJKAS_clean_linker_0, # of connection points: 2
#     Edge 20, Type (0, 0), BuildingBlock: ZUJKAS_clean_linker_0, # of connection points: 2
#     Edge 21, Type (0, 0), BuildingBlock: ZUJKAS_clean_linker_0, # of connection points: 2
#     Edge 22, Type (0, 0), BuildingBlock: ZUJKAS_clean_linker_0, # of connection points: 2
#     Edge 23, Type (0, 0), BuildingBlock: ZUJKAS_clean_linker_0, # of connection points: 2
#     Edge 24, Type (0, 0), BuildingBlock: ZUJKAS_clean_linker_0, # of connection points: 2
#     Edge 25, Type (0, 0), BuildingBlock: ZUJKAS_clean_linker_0, # of connection points: 2
#     Edge 26, Type (0, 0), BuildingBlock: ZUJKAS_clean_linker_0, # of connection points: 2
# Relax obj value: 0.183
# Max RMSD: 0.216
# Mean RMSD: 0.216
data_MOF--net-wnr--node1-NUHQUE_clean_sbu_2--edge1-ZUJKAS_clean_linker_0
_symmetry_space_group_name_H-M    P1
_symmetry_Int_Tables_number       1
_symmetry_cell_setting            triclinic
loop_
_symmetry_equiv_pos_as_xyz
'x, y, z'
_cell_length_a     57.972043
_cell_length_b     57.994132
_cell_length_c     22.298843
_cell_angle_alpha  90.168166
_cell_angle_beta   89.882372
_cell_angle_gamma 120.06219
loop_
_atom_site_label
_atom_site_type_symbol
_atom_site_fract_x
_atom_site_fract_y
_atom_site_fract_z
_atom_type_partial_charge
O0 O 0.26375 0.44913 0.91976 0.0
Tb1 Tb 0.28315 0.47146 1.00086 0.0
Eu2 Eu 0.23819 0.42287 0.11246 0.0
C3 C 0.27454 0.43772 0.88818 0.0
O4 O 0.2952 0.43707 0.91024 0.0
C5 C 0.28884 0.42384 0.05012 0.0
O6 O 0.23983 0.41475 0.21121 0.0
C7 C 0.18897 0.3978 0.07626 0.0
C8 C 0.25957 0.43221 0.24484 0.0
O9 O 0.27905 0.45348 0.21937 0.0
C10 C 0.25076 0.48244 0.09579 0.0
C11 C 0.16272 0.39572 0.08666 0.0
C12 C 0.14877 0.39786 0.03723 0.0
C13 C 0.12318 0.39449 0.04466 0.0
C14 C 0.11173 0.38914 0.10183 0.0
C15 C 0.12472 0.38595 0.1511 0.0
C16 C 0.15028 0.38924 0.14363 0.0
O17 O 0.30038 0.4499 0.04464 0.0
O18 O 0.26345 0.40914 0.06407 0.0
O19 O 0.30897 0.49902 0.93146 0.0
O20 O 0.3164 0.51138 0.02222 0.0
C21 C 0.32425 0.51842 0.96723 0.0
O22 O 0.25169 0.46578 0.13409 0.0
O23 O 0.2534 0.48001 0.03793 0.0
O24 O 0.1982 0.38886 0.11864 0.0
O25 O 0.20763 0.41952 0.04999 0.0
H26 H 0.15753 0.40149 0.9928 0.0
H27 H 0.0915 0.38533 0.1073 0.0
H28 H 0.1601 0.38627 0.18167 0.0
O29 O 0.5767 0.81472 0.5949 0.0
Tb30 Tb 0.55547 0.8147 0.6755 0.0
Eu31 Eu 0.60236 0.81629 0.7882 0.0
C32 C 0.59131 0.83692 0.56492 0.0
O33 O 0.59578 0.85957 0.58853 0.0
C34 C 0.60158 0.86695 0.73343 0.0
O35 O 0.61064 0.8236 0.88757 0.0
C36 C 0.62668 0.79268 0.74443 0.0
C37 C 0.59394 0.82668 0.92217 0.0
O38 O 0.57336 0.82662 0.89743 0.0
C39 C 0.54268 0.77017 0.76827 0.0
C40 C 0.62812 0.76804 0.75096 0.0
C41 C 0.62714 0.75363 0.69912 0.0
C42 C 0.62992 0.73098 0.70343 0.0
C43 C 0.63353 0.72279 0.75984 0.0
C44 C 0.63561 0.73738 0.81156 0.0
C45 C 0.6328 0.76001 0.80723 0.0
O46 O 0.57565 0.85206 0.72589 0.0
O47 O 0.61651 0.85658 0.74714 0.0
O48 O 0.53164 0.82305 0.6125 0.0
O49 O 0.51264 0.79899 0.68841 0.0
C50 C 0.50909 0.80957 0.64055 0.0
O51 O 0.55923 0.78704 0.80805 0.0
O52 O 0.54603 0.77588 0.71076 0.0
O53 O 0.63613 0.80992 0.78887 0.0
O54 O 0.60494 0.79044 0.7202 0.0
H55 H 0.62491 0.76041 0.65539 0.0
H56 H 0.637 0.70609 0.76298 0.0
H57 H 0.63486 0.77153 0.84724 0.0
O58 O 0.20854 0.75911 0.26659 0.0
Tb59 Tb 0.21145 0.73932 0.34683 0.0
Eu60 Eu 0.20964 0.78568 0.45955 0.0
C61 C 0.18641 0.74835 0.23484 0.0
O62 O 0.16506 0.72756 0.25656 0.0
C63 C 0.15917 0.73445 0.40021 0.0
O64 O 0.20008 0.78354 0.55871 0.0
C65 C 0.23094 0.83456 0.42277 0.0
C66 C 0.19939 0.76462 0.59254 0.0
O67 O 0.20294 0.74614 0.56725 0.0
C68 C 0.25705 0.77346 0.43751 0.0
C69 C 0.25408 0.86171 0.42861 0.0
C70 C 0.2613 0.87865 0.37846 0.0
C71 C 0.28101 0.90553 0.38354 0.0
C72 C 0.29449 0.915 0.43782 0.0
C73 C 0.28744 0.89871 0.48842 0.0
C74 C 0.26697 0.87195 0.48419 0.0
O75 O 0.17343 0.72269 0.3941 0.0
O76 O 0.17016 0.7599 0.41362 0.0
O77 O 0.21087 0.71265 0.27642 0.0
O78 O 0.21895 0.70649 0.36567 0.0
C79 C 0.21631 0.69795 0.31069 0.0
O80 O 0.24099 0.77451 0.47768 0.0
O81 O 0.25056 0.76875 0.3805 0.0
O82 O 0.21465 0.82513 0.46883 0.0
O83 O 0.23441 0.8165 0.39475 0.0
H84 H 0.25055 0.8713 0.33657 0.0
H85 H 0.30971 0.93586 0.44173 0.0
H86 H 0.26076 0.8595 0.52382 0.0
O87 O 0.45866 0.25986 0.07028 0.0
Tb88 Tb 0.48178 0.27988 0.9906 0.0
Eu89 Eu 0.43514 0.23601 0.87586 0.0
C90 C 0.44711 0.27052 0.1018 0.0
O91 O 0.4468 0.29143 0.08029 0.0
C92 C 0.43487 0.28633 0.93809 0.0
O93 O 0.42704 0.23726 0.77702 0.0
C94 C 0.40851 0.18736 0.91461 0.0
C95 C 0.44476 0.2564 0.74266 0.0
O96 O 0.46663 0.27548 0.76725 0.0
C97 C 0.4943 0.248 0.8968 0.0
C98 C 0.4047 0.16025 0.91087 0.0
C99 C 0.39511 0.14403 0.96215 0.0
C100 C 0.38786 0.11709 0.95908 0.0
C101 C 0.39172 0.10687 0.90567 0.0
C102 C 0.40089 0.12246 0.85394 0.0
C103 C 0.40719 0.14926 0.85619 0.0
O104 O 0.46074 0.29786 0.94747 0.0
O105 O 0.42067 0.26132 0.9209 0.0
O106 O 0.50859 0.30499 0.06189 0.0
O107 O 0.52199 0.31315 0.97188 0.0
C108 C 0.52842 0.32049 0.0274 0.0
O109 O 0.47807 0.24871 0.85685 0.0
O110 O 0.49088 0.25038 0.95431 0.0
O111 O 0.40137 0.19603 0.86781 0.0
O112 O 0.42993 0.20597 0.94194 0.0
H113 H 0.39177 0.15193 1.00334 0.0
H114 H 0.38596 0.08596 0.90336 0.0
H115 H 0.41331 0.16115 0.81569 0.0
O116 O 0.77907 0.21573 0.7683 0.0
Tb117 Tb 0.75697 0.21017 0.6858 0.0
Eu118 Eu 0.79215 0.20163 0.56321 0.0
C119 C 0.78432 0.19767 0.7893 0.0
O120 O 0.77908 0.17685 0.75618 0.0
C121 C 0.74398 0.15165 0.63582 0.0
O122 O 0.79739 0.19765 0.46437 0.0
C123 C 0.83868 0.22226 0.61363 0.0
C124 C 0.77786 0.19256 0.42709 0.0
O125 O 0.75531 0.18929 0.44871 0.0
C126 C 0.78301 0.25013 0.58083 0.0
C127 C 0.8655 0.24622 0.6077 0.0
C128 C 0.87834 0.26142 0.65915 0.0
C129 C 0.90409 0.28374 0.65499 0.0
C130 C 0.91688 0.2907 0.59926 0.0
C131 C 0.90497 0.27539 0.54806 0.0
C132 C 0.8792 0.25313 0.55218 0.0
O133 O 0.73994 0.16723 0.67249 0.0
O134 O 0.76193 0.16035 0.59269 0.0
O135 O 0.73306 0.21759 0.75051 0.0
O136 O 0.72101 0.21122 0.65932 0.0
C137 C 0.71531 0.21608 0.71275 0.0
O138 O 0.77949 0.23151 0.54245 0.0
O139 O 0.78467 0.24663 0.63851 0.0
O140 O 0.83091 0.2048 0.56966 0.0
O141 O 0.8194 0.22566 0.63507 0.0
H142 H 0.86854 0.25565 0.70243 0.0
H143 H 0.93721 0.3072 0.59649 0.0
H144 H 0.87011 0.24116 0.51252 0.0
O145 O 0.82461 0.56932 0.42027 0.0
Tb146 Tb 0.82205 0.54682 0.33965 0.0
Eu147 Eu 0.82593 0.59417 0.22699 0.0
C148 C 0.84682 0.58111 0.4517 0.0
O149 O 0.86827 0.58194 0.42976 0.0
C150 C 0.87588 0.59368 0.2886 0.0
O151 O 0.83489 0.60283 0.12802 0.0
C152 C 0.80172 0.61841 0.2678 0.0
C153 C 0.83747 0.5858 0.09343 0.0
O154 O 0.8362 0.56463 0.118 0.0
C155 C 0.77891 0.53486 0.24405 0.0
C156 C 0.77707 0.61976 0.26013 0.0
C157 C 0.76232 0.61866 0.31142 0.0
C158 C 0.73968 0.62143 0.30627 0.0
C159 C 0.73181 0.62508 0.24952 0.0
C160 C 0.74672 0.62725 0.19834 0.0
C161 C 0.76938 0.62454 0.20352 0.0
O162 O 0.86116 0.56776 0.29659 0.0
O163 O 0.86545 0.60831 0.27264 0.0
O164 O 0.8203 0.51949 0.40938 0.0
O165 O 0.81471 0.50668 0.31882 0.0
C166 C 0.81573 0.49987 0.37384 0.0
O167 O 0.79668 0.55121 0.20552 0.0
O168 O 0.78379 0.53791 0.30193 0.0
O169 O 0.81922 0.6277 0.22387 0.0
O170 O 0.79943 0.59683 0.29295 0.0
H171 H 0.76885 0.61637 0.35542 0.0
H172 H 0.71511 0.62853 0.24565 0.0
H173 H 0.78119 0.62674 0.16395 0.0
H174 H 0.11233 0.3638 0.94432 0.0
H175 H 0.07475 0.35082 0.87596 0.0
H176 H 0.05686 0.40654 0.96302 0.0
H177 H 0.09439 0.41956 0.0314 0.0
H178 H 1.01443 0.35393 0.96313 0.0
H179 H 0.05712 0.38487 0.73492 0.0
H180 H 0.06978 0.36693 0.77584 0.0
H181 H 0.07656 0.39905 0.80214 0.0
C182 C 0.10108 0.37408 0.94714 0.0
C183 C 0.10623 0.39266 0.99312 0.0
C184 C 0.07952 0.36656 0.90829 0.0
C185 C 0.06298 0.37768 0.91456 0.0
C186 C 0.06933 0.39768 0.95755 0.0
H187 H 0.93052 0.3373 0.67358 0.0
H188 H 0.9672 0.36186 0.7441 0.0
C189 C 0.09084 0.40519 0.99631 0.0
C190 C 0.03742 0.36629 0.88146 0.0
H191 H 1.01058 0.35353 0.74102 0.0
C192 C 1.01356 0.35408 0.91455 0.0
C193 C 0.03635 0.36661 0.81823 0.0
C194 C 0.0613 0.38027 0.78059 0.0
C195 C 0.98863 0.34156 0.88596 0.0
C196 C 0.98758 0.34106 0.82267 0.0
C197 C 1.01143 0.35387 0.78963 0.0
C198 C 0.9621 0.32665 0.78928 0.0
C199 C 0.96365 0.32897 0.92363 0.0
C200 C 0.94631 0.29879 0.79318 0.0
C201 C 0.92519 0.28472 0.75316 0.0
C202 C 0.91979 0.29835 0.70843 0.0
C203 C 0.93426 0.32636 0.70783 0.0
C204 C 0.9553 0.34038 0.74777 0.0
H205 H 0.96758 0.33711 0.97001 0.0
H206 H 0.94797 0.33212 0.90328 0.0
H207 H 0.95586 0.3072 0.92641 0.0
H208 H 0.95145 0.28777 0.82431 0.0
H209 H 0.91465 0.26315 0.75389 0.0
H210 H 0.6863 0.59629 0.32846 0.0
H211 H 0.6637 0.61129 0.39789 0.0
H212 H 0.73965 0.66997 0.47069 0.0
H213 H 0.7624 0.65507 0.40118 0.0
H214 H 0.69601 0.64416 0.55722 0.0
H215 H 0.67155 0.68546 0.35824 0.0
H216 H 0.66127 0.65066 0.35398 0.0
H217 H 0.69614 0.67505 0.35612 0.0
C218 C 0.6981 0.61184 0.36057 0.0
C219 C 0.72609 0.62466 0.35925 0.0
C220 C 0.6852 0.62051 0.39979 0.0
C221 C 0.70009 0.64214 0.43822 0.0
C222 C 0.72786 0.65336 0.44095 0.0
H223 H 0.66437 0.75408 0.61023 0.0
H224 H 0.67926 0.73143 0.54038 0.0
C225 C 0.74081 0.64467 0.40166 0.0
C226 C 0.68696 0.65455 0.47146 0.0
H227 H 0.65444 0.68947 0.45159 0.0
C228 C 0.68681 0.65396 0.53426 0.0
C229 C 0.67544 0.66775 0.44114 0.0
C230 C 0.67622 0.67005 0.37367 0.0
C231 C 0.67508 0.66596 0.5677 0.0
C232 C 0.66294 0.67856 0.53735 0.0
C233 C 0.66342 0.67946 0.47456 0.0
C234 C 0.65061 0.69177 0.57063 0.0
C235 C 0.6763 0.66559 0.63528 0.0
C236 C 0.62854 0.67684 0.60784 0.0
C237 C 0.61991 0.6897 0.64732 0.0
C238 C 0.63317 0.71768 0.64997 0.0
C239 C 0.65364 0.73251 0.60865 0.0
C240 C 0.66231 0.71961 0.56919 0.0
H241 H 0.69126 0.66036 0.65119 0.0
H242 H 0.6813 0.68526 0.65436 0.0
H243 H 0.65652 0.65051 0.65299 0.0
H244 H 0.61893 0.65531 0.60869 0.0
H245 H 0.60404 0.67784 0.67865 0.0
H246 H 0.29429 0.90382 0.26593 0.0
H247 H 0.30935 0.94009 0.1921 0.0
H248 H 0.29521 0.98737 0.32079 0.0
H249 H 0.27964 0.95124 0.39337 0.0
H250 H 0.27954 0.99161 0.20833 0.0
H251 H 0.38242 1.00761 0.20753 0.0
H252 H 0.35695 0.97459 0.18674 0.0
H253 H 0.35763 0.98651 0.26158 0.0
C254 C 0.29396 0.92179 0.27769 0.0
C255 C 0.28622 0.92499 0.33535 0.0
C256 C 0.3028 0.94255 0.23595 0.0
C257 C 0.30398 0.96663 0.25164 0.0
C258 C 0.2947 0.96908 0.30797 0.0
H259 H 0.40308 0.1203 0.07673 0.0
H260 H 0.38155 0.08526 0.15331 0.0
C261 C 0.28589 0.94847 0.34938 0.0
C262 C 0.31578 0.98987 0.21094 0.0
H263 H 0.37377 0.03432 0.14173 0.0
C264 C 0.30014 1.00095 0.19367 0.0
C265 C 0.34285 1.00241 0.19332 0.0
C266 C 0.36107 0.99238 0.21362 0.0
C267 C 0.3107 0.02397 0.15827 0.0
C268 C 0.33746 0.0359 0.1387 0.0
C269 C 0.35325 0.02511 0.15683 0.0
C270 C 0.34893 0.05836 0.09588 0.0
C271 C 0.29318 0.03547 0.14277 0.0
C272 C 0.3375 0.05491 0.03892 0.0
C273 C 0.34959 0.07475 0.99581 0.0
C274 C 0.37355 0.09834 0.00848 0.0
C275 C 0.38455 0.10233 0.06617 0.0
C276 C 0.37237 0.08233 0.10958 0.0
H277 H 0.27694 0.02963 0.17617 0.0
H278 H 0.30488 0.05756 0.14032 0.0
H279 H 0.28379 0.0277 0.09842 0.0
H280 H 0.31976 0.03643 0.02696 0.0
H281 H 0.34066 0.07129 0.95165 0.0
H282 H 0.24722 0.4951 0.21256 0.0
H283 H 0.2409 0.53119 0.24982 0.0
H284 H 0.23777 0.55478 0.06818 0.0
H285 H 0.24464 0.51901 0.03036 0.0
H286 H 0.27011 0.59725 0.13955 0.0
H287 H 0.17298 0.53488 0.2528 0.0
H288 H 0.19853 0.52818 0.27719 0.0
H289 H 0.18695 0.52121 0.2009 0.0
C290 C 0.24504 0.50783 0.18039 0.0
C291 C 0.24631 0.50403 0.11836 0.0
C292 C 0.24125 0.52839 0.20185 0.0
C293 C 0.23836 0.54542 0.16184 0.0
C294 C 0.23978 0.54178 0.09992 0.0
H295 H 0.21367 0.68082 0.1959 0.0
H296 H 0.2194 0.64399 0.16038 0.0
C297 C 0.24368 0.52129 0.07836 0.0
C298 C 0.23476 0.56756 0.18453 0.0
H299 H 0.19472 0.58149 0.27197 0.0
C300 C 0.25354 0.59378 0.16822 0.0
C301 C 0.21316 0.56304 0.22209 0.0
C302 C 0.1916 0.5353 0.23887 0.0
C303 C 0.25153 0.61559 0.1891 0.0
C304 C 0.23001 0.61107 0.22678 0.0
C305 C 0.21126 0.58489 0.24327 0.0
C306 C 0.22636 0.63325 0.24857 0.0
C307 C 0.27271 0.64337 0.17151 0.0
C308 C 0.22784 0.63908 0.3101 0.0
C309 C 0.22457 0.66015 0.33052 0.0
C310 C 0.2195 0.6755 0.28975 0.0
C311 C 0.21766 0.66937 0.22831 0.0
C312 C 0.22104 0.64843 0.20792 0.0
H313 H 0.29098 0.64388 0.15441 0.0
H314 H 0.26486 0.65071 0.13546 0.0
H315 H 0.2782 0.65725 0.21019 0.0
H316 H 0.23179 0.62751 0.34222 0.0
H317 H 0.22603 0.66442 0.37813 0.0
H318 H 0.34066 0.53514 0.85304 0.0
H319 H 0.37811 0.57796 0.82057 0.0
H320 H 0.39615 0.60306 1.00507 0.0
H321 H 0.35873 0.56015 0.03784 0.0
H322 H 0.38666 0.62996 0.84401 0.0
H323 H 0.46808 0.61643 0.93619 0.0
H324 H 0.43453 0.58902 0.92621 0.0
H325 H 0.44239 0.61134 0.98872 0.0
C326 C 0.35267 0.54976 0.88668 0.0
C327 C 0.34688 0.54431 0.94797 0.0
C328 C 0.37402 0.57421 0.86807 0.0
C329 C 0.39013 0.59357 0.91039 0.0
C330 C 0.38427 0.58823 0.97168 0.0
H331 H 0.52899 0.75221 0.88358 0.0
H332 H 0.49171 0.70973 0.91723 0.0
C333 C 0.36283 0.56379 0.99033 0.0
C334 C 0.41271 0.61952 0.89014 0.0
H335 H 0.4805 0.65867 0.89519 0.0
C336 C 0.4072 0.63623 0.85501 0.0
C337 C 0.43946 0.62768 0.90472 0.0
C338 C 0.44662 0.61014 0.94061 0.0
C339 C 0.42769 0.66108 0.83483 0.0
C340 C 0.4545 0.66918 0.849 0.0
C341 C 0.45998 0.65246 0.88428 0.0
C342 C 0.47715 0.69497 0.82796 0.0
C343 C 0.42034 0.67869 0.79975 0.0
C344 C 0.48165 0.70073 0.76647 0.0
C345 C 0.50292 0.72509 0.747 0.0
C346 C 0.52033 0.74411 0.78865 0.0
C347 C 0.516 0.73809 0.85019 0.0
C348 C 0.49468 0.71377 0.86958 0.0
H349 H 0.39921 0.67311 0.80718 0.0
H350 H 0.43327 0.69997 0.81215 0.0
H351 H 0.42298 0.6765 0.75117 0.0
H352 H 0.46879 0.6863 0.73342 0.0
H353 H 0.50572 0.72896 0.69929 0.0
H354 H 0.50153 0.84208 0.56559 0.0
H355 H 0.45913 0.83766 0.53358 0.0
H356 H 0.41668 0.76479 0.63502 0.0
H357 H 0.4591 0.77028 0.67032 0.0
H358 H 0.42136 0.80417 0.46927 0.0
H359 H 0.37747 0.79954 0.69203 0.0
H360 H 0.41164 0.80773 0.68311 0.0
H361 H 0.38518 0.77341 0.68385 0.0
C362 C 0.48309 0.8253 0.58151 0.0
C363 C 0.4835 0.80667 0.62085 0.0
C364 C 0.45885 0.82272 0.56312 0.0
C365 C 0.43452 0.80118 0.58281 0.0
C366 C 0.43503 0.78214 0.6209 0.0
H367 H 0.28528 0.75136 0.3925 0.0
H368 H 0.3282 0.75812 0.42744 0.0
C369 C 0.45928 0.78513 0.64063 0.0
C370 C 0.40877 0.79824 0.56171 0.0
H371 H 0.34743 0.78562 0.6089 0.0
C372 C 0.40531 0.80039 0.49999 0.0
C373 C 0.38786 0.79379 0.60158 0.0
C374 C 0.39084 0.79379 0.66882 0.0
C375 C 0.38162 0.79792 0.47705 0.0
C376 C 0.3601 0.79176 0.51651 0.0
C377 C 0.36368 0.78996 0.57831 0.0
C378 C 0.33385 0.78742 0.49509 0.0
C379 C 0.38039 0.80277 0.41096 0.0
C380 C 0.32193 0.80063 0.52307 0.0
C381 C 0.29692 0.79601 0.50455 0.0
C382 C 0.28354 0.77849 0.45687 0.0
C383 C 0.29541 0.76534 0.42868 0.0
C384 C 0.32008 0.76938 0.44834 0.0
H385 H 0.40059 0.8161 0.39231 0.0
H386 H 0.37187 0.78353 0.3865 0.0
H387 H 0.36783 0.81186 0.40212 0.0
H388 H 0.33199 0.81457 0.55933 0.0
H389 H 0.28821 0.80642 0.52704 0.0
H390 H 0.50619 0.24021 0.78212 0.0
H391 H 0.54273 0.23359 0.74909 0.0
H392 H 0.56923 0.24007 0.93207 0.0
H393 H 0.53258 0.24636 0.9657 0.0
H394 H 0.59722 0.26727 0.76197 0.0
H395 H 0.56515 0.17107 0.87639 0.0
H396 H 0.54331 0.1846 0.86698 0.0
H397 H 0.56793 0.19691 0.92557 0.0
C398 C 0.51967 0.24006 0.81549 0.0
C399 C 0.51629 0.24365 0.8767 0.0
C400 C 0.54059 0.23631 0.79645 0.0
C401 C 0.55849 0.23592 0.83814 0.0
C402 C 0.55532 0.2397 0.89919 0.0
H403 H 0.70146 0.22443 0.82382 0.0
H404 H 0.6633 0.2294 0.85162 0.0
C405 C 0.5344 0.24343 0.91832 0.0
C406 C 0.58091 0.2323 0.8176 0.0
H407 H 0.60873 0.19284 0.83433 0.0
C408 C 0.59964 0.25089 0.77742 0.0
C409 C 0.58404 0.2109 0.83775 0.0
C410 C 0.56392 0.18957 0.8786 0.0
C411 C 0.62179 0.24907 0.75812 0.0
C412 C 0.62508 0.22785 0.77884 0.0
C413 C 0.60621 0.20913 0.81856 0.0
C414 C 0.6483 0.22506 0.76109 0.0
C415 C 0.64191 0.27031 0.71711 0.0
C416 C 0.65244 0.22074 0.70095 0.0
C417 C 0.67427 0.21786 0.68494 0.0
C418 C 0.69224 0.21919 0.72887 0.0
C419 C 0.68797 0.22338 0.78899 0.0
C420 C 0.66616 0.22618 0.80495 0.0
H421 H 0.63981 0.28833 0.71649 0.0
H422 H 0.66255 0.27625 0.73097 0.0
H423 H 0.63891 0.26232 0.67074 0.0
H424 H 0.63866 0.21933 0.66648 0.0
H425 H 0.67704 0.21453 0.63831 0.0
H426 H 0.78279 0.26493 0.46434 0.0
H427 H 0.78912 0.30745 0.42783 0.0
H428 H 0.798 0.33612 0.6097 0.0
H429 H 0.79195 0.29379 0.64671 0.0
H430 H 0.75878 0.33173 0.45415 0.0
H431 H 0.86397 0.39551 0.52546 0.0
H432 H 0.84803 0.35964 0.52165 0.0
H433 H 0.84187 0.37542 0.58426 0.0
C434 C 0.78623 0.28031 0.49665 0.0
C435 C 0.78704 0.27598 0.55851 0.0
C436 C 0.7898 0.30459 0.47565 0.0
C437 C 0.79442 0.32509 0.51595 0.0
C438 C 0.79501 0.32078 0.57771 0.0
H439 H 0.81723 0.48409 0.48784 0.0
H440 H 0.81149 0.44124 0.52058 0.0
C441 C 0.79142 0.2965 0.59879 0.0
C442 C 0.79793 0.35074 0.49349 0.0
H443 H 0.8416 0.41778 0.49076 0.0
C444 C 0.77694 0.35055 0.46179 0.0
C445 C 0.82164 0.37524 0.50358 0.0
C446 C 0.84528 0.37657 0.53511 0.0
C447 C 0.77875 0.37428 0.44115 0.0
C448 C 0.80241 0.39881 0.45156 0.0
C449 C 0.82347 0.39897 0.48291 0.0
C450 C 0.80561 0.42462 0.43116 0.0
C451 C 0.75505 0.37294 0.40987 0.0
C452 C 0.80447 0.42962 0.36993 0.0
C453 C 0.80768 0.45408 0.35115 0.0
C454 C 0.81227 0.474 0.39328 0.0
C455 C 0.81365 0.46906 0.45442 0.0
C456 C 0.81041 0.44462 0.47316 0.0
H457 H 0.73643 0.35386 0.41897 0.0
H458 H 0.75211 0.38966 0.42407 0.0
H459 H 0.75855 0.37446 0.36073 0.0
H460 H 0.80133 0.4147 0.33662 0.0
H461 H 0.80667 0.45745 0.30371 0.0
H462 H 0.54374 0.33594 0.14273 0.0
H463 H 0.58635 0.37278 0.17824 0.0
H464 H 0.61389 0.39191 0.99557 0.0
H465 H 0.57119 0.35512 0.95975 0.0
H466 H 0.63824 0.38072 0.15849 0.0
H467 H 0.62745 0.46363 0.06565 0.0
H468 H 0.59959 0.4302 0.07343 0.0
H469 H 0.62273 0.43825 0.01259 0.0
C470 C 0.55885 0.34806 0.11014 0.0
C471 C 0.55415 0.34277 0.04847 0.0
C472 C 0.58318 0.36907 0.13049 0.0
C473 C 0.60317 0.3853 0.08955 0.0
C474 C 0.59857 0.37993 0.02789 0.0
H475 H 0.7626 0.52192 0.1275 0.0
H476 H 0.72024 0.48535 0.09086 0.0
C477 C 0.57425 0.35885 0.0075 0.0
C478 C 0.62898 0.40747 0.11164 0.0
H479 H 0.66904 0.47515 0.10936 0.0
C480 C 0.64497 0.40138 0.14794 0.0
C481 C 0.63772 0.43439 0.09767 0.0
C482 C 0.62093 0.44215 0.06062 0.0
C483 C 0.66967 0.42147 0.1699 0.0
C484 C 0.67835 0.44843 0.15626 0.0
C485 C 0.66237 0.45449 0.11983 0.0
C486 C 0.70402 0.47066 0.17908 0.0
C487 C 0.68651 0.41355 0.20631 0.0
C488 C 0.70888 0.47484 0.24095 0.0
C489 C 0.73314 0.49569 0.26214 0.0
C490 C 0.75296 0.51298 0.22183 0.0
C491 C 0.74784 0.50899 0.15988 0.0
C492 C 0.7236 0.48809 0.13878 0.0
H493 H 0.68063 0.39235 0.19878 0.0
H494 H 0.70797 0.42621 0.19524 0.0
H495 H 0.68382 0.41611 0.25468 0.0
H496 H 0.69383 0.46203 0.27295 0.0
H497 H 0.73632 0.49826 0.31011 0.0
H498 H 0.91955 0.24358 0.48823 0.0
H499 H 0.95687 0.25857 0.4173 0.0
H500 H 0.9664 0.33724 0.41735 0.0
H501 H 0.92916 0.32231 0.4877 0.0
H502 H 0.97372 0.3194 0.30266 0.0
H503 H 0.0334 0.30782 0.48304 0.0
H504 H 1.0021 0.27876 0.4647 0.0
H505 H 1.00246 0.30714 0.49807 0.0
C506 C 0.92902 0.26377 0.47126 0.0
C507 C 0.9215 0.2818 0.49317 0.0
C508 C 0.95055 0.27243 0.43154 0.0
C509 C 0.96477 0.29918 0.41322 0.0
C510 C 0.95584 0.31658 0.43127 0.0
H511 H 0.10468 0.41039 0.22014 0.0
H512 H 0.06687 0.38818 0.28908 0.0
C513 C 0.93448 0.308 0.47109 0.0
C514 C 0.99002 0.30981 0.37882 0.0
H515 H 0.05515 0.32556 0.39116 0.0
C516 C 0.99146 0.32058 0.3218 0.0
C517 C 1.01318 0.31137 0.40403 0.0
C518 C 1.01295 0.30086 0.46598 0.0
C519 C 1.01547 0.33304 0.28944 0.0
C520 C 0.03883 0.33535 0.31538 0.0
C521 C 0.03726 0.32394 0.37167 0.0
C522 C 0.06501 0.35001 0.28459 0.0
C523 C 1.01562 0.34363 0.22759 0.0
C524 C 0.07775 0.33646 0.26302 0.0
C525 C 0.09971 0.34931 0.22443 0.0
C526 C 0.10915 0.37583 0.20714 0.0
C527 C 0.0979 0.39 0.23331 0.0
C528 C 0.0761 0.37723 0.27197 0.0
H529 H 0.99525 0.33431 0.20821 0.0
H530 H 0.02355 0.36543 0.23039 0.0
H531 H 0.02857 0.3401 0.19662 0.0
H532 H 0.06959 0.31549 0.27261 0.0
H533 H 0.10776 0.33785 0.20401 0.0
H534 H 0.7004 0.60173 0.13595 0.0
H535 H 0.68351 0.62266 0.06716 0.0
H536 H 0.75972 0.69522 0.07215 0.0
H537 H 0.77677 0.67404 0.13995 0.0
H538 H 0.68 0.66558 0.10624 0.0
H539 H 0.73953 0.69147 0.89644 0.0
H540 H 0.73841 0.66738 0.94923 0.0
H541 H 0.75906 0.70243 0.96383 0.0
C542 C 0.71387 0.62171 0.11996 0.0
C543 C 0.73994 0.63622 0.14255 0.0
C544 C 0.70416 0.63376 0.08126 0.0
C545 C 0.72031 0.66053 0.0646 0.0
C546 C 0.74702 0.67442 0.08352 0.0
H547 H 0.68127 0.76812 0.87387 0.0
H548 H 0.70235 0.75192 0.94463 0.0
C549 C 0.75682 0.66228 0.12199 0.0
C550 C 0.70818 0.67467 0.03434 0.0
H551 H 0.71143 0.70997 0.90924 0.0
C552 C 0.68684 0.67522 0.06305 0.0
C553 C 0.71736 0.68758 0.97849 0.0
C554 C 0.7397 0.68706 0.94484 0.0
C555 C 0.67427 0.68808 0.03717 0.0
C556 C 0.6831 0.70053 0.98084 0.0
C557 C 0.70481 0.70053 0.95269 0.0
C558 C 0.66878 0.71173 0.94787 0.0
C559 C 0.65168 0.68829 0.07039 0.0
C560 C 0.6426 0.69476 0.92815 0.0
C561 C 0.63056 0.70399 0.88812 0.0
C562 C 0.64449 0.73036 0.8672 0.0
C563 C 0.66994 0.74787 0.89031 0.0
C564 C 0.68209 0.73856 0.93008 0.0
H565 H 0.65238 0.68486 0.11918 0.0
H566 H 0.65215 0.70751 0.06405 0.0
H567 H 0.63245 0.67211 0.05268 0.0
H568 H 0.63211 0.67391 0.94054 0.0
H569 H 0.61109 0.69004 0.87014 0.0
H570 H 0.36651 0.11123 0.76146 0.0
H571 H 0.35085 0.07219 0.69573 0.0
H572 H 0.4142 0.06018 0.75923 0.0
H573 H 0.42992 0.09918 0.82471 0.0
H574 H 0.37984 0.0504 0.60753 0.0
H575 H 0.33592 0.99659 0.82143 0.0
H576 H 0.34442 0.03079 0.81011 0.0
H577 H 0.37025 0.0229 0.82204 0.0
C578 C 0.378 0.10119 0.75866 0.0
C579 C 0.39953 0.10828 0.7977 0.0
C580 C 0.36884 0.0787 0.72174 0.0
C581 C 0.38115 0.06314 0.72353 0.0
C582 C 0.4044 0.07191 0.7575 0.0
H583 H 0.33877 0.91867 0.52317 0.0
H584 H 0.36277 0.95745 0.58897 0.0
C585 C 0.41357 0.09437 0.79425 0.0
C586 C 0.36765 0.03601 0.69728 0.0
H587 H 0.32912 0.97033 0.73523 0.0
C588 C 0.36888 0.03287 0.6353 0.0
C589 C 0.35305 1.01326 0.73381 0.0
C590 C 0.35057 0.01582 0.80056 0.0
C591 C 0.35597 1.00743 0.60878 0.0
C592 C 0.34179 0.98458 0.64547 0.0
C593 C 0.34032 0.98781 0.70742 0.0
C594 C 0.32728 0.9574 0.61924 0.0
C595 C 0.35707 1.00522 0.54148 0.0
C596 C 0.29929 0.94317 0.61877 0.0
C597 C 0.28553 0.92066 0.58212 0.0
C598 C 0.29963 0.91217 0.54562 0.0
C599 C 0.32746 0.92458 0.55167 0.0
C600 C 0.34119 0.94701 0.58838 0.0
H601 H 0.36387 0.02464 0.51895 0.0
H602 H 0.37127 0.99833 0.52991 0.0
H603 H 0.33721 0.99046 0.52336 0.0
H604 H 0.28818 0.95078 0.64259 0.0
H605 H 0.26415 0.91179 0.57724 0.0
H606 H 0.34301 0.44732 0.03436 0.0
H607 H 0.36903 0.42536 0.01475 0.0
H608 H 0.29737 0.34867 0.02321 0.0
H609 H 0.27117 0.37032 0.04311 0.0
H610 H 0.37094 0.3833 0.08865 0.0
H611 H 0.33328 0.35105 0.85674 0.0
H612 H 0.33145 0.37768 0.89456 0.0
H613 H 0.30844 0.34363 0.9135 0.0
C614 C 0.33274 0.42577 0.03226 0.0
C615 C 0.30492 0.41063 0.04032 0.0
C616 C 0.34768 0.41327 0.02107 0.0
C617 C 0.3351 0.38541 0.01693 0.0
C618 C 0.30744 0.37022 0.02558 0.0
H619 H 0.38124 0.26825 0.93465 0.0
H620 H 0.3584 0.29321 0.95442 0.0
C621 C 0.29251 0.38266 0.03725 0.0
C622 C 0.35082 0.37214 1.00357 0.0
H623 H 0.35998 0.33479 0.89763 0.0
C624 C 0.36871 0.37281 0.04678 0.0
C625 C 0.34779 0.35843 0.94901 0.0
C626 C 0.32937 0.35772 0.90042 0.0
C627 C 0.38312 0.35948 0.03759 0.0
C628 C 0.38008 0.34568 0.98293 0.0
C629 C 0.36237 0.34533 0.93948 0.0
C630 C 0.39443 0.33082 0.97048 0.0
C631 C 0.4007 0.35952 0.08746 0.0
C632 C 0.42241 0.34365 0.97192 0.0
C633 C 0.4356 0.32934 0.96097 0.0
C634 C 0.42111 0.30193 0.94746 0.0
C635 C 0.39312 0.28931 0.94476 0.0
C636 C 0.37998 0.30358 0.95611 0.0
H637 H 0.39516 0.3644 0.13146 0.0
H638 H 0.39956 0.33988 0.09107 0.0
H639 H 0.42168 0.37484 0.07795 0.0
H640 H 0.4341 0.36478 0.98134 0.0
H641 H 0.45716 0.33978 0.96315 0.0
H642 H 0.64929 0.90506 0.7799 0.0
H643 H 0.67142 0.95327 0.76591 0.0
H644 H 0.60607 0.94346 0.65544 0.0
H645 H 0.58328 0.89531 0.67167 0.0
H646 H 0.69032 0.98171 0.67051 0.0
H647 H 0.61322 1.00206 0.76018 0.0
H648 H 0.61127 0.97026 0.76943 0.0
H649 H 0.60064 0.97814 0.70042 0.0
C650 C 0.63945 0.91319 0.75326 0.0
C651 C 0.61441 0.89633 0.72729 0.0
C652 C 0.65217 0.94081 0.74516 0.0
C653 C 0.64032 0.95225 0.71035 0.0
C654 C 0.61534 0.93538 0.68404 0.0
H655 H 0.7347 0.11172 0.55626 0.0
H656 H 0.70899 0.06364 0.57288 0.0
C657 C 0.60237 0.90777 0.69307 0.0
C658 C 0.65479 0.98161 0.69941 0.0
H659 H 0.64863 0.03723 0.70512 0.0
C660 C 0.6812 0.99383 0.67846 0.0
C661 C 0.64314 0.99767 0.71039 0.0
C662 C 0.61562 0.98641 0.73694 0.0
C663 C 0.69617 0.02141 0.66794 0.0
C664 C 0.68414 0.03727 0.67639 0.0
C665 C 0.65781 0.02512 0.69781 0.0
C666 C 0.69876 0.06657 0.66495 0.0
C667 C 0.72499 0.03329 0.64959 0.0
C668 C 0.70063 0.0844 0.71007 0.0
C669 C 0.71486 0.11195 0.70024 0.0
C670 C 0.72773 0.12235 0.6451 0.0
C671 C 0.72538 0.10445 0.59955 0.0
C672 C 0.7108 0.07689 0.60914 0.0
H673 H 0.73319 0.0204 0.66322 0.0
H674 H 0.72651 0.0352 0.60005 0.0
H675 H 0.73754 0.05333 0.66968 0.0
H676 H 0.69144 0.07702 0.75343 0.0
H677 H 0.71627 0.12509 0.73641 0.0
H678 H 0.91215 0.64716 0.28952 0.0
H679 H 0.96003 0.66892 0.30903 0.0
H680 H 0.95414 0.59227 0.32904 0.0
H681 H 0.90613 0.57019 0.30979 0.0
H682 H 0.98455 0.66095 0.41764 0.0
H683 H 1.01634 0.63445 0.20508 0.0
H684 H 0.98514 0.63418 0.21182 0.0
H685 H 0.98871 0.60792 0.24453 0.0
C686 C 0.92099 0.63484 0.29756 0.0
C687 C 0.9052 0.60686 0.29779 0.0
C688 C 0.94838 0.64736 0.30887 0.0
C689 C 0.96067 0.63222 0.31997 0.0
C690 C 0.9451 0.60432 0.31985 0.0
H691 H 0.12792 0.68046 0.38218 0.0
H692 H 0.07969 0.6549 0.36599 0.0
C693 C 0.91763 0.59175 0.30898 0.0
C694 C 0.98963 0.64575 0.33355 0.0
H695 H 0.04964 0.65809 0.27745 0.0
C696 C 0.99882 0.66034 0.38706 0.0
C697 C 1.00812 0.64469 0.29384 0.0
C698 C 0.99927 0.62963 0.23533 0.0
C699 C 0.02603 0.67387 0.40206 0.0
C700 C 0.04469 0.67345 0.36159 0.0
C701 C 0.0354 0.6585 0.30842 0.0
C702 C 0.07396 0.68893 0.37283 0.0
C703 C 0.03439 0.68807 0.4617 0.0
C704 C 0.08693 0.71663 0.38147 0.0
C705 C 0.11445 0.73127 0.39127 0.0
C706 C 0.12977 0.71861 0.39183 0.0
C707 C 0.11679 0.69088 0.38242 0.0
C708 C 0.08918 0.67622 0.37299 0.0
H709 H 1.0177 0.67957 0.49447 0.0
H710 H 0.05142 0.68692 0.48108 0.0
H711 H 0.04059 0.70937 0.45532 0.0
H712 H 0.07581 0.72705 0.37986 0.0
H713 H 0.12374 0.75261 0.39753 0.0
H714 H 0.22789 0.38769 0.31237 0.0
H715 H 0.22731 0.3835 0.42185 0.0
H716 H 0.28892 0.46597 0.43617 0.0
H717 H 0.29034 0.46993 0.32729 0.0
H718 H 0.29967 0.43737 0.50787 0.0
H719 H 0.19389 0.40856 0.54298 0.0
H720 H 0.19801 0.38602 0.49493 0.0
H721 H 0.21028 0.41988 0.47148 0.0
C722 C 0.24131 0.4049 0.33894 0.0
C723 C 0.25915 0.42914 0.31102 0.0
C724 C 0.2408 0.40256 0.40163 0.0
C725 C 0.2577 0.42456 0.43769 0.0
C726 C 0.27562 0.44868 0.40962 0.0
H727 H 0.24722 0.45345 0.81465 0.0
H728 H 0.2418 0.44761 0.70593 0.0
C729 C 0.27641 0.45092 0.34716 0.0
C730 C 0.25744 0.42266 0.50448 0.0
H731 H 0.21766 0.40774 0.62855 0.0
C732 C 0.28169 0.43086 0.53418 0.0
C733 C 0.23408 0.41448 0.53913 0.0
C734 C 0.20764 0.40699 0.51061 0.0
C735 C 0.28338 0.43147 0.59707 0.0
C736 C 0.25992 0.42263 0.63175 0.0
C737 C 0.23559 0.41419 0.60213 0.0
C738 C 0.26057 0.4235 0.69867 0.0
C739 C 0.31056 0.44271 0.62548 0.0
C740 C 0.27192 0.41099 0.73146 0.0
C741 C 0.27541 0.41465 0.79358 0.0
C742 C 0.26701 0.43033 0.82448 0.0
C743 C 0.2539 0.44122 0.79227 0.0
C744 C 0.25083 0.43793 0.72998 0.0
H745 H 0.32676 0.4554 0.59366 0.0
H746 H 0.31242 0.45481 0.66579 0.0
H747 H 0.31365 0.42608 0.63921 0.0
H748 H 0.27878 0.399 0.7088 0.0
H749 H 0.28531 0.40574 0.81719 0.0
H750 H 0.62663 0.87828 0.49472 0.0
H751 H 0.63295 0.87784 0.38627 0.0
H752 H 0.57689 0.79341 0.38185 0.0
H753 H 0.57129 0.79352 0.4905 0.0
H754 H 0.61661 0.80566 0.30462 0.0
H755 H 0.57859 0.8755 0.27202 0.0
H756 H 0.60793 0.88903 0.31777 0.0
H757 H 0.5775 0.86071 0.34367 0.0
C758 C 0.61596 0.85954 0.47077 0.0
C759 C 0.59824 0.83599 0.5012 0.0
C760 C 0.61942 0.85936 0.40864 0.0
C761 C 0.60478 0.83575 0.37546 0.0
C762 C 0.58825 0.81194 0.40627 0.0
H763 H 0.55759 0.82232 1.00569 0.0
H764 H 0.56207 0.82455 0.1145 0.0
C765 C 0.58508 0.81203 0.46852 0.0
C766 C 0.60556 0.83597 0.30862 0.0
H767 H 0.59386 0.86363 0.18563 0.0
C768 C 0.61169 0.81838 0.27855 0.0
C769 C 0.59871 0.85224 0.27448 0.0
C770 C 0.59004 0.87023 0.30354 0.0
C771 C 0.61101 0.81649 0.21555 0.0
C772 C 0.60474 0.8332 0.18145 0.0
C773 C 0.59889 0.85097 0.21159 0.0
C774 C 0.60244 0.83156 0.11478 0.0
C775 C 0.61599 0.79586 0.18642 0.0
C776 C 0.62369 0.83494 0.07816 0.0
C777 C 0.62103 0.8333 0.01553 0.0
C778 C 0.59725 0.82879 0.98831 0.0
C779 C 0.57623 0.8259 0.02505 0.0
C780 C 0.57877 0.82718 0.08744 0.0
H781 H 0.61322 0.78007 0.21858 0.0
H782 H 0.60247 0.7863 0.14768 0.0
H783 H 0.63685 0.80563 0.16995 0.0
H784 H 0.64242 0.83905 0.09791 0.0
H785 H 0.63767 0.83581 0.98847 0.0
H786 H 0.20611 0.73393 0.67539 0.0
H787 H 0.20194 0.73454 0.78407 0.0
H788 H 0.1806 0.79564 0.7691 0.0
H789 H 0.18564 0.79577 0.65978 0.0
H790 H 0.21501 0.80683 0.85882 0.0
H791 H 0.13511 0.70193 0.88151 0.0
H792 H 0.16353 0.70432 0.84369 0.0
H793 H 0.14506 0.71827 0.80971 0.0
C794 C 0.20034 0.7474 0.695 0.0
C795 C 0.19598 0.76465 0.65866 0.0
C796 C 0.1978 0.74761 0.75735 0.0
C797 C 0.19032 0.76468 0.78501 0.0
C798 C 0.18619 0.78213 0.74892 0.0
H799 H 0.14369 0.73648 0.16303 0.0
H800 H 0.14385 0.74376 0.05502 0.0
C801 C 0.18901 0.78214 0.68638 0.0
C802 C 0.18755 0.76466 0.8516 0.0
H803 H 0.15887 0.72336 0.97143 0.0
C804 C 0.20249 0.78863 0.88341 0.0
C805 C 0.17082 0.74106 0.88397 0.0
C806 C 0.15251 0.71503 0.85288 0.0
C807 C 0.20194 0.78944 0.94652 0.0
C808 C 0.18659 0.7655 0.97899 0.0
C809 C 0.17093 0.74173 0.94698 0.0
C810 C 0.18681 0.76426 0.04593 0.0
C811 C 0.2176 0.81606 0.97749 0.0
C812 C 0.21088 0.77379 0.07753 0.0
C813 C 0.21084 0.77007 0.13963 0.0
C814 C 0.18669 0.75619 0.17134 0.0
C815 C 0.16265 0.74726 0.14 0.0
C816 C 0.16272 0.75134 0.07811 0.0
H817 H 0.22013 0.83257 0.94794 0.0
H818 H 0.20775 0.81678 0.01963 0.0
H819 H 0.23777 0.81958 0.9885 0.0
H820 H 0.22974 0.78314 0.05391 0.0
H821 H 0.2297 0.77688 0.16218 0.0
H822 H 0.48151 0.2872 0.65849 0.0
H823 H 0.47605 0.28594 0.54998 0.0
H824 H 0.39404 0.22372 0.56818 0.0
H825 H 0.39965 0.22424 0.6773 0.0
H826 H 0.41724 0.21274 0.47802 0.0
H827 H 0.44013 0.31683 0.45347 0.0
H828 H 0.46674 0.31535 0.49059 0.0
H829 H 0.43441 0.3009 0.52563 0.0
C830 C 0.46221 0.27334 0.63961 0.0
C831 C 0.44094 0.25597 0.67674 0.0
C832 C 0.45908 0.27277 0.57738 0.0
C833 C 0.43445 0.25519 0.55073 0.0
C834 C 0.41319 0.23762 0.58762 0.0
H835 H 0.41533 0.28162 0.17248 0.0
H836 H 0.40771 0.27427 0.28041 0.0
C837 C 0.4164 0.23797 0.65002 0.0
C838 C 0.43129 0.2548 0.48432 0.0
H839 H 0.44285 0.29536 0.36377 0.0
C840 C 0.42253 0.23075 0.45306 0.0
C841 C 0.43761 0.27812 0.45154 0.0
C842 C 0.44495 0.30417 0.48213 0.0
C843 C 0.42096 0.22962 0.39002 0.0
C844 C 0.42912 0.25335 0.3571 0.0
C845 C 0.43688 0.27717 0.38859 0.0
C846 C 0.43065 0.25437 0.29022 0.0
C847 C 0.41032 0.20292 0.35963 0.0
C848 C 0.44559 0.24514 0.25908 0.0
C849 C 0.44953 0.24888 0.19706 0.0
C850 C 0.43916 0.2625 0.16502 0.0
C851 C 0.42359 0.27105 0.19584 0.0
C852 C 0.4193 0.26693 0.25765 0.0
H853 H 0.39643 0.18645 0.38949 0.0
H854 H 0.39971 0.20185 0.31739 0.0
H855 H 0.42716 0.19964 0.34891 0.0
H856 H 0.45525 0.23609 0.28303 0.0
H857 H 0.46192 0.24236 0.17487 0.0
H858 H 0.74328 0.18744 0.33817 0.0
H859 H 0.7496 0.18687 0.23009 0.0
H860 H 0.82656 0.19426 0.25904 0.0
H861 H 0.82066 0.19546 0.36761 0.0
H862 H 0.82842 0.22808 0.17281 0.0
H863 H 0.74422 0.12687 0.12742 0.0
H864 H 0.73368 0.14702 0.16674 0.0
H865 H 0.75628 0.13851 0.2023 0.0
C866 C 0.7615 0.18876 0.32169 0.0
C867 C 0.78142 0.19136 0.36157 0.0
C868 C 0.76499 0.18825 0.2598 0.0
C869 C 0.78832 0.18998 0.23644 0.0
C870 C 0.80831 0.19269 0.2761 0.0
H871 H 0.79209 0.16142 0.85149 0.0
H872 H 0.79771 0.15995 0.95989 0.0
C873 C 0.8049 0.19334 0.33812 0.0
C874 C 0.79214 0.19005 0.17057 0.0
H875 H 0.76206 0.15595 0.04245 0.0
C876 C 0.81411 0.21215 0.14432 0.0
C877 C 0.77378 0.16903 0.13343 0.0
C878 C 0.75083 0.1439 0.15897 0.0
C879 C 0.81746 0.21439 0.08178 0.0
C880 C 0.79805 0.19424 0.04453 0.0
C881 C 0.77681 0.17155 0.07092 0.0
C882 C 0.79832 0.19691 0.97828 0.0
C883 C 0.8417 0.23837 0.0563 0.0
C884 C 0.79723 0.21838 0.95243 0.0
C885 C 0.79416 0.21935 0.89052 0.0
C886 C 0.79179 0.19869 0.85319 0.0
C887 C 0.79388 0.17768 0.87888 0.0
C888 C 0.79703 0.17677 0.94089 0.0
H889 H 0.85847 0.24673 0.08883 0.0
H890 H 0.84843 0.23335 0.01411 0.0
H891 H 0.83672 0.25412 0.04644 0.0
H892 H 0.79756 0.23384 0.98037 0.0
H893 H 0.79251 0.23577 0.87235 0.0
H894 H 0.8038 0.56518 0.52587 0.0
H895 H 0.80431 0.57209 0.63405 0.0
H896 H 0.88992 0.62178 0.62939 0.0
H897 H 0.88958 0.61392 0.52151 0.0
H898 H 0.87726 0.58742 0.71342 0.0
H899 H 0.81179 0.63044 0.73991 0.0
H900 H 0.79494 0.59943 0.70012 0.0
H901 H 0.82399 0.62732 0.6676 0.0
C902 C 0.82269 0.57807 0.54763 0.0
C903 C 0.84666 0.58901 0.51502 0.0
C904 C 0.82295 0.58215 0.60967 0.0
C905 C 0.84713 0.59779 0.64025 0.0
C906 C 0.87098 0.60965 0.60711 0.0
H907 H 0.84811 0.63008 0.02739 0.0
H908 H 0.85254 0.63526 0.91802 0.0
C909 C 0.87077 0.60521 0.54531 0.0
C910 C 0.84782 0.59963 0.70715 0.0
H911 H 0.81856 0.6108 0.82859 0.0
C912 C 0.86464 0.59289 0.73842 0.0
C913 C 0.83176 0.60718 0.74034 0.0
C914 C 0.81485 0.61679 0.71018 0.0
C915 C 0.8652 0.5926 0.80138 0.0
C916 C 0.84773 0.59826 0.8345 0.0
C917 C 0.83164 0.60601 0.80343 0.0
C918 C 0.84529 0.59539 0.90105 0.0
C919 C 0.88476 0.58642 0.8316 0.0
C920 C 0.83936 0.57119 0.9281 0.0
C921 C 0.83721 0.56832 0.99041 0.0
C922 C 0.84037 0.58942 0.02734 0.0
C923 C 0.8457 0.61349 1.00028 0.0
C924 C 0.84818 0.61645 0.93774 0.0
H925 H 0.90232 0.59182 0.8025 0.0
H926 H 0.89188 0.59722 0.87487 0.0
H927 H 0.87492 0.5647 0.84038 0.0
H928 H 0.83615 0.55433 0.90094 0.0
H929 H 0.83267 0.54936 0.00955 0.0
loop_
_geom_bond_atom_site_label_1
_geom_bond_atom_site_label_2
_geom_bond_distance
_geom_bond_site_symmetry_2
_ccdc_geom_bond_type
O0 Tb1 2.304 . S
O0 C3 1.255 . S
Tb1 O0 2.304 . S
Tb1 O17 2.322 1_556 S
Tb1 O19 2.503 . S
Tb1 O20 2.466 1_556 S
Tb1 O23 2.314 1_556 S
Eu2 O6 2.292 . S
Eu2 C7 2.852 . S
Eu2 O18 2.324 . S
Eu2 O22 2.326 . S
Eu2 O24 2.500 . S
Eu2 O25 2.473 . S
C3 O0 1.255 . S
C3 O4 1.247 . S
O4 C3 1.247 . S
C5 O17 1.242 . S
C5 O18 1.258 . S
O6 Eu2 2.292 . S
O6 C8 1.255 . S
C7 Eu2 2.852 . S
C7 C11 1.503 . S
C7 O24 1.273 . S
C7 O25 1.257 . S
C8 O6 1.255 . S
C8 O9 1.247 . S
O9 C8 1.247 . S
C10 O22 1.242 . S
C10 O23 1.258 . S
C11 C7 1.503 . S
C11 C12 1.379 . S
C11 C16 1.392 . S
C12 C11 1.379 . S
C12 C13 1.404 . S
C12 H26 0.929 . S
C13 C12 1.404 . S
C13 C14 1.389 . S
C14 C13 1.389 . S
C14 C15 1.399 . S
C14 H27 0.931 . S
C15 C14 1.399 . S
C15 C16 1.390 . S
C16 C11 1.392 . S
C16 C15 1.390 . S
C16 H28 0.929 . S
O17 Tb1 2.322 1_554 S
O17 C5 1.242 . S
O18 Eu2 2.324 . S
O18 C5 1.258 . S
O19 Tb1 2.503 . S
O19 C21 1.273 1_556 S
O20 Tb1 2.466 1_554 S
O20 C21 1.257 . S
C21 O19 1.273 1_554 S
C21 O20 1.257 . S
O22 Eu2 2.326 . S
O22 C10 1.242 . S
O23 Tb1 2.314 1_554 S
O23 C10 1.258 . S
O24 Eu2 2.500 . S
O24 C7 1.273 . S
O25 Eu2 2.473 . S
O25 C7 1.257 . S
H26 C12 0.929 . S
H27 C14 0.931 . S
H28 C16 0.929 . S
O29 Tb30 2.292 . S
O29 C32 1.255 . S
Tb30 O29 2.292 . S
Tb30 O46 2.326 . S
Tb30 O48 2.500 . S
Tb30 O49 2.473 . S
Tb30 O52 2.324 . S
Eu31 O35 2.292 . S
Eu31 C36 2.852 . S
Eu31 O47 2.324 . S
Eu31 O51 2.326 . S
Eu31 O53 2.500 . S
Eu31 O54 2.473 . S
C32 O29 1.255 . S
C32 O33 1.247 . S
O33 C32 1.247 . S
C34 O46 1.242 . S
C34 O47 1.258 . S
O35 Eu31 2.292 . S
O35 C37 1.255 . S
C36 Eu31 2.852 . S
C36 C40 1.503 . S
C36 O53 1.273 . S
C36 O54 1.257 . S
C37 O35 1.255 . S
C37 O38 1.247 . S
O38 C37 1.247 . S
C39 O51 1.242 . S
C39 O52 1.258 . S
C40 C36 1.503 . S
C40 C41 1.379 . S
C40 C45 1.392 . S
C41 C40 1.379 . S
C41 C42 1.404 . S
C41 H55 0.929 . S
C42 C41 1.404 . S
C42 C43 1.389 . S
C43 C42 1.389 . S
C43 C44 1.399 . S
C43 H56 0.931 . S
C44 C43 1.399 . S
C44 C45 1.390 . S
C45 C40 1.392 . S
C45 C44 1.390 . S
C45 H57 0.929 . S
O46 Tb30 2.326 . S
O46 C34 1.242 . S
O47 Eu31 2.324 . S
O47 C34 1.258 . S
O48 Tb30 2.500 . S
O48 C50 1.273 . S
O49 Tb30 2.473 . S
O49 C50 1.257 . S
C50 O48 1.273 . S
C50 O49 1.257 . S
O51 Eu31 2.326 . S
O51 C39 1.242 . S
O52 Tb30 2.324 . S
O52 C39 1.258 . S
O53 Eu31 2.500 . S
O53 C36 1.273 . S
O54 Eu31 2.473 . S
O54 C36 1.257 . S
H55 C41 0.929 . S
H56 C43 0.931 . S
H57 C45 0.929 . S
O58 Tb59 2.292 . S
O58 C61 1.255 . S
Tb59 O58 2.292 . S
Tb59 O75 2.326 . S
Tb59 O77 2.500 . S
Tb59 O78 2.473 . S
Tb59 O81 2.324 . S
Eu60 O64 2.292 . S
Eu60 C65 2.852 . S
Eu60 O76 2.324 . S
Eu60 O80 2.326 . S
Eu60 O82 2.500 . S
Eu60 O83 2.473 . S
C61 O58 1.255 . S
C61 O62 1.247 . S
O62 C61 1.247 . S
C63 O75 1.242 . S
C63 O76 1.258 . S
O64 Eu60 2.292 . S
O64 C66 1.255 . S
C65 Eu60 2.852 . S
C65 C69 1.503 . S
C65 O82 1.273 . S
C65 O83 1.257 . S
C66 O64 1.255 . S
C66 O67 1.247 . S
O67 C66 1.247 . S
C68 O80 1.242 . S
C68 O81 1.258 . S
C69 C65 1.503 . S
C69 C70 1.379 . S
C69 C74 1.392 . S
C70 C69 1.379 . S
C70 C71 1.404 . S
C70 H84 0.929 . S
C71 C70 1.404 . S
C71 C72 1.389 . S
C72 C71 1.389 . S
C72 C73 1.399 . S
C72 H85 0.931 . S
C73 C72 1.399 . S
C73 C74 1.390 . S
C74 C69 1.392 . S
C74 C73 1.390 . S
C74 H86 0.929 . S
O75 Tb59 2.326 . S
O75 C63 1.242 . S
O76 Eu60 2.324 . S
O76 C63 1.258 . S
O77 Tb59 2.500 . S
O77 C79 1.273 . S
O78 Tb59 2.473 . S
O78 C79 1.257 . S
C79 O77 1.273 . S
C79 O78 1.257 . S
O80 Eu60 2.326 . S
O80 C68 1.242 . S
O81 Tb59 2.324 . S
O81 C68 1.258 . S
O82 Eu60 2.500 . S
O82 C65 1.273 . S
O83 Eu60 2.473 . S
O83 C65 1.257 . S
H84 C70 0.929 . S
H85 C72 0.931 . S
H86 C74 0.929 . S
O87 Tb88 2.304 . S
O87 C90 1.255 . S
Tb88 O87 2.304 . S
Tb88 O104 2.322 1_554 S
Tb88 O106 2.503 . S
Tb88 O107 2.466 1_554 S
Tb88 O110 2.314 1_554 S
Eu89 O93 2.292 . S
Eu89 C94 2.852 . S
Eu89 O105 2.324 . S
Eu89 O109 2.326 . S
Eu89 O111 2.500 . S
Eu89 O112 2.473 . S
C90 O87 1.255 . S
C90 O91 1.247 . S
O91 C90 1.247 . S
C92 O104 1.242 . S
C92 O105 1.258 . S
O93 Eu89 2.292 . S
O93 C95 1.255 . S
C94 Eu89 2.852 . S
C94 C98 1.503 . S
C94 O111 1.273 . S
C94 O112 1.257 . S
C95 O93 1.255 . S
C95 O96 1.247 . S
O96 C95 1.247 . S
C97 O109 1.242 . S
C97 O110 1.258 . S
C98 C94 1.503 . S
C98 C99 1.379 . S
C98 C103 1.392 . S
C99 C98 1.379 . S
C99 C100 1.404 . S
C99 H113 0.929 . S
C100 C99 1.404 . S
C100 C101 1.389 . S
C101 C100 1.389 . S
C101 C102 1.399 . S
C101 H114 0.931 . S
C102 C101 1.399 . S
C102 C103 1.390 . S
C103 C98 1.392 . S
C103 C102 1.390 . S
C103 H115 0.929 . S
O104 Tb88 2.322 1_556 S
O104 C92 1.242 . S
O105 Eu89 2.324 . S
O105 C92 1.258 . S
O106 Tb88 2.503 . S
O106 C108 1.273 1_554 S
O107 Tb88 2.466 1_556 S
O107 C108 1.257 . S
C108 O106 1.273 1_556 S
C108 O107 1.257 . S
O109 Eu89 2.326 . S
O109 C97 1.242 . S
O110 Tb88 2.314 1_556 S
O110 C97 1.258 . S
O111 Eu89 2.500 . S
O111 C94 1.273 . S
O112 Eu89 2.473 . S
O112 C94 1.257 . S
H113 C99 0.929 . S
H114 C101 0.931 . S
H115 C103 0.929 . S
O116 Tb117 2.292 . S
O116 C119 1.255 . S
Tb117 O116 2.292 . S
Tb117 O133 2.326 . S
Tb117 O135 2.500 . S
Tb117 O136 2.473 . S
Tb117 O139 2.324 . S
Eu118 O122 2.292 . S
Eu118 C123 2.852 . S
Eu118 O134 2.324 . S
Eu118 O138 2.326 . S
Eu118 O140 2.500 . S
Eu118 O141 2.473 . S
C119 O116 1.255 . S
C119 O120 1.247 . S
O120 C119 1.247 . S
C121 O133 1.242 . S
C121 O134 1.258 . S
O122 Eu118 2.292 . S
O122 C124 1.255 . S
C123 Eu118 2.852 . S
C123 C127 1.503 . S
C123 O140 1.273 . S
C123 O141 1.257 . S
C124 O122 1.255 . S
C124 O125 1.247 . S
O125 C124 1.247 . S
C126 O138 1.242 . S
C126 O139 1.258 . S
C127 C123 1.503 . S
C127 C128 1.379 . S
C127 C132 1.392 . S
C128 C127 1.379 . S
C128 C129 1.404 . S
C128 H142 0.929 . S
C129 C128 1.404 . S
C129 C130 1.389 . S
C130 C129 1.389 . S
C130 C131 1.399 . S
C130 H143 0.931 . S
C131 C130 1.399 . S
C131 C132 1.390 . S
C132 C127 1.392 . S
C132 C131 1.390 . S
C132 H144 0.929 . S
O133 Tb117 2.326 . S
O133 C121 1.242 . S
O134 Eu118 2.324 . S
O134 C121 1.258 . S
O135 Tb117 2.500 . S
O135 C137 1.273 . S
O136 Tb117 2.473 . S
O136 C137 1.257 . S
C137 O135 1.273 . S
C137 O136 1.257 . S
O138 Eu118 2.326 . S
O138 C126 1.242 . S
O139 Tb117 2.324 . S
O139 C126 1.258 . S
O140 Eu118 2.500 . S
O140 C123 1.273 . S
O141 Eu118 2.473 . S
O141 C123 1.257 . S
H142 C128 0.929 . S
H143 C130 0.931 . S
H144 C132 0.929 . S
O145 Tb146 2.292 . S
O145 C148 1.255 . S
Tb146 O145 2.292 . S
Tb146 O162 2.326 . S
Tb146 O164 2.500 . S
Tb146 O165 2.473 . S
Tb146 O168 2.324 . S
Eu147 O151 2.292 . S
Eu147 C152 2.852 . S
Eu147 O163 2.324 . S
Eu147 O167 2.326 . S
Eu147 O169 2.500 . S
Eu147 O170 2.473 . S
C148 O145 1.255 . S
C148 O149 1.247 . S
O149 C148 1.247 . S
C150 O162 1.242 . S
C150 O163 1.258 . S
O151 Eu147 2.292 . S
O151 C153 1.255 . S
C152 Eu147 2.852 . S
C152 C156 1.503 . S
C152 O169 1.273 . S
C152 O170 1.257 . S
C153 O151 1.255 . S
C153 O154 1.247 . S
O154 C153 1.247 . S
C155 O167 1.242 . S
C155 O168 1.258 . S
C156 C152 1.503 . S
C156 C157 1.379 . S
C156 C161 1.392 . S
C157 C156 1.379 . S
C157 C158 1.404 . S
C157 H171 0.929 . S
C158 C157 1.404 . S
C158 C159 1.389 . S
C159 C158 1.389 . S
C159 C160 1.399 . S
C159 H172 0.931 . S
C160 C159 1.399 . S
C160 C161 1.390 . S
C161 C156 1.392 . S
C161 C160 1.390 . S
C161 H173 0.929 . S
O162 Tb146 2.326 . S
O162 C150 1.242 . S
O163 Eu147 2.324 . S
O163 C150 1.258 . S
O164 Tb146 2.500 . S
O164 C166 1.273 . S
O165 Tb146 2.473 . S
O165 C166 1.257 . S
C166 O164 1.273 . S
C166 O165 1.257 . S
O167 Eu147 2.326 . S
O167 C155 1.242 . S
O168 Tb146 2.324 . S
O168 C155 1.258 . S
O169 Eu147 2.500 . S
O169 C152 1.273 . S
O170 Eu147 2.473 . S
O170 C152 1.257 . S
H171 C157 0.929 . S
H172 C159 0.931 . S
H173 C161 0.929 . S
H174 C182 0.926 1_554 S
H175 C184 0.930 . S
H176 C186 0.930 . S
H177 C189 0.929 . S
H178 C192 0.930 . S
H179 C194 0.960 . S
H180 C194 0.960 . S
H181 C194 0.960 . S
C182 H174 0.926 1_556 S
C182 C183 1.377 . S
C182 C184 1.384 . S
C183 C182 1.377 . S
C183 C189 1.390 . S
C184 H175 0.930 . S
C184 C182 1.384 . S
C184 C185 1.372 . S
C185 C184 1.372 . S
C185 C186 1.400 . S
C185 C190 1.490 . S
C186 H176 0.930 . S
C186 C185 1.400 . S
C186 C189 1.386 . S
H187 C203 0.930 . S
H188 C204 0.931 . S
C189 H177 0.929 . S
C189 C183 1.390 . S
C189 C186 1.386 . S
C190 C185 1.490 . S
C190 C192 1.395 1_455 S
C190 C193 1.403 . S
H191 C197 0.930 . S
C192 H178 0.930 . S
C192 C190 1.395 1_655 S
C192 C195 1.403 . S
C193 C190 1.403 . S
C193 C194 1.524 . S
C193 C197 1.400 1_455 S
C194 H179 0.960 . S
C194 H180 0.960 . S
C194 H181 0.960 . S
C194 C193 1.524 . S
C195 C192 1.403 . S
C195 C196 1.392 . S
C195 C199 1.495 . S
C196 C195 1.392 . S
C196 C197 1.385 . S
C196 C198 1.478 . S
C197 H191 0.930 . S
C197 C193 1.400 1_655 S
C197 C196 1.385 . S
C198 C196 1.478 . S
C198 C200 1.381 . S
C198 C204 1.383 . S
C199 C195 1.495 . S
C199 H205 0.959 . S
C199 H206 0.961 . S
C199 H207 0.960 . S
C200 C198 1.381 . S
C200 C201 1.394 . S
C200 H208 0.930 . S
C201 C200 1.394 . S
C201 C202 1.383 . S
C201 H209 0.929 . S
C202 C201 1.383 . S
C202 C203 1.377 . S
C203 H187 0.930 . S
C203 C202 1.377 . S
C203 C204 1.379 . S
C204 H188 0.931 . S
C204 C198 1.383 . S
C204 C203 1.379 . S
H205 C199 0.959 . S
H206 C199 0.961 . S
H207 C199 0.960 . S
H208 C200 0.930 . S
H209 C201 0.929 . S
H210 C218 0.929 . S
H211 C220 0.930 . S
H212 C222 0.930 . S
H213 C225 0.929 . S
H214 C228 0.930 . S
H215 C230 0.960 . S
H216 C230 0.960 . S
H217 C230 0.960 . S
C218 H210 0.929 . S
C218 C219 1.377 . S
C218 C220 1.384 . S
C219 C218 1.377 . S
C219 C225 1.390 . S
C220 H211 0.930 . S
C220 C218 1.384 . S
C220 C221 1.372 . S
C221 C220 1.372 . S
C221 C222 1.400 . S
C221 C226 1.490 . S
C222 H212 0.930 . S
C222 C221 1.400 . S
C222 C225 1.386 . S
H223 C239 0.930 . S
H224 C240 0.931 . S
C225 H213 0.929 . S
C225 C219 1.390 . S
C225 C222 1.386 . S
C226 C221 1.490 . S
C226 C228 1.395 . S
C226 C229 1.403 . S
H227 C233 0.930 . S
C228 H214 0.930 . S
C228 C226 1.395 . S
C228 C231 1.403 . S
C229 C226 1.403 . S
C229 C230 1.524 . S
C229 C233 1.400 . S
C230 H215 0.960 . S
C230 H216 0.960 . S
C230 H217 0.960 . S
C230 C229 1.524 . S
C231 C228 1.403 . S
C231 C232 1.392 . S
C231 C235 1.495 . S
C232 C231 1.392 . S
C232 C233 1.385 . S
C232 C234 1.478 . S
C233 H227 0.930 . S
C233 C229 1.400 . S
C233 C232 1.385 . S
C234 C232 1.478 . S
C234 C236 1.381 . S
C234 C240 1.383 . S
C235 C231 1.495 . S
C235 H241 0.959 . S
C235 H242 0.961 . S
C235 H243 0.960 . S
C236 C234 1.381 . S
C236 C237 1.394 . S
C236 H244 0.930 . S
C237 C236 1.394 . S
C237 C238 1.383 . S
C237 H245 0.929 . S
C238 C237 1.383 . S
C238 C239 1.377 . S
C239 H223 0.930 . S
C239 C238 1.377 . S
C239 C240 1.379 . S
C240 H224 0.931 . S
C240 C234 1.383 . S
C240 C239 1.379 . S
H241 C235 0.959 . S
H242 C235 0.961 . S
H243 C235 0.960 . S
H244 C236 0.930 . S
H245 C237 0.929 . S
H246 C254 0.929 . S
H247 C256 0.930 . S
H248 C258 0.930 . S
H249 C261 0.929 . S
H250 C264 0.930 . S
H251 C266 0.960 . S
H252 C266 0.960 . S
H253 C266 0.960 . S
C254 H246 0.929 . S
C254 C255 1.377 . S
C254 C256 1.384 . S
C255 C254 1.377 . S
C255 C261 1.390 . S
C256 H247 0.930 . S
C256 C254 1.384 . S
C256 C257 1.372 . S
C257 C256 1.372 . S
C257 C258 1.400 . S
C257 C262 1.490 . S
C258 H248 0.930 . S
C258 C257 1.400 . S
C258 C261 1.386 . S
H259 C275 0.930 . S
H260 C276 0.931 . S
C261 H249 0.929 . S
C261 C255 1.390 . S
C261 C258 1.386 . S
C262 C257 1.490 . S
C262 C264 1.395 . S
C262 C265 1.403 . S
H263 C269 0.930 . S
C264 H250 0.930 . S
C264 C262 1.395 . S
C264 C267 1.403 1_565 S
C265 C262 1.403 . S
C265 C266 1.524 . S
C265 C269 1.400 1_565 S
C266 H251 0.960 . S
C266 H252 0.960 . S
C266 H253 0.960 . S
C266 C265 1.524 . S
C267 C264 1.403 1_545 S
C267 C268 1.392 . S
C267 C271 1.495 . S
C268 C267 1.392 . S
C268 C269 1.385 . S
C268 C270 1.478 . S
C269 H263 0.930 . S
C269 C265 1.400 1_545 S
C269 C268 1.385 . S
C270 C268 1.478 . S
C270 C272 1.381 . S
C270 C276 1.383 . S
C271 C267 1.495 . S
C271 H277 0.959 . S
C271 H278 0.961 . S
C271 H279 0.960 . S
C272 C270 1.381 . S
C272 C273 1.392 1_554 S
C272 H280 0.930 . S
C273 C272 1.392 1_556 S
C273 C274 1.382 1_556 S
C273 H281 0.933 . S
C274 C273 1.382 1_554 S
C274 C275 1.377 . S
C275 H259 0.930 . S
C275 C274 1.377 . S
C275 C276 1.379 . S
C276 H260 0.931 . S
C276 C270 1.383 . S
C276 C275 1.379 . S
H277 C271 0.959 . S
H278 C271 0.961 . S
H279 C271 0.960 . S
H280 C272 0.930 . S
H281 C273 0.933 . S
H282 C290 0.929 . S
H283 C292 0.930 . S
H284 C294 0.930 . S
H285 C297 0.929 . S
H286 C300 0.930 . S
H287 C302 0.960 . S
H288 C302 0.960 . S
H289 C302 0.960 . S
C290 H282 0.929 . S
C290 C291 1.377 . S
C290 C292 1.384 . S
C291 C290 1.377 . S
C291 C297 1.390 . S
C292 H283 0.930 . S
C292 C290 1.384 . S
C292 C293 1.372 . S
C293 C292 1.372 . S
C293 C294 1.400 . S
C293 C298 1.490 . S
C294 H284 0.930 . S
C294 C293 1.400 . S
C294 C297 1.386 . S
H295 C311 0.930 . S
H296 C312 0.931 . S
C297 H285 0.929 . S
C297 C291 1.390 . S
C297 C294 1.386 . S
C298 C293 1.490 . S
C298 C300 1.395 . S
C298 C301 1.403 . S
H299 C305 0.930 . S
C300 H286 0.930 . S
C300 C298 1.395 . S
C300 C303 1.403 . S
C301 C298 1.403 . S
C301 C302 1.524 . S
C301 C305 1.400 . S
C302 H287 0.960 . S
C302 H288 0.960 . S
C302 H289 0.960 . S
C302 C301 1.524 . S
C303 C300 1.403 . S
C303 C304 1.392 . S
C303 C307 1.495 . S
C304 C303 1.392 . S
C304 C305 1.385 . S
C304 C306 1.478 . S
C305 H299 0.930 . S
C305 C301 1.400 . S
C305 C304 1.385 . S
C306 C304 1.478 . S
C306 C308 1.381 . S
C306 C312 1.383 . S
C307 C303 1.495 . S
C307 H313 0.959 . S
C307 H314 0.961 . S
C307 H315 0.960 . S
C308 C306 1.381 . S
C308 C309 1.394 . S
C308 H316 0.930 . S
C309 C308 1.394 . S
C309 C310 1.383 . S
C309 H317 0.929 . S
C310 C309 1.383 . S
C310 C311 1.377 . S
C311 H295 0.930 . S
C311 C310 1.377 . S
C311 C312 1.379 . S
C312 H296 0.931 . S
C312 C306 1.383 . S
C312 C311 1.379 . S
H313 C307 0.959 . S
H314 C307 0.961 . S
H315 C307 0.960 . S
H316 C308 0.930 . S
H317 C309 0.929 . S
H318 C326 0.929 . S
H319 C328 0.930 . S
H320 C330 0.930 . S
H321 C333 0.929 . S
H322 C336 0.930 . S
H323 C338 0.960 . S
H324 C338 0.960 . S
H325 C338 0.960 . S
C326 H318 0.929 . S
C326 C327 1.377 1_556 S
C326 C328 1.384 . S
C327 C326 1.377 1_554 S
C327 C333 1.390 . S
C328 H319 0.930 . S
C328 C326 1.384 . S
C328 C329 1.372 . S
C329 C328 1.372 . S
C329 C330 1.400 1_556 S
C329 C334 1.490 . S
C330 H320 0.930 . S
C330 C329 1.400 1_554 S
C330 C333 1.386 . S
H331 C347 0.930 . S
H332 C348 0.931 . S
C333 H321 0.929 . S
C333 C327 1.390 . S
C333 C330 1.386 . S
C334 C329 1.490 . S
C334 C336 1.395 . S
C334 C337 1.403 . S
H335 C341 0.930 . S
C336 H322 0.930 . S
C336 C334 1.395 . S
C336 C339 1.403 . S
C337 C334 1.403 . S
C337 C338 1.524 . S
C337 C341 1.400 . S
C338 H323 0.960 . S
C338 H324 0.960 . S
C338 H325 0.960 . S
C338 C337 1.524 . S
C339 C336 1.403 . S
C339 C340 1.392 . S
C339 C343 1.495 . S
C340 C339 1.392 . S
C340 C341 1.385 . S
C340 C342 1.478 . S
C341 H335 0.930 . S
C341 C337 1.400 . S
C341 C340 1.385 . S
C342 C340 1.478 . S
C342 C344 1.381 . S
C342 C348 1.383 . S
C343 C339 1.495 . S
C343 H349 0.959 . S
C343 H350 0.961 . S
C343 H351 0.960 . S
C344 C342 1.381 . S
C344 C345 1.394 . S
C344 H352 0.930 . S
C345 C344 1.394 . S
C345 C346 1.383 . S
C345 H353 0.929 . S
C346 C345 1.383 . S
C346 C347 1.377 . S
C347 H331 0.930 . S
C347 C346 1.377 . S
C347 C348 1.379 . S
C348 H332 0.931 . S
C348 C342 1.383 . S
C348 C347 1.379 . S
H349 C343 0.959 . S
H350 C343 0.961 . S
H351 C343 0.960 . S
H352 C344 0.930 . S
H353 C345 0.929 . S
H354 C362 0.929 . S
H355 C364 0.930 . S
H356 C366 0.930 . S
H357 C369 0.929 . S
H358 C372 0.930 . S
H359 C374 0.960 . S
H360 C374 0.960 . S
H361 C374 0.960 . S
C362 H354 0.929 . S
C362 C363 1.377 . S
C362 C364 1.384 . S
C363 C362 1.377 . S
C363 C369 1.390 . S
C364 H355 0.930 . S
C364 C362 1.384 . S
C364 C365 1.372 . S
C365 C364 1.372 . S
C365 C366 1.400 . S
C365 C370 1.490 . S
C366 H356 0.930 . S
C366 C365 1.400 . S
C366 C369 1.386 . S
H367 C383 0.930 . S
H368 C384 0.931 . S
C369 H357 0.929 . S
C369 C363 1.390 . S
C369 C366 1.386 . S
C370 C365 1.490 . S
C370 C372 1.395 . S
C370 C373 1.403 . S
H371 C377 0.930 . S
C372 H358 0.930 . S
C372 C370 1.395 . S
C372 C375 1.403 . S
C373 C370 1.403 . S
C373 C374 1.524 . S
C373 C377 1.400 . S
C374 H359 0.960 . S
C374 H360 0.960 . S
C374 H361 0.960 . S
C374 C373 1.524 . S
C375 C372 1.403 . S
C375 C376 1.392 . S
C375 C379 1.495 . S
C376 C375 1.392 . S
C376 C377 1.385 . S
C376 C378 1.478 . S
C377 H371 0.930 . S
C377 C373 1.400 . S
C377 C376 1.385 . S
C378 C376 1.478 . S
C378 C380 1.381 . S
C378 C384 1.383 . S
C379 C375 1.495 . S
C379 H385 0.959 . S
C379 H386 0.961 . S
C379 H387 0.960 . S
C380 C378 1.381 . S
C380 C381 1.394 . S
C380 H388 0.930 . S
C381 C380 1.394 . S
C381 C382 1.383 . S
C381 H389 0.929 . S
C382 C381 1.383 . S
C382 C383 1.377 . S
C383 H367 0.930 . S
C383 C382 1.377 . S
C383 C384 1.379 . S
C384 H368 0.931 . S
C384 C378 1.383 . S
C384 C383 1.379 . S
H385 C379 0.959 . S
H386 C379 0.961 . S
H387 C379 0.960 . S
H388 C380 0.930 . S
H389 C381 0.929 . S
H390 C398 0.929 . S
H391 C400 0.930 . S
H392 C402 0.930 . S
H393 C405 0.929 . S
H394 C408 0.930 . S
H395 C410 0.960 . S
H396 C410 0.960 . S
H397 C410 0.960 . S
C398 H390 0.929 . S
C398 C399 1.377 . S
C398 C400 1.384 . S
C399 C398 1.377 . S
C399 C405 1.390 . S
C400 H391 0.930 . S
C400 C398 1.384 . S
C400 C401 1.372 . S
C401 C400 1.372 . S
C401 C402 1.400 . S
C401 C406 1.490 . S
C402 H392 0.930 . S
C402 C401 1.400 . S
C402 C405 1.386 . S
H403 C419 0.930 . S
H404 C420 0.931 . S
C405 H393 0.929 . S
C405 C399 1.390 . S
C405 C402 1.386 . S
C406 C401 1.490 . S
C406 C408 1.395 . S
C406 C409 1.403 . S
H407 C413 0.930 . S
C408 H394 0.930 . S
C408 C406 1.395 . S
C408 C411 1.403 . S
C409 C406 1.403 . S
C409 C410 1.524 . S
C409 C413 1.400 . S
C410 H395 0.960 . S
C410 H396 0.960 . S
C410 H397 0.960 . S
C410 C409 1.524 . S
C411 C408 1.403 . S
C411 C412 1.392 . S
C411 C415 1.495 . S
C412 C411 1.392 . S
C412 C413 1.385 . S
C412 C414 1.478 . S
C413 H407 0.930 . S
C413 C409 1.400 . S
C413 C412 1.385 . S
C414 C412 1.478 . S
C414 C416 1.381 . S
C414 C420 1.383 . S
C415 C411 1.495 . S
C415 H421 0.959 . S
C415 H422 0.961 . S
C415 H423 0.960 . S
C416 C414 1.381 . S
C416 C417 1.394 . S
C416 H424 0.930 . S
C417 C416 1.394 . S
C417 C418 1.383 . S
C417 H425 0.929 . S
C418 C417 1.383 . S
C418 C419 1.377 . S
C419 H403 0.930 . S
C419 C418 1.377 . S
C419 C420 1.379 . S
C420 H404 0.931 . S
C420 C414 1.383 . S
C420 C419 1.379 . S
H421 C415 0.959 . S
H422 C415 0.961 . S
H423 C415 0.960 . S
H424 C416 0.930 . S
H425 C417 0.929 . S
H426 C434 0.929 . S
H427 C436 0.930 . S
H428 C438 0.930 . S
H429 C441 0.929 . S
H430 C444 0.930 . S
H431 C446 0.960 . S
H432 C446 0.960 . S
H433 C446 0.960 . S
C434 H426 0.929 . S
C434 C435 1.377 . S
C434 C436 1.384 . S
C435 C434 1.377 . S
C435 C441 1.390 . S
C436 H427 0.930 . S
C436 C434 1.384 . S
C436 C437 1.372 . S
C437 C436 1.372 . S
C437 C438 1.400 . S
C437 C442 1.490 . S
C438 H428 0.930 . S
C438 C437 1.400 . S
C438 C441 1.386 . S
H439 C455 0.930 . S
H440 C456 0.931 . S
C441 H429 0.929 . S
C441 C435 1.390 . S
C441 C438 1.386 . S
C442 C437 1.490 . S
C442 C444 1.395 . S
C442 C445 1.403 . S
H443 C449 0.930 . S
C444 H430 0.930 . S
C444 C442 1.395 . S
C444 C447 1.403 . S
C445 C442 1.403 . S
C445 C446 1.524 . S
C445 C449 1.400 . S
C446 H431 0.960 . S
C446 H432 0.960 . S
C446 H433 0.960 . S
C446 C445 1.524 . S
C447 C444 1.403 . S
C447 C448 1.392 . S
C447 C451 1.495 . S
C448 C447 1.392 . S
C448 C449 1.385 . S
C448 C450 1.478 . S
C449 H443 0.930 . S
C449 C445 1.400 . S
C449 C448 1.385 . S
C450 C448 1.478 . S
C450 C452 1.381 . S
C450 C456 1.383 . S
C451 C447 1.495 . S
C451 H457 0.959 . S
C451 H458 0.961 . S
C451 H459 0.960 . S
C452 C450 1.381 . S
C452 C453 1.394 . S
C452 H460 0.930 . S
C453 C452 1.394 . S
C453 C454 1.383 . S
C453 H461 0.929 . S
C454 C453 1.383 . S
C454 C455 1.377 . S
C455 H439 0.930 . S
C455 C454 1.377 . S
C455 C456 1.379 . S
C456 H440 0.931 . S
C456 C450 1.383 . S
C456 C455 1.379 . S
H457 C451 0.959 . S
H458 C451 0.961 . S
H459 C451 0.960 . S
H460 C452 0.930 . S
H461 C453 0.929 . S
H462 C470 0.929 . S
H463 C472 0.930 . S
H464 C474 0.930 . S
H465 C477 0.929 . S
H466 C480 0.930 . S
H467 C482 0.960 . S
H468 C482 0.960 . S
H469 C482 0.960 . S
C470 H462 0.929 . S
C470 C471 1.377 1_554 S
C470 C472 1.384 . S
C471 C470 1.377 1_556 S
C471 C477 1.390 . S
C472 H463 0.930 . S
C472 C470 1.384 . S
C472 C473 1.372 . S
C473 C472 1.372 . S
C473 C474 1.400 1_554 S
C473 C478 1.490 . S
C474 H464 0.930 . S
C474 C473 1.400 1_556 S
C474 C477 1.386 . S
H475 C491 0.930 . S
H476 C492 0.931 . S
C477 H465 0.929 . S
C477 C471 1.390 . S
C477 C474 1.386 . S
C478 C473 1.490 . S
C478 C480 1.395 . S
C478 C481 1.403 . S
H479 C485 0.930 . S
C480 H466 0.930 . S
C480 C478 1.395 . S
C480 C483 1.403 . S
C481 C478 1.403 . S
C481 C482 1.524 . S
C481 C485 1.400 . S
C482 H467 0.960 . S
C482 H468 0.960 . S
C482 H469 0.960 . S
C482 C481 1.524 . S
C483 C480 1.403 . S
C483 C484 1.392 . S
C483 C487 1.495 . S
C484 C483 1.392 . S
C484 C485 1.385 . S
C484 C486 1.478 . S
C485 H479 0.930 . S
C485 C481 1.400 . S
C485 C484 1.385 . S
C486 C484 1.478 . S
C486 C488 1.381 . S
C486 C492 1.383 . S
C487 C483 1.495 . S
C487 H493 0.959 . S
C487 H494 0.961 . S
C487 H495 0.960 . S
C488 C486 1.381 . S
C488 C489 1.394 . S
C488 H496 0.930 . S
C489 C488 1.394 . S
C489 C490 1.383 . S
C489 H497 0.929 . S
C490 C489 1.383 . S
C490 C491 1.377 . S
C491 H475 0.930 . S
C491 C490 1.377 . S
C491 C492 1.379 . S
C492 H476 0.931 . S
C492 C486 1.383 . S
C492 C491 1.379 . S
H493 C487 0.959 . S
H494 C487 0.961 . S
H495 C487 0.960 . S
H496 C488 0.930 . S
H497 C489 0.929 . S
H498 C506 0.929 . S
H499 C508 0.930 . S
H500 C510 0.930 . S
H501 C513 0.929 . S
H502 C516 0.930 . S
H503 C518 0.931 1_455 S
H504 C518 0.962 . S
H505 C518 0.979 . S
C506 H498 0.929 . S
C506 C507 1.377 . S
C506 C508 1.384 . S
C507 C506 1.377 . S
C507 C513 1.390 . S
C508 H499 0.930 . S
C508 C506 1.384 . S
C508 C509 1.372 . S
C509 C508 1.372 . S
C509 C510 1.400 . S
C509 C514 1.490 . S
C510 H500 0.930 . S
C510 C509 1.400 . S
C510 C513 1.386 . S
H511 C527 0.930 . S
H512 C528 0.931 . S
C513 H501 0.929 . S
C513 C507 1.390 . S
C513 C510 1.386 . S
C514 C509 1.490 . S
C514 C516 1.395 . S
C514 C517 1.403 . S
H515 C521 0.930 . S
C516 H502 0.930 . S
C516 C514 1.395 . S
C516 C519 1.403 . S
C517 C514 1.403 . S
C517 C518 1.533 . S
C517 C521 1.400 1_655 S
C518 H503 0.931 1_655 S
C518 H504 0.962 . S
C518 H505 0.979 . S
C518 C517 1.533 . S
C519 C516 1.403 . S
C519 C520 1.392 1_655 S
C519 C523 1.495 . S
C520 C519 1.392 1_455 S
C520 C521 1.385 . S
C520 C522 1.478 . S
C521 H515 0.930 . S
C521 C517 1.400 1_455 S
C521 C520 1.385 . S
C522 C520 1.478 . S
C522 C524 1.381 . S
C522 C528 1.383 . S
C523 C519 1.495 . S
C523 H529 0.959 . S
C523 H530 0.961 . S
C523 H531 0.960 . S
C524 C522 1.381 . S
C524 C525 1.394 . S
C524 H532 0.930 . S
C525 C524 1.394 . S
C525 C526 1.383 . S
C525 H533 0.929 . S
C526 C525 1.383 . S
C526 C527 1.377 . S
C527 H511 0.930 . S
C527 C526 1.377 . S
C527 C528 1.379 . S
C528 H512 0.931 . S
C528 C522 1.383 . S
C528 C527 1.379 . S
H529 C523 0.959 . S
H530 C523 0.961 . S
H531 C523 0.960 . S
H532 C524 0.930 . S
H533 C525 0.929 . S
H534 C542 0.929 . S
H535 C544 0.930 . S
H536 C546 0.930 . S
H537 C549 0.929 . S
H538 C552 0.930 . S
H539 C554 0.960 . S
H540 C554 0.960 . S
H541 C554 0.960 . S
C542 H534 0.929 . S
C542 C543 1.377 . S
C542 C544 1.384 . S
C543 C542 1.377 . S
C543 C549 1.390 . S
C544 H535 0.930 . S
C544 C542 1.384 . S
C544 C545 1.372 . S
C545 C544 1.372 . S
C545 C546 1.400 . S
C545 C550 1.490 . S
C546 H536 0.930 . S
C546 C545 1.400 . S
C546 C549 1.386 . S
H547 C563 0.930 . S
H548 C564 0.931 . S
C549 H537 0.929 . S
C549 C543 1.390 . S
C549 C546 1.386 . S
C550 C545 1.490 . S
C550 C552 1.395 . S
C550 C553 1.403 1_554 S
H551 C557 0.930 . S
C552 H538 0.930 . S
C552 C550 1.395 . S
C552 C555 1.403 . S
C553 C550 1.403 1_556 S
C553 C554 1.524 . S
C553 C557 1.400 . S
C554 H539 0.960 . S
C554 H540 0.960 . S
C554 H541 0.960 . S
C554 C553 1.524 . S
C555 C552 1.403 . S
C555 C556 1.392 1_554 S
C555 C559 1.495 . S
C556 C555 1.392 1_556 S
C556 C557 1.385 . S
C556 C558 1.478 . S
C557 H551 0.930 . S
C557 C553 1.400 . S
C557 C556 1.385 . S
C558 C556 1.478 . S
C558 C560 1.381 . S
C558 C564 1.383 . S
C559 C555 1.495 . S
C559 H565 0.959 . S
C559 H566 0.961 . S
C559 H567 0.960 . S
C560 C558 1.381 . S
C560 C561 1.394 . S
C560 H568 0.930 . S
C561 C560 1.394 . S
C561 C562 1.383 . S
C561 H569 0.929 . S
C562 C561 1.383 . S
C562 C563 1.377 . S
C563 H547 0.930 . S
C563 C562 1.377 . S
C563 C564 1.379 . S
C564 H548 0.931 . S
C564 C558 1.383 . S
C564 C563 1.379 . S
H565 C559 0.959 . S
H566 C559 0.961 . S
H567 C559 0.960 . S
H568 C560 0.930 . S
H569 C561 0.929 . S
H570 C578 0.929 . S
H571 C580 0.930 . S
H572 C582 0.930 . S
H573 C585 0.929 . S
H574 C588 0.930 . S
H575 C590 0.960 . S
H576 C590 0.960 1_545 S
H577 C590 0.961 1_545 S
C578 H570 0.929 . S
C578 C579 1.377 . S
C578 C580 1.384 . S
C579 C578 1.377 . S
C579 C585 1.390 . S
C580 H571 0.930 . S
C580 C578 1.384 . S
C580 C581 1.372 . S
C581 C580 1.372 . S
C581 C582 1.400 . S
C581 C586 1.490 . S
C582 H572 0.930 . S
C582 C581 1.400 . S
C582 C585 1.386 . S
H583 C599 0.930 . S
H584 C600 0.931 . S
C585 H573 0.929 . S
C585 C579 1.390 . S
C585 C582 1.386 . S
C586 C581 1.490 . S
C586 C588 1.395 . S
C586 C589 1.403 1_545 S
H587 C593 0.930 . S
C588 H574 0.930 . S
C588 C586 1.395 . S
C588 C591 1.403 1_545 S
C589 C586 1.403 1_565 S
C589 C590 1.524 . S
C589 C593 1.400 . S
C590 H575 0.960 . S
C590 H576 0.960 1_565 S
C590 H577 0.961 1_565 S
C590 C589 1.524 . S
C591 C588 1.403 1_565 S
C591 C592 1.392 . S
C591 C595 1.495 . S
C592 C591 1.392 . S
C592 C593 1.385 . S
C592 C594 1.478 . S
C593 H587 0.930 . S
C593 C589 1.400 . S
C593 C592 1.385 . S
C594 C592 1.478 . S
C594 C596 1.381 . S
C594 C600 1.383 . S
C595 C591 1.495 . S
C595 H601 0.959 1_565 S
C595 H602 0.961 . S
C595 H603 0.960 . S
C596 C594 1.381 . S
C596 C597 1.394 . S
C596 H604 0.930 . S
C597 C596 1.394 . S
C597 C598 1.383 . S
C597 H605 0.929 . S
C598 C597 1.383 . S
C598 C599 1.377 . S
C599 H583 0.930 . S
C599 C598 1.377 . S
C599 C600 1.379 . S
C600 H584 0.931 . S
C600 C594 1.383 . S
C600 C599 1.379 . S
H601 C595 0.959 1_545 S
H602 C595 0.961 . S
H603 C595 0.960 . S
H604 C596 0.930 . S
H605 C597 0.929 . S
H606 C614 0.929 . S
H607 C616 0.930 . S
H608 C618 0.930 . S
H609 C621 0.929 . S
H610 C624 0.930 . S
H611 C626 0.960 . S
H612 C626 0.960 . S
H613 C626 0.960 . S
C614 H606 0.929 . S
C614 C615 1.377 1_556 S
C614 C616 1.384 . S
C615 C614 1.377 1_554 S
C615 C621 1.390 . S
C616 H607 0.930 . S
C616 C614 1.384 . S
C616 C617 1.372 1_556 S
C617 C616 1.372 1_554 S
C617 C618 1.400 . S
C617 C622 1.490 . S
C618 H608 0.930 . S
C618 C617 1.400 . S
C618 C621 1.386 . S
H619 C635 0.930 . S
H620 C636 0.931 . S
C621 H609 0.929 . S
C621 C615 1.390 . S
C621 C618 1.386 . S
C622 C617 1.490 . S
C622 C624 1.395 . S
C622 C625 1.403 1_554 S
H623 C629 0.930 . S
C624 H610 0.930 . S
C624 C622 1.395 . S
C624 C627 1.403 . S
C625 C622 1.403 1_556 S
C625 C626 1.524 . S
C625 C629 1.400 . S
C626 H611 0.960 . S
C626 H612 0.960 . S
C626 H613 0.960 . S
C626 C625 1.524 . S
C627 C624 1.403 . S
C627 C628 1.392 1_554 S
C627 C631 1.495 . S
C628 C627 1.392 1_556 S
C628 C629 1.385 . S
C628 C630 1.478 . S
C629 H623 0.930 . S
C629 C625 1.400 . S
C629 C628 1.385 . S
C630 C628 1.478 . S
C630 C632 1.381 . S
C630 C636 1.383 1_556 S
C631 C627 1.495 . S
C631 H637 0.959 . S
C631 H638 0.961 . S
C631 H639 0.960 . S
C632 C630 1.381 . S
C632 C633 1.394 . S
C632 H640 0.930 . S
C633 C632 1.394 . S
C633 C634 1.383 . S
C633 H641 0.929 . S
C634 C633 1.383 . S
C634 C635 1.377 1_556 S
C635 H619 0.930 . S
C635 C634 1.377 1_554 S
C635 C636 1.379 . S
C636 H620 0.931 . S
C636 C630 1.383 1_554 S
C636 C635 1.379 . S
H637 C631 0.959 . S
H638 C631 0.961 . S
H639 C631 0.960 . S
H640 C632 0.930 . S
H641 C633 0.929 . S
H642 C650 0.929 . S
H643 C652 0.930 . S
H644 C654 0.930 . S
H645 C657 0.929 . S
H646 C660 0.930 . S
H647 C662 0.960 . S
H648 C662 0.960 . S
H649 C662 0.960 . S
C650 H642 0.929 . S
C650 C651 1.377 . S
C650 C652 1.384 . S
C651 C650 1.377 . S
C651 C657 1.390 . S
C652 H643 0.930 . S
C652 C650 1.384 . S
C652 C653 1.372 . S
C653 C652 1.372 . S
C653 C654 1.400 . S
C653 C658 1.490 . S
C654 H644 0.930 . S
C654 C653 1.400 . S
C654 C657 1.386 . S
H655 C671 0.930 . S
H656 C672 0.931 . S
C657 H645 0.929 . S
C657 C651 1.390 . S
C657 C654 1.386 . S
C658 C653 1.490 . S
C658 C660 1.395 . S
C658 C661 1.403 . S
H659 C665 0.930 . S
C660 H646 0.930 . S
C660 C658 1.395 . S
C660 C663 1.403 1_565 S
C661 C658 1.403 . S
C661 C662 1.524 . S
C661 C665 1.400 1_565 S
C662 H647 0.960 . S
C662 H648 0.960 . S
C662 H649 0.960 . S
C662 C661 1.524 . S
C663 C660 1.403 1_545 S
C663 C664 1.392 . S
C663 C667 1.495 . S
C664 C663 1.392 . S
C664 C665 1.385 . S
C664 C666 1.478 . S
C665 H659 0.930 . S
C665 C661 1.400 1_545 S
C665 C664 1.385 . S
C666 C664 1.478 . S
C666 C668 1.381 . S
C666 C672 1.383 . S
C667 C663 1.495 . S
C667 H673 0.959 . S
C667 H674 0.961 . S
C667 H675 0.960 . S
C668 C666 1.381 . S
C668 C669 1.394 . S
C668 H676 0.930 . S
C669 C668 1.394 . S
C669 C670 1.383 . S
C669 H677 0.929 . S
C670 C669 1.383 . S
C670 C671 1.377 . S
C671 H655 0.930 . S
C671 C670 1.377 . S
C671 C672 1.379 . S
C672 H656 0.931 . S
C672 C666 1.383 . S
C672 C671 1.379 . S
H673 C667 0.959 . S
H674 C667 0.961 . S
H675 C667 0.960 . S
H676 C668 0.930 . S
H677 C669 0.929 . S
H678 C686 0.929 . S
H679 C688 0.930 . S
H680 C690 0.930 . S
H681 C693 0.929 . S
H682 C696 0.930 . S
H683 C698 0.960 . S
H684 C698 0.960 . S
H685 C698 0.960 . S
C686 H678 0.929 . S
C686 C687 1.377 . S
C686 C688 1.384 . S
C687 C686 1.377 . S
C687 C693 1.390 . S
C688 H679 0.930 . S
C688 C686 1.384 . S
C688 C689 1.372 . S
C689 C688 1.372 . S
C689 C690 1.400 . S
C689 C694 1.490 . S
C690 H680 0.930 . S
C690 C689 1.400 . S
C690 C693 1.386 . S
H691 C707 0.930 . S
H692 C708 0.931 . S
C693 H681 0.929 . S
C693 C687 1.390 . S
C693 C690 1.386 . S
C694 C689 1.490 . S
C694 C696 1.395 . S
C694 C697 1.403 . S
H695 C701 0.930 . S
C696 H682 0.930 . S
C696 C694 1.395 . S
C696 C699 1.403 1_655 S
C697 C694 1.403 . S
C697 C698 1.524 . S
C697 C701 1.400 1_655 S
C698 H683 0.960 . S
C698 H684 0.960 . S
C698 H685 0.960 . S
C698 C697 1.524 . S
C699 C696 1.403 1_455 S
C699 C700 1.392 . S
C699 C703 1.495 . S
C700 C699 1.392 . S
C700 C701 1.385 . S
C700 C702 1.478 . S
C701 H695 0.930 . S
C701 C697 1.400 1_455 S
C701 C700 1.385 . S
C702 C700 1.478 . S
C702 C704 1.381 . S
C702 C708 1.383 . S
C703 C699 1.495 . S
C703 H709 0.959 . S
C703 H710 0.961 . S
C703 H711 0.960 . S
C704 C702 1.381 . S
C704 C705 1.394 . S
C704 H712 0.930 . S
C705 C704 1.394 . S
C705 C706 1.383 . S
C705 H713 0.929 . S
C706 C705 1.383 . S
C706 C707 1.377 . S
C707 H691 0.930 . S
C707 C706 1.377 . S
C707 C708 1.379 . S
C708 H692 0.931 . S
C708 C702 1.383 . S
C708 C707 1.379 . S
H709 C703 0.959 . S
H710 C703 0.961 . S
H711 C703 0.960 . S
H712 C704 0.930 . S
H713 C705 0.929 . S
H714 C722 0.929 . S
H715 C724 0.930 . S
H716 C726 0.930 . S
H717 C729 0.929 . S
H718 C732 0.930 . S
H719 C734 0.960 . S
H720 C734 0.960 . S
H721 C734 0.960 . S
C722 H714 0.929 . S
C722 C723 1.377 . S
C722 C724 1.384 . S
C723 C722 1.377 . S
C723 C729 1.390 . S
C724 H715 0.930 . S
C724 C722 1.384 . S
C724 C725 1.372 . S
C725 C724 1.372 . S
C725 C726 1.400 . S
C725 C730 1.490 . S
C726 H716 0.930 . S
C726 C725 1.400 . S
C726 C729 1.386 . S
H727 C743 0.930 . S
H728 C744 0.931 . S
C729 H717 0.929 . S
C729 C723 1.390 . S
C729 C726 1.386 . S
C730 C725 1.490 . S
C730 C732 1.395 . S
C730 C733 1.403 . S
H731 C737 0.930 . S
C732 H718 0.930 . S
C732 C730 1.395 . S
C732 C735 1.403 . S
C733 C730 1.403 . S
C733 C734 1.524 . S
C733 C737 1.400 . S
C734 H719 0.960 . S
C734 H720 0.960 . S
C734 H721 0.960 . S
C734 C733 1.524 . S
C735 C732 1.403 . S
C735 C736 1.392 . S
C735 C739 1.495 . S
C736 C735 1.392 . S
C736 C737 1.385 . S
C736 C738 1.478 . S
C737 H731 0.930 . S
C737 C733 1.400 . S
C737 C736 1.385 . S
C738 C736 1.478 . S
C738 C740 1.381 . S
C738 C744 1.383 . S
C739 C735 1.495 . S
C739 H745 0.959 . S
C739 H746 0.961 . S
C739 H747 0.960 . S
C740 C738 1.381 . S
C740 C741 1.394 . S
C740 H748 0.930 . S
C741 C740 1.394 . S
C741 C742 1.383 . S
C741 H749 0.929 . S
C742 C741 1.383 . S
C742 C743 1.377 . S
C743 H727 0.930 . S
C743 C742 1.377 . S
C743 C744 1.379 . S
C744 H728 0.931 . S
C744 C738 1.383 . S
C744 C743 1.379 . S
H745 C739 0.959 . S
H746 C739 0.961 . S
H747 C739 0.960 . S
H748 C740 0.930 . S
H749 C741 0.929 . S
H750 C758 0.929 . S
H751 C760 0.930 . S
H752 C762 0.930 . S
H753 C765 0.929 . S
H754 C768 0.930 . S
H755 C770 0.960 . S
H756 C770 0.960 . S
H757 C770 0.960 . S
C758 H750 0.929 . S
C758 C759 1.377 . S
C758 C760 1.384 . S
C759 C758 1.377 . S
C759 C765 1.390 . S
C760 H751 0.930 . S
C760 C758 1.384 . S
C760 C761 1.372 . S
C761 C760 1.372 . S
C761 C762 1.400 . S
C761 C766 1.490 . S
C762 H752 0.930 . S
C762 C761 1.400 . S
C762 C765 1.386 . S
H763 C779 0.930 . S
H764 C780 0.931 . S
C765 H753 0.929 . S
C765 C759 1.390 . S
C765 C762 1.386 . S
C766 C761 1.490 . S
C766 C768 1.395 . S
C766 C769 1.403 . S
H767 C773 0.930 . S
C768 H754 0.930 . S
C768 C766 1.395 . S
C768 C771 1.403 . S
C769 C766 1.403 . S
C769 C770 1.524 . S
C769 C773 1.400 . S
C770 H755 0.960 . S
C770 H756 0.960 . S
C770 H757 0.960 . S
C770 C769 1.524 . S
C771 C768 1.403 . S
C771 C772 1.392 . S
C771 C775 1.495 . S
C772 C771 1.392 . S
C772 C773 1.385 . S
C772 C774 1.478 . S
C773 H767 0.930 . S
C773 C769 1.400 . S
C773 C772 1.385 . S
C774 C772 1.478 . S
C774 C776 1.381 . S
C774 C780 1.383 . S
C775 C771 1.495 . S
C775 H781 0.959 . S
C775 H782 0.961 . S
C775 H783 0.960 . S
C776 C774 1.381 . S
C776 C777 1.394 . S
C776 H784 0.930 . S
C777 C776 1.394 . S
C777 C778 1.383 . S
C777 H785 0.929 . S
C778 C777 1.383 . S
C778 C779 1.377 . S
C779 H763 0.930 . S
C779 C778 1.377 . S
C779 C780 1.379 . S
C780 H764 0.931 . S
C780 C774 1.383 . S
C780 C779 1.379 . S
H781 C775 0.959 . S
H782 C775 0.961 . S
H783 C775 0.960 . S
H784 C776 0.930 . S
H785 C777 0.929 . S
H786 C794 0.929 . S
H787 C796 0.930 . S
H788 C798 0.930 . S
H789 C801 0.929 . S
H790 C804 0.930 . S
H791 C806 0.960 . S
H792 C806 0.960 . S
H793 C806 0.960 . S
C794 H786 0.929 . S
C794 C795 1.377 . S
C794 C796 1.384 . S
C795 C794 1.377 . S
C795 C801 1.390 . S
C796 H787 0.930 . S
C796 C794 1.384 . S
C796 C797 1.372 . S
C797 C796 1.372 . S
C797 C798 1.400 . S
C797 C802 1.490 . S
C798 H788 0.930 . S
C798 C797 1.400 . S
C798 C801 1.386 . S
H799 C815 0.930 . S
H800 C816 0.931 . S
C801 H789 0.929 . S
C801 C795 1.390 . S
C801 C798 1.386 . S
C802 C797 1.490 . S
C802 C804 1.395 . S
C802 C805 1.403 . S
H803 C809 0.930 . S
C804 H790 0.930 . S
C804 C802 1.395 . S
C804 C807 1.403 . S
C805 C802 1.403 . S
C805 C806 1.524 . S
C805 C809 1.400 . S
C806 H791 0.960 . S
C806 H792 0.960 . S
C806 H793 0.960 . S
C806 C805 1.524 . S
C807 C804 1.403 . S
C807 C808 1.392 . S
C807 C811 1.495 . S
C808 C807 1.392 . S
C808 C809 1.385 . S
C808 C810 1.478 1_556 S
C809 H803 0.930 . S
C809 C805 1.400 . S
C809 C808 1.385 . S
C810 C808 1.478 1_554 S
C810 C812 1.381 . S
C810 C816 1.383 . S
C811 C807 1.495 . S
C811 H817 0.959 . S
C811 H818 0.961 . S
C811 H819 0.960 1_556 S
C812 C810 1.381 . S
C812 C813 1.394 . S
C812 H820 0.930 . S
C813 C812 1.394 . S
C813 C814 1.383 . S
C813 H821 0.929 . S
C814 C813 1.383 . S
C814 C815 1.377 . S
C815 H799 0.930 . S
C815 C814 1.377 . S
C815 C816 1.379 . S
C816 H800 0.931 . S
C816 C810 1.383 . S
C816 C815 1.379 . S
H817 C811 0.959 . S
H818 C811 0.961 . S
H819 C811 0.960 1_554 S
H820 C812 0.930 . S
H821 C813 0.929 . S
H822 C830 0.929 . S
H823 C832 0.930 . S
H824 C834 0.930 . S
H825 C837 0.929 . S
H826 C840 0.930 . S
H827 C842 0.960 . S
H828 C842 0.960 . S
H829 C842 0.960 . S
C830 H822 0.929 . S
C830 C831 1.377 . S
C830 C832 1.384 . S
C831 C830 1.377 . S
C831 C837 1.390 . S
C832 H823 0.930 . S
C832 C830 1.384 . S
C832 C833 1.372 . S
C833 C832 1.372 . S
C833 C834 1.400 . S
C833 C838 1.490 . S
C834 H824 0.930 . S
C834 C833 1.400 . S
C834 C837 1.386 . S
H835 C851 0.930 . S
H836 C852 0.931 . S
C837 H825 0.929 . S
C837 C831 1.390 . S
C837 C834 1.386 . S
C838 C833 1.490 . S
C838 C840 1.395 . S
C838 C841 1.403 . S
H839 C845 0.930 . S
C840 H826 0.930 . S
C840 C838 1.395 . S
C840 C843 1.403 . S
C841 C838 1.403 . S
C841 C842 1.524 . S
C841 C845 1.400 . S
C842 H827 0.960 . S
C842 H828 0.960 . S
C842 H829 0.960 . S
C842 C841 1.524 . S
C843 C840 1.403 . S
C843 C844 1.392 . S
C843 C847 1.495 . S
C844 C843 1.392 . S
C844 C845 1.385 . S
C844 C846 1.478 . S
C845 H839 0.930 . S
C845 C841 1.400 . S
C845 C844 1.385 . S
C846 C844 1.478 . S
C846 C848 1.381 . S
C846 C852 1.383 . S
C847 C843 1.495 . S
C847 H853 0.959 . S
C847 H854 0.961 . S
C847 H855 0.960 . S
C848 C846 1.381 . S
C848 C849 1.394 . S
C848 H856 0.930 . S
C849 C848 1.394 . S
C849 C850 1.383 . S
C849 H857 0.929 . S
C850 C849 1.383 . S
C850 C851 1.377 . S
C851 H835 0.930 . S
C851 C850 1.377 . S
C851 C852 1.379 . S
C852 H836 0.931 . S
C852 C846 1.383 . S
C852 C851 1.379 . S
H853 C847 0.959 . S
H854 C847 0.961 . S
H855 C847 0.960 . S
H856 C848 0.930 . S
H857 C849 0.929 . S
H858 C866 0.929 . S
H859 C868 0.930 . S
H860 C870 0.930 . S
H861 C873 0.929 . S
H862 C876 0.930 . S
H863 C878 0.960 . S
H864 C878 0.960 . S
H865 C878 0.960 . S
C866 H858 0.929 . S
C866 C867 1.377 . S
C866 C868 1.384 . S
C867 C866 1.377 . S
C867 C873 1.390 . S
C868 H859 0.930 . S
C868 C866 1.384 . S
C868 C869 1.372 . S
C869 C868 1.372 . S
C869 C870 1.400 . S
C869 C874 1.490 . S
C870 H860 0.930 . S
C870 C869 1.400 . S
C870 C873 1.386 . S
H871 C887 0.930 . S
H872 C888 0.931 . S
C873 H861 0.929 . S
C873 C867 1.390 . S
C873 C870 1.386 . S
C874 C869 1.490 . S
C874 C876 1.395 . S
C874 C877 1.403 . S
H875 C881 0.930 . S
C876 H862 0.930 . S
C876 C874 1.395 . S
C876 C879 1.403 . S
C877 C874 1.403 . S
C877 C878 1.524 . S
C877 C881 1.400 . S
C878 H863 0.960 . S
C878 H864 0.960 . S
C878 H865 0.960 . S
C878 C877 1.524 . S
C879 C876 1.403 . S
C879 C880 1.392 . S
C879 C883 1.495 . S
C880 C879 1.392 . S
C880 C881 1.385 . S
C880 C882 1.478 1_554 S
C881 H875 0.930 . S
C881 C877 1.400 . S
C881 C880 1.385 . S
C882 C880 1.478 1_556 S
C882 C884 1.381 . S
C882 C888 1.383 . S
C883 C879 1.495 . S
C883 H889 0.959 . S
C883 H890 0.961 1_554 S
C883 H891 0.960 1_554 S
C884 C882 1.381 . S
C884 C885 1.394 . S
C884 H892 0.930 . S
C885 C884 1.394 . S
C885 C886 1.383 . S
C885 H893 0.929 . S
C886 C885 1.383 . S
C886 C887 1.377 . S
C887 H871 0.930 . S
C887 C886 1.377 . S
C887 C888 1.379 . S
C888 H872 0.931 . S
C888 C882 1.383 . S
C888 C887 1.379 . S
H889 C883 0.959 . S
H890 C883 0.961 1_556 S
H891 C883 0.960 1_556 S
H892 C884 0.930 . S
H893 C885 0.929 . S
H894 C902 0.929 . S
H895 C904 0.930 . S
H896 C906 0.930 . S
H897 C909 0.929 . S
H898 C912 0.930 . S
H899 C914 0.960 . S
H900 C914 0.960 . S
H901 C914 0.960 . S
C902 H894 0.929 . S
C902 C903 1.377 . S
C902 C904 1.384 . S
C903 C902 1.377 . S
C903 C909 1.390 . S
C904 H895 0.930 . S
C904 C902 1.384 . S
C904 C905 1.372 . S
C905 C904 1.372 . S
C905 C906 1.400 . S
C905 C910 1.490 . S
C906 H896 0.930 . S
C906 C905 1.400 . S
C906 C909 1.386 . S
H907 C923 0.930 . S
H908 C924 0.931 . S
C909 H897 0.929 . S
C909 C903 1.390 . S
C909 C906 1.386 . S
C910 C905 1.490 . S
C910 C912 1.395 . S
C910 C913 1.403 . S
H911 C917 0.930 . S
C912 H898 0.930 . S
C912 C910 1.395 . S
C912 C915 1.403 . S
C913 C910 1.403 . S
C913 C914 1.524 . S
C913 C917 1.400 . S
C914 H899 0.960 . S
C914 H900 0.960 . S
C914 H901 0.960 . S
C914 C913 1.524 . S
C915 C912 1.403 . S
C915 C916 1.392 . S
C915 C919 1.495 . S
C916 C915 1.392 . S
C916 C917 1.385 . S
C916 C918 1.478 . S
C917 H911 0.930 . S
C917 C913 1.400 . S
C917 C916 1.385 . S
C918 C916 1.478 . S
C918 C920 1.381 . S
C918 C924 1.383 . S
C919 C915 1.495 . S
C919 H925 0.959 . S
C919 H926 0.961 . S
C919 H927 0.960 . S
C920 C918 1.381 . S
C920 C921 1.394 . S
C920 H928 0.930 . S
C921 C920 1.394 . S
C921 C922 1.383 . S
C921 H929 0.929 . S
C922 C921 1.383 . S
C922 C923 1.377 . S
C923 H907 0.930 . S
C923 C922 1.377 . S
C923 C924 1.379 . S
C924 H908 0.931 . S
C924 C918 1.383 . S
C924 C923 1.379 . S
H925 C919 0.959 . S
H926 C919 0.961 . S
H927 C919 0.960 . S
H928 C920 0.930 . S
H929 C921 0.929 . S
C183 C13 2.477 1_556 S
C202 C129 2.490 . S
C219 C158 2.471 . S
C238 C42 2.470 . S
C255 C71 2.479 . S
C274 C100 2.471 1_554 S
C291 C10 1.803 . S
C310 C79 1.537 . S
C327 C21 1.577 . S
C346 C39 1.796 . S
C363 C50 1.592 . S
C382 C68 1.784 . S
C399 C97 1.803 . S
C418 C137 1.548 . S
C435 C126 1.803 . S
C454 C166 1.547 . S
C471 C108 1.578 . S
C490 C155 1.794 . S
C507 C131 1.401 . S
C526 C15 1.397 . S
C543 C160 1.408 . S
C562 C44 1.421 . S
C579 C102 1.402 . S
C598 C73 1.405 . S
C615 C5 2.881 . S
C634 C92 2.879 . S
C651 C34 2.876 . S
C670 C121 2.882 . S
C687 C150 2.877 . S
C706 C63 2.858 . S
C723 C8 0.967 . S
C742 C3 0.996 . S
C759 C32 0.969 . S
C778 C37 1.000 1_554 S
C795 C66 0.968 . S
C814 C61 0.937 . S
C831 C95 0.960 . S
C850 C90 0.939 . S
C867 C124 0.960 . S
C886 C119 0.939 . S
C903 C148 0.961 . S
C922 C153 0.933 1_556 S
