# Generated by pormake.
# Topology ull, (4)-cn, num edge types: 1
# Building blocks:
#     Node 0, Type 0, BuildingBlock: CEKHIL_clean_sbu_0, # of connection points: 4
#     Node 1, Type 0, BuildingBlock: CEKHIL_clean_sbu_0, # of connection points: 4
#     Node 2, Type 0, BuildingBlock: CEKHIL_clean_sbu_0, # of connection points: 4
#     Node 3, Type 0, BuildingBlock: CEKHIL_clean_sbu_0, # of connection points: 4
#     Node 4, Type 0, BuildingBlock: CEKHIL_clean_sbu_0, # of connection points: 4
#     Node 5, Type 0, BuildingBlock: CEKHIL_clean_sbu_0, # of connection points: 4
#     Node 6, Type 0, BuildingBlock: CEKHIL_clean_sbu_0, # of connection points: 4
#     Node 7, Type 0, BuildingBlock: CEKHIL_clean_sbu_0, # of connection points: 4
#     Node 8, Type 0, BuildingBlock: CEKHIL_clean_sbu_0, # of connection points: 4
#     Node 9, Type 0, BuildingBlock: CEKHIL_clean_sbu_0, # of connection points: 4
#     Node 10, Type 0, BuildingBlock: CEKHIL_clean_sbu_0, # of connection points: 4
#     Node 11, Type 0, BuildingBlock: CEKHIL_clean_sbu_0, # of connection points: 4
#     Node 12, Type 0, BuildingBlock: CEKHIL_clean_sbu_0, # of connection points: 4
#     Node 13, Type 0, BuildingBlock: CEKHIL_clean_sbu_0, # of connection points: 4
#     Node 14, Type 0, BuildingBlock: CEKHIL_clean_sbu_0, # of connection points: 4
#     Node 15, Type 0, BuildingBlock: CEKHIL_clean_sbu_0, # of connection points: 4
#     Node 16, Type 0, BuildingBlock: CEKHIL_clean_sbu_0, # of connection points: 4
#     Node 17, Type 0, BuildingBlock: CEKHIL_clean_sbu_0, # of connection points: 4
#     Node 18, Type 0, BuildingBlock: CEKHIL_clean_sbu_0, # of connection points: 4
#     Node 19, Type 0, BuildingBlock: CEKHIL_clean_sbu_0, # of connection points: 4
#     Node 20, Type 0, BuildingBlock: CEKHIL_clean_sbu_0, # of connection points: 4
#     Node 21, Type 0, BuildingBlock: CEKHIL_clean_sbu_0, # of connection points: 4
#     Node 22, Type 0, BuildingBlock: CEKHIL_clean_sbu_0, # of connection points: 4
#     Node 23, Type 0, BuildingBlock: CEKHIL_clean_sbu_0, # of connection points: 4
#     Node 24, Type 0, BuildingBlock: CEKHIL_clean_sbu_0, # of connection points: 4
#     Node 25, Type 0, BuildingBlock: CEKHIL_clean_sbu_0, # of connection points: 4
#     Node 26, Type 0, BuildingBlock: CEKHIL_clean_sbu_0, # of connection points: 4
#     Node 27, Type 0, BuildingBlock: CEKHIL_clean_sbu_0, # of connection points: 4
#     Node 28, Type 0, BuildingBlock: CEKHIL_clean_sbu_0, # of connection points: 4
#     Node 29, Type 0, BuildingBlock: CEKHIL_clean_sbu_0, # of connection points: 4
#     Node 30, Type 0, BuildingBlock: CEKHIL_clean_sbu_0, # of connection points: 4
#     Node 31, Type 0, BuildingBlock: CEKHIL_clean_sbu_0, # of connection points: 4
#     Node 32, Type 0, BuildingBlock: CEKHIL_clean_sbu_0, # of connection points: 4
#     Node 33, Type 0, BuildingBlock: CEKHIL_clean_sbu_0, # of connection points: 4
#     Node 34, Type 0, BuildingBlock: CEKHIL_clean_sbu_0, # of connection points: 4
#     Node 35, Type 0, BuildingBlock: CEKHIL_clean_sbu_0, # of connection points: 4
#     Node 36, Type 0, BuildingBlock: CEKHIL_clean_sbu_0, # of connection points: 4
#     Node 37, Type 0, BuildingBlock: CEKHIL_clean_sbu_0, # of connection points: 4
#     Node 38, Type 0, BuildingBlock: CEKHIL_clean_sbu_0, # of connection points: 4
#     Node 39, Type 0, BuildingBlock: CEKHIL_clean_sbu_0, # of connection points: 4
#     Node 40, Type 0, BuildingBlock: CEKHIL_clean_sbu_0, # of connection points: 4
#     Node 41, Type 0, BuildingBlock: CEKHIL_clean_sbu_0, # of connection points: 4
#     Node 42, Type 0, BuildingBlock: CEKHIL_clean_sbu_0, # of connection points: 4
#     Node 43, Type 0, BuildingBlock: CEKHIL_clean_sbu_0, # of connection points: 4
#     Node 44, Type 0, BuildingBlock: CEKHIL_clean_sbu_0, # of connection points: 4
#     Node 45, Type 0, BuildingBlock: CEKHIL_clean_sbu_0, # of connection points: 4
#     Node 46, Type 0, BuildingBlock: CEKHIL_clean_sbu_0, # of connection points: 4
#     Node 47, Type 0, BuildingBlock: CEKHIL_clean_sbu_0, # of connection points: 4
#     Edge 48, Type (0, 0), BuildingBlock: XUDNAN_clean_linker_2, # of connection points: 2
#     Edge 49, Type (0, 0), BuildingBlock: XUDNAN_clean_linker_2, # of connection points: 2
#     Edge 50, Type (0, 0), BuildingBlock: XUDNAN_clean_linker_2, # of connection points: 2
#     Edge 51, Type (0, 0), BuildingBlock: XUDNAN_clean_linker_2, # of connection points: 2
#     Edge 52, Type (0, 0), BuildingBlock: XUDNAN_clean_linker_2, # of connection points: 2
#     Edge 53, Type (0, 0), BuildingBlock: XUDNAN_clean_linker_2, # of connection points: 2
#     Edge 54, Type (0, 0), BuildingBlock: XUDNAN_clean_linker_2, # of connection points: 2
#     Edge 55, Type (0, 0), BuildingBlock: XUDNAN_clean_linker_2, # of connection points: 2
#     Edge 56, Type (0, 0), BuildingBlock: XUDNAN_clean_linker_2, # of connection points: 2
#     Edge 57, Type (0, 0), BuildingBlock: XUDNAN_clean_linker_2, # of connection points: 2
#     Edge 58, Type (0, 0), BuildingBlock: XUDNAN_clean_linker_2, # of connection points: 2
#     Edge 59, Type (0, 0), BuildingBlock: XUDNAN_clean_linker_2, # of connection points: 2
#     Edge 60, Type (0, 0), BuildingBlock: XUDNAN_clean_linker_2, # of connection points: 2
#     Edge 61, Type (0, 0), BuildingBlock: XUDNAN_clean_linker_2, # of connection points: 2
#     Edge 62, Type (0, 0), BuildingBlock: XUDNAN_clean_linker_2, # of connection points: 2
#     Edge 63, Type (0, 0), BuildingBlock: XUDNAN_clean_linker_2, # of connection points: 2
#     Edge 64, Type (0, 0), BuildingBlock: XUDNAN_clean_linker_2, # of connection points: 2
#     Edge 65, Type (0, 0), BuildingBlock: XUDNAN_clean_linker_2, # of connection points: 2
#     Edge 66, Type (0, 0), BuildingBlock: XUDNAN_clean_linker_2, # of connection points: 2
#     Edge 67, Type (0, 0), BuildingBlock: XUDNAN_clean_linker_2, # of connection points: 2
#     Edge 68, Type (0, 0), BuildingBlock: XUDNAN_clean_linker_2, # of connection points: 2
#     Edge 69, Type (0, 0), BuildingBlock: XUDNAN_clean_linker_2, # of connection points: 2
#     Edge 70, Type (0, 0), BuildingBlock: XUDNAN_clean_linker_2, # of connection points: 2
#     Edge 71, Type (0, 0), BuildingBlock: XUDNAN_clean_linker_2, # of connection points: 2
#     Edge 72, Type (0, 0), BuildingBlock: XUDNAN_clean_linker_2, # of connection points: 2
#     Edge 73, Type (0, 0), BuildingBlock: XUDNAN_clean_linker_2, # of connection points: 2
#     Edge 74, Type (0, 0), BuildingBlock: XUDNAN_clean_linker_2, # of connection points: 2
#     Edge 75, Type (0, 0), BuildingBlock: XUDNAN_clean_linker_2, # of connection points: 2
#     Edge 76, Type (0, 0), BuildingBlock: XUDNAN_clean_linker_2, # of connection points: 2
#     Edge 77, Type (0, 0), BuildingBlock: XUDNAN_clean_linker_2, # of connection points: 2
#     Edge 78, Type (0, 0), BuildingBlock: XUDNAN_clean_linker_2, # of connection points: 2
#     Edge 79, Type (0, 0), BuildingBlock: XUDNAN_clean_linker_2, # of connection points: 2
#     Edge 80, Type (0, 0), BuildingBlock: XUDNAN_clean_linker_2, # of connection points: 2
#     Edge 81, Type (0, 0), BuildingBlock: XUDNAN_clean_linker_2, # of connection points: 2
#     Edge 82, Type (0, 0), BuildingBlock: XUDNAN_clean_linker_2, # of connection points: 2
#     Edge 83, Type (0, 0), BuildingBlock: XUDNAN_clean_linker_2, # of connection points: 2
#     Edge 84, Type (0, 0), BuildingBlock: XUDNAN_clean_linker_2, # of connection points: 2
#     Edge 85, Type (0, 0), BuildingBlock: XUDNAN_clean_linker_2, # of connection points: 2
#     Edge 86, Type (0, 0), BuildingBlock: XUDNAN_clean_linker_2, # of connection points: 2
#     Edge 87, Type (0, 0), BuildingBlock: XUDNAN_clean_linker_2, # of connection points: 2
#     Edge 88, Type (0, 0), BuildingBlock: XUDNAN_clean_linker_2, # of connection points: 2
#     Edge 89, Type (0, 0), BuildingBlock: XUDNAN_clean_linker_2, # of connection points: 2
#     Edge 90, Type (0, 0), BuildingBlock: XUDNAN_clean_linker_2, # of connection points: 2
#     Edge 91, Type (0, 0), BuildingBlock: XUDNAN_clean_linker_2, # of connection points: 2
#     Edge 92, Type (0, 0), BuildingBlock: XUDNAN_clean_linker_2, # of connection points: 2
#     Edge 93, Type (0, 0), BuildingBlock: XUDNAN_clean_linker_2, # of connection points: 2
#     Edge 94, Type (0, 0), BuildingBlock: XUDNAN_clean_linker_2, # of connection points: 2
#     Edge 95, Type (0, 0), BuildingBlock: XUDNAN_clean_linker_2, # of connection points: 2
#     Edge 96, Type (0, 0), BuildingBlock: XUDNAN_clean_linker_2, # of connection points: 2
#     Edge 97, Type (0, 0), BuildingBlock: XUDNAN_clean_linker_2, # of connection points: 2
#     Edge 98, Type (0, 0), BuildingBlock: XUDNAN_clean_linker_2, # of connection points: 2
#     Edge 99, Type (0, 0), BuildingBlock: XUDNAN_clean_linker_2, # of connection points: 2
#     Edge 100, Type (0, 0), BuildingBlock: XUDNAN_clean_linker_2, # of connection points: 2
#     Edge 101, Type (0, 0), BuildingBlock: XUDNAN_clean_linker_2, # of connection points: 2
#     Edge 102, Type (0, 0), BuildingBlock: XUDNAN_clean_linker_2, # of connection points: 2
#     Edge 103, Type (0, 0), BuildingBlock: XUDNAN_clean_linker_2, # of connection points: 2
#     Edge 104, Type (0, 0), BuildingBlock: XUDNAN_clean_linker_2, # of connection points: 2
#     Edge 105, Type (0, 0), BuildingBlock: XUDNAN_clean_linker_2, # of connection points: 2
#     Edge 106, Type (0, 0), BuildingBlock: XUDNAN_clean_linker_2, # of connection points: 2
#     Edge 107, Type (0, 0), BuildingBlock: XUDNAN_clean_linker_2, # of connection points: 2
#     Edge 108, Type (0, 0), BuildingBlock: XUDNAN_clean_linker_2, # of connection points: 2
#     Edge 109, Type (0, 0), BuildingBlock: XUDNAN_clean_linker_2, # of connection points: 2
#     Edge 110, Type (0, 0), BuildingBlock: XUDNAN_clean_linker_2, # of connection points: 2
#     Edge 111, Type (0, 0), BuildingBlock: XUDNAN_clean_linker_2, # of connection points: 2
#     Edge 112, Type (0, 0), BuildingBlock: XUDNAN_clean_linker_2, # of connection points: 2
#     Edge 113, Type (0, 0), BuildingBlock: XUDNAN_clean_linker_2, # of connection points: 2
#     Edge 114, Type (0, 0), BuildingBlock: XUDNAN_clean_linker_2, # of connection points: 2
#     Edge 115, Type (0, 0), BuildingBlock: XUDNAN_clean_linker_2, # of connection points: 2
#     Edge 116, Type (0, 0), BuildingBlock: XUDNAN_clean_linker_2, # of connection points: 2
#     Edge 117, Type (0, 0), BuildingBlock: XUDNAN_clean_linker_2, # of connection points: 2
#     Edge 118, Type (0, 0), BuildingBlock: XUDNAN_clean_linker_2, # of connection points: 2
#     Edge 119, Type (0, 0), BuildingBlock: XUDNAN_clean_linker_2, # of connection points: 2
#     Edge 120, Type (0, 0), BuildingBlock: XUDNAN_clean_linker_2, # of connection points: 2
#     Edge 121, Type (0, 0), BuildingBlock: XUDNAN_clean_linker_2, # of connection points: 2
#     Edge 122, Type (0, 0), BuildingBlock: XUDNAN_clean_linker_2, # of connection points: 2
#     Edge 123, Type (0, 0), BuildingBlock: XUDNAN_clean_linker_2, # of connection points: 2
#     Edge 124, Type (0, 0), BuildingBlock: XUDNAN_clean_linker_2, # of connection points: 2
#     Edge 125, Type (0, 0), BuildingBlock: XUDNAN_clean_linker_2, # of connection points: 2
#     Edge 126, Type (0, 0), BuildingBlock: XUDNAN_clean_linker_2, # of connection points: 2
#     Edge 127, Type (0, 0), BuildingBlock: XUDNAN_clean_linker_2, # of connection points: 2
#     Edge 128, Type (0, 0), BuildingBlock: XUDNAN_clean_linker_2, # of connection points: 2
#     Edge 129, Type (0, 0), BuildingBlock: XUDNAN_clean_linker_2, # of connection points: 2
#     Edge 130, Type (0, 0), BuildingBlock: XUDNAN_clean_linker_2, # of connection points: 2
#     Edge 131, Type (0, 0), BuildingBlock: XUDNAN_clean_linker_2, # of connection points: 2
#     Edge 132, Type (0, 0), BuildingBlock: XUDNAN_clean_linker_2, # of connection points: 2
#     Edge 133, Type (0, 0), BuildingBlock: XUDNAN_clean_linker_2, # of connection points: 2
#     Edge 134, Type (0, 0), BuildingBlock: XUDNAN_clean_linker_2, # of connection points: 2
#     Edge 135, Type (0, 0), BuildingBlock: XUDNAN_clean_linker_2, # of connection points: 2
#     Edge 136, Type (0, 0), BuildingBlock: XUDNAN_clean_linker_2, # of connection points: 2
#     Edge 137, Type (0, 0), BuildingBlock: XUDNAN_clean_linker_2, # of connection points: 2
#     Edge 138, Type (0, 0), BuildingBlock: XUDNAN_clean_linker_2, # of connection points: 2
#     Edge 139, Type (0, 0), BuildingBlock: XUDNAN_clean_linker_2, # of connection points: 2
#     Edge 140, Type (0, 0), BuildingBlock: XUDNAN_clean_linker_2, # of connection points: 2
#     Edge 141, Type (0, 0), BuildingBlock: XUDNAN_clean_linker_2, # of connection points: 2
#     Edge 142, Type (0, 0), BuildingBlock: XUDNAN_clean_linker_2, # of connection points: 2
#     Edge 143, Type (0, 0), BuildingBlock: XUDNAN_clean_linker_2, # of connection points: 2
# Relax obj value: 0.022
# Max RMSD: 0.081
# Mean RMSD: 0.081
data_MOF--net-ull--node1-CEKHIL_clean_sbu_0--edge1-XUDNAN_clean_linker_2
_symmetry_space_group_name_H-M    P1
_symmetry_Int_Tables_number       1
_symmetry_cell_setting            triclinic
loop_
_symmetry_equiv_pos_as_xyz
'x, y, z'
_cell_length_a     60.666658
_cell_length_b     60.689182
_cell_length_c     60.672053
_cell_angle_alpha  89.986408
_cell_angle_beta   90.050978
_cell_angle_gamma 89.969841
loop_
_atom_site_label
_atom_site_type_symbol
_atom_site_fract_x
_atom_site_fract_y
_atom_site_fract_z
_atom_type_partial_charge
Co0 Co 0.04646 0.33414 0.16599 0.0
O1 O 0.07 0.34134 0.18634 0.0
O2 O 0.03906 0.36028 0.18248 0.0
C3 C 0.068 0.32777 0.13611 0.0
O4 O 0.01892 0.33314 0.14667 0.0
Co5 Co 0.04183 0.28864 0.14293 0.0
O6 O 0.01731 0.30231 0.12623 0.0
C7 C 0.02899 0.29341 0.18977 0.0
C8 C 0.0581 0.35821 0.19208 0.0
C9 C 0.00972 0.32105 0.13184 0.0
O10 O 0.03195 0.31447 0.18899 0.0
O11 O 0.03376 0.28051 0.17378 0.0
O12 O 0.06291 0.34783 0.1416 0.0
O13 O 0.0616 0.31273 0.1497 0.0
Co14 Co 0.65263 0.04322 0.16845 0.0
O15 O 0.64644 0.06733 0.18814 0.0
O16 O 0.63049 0.03461 0.1898 0.0
C17 C 0.65046 0.06333 0.13707 0.0
O18 O 0.65403 0.01473 0.15045 0.0
Co19 Co 0.69451 0.04314 0.13969 0.0
O20 O 0.68159 0.01661 0.12577 0.0
C21 C 0.69825 0.0316 0.18683 0.0
C22 C 0.63204 0.05458 0.19745 0.0
C23 C 0.66509 0.00672 0.13415 0.0
O24 O 0.67711 0.03256 0.18857 0.0
O25 O 0.70845 0.03673 0.16908 0.0
O26 O 0.63284 0.0558 0.14652 0.0
O27 O 0.66868 0.06017 0.14778 0.0
Co28 Co 0.9588 0.65993 0.16536 0.0
O29 O 0.93725 0.64909 0.18555 0.0
O30 O 0.97191 0.63775 0.18458 0.0
C31 C 0.93756 0.65729 0.13492 0.0
O32 O 0.98514 0.66763 0.1456 0.0
Co33 Co 0.94821 0.70433 0.14205 0.0
O34 O 0.9735 0.69522 0.12362 0.0
C35 C 0.96379 0.70496 0.188 0.0
C36 C 0.9524 0.63631 0.19345 0.0
C37 C 0.98782 0.68081 0.12909 0.0
O38 O 0.96696 0.684 0.187 0.0
O39 O 0.95503 0.71599 0.17226 0.0
O40 O 0.94792 0.64018 0.14248 0.0
O41 O 0.9383 0.67457 0.14735 0.0
Co42 Co 0.34785 0.95969 0.16894 0.0
O43 O 0.34829 0.93234 0.18424 0.0
O44 O 0.3688 0.96087 0.19361 0.0
C45 C 0.35062 0.9445 0.13503 0.0
O46 O 0.35134 0.9904 0.15524 0.0
Co47 Co 0.30757 0.96747 0.13841 0.0
O48 O 0.32487 0.99344 0.12922 0.0
C49 C 0.30246 0.97385 0.1862 0.0
C50 C 0.3631 0.94046 0.1972 0.0
C51 C 0.34173 1.00085 0.13933 0.0
O52 O 0.32325 0.97047 0.18868 0.0
O53 O 0.29266 0.9719 0.1676 0.0
O54 O 0.368 0.94809 0.14693 0.0
O55 O 0.33203 0.94808 0.14484 0.0
Co56 Co 0.04854 0.66211 0.83544 0.0
O57 O 0.07161 0.65144 0.81682 0.0
O58 O 0.03719 0.63965 0.81531 0.0
C59 C 0.06837 0.65961 0.86692 0.0
O60 O 0.02054 0.66969 0.85298 0.0
Co61 Co 0.05676 0.70609 0.85968 0.0
O62 O 0.02864 0.69889 0.87445 0.0
C63 C 0.04375 0.70715 0.81289 0.0
C64 C 0.0573 0.6385 0.8078 0.0
C65 C 0.01537 0.68399 0.86788 0.0
O66 O 0.0415 0.68605 0.81323 0.0
O67 O 0.05111 0.71811 0.82935 0.0
O68 O 0.05806 0.64257 0.85922 0.0
O69 O 0.0682 0.67687 0.85447 0.0
Co70 Co 0.35272 0.04146 0.83052 0.0
O71 O 0.35908 0.06629 0.8119 0.0
O72 O 0.37351 0.03305 0.80777 0.0
C73 C 0.3572 0.05984 0.86262 0.0
O74 O 0.35073 0.01209 0.84674 0.0
Co75 Co 0.31267 0.04098 0.86166 0.0
O76 O 0.32802 0.01577 0.87572 0.0
C77 C 0.3061 0.03071 0.81441 0.0
C78 C 0.37257 0.05349 0.80136 0.0
C79 C 0.34219 0.00488 0.86476 0.0
O80 O 0.32698 0.03281 0.81124 0.0
O81 O 0.29697 0.03425 0.83312 0.0
O82 O 0.37399 0.05197 0.852 0.0
O83 O 0.33831 0.0579 0.85281 0.0
Co84 Co 0.96526 0.34443 0.83768 0.0
O85 O 0.94194 0.35624 0.82011 0.0
O86 O 0.97689 0.36629 0.81727 0.0
C87 C 0.94719 0.3477 0.87006 0.0
O88 O 0.99355 0.3357 0.8539 0.0
Co89 Co 0.95643 0.30056 0.86238 0.0
O90 O 0.98609 0.30587 0.87482 0.0
C91 C 0.9663 0.29942 0.81482 0.0
C92 C 0.95657 0.36855 0.81068 0.0
C93 C 0.99917 0.32081 0.86801 0.0
O94 O 0.97009 0.32028 0.81525 0.0
O95 O 0.95909 0.28876 0.83155 0.0
O96 O 0.95769 0.36433 0.8617 0.0
O97 O 0.94623 0.33037 0.85771 0.0
Co98 Co 0.65632 0.95935 0.8339 0.0
O99 O 0.64735 0.93858 0.812 0.0
O100 O 0.63373 0.97224 0.81481 0.0
C101 C 0.65373 0.93584 0.86262 0.0
O102 O 0.66204 0.98468 0.85566 0.0
Co103 Co 0.70046 0.94949 0.85791 0.0
O104 O 0.68922 0.97258 0.87791 0.0
C105 C 0.70177 0.96916 0.81359 0.0
C106 C 0.63361 0.95321 0.80482 0.0
C107 C 0.67445 0.98668 0.8729 0.0
O108 O 0.68057 0.97033 0.81376 0.0
O109 O 0.71291 0.96022 0.82915 0.0
O110 O 0.63645 0.94596 0.85517 0.0
O111 O 0.67146 0.93831 0.85101 0.0
Co112 Co 0.16693 0.04482 0.33048 0.0
O113 O 0.18455 0.06897 0.3409 0.0
O114 O 0.18425 0.03575 0.35589 0.0
C115 C 0.13516 0.06421 0.3269 0.0
O116 O 0.15031 0.01607 0.32429 0.0
Co117 Co 0.14622 0.04774 0.28333 0.0
O118 O 0.13209 0.0197 0.29203 0.0
C119 C 0.19331 0.03636 0.28829 0.0
C120 C 0.19172 0.05586 0.35618 0.0
C121 C 0.13725 0.00872 0.3092 0.0
O122 O 0.19132 0.03541 0.30947 0.0
O123 O 0.17783 0.04298 0.27556 0.0
O124 O 0.14095 0.0566 0.34605 0.0
O125 O 0.14957 0.06176 0.31152 0.0
Co126 Co 0.95888 0.16701 0.34087 0.0
O127 O 0.93797 0.18717 0.35276 0.0
O128 O 0.97274 0.18486 0.36372 0.0
C129 C 0.93659 0.13743 0.34261 0.0
O130 O 0.98477 0.14726 0.33199 0.0
Co131 Co 0.94739 0.14519 0.29606 0.0
O132 O 0.97382 0.12727 0.30265 0.0
C133 C 0.96393 0.19091 0.29665 0.0
C134 C 0.95344 0.19411 0.36568 0.0
C135 C 0.98798 0.13212 0.31741 0.0
O136 O 0.96721 0.18942 0.31756 0.0
O137 O 0.95474 0.17562 0.28535 0.0
O138 O 0.94772 0.14353 0.3598 0.0
O139 O 0.9375 0.15044 0.3258 0.0
Co140 Co 0.83411 0.95478 0.3291 0.0
O141 O 0.81878 0.92727 0.33181 0.0
O142 O 0.81368 0.95588 0.3538 0.0
C143 C 0.86807 0.93965 0.32515 0.0
O144 O 0.84787 0.98541 0.33197 0.0
Co145 Co 0.85959 0.96634 0.28611 0.0
O146 O 0.8732 0.98911 0.30513 0.0
C147 C 0.81104 0.97143 0.2873 0.0
C148 C 0.8092 0.93545 0.34907 0.0
C149 C 0.8641 0.99566 0.32287 0.0
O150 O 0.81077 0.96658 0.30804 0.0
O151 O 0.82858 0.97069 0.27559 0.0
O152 O 0.85953 0.94198 0.34461 0.0
O153 O 0.85522 0.94464 0.30892 0.0
Co154 Co 0.04379 0.83576 0.33251 0.0
O155 O 0.06474 0.8144 0.34271 0.0
O156 O 0.03264 0.82067 0.35867 0.0
C157 C 0.06859 0.86332 0.32795 0.0
O158 O 0.01845 0.85746 0.32645 0.0
Co159 Co 0.04945 0.85487 0.28502 0.0
O160 O 0.02796 0.87668 0.29617 0.0
C161 C 0.02932 0.81087 0.291 0.0
C162 C 0.05121 0.80986 0.35855 0.0
C163 C 0.01536 0.87341 0.31267 0.0
O164 O 0.02993 0.81291 0.31218 0.0
O165 O 0.03749 0.82508 0.27773 0.0
O166 O 0.06025 0.85954 0.34729 0.0
O167 O 0.06327 0.84927 0.31297 0.0
Co168 Co 0.17216 0.96219 0.66873 0.0
O169 O 0.18953 0.93753 0.65935 0.0
O170 O 0.19321 0.97134 0.64628 0.0
C171 C 0.13925 0.94489 0.66636 0.0
O172 O 0.15626 0.99143 0.6745 0.0
Co173 Co 0.14695 0.9578 0.71289 0.0
O174 O 0.13422 0.98644 0.70403 0.0
C175 C 0.1942 0.96869 0.71399 0.0
C176 C 0.19938 0.95077 0.64583 0.0
C177 C 0.14156 0.99822 0.68828 0.0
O178 O 0.19423 0.96905 0.69278 0.0
O179 O 0.17723 0.96329 0.72531 0.0
O180 O 0.14844 0.95346 0.64908 0.0
O181 O 0.15126 0.94491 0.68403 0.0
Co182 Co 0.04039 0.16771 0.66888 0.0
O183 O 0.06346 0.18858 0.66244 0.0
O184 O 0.03287 0.18471 0.64295 0.0
C185 C 0.06321 0.13872 0.67444 0.0
O186 O 0.01339 0.1476 0.66951 0.0
Co187 Co 0.03691 0.14384 0.71398 0.0
O188 O 0.0128 0.12676 0.70016 0.0
C189 C 0.02253 0.19033 0.71002 0.0
C190 C 0.05178 0.19449 0.6455 0.0
C191 C 0.00483 0.13233 0.68155 0.0
O192 O 0.02542 0.1899 0.68896 0.0
O193 O 0.02767 0.17427 0.72271 0.0
O194 O 0.05737 0.14421 0.65458 0.0
O195 O 0.05632 0.15158 0.68991 0.0
Co196 Co 0.82789 0.04346 0.6647 0.0
O197 O 0.81021 0.0681 0.65552 0.0
O198 O 0.80639 0.03424 0.64269 0.0
C199 C 0.86073 0.06087 0.66181 0.0
O200 O 0.84386 0.01415 0.67025 0.0
Co201 Co 0.85458 0.0477 0.70821 0.0
O202 O 0.86694 0.01899 0.69906 0.0
C203 C 0.80724 0.03682 0.71046 0.0
C204 C 0.8001 0.05477 0.64227 0.0
C205 C 0.85898 0.00726 0.68357 0.0
O206 O 0.80637 0.03664 0.68925 0.0
O207 O 0.82464 0.04204 0.72122 0.0
O208 O 0.8513 0.05232 0.64462 0.0
O209 O 0.84904 0.06066 0.67963 0.0
Co210 Co 0.96008 0.83725 0.6698 0.0
O211 O 0.93716 0.8165 0.66249 0.0
O212 O 0.96831 0.8204 0.64398 0.0
C213 C 0.93722 0.86636 0.67461 0.0
O214 O 0.98706 0.85729 0.67137 0.0
Co215 Co 0.96231 0.86067 0.71507 0.0
O216 O 0.98691 0.8778 0.70222 0.0
C217 C 0.97739 0.81441 0.71124 0.0
C218 C 0.94927 0.81075 0.64583 0.0
C219 C 0.99533 0.8724 0.68378 0.0
O220 O 0.97454 0.8149 0.69016 0.0
O221 O 0.97204 0.83039 0.72393 0.0
O222 O 0.94371 0.86082 0.65499 0.0
O223 O 0.94344 0.85342 0.69035 0.0
Co224 Co 0.36115 0.1714 0.04081 0.0
O225 O 0.36715 0.1915 0.06445 0.0
O226 O 0.38306 0.1929 0.03167 0.0
C227 C 0.36374 0.14056 0.06159 0.0
O228 O 0.35965 0.15274 0.01274 0.0
Co229 Co 0.31932 0.14238 0.04207 0.0
O230 O 0.33193 0.12825 0.01554 0.0
C231 C 0.31521 0.18928 0.02994 0.0
C232 C 0.38133 0.20087 0.05152 0.0
C233 C 0.34838 0.13631 0.0053 0.0
O234 O 0.33636 0.1911 0.03013 0.0
O235 O 0.30519 0.17162 0.03568 0.0
O236 O 0.38125 0.14992 0.0537 0.0
O237 O 0.34545 0.15106 0.0583 0.0
Co238 Co 0.34644 0.83156 0.95957 0.0
O239 O 0.35318 0.81087 0.93666 0.0
O240 O 0.37032 0.81235 0.96884 0.0
C241 C 0.34579 0.86133 0.93753 0.0
O242 O 0.34482 0.85135 0.98667 0.0
Co243 Co 0.30296 0.858 0.95915 0.0
O244 O 0.3162 0.87476 0.98381 0.0
C245 C 0.30239 0.81136 0.97309 0.0
C246 C 0.36865 0.80343 0.94941 0.0
C247 C 0.33346 0.8679 0.99361 0.0
O248 O 0.3236 0.81069 0.97214 0.0
O249 O 0.29116 0.82818 0.96704 0.0
O250 O 0.36433 0.85387 0.94511 0.0
O251 O 0.32846 0.84971 0.94179 0.0
Co252 Co 0.1747 0.33014 0.96037 0.0
O253 O 0.19407 0.34104 0.93801 0.0
O254 O 0.19087 0.35577 0.97116 0.0
C255 C 0.14503 0.32676 0.93791 0.0
O256 O 0.15543 0.32305 0.9873 0.0
Co257 Co 0.15549 0.28282 0.95425 0.0
O258 O 0.13654 0.29216 0.97905 0.0
C259 C 0.20122 0.28824 0.97023 0.0
C260 C 0.19993 0.35631 0.95169 0.0
C261 C 0.14067 0.30838 0.99177 0.0
O262 O 0.19866 0.30933 0.97129 0.0
O263 O 0.18656 0.27524 0.96238 0.0
O264 O 0.14969 0.34568 0.94673 0.0
O265 O 0.15937 0.31146 0.94132 0.0
Co266 Co 0.66566 0.16828 0.95421 0.0
O267 O 0.66418 0.18391 0.92686 0.0
O268 O 0.6419 0.19017 0.95489 0.0
C269 C 0.66799 0.13432 0.93889 0.0
O270 O 0.66243 0.15397 0.98477 0.0
Co271 Co 0.70876 0.1416 0.96395 0.0
O272 O 0.69162 0.13137 0.98967 0.0
C273 C 0.70873 0.18986 0.9697 0.0
C274 C 0.64744 0.19461 0.93462 0.0
C275 C 0.67331 0.13946 0.99603 0.0
O276 O 0.68772 0.19051 0.96626 0.0
O277 O 0.72019 0.17228 0.9675 0.0
O278 O 0.64895 0.14377 0.94113 0.0
O279 O 0.68475 0.14644 0.94377 0.0
Co280 Co 0.83541 0.66942 0.95259 0.0
O281 O 0.81563 0.66313 0.92838 0.0
O282 O 0.81764 0.64389 0.95929 0.0
C283 C 0.8662 0.67459 0.93203 0.0
O284 O 0.85394 0.66969 0.98065 0.0
Co285 Co 0.85933 0.71433 0.95779 0.0
O286 O 0.87498 0.70011 0.98271 0.0
C287 C 0.81217 0.71082 0.96968 0.0
C288 C 0.80877 0.64647 0.93995 0.0
C289 C 0.86883 0.68148 0.99014 0.0
O290 O 0.81266 0.68979 0.96648 0.0
O291 O 0.82856 0.72343 0.9655 0.0
O292 O 0.85975 0.65479 0.93699 0.0
O293 O 0.85297 0.6902 0.9379 0.0
Co294 Co 0.65543 0.82956 0.04366 0.0
O295 O 0.64907 0.81067 0.06829 0.0
O296 O 0.63336 0.80791 0.03549 0.0
C297 C 0.65293 0.86156 0.06259 0.0
O298 O 0.65699 0.84664 0.01469 0.0
Co299 Co 0.69737 0.85823 0.04308 0.0
O300 O 0.68481 0.87109 0.01585 0.0
C301 C 0.70115 0.81082 0.03304 0.0
C302 C 0.63471 0.80099 0.05575 0.0
C303 C 0.66824 0.86254 0.00622 0.0
O304 O 0.68 0.80917 0.03385 0.0
O305 O 0.71137 0.82867 0.03775 0.0
O306 O 0.63546 0.85168 0.05527 0.0
O307 O 0.67129 0.85091 0.0601 0.0
Co308 Co 0.17058 0.66659 0.05058 0.0
O309 O 0.18523 0.66654 0.07848 0.0
O310 O 0.19226 0.64273 0.05188 0.0
C311 C 0.13626 0.67023 0.06482 0.0
O312 O 0.15748 0.66172 0.01973 0.0
Co313 Co 0.14387 0.7083 0.03663 0.0
O314 O 0.13099 0.6874 0.01512 0.0
C315 C 0.19256 0.70842 0.03312 0.0
C316 C 0.19609 0.64938 0.07194 0.0
C317 C 0.14083 0.66984 0.00917 0.0
O318 O 0.19334 0.68779 0.03823 0.0
O319 O 0.17467 0.71964 0.03325 0.0
O320 O 0.14542 0.65092 0.06376 0.0
O321 O 0.14869 0.68648 0.05913 0.0
Co322 Co 0.83198 0.34233 0.04537 0.0
O323 O 0.81258 0.34778 0.06982 0.0
O324 O 0.81073 0.36488 0.03764 0.0
C325 C 0.86377 0.3435 0.06465 0.0
O326 O 0.84988 0.34187 0.01689 0.0
Co327 Co 0.85984 0.29962 0.04396 0.0
O328 O 0.8737 0.31339 0.01786 0.0
C329 C 0.81269 0.29741 0.03256 0.0
C330 C 0.80326 0.36267 0.05762 0.0
C331 C 0.86593 0.33062 0.00871 0.0
O332 O 0.81153 0.31854 0.03399 0.0
O333 O 0.83013 0.28656 0.03744 0.0
O334 O 0.8541 0.36147 0.05828 0.0
O335 O 0.85277 0.32549 0.06136 0.0
Co336 Co 0.53924 0.84666 0.66813 0.0
O337 O 0.56278 0.85679 0.68654 0.0
O338 O 0.52845 0.86862 0.68909 0.0
C339 C 0.55844 0.8502 0.63622 0.0
O340 O 0.51078 0.8398 0.65115 0.0
Co341 Co 0.54646 0.80341 0.64197 0.0
O342 O 0.51752 0.81074 0.62897 0.0
C343 C 0.53333 0.80076 0.68876 0.0
C344 C 0.54878 0.86981 0.69597 0.0
C345 C 0.50481 0.82574 0.63635 0.0
O346 O 0.53244 0.82197 0.68959 0.0
O347 O 0.53975 0.79022 0.67164 0.0
O348 O 0.54839 0.86693 0.64492 0.0
O349 O 0.55818 0.83239 0.64794 0.0
Co350 Co 0.16356 0.54281 0.67063 0.0
O351 O 0.15676 0.5664 0.69077 0.0
O352 O 0.13864 0.53484 0.68894 0.0
C353 C 0.16677 0.56454 0.6404 0.0
O354 O 0.16461 0.51509 0.65165 0.0
Co355 Co 0.20773 0.53997 0.64557 0.0
O356 O 0.19433 0.51484 0.6296 0.0
C357 C 0.20632 0.52777 0.69275 0.0
C358 C 0.14064 0.55423 0.69781 0.0
C359 C 0.17626 0.50645 0.63616 0.0
O360 O 0.18513 0.5297 0.69273 0.0
O361 O 0.21825 0.53268 0.67605 0.0
O362 O 0.14752 0.55796 0.64704 0.0
O363 O 0.18315 0.55907 0.6529 0.0
Co364 Co 0.46082 0.16719 0.66644 0.0
O365 O 0.43826 0.15694 0.68596 0.0
O366 O 0.47287 0.14549 0.68683 0.0
C367 C 0.44059 0.16334 0.63536 0.0
O368 O 0.48832 0.17412 0.64809 0.0
Co369 Co 0.45214 0.21046 0.64094 0.0
O370 O 0.47995 0.20272 0.62589 0.0
C371 C 0.46645 0.21305 0.68725 0.0
C372 C 0.45294 0.14416 0.69471 0.0
C373 C 0.49321 0.18789 0.63264 0.0
O374 O 0.46821 0.19191 0.68755 0.0
O375 O 0.45905 0.22368 0.67057 0.0
O376 O 0.451 0.14672 0.64385 0.0
O377 O 0.44093 0.18123 0.64698 0.0
Co378 Co 0.8552 0.46666 0.67302 0.0
O379 O 0.8621 0.44315 0.69295 0.0
O380 O 0.87706 0.47641 0.69424 0.0
C381 C 0.858 0.44625 0.64213 0.0
O382 O 0.8528 0.49469 0.65458 0.0
Co383 Co 0.81317 0.46472 0.64427 0.0
O384 O 0.82514 0.49151 0.63005 0.0
C385 C 0.80928 0.4757 0.69147 0.0
C386 C 0.87605 0.45649 0.70212 0.0
C387 C 0.84141 0.50199 0.63818 0.0
O388 O 0.83043 0.47651 0.69295 0.0
O389 O 0.79924 0.46971 0.67388 0.0
O390 O 0.8754 0.45451 0.65141 0.0
O391 O 0.83967 0.44894 0.65272 0.0
Co392 Co 0.53729 0.16288 0.33403 0.0
O393 O 0.56141 0.15624 0.31438 0.0
O394 O 0.5285 0.1406 0.31299 0.0
C395 C 0.55705 0.16103 0.36559 0.0
O396 O 0.50881 0.16427 0.35187 0.0
Co397 Co 0.53659 0.20494 0.36247 0.0
O398 O 0.51011 0.19197 0.37641 0.0
C399 C 0.52533 0.20827 0.31529 0.0
C400 C 0.54848 0.14178 0.30533 0.0
C401 C 0.50059 0.17523 0.36808 0.0
O402 O 0.52675 0.18715 0.31366 0.0
O403 O 0.52994 0.21869 0.33306 0.0
O404 O 0.54969 0.14334 0.35611 0.0
O405 O 0.55406 0.1792 0.35475 0.0
Co406 Co 0.85716 0.53929 0.33663 0.0
O407 O 0.86355 0.5631 0.31683 0.0
O408 O 0.87937 0.53025 0.31545 0.0
C409 C 0.85915 0.55959 0.36776 0.0
O410 O 0.85549 0.5111 0.35493 0.0
Co411 Co 0.81486 0.53994 0.36497 0.0
O412 O 0.82746 0.51337 0.37911 0.0
C413 C 0.81158 0.52915 0.31769 0.0
C414 C 0.87784 0.55016 0.3076 0.0
C415 C 0.84414 0.50341 0.37116 0.0
O416 O 0.83276 0.52884 0.31641 0.0
O417 O 0.80128 0.53484 0.33521 0.0
O418 O 0.87685 0.55193 0.35854 0.0
O419 O 0.84102 0.55646 0.35694 0.0
Co420 Co 0.45839 0.83807 0.33929 0.0
O421 O 0.43248 0.83996 0.3216 0.0
O422 O 0.46271 0.85937 0.31546 0.0
C423 C 0.44086 0.84052 0.372 0.0
O424 O 0.48801 0.84013 0.35529 0.0
Co425 Co 0.46295 0.79692 0.36918 0.0
O426 O 0.48873 0.81309 0.3808 0.0
C427 C 0.47302 0.79273 0.32202 0.0
C428 C 0.4426 0.85445 0.3097 0.0
C429 C 0.49721 0.82993 0.37156 0.0
O430 O 0.46993 0.8136 0.31991 0.0
O431 O 0.46972 0.78245 0.34015 0.0
O432 O 0.44574 0.85807 0.36082 0.0
O433 O 0.44455 0.82203 0.36201 0.0
Co434 Co 0.1514 0.4598 0.33492 0.0
O435 O 0.14685 0.4354 0.31514 0.0
O436 O 0.13008 0.46764 0.31238 0.0
C437 C 0.14859 0.4401 0.36635 0.0
O438 O 0.15127 0.48841 0.35289 0.0
Co439 Co 0.1925 0.46081 0.36517 0.0
O440 O 0.1786 0.48736 0.37803 0.0
C441 C 0.19744 0.47166 0.3181 0.0
C442 C 0.1327 0.44771 0.30489 0.0
C443 C 0.16192 0.49672 0.36934 0.0
O444 O 0.17636 0.47087 0.31582 0.0
O445 O 0.20722 0.46658 0.33611 0.0
O446 O 0.13109 0.44684 0.35604 0.0
O447 O 0.16709 0.44359 0.35632 0.0
Co448 Co 0.67247 0.54778 0.83392 0.0
O449 O 0.69253 0.57168 0.83992 0.0
O450 O 0.69026 0.54109 0.85961 0.0
C451 C 0.64241 0.56915 0.82856 0.0
O452 O 0.65329 0.52002 0.83345 0.0
Co453 Co 0.64866 0.54351 0.7887 0.0
O454 O 0.63204 0.51939 0.80303 0.0
C455 C 0.69575 0.53139 0.79254 0.0
C456 C 0.69936 0.56028 0.85669 0.0
C457 C 0.63795 0.51135 0.82151 0.0
O458 O 0.695 0.53367 0.81367 0.0
O459 O 0.67958 0.53621 0.77984 0.0
O460 O 0.64844 0.56389 0.84844 0.0
O461 O 0.65552 0.56285 0.81307 0.0
Co462 Co 0.46308 0.67141 0.83748 0.0
O463 O 0.43976 0.68995 0.84771 0.0
O464 O 0.47421 0.69204 0.85947 0.0
C465 C 0.44391 0.6396 0.84099 0.0
O466 O 0.49126 0.65414 0.83058 0.0
Co467 Co 0.45566 0.64627 0.79394 0.0
O468 O 0.48395 0.63211 0.80157 0.0
C469 C 0.46903 0.69285 0.79189 0.0
C470 C 0.45397 0.69916 0.86067 0.0
C471 C 0.49681 0.63909 0.81663 0.0
O472 O 0.46998 0.69308 0.81308 0.0
O473 O 0.46256 0.67602 0.78093 0.0
O474 O 0.45401 0.64833 0.85766 0.0
O475 O 0.44386 0.65136 0.82316 0.0
Co476 Co 0.33139 0.46186 0.84866 0.0
O477 O 0.31259 0.43744 0.85571 0.0
O478 O 0.31003 0.47038 0.87103 0.0
C479 C 0.36333 0.44266 0.85087 0.0
O480 O 0.34876 0.49068 0.84608 0.0
Co481 Co 0.35892 0.46095 0.80592 0.0
O482 O 0.37234 0.48827 0.81755 0.0
C483 C 0.31152 0.47123 0.80306 0.0
C484 C 0.30302 0.45013 0.86997 0.0
C485 C 0.36448 0.49852 0.83409 0.0
O486 O 0.31049 0.47123 0.82427 0.0
O487 O 0.32904 0.466 0.79252 0.0
O488 O 0.35394 0.45046 0.86841 0.0
O489 O 0.3522 0.44492 0.83277 0.0
Co490 Co 0.54517 0.33606 0.83823 0.0
O491 O 0.57103 0.31802 0.83948 0.0
O492 O 0.54114 0.31206 0.85943 0.0
C493 C 0.56298 0.36875 0.84053 0.0
O494 O 0.5156 0.35228 0.84108 0.0
Co495 Co 0.53979 0.36627 0.79744 0.0
O496 O 0.514 0.37755 0.81384 0.0
C497 C 0.52983 0.31915 0.79288 0.0
C498 C 0.56105 0.30605 0.85403 0.0
C499 C 0.50599 0.3684 0.83096 0.0
O500 O 0.533 0.31691 0.81375 0.0
O501 O 0.53313 0.33735 0.78272 0.0
O502 O 0.55845 0.35744 0.85809 0.0
O503 O 0.5588 0.35888 0.82206 0.0
Co504 Co 0.67445 0.45815 0.17428 0.0
O505 O 0.69405 0.43426 0.16683 0.0
O506 O 0.69149 0.46571 0.14851 0.0
C507 C 0.64403 0.43726 0.1794 0.0
O508 O 0.65572 0.486 0.17584 0.0
Co509 Co 0.65136 0.46165 0.21985 0.0
O510 O 0.63487 0.48646 0.20647 0.0
C511 C 0.69854 0.47337 0.21575 0.0
C512 C 0.7003 0.44626 0.15024 0.0
C513 C 0.64067 0.49466 0.18804 0.0
O514 O 0.69758 0.47135 0.1946 0.0
O515 O 0.68242 0.46859 0.2285 0.0
O516 O 0.64996 0.44295 0.15963 0.0
O517 O 0.65752 0.4427 0.19494 0.0
Co518 Co 0.54556 0.66792 0.17101 0.0
O519 O 0.56814 0.68708 0.16022 0.0
O520 O 0.53348 0.68797 0.14895 0.0
C521 C 0.5654 0.63659 0.16787 0.0
O522 O 0.51814 0.64974 0.17878 0.0
Co523 Co 0.55525 0.64327 0.21499 0.0
O524 O 0.52776 0.62767 0.20714 0.0
C525 C 0.54037 0.6895 0.21653 0.0
C526 C 0.55346 0.69572 0.14738 0.0
C527 C 0.51391 0.63425 0.19275 0.0
O528 O 0.5384 0.68947 0.19539 0.0
O529 O 0.5481 0.67313 0.2274 0.0
O530 O 0.55517 0.64475 0.15096 0.0
O531 O 0.56529 0.64878 0.18534 0.0
Co532 Co 0.33339 0.55088 0.17846 0.0
O533 O 0.31485 0.57633 0.17723 0.0
O534 O 0.31292 0.54862 0.15363 0.0
C535 C 0.36529 0.56949 0.18366 0.0
O536 O 0.35082 0.52212 0.17498 0.0
Co537 Co 0.3586 0.54177 0.22248 0.0
O538 O 0.37256 0.51812 0.20495 0.0
C539 C 0.311 0.53244 0.2197 0.0
C540 C 0.3054 0.56764 0.16019 0.0
C541 C 0.36585 0.51181 0.18605 0.0
O542 O 0.31134 0.53596 0.19874 0.0
O543 O 0.32767 0.53581 0.2322 0.0
O544 O 0.35747 0.56701 0.16387 0.0
O545 O 0.35265 0.56263 0.19927 0.0
Co546 Co 0.46334 0.34032 0.16483 0.0
O547 O 0.44088 0.32158 0.15304 0.0
O548 O 0.47583 0.32071 0.14269 0.0
C549 C 0.44364 0.37189 0.16204 0.0
O550 O 0.49083 0.35794 0.17346 0.0
Co551 Co 0.4536 0.36408 0.20907 0.0
O552 O 0.48195 0.37887 0.20287 0.0
C553 C 0.46717 0.31744 0.20989 0.0
C554 C 0.45589 0.31304 0.14051 0.0
C555 C 0.49554 0.37261 0.18813 0.0
O556 O 0.46974 0.31801 0.18883 0.0
O557 O 0.45956 0.33372 0.22095 0.0
O558 O 0.45424 0.36413 0.14518 0.0
O559 O 0.44348 0.3593 0.17925 0.0
Co560 Co 0.848 0.67589 0.54238 0.0
O561 O 0.85295 0.69584 0.56652 0.0
O562 O 0.86924 0.69823 0.53401 0.0
C563 C 0.85138 0.64472 0.56228 0.0
O564 O 0.84793 0.65764 0.51406 0.0
Co565 Co 0.80706 0.64581 0.54186 0.0
O566 O 0.82131 0.63191 0.51603 0.0
C567 C 0.80175 0.69256 0.53039 0.0
C568 C 0.86714 0.70575 0.55399 0.0
C569 C 0.83775 0.64066 0.50635 0.0
O570 O 0.82283 0.69479 0.53144 0.0
O571 O 0.79193 0.67458 0.53539 0.0
O572 O 0.86862 0.65512 0.55512 0.0
O573 O 0.83265 0.65452 0.5591 0.0
Co574 Co 0.85454 0.32998 0.4677 0.0
O575 O 0.86126 0.31103 0.44343 0.0
O576 O 0.87628 0.30824 0.47658 0.0
C577 C 0.85759 0.36171 0.44854 0.0
O578 O 0.8525 0.34744 0.49633 0.0
Co579 Co 0.81262 0.35872 0.46689 0.0
O580 O 0.82531 0.37253 0.49357 0.0
C581 C 0.80852 0.31125 0.47625 0.0
C582 C 0.87526 0.30128 0.45632 0.0
C583 C 0.84155 0.36402 0.50383 0.0
O584 O 0.82967 0.30976 0.47689 0.0
O585 O 0.79848 0.32906 0.47096 0.0
O586 O 0.87488 0.35188 0.45641 0.0
O587 O 0.83916 0.35113 0.45071 0.0
Co588 Co 0.67439 0.84343 0.4599 0.0
O589 O 0.69278 0.84507 0.4344 0.0
O590 O 0.69847 0.86425 0.46493 0.0
C591 C 0.64215 0.84643 0.44165 0.0
O592 O 0.6576 0.84556 0.48919 0.0
Co593 Co 0.64445 0.80235 0.46341 0.0
O594 O 0.63274 0.81789 0.48954 0.0
C595 C 0.69145 0.79757 0.47327 0.0
C596 C 0.70473 0.85915 0.44502 0.0
C597 C 0.64144 0.83496 0.49816 0.0
O598 O 0.69326 0.81861 0.47158 0.0
O599 O 0.67349 0.78733 0.46909 0.0
O600 O 0.65344 0.86382 0.44683 0.0
O601 O 0.65185 0.82778 0.44547 0.0
Co602 Co 0.14942 0.67238 0.46197 0.0
O603 O 0.14043 0.68992 0.43727 0.0
O604 O 0.12767 0.69435 0.47105 0.0
C605 C 0.14596 0.63958 0.44436 0.0
O606 O 0.15508 0.65652 0.49139 0.0
Co607 Co 0.19249 0.64517 0.45747 0.0
O608 O 0.18354 0.63307 0.48636 0.0
C609 C 0.19545 0.69271 0.46744 0.0
C610 C 0.12742 0.70047 0.45046 0.0
C611 C 0.16831 0.6413 0.49824 0.0
O612 O 0.17427 0.69369 0.46848 0.0
O613 O 0.20584 0.67519 0.46188 0.0
O614 O 0.129 0.64912 0.45321 0.0
O615 O 0.16394 0.65102 0.44463 0.0
Co616 Co 0.3249 0.15948 0.45956 0.0
O617 O 0.30531 0.15314 0.43545 0.0
O618 O 0.30359 0.13718 0.46818 0.0
C619 C 0.35637 0.15746 0.43985 0.0
O620 O 0.34301 0.1612 0.48798 0.0
Co621 Co 0.35284 0.2021 0.45895 0.0
O622 O 0.36684 0.18956 0.48561 0.0
C623 C 0.30589 0.20495 0.47086 0.0
C624 C 0.29599 0.13871 0.44816 0.0
C625 C 0.35906 0.17286 0.49566 0.0
O626 O 0.30463 0.18378 0.47005 0.0
O627 O 0.32332 0.21558 0.46555 0.0
O628 O 0.34688 0.13979 0.44722 0.0
O629 O 0.34547 0.17561 0.44264 0.0
Co630 Co 0.15542 0.33084 0.54549 0.0
O631 O 0.14962 0.31135 0.56989 0.0
O632 O 0.13302 0.30958 0.53746 0.0
C633 C 0.15409 0.36252 0.56488 0.0
O634 O 0.15611 0.34863 0.51692 0.0
Co635 Co 0.19783 0.35898 0.54401 0.0
O636 O 0.1839 0.37314 0.5181 0.0
C637 C 0.20052 0.31183 0.53285 0.0
C638 C 0.13494 0.30202 0.55744 0.0
C639 C 0.16696 0.36497 0.50876 0.0
O640 O 0.1794 0.3105 0.53446 0.0
O641 O 0.21125 0.32942 0.53741 0.0
O642 O 0.13616 0.35295 0.55823 0.0
O643 O 0.17215 0.35159 0.56162 0.0
Co644 Co 0.66975 0.16738 0.54293 0.0
O645 O 0.68935 0.16029 0.567 0.0
O646 O 0.68671 0.14119 0.53608 0.0
C647 C 0.63949 0.17333 0.56392 0.0
O648 O 0.65092 0.16864 0.51494 0.0
Co649 Co 0.6469 0.21309 0.53867 0.0
O650 O 0.63017 0.19937 0.51425 0.0
C651 C 0.69416 0.20847 0.52735 0.0
C652 C 0.69557 0.14336 0.55548 0.0
C653 C 0.63586 0.18085 0.50617 0.0
O654 O 0.69306 0.18731 0.52937 0.0
O655 O 0.6781 0.22133 0.53205 0.0
O656 O 0.64508 0.15337 0.55857 0.0
O657 O 0.65311 0.18851 0.55798 0.0
Co658 Co 0.32755 0.83611 0.5476 0.0
O659 O 0.30703 0.84321 0.57074 0.0
O660 O 0.31028 0.86174 0.53952 0.0
C661 C 0.35725 0.83167 0.56977 0.0
O662 O 0.3474 0.83464 0.52051 0.0
Co663 Co 0.35122 0.79079 0.54551 0.0
O664 O 0.36884 0.80441 0.52166 0.0
C665 C 0.30477 0.7943 0.53091 0.0
C666 C 0.30094 0.85982 0.55871 0.0
C667 C 0.36313 0.82259 0.51285 0.0
O668 O 0.30526 0.81542 0.53346 0.0
O669 O 0.32084 0.78171 0.5363 0.0
O670 O 0.35119 0.85124 0.56359 0.0
O671 O 0.34425 0.81583 0.56398 0.0
H672 H 0.13847 0.40841 0.28359 0.0
H673 H 0.0969 0.46661 0.28457 0.0
H674 H 0.07334 0.45015 0.25559 0.0
H675 H 0.13547 0.39899 0.22442 0.0
H676 H 0.13524 0.36943 0.22732 0.0
H677 H 0.14905 0.38619 0.24757 0.0
H678 H 0.12557 0.36828 0.27839 0.0
H679 H 0.11157 0.35158 0.25824 0.0
H680 H 0.09592 0.36906 0.27646 0.0
H681 H 0.0532 0.42625 0.22791 0.0
H682 H 0.03944 0.39804 0.20199 0.0
H683 H 0.09486 0.3559 0.21853 0.0
C684 C 0.12452 0.4178 0.2776 0.0
C685 C 0.1195 0.43881 0.28636 0.0
C686 C 0.1011 0.45054 0.27804 0.0
C687 C 0.0876 0.44128 0.26164 0.0
C688 C 0.09283 0.42038 0.25361 0.0
C689 C 0.111 0.4089 0.26116 0.0
C690 C 0.11302 0.38668 0.24992 0.0
C691 C 0.13447 0.38525 0.23651 0.0
C692 C 0.11142 0.36779 0.26676 0.0
C693 C 0.09299 0.38731 0.23502 0.0
C694 C 0.08152 0.40685 0.23744 0.0
C695 C 0.06215 0.41097 0.22578 0.0
C696 C 0.05442 0.39479 0.21115 0.0
C697 C 0.06609 0.37477 0.20818 0.0
C698 C 0.08562 0.37106 0.22035 0.0
H699 H 0.63637 0.0929 0.22071 0.0
H700 H 0.5938 0.03601 0.21289 0.0
H701 H 0.5672 0.05246 0.2391 0.0
H702 H 0.6264 0.10056 0.27927 0.0
H703 H 0.62744 0.13018 0.27737 0.0
H704 H 0.64308 0.11356 0.2584 0.0
H705 H 0.62406 0.1333 0.22562 0.0
H706 H 0.60816 0.1498 0.24447 0.0
H707 H 0.59439 0.13344 0.22384 0.0
H708 H 0.54427 0.07642 0.26471 0.0
H709 H 0.52878 0.10395 0.2905 0.0
H710 H 0.58718 0.14436 0.28226 0.0
C711 C 0.62155 0.08378 0.22464 0.0
C712 C 0.61713 0.06318 0.21474 0.0
C713 C 0.59757 0.05177 0.22037 0.0
C714 C 0.58232 0.06104 0.23514 0.0
C715 C 0.58699 0.08161 0.24428 0.0
C716 C 0.60631 0.09268 0.23948 0.0
C717 C 0.6076 0.11443 0.25164 0.0
C718 C 0.6273 0.11469 0.26762 0.0
C719 C 0.60861 0.13389 0.23542 0.0
C720 C 0.5859 0.11401 0.26393 0.0
C721 C 0.57415 0.09505 0.25935 0.0
C722 C 0.55342 0.09125 0.26851 0.0
C723 C 0.5447 0.10703 0.28304 0.0
C724 C 0.55678 0.12627 0.28841 0.0
C725 C 0.57756 0.12979 0.27853 0.0
H726 H 0.91727 0.63894 0.22061 0.0
H727 H 0.97443 0.59847 0.20635 0.0
H728 H 0.96165 0.57105 0.23402 0.0
H729 H 0.91554 0.62846 0.27921 0.0
H730 H 0.88584 0.62874 0.27987 0.0
H731 H 0.90034 0.64494 0.2597 0.0
H732 H 0.8783 0.62566 0.22854 0.0
H733 H 0.86395 0.60918 0.24857 0.0
H734 H 0.87883 0.59603 0.22649 0.0
H735 H 0.94048 0.54709 0.26237 0.0
H736 H 0.91528 0.53096 0.29029 0.0
H737 H 0.87307 0.58841 0.28496 0.0
C738 C 0.92727 0.6244 0.22337 0.0
C739 C 0.9468 0.62074 0.21132 0.0
C740 C 0.95945 0.60159 0.21553 0.0
C741 C 0.95224 0.58592 0.23111 0.0
C742 C 0.93251 0.58986 0.24235 0.0
C743 C 0.92044 0.60884 0.23878 0.0
C744 C 0.89984 0.60951 0.25269 0.0
C745 C 0.90044 0.62907 0.26883 0.0
C746 C 0.87901 0.61013 0.2382 0.0
C747 C 0.90195 0.58782 0.26463 0.0
C748 C 0.92079 0.57655 0.25849 0.0
C749 C 0.92578 0.55589 0.26733 0.0
C750 C 0.91134 0.5468 0.28307 0.0
C751 C 0.89226 0.55846 0.28981 0.0
C752 C 0.88755 0.57911 0.28024 0.0
H753 H 0.44843 0.89557 0.28968 0.0
H754 H 0.4101 0.83517 0.28684 0.0
H755 H 0.38647 0.85126 0.25838 0.0
H756 H 0.40316 0.93242 0.28315 0.0
H757 H 0.41707 0.95187 0.26553 0.0
H758 H 0.43266 0.9356 0.2849 0.0
H759 H 0.45721 0.92088 0.25329 0.0
H760 H 0.44188 0.93734 0.23385 0.0
H761 H 0.4445 0.90805 0.22969 0.0
H762 H 0.36522 0.87341 0.23338 0.0
H763 H 0.3486 0.90011 0.2084 0.0
H764 H 0.39982 0.94761 0.22457 0.0
C765 C 0.43533 0.88569 0.28267 0.0
C766 C 0.43104 0.86411 0.29054 0.0
C767 C 0.4136 0.85175 0.28122 0.0
C768 C 0.40004 0.86074 0.26501 0.0
C769 C 0.40411 0.88216 0.25813 0.0
C770 C 0.42141 0.89452 0.26625 0.0
C771 C 0.42138 0.9174 0.25582 0.0
C772 C 0.41839 0.93538 0.2734 0.0
C773 C 0.4425 0.92113 0.24236 0.0
C774 C 0.40121 0.91582 0.2409 0.0
C775 C 0.39165 0.89526 0.24279 0.0
C776 C 0.37266 0.88949 0.23146 0.0
C777 C 0.36332 0.90492 0.2173 0.0
C778 C 0.37295 0.92599 0.21428 0.0
C779 C 0.39208 0.93166 0.2265 0.0
H780 H 0.14387 0.59221 0.72159 0.0
H781 H 0.10148 0.53562 0.7112 0.0
H782 H 0.07426 0.55134 0.73733 0.0
H783 H 0.13345 0.59798 0.77949 0.0
H784 H 0.13448 0.62765 0.77863 0.0
H785 H 0.15012 0.61172 0.75911 0.0
H786 H 0.13106 0.63254 0.72697 0.0
H787 H 0.11521 0.64838 0.7464 0.0
H788 H 0.1014 0.63276 0.72524 0.0
H789 H 0.05115 0.5745 0.76462 0.0
H790 H 0.03631 0.60114 0.79201 0.0
H791 H 0.09481 0.64136 0.7839 0.0
C792 C 0.1289 0.58304 0.72482 0.0
C793 C 0.12478 0.5627 0.71434 0.0
C794 C 0.10501 0.55122 0.71911 0.0
C795 C 0.08942 0.56007 0.73385 0.0
C796 C 0.09391 0.58035 0.74372 0.0
C797 C 0.11332 0.59153 0.73948 0.0
C798 C 0.11463 0.61278 0.75235 0.0
C799 C 0.13433 0.6125 0.76834 0.0
C800 C 0.11562 0.63279 0.73681 0.0
C801 C 0.09295 0.6119 0.76457 0.0
C802 C 0.08104 0.59322 0.75936 0.0
C803 C 0.06042 0.58915 0.76882 0.0
C804 C 0.05205 0.60438 0.78426 0.0
C805 C 0.06443 0.62325 0.79014 0.0
C806 C 0.08496 0.62703 0.77988 0.0
H807 H 0.36882 0.09307 0.78058 0.0
H808 H 0.40985 0.0346 0.78374 0.0
H809 H 0.4363 0.0519 0.75784 0.0
H810 H 0.37711 0.10397 0.7227 0.0
H811 H 0.37689 0.13343 0.72646 0.0
H812 H 0.36153 0.11603 0.74492 0.0
H813 H 0.38223 0.13326 0.77812 0.0
H814 H 0.39791 0.15046 0.75973 0.0
H815 H 0.41194 0.13251 0.77882 0.0
H816 H 0.45916 0.07703 0.73243 0.0
H817 H 0.47373 0.10561 0.70698 0.0
H818 H 0.4167 0.14645 0.72067 0.0
C819 C 0.38328 0.08379 0.77572 0.0
C820 C 0.38731 0.06251 0.78417 0.0
C821 C 0.40639 0.0509 0.77734 0.0
C822 C 0.42157 0.06066 0.76277 0.0
C823 C 0.4173 0.08192 0.7551 0.0
C824 C 0.39841 0.09316 0.76114 0.0
C825 C 0.39725 0.1156 0.75042 0.0
C826 C 0.377 0.11734 0.73522 0.0
C827 C 0.39734 0.13404 0.76781 0.0
C828 C 0.41845 0.11535 0.73738 0.0
C829 C 0.42999 0.09594 0.74038 0.0
C830 C 0.45018 0.09224 0.72993 0.0
C831 C 0.45842 0.10859 0.71565 0.0
C832 C 0.44632 0.12818 0.71186 0.0
C833 C 0.4263 0.13161 0.72318 0.0
H834 H 0.87071 0.41976 0.72691 0.0
H835 H 0.91513 0.47471 0.71644 0.0
H836 H 0.94168 0.45813 0.74286 0.0
H837 H 0.8814 0.41324 0.7853 0.0
H838 H 0.87904 0.38367 0.78395 0.0
H839 H 0.86376 0.40063 0.76497 0.0
H840 H 0.88127 0.37946 0.73222 0.0
H841 H 0.89685 0.36267 0.75108 0.0
H842 H 0.91086 0.37806 0.7299 0.0
H843 H 0.96434 0.43342 0.76925 0.0
H844 H 0.97876 0.40533 0.79543 0.0
H845 H 0.91833 0.36794 0.78786 0.0
C846 C 0.88592 0.42847 0.73031 0.0
C847 C 0.89092 0.44848 0.71965 0.0
C848 C 0.91095 0.4594 0.72459 0.0
C849 C 0.92616 0.45003 0.73944 0.0
C850 C 0.92089 0.42991 0.74928 0.0
C851 C 0.90106 0.4195 0.74508 0.0
C852 C 0.89904 0.39811 0.75758 0.0
C853 C 0.87967 0.39898 0.77392 0.0
C854 C 0.89689 0.37842 0.74175 0.0
C855 C 0.92092 0.39789 0.7694 0.0
C856 C 0.93348 0.41621 0.76442 0.0
C857 C 0.95453 0.4191 0.77334 0.0
C858 C 0.96266 0.40305 0.78806 0.0
C859 C 0.94961 0.38456 0.79371 0.0
C860 C 0.92865 0.38197 0.784 0.0
H861 H 0.63902 0.92058 0.77518 0.0
H862 H 0.59282 0.97136 0.79488 0.0
H863 H 0.56518 0.95611 0.76865 0.0
H864 H 0.62364 0.91833 0.71714 0.0
H865 H 0.62775 0.88893 0.716 0.0
H866 H 0.64374 0.90539 0.73483 0.0
H867 H 0.63054 0.88082 0.76721 0.0
H868 H 0.6142 0.86454 0.74858 0.0
H869 H 0.60141 0.8775 0.77204 0.0
H870 H 0.54158 0.93221 0.74155 0.0
H871 H 0.52632 0.90484 0.71507 0.0
H872 H 0.58915 0.87072 0.71493 0.0
C873 C 0.62322 0.9288 0.77377 0.0
C874 C 0.61804 0.94717 0.78702 0.0
C875 C 0.59718 0.95739 0.78468 0.0
C876 C 0.58137 0.94872 0.76995 0.0
C877 C 0.58684 0.93 0.75764 0.0
C878 C 0.60747 0.92045 0.75929 0.0
C879 C 0.60949 0.90019 0.74504 0.0
C880 C 0.6272 0.90341 0.72719 0.0
C881 C 0.61418 0.87955 0.75906 0.0
C882 C 0.58668 0.89947 0.73519 0.0
C883 C 0.57368 0.91669 0.74251 0.0
C884 C 0.55175 0.9188 0.73566 0.0
C885 C 0.54316 0.90313 0.72073 0.0
C886 C 0.55653 0.88566 0.71289 0.0
C887 C 0.57845 0.88389 0.72048 0.0
H888 H 0.21438 0.09455 0.35575 0.0
H889 H 0.20382 0.03592 0.39523 0.0
H890 H 0.22822 0.05126 0.42429 0.0
H891 H 0.27156 0.1013 0.36902 0.0
H892 H 0.27001 0.13096 0.36908 0.0
H893 H 0.25157 0.11523 0.35197 0.0
H894 H 0.21815 0.13453 0.37031 0.0
H895 H 0.23649 0.15018 0.38764 0.0
H896 H 0.21514 0.13354 0.39986 0.0
H897 H 0.25367 0.07409 0.44943 0.0
H898 H 0.2798 0.10049 0.46654 0.0
H899 H 0.27354 0.14317 0.40953 0.0
C900 C 0.21717 0.08487 0.37049 0.0
C901 C 0.20714 0.06406 0.37327 0.0
C902 C 0.21138 0.05188 0.39274 0.0
C903 C 0.22512 0.06052 0.40936 0.0
C904 C 0.23456 0.08127 0.40615 0.0
C905 C 0.23088 0.09313 0.38704 0.0
C906 C 0.24328 0.11473 0.38714 0.0
C907 C 0.2601 0.11559 0.36819 0.0
C908 C 0.22731 0.1344 0.38618 0.0
C909 C 0.25459 0.11328 0.40929 0.0
C910 C 0.24928 0.094 0.42018 0.0
C911 C 0.25792 0.08921 0.44099 0.0
C912 C 0.27266 0.10433 0.45064 0.0
C913 C 0.27871 0.12387 0.43938 0.0
C914 C 0.26927 0.12839 0.41858 0.0
H915 H 0.8744 0.28402 0.4152 0.0
H916 H 0.91018 0.28047 0.47703 0.0
H917 H 0.93648 0.25403 0.4601 0.0
H918 H 0.87935 0.22759 0.40057 0.0
H919 H 0.88214 0.23348 0.37159 0.0
H920 H 0.86684 0.25194 0.389 0.0
H921 H 0.89176 0.28429 0.37631 0.0
H922 H 0.90737 0.26583 0.35912 0.0
H923 H 0.92122 0.28222 0.37966 0.0
H924 H 0.95902 0.2275 0.43513 0.0
H925 H 0.97293 0.20193 0.40622 0.0
H926 H 0.92161 0.22466 0.36197 0.0
C927 C 0.88769 0.27769 0.42531 0.0
C928 C 0.89025 0.28428 0.44743 0.0
C929 C 0.90788 0.27554 0.46004 0.0
C930 C 0.92295 0.26064 0.45051 0.0
C931 C 0.9201 0.2548 0.42843 0.0
C932 C 0.90275 0.26303 0.41613 0.0
C933 C 0.90272 0.25413 0.39295 0.0
C934 C 0.88151 0.241 0.38827 0.0
C935 C 0.90597 0.27273 0.37602 0.0
C936 C 0.92262 0.23932 0.39403 0.0
C937 C 0.93271 0.23994 0.41446 0.0
C938 C 0.95123 0.227 0.41908 0.0
C939 C 0.95913 0.21266 0.40258 0.0
C940 C 0.94829 0.21138 0.38196 0.0
C941 C 0.9302 0.22527 0.37762 0.0
H942 H 0.71922 0.90227 0.44078 0.0
H943 H 0.73482 0.83451 0.42435 0.0
H944 H 0.7646 0.84708 0.39991 0.0
H945 H 0.72575 0.92328 0.38795 0.0
H946 H 0.73839 0.94907 0.39552 0.0
H947 H 0.72037 0.93525 0.41461 0.0
H948 H 0.75111 0.93512 0.44422 0.0
H949 H 0.76915 0.9493 0.42535 0.0
H950 H 0.77772 0.92365 0.43766 0.0
H951 H 0.78843 0.86605 0.3737 0.0
H952 H 0.80878 0.89091 0.34917 0.0
H953 H 0.77956 0.94746 0.38193 0.0
C954 C 0.72954 0.89019 0.43266 0.0
C955 C 0.72503 0.86741 0.4346 0.0
C956 C 0.73823 0.852 0.42316 0.0
C957 C 0.75514 0.85898 0.40923 0.0
C958 C 0.75869 0.88149 0.40687 0.0
C959 C 0.7466 0.89696 0.41844 0.0
C960 C 0.75306 0.92017 0.41145 0.0
C961 C 0.73321 0.93267 0.40181 0.0
C962 C 0.76338 0.93281 0.43083 0.0
C963 C 0.77012 0.91516 0.39377 0.0
C964 C 0.773 0.89269 0.39154 0.0
C965 C 0.78666 0.8837 0.37551 0.0
C966 C 0.79802 0.898 0.36151 0.0
C967 C 0.79584 0.92114 0.36364 0.0
C968 C 0.7817 0.92985 0.38005 0.0
H969 H 0.08561 0.78141 0.35686 0.0
H970 H 0.03173 0.80181 0.39911 0.0
H971 H 0.04529 0.77635 0.42827 0.0
H972 H 0.08585 0.72426 0.37244 0.0
H973 H 0.11543 0.72217 0.3706 0.0
H974 H 0.10085 0.74159 0.35354 0.0
H975 H 0.12521 0.77319 0.36887 0.0
H976 H 0.13972 0.7539 0.38614 0.0
H977 H 0.12658 0.77765 0.39821 0.0
H978 H 0.06675 0.74879 0.4535 0.0
H979 H 0.09173 0.72097 0.4704 0.0
H980 H 0.13035 0.71978 0.41031 0.0
C981 C 0.0765 0.78052 0.37218 0.0
C982 C 0.05762 0.79364 0.37572 0.0
C983 C 0.0462 0.79183 0.396 0.0
C984 C 0.05386 0.77749 0.41267 0.0
C985 C 0.07285 0.76504 0.40869 0.0
C986 C 0.08381 0.76637 0.38877 0.0
C987 C 0.10374 0.75147 0.38818 0.0
C988 C 0.10131 0.73382 0.37013 0.0
C989 C 0.12506 0.76486 0.38518 0.0
C990 C 0.10248 0.74146 0.41091 0.0
C991 C 0.08469 0.74944 0.4227 0.0
C992 C 0.08064 0.74244 0.44429 0.0
C993 C 0.09494 0.72672 0.45382 0.0
C994 C 0.11294 0.71814 0.44167 0.0
C995 C 0.11669 0.72587 0.42005 0.0
H996 H 0.21929 0.91072 0.6475 0.0
H997 H 0.2167 0.97075 0.60878 0.0
H998 H 0.24204 0.95391 0.58139 0.0
H999 H 0.27679 0.89864 0.638 0.0
H1000 H 0.27223 0.8693 0.63711 0.0
H1001 H 0.25448 0.88657 0.65345 0.0
H1002 H 0.22047 0.87114 0.63265 0.0
H1003 H 0.23813 0.85402 0.61606 0.0
H1004 H 0.21936 0.87302 0.60302 0.0
H1005 H 0.26672 0.92909 0.55742 0.0
H1006 H 0.29046 0.90022 0.54092 0.0
H1007 H 0.27649 0.85729 0.59635 0.0
C1008 C 0.22412 0.92045 0.63335 0.0
C1009 C 0.216 0.94205 0.63023 0.0
C1010 C 0.22282 0.95421 0.61153 0.0
C1011 C 0.2371 0.94472 0.59586 0.0
C1012 C 0.24446 0.92317 0.59928 0.0
C1013 C 0.23835 0.91134 0.61775 0.0
C1014 C 0.24845 0.88856 0.61788 0.0
C1015 C 0.26391 0.8856 0.63778 0.0
C1016 C 0.23053 0.87063 0.61737 0.0
C1017 C 0.26118 0.88923 0.5965 0.0
C1018 C 0.25866 0.90923 0.58588 0.0
C1019 C 0.26884 0.91343 0.56569 0.0
C1020 C 0.2822 0.8969 0.55639 0.0
C1021 C 0.28533 0.8765 0.56734 0.0
C1022 C 0.27447 0.87269 0.58755 0.0
H1023 H 0.08892 0.21982 0.64901 0.0
H1024 H 0.03412 0.20548 0.6053 0.0
H1025 H 0.04984 0.23072 0.5774 0.0
H1026 H 0.0933 0.27759 0.6354 0.0
H1027 H 0.12295 0.27777 0.63733 0.0
H1028 H 0.10718 0.25869 0.65367 0.0
H1029 H 0.12954 0.22621 0.63724 0.0
H1030 H 0.14525 0.24518 0.6207 0.0
H1031 H 0.13071 0.22275 0.60775 0.0
H1032 H 0.07246 0.25693 0.55379 0.0
H1033 H 0.09851 0.28384 0.53765 0.0
H1034 H 0.13789 0.28123 0.59734 0.0
C1035 C 0.08014 0.22205 0.63362 0.0
C1036 C 0.06029 0.21066 0.62932 0.0
C1037 C 0.04931 0.21409 0.60898 0.0
C1038 C 0.05817 0.22832 0.593 0.0
C1039 C 0.07794 0.23909 0.59767 0.0
C1040 C 0.08866 0.23626 0.61759 0.0
C1041 C 0.10951 0.24991 0.61871 0.0
C1042 C 0.10814 0.267 0.63738 0.0
C1043 C 0.12996 0.23512 0.62125 0.0
C1044 C 0.10893 0.26084 0.59629 0.0
C1045 C 0.09068 0.25431 0.58431 0.0
C1046 C 0.08676 0.2622 0.56307 0.0
C1047 C 0.10169 0.2774 0.554 0.0
C1048 C 0.12023 0.28464 0.56623 0.0
C1049 C 0.12388 0.27604 0.58756 0.0
H1050 H 0.77982 0.09478 0.64385 0.0
H1051 H 0.78202 0.03422 0.60596 0.0
H1052 H 0.75566 0.0503 0.57908 0.0
H1053 H 0.72172 0.10583 0.63574 0.0
H1054 H 0.72571 0.13522 0.63424 0.0
H1055 H 0.74424 0.11855 0.65037 0.0
H1056 H 0.77736 0.1342 0.62841 0.0
H1057 H 0.75892 0.15076 0.61206 0.0
H1058 H 0.77762 0.13188 0.59879 0.0
H1059 H 0.73019 0.0743 0.55536 0.0
H1060 H 0.70589 0.10259 0.5387 0.0
H1061 H 0.72021 0.14667 0.59314 0.0
C1062 C 0.77468 0.08479 0.62998 0.0
C1063 C 0.78301 0.06324 0.62696 0.0
C1064 C 0.77578 0.05073 0.60864 0.0
C1065 C 0.7609 0.05977 0.59326 0.0
C1066 C 0.7533 0.08125 0.59658 0.0
C1067 C 0.75979 0.09346 0.61467 0.0
C1068 C 0.74926 0.11608 0.61469 0.0
C1069 C 0.73435 0.11909 0.63496 0.0
C1070 C 0.76684 0.1343 0.61341 0.0
C1071 C 0.7359 0.11487 0.59367 0.0
C1072 C 0.73849 0.09472 0.58334 0.0
C1073 C 0.72798 0.09005 0.56342 0.0
C1074 C 0.71428 0.10626 0.55402 0.0
C1075 C 0.71111 0.12683 0.56462 0.0
C1076 C 0.72221 0.1311 0.58464 0.0
H1077 H 0.86316 0.72645 0.59372 0.0
H1078 H 0.9037 0.72446 0.53487 0.0
H1079 H 0.92958 0.75102 0.55197 0.0
H1080 H 0.87071 0.78477 0.60537 0.0
H1081 H 0.87107 0.78054 0.63477 0.0
H1082 H 0.85557 0.76219 0.61734 0.0
H1083 H 0.87688 0.72894 0.63366 0.0
H1084 H 0.89264 0.74719 0.65094 0.0
H1085 H 0.90657 0.72858 0.63245 0.0
H1086 H 0.95215 0.77636 0.5768 0.0
H1087 H 0.96772 0.8005 0.60579 0.0
H1088 H 0.91175 0.78587 0.64779 0.0
C1089 C 0.87734 0.73177 0.58428 0.0
C1090 C 0.88142 0.7234 0.56294 0.0
C1091 C 0.90018 0.73076 0.55119 0.0
C1092 C 0.91502 0.74576 0.56082 0.0
C1093 C 0.91074 0.75331 0.58211 0.0
C1094 C 0.89218 0.74675 0.59356 0.0
C1095 C 0.89132 0.7571 0.61624 0.0
C1096 C 0.87096 0.77204 0.61856 0.0
C1097 C 0.89189 0.73939 0.63438 0.0
C1098 C 0.91239 0.77039 0.61591 0.0
C1099 C 0.92345 0.76797 0.59615 0.0
C1100 C 0.94353 0.77846 0.59226 0.0
C1101 C 0.95231 0.79205 0.60887 0.0
C1102 C 0.94096 0.79508 0.62904 0.0
C1103 C 0.92083 0.78393 0.63255 0.0
H1104 H 0.41871 0.28843 0.14074 0.0
H1105 H 0.47897 0.29895 0.10383 0.0
H1106 H 0.46618 0.27204 0.07569 0.0
H1107 H 0.41461 0.2302 0.13074 0.0
H1108 H 0.38494 0.23086 0.12918 0.0
H1109 H 0.39934 0.25065 0.14595 0.0
H1110 H 0.37997 0.2824 0.12483 0.0
H1111 H 0.36573 0.26271 0.10781 0.0
H1112 H 0.38236 0.28387 0.09525 0.0
H1113 H 0.44515 0.24447 0.05079 0.0
H1114 H 0.42006 0.21689 0.03388 0.0
H1115 H 0.37471 0.2251 0.08847 0.0
C1116 C 0.42933 0.28507 0.12679 0.0
C1117 C 0.44979 0.29582 0.12438 0.0
C1118 C 0.46325 0.2908 0.10599 0.0
C1119 C 0.45605 0.27566 0.0899 0.0
C1120 C 0.43548 0.26564 0.09264 0.0
C1121 C 0.42251 0.27002 0.11084 0.0
C1122 C 0.4013 0.25703 0.11043 0.0
C1123 C 0.39999 0.24125 0.13025 0.0
C1124 C 0.38116 0.27243 0.10952 0.0
C1125 C 0.40416 0.24463 0.08908 0.0
C1126 C 0.42385 0.24982 0.07885 0.0
C1127 C 0.42976 0.24027 0.05876 0.0
C1128 C 0.41538 0.22474 0.0492 0.0
C1129 C 0.39548 0.21885 0.05989 0.0
C1130 C 0.38983 0.22919 0.07992 0.0
H1131 H 0.36481 0.77919 0.91204 0.0
H1132 H 0.40844 0.79071 0.96751 0.0
H1133 H 0.43623 0.76585 0.95064 0.0
H1134 H 0.37801 0.72171 0.90441 0.0
H1135 H 0.37585 0.72355 0.87484 0.0
H1136 H 0.3597 0.74156 0.89199 0.0
H1137 H 0.37608 0.77538 0.87163 0.0
H1138 H 0.39254 0.75749 0.85464 0.0
H1139 H 0.40557 0.77889 0.87059 0.0
H1140 H 0.45997 0.74039 0.9259 0.0
H1141 H 0.47541 0.71487 0.89778 0.0
H1142 H 0.41526 0.72124 0.85961 0.0
C1143 C 0.38011 0.77637 0.92082 0.0
C1144 C 0.38448 0.78686 0.94108 0.0
C1145 C 0.40471 0.7827 0.952 0.0
C1146 C 0.42063 0.76872 0.94248 0.0
C1147 C 0.41593 0.75902 0.92213 0.0
C1148 C 0.396 0.76255 0.91164 0.0
C1149 C 0.39468 0.75039 0.88999 0.0
C1150 C 0.37596 0.73329 0.89034 0.0
C1151 C 0.39207 0.7665 0.87057 0.0
C1152 C 0.41701 0.73945 0.88977 0.0
C1153 C 0.42922 0.7446 0.90831 0.0
C1154 C 0.45048 0.73623 0.91138 0.0
C1155 C 0.45918 0.72188 0.8953 0.0
C1156 C 0.44652 0.71606 0.87656 0.0
C1157 C 0.42535 0.72529 0.87378 0.0
H1158 H 0.28294 0.41032 0.86676 0.0
H1159 H 0.28511 0.46909 0.90733 0.0
H1160 H 0.25924 0.45157 0.93378 0.0
H1161 H 0.22541 0.39804 0.87489 0.0
H1162 H 0.23005 0.3687 0.87498 0.0
H1163 H 0.24804 0.38648 0.85949 0.0
H1164 H 0.28172 0.37046 0.88045 0.0
H1165 H 0.26381 0.35284 0.8962 0.0
H1166 H 0.28228 0.37146 0.91014 0.0
H1167 H 0.2337 0.42587 0.95666 0.0
H1168 H 0.2096 0.39627 0.97159 0.0
H1169 H 0.22531 0.35554 0.91502 0.0
C1170 C 0.27789 0.41966 0.8811 0.0
C1171 C 0.28604 0.44108 0.88499 0.0
C1172 C 0.27896 0.45269 0.90397 0.0
C1173 C 0.26437 0.44281 0.91912 0.0
C1174 C 0.25699 0.42141 0.91494 0.0
C1175 C 0.26342 0.41015 0.89621 0.0
C1176 C 0.25341 0.38741 0.89522 0.0
C1177 C 0.23833 0.38503 0.87495 0.0
C1178 C 0.27138 0.3695 0.89553 0.0
C1179 C 0.24032 0.38744 0.91635 0.0
C1180 C 0.24253 0.40706 0.92769 0.0
C1181 C 0.23184 0.4105 0.94781 0.0
C1182 C 0.21829 0.39359 0.95624 0.0
C1183 C 0.21554 0.37363 0.94446 0.0
C1184 C 0.22695 0.37061 0.92443 0.0
H1185 H 0.61312 0.2239 0.94478 0.0
H1186 H 0.6534 0.19945 0.89082 0.0
H1187 H 0.63334 0.22296 0.86497 0.0
H1188 H 0.56172 0.22918 0.91311 0.0
H1189 H 0.55345 0.25459 0.92607 0.0
H1190 H 0.57009 0.23501 0.94102 0.0
H1191 H 0.59941 0.26513 0.94828 0.0
H1192 H 0.58279 0.28481 0.93351 0.0
H1193 H 0.61095 0.28006 0.92534 0.0
H1194 H 0.61082 0.24911 0.84479 0.0
H1195 H 0.58757 0.27927 0.83107 0.0
H1196 H 0.56055 0.28862 0.89663 0.0
C1197 C 0.6176 0.2235 0.92752 0.0
C1198 C 0.6349 0.20971 0.91992 0.0
C1199 C 0.64033 0.2098 0.89719 0.0
C1200 C 0.62893 0.22305 0.88225 0.0
C1201 C 0.61204 0.23633 0.89012 0.0
C1202 C 0.60636 0.23692 0.91216 0.0
C1203 C 0.58805 0.25373 0.91595 0.0
C1204 C 0.56708 0.24245 0.92455 0.0
C1205 C 0.59577 0.27202 0.9317 0.0
C1206 C 0.58469 0.26253 0.89264 0.0
C1207 C 0.59869 0.25195 0.87813 0.0
C1208 C 0.59967 0.25746 0.85591 0.0
C1209 C 0.58639 0.27463 0.84828 0.0
C1210 C 0.57218 0.28617 0.86272 0.0
C1211 C 0.57097 0.27977 0.88517 0.0
H1212 H 0.72272 0.59865 0.85246 0.0
H1213 H 0.71386 0.54234 0.89565 0.0
H1214 H 0.7407 0.55833 0.92189 0.0
H1215 H 0.78123 0.60507 0.86167 0.0
H1216 H 0.78014 0.63473 0.86064 0.0
H1217 H 0.76043 0.61866 0.84534 0.0
H1218 H 0.72848 0.63918 0.86488 0.0
H1219 H 0.74808 0.65524 0.88033 0.0
H1220 H 0.72734 0.63947 0.89457 0.0
H1221 H 0.76791 0.58121 0.94389 0.0
H1222 H 0.79445 0.60815 0.95904 0.0
H1223 H 0.78579 0.64911 0.90102 0.0
C1224 C 0.72647 0.5896 0.86739 0.0
C1225 C 0.71616 0.56923 0.87202 0.0
C1226 C 0.72157 0.55794 0.89174 0.0
C1227 C 0.73676 0.56693 0.90676 0.0
C1228 C 0.74647 0.58716 0.90176 0.0
C1229 C 0.74163 0.59827 0.88248 0.0
C1230 C 0.75435 0.6197 0.88092 0.0
C1231 C 0.76997 0.61952 0.86096 0.0
C1232 C 0.73862 0.63956 0.88014 0.0
C1233 C 0.76706 0.619 0.90241 0.0
C1234 C 0.76224 0.60014 0.91424 0.0
C1235 C 0.77184 0.59599 0.93471 0.0
C1236 C 0.78686 0.61142 0.94321 0.0
C1237 C 0.79223 0.63073 0.93122 0.0
C1238 C 0.78207 0.63451 0.91059 0.0
H1239 H 0.59031 0.7208 0.14895 0.0
H1240 H 0.5322 0.70857 0.10915 0.0
H1241 H 0.54677 0.73389 0.08043 0.0
H1242 H 0.59609 0.77871 0.13542 0.0
H1243 H 0.62577 0.77733 0.13567 0.0
H1244 H 0.60997 0.75909 0.15291 0.0
H1245 H 0.62977 0.72557 0.13529 0.0
H1246 H 0.64537 0.74368 0.11775 0.0
H1247 H 0.62896 0.722 0.10581 0.0
H1248 H 0.56971 0.75922 0.05505 0.0
H1249 H 0.59648 0.78462 0.03747 0.0
H1250 H 0.63859 0.77976 0.09507 0.0
C1251 C 0.58047 0.72358 0.13431 0.0
C1252 C 0.56014 0.71271 0.13122 0.0
C1253 C 0.54776 0.71687 0.11187 0.0
C1254 C 0.55599 0.7311 0.09545 0.0
C1255 C 0.57647 0.74111 0.09882 0.0
C1256 C 0.58833 0.73772 0.11799 0.0
C1257 C 0.60985 0.75023 0.11789 0.0
C1258 C 0.61044 0.76736 0.13658 0.0
C1259 C 0.62965 0.73442 0.11926 0.0
C1260 C 0.6085 0.76114 0.09557 0.0
C1261 C 0.58924 0.75567 0.08466 0.0
C1262 C 0.58474 0.76368 0.06356 0.0
C1263 C 0.6001 0.77797 0.05364 0.0
C1264 C 0.6196 0.78418 0.06491 0.0
C1265 C 0.62382 0.77539 0.08603 0.0
H1266 H 0.22659 0.6156 0.06411 0.0
H1267 H 0.19874 0.65679 0.11569 0.0
H1268 H 0.22188 0.63843 0.14309 0.0
H1269 H 0.23218 0.56551 0.09766 0.0
H1270 H 0.25832 0.55764 0.08597 0.0
H1271 H 0.23884 0.57315 0.06973 0.0
H1272 H 0.26837 0.60309 0.06266 0.0
H1273 H 0.28795 0.58763 0.07879 0.0
H1274 H 0.282 0.61588 0.08577 0.0
H1275 H 0.24786 0.6175 0.16497 0.0
H1276 H 0.27761 0.5952 0.18081 0.0
H1277 H 0.29049 0.56631 0.1166 0.0
C1278 C 0.22536 0.62061 0.08119 0.0
C1279 C 0.21077 0.6377 0.08767 0.0
C1280 C 0.20976 0.64388 0.11017 0.0
C1281 C 0.2228 0.63346 0.12598 0.0
C1282 C 0.23694 0.61681 0.11918 0.0
C1283 C 0.23854 0.61037 0.09741 0.0
C1284 C 0.25602 0.5925 0.09489 0.0
C1285 C 0.24572 0.57092 0.08657 0.0
C1286 C 0.27469 0.60025 0.07962 0.0
C1287 C 0.26398 0.59022 0.11862 0.0
C1288 C 0.25248 0.60441 0.1322 0.0
C1289 C 0.25697 0.60623 0.15458 0.0
C1290 C 0.27397 0.59351 0.1634 0.0
C1291 C 0.28638 0.57902 0.14997 0.0
C1292 C 0.28109 0.57706 0.12729 0.0
H1293 H 0.72372 0.40774 0.15169 0.0
H1294 H 0.71141 0.46503 0.11067 0.0
H1295 H 0.73531 0.4493 0.08164 0.0
H1296 H 0.78086 0.40122 0.13702 0.0
H1297 H 0.7797 0.37154 0.13764 0.0
H1298 H 0.76156 0.38744 0.15491 0.0
H1299 H 0.72789 0.36734 0.13792 0.0
H1300 H 0.74592 0.35154 0.12043 0.0
H1301 H 0.72401 0.36766 0.10846 0.0
H1302 H 0.76012 0.4266 0.05668 0.0
H1303 H 0.78602 0.40031 0.03926 0.0
H1304 H 0.78226 0.35851 0.09717 0.0
C1305 C 0.7261 0.41704 0.13664 0.0
C1306 C 0.71568 0.4376 0.13342 0.0
C1307 C 0.71928 0.44927 0.11352 0.0
C1308 C 0.73275 0.44042 0.09689 0.0
C1309 C 0.74255 0.41995 0.10049 0.0
C1310 C 0.73955 0.40853 0.11998 0.0
C1311 C 0.75225 0.38706 0.12 0.0
C1312 C 0.76963 0.38681 0.13848 0.0
C1313 C 0.73658 0.36723 0.1218 0.0
C1314 C 0.76289 0.38816 0.09748 0.0
C1315 C 0.75699 0.40715 0.08637 0.0
C1316 C 0.76487 0.4117 0.06526 0.0
C1317 C 0.77949 0.39663 0.05545 0.0
C1318 C 0.78615 0.37738 0.06685 0.0
C1319 C 0.77748 0.37307 0.08802 0.0
H1320 H 0.97024 0.19504 0.25232 0.0
H1321 H 0.97747 0.23092 0.31376 0.0
H1322 H 0.99353 0.26242 0.29326 0.0
H1323 H 0.02094 0.21156 0.22953 0.0
H1324 H 0.0106 0.21297 0.20171 0.0
H1325 H 0.99823 0.19433 0.22115 0.0
H1326 H 0.95996 0.21204 0.21401 0.0
H1327 H 0.97221 0.23069 0.19446 0.0
H1328 H 0.95656 0.24137 0.21734 0.0
H1329 H 0.00995 0.29002 0.26496 0.0
H1330 H 0.02606 0.30936 0.2326 0.0
H1331 H 0.00847 0.25372 0.19128 0.0
C1332 C 0.97484 0.20961 0.26154 0.0
C1333 C 0.97237 0.21053 0.28466 0.0
C1334 C 0.9791 0.22983 0.29602 0.0
C1335 C 0.98822 0.24782 0.28451 0.0
C1336 C 0.99061 0.2462 0.26167 0.0
C1337 C 0.98413 0.22748 0.25042 0.0
C1338 C 0.98942 0.22903 0.22617 0.0
C1339 C 0.00577 0.2109 0.21925 0.0
C1340 C 0.96827 0.22824 0.21218 0.0
C1341 C 0.99996 0.25154 0.2254 0.0
C1342 C 1.00043 0.26143 0.2459 0.0
C1343 C 0.00964 0.28236 0.24886 0.0
C1344 C 0.01871 0.29325 0.23041 0.0
C1345 C 0.01873 0.28302 0.20942 0.0
C1346 C 0.00901 0.26199 0.20709 0.0
H1347 H 0.80685 0.98641 0.24496 0.0
H1348 H 0.76878 0.97469 0.3044 0.0
H1349 H 0.7355 0.98924 0.28558 0.0
H1350 H 0.78135 0.03715 0.2302 0.0
H1351 H 0.78248 0.03167 0.20102 0.0
H1352 H 0.80286 0.01991 0.21913 0.0
H1353 H 0.7932 0.9808 0.20492 0.0
H1354 H 0.77288 0.99244 0.18667 0.0
H1355 H 0.76504 0.97139 0.2061 0.0
H1356 H 0.70615 0.00544 0.25936 0.0
H1357 H 0.68405 0.02115 0.22882 0.0
H1358 H 0.74252 0.02244 0.18763 0.0
C1359 C 0.79156 0.98671 0.25414 0.0
C1360 C 0.79053 0.97926 0.27623 0.0
C1361 C 0.77006 0.98021 0.28747 0.0
C1362 C 0.75107 0.98849 0.27691 0.0
C1363 C 0.75282 0.99583 0.25515 0.0
C1364 C 0.77262 0.99496 0.24397 0.0
C1365 C 0.77048 0.00397 0.22081 0.0
C1366 C 0.78516 0.02439 0.21761 0.0
C1367 C 0.7757 0.98608 0.20362 0.0
C1368 C 0.74633 0.01005 0.22055 0.0
C1369 C 0.73631 0.00526 0.24044 0.0
C1370 C 0.7139 0.00928 0.24377 0.0
C1371 C 0.70147 0.01823 0.22631 0.0
C1372 C 0.71147 0.02316 0.20574 0.0
C1373 C 0.73427 0.01907 0.20308 0.0
H1374 H 0.97064 0.74932 0.19179 0.0
H1375 H 0.97554 0.68822 0.22865 0.0
H1376 H 0.99073 0.70878 0.2605 0.0
H1377 H 0.02097 0.7714 0.20969 0.0
H1378 H 0.01119 0.79943 0.2106 0.0
H1379 H 0.99888 0.78011 0.1918 0.0
H1380 H 0.96036 0.78821 0.20845 0.0
H1381 H 0.97257 0.80762 0.22731 0.0
H1382 H 0.95617 0.78516 0.2377 0.0
H1383 H 0.00674 0.73681 0.28826 0.0
H1384 H 0.0237 0.76873 0.30761 0.0
H1385 H 0.00913 0.81007 0.25112 0.0
C1386 C 0.97453 0.74022 0.20665 0.0
C1387 C 0.97169 0.71715 0.20773 0.0
C1388 C 0.97749 0.70592 0.22742 0.0
C1389 C 0.98607 0.71747 0.24563 0.0
C1390 C 0.98887 0.74023 0.24387 0.0
C1391 C 0.9833 0.7514 0.22478 0.0
C1392 C 0.98911 0.77555 0.2263 0.0
C1393 C 0.00605 0.78199 0.20855 0.0
C1394 C 0.96831 0.78998 0.22486 0.0
C1395 C 0.9991 0.77628 0.24911 0.0
C1396 C 0.9986 0.7559 0.25924 0.0
C1397 C 0.00717 0.75283 0.28043 0.0
C1398 C 0.01671 0.77101 0.29133 0.0
C1399 C 0.01792 0.79181 0.2808 0.0
C1400 C 0.00871 0.79434 0.25955 0.0
H1401 H 0.1997 0.03004 0.24427 0.0
H1402 H 0.23245 0.02236 0.30748 0.0
H1403 H 0.26449 0.00544 0.28847 0.0
H1404 H 0.21619 0.97897 0.22204 0.0
H1405 H 0.21919 0.98943 0.1944 0.0
H1406 H 0.19978 1.00202 0.21294 0.0
H1407 H 0.2184 0.04002 0.2071 0.0
H1408 H 0.23775 0.0276 0.18836 0.0
H1409 H 0.2476 0.04286 0.21187 0.0
H1410 H 0.2929 0.98868 0.26157 0.0
H1411 H 0.31437 0.97397 0.23012 0.0
H1412 H 0.26114 0.9919 0.18573 0.0
C1413 C 0.21364 0.02512 0.25428 0.0
C1414 C 0.21354 0.02774 0.27745 0.0
C1415 C 0.23215 0.02068 0.28972 0.0
C1416 C 0.25039 0.01101 0.27905 0.0
C1417 C 0.24967 0.00841 0.25617 0.0
C1418 C 0.23169 0.01532 0.24402 0.0
C1419 C 0.23433 0.01017 0.2198 0.0
C1420 C 0.2163 0.9942 0.21184 0.0
C1421 C 0.23454 0.03143 0.20597 0.0
C1422 C 0.25667 0.99923 0.22004 0.0
C1423 C 0.26541 0.99841 0.24108 0.0
C1424 C 0.28613 0.98924 0.24507 0.0
C1425 C 0.29819 0.9809 0.22709 0.0
C1426 C 0.28942 0.98162 0.20541 0.0
C1427 C 0.2683 0.99083 0.20205 0.0
H1428 H 0.03725 0.75165 0.80941 0.0
H1429 H 0.03168 0.69089 0.7721 0.0
H1430 H 0.01566 0.71172 0.74085 0.0
H1431 H 0.98655 0.77389 0.79303 0.0
H1432 H 0.99623 0.80194 0.79199 0.0
H1433 H 0.00911 0.78253 0.81035 0.0
H1434 H 0.04715 0.79069 0.7927 0.0
H1435 H 0.0344 0.81027 0.77436 0.0
H1436 H 0.05052 0.7879 0.76332 0.0
H1437 H 0.9986 0.73988 0.71391 0.0
H1438 H 0.98157 0.77197 0.69501 0.0
H1439 H 0.99762 0.81302 0.75132 0.0
C1440 C 0.03307 0.74267 0.79456 0.0
C1441 C 0.03593 0.7196 0.79323 0.0
C1442 C 0.02977 0.70857 0.77354 0.0
C1443 C 0.02066 0.72028 0.75567 0.0
C1444 C 0.01774 0.743 0.75775 0.0
C1445 C 0.02381 0.75401 0.77675 0.0
C1446 C 0.01792 0.77819 0.77556 0.0
C1447 C 1.00147 0.78449 0.79381 0.0
C1448 C 0.03874 0.79261 0.77654 0.0
C1449 C 0.0073 0.7791 0.75304 0.0
C1450 C 0.00751 0.75878 0.74279 0.0
C1451 C 0.99841 0.75586 0.72182 0.0
C1452 C 0.98878 0.77416 0.71119 0.0
C1453 C 0.98807 0.795 0.72171 0.0
C1454 C 0.99763 0.79732 0.74284 0.0
H1455 H 0.19853 0.97908 0.75802 0.0
H1456 H 0.23526 0.97655 0.69664 0.0
H1457 H 0.26764 0.99239 0.71549 0.0
H1458 H 0.21973 0.03055 0.77632 0.0
H1459 H 0.22085 0.02285 0.80499 0.0
H1460 H 0.20082 0.0103 0.78703 0.0
H1461 H 0.21535 0.97153 0.79752 0.0
H1462 H 0.23527 0.98395 0.8157 0.0
H1463 H 0.24424 0.96539 0.79433 0.0
H1464 H 0.29587 0.00942 0.74089 0.0
H1465 H 0.31808 0.02521 0.77109 0.0
H1466 H 0.26271 0.01724 0.81573 0.0
C1467 C 0.21345 0.98155 0.74856 0.0
C1468 C 0.21428 0.97642 0.7258 0.0
C1469 C 0.23413 0.98026 0.71407 0.0
C1470 C 0.25264 0.9893 0.72463 0.0
C1471 C 0.2511 0.99451 0.74695 0.0
C1472 C 0.23205 0.99068 0.7588 0.0
C1473 C 0.23456 0.99816 0.78252 0.0
C1474 C 0.21801 0.01656 0.78803 0.0
C1475 C 0.23222 0.97859 0.79846 0.0
C1476 C 0.25798 0.00683 0.78215 0.0
C1477 C 0.26725 0.00455 0.76149 0.0
C1478 C 0.28878 0.01126 0.75715 0.0
C1479 C 0.30127 0.02026 0.77444 0.0
C1480 C 0.29221 0.02259 0.79587 0.0
C1481 C 0.27016 0.01589 0.79958 0.0
H1482 H 1.00228 0.19193 0.74998 0.0
H1483 H 0.0199 0.23302 0.69418 0.0
H1484 H 0.00491 0.26565 0.7138 0.0
H1485 H 0.95111 0.22028 0.76382 0.0
H1486 H 0.95525 0.21651 0.793 0.0
H1487 H 0.96602 0.1966 0.7738 0.0
H1488 H 0.00513 0.20173 0.79031 0.0
H1489 H 0.9945 0.22163 0.80952 0.0
H1490 H 0.01696 0.22895 0.79152 0.0
H1491 H 0.9906 0.29426 0.74159 0.0
H1492 H 0.97765 0.31557 0.77386 0.0
H1493 H 0.96886 0.25462 0.81027 0.0
C1494 C 0.00291 0.20774 0.74172 0.0
C1495 C 0.01241 0.20994 0.72057 0.0
C1496 C 0.01266 0.23093 0.71036 0.0
C1497 C 0.0042 0.24953 0.72139 0.0
C1498 C 0.99527 0.24675 0.74244 0.0
C1499 C 0.99441 0.22627 0.75233 0.0
C1500 C 0.98467 0.22747 0.77523 0.0
C1501 C 0.96297 0.21445 0.77653 0.0
C1502 C 1.00131 0.21948 0.79266 0.0
C1503 C 0.98062 0.25196 0.77703 0.0
C1504 C 0.98672 0.26288 0.75799 0.0
C1505 C 0.98553 0.28579 0.75644 0.0
C1506 C 0.97817 0.29777 0.77489 0.0
C1507 C 0.97206 0.28682 0.79463 0.0
C1508 C 0.97306 0.26357 0.79541 0.0
H1509 H 0.80611 0.02178 0.75307 0.0
H1510 H 0.76437 0.03333 0.69608 0.0
H1511 H 0.73264 0.01763 0.71628 0.0
H1512 H 0.78319 0.96991 0.76722 0.0
H1513 H 0.78547 0.97407 0.79655 0.0
H1514 H 0.80447 0.98752 0.77817 0.0
H1515 H 0.79386 0.02549 0.7946 0.0
H1516 H 0.77495 0.01214 0.81316 0.0
H1517 H 0.7653 0.03371 0.79515 0.0
H1518 H 0.70548 1.00005 0.74286 0.0
H1519 H 0.68542 0.98173 0.77322 0.0
H1520 H 0.74561 0.98041 0.81197 0.0
C1521 C 0.79024 0.02137 0.74491 0.0
C1522 C 0.78772 0.02903 0.72302 0.0
C1523 C 0.76671 0.02768 0.71285 0.0
C1524 C 0.74859 0.01878 0.7242 0.0
C1525 C 0.75176 0.0111 0.74565 0.0
C1526 C 0.77208 0.0123 0.75587 0.0
C1527 C 0.77141 1.00212 0.77866 0.0
C1528 C 0.78706 0.98223 0.78023 0.0
C1529 C 0.77669 0.0194 0.79644 0.0
C1530 C 0.74752 0.99499 0.77971 0.0
C1531 C 0.73639 1.00043 0.76058 0.0
C1532 C 0.71406 0.9957 0.75789 0.0
C1533 C 0.7028 0.98527 0.77524 0.0
C1534 C 0.71391 0.97948 0.79498 0.0
C1535 C 0.73662 0.98438 0.79706 0.0
H1536 H 0.20717 0.245 0.98094 0.0
H1537 H 0.24107 0.30796 0.98064 0.0
H1538 H 0.27436 0.28981 0.99609 0.0
H1539 H 0.22918 0.22573 0.03202 0.0
H1540 H 0.23079 0.19749 0.02296 0.0
H1541 H 0.21017 0.21554 0.01157 0.0
H1542 H 0.22429 0.20705 0.97215 0.0
H1543 H 0.24492 0.18893 0.98341 0.0
H1544 H 0.25296 0.21136 0.96568 0.0
H1545 H 0.30449 0.26361 0.01095 0.0
H1546 H 0.32745 0.23283 0.02497 0.0
H1547 H 0.27225 0.18819 0.01633 0.0
C1548 C 0.22158 0.25508 0.98394 0.0
C1549 C 0.22152 0.27793 0.97936 0.0
C1550 C 0.24072 0.29043 0.98395 0.0
C1551 C 0.2597 0.28024 0.9927 0.0
C1552 C 0.25912 0.25762 0.99697 0.0
C1553 C 0.24043 0.2453 0.99282 0.0
C1554 C 0.24358 0.2214 0.99914 0.0
C1555 C 0.22748 0.21465 0.01752 0.0
C1556 C 0.24131 0.2063 0.97889 0.0
C1557 C 0.26705 0.22202 0.00743 0.0
C1558 C 0.27589 0.24296 0.00598 0.0
C1559 C 0.29763 0.24721 0.01225 0.0
C1560 C 0.31056 0.22961 0.02016 0.0
C1561 C 0.30165 0.20808 0.02193 0.0
C1562 C 0.27956 0.20444 0.01548 0.0
H1563 H 0.1961 0.75116 0.01953 0.0
H1564 H 0.2351 0.69199 0.02967 0.0
H1565 H 0.26809 0.71167 0.01569 0.0
H1566 H 0.22073 0.76733 0.96933 0.0
H1567 H 0.21922 0.79636 0.97543 0.0
H1568 H 0.19929 0.77774 0.98705 0.0
H1569 H 0.20928 0.79126 0.02636 0.0
H1570 H 0.22916 0.81002 0.01485 0.0
H1571 H 0.23758 0.79028 0.03541 0.0
H1572 H 0.29695 0.73874 0.99971 0.0
H1573 H 0.31809 0.76981 0.98364 0.0
H1574 H 0.25874 0.80981 0.98392 0.0
C1575 C 0.21154 0.74221 0.01902 0.0
C1576 C 0.21292 0.71996 0.02579 0.0
C1577 C 0.23357 0.70904 0.02464 0.0
C1578 C 0.2524 0.72009 0.0167 0.0
C1579 C 0.25028 0.74201 0.00996 0.0
C1580 C 0.23029 0.75286 0.01112 0.0
C1581 C 0.23191 0.77618 0.00258 0.0
C1582 C 0.2169 0.77959 0.9824 0.0
C1583 C 0.22668 0.79292 0.02089 0.0
C1584 C 0.25595 0.77687 0.99626 0.0
C1585 C 0.26643 0.75714 1.00067 0.0
C1586 C 0.28883 0.75423 0.9962 0.0
C1587 C 0.3007 0.77197 0.98706 0.0
C1588 C 0.29012 0.79229 0.98237 0.0
C1589 C 0.26742 0.79454 0.98708 0.0
H1590 H 0.81088 0.25374 0.02126 0.0
H1591 H 0.77088 0.31305 0.02354 0.0
H1592 H 0.73961 0.29243 0.00737 0.0
H1593 H 0.79111 0.23429 0.9696 0.0
H1594 H 0.79195 0.20569 0.9776 0.0
H1595 H 0.81073 0.22506 0.98995 0.0
H1596 H 0.79698 0.21393 0.02885 0.0
H1597 H 0.77827 0.19442 0.01663 0.0
H1598 H 0.76794 0.21535 0.035 0.0
H1599 H 0.71243 0.26447 0.99051 0.0
H1600 H 0.69256 0.23226 0.97505 0.0
H1601 H 0.75154 0.19254 0.98349 0.0
C1602 C 0.79553 0.26246 0.01857 0.0
C1603 C 0.7934 0.28505 0.02381 0.0
C1604 C 0.77298 0.29574 0.01973 0.0
C1605 C 0.7551 0.28416 0.01052 0.0
C1606 C 0.75791 0.26193 0.00538 0.0
C1607 C 0.77767 0.25126 0.00931 0.0
C1608 C 0.77678 0.22745 1.00209 0.0
C1609 C 0.79364 0.22287 0.98372 0.0
C1610 C 0.78018 0.21188 0.02182 0.0
C1611 C 0.75343 0.22629 0.99347 0.0
C1612 C 0.74267 0.24624 0.9955 0.0
C1613 C 0.72077 0.24879 0.98882 0.0
C1614 C 0.70961 0.23041 0.98002 0.0
C1615 C 0.72042 0.2098 0.97789 0.0
C1616 C 0.74268 0.20799 0.98465 0.0
H1617 H 0.80895 0.75226 0.9869 0.0
H1618 H 0.7703 0.69331 0.97479 0.0
H1619 H 0.73757 0.71179 0.99093 0.0
H1620 H 0.78426 0.76615 0.03902 0.0
H1621 H 0.78565 0.79538 0.03393 0.0
H1622 H 0.80574 0.77724 0.02176 0.0
H1623 H 0.79587 0.79218 0.98294 0.0
H1624 H 0.77582 0.81041 0.99499 0.0
H1625 H 0.76763 0.79136 0.97371 0.0
H1626 H 0.70858 0.73806 0.00755 0.0
H1627 H 0.6867 0.76883 0.02302 0.0
H1628 H 0.74553 0.80951 0.0245 0.0
C1629 C 0.79365 0.74311 0.98754 0.0
C1630 C 0.79223 0.72131 0.9794 0.0
C1631 C 0.77184 0.71001 0.98088 0.0
C1632 C 0.75317 0.72039 0.99003 0.0
C1633 C 0.75522 0.74197 0.99781 0.0
C1634 C 0.77505 0.75309 0.99671 0.0
C1635 C 0.77321 0.77612 0.00604 0.0
C1636 C 0.7881 0.77887 0.0264 0.0
C1637 C 0.77843 0.79354 0.98836 0.0
C1638 C 0.74911 0.7765 0.01233 0.0
C1639 C 0.73893 0.75669 0.00755 0.0
C1640 C 0.71649 0.75356 0.01146 0.0
C1641 C 0.70418 0.77116 0.02027 0.0
C1642 C 0.71433 0.79167 0.02512 0.0
C1643 C 0.73718 0.7941 0.02121 0.0
H1644 H 0.48167 0.69529 0.74842 0.0
H1645 H 0.47568 0.73471 0.80781 0.0
H1646 H 0.49185 0.76654 0.7882 0.0
H1647 H 0.5338 0.71663 0.73183 0.0
H1648 H 0.52755 0.71608 0.70278 0.0
H1649 H 0.51451 0.69674 0.72112 0.0
H1650 H 0.47602 0.7098 0.70791 0.0
H1651 H 0.48895 0.72903 0.68937 0.0
H1652 H 0.46913 0.73867 0.70928 0.0
H1653 H 0.50898 0.79422 0.76184 0.0
H1654 H 0.52544 0.81524 0.73104 0.0
H1655 H 0.52146 0.75708 0.68957 0.0
C1656 C 0.48345 0.71068 0.75726 0.0
C1657 C 0.4772 0.71248 0.77966 0.0
C1658 C 0.48025 0.73288 0.79065 0.0
C1659 C 0.48945 0.75107 0.77965 0.0
C1660 C 0.49572 0.74861 0.75768 0.0
C1661 C 0.49283 0.72891 0.74662 0.0
C1662 C 0.50146 0.73036 0.72323 0.0
C1663 C 0.52046 0.71398 0.71953 0.0
C1664 C 0.48278 0.72676 0.70646 0.0
C1665 C 0.50962 0.75395 0.72281 0.0
C1666 C 0.5061 0.76426 0.7428 0.0
C1667 C 0.51188 0.78626 0.74615 0.0
C1668 C 0.52126 0.79807 0.72855 0.0
C1669 C 0.52497 0.78784 0.70787 0.0
C1670 C 0.51918 0.76539 0.70519 0.0
H1671 H 0.30957 0.48059 0.75887 0.0
H1672 H 0.26917 0.47891 0.81787 0.0
H1673 H 0.23732 0.4925 0.79623 0.0
H1674 H 0.2876 0.5303 0.73721 0.0
H1675 H 0.28911 0.52134 0.70893 0.0
H1676 H 0.3082 0.51054 0.72893 0.0
H1677 H 0.29629 0.47073 0.71903 0.0
H1678 H 0.27721 0.48141 0.69893 0.0
H1679 H 0.26755 0.46332 0.72041 0.0
H1680 H 0.20967 0.50694 0.76739 0.0
H1681 H 0.18969 0.52136 0.73475 0.0
H1682 H 0.24919 0.51404 0.69571 0.0
C1683 C 0.29401 0.48284 0.76731 0.0
C1684 C 0.29194 0.47853 0.79012 0.0
C1685 C 0.27124 0.48203 0.80042 0.0
C1686 C 0.25302 0.48974 0.78825 0.0
C1687 C 0.25575 0.49397 0.7658 0.0
C1688 C 0.27579 0.49064 0.7555 0.0
C1689 C 0.27479 0.49699 0.73141 0.0
C1690 C 0.29088 0.51592 0.72633 0.0
C1691 C 0.27922 0.47691 0.71657 0.0
C1692 C 0.25108 0.5045 0.72968 0.0
C1693 C 0.24022 0.50256 0.74959 0.0
C1694 C 0.21808 0.50852 0.75175 0.0
C1695 C 0.20684 0.51668 0.73311 0.0
C1696 C 0.21781 0.51898 0.71261 0.0
C1697 C 0.24023 0.51271 0.71108 0.0
H1698 H 0.51361 0.31869 0.75043 0.0
H1699 H 0.52599 0.27622 0.80673 0.0
H1700 H 0.51024 0.24476 0.78631 0.0
H1701 H 0.46171 0.29466 0.73513 0.0
H1702 H 0.46644 0.29736 0.70592 0.0
H1703 H 0.47897 0.31652 0.72482 0.0
H1704 H 0.51755 0.30715 0.70908 0.0
H1705 H 0.50513 0.28808 0.69004 0.0
H1706 H 0.52657 0.27884 0.70844 0.0
H1707 H 0.49337 0.21771 0.75949 0.0
H1708 H 0.47714 0.19719 0.72831 0.0
H1709 H 0.47504 0.25754 0.68988 0.0
C1710 C 0.51316 0.30277 0.75847 0.0
C1711 C 0.52114 0.30001 0.78024 0.0
C1712 C 0.52 0.27885 0.79012 0.0
C1713 C 0.51106 0.26084 0.77864 0.0
C1714 C 0.50318 0.26421 0.75732 0.0
C1715 C 0.50416 0.28465 0.74732 0.0
C1716 C 0.49448 0.2839 0.72428 0.0
C1717 C 0.47419 0.29901 0.72244 0.0
C1718 C 0.51198 0.28984 0.70694 0.0
C1719 C 0.48801 0.25983 0.72282 0.0
C1720 C 0.49317 0.24874 0.74204 0.0
C1721 C 0.48919 0.22625 0.7444 0.0
C1722 C 0.47994 0.21473 0.72656 0.0
C1723 C 0.47466 0.22571 0.7066 0.0
C1724 C 0.47861 0.24864 0.70493 0.0
H1725 H 0.76482 0.48328 0.69237 0.0
H1726 H 0.82317 0.48467 0.73384 0.0
H1727 H 0.8005 0.49796 0.76503 0.0
H1728 H 0.74109 0.53242 0.71268 0.0
H1729 H 0.71317 0.52244 0.71088 0.0
H1730 H 0.73386 0.5119 0.69245 0.0
H1731 H 0.72514 0.47205 0.7052 0.0
H1732 H 0.70436 0.48248 0.72364 0.0
H1733 H 0.72629 0.46539 0.73413 0.0
H1734 H 0.77078 0.51205 0.7917 0.0
H1735 H 0.73739 0.5263 0.81051 0.0
H1736 H 0.6997 0.51596 0.75052 0.0
C1737 C 0.7729 0.48612 0.70803 0.0
C1738 C 0.79581 0.48281 0.71062 0.0
C1739 C 0.80564 0.48705 0.73141 0.0
C1740 C 0.79289 0.49457 0.74925 0.0
C1741 C 0.77035 0.49783 0.74602 0.0
C1742 C 0.76052 0.49373 0.72587 0.0
C1743 C 0.73624 0.49924 0.72623 0.0
C1744 C 0.73078 0.51759 0.70957 0.0
C1745 C 0.72219 0.47856 0.72206 0.0
C1746 C 0.73389 0.50723 0.74968 0.0
C1747 C 0.75362 0.5062 0.76099 0.0
C1748 C 0.75524 0.51289 0.78296 0.0
C1749 C 0.7362 0.52094 0.79352 0.0
C1750 C 0.71591 0.52239 0.78201 0.0
C1751 C 0.71492 0.51528 0.75984 0.0
H1752 H 0.51105 0.25122 0.31479 0.0
H1753 H 0.52069 0.19447 0.2723 0.0
H1754 H 0.50614 0.21581 0.24073 0.0
H1755 H 0.46004 0.26896 0.29066 0.0
H1756 H 0.46616 0.29787 0.29364 0.0
H1757 H 0.47769 0.27824 0.31271 0.0
H1758 H 0.51702 0.29221 0.30366 0.0
H1759 H 0.5056 0.31197 0.28468 0.0
H1760 H 0.52619 0.29266 0.27541 0.0
H1761 H 0.49106 0.24401 0.2135 0.0
H1762 H 0.4764 0.27626 0.19328 0.0
H1763 H 0.47557 0.31374 0.25421 0.0
C1764 C 0.51026 0.24324 0.29884 0.0
C1765 C 0.51716 0.22114 0.29607 0.0
C1766 C 0.51554 0.21136 0.2749 0.0
C1767 C 0.50729 0.22336 0.25685 0.0
C1768 C 0.50054 0.24507 0.26024 0.0
C1769 C 0.50189 0.25487 0.28075 0.0
C1770 C 0.49334 0.27832 0.28017 0.0
C1771 C 0.4731 0.28099 0.29518 0.0
C1772 C 0.51163 0.29476 0.28634 0.0
C1773 C 0.48707 0.28028 0.25609 0.0
C1774 C 0.49139 0.26098 0.24481 0.0
C1775 C 0.4875 0.25915 0.22222 0.0
C1776 C 0.47917 0.27757 0.21087 0.0
C1777 C 0.47464 0.29754 0.22213 0.0
C1778 C 0.47853 0.29869 0.2451 0.0
H1779 H 0.76708 0.5219 0.31613 0.0
H1780 H 0.82598 0.51935 0.27561 0.0
H1781 H 0.80359 0.50583 0.24425 0.0
H1782 H 0.74306 0.47277 0.29618 0.0
H1783 H 0.71525 0.48315 0.29743 0.0
H1784 H 0.73584 0.49367 0.31601 0.0
H1785 H 0.72779 0.53345 0.30257 0.0
H1786 H 0.70712 0.52304 0.28397 0.0
H1787 H 0.7294 0.53968 0.27356 0.0
H1788 H 0.77388 0.49171 0.21721 0.0
H1789 H 0.74047 0.47769 0.19816 0.0
H1790 H 0.70237 0.48927 0.25757 0.0
C1791 C 0.77536 0.51873 0.30065 0.0
C1792 C 0.79834 0.52181 0.29839 0.0
C1793 C 0.8084 0.51717 0.2778 0.0
C1794 C 0.79581 0.50951 0.25986 0.0
C1795 C 0.77319 0.50651 0.26278 0.0
C1796 C 0.76315 0.511 0.28273 0.0
C1797 C 0.73881 0.50581 0.28209 0.0
C1798 C 0.73291 0.48778 0.29892 0.0
C1799 C 0.72497 0.52674 0.28576 0.0
C1800 C 0.73664 0.49752 0.25872 0.0
C1801 C 0.75652 0.49815 0.24766 0.0
C1802 C 0.75826 0.49117 0.22578 0.0
C1803 C 0.7392 0.48326 0.21507 0.0
C1804 C 0.71878 0.4822 0.22636 0.0
C1805 C 0.71769 0.4896 0.24843 0.0
H1806 H 0.53158 0.69195 0.26086 0.0
H1807 H 0.52869 0.73022 0.20043 0.0
H1808 H 0.51116 0.76082 0.22079 0.0
H1809 H 0.47937 0.70825 0.28132 0.0
H1810 H 0.48793 0.70914 0.30976 0.0
H1811 H 0.50147 0.69078 0.2908 0.0
H1812 H 0.53927 0.70813 0.30053 0.0
H1813 H 0.52588 0.7264 0.31971 0.0
H1814 H 0.5429 0.73751 0.29806 0.0
H1815 H 0.49301 0.78694 0.24771 0.0
H1816 H 0.47633 0.80672 0.2791 0.0
H1817 H 0.49029 0.75079 0.32157 0.0
C1818 C 0.52761 0.70687 0.25191 0.0
C1819 C 0.53169 0.70868 0.22902 0.0
C1820 C 0.52582 0.72842 0.21796 0.0
C1821 C 0.51583 0.7459 0.22938 0.0
C1822 C 0.51169 0.74337 0.25184 0.0
C1823 C 0.51746 0.72437 0.26299 0.0
C1824 C 0.51063 0.72551 0.28698 0.0
C1825 C 0.49385 0.70734 0.29253 0.0
C1826 C 0.53088 0.72433 0.30222 0.0
C1827 C 0.50006 0.7481 0.2876 0.0
C1828 C 0.5009 0.75818 0.26719 0.0
C1829 C 0.49229 0.7792 0.26377 0.0
C1830 C 0.48282 0.7903 0.28172 0.0
C1831 C 0.48189 0.78033 0.30286 0.0
C1832 C 0.49053 0.75885 0.30565 0.0
H1833 H 0.30621 0.51859 0.26231 0.0
H1834 H 0.26997 0.52565 0.20094 0.0
H1835 H 0.23678 0.5102 0.21904 0.0
H1836 H 0.28244 0.46731 0.27878 0.0
H1837 H 0.28214 0.47442 0.30762 0.0
H1838 H 0.30271 0.48608 0.28971 0.0
H1839 H 0.29077 0.52542 0.30134 0.0
H1840 H 0.27021 0.5139 0.31934 0.0
H1841 H 0.26231 0.5335 0.29844 0.0
H1842 H 0.20723 0.49429 0.24476 0.0
H1843 H 0.18451 0.47942 0.27519 0.0
H1844 H 0.24123 0.48261 0.31878 0.0
C1845 C 0.29134 0.517 0.25255 0.0
C1846 C 0.29076 0.52343 0.23015 0.0
C1847 C 0.27088 0.52086 0.21811 0.0
C1848 C 0.25194 0.5121 0.22826 0.0
C1849 C 0.25321 0.50591 0.2504 0.0
C1850 C 0.27247 0.50825 0.26232 0.0
C1851 C 0.26978 0.50044 0.28583 0.0
C1852 C 0.28518 0.4809 0.29076 0.0
C1853 C 0.27348 0.51945 0.30219 0.0
C1854 C 0.24592 0.49332 0.2854 0.0
C1855 C 0.23655 0.49661 0.26489 0.0
C1856 C 0.21447 0.4916 0.26085 0.0
C1857 C 0.20169 0.48316 0.27825 0.0
C1858 C 0.21105 0.47972 0.29942 0.0
C1859 C 0.23352 0.48481 0.30282 0.0
H1860 H 0.75741 0.69324 0.52025 0.0
H1861 H 0.81575 0.73472 0.52195 0.0
H1862 H 0.79395 0.76575 0.50732 0.0
H1863 H 0.73544 0.71455 0.46969 0.0
H1864 H 0.70713 0.71311 0.47856 0.0
H1865 H 0.72714 0.69416 0.48963 0.0
H1866 H 0.71712 0.70643 0.52928 0.0
H1867 H 0.69701 0.72534 0.51834 0.0
H1868 H 0.71842 0.73524 0.53641 0.0
H1869 H 0.76599 0.79228 0.49229 0.0
H1870 H 0.73372 0.81261 0.4783 0.0
H1871 H 0.6935 0.75388 0.48594 0.0
C1872 C 0.76563 0.70886 0.51769 0.0
C1873 C 0.78837 0.71146 0.52233 0.0
C1874 C 0.7984 0.73222 0.51855 0.0
C1875 C 0.78615 0.74999 0.51023 0.0
C1876 C 0.76387 0.74679 0.50568 0.0
C1877 C 0.75367 0.72677 0.5093 0.0
C1878 C 0.72952 0.72767 0.50285 0.0
C1879 C 0.72452 0.71141 0.48406 0.0
C1880 C 0.71464 0.72342 0.52291 0.0
C1881 C 0.72774 0.75134 0.49505 0.0
C1882 C 0.74775 0.76206 0.49685 0.0
C1883 C 0.75023 0.78406 0.49082 0.0
C1884 C 0.73175 0.79547 0.48289 0.0
C1885 C 0.71097 0.78491 0.48098 0.0
C1886 C 0.7091 0.76246 0.48707 0.0
H1887 H 0.69833 0.25046 0.51205 0.0
H1888 H 0.7361 0.19071 0.52317 0.0
H1889 H 0.7698 0.20993 0.51012 0.0
H1890 H 0.72633 0.26765 0.46258 0.0
H1891 H 0.72453 0.29645 0.46957 0.0
H1892 H 0.70373 0.27757 0.4791 0.0
H1893 H 0.71095 0.28982 0.5194 0.0
H1894 H 0.73178 0.30872 0.51002 0.0
H1895 H 0.73851 0.28821 0.53044 0.0
H1896 H 0.79983 0.23721 0.49723 0.0
H1897 H 0.82256 0.26886 0.48514 0.0
H1898 H 0.76381 0.30965 0.48237 0.0
C1899 C 0.71362 0.24125 0.51177 0.0
C1900 C 0.71454 0.21904 0.51879 0.0
C1901 C 0.73495 0.20771 0.51786 0.0
C1902 C 0.75417 0.21852 0.5105 0.0
C1903 C 0.7526 0.24056 0.50394 0.0
C1904 C 0.73274 0.25166 0.50441 0.0
C1905 C 0.73514 0.27526 0.49683 0.0
C1906 C 0.72163 0.27947 0.47577 0.0
C1907 C 0.72872 0.29145 0.51528 0.0
C1908 C 0.75958 0.27596 0.49223 0.0
C1909 C 0.76948 0.25585 0.49637 0.0
C1910 C 0.79215 0.25295 0.49382 0.0
C1911 C 0.80494 0.27106 0.48697 0.0
C1912 C 0.79503 0.29182 0.48269 0.0
C1913 C 0.77199 0.29406 0.48529 0.0
H1914 H 0.30217 0.75255 0.51432 0.0
H1915 H 0.26314 0.81175 0.5239 0.0
H1916 H 0.23094 0.79295 0.50708 0.0
H1917 H 0.27902 0.73742 0.46167 0.0
H1918 H 0.28022 0.70833 0.46752 0.0
H1919 H 0.29997 0.72674 0.47986 0.0
H1920 H 0.28897 0.71277 0.51871 0.0
H1921 H 0.26927 0.69427 0.5065 0.0
H1922 H 0.26047 0.71384 0.52704 0.0
H1923 H 0.2024 0.76625 0.49051 0.0
H1924 H 0.18082 0.735 0.4756 0.0
H1925 H 0.23974 0.69439 0.47629 0.0
C1926 C 0.28689 0.76169 0.51295 0.0
C1927 C 0.28521 0.78365 0.52061 0.0
C1928 C 0.26488 0.79493 0.51819 0.0
C1929 C 0.24651 0.78437 0.50865 0.0
C1930 C 0.24881 0.76264 0.50138 0.0
C1931 C 0.2686 0.75154 0.50335 0.0
C1932 C 0.267 0.72828 0.49453 0.0
C1933 C 0.28247 0.72501 0.47472 0.0
C1934 C 0.2717 0.7113 0.51278 0.0
C1935 C 0.2431 0.72777 0.48751 0.0
C1936 C 0.23279 0.7477 0.49154 0.0
C1937 C 0.21041 0.75068 0.48714 0.0
C1938 C 0.19828 0.73281 0.47866 0.0
C1939 C 0.20855 0.71219 0.47457 0.0
C1940 C 0.23135 0.70992 0.47888 0.0
H1941 H 0.24394 0.31009 0.52003 0.0
H1942 H 0.18519 0.2697 0.52621 0.0
H1943 H 0.20552 0.238 0.51074 0.0
H1944 H 0.26189 0.28794 0.46856 0.0
H1945 H 0.29077 0.28918 0.47545 0.0
H1946 H 0.27179 0.30849 0.4876 0.0
H1947 H 0.28442 0.29659 0.52665 0.0
H1948 H 0.30354 0.27735 0.51462 0.0
H1949 H 0.28335 0.26788 0.53423 0.0
H1950 H 0.23252 0.21058 0.4944 0.0
H1951 H 0.26387 0.18983 0.47873 0.0
H1952 H 0.30444 0.24866 0.48261 0.0
C1953 C 0.23533 0.29456 0.51833 0.0
C1954 C 0.21293 0.29244 0.52445 0.0
C1955 C 0.20232 0.2718 0.52167 0.0
C1956 C 0.21374 0.25367 0.51289 0.0
C1957 C 0.23573 0.25644 0.50685 0.0
C1958 C 0.2464 0.27637 0.50947 0.0
C1959 C 0.26999 0.27516 0.50141 0.0
C1960 C 0.27382 0.29114 0.4821 0.0
C1961 C 0.28628 0.2795 0.52036 0.0
C1962 C 0.27097 0.25141 0.49385 0.0
C1963 C 0.25108 0.24084 0.49716 0.0
C1964 C 0.24816 0.21872 0.4917 0.0
C1965 C 0.26608 0.20707 0.48279 0.0
C1966 C 0.28667 0.21757 0.47931 0.0
C1967 C 0.28894 0.24011 0.48484 0.0
H1968 H 0.0894 0.35477 0.1058 0.0
H1969 H 0.06964 0.28704 0.11799 0.0
H1970 H 0.08542 0.27592 0.08261 0.0
H1971 H 0.08004 0.35477 0.04665 0.0
H1972 H 0.10419 0.37079 0.04016 0.0
H1973 H 0.09072 0.37424 0.0664 0.0
H1974 H 0.12742 0.36577 0.08649 0.0
H1975 H 0.14101 0.36231 0.06032 0.0
H1976 H 0.14187 0.34051 0.08049 0.0
H1977 H 0.10208 0.27154 0.04659 0.0
H1978 H 0.12142 0.27332 0.01138 0.0
H1979 H 0.1334 0.34331 0.02113 0.0
C1980 C 0.08836 0.33765 0.10091 0.0
C1981 C 0.07803 0.32182 0.11465 0.0
C1982 C 0.07727 0.29953 0.10782 0.0
C1983 C 0.08621 0.29299 0.08768 0.0
C1984 C 0.09621 0.30885 0.07455 0.0
C1985 C 0.09764 0.33067 0.0808 0.0
C1986 C 0.11013 0.34394 0.06352 0.0
C1987 C 0.09538 0.36201 0.0536 0.0
C1988 C 0.13137 0.35371 0.07329 0.0
C1989 C 0.11526 0.32609 0.04664 0.0
C1990 C 0.10682 0.30609 0.0535 0.0
C1991 C 0.10884 0.28706 0.041 0.0
C1992 C 0.11984 0.28833 0.02089 0.0
C1993 C 0.12896 0.30849 0.01329 0.0
C1994 C 0.12671 0.32766 0.02647 0.0
H1995 H 0.68475 0.07662 0.11069 0.0
H1996 H 0.61348 0.07829 0.11613 0.0
H1997 H 0.61125 0.09983 0.08163 0.0
H1998 H 0.69179 0.13136 0.0883 0.0
H1999 H 0.71365 0.12325 0.06991 0.0
H2000 H 0.7096 0.10867 0.09545 0.0
H2001 H 0.70625 0.07182 0.07408 0.0
H2002 H 0.71044 0.08628 0.04852 0.0
H2003 H 0.68627 0.06942 0.0522 0.0
H2004 H 0.61701 0.12151 0.046 0.0
H2005 H 0.63033 0.13864 0.01129 0.0
H2006 H 0.69746 0.12168 0.02938 0.0
C2007 C 0.66869 0.08159 0.10466 0.0
C2008 C 0.64931 0.07585 0.11614 0.0
C2009 C 0.62858 0.08249 0.1076 0.0
C2010 C 0.62713 0.09482 0.08805 0.0
C2011 C 0.64657 0.1003 0.07715 0.0
C2012 C 0.66694 0.09373 0.08509 0.0
C2013 C 0.68528 0.10096 0.06987 0.0
C2014 C 0.701 0.11702 0.08159 0.0
C2015 C 0.69779 0.08093 0.06062 0.0
C2016 C 0.67207 0.11249 0.0521 0.0
C2017 C 0.64979 0.11221 0.05661 0.0
C2018 C 0.63446 0.12182 0.04231 0.0
C2019 C 0.64214 0.1316 0.02269 0.0
C2020 C 0.66488 0.13141 0.01753 0.0
C2021 C 0.67992 0.12198 0.03269 0.0
H2022 H 0.92656 0.69228 0.10824 0.0
H2023 H 0.92366 0.62099 0.11275 0.0
H2024 H 0.9056 0.61938 0.07631 0.0
H2025 H 0.87468 0.70053 0.08026 0.0
H2026 H 0.88496 0.72226 0.06282 0.0
H2027 H 0.89691 0.71786 0.08965 0.0
H2028 H 0.93555 0.71391 0.07189 0.0
H2029 H 0.92371 0.71824 0.045 0.0
H2030 H 0.93975 0.69382 0.05041 0.0
H2031 H 0.88715 0.62549 0.03981 0.0
H2032 H 0.87131 0.63886 0.00473 0.0
H2033 H 0.88828 0.70596 0.02282 0.0
C2034 C 0.92196 0.67638 0.1016 0.0
C2035 C 0.92633 0.65676 0.11334 0.0
C2036 C 0.92041 0.63622 0.104 0.0
C2037 C 0.91013 0.63513 0.08334 0.0
C2038 C 0.90616 0.65472 0.07209 0.0
C2039 C 0.91204 0.67496 0.08077 0.0
C2040 C 0.90662 0.69345 0.06488 0.0
C2041 C 0.88979 0.70946 0.07501 0.0
C2042 C 0.92766 0.70556 0.05762 0.0
C2043 C 0.89663 0.68045 0.04603 0.0
C2044 C 0.89637 0.65816 0.0506 0.0
C2045 C 0.88738 0.6429 0.03597 0.0
C2046 C 0.87839 0.65065 0.01611 0.0
C2047 C 0.8787 0.67341 0.01096 0.0
C2048 C 0.88805 0.68842 0.02615 0.0
H2049 H 0.30776 0.89161 0.02221 0.0
H2050 H 0.37498 0.86974 0.01103 0.0
H2051 H 0.38679 0.88889 0.04498 0.0
H2052 H 0.32064 0.94531 0.04518 0.0
H2053 H 0.29893 0.94419 0.06541 0.0
H2054 H 0.29588 0.92987 0.03958 0.0
H2055 H 0.28875 0.89335 0.06051 0.0
H2056 H 0.29169 0.90755 0.08639 0.0
H2057 H 0.30861 0.88385 0.0805 0.0
H2058 H 0.3913 0.91018 0.07985 0.0
H2059 H 0.38794 0.92965 0.11526 0.0
H2060 H 0.3174 0.93633 0.10504 0.0
C2061 C 0.32501 0.89103 0.0268 0.0
C2062 C 0.34052 0.87933 0.01392 0.0
C2063 C 0.36284 0.87859 0.02068 0.0
C2064 C 0.36971 0.8895 0.03985 0.0
C2065 C 0.35401 0.90087 0.05217 0.0
C2066 C 0.33209 0.90154 0.04607 0.0
C2067 C 0.31836 0.91389 0.06291 0.0
C2068 C 0.30784 0.93454 0.05265 0.0
C2069 C 0.30082 0.89875 0.07319 0.0
C2070 C 0.33601 0.91998 0.07951 0.0
C2071 C 0.35647 0.91254 0.07279 0.0
C2072 C 0.37536 0.91606 0.0853 0.0
C2073 C 0.37326 0.92718 0.10539 0.0
C2074 C 0.35239 0.93444 0.11294 0.0
C2075 C 0.33355 0.93096 0.09969 0.0
H2076 H 0.05631 0.66212 0.91012 0.0
H2077 H 0.11253 0.65332 0.86713 0.0
H2078 H 0.13701 0.6495 0.89969 0.0
H2079 H 0.08353 0.69586 0.94889 0.0
H2080 H 0.06927 0.68482 0.97249 0.0
H2081 H 0.05628 0.6844 0.94584 0.0
H2082 H 0.05087 0.64217 0.94937 0.0
H2083 H 0.06421 0.64245 0.97593 0.0
H2084 H 0.07443 0.62475 0.95438 0.0
H2085 H 0.15546 0.64805 0.93715 0.0
H2086 H 0.16702 0.65442 0.97583 0.0
H2087 H 0.09892 0.66585 0.99403 0.0
C2088 C 0.07376 0.6592 0.9077 0.0
C2089 C 0.08271 0.65789 0.88634 0.0
C2090 C 0.10556 0.65433 0.88353 0.0
C2091 C 0.11948 0.65198 0.90188 0.0
C2092 C 0.11022 0.65328 0.92287 0.0
C2093 C 0.08791 0.65708 0.92586 0.0
C2094 C 0.08239 0.65974 0.95003 0.0
C2095 C 0.07229 0.68256 0.95457 0.0
C2096 C 0.06706 0.64117 0.95788 0.0
C2097 C 0.10513 0.65751 0.96013 0.0
C2098 C 0.12091 0.65319 0.9443 0.0
C2099 C 0.14322 0.65125 0.94971 0.0
C2100 C 0.14964 0.65469 0.97173 0.0
C2101 C 0.13383 0.66044 0.98785 0.0
C2102 C 0.11129 0.66123 0.98202 0.0
H2103 H 0.32573 0.06973 0.8938 0.0
H2104 H 0.39532 0.07682 0.87898 0.0
H2105 H 0.40064 0.09772 0.91344 0.0
H2106 H 0.31766 0.12299 0.91848 0.0
H2107 H 0.29935 0.11306 0.93964 0.0
H2108 H 0.30086 0.099 0.91355 0.0
H2109 H 0.31009 0.06244 0.93364 0.0
H2110 H 0.30853 0.07638 0.95979 0.0
H2111 H 0.33314 0.06148 0.95239 0.0
H2112 H 0.39817 0.11916 0.94893 0.0
H2113 H 0.38857 0.1367 0.9845 0.0
H2114 H 0.32119 0.11377 0.97725 0.0
C2115 C 0.34205 0.07572 0.89783 0.0
C2116 C 0.36009 0.07176 0.88368 0.0
C2117 C 0.38127 0.07964 0.88961 0.0
C2118 C 0.38445 0.0916 0.90911 0.0
C2119 C 0.36635 0.09533 0.92269 0.0
C2120 C 0.34561 0.0874 0.91747 0.0
C2121 C 0.32911 0.09309 0.9353 0.0
C2122 C 0.31066 0.10792 0.92619 0.0
C2123 C 0.31967 0.0721 0.94591 0.0
C2124 C 0.34378 0.10554 0.95125 0.0
C2125 C 0.36515 0.10686 0.94358 0.0
C2126 C 0.38152 0.11809 0.95521 0.0
C2127 C 0.37591 0.12807 0.97534 0.0
C2128 C 0.35422 0.12646 0.98374 0.0
C2129 C 0.33801 0.11506 0.97142 0.0
H2130 H 0.88299 0.30455 0.97637 0.0
H2131 H 0.87205 0.37288 0.99423 0.0
H2132 H 0.89198 0.38475 0.96063 0.0
H2133 H 0.93667 0.31008 0.95444 0.0
H2134 H 0.93243 0.29106 0.93202 0.0
H2135 H 0.91702 0.28797 0.95718 0.0
H2136 H 0.88038 0.28962 0.93525 0.0
H2137 H 0.89567 0.2925 0.90998 0.0
H2138 H 0.87512 0.31267 0.91725 0.0
H2139 H 0.91544 0.38889 0.9266 0.0
H2140 H 0.93695 0.38534 0.89226 0.0
H2141 H 0.93042 0.3142 0.89542 0.0
C2142 C 0.88471 0.32202 0.97313 0.0
C2143 C 0.87615 0.33786 0.98788 0.0
C2144 C 0.87844 0.36054 0.98303 0.0
C2145 C 0.88981 0.3674 0.96409 0.0
C2146 C 0.89836 0.35133 0.95004 0.0
C2147 C 0.89557 0.32911 0.95411 0.0
C2148 C 0.90587 0.31517 0.93616 0.0
C2149 C 0.92408 0.3002 0.94552 0.0
C2150 C 0.88821 0.3017 0.92394 0.0
C2151 C 0.91536 0.333 0.92155 0.0
C2152 C 0.91097 0.35373 0.92993 0.0
C2153 C 0.91874 0.37276 0.91975 0.0
C2154 C 0.93103 0.37056 0.90032 0.0
C2155 C 0.93523 0.3495 0.89116 0.0
C2156 C 0.92731 0.33051 0.90197 0.0
H2157 H 0.69438 0.88521 0.97717 0.0
H2158 H 0.62827 0.8591 0.98542 0.0
H2159 H 0.6179 0.8741 0.94897 0.0
H2160 H 0.67948 0.93526 0.95021 0.0
H2161 H 0.70258 0.93503 0.93155 0.0
H2162 H 0.70491 0.92206 0.95815 0.0
H2163 H 0.71623 0.8854 0.93942 0.0
H2164 H 0.71394 0.89825 0.91275 0.0
H2165 H 0.69858 0.87354 0.91867 0.0
H2166 H 0.61411 0.89384 0.91297 0.0
H2167 H 0.61759 0.91516 0.87852 0.0
H2168 H 0.68683 0.92648 0.89234 0.0
C2169 C 0.6777 0.88264 0.97133 0.0
C2170 C 0.66206 0.87108 0.9842 0.0
C2171 C 0.64051 0.86786 0.97584 0.0
C2172 C 0.63448 0.87635 0.95519 0.0
C2173 C 0.65027 0.88771 0.94298 0.0
C2174 C 0.67151 0.89069 0.95062 0.0
C2175 C 0.68537 0.90341 0.93416 0.0
C2176 C 0.69356 0.92523 0.94412 0.0
C2177 C 0.70467 0.8893 0.92575 0.0
C2178 C 0.66851 0.90738 0.91616 0.0
C2179 C 0.64835 0.89829 0.92169 0.0
C2180 C 0.62987 0.90078 0.90833 0.0
C2181 C 0.632 0.91296 0.88884 0.0
C2182 C 0.65252 0.92224 0.88273 0.0
C2183 C 0.67106 0.91922 0.89646 0.0
H2184 H 0.10466 0.08148 0.35614 0.0
H2185 H 0.11577 0.06774 0.28677 0.0
H2186 H 0.07934 0.08267 0.27779 0.0
H2187 H 0.0458 0.06967 0.35677 0.0
H2188 H 0.03899 0.09215 0.37494 0.0
H2189 H 0.06574 0.07932 0.37659 0.0
H2190 H 0.08437 0.11727 0.37079 0.0
H2191 H 0.05768 0.1302 0.3691 0.0
H2192 H 0.0772 0.13355 0.34697 0.0
H2193 H 0.04234 0.09815 0.27575 0.0
H2194 H 0.00652 0.11622 0.28024 0.0
H2195 H 0.01854 0.1231 0.35053 0.0
C2196 C 0.09928 0.0815 0.33912 0.0
C2197 C 0.11301 0.07321 0.32217 0.0
C2198 C 0.1056 0.07385 0.30006 0.0
C2199 C 0.08486 0.08229 0.29475 0.0
C2200 C 0.07177 0.09038 0.3117 0.0
C2201 C 0.07862 0.09035 0.33341 0.0
C2202 C 0.06138 0.10109 0.34811 0.0
C2203 C 0.05245 0.08457 0.36511 0.0
C2204 C 0.07072 0.12176 0.35941 0.0
C2205 C 0.04388 0.10708 0.33117 0.0
C2206 C 0.0503 0.10043 0.31037 0.0
C2207 C 0.03709 0.10351 0.29193 0.0
C2208 C 0.0167 0.11373 0.29471 0.0
C2209 C 0.00966 0.12106 0.31575 0.0
C2210 C 0.02353 0.11778 0.33425 0.0
H2211 H 0.94798 0.09563 0.33136 0.0
H2212 H 0.89374 0.13558 0.35486 0.0
H2213 H 0.86975 0.10248 0.35609 0.0
H2214 H 0.91693 0.06185 0.29572 0.0
H2215 H 0.93239 0.03711 0.30137 0.0
H2216 H 0.94538 0.06359 0.30416 0.0
H2217 H 0.95594 0.05411 0.34447 0.0
H2218 H 0.94275 0.02764 0.34186 0.0
H2219 H 0.93471 0.04614 0.36365 0.0
H2220 H 0.85155 0.06503 0.35356 0.0
H2221 H 0.83962 0.02714 0.3441 0.0
H2222 H 0.90572 0.01223 0.32135 0.0
C2223 C 0.93107 0.09725 0.33684 0.0
C2224 C 0.92249 0.11788 0.34301 0.0
C2225 C 0.90039 0.11971 0.35009 0.0
C2226 C 0.88677 0.10105 0.35095 0.0
C2227 C 0.89566 0.08077 0.34477 0.0
C2228 C 0.91728 0.0788 0.33775 0.0
C2229 C 0.92249 0.05543 0.33088 0.0
C2230 C 0.92971 0.05445 0.30659 0.0
C2231 C 0.94001 0.04523 0.34613 0.0
C2232 C 0.90024 0.04473 0.33433 0.0
C2233 C 0.88509 0.05944 0.34286 0.0
C2234 C 0.8633 0.05333 0.347 0.0
C2235 C 0.85669 0.03178 0.3417 0.0
C2236 C 0.87175 0.01685 0.332 0.0
C2237 C 0.89386 0.02335 0.32874 0.0
H2238 H 0.8937 0.91143 0.34989 0.0
H2239 H 0.89484 0.95353 0.2921 0.0
H2240 H 0.93366 0.94389 0.28575 0.0
H2241 H 0.95114 0.91956 0.36771 0.0
H2242 H 0.95523 0.89103 0.37492 0.0
H2243 H 0.92817 0.90315 0.37692 0.0
H2244 H 0.91251 0.87275 0.35139 0.0
H2245 H 0.93947 0.86051 0.34939 0.0
H2246 H 0.92484 0.86832 0.32473 0.0
H2247 H 0.97149 0.92992 0.28503 0.0
H2248 H 0.00546 0.90835 0.28633 0.0
H2249 H 0.98023 0.87149 0.34241 0.0
C2250 C 0.90231 0.91883 0.33613 0.0
C2251 C 0.89142 0.93364 0.32175 0.0
C2252 C 0.90291 0.94246 0.30351 0.0
C2253 C 0.92502 0.93712 0.2998 0.0
C2254 C 0.93531 0.92251 0.3142 0.0
C2255 C 0.92434 0.9131 0.33176 0.0
C2256 C 0.93882 0.89607 0.34318 0.0
C2257 C 0.94362 0.90287 0.36711 0.0
C2258 C 0.92828 0.87305 0.3421 0.0
C2259 C 0.95951 0.89732 0.32909 0.0
C2260 C 0.95711 0.91309 0.31283 0.0
C2261 C 0.97359 0.91744 0.29761 0.0
C2262 C 0.9929 0.90498 0.29854 0.0
C2263 C 0.99563 0.88793 0.31436 0.0
C2264 C 0.97876 0.88436 0.33013 0.0
H2265 H 0.1202 0.98449 0.34421 0.0
H2266 H 0.13758 0.98081 0.27492 0.0
H2267 H 0.124 0.94271 0.27332 0.0
H2268 H 0.13288 0.92653 0.35807 0.0
H2269 H 0.1095 0.92356 0.37614 0.0
H2270 H 0.12237 0.95011 0.37277 0.0
H2271 H 0.0848 0.96692 0.36138 0.0
H2272 H 0.07185 0.94043 0.36467 0.0
H2273 H 0.06967 0.95489 0.33881 0.0
H2274 H 0.1075 0.90634 0.27803 0.0
H2275 H 0.08745 0.87287 0.28866 0.0
H2276 H 0.07878 0.89892 0.35479 0.0
C2277 C 0.1214 0.97544 0.32887 0.0
C2278 C 0.12997 0.98552 0.30968 0.0
C2279 C 0.13097 0.9734 0.28976 0.0
C2280 C 0.1234 0.95172 0.2887 0.0
C2281 C 0.11469 0.94233 0.30767 0.0
C2282 C 0.11351 0.95367 0.3274 0.0
C2283 C 0.10198 0.93982 0.34482 0.0
C2284 C 0.11762 0.9347 0.36409 0.0
C2285 C 0.08082 0.9512 0.35289 0.0
C2286 C 0.09675 0.91915 0.33162 0.0
C2287 C 0.1045 0.92104 0.31031 0.0
C2288 C 0.10142 0.90456 0.29469 0.0
C2289 C 0.08994 0.88561 0.30091 0.0
C2290 C 0.08153 0.88325 0.32254 0.0
C2291 C 0.08513 0.90022 0.33816 0.0
H2292 H 0.02664 0.89178 0.71004 0.0
H2293 H 0.01072 0.87759 0.64173 0.0
H2294 H 0.0454 0.89546 0.63005 0.0
H2295 H 0.05259 0.94476 0.70127 0.0
H2296 H 0.07372 0.94021 0.72168 0.0
H2297 H 0.04718 0.92724 0.72465 0.0
H2298 H 0.06607 0.88901 0.72706 0.0
H2299 H 0.09266 0.90186 0.72408 0.0
H2300 H 0.08437 0.88038 0.70531 0.0
H2301 H 0.0813 0.91516 0.62578 0.0
H2302 H 0.11747 0.93328 0.62906 0.0
H2303 H 0.11143 0.93294 0.70035 0.0
C2304 C 0.03035 0.89263 0.6926 0.0
C2305 C 0.01589 0.88347 0.67674 0.0
C2306 C 0.02154 0.88452 0.65414 0.0
C2307 C 0.04115 0.89469 0.64735 0.0
C2308 C 0.05506 0.90348 0.66341 0.0
C2309 C 0.05003 0.90239 0.68557 0.0
C2310 C 0.06832 0.91226 0.69951 0.0
C2311 C 0.05995 0.93231 0.71254 0.0
C2312 C 0.07845 0.89483 0.71489 0.0
C2313 C 0.08442 0.91911 0.68169 0.0
C2314 C 0.07628 0.91407 0.66099 0.0
C2315 C 0.08788 0.9191 0.64188 0.0
C2316 C 0.1084 0.92944 0.64394 0.0
C2317 C 0.1173 0.93443 0.66497 0.0
C2318 C 0.10511 0.92917 0.68409 0.0
H2319 H 0.12407 0.02277 0.65384 0.0
H2320 H 0.14206 0.02539 0.723 0.0
H2321 H 0.12589 0.06245 0.726 0.0
H2322 H 0.13239 0.08273 0.64212 0.0
H2323 H 0.10876 0.08424 0.62415 0.0
H2324 H 0.1241 0.05889 0.62646 0.0
H2325 H 0.08824 0.03829 0.63698 0.0
H2326 H 0.07285 0.06359 0.63493 0.0
H2327 H 0.07221 0.04782 0.6601 0.0
H2328 H 0.10506 0.09681 0.72308 0.0
H2329 H 0.08166 0.12856 0.71385 0.0
H2330 H 0.07622 0.10513 0.64641 0.0
C2331 C 0.12508 0.03151 0.66937 0.0
C2332 C 0.13444 0.02142 0.68818 0.0
C2333 C 0.135 0.03296 0.70843 0.0
C2334 C 0.12589 0.054 0.71029 0.0
C2335 C 0.11619 0.06331 0.69174 0.0
C2336 C 0.11579 0.05266 0.67159 0.0
C2337 C 0.10293 0.06609 0.65477 0.0
C2338 C 0.11795 0.07342 0.63575 0.0
C2339 C 0.08287 0.05317 0.6462 0.0
C2340 C 0.09587 0.0856 0.66882 0.0
C2341 C 0.10387 0.08357 0.69004 0.0
C2342 C 0.09891 0.09879 0.70645 0.0
C2343 C 0.08549 0.11672 0.70105 0.0
C2344 C 0.07717 0.11938 0.67941 0.0
C2345 C 0.0825 0.10361 0.66305 0.0
H2346 H 0.97322 0.11256 0.70699 0.0
H2347 H 0.98996 0.12777 0.63913 0.0
H2348 H 0.95538 0.11006 0.62672 0.0
H2349 H 0.94731 0.05974 0.69716 0.0
H2350 H 0.92602 0.06408 0.7174 0.0
H2351 H 0.95258 0.0769 0.72083 0.0
H2352 H 0.93382 0.11517 0.72357 0.0
H2353 H 0.90721 0.10248 0.72014 0.0
H2354 H 0.91574 0.12418 0.70175 0.0
H2355 H 0.91924 0.09042 0.62177 0.0
H2356 H 0.88283 0.07254 0.6246 0.0
H2357 H 0.88856 0.07203 0.6959 0.0
C2358 C 0.96974 0.11196 0.68949 0.0
C2359 C 0.98439 0.12136 0.67398 0.0
C2360 C 0.979 0.12064 0.65128 0.0
C2361 C 0.95945 0.11056 0.64409 0.0
C2362 C 0.94535 0.10153 0.65983 0.0
C2363 C 0.95015 0.1023 0.68207 0.0
C2364 C 0.93172 0.09232 0.69567 0.0
C2365 C 0.93991 0.07206 0.70852 0.0
C2366 C 0.92152 0.10957 0.7112 0.0
C2367 C 0.91577 0.0858 0.6776 0.0
C2368 C 0.92409 0.09104 0.65704 0.0
C2369 C 0.91253 0.08632 0.63778 0.0
C2370 C 0.89189 0.07612 0.63957 0.0
C2371 C 0.88284 0.071 0.66047 0.0
C2372 C 0.895 0.0759 0.67972 0.0
H2373 H 0.92664 0.90035 0.64617 0.0
H2374 H 0.91584 0.87619 0.71266 0.0
H2375 H 0.89177 0.90795 0.72028 0.0
H2376 H 0.92995 0.95719 0.6609 0.0
H2377 H 0.91609 0.96715 0.63657 0.0
H2378 H 0.93127 0.94168 0.63559 0.0
H2379 H 0.89639 0.92149 0.62155 0.0
H2380 H 0.88103 0.9469 0.62264 0.0
H2381 H 0.87126 0.92301 0.63732 0.0
H2382 H 0.87053 0.94239 0.72167 0.0
H2383 H 0.85489 0.97964 0.71764 0.0
H2384 H 0.87891 0.98288 0.65043 0.0
C2385 C 0.91904 0.9017 0.66225 0.0
C2386 C 0.92302 0.88573 0.67881 0.0
C2387 C 0.91304 0.88819 0.69974 0.0
C2388 C 0.89923 0.90612 0.70419 0.0
C2389 C 0.89559 0.92152 0.68758 0.0
C2390 C 0.90528 0.91969 0.66707 0.0
C2391 C 0.89955 0.93942 0.6527 0.0
C2392 C 0.92046 0.95211 0.64606 0.0
C2393 C 0.88626 0.93227 0.63235 0.0
C2394 C 0.8854 0.95274 0.66851 0.0
C2395 C 0.88321 0.94184 0.68842 0.0
C2396 C 0.87193 0.95101 0.70612 0.0
C2397 C 0.86309 0.97212 0.70366 0.0
C2398 C 0.86549 0.98388 0.68368 0.0
C2399 C 0.87643 0.97395 0.66568 0.0
H2400 H 0.31729 0.03379 0.1216 0.0
H2401 H 0.38433 0.01693 0.13994 0.0
H2402 H 0.39746 0.05175 0.12285 0.0
H2403 H 0.32884 0.05562 0.06971 0.0
H2404 H 0.30858 0.0773 0.07119 0.0
H2405 H 0.30448 0.05216 0.08636 0.0
H2406 H 0.3006 0.07429 0.12268 0.0
H2407 H 0.3044 0.09956 0.10758 0.0
H2408 H 0.32206 0.09323 0.13064 0.0
H2409 H 0.40314 0.08685 0.10034 0.0
H2410 H 0.40083 0.12059 0.07762 0.0
H2411 H 0.32965 0.11426 0.07521 0.0
C2412 C 0.33475 0.0375 0.12229 0.0
C2413 C 0.34986 0.02264 0.132 0.0
C2414 C 0.3725 0.02817 0.1327 0.0
C2415 C 0.38006 0.04783 0.12294 0.0
C2416 C 0.36469 0.06179 0.11291 0.0
C2417 C 0.34245 0.05697 0.11288 0.0
C2418 C 0.32923 0.07428 0.10069 0.0
C2419 C 0.31707 0.06423 0.08081 0.0
C2420 C 0.31313 0.08604 0.11634 0.0
C2421 C 0.34751 0.08949 0.09339 0.0
C2422 C 0.36786 0.08203 0.10054 0.0
C2423 C 0.38727 0.09294 0.09493 0.0
C2424 C 0.38578 0.11203 0.08192 0.0
C2425 C 0.36504 0.12008 0.07475 0.0
C2426 C 0.34571 0.10861 0.08061 0.0
H2427 H 0.34851 0.9889 0.90647 0.0
H2428 H 0.34399 0.96914 0.83794 0.0
H2429 H 0.34465 0.92997 0.84919 0.0
H2430 H 0.38666 0.94357 0.92249 0.0
H2431 H 0.3745 0.94094 0.94946 0.0
H2432 H 0.37479 0.96732 0.9358 0.0
H2433 H 0.3324 0.9699 0.94027 0.0
H2434 H 0.33192 0.9434 0.95359 0.0
H2435 H 0.31523 0.94819 0.92946 0.0
H2436 H 0.34115 0.89336 0.86816 0.0
H2437 H 0.33995 0.86122 0.89338 0.0
H2438 H 0.35022 0.90442 0.94926 0.0
C2439 C 0.34811 0.97626 0.89387 0.0
C2440 C 0.34625 0.98189 0.87136 0.0
C2441 C 0.34571 0.96506 0.85525 0.0
C2442 C 0.34591 0.94282 0.86149 0.0
C2443 C 0.34722 0.93777 0.88386 0.0
C2444 C 0.34894 0.95398 0.89977 0.0
C2445 C 0.3505 0.94407 0.92265 0.0
C2446 C 0.37295 0.94928 0.93322 0.0
C2447 C 0.33136 0.95186 0.93735 0.0
C2448 C 0.3485 0.91981 0.91718 0.0
C2449 C 0.34647 0.91655 0.89471 0.0
C2450 C 0.34315 0.89566 0.88574 0.0
C2451 C 0.34233 0.87758 0.90011 0.0
C2452 C 0.34507 0.88058 0.92302 0.0
C2453 C 0.34821 0.90188 0.93169 0.0
H2454 H 0.02697 0.35344 0.88379 0.0
H2455 H 0.02313 0.28362 0.86896 0.0
H2456 H 0.06066 0.27827 0.88347 0.0
H2457 H 0.08644 0.36027 0.8721 0.0
H2458 H 0.09077 0.37883 0.89488 0.0
H2459 H 0.06435 0.37787 0.88131 0.0
H2460 H 0.04546 0.36997 0.91875 0.0
H2461 H 0.07182 0.37077 0.9324 0.0
H2462 H 0.05449 0.3468 0.93504 0.0
H2463 H 0.0972 0.27962 0.90089 0.0
H2464 H 0.1314 0.28756 0.92115 0.0
H2465 H 0.11218 0.35629 0.92669 0.0
C2466 C 0.03431 0.33718 0.88326 0.0
C2467 C 0.02232 0.31893 0.87516 0.0
C2468 C 0.03212 0.29777 0.87512 0.0
C2469 C 0.05342 0.29457 0.88326 0.0
C2470 C 0.0647 0.31269 0.89157 0.0
C2471 C 0.0556 0.33359 0.89172 0.0
C2472 C 0.07098 0.34981 0.90303 0.0
C2473 C 0.07859 0.36776 0.88686 0.0
C2474 C 0.06003 0.35993 0.92352 0.0
C2475 C 0.08989 0.33464 0.90936 0.0
C2476 C 0.0859 0.31336 0.90234 0.0
C2477 C 0.1006 0.29623 0.90641 0.0
C2478 C 0.11998 0.30091 0.91799 0.0
C2479 C 0.12446 0.32252 0.92554 0.0
C2480 C 0.10919 0.33961 0.92111 0.0
H2481 H 0.64371 0.11078 0.90871 0.0
H2482 H 0.69803 0.10536 0.95493 0.0
H2483 H 0.70252 0.06625 0.94526 0.0
H2484 H 0.62145 0.05487 0.91503 0.0
H2485 H 0.61598 0.0514 0.88603 0.0
H2486 H 0.61507 0.07849 0.89817 0.0
H2487 H 0.64372 0.09234 0.86975 0.0
H2488 H 0.64465 0.06534 0.85749 0.0
H2489 H 0.66969 0.07811 0.86712 0.0
H2490 H 0.70151 0.02855 0.93108 0.0
H2491 H 0.6991 0.99476 0.90948 0.0
H2492 H 0.64776 0.02407 0.86878 0.0
C2493 C 0.65631 0.10117 0.91696 0.0
C2494 C 0.6703 0.11091 0.93288 0.0
C2495 C 0.68703 0.09816 0.94289 0.0
C2496 C 0.68963 0.0759 0.93757 0.0
C2497 C 0.67566 0.06676 0.92182 0.0
C2498 C 0.65959 0.07897 0.9113 0.0
C2499 C 0.64838 0.06543 0.8934 0.0
C2500 C 0.62375 0.06237 0.89847 0.0
C2501 C 0.65183 0.07593 0.87059 0.0
C2502 C 0.66084 0.04379 0.89549 0.0
C2503 C 0.67611 0.04497 0.91236 0.0
C2504 C 0.68971 0.02741 0.91774 0.0
C2505 C 0.68815 0.0082 0.90524 0.0
C2506 C 0.67336 0.00664 0.88712 0.0
C2507 C 0.65923 0.02466 0.88244 0.0
H2508 H 0.98509 0.65047 0.87721 0.0
H2509 H 0.99385 0.72151 0.87757 0.0
H2510 H 0.95675 0.72623 0.89281 0.0
H2511 H 0.92613 0.65082 0.86337 0.0
H2512 H 0.91939 0.62826 0.88147 0.0
H2513 H 0.94645 0.62997 0.86935 0.0
H2514 H 0.96404 0.6283 0.90821 0.0
H2515 H 0.93704 0.62664 0.92044 0.0
H2516 H 0.95582 0.64808 0.92879 0.0
H2517 H 0.91968 0.72411 0.90836 0.0
H2518 H 0.8838 0.715 0.92466 0.0
H2519 H 0.89764 0.64526 0.91626 0.0
C2520 C 0.97903 0.66696 0.88032 0.0
C2521 C 0.99245 0.68562 0.87624 0.0
C2522 C 0.98402 0.70694 0.88075 0.0
C2523 C 0.96289 0.70985 0.88933 0.0
C2524 C 0.95022 0.69128 0.89352 0.0
C2525 C 0.95782 0.67022 0.8893 0.0
C2526 C 0.94075 0.65324 0.89634 0.0
C2527 C 0.9327 0.63978 0.87644 0.0
C2528 C 0.94997 0.63818 0.91453 0.0
C2529 C 0.92259 0.66815 0.90516 0.0
C2530 C 0.9285 0.69002 0.90315 0.0
C2531 C 0.91479 0.70705 0.91004 0.0
C2532 C 0.89441 0.70168 0.91932 0.0
C2533 C 0.88787 0.67943 0.92182 0.0
C2534 C 0.90219 0.66242 0.9146 0.0
H2535 H 0.68991 0.97999 0.10729 0.0
H2536 H 0.62674 0.98361 0.14074 0.0
H2537 H 0.61698 0.94696 0.12591 0.0
H2538 H 0.67063 0.95235 0.05824 0.0
H2539 H 0.69496 0.9355 0.05559 0.0
H2540 H 0.69677 0.96224 0.06834 0.0
H2541 H 0.7139 0.94452 0.10323 0.0
H2542 H 0.71211 0.91772 0.09061 0.0
H2543 H 0.69944 0.92255 0.11704 0.0
H2544 H 0.61364 0.91058 0.10659 0.0
H2545 H 0.61767 0.87581 0.08593 0.0
H2546 H 0.68391 0.89462 0.06675 0.0
C2547 C 0.67395 0.97317 0.11143 0.0
C2548 C 0.65901 0.9848 0.12511 0.0
C2549 C 0.63844 0.97509 0.1303 0.0
C2550 C 0.63274 0.95429 0.12192 0.0
C2551 C 0.64786 0.94332 0.10854 0.0
C2552 C 0.6681 0.95234 0.10343 0.0
C2553 C 0.68155 0.93689 0.08907 0.0
C2554 C 0.68625 0.94737 0.06647 0.0
C2555 C 0.70302 0.93001 0.10069 0.0
C2556 C 0.66575 0.91766 0.08699 0.0
C2557 C 0.64631 0.92189 0.09812 0.0
C2558 C 0.62884 0.90704 0.09796 0.0
C2559 C 0.63127 0.88737 0.08613 0.0
C2560 C 0.65115 0.8825 0.0749 0.0
C2561 C 0.66866 0.89782 0.07544 0.0
H2562 H 0.02322 0.65138 0.13109 0.0
H2563 H 0.99973 0.71029 0.09754 0.0
H2564 H 0.03411 0.71236 0.07683 0.0
H2565 H 0.07923 0.66823 0.13626 0.0
H2566 H 0.091 0.64154 0.13064 0.0
H2567 H 0.06394 0.64358 0.14265 0.0
H2568 H 0.0479 0.62005 0.11085 0.0
H2569 H 0.07495 0.61792 0.09875 0.0
H2570 H 0.05229 0.62855 0.08272 0.0
H2571 H 0.07139 0.71082 0.06209 0.0
H2572 H 0.10986 0.70384 0.05176 0.0
H2573 H 0.11017 0.6446 0.09187 0.0
C2574 C 0.02527 0.66457 0.11926 0.0
C2575 C 0.0086 0.68066 0.11612 0.0
C2576 C 0.01204 0.69767 0.10041 0.0
C2577 C 0.03159 0.69907 0.08845 0.0
C2578 C 0.04767 0.68322 0.09206 0.0
C2579 C 0.0448 0.66613 0.10683 0.0
C2580 C 0.06519 0.65153 0.10744 0.0
C2581 C 0.07544 0.65121 0.13063 0.0
C2582 C 0.05975 0.62812 0.09946 0.0
C2583 C 0.07995 0.6635 0.09109 0.0
C2584 C 0.06938 0.68176 0.08256 0.0
C2585 C 0.07979 0.69636 0.06831 0.0
C2586 C 0.10169 0.69227 0.06256 0.0
C2587 C 0.1129 0.67353 0.07072 0.0
C2588 C 0.10181 0.65882 0.08505 0.0
H2589 H 0.9783 0.29635 0.11045 0.0
H2590 H 0.99392 0.36327 0.13043 0.0
H2591 H 0.95862 0.37609 0.11473 0.0
H2592 H 0.95068 0.31005 0.05907 0.0
H2593 H 0.93 0.28896 0.06217 0.0
H2594 H 0.95699 0.28513 0.07399 0.0
H2595 H 0.93935 0.27857 0.1123 0.0
H2596 H 0.91232 0.28245 0.10063 0.0
H2597 H 0.92107 0.29907 0.12365 0.0
H2598 H 0.92183 0.38168 0.0972 0.0
H2599 H 0.88512 0.37969 0.07997 0.0
H2600 H 0.89233 0.3089 0.07253 0.0
C2601 C 0.97443 0.31375 0.1113 0.0
C2602 C 0.98897 0.32885 0.12156 0.0
C2603 C 0.98308 0.35141 0.12265 0.0
C2604 C 0.96308 0.35885 0.11374 0.0
C2605 C 0.94908 0.34352 0.10395 0.0
C2606 C 0.95441 0.32143 0.10272 0.0
C2607 C 0.936 0.30829 0.09205 0.0
C2608 C 0.94389 0.29747 0.07054 0.0
C2609 C 0.92663 0.29108 0.10812 0.0
C2610 C 0.91945 0.32646 0.08751 0.0
C2611 C 0.92746 0.34665 0.09437 0.0
C2612 C 0.91537 0.36597 0.0918 0.0
C2613 C 0.89453 0.36464 0.08197 0.0
C2614 C 0.88584 0.34413 0.07498 0.0
C2615 C 0.89849 0.32478 0.07784 0.0
H2616 H 0.6231 0.80888 0.52959 0.0
H2617 H 0.63856 0.8771 0.51497 0.0
H2618 H 0.6192 0.88857 0.54916 0.0
H2619 H 0.56967 0.81716 0.55033 0.0
H2620 H 0.57184 0.7966 0.57166 0.0
H2621 H 0.58775 0.79384 0.54679 0.0
H2622 H 0.62374 0.79149 0.56971 0.0
H2623 H 0.60792 0.79399 0.5947 0.0
H2624 H 0.63008 0.81298 0.58922 0.0
H2625 H 0.59515 0.89238 0.58335 0.0
H2626 H 0.57212 0.88828 0.61667 0.0
H2627 H 0.57422 0.8172 0.60952 0.0
C2628 C 0.62261 0.82625 0.53365 0.0
C2629 C 0.63222 0.84216 0.51958 0.0
C2630 C 0.6314 0.86467 0.52558 0.0
C2631 C 0.62034 0.87129 0.54488 0.0
C2632 C 0.61058 0.85515 0.5581 0.0
C2633 C 0.61199 0.83305 0.55289 0.0
C2634 C 0.60018 0.81887 0.5697 0.0
C2635 C 0.58124 0.80586 0.55897 0.0
C2636 C 0.61645 0.80342 0.58154 0.0
C2637 C 0.59152 0.83643 0.58511 0.0
C2638 C 0.59755 0.85726 0.57807 0.0
C2639 C 0.5906 0.87613 0.58913 0.0
C2640 C 0.57742 0.87363 0.60797 0.0
C2641 C 0.57149 0.85241 0.61574 0.0
C2642 C 0.57866 0.83361 0.60409 0.0
H2643 H 0.13709 0.57292 0.6068 0.0
H2644 H 0.20345 0.58763 0.62924 0.0
H2645 H 0.20898 0.61169 0.59704 0.0
H2646 H 0.15082 0.56976 0.5495 0.0
H2647 H 0.12548 0.58204 0.53997 0.0
H2648 H 0.126 0.56708 0.5656 0.0
H2649 H 0.11035 0.60127 0.58579 0.0
H2650 H 0.10999 0.61641 0.56022 0.0
H2651 H 0.12459 0.62726 0.58372 0.0
H2652 H 0.20818 0.63301 0.56253 0.0
H2653 H 0.20237 0.64811 0.52529 0.0
H2654 H 0.13683 0.61973 0.52353 0.0
C2655 C 0.15271 0.58134 0.60496 0.0
C2656 C 0.16982 0.5785 0.62062 0.0
C2657 C 0.19012 0.58954 0.6175 0.0
C2658 C 0.19338 0.60337 0.59933 0.0
C2659 C 0.17622 0.60593 0.58428 0.0
C2660 C 0.15635 0.5951 0.58667 0.0
C2661 C 0.14124 0.59978 0.56719 0.0
C2662 C 0.13556 0.57839 0.55484 0.0
C2663 C 0.1203 0.6119 0.57469 0.0
C2664 C 0.15587 0.61471 0.55339 0.0
C2665 C 0.17585 0.61819 0.56385 0.0
C2666 C 0.19257 0.63057 0.55426 0.0
C2667 C 0.18909 0.63913 0.53315 0.0
C2668 C 0.16908 0.63533 0.52178 0.0
C2669 C 0.15205 0.62329 0.53215 0.0
H2670 H 0.38006 0.20047 0.5244 0.0
H2671 H 0.36052 0.13226 0.51555 0.0
H2672 H 0.37902 0.12258 0.55065 0.0
H2673 H 0.43298 0.19066 0.54743 0.0
H2674 H 0.43152 0.21303 0.56691 0.0
H2675 H 0.4165 0.21463 0.54135 0.0
H2676 H 0.38019 0.22114 0.56284 0.0
H2677 H 0.39511 0.21966 0.58848 0.0
H2678 H 0.37193 0.20171 0.58374 0.0
H2679 H 0.40184 0.12006 0.58519 0.0
H2680 H 0.42436 0.12517 0.61866 0.0
H2681 H 0.42702 0.19554 0.60633 0.0
C2682 C 0.37962 0.18348 0.52985 0.0
C2683 C 0.36899 0.16704 0.51718 0.0
C2684 C 0.36854 0.14509 0.52502 0.0
C2685 C 0.37905 0.13945 0.54488 0.0
C2686 C 0.3896 0.15604 0.55682 0.0
C2687 C 0.38968 0.17767 0.54977 0.0
C2688 C 0.4019 0.19243 0.56581 0.0
C2689 C 0.42192 0.20332 0.5547 0.0
C2690 C 0.38635 0.20976 0.57581 0.0
C2691 C 0.40902 0.17567 0.58288 0.0
C2692 C 0.40189 0.15476 0.57726 0.0
C2693 C 0.40727 0.13638 0.58988 0.0
C2694 C 0.42016 0.13946 0.60881 0.0
C2695 C 0.42729 0.16078 0.61513 0.0
C2696 C 0.42155 0.17912 0.60201 0.0
H2697 H 0.81575 0.38802 0.53198 0.0
H2698 H 0.88206 0.36241 0.52368 0.0
H2699 H 0.89339 0.38076 0.55826 0.0
H2700 H 0.83031 0.44043 0.55379 0.0
H2701 H 0.80794 0.44139 0.5733 0.0
H2702 H 0.80494 0.42606 0.54807 0.0
H2703 H 0.79529 0.39092 0.57034 0.0
H2704 H 0.79813 0.40617 0.59565 0.0
H2705 H 0.81395 0.38139 0.59142 0.0
H2706 H 0.89798 0.40375 0.5923 0.0
H2707 H 0.89483 0.4269 0.62558 0.0
H2708 H 0.82498 0.43578 0.61293 0.0
C2709 C 0.83265 0.38622 0.53746 0.0
C2710 C 0.84809 0.37389 0.52511 0.0
C2711 C 0.86997 0.37172 0.53294 0.0
C2712 C 0.87656 0.38215 0.55249 0.0
C2713 C 0.86099 0.39439 0.56413 0.0
C2714 C 0.83941 0.39621 0.55709 0.0
C2715 C 0.82583 0.41003 0.57284 0.0
C2716 C 0.81673 0.4307 0.56131 0.0
C2717 C 0.8072 0.3963 0.58317 0.0
C2718 C 0.84321 0.41594 0.58973 0.0
C2719 C 0.86342 0.4069 0.58427 0.0
C2720 C 0.88221 0.41072 0.59687 0.0
C2721 C 0.88027 0.42397 0.61567 0.0
C2722 C 0.85964 0.43299 0.62184 0.0
C2723 C 0.84089 0.42889 0.60869 0.0
H2724 H 0.56796 0.19507 0.39373 0.0
H2725 H 0.57329 0.12424 0.38537 0.0
H2726 H 0.59403 0.12158 0.42021 0.0
H2727 H 0.62161 0.20376 0.41739 0.0
H2728 H 0.61242 0.2243 0.43677 0.0
H2729 H 0.59807 0.22077 0.41101 0.0
H2730 H 0.56145 0.21465 0.43208 0.0
H2731 H 0.57568 0.2182 0.45791 0.0
H2732 H 0.55996 0.19351 0.4529 0.0
H2733 H 0.61535 0.12661 0.45532 0.0
H2734 H 0.63381 0.13887 0.48952 0.0
H2735 H 0.61327 0.20612 0.47612 0.0
C2736 C 0.57352 0.17903 0.39926 0.0
C2737 C 0.56909 0.15987 0.38679 0.0
C2738 C 0.57646 0.13914 0.39465 0.0
C2739 C 0.58832 0.13745 0.41441 0.0
C2740 C 0.59249 0.15661 0.4263 0.0
C2741 C 0.58517 0.17698 0.41916 0.0
C2742 C 0.59153 0.19491 0.43536 0.0
C2743 C 0.60682 0.21193 0.42448 0.0
C2744 C 0.57092 0.20597 0.44514 0.0
C2745 C 0.60369 0.18143 0.45256 0.0
C2746 C 0.60418 0.15939 0.44695 0.0
C2747 C 0.61496 0.14381 0.45998 0.0
C2748 C 0.62545 0.15094 0.47934 0.0
C2749 C 0.6249 0.17341 0.48561 0.0
C2750 C 0.61381 0.18877 0.47196 0.0
H2751 H 0.8254 0.56902 0.39648 0.0
H2752 H 0.89531 0.57928 0.38553 0.0
H2753 H 0.89735 0.60195 0.41924 0.0
H2754 H 0.81294 0.62273 0.41815 0.0
H2755 H 0.79391 0.61266 0.43861 0.0
H2756 H 0.79779 0.59764 0.41331 0.0
H2757 H 0.80774 0.56252 0.43552 0.0
H2758 H 0.80379 0.57741 0.46088 0.0
H2759 H 0.8296 0.56364 0.45564 0.0
H2760 H 0.89152 0.62465 0.45349 0.0
H2761 H 0.87888 0.64283 0.48775 0.0
H2762 H 0.81337 0.61596 0.47751 0.0
C2763 C 0.8411 0.57609 0.40119 0.0
C2764 C 0.86017 0.57252 0.38836 0.0
C2765 C 0.8805 0.58179 0.39516 0.0
C2766 C 0.88181 0.59477 0.41423 0.0
C2767 C 0.8627 0.59808 0.42648 0.0
C2768 C 0.84279 0.58878 0.42041 0.0
C2769 C 0.82492 0.59425 0.43695 0.0
C2770 C 0.80629 0.60762 0.4261 0.0
C2771 C 0.81599 0.5732 0.44789 0.0
C2772 C 0.83787 0.60815 0.45316 0.0
C2773 C 0.85958 0.61038 0.44671 0.0
C2774 C 0.87459 0.62291 0.45881 0.0
C2775 C 0.86725 0.63324 0.47817 0.0
C2776 C 0.84521 0.6307 0.48537 0.0
C2777 C 0.83039 0.61804 0.47257 0.0
H2778 H 0.38652 0.79701 0.48384 0.0
H2779 H 0.36577 0.86439 0.49607 0.0
H2780 H 0.38486 0.87632 0.46216 0.0
H2781 H 0.44031 0.80948 0.46094 0.0
H2782 H 0.43886 0.78799 0.44048 0.0
H2783 H 0.42456 0.78487 0.46631 0.0
H2784 H 0.3879 0.77842 0.44533 0.0
H2785 H 0.40208 0.78149 0.41946 0.0
H2786 H 0.37859 0.79862 0.42561 0.0
H2787 H 0.40596 0.8809 0.42711 0.0
H2788 H 0.42571 0.87771 0.39181 0.0
H2789 H 0.43153 0.80702 0.40129 0.0
C2790 C 0.38617 0.81432 0.47951 0.0
C2791 C 0.37477 0.82982 0.49269 0.0
C2792 C 0.37438 0.85224 0.48624 0.0
C2793 C 0.38524 0.85918 0.46706 0.0
C2794 C 0.39625 0.84346 0.45443 0.0
C2795 C 0.39667 0.82148 0.46028 0.0
C2796 C 0.40881 0.80779 0.44325 0.0
C2797 C 0.42936 0.79689 0.45336 0.0
C2798 C 0.39342 0.79056 0.4328 0.0
C2799 C 0.41508 0.82552 0.42685 0.0
C2800 C 0.40787 0.84599 0.43378 0.0
C2801 C 0.41167 0.86496 0.4215 0.0
C2802 C 0.42293 0.86296 0.40147 0.0
C2803 C 0.43009 0.8421 0.39378 0.0
C2804 C 0.4262 0.82316 0.40673 0.0
H2805 H 0.18166 0.43208 0.39633 0.0
H2806 H 0.11198 0.42134 0.3842 0.0
H2807 H 0.1091 0.40056 0.41904 0.0
H2808 H 0.19337 0.37953 0.42091 0.0
H2809 H 0.21204 0.3905 0.44126 0.0
H2810 H 0.20874 0.4043 0.41518 0.0
H2811 H 0.19855 0.44048 0.43545 0.0
H2812 H 0.20188 0.42681 0.46159 0.0
H2813 H 0.17628 0.44043 0.4551 0.0
H2814 H 0.11406 0.37974 0.45457 0.0
H2815 H 0.12599 0.36284 0.48972 0.0
H2816 H 0.19188 0.38881 0.47965 0.0
C2817 C 0.16582 0.42532 0.40103 0.0
C2818 C 0.14707 0.42821 0.38754 0.0
C2819 C 0.12657 0.41934 0.39431 0.0
C2820 C 0.12477 0.40745 0.41404 0.0
C2821 C 0.14357 0.4048 0.42694 0.0
C2822 C 0.16365 0.41368 0.42086 0.0
C2823 C 0.18116 0.40894 0.43803 0.0
C2824 C 0.19993 0.39499 0.42826 0.0
C2825 C 0.18998 0.43045 0.44814 0.0
C2826 C 0.16781 0.3959 0.4546 0.0
C2827 C 0.14621 0.39352 0.44782 0.0
C2828 C 0.1309 0.38161 0.46015 0.0
C2829 C 0.13783 0.37201 0.48004 0.0
C2830 C 0.1598 0.37462 0.48751 0.0
C2831 C 0.17491 0.38672 0.47453 0.0
H2832 H 0.61003 0.5835 0.85741 0.0
H2833 H 0.62801 0.58149 0.78813 0.0
H2834 H 0.5938 0.60087 0.77858 0.0
H2835 H 0.55226 0.57406 0.84934 0.0
H2836 H 0.54339 0.59256 0.87082 0.0
H2837 H 0.56985 0.57922 0.87275 0.0
H2838 H 0.5888 0.61724 0.87671 0.0
H2839 H 0.56239 0.63071 0.87473 0.0
H2840 H 0.58423 0.63807 0.85601 0.0
H2841 H 0.5578 0.6185 0.77579 0.0
H2842 H 0.52059 0.63395 0.77976 0.0
H2843 H 0.52462 0.62617 0.85079 0.0
C2844 C 0.60676 0.58727 0.84027 0.0
C2845 C 0.62172 0.58097 0.8235 0.0
C2846 C 0.61685 0.5861 0.80126 0.0
C2847 C 0.59746 0.59718 0.79564 0.0
C2848 C 0.58308 0.60312 0.81245 0.0
C2849 C 0.58735 0.59844 0.83431 0.0
C2850 C 0.56854 0.60632 0.8489 0.0
C2851 C 0.55788 0.58688 0.86117 0.0
C2852 C 0.57647 0.62415 0.86504 0.0
C2853 C 0.55301 0.61588 0.8317 0.0
C2854 C 0.56193 0.61381 0.81083 0.0
C2855 C 0.55065 0.62038 0.79201 0.0
C2856 C 0.52951 0.62905 0.79446 0.0
C2857 C 0.5198 0.63124 0.81556 0.0
C2858 C 0.53182 0.62491 0.83451 0.0
H2859 H 0.43099 0.60971 0.80917 0.0
H2860 H 0.42732 0.62358 0.87922 0.0
H2861 H 0.4052 0.59001 0.88486 0.0
H2862 H 0.37626 0.58625 0.80296 0.0
H2863 H 0.38507 0.56507 0.78409 0.0
H2864 H 0.39962 0.59092 0.78521 0.0
H2865 H 0.4362 0.57015 0.79274 0.0
H2866 H 0.42177 0.54426 0.79157 0.0
H2867 H 0.43781 0.55123 0.8156 0.0
H2868 H 0.383 0.55517 0.88301 0.0
H2869 H 0.36522 0.51955 0.87412 0.0
H2870 H 0.38526 0.52691 0.80585 0.0
C2871 C 0.42536 0.60571 0.82563 0.0
C2872 C 0.43073 0.6193 0.84373 0.0
C2873 C 0.42341 0.61338 0.86511 0.0
C2874 C 0.41074 0.59439 0.86849 0.0
C2875 C 0.40574 0.58128 0.85037 0.0
C2876 C 0.41302 0.5865 0.82939 0.0
C2877 C 0.40634 0.56886 0.81301 0.0
C2878 C 0.3909 0.57835 0.79527 0.0
C2879 C 0.42675 0.55798 0.80262 0.0
C2880 C 0.39423 0.55301 0.82807 0.0
C2881 C 0.3938 0.56063 0.84949 0.0
C2882 C 0.38329 0.54896 0.8663 0.0
C2883 C 0.37318 0.5288 0.8611 0.0
C2884 C 0.37397 0.52038 0.83937 0.0
C2885 C 0.38455 0.5328 0.82268 0.0
H2886 H 0.39159 0.43186 0.8171 0.0
H2887 H 0.38268 0.4259 0.88779 0.0
H2888 H 0.41738 0.4048 0.89051 0.0
H2889 H 0.4156 0.37817 0.80787 0.0
H2890 H 0.43501 0.38794 0.78763 0.0
H2891 H 0.40901 0.40184 0.79115 0.0
H2892 H 0.42947 0.43871 0.798 0.0
H2893 H 0.45551 0.42494 0.7944 0.0
H2894 H 0.45014 0.44018 0.81932 0.0
H2895 H 0.45317 0.38359 0.88535 0.0
H2896 H 0.4885 0.36709 0.87294 0.0
H2897 H 0.4745 0.38865 0.80617 0.0
C2898 C 0.39692 0.42602 0.83312 0.0
C2899 C 0.38439 0.43041 0.8522 0.0
C2900 C 0.39204 0.42274 0.87292 0.0
C2901 C 0.41169 0.41065 0.87464 0.0
C2902 C 0.42366 0.40653 0.85552 0.0
C2903 C 0.41668 0.4142 0.83518 0.0
C2904 C 0.43306 0.40838 0.81731 0.0
C2905 C 0.42254 0.39318 0.79997 0.0
C2906 C 0.44261 0.4293 0.80664 0.0
C2907 C 0.4503 0.39629 0.83076 0.0
C2908 C 0.44452 0.39512 0.85272 0.0
C2909 C 0.45791 0.38449 0.86818 0.0
C2910 C 0.47788 0.37509 0.86101 0.0
C2911 C 0.48435 0.37673 0.83867 0.0
C2912 C 0.47018 0.38731 0.82344 0.0
H2913 H 0.57127 0.39843 0.80705 0.0
H2914 H 0.57927 0.38834 0.87743 0.0
H2915 H 0.59878 0.42382 0.8804 0.0
H2916 H 0.62366 0.42344 0.79739 0.0
H2917 H 0.61349 0.44312 0.77758 0.0
H2918 H 0.59973 0.41706 0.78095 0.0
H2919 H 0.56294 0.43733 0.78868 0.0
H2920 H 0.57658 0.46347 0.78527 0.0
H2921 H 0.56174 0.45764 0.81032 0.0
H2922 H 0.61915 0.45955 0.87555 0.0
H2923 H 0.63702 0.49408 0.86337 0.0
H2924 H 0.61456 0.48178 0.79652 0.0
C2925 C 0.57705 0.40376 0.82308 0.0
C2926 C 0.5738 0.39057 0.84199 0.0
C2927 C 0.58154 0.39815 0.8627 0.0
C2928 C 0.59268 0.41829 0.86457 0.0
C2929 C 0.5958 0.43083 0.84563 0.0
C2930 C 0.58805 0.42399 0.8253 0.0
C2931 C 0.59355 0.44068 0.80756 0.0
C2932 C 0.6085 0.43046 0.78983 0.0
C2933 C 0.57244 0.45035 0.79736 0.0
C2934 C 0.60581 0.45779 0.82106 0.0
C2935 C 0.60701 0.45175 0.84296 0.0
C2936 C 0.61816 0.46456 0.85846 0.0
C2937 C 0.62832 0.48412 0.85139 0.0
C2938 C 0.62709 0.49077 0.82904 0.0
C2939 C 0.61559 0.47735 0.81378 0.0
H2940 H 0.52565 0.38249 0.15496 0.0
H2941 H 0.51669 0.38214 0.22597 0.0
H2942 H 0.55382 0.39736 0.23096 0.0
H2943 H 0.58445 0.36878 0.15507 0.0
H2944 H 0.59111 0.38719 0.13273 0.0
H2945 H 0.56408 0.375 0.13432 0.0
H2946 H 0.54641 0.41384 0.1332 0.0
H2947 H 0.57338 0.42614 0.13165 0.0
H2948 H 0.55464 0.43418 0.15324 0.0
H2949 H 0.59103 0.41275 0.22897 0.0
H2950 H 0.62686 0.42923 0.2199 0.0
H2951 H 0.61265 0.4218 0.1501 0.0
C2952 C 0.53168 0.38546 0.1715 0.0
C2953 C 0.51827 0.38116 0.19008 0.0
C2954 C 0.52658 0.38549 0.21149 0.0
C2955 C 0.5477 0.39404 0.21453 0.0
C2956 C 0.56039 0.39839 0.196 0.0
C2957 C 0.55281 0.39442 0.17488 0.0
C2958 C 0.56978 0.40168 0.15794 0.0
C2959 C 0.57783 0.38199 0.1442 0.0
C2960 C 0.56049 0.42005 0.14314 0.0
C2961 C 0.5879 0.41033 0.17295 0.0
C2962 C 0.58207 0.40803 0.19482 0.0
C2963 C 0.59584 0.41468 0.21191 0.0
C2964 C 0.61618 0.42405 0.20657 0.0
C2965 C 0.62255 0.42689 0.18431 0.0
C2966 C 0.6082 0.41988 0.16727 0.0
H2967 H 0.62084 0.52621 0.21356 0.0
H2968 H 0.63643 0.50968 0.14574 0.0
H2969 H 0.61837 0.54401 0.13328 0.0
H2970 H 0.56779 0.55095 0.20354 0.0
H2971 H 0.57149 0.57241 0.22374 0.0
H2972 H 0.58503 0.54623 0.2273 0.0
H2973 H 0.62279 0.56599 0.2301 0.0
H2974 H 0.60937 0.59223 0.22657 0.0
H2975 H 0.63135 0.58423 0.20827 0.0
H2976 H 0.59776 0.57945 0.12817 0.0
H2977 H 0.57829 0.61507 0.1308 0.0
H2978 H 0.57806 0.60974 0.20213 0.0
C2979 C 0.62033 0.52975 0.19607 0.0
C2980 C 0.62989 0.51521 0.18058 0.0
C2981 C 0.62922 0.52059 0.15788 0.0
C2982 C 0.61895 0.54 0.15065 0.0
C2983 C 0.60969 0.55397 0.16636 0.0
C2984 C 0.61047 0.54921 0.18861 0.0
C2985 C 0.59995 0.56739 0.20213 0.0
C2986 C 0.57987 0.55872 0.21493 0.0
C2987 C 0.61688 0.57809 0.21769 0.0
C2988 C 0.59305 0.58308 0.18399 0.0
C2989 C 0.59863 0.57489 0.16347 0.0
C2990 C 0.59344 0.5861 0.14414 0.0
C2991 C 0.58234 0.60628 0.14581 0.0
C2992 C 0.57682 0.61517 0.16667 0.0
C2993 C 0.58229 0.60341 0.18599 0.0
H2994 H 0.48246 0.62742 0.15975 0.0
H2995 H 0.49451 0.61995 0.22999 0.0
H2996 H 0.45808 0.60333 0.23466 0.0
H2997 H 0.42367 0.63996 0.16411 0.0
H2998 H 0.41603 0.62419 0.14012 0.0
H2999 H 0.44302 0.63645 0.14185 0.0
H3000 H 0.46087 0.59823 0.13539 0.0
H3001 H 0.43394 0.58584 0.13371 0.0
H3002 H 0.45381 0.57561 0.15331 0.0
H3003 H 0.42136 0.58745 0.23262 0.0
H3004 H 0.38506 0.5721 0.22362 0.0
H3005 H 0.39527 0.58797 0.15453 0.0
C3006 C 0.47728 0.62239 0.17607 0.0
C3007 C 0.49144 0.62489 0.19448 0.0
C3008 C 0.48414 0.61798 0.21558 0.0
C3009 C 0.46339 0.60859 0.21847 0.0
C3010 C 0.44999 0.60603 0.20012 0.0
C3011 C 0.45648 0.6126 0.17929 0.0
C3012 C 0.4387 0.60714 0.16245 0.0
C3013 C 0.42983 0.62819 0.15149 0.0
C3014 C 0.44735 0.59073 0.1452 0.0
C3015 C 0.4214 0.59656 0.1772 0.0
C3016 C 0.4284 0.59627 0.19885 0.0
C3017 C 0.41562 0.58753 0.21573 0.0
C3018 C 0.395 0.57881 0.21042 0.0
C3019 C 0.38733 0.57875 0.18838 0.0
C3020 C 0.40075 0.58773 0.17152 0.0
H3021 H 0.42857 0.39691 0.19651 0.0
H3022 H 0.43175 0.3947 0.12513 0.0
H3023 H 0.41095 0.42969 0.12304 0.0
H3024 H 0.37415 0.42002 0.20118 0.0
H3025 H 0.38116 0.43735 0.22426 0.0
H3026 H 0.39565 0.4118 0.22 0.0
H3027 H 0.43289 0.43274 0.21981 0.0
H3028 H 0.41852 0.45833 0.22417 0.0
H3029 H 0.43678 0.45535 0.20094 0.0
H3030 H 0.38878 0.46492 0.12898 0.0
H3031 H 0.37024 0.49874 0.14267 0.0
H3032 H 0.38356 0.47823 0.2099 0.0
C3033 C 0.42481 0.40376 0.18045 0.0
C3034 C 0.43163 0.39306 0.16099 0.0
C3035 C 0.42667 0.40267 0.14027 0.0
C3036 C 0.41478 0.42248 0.13891 0.0
C3037 C 0.4082 0.43262 0.15842 0.0
C3038 C 0.41327 0.42368 0.1788 0.0
C3039 C 0.40513 0.43824 0.19731 0.0
C3040 C 0.388 0.42613 0.21152 0.0
C3041 C 0.42448 0.44666 0.21138 0.0
C3042 C 0.39465 0.4567 0.18419 0.0
C3043 C 0.39632 0.45312 0.16179 0.0
C3044 C 0.38747 0.46794 0.14651 0.0
C3045 C 0.37691 0.48704 0.15439 0.0
C3046 C 0.37563 0.49122 0.1773 0.0
C3047 C 0.3845 0.47568 0.19226 0.0
H3048 H 0.81463 0.52928 0.61405 0.0
H3049 H 0.88094 0.52364 0.64048 0.0
H3050 H 0.8905 0.55952 0.62374 0.0
H3051 H 0.82889 0.55475 0.56264 0.0
H3052 H 0.80531 0.57282 0.56233 0.0
H3053 H 0.80371 0.54659 0.57612 0.0
H3054 H 0.79195 0.56614 0.61221 0.0
H3055 H 0.79348 0.59244 0.59853 0.0
H3056 H 0.80907 0.5877 0.62339 0.0
H3057 H 0.89323 0.59503 0.60309 0.0
H3058 H 0.88848 0.62938 0.58197 0.0
H3059 H 0.81974 0.61316 0.57052 0.0
C3060 C 0.8312 0.53554 0.61626 0.0
C3061 C 0.84712 0.5236 0.62846 0.0
C3062 C 0.8685 0.53252 0.63123 0.0
C3063 C 0.87409 0.55283 0.62174 0.0
C3064 C 0.85802 0.56412 0.60978 0.0
C3065 C 0.83695 0.55593 0.60718 0.0
C3066 C 0.82263 0.57163 0.59399 0.0
C3067 C 0.81467 0.5608 0.5725 0.0
C3068 C 0.80313 0.57997 0.60786 0.0
C3069 C 0.839 0.5899 0.58943 0.0
C3070 C 0.85936 0.58509 0.59854 0.0
C3071 C 0.87735 0.59905 0.59602 0.0
C3072 C 0.87448 0.61849 0.58394 0.0
C3073 C 0.85371 0.62396 0.57473 0.0
C3074 C 0.83573 0.60948 0.57758 0.0
H3075 H 0.81767 0.47482 0.39394 0.0
H3076 H 0.88471 0.48356 0.37055 0.0
H3077 H 0.89531 0.44829 0.38804 0.0
H3078 H 0.83067 0.45058 0.44609 0.0
H3079 H 0.8081 0.43129 0.44548 0.0
H3080 H 0.80578 0.45725 0.43127 0.0
H3081 H 0.79686 0.43673 0.39488 0.0
H3082 H 0.79908 0.41071 0.409 0.0
H3083 H 0.81561 0.41596 0.38489 0.0
H3084 H 0.89893 0.41317 0.40947 0.0
H3085 H 0.8949 0.37884 0.43079 0.0
H3086 H 0.82495 0.3917 0.43851 0.0
C3087 C 0.83461 0.46934 0.39252 0.0
C3088 C 0.85044 0.482 0.38101 0.0
C3089 C 0.87233 0.47412 0.37926 0.0
C3090 C 0.8785 0.45416 0.38919 0.0
C3091 C 0.86251 0.44217 0.40053 0.0
C3092 C 0.84095 0.44932 0.40202 0.0
C3093 C 0.82685 0.43304 0.4147 0.0
C3094 C 0.81729 0.44368 0.43563 0.0
C3095 C 0.80852 0.42355 0.39998 0.0
C3096 C 0.84391 0.4157 0.42032 0.0
C3097 C 0.8644 0.42142 0.41214 0.0
C3098 C 0.88295 0.40843 0.41579 0.0
C3099 C 0.88049 0.389 0.428 0.0
C3100 C 0.85959 0.38258 0.43619 0.0
C3101 C 0.84107 0.39612 0.43226 0.0
H3102 H 0.52731 0.80492 0.39352 0.0
H3103 H 0.5165 0.87094 0.36815 0.0
H3104 H 0.55257 0.88246 0.38361 0.0
H3105 H 0.55313 0.81991 0.44398 0.0
H3106 H 0.5725 0.79738 0.44348 0.0
H3107 H 0.54603 0.79449 0.43034 0.0
H3108 H 0.56518 0.78437 0.39353 0.0
H3109 H 0.59172 0.78713 0.40657 0.0
H3110 H 0.58548 0.80279 0.38209 0.0
H3111 H 0.58906 0.88683 0.40342 0.0
H3112 H 0.62434 0.88336 0.4234 0.0
H3113 H 0.61156 0.81386 0.4343 0.0
C3114 C 0.53244 0.82185 0.39121 0.0
C3115 C 0.51901 0.83713 0.3798 0.0
C3116 C 0.52654 0.85899 0.37684 0.0
C3117 C 0.54693 0.86567 0.38562 0.0
C3118 C 0.55961 0.85017 0.39701 0.0
C3119 C 0.55273 0.82866 0.39958 0.0
C3120 C 0.56949 0.81503 0.41211 0.0
C3121 C 0.5597 0.80619 0.43376 0.0
C3122 C 0.5785 0.79622 0.39771 0.0
C3123 C 0.58691 0.83229 0.41644 0.0
C3124 C 0.58084 0.85248 0.40773 0.0
C3125 C 0.59403 0.87107 0.41015 0.0
C3126 C 0.614 0.86893 0.42159 0.0
C3127 C 0.6207 0.84829 0.4303 0.0
C3128 C 0.60692 0.82978 0.42768 0.0
H3129 H 0.17908 0.61056 0.43346 0.0
H3130 H 0.10837 0.62035 0.4292 0.0
H3131 H 0.10471 0.58546 0.40858 0.0
H3132 H 0.18683 0.58606 0.38008 0.0
H3133 H 0.20698 0.56632 0.38944 0.0
H3134 H 0.20415 0.59237 0.4034 0.0
H3135 H 0.19778 0.57204 0.44042 0.0
H3136 H 0.20071 0.54595 0.42659 0.0
H3137 H 0.17621 0.55172 0.44236 0.0
H3138 H 0.10896 0.55006 0.38698 0.0
H3139 H 0.12045 0.51494 0.36957 0.0
H3140 H 0.18787 0.52711 0.39012 0.0
C3141 C 0.16285 0.60534 0.42816 0.0
C3142 C 0.14402 0.6182 0.43281 0.0
C3143 C 0.12302 0.61072 0.42584 0.0
C3144 C 0.12078 0.59097 0.41402 0.0
C3145 C 0.13966 0.57871 0.40957 0.0
C3146 C 0.16026 0.58543 0.41669 0.0
C3147 C 0.17778 0.56875 0.4105 0.0
C3148 C 0.19494 0.57899 0.39493 0.0
C3149 C 0.18876 0.55904 0.4312 0.0
C3150 C 0.16384 0.5517 0.3987 0.0
C3151 C 0.14193 0.55786 0.39807 0.0
C3152 C 0.12605 0.54497 0.38752 0.0
C3153 C 0.13271 0.52512 0.3776 0.0
C3154 C 0.15498 0.51821 0.37865 0.0
C3155 C 0.17067 0.53181 0.38927 0.0
H3156 H 0.47114 0.20052 0.39133 0.0
H3157 H 0.48126 0.13457 0.3655 0.0
H3158 H 0.44553 0.12304 0.38124 0.0
H3159 H 0.4449 0.18502 0.44207 0.0
H3160 H 0.42551 0.20752 0.44165 0.0
H3161 H 0.45203 0.21056 0.42868 0.0
H3162 H 0.43296 0.22104 0.39191 0.0
H3163 H 0.40638 0.21805 0.40476 0.0
H3164 H 0.41277 0.20268 0.38017 0.0
H3165 H 0.40959 0.11833 0.40086 0.0
H3166 H 0.37437 0.12121 0.42087 0.0
H3167 H 0.38632 0.19078 0.43227 0.0
C3168 C 0.46589 0.18362 0.38906 0.0
C3169 C 0.47906 0.16838 0.3773 0.0
C3170 C 0.47144 0.14652 0.37442 0.0
C3171 C 0.45121 0.13981 0.38335 0.0
C3172 C 0.43867 0.15523 0.39487 0.0
C3173 C 0.44558 0.17674 0.39756 0.0
C3174 C 0.42867 0.19017 0.41015 0.0
C3175 C 0.43836 0.19882 0.43193 0.0
C3176 C 0.41966 0.2091 0.39589 0.0
C3177 C 0.41122 0.17281 0.41425 0.0
C3178 C 0.41745 0.15274 0.40544 0.0
C3179 C 0.40446 0.13399 0.40767 0.0
C3180 C 0.38451 0.13579 0.41912 0.0
C3181 C 0.37758 0.15625 0.42799 0.0
C3182 C 0.39111 0.17501 0.42545 0.0
H3183 H 0.20098 0.47575 0.6138 0.0
H3184 H 0.13433 0.48994 0.63566 0.0
H3185 H 0.12156 0.45501 0.61919 0.0
H3186 H 0.18665 0.44984 0.56202 0.0
H3187 H 0.20796 0.42922 0.56396 0.0
H3188 H 0.2118 0.45574 0.57673 0.0
H3189 H 0.21918 0.43671 0.61425 0.0
H3190 H 0.21534 0.41013 0.60161 0.0
H3191 H 0.19905 0.41782 0.62522 0.0
H3192 H 0.11591 0.41898 0.60015 0.0
H3193 H 0.1179 0.38305 0.58137 0.0
H3194 H 0.18853 0.39105 0.57322 0.0
C3195 C 0.18366 0.4716 0.61496 0.0
C3196 C 0.1686 0.48566 0.62592 0.0
C3197 C 0.14615 0.47945 0.62738 0.0
C3198 C 0.13874 0.45967 0.61802 0.0
C3199 C 0.15401 0.44617 0.60744 0.0
C3200 C 0.17602 0.45176 0.60598 0.0
C3201 C 0.18913 0.43389 0.59438 0.0
C3202 C 0.19949 0.4427 0.573 0.0
C3203 C 0.20671 0.42406 0.60979 0.0
C3204 C 0.17101 0.41739 0.58953 0.0
C3205 C 0.15087 0.42494 0.59706 0.0
C3206 C 0.13159 0.41286 0.59426 0.0
C3207 C 0.1329 0.39248 0.58353 0.0
C3208 C 0.15338 0.38422 0.57592 0.0
C3209 C 0.17268 0.39688 0.579 0.0
H3210 H 0.60758 0.14509 0.58054 0.0
H3211 H 0.62369 0.21432 0.57194 0.0
H3212 H 0.58879 0.22472 0.58949 0.0
H3213 H 0.54943 0.15019 0.56993 0.0
H3214 H 0.54117 0.13057 0.59064 0.0
H3215 H 0.56773 0.12807 0.57762 0.0
H3216 H 0.58666 0.12883 0.61588 0.0
H3217 H 0.56015 0.13136 0.62902 0.0
H3218 H 0.58135 0.15147 0.63435 0.0
H3219 H 0.55239 0.22819 0.60616 0.0
H3220 H 0.51556 0.22474 0.62248 0.0
H3221 H 0.5219 0.15345 0.62248 0.0
C3222 C 0.60372 0.16241 0.58242 0.0
C3223 C 0.61837 0.1789 0.57478 0.0
C3224 C 0.61278 0.20138 0.57758 0.0
C3225 C 0.59298 0.20749 0.58757 0.0
C3226 C 0.57892 0.19095 0.59488 0.0
C3227 C 0.58394 0.16888 0.5926 0.0
C3228 C 0.56556 0.15462 0.60198 0.0
C3229 C 0.55537 0.14 0.58397 0.0
C3230 C 0.57393 0.14075 0.62147 0.0
C3231 C 0.54943 0.17222 0.60962 0.0
C3232 C 0.55764 0.19301 0.60523 0.0
C3233 C 0.54578 0.21204 0.60982 0.0
C3234 C 0.52483 0.20987 0.61901 0.0
C3235 C 0.51586 0.18884 0.62372 0.0
C3236 C 0.52846 0.16972 0.61923 0.0
H3237 H 0.47634 0.85867 0.62169 0.0
H3238 H 0.48093 0.78867 0.63556 0.0
H3239 H 0.44317 0.78327 0.62186 0.0
H3240 H 0.41704 0.86479 0.63513 0.0
H3241 H 0.41189 0.88368 0.61278 0.0
H3242 H 0.43869 0.88275 0.62559 0.0
H3243 H 0.4566 0.87564 0.58752 0.0
H3244 H 0.42986 0.87641 0.57462 0.0
H3245 H 0.44735 0.85266 0.57111 0.0
H3246 H 0.40652 0.78443 0.60484 0.0
H3247 H 0.37183 0.79229 0.58533 0.0
H3248 H 0.38979 0.86144 0.5812 0.0
C3249 C 0.46913 0.84236 0.62218 0.0
C3250 C 0.48146 0.82406 0.62972 0.0
C3251 C 0.47174 0.80285 0.62976 0.0
C3252 C 0.45029 0.79962 0.62209 0.0
C3253 C 0.43869 0.81775 0.61428 0.0
C3254 C 0.44761 0.83873 0.61423 0.0
C3255 C 0.43174 0.85498 0.60362 0.0
C3256 C 0.4244 0.87259 0.62028 0.0
C3257 C 0.44201 0.86554 0.583 0.0
C3258 C 0.41279 0.83973 0.59756 0.0
C3259 C 0.41722 0.81838 0.60404 0.0
C3260 C 0.40272 0.80111 0.59982 0.0
C3261 C 0.38307 0.80574 0.58866 0.0
C3262 C 0.37806 0.82745 0.58178 0.0
C3263 C 0.39313 0.84469 0.58637 0.0
loop_
_geom_bond_atom_site_label_1
_geom_bond_atom_site_label_2
_geom_bond_distance
_geom_bond_site_symmetry_2
_ccdc_geom_bond_type
Co0 O1 2.216 . S
Co0 O2 2.091 . S
Co0 O4 2.004 . S
Co0 O10 2.021 . S
Co0 O12 2.137 . S
Co0 O13 2.244 . S
O1 Co0 2.216 . S
O1 C8 1.247 . S
O2 Co0 2.091 . S
O2 C8 1.261 . S
C3 O12 1.247 . S
C3 O13 1.272 . S
O4 Co0 2.004 . S
O4 C9 1.259 1_455 S
Co5 O6 2.061 1_455 S
Co5 O11 2.052 . S
Co5 O13 2.135 . S
O6 Co5 2.061 1_655 S
O6 C9 1.235 . S
C7 O10 1.238 . S
C7 O11 1.241 . S
C8 O1 1.247 . S
C8 O2 1.261 . S
C9 O4 1.259 1_655 S
C9 O6 1.235 . S
O10 Co0 2.021 . S
O10 C7 1.238 . S
O11 Co5 2.052 . S
O11 C7 1.241 . S
O12 Co0 2.137 . S
O12 C3 1.247 . S
O13 Co0 2.244 . S
O13 C3 1.272 . S
O13 Co5 2.135 . S
Co14 O15 2.216 . S
Co14 O16 2.091 . S
Co14 O18 2.004 . S
Co14 O24 2.021 . S
Co14 O26 2.137 . S
Co14 O27 2.244 . S
O15 Co14 2.216 . S
O15 C22 1.247 . S
O16 Co14 2.091 . S
O16 C22 1.261 . S
C17 O26 1.247 . S
C17 O27 1.272 . S
O18 Co14 2.004 . S
O18 C23 1.259 1_545 S
Co19 O20 2.061 1_545 S
Co19 O25 2.052 . S
Co19 O27 2.135 . S
O20 Co19 2.061 1_565 S
O20 C23 1.235 . S
C21 O24 1.238 . S
C21 O25 1.241 . S
C22 O15 1.247 . S
C22 O16 1.261 . S
C23 O18 1.259 1_565 S
C23 O20 1.235 . S
O24 Co14 2.021 . S
O24 C21 1.238 . S
O25 Co19 2.052 . S
O25 C21 1.241 . S
O26 Co14 2.137 . S
O26 C17 1.247 . S
O27 Co14 2.244 . S
O27 C17 1.272 . S
O27 Co19 2.135 . S
Co28 O29 2.216 . S
Co28 O30 2.091 . S
Co28 O32 2.004 . S
Co28 O38 2.021 . S
Co28 O40 2.137 . S
Co28 O41 2.244 . S
O29 Co28 2.216 . S
O29 C36 1.247 . S
O30 Co28 2.091 . S
O30 C36 1.261 . S
C31 O40 1.247 . S
C31 O41 1.272 . S
O32 Co28 2.004 . S
O32 C37 1.259 1_655 S
Co33 O34 2.061 1_655 S
Co33 O39 2.052 . S
Co33 O41 2.135 . S
O34 Co33 2.061 1_455 S
O34 C37 1.235 . S
C35 O38 1.238 . S
C35 O39 1.241 . S
C36 O29 1.247 . S
C36 O30 1.261 . S
C37 O32 1.259 1_455 S
C37 O34 1.235 . S
O38 Co28 2.021 . S
O38 C35 1.238 . S
O39 Co33 2.052 . S
O39 C35 1.241 . S
O40 Co28 2.137 . S
O40 C31 1.247 . S
O41 Co28 2.244 . S
O41 C31 1.272 . S
O41 Co33 2.135 . S
Co42 O43 2.216 . S
Co42 O44 2.091 . S
Co42 O46 2.004 . S
Co42 O52 2.021 . S
Co42 O54 2.137 . S
Co42 O55 2.244 . S
O43 Co42 2.216 . S
O43 C50 1.247 . S
O44 Co42 2.091 . S
O44 C50 1.261 . S
C45 O54 1.247 . S
C45 O55 1.272 . S
O46 Co42 2.004 . S
O46 C51 1.259 1_565 S
Co47 O48 2.061 1_565 S
Co47 O53 2.052 . S
Co47 O55 2.135 . S
O48 Co47 2.061 1_545 S
O48 C51 1.235 . S
C49 O52 1.238 . S
C49 O53 1.241 . S
C50 O43 1.247 . S
C50 O44 1.261 . S
C51 O46 1.259 1_545 S
C51 O48 1.235 . S
O52 Co42 2.021 . S
O52 C49 1.238 . S
O53 Co47 2.052 . S
O53 C49 1.241 . S
O54 Co42 2.137 . S
O54 C45 1.247 . S
O55 Co42 2.244 . S
O55 C45 1.272 . S
O55 Co47 2.135 . S
Co56 O57 2.216 . S
Co56 O58 2.091 . S
Co56 O60 2.004 . S
Co56 O66 2.021 . S
Co56 O68 2.137 . S
Co56 O69 2.244 . S
O57 Co56 2.216 . S
O57 C64 1.247 . S
O58 Co56 2.091 . S
O58 C64 1.261 . S
C59 O68 1.247 . S
C59 O69 1.272 . S
O60 Co56 2.004 . S
O60 C65 1.259 1_455 S
Co61 O62 2.061 1_455 S
Co61 O67 2.052 . S
Co61 O69 2.135 . S
O62 Co61 2.061 1_655 S
O62 C65 1.235 . S
C63 O66 1.238 . S
C63 O67 1.241 . S
C64 O57 1.247 . S
C64 O58 1.261 . S
C65 O60 1.259 1_655 S
C65 O62 1.235 . S
O66 Co56 2.021 . S
O66 C63 1.238 . S
O67 Co61 2.052 . S
O67 C63 1.241 . S
O68 Co56 2.137 . S
O68 C59 1.247 . S
O69 Co56 2.244 . S
O69 C59 1.272 . S
O69 Co61 2.135 . S
Co70 O71 2.216 . S
Co70 O72 2.091 . S
Co70 O74 2.004 . S
Co70 O80 2.021 . S
Co70 O82 2.137 . S
Co70 O83 2.244 . S
O71 Co70 2.216 . S
O71 C78 1.247 . S
O72 Co70 2.091 . S
O72 C78 1.261 . S
C73 O82 1.247 . S
C73 O83 1.272 . S
O74 Co70 2.004 . S
O74 C79 1.259 1_545 S
Co75 O76 2.061 1_545 S
Co75 O81 2.052 . S
Co75 O83 2.135 . S
O76 Co75 2.061 1_565 S
O76 C79 1.235 . S
C77 O80 1.238 . S
C77 O81 1.241 . S
C78 O71 1.247 . S
C78 O72 1.261 . S
C79 O74 1.259 1_565 S
C79 O76 1.235 . S
O80 Co70 2.021 . S
O80 C77 1.238 . S
O81 Co75 2.052 . S
O81 C77 1.241 . S
O82 Co70 2.137 . S
O82 C73 1.247 . S
O83 Co70 2.244 . S
O83 C73 1.272 . S
O83 Co75 2.135 . S
Co84 O85 2.216 . S
Co84 O86 2.091 . S
Co84 O88 2.004 . S
Co84 O94 2.021 . S
Co84 O96 2.137 . S
Co84 O97 2.244 . S
O85 Co84 2.216 . S
O85 C92 1.247 . S
O86 Co84 2.091 . S
O86 C92 1.261 . S
C87 O96 1.247 . S
C87 O97 1.272 . S
O88 Co84 2.004 . S
O88 C93 1.259 1_655 S
Co89 O90 2.061 1_655 S
Co89 O95 2.052 . S
Co89 O97 2.135 . S
O90 Co89 2.061 1_455 S
O90 C93 1.235 . S
C91 O94 1.238 . S
C91 O95 1.241 . S
C92 O85 1.247 . S
C92 O86 1.261 . S
C93 O88 1.259 1_455 S
C93 O90 1.235 . S
O94 Co84 2.021 . S
O94 C91 1.238 . S
O95 Co89 2.052 . S
O95 C91 1.241 . S
O96 Co84 2.137 . S
O96 C87 1.247 . S
O97 Co84 2.244 . S
O97 C87 1.272 . S
O97 Co89 2.135 . S
Co98 O99 2.216 . S
Co98 O100 2.091 . S
Co98 O102 2.004 . S
Co98 O108 2.021 . S
Co98 O110 2.137 . S
Co98 O111 2.244 . S
O99 Co98 2.216 . S
O99 C106 1.247 . S
O100 Co98 2.091 . S
O100 C106 1.261 . S
C101 O110 1.247 . S
C101 O111 1.272 . S
O102 Co98 2.004 . S
O102 C107 1.259 1_565 S
Co103 O104 2.061 1_565 S
Co103 O109 2.052 . S
Co103 O111 2.135 . S
O104 Co103 2.061 1_545 S
O104 C107 1.235 . S
C105 O108 1.238 . S
C105 O109 1.241 . S
C106 O99 1.247 . S
C106 O100 1.261 . S
C107 O102 1.259 1_545 S
C107 O104 1.235 . S
O108 Co98 2.021 . S
O108 C105 1.238 . S
O109 Co103 2.052 . S
O109 C105 1.241 . S
O110 Co98 2.137 . S
O110 C101 1.247 . S
O111 Co98 2.244 . S
O111 C101 1.272 . S
O111 Co103 2.135 . S
Co112 O113 2.216 . S
Co112 O114 2.091 . S
Co112 O116 2.004 . S
Co112 O122 2.021 . S
Co112 O124 2.137 . S
Co112 O125 2.244 . S
O113 Co112 2.216 . S
O113 C120 1.247 . S
O114 Co112 2.091 . S
O114 C120 1.261 . S
C115 O124 1.247 . S
C115 O125 1.272 . S
O116 Co112 2.004 . S
O116 C121 1.259 1_545 S
Co117 O118 2.061 1_545 S
Co117 O123 2.052 . S
Co117 O125 2.135 . S
O118 Co117 2.061 1_565 S
O118 C121 1.235 . S
C119 O122 1.238 . S
C119 O123 1.241 . S
C120 O113 1.247 . S
C120 O114 1.261 . S
C121 O116 1.259 1_565 S
C121 O118 1.235 . S
O122 Co112 2.021 . S
O122 C119 1.238 . S
O123 Co117 2.052 . S
O123 C119 1.241 . S
O124 Co112 2.137 . S
O124 C115 1.247 . S
O125 Co112 2.244 . S
O125 C115 1.272 . S
O125 Co117 2.135 . S
Co126 O127 2.216 . S
Co126 O128 2.091 . S
Co126 O130 2.004 . S
Co126 O136 2.021 . S
Co126 O138 2.137 . S
Co126 O139 2.244 . S
O127 Co126 2.216 . S
O127 C134 1.247 . S
O128 Co126 2.091 . S
O128 C134 1.261 . S
C129 O138 1.247 . S
C129 O139 1.272 . S
O130 Co126 2.004 . S
O130 C135 1.259 1_655 S
Co131 O132 2.061 1_655 S
Co131 O137 2.052 . S
Co131 O139 2.135 . S
O132 Co131 2.061 1_455 S
O132 C135 1.235 . S
C133 O136 1.238 . S
C133 O137 1.241 . S
C134 O127 1.247 . S
C134 O128 1.261 . S
C135 O130 1.259 1_455 S
C135 O132 1.235 . S
O136 Co126 2.021 . S
O136 C133 1.238 . S
O137 Co131 2.052 . S
O137 C133 1.241 . S
O138 Co126 2.137 . S
O138 C129 1.247 . S
O139 Co126 2.244 . S
O139 C129 1.272 . S
O139 Co131 2.135 . S
Co140 O141 2.216 . S
Co140 O142 2.091 . S
Co140 O144 2.004 . S
Co140 O150 2.021 . S
Co140 O152 2.137 . S
Co140 O153 2.244 . S
O141 Co140 2.216 . S
O141 C148 1.247 . S
O142 Co140 2.091 . S
O142 C148 1.261 . S
C143 O152 1.247 . S
C143 O153 1.272 . S
O144 Co140 2.004 . S
O144 C149 1.259 1_565 S
Co145 O146 2.061 1_565 S
Co145 O151 2.052 . S
Co145 O153 2.135 . S
O146 Co145 2.061 1_545 S
O146 C149 1.235 . S
C147 O150 1.238 . S
C147 O151 1.241 . S
C148 O141 1.247 . S
C148 O142 1.261 . S
C149 O144 1.259 1_545 S
C149 O146 1.235 . S
O150 Co140 2.021 . S
O150 C147 1.238 . S
O151 Co145 2.052 . S
O151 C147 1.241 . S
O152 Co140 2.137 . S
O152 C143 1.247 . S
O153 Co140 2.244 . S
O153 C143 1.272 . S
O153 Co145 2.135 . S
Co154 O155 2.216 . S
Co154 O156 2.091 . S
Co154 O158 2.004 . S
Co154 O164 2.021 . S
Co154 O166 2.137 . S
Co154 O167 2.244 . S
O155 Co154 2.216 . S
O155 C162 1.247 . S
O156 Co154 2.091 . S
O156 C162 1.261 . S
C157 O166 1.247 . S
C157 O167 1.272 . S
O158 Co154 2.004 . S
O158 C163 1.259 1_455 S
Co159 O160 2.061 1_455 S
Co159 O165 2.052 . S
Co159 O167 2.135 . S
O160 Co159 2.061 1_655 S
O160 C163 1.235 . S
C161 O164 1.238 . S
C161 O165 1.241 . S
C162 O155 1.247 . S
C162 O156 1.261 . S
C163 O158 1.259 1_655 S
C163 O160 1.235 . S
O164 Co154 2.021 . S
O164 C161 1.238 . S
O165 Co159 2.052 . S
O165 C161 1.241 . S
O166 Co154 2.137 . S
O166 C157 1.247 . S
O167 Co154 2.244 . S
O167 C157 1.272 . S
O167 Co159 2.135 . S
Co168 O169 2.216 . S
Co168 O170 2.091 . S
Co168 O172 2.004 . S
Co168 O178 2.021 . S
Co168 O180 2.137 . S
Co168 O181 2.244 . S
O169 Co168 2.216 . S
O169 C176 1.247 . S
O170 Co168 2.091 . S
O170 C176 1.261 . S
C171 O180 1.247 . S
C171 O181 1.272 . S
O172 Co168 2.004 . S
O172 C177 1.259 1_565 S
Co173 O174 2.061 1_565 S
Co173 O179 2.052 . S
Co173 O181 2.135 . S
O174 Co173 2.061 1_545 S
O174 C177 1.235 . S
C175 O178 1.238 . S
C175 O179 1.241 . S
C176 O169 1.247 . S
C176 O170 1.261 . S
C177 O172 1.259 1_545 S
C177 O174 1.235 . S
O178 Co168 2.021 . S
O178 C175 1.238 . S
O179 Co173 2.052 . S
O179 C175 1.241 . S
O180 Co168 2.137 . S
O180 C171 1.247 . S
O181 Co168 2.244 . S
O181 C171 1.272 . S
O181 Co173 2.135 . S
Co182 O183 2.216 . S
Co182 O184 2.091 . S
Co182 O186 2.004 . S
Co182 O192 2.021 . S
Co182 O194 2.137 . S
Co182 O195 2.244 . S
O183 Co182 2.216 . S
O183 C190 1.247 . S
O184 Co182 2.091 . S
O184 C190 1.261 . S
C185 O194 1.247 . S
C185 O195 1.272 . S
O186 Co182 2.004 . S
O186 C191 1.259 1_455 S
Co187 O188 2.061 1_455 S
Co187 O193 2.052 . S
Co187 O195 2.135 . S
O188 Co187 2.061 1_655 S
O188 C191 1.235 . S
C189 O192 1.238 . S
C189 O193 1.241 . S
C190 O183 1.247 . S
C190 O184 1.261 . S
C191 O186 1.259 1_655 S
C191 O188 1.235 . S
O192 Co182 2.021 . S
O192 C189 1.238 . S
O193 Co187 2.052 . S
O193 C189 1.241 . S
O194 Co182 2.137 . S
O194 C185 1.247 . S
O195 Co182 2.244 . S
O195 C185 1.272 . S
O195 Co187 2.135 . S
Co196 O197 2.216 . S
Co196 O198 2.091 . S
Co196 O200 2.004 . S
Co196 O206 2.021 . S
Co196 O208 2.137 . S
Co196 O209 2.244 . S
O197 Co196 2.216 . S
O197 C204 1.247 . S
O198 Co196 2.091 . S
O198 C204 1.261 . S
C199 O208 1.247 . S
C199 O209 1.272 . S
O200 Co196 2.004 . S
O200 C205 1.259 1_545 S
Co201 O202 2.061 1_545 S
Co201 O207 2.052 . S
Co201 O209 2.135 . S
O202 Co201 2.061 1_565 S
O202 C205 1.235 . S
C203 O206 1.238 . S
C203 O207 1.241 . S
C204 O197 1.247 . S
C204 O198 1.261 . S
C205 O200 1.259 1_565 S
C205 O202 1.235 . S
O206 Co196 2.021 . S
O206 C203 1.238 . S
O207 Co201 2.052 . S
O207 C203 1.241 . S
O208 Co196 2.137 . S
O208 C199 1.247 . S
O209 Co196 2.244 . S
O209 C199 1.272 . S
O209 Co201 2.135 . S
Co210 O211 2.216 . S
Co210 O212 2.091 . S
Co210 O214 2.004 . S
Co210 O220 2.021 . S
Co210 O222 2.137 . S
Co210 O223 2.244 . S
O211 Co210 2.216 . S
O211 C218 1.247 . S
O212 Co210 2.091 . S
O212 C218 1.261 . S
C213 O222 1.247 . S
C213 O223 1.272 . S
O214 Co210 2.004 . S
O214 C219 1.259 1_655 S
Co215 O216 2.061 1_655 S
Co215 O221 2.052 . S
Co215 O223 2.135 . S
O216 Co215 2.061 1_455 S
O216 C219 1.235 . S
C217 O220 1.238 . S
C217 O221 1.241 . S
C218 O211 1.247 . S
C218 O212 1.261 . S
C219 O214 1.259 1_455 S
C219 O216 1.235 . S
O220 Co210 2.021 . S
O220 C217 1.238 . S
O221 Co215 2.052 . S
O221 C217 1.241 . S
O222 Co210 2.137 . S
O222 C213 1.247 . S
O223 Co210 2.244 . S
O223 C213 1.272 . S
O223 Co215 2.135 . S
Co224 O225 2.216 . S
Co224 O226 2.091 . S
Co224 O228 2.004 . S
Co224 O234 2.021 . S
Co224 O236 2.137 . S
Co224 O237 2.244 . S
O225 Co224 2.216 . S
O225 C232 1.247 . S
O226 Co224 2.091 . S
O226 C232 1.261 . S
C227 O236 1.247 . S
C227 O237 1.272 . S
O228 Co224 2.004 . S
O228 C233 1.259 1_554 S
Co229 O230 2.061 1_554 S
Co229 O235 2.052 . S
Co229 O237 2.135 . S
O230 Co229 2.061 1_556 S
O230 C233 1.235 . S
C231 O234 1.238 . S
C231 O235 1.241 . S
C232 O225 1.247 . S
C232 O226 1.261 . S
C233 O228 1.259 1_556 S
C233 O230 1.235 . S
O234 Co224 2.021 . S
O234 C231 1.238 . S
O235 Co229 2.052 . S
O235 C231 1.241 . S
O236 Co224 2.137 . S
O236 C227 1.247 . S
O237 Co224 2.244 . S
O237 C227 1.272 . S
O237 Co229 2.135 . S
Co238 O239 2.216 . S
Co238 O240 2.091 . S
Co238 O242 2.004 . S
Co238 O248 2.021 . S
Co238 O250 2.137 . S
Co238 O251 2.244 . S
O239 Co238 2.216 . S
O239 C246 1.247 . S
O240 Co238 2.091 . S
O240 C246 1.261 . S
C241 O250 1.247 . S
C241 O251 1.272 . S
O242 Co238 2.004 . S
O242 C247 1.259 1_556 S
Co243 O244 2.061 1_556 S
Co243 O249 2.052 . S
Co243 O251 2.135 . S
O244 Co243 2.061 1_554 S
O244 C247 1.235 . S
C245 O248 1.238 . S
C245 O249 1.241 . S
C246 O239 1.247 . S
C246 O240 1.261 . S
C247 O242 1.259 1_554 S
C247 O244 1.235 . S
O248 Co238 2.021 . S
O248 C245 1.238 . S
O249 Co243 2.052 . S
O249 C245 1.241 . S
O250 Co238 2.137 . S
O250 C241 1.247 . S
O251 Co238 2.244 . S
O251 C241 1.272 . S
O251 Co243 2.135 . S
Co252 O253 2.216 . S
Co252 O254 2.091 . S
Co252 O256 2.004 . S
Co252 O262 2.021 . S
Co252 O264 2.137 . S
Co252 O265 2.244 . S
O253 Co252 2.216 . S
O253 C260 1.247 . S
O254 Co252 2.091 . S
O254 C260 1.261 . S
C255 O264 1.247 . S
C255 O265 1.272 . S
O256 Co252 2.004 . S
O256 C261 1.259 1_556 S
Co257 O258 2.061 1_556 S
Co257 O263 2.052 . S
Co257 O265 2.135 . S
O258 Co257 2.061 1_554 S
O258 C261 1.235 . S
C259 O262 1.238 . S
C259 O263 1.241 . S
C260 O253 1.247 . S
C260 O254 1.261 . S
C261 O256 1.259 1_554 S
C261 O258 1.235 . S
O262 Co252 2.021 . S
O262 C259 1.238 . S
O263 Co257 2.052 . S
O263 C259 1.241 . S
O264 Co252 2.137 . S
O264 C255 1.247 . S
O265 Co252 2.244 . S
O265 C255 1.272 . S
O265 Co257 2.135 . S
Co266 O267 2.216 . S
Co266 O268 2.091 . S
Co266 O270 2.004 . S
Co266 O276 2.021 . S
Co266 O278 2.137 . S
Co266 O279 2.244 . S
O267 Co266 2.216 . S
O267 C274 1.247 . S
O268 Co266 2.091 . S
O268 C274 1.261 . S
C269 O278 1.247 . S
C269 O279 1.272 . S
O270 Co266 2.004 . S
O270 C275 1.259 1_556 S
Co271 O272 2.061 1_556 S
Co271 O277 2.052 . S
Co271 O279 2.135 . S
O272 Co271 2.061 1_554 S
O272 C275 1.235 . S
C273 O276 1.238 . S
C273 O277 1.241 . S
C274 O267 1.247 . S
C274 O268 1.261 . S
C275 O270 1.259 1_554 S
C275 O272 1.235 . S
O276 Co266 2.021 . S
O276 C273 1.238 . S
O277 Co271 2.052 . S
O277 C273 1.241 . S
O278 Co266 2.137 . S
O278 C269 1.247 . S
O279 Co266 2.244 . S
O279 C269 1.272 . S
O279 Co271 2.135 . S
Co280 O281 2.216 . S
Co280 O282 2.091 . S
Co280 O284 2.004 . S
Co280 O290 2.021 . S
Co280 O292 2.137 . S
Co280 O293 2.244 . S
O281 Co280 2.216 . S
O281 C288 1.247 . S
O282 Co280 2.091 . S
O282 C288 1.261 . S
C283 O292 1.247 . S
C283 O293 1.272 . S
O284 Co280 2.004 . S
O284 C289 1.259 1_556 S
Co285 O286 2.061 1_556 S
Co285 O291 2.052 . S
Co285 O293 2.135 . S
O286 Co285 2.061 1_554 S
O286 C289 1.235 . S
C287 O290 1.238 . S
C287 O291 1.241 . S
C288 O281 1.247 . S
C288 O282 1.261 . S
C289 O284 1.259 1_554 S
C289 O286 1.235 . S
O290 Co280 2.021 . S
O290 C287 1.238 . S
O291 Co285 2.052 . S
O291 C287 1.241 . S
O292 Co280 2.137 . S
O292 C283 1.247 . S
O293 Co280 2.244 . S
O293 C283 1.272 . S
O293 Co285 2.135 . S
Co294 O295 2.216 . S
Co294 O296 2.091 . S
Co294 O298 2.004 . S
Co294 O304 2.021 . S
Co294 O306 2.137 . S
Co294 O307 2.244 . S
O295 Co294 2.216 . S
O295 C302 1.247 . S
O296 Co294 2.091 . S
O296 C302 1.261 . S
C297 O306 1.247 . S
C297 O307 1.272 . S
O298 Co294 2.004 . S
O298 C303 1.259 1_554 S
Co299 O300 2.061 1_554 S
Co299 O305 2.052 . S
Co299 O307 2.135 . S
O300 Co299 2.061 1_556 S
O300 C303 1.235 . S
C301 O304 1.238 . S
C301 O305 1.241 . S
C302 O295 1.247 . S
C302 O296 1.261 . S
C303 O298 1.259 1_556 S
C303 O300 1.235 . S
O304 Co294 2.021 . S
O304 C301 1.238 . S
O305 Co299 2.052 . S
O305 C301 1.241 . S
O306 Co294 2.137 . S
O306 C297 1.247 . S
O307 Co294 2.244 . S
O307 C297 1.272 . S
O307 Co299 2.135 . S
Co308 O309 2.216 . S
Co308 O310 2.091 . S
Co308 O312 2.004 . S
Co308 O318 2.021 . S
Co308 O320 2.137 . S
Co308 O321 2.244 . S
O309 Co308 2.216 . S
O309 C316 1.247 . S
O310 Co308 2.091 . S
O310 C316 1.261 . S
C311 O320 1.247 . S
C311 O321 1.272 . S
O312 Co308 2.004 . S
O312 C317 1.259 1_554 S
Co313 O314 2.061 1_554 S
Co313 O319 2.052 . S
Co313 O321 2.135 . S
O314 Co313 2.061 1_556 S
O314 C317 1.235 . S
C315 O318 1.238 . S
C315 O319 1.241 . S
C316 O309 1.247 . S
C316 O310 1.261 . S
C317 O312 1.259 1_556 S
C317 O314 1.235 . S
O318 Co308 2.021 . S
O318 C315 1.238 . S
O319 Co313 2.052 . S
O319 C315 1.241 . S
O320 Co308 2.137 . S
O320 C311 1.247 . S
O321 Co308 2.244 . S
O321 C311 1.272 . S
O321 Co313 2.135 . S
Co322 O323 2.216 . S
Co322 O324 2.091 . S
Co322 O326 2.004 . S
Co322 O332 2.021 . S
Co322 O334 2.137 . S
Co322 O335 2.244 . S
O323 Co322 2.216 . S
O323 C330 1.247 . S
O324 Co322 2.091 . S
O324 C330 1.261 . S
C325 O334 1.247 . S
C325 O335 1.272 . S
O326 Co322 2.004 . S
O326 C331 1.259 1_554 S
Co327 O328 2.061 1_554 S
Co327 O333 2.052 . S
Co327 O335 2.135 . S
O328 Co327 2.061 1_556 S
O328 C331 1.235 . S
C329 O332 1.238 . S
C329 O333 1.241 . S
C330 O323 1.247 . S
C330 O324 1.261 . S
C331 O326 1.259 1_556 S
C331 O328 1.235 . S
O332 Co322 2.021 . S
O332 C329 1.238 . S
O333 Co327 2.052 . S
O333 C329 1.241 . S
O334 Co322 2.137 . S
O334 C325 1.247 . S
O335 Co322 2.244 . S
O335 C325 1.272 . S
O335 Co327 2.135 . S
Co336 O337 2.216 . S
Co336 O338 2.091 . S
Co336 O340 2.004 . S
Co336 O346 2.021 . S
Co336 O348 2.137 . S
Co336 O349 2.244 . S
O337 Co336 2.216 . S
O337 C344 1.247 . S
O338 Co336 2.091 . S
O338 C344 1.261 . S
C339 O348 1.247 . S
C339 O349 1.272 . S
O340 Co336 2.004 . S
O340 C345 1.259 . S
Co341 O342 2.061 . S
Co341 O347 2.052 . S
Co341 O349 2.135 . S
O342 Co341 2.061 . S
O342 C345 1.235 . S
C343 O346 1.238 . S
C343 O347 1.241 . S
C344 O337 1.247 . S
C344 O338 1.261 . S
C345 O340 1.259 . S
C345 O342 1.235 . S
O346 Co336 2.021 . S
O346 C343 1.238 . S
O347 Co341 2.052 . S
O347 C343 1.241 . S
O348 Co336 2.137 . S
O348 C339 1.247 . S
O349 Co336 2.244 . S
O349 C339 1.272 . S
O349 Co341 2.135 . S
Co350 O351 2.216 . S
Co350 O352 2.091 . S
Co350 O354 2.004 . S
Co350 O360 2.021 . S
Co350 O362 2.137 . S
Co350 O363 2.244 . S
O351 Co350 2.216 . S
O351 C358 1.247 . S
O352 Co350 2.091 . S
O352 C358 1.261 . S
C353 O362 1.247 . S
C353 O363 1.272 . S
O354 Co350 2.004 . S
O354 C359 1.259 . S
Co355 O356 2.061 . S
Co355 O361 2.052 . S
Co355 O363 2.135 . S
O356 Co355 2.061 . S
O356 C359 1.235 . S
C357 O360 1.238 . S
C357 O361 1.241 . S
C358 O351 1.247 . S
C358 O352 1.261 . S
C359 O354 1.259 . S
C359 O356 1.235 . S
O360 Co350 2.021 . S
O360 C357 1.238 . S
O361 Co355 2.052 . S
O361 C357 1.241 . S
O362 Co350 2.137 . S
O362 C353 1.247 . S
O363 Co350 2.244 . S
O363 C353 1.272 . S
O363 Co355 2.135 . S
Co364 O365 2.216 . S
Co364 O366 2.091 . S
Co364 O368 2.004 . S
Co364 O374 2.021 . S
Co364 O376 2.137 . S
Co364 O377 2.244 . S
O365 Co364 2.216 . S
O365 C372 1.247 . S
O366 Co364 2.091 . S
O366 C372 1.261 . S
C367 O376 1.247 . S
C367 O377 1.272 . S
O368 Co364 2.004 . S
O368 C373 1.259 . S
Co369 O370 2.061 . S
Co369 O375 2.052 . S
Co369 O377 2.135 . S
O370 Co369 2.061 . S
O370 C373 1.235 . S
C371 O374 1.238 . S
C371 O375 1.241 . S
C372 O365 1.247 . S
C372 O366 1.261 . S
C373 O368 1.259 . S
C373 O370 1.235 . S
O374 Co364 2.021 . S
O374 C371 1.238 . S
O375 Co369 2.052 . S
O375 C371 1.241 . S
O376 Co364 2.137 . S
O376 C367 1.247 . S
O377 Co364 2.244 . S
O377 C367 1.272 . S
O377 Co369 2.135 . S
Co378 O379 2.216 . S
Co378 O380 2.091 . S
Co378 O382 2.004 . S
Co378 O388 2.021 . S
Co378 O390 2.137 . S
Co378 O391 2.244 . S
O379 Co378 2.216 . S
O379 C386 1.247 . S
O380 Co378 2.091 . S
O380 C386 1.261 . S
C381 O390 1.247 . S
C381 O391 1.272 . S
O382 Co378 2.004 . S
O382 C387 1.259 . S
Co383 O384 2.061 . S
Co383 O389 2.052 . S
Co383 O391 2.135 . S
O384 Co383 2.061 . S
O384 C387 1.235 . S
C385 O388 1.238 . S
C385 O389 1.241 . S
C386 O379 1.247 . S
C386 O380 1.261 . S
C387 O382 1.259 . S
C387 O384 1.235 . S
O388 Co378 2.021 . S
O388 C385 1.238 . S
O389 Co383 2.052 . S
O389 C385 1.241 . S
O390 Co378 2.137 . S
O390 C381 1.247 . S
O391 Co378 2.244 . S
O391 C381 1.272 . S
O391 Co383 2.135 . S
Co392 O393 2.216 . S
Co392 O394 2.091 . S
Co392 O396 2.004 . S
Co392 O402 2.021 . S
Co392 O404 2.137 . S
Co392 O405 2.244 . S
O393 Co392 2.216 . S
O393 C400 1.247 . S
O394 Co392 2.091 . S
O394 C400 1.261 . S
C395 O404 1.247 . S
C395 O405 1.272 . S
O396 Co392 2.004 . S
O396 C401 1.259 . S
Co397 O398 2.061 . S
Co397 O403 2.052 . S
Co397 O405 2.135 . S
O398 Co397 2.061 . S
O398 C401 1.235 . S
C399 O402 1.238 . S
C399 O403 1.241 . S
C400 O393 1.247 . S
C400 O394 1.261 . S
C401 O396 1.259 . S
C401 O398 1.235 . S
O402 Co392 2.021 . S
O402 C399 1.238 . S
O403 Co397 2.052 . S
O403 C399 1.241 . S
O404 Co392 2.137 . S
O404 C395 1.247 . S
O405 Co392 2.244 . S
O405 C395 1.272 . S
O405 Co397 2.135 . S
Co406 O407 2.216 . S
Co406 O408 2.091 . S
Co406 O410 2.004 . S
Co406 O416 2.021 . S
Co406 O418 2.137 . S
Co406 O419 2.244 . S
O407 Co406 2.216 . S
O407 C414 1.247 . S
O408 Co406 2.091 . S
O408 C414 1.261 . S
C409 O418 1.247 . S
C409 O419 1.272 . S
O410 Co406 2.004 . S
O410 C415 1.259 . S
Co411 O412 2.061 . S
Co411 O417 2.052 . S
Co411 O419 2.135 . S
O412 Co411 2.061 . S
O412 C415 1.235 . S
C413 O416 1.238 . S
C413 O417 1.241 . S
C414 O407 1.247 . S
C414 O408 1.261 . S
C415 O410 1.259 . S
C415 O412 1.235 . S
O416 Co406 2.021 . S
O416 C413 1.238 . S
O417 Co411 2.052 . S
O417 C413 1.241 . S
O418 Co406 2.137 . S
O418 C409 1.247 . S
O419 Co406 2.244 . S
O419 C409 1.272 . S
O419 Co411 2.135 . S
Co420 O421 2.216 . S
Co420 O422 2.091 . S
Co420 O424 2.004 . S
Co420 O430 2.021 . S
Co420 O432 2.137 . S
Co420 O433 2.244 . S
O421 Co420 2.216 . S
O421 C428 1.247 . S
O422 Co420 2.091 . S
O422 C428 1.261 . S
C423 O432 1.247 . S
C423 O433 1.272 . S
O424 Co420 2.004 . S
O424 C429 1.259 . S
Co425 O426 2.061 . S
Co425 O431 2.052 . S
Co425 O433 2.135 . S
O426 Co425 2.061 . S
O426 C429 1.235 . S
C427 O430 1.238 . S
C427 O431 1.241 . S
C428 O421 1.247 . S
C428 O422 1.261 . S
C429 O424 1.259 . S
C429 O426 1.235 . S
O430 Co420 2.021 . S
O430 C427 1.238 . S
O431 Co425 2.052 . S
O431 C427 1.241 . S
O432 Co420 2.137 . S
O432 C423 1.247 . S
O433 Co420 2.244 . S
O433 C423 1.272 . S
O433 Co425 2.135 . S
Co434 O435 2.216 . S
Co434 O436 2.091 . S
Co434 O438 2.004 . S
Co434 O444 2.021 . S
Co434 O446 2.137 . S
Co434 O447 2.244 . S
O435 Co434 2.216 . S
O435 C442 1.247 . S
O436 Co434 2.091 . S
O436 C442 1.261 . S
C437 O446 1.247 . S
C437 O447 1.272 . S
O438 Co434 2.004 . S
O438 C443 1.259 . S
Co439 O440 2.061 . S
Co439 O445 2.052 . S
Co439 O447 2.135 . S
O440 Co439 2.061 . S
O440 C443 1.235 . S
C441 O444 1.238 . S
C441 O445 1.241 . S
C442 O435 1.247 . S
C442 O436 1.261 . S
C443 O438 1.259 . S
C443 O440 1.235 . S
O444 Co434 2.021 . S
O444 C441 1.238 . S
O445 Co439 2.052 . S
O445 C441 1.241 . S
O446 Co434 2.137 . S
O446 C437 1.247 . S
O447 Co434 2.244 . S
O447 C437 1.272 . S
O447 Co439 2.135 . S
Co448 O449 2.216 . S
Co448 O450 2.091 . S
Co448 O452 2.004 . S
Co448 O458 2.021 . S
Co448 O460 2.137 . S
Co448 O461 2.244 . S
O449 Co448 2.216 . S
O449 C456 1.247 . S
O450 Co448 2.091 . S
O450 C456 1.261 . S
C451 O460 1.247 . S
C451 O461 1.272 . S
O452 Co448 2.004 . S
O452 C457 1.259 . S
Co453 O454 2.061 . S
Co453 O459 2.052 . S
Co453 O461 2.135 . S
O454 Co453 2.061 . S
O454 C457 1.235 . S
C455 O458 1.238 . S
C455 O459 1.241 . S
C456 O449 1.247 . S
C456 O450 1.261 . S
C457 O452 1.259 . S
C457 O454 1.235 . S
O458 Co448 2.021 . S
O458 C455 1.238 . S
O459 Co453 2.052 . S
O459 C455 1.241 . S
O460 Co448 2.137 . S
O460 C451 1.247 . S
O461 Co448 2.244 . S
O461 C451 1.272 . S
O461 Co453 2.135 . S
Co462 O463 2.216 . S
Co462 O464 2.091 . S
Co462 O466 2.004 . S
Co462 O472 2.021 . S
Co462 O474 2.137 . S
Co462 O475 2.244 . S
O463 Co462 2.216 . S
O463 C470 1.247 . S
O464 Co462 2.091 . S
O464 C470 1.261 . S
C465 O474 1.247 . S
C465 O475 1.272 . S
O466 Co462 2.004 . S
O466 C471 1.259 . S
Co467 O468 2.061 . S
Co467 O473 2.052 . S
Co467 O475 2.135 . S
O468 Co467 2.061 . S
O468 C471 1.235 . S
C469 O472 1.238 . S
C469 O473 1.241 . S
C470 O463 1.247 . S
C470 O464 1.261 . S
C471 O466 1.259 . S
C471 O468 1.235 . S
O472 Co462 2.021 . S
O472 C469 1.238 . S
O473 Co467 2.052 . S
O473 C469 1.241 . S
O474 Co462 2.137 . S
O474 C465 1.247 . S
O475 Co462 2.244 . S
O475 C465 1.272 . S
O475 Co467 2.135 . S
Co476 O477 2.216 . S
Co476 O478 2.091 . S
Co476 O480 2.004 . S
Co476 O486 2.021 . S
Co476 O488 2.137 . S
Co476 O489 2.244 . S
O477 Co476 2.216 . S
O477 C484 1.247 . S
O478 Co476 2.091 . S
O478 C484 1.261 . S
C479 O488 1.247 . S
C479 O489 1.272 . S
O480 Co476 2.004 . S
O480 C485 1.259 . S
Co481 O482 2.061 . S
Co481 O487 2.052 . S
Co481 O489 2.135 . S
O482 Co481 2.061 . S
O482 C485 1.235 . S
C483 O486 1.238 . S
C483 O487 1.241 . S
C484 O477 1.247 . S
C484 O478 1.261 . S
C485 O480 1.259 . S
C485 O482 1.235 . S
O486 Co476 2.021 . S
O486 C483 1.238 . S
O487 Co481 2.052 . S
O487 C483 1.241 . S
O488 Co476 2.137 . S
O488 C479 1.247 . S
O489 Co476 2.244 . S
O489 C479 1.272 . S
O489 Co481 2.135 . S
Co490 O491 2.216 . S
Co490 O492 2.091 . S
Co490 O494 2.004 . S
Co490 O500 2.021 . S
Co490 O502 2.137 . S
Co490 O503 2.244 . S
O491 Co490 2.216 . S
O491 C498 1.247 . S
O492 Co490 2.091 . S
O492 C498 1.261 . S
C493 O502 1.247 . S
C493 O503 1.272 . S
O494 Co490 2.004 . S
O494 C499 1.259 . S
Co495 O496 2.061 . S
Co495 O501 2.052 . S
Co495 O503 2.135 . S
O496 Co495 2.061 . S
O496 C499 1.235 . S
C497 O500 1.238 . S
C497 O501 1.241 . S
C498 O491 1.247 . S
C498 O492 1.261 . S
C499 O494 1.259 . S
C499 O496 1.235 . S
O500 Co490 2.021 . S
O500 C497 1.238 . S
O501 Co495 2.052 . S
O501 C497 1.241 . S
O502 Co490 2.137 . S
O502 C493 1.247 . S
O503 Co490 2.244 . S
O503 C493 1.272 . S
O503 Co495 2.135 . S
Co504 O505 2.216 . S
Co504 O506 2.091 . S
Co504 O508 2.004 . S
Co504 O514 2.021 . S
Co504 O516 2.137 . S
Co504 O517 2.244 . S
O505 Co504 2.216 . S
O505 C512 1.247 . S
O506 Co504 2.091 . S
O506 C512 1.261 . S
C507 O516 1.247 . S
C507 O517 1.272 . S
O508 Co504 2.004 . S
O508 C513 1.259 . S
Co509 O510 2.061 . S
Co509 O515 2.052 . S
Co509 O517 2.135 . S
O510 Co509 2.061 . S
O510 C513 1.235 . S
C511 O514 1.238 . S
C511 O515 1.241 . S
C512 O505 1.247 . S
C512 O506 1.261 . S
C513 O508 1.259 . S
C513 O510 1.235 . S
O514 Co504 2.021 . S
O514 C511 1.238 . S
O515 Co509 2.052 . S
O515 C511 1.241 . S
O516 Co504 2.137 . S
O516 C507 1.247 . S
O517 Co504 2.244 . S
O517 C507 1.272 . S
O517 Co509 2.135 . S
Co518 O519 2.216 . S
Co518 O520 2.091 . S
Co518 O522 2.004 . S
Co518 O528 2.021 . S
Co518 O530 2.137 . S
Co518 O531 2.244 . S
O519 Co518 2.216 . S
O519 C526 1.247 . S
O520 Co518 2.091 . S
O520 C526 1.261 . S
C521 O530 1.247 . S
C521 O531 1.272 . S
O522 Co518 2.004 . S
O522 C527 1.259 . S
Co523 O524 2.061 . S
Co523 O529 2.052 . S
Co523 O531 2.135 . S
O524 Co523 2.061 . S
O524 C527 1.235 . S
C525 O528 1.238 . S
C525 O529 1.241 . S
C526 O519 1.247 . S
C526 O520 1.261 . S
C527 O522 1.259 . S
C527 O524 1.235 . S
O528 Co518 2.021 . S
O528 C525 1.238 . S
O529 Co523 2.052 . S
O529 C525 1.241 . S
O530 Co518 2.137 . S
O530 C521 1.247 . S
O531 Co518 2.244 . S
O531 C521 1.272 . S
O531 Co523 2.135 . S
Co532 O533 2.216 . S
Co532 O534 2.091 . S
Co532 O536 2.004 . S
Co532 O542 2.021 . S
Co532 O544 2.137 . S
Co532 O545 2.244 . S
O533 Co532 2.216 . S
O533 C540 1.247 . S
O534 Co532 2.091 . S
O534 C540 1.261 . S
C535 O544 1.247 . S
C535 O545 1.272 . S
O536 Co532 2.004 . S
O536 C541 1.259 . S
Co537 O538 2.061 . S
Co537 O543 2.052 . S
Co537 O545 2.135 . S
O538 Co537 2.061 . S
O538 C541 1.235 . S
C539 O542 1.238 . S
C539 O543 1.241 . S
C540 O533 1.247 . S
C540 O534 1.261 . S
C541 O536 1.259 . S
C541 O538 1.235 . S
O542 Co532 2.021 . S
O542 C539 1.238 . S
O543 Co537 2.052 . S
O543 C539 1.241 . S
O544 Co532 2.137 . S
O544 C535 1.247 . S
O545 Co532 2.244 . S
O545 C535 1.272 . S
O545 Co537 2.135 . S
Co546 O547 2.216 . S
Co546 O548 2.091 . S
Co546 O550 2.004 . S
Co546 O556 2.021 . S
Co546 O558 2.137 . S
Co546 O559 2.244 . S
O547 Co546 2.216 . S
O547 C554 1.247 . S
O548 Co546 2.091 . S
O548 C554 1.261 . S
C549 O558 1.247 . S
C549 O559 1.272 . S
O550 Co546 2.004 . S
O550 C555 1.259 . S
Co551 O552 2.061 . S
Co551 O557 2.052 . S
Co551 O559 2.135 . S
O552 Co551 2.061 . S
O552 C555 1.235 . S
C553 O556 1.238 . S
C553 O557 1.241 . S
C554 O547 1.247 . S
C554 O548 1.261 . S
C555 O550 1.259 . S
C555 O552 1.235 . S
O556 Co546 2.021 . S
O556 C553 1.238 . S
O557 Co551 2.052 . S
O557 C553 1.241 . S
O558 Co546 2.137 . S
O558 C549 1.247 . S
O559 Co546 2.244 . S
O559 C549 1.272 . S
O559 Co551 2.135 . S
Co560 O561 2.216 . S
Co560 O562 2.091 . S
Co560 O564 2.004 . S
Co560 O570 2.021 . S
Co560 O572 2.137 . S
Co560 O573 2.244 . S
O561 Co560 2.216 . S
O561 C568 1.247 . S
O562 Co560 2.091 . S
O562 C568 1.261 . S
C563 O572 1.247 . S
C563 O573 1.272 . S
O564 Co560 2.004 . S
O564 C569 1.259 . S
Co565 O566 2.061 . S
Co565 O571 2.052 . S
Co565 O573 2.135 . S
O566 Co565 2.061 . S
O566 C569 1.235 . S
C567 O570 1.238 . S
C567 O571 1.241 . S
C568 O561 1.247 . S
C568 O562 1.261 . S
C569 O564 1.259 . S
C569 O566 1.235 . S
O570 Co560 2.021 . S
O570 C567 1.238 . S
O571 Co565 2.052 . S
O571 C567 1.241 . S
O572 Co560 2.137 . S
O572 C563 1.247 . S
O573 Co560 2.244 . S
O573 C563 1.272 . S
O573 Co565 2.135 . S
Co574 O575 2.216 . S
Co574 O576 2.091 . S
Co574 O578 2.004 . S
Co574 O584 2.021 . S
Co574 O586 2.137 . S
Co574 O587 2.244 . S
O575 Co574 2.216 . S
O575 C582 1.247 . S
O576 Co574 2.091 . S
O576 C582 1.261 . S
C577 O586 1.247 . S
C577 O587 1.272 . S
O578 Co574 2.004 . S
O578 C583 1.259 . S
Co579 O580 2.061 . S
Co579 O585 2.052 . S
Co579 O587 2.135 . S
O580 Co579 2.061 . S
O580 C583 1.235 . S
C581 O584 1.238 . S
C581 O585 1.241 . S
C582 O575 1.247 . S
C582 O576 1.261 . S
C583 O578 1.259 . S
C583 O580 1.235 . S
O584 Co574 2.021 . S
O584 C581 1.238 . S
O585 Co579 2.052 . S
O585 C581 1.241 . S
O586 Co574 2.137 . S
O586 C577 1.247 . S
O587 Co574 2.244 . S
O587 C577 1.272 . S
O587 Co579 2.135 . S
Co588 O589 2.216 . S
Co588 O590 2.091 . S
Co588 O592 2.004 . S
Co588 O598 2.021 . S
Co588 O600 2.137 . S
Co588 O601 2.244 . S
O589 Co588 2.216 . S
O589 C596 1.247 . S
O590 Co588 2.091 . S
O590 C596 1.261 . S
C591 O600 1.247 . S
C591 O601 1.272 . S
O592 Co588 2.004 . S
O592 C597 1.259 . S
Co593 O594 2.061 . S
Co593 O599 2.052 . S
Co593 O601 2.135 . S
O594 Co593 2.061 . S
O594 C597 1.235 . S
C595 O598 1.238 . S
C595 O599 1.241 . S
C596 O589 1.247 . S
C596 O590 1.261 . S
C597 O592 1.259 . S
C597 O594 1.235 . S
O598 Co588 2.021 . S
O598 C595 1.238 . S
O599 Co593 2.052 . S
O599 C595 1.241 . S
O600 Co588 2.137 . S
O600 C591 1.247 . S
O601 Co588 2.244 . S
O601 C591 1.272 . S
O601 Co593 2.135 . S
Co602 O603 2.216 . S
Co602 O604 2.091 . S
Co602 O606 2.004 . S
Co602 O612 2.021 . S
Co602 O614 2.137 . S
Co602 O615 2.244 . S
O603 Co602 2.216 . S
O603 C610 1.247 . S
O604 Co602 2.091 . S
O604 C610 1.261 . S
C605 O614 1.247 . S
C605 O615 1.272 . S
O606 Co602 2.004 . S
O606 C611 1.259 . S
Co607 O608 2.061 . S
Co607 O613 2.052 . S
Co607 O615 2.135 . S
O608 Co607 2.061 . S
O608 C611 1.235 . S
C609 O612 1.238 . S
C609 O613 1.241 . S
C610 O603 1.247 . S
C610 O604 1.261 . S
C611 O606 1.259 . S
C611 O608 1.235 . S
O612 Co602 2.021 . S
O612 C609 1.238 . S
O613 Co607 2.052 . S
O613 C609 1.241 . S
O614 Co602 2.137 . S
O614 C605 1.247 . S
O615 Co602 2.244 . S
O615 C605 1.272 . S
O615 Co607 2.135 . S
Co616 O617 2.216 . S
Co616 O618 2.091 . S
Co616 O620 2.004 . S
Co616 O626 2.021 . S
Co616 O628 2.137 . S
Co616 O629 2.244 . S
O617 Co616 2.216 . S
O617 C624 1.247 . S
O618 Co616 2.091 . S
O618 C624 1.261 . S
C619 O628 1.247 . S
C619 O629 1.272 . S
O620 Co616 2.004 . S
O620 C625 1.259 . S
Co621 O622 2.061 . S
Co621 O627 2.052 . S
Co621 O629 2.135 . S
O622 Co621 2.061 . S
O622 C625 1.235 . S
C623 O626 1.238 . S
C623 O627 1.241 . S
C624 O617 1.247 . S
C624 O618 1.261 . S
C625 O620 1.259 . S
C625 O622 1.235 . S
O626 Co616 2.021 . S
O626 C623 1.238 . S
O627 Co621 2.052 . S
O627 C623 1.241 . S
O628 Co616 2.137 . S
O628 C619 1.247 . S
O629 Co616 2.244 . S
O629 C619 1.272 . S
O629 Co621 2.135 . S
Co630 O631 2.216 . S
Co630 O632 2.091 . S
Co630 O634 2.004 . S
Co630 O640 2.021 . S
Co630 O642 2.137 . S
Co630 O643 2.244 . S
O631 Co630 2.216 . S
O631 C638 1.247 . S
O632 Co630 2.091 . S
O632 C638 1.261 . S
C633 O642 1.247 . S
C633 O643 1.272 . S
O634 Co630 2.004 . S
O634 C639 1.259 . S
Co635 O636 2.061 . S
Co635 O641 2.052 . S
Co635 O643 2.135 . S
O636 Co635 2.061 . S
O636 C639 1.235 . S
C637 O640 1.238 . S
C637 O641 1.241 . S
C638 O631 1.247 . S
C638 O632 1.261 . S
C639 O634 1.259 . S
C639 O636 1.235 . S
O640 Co630 2.021 . S
O640 C637 1.238 . S
O641 Co635 2.052 . S
O641 C637 1.241 . S
O642 Co630 2.137 . S
O642 C633 1.247 . S
O643 Co630 2.244 . S
O643 C633 1.272 . S
O643 Co635 2.135 . S
Co644 O645 2.216 . S
Co644 O646 2.091 . S
Co644 O648 2.004 . S
Co644 O654 2.021 . S
Co644 O656 2.137 . S
Co644 O657 2.244 . S
O645 Co644 2.216 . S
O645 C652 1.247 . S
O646 Co644 2.091 . S
O646 C652 1.261 . S
C647 O656 1.247 . S
C647 O657 1.272 . S
O648 Co644 2.004 . S
O648 C653 1.259 . S
Co649 O650 2.061 . S
Co649 O655 2.052 . S
Co649 O657 2.135 . S
O650 Co649 2.061 . S
O650 C653 1.235 . S
C651 O654 1.238 . S
C651 O655 1.241 . S
C652 O645 1.247 . S
C652 O646 1.261 . S
C653 O648 1.259 . S
C653 O650 1.235 . S
O654 Co644 2.021 . S
O654 C651 1.238 . S
O655 Co649 2.052 . S
O655 C651 1.241 . S
O656 Co644 2.137 . S
O656 C647 1.247 . S
O657 Co644 2.244 . S
O657 C647 1.272 . S
O657 Co649 2.135 . S
Co658 O659 2.216 . S
Co658 O660 2.091 . S
Co658 O662 2.004 . S
Co658 O668 2.021 . S
Co658 O670 2.137 . S
Co658 O671 2.244 . S
O659 Co658 2.216 . S
O659 C666 1.247 . S
O660 Co658 2.091 . S
O660 C666 1.261 . S
C661 O670 1.247 . S
C661 O671 1.272 . S
O662 Co658 2.004 . S
O662 C667 1.259 . S
Co663 O664 2.061 . S
Co663 O669 2.052 . S
Co663 O671 2.135 . S
O664 Co663 2.061 . S
O664 C667 1.235 . S
C665 O668 1.238 . S
C665 O669 1.241 . S
C666 O659 1.247 . S
C666 O660 1.261 . S
C667 O662 1.259 . S
C667 O664 1.235 . S
O668 Co658 2.021 . S
O668 C665 1.238 . S
O669 Co663 2.052 . S
O669 C665 1.241 . S
O670 Co658 2.137 . S
O670 C661 1.247 . S
O671 Co658 2.244 . S
O671 C661 1.272 . S
O671 Co663 2.135 . S
H672 C684 0.930 . S
H673 C686 0.930 . S
H674 C687 0.930 . S
H675 C691 0.959 . S
H676 C691 0.959 . S
H677 C691 0.961 . S
H678 C692 0.960 . S
H679 C692 0.961 . S
H680 C692 0.959 . S
H681 C695 0.929 . S
H682 C696 0.931 . S
H683 C698 0.930 . S
C684 H672 0.930 . S
C684 C685 1.399 . S
C684 C689 1.399 . S
C685 C684 1.399 . S
C685 C686 1.376 . S
C686 H673 0.930 . S
C686 C685 1.376 . S
C686 C687 1.388 . S
C687 H674 0.930 . S
C687 C686 1.388 . S
C687 C688 1.390 . S
C688 C687 1.390 . S
C688 C689 1.394 . S
C688 C694 1.465 . S
C689 C684 1.399 . S
C689 C688 1.394 . S
C689 C690 1.516 . S
C690 C689 1.516 . S
C690 C691 1.502 . S
C690 C692 1.561 . S
C690 C693 1.526 . S
C691 H675 0.959 . S
C691 H676 0.959 . S
C691 H677 0.961 . S
C691 C690 1.502 . S
C692 H678 0.960 . S
C692 H679 0.961 . S
C692 H680 0.959 . S
C692 C690 1.561 . S
C693 C690 1.526 . S
C693 C694 1.396 . S
C693 C698 1.390 . S
C694 C688 1.465 . S
C694 C693 1.396 . S
C694 C695 1.399 . S
C695 H681 0.929 . S
C695 C694 1.399 . S
C695 C696 1.385 . S
C696 H682 0.931 . S
C696 C695 1.385 . S
C696 C697 1.389 . S
C697 C696 1.389 . S
C697 C698 1.387 . S
C698 H683 0.930 . S
C698 C693 1.390 . S
C698 C697 1.387 . S
H699 C711 0.930 . S
H700 C713 0.930 . S
H701 C714 0.930 . S
H702 C718 0.959 . S
H703 C718 0.959 . S
H704 C718 0.961 . S
H705 C719 0.960 . S
H706 C719 0.961 . S
H707 C719 0.959 . S
H708 C722 0.929 . S
H709 C723 0.931 . S
H710 C725 0.930 . S
C711 H699 0.930 . S
C711 C712 1.399 . S
C711 C716 1.399 . S
C712 C711 1.399 . S
C712 C713 1.376 . S
C713 H700 0.930 . S
C713 C712 1.376 . S
C713 C714 1.388 . S
C714 H701 0.930 . S
C714 C713 1.388 . S
C714 C715 1.390 . S
C715 C714 1.390 . S
C715 C716 1.394 . S
C715 C721 1.465 . S
C716 C711 1.399 . S
C716 C715 1.394 . S
C716 C717 1.516 . S
C717 C716 1.516 . S
C717 C718 1.502 . S
C717 C719 1.561 . S
C717 C720 1.526 . S
C718 H702 0.959 . S
C718 H703 0.959 . S
C718 H704 0.961 . S
C718 C717 1.502 . S
C719 H705 0.960 . S
C719 H706 0.961 . S
C719 H707 0.959 . S
C719 C717 1.561 . S
C720 C717 1.526 . S
C720 C721 1.396 . S
C720 C725 1.390 . S
C721 C715 1.465 . S
C721 C720 1.396 . S
C721 C722 1.399 . S
C722 H708 0.929 . S
C722 C721 1.399 . S
C722 C723 1.385 . S
C723 H709 0.931 . S
C723 C722 1.385 . S
C723 C724 1.389 . S
C724 C723 1.389 . S
C724 C725 1.387 . S
C725 H710 0.930 . S
C725 C720 1.390 . S
C725 C724 1.387 . S
H726 C738 0.930 . S
H727 C740 0.930 . S
H728 C741 0.930 . S
H729 C745 0.959 . S
H730 C745 0.959 . S
H731 C745 0.961 . S
H732 C746 0.960 . S
H733 C746 0.961 . S
H734 C746 0.959 . S
H735 C749 0.929 . S
H736 C750 0.931 . S
H737 C752 0.930 . S
C738 H726 0.930 . S
C738 C739 1.399 . S
C738 C743 1.399 . S
C739 C738 1.399 . S
C739 C740 1.376 . S
C740 H727 0.930 . S
C740 C739 1.376 . S
C740 C741 1.388 . S
C741 H728 0.930 . S
C741 C740 1.388 . S
C741 C742 1.390 . S
C742 C741 1.390 . S
C742 C743 1.394 . S
C742 C748 1.465 . S
C743 C738 1.399 . S
C743 C742 1.394 . S
C743 C744 1.516 . S
C744 C743 1.516 . S
C744 C745 1.502 . S
C744 C746 1.561 . S
C744 C747 1.526 . S
C745 H729 0.959 . S
C745 H730 0.959 . S
C745 H731 0.961 . S
C745 C744 1.502 . S
C746 H732 0.960 . S
C746 H733 0.961 . S
C746 H734 0.959 . S
C746 C744 1.561 . S
C747 C744 1.526 . S
C747 C748 1.396 . S
C747 C752 1.390 . S
C748 C742 1.465 . S
C748 C747 1.396 . S
C748 C749 1.399 . S
C749 H735 0.929 . S
C749 C748 1.399 . S
C749 C750 1.385 . S
C750 H736 0.931 . S
C750 C749 1.385 . S
C750 C751 1.389 . S
C751 C750 1.389 . S
C751 C752 1.387 . S
C752 H737 0.930 . S
C752 C747 1.390 . S
C752 C751 1.387 . S
H753 C765 0.930 . S
H754 C767 0.930 . S
H755 C768 0.930 . S
H756 C772 0.959 . S
H757 C772 0.959 . S
H758 C772 0.961 . S
H759 C773 0.960 . S
H760 C773 0.961 . S
H761 C773 0.959 . S
H762 C776 0.929 . S
H763 C777 0.931 . S
H764 C779 0.930 . S
C765 H753 0.930 . S
C765 C766 1.399 . S
C765 C770 1.399 . S
C766 C765 1.399 . S
C766 C767 1.376 . S
C767 H754 0.930 . S
C767 C766 1.376 . S
C767 C768 1.388 . S
C768 H755 0.930 . S
C768 C767 1.388 . S
C768 C769 1.390 . S
C769 C768 1.390 . S
C769 C770 1.394 . S
C769 C775 1.465 . S
C770 C765 1.399 . S
C770 C769 1.394 . S
C770 C771 1.516 . S
C771 C770 1.516 . S
C771 C772 1.502 . S
C771 C773 1.561 . S
C771 C774 1.526 . S
C772 H756 0.959 . S
C772 H757 0.959 . S
C772 H758 0.961 . S
C772 C771 1.502 . S
C773 H759 0.960 . S
C773 H760 0.961 . S
C773 H761 0.959 . S
C773 C771 1.561 . S
C774 C771 1.526 . S
C774 C775 1.396 . S
C774 C779 1.390 . S
C775 C769 1.465 . S
C775 C774 1.396 . S
C775 C776 1.399 . S
C776 H762 0.929 . S
C776 C775 1.399 . S
C776 C777 1.385 . S
C777 H763 0.931 . S
C777 C776 1.385 . S
C777 C778 1.389 . S
C778 C777 1.389 . S
C778 C779 1.387 . S
C779 H764 0.930 . S
C779 C774 1.390 . S
C779 C778 1.387 . S
H780 C792 0.930 . S
H781 C794 0.930 . S
H782 C795 0.930 . S
H783 C799 0.959 . S
H784 C799 0.959 . S
H785 C799 0.961 . S
H786 C800 0.960 . S
H787 C800 0.961 . S
H788 C800 0.959 . S
H789 C803 0.929 . S
H790 C804 0.931 . S
H791 C806 0.930 . S
C792 H780 0.930 . S
C792 C793 1.399 . S
C792 C797 1.399 . S
C793 C792 1.399 . S
C793 C794 1.376 . S
C794 H781 0.930 . S
C794 C793 1.376 . S
C794 C795 1.388 . S
C795 H782 0.930 . S
C795 C794 1.388 . S
C795 C796 1.390 . S
C796 C795 1.390 . S
C796 C797 1.394 . S
C796 C802 1.465 . S
C797 C792 1.399 . S
C797 C796 1.394 . S
C797 C798 1.516 . S
C798 C797 1.516 . S
C798 C799 1.502 . S
C798 C800 1.561 . S
C798 C801 1.526 . S
C799 H783 0.959 . S
C799 H784 0.959 . S
C799 H785 0.961 . S
C799 C798 1.502 . S
C800 H786 0.960 . S
C800 H787 0.961 . S
C800 H788 0.959 . S
C800 C798 1.561 . S
C801 C798 1.526 . S
C801 C802 1.396 . S
C801 C806 1.390 . S
C802 C796 1.465 . S
C802 C801 1.396 . S
C802 C803 1.399 . S
C803 H789 0.929 . S
C803 C802 1.399 . S
C803 C804 1.385 . S
C804 H790 0.931 . S
C804 C803 1.385 . S
C804 C805 1.389 . S
C805 C804 1.389 . S
C805 C806 1.387 . S
C806 H791 0.930 . S
C806 C801 1.390 . S
C806 C805 1.387 . S
H807 C819 0.930 . S
H808 C821 0.930 . S
H809 C822 0.930 . S
H810 C826 0.959 . S
H811 C826 0.959 . S
H812 C826 0.961 . S
H813 C827 0.960 . S
H814 C827 0.961 . S
H815 C827 0.959 . S
H816 C830 0.929 . S
H817 C831 0.931 . S
H818 C833 0.930 . S
C819 H807 0.930 . S
C819 C820 1.399 . S
C819 C824 1.399 . S
C820 C819 1.399 . S
C820 C821 1.376 . S
C821 H808 0.930 . S
C821 C820 1.376 . S
C821 C822 1.388 . S
C822 H809 0.930 . S
C822 C821 1.388 . S
C822 C823 1.390 . S
C823 C822 1.390 . S
C823 C824 1.394 . S
C823 C829 1.465 . S
C824 C819 1.399 . S
C824 C823 1.394 . S
C824 C825 1.516 . S
C825 C824 1.516 . S
C825 C826 1.502 . S
C825 C827 1.561 . S
C825 C828 1.526 . S
C826 H810 0.959 . S
C826 H811 0.959 . S
C826 H812 0.961 . S
C826 C825 1.502 . S
C827 H813 0.960 . S
C827 H814 0.961 . S
C827 H815 0.959 . S
C827 C825 1.561 . S
C828 C825 1.526 . S
C828 C829 1.396 . S
C828 C833 1.390 . S
C829 C823 1.465 . S
C829 C828 1.396 . S
C829 C830 1.399 . S
C830 H816 0.929 . S
C830 C829 1.399 . S
C830 C831 1.385 . S
C831 H817 0.931 . S
C831 C830 1.385 . S
C831 C832 1.389 . S
C832 C831 1.389 . S
C832 C833 1.387 . S
C833 H818 0.930 . S
C833 C828 1.390 . S
C833 C832 1.387 . S
H834 C846 0.930 . S
H835 C848 0.930 . S
H836 C849 0.930 . S
H837 C853 0.959 . S
H838 C853 0.959 . S
H839 C853 0.961 . S
H840 C854 0.960 . S
H841 C854 0.961 . S
H842 C854 0.959 . S
H843 C857 0.929 . S
H844 C858 0.931 . S
H845 C860 0.930 . S
C846 H834 0.930 . S
C846 C847 1.399 . S
C846 C851 1.399 . S
C847 C846 1.399 . S
C847 C848 1.376 . S
C848 H835 0.930 . S
C848 C847 1.376 . S
C848 C849 1.388 . S
C849 H836 0.930 . S
C849 C848 1.388 . S
C849 C850 1.390 . S
C850 C849 1.390 . S
C850 C851 1.394 . S
C850 C856 1.465 . S
C851 C846 1.399 . S
C851 C850 1.394 . S
C851 C852 1.516 . S
C852 C851 1.516 . S
C852 C853 1.502 . S
C852 C854 1.561 . S
C852 C855 1.526 . S
C853 H837 0.959 . S
C853 H838 0.959 . S
C853 H839 0.961 . S
C853 C852 1.502 . S
C854 H840 0.960 . S
C854 H841 0.961 . S
C854 H842 0.959 . S
C854 C852 1.561 . S
C855 C852 1.526 . S
C855 C856 1.396 . S
C855 C860 1.390 . S
C856 C850 1.465 . S
C856 C855 1.396 . S
C856 C857 1.399 . S
C857 H843 0.929 . S
C857 C856 1.399 . S
C857 C858 1.385 . S
C858 H844 0.931 . S
C858 C857 1.385 . S
C858 C859 1.389 . S
C859 C858 1.389 . S
C859 C860 1.387 . S
C860 H845 0.930 . S
C860 C855 1.390 . S
C860 C859 1.387 . S
H861 C873 0.930 . S
H862 C875 0.930 . S
H863 C876 0.930 . S
H864 C880 0.959 . S
H865 C880 0.959 . S
H866 C880 0.961 . S
H867 C881 0.960 . S
H868 C881 0.961 . S
H869 C881 0.959 . S
H870 C884 0.929 . S
H871 C885 0.931 . S
H872 C887 0.930 . S
C873 H861 0.930 . S
C873 C874 1.399 . S
C873 C878 1.399 . S
C874 C873 1.399 . S
C874 C875 1.376 . S
C875 H862 0.930 . S
C875 C874 1.376 . S
C875 C876 1.388 . S
C876 H863 0.930 . S
C876 C875 1.388 . S
C876 C877 1.390 . S
C877 C876 1.390 . S
C877 C878 1.394 . S
C877 C883 1.465 . S
C878 C873 1.399 . S
C878 C877 1.394 . S
C878 C879 1.516 . S
C879 C878 1.516 . S
C879 C880 1.502 . S
C879 C881 1.561 . S
C879 C882 1.526 . S
C880 H864 0.959 . S
C880 H865 0.959 . S
C880 H866 0.961 . S
C880 C879 1.502 . S
C881 H867 0.960 . S
C881 H868 0.961 . S
C881 H869 0.959 . S
C881 C879 1.561 . S
C882 C879 1.526 . S
C882 C883 1.396 . S
C882 C887 1.390 . S
C883 C877 1.465 . S
C883 C882 1.396 . S
C883 C884 1.399 . S
C884 H870 0.929 . S
C884 C883 1.399 . S
C884 C885 1.385 . S
C885 H871 0.931 . S
C885 C884 1.385 . S
C885 C886 1.389 . S
C886 C885 1.389 . S
C886 C887 1.387 . S
C887 H872 0.930 . S
C887 C882 1.390 . S
C887 C886 1.387 . S
H888 C900 0.930 . S
H889 C902 0.930 . S
H890 C903 0.930 . S
H891 C907 0.959 . S
H892 C907 0.959 . S
H893 C907 0.961 . S
H894 C908 0.960 . S
H895 C908 0.961 . S
H896 C908 0.959 . S
H897 C911 0.929 . S
H898 C912 0.931 . S
H899 C914 0.930 . S
C900 H888 0.930 . S
C900 C901 1.399 . S
C900 C905 1.399 . S
C901 C900 1.399 . S
C901 C902 1.376 . S
C902 H889 0.930 . S
C902 C901 1.376 . S
C902 C903 1.388 . S
C903 H890 0.930 . S
C903 C902 1.388 . S
C903 C904 1.390 . S
C904 C903 1.390 . S
C904 C905 1.394 . S
C904 C910 1.465 . S
C905 C900 1.399 . S
C905 C904 1.394 . S
C905 C906 1.516 . S
C906 C905 1.516 . S
C906 C907 1.502 . S
C906 C908 1.561 . S
C906 C909 1.526 . S
C907 H891 0.959 . S
C907 H892 0.959 . S
C907 H893 0.961 . S
C907 C906 1.502 . S
C908 H894 0.960 . S
C908 H895 0.961 . S
C908 H896 0.959 . S
C908 C906 1.561 . S
C909 C906 1.526 . S
C909 C910 1.396 . S
C909 C914 1.390 . S
C910 C904 1.465 . S
C910 C909 1.396 . S
C910 C911 1.399 . S
C911 H897 0.929 . S
C911 C910 1.399 . S
C911 C912 1.385 . S
C912 H898 0.931 . S
C912 C911 1.385 . S
C912 C913 1.389 . S
C913 C912 1.389 . S
C913 C914 1.387 . S
C914 H899 0.930 . S
C914 C909 1.390 . S
C914 C913 1.387 . S
H915 C927 0.930 . S
H916 C929 0.930 . S
H917 C930 0.930 . S
H918 C934 0.959 . S
H919 C934 0.959 . S
H920 C934 0.961 . S
H921 C935 0.960 . S
H922 C935 0.961 . S
H923 C935 0.959 . S
H924 C938 0.929 . S
H925 C939 0.931 . S
H926 C941 0.930 . S
C927 H915 0.930 . S
C927 C928 1.399 . S
C927 C932 1.399 . S
C928 C927 1.399 . S
C928 C929 1.376 . S
C929 H916 0.930 . S
C929 C928 1.376 . S
C929 C930 1.388 . S
C930 H917 0.930 . S
C930 C929 1.388 . S
C930 C931 1.390 . S
C931 C930 1.390 . S
C931 C932 1.394 . S
C931 C937 1.465 . S
C932 C927 1.399 . S
C932 C931 1.394 . S
C932 C933 1.516 . S
C933 C932 1.516 . S
C933 C934 1.502 . S
C933 C935 1.561 . S
C933 C936 1.526 . S
C934 H918 0.959 . S
C934 H919 0.959 . S
C934 H920 0.961 . S
C934 C933 1.502 . S
C935 H921 0.960 . S
C935 H922 0.961 . S
C935 H923 0.959 . S
C935 C933 1.561 . S
C936 C933 1.526 . S
C936 C937 1.396 . S
C936 C941 1.390 . S
C937 C931 1.465 . S
C937 C936 1.396 . S
C937 C938 1.399 . S
C938 H924 0.929 . S
C938 C937 1.399 . S
C938 C939 1.385 . S
C939 H925 0.931 . S
C939 C938 1.385 . S
C939 C940 1.389 . S
C940 C939 1.389 . S
C940 C941 1.387 . S
C941 H926 0.930 . S
C941 C936 1.390 . S
C941 C940 1.387 . S
H942 C954 0.930 . S
H943 C956 0.930 . S
H944 C957 0.930 . S
H945 C961 0.959 . S
H946 C961 0.959 . S
H947 C961 0.961 . S
H948 C962 0.960 . S
H949 C962 0.961 . S
H950 C962 0.959 . S
H951 C965 0.929 . S
H952 C966 0.931 . S
H953 C968 0.930 . S
C954 H942 0.930 . S
C954 C955 1.399 . S
C954 C959 1.399 . S
C955 C954 1.399 . S
C955 C956 1.376 . S
C956 H943 0.930 . S
C956 C955 1.376 . S
C956 C957 1.388 . S
C957 H944 0.930 . S
C957 C956 1.388 . S
C957 C958 1.390 . S
C958 C957 1.390 . S
C958 C959 1.394 . S
C958 C964 1.465 . S
C959 C954 1.399 . S
C959 C958 1.394 . S
C959 C960 1.516 . S
C960 C959 1.516 . S
C960 C961 1.502 . S
C960 C962 1.561 . S
C960 C963 1.526 . S
C961 H945 0.959 . S
C961 H946 0.959 . S
C961 H947 0.961 . S
C961 C960 1.502 . S
C962 H948 0.960 . S
C962 H949 0.961 . S
C962 H950 0.959 . S
C962 C960 1.561 . S
C963 C960 1.526 . S
C963 C964 1.396 . S
C963 C968 1.390 . S
C964 C958 1.465 . S
C964 C963 1.396 . S
C964 C965 1.399 . S
C965 H951 0.929 . S
C965 C964 1.399 . S
C965 C966 1.385 . S
C966 H952 0.931 . S
C966 C965 1.385 . S
C966 C967 1.389 . S
C967 C966 1.389 . S
C967 C968 1.387 . S
C968 H953 0.930 . S
C968 C963 1.390 . S
C968 C967 1.387 . S
H969 C981 0.930 . S
H970 C983 0.930 . S
H971 C984 0.930 . S
H972 C988 0.959 . S
H973 C988 0.959 . S
H974 C988 0.961 . S
H975 C989 0.960 . S
H976 C989 0.961 . S
H977 C989 0.959 . S
H978 C992 0.929 . S
H979 C993 0.931 . S
H980 C995 0.930 . S
C981 H969 0.930 . S
C981 C982 1.399 . S
C981 C986 1.399 . S
C982 C981 1.399 . S
C982 C983 1.376 . S
C983 H970 0.930 . S
C983 C982 1.376 . S
C983 C984 1.388 . S
C984 H971 0.930 . S
C984 C983 1.388 . S
C984 C985 1.390 . S
C985 C984 1.390 . S
C985 C986 1.394 . S
C985 C991 1.465 . S
C986 C981 1.399 . S
C986 C985 1.394 . S
C986 C987 1.516 . S
C987 C986 1.516 . S
C987 C988 1.502 . S
C987 C989 1.561 . S
C987 C990 1.526 . S
C988 H972 0.959 . S
C988 H973 0.959 . S
C988 H974 0.961 . S
C988 C987 1.502 . S
C989 H975 0.960 . S
C989 H976 0.961 . S
C989 H977 0.959 . S
C989 C987 1.561 . S
C990 C987 1.526 . S
C990 C991 1.396 . S
C990 C995 1.390 . S
C991 C985 1.465 . S
C991 C990 1.396 . S
C991 C992 1.399 . S
C992 H978 0.929 . S
C992 C991 1.399 . S
C992 C993 1.385 . S
C993 H979 0.931 . S
C993 C992 1.385 . S
C993 C994 1.389 . S
C994 C993 1.389 . S
C994 C995 1.387 . S
C995 H980 0.930 . S
C995 C990 1.390 . S
C995 C994 1.387 . S
H996 C1008 0.930 . S
H997 C1010 0.930 . S
H998 C1011 0.930 . S
H999 C1015 0.959 . S
H1000 C1015 0.959 . S
H1001 C1015 0.961 . S
H1002 C1016 0.960 . S
H1003 C1016 0.961 . S
H1004 C1016 0.959 . S
H1005 C1019 0.929 . S
H1006 C1020 0.931 . S
H1007 C1022 0.930 . S
C1008 H996 0.930 . S
C1008 C1009 1.399 . S
C1008 C1013 1.399 . S
C1009 C1008 1.399 . S
C1009 C1010 1.376 . S
C1010 H997 0.930 . S
C1010 C1009 1.376 . S
C1010 C1011 1.388 . S
C1011 H998 0.930 . S
C1011 C1010 1.388 . S
C1011 C1012 1.390 . S
C1012 C1011 1.390 . S
C1012 C1013 1.394 . S
C1012 C1018 1.465 . S
C1013 C1008 1.399 . S
C1013 C1012 1.394 . S
C1013 C1014 1.516 . S
C1014 C1013 1.516 . S
C1014 C1015 1.502 . S
C1014 C1016 1.561 . S
C1014 C1017 1.526 . S
C1015 H999 0.959 . S
C1015 H1000 0.959 . S
C1015 H1001 0.961 . S
C1015 C1014 1.502 . S
C1016 H1002 0.960 . S
C1016 H1003 0.961 . S
C1016 H1004 0.959 . S
C1016 C1014 1.561 . S
C1017 C1014 1.526 . S
C1017 C1018 1.396 . S
C1017 C1022 1.390 . S
C1018 C1012 1.465 . S
C1018 C1017 1.396 . S
C1018 C1019 1.399 . S
C1019 H1005 0.929 . S
C1019 C1018 1.399 . S
C1019 C1020 1.385 . S
C1020 H1006 0.931 . S
C1020 C1019 1.385 . S
C1020 C1021 1.389 . S
C1021 C1020 1.389 . S
C1021 C1022 1.387 . S
C1022 H1007 0.930 . S
C1022 C1017 1.390 . S
C1022 C1021 1.387 . S
H1023 C1035 0.930 . S
H1024 C1037 0.930 . S
H1025 C1038 0.930 . S
H1026 C1042 0.959 . S
H1027 C1042 0.959 . S
H1028 C1042 0.961 . S
H1029 C1043 0.960 . S
H1030 C1043 0.961 . S
H1031 C1043 0.959 . S
H1032 C1046 0.929 . S
H1033 C1047 0.931 . S
H1034 C1049 0.930 . S
C1035 H1023 0.930 . S
C1035 C1036 1.399 . S
C1035 C1040 1.399 . S
C1036 C1035 1.399 . S
C1036 C1037 1.376 . S
C1037 H1024 0.930 . S
C1037 C1036 1.376 . S
C1037 C1038 1.388 . S
C1038 H1025 0.930 . S
C1038 C1037 1.388 . S
C1038 C1039 1.390 . S
C1039 C1038 1.390 . S
C1039 C1040 1.394 . S
C1039 C1045 1.465 . S
C1040 C1035 1.399 . S
C1040 C1039 1.394 . S
C1040 C1041 1.516 . S
C1041 C1040 1.516 . S
C1041 C1042 1.502 . S
C1041 C1043 1.561 . S
C1041 C1044 1.526 . S
C1042 H1026 0.959 . S
C1042 H1027 0.959 . S
C1042 H1028 0.961 . S
C1042 C1041 1.502 . S
C1043 H1029 0.960 . S
C1043 H1030 0.961 . S
C1043 H1031 0.959 . S
C1043 C1041 1.561 . S
C1044 C1041 1.526 . S
C1044 C1045 1.396 . S
C1044 C1049 1.390 . S
C1045 C1039 1.465 . S
C1045 C1044 1.396 . S
C1045 C1046 1.399 . S
C1046 H1032 0.929 . S
C1046 C1045 1.399 . S
C1046 C1047 1.385 . S
C1047 H1033 0.931 . S
C1047 C1046 1.385 . S
C1047 C1048 1.389 . S
C1048 C1047 1.389 . S
C1048 C1049 1.387 . S
C1049 H1034 0.930 . S
C1049 C1044 1.390 . S
C1049 C1048 1.387 . S
H1050 C1062 0.930 . S
H1051 C1064 0.930 . S
H1052 C1065 0.930 . S
H1053 C1069 0.959 . S
H1054 C1069 0.959 . S
H1055 C1069 0.961 . S
H1056 C1070 0.960 . S
H1057 C1070 0.961 . S
H1058 C1070 0.959 . S
H1059 C1073 0.929 . S
H1060 C1074 0.931 . S
H1061 C1076 0.930 . S
C1062 H1050 0.930 . S
C1062 C1063 1.399 . S
C1062 C1067 1.399 . S
C1063 C1062 1.399 . S
C1063 C1064 1.376 . S
C1064 H1051 0.930 . S
C1064 C1063 1.376 . S
C1064 C1065 1.388 . S
C1065 H1052 0.930 . S
C1065 C1064 1.388 . S
C1065 C1066 1.390 . S
C1066 C1065 1.390 . S
C1066 C1067 1.394 . S
C1066 C1072 1.465 . S
C1067 C1062 1.399 . S
C1067 C1066 1.394 . S
C1067 C1068 1.516 . S
C1068 C1067 1.516 . S
C1068 C1069 1.502 . S
C1068 C1070 1.561 . S
C1068 C1071 1.526 . S
C1069 H1053 0.959 . S
C1069 H1054 0.959 . S
C1069 H1055 0.961 . S
C1069 C1068 1.502 . S
C1070 H1056 0.960 . S
C1070 H1057 0.961 . S
C1070 H1058 0.959 . S
C1070 C1068 1.561 . S
C1071 C1068 1.526 . S
C1071 C1072 1.396 . S
C1071 C1076 1.390 . S
C1072 C1066 1.465 . S
C1072 C1071 1.396 . S
C1072 C1073 1.399 . S
C1073 H1059 0.929 . S
C1073 C1072 1.399 . S
C1073 C1074 1.385 . S
C1074 H1060 0.931 . S
C1074 C1073 1.385 . S
C1074 C1075 1.389 . S
C1075 C1074 1.389 . S
C1075 C1076 1.387 . S
C1076 H1061 0.930 . S
C1076 C1071 1.390 . S
C1076 C1075 1.387 . S
H1077 C1089 0.930 . S
H1078 C1091 0.930 . S
H1079 C1092 0.930 . S
H1080 C1096 0.959 . S
H1081 C1096 0.959 . S
H1082 C1096 0.961 . S
H1083 C1097 0.960 . S
H1084 C1097 0.961 . S
H1085 C1097 0.959 . S
H1086 C1100 0.929 . S
H1087 C1101 0.931 . S
H1088 C1103 0.930 . S
C1089 H1077 0.930 . S
C1089 C1090 1.399 . S
C1089 C1094 1.399 . S
C1090 C1089 1.399 . S
C1090 C1091 1.376 . S
C1091 H1078 0.930 . S
C1091 C1090 1.376 . S
C1091 C1092 1.388 . S
C1092 H1079 0.930 . S
C1092 C1091 1.388 . S
C1092 C1093 1.390 . S
C1093 C1092 1.390 . S
C1093 C1094 1.394 . S
C1093 C1099 1.465 . S
C1094 C1089 1.399 . S
C1094 C1093 1.394 . S
C1094 C1095 1.516 . S
C1095 C1094 1.516 . S
C1095 C1096 1.502 . S
C1095 C1097 1.561 . S
C1095 C1098 1.526 . S
C1096 H1080 0.959 . S
C1096 H1081 0.959 . S
C1096 H1082 0.961 . S
C1096 C1095 1.502 . S
C1097 H1083 0.960 . S
C1097 H1084 0.961 . S
C1097 H1085 0.959 . S
C1097 C1095 1.561 . S
C1098 C1095 1.526 . S
C1098 C1099 1.396 . S
C1098 C1103 1.390 . S
C1099 C1093 1.465 . S
C1099 C1098 1.396 . S
C1099 C1100 1.399 . S
C1100 H1086 0.929 . S
C1100 C1099 1.399 . S
C1100 C1101 1.385 . S
C1101 H1087 0.931 . S
C1101 C1100 1.385 . S
C1101 C1102 1.389 . S
C1102 C1101 1.389 . S
C1102 C1103 1.387 . S
C1103 H1088 0.930 . S
C1103 C1098 1.390 . S
C1103 C1102 1.387 . S
H1104 C1116 0.930 . S
H1105 C1118 0.930 . S
H1106 C1119 0.930 . S
H1107 C1123 0.959 . S
H1108 C1123 0.959 . S
H1109 C1123 0.961 . S
H1110 C1124 0.960 . S
H1111 C1124 0.961 . S
H1112 C1124 0.959 . S
H1113 C1127 0.929 . S
H1114 C1128 0.931 . S
H1115 C1130 0.930 . S
C1116 H1104 0.930 . S
C1116 C1117 1.399 . S
C1116 C1121 1.399 . S
C1117 C1116 1.399 . S
C1117 C1118 1.376 . S
C1118 H1105 0.930 . S
C1118 C1117 1.376 . S
C1118 C1119 1.388 . S
C1119 H1106 0.930 . S
C1119 C1118 1.388 . S
C1119 C1120 1.390 . S
C1120 C1119 1.390 . S
C1120 C1121 1.394 . S
C1120 C1126 1.465 . S
C1121 C1116 1.399 . S
C1121 C1120 1.394 . S
C1121 C1122 1.516 . S
C1122 C1121 1.516 . S
C1122 C1123 1.502 . S
C1122 C1124 1.561 . S
C1122 C1125 1.526 . S
C1123 H1107 0.959 . S
C1123 H1108 0.959 . S
C1123 H1109 0.961 . S
C1123 C1122 1.502 . S
C1124 H1110 0.960 . S
C1124 H1111 0.961 . S
C1124 H1112 0.959 . S
C1124 C1122 1.561 . S
C1125 C1122 1.526 . S
C1125 C1126 1.396 . S
C1125 C1130 1.390 . S
C1126 C1120 1.465 . S
C1126 C1125 1.396 . S
C1126 C1127 1.399 . S
C1127 H1113 0.929 . S
C1127 C1126 1.399 . S
C1127 C1128 1.385 . S
C1128 H1114 0.931 . S
C1128 C1127 1.385 . S
C1128 C1129 1.389 . S
C1129 C1128 1.389 . S
C1129 C1130 1.387 . S
C1130 H1115 0.930 . S
C1130 C1125 1.390 . S
C1130 C1129 1.387 . S
H1131 C1143 0.930 . S
H1132 C1145 0.930 . S
H1133 C1146 0.930 . S
H1134 C1150 0.959 . S
H1135 C1150 0.959 . S
H1136 C1150 0.961 . S
H1137 C1151 0.960 . S
H1138 C1151 0.961 . S
H1139 C1151 0.959 . S
H1140 C1154 0.929 . S
H1141 C1155 0.931 . S
H1142 C1157 0.930 . S
C1143 H1131 0.930 . S
C1143 C1144 1.399 . S
C1143 C1148 1.399 . S
C1144 C1143 1.399 . S
C1144 C1145 1.376 . S
C1145 H1132 0.930 . S
C1145 C1144 1.376 . S
C1145 C1146 1.388 . S
C1146 H1133 0.930 . S
C1146 C1145 1.388 . S
C1146 C1147 1.390 . S
C1147 C1146 1.390 . S
C1147 C1148 1.394 . S
C1147 C1153 1.465 . S
C1148 C1143 1.399 . S
C1148 C1147 1.394 . S
C1148 C1149 1.516 . S
C1149 C1148 1.516 . S
C1149 C1150 1.502 . S
C1149 C1151 1.561 . S
C1149 C1152 1.526 . S
C1150 H1134 0.959 . S
C1150 H1135 0.959 . S
C1150 H1136 0.961 . S
C1150 C1149 1.502 . S
C1151 H1137 0.960 . S
C1151 H1138 0.961 . S
C1151 H1139 0.959 . S
C1151 C1149 1.561 . S
C1152 C1149 1.526 . S
C1152 C1153 1.396 . S
C1152 C1157 1.390 . S
C1153 C1147 1.465 . S
C1153 C1152 1.396 . S
C1153 C1154 1.399 . S
C1154 H1140 0.929 . S
C1154 C1153 1.399 . S
C1154 C1155 1.385 . S
C1155 H1141 0.931 . S
C1155 C1154 1.385 . S
C1155 C1156 1.389 . S
C1156 C1155 1.389 . S
C1156 C1157 1.387 . S
C1157 H1142 0.930 . S
C1157 C1152 1.390 . S
C1157 C1156 1.387 . S
H1158 C1170 0.930 . S
H1159 C1172 0.930 . S
H1160 C1173 0.930 . S
H1161 C1177 0.959 . S
H1162 C1177 0.959 . S
H1163 C1177 0.961 . S
H1164 C1178 0.960 . S
H1165 C1178 0.961 . S
H1166 C1178 0.959 . S
H1167 C1181 0.929 . S
H1168 C1182 0.931 . S
H1169 C1184 0.930 . S
C1170 H1158 0.930 . S
C1170 C1171 1.399 . S
C1170 C1175 1.399 . S
C1171 C1170 1.399 . S
C1171 C1172 1.376 . S
C1172 H1159 0.930 . S
C1172 C1171 1.376 . S
C1172 C1173 1.388 . S
C1173 H1160 0.930 . S
C1173 C1172 1.388 . S
C1173 C1174 1.390 . S
C1174 C1173 1.390 . S
C1174 C1175 1.394 . S
C1174 C1180 1.465 . S
C1175 C1170 1.399 . S
C1175 C1174 1.394 . S
C1175 C1176 1.516 . S
C1176 C1175 1.516 . S
C1176 C1177 1.502 . S
C1176 C1178 1.561 . S
C1176 C1179 1.526 . S
C1177 H1161 0.959 . S
C1177 H1162 0.959 . S
C1177 H1163 0.961 . S
C1177 C1176 1.502 . S
C1178 H1164 0.960 . S
C1178 H1165 0.961 . S
C1178 H1166 0.959 . S
C1178 C1176 1.561 . S
C1179 C1176 1.526 . S
C1179 C1180 1.396 . S
C1179 C1184 1.390 . S
C1180 C1174 1.465 . S
C1180 C1179 1.396 . S
C1180 C1181 1.399 . S
C1181 H1167 0.929 . S
C1181 C1180 1.399 . S
C1181 C1182 1.385 . S
C1182 H1168 0.931 . S
C1182 C1181 1.385 . S
C1182 C1183 1.389 . S
C1183 C1182 1.389 . S
C1183 C1184 1.387 . S
C1184 H1169 0.930 . S
C1184 C1179 1.390 . S
C1184 C1183 1.387 . S
H1185 C1197 0.930 . S
H1186 C1199 0.930 . S
H1187 C1200 0.930 . S
H1188 C1204 0.959 . S
H1189 C1204 0.959 . S
H1190 C1204 0.961 . S
H1191 C1205 0.960 . S
H1192 C1205 0.961 . S
H1193 C1205 0.959 . S
H1194 C1208 0.929 . S
H1195 C1209 0.931 . S
H1196 C1211 0.930 . S
C1197 H1185 0.930 . S
C1197 C1198 1.399 . S
C1197 C1202 1.399 . S
C1198 C1197 1.399 . S
C1198 C1199 1.376 . S
C1199 H1186 0.930 . S
C1199 C1198 1.376 . S
C1199 C1200 1.388 . S
C1200 H1187 0.930 . S
C1200 C1199 1.388 . S
C1200 C1201 1.390 . S
C1201 C1200 1.390 . S
C1201 C1202 1.394 . S
C1201 C1207 1.465 . S
C1202 C1197 1.399 . S
C1202 C1201 1.394 . S
C1202 C1203 1.516 . S
C1203 C1202 1.516 . S
C1203 C1204 1.502 . S
C1203 C1205 1.561 . S
C1203 C1206 1.526 . S
C1204 H1188 0.959 . S
C1204 H1189 0.959 . S
C1204 H1190 0.961 . S
C1204 C1203 1.502 . S
C1205 H1191 0.960 . S
C1205 H1192 0.961 . S
C1205 H1193 0.959 . S
C1205 C1203 1.561 . S
C1206 C1203 1.526 . S
C1206 C1207 1.396 . S
C1206 C1211 1.390 . S
C1207 C1201 1.465 . S
C1207 C1206 1.396 . S
C1207 C1208 1.399 . S
C1208 H1194 0.929 . S
C1208 C1207 1.399 . S
C1208 C1209 1.385 . S
C1209 H1195 0.931 . S
C1209 C1208 1.385 . S
C1209 C1210 1.389 . S
C1210 C1209 1.389 . S
C1210 C1211 1.387 . S
C1211 H1196 0.930 . S
C1211 C1206 1.390 . S
C1211 C1210 1.387 . S
H1212 C1224 0.930 . S
H1213 C1226 0.930 . S
H1214 C1227 0.930 . S
H1215 C1231 0.959 . S
H1216 C1231 0.959 . S
H1217 C1231 0.961 . S
H1218 C1232 0.960 . S
H1219 C1232 0.961 . S
H1220 C1232 0.959 . S
H1221 C1235 0.929 . S
H1222 C1236 0.931 . S
H1223 C1238 0.930 . S
C1224 H1212 0.930 . S
C1224 C1225 1.399 . S
C1224 C1229 1.399 . S
C1225 C1224 1.399 . S
C1225 C1226 1.376 . S
C1226 H1213 0.930 . S
C1226 C1225 1.376 . S
C1226 C1227 1.388 . S
C1227 H1214 0.930 . S
C1227 C1226 1.388 . S
C1227 C1228 1.390 . S
C1228 C1227 1.390 . S
C1228 C1229 1.394 . S
C1228 C1234 1.465 . S
C1229 C1224 1.399 . S
C1229 C1228 1.394 . S
C1229 C1230 1.516 . S
C1230 C1229 1.516 . S
C1230 C1231 1.502 . S
C1230 C1232 1.561 . S
C1230 C1233 1.526 . S
C1231 H1215 0.959 . S
C1231 H1216 0.959 . S
C1231 H1217 0.961 . S
C1231 C1230 1.502 . S
C1232 H1218 0.960 . S
C1232 H1219 0.961 . S
C1232 H1220 0.959 . S
C1232 C1230 1.561 . S
C1233 C1230 1.526 . S
C1233 C1234 1.396 . S
C1233 C1238 1.390 . S
C1234 C1228 1.465 . S
C1234 C1233 1.396 . S
C1234 C1235 1.399 . S
C1235 H1221 0.929 . S
C1235 C1234 1.399 . S
C1235 C1236 1.385 . S
C1236 H1222 0.931 . S
C1236 C1235 1.385 . S
C1236 C1237 1.389 . S
C1237 C1236 1.389 . S
C1237 C1238 1.387 . S
C1238 H1223 0.930 . S
C1238 C1233 1.390 . S
C1238 C1237 1.387 . S
H1239 C1251 0.930 . S
H1240 C1253 0.930 . S
H1241 C1254 0.930 . S
H1242 C1258 0.959 . S
H1243 C1258 0.959 . S
H1244 C1258 0.961 . S
H1245 C1259 0.960 . S
H1246 C1259 0.961 . S
H1247 C1259 0.959 . S
H1248 C1262 0.929 . S
H1249 C1263 0.931 . S
H1250 C1265 0.930 . S
C1251 H1239 0.930 . S
C1251 C1252 1.399 . S
C1251 C1256 1.399 . S
C1252 C1251 1.399 . S
C1252 C1253 1.376 . S
C1253 H1240 0.930 . S
C1253 C1252 1.376 . S
C1253 C1254 1.388 . S
C1254 H1241 0.930 . S
C1254 C1253 1.388 . S
C1254 C1255 1.390 . S
C1255 C1254 1.390 . S
C1255 C1256 1.394 . S
C1255 C1261 1.465 . S
C1256 C1251 1.399 . S
C1256 C1255 1.394 . S
C1256 C1257 1.516 . S
C1257 C1256 1.516 . S
C1257 C1258 1.502 . S
C1257 C1259 1.561 . S
C1257 C1260 1.526 . S
C1258 H1242 0.959 . S
C1258 H1243 0.959 . S
C1258 H1244 0.961 . S
C1258 C1257 1.502 . S
C1259 H1245 0.960 . S
C1259 H1246 0.961 . S
C1259 H1247 0.959 . S
C1259 C1257 1.561 . S
C1260 C1257 1.526 . S
C1260 C1261 1.396 . S
C1260 C1265 1.390 . S
C1261 C1255 1.465 . S
C1261 C1260 1.396 . S
C1261 C1262 1.399 . S
C1262 H1248 0.929 . S
C1262 C1261 1.399 . S
C1262 C1263 1.385 . S
C1263 H1249 0.931 . S
C1263 C1262 1.385 . S
C1263 C1264 1.389 . S
C1264 C1263 1.389 . S
C1264 C1265 1.387 . S
C1265 H1250 0.930 . S
C1265 C1260 1.390 . S
C1265 C1264 1.387 . S
H1266 C1278 0.930 . S
H1267 C1280 0.930 . S
H1268 C1281 0.930 . S
H1269 C1285 0.959 . S
H1270 C1285 0.959 . S
H1271 C1285 0.961 . S
H1272 C1286 0.960 . S
H1273 C1286 0.961 . S
H1274 C1286 0.959 . S
H1275 C1289 0.929 . S
H1276 C1290 0.931 . S
H1277 C1292 0.930 . S
C1278 H1266 0.930 . S
C1278 C1279 1.399 . S
C1278 C1283 1.399 . S
C1279 C1278 1.399 . S
C1279 C1280 1.376 . S
C1280 H1267 0.930 . S
C1280 C1279 1.376 . S
C1280 C1281 1.388 . S
C1281 H1268 0.930 . S
C1281 C1280 1.388 . S
C1281 C1282 1.390 . S
C1282 C1281 1.390 . S
C1282 C1283 1.394 . S
C1282 C1288 1.465 . S
C1283 C1278 1.399 . S
C1283 C1282 1.394 . S
C1283 C1284 1.516 . S
C1284 C1283 1.516 . S
C1284 C1285 1.502 . S
C1284 C1286 1.561 . S
C1284 C1287 1.526 . S
C1285 H1269 0.959 . S
C1285 H1270 0.959 . S
C1285 H1271 0.961 . S
C1285 C1284 1.502 . S
C1286 H1272 0.960 . S
C1286 H1273 0.961 . S
C1286 H1274 0.959 . S
C1286 C1284 1.561 . S
C1287 C1284 1.526 . S
C1287 C1288 1.396 . S
C1287 C1292 1.390 . S
C1288 C1282 1.465 . S
C1288 C1287 1.396 . S
C1288 C1289 1.399 . S
C1289 H1275 0.929 . S
C1289 C1288 1.399 . S
C1289 C1290 1.385 . S
C1290 H1276 0.931 . S
C1290 C1289 1.385 . S
C1290 C1291 1.389 . S
C1291 C1290 1.389 . S
C1291 C1292 1.387 . S
C1292 H1277 0.930 . S
C1292 C1287 1.390 . S
C1292 C1291 1.387 . S
H1293 C1305 0.930 . S
H1294 C1307 0.930 . S
H1295 C1308 0.930 . S
H1296 C1312 0.959 . S
H1297 C1312 0.959 . S
H1298 C1312 0.961 . S
H1299 C1313 0.960 . S
H1300 C1313 0.961 . S
H1301 C1313 0.959 . S
H1302 C1316 0.929 . S
H1303 C1317 0.931 . S
H1304 C1319 0.930 . S
C1305 H1293 0.930 . S
C1305 C1306 1.399 . S
C1305 C1310 1.399 . S
C1306 C1305 1.399 . S
C1306 C1307 1.376 . S
C1307 H1294 0.930 . S
C1307 C1306 1.376 . S
C1307 C1308 1.388 . S
C1308 H1295 0.930 . S
C1308 C1307 1.388 . S
C1308 C1309 1.390 . S
C1309 C1308 1.390 . S
C1309 C1310 1.394 . S
C1309 C1315 1.465 . S
C1310 C1305 1.399 . S
C1310 C1309 1.394 . S
C1310 C1311 1.516 . S
C1311 C1310 1.516 . S
C1311 C1312 1.502 . S
C1311 C1313 1.561 . S
C1311 C1314 1.526 . S
C1312 H1296 0.959 . S
C1312 H1297 0.959 . S
C1312 H1298 0.961 . S
C1312 C1311 1.502 . S
C1313 H1299 0.960 . S
C1313 H1300 0.961 . S
C1313 H1301 0.959 . S
C1313 C1311 1.561 . S
C1314 C1311 1.526 . S
C1314 C1315 1.396 . S
C1314 C1319 1.390 . S
C1315 C1309 1.465 . S
C1315 C1314 1.396 . S
C1315 C1316 1.399 . S
C1316 H1302 0.929 . S
C1316 C1315 1.399 . S
C1316 C1317 1.385 . S
C1317 H1303 0.931 . S
C1317 C1316 1.385 . S
C1317 C1318 1.389 . S
C1318 C1317 1.389 . S
C1318 C1319 1.387 . S
C1319 H1304 0.930 . S
C1319 C1314 1.390 . S
C1319 C1318 1.387 . S
H1320 C1332 0.930 1_455 S
H1321 C1334 0.930 . S
H1322 C1335 0.930 . S
H1323 C1339 0.959 . S
H1324 C1339 0.959 . S
H1325 C1339 0.961 . S
H1326 C1340 0.960 . S
H1327 C1340 0.961 1_455 S
H1328 C1340 0.959 . S
H1329 C1343 0.929 . S
H1330 C1344 0.934 . S
H1331 C1346 0.930 . S
C1332 H1320 0.930 1_655 S
C1332 C1333 1.399 . S
C1332 C1337 1.399 . S
C1333 C1332 1.399 . S
C1333 C1334 1.376 . S
C1334 H1321 0.930 . S
C1334 C1333 1.376 . S
C1334 C1335 1.388 . S
C1335 H1322 0.930 . S
C1335 C1334 1.388 . S
C1335 C1336 1.390 . S
C1336 C1335 1.390 . S
C1336 C1337 1.394 . S
C1336 C1342 1.465 . S
C1337 C1332 1.399 . S
C1337 C1336 1.394 . S
C1337 C1338 1.516 1_655 S
C1338 C1337 1.516 1_455 S
C1338 C1339 1.502 . S
C1338 C1340 1.561 1_455 S
C1338 C1341 1.526 . S
C1339 H1323 0.959 . S
C1339 H1324 0.959 . S
C1339 H1325 0.961 . S
C1339 C1338 1.502 . S
C1340 H1326 0.960 . S
C1340 H1327 0.961 1_655 S
C1340 H1328 0.959 . S
C1340 C1338 1.561 1_655 S
C1341 C1338 1.526 . S
C1341 C1342 1.396 1_455 S
C1341 C1346 1.390 . S
C1342 C1336 1.465 . S
C1342 C1341 1.396 1_655 S
C1342 C1343 1.399 . S
C1343 H1329 0.929 . S
C1343 C1342 1.399 . S
C1343 C1344 1.385 1_655 S
C1344 H1330 0.934 . S
C1344 C1343 1.385 1_455 S
C1344 C1345 1.389 . S
C1345 C1344 1.389 . S
C1345 C1346 1.387 . S
C1346 H1331 0.930 . S
C1346 C1341 1.390 . S
C1346 C1345 1.387 . S
H1347 C1359 0.930 . S
H1348 C1361 0.930 . S
H1349 C1362 0.930 . S
H1350 C1366 0.959 . S
H1351 C1366 0.959 . S
H1352 C1366 0.961 . S
H1353 C1367 0.960 . S
H1354 C1367 0.961 . S
H1355 C1367 0.959 . S
H1356 C1370 0.929 . S
H1357 C1371 0.931 . S
H1358 C1373 0.930 . S
C1359 H1347 0.930 . S
C1359 C1360 1.399 1_545 S
C1359 C1364 1.399 . S
C1360 C1359 1.399 1_565 S
C1360 C1361 1.376 . S
C1361 H1348 0.930 . S
C1361 C1360 1.376 . S
C1361 C1362 1.388 . S
C1362 H1349 0.930 . S
C1362 C1361 1.388 . S
C1362 C1363 1.390 . S
C1363 C1362 1.390 . S
C1363 C1364 1.394 1_565 S
C1363 C1369 1.465 . S
C1364 C1359 1.399 . S
C1364 C1363 1.394 1_545 S
C1364 C1365 1.516 . S
C1365 C1364 1.516 . S
C1365 C1366 1.502 . S
C1365 C1367 1.561 . S
C1365 C1368 1.526 . S
C1366 H1350 0.959 . S
C1366 H1351 0.959 . S
C1366 H1352 0.961 . S
C1366 C1365 1.502 . S
C1367 H1353 0.960 . S
C1367 H1354 0.961 . S
C1367 H1355 0.959 . S
C1367 C1365 1.561 . S
C1368 C1365 1.526 . S
C1368 C1369 1.396 1_545 S
C1368 C1373 1.390 . S
C1369 C1363 1.465 . S
C1369 C1368 1.396 1_565 S
C1369 C1370 1.399 . S
C1370 H1356 0.929 . S
C1370 C1369 1.399 . S
C1370 C1371 1.385 . S
C1371 H1357 0.931 . S
C1371 C1370 1.385 . S
C1371 C1372 1.389 1_565 S
C1372 C1371 1.389 1_545 S
C1372 C1373 1.387 . S
C1373 H1358 0.930 . S
C1373 C1368 1.390 . S
C1373 C1372 1.387 . S
H1374 C1386 0.930 . S
H1375 C1388 0.930 . S
H1376 C1389 0.930 . S
H1377 C1393 0.959 . S
H1378 C1393 0.959 . S
H1379 C1393 0.961 . S
H1380 C1394 0.960 . S
H1381 C1394 0.961 . S
H1382 C1394 0.959 1_455 S
H1383 C1397 0.929 . S
H1384 C1398 0.931 . S
H1385 C1400 0.930 1_655 S
C1386 H1374 0.930 . S
C1386 C1387 1.399 . S
C1386 C1391 1.399 . S
C1387 C1386 1.399 . S
C1387 C1388 1.376 1_655 S
C1388 H1375 0.930 . S
C1388 C1387 1.376 1_455 S
C1388 C1389 1.388 . S
C1389 H1376 0.930 . S
C1389 C1388 1.388 . S
C1389 C1390 1.390 . S
C1390 C1389 1.390 . S
C1390 C1391 1.394 1_455 S
C1390 C1396 1.465 . S
C1391 C1386 1.399 . S
C1391 C1390 1.394 1_655 S
C1391 C1392 1.516 . S
C1392 C1391 1.516 . S
C1392 C1393 1.502 . S
C1392 C1394 1.561 . S
C1392 C1395 1.504 1_655 S
C1393 H1377 0.959 . S
C1393 H1378 0.959 . S
C1393 H1379 0.961 . S
C1393 C1392 1.502 . S
C1394 H1380 0.960 . S
C1394 H1381 0.961 . S
C1394 H1382 0.959 1_655 S
C1394 C1392 1.561 . S
C1395 C1392 1.504 1_455 S
C1395 C1396 1.416 . S
C1395 C1400 1.395 . S
C1396 C1390 1.465 . S
C1396 C1395 1.416 . S
C1396 C1397 1.399 . S
C1397 H1383 0.929 . S
C1397 C1396 1.399 . S
C1397 C1398 1.385 . S
C1398 H1384 0.931 . S
C1398 C1397 1.385 . S
C1398 C1399 1.389 . S
C1399 C1398 1.389 . S
C1399 C1400 1.387 . S
C1400 H1385 0.930 1_455 S
C1400 C1395 1.395 . S
C1400 C1399 1.387 . S
H1401 C1413 0.930 . S
H1402 C1415 0.930 . S
H1403 C1416 0.930 . S
H1404 C1420 0.959 . S
H1405 C1420 0.959 . S
H1406 C1420 0.961 . S
H1407 C1421 0.960 . S
H1408 C1421 0.961 . S
H1409 C1421 0.959 . S
H1410 C1424 0.929 . S
H1411 C1425 0.931 . S
H1412 C1427 0.930 . S
C1413 H1401 0.930 . S
C1413 C1414 1.399 . S
C1413 C1418 1.399 . S
C1414 C1413 1.399 . S
C1414 C1415 1.376 . S
C1415 H1402 0.930 . S
C1415 C1414 1.376 . S
C1415 C1416 1.388 . S
C1416 H1403 0.930 . S
C1416 C1415 1.388 . S
C1416 C1417 1.390 . S
C1417 C1416 1.390 . S
C1417 C1418 1.394 . S
C1417 C1423 1.465 1_545 S
C1418 C1413 1.399 . S
C1418 C1417 1.394 . S
C1418 C1419 1.516 . S
C1419 C1418 1.516 . S
C1419 C1420 1.502 1_545 S
C1419 C1421 1.561 . S
C1419 C1422 1.526 1_545 S
C1420 H1404 0.959 . S
C1420 H1405 0.959 . S
C1420 H1406 0.961 . S
C1420 C1419 1.502 1_565 S
C1421 H1407 0.960 . S
C1421 H1408 0.961 . S
C1421 H1409 0.959 . S
C1421 C1419 1.561 . S
C1422 C1419 1.526 1_565 S
C1422 C1423 1.396 . S
C1422 C1427 1.390 . S
C1423 C1417 1.465 1_565 S
C1423 C1422 1.396 . S
C1423 C1424 1.399 . S
C1424 H1410 0.929 . S
C1424 C1423 1.399 . S
C1424 C1425 1.385 . S
C1425 H1411 0.931 . S
C1425 C1424 1.385 . S
C1425 C1426 1.389 . S
C1426 C1425 1.389 . S
C1426 C1427 1.387 . S
C1427 H1412 0.930 . S
C1427 C1422 1.390 . S
C1427 C1426 1.387 . S
H1428 C1440 0.930 . S
H1429 C1442 0.930 . S
H1430 C1443 0.930 . S
H1431 C1447 0.959 . S
H1432 C1447 0.959 . S
H1433 C1447 0.961 . S
H1434 C1448 0.960 . S
H1435 C1448 0.961 . S
H1436 C1448 0.959 . S
H1437 C1451 0.929 . S
H1438 C1452 0.931 . S
H1439 C1454 0.930 . S
C1440 H1428 0.930 . S
C1440 C1441 1.399 . S
C1440 C1445 1.399 . S
C1441 C1440 1.399 . S
C1441 C1442 1.376 . S
C1442 H1429 0.930 . S
C1442 C1441 1.376 . S
C1442 C1443 1.388 1_455 S
C1443 H1430 0.930 . S
C1443 C1442 1.388 1_655 S
C1443 C1444 1.390 . S
C1444 C1443 1.390 . S
C1444 C1445 1.394 1_655 S
C1444 C1450 1.465 . S
C1445 C1440 1.399 . S
C1445 C1444 1.394 1_455 S
C1445 C1446 1.516 . S
C1446 C1445 1.516 . S
C1446 C1447 1.502 . S
C1446 C1448 1.561 1_455 S
C1446 C1449 1.526 1_455 S
C1447 H1431 0.959 . S
C1447 H1432 0.959 . S
C1447 H1433 0.961 . S
C1447 C1446 1.502 . S
C1448 H1434 0.960 . S
C1448 H1435 0.961 . S
C1448 H1436 0.959 . S
C1448 C1446 1.561 1_655 S
C1449 C1446 1.526 1_655 S
C1449 C1450 1.396 . S
C1449 C1454 1.390 . S
C1450 C1444 1.465 . S
C1450 C1449 1.396 . S
C1450 C1451 1.399 . S
C1451 H1437 0.929 . S
C1451 C1450 1.399 . S
C1451 C1452 1.385 . S
C1452 H1438 0.931 . S
C1452 C1451 1.385 . S
C1452 C1453 1.389 . S
C1453 C1452 1.389 . S
C1453 C1454 1.387 . S
C1454 H1439 0.930 . S
C1454 C1449 1.390 . S
C1454 C1453 1.387 . S
H1455 C1467 0.930 . S
H1456 C1469 0.930 . S
H1457 C1470 0.930 . S
H1458 C1474 0.959 . S
H1459 C1474 0.959 . S
H1460 C1474 0.961 . S
H1461 C1475 0.960 . S
H1462 C1475 0.961 . S
H1463 C1475 0.959 . S
H1464 C1478 0.929 . S
H1465 C1479 0.931 . S
H1466 C1481 0.930 . S
C1467 H1455 0.930 . S
C1467 C1468 1.399 . S
C1467 C1472 1.399 . S
C1468 C1467 1.399 . S
C1468 C1469 1.376 1_565 S
C1469 H1456 0.930 . S
C1469 C1468 1.376 1_545 S
C1469 C1470 1.388 . S
C1470 H1457 0.930 . S
C1470 C1469 1.388 . S
C1470 C1471 1.390 . S
C1471 C1470 1.390 . S
C1471 C1472 1.394 1_545 S
C1471 C1477 1.465 . S
C1472 C1467 1.399 . S
C1472 C1471 1.394 1_565 S
C1472 C1473 1.516 . S
C1473 C1472 1.516 . S
C1473 C1474 1.502 . S
C1473 C1475 1.561 . S
C1473 C1476 1.526 . S
C1474 H1458 0.959 . S
C1474 H1459 0.959 . S
C1474 H1460 0.961 . S
C1474 C1473 1.502 . S
C1475 H1461 0.960 . S
C1475 H1462 0.961 . S
C1475 H1463 0.959 . S
C1475 C1473 1.561 . S
C1476 C1473 1.526 . S
C1476 C1477 1.396 1_565 S
C1476 C1481 1.390 . S
C1477 C1471 1.465 . S
C1477 C1476 1.396 1_545 S
C1477 C1478 1.399 . S
C1478 H1464 0.929 . S
C1478 C1477 1.399 . S
C1478 C1479 1.385 . S
C1479 H1465 0.931 . S
C1479 C1478 1.385 . S
C1479 C1480 1.389 . S
C1480 C1479 1.389 . S
C1480 C1481 1.387 1_545 S
C1481 H1466 0.930 . S
C1481 C1476 1.390 . S
C1481 C1480 1.387 1_565 S
H1482 C1494 0.930 . S
H1483 C1496 0.930 . S
H1484 C1497 0.930 . S
H1485 C1501 0.959 . S
H1486 C1501 0.959 . S
H1487 C1501 0.961 . S
H1488 C1502 0.960 . S
H1489 C1502 0.961 . S
H1490 C1502 0.959 . S
H1491 C1505 0.929 . S
H1492 C1506 0.931 . S
H1493 C1508 0.930 . S
C1494 H1482 0.930 . S
C1494 C1495 1.399 1_655 S
C1494 C1499 1.399 . S
C1495 C1494 1.399 1_455 S
C1495 C1496 1.376 . S
C1496 H1483 0.930 . S
C1496 C1495 1.376 . S
C1496 C1497 1.388 . S
C1497 H1484 0.930 . S
C1497 C1496 1.388 . S
C1497 C1498 1.390 . S
C1498 C1497 1.390 . S
C1498 C1499 1.394 1_455 S
C1498 C1504 1.465 . S
C1499 C1494 1.399 . S
C1499 C1498 1.394 1_655 S
C1499 C1500 1.516 . S
C1500 C1499 1.516 . S
C1500 C1501 1.502 . S
C1500 C1502 1.561 . S
C1500 C1503 1.526 . S
C1501 H1485 0.959 . S
C1501 H1486 0.959 . S
C1501 H1487 0.961 . S
C1501 C1500 1.502 . S
C1502 H1488 0.960 . S
C1502 H1489 0.961 . S
C1502 H1490 0.959 . S
C1502 C1500 1.561 . S
C1503 C1500 1.526 . S
C1503 C1504 1.396 1_655 S
C1503 C1508 1.390 . S
C1504 C1498 1.465 . S
C1504 C1503 1.396 1_455 S
C1504 C1505 1.399 . S
C1505 H1491 0.929 . S
C1505 C1504 1.399 . S
C1505 C1506 1.385 . S
C1506 H1492 0.931 . S
C1506 C1505 1.385 . S
C1506 C1507 1.389 1_455 S
C1507 C1506 1.389 1_655 S
C1507 C1508 1.387 . S
C1508 H1493 0.930 . S
C1508 C1503 1.390 . S
C1508 C1507 1.387 . S
H1509 C1521 0.930 . S
H1510 C1523 0.930 . S
H1511 C1524 0.930 . S
H1512 C1528 0.959 1_565 S
H1513 C1528 0.959 . S
H1514 C1528 0.961 . S
H1515 C1529 0.960 . S
H1516 C1529 0.961 . S
H1517 C1529 0.959 . S
H1518 C1532 0.929 . S
H1519 C1533 0.931 . S
H1520 C1535 0.927 1_545 S
C1521 H1509 0.930 . S
C1521 C1522 1.399 . S
C1521 C1526 1.399 . S
C1522 C1521 1.399 . S
C1522 C1523 1.376 . S
C1523 H1510 0.930 . S
C1523 C1522 1.376 . S
C1523 C1524 1.388 1_545 S
C1524 H1511 0.930 . S
C1524 C1523 1.388 1_565 S
C1524 C1525 1.385 1_565 S
C1525 C1524 1.385 1_545 S
C1525 C1526 1.413 . S
C1525 C1531 1.454 1_545 S
C1526 C1521 1.399 . S
C1526 C1525 1.413 . S
C1526 C1527 1.516 . S
C1527 C1526 1.516 . S
C1527 C1528 1.502 . S
C1527 C1529 1.561 . S
C1527 C1530 1.543 . S
C1528 H1512 0.959 1_545 S
C1528 H1513 0.959 . S
C1528 H1514 0.961 . S
C1528 C1527 1.502 . S
C1529 H1515 0.960 . S
C1529 H1516 0.961 . S
C1529 H1517 0.959 . S
C1529 C1527 1.561 . S
C1530 C1527 1.543 . S
C1530 C1531 1.387 1_545 S
C1530 C1535 1.383 1_545 S
C1531 C1525 1.454 1_565 S
C1531 C1530 1.387 1_565 S
C1531 C1532 1.399 . S
C1532 H1518 0.929 . S
C1532 C1531 1.399 . S
C1532 C1533 1.385 . S
C1533 H1519 0.931 . S
C1533 C1532 1.385 . S
C1533 C1534 1.389 . S
C1534 C1533 1.389 . S
C1534 C1535 1.387 . S
C1535 H1520 0.927 1_565 S
C1535 C1530 1.383 1_565 S
C1535 C1534 1.387 . S
H1536 C1548 0.930 . S
H1537 C1550 0.930 . S
H1538 C1551 0.930 . S
H1539 C1555 0.959 . S
H1540 C1555 0.959 . S
H1541 C1555 0.961 . S
H1542 C1556 0.960 . S
H1543 C1556 0.961 . S
H1544 C1556 0.959 . S
H1545 C1559 0.929 . S
H1546 C1560 0.931 . S
H1547 C1562 0.939 . S
C1548 H1536 0.930 . S
C1548 C1549 1.399 . S
C1548 C1553 1.399 . S
C1549 C1548 1.399 . S
C1549 C1550 1.376 1_556 S
C1550 H1537 0.930 . S
C1550 C1549 1.376 1_554 S
C1550 C1551 1.388 . S
C1551 H1538 0.930 . S
C1551 C1550 1.388 . S
C1551 C1552 1.390 . S
C1552 C1551 1.390 . S
C1552 C1553 1.394 1_554 S
C1552 C1558 1.465 . S
C1553 C1548 1.399 . S
C1553 C1552 1.394 1_556 S
C1553 C1554 1.516 . S
C1554 C1553 1.516 . S
C1554 C1555 1.502 . S
C1554 C1556 1.561 . S
C1554 C1557 1.526 . S
C1555 H1539 0.959 . S
C1555 H1540 0.959 . S
C1555 H1541 0.961 . S
C1555 C1554 1.502 . S
C1556 H1542 0.960 . S
C1556 H1543 0.961 . S
C1556 H1544 0.959 . S
C1556 C1554 1.561 . S
C1557 C1554 1.526 . S
C1557 C1558 1.396 1_556 S
C1557 C1562 1.391 . S
C1558 C1552 1.465 . S
C1558 C1557 1.396 1_554 S
C1558 C1559 1.399 . S
C1559 H1545 0.929 . S
C1559 C1558 1.399 . S
C1559 C1560 1.385 . S
C1560 H1546 0.931 . S
C1560 C1559 1.385 . S
C1560 C1561 1.389 . S
C1561 C1560 1.389 . S
C1561 C1562 1.377 1_554 S
C1562 H1547 0.939 . S
C1562 C1557 1.391 . S
C1562 C1561 1.377 1_556 S
H1563 C1575 0.930 . S
H1564 C1577 0.930 . S
H1565 C1578 0.930 . S
H1566 C1582 0.959 . S
H1567 C1582 0.959 . S
H1568 C1582 0.961 . S
H1569 C1583 0.960 . S
H1570 C1583 0.961 . S
H1571 C1583 0.959 . S
H1572 C1586 0.929 . S
H1573 C1587 0.931 . S
H1574 C1589 0.930 . S
C1575 H1563 0.930 . S
C1575 C1576 1.399 . S
C1575 C1580 1.399 . S
C1576 C1575 1.399 . S
C1576 C1577 1.376 . S
C1577 H1564 0.930 . S
C1577 C1576 1.376 . S
C1577 C1578 1.388 . S
C1578 H1565 0.930 . S
C1578 C1577 1.388 . S
C1578 C1579 1.390 . S
C1579 C1578 1.390 . S
C1579 C1580 1.394 . S
C1579 C1585 1.465 1_554 S
C1580 C1575 1.399 . S
C1580 C1579 1.394 . S
C1580 C1581 1.516 . S
C1581 C1580 1.516 . S
C1581 C1582 1.502 1_554 S
C1581 C1583 1.561 . S
C1581 C1584 1.526 1_554 S
C1582 H1566 0.959 . S
C1582 H1567 0.959 . S
C1582 H1568 0.961 . S
C1582 C1581 1.502 1_556 S
C1583 H1569 0.960 . S
C1583 H1570 0.961 . S
C1583 H1571 0.959 . S
C1583 C1581 1.561 . S
C1584 C1581 1.526 1_556 S
C1584 C1585 1.396 . S
C1584 C1589 1.390 . S
C1585 C1579 1.465 1_556 S
C1585 C1584 1.396 . S
C1585 C1586 1.399 . S
C1586 H1572 0.929 . S
C1586 C1585 1.399 . S
C1586 C1587 1.385 . S
C1587 H1573 0.931 . S
C1587 C1586 1.385 . S
C1587 C1588 1.389 . S
C1588 C1587 1.389 . S
C1588 C1589 1.387 . S
C1589 H1574 0.930 . S
C1589 C1584 1.390 . S
C1589 C1588 1.387 . S
H1590 C1602 0.930 . S
H1591 C1604 0.930 . S
H1592 C1605 0.930 . S
H1593 C1609 0.959 . S
H1594 C1609 0.959 . S
H1595 C1609 0.961 . S
H1596 C1610 0.960 . S
H1597 C1610 0.961 . S
H1598 C1610 0.959 . S
H1599 C1613 0.929 . S
H1600 C1614 0.931 . S
H1601 C1616 0.930 . S
C1602 H1590 0.930 . S
C1602 C1603 1.399 . S
C1602 C1607 1.399 . S
C1603 C1602 1.399 . S
C1603 C1604 1.376 1_554 S
C1604 H1591 0.930 . S
C1604 C1603 1.376 1_556 S
C1604 C1605 1.388 . S
C1605 H1592 0.930 . S
C1605 C1604 1.388 . S
C1605 C1606 1.390 . S
C1606 C1605 1.390 . S
C1606 C1607 1.394 1_556 S
C1606 C1612 1.465 . S
C1607 C1602 1.399 . S
C1607 C1606 1.394 1_554 S
C1607 C1608 1.516 . S
C1608 C1607 1.516 . S
C1608 C1609 1.502 . S
C1608 C1610 1.561 . S
C1608 C1611 1.526 . S
C1609 H1593 0.959 . S
C1609 H1594 0.959 . S
C1609 H1595 0.961 . S
C1609 C1608 1.502 . S
C1610 H1596 0.960 . S
C1610 H1597 0.961 . S
C1610 H1598 0.959 . S
C1610 C1608 1.561 . S
C1611 C1608 1.526 . S
C1611 C1612 1.396 1_554 S
C1611 C1616 1.390 . S
C1612 C1606 1.465 . S
C1612 C1611 1.396 1_556 S
C1612 C1613 1.399 . S
C1613 H1599 0.929 . S
C1613 C1612 1.399 . S
C1613 C1614 1.385 . S
C1614 H1600 0.931 . S
C1614 C1613 1.385 . S
C1614 C1615 1.389 . S
C1615 C1614 1.389 . S
C1615 C1616 1.387 1_556 S
C1616 H1601 0.930 . S
C1616 C1611 1.390 . S
C1616 C1615 1.387 1_554 S
H1617 C1629 0.930 . S
H1618 C1631 0.930 . S
H1619 C1632 0.930 . S
H1620 C1636 0.959 . S
H1621 C1636 0.959 . S
H1622 C1636 0.961 . S
H1623 C1637 0.960 . S
H1624 C1637 0.961 . S
H1625 C1637 0.959 . S
H1626 C1640 0.929 . S
H1627 C1641 0.931 . S
H1628 C1643 0.930 . S
C1629 H1617 0.930 . S
C1629 C1630 1.399 1_554 S
C1629 C1634 1.399 . S
C1630 C1629 1.399 1_556 S
C1630 C1631 1.376 . S
C1631 H1618 0.930 . S
C1631 C1630 1.376 . S
C1631 C1632 1.388 . S
C1632 H1619 0.930 . S
C1632 C1631 1.388 . S
C1632 C1633 1.390 . S
C1633 C1632 1.390 . S
C1633 C1634 1.394 1_556 S
C1633 C1639 1.465 . S
C1634 C1629 1.399 . S
C1634 C1633 1.394 1_554 S
C1634 C1635 1.516 . S
C1635 C1634 1.516 . S
C1635 C1636 1.502 . S
C1635 C1637 1.561 . S
C1635 C1638 1.526 . S
C1636 H1620 0.959 . S
C1636 H1621 0.959 . S
C1636 H1622 0.961 . S
C1636 C1635 1.502 . S
C1637 H1623 0.960 . S
C1637 H1624 0.961 . S
C1637 H1625 0.959 . S
C1637 C1635 1.561 . S
C1638 C1635 1.526 . S
C1638 C1639 1.396 1_554 S
C1638 C1643 1.390 . S
C1639 C1633 1.465 . S
C1639 C1638 1.396 1_556 S
C1639 C1640 1.399 . S
C1640 H1626 0.929 . S
C1640 C1639 1.399 . S
C1640 C1641 1.385 . S
C1641 H1627 0.931 . S
C1641 C1640 1.385 . S
C1641 C1642 1.389 1_556 S
C1642 C1641 1.389 1_554 S
C1642 C1643 1.387 . S
C1643 H1628 0.930 . S
C1643 C1638 1.390 . S
C1643 C1642 1.387 . S
H1644 C1656 0.930 . S
H1645 C1658 0.930 . S
H1646 C1659 0.930 . S
H1647 C1663 0.959 . S
H1648 C1663 0.959 . S
H1649 C1663 0.961 . S
H1650 C1664 0.960 . S
H1651 C1664 0.961 . S
H1652 C1664 0.959 . S
H1653 C1667 0.929 . S
H1654 C1668 0.931 . S
H1655 C1670 0.930 . S
C1656 H1644 0.930 . S
C1656 C1657 1.399 . S
C1656 C1661 1.399 . S
C1657 C1656 1.399 . S
C1657 C1658 1.376 . S
C1658 H1645 0.930 . S
C1658 C1657 1.376 . S
C1658 C1659 1.388 . S
C1659 H1646 0.930 . S
C1659 C1658 1.388 . S
C1659 C1660 1.390 . S
C1660 C1659 1.390 . S
C1660 C1661 1.394 . S
C1660 C1666 1.465 . S
C1661 C1656 1.399 . S
C1661 C1660 1.394 . S
C1661 C1662 1.516 . S
C1662 C1661 1.516 . S
C1662 C1663 1.502 . S
C1662 C1664 1.561 . S
C1662 C1665 1.526 . S
C1663 H1647 0.959 . S
C1663 H1648 0.959 . S
C1663 H1649 0.961 . S
C1663 C1662 1.502 . S
C1664 H1650 0.960 . S
C1664 H1651 0.961 . S
C1664 H1652 0.959 . S
C1664 C1662 1.561 . S
C1665 C1662 1.526 . S
C1665 C1666 1.396 . S
C1665 C1670 1.390 . S
C1666 C1660 1.465 . S
C1666 C1665 1.396 . S
C1666 C1667 1.399 . S
C1667 H1653 0.929 . S
C1667 C1666 1.399 . S
C1667 C1668 1.385 . S
C1668 H1654 0.931 . S
C1668 C1667 1.385 . S
C1668 C1669 1.389 . S
C1669 C1668 1.389 . S
C1669 C1670 1.387 . S
C1670 H1655 0.930 . S
C1670 C1665 1.390 . S
C1670 C1669 1.387 . S
H1671 C1683 0.930 . S
H1672 C1685 0.930 . S
H1673 C1686 0.930 . S
H1674 C1690 0.959 . S
H1675 C1690 0.959 . S
H1676 C1690 0.961 . S
H1677 C1691 0.960 . S
H1678 C1691 0.961 . S
H1679 C1691 0.959 . S
H1680 C1694 0.929 . S
H1681 C1695 0.931 . S
H1682 C1697 0.930 . S
C1683 H1671 0.930 . S
C1683 C1684 1.399 . S
C1683 C1688 1.399 . S
C1684 C1683 1.399 . S
C1684 C1685 1.376 . S
C1685 H1672 0.930 . S
C1685 C1684 1.376 . S
C1685 C1686 1.388 . S
C1686 H1673 0.930 . S
C1686 C1685 1.388 . S
C1686 C1687 1.390 . S
C1687 C1686 1.390 . S
C1687 C1688 1.394 . S
C1687 C1693 1.465 . S
C1688 C1683 1.399 . S
C1688 C1687 1.394 . S
C1688 C1689 1.516 . S
C1689 C1688 1.516 . S
C1689 C1690 1.502 . S
C1689 C1691 1.561 . S
C1689 C1692 1.526 . S
C1690 H1674 0.959 . S
C1690 H1675 0.959 . S
C1690 H1676 0.961 . S
C1690 C1689 1.502 . S
C1691 H1677 0.960 . S
C1691 H1678 0.961 . S
C1691 H1679 0.959 . S
C1691 C1689 1.561 . S
C1692 C1689 1.526 . S
C1692 C1693 1.396 . S
C1692 C1697 1.390 . S
C1693 C1687 1.465 . S
C1693 C1692 1.396 . S
C1693 C1694 1.399 . S
C1694 H1680 0.929 . S
C1694 C1693 1.399 . S
C1694 C1695 1.385 . S
C1695 H1681 0.931 . S
C1695 C1694 1.385 . S
C1695 C1696 1.389 . S
C1696 C1695 1.389 . S
C1696 C1697 1.387 . S
C1697 H1682 0.930 . S
C1697 C1692 1.390 . S
C1697 C1696 1.387 . S
H1698 C1710 0.930 . S
H1699 C1712 0.930 . S
H1700 C1713 0.930 . S
H1701 C1717 0.959 . S
H1702 C1717 0.959 . S
H1703 C1717 0.961 . S
H1704 C1718 0.960 . S
H1705 C1718 0.961 . S
H1706 C1718 0.959 . S
H1707 C1721 0.929 . S
H1708 C1722 0.931 . S
H1709 C1724 0.930 . S
C1710 H1698 0.930 . S
C1710 C1711 1.399 . S
C1710 C1715 1.399 . S
C1711 C1710 1.399 . S
C1711 C1712 1.376 . S
C1712 H1699 0.930 . S
C1712 C1711 1.376 . S
C1712 C1713 1.388 . S
C1713 H1700 0.930 . S
C1713 C1712 1.388 . S
C1713 C1714 1.390 . S
C1714 C1713 1.390 . S
C1714 C1715 1.394 . S
C1714 C1720 1.465 . S
C1715 C1710 1.399 . S
C1715 C1714 1.394 . S
C1715 C1716 1.516 . S
C1716 C1715 1.516 . S
C1716 C1717 1.502 . S
C1716 C1718 1.561 . S
C1716 C1719 1.526 . S
C1717 H1701 0.959 . S
C1717 H1702 0.959 . S
C1717 H1703 0.961 . S
C1717 C1716 1.502 . S
C1718 H1704 0.960 . S
C1718 H1705 0.961 . S
C1718 H1706 0.959 . S
C1718 C1716 1.561 . S
C1719 C1716 1.526 . S
C1719 C1720 1.396 . S
C1719 C1724 1.390 . S
C1720 C1714 1.465 . S
C1720 C1719 1.396 . S
C1720 C1721 1.399 . S
C1721 H1707 0.929 . S
C1721 C1720 1.399 . S
C1721 C1722 1.385 . S
C1722 H1708 0.931 . S
C1722 C1721 1.385 . S
C1722 C1723 1.389 . S
C1723 C1722 1.389 . S
C1723 C1724 1.387 . S
C1724 H1709 0.930 . S
C1724 C1719 1.390 . S
C1724 C1723 1.387 . S
H1725 C1737 0.930 . S
H1726 C1739 0.930 . S
H1727 C1740 0.930 . S
H1728 C1744 0.959 . S
H1729 C1744 0.959 . S
H1730 C1744 0.961 . S
H1731 C1745 0.960 . S
H1732 C1745 0.961 . S
H1733 C1745 0.959 . S
H1734 C1748 0.929 . S
H1735 C1749 0.931 . S
H1736 C1751 0.930 . S
C1737 H1725 0.930 . S
C1737 C1738 1.399 . S
C1737 C1742 1.399 . S
C1738 C1737 1.399 . S
C1738 C1739 1.376 . S
C1739 H1726 0.930 . S
C1739 C1738 1.376 . S
C1739 C1740 1.388 . S
C1740 H1727 0.930 . S
C1740 C1739 1.388 . S
C1740 C1741 1.390 . S
C1741 C1740 1.390 . S
C1741 C1742 1.394 . S
C1741 C1747 1.465 . S
C1742 C1737 1.399 . S
C1742 C1741 1.394 . S
C1742 C1743 1.516 . S
C1743 C1742 1.516 . S
C1743 C1744 1.502 . S
C1743 C1745 1.561 . S
C1743 C1746 1.526 . S
C1744 H1728 0.959 . S
C1744 H1729 0.959 . S
C1744 H1730 0.961 . S
C1744 C1743 1.502 . S
C1745 H1731 0.960 . S
C1745 H1732 0.961 . S
C1745 H1733 0.959 . S
C1745 C1743 1.561 . S
C1746 C1743 1.526 . S
C1746 C1747 1.396 . S
C1746 C1751 1.390 . S
C1747 C1741 1.465 . S
C1747 C1746 1.396 . S
C1747 C1748 1.399 . S
C1748 H1734 0.929 . S
C1748 C1747 1.399 . S
C1748 C1749 1.385 . S
C1749 H1735 0.931 . S
C1749 C1748 1.385 . S
C1749 C1750 1.389 . S
C1750 C1749 1.389 . S
C1750 C1751 1.387 . S
C1751 H1736 0.930 . S
C1751 C1746 1.390 . S
C1751 C1750 1.387 . S
H1752 C1764 0.930 . S
H1753 C1766 0.930 . S
H1754 C1767 0.930 . S
H1755 C1771 0.959 . S
H1756 C1771 0.959 . S
H1757 C1771 0.961 . S
H1758 C1772 0.960 . S
H1759 C1772 0.961 . S
H1760 C1772 0.959 . S
H1761 C1775 0.929 . S
H1762 C1776 0.931 . S
H1763 C1778 0.930 . S
C1764 H1752 0.930 . S
C1764 C1765 1.399 . S
C1764 C1769 1.399 . S
C1765 C1764 1.399 . S
C1765 C1766 1.376 . S
C1766 H1753 0.930 . S
C1766 C1765 1.376 . S
C1766 C1767 1.388 . S
C1767 H1754 0.930 . S
C1767 C1766 1.388 . S
C1767 C1768 1.390 . S
C1768 C1767 1.390 . S
C1768 C1769 1.394 . S
C1768 C1774 1.465 . S
C1769 C1764 1.399 . S
C1769 C1768 1.394 . S
C1769 C1770 1.516 . S
C1770 C1769 1.516 . S
C1770 C1771 1.502 . S
C1770 C1772 1.561 . S
C1770 C1773 1.526 . S
C1771 H1755 0.959 . S
C1771 H1756 0.959 . S
C1771 H1757 0.961 . S
C1771 C1770 1.502 . S
C1772 H1758 0.960 . S
C1772 H1759 0.961 . S
C1772 H1760 0.959 . S
C1772 C1770 1.561 . S
C1773 C1770 1.526 . S
C1773 C1774 1.396 . S
C1773 C1778 1.390 . S
C1774 C1768 1.465 . S
C1774 C1773 1.396 . S
C1774 C1775 1.399 . S
C1775 H1761 0.929 . S
C1775 C1774 1.399 . S
C1775 C1776 1.385 . S
C1776 H1762 0.931 . S
C1776 C1775 1.385 . S
C1776 C1777 1.389 . S
C1777 C1776 1.389 . S
C1777 C1778 1.387 . S
C1778 H1763 0.930 . S
C1778 C1773 1.390 . S
C1778 C1777 1.387 . S
H1779 C1791 0.930 . S
H1780 C1793 0.930 . S
H1781 C1794 0.930 . S
H1782 C1798 0.959 . S
H1783 C1798 0.959 . S
H1784 C1798 0.961 . S
H1785 C1799 0.960 . S
H1786 C1799 0.961 . S
H1787 C1799 0.959 . S
H1788 C1802 0.929 . S
H1789 C1803 0.931 . S
H1790 C1805 0.930 . S
C1791 H1779 0.930 . S
C1791 C1792 1.399 . S
C1791 C1796 1.399 . S
C1792 C1791 1.399 . S
C1792 C1793 1.376 . S
C1793 H1780 0.930 . S
C1793 C1792 1.376 . S
C1793 C1794 1.388 . S
C1794 H1781 0.930 . S
C1794 C1793 1.388 . S
C1794 C1795 1.390 . S
C1795 C1794 1.390 . S
C1795 C1796 1.394 . S
C1795 C1801 1.465 . S
C1796 C1791 1.399 . S
C1796 C1795 1.394 . S
C1796 C1797 1.516 . S
C1797 C1796 1.516 . S
C1797 C1798 1.502 . S
C1797 C1799 1.561 . S
C1797 C1800 1.526 . S
C1798 H1782 0.959 . S
C1798 H1783 0.959 . S
C1798 H1784 0.961 . S
C1798 C1797 1.502 . S
C1799 H1785 0.960 . S
C1799 H1786 0.961 . S
C1799 H1787 0.959 . S
C1799 C1797 1.561 . S
C1800 C1797 1.526 . S
C1800 C1801 1.396 . S
C1800 C1805 1.390 . S
C1801 C1795 1.465 . S
C1801 C1800 1.396 . S
C1801 C1802 1.399 . S
C1802 H1788 0.929 . S
C1802 C1801 1.399 . S
C1802 C1803 1.385 . S
C1803 H1789 0.931 . S
C1803 C1802 1.385 . S
C1803 C1804 1.389 . S
C1804 C1803 1.389 . S
C1804 C1805 1.387 . S
C1805 H1790 0.930 . S
C1805 C1800 1.390 . S
C1805 C1804 1.387 . S
H1806 C1818 0.930 . S
H1807 C1820 0.930 . S
H1808 C1821 0.930 . S
H1809 C1825 0.959 . S
H1810 C1825 0.959 . S
H1811 C1825 0.961 . S
H1812 C1826 0.960 . S
H1813 C1826 0.961 . S
H1814 C1826 0.959 . S
H1815 C1829 0.929 . S
H1816 C1830 0.931 . S
H1817 C1832 0.930 . S
C1818 H1806 0.930 . S
C1818 C1819 1.399 . S
C1818 C1823 1.399 . S
C1819 C1818 1.399 . S
C1819 C1820 1.376 . S
C1820 H1807 0.930 . S
C1820 C1819 1.376 . S
C1820 C1821 1.388 . S
C1821 H1808 0.930 . S
C1821 C1820 1.388 . S
C1821 C1822 1.390 . S
C1822 C1821 1.390 . S
C1822 C1823 1.394 . S
C1822 C1828 1.465 . S
C1823 C1818 1.399 . S
C1823 C1822 1.394 . S
C1823 C1824 1.516 . S
C1824 C1823 1.516 . S
C1824 C1825 1.502 . S
C1824 C1826 1.561 . S
C1824 C1827 1.526 . S
C1825 H1809 0.959 . S
C1825 H1810 0.959 . S
C1825 H1811 0.961 . S
C1825 C1824 1.502 . S
C1826 H1812 0.960 . S
C1826 H1813 0.961 . S
C1826 H1814 0.959 . S
C1826 C1824 1.561 . S
C1827 C1824 1.526 . S
C1827 C1828 1.396 . S
C1827 C1832 1.390 . S
C1828 C1822 1.465 . S
C1828 C1827 1.396 . S
C1828 C1829 1.399 . S
C1829 H1815 0.929 . S
C1829 C1828 1.399 . S
C1829 C1830 1.385 . S
C1830 H1816 0.931 . S
C1830 C1829 1.385 . S
C1830 C1831 1.389 . S
C1831 C1830 1.389 . S
C1831 C1832 1.387 . S
C1832 H1817 0.930 . S
C1832 C1827 1.390 . S
C1832 C1831 1.387 . S
H1833 C1845 0.930 . S
H1834 C1847 0.930 . S
H1835 C1848 0.930 . S
H1836 C1852 0.959 . S
H1837 C1852 0.959 . S
H1838 C1852 0.961 . S
H1839 C1853 0.960 . S
H1840 C1853 0.961 . S
H1841 C1853 0.959 . S
H1842 C1856 0.929 . S
H1843 C1857 0.931 . S
H1844 C1859 0.930 . S
C1845 H1833 0.930 . S
C1845 C1846 1.399 . S
C1845 C1850 1.399 . S
C1846 C1845 1.399 . S
C1846 C1847 1.376 . S
C1847 H1834 0.930 . S
C1847 C1846 1.376 . S
C1847 C1848 1.388 . S
C1848 H1835 0.930 . S
C1848 C1847 1.388 . S
C1848 C1849 1.390 . S
C1849 C1848 1.390 . S
C1849 C1850 1.394 . S
C1849 C1855 1.465 . S
C1850 C1845 1.399 . S
C1850 C1849 1.394 . S
C1850 C1851 1.516 . S
C1851 C1850 1.516 . S
C1851 C1852 1.502 . S
C1851 C1853 1.561 . S
C1851 C1854 1.526 . S
C1852 H1836 0.959 . S
C1852 H1837 0.959 . S
C1852 H1838 0.961 . S
C1852 C1851 1.502 . S
C1853 H1839 0.960 . S
C1853 H1840 0.961 . S
C1853 H1841 0.959 . S
C1853 C1851 1.561 . S
C1854 C1851 1.526 . S
C1854 C1855 1.396 . S
C1854 C1859 1.390 . S
C1855 C1849 1.465 . S
C1855 C1854 1.396 . S
C1855 C1856 1.399 . S
C1856 H1842 0.929 . S
C1856 C1855 1.399 . S
C1856 C1857 1.385 . S
C1857 H1843 0.931 . S
C1857 C1856 1.385 . S
C1857 C1858 1.389 . S
C1858 C1857 1.389 . S
C1858 C1859 1.387 . S
C1859 H1844 0.930 . S
C1859 C1854 1.390 . S
C1859 C1858 1.387 . S
H1860 C1872 0.930 . S
H1861 C1874 0.930 . S
H1862 C1875 0.930 . S
H1863 C1879 0.959 . S
H1864 C1879 0.959 . S
H1865 C1879 0.961 . S
H1866 C1880 0.960 . S
H1867 C1880 0.961 . S
H1868 C1880 0.959 . S
H1869 C1883 0.929 . S
H1870 C1884 0.931 . S
H1871 C1886 0.930 . S
C1872 H1860 0.930 . S
C1872 C1873 1.399 . S
C1872 C1877 1.399 . S
C1873 C1872 1.399 . S
C1873 C1874 1.376 . S
C1874 H1861 0.930 . S
C1874 C1873 1.376 . S
C1874 C1875 1.388 . S
C1875 H1862 0.930 . S
C1875 C1874 1.388 . S
C1875 C1876 1.390 . S
C1876 C1875 1.390 . S
C1876 C1877 1.394 . S
C1876 C1882 1.465 . S
C1877 C1872 1.399 . S
C1877 C1876 1.394 . S
C1877 C1878 1.516 . S
C1878 C1877 1.516 . S
C1878 C1879 1.502 . S
C1878 C1880 1.561 . S
C1878 C1881 1.526 . S
C1879 H1863 0.959 . S
C1879 H1864 0.959 . S
C1879 H1865 0.961 . S
C1879 C1878 1.502 . S
C1880 H1866 0.960 . S
C1880 H1867 0.961 . S
C1880 H1868 0.959 . S
C1880 C1878 1.561 . S
C1881 C1878 1.526 . S
C1881 C1882 1.396 . S
C1881 C1886 1.390 . S
C1882 C1876 1.465 . S
C1882 C1881 1.396 . S
C1882 C1883 1.399 . S
C1883 H1869 0.929 . S
C1883 C1882 1.399 . S
C1883 C1884 1.385 . S
C1884 H1870 0.931 . S
C1884 C1883 1.385 . S
C1884 C1885 1.389 . S
C1885 C1884 1.389 . S
C1885 C1886 1.387 . S
C1886 H1871 0.930 . S
C1886 C1881 1.390 . S
C1886 C1885 1.387 . S
H1887 C1899 0.930 . S
H1888 C1901 0.930 . S
H1889 C1902 0.930 . S
H1890 C1906 0.959 . S
H1891 C1906 0.959 . S
H1892 C1906 0.961 . S
H1893 C1907 0.960 . S
H1894 C1907 0.961 . S
H1895 C1907 0.959 . S
H1896 C1910 0.929 . S
H1897 C1911 0.931 . S
H1898 C1913 0.930 . S
C1899 H1887 0.930 . S
C1899 C1900 1.399 . S
C1899 C1904 1.399 . S
C1900 C1899 1.399 . S
C1900 C1901 1.376 . S
C1901 H1888 0.930 . S
C1901 C1900 1.376 . S
C1901 C1902 1.388 . S
C1902 H1889 0.930 . S
C1902 C1901 1.388 . S
C1902 C1903 1.390 . S
C1903 C1902 1.390 . S
C1903 C1904 1.394 . S
C1903 C1909 1.465 . S
C1904 C1899 1.399 . S
C1904 C1903 1.394 . S
C1904 C1905 1.516 . S
C1905 C1904 1.516 . S
C1905 C1906 1.502 . S
C1905 C1907 1.561 . S
C1905 C1908 1.526 . S
C1906 H1890 0.959 . S
C1906 H1891 0.959 . S
C1906 H1892 0.961 . S
C1906 C1905 1.502 . S
C1907 H1893 0.960 . S
C1907 H1894 0.961 . S
C1907 H1895 0.959 . S
C1907 C1905 1.561 . S
C1908 C1905 1.526 . S
C1908 C1909 1.396 . S
C1908 C1913 1.390 . S
C1909 C1903 1.465 . S
C1909 C1908 1.396 . S
C1909 C1910 1.399 . S
C1910 H1896 0.929 . S
C1910 C1909 1.399 . S
C1910 C1911 1.385 . S
C1911 H1897 0.931 . S
C1911 C1910 1.385 . S
C1911 C1912 1.389 . S
C1912 C1911 1.389 . S
C1912 C1913 1.387 . S
C1913 H1898 0.930 . S
C1913 C1908 1.390 . S
C1913 C1912 1.387 . S
H1914 C1926 0.930 . S
H1915 C1928 0.930 . S
H1916 C1929 0.930 . S
H1917 C1933 0.959 . S
H1918 C1933 0.959 . S
H1919 C1933 0.961 . S
H1920 C1934 0.960 . S
H1921 C1934 0.961 . S
H1922 C1934 0.959 . S
H1923 C1937 0.929 . S
H1924 C1938 0.931 . S
H1925 C1940 0.930 . S
C1926 H1914 0.930 . S
C1926 C1927 1.399 . S
C1926 C1931 1.399 . S
C1927 C1926 1.399 . S
C1927 C1928 1.376 . S
C1928 H1915 0.930 . S
C1928 C1927 1.376 . S
C1928 C1929 1.388 . S
C1929 H1916 0.930 . S
C1929 C1928 1.388 . S
C1929 C1930 1.390 . S
C1930 C1929 1.390 . S
C1930 C1931 1.394 . S
C1930 C1936 1.465 . S
C1931 C1926 1.399 . S
C1931 C1930 1.394 . S
C1931 C1932 1.516 . S
C1932 C1931 1.516 . S
C1932 C1933 1.502 . S
C1932 C1934 1.561 . S
C1932 C1935 1.526 . S
C1933 H1917 0.959 . S
C1933 H1918 0.959 . S
C1933 H1919 0.961 . S
C1933 C1932 1.502 . S
C1934 H1920 0.960 . S
C1934 H1921 0.961 . S
C1934 H1922 0.959 . S
C1934 C1932 1.561 . S
C1935 C1932 1.526 . S
C1935 C1936 1.396 . S
C1935 C1940 1.390 . S
C1936 C1930 1.465 . S
C1936 C1935 1.396 . S
C1936 C1937 1.399 . S
C1937 H1923 0.929 . S
C1937 C1936 1.399 . S
C1937 C1938 1.385 . S
C1938 H1924 0.931 . S
C1938 C1937 1.385 . S
C1938 C1939 1.389 . S
C1939 C1938 1.389 . S
C1939 C1940 1.387 . S
C1940 H1925 0.930 . S
C1940 C1935 1.390 . S
C1940 C1939 1.387 . S
H1941 C1953 0.930 . S
H1942 C1955 0.930 . S
H1943 C1956 0.930 . S
H1944 C1960 0.959 . S
H1945 C1960 0.959 . S
H1946 C1960 0.961 . S
H1947 C1961 0.960 . S
H1948 C1961 0.961 . S
H1949 C1961 0.959 . S
H1950 C1964 0.929 . S
H1951 C1965 0.931 . S
H1952 C1967 0.930 . S
C1953 H1941 0.930 . S
C1953 C1954 1.399 . S
C1953 C1958 1.399 . S
C1954 C1953 1.399 . S
C1954 C1955 1.376 . S
C1955 H1942 0.930 . S
C1955 C1954 1.376 . S
C1955 C1956 1.388 . S
C1956 H1943 0.930 . S
C1956 C1955 1.388 . S
C1956 C1957 1.390 . S
C1957 C1956 1.390 . S
C1957 C1958 1.394 . S
C1957 C1963 1.465 . S
C1958 C1953 1.399 . S
C1958 C1957 1.394 . S
C1958 C1959 1.516 . S
C1959 C1958 1.516 . S
C1959 C1960 1.502 . S
C1959 C1961 1.561 . S
C1959 C1962 1.526 . S
C1960 H1944 0.959 . S
C1960 H1945 0.959 . S
C1960 H1946 0.961 . S
C1960 C1959 1.502 . S
C1961 H1947 0.960 . S
C1961 H1948 0.961 . S
C1961 H1949 0.959 . S
C1961 C1959 1.561 . S
C1962 C1959 1.526 . S
C1962 C1963 1.396 . S
C1962 C1967 1.390 . S
C1963 C1957 1.465 . S
C1963 C1962 1.396 . S
C1963 C1964 1.399 . S
C1964 H1950 0.929 . S
C1964 C1963 1.399 . S
C1964 C1965 1.385 . S
C1965 H1951 0.931 . S
C1965 C1964 1.385 . S
C1965 C1966 1.389 . S
C1966 C1965 1.389 . S
C1966 C1967 1.387 . S
C1967 H1952 0.930 . S
C1967 C1962 1.390 . S
C1967 C1966 1.387 . S
H1968 C1980 0.930 . S
H1969 C1982 0.930 . S
H1970 C1983 0.930 . S
H1971 C1987 0.959 . S
H1972 C1987 0.959 . S
H1973 C1987 0.961 . S
H1974 C1988 0.960 . S
H1975 C1988 0.961 . S
H1976 C1988 0.959 . S
H1977 C1991 0.929 . S
H1978 C1992 0.931 . S
H1979 C1994 0.930 . S
C1980 H1968 0.930 . S
C1980 C1981 1.399 . S
C1980 C1985 1.399 . S
C1981 C1980 1.399 . S
C1981 C1982 1.376 . S
C1982 H1969 0.930 . S
C1982 C1981 1.376 . S
C1982 C1983 1.388 . S
C1983 H1970 0.930 . S
C1983 C1982 1.388 . S
C1983 C1984 1.390 . S
C1984 C1983 1.390 . S
C1984 C1985 1.394 . S
C1984 C1990 1.465 . S
C1985 C1980 1.399 . S
C1985 C1984 1.394 . S
C1985 C1986 1.516 . S
C1986 C1985 1.516 . S
C1986 C1987 1.502 . S
C1986 C1988 1.561 . S
C1986 C1989 1.526 . S
C1987 H1971 0.959 . S
C1987 H1972 0.959 . S
C1987 H1973 0.961 . S
C1987 C1986 1.502 . S
C1988 H1974 0.960 . S
C1988 H1975 0.961 . S
C1988 H1976 0.959 . S
C1988 C1986 1.561 . S
C1989 C1986 1.526 . S
C1989 C1990 1.396 . S
C1989 C1994 1.390 . S
C1990 C1984 1.465 . S
C1990 C1989 1.396 . S
C1990 C1991 1.399 . S
C1991 H1977 0.929 . S
C1991 C1990 1.399 . S
C1991 C1992 1.385 . S
C1992 H1978 0.931 . S
C1992 C1991 1.385 . S
C1992 C1993 1.389 . S
C1993 C1992 1.389 . S
C1993 C1994 1.387 . S
C1994 H1979 0.930 . S
C1994 C1989 1.390 . S
C1994 C1993 1.387 . S
H1995 C2007 0.930 . S
H1996 C2009 0.930 . S
H1997 C2010 0.930 . S
H1998 C2014 0.959 . S
H1999 C2014 0.959 . S
H2000 C2014 0.961 . S
H2001 C2015 0.960 . S
H2002 C2015 0.961 . S
H2003 C2015 0.959 . S
H2004 C2018 0.929 . S
H2005 C2019 0.931 . S
H2006 C2021 0.930 . S
C2007 H1995 0.930 . S
C2007 C2008 1.399 . S
C2007 C2012 1.399 . S
C2008 C2007 1.399 . S
C2008 C2009 1.376 . S
C2009 H1996 0.930 . S
C2009 C2008 1.376 . S
C2009 C2010 1.388 . S
C2010 H1997 0.930 . S
C2010 C2009 1.388 . S
C2010 C2011 1.390 . S
C2011 C2010 1.390 . S
C2011 C2012 1.394 . S
C2011 C2017 1.465 . S
C2012 C2007 1.399 . S
C2012 C2011 1.394 . S
C2012 C2013 1.516 . S
C2013 C2012 1.516 . S
C2013 C2014 1.502 . S
C2013 C2015 1.561 . S
C2013 C2016 1.526 . S
C2014 H1998 0.959 . S
C2014 H1999 0.959 . S
C2014 H2000 0.961 . S
C2014 C2013 1.502 . S
C2015 H2001 0.960 . S
C2015 H2002 0.961 . S
C2015 H2003 0.959 . S
C2015 C2013 1.561 . S
C2016 C2013 1.526 . S
C2016 C2017 1.396 . S
C2016 C2021 1.390 . S
C2017 C2011 1.465 . S
C2017 C2016 1.396 . S
C2017 C2018 1.399 . S
C2018 H2004 0.929 . S
C2018 C2017 1.399 . S
C2018 C2019 1.385 . S
C2019 H2005 0.931 . S
C2019 C2018 1.385 . S
C2019 C2020 1.389 . S
C2020 C2019 1.389 . S
C2020 C2021 1.387 . S
C2021 H2006 0.930 . S
C2021 C2016 1.390 . S
C2021 C2020 1.387 . S
H2022 C2034 0.930 . S
H2023 C2036 0.930 . S
H2024 C2037 0.930 . S
H2025 C2041 0.959 . S
H2026 C2041 0.959 . S
H2027 C2041 0.961 . S
H2028 C2042 0.960 . S
H2029 C2042 0.961 . S
H2030 C2042 0.959 . S
H2031 C2045 0.929 . S
H2032 C2046 0.931 . S
H2033 C2048 0.930 . S
C2034 H2022 0.930 . S
C2034 C2035 1.399 . S
C2034 C2039 1.399 . S
C2035 C2034 1.399 . S
C2035 C2036 1.376 . S
C2036 H2023 0.930 . S
C2036 C2035 1.376 . S
C2036 C2037 1.388 . S
C2037 H2024 0.930 . S
C2037 C2036 1.388 . S
C2037 C2038 1.390 . S
C2038 C2037 1.390 . S
C2038 C2039 1.394 . S
C2038 C2044 1.465 . S
C2039 C2034 1.399 . S
C2039 C2038 1.394 . S
C2039 C2040 1.516 . S
C2040 C2039 1.516 . S
C2040 C2041 1.502 . S
C2040 C2042 1.561 . S
C2040 C2043 1.526 . S
C2041 H2025 0.959 . S
C2041 H2026 0.959 . S
C2041 H2027 0.961 . S
C2041 C2040 1.502 . S
C2042 H2028 0.960 . S
C2042 H2029 0.961 . S
C2042 H2030 0.959 . S
C2042 C2040 1.561 . S
C2043 C2040 1.526 . S
C2043 C2044 1.396 . S
C2043 C2048 1.390 . S
C2044 C2038 1.465 . S
C2044 C2043 1.396 . S
C2044 C2045 1.399 . S
C2045 H2031 0.929 . S
C2045 C2044 1.399 . S
C2045 C2046 1.385 . S
C2046 H2032 0.931 . S
C2046 C2045 1.385 . S
C2046 C2047 1.389 . S
C2047 C2046 1.389 . S
C2047 C2048 1.387 . S
C2048 H2033 0.930 . S
C2048 C2043 1.390 . S
C2048 C2047 1.387 . S
H2049 C2061 0.930 . S
H2050 C2063 0.930 . S
H2051 C2064 0.930 . S
H2052 C2068 0.959 . S
H2053 C2068 0.959 . S
H2054 C2068 0.961 . S
H2055 C2069 0.960 . S
H2056 C2069 0.961 . S
H2057 C2069 0.959 . S
H2058 C2072 0.929 . S
H2059 C2073 0.931 . S
H2060 C2075 0.930 . S
C2061 H2049 0.930 . S
C2061 C2062 1.399 . S
C2061 C2066 1.399 . S
C2062 C2061 1.399 . S
C2062 C2063 1.376 . S
C2063 H2050 0.930 . S
C2063 C2062 1.376 . S
C2063 C2064 1.388 . S
C2064 H2051 0.930 . S
C2064 C2063 1.388 . S
C2064 C2065 1.390 . S
C2065 C2064 1.390 . S
C2065 C2066 1.394 . S
C2065 C2071 1.465 . S
C2066 C2061 1.399 . S
C2066 C2065 1.394 . S
C2066 C2067 1.516 . S
C2067 C2066 1.516 . S
C2067 C2068 1.502 . S
C2067 C2069 1.561 . S
C2067 C2070 1.526 . S
C2068 H2052 0.959 . S
C2068 H2053 0.959 . S
C2068 H2054 0.961 . S
C2068 C2067 1.502 . S
C2069 H2055 0.960 . S
C2069 H2056 0.961 . S
C2069 H2057 0.959 . S
C2069 C2067 1.561 . S
C2070 C2067 1.526 . S
C2070 C2071 1.396 . S
C2070 C2075 1.390 . S
C2071 C2065 1.465 . S
C2071 C2070 1.396 . S
C2071 C2072 1.399 . S
C2072 H2058 0.929 . S
C2072 C2071 1.399 . S
C2072 C2073 1.385 . S
C2073 H2059 0.931 . S
C2073 C2072 1.385 . S
C2073 C2074 1.389 . S
C2074 C2073 1.389 . S
C2074 C2075 1.387 . S
C2075 H2060 0.930 . S
C2075 C2070 1.390 . S
C2075 C2074 1.387 . S
H2076 C2088 0.930 . S
H2077 C2090 0.930 . S
H2078 C2091 0.930 . S
H2079 C2095 0.959 . S
H2080 C2095 0.959 . S
H2081 C2095 0.961 . S
H2082 C2096 0.960 . S
H2083 C2096 0.961 . S
H2084 C2096 0.959 . S
H2085 C2099 0.929 . S
H2086 C2100 0.931 . S
H2087 C2102 0.930 . S
C2088 H2076 0.930 . S
C2088 C2089 1.399 . S
C2088 C2093 1.399 . S
C2089 C2088 1.399 . S
C2089 C2090 1.376 . S
C2090 H2077 0.930 . S
C2090 C2089 1.376 . S
C2090 C2091 1.388 . S
C2091 H2078 0.930 . S
C2091 C2090 1.388 . S
C2091 C2092 1.390 . S
C2092 C2091 1.390 . S
C2092 C2093 1.394 . S
C2092 C2098 1.465 . S
C2093 C2088 1.399 . S
C2093 C2092 1.394 . S
C2093 C2094 1.516 . S
C2094 C2093 1.516 . S
C2094 C2095 1.502 . S
C2094 C2096 1.561 . S
C2094 C2097 1.526 . S
C2095 H2079 0.959 . S
C2095 H2080 0.959 . S
C2095 H2081 0.961 . S
C2095 C2094 1.502 . S
C2096 H2082 0.960 . S
C2096 H2083 0.961 . S
C2096 H2084 0.959 . S
C2096 C2094 1.561 . S
C2097 C2094 1.526 . S
C2097 C2098 1.396 . S
C2097 C2102 1.390 . S
C2098 C2092 1.465 . S
C2098 C2097 1.396 . S
C2098 C2099 1.399 . S
C2099 H2085 0.929 . S
C2099 C2098 1.399 . S
C2099 C2100 1.385 . S
C2100 H2086 0.931 . S
C2100 C2099 1.385 . S
C2100 C2101 1.389 . S
C2101 C2100 1.389 . S
C2101 C2102 1.387 . S
C2102 H2087 0.930 . S
C2102 C2097 1.390 . S
C2102 C2101 1.387 . S
H2103 C2115 0.930 . S
H2104 C2117 0.930 . S
H2105 C2118 0.930 . S
H2106 C2122 0.959 . S
H2107 C2122 0.959 . S
H2108 C2122 0.961 . S
H2109 C2123 0.960 . S
H2110 C2123 0.961 . S
H2111 C2123 0.959 . S
H2112 C2126 0.929 . S
H2113 C2127 0.931 . S
H2114 C2129 0.930 . S
C2115 H2103 0.930 . S
C2115 C2116 1.399 . S
C2115 C2120 1.399 . S
C2116 C2115 1.399 . S
C2116 C2117 1.376 . S
C2117 H2104 0.930 . S
C2117 C2116 1.376 . S
C2117 C2118 1.388 . S
C2118 H2105 0.930 . S
C2118 C2117 1.388 . S
C2118 C2119 1.390 . S
C2119 C2118 1.390 . S
C2119 C2120 1.394 . S
C2119 C2125 1.465 . S
C2120 C2115 1.399 . S
C2120 C2119 1.394 . S
C2120 C2121 1.516 . S
C2121 C2120 1.516 . S
C2121 C2122 1.502 . S
C2121 C2123 1.561 . S
C2121 C2124 1.526 . S
C2122 H2106 0.959 . S
C2122 H2107 0.959 . S
C2122 H2108 0.961 . S
C2122 C2121 1.502 . S
C2123 H2109 0.960 . S
C2123 H2110 0.961 . S
C2123 H2111 0.959 . S
C2123 C2121 1.561 . S
C2124 C2121 1.526 . S
C2124 C2125 1.396 . S
C2124 C2129 1.390 . S
C2125 C2119 1.465 . S
C2125 C2124 1.396 . S
C2125 C2126 1.399 . S
C2126 H2112 0.929 . S
C2126 C2125 1.399 . S
C2126 C2127 1.385 . S
C2127 H2113 0.931 . S
C2127 C2126 1.385 . S
C2127 C2128 1.389 . S
C2128 C2127 1.389 . S
C2128 C2129 1.387 . S
C2129 H2114 0.930 . S
C2129 C2124 1.390 . S
C2129 C2128 1.387 . S
H2130 C2142 0.930 . S
H2131 C2144 0.930 . S
H2132 C2145 0.930 . S
H2133 C2149 0.959 . S
H2134 C2149 0.959 . S
H2135 C2149 0.961 . S
H2136 C2150 0.960 . S
H2137 C2150 0.961 . S
H2138 C2150 0.959 . S
H2139 C2153 0.929 . S
H2140 C2154 0.931 . S
H2141 C2156 0.930 . S
C2142 H2130 0.930 . S
C2142 C2143 1.399 . S
C2142 C2147 1.399 . S
C2143 C2142 1.399 . S
C2143 C2144 1.376 . S
C2144 H2131 0.930 . S
C2144 C2143 1.376 . S
C2144 C2145 1.388 . S
C2145 H2132 0.930 . S
C2145 C2144 1.388 . S
C2145 C2146 1.390 . S
C2146 C2145 1.390 . S
C2146 C2147 1.394 . S
C2146 C2152 1.465 . S
C2147 C2142 1.399 . S
C2147 C2146 1.394 . S
C2147 C2148 1.516 . S
C2148 C2147 1.516 . S
C2148 C2149 1.502 . S
C2148 C2150 1.561 . S
C2148 C2151 1.526 . S
C2149 H2133 0.959 . S
C2149 H2134 0.959 . S
C2149 H2135 0.961 . S
C2149 C2148 1.502 . S
C2150 H2136 0.960 . S
C2150 H2137 0.961 . S
C2150 H2138 0.959 . S
C2150 C2148 1.561 . S
C2151 C2148 1.526 . S
C2151 C2152 1.396 . S
C2151 C2156 1.390 . S
C2152 C2146 1.465 . S
C2152 C2151 1.396 . S
C2152 C2153 1.399 . S
C2153 H2139 0.929 . S
C2153 C2152 1.399 . S
C2153 C2154 1.385 . S
C2154 H2140 0.931 . S
C2154 C2153 1.385 . S
C2154 C2155 1.389 . S
C2155 C2154 1.389 . S
C2155 C2156 1.387 . S
C2156 H2141 0.930 . S
C2156 C2151 1.390 . S
C2156 C2155 1.387 . S
H2157 C2169 0.930 . S
H2158 C2171 0.930 . S
H2159 C2172 0.930 . S
H2160 C2176 0.959 . S
H2161 C2176 0.959 . S
H2162 C2176 0.961 . S
H2163 C2177 0.960 . S
H2164 C2177 0.961 . S
H2165 C2177 0.959 . S
H2166 C2180 0.929 . S
H2167 C2181 0.931 . S
H2168 C2183 0.930 . S
C2169 H2157 0.930 . S
C2169 C2170 1.399 . S
C2169 C2174 1.399 . S
C2170 C2169 1.399 . S
C2170 C2171 1.376 . S
C2171 H2158 0.930 . S
C2171 C2170 1.376 . S
C2171 C2172 1.388 . S
C2172 H2159 0.930 . S
C2172 C2171 1.388 . S
C2172 C2173 1.390 . S
C2173 C2172 1.390 . S
C2173 C2174 1.394 . S
C2173 C2179 1.465 . S
C2174 C2169 1.399 . S
C2174 C2173 1.394 . S
C2174 C2175 1.516 . S
C2175 C2174 1.516 . S
C2175 C2176 1.502 . S
C2175 C2177 1.561 . S
C2175 C2178 1.526 . S
C2176 H2160 0.959 . S
C2176 H2161 0.959 . S
C2176 H2162 0.961 . S
C2176 C2175 1.502 . S
C2177 H2163 0.960 . S
C2177 H2164 0.961 . S
C2177 H2165 0.959 . S
C2177 C2175 1.561 . S
C2178 C2175 1.526 . S
C2178 C2179 1.396 . S
C2178 C2183 1.390 . S
C2179 C2173 1.465 . S
C2179 C2178 1.396 . S
C2179 C2180 1.399 . S
C2180 H2166 0.929 . S
C2180 C2179 1.399 . S
C2180 C2181 1.385 . S
C2181 H2167 0.931 . S
C2181 C2180 1.385 . S
C2181 C2182 1.389 . S
C2182 C2181 1.389 . S
C2182 C2183 1.387 . S
C2183 H2168 0.930 . S
C2183 C2178 1.390 . S
C2183 C2182 1.387 . S
H2184 C2196 0.930 . S
H2185 C2198 0.930 . S
H2186 C2199 0.930 . S
H2187 C2203 0.959 . S
H2188 C2203 0.959 . S
H2189 C2203 0.961 . S
H2190 C2204 0.960 . S
H2191 C2204 0.961 . S
H2192 C2204 0.959 . S
H2193 C2207 0.929 . S
H2194 C2208 0.931 . S
H2195 C2210 0.930 . S
C2196 H2184 0.930 . S
C2196 C2197 1.399 . S
C2196 C2201 1.399 . S
C2197 C2196 1.399 . S
C2197 C2198 1.376 . S
C2198 H2185 0.930 . S
C2198 C2197 1.376 . S
C2198 C2199 1.388 . S
C2199 H2186 0.930 . S
C2199 C2198 1.388 . S
C2199 C2200 1.390 . S
C2200 C2199 1.390 . S
C2200 C2201 1.394 . S
C2200 C2206 1.465 . S
C2201 C2196 1.399 . S
C2201 C2200 1.394 . S
C2201 C2202 1.516 . S
C2202 C2201 1.516 . S
C2202 C2203 1.502 . S
C2202 C2204 1.561 . S
C2202 C2205 1.526 . S
C2203 H2187 0.959 . S
C2203 H2188 0.959 . S
C2203 H2189 0.961 . S
C2203 C2202 1.502 . S
C2204 H2190 0.960 . S
C2204 H2191 0.961 . S
C2204 H2192 0.959 . S
C2204 C2202 1.561 . S
C2205 C2202 1.526 . S
C2205 C2206 1.396 . S
C2205 C2210 1.390 . S
C2206 C2200 1.465 . S
C2206 C2205 1.396 . S
C2206 C2207 1.399 . S
C2207 H2193 0.929 . S
C2207 C2206 1.399 . S
C2207 C2208 1.385 . S
C2208 H2194 0.931 . S
C2208 C2207 1.385 . S
C2208 C2209 1.389 . S
C2209 C2208 1.389 . S
C2209 C2210 1.387 . S
C2210 H2195 0.930 . S
C2210 C2205 1.390 . S
C2210 C2209 1.387 . S
H2211 C2223 0.930 . S
H2212 C2225 0.930 . S
H2213 C2226 0.930 . S
H2214 C2230 0.959 . S
H2215 C2230 0.959 . S
H2216 C2230 0.961 . S
H2217 C2231 0.960 . S
H2218 C2231 0.961 . S
H2219 C2231 0.959 . S
H2220 C2234 0.929 . S
H2221 C2235 0.931 . S
H2222 C2237 0.930 . S
C2223 H2211 0.930 . S
C2223 C2224 1.399 . S
C2223 C2228 1.399 . S
C2224 C2223 1.399 . S
C2224 C2225 1.376 . S
C2225 H2212 0.930 . S
C2225 C2224 1.376 . S
C2225 C2226 1.388 . S
C2226 H2213 0.930 . S
C2226 C2225 1.388 . S
C2226 C2227 1.390 . S
C2227 C2226 1.390 . S
C2227 C2228 1.394 . S
C2227 C2233 1.465 . S
C2228 C2223 1.399 . S
C2228 C2227 1.394 . S
C2228 C2229 1.516 . S
C2229 C2228 1.516 . S
C2229 C2230 1.502 . S
C2229 C2231 1.561 . S
C2229 C2232 1.526 . S
C2230 H2214 0.959 . S
C2230 H2215 0.959 . S
C2230 H2216 0.961 . S
C2230 C2229 1.502 . S
C2231 H2217 0.960 . S
C2231 H2218 0.961 . S
C2231 H2219 0.959 . S
C2231 C2229 1.561 . S
C2232 C2229 1.526 . S
C2232 C2233 1.396 . S
C2232 C2237 1.390 . S
C2233 C2227 1.465 . S
C2233 C2232 1.396 . S
C2233 C2234 1.399 . S
C2234 H2220 0.929 . S
C2234 C2233 1.399 . S
C2234 C2235 1.385 . S
C2235 H2221 0.931 . S
C2235 C2234 1.385 . S
C2235 C2236 1.389 . S
C2236 C2235 1.389 . S
C2236 C2237 1.387 . S
C2237 H2222 0.930 . S
C2237 C2232 1.390 . S
C2237 C2236 1.387 . S
H2238 C2250 0.930 . S
H2239 C2252 0.930 . S
H2240 C2253 0.930 . S
H2241 C2257 0.959 . S
H2242 C2257 0.959 . S
H2243 C2257 0.961 . S
H2244 C2258 0.960 . S
H2245 C2258 0.961 . S
H2246 C2258 0.959 . S
H2247 C2261 0.929 . S
H2248 C2262 0.931 . S
H2249 C2264 0.930 . S
C2250 H2238 0.930 . S
C2250 C2251 1.399 . S
C2250 C2255 1.399 . S
C2251 C2250 1.399 . S
C2251 C2252 1.376 . S
C2252 H2239 0.930 . S
C2252 C2251 1.376 . S
C2252 C2253 1.388 . S
C2253 H2240 0.930 . S
C2253 C2252 1.388 . S
C2253 C2254 1.390 . S
C2254 C2253 1.390 . S
C2254 C2255 1.394 . S
C2254 C2260 1.465 . S
C2255 C2250 1.399 . S
C2255 C2254 1.394 . S
C2255 C2256 1.516 . S
C2256 C2255 1.516 . S
C2256 C2257 1.502 . S
C2256 C2258 1.561 . S
C2256 C2259 1.526 . S
C2257 H2241 0.959 . S
C2257 H2242 0.959 . S
C2257 H2243 0.961 . S
C2257 C2256 1.502 . S
C2258 H2244 0.960 . S
C2258 H2245 0.961 . S
C2258 H2246 0.959 . S
C2258 C2256 1.561 . S
C2259 C2256 1.526 . S
C2259 C2260 1.396 . S
C2259 C2264 1.390 . S
C2260 C2254 1.465 . S
C2260 C2259 1.396 . S
C2260 C2261 1.399 . S
C2261 H2247 0.929 . S
C2261 C2260 1.399 . S
C2261 C2262 1.385 . S
C2262 H2248 0.931 . S
C2262 C2261 1.385 . S
C2262 C2263 1.389 . S
C2263 C2262 1.389 . S
C2263 C2264 1.387 . S
C2264 H2249 0.930 . S
C2264 C2259 1.390 . S
C2264 C2263 1.387 . S
H2265 C2277 0.930 . S
H2266 C2279 0.930 . S
H2267 C2280 0.930 . S
H2268 C2284 0.959 . S
H2269 C2284 0.959 . S
H2270 C2284 0.961 . S
H2271 C2285 0.960 . S
H2272 C2285 0.961 . S
H2273 C2285 0.959 . S
H2274 C2288 0.929 . S
H2275 C2289 0.931 . S
H2276 C2291 0.930 . S
C2277 H2265 0.930 . S
C2277 C2278 1.399 . S
C2277 C2282 1.399 . S
C2278 C2277 1.399 . S
C2278 C2279 1.376 . S
C2279 H2266 0.930 . S
C2279 C2278 1.376 . S
C2279 C2280 1.388 . S
C2280 H2267 0.930 . S
C2280 C2279 1.388 . S
C2280 C2281 1.390 . S
C2281 C2280 1.390 . S
C2281 C2282 1.394 . S
C2281 C2287 1.465 . S
C2282 C2277 1.399 . S
C2282 C2281 1.394 . S
C2282 C2283 1.516 . S
C2283 C2282 1.516 . S
C2283 C2284 1.502 . S
C2283 C2285 1.561 . S
C2283 C2286 1.526 . S
C2284 H2268 0.959 . S
C2284 H2269 0.959 . S
C2284 H2270 0.961 . S
C2284 C2283 1.502 . S
C2285 H2271 0.960 . S
C2285 H2272 0.961 . S
C2285 H2273 0.959 . S
C2285 C2283 1.561 . S
C2286 C2283 1.526 . S
C2286 C2287 1.396 . S
C2286 C2291 1.390 . S
C2287 C2281 1.465 . S
C2287 C2286 1.396 . S
C2287 C2288 1.399 . S
C2288 H2274 0.929 . S
C2288 C2287 1.399 . S
C2288 C2289 1.385 . S
C2289 H2275 0.931 . S
C2289 C2288 1.385 . S
C2289 C2290 1.389 . S
C2290 C2289 1.389 . S
C2290 C2291 1.387 . S
C2291 H2276 0.930 . S
C2291 C2286 1.390 . S
C2291 C2290 1.387 . S
H2292 C2304 0.930 . S
H2293 C2306 0.930 . S
H2294 C2307 0.930 . S
H2295 C2311 0.959 . S
H2296 C2311 0.959 . S
H2297 C2311 0.961 . S
H2298 C2312 0.960 . S
H2299 C2312 0.961 . S
H2300 C2312 0.959 . S
H2301 C2315 0.929 . S
H2302 C2316 0.931 . S
H2303 C2318 0.930 . S
C2304 H2292 0.930 . S
C2304 C2305 1.399 . S
C2304 C2309 1.399 . S
C2305 C2304 1.399 . S
C2305 C2306 1.376 . S
C2306 H2293 0.930 . S
C2306 C2305 1.376 . S
C2306 C2307 1.388 . S
C2307 H2294 0.930 . S
C2307 C2306 1.388 . S
C2307 C2308 1.390 . S
C2308 C2307 1.390 . S
C2308 C2309 1.394 . S
C2308 C2314 1.465 . S
C2309 C2304 1.399 . S
C2309 C2308 1.394 . S
C2309 C2310 1.516 . S
C2310 C2309 1.516 . S
C2310 C2311 1.502 . S
C2310 C2312 1.561 . S
C2310 C2313 1.526 . S
C2311 H2295 0.959 . S
C2311 H2296 0.959 . S
C2311 H2297 0.961 . S
C2311 C2310 1.502 . S
C2312 H2298 0.960 . S
C2312 H2299 0.961 . S
C2312 H2300 0.959 . S
C2312 C2310 1.561 . S
C2313 C2310 1.526 . S
C2313 C2314 1.396 . S
C2313 C2318 1.390 . S
C2314 C2308 1.465 . S
C2314 C2313 1.396 . S
C2314 C2315 1.399 . S
C2315 H2301 0.929 . S
C2315 C2314 1.399 . S
C2315 C2316 1.385 . S
C2316 H2302 0.931 . S
C2316 C2315 1.385 . S
C2316 C2317 1.389 . S
C2317 C2316 1.389 . S
C2317 C2318 1.387 . S
C2318 H2303 0.930 . S
C2318 C2313 1.390 . S
C2318 C2317 1.387 . S
H2319 C2331 0.930 . S
H2320 C2333 0.930 . S
H2321 C2334 0.930 . S
H2322 C2338 0.959 . S
H2323 C2338 0.959 . S
H2324 C2338 0.961 . S
H2325 C2339 0.960 . S
H2326 C2339 0.961 . S
H2327 C2339 0.959 . S
H2328 C2342 0.929 . S
H2329 C2343 0.931 . S
H2330 C2345 0.930 . S
C2331 H2319 0.930 . S
C2331 C2332 1.399 . S
C2331 C2336 1.399 . S
C2332 C2331 1.399 . S
C2332 C2333 1.376 . S
C2333 H2320 0.930 . S
C2333 C2332 1.376 . S
C2333 C2334 1.388 . S
C2334 H2321 0.930 . S
C2334 C2333 1.388 . S
C2334 C2335 1.390 . S
C2335 C2334 1.390 . S
C2335 C2336 1.394 . S
C2335 C2341 1.465 . S
C2336 C2331 1.399 . S
C2336 C2335 1.394 . S
C2336 C2337 1.516 . S
C2337 C2336 1.516 . S
C2337 C2338 1.502 . S
C2337 C2339 1.561 . S
C2337 C2340 1.526 . S
C2338 H2322 0.959 . S
C2338 H2323 0.959 . S
C2338 H2324 0.961 . S
C2338 C2337 1.502 . S
C2339 H2325 0.960 . S
C2339 H2326 0.961 . S
C2339 H2327 0.959 . S
C2339 C2337 1.561 . S
C2340 C2337 1.526 . S
C2340 C2341 1.396 . S
C2340 C2345 1.390 . S
C2341 C2335 1.465 . S
C2341 C2340 1.396 . S
C2341 C2342 1.399 . S
C2342 H2328 0.929 . S
C2342 C2341 1.399 . S
C2342 C2343 1.385 . S
C2343 H2329 0.931 . S
C2343 C2342 1.385 . S
C2343 C2344 1.389 . S
C2344 C2343 1.389 . S
C2344 C2345 1.387 . S
C2345 H2330 0.930 . S
C2345 C2340 1.390 . S
C2345 C2344 1.387 . S
H2346 C2358 0.930 . S
H2347 C2360 0.930 . S
H2348 C2361 0.930 . S
H2349 C2365 0.959 . S
H2350 C2365 0.959 . S
H2351 C2365 0.961 . S
H2352 C2366 0.960 . S
H2353 C2366 0.961 . S
H2354 C2366 0.959 . S
H2355 C2369 0.929 . S
H2356 C2370 0.931 . S
H2357 C2372 0.930 . S
C2358 H2346 0.930 . S
C2358 C2359 1.399 . S
C2358 C2363 1.399 . S
C2359 C2358 1.399 . S
C2359 C2360 1.376 . S
C2360 H2347 0.930 . S
C2360 C2359 1.376 . S
C2360 C2361 1.388 . S
C2361 H2348 0.930 . S
C2361 C2360 1.388 . S
C2361 C2362 1.390 . S
C2362 C2361 1.390 . S
C2362 C2363 1.394 . S
C2362 C2368 1.465 . S
C2363 C2358 1.399 . S
C2363 C2362 1.394 . S
C2363 C2364 1.516 . S
C2364 C2363 1.516 . S
C2364 C2365 1.502 . S
C2364 C2366 1.561 . S
C2364 C2367 1.526 . S
C2365 H2349 0.959 . S
C2365 H2350 0.959 . S
C2365 H2351 0.961 . S
C2365 C2364 1.502 . S
C2366 H2352 0.960 . S
C2366 H2353 0.961 . S
C2366 H2354 0.959 . S
C2366 C2364 1.561 . S
C2367 C2364 1.526 . S
C2367 C2368 1.396 . S
C2367 C2372 1.390 . S
C2368 C2362 1.465 . S
C2368 C2367 1.396 . S
C2368 C2369 1.399 . S
C2369 H2355 0.929 . S
C2369 C2368 1.399 . S
C2369 C2370 1.385 . S
C2370 H2356 0.931 . S
C2370 C2369 1.385 . S
C2370 C2371 1.389 . S
C2371 C2370 1.389 . S
C2371 C2372 1.387 . S
C2372 H2357 0.930 . S
C2372 C2367 1.390 . S
C2372 C2371 1.387 . S
H2373 C2385 0.930 . S
H2374 C2387 0.930 . S
H2375 C2388 0.930 . S
H2376 C2392 0.959 . S
H2377 C2392 0.959 . S
H2378 C2392 0.961 . S
H2379 C2393 0.960 . S
H2380 C2393 0.961 . S
H2381 C2393 0.959 . S
H2382 C2396 0.929 . S
H2383 C2397 0.931 . S
H2384 C2399 0.930 . S
C2385 H2373 0.930 . S
C2385 C2386 1.399 . S
C2385 C2390 1.399 . S
C2386 C2385 1.399 . S
C2386 C2387 1.376 . S
C2387 H2374 0.930 . S
C2387 C2386 1.376 . S
C2387 C2388 1.388 . S
C2388 H2375 0.930 . S
C2388 C2387 1.388 . S
C2388 C2389 1.390 . S
C2389 C2388 1.390 . S
C2389 C2390 1.394 . S
C2389 C2395 1.465 . S
C2390 C2385 1.399 . S
C2390 C2389 1.394 . S
C2390 C2391 1.516 . S
C2391 C2390 1.516 . S
C2391 C2392 1.502 . S
C2391 C2393 1.561 . S
C2391 C2394 1.526 . S
C2392 H2376 0.959 . S
C2392 H2377 0.959 . S
C2392 H2378 0.961 . S
C2392 C2391 1.502 . S
C2393 H2379 0.960 . S
C2393 H2380 0.961 . S
C2393 H2381 0.959 . S
C2393 C2391 1.561 . S
C2394 C2391 1.526 . S
C2394 C2395 1.396 . S
C2394 C2399 1.390 . S
C2395 C2389 1.465 . S
C2395 C2394 1.396 . S
C2395 C2396 1.399 . S
C2396 H2382 0.929 . S
C2396 C2395 1.399 . S
C2396 C2397 1.385 . S
C2397 H2383 0.931 . S
C2397 C2396 1.385 . S
C2397 C2398 1.389 . S
C2398 C2397 1.389 . S
C2398 C2399 1.387 . S
C2399 H2384 0.930 . S
C2399 C2394 1.390 . S
C2399 C2398 1.387 . S
H2400 C2412 0.930 . S
H2401 C2414 0.930 . S
H2402 C2415 0.930 . S
H2403 C2419 0.959 . S
H2404 C2419 0.959 . S
H2405 C2419 0.961 . S
H2406 C2420 0.960 . S
H2407 C2420 0.961 . S
H2408 C2420 0.959 . S
H2409 C2423 0.929 . S
H2410 C2424 0.931 . S
H2411 C2426 0.930 . S
C2412 H2400 0.930 . S
C2412 C2413 1.399 . S
C2412 C2417 1.399 . S
C2413 C2412 1.399 . S
C2413 C2414 1.376 . S
C2414 H2401 0.930 . S
C2414 C2413 1.376 . S
C2414 C2415 1.388 . S
C2415 H2402 0.930 . S
C2415 C2414 1.388 . S
C2415 C2416 1.390 . S
C2416 C2415 1.390 . S
C2416 C2417 1.394 . S
C2416 C2422 1.465 . S
C2417 C2412 1.399 . S
C2417 C2416 1.394 . S
C2417 C2418 1.516 . S
C2418 C2417 1.516 . S
C2418 C2419 1.502 . S
C2418 C2420 1.561 . S
C2418 C2421 1.526 . S
C2419 H2403 0.959 . S
C2419 H2404 0.959 . S
C2419 H2405 0.961 . S
C2419 C2418 1.502 . S
C2420 H2406 0.960 . S
C2420 H2407 0.961 . S
C2420 H2408 0.959 . S
C2420 C2418 1.561 . S
C2421 C2418 1.526 . S
C2421 C2422 1.396 . S
C2421 C2426 1.390 . S
C2422 C2416 1.465 . S
C2422 C2421 1.396 . S
C2422 C2423 1.399 . S
C2423 H2409 0.929 . S
C2423 C2422 1.399 . S
C2423 C2424 1.385 . S
C2424 H2410 0.931 . S
C2424 C2423 1.385 . S
C2424 C2425 1.389 . S
C2425 C2424 1.389 . S
C2425 C2426 1.387 . S
C2426 H2411 0.930 . S
C2426 C2421 1.390 . S
C2426 C2425 1.387 . S
H2427 C2439 0.930 . S
H2428 C2441 0.930 . S
H2429 C2442 0.930 . S
H2430 C2446 0.959 . S
H2431 C2446 0.959 . S
H2432 C2446 0.961 . S
H2433 C2447 0.960 . S
H2434 C2447 0.961 . S
H2435 C2447 0.959 . S
H2436 C2450 0.929 . S
H2437 C2451 0.931 . S
H2438 C2453 0.930 . S
C2439 H2427 0.930 . S
C2439 C2440 1.399 . S
C2439 C2444 1.399 . S
C2440 C2439 1.399 . S
C2440 C2441 1.376 . S
C2441 H2428 0.930 . S
C2441 C2440 1.376 . S
C2441 C2442 1.388 . S
C2442 H2429 0.930 . S
C2442 C2441 1.388 . S
C2442 C2443 1.390 . S
C2443 C2442 1.390 . S
C2443 C2444 1.394 . S
C2443 C2449 1.465 . S
C2444 C2439 1.399 . S
C2444 C2443 1.394 . S
C2444 C2445 1.516 . S
C2445 C2444 1.516 . S
C2445 C2446 1.502 . S
C2445 C2447 1.561 . S
C2445 C2448 1.526 . S
C2446 H2430 0.959 . S
C2446 H2431 0.959 . S
C2446 H2432 0.961 . S
C2446 C2445 1.502 . S
C2447 H2433 0.960 . S
C2447 H2434 0.961 . S
C2447 H2435 0.959 . S
C2447 C2445 1.561 . S
C2448 C2445 1.526 . S
C2448 C2449 1.396 . S
C2448 C2453 1.390 . S
C2449 C2443 1.465 . S
C2449 C2448 1.396 . S
C2449 C2450 1.399 . S
C2450 H2436 0.929 . S
C2450 C2449 1.399 . S
C2450 C2451 1.385 . S
C2451 H2437 0.931 . S
C2451 C2450 1.385 . S
C2451 C2452 1.389 . S
C2452 C2451 1.389 . S
C2452 C2453 1.387 . S
C2453 H2438 0.930 . S
C2453 C2448 1.390 . S
C2453 C2452 1.387 . S
H2454 C2466 0.930 . S
H2455 C2468 0.930 . S
H2456 C2469 0.930 . S
H2457 C2473 0.959 . S
H2458 C2473 0.959 . S
H2459 C2473 0.961 . S
H2460 C2474 0.960 . S
H2461 C2474 0.961 . S
H2462 C2474 0.959 . S
H2463 C2477 0.929 . S
H2464 C2478 0.931 . S
H2465 C2480 0.930 . S
C2466 H2454 0.930 . S
C2466 C2467 1.399 . S
C2466 C2471 1.399 . S
C2467 C2466 1.399 . S
C2467 C2468 1.376 . S
C2468 H2455 0.930 . S
C2468 C2467 1.376 . S
C2468 C2469 1.388 . S
C2469 H2456 0.930 . S
C2469 C2468 1.388 . S
C2469 C2470 1.390 . S
C2470 C2469 1.390 . S
C2470 C2471 1.394 . S
C2470 C2476 1.465 . S
C2471 C2466 1.399 . S
C2471 C2470 1.394 . S
C2471 C2472 1.516 . S
C2472 C2471 1.516 . S
C2472 C2473 1.502 . S
C2472 C2474 1.561 . S
C2472 C2475 1.526 . S
C2473 H2457 0.959 . S
C2473 H2458 0.959 . S
C2473 H2459 0.961 . S
C2473 C2472 1.502 . S
C2474 H2460 0.960 . S
C2474 H2461 0.961 . S
C2474 H2462 0.959 . S
C2474 C2472 1.561 . S
C2475 C2472 1.526 . S
C2475 C2476 1.396 . S
C2475 C2480 1.390 . S
C2476 C2470 1.465 . S
C2476 C2475 1.396 . S
C2476 C2477 1.399 . S
C2477 H2463 0.929 . S
C2477 C2476 1.399 . S
C2477 C2478 1.385 . S
C2478 H2464 0.931 . S
C2478 C2477 1.385 . S
C2478 C2479 1.389 . S
C2479 C2478 1.389 . S
C2479 C2480 1.387 . S
C2480 H2465 0.930 . S
C2480 C2475 1.390 . S
C2480 C2479 1.387 . S
H2481 C2493 0.930 . S
H2482 C2495 0.930 . S
H2483 C2496 0.930 . S
H2484 C2500 0.959 . S
H2485 C2500 0.959 . S
H2486 C2500 0.961 . S
H2487 C2501 0.960 . S
H2488 C2501 0.961 . S
H2489 C2501 0.959 . S
H2490 C2504 0.929 . S
H2491 C2505 0.931 . S
H2492 C2507 0.930 . S
C2493 H2481 0.930 . S
C2493 C2494 1.399 . S
C2493 C2498 1.399 . S
C2494 C2493 1.399 . S
C2494 C2495 1.376 . S
C2495 H2482 0.930 . S
C2495 C2494 1.376 . S
C2495 C2496 1.388 . S
C2496 H2483 0.930 . S
C2496 C2495 1.388 . S
C2496 C2497 1.390 . S
C2497 C2496 1.390 . S
C2497 C2498 1.394 . S
C2497 C2503 1.465 . S
C2498 C2493 1.399 . S
C2498 C2497 1.394 . S
C2498 C2499 1.516 . S
C2499 C2498 1.516 . S
C2499 C2500 1.502 . S
C2499 C2501 1.561 . S
C2499 C2502 1.526 . S
C2500 H2484 0.959 . S
C2500 H2485 0.959 . S
C2500 H2486 0.961 . S
C2500 C2499 1.502 . S
C2501 H2487 0.960 . S
C2501 H2488 0.961 . S
C2501 H2489 0.959 . S
C2501 C2499 1.561 . S
C2502 C2499 1.526 . S
C2502 C2503 1.396 . S
C2502 C2507 1.390 . S
C2503 C2497 1.465 . S
C2503 C2502 1.396 . S
C2503 C2504 1.399 . S
C2504 H2490 0.929 . S
C2504 C2503 1.399 . S
C2504 C2505 1.385 . S
C2505 H2491 0.931 . S
C2505 C2504 1.385 . S
C2505 C2506 1.389 . S
C2506 C2505 1.389 . S
C2506 C2507 1.387 . S
C2507 H2492 0.930 . S
C2507 C2502 1.390 . S
C2507 C2506 1.387 . S
H2508 C2520 0.930 . S
H2509 C2522 0.930 . S
H2510 C2523 0.930 . S
H2511 C2527 0.959 . S
H2512 C2527 0.959 . S
H2513 C2527 0.961 . S
H2514 C2528 0.960 . S
H2515 C2528 0.961 . S
H2516 C2528 0.959 . S
H2517 C2531 0.929 . S
H2518 C2532 0.931 . S
H2519 C2534 0.930 . S
C2520 H2508 0.930 . S
C2520 C2521 1.399 . S
C2520 C2525 1.399 . S
C2521 C2520 1.399 . S
C2521 C2522 1.376 . S
C2522 H2509 0.930 . S
C2522 C2521 1.376 . S
C2522 C2523 1.388 . S
C2523 H2510 0.930 . S
C2523 C2522 1.388 . S
C2523 C2524 1.390 . S
C2524 C2523 1.390 . S
C2524 C2525 1.394 . S
C2524 C2530 1.465 . S
C2525 C2520 1.399 . S
C2525 C2524 1.394 . S
C2525 C2526 1.516 . S
C2526 C2525 1.516 . S
C2526 C2527 1.502 . S
C2526 C2528 1.561 . S
C2526 C2529 1.526 . S
C2527 H2511 0.959 . S
C2527 H2512 0.959 . S
C2527 H2513 0.961 . S
C2527 C2526 1.502 . S
C2528 H2514 0.960 . S
C2528 H2515 0.961 . S
C2528 H2516 0.959 . S
C2528 C2526 1.561 . S
C2529 C2526 1.526 . S
C2529 C2530 1.396 . S
C2529 C2534 1.390 . S
C2530 C2524 1.465 . S
C2530 C2529 1.396 . S
C2530 C2531 1.399 . S
C2531 H2517 0.929 . S
C2531 C2530 1.399 . S
C2531 C2532 1.385 . S
C2532 H2518 0.931 . S
C2532 C2531 1.385 . S
C2532 C2533 1.389 . S
C2533 C2532 1.389 . S
C2533 C2534 1.387 . S
C2534 H2519 0.930 . S
C2534 C2529 1.390 . S
C2534 C2533 1.387 . S
H2535 C2547 0.930 . S
H2536 C2549 0.930 . S
H2537 C2550 0.930 . S
H2538 C2554 0.959 . S
H2539 C2554 0.959 . S
H2540 C2554 0.961 . S
H2541 C2555 0.960 . S
H2542 C2555 0.961 . S
H2543 C2555 0.959 . S
H2544 C2558 0.929 . S
H2545 C2559 0.931 . S
H2546 C2561 0.930 . S
C2547 H2535 0.930 . S
C2547 C2548 1.399 . S
C2547 C2552 1.399 . S
C2548 C2547 1.399 . S
C2548 C2549 1.376 . S
C2549 H2536 0.930 . S
C2549 C2548 1.376 . S
C2549 C2550 1.388 . S
C2550 H2537 0.930 . S
C2550 C2549 1.388 . S
C2550 C2551 1.390 . S
C2551 C2550 1.390 . S
C2551 C2552 1.394 . S
C2551 C2557 1.465 . S
C2552 C2547 1.399 . S
C2552 C2551 1.394 . S
C2552 C2553 1.516 . S
C2553 C2552 1.516 . S
C2553 C2554 1.502 . S
C2553 C2555 1.561 . S
C2553 C2556 1.526 . S
C2554 H2538 0.959 . S
C2554 H2539 0.959 . S
C2554 H2540 0.961 . S
C2554 C2553 1.502 . S
C2555 H2541 0.960 . S
C2555 H2542 0.961 . S
C2555 H2543 0.959 . S
C2555 C2553 1.561 . S
C2556 C2553 1.526 . S
C2556 C2557 1.396 . S
C2556 C2561 1.390 . S
C2557 C2551 1.465 . S
C2557 C2556 1.396 . S
C2557 C2558 1.399 . S
C2558 H2544 0.929 . S
C2558 C2557 1.399 . S
C2558 C2559 1.385 . S
C2559 H2545 0.931 . S
C2559 C2558 1.385 . S
C2559 C2560 1.389 . S
C2560 C2559 1.389 . S
C2560 C2561 1.387 . S
C2561 H2546 0.930 . S
C2561 C2556 1.390 . S
C2561 C2560 1.387 . S
H2562 C2574 0.930 . S
H2563 C2576 0.930 . S
H2564 C2577 0.930 . S
H2565 C2581 0.959 . S
H2566 C2581 0.959 . S
H2567 C2581 0.961 . S
H2568 C2582 0.960 . S
H2569 C2582 0.961 . S
H2570 C2582 0.959 . S
H2571 C2585 0.929 . S
H2572 C2586 0.931 . S
H2573 C2588 0.930 . S
C2574 H2562 0.930 . S
C2574 C2575 1.399 . S
C2574 C2579 1.399 . S
C2575 C2574 1.399 . S
C2575 C2576 1.376 . S
C2576 H2563 0.930 . S
C2576 C2575 1.376 . S
C2576 C2577 1.388 . S
C2577 H2564 0.930 . S
C2577 C2576 1.388 . S
C2577 C2578 1.390 . S
C2578 C2577 1.390 . S
C2578 C2579 1.394 . S
C2578 C2584 1.465 . S
C2579 C2574 1.399 . S
C2579 C2578 1.394 . S
C2579 C2580 1.516 . S
C2580 C2579 1.516 . S
C2580 C2581 1.502 . S
C2580 C2582 1.561 . S
C2580 C2583 1.526 . S
C2581 H2565 0.959 . S
C2581 H2566 0.959 . S
C2581 H2567 0.961 . S
C2581 C2580 1.502 . S
C2582 H2568 0.960 . S
C2582 H2569 0.961 . S
C2582 H2570 0.959 . S
C2582 C2580 1.561 . S
C2583 C2580 1.526 . S
C2583 C2584 1.396 . S
C2583 C2588 1.390 . S
C2584 C2578 1.465 . S
C2584 C2583 1.396 . S
C2584 C2585 1.399 . S
C2585 H2571 0.929 . S
C2585 C2584 1.399 . S
C2585 C2586 1.385 . S
C2586 H2572 0.931 . S
C2586 C2585 1.385 . S
C2586 C2587 1.389 . S
C2587 C2586 1.389 . S
C2587 C2588 1.387 . S
C2588 H2573 0.930 . S
C2588 C2583 1.390 . S
C2588 C2587 1.387 . S
H2589 C2601 0.930 . S
H2590 C2603 0.930 . S
H2591 C2604 0.930 . S
H2592 C2608 0.959 . S
H2593 C2608 0.959 . S
H2594 C2608 0.961 . S
H2595 C2609 0.960 . S
H2596 C2609 0.961 . S
H2597 C2609 0.959 . S
H2598 C2612 0.929 . S
H2599 C2613 0.931 . S
H2600 C2615 0.930 . S
C2601 H2589 0.930 . S
C2601 C2602 1.399 . S
C2601 C2606 1.399 . S
C2602 C2601 1.399 . S
C2602 C2603 1.376 . S
C2603 H2590 0.930 . S
C2603 C2602 1.376 . S
C2603 C2604 1.388 . S
C2604 H2591 0.930 . S
C2604 C2603 1.388 . S
C2604 C2605 1.390 . S
C2605 C2604 1.390 . S
C2605 C2606 1.394 . S
C2605 C2611 1.465 . S
C2606 C2601 1.399 . S
C2606 C2605 1.394 . S
C2606 C2607 1.516 . S
C2607 C2606 1.516 . S
C2607 C2608 1.502 . S
C2607 C2609 1.561 . S
C2607 C2610 1.526 . S
C2608 H2592 0.959 . S
C2608 H2593 0.959 . S
C2608 H2594 0.961 . S
C2608 C2607 1.502 . S
C2609 H2595 0.960 . S
C2609 H2596 0.961 . S
C2609 H2597 0.959 . S
C2609 C2607 1.561 . S
C2610 C2607 1.526 . S
C2610 C2611 1.396 . S
C2610 C2615 1.390 . S
C2611 C2605 1.465 . S
C2611 C2610 1.396 . S
C2611 C2612 1.399 . S
C2612 H2598 0.929 . S
C2612 C2611 1.399 . S
C2612 C2613 1.385 . S
C2613 H2599 0.931 . S
C2613 C2612 1.385 . S
C2613 C2614 1.389 . S
C2614 C2613 1.389 . S
C2614 C2615 1.387 . S
C2615 H2600 0.930 . S
C2615 C2610 1.390 . S
C2615 C2614 1.387 . S
H2616 C2628 0.930 . S
H2617 C2630 0.930 . S
H2618 C2631 0.930 . S
H2619 C2635 0.959 . S
H2620 C2635 0.959 . S
H2621 C2635 0.961 . S
H2622 C2636 0.960 . S
H2623 C2636 0.961 . S
H2624 C2636 0.959 . S
H2625 C2639 0.929 . S
H2626 C2640 0.931 . S
H2627 C2642 0.930 . S
C2628 H2616 0.930 . S
C2628 C2629 1.399 . S
C2628 C2633 1.399 . S
C2629 C2628 1.399 . S
C2629 C2630 1.376 . S
C2630 H2617 0.930 . S
C2630 C2629 1.376 . S
C2630 C2631 1.388 . S
C2631 H2618 0.930 . S
C2631 C2630 1.388 . S
C2631 C2632 1.390 . S
C2632 C2631 1.390 . S
C2632 C2633 1.394 . S
C2632 C2638 1.465 . S
C2633 C2628 1.399 . S
C2633 C2632 1.394 . S
C2633 C2634 1.516 . S
C2634 C2633 1.516 . S
C2634 C2635 1.502 . S
C2634 C2636 1.561 . S
C2634 C2637 1.526 . S
C2635 H2619 0.959 . S
C2635 H2620 0.959 . S
C2635 H2621 0.961 . S
C2635 C2634 1.502 . S
C2636 H2622 0.960 . S
C2636 H2623 0.961 . S
C2636 H2624 0.959 . S
C2636 C2634 1.561 . S
C2637 C2634 1.526 . S
C2637 C2638 1.396 . S
C2637 C2642 1.390 . S
C2638 C2632 1.465 . S
C2638 C2637 1.396 . S
C2638 C2639 1.399 . S
C2639 H2625 0.929 . S
C2639 C2638 1.399 . S
C2639 C2640 1.385 . S
C2640 H2626 0.931 . S
C2640 C2639 1.385 . S
C2640 C2641 1.389 . S
C2641 C2640 1.389 . S
C2641 C2642 1.387 . S
C2642 H2627 0.930 . S
C2642 C2637 1.390 . S
C2642 C2641 1.387 . S
H2643 C2655 0.930 . S
H2644 C2657 0.930 . S
H2645 C2658 0.930 . S
H2646 C2662 0.959 . S
H2647 C2662 0.959 . S
H2648 C2662 0.961 . S
H2649 C2663 0.960 . S
H2650 C2663 0.961 . S
H2651 C2663 0.959 . S
H2652 C2666 0.929 . S
H2653 C2667 0.931 . S
H2654 C2669 0.930 . S
C2655 H2643 0.930 . S
C2655 C2656 1.399 . S
C2655 C2660 1.399 . S
C2656 C2655 1.399 . S
C2656 C2657 1.376 . S
C2657 H2644 0.930 . S
C2657 C2656 1.376 . S
C2657 C2658 1.388 . S
C2658 H2645 0.930 . S
C2658 C2657 1.388 . S
C2658 C2659 1.390 . S
C2659 C2658 1.390 . S
C2659 C2660 1.394 . S
C2659 C2665 1.465 . S
C2660 C2655 1.399 . S
C2660 C2659 1.394 . S
C2660 C2661 1.516 . S
C2661 C2660 1.516 . S
C2661 C2662 1.502 . S
C2661 C2663 1.561 . S
C2661 C2664 1.526 . S
C2662 H2646 0.959 . S
C2662 H2647 0.959 . S
C2662 H2648 0.961 . S
C2662 C2661 1.502 . S
C2663 H2649 0.960 . S
C2663 H2650 0.961 . S
C2663 H2651 0.959 . S
C2663 C2661 1.561 . S
C2664 C2661 1.526 . S
C2664 C2665 1.396 . S
C2664 C2669 1.390 . S
C2665 C2659 1.465 . S
C2665 C2664 1.396 . S
C2665 C2666 1.399 . S
C2666 H2652 0.929 . S
C2666 C2665 1.399 . S
C2666 C2667 1.385 . S
C2667 H2653 0.931 . S
C2667 C2666 1.385 . S
C2667 C2668 1.389 . S
C2668 C2667 1.389 . S
C2668 C2669 1.387 . S
C2669 H2654 0.930 . S
C2669 C2664 1.390 . S
C2669 C2668 1.387 . S
H2670 C2682 0.930 . S
H2671 C2684 0.930 . S
H2672 C2685 0.930 . S
H2673 C2689 0.959 . S
H2674 C2689 0.959 . S
H2675 C2689 0.961 . S
H2676 C2690 0.960 . S
H2677 C2690 0.961 . S
H2678 C2690 0.959 . S
H2679 C2693 0.929 . S
H2680 C2694 0.931 . S
H2681 C2696 0.930 . S
C2682 H2670 0.930 . S
C2682 C2683 1.399 . S
C2682 C2687 1.399 . S
C2683 C2682 1.399 . S
C2683 C2684 1.376 . S
C2684 H2671 0.930 . S
C2684 C2683 1.376 . S
C2684 C2685 1.388 . S
C2685 H2672 0.930 . S
C2685 C2684 1.388 . S
C2685 C2686 1.390 . S
C2686 C2685 1.390 . S
C2686 C2687 1.394 . S
C2686 C2692 1.465 . S
C2687 C2682 1.399 . S
C2687 C2686 1.394 . S
C2687 C2688 1.516 . S
C2688 C2687 1.516 . S
C2688 C2689 1.502 . S
C2688 C2690 1.561 . S
C2688 C2691 1.526 . S
C2689 H2673 0.959 . S
C2689 H2674 0.959 . S
C2689 H2675 0.961 . S
C2689 C2688 1.502 . S
C2690 H2676 0.960 . S
C2690 H2677 0.961 . S
C2690 H2678 0.959 . S
C2690 C2688 1.561 . S
C2691 C2688 1.526 . S
C2691 C2692 1.396 . S
C2691 C2696 1.390 . S
C2692 C2686 1.465 . S
C2692 C2691 1.396 . S
C2692 C2693 1.399 . S
C2693 H2679 0.929 . S
C2693 C2692 1.399 . S
C2693 C2694 1.385 . S
C2694 H2680 0.931 . S
C2694 C2693 1.385 . S
C2694 C2695 1.389 . S
C2695 C2694 1.389 . S
C2695 C2696 1.387 . S
C2696 H2681 0.930 . S
C2696 C2691 1.390 . S
C2696 C2695 1.387 . S
H2697 C2709 0.930 . S
H2698 C2711 0.930 . S
H2699 C2712 0.930 . S
H2700 C2716 0.959 . S
H2701 C2716 0.959 . S
H2702 C2716 0.961 . S
H2703 C2717 0.960 . S
H2704 C2717 0.961 . S
H2705 C2717 0.959 . S
H2706 C2720 0.929 . S
H2707 C2721 0.931 . S
H2708 C2723 0.930 . S
C2709 H2697 0.930 . S
C2709 C2710 1.399 . S
C2709 C2714 1.399 . S
C2710 C2709 1.399 . S
C2710 C2711 1.376 . S
C2711 H2698 0.930 . S
C2711 C2710 1.376 . S
C2711 C2712 1.388 . S
C2712 H2699 0.930 . S
C2712 C2711 1.388 . S
C2712 C2713 1.390 . S
C2713 C2712 1.390 . S
C2713 C2714 1.394 . S
C2713 C2719 1.465 . S
C2714 C2709 1.399 . S
C2714 C2713 1.394 . S
C2714 C2715 1.516 . S
C2715 C2714 1.516 . S
C2715 C2716 1.502 . S
C2715 C2717 1.561 . S
C2715 C2718 1.526 . S
C2716 H2700 0.959 . S
C2716 H2701 0.959 . S
C2716 H2702 0.961 . S
C2716 C2715 1.502 . S
C2717 H2703 0.960 . S
C2717 H2704 0.961 . S
C2717 H2705 0.959 . S
C2717 C2715 1.561 . S
C2718 C2715 1.526 . S
C2718 C2719 1.396 . S
C2718 C2723 1.390 . S
C2719 C2713 1.465 . S
C2719 C2718 1.396 . S
C2719 C2720 1.399 . S
C2720 H2706 0.929 . S
C2720 C2719 1.399 . S
C2720 C2721 1.385 . S
C2721 H2707 0.931 . S
C2721 C2720 1.385 . S
C2721 C2722 1.389 . S
C2722 C2721 1.389 . S
C2722 C2723 1.387 . S
C2723 H2708 0.930 . S
C2723 C2718 1.390 . S
C2723 C2722 1.387 . S
H2724 C2736 0.930 . S
H2725 C2738 0.930 . S
H2726 C2739 0.930 . S
H2727 C2743 0.959 . S
H2728 C2743 0.959 . S
H2729 C2743 0.961 . S
H2730 C2744 0.960 . S
H2731 C2744 0.961 . S
H2732 C2744 0.959 . S
H2733 C2747 0.929 . S
H2734 C2748 0.931 . S
H2735 C2750 0.930 . S
C2736 H2724 0.930 . S
C2736 C2737 1.399 . S
C2736 C2741 1.399 . S
C2737 C2736 1.399 . S
C2737 C2738 1.376 . S
C2738 H2725 0.930 . S
C2738 C2737 1.376 . S
C2738 C2739 1.388 . S
C2739 H2726 0.930 . S
C2739 C2738 1.388 . S
C2739 C2740 1.390 . S
C2740 C2739 1.390 . S
C2740 C2741 1.394 . S
C2740 C2746 1.465 . S
C2741 C2736 1.399 . S
C2741 C2740 1.394 . S
C2741 C2742 1.516 . S
C2742 C2741 1.516 . S
C2742 C2743 1.502 . S
C2742 C2744 1.561 . S
C2742 C2745 1.526 . S
C2743 H2727 0.959 . S
C2743 H2728 0.959 . S
C2743 H2729 0.961 . S
C2743 C2742 1.502 . S
C2744 H2730 0.960 . S
C2744 H2731 0.961 . S
C2744 H2732 0.959 . S
C2744 C2742 1.561 . S
C2745 C2742 1.526 . S
C2745 C2746 1.396 . S
C2745 C2750 1.390 . S
C2746 C2740 1.465 . S
C2746 C2745 1.396 . S
C2746 C2747 1.399 . S
C2747 H2733 0.929 . S
C2747 C2746 1.399 . S
C2747 C2748 1.385 . S
C2748 H2734 0.931 . S
C2748 C2747 1.385 . S
C2748 C2749 1.389 . S
C2749 C2748 1.389 . S
C2749 C2750 1.387 . S
C2750 H2735 0.930 . S
C2750 C2745 1.390 . S
C2750 C2749 1.387 . S
H2751 C2763 0.930 . S
H2752 C2765 0.930 . S
H2753 C2766 0.930 . S
H2754 C2770 0.959 . S
H2755 C2770 0.959 . S
H2756 C2770 0.961 . S
H2757 C2771 0.960 . S
H2758 C2771 0.961 . S
H2759 C2771 0.959 . S
H2760 C2774 0.929 . S
H2761 C2775 0.931 . S
H2762 C2777 0.930 . S
C2763 H2751 0.930 . S
C2763 C2764 1.399 . S
C2763 C2768 1.399 . S
C2764 C2763 1.399 . S
C2764 C2765 1.376 . S
C2765 H2752 0.930 . S
C2765 C2764 1.376 . S
C2765 C2766 1.388 . S
C2766 H2753 0.930 . S
C2766 C2765 1.388 . S
C2766 C2767 1.390 . S
C2767 C2766 1.390 . S
C2767 C2768 1.394 . S
C2767 C2773 1.465 . S
C2768 C2763 1.399 . S
C2768 C2767 1.394 . S
C2768 C2769 1.516 . S
C2769 C2768 1.516 . S
C2769 C2770 1.502 . S
C2769 C2771 1.561 . S
C2769 C2772 1.526 . S
C2770 H2754 0.959 . S
C2770 H2755 0.959 . S
C2770 H2756 0.961 . S
C2770 C2769 1.502 . S
C2771 H2757 0.960 . S
C2771 H2758 0.961 . S
C2771 H2759 0.959 . S
C2771 C2769 1.561 . S
C2772 C2769 1.526 . S
C2772 C2773 1.396 . S
C2772 C2777 1.390 . S
C2773 C2767 1.465 . S
C2773 C2772 1.396 . S
C2773 C2774 1.399 . S
C2774 H2760 0.929 . S
C2774 C2773 1.399 . S
C2774 C2775 1.385 . S
C2775 H2761 0.931 . S
C2775 C2774 1.385 . S
C2775 C2776 1.389 . S
C2776 C2775 1.389 . S
C2776 C2777 1.387 . S
C2777 H2762 0.930 . S
C2777 C2772 1.390 . S
C2777 C2776 1.387 . S
H2778 C2790 0.930 . S
H2779 C2792 0.930 . S
H2780 C2793 0.930 . S
H2781 C2797 0.959 . S
H2782 C2797 0.959 . S
H2783 C2797 0.961 . S
H2784 C2798 0.960 . S
H2785 C2798 0.961 . S
H2786 C2798 0.959 . S
H2787 C2801 0.929 . S
H2788 C2802 0.931 . S
H2789 C2804 0.930 . S
C2790 H2778 0.930 . S
C2790 C2791 1.399 . S
C2790 C2795 1.399 . S
C2791 C2790 1.399 . S
C2791 C2792 1.376 . S
C2792 H2779 0.930 . S
C2792 C2791 1.376 . S
C2792 C2793 1.388 . S
C2793 H2780 0.930 . S
C2793 C2792 1.388 . S
C2793 C2794 1.390 . S
C2794 C2793 1.390 . S
C2794 C2795 1.394 . S
C2794 C2800 1.465 . S
C2795 C2790 1.399 . S
C2795 C2794 1.394 . S
C2795 C2796 1.516 . S
C2796 C2795 1.516 . S
C2796 C2797 1.502 . S
C2796 C2798 1.561 . S
C2796 C2799 1.526 . S
C2797 H2781 0.959 . S
C2797 H2782 0.959 . S
C2797 H2783 0.961 . S
C2797 C2796 1.502 . S
C2798 H2784 0.960 . S
C2798 H2785 0.961 . S
C2798 H2786 0.959 . S
C2798 C2796 1.561 . S
C2799 C2796 1.526 . S
C2799 C2800 1.396 . S
C2799 C2804 1.390 . S
C2800 C2794 1.465 . S
C2800 C2799 1.396 . S
C2800 C2801 1.399 . S
C2801 H2787 0.929 . S
C2801 C2800 1.399 . S
C2801 C2802 1.385 . S
C2802 H2788 0.931 . S
C2802 C2801 1.385 . S
C2802 C2803 1.389 . S
C2803 C2802 1.389 . S
C2803 C2804 1.387 . S
C2804 H2789 0.930 . S
C2804 C2799 1.390 . S
C2804 C2803 1.387 . S
H2805 C2817 0.930 . S
H2806 C2819 0.930 . S
H2807 C2820 0.930 . S
H2808 C2824 0.959 . S
H2809 C2824 0.959 . S
H2810 C2824 0.961 . S
H2811 C2825 0.960 . S
H2812 C2825 0.961 . S
H2813 C2825 0.959 . S
H2814 C2828 0.929 . S
H2815 C2829 0.931 . S
H2816 C2831 0.930 . S
C2817 H2805 0.930 . S
C2817 C2818 1.399 . S
C2817 C2822 1.399 . S
C2818 C2817 1.399 . S
C2818 C2819 1.376 . S
C2819 H2806 0.930 . S
C2819 C2818 1.376 . S
C2819 C2820 1.388 . S
C2820 H2807 0.930 . S
C2820 C2819 1.388 . S
C2820 C2821 1.390 . S
C2821 C2820 1.390 . S
C2821 C2822 1.394 . S
C2821 C2827 1.465 . S
C2822 C2817 1.399 . S
C2822 C2821 1.394 . S
C2822 C2823 1.516 . S
C2823 C2822 1.516 . S
C2823 C2824 1.502 . S
C2823 C2825 1.561 . S
C2823 C2826 1.526 . S
C2824 H2808 0.959 . S
C2824 H2809 0.959 . S
C2824 H2810 0.961 . S
C2824 C2823 1.502 . S
C2825 H2811 0.960 . S
C2825 H2812 0.961 . S
C2825 H2813 0.959 . S
C2825 C2823 1.561 . S
C2826 C2823 1.526 . S
C2826 C2827 1.396 . S
C2826 C2831 1.390 . S
C2827 C2821 1.465 . S
C2827 C2826 1.396 . S
C2827 C2828 1.399 . S
C2828 H2814 0.929 . S
C2828 C2827 1.399 . S
C2828 C2829 1.385 . S
C2829 H2815 0.931 . S
C2829 C2828 1.385 . S
C2829 C2830 1.389 . S
C2830 C2829 1.389 . S
C2830 C2831 1.387 . S
C2831 H2816 0.930 . S
C2831 C2826 1.390 . S
C2831 C2830 1.387 . S
H2832 C2844 0.930 . S
H2833 C2846 0.930 . S
H2834 C2847 0.930 . S
H2835 C2851 0.959 . S
H2836 C2851 0.959 . S
H2837 C2851 0.961 . S
H2838 C2852 0.960 . S
H2839 C2852 0.961 . S
H2840 C2852 0.959 . S
H2841 C2855 0.929 . S
H2842 C2856 0.931 . S
H2843 C2858 0.930 . S
C2844 H2832 0.930 . S
C2844 C2845 1.399 . S
C2844 C2849 1.399 . S
C2845 C2844 1.399 . S
C2845 C2846 1.376 . S
C2846 H2833 0.930 . S
C2846 C2845 1.376 . S
C2846 C2847 1.388 . S
C2847 H2834 0.930 . S
C2847 C2846 1.388 . S
C2847 C2848 1.390 . S
C2848 C2847 1.390 . S
C2848 C2849 1.394 . S
C2848 C2854 1.465 . S
C2849 C2844 1.399 . S
C2849 C2848 1.394 . S
C2849 C2850 1.516 . S
C2850 C2849 1.516 . S
C2850 C2851 1.502 . S
C2850 C2852 1.561 . S
C2850 C2853 1.526 . S
C2851 H2835 0.959 . S
C2851 H2836 0.959 . S
C2851 H2837 0.961 . S
C2851 C2850 1.502 . S
C2852 H2838 0.960 . S
C2852 H2839 0.961 . S
C2852 H2840 0.959 . S
C2852 C2850 1.561 . S
C2853 C2850 1.526 . S
C2853 C2854 1.396 . S
C2853 C2858 1.390 . S
C2854 C2848 1.465 . S
C2854 C2853 1.396 . S
C2854 C2855 1.399 . S
C2855 H2841 0.929 . S
C2855 C2854 1.399 . S
C2855 C2856 1.385 . S
C2856 H2842 0.931 . S
C2856 C2855 1.385 . S
C2856 C2857 1.389 . S
C2857 C2856 1.389 . S
C2857 C2858 1.387 . S
C2858 H2843 0.930 . S
C2858 C2853 1.390 . S
C2858 C2857 1.387 . S
H2859 C2871 0.930 . S
H2860 C2873 0.930 . S
H2861 C2874 0.930 . S
H2862 C2878 0.959 . S
H2863 C2878 0.959 . S
H2864 C2878 0.961 . S
H2865 C2879 0.960 . S
H2866 C2879 0.961 . S
H2867 C2879 0.959 . S
H2868 C2882 0.929 . S
H2869 C2883 0.931 . S
H2870 C2885 0.930 . S
C2871 H2859 0.930 . S
C2871 C2872 1.399 . S
C2871 C2876 1.399 . S
C2872 C2871 1.399 . S
C2872 C2873 1.376 . S
C2873 H2860 0.930 . S
C2873 C2872 1.376 . S
C2873 C2874 1.388 . S
C2874 H2861 0.930 . S
C2874 C2873 1.388 . S
C2874 C2875 1.390 . S
C2875 C2874 1.390 . S
C2875 C2876 1.394 . S
C2875 C2881 1.465 . S
C2876 C2871 1.399 . S
C2876 C2875 1.394 . S
C2876 C2877 1.516 . S
C2877 C2876 1.516 . S
C2877 C2878 1.502 . S
C2877 C2879 1.561 . S
C2877 C2880 1.526 . S
C2878 H2862 0.959 . S
C2878 H2863 0.959 . S
C2878 H2864 0.961 . S
C2878 C2877 1.502 . S
C2879 H2865 0.960 . S
C2879 H2866 0.961 . S
C2879 H2867 0.959 . S
C2879 C2877 1.561 . S
C2880 C2877 1.526 . S
C2880 C2881 1.396 . S
C2880 C2885 1.390 . S
C2881 C2875 1.465 . S
C2881 C2880 1.396 . S
C2881 C2882 1.399 . S
C2882 H2868 0.929 . S
C2882 C2881 1.399 . S
C2882 C2883 1.385 . S
C2883 H2869 0.931 . S
C2883 C2882 1.385 . S
C2883 C2884 1.389 . S
C2884 C2883 1.389 . S
C2884 C2885 1.387 . S
C2885 H2870 0.930 . S
C2885 C2880 1.390 . S
C2885 C2884 1.387 . S
H2886 C2898 0.930 . S
H2887 C2900 0.930 . S
H2888 C2901 0.930 . S
H2889 C2905 0.959 . S
H2890 C2905 0.959 . S
H2891 C2905 0.961 . S
H2892 C2906 0.960 . S
H2893 C2906 0.961 . S
H2894 C2906 0.959 . S
H2895 C2909 0.929 . S
H2896 C2910 0.931 . S
H2897 C2912 0.930 . S
C2898 H2886 0.930 . S
C2898 C2899 1.399 . S
C2898 C2903 1.399 . S
C2899 C2898 1.399 . S
C2899 C2900 1.376 . S
C2900 H2887 0.930 . S
C2900 C2899 1.376 . S
C2900 C2901 1.388 . S
C2901 H2888 0.930 . S
C2901 C2900 1.388 . S
C2901 C2902 1.390 . S
C2902 C2901 1.390 . S
C2902 C2903 1.394 . S
C2902 C2908 1.465 . S
C2903 C2898 1.399 . S
C2903 C2902 1.394 . S
C2903 C2904 1.516 . S
C2904 C2903 1.516 . S
C2904 C2905 1.502 . S
C2904 C2906 1.561 . S
C2904 C2907 1.526 . S
C2905 H2889 0.959 . S
C2905 H2890 0.959 . S
C2905 H2891 0.961 . S
C2905 C2904 1.502 . S
C2906 H2892 0.960 . S
C2906 H2893 0.961 . S
C2906 H2894 0.959 . S
C2906 C2904 1.561 . S
C2907 C2904 1.526 . S
C2907 C2908 1.396 . S
C2907 C2912 1.390 . S
C2908 C2902 1.465 . S
C2908 C2907 1.396 . S
C2908 C2909 1.399 . S
C2909 H2895 0.929 . S
C2909 C2908 1.399 . S
C2909 C2910 1.385 . S
C2910 H2896 0.931 . S
C2910 C2909 1.385 . S
C2910 C2911 1.389 . S
C2911 C2910 1.389 . S
C2911 C2912 1.387 . S
C2912 H2897 0.930 . S
C2912 C2907 1.390 . S
C2912 C2911 1.387 . S
H2913 C2925 0.930 . S
H2914 C2927 0.930 . S
H2915 C2928 0.930 . S
H2916 C2932 0.959 . S
H2917 C2932 0.959 . S
H2918 C2932 0.961 . S
H2919 C2933 0.960 . S
H2920 C2933 0.961 . S
H2921 C2933 0.959 . S
H2922 C2936 0.929 . S
H2923 C2937 0.931 . S
H2924 C2939 0.930 . S
C2925 H2913 0.930 . S
C2925 C2926 1.399 . S
C2925 C2930 1.399 . S
C2926 C2925 1.399 . S
C2926 C2927 1.376 . S
C2927 H2914 0.930 . S
C2927 C2926 1.376 . S
C2927 C2928 1.388 . S
C2928 H2915 0.930 . S
C2928 C2927 1.388 . S
C2928 C2929 1.390 . S
C2929 C2928 1.390 . S
C2929 C2930 1.394 . S
C2929 C2935 1.465 . S
C2930 C2925 1.399 . S
C2930 C2929 1.394 . S
C2930 C2931 1.516 . S
C2931 C2930 1.516 . S
C2931 C2932 1.502 . S
C2931 C2933 1.561 . S
C2931 C2934 1.526 . S
C2932 H2916 0.959 . S
C2932 H2917 0.959 . S
C2932 H2918 0.961 . S
C2932 C2931 1.502 . S
C2933 H2919 0.960 . S
C2933 H2920 0.961 . S
C2933 H2921 0.959 . S
C2933 C2931 1.561 . S
C2934 C2931 1.526 . S
C2934 C2935 1.396 . S
C2934 C2939 1.390 . S
C2935 C2929 1.465 . S
C2935 C2934 1.396 . S
C2935 C2936 1.399 . S
C2936 H2922 0.929 . S
C2936 C2935 1.399 . S
C2936 C2937 1.385 . S
C2937 H2923 0.931 . S
C2937 C2936 1.385 . S
C2937 C2938 1.389 . S
C2938 C2937 1.389 . S
C2938 C2939 1.387 . S
C2939 H2924 0.930 . S
C2939 C2934 1.390 . S
C2939 C2938 1.387 . S
H2940 C2952 0.930 . S
H2941 C2954 0.930 . S
H2942 C2955 0.930 . S
H2943 C2959 0.959 . S
H2944 C2959 0.959 . S
H2945 C2959 0.961 . S
H2946 C2960 0.960 . S
H2947 C2960 0.961 . S
H2948 C2960 0.959 . S
H2949 C2963 0.929 . S
H2950 C2964 0.931 . S
H2951 C2966 0.930 . S
C2952 H2940 0.930 . S
C2952 C2953 1.399 . S
C2952 C2957 1.399 . S
C2953 C2952 1.399 . S
C2953 C2954 1.376 . S
C2954 H2941 0.930 . S
C2954 C2953 1.376 . S
C2954 C2955 1.388 . S
C2955 H2942 0.930 . S
C2955 C2954 1.388 . S
C2955 C2956 1.390 . S
C2956 C2955 1.390 . S
C2956 C2957 1.394 . S
C2956 C2962 1.465 . S
C2957 C2952 1.399 . S
C2957 C2956 1.394 . S
C2957 C2958 1.516 . S
C2958 C2957 1.516 . S
C2958 C2959 1.502 . S
C2958 C2960 1.561 . S
C2958 C2961 1.526 . S
C2959 H2943 0.959 . S
C2959 H2944 0.959 . S
C2959 H2945 0.961 . S
C2959 C2958 1.502 . S
C2960 H2946 0.960 . S
C2960 H2947 0.961 . S
C2960 H2948 0.959 . S
C2960 C2958 1.561 . S
C2961 C2958 1.526 . S
C2961 C2962 1.396 . S
C2961 C2966 1.390 . S
C2962 C2956 1.465 . S
C2962 C2961 1.396 . S
C2962 C2963 1.399 . S
C2963 H2949 0.929 . S
C2963 C2962 1.399 . S
C2963 C2964 1.385 . S
C2964 H2950 0.931 . S
C2964 C2963 1.385 . S
C2964 C2965 1.389 . S
C2965 C2964 1.389 . S
C2965 C2966 1.387 . S
C2966 H2951 0.930 . S
C2966 C2961 1.390 . S
C2966 C2965 1.387 . S
H2967 C2979 0.930 . S
H2968 C2981 0.930 . S
H2969 C2982 0.930 . S
H2970 C2986 0.959 . S
H2971 C2986 0.959 . S
H2972 C2986 0.961 . S
H2973 C2987 0.960 . S
H2974 C2987 0.961 . S
H2975 C2987 0.959 . S
H2976 C2990 0.929 . S
H2977 C2991 0.931 . S
H2978 C2993 0.930 . S
C2979 H2967 0.930 . S
C2979 C2980 1.399 . S
C2979 C2984 1.399 . S
C2980 C2979 1.399 . S
C2980 C2981 1.376 . S
C2981 H2968 0.930 . S
C2981 C2980 1.376 . S
C2981 C2982 1.388 . S
C2982 H2969 0.930 . S
C2982 C2981 1.388 . S
C2982 C2983 1.390 . S
C2983 C2982 1.390 . S
C2983 C2984 1.394 . S
C2983 C2989 1.465 . S
C2984 C2979 1.399 . S
C2984 C2983 1.394 . S
C2984 C2985 1.516 . S
C2985 C2984 1.516 . S
C2985 C2986 1.502 . S
C2985 C2987 1.561 . S
C2985 C2988 1.526 . S
C2986 H2970 0.959 . S
C2986 H2971 0.959 . S
C2986 H2972 0.961 . S
C2986 C2985 1.502 . S
C2987 H2973 0.960 . S
C2987 H2974 0.961 . S
C2987 H2975 0.959 . S
C2987 C2985 1.561 . S
C2988 C2985 1.526 . S
C2988 C2989 1.396 . S
C2988 C2993 1.390 . S
C2989 C2983 1.465 . S
C2989 C2988 1.396 . S
C2989 C2990 1.399 . S
C2990 H2976 0.929 . S
C2990 C2989 1.399 . S
C2990 C2991 1.385 . S
C2991 H2977 0.931 . S
C2991 C2990 1.385 . S
C2991 C2992 1.389 . S
C2992 C2991 1.389 . S
C2992 C2993 1.387 . S
C2993 H2978 0.930 . S
C2993 C2988 1.390 . S
C2993 C2992 1.387 . S
H2994 C3006 0.930 . S
H2995 C3008 0.930 . S
H2996 C3009 0.930 . S
H2997 C3013 0.959 . S
H2998 C3013 0.959 . S
H2999 C3013 0.961 . S
H3000 C3014 0.960 . S
H3001 C3014 0.961 . S
H3002 C3014 0.959 . S
H3003 C3017 0.929 . S
H3004 C3018 0.931 . S
H3005 C3020 0.930 . S
C3006 H2994 0.930 . S
C3006 C3007 1.399 . S
C3006 C3011 1.399 . S
C3007 C3006 1.399 . S
C3007 C3008 1.376 . S
C3008 H2995 0.930 . S
C3008 C3007 1.376 . S
C3008 C3009 1.388 . S
C3009 H2996 0.930 . S
C3009 C3008 1.388 . S
C3009 C3010 1.390 . S
C3010 C3009 1.390 . S
C3010 C3011 1.394 . S
C3010 C3016 1.465 . S
C3011 C3006 1.399 . S
C3011 C3010 1.394 . S
C3011 C3012 1.516 . S
C3012 C3011 1.516 . S
C3012 C3013 1.502 . S
C3012 C3014 1.561 . S
C3012 C3015 1.526 . S
C3013 H2997 0.959 . S
C3013 H2998 0.959 . S
C3013 H2999 0.961 . S
C3013 C3012 1.502 . S
C3014 H3000 0.960 . S
C3014 H3001 0.961 . S
C3014 H3002 0.959 . S
C3014 C3012 1.561 . S
C3015 C3012 1.526 . S
C3015 C3016 1.396 . S
C3015 C3020 1.390 . S
C3016 C3010 1.465 . S
C3016 C3015 1.396 . S
C3016 C3017 1.399 . S
C3017 H3003 0.929 . S
C3017 C3016 1.399 . S
C3017 C3018 1.385 . S
C3018 H3004 0.931 . S
C3018 C3017 1.385 . S
C3018 C3019 1.389 . S
C3019 C3018 1.389 . S
C3019 C3020 1.387 . S
C3020 H3005 0.930 . S
C3020 C3015 1.390 . S
C3020 C3019 1.387 . S
H3021 C3033 0.930 . S
H3022 C3035 0.930 . S
H3023 C3036 0.930 . S
H3024 C3040 0.959 . S
H3025 C3040 0.959 . S
H3026 C3040 0.961 . S
H3027 C3041 0.960 . S
H3028 C3041 0.961 . S
H3029 C3041 0.959 . S
H3030 C3044 0.929 . S
H3031 C3045 0.931 . S
H3032 C3047 0.930 . S
C3033 H3021 0.930 . S
C3033 C3034 1.399 . S
C3033 C3038 1.399 . S
C3034 C3033 1.399 . S
C3034 C3035 1.376 . S
C3035 H3022 0.930 . S
C3035 C3034 1.376 . S
C3035 C3036 1.388 . S
C3036 H3023 0.930 . S
C3036 C3035 1.388 . S
C3036 C3037 1.390 . S
C3037 C3036 1.390 . S
C3037 C3038 1.394 . S
C3037 C3043 1.465 . S
C3038 C3033 1.399 . S
C3038 C3037 1.394 . S
C3038 C3039 1.516 . S
C3039 C3038 1.516 . S
C3039 C3040 1.502 . S
C3039 C3041 1.561 . S
C3039 C3042 1.526 . S
C3040 H3024 0.959 . S
C3040 H3025 0.959 . S
C3040 H3026 0.961 . S
C3040 C3039 1.502 . S
C3041 H3027 0.960 . S
C3041 H3028 0.961 . S
C3041 H3029 0.959 . S
C3041 C3039 1.561 . S
C3042 C3039 1.526 . S
C3042 C3043 1.396 . S
C3042 C3047 1.390 . S
C3043 C3037 1.465 . S
C3043 C3042 1.396 . S
C3043 C3044 1.399 . S
C3044 H3030 0.929 . S
C3044 C3043 1.399 . S
C3044 C3045 1.385 . S
C3045 H3031 0.931 . S
C3045 C3044 1.385 . S
C3045 C3046 1.389 . S
C3046 C3045 1.389 . S
C3046 C3047 1.387 . S
C3047 H3032 0.930 . S
C3047 C3042 1.390 . S
C3047 C3046 1.387 . S
H3048 C3060 0.930 . S
H3049 C3062 0.930 . S
H3050 C3063 0.930 . S
H3051 C3067 0.959 . S
H3052 C3067 0.959 . S
H3053 C3067 0.961 . S
H3054 C3068 0.960 . S
H3055 C3068 0.961 . S
H3056 C3068 0.959 . S
H3057 C3071 0.929 . S
H3058 C3072 0.931 . S
H3059 C3074 0.930 . S
C3060 H3048 0.930 . S
C3060 C3061 1.399 . S
C3060 C3065 1.399 . S
C3061 C3060 1.399 . S
C3061 C3062 1.376 . S
C3062 H3049 0.930 . S
C3062 C3061 1.376 . S
C3062 C3063 1.388 . S
C3063 H3050 0.930 . S
C3063 C3062 1.388 . S
C3063 C3064 1.390 . S
C3064 C3063 1.390 . S
C3064 C3065 1.394 . S
C3064 C3070 1.465 . S
C3065 C3060 1.399 . S
C3065 C3064 1.394 . S
C3065 C3066 1.516 . S
C3066 C3065 1.516 . S
C3066 C3067 1.502 . S
C3066 C3068 1.561 . S
C3066 C3069 1.526 . S
C3067 H3051 0.959 . S
C3067 H3052 0.959 . S
C3067 H3053 0.961 . S
C3067 C3066 1.502 . S
C3068 H3054 0.960 . S
C3068 H3055 0.961 . S
C3068 H3056 0.959 . S
C3068 C3066 1.561 . S
C3069 C3066 1.526 . S
C3069 C3070 1.396 . S
C3069 C3074 1.390 . S
C3070 C3064 1.465 . S
C3070 C3069 1.396 . S
C3070 C3071 1.399 . S
C3071 H3057 0.929 . S
C3071 C3070 1.399 . S
C3071 C3072 1.385 . S
C3072 H3058 0.931 . S
C3072 C3071 1.385 . S
C3072 C3073 1.389 . S
C3073 C3072 1.389 . S
C3073 C3074 1.387 . S
C3074 H3059 0.930 . S
C3074 C3069 1.390 . S
C3074 C3073 1.387 . S
H3075 C3087 0.930 . S
H3076 C3089 0.930 . S
H3077 C3090 0.930 . S
H3078 C3094 0.959 . S
H3079 C3094 0.959 . S
H3080 C3094 0.961 . S
H3081 C3095 0.960 . S
H3082 C3095 0.961 . S
H3083 C3095 0.959 . S
H3084 C3098 0.929 . S
H3085 C3099 0.931 . S
H3086 C3101 0.930 . S
C3087 H3075 0.930 . S
C3087 C3088 1.399 . S
C3087 C3092 1.399 . S
C3088 C3087 1.399 . S
C3088 C3089 1.376 . S
C3089 H3076 0.930 . S
C3089 C3088 1.376 . S
C3089 C3090 1.388 . S
C3090 H3077 0.930 . S
C3090 C3089 1.388 . S
C3090 C3091 1.390 . S
C3091 C3090 1.390 . S
C3091 C3092 1.394 . S
C3091 C3097 1.465 . S
C3092 C3087 1.399 . S
C3092 C3091 1.394 . S
C3092 C3093 1.516 . S
C3093 C3092 1.516 . S
C3093 C3094 1.502 . S
C3093 C3095 1.561 . S
C3093 C3096 1.526 . S
C3094 H3078 0.959 . S
C3094 H3079 0.959 . S
C3094 H3080 0.961 . S
C3094 C3093 1.502 . S
C3095 H3081 0.960 . S
C3095 H3082 0.961 . S
C3095 H3083 0.959 . S
C3095 C3093 1.561 . S
C3096 C3093 1.526 . S
C3096 C3097 1.396 . S
C3096 C3101 1.390 . S
C3097 C3091 1.465 . S
C3097 C3096 1.396 . S
C3097 C3098 1.399 . S
C3098 H3084 0.929 . S
C3098 C3097 1.399 . S
C3098 C3099 1.385 . S
C3099 H3085 0.931 . S
C3099 C3098 1.385 . S
C3099 C3100 1.389 . S
C3100 C3099 1.389 . S
C3100 C3101 1.387 . S
C3101 H3086 0.930 . S
C3101 C3096 1.390 . S
C3101 C3100 1.387 . S
H3102 C3114 0.930 . S
H3103 C3116 0.930 . S
H3104 C3117 0.930 . S
H3105 C3121 0.959 . S
H3106 C3121 0.959 . S
H3107 C3121 0.961 . S
H3108 C3122 0.960 . S
H3109 C3122 0.961 . S
H3110 C3122 0.959 . S
H3111 C3125 0.929 . S
H3112 C3126 0.931 . S
H3113 C3128 0.930 . S
C3114 H3102 0.930 . S
C3114 C3115 1.399 . S
C3114 C3119 1.399 . S
C3115 C3114 1.399 . S
C3115 C3116 1.376 . S
C3116 H3103 0.930 . S
C3116 C3115 1.376 . S
C3116 C3117 1.388 . S
C3117 H3104 0.930 . S
C3117 C3116 1.388 . S
C3117 C3118 1.390 . S
C3118 C3117 1.390 . S
C3118 C3119 1.394 . S
C3118 C3124 1.465 . S
C3119 C3114 1.399 . S
C3119 C3118 1.394 . S
C3119 C3120 1.516 . S
C3120 C3119 1.516 . S
C3120 C3121 1.502 . S
C3120 C3122 1.561 . S
C3120 C3123 1.526 . S
C3121 H3105 0.959 . S
C3121 H3106 0.959 . S
C3121 H3107 0.961 . S
C3121 C3120 1.502 . S
C3122 H3108 0.960 . S
C3122 H3109 0.961 . S
C3122 H3110 0.959 . S
C3122 C3120 1.561 . S
C3123 C3120 1.526 . S
C3123 C3124 1.396 . S
C3123 C3128 1.390 . S
C3124 C3118 1.465 . S
C3124 C3123 1.396 . S
C3124 C3125 1.399 . S
C3125 H3111 0.929 . S
C3125 C3124 1.399 . S
C3125 C3126 1.385 . S
C3126 H3112 0.931 . S
C3126 C3125 1.385 . S
C3126 C3127 1.389 . S
C3127 C3126 1.389 . S
C3127 C3128 1.387 . S
C3128 H3113 0.930 . S
C3128 C3123 1.390 . S
C3128 C3127 1.387 . S
H3129 C3141 0.930 . S
H3130 C3143 0.930 . S
H3131 C3144 0.930 . S
H3132 C3148 0.959 . S
H3133 C3148 0.959 . S
H3134 C3148 0.961 . S
H3135 C3149 0.960 . S
H3136 C3149 0.961 . S
H3137 C3149 0.959 . S
H3138 C3152 0.929 . S
H3139 C3153 0.931 . S
H3140 C3155 0.930 . S
C3141 H3129 0.930 . S
C3141 C3142 1.399 . S
C3141 C3146 1.399 . S
C3142 C3141 1.399 . S
C3142 C3143 1.376 . S
C3143 H3130 0.930 . S
C3143 C3142 1.376 . S
C3143 C3144 1.388 . S
C3144 H3131 0.930 . S
C3144 C3143 1.388 . S
C3144 C3145 1.390 . S
C3145 C3144 1.390 . S
C3145 C3146 1.394 . S
C3145 C3151 1.465 . S
C3146 C3141 1.399 . S
C3146 C3145 1.394 . S
C3146 C3147 1.516 . S
C3147 C3146 1.516 . S
C3147 C3148 1.502 . S
C3147 C3149 1.561 . S
C3147 C3150 1.526 . S
C3148 H3132 0.959 . S
C3148 H3133 0.959 . S
C3148 H3134 0.961 . S
C3148 C3147 1.502 . S
C3149 H3135 0.960 . S
C3149 H3136 0.961 . S
C3149 H3137 0.959 . S
C3149 C3147 1.561 . S
C3150 C3147 1.526 . S
C3150 C3151 1.396 . S
C3150 C3155 1.390 . S
C3151 C3145 1.465 . S
C3151 C3150 1.396 . S
C3151 C3152 1.399 . S
C3152 H3138 0.929 . S
C3152 C3151 1.399 . S
C3152 C3153 1.385 . S
C3153 H3139 0.931 . S
C3153 C3152 1.385 . S
C3153 C3154 1.389 . S
C3154 C3153 1.389 . S
C3154 C3155 1.387 . S
C3155 H3140 0.930 . S
C3155 C3150 1.390 . S
C3155 C3154 1.387 . S
H3156 C3168 0.930 . S
H3157 C3170 0.930 . S
H3158 C3171 0.930 . S
H3159 C3175 0.959 . S
H3160 C3175 0.959 . S
H3161 C3175 0.961 . S
H3162 C3176 0.960 . S
H3163 C3176 0.961 . S
H3164 C3176 0.959 . S
H3165 C3179 0.929 . S
H3166 C3180 0.931 . S
H3167 C3182 0.930 . S
C3168 H3156 0.930 . S
C3168 C3169 1.399 . S
C3168 C3173 1.399 . S
C3169 C3168 1.399 . S
C3169 C3170 1.376 . S
C3170 H3157 0.930 . S
C3170 C3169 1.376 . S
C3170 C3171 1.388 . S
C3171 H3158 0.930 . S
C3171 C3170 1.388 . S
C3171 C3172 1.390 . S
C3172 C3171 1.390 . S
C3172 C3173 1.394 . S
C3172 C3178 1.465 . S
C3173 C3168 1.399 . S
C3173 C3172 1.394 . S
C3173 C3174 1.516 . S
C3174 C3173 1.516 . S
C3174 C3175 1.502 . S
C3174 C3176 1.561 . S
C3174 C3177 1.526 . S
C3175 H3159 0.959 . S
C3175 H3160 0.959 . S
C3175 H3161 0.961 . S
C3175 C3174 1.502 . S
C3176 H3162 0.960 . S
C3176 H3163 0.961 . S
C3176 H3164 0.959 . S
C3176 C3174 1.561 . S
C3177 C3174 1.526 . S
C3177 C3178 1.396 . S
C3177 C3182 1.390 . S
C3178 C3172 1.465 . S
C3178 C3177 1.396 . S
C3178 C3179 1.399 . S
C3179 H3165 0.929 . S
C3179 C3178 1.399 . S
C3179 C3180 1.385 . S
C3180 H3166 0.931 . S
C3180 C3179 1.385 . S
C3180 C3181 1.389 . S
C3181 C3180 1.389 . S
C3181 C3182 1.387 . S
C3182 H3167 0.930 . S
C3182 C3177 1.390 . S
C3182 C3181 1.387 . S
H3183 C3195 0.930 . S
H3184 C3197 0.930 . S
H3185 C3198 0.930 . S
H3186 C3202 0.959 . S
H3187 C3202 0.959 . S
H3188 C3202 0.961 . S
H3189 C3203 0.960 . S
H3190 C3203 0.961 . S
H3191 C3203 0.959 . S
H3192 C3206 0.929 . S
H3193 C3207 0.931 . S
H3194 C3209 0.930 . S
C3195 H3183 0.930 . S
C3195 C3196 1.399 . S
C3195 C3200 1.399 . S
C3196 C3195 1.399 . S
C3196 C3197 1.376 . S
C3197 H3184 0.930 . S
C3197 C3196 1.376 . S
C3197 C3198 1.388 . S
C3198 H3185 0.930 . S
C3198 C3197 1.388 . S
C3198 C3199 1.390 . S
C3199 C3198 1.390 . S
C3199 C3200 1.394 . S
C3199 C3205 1.465 . S
C3200 C3195 1.399 . S
C3200 C3199 1.394 . S
C3200 C3201 1.516 . S
C3201 C3200 1.516 . S
C3201 C3202 1.502 . S
C3201 C3203 1.561 . S
C3201 C3204 1.526 . S
C3202 H3186 0.959 . S
C3202 H3187 0.959 . S
C3202 H3188 0.961 . S
C3202 C3201 1.502 . S
C3203 H3189 0.960 . S
C3203 H3190 0.961 . S
C3203 H3191 0.959 . S
C3203 C3201 1.561 . S
C3204 C3201 1.526 . S
C3204 C3205 1.396 . S
C3204 C3209 1.390 . S
C3205 C3199 1.465 . S
C3205 C3204 1.396 . S
C3205 C3206 1.399 . S
C3206 H3192 0.929 . S
C3206 C3205 1.399 . S
C3206 C3207 1.385 . S
C3207 H3193 0.931 . S
C3207 C3206 1.385 . S
C3207 C3208 1.389 . S
C3208 C3207 1.389 . S
C3208 C3209 1.387 . S
C3209 H3194 0.930 . S
C3209 C3204 1.390 . S
C3209 C3208 1.387 . S
H3210 C3222 0.930 . S
H3211 C3224 0.930 . S
H3212 C3225 0.930 . S
H3213 C3229 0.959 . S
H3214 C3229 0.959 . S
H3215 C3229 0.961 . S
H3216 C3230 0.960 . S
H3217 C3230 0.961 . S
H3218 C3230 0.959 . S
H3219 C3233 0.929 . S
H3220 C3234 0.931 . S
H3221 C3236 0.930 . S
C3222 H3210 0.930 . S
C3222 C3223 1.399 . S
C3222 C3227 1.399 . S
C3223 C3222 1.399 . S
C3223 C3224 1.376 . S
C3224 H3211 0.930 . S
C3224 C3223 1.376 . S
C3224 C3225 1.388 . S
C3225 H3212 0.930 . S
C3225 C3224 1.388 . S
C3225 C3226 1.390 . S
C3226 C3225 1.390 . S
C3226 C3227 1.394 . S
C3226 C3232 1.465 . S
C3227 C3222 1.399 . S
C3227 C3226 1.394 . S
C3227 C3228 1.516 . S
C3228 C3227 1.516 . S
C3228 C3229 1.502 . S
C3228 C3230 1.561 . S
C3228 C3231 1.526 . S
C3229 H3213 0.959 . S
C3229 H3214 0.959 . S
C3229 H3215 0.961 . S
C3229 C3228 1.502 . S
C3230 H3216 0.960 . S
C3230 H3217 0.961 . S
C3230 H3218 0.959 . S
C3230 C3228 1.561 . S
C3231 C3228 1.526 . S
C3231 C3232 1.396 . S
C3231 C3236 1.390 . S
C3232 C3226 1.465 . S
C3232 C3231 1.396 . S
C3232 C3233 1.399 . S
C3233 H3219 0.929 . S
C3233 C3232 1.399 . S
C3233 C3234 1.385 . S
C3234 H3220 0.931 . S
C3234 C3233 1.385 . S
C3234 C3235 1.389 . S
C3235 C3234 1.389 . S
C3235 C3236 1.387 . S
C3236 H3221 0.930 . S
C3236 C3231 1.390 . S
C3236 C3235 1.387 . S
H3237 C3249 0.930 . S
H3238 C3251 0.930 . S
H3239 C3252 0.930 . S
H3240 C3256 0.959 . S
H3241 C3256 0.959 . S
H3242 C3256 0.961 . S
H3243 C3257 0.960 . S
H3244 C3257 0.961 . S
H3245 C3257 0.959 . S
H3246 C3260 0.929 . S
H3247 C3261 0.931 . S
H3248 C3263 0.930 . S
C3249 H3237 0.930 . S
C3249 C3250 1.399 . S
C3249 C3254 1.399 . S
C3250 C3249 1.399 . S
C3250 C3251 1.376 . S
C3251 H3238 0.930 . S
C3251 C3250 1.376 . S
C3251 C3252 1.388 . S
C3252 H3239 0.930 . S
C3252 C3251 1.388 . S
C3252 C3253 1.390 . S
C3253 C3252 1.390 . S
C3253 C3254 1.394 . S
C3253 C3259 1.465 . S
C3254 C3249 1.399 . S
C3254 C3253 1.394 . S
C3254 C3255 1.516 . S
C3255 C3254 1.516 . S
C3255 C3256 1.502 . S
C3255 C3257 1.561 . S
C3255 C3258 1.526 . S
C3256 H3240 0.959 . S
C3256 H3241 0.959 . S
C3256 H3242 0.961 . S
C3256 C3255 1.502 . S
C3257 H3243 0.960 . S
C3257 H3244 0.961 . S
C3257 H3245 0.959 . S
C3257 C3255 1.561 . S
C3258 C3255 1.526 . S
C3258 C3259 1.396 . S
C3258 C3263 1.390 . S
C3259 C3253 1.465 . S
C3259 C3258 1.396 . S
C3259 C3260 1.399 . S
C3260 H3246 0.929 . S
C3260 C3259 1.399 . S
C3260 C3261 1.385 . S
C3261 H3247 0.931 . S
C3261 C3260 1.385 . S
C3261 C3262 1.389 . S
C3262 C3261 1.389 . S
C3262 C3263 1.387 . S
C3263 H3248 0.930 . S
C3263 C3258 1.390 . S
C3263 C3262 1.387 . S
C685 C442 1.379 . S
C697 C8 1.380 . S
C712 C22 1.378 . S
C724 C400 1.380 . S
C739 C36 1.379 . S
C751 C414 1.375 . S
C766 C428 1.374 . S
C778 C50 1.373 . S
C793 C358 1.376 . S
C805 C64 1.380 . S
C820 C78 1.380 . S
C832 C372 1.378 . S
C847 C386 1.379 . S
C859 C92 1.379 . S
C874 C106 1.373 . S
C886 C344 1.377 . S
C901 C120 1.378 . S
C913 C624 1.380 . S
C928 C582 1.378 . S
C940 C134 1.374 . S
C955 C596 1.374 . S
C967 C148 1.373 . S
C982 C162 1.374 . S
C994 C610 1.378 . S
C1009 C176 1.378 . S
C1021 C666 1.380 . S
C1036 C190 1.374 . S
C1048 C638 1.379 . S
C1063 C204 1.378 . S
C1075 C652 1.380 . S
C1090 C568 1.380 . S
C1102 C218 1.378 . S
C1117 C554 1.373 . S
C1129 C232 1.378 . S
C1144 C246 1.379 . S
C1156 C470 1.375 . S
C1171 C484 1.379 . S
C1183 C260 1.374 . S
C1198 C274 1.373 . S
C1210 C498 1.374 . S
C1225 C456 1.380 . S
C1237 C288 1.378 . S
C1252 C526 1.379 . S
C1264 C302 1.375 . S
C1279 C316 1.374 . S
C1291 C540 1.374 . S
C1306 C512 1.378 . S
C1318 C330 1.374 . S
C1333 C133 1.333 . S
C1345 C7 1.325 . S
C1360 C147 1.302 . S
C1372 C21 1.292 . S
C1387 C35 1.287 . S
C1399 C161 1.297 . S
C1414 C119 1.337 . S
C1426 C49 1.335 . S
C1441 C63 1.282 . S
C1453 C217 1.290 . S
C1468 C175 1.319 . S
C1480 C77 1.328 . S
C1495 C189 1.296 . S
C1507 C91 1.287 . S
C1522 C203 1.335 . S
C1534 C105 1.336 . S
C1549 C259 1.296 . S
C1561 C231 1.307 . S
C1576 C315 1.337 . S
C1588 C245 1.334 . S
C1603 C329 1.323 . S
C1615 C273 1.332 . S
C1630 C287 1.294 . S
C1642 C301 1.286 . S
C1657 C469 1.337 . S
C1669 C343 1.334 . S
C1684 C483 1.327 . S
C1696 C357 1.334 . S
C1711 C497 1.325 . S
C1723 C371 1.315 . S
C1738 C385 1.307 . S
C1750 C455 1.296 . S
C1765 C399 1.309 . S
C1777 C553 1.297 . S
C1792 C413 1.328 . S
C1804 C511 1.334 . S
C1819 C525 1.325 . S
C1831 C427 1.315 . S
C1846 C539 1.296 . S
C1858 C441 1.308 . S
C1873 C567 1.312 . S
C1885 C595 1.301 . S
C1900 C651 1.337 . S
C1912 C581 1.333 . S
C1927 C665 1.307 . S
C1939 C609 1.296 . S
C1954 C637 1.324 . S
C1966 C623 1.332 . S
C1981 C3 1.444 . S
C1993 C261 1.370 . S
C2008 C17 1.412 . S
C2020 C275 1.434 . S
C2035 C31 1.415 . S
C2047 C289 1.418 . S
C2062 C247 1.421 . S
C2074 C45 1.415 . S
C2089 C59 1.442 . S
C2101 C317 1.388 . S
C2116 C73 1.423 . S
C2128 C233 1.427 . S
C2143 C331 1.383 . S
C2155 C87 1.431 . S
C2170 C303 1.402 . S
C2182 C101 1.422 . S
C2197 C115 1.444 . S
C2209 C135 1.384 . S
C2224 C129 1.443 . S
C2236 C149 1.384 . S
C2251 C143 1.443 . S
C2263 C163 1.387 . S
C2278 C121 1.370 . S
C2290 C157 1.441 . S
C2305 C219 1.436 . S
C2317 C171 1.416 . S
C2332 C177 1.370 . S
C2344 C185 1.441 . S
C2359 C191 1.433 . S
C2371 C199 1.418 . S
C2386 C213 1.442 . S
C2398 C205 1.388 . S
C2413 C51 1.403 . S
C2425 C227 1.421 . S
C2440 C79 1.384 . S
C2452 C241 1.443 . S
C2467 C93 1.371 . S
C2479 C255 1.440 . S
C2494 C269 1.439 . S
C2506 C107 1.373 . S
C2521 C65 1.371 . S
C2533 C283 1.440 . S
C2548 C23 1.390 . S
C2560 C297 1.442 . S
C2575 C37 1.369 . S
C2587 C311 1.442 . S
C2602 C9 1.436 . S
C2614 C325 1.415 . S
C2629 C597 1.434 . S
C2641 C339 1.417 . S
C2656 C353 1.443 . S
C2668 C611 1.370 . S
C2683 C625 1.435 . S
C2695 C367 1.413 . S
C2710 C583 1.426 . S
C2722 C381 1.413 . S
C2737 C395 1.417 . S
C2749 C653 1.411 . S
C2764 C409 1.412 . S
C2776 C569 1.432 . S
C2791 C667 1.428 . S
C2803 C423 1.423 . S
C2818 C437 1.429 . S
C2830 C639 1.417 . S
C2845 C451 1.438 . S
C2857 C471 1.400 . S
C2872 C465 1.413 . S
C2884 C485 1.425 . S
C2899 C479 1.413 . S
C2911 C499 1.427 . S
C2926 C493 1.422 . S
C2938 C457 1.402 . S
C2953 C555 1.370 . S
C2965 C507 1.442 . S
C2980 C513 1.393 . S
C2992 C521 1.440 . S
C3007 C527 1.371 . S
C3019 C535 1.445 . S
C3034 C549 1.416 . S
C3046 C541 1.435 . S
C3061 C387 1.408 . S
C3073 C563 1.434 . S
C3088 C415 1.410 . S
C3100 C577 1.419 . S
C3115 C429 1.434 . S
C3127 C591 1.413 . S
C3142 C605 1.421 . S
C3154 C443 1.430 . S
C3169 C401 1.435 . S
C3181 C619 1.413 . S
C3196 C359 1.412 . S
C3208 C633 1.418 . S
C3223 C647 1.444 . S
C3235 C373 1.370 . S
C3250 C345 1.378 . S
C3262 C661 1.445 . S
