# Generated by pormake.
# Topology vby, (6)-cn, num edge types: 1
# Building blocks:
#     Node 0, Type 0, BuildingBlock: BETFAJ_clean_sbu_0, # of connection points: 6
#     Node 1, Type 0, BuildingBlock: BETFAJ_clean_sbu_0, # of connection points: 6
#     Node 2, Type 0, BuildingBlock: BETFAJ_clean_sbu_0, # of connection points: 6
#     Node 3, Type 0, BuildingBlock: BETFAJ_clean_sbu_0, # of connection points: 6
#     Node 4, Type 0, BuildingBlock: BETFAJ_clean_sbu_0, # of connection points: 6
#     Node 5, Type 0, BuildingBlock: BETFAJ_clean_sbu_0, # of connection points: 6
#     Node 6, Type 0, BuildingBlock: BETFAJ_clean_sbu_0, # of connection points: 6
#     Node 7, Type 0, BuildingBlock: BETFAJ_clean_sbu_0, # of connection points: 6
#     Edge 8, Type (0, 0), BuildingBlock: ZUJKAS_clean_linker_0, # of connection points: 2
#     Edge 9, Type (0, 0), BuildingBlock: ZUJKAS_clean_linker_0, # of connection points: 2
#     Edge 10, Type (0, 0), BuildingBlock: ZUJKAS_clean_linker_0, # of connection points: 2
#     Edge 11, Type (0, 0), BuildingBlock: ZUJKAS_clean_linker_0, # of connection points: 2
#     Edge 12, Type (0, 0), BuildingBlock: ZUJKAS_clean_linker_0, # of connection points: 2
#     Edge 13, Type (0, 0), BuildingBlock: ZUJKAS_clean_linker_0, # of connection points: 2
#     Edge 14, Type (0, 0), BuildingBlock: ZUJKAS_clean_linker_0, # of connection points: 2
#     Edge 15, Type (0, 0), BuildingBlock: ZUJKAS_clean_linker_0, # of connection points: 2
#     Edge 16, Type (0, 0), BuildingBlock: ZUJKAS_clean_linker_0, # of connection points: 2
#     Edge 17, Type (0, 0), BuildingBlock: ZUJKAS_clean_linker_0, # of connection points: 2
#     Edge 18, Type (0, 0), BuildingBlock: ZUJKAS_clean_linker_0, # of connection points: 2
#     Edge 19, Type (0, 0), BuildingBlock: ZUJKAS_clean_linker_0, # of connection points: 2
#     Edge 20, Type (0, 0), BuildingBlock: ZUJKAS_clean_linker_0, # of connection points: 2
#     Edge 21, Type (0, 0), BuildingBlock: ZUJKAS_clean_linker_0, # of connection points: 2
#     Edge 22, Type (0, 0), BuildingBlock: ZUJKAS_clean_linker_0, # of connection points: 2
#     Edge 23, Type (0, 0), BuildingBlock: ZUJKAS_clean_linker_0, # of connection points: 2
#     Edge 24, Type (0, 0), BuildingBlock: ZUJKAS_clean_linker_0, # of connection points: 2
#     Edge 25, Type (0, 0), BuildingBlock: ZUJKAS_clean_linker_0, # of connection points: 2
#     Edge 26, Type (0, 0), BuildingBlock: ZUJKAS_clean_linker_0, # of connection points: 2
#     Edge 27, Type (0, 0), BuildingBlock: ZUJKAS_clean_linker_0, # of connection points: 2
#     Edge 28, Type (0, 0), BuildingBlock: ZUJKAS_clean_linker_0, # of connection points: 2
#     Edge 29, Type (0, 0), BuildingBlock: ZUJKAS_clean_linker_0, # of connection points: 2
#     Edge 30, Type (0, 0), BuildingBlock: ZUJKAS_clean_linker_0, # of connection points: 2
#     Edge 31, Type (0, 0), BuildingBlock: ZUJKAS_clean_linker_0, # of connection points: 2
# Relax obj value: 0.196
# Max RMSD: 0.212
# Mean RMSD: 0.212
data_MOF--net-vby--node1-BETFAJ_clean_sbu_0--edge1-ZUJKAS_clean_linker_0
_symmetry_space_group_name_H-M    P1
_symmetry_Int_Tables_number       1
_symmetry_cell_setting            triclinic
loop_
_symmetry_equiv_pos_as_xyz
'x, y, z'
_cell_length_a     20.187043
_cell_length_b     121.85633
_cell_length_c     38.250959
_cell_angle_alpha  89.936464
_cell_angle_beta   85.185402
_cell_angle_gamma 90.233512
loop_
_atom_site_label
_atom_site_type_symbol
_atom_site_fract_x
_atom_site_fract_y
_atom_site_fract_z
_atom_type_partial_charge
Sm0 Sm 0.07608 0.39625 0.02132 0.0
Sm1 Sm 0.07374 0.37029 0.02817 0.0
C2 C 0.06306 0.4176 0.01201 0.0
C3 C 0.05506 0.42968 0.00935 0.0
C4 C 0.06784 0.43525 0.97726 0.0
C5 C 0.06339 0.44675 0.97574 0.0
C6 C 0.04697 0.45291 0.00637 0.0
C7 C 0.03348 0.44728 0.03829 0.0
C8 C 0.03729 0.43583 0.03974 0.0
C9 C 0.08785 0.38784 0.08781 0.0
C10 C 0.93323 0.38297 0.02291 0.0
C11 C 0.0778 0.35003 0.05354 0.0
C12 C 0.10925 0.33912 0.04731 0.0
C13 C 0.14249 0.33422 0.07407 0.0
C14 C 0.1684 0.3236 0.07011 0.0
C15 C 0.16149 0.31755 0.03927 0.0
C16 C 0.12923 0.32256 0.01216 0.0
C17 C 0.10338 0.33321 0.01613 0.0
C18 C 0.08265 0.37594 0.95745 0.0
C19 C 0.21762 0.38367 0.01702 0.0
O20 O 0.09697 0.41151 0.98859 0.0
O21 O 0.03498 0.41223 0.039 0.0
O22 O 0.0492 0.38423 0.06612 0.0
O23 O 0.12123 0.39619 0.07461 0.0
O24 O 0.96787 0.39173 0.01168 0.0
O25 O 0.96202 0.37423 0.03541 0.0
O26 O 0.11535 0.35804 0.06363 0.0
O27 O 0.03424 0.35327 0.03216 0.0
O28 O 0.08038 0.38237 0.98328 0.0
O29 O 0.08268 0.36591 0.96884 0.0
O30 O 0.18493 0.37485 0.02942 0.0
O31 O 0.18661 0.39259 0.00735 0.0
H32 H 0.08183 0.43073 0.95343 0.0
H33 H 0.07438 0.45083 0.95076 0.0
H34 H 1.01977 0.45173 0.06229 0.0
H35 H 1.02738 0.43181 0.06492 0.0
H36 H 0.14763 0.33857 0.09841 0.0
H37 H 0.19387 0.32014 0.09133 0.0
H38 H 0.12228 0.31816 0.98818 0.0
H39 H 0.07785 0.33673 0.99501 0.0
Sm40 Sm 0.99405 0.65267 0.01519 0.0
Sm41 Sm 0.99265 0.62678 0.02854 0.0
C42 C 0.98875 0.67239 0.98604 0.0
C43 C 0.95683 0.68327 0.99155 0.0
C44 C 0.93442 0.68888 0.96276 0.0
C45 C 0.90736 0.69942 0.96673 0.0
C46 C 0.90219 0.70465 0.99966 0.0
C47 C 0.92384 0.69892 0.02863 0.0
C48 C 0.95072 0.68835 0.02465 0.0
C49 C 0.98379 0.64844 0.0871 0.0
C50 C 0.85067 0.63914 0.02848 0.0
C51 C 1.01356 0.60615 0.04709 0.0
C52 C 1.00175 0.59431 0.04109 0.0
C53 C 0.9943 0.58723 0.0701 0.0
C54 C 0.99293 0.57584 0.06546 0.0
C55 C 0.99918 0.57122 0.03162 0.0
C56 C 1.00393 0.57836 1.0025 0.0
C57 C 1.00538 0.58979 0.00718 0.0
C58 C 0.98379 0.63344 0.95985 0.0
C59 C 0.13399 0.64064 0.02481 0.0
O60 O 0.95079 0.66417 0.97791 0.0
O61 O 0.03352 0.66958 0.00729 0.0
O62 O 0.98669 0.64161 0.06242 0.0
O63 O 0.98452 0.65823 0.07374 0.0
O64 O 0.88352 0.64767 0.01401 0.0
O65 O 0.8815 0.63054 0.0407 0.0
O66 O 0.05099 0.61148 0.0231 0.0
O67 O 0.9654 0.61212 0.0622 0.0
O68 O 1.02024 0.63776 0.98135 0.0
O69 O 0.95316 0.62493 0.97394 0.0
O70 O 0.09849 0.63244 0.03949 0.0
O71 O 0.10583 0.64876 0.00857 0.0
H72 H 0.93885 0.68516 0.93695 0.0
H73 H 0.89203 0.70358 0.94374 0.0
H74 H 0.91982 0.70261 0.05447 0.0
H75 H 0.96724 0.68419 0.04739 0.0
H76 H 0.9917 0.59051 0.0965 0.0
H77 H 0.98791 0.57064 0.08851 0.0
H78 H 1.0092 0.57513 0.97606 0.0
H79 H 1.01151 0.59506 0.9843 0.0
Sm80 Sm 0.05746 0.6529 0.52652 0.0
Sm81 Sm 0.05802 0.6269 0.51365 0.0
C82 C 0.06425 0.67272 0.55488 0.0
C83 C 0.09609 0.6837 0.54921 0.0
C84 C 0.13229 0.68824 0.5755 0.0
C85 C 0.15884 0.69888 0.57205 0.0
C86 C 0.14968 0.70532 0.54222 0.0
C87 C 0.11432 0.70067 0.5156 0.0
C88 C 0.08786 0.69 0.51904 0.0
C89 C 0.0651 0.6485 0.45476 0.0
C90 C 0.20038 0.63939 0.51317 0.0
C91 C 0.03698 0.60621 0.49535 0.0
C92 C 0.04977 0.59433 0.50042 0.0
C93 C 0.06356 0.58765 0.47084 0.0
C94 C 0.06604 0.5762 0.47414 0.0
C95 C 0.05456 0.57111 0.50718 0.0
C96 C 0.04325 0.57785 0.53699 0.0
C97 C 0.04073 0.58932 0.53365 0.0
C98 C 0.0685 0.6337 0.58202 0.0
C99 C 0.91683 0.64069 0.51835 0.0
O100 O 0.10214 0.66454 0.56301 0.0
O101 O 1.01862 0.66982 0.5342 0.0
O102 O 0.06336 0.64174 0.47967 0.0
O103 O 0.06483 0.65833 0.4678 0.0
O104 O 0.16791 0.64797 0.52725 0.0
O105 O 0.16925 0.63072 0.50138 0.0
O106 O 1.00111 0.61137 0.52023 0.0
O107 O 0.08346 0.61238 0.47926 0.0
O108 O 0.03172 0.63797 0.56064 0.0
O109 O 0.09857 0.62517 0.56803 0.0
O110 O 0.95166 0.63245 0.50378 0.0
O111 O 0.94567 0.64888 0.53407 0.0
H112 H 0.13933 0.6836 0.59906 0.0
H113 H 0.18666 0.70205 0.59286 0.0
H114 H 0.10547 0.70536 0.49241 0.0
H115 H 0.06004 0.68678 0.49829 0.0
H116 H 0.07032 0.59128 0.4449 0.0
H117 H 0.07611 0.57133 0.45065 0.0
H118 H 0.03368 0.57427 0.56284 0.0
H119 H 0.02957 0.59423 0.55697 0.0
Sm120 Sm 1.00269 0.39672 0.53241 0.0
Sm121 Sm 1.00144 0.37047 0.52129 0.0
C122 C 1.02373 0.4174 0.55083 0.0
C123 C 1.0115 0.42928 0.54556 0.0
C124 C 0.9975 0.436 0.57502 0.0
C125 C 0.99532 0.44744 0.57157 0.0
C126 C 1.00731 0.4525 0.53849 0.0
C127 C 1.01888 0.44571 0.50879 0.0
C128 C 1.02111 0.43424 0.51228 0.0
C129 C 0.99446 0.3896 0.46424 0.0
C130 C 0.14269 0.38265 0.52938 0.0
C131 C 0.99551 0.35045 0.49428 0.0
C132 C 0.96385 0.33948 0.50013 0.0
C133 C 0.93173 0.33454 0.47297 0.0
C134 C 0.90573 0.32387 0.47667 0.0
C135 C 0.9114 0.31781 0.50765 0.0
C136 C 0.94272 0.32284 0.53508 0.0
C137 C 0.96854 0.33354 0.5314 0.0
C138 C 0.9913 0.37559 0.59261 0.0
C139 C 0.85956 0.38434 0.53201 0.0
O140 O 0.06034 0.41219 0.52633 0.0
O141 O 0.97648 0.41128 0.56648 0.0
O142 O 1.02895 0.38519 0.48648 0.0
O143 O 0.96663 0.39848 0.47712 0.0
O144 O 0.1083 0.39106 0.54313 0.0
O145 O 0.11357 0.37436 0.51429 0.0
O146 O 0.95791 0.35856 0.48521 0.0
O147 O 0.04013 0.3535 0.51538 0.0
O148 O 0.995 0.38203 0.56687 0.0
O149 O 0.99058 0.36562 0.58071 0.0
O150 O 0.89176 0.3756 0.5189 0.0
O151 O 0.89082 0.39306 0.54339 0.0
H152 H 0.99029 0.4324 0.60099 0.0
H153 H 0.98506 0.45234 0.59498 0.0
H154 H 1.02883 0.44927 0.48292 0.0
H155 H 0.03243 0.4293 0.48905 0.0
H156 H 0.92788 0.33887 0.44847 0.0
H157 H 0.8828 0.32026 0.45478 0.0
H158 H 0.94725 0.31852 0.55951 0.0
H159 H 0.99288 0.3371 0.5529 0.0
Sm160 Sm 0.5715 0.89499 0.02066 0.0
Sm161 Sm 0.56865 0.86904 0.02449 0.0
C162 C 0.55811 0.91644 0.01399 0.0
C163 C 0.54917 0.92851 0.01128 0.0
C164 C 0.5846 0.93465 0.98472 0.0
C165 C 0.58009 0.94614 0.98418 0.0
C166 C 0.53997 0.95178 0.01019 0.0
C167 C 0.50354 0.94556 0.03629 0.0
C168 C 0.50809 0.9341 0.03682 0.0
C169 C 0.58255 0.88582 0.08619 0.0
C170 C 0.42859 0.88184 0.02006 0.0
C171 C 0.57243 0.84856 0.04801 0.0
C172 C 0.60475 0.83774 0.04146 0.0
C173 C 0.62907 0.83207 0.06963 0.0
C174 C 0.65611 0.82155 0.06496 0.0
C175 C 0.65941 0.8164 0.03194 0.0
C176 C 0.6358 0.82217 1.00357 0.0
C177 C 0.60886 0.83273 0.00825 0.0
C178 C 0.57744 0.87546 0.95443 0.0
C179 C 0.71286 0.88235 0.01441 0.0
O180 O 0.59556 0.91065 0.99121 0.0
O181 O 0.52674 0.91072 0.03929 0.0
O182 O 0.54374 0.88256 0.06409 0.0
O183 O 0.61699 0.89417 0.07382 0.0
O184 O 0.46366 0.89063 0.00959 0.0
O185 O 0.457 0.87297 0.03198 0.0
O186 O 0.60882 0.85651 0.05948 0.0
O187 O 0.53039 0.85192 0.02599 0.0
O188 O 0.5754 0.8816 0.98096 0.0
O189 O 0.57736 0.8653 0.96466 0.0
O190 O 0.68009 0.87343 0.02586 0.0
O191 O 0.68187 0.8914 0.0059 0.0
H192 H 0.61677 0.9306 0.96468 0.0
H193 H 0.6082 0.95062 0.9634 0.0
H194 H 0.47286 0.94957 0.05704 0.0
H195 H 0.4804 0.92965 0.05781 0.0
H196 H 0.62606 0.83571 0.09554 0.0
H197 H 0.67285 0.81734 0.08755 0.0
H198 H 0.63829 0.81855 0.97766 0.0
H199 H 0.5907 0.83691 0.98597 0.0
Sm200 Sm 0.49238 0.15305 0.0166 0.0
Sm201 Sm 0.48878 0.12713 0.02266 0.0
C202 C 0.48834 0.17335 0.99164 0.0
C203 C 0.45668 0.18424 0.99801 0.0
C204 C 0.42302 0.18913 0.97138 0.0
C205 C 0.39689 0.19973 0.97546 0.0
C206 C 0.40398 0.20578 0.00629 0.0
C207 C 0.43664 0.20078 0.03327 0.0
C208 C 0.46272 0.19015 0.02919 0.0
C209 C 0.48499 0.14723 0.0871 0.0
C210 C 0.34783 0.13983 0.02837 0.0
C211 C 0.50225 0.10571 0.03023 0.0
C212 C 0.51139 0.09366 0.03335 0.0
C213 C 0.47593 0.08757 0.06003 0.0
C214 C 0.48043 0.07607 0.06081 0.0
C215 C 0.52058 0.07039 0.03493 0.0
C216 C 0.55708 0.07655 0.00873 0.0
C217 C 0.55253 0.08801 0.00795 0.0
C218 C 0.47637 0.13588 0.95669 0.0
C219 C 0.63209 0.14024 0.02174 0.0
O220 O 0.45099 0.16535 0.98129 0.0
O221 O 0.53177 0.17008 0.01305 0.0
O222 O 0.48609 0.14085 0.06118 0.0
O223 O 0.48527 0.15729 0.07597 0.0
O224 O 0.38076 0.14865 0.01607 0.0
O225 O 0.37865 0.13085 0.03761 0.0
O226 O 0.46516 0.11158 0.05295 0.0
O227 O 0.53324 0.11133 0.00459 0.0
O228 O 0.51608 0.13919 0.97822 0.0
O229 O 0.44174 0.12766 0.96982 0.0
O230 O 0.59684 0.13157 0.03315 0.0
O231 O 0.60381 0.14899 0.00895 0.0
H232 H 0.41772 0.18479 0.94706 0.0
H233 H 0.37112 0.20319 0.95434 0.0
H234 H 0.44373 0.20518 0.05725 0.0
H235 H 0.48856 0.18664 0.05021 0.0
H236 H 0.44369 0.09166 0.07995 0.0
H237 H 0.45225 0.07164 0.08166 0.0
H238 H 0.58778 0.07251 0.98807 0.0
H239 H 0.58024 0.09242 0.98687 0.0
Sm240 Sm 0.57371 0.15215 0.52198 0.0
Sm241 Sm 0.58299 0.12786 0.51027 0.0
C242 C 0.58251 0.17297 0.54274 0.0
C243 C 0.61895 0.18356 0.53686 0.0
C244 C 0.65152 0.18827 0.56428 0.0
C245 C 0.67954 0.19882 0.56087 0.0
C246 C 0.67535 0.20499 0.52998 0.0
C247 C 0.6441 0.20015 0.50221 0.0
C248 C 0.61627 0.18958 0.50559 0.0
C249 C 0.56613 0.14629 0.45265 0.0
C250 C 0.72122 0.14093 0.50741 0.0
C251 C 0.57994 0.10689 0.49041 0.0
C252 C 0.55836 0.09545 0.49848 0.0
C253 C 0.55074 0.08822 0.47059 0.0
C254 C 0.53929 0.07701 0.47673 0.0
C255 C 0.53491 0.0727 0.51106 0.0
C256 C 0.54057 0.08006 0.53913 0.0
C257 C 0.55235 0.09131 0.5329 0.0
C258 C 0.58327 0.13401 0.58025 0.0
C259 C 0.4352 0.13926 0.52175 0.0
O260 O 0.61226 0.16486 0.55743 0.0
O261 O 0.54456 0.16965 0.51877 0.0
O262 O 0.6056 0.14202 0.47275 0.0
O263 O 0.53377 0.1543 0.46813 0.0
O264 O 0.68637 0.14881 0.52378 0.0
O265 O 0.69088 0.1327 0.49299 0.0
O266 O 0.53622 0.1141 0.48192 0.0
O267 O 0.62525 0.1111 0.50885 0.0
O268 O 0.54655 0.13797 0.55847 0.0
O269 O 0.61869 0.12615 0.56593 0.0
O270 O 0.47087 0.13133 0.50593 0.0
O271 O 0.4646 0.14748 0.5369 0.0
H272 H 0.65367 0.18391 0.58885 0.0
H273 H 0.70244 0.20228 0.58299 0.0
H274 H 0.64072 0.20455 0.47782 0.0
H275 H 0.59142 0.18625 0.48391 0.0
H276 H 0.55604 0.09119 0.44378 0.0
H277 H 0.53642 0.07167 0.4543 0.0
H278 H 0.53651 0.07714 0.56596 0.0
H279 H 0.5583 0.09671 0.55491 0.0
Sm280 Sm 0.47917 0.89695 0.52713 0.0
Sm281 Sm 0.48046 0.87087 0.5232 0.0
C282 C 0.49179 0.91845 0.53388 0.0
C283 C 0.49976 0.93059 0.53558 0.0
C284 C 0.4836 0.93644 0.56681 0.0
C285 C 0.4871 0.94797 0.56727 0.0
C286 C 0.50602 0.95392 0.5364 0.0
C287 C 0.52313 0.94802 0.50538 0.0
C288 C 0.52023 0.93654 0.505 0.0
C289 C 0.46739 0.88772 0.46178 0.0
C290 C 0.62162 0.88375 0.52674 0.0
C291 C 0.47551 0.85038 0.49976 0.0
C292 C 0.44326 0.83945 0.50609 0.0
C293 C 0.40573 0.83489 0.48036 0.0
C294 C 0.37957 0.82424 0.48409 0.0
C295 C 0.39048 0.81779 0.51363 0.0
C296 C 0.42707 0.82245 0.53975 0.0
C297 C 0.45322 0.83313 0.53601 0.0
C298 C 0.47199 0.87722 0.59321 0.0
C299 C 0.33719 0.88427 0.533 0.0
O300 O 0.459 0.91249 0.55822 0.0
O301 O 0.51927 0.91289 0.50728 0.0
O302 O 0.506 0.88447 0.48392 0.0
O303 O 0.43351 0.8961 0.47392 0.0
O304 O 0.58756 0.89264 0.53681 0.0
O305 O 0.59229 0.87483 0.51555 0.0
O306 O 0.43928 0.85834 0.48844 0.0
O307 O 0.51817 0.85376 0.52151 0.0
O308 O 0.47445 0.88342 0.56674 0.0
O309 O 0.4713 0.86708 0.58289 0.0
O310 O 0.36944 0.87534 0.52158 0.0
O311 O 0.36861 0.8933 0.54164 0.0
H312 H 0.46741 0.93211 0.59078 0.0
H313 H 0.47325 0.95223 0.5916 0.0
H314 H 0.53883 0.95229 0.48123 0.0
H315 H 0.53282 0.93232 0.48044 0.0
H316 H 0.39749 0.83952 0.45693 0.0
H317 H 0.35082 0.82105 0.46367 0.0
H318 H 0.43724 0.81774 0.56269 0.0
H319 H 0.48229 0.83634 0.55627 0.0
H320 H 0.29912 0.36706 0.0355 0.0
H321 H 0.42016 0.36726 0.03522 0.0
H322 H 0.42582 0.40024 0.99417 0.0
H323 H 0.30448 0.4002 0.9948 0.0
H324 H 0.5179 0.37017 0.9806 0.0
H325 H 0.53242 0.40314 0.07972 0.0
H326 H 0.45549 0.39628 0.07224 0.0
H327 H 0.48798 0.40687 0.04277 0.0
C328 C 0.32589 0.37438 0.02639 0.0
C329 C 0.29165 0.38365 0.01537 0.0
C330 C 0.39528 0.37447 0.02623 0.0
C331 C 0.43219 0.38382 0.01525 0.0
C332 C 0.39841 0.393 1.00351 0.0
H333 H 0.85546 0.39952 1.00028 0.0
H334 H 0.7349 0.39955 0.99751 0.0
C335 C 0.32892 0.39294 1.00366 0.0
C336 C 0.50594 0.38389 0.01591 0.0
H337 H 0.63449 0.39696 0.05162 0.0
C338 C 0.54336 0.37601 0.9962 0.0
C339 C 0.53929 0.39151 0.03626 0.0
C340 C 0.50183 0.39987 0.05922 0.0
C341 C 0.61309 0.37563 0.9959 0.0
C342 C 0.64639 0.38322 0.01635 0.0
C343 C 0.60901 0.39114 0.03593 0.0
C344 C 0.71992 0.38309 0.01788 0.0
C345 C 0.6506 0.36724 0.97311 0.0
C346 C 0.7518 0.37386 0.03067 0.0
C347 C 0.82091 0.37381 0.03231 0.0
C348 C 0.85972 0.38301 0.02136 0.0
C349 C 0.82744 0.39227 0.00887 0.0
C350 C 0.75836 0.39232 0.00728 0.0
H351 H 0.62034 0.36405 0.95235 0.0
H352 H 0.69743 0.37077 0.96044 0.0
H353 H 0.66359 0.3602 0.98961 0.0
H354 H 0.72314 0.36672 0.03969 0.0
H355 H 0.8438 0.36655 0.04225 0.0
H356 H 0.22573 0.65604 0.99911 0.0
H357 H 0.34674 0.65556 1.00102 0.0
H358 H 0.33005 0.62473 0.05648 0.0
H359 H 0.20949 0.62507 0.05448 0.0
H360 H 0.42333 0.65458 0.05938 0.0
H361 H 0.46739 0.618 0.97438 0.0
H362 H 0.39004 0.62545 0.97713 0.0
H363 H 0.40724 0.61595 0.01116 0.0
C364 C 0.2477 0.64914 0.01167 0.0
C365 C 0.20754 0.64057 0.02646 0.0
C366 C 0.317 0.64888 0.01276 0.0
C367 C 0.34775 0.64002 0.02838 0.0
C368 C 0.30776 0.63155 0.04363 0.0
H369 H 0.7622 0.62336 0.05542 0.0
H370 H 0.64054 0.62366 0.05699 0.0
C371 C 0.23857 0.6318 0.04262 0.0
C372 C 0.42149 0.6397 0.0292 0.0
H373 H 0.55963 0.62478 1.0023 0.0
C374 C 0.45316 0.64808 0.04679 0.0
C375 C 0.46049 0.6312 0.01295 0.0
C376 C 0.4298 0.62218 0.99256 0.0
C377 C 0.52244 0.64812 0.04896 0.0
C378 C 0.56157 0.63966 0.03245 0.0
C379 C 0.52981 0.63125 0.01504 0.0
C380 C 0.63559 0.63956 0.03211 0.0
C381 C 0.55288 0.65711 0.06958 0.0
C382 C 0.67361 0.64832 0.01726 0.0
C383 C 0.74308 0.64819 0.01639 0.0
C384 C 0.77654 0.63924 0.03011 0.0
C385 C 0.73836 0.63041 0.04473 0.0
C386 C 0.66868 0.63056 0.04561 0.0
H387 H 0.51559 0.6609 0.08886 0.0
H388 H 0.59457 0.65394 0.08383 0.0
H389 H 0.57257 0.66364 0.05127 0.0
H390 H 0.64958 0.65524 0.00589 0.0
H391 H 0.7705 0.65511 0.00466 0.0
H392 H 0.82641 0.6563 0.54294 0.0
H393 H 0.70534 0.65588 0.54111 0.0
H394 H 0.71925 0.62461 0.48856 0.0
H395 H 0.83984 0.62489 0.49048 0.0
H396 H 0.62916 0.65448 0.48253 0.0
H397 H 0.58064 0.61872 0.5711 0.0
H398 H 0.65867 0.62609 0.56786 0.0
H399 H 0.64104 0.61629 0.53476 0.0
C400 C 0.8038 0.64931 0.53107 0.0
C401 C 0.8432 0.6406 0.51703 0.0
C402 C 0.73448 0.64909 0.53002 0.0
C403 C 0.70294 0.64013 0.51519 0.0
C404 C 0.74216 0.63151 0.50078 0.0
H405 H 0.28816 0.62344 0.48782 0.0
H406 H 0.40977 0.62371 0.48677 0.0
C407 C 0.81137 0.63172 0.50173 0.0
C408 C 0.62922 0.63988 0.51423 0.0
H409 H 0.48948 0.62528 0.54201 0.0
C410 C 0.59858 0.64812 0.49566 0.0
C411 C 0.58926 0.63155 0.53118 0.0
C412 C 0.61883 0.6227 0.55262 0.0
C413 C 0.52939 0.64818 0.49317 0.0
C414 C 0.48932 0.63988 0.51033 0.0
C415 C 0.52004 0.63162 0.52877 0.0
C416 C 0.41537 0.6398 0.51025 0.0
C417 C 0.50006 0.657 0.47152 0.0
C418 C 0.37774 0.64869 0.52412 0.0
C419 C 0.30831 0.64857 0.52469 0.0
C420 C 0.27449 0.63951 0.51164 0.0
C421 C 0.31229 0.63057 0.49795 0.0
C422 C 0.38193 0.63071 0.49739 0.0
H423 H 0.53798 0.66063 0.4521 0.0
H424 H 0.45849 0.65372 0.45731 0.0
H425 H 0.48045 0.66368 0.48911 0.0
H426 H 0.40205 0.65569 0.53498 0.0
H427 H 0.28119 0.65558 0.53569 0.0
H428 H 0.77189 0.40043 0.55646 0.0
H429 H 0.65022 0.40011 0.55781 0.0
H430 H 0.6578 0.36794 0.51092 0.0
H431 H 0.77866 0.3681 0.50991 0.0
H432 H 0.5693 0.39821 0.50305 0.0
H433 H 0.52374 0.36325 0.59482 0.0
H434 H 0.60294 0.37023 0.58886 0.0
H435 H 0.5807 0.36009 0.55768 0.0
C436 C 0.74772 0.39325 0.54663 0.0
C437 C 0.78547 0.38427 0.53328 0.0
C438 C 0.67806 0.39309 0.54738 0.0
C439 C 0.64457 0.38392 0.53504 0.0
C440 C 0.68216 0.375 0.52139 0.0
H441 H 0.23287 0.36691 0.50542 0.0
H442 H 0.35407 0.3674 0.50669 0.0
C443 C 0.7516 0.37515 0.52065 0.0
C444 C 0.57057 0.38376 0.5354 0.0
H445 H 0.43166 0.36916 0.56468 0.0
C446 C 0.53919 0.39191 0.51676 0.0
C447 C 0.53109 0.37552 0.55317 0.0
C448 C 0.56118 0.36683 0.57505 0.0
C449 C 0.46986 0.39189 0.51475 0.0
C450 C 0.43048 0.3836 0.53232 0.0
C451 C 0.46179 0.37548 0.55108 0.0
C452 C 0.35669 0.38327 0.53184 0.0
C453 C 0.43953 0.4006 0.49308 0.0
C454 C 0.31758 0.39194 0.54606 0.0
C455 C 0.24833 0.39168 0.54543 0.0
C456 C 0.21633 0.38272 0.53066 0.0
C457 C 0.25561 0.37396 0.51689 0.0
C458 C 0.325 0.37422 0.51762 0.0
H459 H 0.47723 0.40453 0.47419 0.0
H460 H 0.39941 0.3971 0.47828 0.0
H461 H 0.41752 0.40708 0.51074 0.0
H462 H 0.34062 0.39891 0.55784 0.0
H463 H 0.21996 0.39856 0.55647 0.0
H464 H 0.79978 0.89907 0.99403 0.0
H465 H 0.92128 0.89897 0.9927 0.0
H466 H 0.9154 0.86554 0.02986 0.0
H467 H 0.79435 0.86549 0.03082 0.0
H468 H 1.00021 0.8957 0.04745 0.0
H469 H 0.05234 0.86375 0.94592 0.0
H470 H 0.97232 0.87029 0.95323 0.0
H471 H 0.9948 0.85937 0.98157 0.0
C472 C 0.82425 0.89165 1.00163 0.0
C473 C 0.78694 0.88227 0.01237 0.0
C474 C 0.89384 0.89162 1.00091 0.0
C475 C 0.92775 0.8822 0.01066 0.0
C476 C 0.89066 0.87283 0.02144 0.0
H477 H 0.3386 0.86538 0.03808 0.0
H478 H 0.21782 0.86576 0.0358 0.0
C479 C 0.82118 0.87285 0.02216 0.0
C480 C 1.00162 0.88227 0.01087 0.0
H481 H 0.14289 0.86912 0.97822 0.0
C482 C 0.03144 0.88994 0.0321 0.0
C483 C 0.0425 0.87474 0.99093 0.0
C484 C 1.01403 0.86664 0.96636 0.0
C485 C 0.10061 0.89012 0.03457 0.0
C486 C 0.14142 0.88254 0.01482 0.0
C487 C 0.11166 0.87491 0.99344 0.0
C488 C 0.21504 0.88237 0.01604 0.0
C489 C 0.1292 0.89823 0.05906 0.0
C490 C 0.25399 0.89154 0.00526 0.0
C491 C 0.32314 0.89136 0.00654 0.0
C492 C 0.35507 0.88198 0.01848 0.0
C493 C 0.31592 0.87276 0.02886 0.0
C494 C 0.24674 0.87295 0.02753 0.0
H495 H 0.09056 0.90146 0.07875 0.0
H496 H 0.1693 0.89444 0.0731 0.0
H497 H 0.15084 0.90529 0.04361 0.0
H498 H 0.23093 0.89882 0.99562 0.0
H499 H 0.3515 0.89859 0.99812 0.0
H500 H 0.26044 0.12321 0.0492 0.0
H501 H 0.13912 0.12321 0.0489 0.0
H502 H 0.14579 0.15662 0.01163 0.0
H503 H 0.26676 0.15669 0.01146 0.0
H504 H 0.04235 0.13675 0.08389 0.0
H505 H 0.04024 0.141 0.93957 0.0
H506 H 0.11406 0.13732 0.96037 0.0
H507 H 0.08778 0.15139 0.95954 0.0
C508 C 0.23621 0.13058 0.04099 0.0
C509 C 0.27377 0.13992 0.03012 0.0
C510 C 0.16673 0.13056 0.04084 0.0
C511 C 0.13331 0.13985 0.02962 0.0
C512 C 0.17047 0.14927 0.01964 0.0
H513 H 0.72201 0.15663 1.0029 0.0
H514 H 0.84253 0.15641 0.00606 0.0
C515 C 0.23981 0.14931 0.01978 0.0
C516 C 0.05967 0.13972 0.02841 0.0
H517 H 0.93649 0.14279 0.97305 0.0
C518 C 1.01917 0.13801 0.05964 0.0
C519 C 0.02935 0.14138 0.99676 0.0
C520 C 0.06999 0.14277 0.96208 0.0
C521 C 0.94933 0.13816 0.06022 0.0
C522 C 0.91901 0.13986 0.02857 0.0
C523 C 0.95958 0.14152 0.99733 0.0
C524 C 0.84537 0.13997 0.02721 0.0
C525 C 0.90871 0.1368 0.09491 0.0
C526 C 0.80661 0.13074 0.03763 0.0
C527 C 0.73754 0.13084 0.03593 0.0
C528 C 0.70557 0.14014 0.02347 0.0
C529 C 0.74467 0.14932 0.01269 0.0
C530 C 0.81374 0.14922 0.01446 0.0
H531 H 0.93848 0.13861 0.11738 0.0
H532 H 0.86462 0.14225 0.09657 0.0
H533 H 0.89098 0.12818 0.09755 0.0
H534 H 0.82986 0.1234 0.04678 0.0
H535 H 0.7093 0.12358 0.04425 0.0
H536 H 0.34555 0.15431 0.55039 0.0
H537 H 0.2248 0.15437 0.54785 0.0
H538 H 0.2367 0.12409 0.48955 0.0
H539 H 0.35728 0.12388 0.49229 0.0
H540 H 0.1531 0.15489 0.48896 0.0
H541 H 0.091 0.11728 0.56696 0.0
H542 H 0.17088 0.12401 0.56662 0.0
H543 H 0.15246 0.11525 0.53085 0.0
C544 C 0.32253 0.14759 0.53731 0.0
C545 C 0.36138 0.13905 0.52171 0.0
C546 C 0.25338 0.14766 0.5358 0.0
C547 C 0.22133 0.13917 0.51891 0.0
C548 C 0.25993 0.13062 0.50337 0.0
H549 H 0.80973 0.1258 0.47805 0.0
H550 H 0.93075 0.12568 0.4795 0.0
C551 C 0.32909 0.13055 0.50484 0.0
C552 C 0.14795 0.13946 0.51651 0.0
H553 H 1.00385 0.12517 0.53753 0.0
C554 C 0.12044 0.14842 0.49974 0.0
C555 C 0.1052 0.13099 0.53043 0.0
C556 C 0.13114 0.12138 0.55002 0.0
C557 C 0.05176 0.14906 0.49601 0.0
C558 C 1.00899 0.14061 0.50999 0.0
C559 C 0.03652 0.13164 0.52671 0.0
C560 C 0.9355 0.14096 0.50796 0.0
C561 C 1.02587 0.15867 0.4764 0.0
C562 C 0.89755 0.14957 0.52354 0.0
C563 C 0.82828 0.14968 0.52267 0.0
C564 C 0.79518 0.14114 0.50639 0.0
C565 C 0.83338 0.13255 0.49066 0.0
C566 C 0.90268 0.13245 0.49156 0.0
H567 H 0.06591 0.16268 0.45914 0.0
H568 H 0.98558 0.15608 0.46011 0.0
H569 H 1.00536 0.16487 0.49554 0.0
H570 H 0.92136 0.15612 0.53701 0.0
H571 H 0.80062 0.15639 0.5353 0.0
H572 H 0.70101 0.90059 0.54668 0.0
H573 H 0.82191 0.90073 0.5481 0.0
H574 H 0.83022 0.86725 0.51178 0.0
H575 H 0.70952 0.86706 0.50975 0.0
H576 H 0.90293 0.88773 0.58573 0.0
H577 H 0.96598 0.8823 0.44289 0.0
H578 H 0.88354 0.88591 0.46102 0.0
H579 H 0.91116 0.87191 0.4622 0.0
C580 C 0.72843 0.89325 0.53884 0.0
C581 C 0.69523 0.88383 0.52787 0.0
C582 C 0.79769 0.89335 0.53973 0.0
C583 C 0.83545 0.88406 0.52951 0.0
C584 C 0.80244 0.8746 0.51903 0.0
H585 H 0.25477 0.86741 0.51683 0.0
H586 H 0.13367 0.86751 0.51753 0.0
C587 C 0.73321 0.8745 0.51808 0.0
C588 C 0.90915 0.88422 0.53041 0.0
H589 H 0.05502 0.88085 0.47941 0.0
C590 C 0.9362 0.88628 0.56245 0.0
C591 C 0.95268 0.88234 0.50003 0.0
C592 C 0.92703 0.88059 0.46451 0.0
C593 C 1.00535 0.88627 0.56508 0.0
C594 C 0.04882 0.88432 0.53474 0.0
C595 C 1.02176 0.88231 0.50269 0.0
C596 C 0.12252 0.88427 0.5356 0.0
C597 C 0.03116 0.88807 0.60053 0.0
C598 C 0.15691 0.89367 0.5454 0.0
C599 C 0.22642 0.89365 0.5451 0.0
C600 C 0.26315 0.88422 0.53476 0.0
C601 C 0.2284 0.87481 0.52503 0.0
C602 C 0.15899 0.87485 0.52534 0.0
H603 H 0.99201 0.88659 0.62223 0.0
H604 H 0.07392 0.88261 0.60424 0.0
H605 H 0.04833 0.89669 0.60241 0.0
H606 H 0.13008 0.90111 0.55273 0.0
H607 H 0.25132 0.90107 0.55254 0.0
H608 H 0.94356 0.55831 0.98249 0.0
H609 H 0.95099 0.53832 0.97561 0.0
H610 H 0.07261 0.53658 0.0628 0.0
H611 H 0.06591 0.55647 0.06972 0.0
H612 H 0.06304 0.52456 0.96327 0.0
H613 H 0.9239 0.51458 0.09058 0.0
H614 H 0.92364 0.52812 0.07136 0.0
H615 H 0.99305 0.52369 0.09429 0.0
C616 C 0.97213 0.55368 1.00012 0.0
C617 C 1.00341 0.55904 0.02697 0.0
C618 C 0.97617 0.54224 0.9962 0.0
C619 C 1.01133 0.5359 0.01909 0.0
C620 C 0.04375 0.54124 0.04538 0.0
H621 H 0.09699 0.46734 0.05229 0.0
H622 H 0.08896 0.48734 0.05293 0.0
C623 C 0.03971 0.55264 0.04934 0.0
C624 C 1.01466 0.52372 0.01552 0.0
H625 H 0.97939 0.49982 0.06031 0.0
C626 C 0.04431 0.51914 0.98436 0.0
C627 C 0.99028 0.51662 0.04304 0.0
C628 C 0.95536 0.52097 0.07659 0.0
C629 C 0.05219 0.5077 0.98044 0.0
C630 C 1.02844 0.50061 0.00816 0.0
C631 C 0.99789 0.50521 0.03908 0.0
C632 C 0.03583 0.48842 0.00622 0.0
C633 C 0.08792 0.50336 0.9471 0.0
C634 C 1.00879 0.48227 0.9797 0.0
C635 C 1.01361 0.47078 0.97919 0.0
C636 C 0.04465 0.46517 0.00552 0.0
C637 C 0.07199 0.47136 0.03186 0.0
C638 C 0.06762 0.48282 0.0322 0.0
H639 H 0.11872 0.50982 0.93299 0.0
H640 H 0.12048 0.49636 0.9526 0.0
H641 H 0.05075 0.50046 0.92938 0.0
H642 H 0.98258 0.48633 0.95982 0.0
H643 H 0.99131 0.46626 0.95878 0.0
H644 H 0.06174 0.46725 0.5823 0.0
H645 H 0.06789 0.48723 0.57702 0.0
H646 H 0.96951 0.48563 0.48141 0.0
H647 H 0.96125 0.46564 0.48704 0.0
H648 H 0.13047 0.49995 0.52409 0.0
H649 H 0.86004 0.50867 0.53732 0.0
H650 H 0.89345 0.49552 0.54842 0.0
H651 H 0.88498 0.49902 0.50334 0.0
C652 C 0.04031 0.47113 0.56041 0.0
C653 C 1.01039 0.46476 0.53528 0.0
C654 C 0.04441 0.48258 0.55729 0.0
C655 C 1.01836 0.488 0.5291 0.0
C656 C 0.98889 0.48169 0.50378 0.0
H657 H 0.99998 0.55637 0.46336 0.0
H658 H 0.994 0.53639 0.4685 0.0
C659 C 0.98485 0.47022 0.50685 0.0
C660 C 1.02364 0.50021 0.52583 0.0
H661 H 0.93179 0.52364 0.52126 0.0
C662 C 0.08698 0.50513 0.52363 0.0
C663 C 0.96699 0.50701 0.52518 0.0
C664 C 0.89746 0.50233 0.52901 0.0
C665 C 0.09527 0.51658 0.52015 0.0
C666 C 0.03862 0.52338 0.51951 0.0
C667 C 0.97528 0.51846 0.52171 0.0
C668 C 0.04389 0.53559 0.5163 0.0
C669 C 0.16481 0.52126 0.5163 0.0
C670 C 0.07352 0.54189 0.54158 0.0
C671 C 0.0775 0.55336 0.53859 0.0
C672 C 0.0517 0.55884 0.51027 0.0
C673 C 1.02162 0.55248 0.48515 0.0
C674 C 1.01761 0.54103 0.4882 0.0
H675 H 0.20218 0.51491 0.50789 0.0
H676 H 0.16879 0.52808 0.49696 0.0
H677 H 0.1774 0.52453 0.54199 0.0
H678 H 0.09307 0.53794 0.56389 0.0
H679 H 0.10122 0.55793 0.55838 0.0
H680 H 0.4319 0.96503 0.02689 0.0
H681 H 0.42915 0.98506 0.03079 0.0
H682 H 0.63908 0.98647 0.9993 0.0
H683 H 0.6425 0.96645 0.99565 0.0
H684 H 0.49833 0.99878 0.07309 0.0
H685 H 0.56353 1.00841 0.9326 0.0
H686 H 0.53778 0.99488 0.94758 0.0
H687 H 0.62152 0.9995 0.95152 0.0
C688 C 0.47761 0.96957 0.02083 0.0
C689 C 0.53743 0.96406 0.01086 0.0
C690 C 0.47586 0.98105 0.02295 0.0
C691 C 0.53369 0.98732 0.01492 0.0
C692 C 0.59345 0.98186 0.00487 0.0
H693 H 0.62858 0.05711 0.01849 0.0
H694 H 0.63114 0.03707 0.01469 0.0
C695 C 0.59528 0.97038 1.00275 0.0
C696 C 0.53183 0.99952 0.01821 0.0
H697 H 0.56178 0.02338 0.97232 0.0
C698 C 0.51188 1.00416 0.05101 0.0
C699 C 0.54967 1.00656 0.98944 0.0
C700 C 0.56876 1.00211 0.95321 0.0
C701 C 0.51043 0.01561 0.05597 0.0
C702 C 0.52829 0.02265 0.02721 0.0
C703 C 0.54823 0.018 0.9944 0.0
C704 C 0.52655 0.03485 0.0305 0.0
C705 C 0.49132 0.02005 0.0922 0.0
C706 C 0.46684 0.04032 0.04051 0.0
C707 C 0.46511 0.05181 0.04257 0.0
C708 C 0.52303 0.05811 0.03444 0.0
C709 C 0.58281 0.05257 0.02456 0.0
C710 C 0.58446 0.04109 0.0225 0.0
H711 H 0.49643 0.01375 0.11281 0.0
H712 H 0.52238 0.02728 0.09785 0.0
H713 H 0.4386 0.02268 0.09386 0.0
H714 H 0.42115 0.03572 0.04607 0.0
H715 H 0.41792 0.05575 0.04962 0.0
H716 H 0.46255 0.0578 0.47537 0.0
H717 H 0.4572 0.03787 0.48238 0.0
H718 H 0.58316 0.03992 0.56764 0.0
H719 H 0.5906 0.05985 0.56025 0.0
H720 H 0.57059 0.02312 0.47789 0.0
H721 H 0.42271 0.02052 0.60696 0.0
H722 H 0.42409 0.03267 0.57977 0.0
H723 H 0.49342 0.02961 0.60453 0.0
C724 C 0.48948 0.05406 0.49557 0.0
C725 C 0.52724 0.06055 0.51714 0.0
C726 C 0.48596 0.04263 0.49967 0.0
C727 C 0.51928 0.03737 0.52572 0.0
C728 C 0.55608 0.04379 0.54772 0.0
H729 H 0.5531 0.96807 0.58484 0.0
H730 H 0.55769 0.98819 0.58255 0.0
C731 C 0.56005 0.05523 0.5435 0.0
C732 C 0.51793 0.02515 0.52869 0.0
H733 H 0.46414 1.00387 0.58243 0.0
C734 C 0.54718 0.01891 0.50071 0.0
C735 C 0.48804 0.01964 0.55862 0.0
C736 C 0.45479 0.02591 0.58917 0.0
C737 C 0.54788 1.00736 0.5019 0.0
C738 C 0.51659 1.0018 0.53149 0.0
C739 C 0.48793 1.00807 0.55967 0.0
C740 C 0.51236 0.98954 0.53341 0.0
C741 C 0.58375 1.00126 0.4717 0.0
C742 C 0.48399 0.98352 0.50707 0.0
C743 C 0.48175 0.97203 0.50822 0.0
C744 C 0.50684 0.96622 0.53605 0.0
C745 C 0.53321 0.97226 0.56306 0.0
C746 C 0.536 0.98378 0.56172 0.0
H747 H 0.62208 1.0065 0.45727 0.0
H748 H 0.6082 0.99376 0.48085 0.0
H749 H 0.54744 0.99878 0.45292 0.0
H750 H 0.4633 0.98771 0.48554 0.0
H751 H 0.45969 0.96768 0.48737 0.0
H752 H 0.22201 0.30734 0.98082 0.0
H753 H 0.26104 0.28837 0.97535 0.0
H754 H 0.19933 0.2827 0.0845 0.0
H755 H 0.158 0.30148 0.08993 0.0
H756 H 0.3568 0.27767 0.00999 0.0
H757 H 0.11283 0.25702 0.03809 0.0
H758 H 0.12027 0.27149 0.02828 0.0
H759 H 0.13291 0.26651 0.0715 0.0
C760 C 0.21586 0.30203 1.00359 0.0
C761 C 0.18647 0.306 0.0358 0.0
C762 C 0.23868 0.29118 1.00046 0.0
C763 C 0.23227 0.28401 0.02935 0.0
C764 C 0.20371 0.28797 0.06161 0.0
H765 H 0.3437 0.21595 0.06487 0.0
H766 H 0.30445 0.23491 0.07048 0.0
C767 C 0.18086 0.2988 0.06478 0.0
C768 C 0.25678 0.27248 0.02596 0.0
H769 H 0.20829 0.24563 0.03589 0.0
C770 C 0.32422 0.27066 0.01547 0.0
C771 C 0.21443 0.26331 0.03321 0.0
C772 C 0.14096 0.26464 0.04308 0.0
C773 C 0.35065 0.25999 0.01267 0.0
C774 C 0.3083 0.25082 0.01991 0.0
C775 C 0.24086 0.25263 0.03042 0.0
C776 C 0.33282 0.23929 0.01645 0.0
C777 C 0.42411 0.25866 1.00278 0.0
C778 C 0.3612 0.23534 0.98413 0.0
C779 C 0.38415 0.22452 0.98089 0.0
C780 C 0.37884 0.21732 0.00984 0.0
C781 C 0.34961 0.22127 0.04212 0.0
C782 C 0.32667 0.23211 0.04532 0.0
H783 H 0.45225 0.26627 0.00777 0.0
H784 H 0.44481 0.25181 0.01758 0.0
H785 H 0.43214 0.25678 0.97437 0.0
H786 H 0.36538 0.24062 0.96126 0.0
H787 H 0.40687 0.22186 0.9557 0.0
H788 H 0.61285 0.79956 0.99269 0.0
H789 H 0.65395 0.78071 0.98732 0.0
H790 H 0.80693 0.7884 0.05561 0.0
H791 H 0.76648 0.80726 0.061 0.0
H792 H 0.77741 0.77252 0.96287 0.0
H793 H 0.7203 0.76135 0.10279 0.0
H794 H 0.68771 0.77355 0.08376 0.0
H795 H 0.7717 0.77335 0.09612 0.0
C796 C 0.65563 0.79729 0.00635 0.0
C797 C 0.68596 0.80497 0.02749 0.0
C798 C 0.67887 0.78647 1.00339 0.0
C799 C 0.73278 0.78303 0.0216 0.0
C800 C 0.76416 0.79074 0.04204 0.0
H801 H 0.94723 0.72155 0.03908 0.0
H802 H 0.90586 0.74039 0.04385 0.0
C803 C 0.74094 0.80155 0.04506 0.0
C804 C 0.7566 0.77145 0.01887 0.0
H805 H 0.78329 0.74851 0.06737 0.0
C806 C 0.77837 0.76725 0.9857 0.0
C807 C 0.75803 0.76455 0.04865 0.0
C808 C 0.73264 0.76837 0.08481 0.0
C809 C 0.80273 0.75647 0.98158 0.0
C810 C 0.8042 0.74958 0.01137 0.0
C811 C 0.78233 0.75377 0.04453 0.0
C812 C 0.82845 0.73801 0.00873 0.0
C813 C 0.82832 0.75268 0.94542 0.0
C814 C 0.79804 0.73028 0.98795 0.0
C815 C 0.82152 0.71948 0.98522 0.0
C816 C 0.87568 0.71609 1.00348 0.0
C817 C 0.90509 0.7238 0.02489 0.0
C818 C 0.88167 0.73461 0.02752 0.0
H819 H 0.84092 0.75971 0.92753 0.0
H820 H 0.87313 0.74748 0.9465 0.0
H821 H 0.78924 0.74774 0.93397 0.0
H822 H 0.75576 0.73258 0.97394 0.0
H823 H 0.79674 0.71374 0.96903 0.0
H824 H 0.20428 0.71624 0.48336 0.0
H825 H 0.24524 0.73518 0.47891 0.0
H826 H 0.19518 0.73963 0.5897 0.0
H827 H 0.15337 0.7208 0.59438 0.0
H828 H 0.17862 0.75483 0.49459 0.0
H829 H 0.38833 0.75003 0.57812 0.0
H830 H 0.3454 0.73844 0.56104 0.0
H831 H 0.30938 0.74571 0.59881 0.0
C832 C 0.20159 0.72124 0.50682 0.0
C833 C 0.1757 0.71688 0.53931 0.0
C834 C 0.22541 0.73208 0.50423 0.0
C835 C 0.22445 0.73882 0.53405 0.0
C836 C 0.19811 0.73455 0.56643 0.0
H837 H 0.33814 0.80677 0.57277 0.0
H838 H 0.29758 0.78781 0.57734 0.0
C839 C 0.17421 0.72373 0.56905 0.0
C840 C 0.24938 0.75039 0.53116 0.0
H841 H 0.36283 0.76821 0.56155 0.0
C842 C 0.21914 0.75773 0.50909 0.0
C843 C 0.30215 0.75424 0.55015 0.0
C844 C 0.33871 0.74668 0.57313 0.0
C845 C 0.23924 0.7688 0.50601 0.0
C846 C 0.29205 0.77265 0.52498 0.0
C847 C 0.32229 0.76531 0.54705 0.0
C848 C 0.31699 0.78422 0.52207 0.0
C849 C 0.20252 0.77635 0.48309 0.0
C850 C 0.34251 0.78854 0.48959 0.0
C851 C 0.36605 0.79937 0.4869 0.0
C852 C 0.3651 0.8062 0.51668 0.0
C853 C 0.34028 0.80179 0.54929 0.0
C854 C 0.31672 0.79094 0.55194 0.0
H855 H 0.15271 0.77303 0.47837 0.0
H856 H 0.1962 0.78462 0.49507 0.0
H857 H 0.23147 0.77726 0.45728 0.0
H858 H 0.34499 0.78347 0.46628 0.0
H859 H 0.38612 0.80234 0.46148 0.0
H860 H 0.96892 0.3001 0.53787 0.0
H861 H 0.92929 0.28109 0.54152 0.0
H862 H 0.75731 0.29012 0.48855 0.0
H863 H 0.79643 0.30914 0.48486 0.0
H864 H 0.81405 0.27198 0.57284 0.0
H865 H 0.82865 0.26445 0.42948 0.0
H866 H 0.86654 0.27627 0.4482 0.0
H867 H 0.77875 0.27608 0.44313 0.0
C868 C 0.92236 0.29809 0.52722 0.0
C869 C 0.8862 0.30622 0.51087 0.0
C870 C 0.89991 0.28717 0.52917 0.0
C871 C 0.84088 0.28407 0.51472 0.0
C872 C 0.80391 0.2922 0.49907 0.0
H873 H 0.61945 0.22287 0.50002 0.0
H874 H 0.66025 0.2418 0.49688 0.0
C875 C 0.82638 0.30311 0.49702 0.0
C876 C 0.81766 0.27238 0.51646 0.0
H877 H 0.77573 0.25067 0.46593 0.0
C878 C 0.80603 0.2673 0.54943 0.0
C879 C 0.80702 0.26624 0.48597 0.0
C880 C 0.82145 0.27098 0.44967 0.0
C881 C 0.7828 0.2564 0.5528 0.0
C882 C 0.77203 0.25026 0.52231 0.0
C883 C 0.78381 0.25533 0.48934 0.0
C884 C 0.74801 0.23862 0.524 0.0
C885 C 0.76829 0.25166 0.5891 0.0
C886 C 0.78416 0.2304 0.53974 0.0
C887 C 0.76099 0.21952 0.5415 0.0
C888 C 0.70133 0.21654 0.52725 0.0
C889 C 0.66593 0.22477 0.51093 0.0
C890 C 0.68905 0.23565 0.50927 0.0
H891 H 0.76143 0.25819 0.60931 0.0
H892 H 0.72297 0.24642 0.59059 0.0
H893 H 0.81078 0.2465 0.59558 0.0
H894 H 0.83069 0.23237 0.55049 0.0
H895 H 0.79028 0.2134 0.55372 0.0
H896 H 1.01329 0.37174 0.12338 0.0
H897 H 0.99733 0.369 0.18723 0.0
H898 H 0.12978 0.39614 0.20226 0.0
H899 H 0.14772 0.39859 0.13891 0.0
H900 H 0.1524 0.38034 0.24628 0.0
H901 H 0.88011 0.38731 0.25315 0.0
H902 H 0.9076 0.37591 0.22616 0.0
H903 H 0.93332 0.38961 0.21357 0.0
C904 C 0.03933 0.37704 0.14038 0.0
C905 C 0.08132 0.38544 0.12607 0.0
C906 C 0.02972 0.37555 0.17692 0.0
C907 C 0.06104 0.38254 0.19987 0.0
C908 C 0.10468 0.39066 0.18537 0.0
H909 H 0.94685 0.40161 0.41195 0.0
H910 H 0.96304 0.39855 0.34881 0.0
C911 C 0.11484 0.39207 0.14901 0.0
C912 C 0.04819 0.38166 0.23893 0.0
H913 H 0.92584 0.38326 0.30629 0.0
C914 C 0.10276 0.38091 0.25938 0.0
C915 C 0.98351 0.38253 0.25624 0.0
C916 C 0.92279 0.38399 0.23624 0.0
C917 C 0.09483 0.3813 0.29631 0.0
C918 C 0.03012 0.3821 0.31363 0.0
C919 C 0.97541 0.38256 0.2932 0.0
C920 C 1.01832 0.38347 0.35258 0.0
C921 C 0.15629 0.38139 0.31623 0.0
C922 C 0.0427 0.37591 0.37622 0.0
C923 C 0.03421 0.37774 0.41262 0.0
C924 C 1.00017 0.38707 0.42609 0.0
C925 C 0.97353 0.39436 0.40249 0.0
C926 C 0.98267 0.3926 0.36626 0.0
H927 H 0.20154 0.38358 0.29904 0.0
H928 H 0.15119 0.38731 0.33834 0.0
H929 H 0.16383 0.37309 0.32711 0.0
H930 H 0.06869 0.36862 0.36658 0.0
H931 H 0.05473 0.37192 0.43016 0.0
H932 H 0.99856 0.62852 0.12012 0.0
H933 H 1.00686 0.62535 0.18332 0.0
H934 H 0.98407 0.66006 0.20237 0.0
H935 H 0.97507 0.6632 0.14002 0.0
H936 H 0.09926 0.63379 0.22738 0.0
H937 H 0.84623 0.64717 0.2744 0.0
H938 H 0.86925 0.64399 0.22891 0.0
H939 H 0.88824 0.65725 0.24636 0.0
C940 C 0.99453 0.63542 0.13796 0.0
C941 C 0.98561 0.6461 0.12514 0.0
C942 C 0.99952 0.63362 0.17402 0.0
C943 C 0.99494 0.64245 0.19784 0.0
C944 C 0.98617 0.65307 0.18483 0.0
H945 H 0.06118 0.66326 0.40213 0.0
H946 H 0.0439 0.65994 0.34064 0.0
C947 C 0.98135 0.65487 0.14904 0.0
C948 C 1.00161 0.64082 0.23612 0.0
H949 H 0.92777 0.64753 0.317 0.0
C950 C 0.0612 0.63657 0.24704 0.0
C951 C 0.95189 0.64438 0.26192 0.0
C952 C 0.88505 0.64834 0.25233 0.0
C953 C 0.0739 0.63645 0.28277 0.0
C954 C 1.02572 0.64064 0.30823 0.0
C955 C 0.96493 0.64438 0.29747 0.0
C956 C 0.0396 0.64228 0.34555 0.0
C957 C 0.14006 0.63241 0.293 0.0
C958 C 0.04334 0.63342 0.36896 0.0
C959 C 0.05304 0.63531 0.4045 0.0
C960 C 0.05932 0.64608 0.41706 0.0
C961 C 0.05666 0.65486 0.39334 0.0
C962 C 0.04666 0.65299 0.35813 0.0
H963 H 0.17429 0.63021 0.26982 0.0
H964 H 0.1641 0.6388 0.30836 0.0
H965 H 0.13223 0.62505 0.30999 0.0
H966 H 0.03743 0.62508 0.35991 0.0
H967 H 0.05449 0.62839 0.42219 0.0
H968 H 0.90521 0.62522 0.91172 0.0
H969 H 0.9195 0.62708 0.84789 0.0
H970 H 0.09014 0.64798 0.85688 0.0
H971 H 0.07463 0.64641 0.92114 0.0
H972 H 1.01575 0.65519 0.80528 0.0
H973 H 0.06003 0.61064 0.78866 0.0
H974 H 0.9811 0.61349 0.81185 0.0
H975 H 0.05658 0.61722 0.83096 0.0
C976 C 0.94548 0.63029 0.90014 0.0
C977 C 0.98926 0.63556 0.92146 0.0
C978 C 0.95391 0.63129 0.86357 0.0
C979 C 1.00707 0.63742 0.84733 0.0
C980 C 0.04911 0.64311 0.86867 0.0
H981 H 0.1506 0.62617 0.62935 0.0
H982 H 0.1389 0.6282 0.69313 0.0
C983 C 0.04025 0.64221 0.9054 0.0
C984 C 1.01968 0.63757 0.80823 0.0
H985 H 0.04432 0.62074 0.7369 0.0
C986 C 1.02233 0.64766 0.79031 0.0
C987 C 0.02955 0.62777 0.78856 0.0
C988 C 0.0324 0.61668 0.80599 0.0
C989 C 0.03316 0.64821 0.75342 0.0
C990 C 0.04006 0.63837 0.73368 0.0
C991 C 0.03846 0.62831 0.75174 0.0
C992 C 0.05026 0.6382 0.69444 0.0
C993 C 0.03855 0.65934 0.7361 0.0
C994 C 1.00508 0.64327 0.67346 0.0
C995 C 1.01241 0.64225 0.63674 0.0
C996 C 0.06428 0.63594 0.62031 0.0
C997 C 0.11004 0.63106 0.64122 0.0
C998 C 0.10325 0.6322 0.67776 0.0
H999 H 0.05293 0.66577 0.75464 0.0
H1000 H 0.07558 0.65932 0.71294 0.0
H1001 H 0.98949 0.66162 0.72724 0.0
H1002 H 0.9628 0.64771 0.68547 0.0
H1003 H 0.97603 0.64603 0.62134 0.0
H1004 H 1.02542 0.39537 0.62129 0.0
H1005 H 0.0409 0.39913 0.68344 0.0
H1006 H 0.98093 0.36598 0.71029 0.0
H1007 H 0.96616 0.36218 0.64867 0.0
H1008 H 0.92188 0.38412 0.75671 0.0
H1009 H 0.19838 0.38431 0.73499 0.0
H1010 H 0.1514 0.39247 0.70655 0.0
H1011 H 0.14697 0.37779 0.70455 0.0
C1012 C 1.01483 0.38895 0.64058 0.0
C1013 C 0.99464 0.37847 0.63013 0.0
C1014 C 1.02397 0.39108 0.67601 0.0
C1015 C 1.01243 0.38281 0.70151 0.0
C1016 C 0.99014 0.37249 0.69115 0.0
H1017 H 0.11013 0.36273 0.90141 0.0
H1018 H 0.09512 0.36646 0.83981 0.0
C1019 C 0.98176 0.37033 0.65588 0.0
C1020 C 1.02577 0.38457 0.73886 0.0
H1021 H 0.15183 0.38507 0.79333 0.0
C1022 C 0.97209 0.38456 0.76473 0.0
C1023 C 0.09134 0.38503 0.7493 0.0
C1024 C 0.15068 0.38486 0.72258 0.0
C1025 C 0.98233 0.38469 0.80073 0.0
C1026 C 0.04793 0.38478 0.81117 0.0
C1027 C 0.10157 0.3851 0.7853 0.0
C1028 C 0.06162 0.38313 0.84852 0.0
C1029 C 0.92309 0.38415 0.82747 0.0
C1030 C 0.0491 0.39136 0.87398 0.0
C1031 C 0.05844 0.38928 0.90945 0.0
C1032 C 0.07971 0.37889 0.91994 0.0
C1033 C 0.09366 0.37081 0.89419 0.0
C1034 C 0.08514 0.37293 0.85893 0.0
H1035 H 0.87546 0.38335 0.81509 0.0
H1036 H 0.928 0.37707 0.84536 0.0
H1037 H 0.92122 0.39171 0.84366 0.0
H1038 H 0.03114 0.39932 0.86651 0.0
H1039 H 0.04696 0.39564 0.92874 0.0
H1040 H 0.48435 0.87365 0.12265 0.0
H1041 H 0.46374 0.87198 0.18674 0.0
H1042 H 0.64215 0.89057 0.19977 0.0
H1043 H 0.66214 0.89244 0.13611 0.0
H1044 H 0.53548 0.86387 0.24127 0.0
H1045 H 0.49907 0.90879 0.2538 0.0
H1046 H 0.5026 0.90185 0.21206 0.0
H1047 H 0.57796 0.90515 0.23186 0.0
C1048 C 0.51955 0.87726 0.13922 0.0
C1049 C 0.57441 0.88331 0.12434 0.0
C1050 C 0.50772 0.87631 0.17584 0.0
C1051 C 0.55055 0.88137 0.19819 0.0
C1052 C 0.60746 0.88683 0.1832 0.0
H1053 H 0.56304 0.8751 0.42588 0.0
H1054 H 0.58084 0.87261 0.36212 0.0
C1055 C 0.61904 0.88784 0.14674 0.0
C1056 C 0.53438 0.88148 0.23703 0.0
H1057 H 0.50563 0.89886 0.30669 0.0
C1058 C 0.52868 0.87151 0.2556 0.0
C1059 C 0.52438 0.89144 0.25577 0.0
C1060 C 0.52563 0.90241 0.23737 0.0
C1061 C 0.51473 0.87126 0.29238 0.0
C1062 C 0.50723 0.88125 0.31122 0.0
C1063 C 0.51183 0.89118 0.29247 0.0
C1064 C 0.49357 0.88173 0.35025 0.0
C1065 C 0.50692 0.86028 0.31056 0.0
C1066 C 0.43884 0.8877 0.36511 0.0
C1067 C 0.42916 0.88925 0.40144 0.0
C1068 C 0.47392 0.88485 0.4239 0.0
C1069 C 0.52743 0.87853 0.40928 0.0
C1070 C 0.53743 0.87705 0.37278 0.0
H1071 H 0.49483 0.85368 0.29209 0.0
H1072 H 0.55438 0.85811 0.32146 0.0
H1073 H 0.46729 0.86054 0.3325 0.0
H1074 H 0.40422 0.8914 0.34846 0.0
H1075 H 0.38739 0.89414 0.41187 0.0
H1076 H 0.515 0.1271 0.11492 0.0
H1077 H 0.53169 0.12302 0.17684 0.0
H1078 H 0.4829 0.15645 0.20465 0.0
H1079 H 0.46689 0.16059 0.14342 0.0
H1080 H 0.62568 0.14041 0.22321 0.0
H1081 H 0.36338 0.13098 0.27045 0.0
H1082 H 0.3972 0.12779 0.22637 0.0
H1083 H 0.37871 0.14173 0.23831 0.0
C1084 C 0.50717 0.13352 0.13438 0.0
C1085 C 0.48953 0.14416 0.12436 0.0
C1086 C 0.51703 0.1312 0.16963 0.0
C1087 C 0.50865 0.13945 0.19525 0.0
C1088 C 0.48966 0.14997 0.1853 0.0
H1089 H 0.48991 0.15656 0.40797 0.0
H1090 H 0.48053 0.1529 0.34607 0.0
C1091 C 0.4804 0.15231 0.15028 0.0
C1092 C 0.5207 0.1374 0.23251 0.0
H1093 H 0.43809 0.1345 0.31363 0.0
C1094 C 0.5851 0.13886 0.24304 0.0
C1095 C 0.46752 0.1355 0.2582 0.0
C1096 C 0.39764 0.13385 0.24802 0.0
C1097 C 0.59712 0.13905 0.27883 0.0
C1098 C 0.54332 0.13759 0.30471 0.0
C1099 C 0.47943 0.1356 0.29391 0.0
C1100 C 0.55029 0.13944 0.34284 0.0
C1101 C 0.66648 0.14151 0.28864 0.0
C1102 C 0.59261 0.13306 0.36207 0.0
C1103 C 0.59847 0.1352 0.39786 0.0
C1104 C 0.56184 0.14372 0.41495 0.0
C1105 C 0.51912 0.14996 0.39565 0.0
C1106 C 0.51346 0.14785 0.36017 0.0
H1107 H 0.69974 0.14435 0.26578 0.0
H1108 H 0.66545 0.14788 0.30939 0.0
H1109 H 0.68812 0.13395 0.29912 0.0
H1110 H 0.62071 0.12639 0.34951 0.0
H1111 H 0.63131 0.13019 0.41213 0.0
H1112 H 0.39324 0.12951 0.90818 0.0
H1113 H 0.41111 0.13104 0.84434 0.0
H1114 H 0.59422 0.14863 0.85455 0.0
H1115 H 0.57562 0.14736 0.91877 0.0
H1116 H 0.52418 0.15697 0.80097 0.0
H1117 H 0.54625 0.11178 0.78941 0.0
H1118 H 0.46889 0.11604 0.81166 0.0
H1119 H 0.54556 0.11878 0.83095 0.0
C1120 C 0.43693 0.13383 0.89686 0.0
C1121 C 0.48343 0.1382 0.91847 0.0
C1122 C 0.44732 0.13463 0.86032 0.0
C1123 C 0.50493 0.13969 0.84452 0.0
C1124 C 0.5497 0.1446 0.86609 0.0
H1125 H 0.65869 0.12584 0.62984 0.0
H1126 H 0.64264 0.12816 0.69348 0.0
C1127 C 0.53902 0.14388 0.90279 0.0
C1128 C 0.51959 0.13937 0.80564 0.0
H1129 H 0.54045 0.12169 0.73633 0.0
C1130 C 0.52799 0.14926 0.78682 0.0
C1131 C 0.5258 0.12931 0.78714 0.0
C1132 C 0.52185 0.11838 0.80582 0.0
C1133 C 0.54097 0.14935 0.75001 0.0
C1134 C 0.54445 0.13929 0.73141 0.0
C1135 C 0.5372 0.12942 0.75039 0.0
C1136 C 0.55668 0.13868 0.69239 0.0
C1137 C 0.55214 0.16023 0.73155 0.0
C1138 C 0.51404 0.14386 0.67029 0.0
C1139 C 0.52356 0.14261 0.63374 0.0
C1140 C 0.5753 0.13602 0.61862 0.0
C1141 C 0.61828 0.13095 0.64069 0.0
C1142 C 0.6091 0.13227 0.67712 0.0
H1143 H 0.56733 0.1667 0.74974 0.0
H1144 H 0.59088 0.15958 0.70926 0.0
H1145 H 0.50512 0.16288 0.72111 0.0
H1146 H 0.47227 0.14864 0.6813 0.0
H1147 H 0.48942 0.14658 0.6174 0.0
H1148 H 0.43697 0.86484 0.65046 0.0
H1149 H 0.45349 0.86879 0.71169 0.0
H1150 H 0.53432 0.90057 0.68188 0.0
H1151 H 0.51674 0.89667 0.61999 0.0
H1152 H 0.61545 0.88627 0.72548 0.0
H1153 H 0.35522 0.89098 0.7822 0.0
H1154 H 0.36882 0.87936 0.75361 0.0
H1155 H 0.37973 0.89299 0.73608 0.0
C1156 C 0.45715 0.87276 0.65694 0.0
C1157 C 0.47523 0.88047 0.63042 0.0
C1158 C 0.46644 0.87502 0.69202 0.0
C1159 C 0.49465 0.88501 0.70152 0.0
C1160 C 0.51199 0.89283 0.6752 0.0
H1161 H 0.53921 0.89538 0.92843 0.0
H1162 H 0.52283 0.89982 0.86679 0.0
C1163 C 0.50167 0.89063 0.63991 0.0
C1164 C 0.50973 0.88674 0.73864 0.0
H1165 H 0.43636 0.88689 0.82259 0.0
C1166 C 0.57634 0.88664 0.74668 0.0
C1167 C 0.45882 0.88726 0.76638 0.0
C1168 C 0.38657 0.88775 0.75926 0.0
C1169 C 0.59311 0.88639 0.7817 0.0
C1170 C 0.54204 0.88621 0.80943 0.0
C1171 C 0.47559 0.88698 0.8014 0.0
C1172 C 0.5562 0.88404 0.84646 0.0
C1173 C 0.6654 0.88597 0.78881 0.0
C1174 C 0.58038 0.87373 0.85552 0.0
C1175 C 0.589 0.87116 0.89049 0.0
C1176 C 0.57422 0.87887 0.91732 0.0
C1177 C 0.55162 0.88932 0.90827 0.0
C1178 C 0.54202 0.89184 0.87313 0.0
H1179 H 0.69818 0.88905 0.76609 0.0
H1180 H 0.67461 0.8909 0.81235 0.0
H1181 H 0.67924 0.87735 0.79385 0.0
H1182 H 0.5908 0.86752 0.83558 0.0
H1183 H 0.6062 0.86303 0.89662 0.0
loop_
_geom_bond_atom_site_label_1
_geom_bond_atom_site_label_2
_geom_bond_distance
_geom_bond_site_symmetry_2
_ccdc_geom_bond_type
Sm0 C2 2.846 . S
Sm0 O20 2.543 1_554 S
Sm0 O21 2.450 . S
Sm0 O22 2.681 . S
Sm0 O23 2.464 . S
Sm0 O24 2.396 1_455 S
Sm0 O28 2.386 1_554 S
Sm0 O31 2.408 . S
Sm1 C11 2.846 . S
Sm1 O22 2.386 . S
Sm1 O25 2.408 1_455 S
Sm1 O26 2.543 . S
Sm1 O27 2.450 1_554 S
Sm1 O28 2.681 1_554 S
Sm1 O29 2.464 1_554 S
Sm1 O30 2.396 . S
C2 Sm0 2.846 . S
C2 C3 1.506 1_455 S
C2 O20 1.261 1_554 S
C2 O21 1.242 . S
C3 C2 1.506 1_655 S
C3 C4 1.358 1_554 S
C3 C8 1.382 . S
C4 C3 1.358 1_556 S
C4 C5 1.385 . S
C4 H32 0.930 . S
C5 C4 1.385 . S
C5 C6 1.395 1_556 S
C5 H33 0.929 . S
C6 C5 1.395 1_554 S
C6 C7 1.335 . S
C7 C6 1.335 . S
C7 C8 1.398 . S
C7 H34 0.930 . S
C8 C3 1.382 . S
C8 C7 1.398 . S
C8 H35 0.929 . S
C9 O22 1.271 . S
C9 O23 1.251 . S
C10 O24 1.252 . S
C10 O25 1.272 . S
C11 Sm1 2.846 . S
C11 C12 1.506 . S
C11 O26 1.261 . S
C11 O27 1.242 1_554 S
C12 C11 1.506 . S
C12 C13 1.358 . S
C12 C17 1.382 1_554 S
C13 C12 1.358 . S
C13 C14 1.385 . S
C13 H36 0.930 . S
C14 C13 1.385 . S
C14 C15 1.395 . S
C14 H37 0.929 . S
C15 C14 1.395 . S
C15 C16 1.335 1_554 S
C16 C15 1.335 1_556 S
C16 C17 1.398 . S
C16 H38 0.930 . S
C17 C12 1.382 1_556 S
C17 C16 1.398 . S
C17 H39 0.929 . S
C18 O28 1.271 . S
C18 O29 1.251 . S
C19 O30 1.252 . S
C19 O31 1.272 . S
O20 Sm0 2.543 1_556 S
O20 C2 1.261 1_556 S
O21 Sm0 2.450 . S
O21 C2 1.242 . S
O22 Sm0 2.681 . S
O22 Sm1 2.386 . S
O22 C9 1.271 . S
O23 Sm0 2.464 . S
O23 C9 1.251 . S
O24 Sm0 2.396 1_655 S
O24 C10 1.252 . S
O25 Sm1 2.408 1_655 S
O25 C10 1.272 . S
O26 Sm1 2.543 . S
O26 C11 1.261 . S
O27 Sm1 2.450 1_556 S
O27 C11 1.242 1_556 S
O28 Sm0 2.386 1_556 S
O28 Sm1 2.681 1_556 S
O28 C18 1.271 . S
O29 Sm1 2.464 1_556 S
O29 C18 1.251 . S
O30 Sm1 2.396 . S
O30 C19 1.252 . S
O31 Sm0 2.408 . S
O31 C19 1.272 . S
H32 C4 0.930 . S
H33 C5 0.929 . S
H34 C7 0.930 . S
H35 C8 0.929 . S
H36 C13 0.930 . S
H37 C14 0.929 . S
H38 C16 0.930 . S
H39 C17 0.929 . S
Sm40 C42 2.846 . S
Sm40 O60 2.543 1_554 S
Sm40 O61 2.450 . S
Sm40 O62 2.681 . S
Sm40 O63 2.464 . S
Sm40 O64 2.396 . S
Sm40 O68 2.386 1_554 S
Sm40 O71 2.408 1_655 S
Sm41 C51 2.846 . S
Sm41 O62 2.386 . S
Sm41 O65 2.408 . S
Sm41 O66 2.543 . S
Sm41 O67 2.450 1_554 S
Sm41 O68 2.681 1_554 S
Sm41 O69 2.464 1_554 S
Sm41 O70 2.396 1_655 S
C42 Sm40 2.846 . S
C42 C43 1.506 . S
C42 O60 1.261 1_554 S
C42 O61 1.242 . S
C43 C42 1.506 . S
C43 C44 1.358 1_554 S
C43 C48 1.382 . S
C44 C43 1.358 1_556 S
C44 C45 1.385 . S
C44 H72 0.930 . S
C45 C44 1.385 . S
C45 C46 1.395 1_556 S
C45 H73 0.929 . S
C46 C45 1.395 1_554 S
C46 C47 1.335 . S
C47 C46 1.335 . S
C47 C48 1.398 . S
C47 H74 0.930 . S
C48 C43 1.382 . S
C48 C47 1.398 . S
C48 H75 0.929 . S
C49 O62 1.271 . S
C49 O63 1.251 . S
C50 O64 1.252 . S
C50 O65 1.272 . S
C51 Sm41 2.846 . S
C51 C52 1.506 1_655 S
C51 O66 1.261 . S
C51 O67 1.242 1_554 S
C52 C51 1.506 1_455 S
C52 C53 1.358 . S
C52 C57 1.382 1_554 S
C53 C52 1.358 . S
C53 C54 1.385 . S
C53 H76 0.930 . S
C54 C53 1.385 . S
C54 C55 1.395 . S
C54 H77 0.929 . S
C55 C54 1.395 . S
C55 C56 1.335 1_554 S
C56 C55 1.335 1_556 S
C56 C57 1.398 . S
C56 H78 0.930 . S
C57 C52 1.382 1_556 S
C57 C56 1.398 . S
C57 H79 0.929 . S
C58 O68 1.271 . S
C58 O69 1.251 . S
C59 O70 1.252 . S
C59 O71 1.272 . S
O60 Sm40 2.543 1_556 S
O60 C42 1.261 1_556 S
O61 Sm40 2.450 . S
O61 C42 1.242 . S
O62 Sm40 2.681 . S
O62 Sm41 2.386 . S
O62 C49 1.271 . S
O63 Sm40 2.464 . S
O63 C49 1.251 . S
O64 Sm40 2.396 . S
O64 C50 1.252 . S
O65 Sm41 2.408 . S
O65 C50 1.272 . S
O66 Sm41 2.543 . S
O66 C51 1.261 . S
O67 Sm41 2.450 1_556 S
O67 C51 1.242 1_556 S
O68 Sm40 2.386 1_556 S
O68 Sm41 2.681 1_556 S
O68 C58 1.271 . S
O69 Sm41 2.464 1_556 S
O69 C58 1.251 . S
O70 Sm41 2.396 1_455 S
O70 C59 1.252 . S
O71 Sm40 2.408 1_455 S
O71 C59 1.272 . S
H72 C44 0.930 . S
H73 C45 0.929 . S
H74 C47 0.930 . S
H75 C48 0.929 . S
H76 C53 0.930 . S
H77 C54 0.929 . S
H78 C56 0.930 . S
H79 C57 0.929 . S
Sm80 C82 2.846 . S
Sm80 O100 2.543 . S
Sm80 O101 2.450 . S
Sm80 O102 2.681 . S
Sm80 O103 2.464 . S
Sm80 O104 2.396 . S
Sm80 O108 2.386 . S
Sm80 O111 2.408 1_455 S
Sm81 C91 2.846 . S
Sm81 O102 2.386 . S
Sm81 O105 2.408 . S
Sm81 O106 2.543 . S
Sm81 O107 2.450 . S
Sm81 O108 2.681 . S
Sm81 O109 2.464 . S
Sm81 O110 2.396 1_455 S
C82 Sm80 2.846 . S
C82 C83 1.506 . S
C82 O100 1.261 . S
C82 O101 1.242 . S
C83 C82 1.506 . S
C83 C84 1.358 . S
C83 C88 1.382 . S
C84 C83 1.358 . S
C84 C85 1.385 . S
C84 H112 0.930 . S
C85 C84 1.385 . S
C85 C86 1.395 . S
C85 H113 0.929 . S
C86 C85 1.395 . S
C86 C87 1.335 . S
C87 C86 1.335 . S
C87 C88 1.398 . S
C87 H114 0.930 . S
C88 C83 1.382 . S
C88 C87 1.398 . S
C88 H115 0.929 . S
C89 O102 1.271 . S
C89 O103 1.251 . S
C90 O104 1.252 . S
C90 O105 1.272 . S
C91 Sm81 2.846 . S
C91 C92 1.506 1_455 S
C91 O106 1.261 . S
C91 O107 1.242 . S
C92 C91 1.506 1_655 S
C92 C93 1.358 . S
C92 C97 1.382 . S
C93 C92 1.358 . S
C93 C94 1.385 . S
C93 H116 0.930 . S
C94 C93 1.385 . S
C94 C95 1.395 . S
C94 H117 0.929 . S
C95 C94 1.395 . S
C95 C96 1.335 . S
C96 C95 1.335 . S
C96 C97 1.398 . S
C96 H118 0.930 . S
C97 C92 1.382 . S
C97 C96 1.398 . S
C97 H119 0.929 . S
C98 O108 1.271 . S
C98 O109 1.251 . S
C99 O110 1.252 . S
C99 O111 1.272 . S
O100 Sm80 2.543 . S
O100 C82 1.261 . S
O101 Sm80 2.450 . S
O101 C82 1.242 . S
O102 Sm80 2.681 . S
O102 Sm81 2.386 . S
O102 C89 1.271 . S
O103 Sm80 2.464 . S
O103 C89 1.251 . S
O104 Sm80 2.396 . S
O104 C90 1.252 . S
O105 Sm81 2.408 . S
O105 C90 1.272 . S
O106 Sm81 2.543 . S
O106 C91 1.261 . S
O107 Sm81 2.450 . S
O107 C91 1.242 . S
O108 Sm80 2.386 . S
O108 Sm81 2.681 . S
O108 C98 1.271 . S
O109 Sm81 2.464 . S
O109 C98 1.251 . S
O110 Sm81 2.396 1_655 S
O110 C99 1.252 . S
O111 Sm80 2.408 1_655 S
O111 C99 1.272 . S
H112 C84 0.930 . S
H113 C85 0.929 . S
H114 C87 0.930 . S
H115 C88 0.929 . S
H116 C93 0.930 . S
H117 C94 0.929 . S
H118 C96 0.930 . S
H119 C97 0.929 . S
Sm120 C122 2.846 . S
Sm120 O140 2.543 . S
Sm120 O141 2.450 . S
Sm120 O142 2.681 . S
Sm120 O143 2.464 . S
Sm120 O144 2.396 1_655 S
Sm120 O148 2.386 . S
Sm120 O151 2.408 . S
Sm121 C131 2.846 . S
Sm121 O142 2.386 . S
Sm121 O145 2.408 1_655 S
Sm121 O146 2.543 . S
Sm121 O147 2.450 . S
Sm121 O148 2.681 . S
Sm121 O149 2.464 . S
Sm121 O150 2.396 . S
C122 Sm120 2.846 . S
C122 C123 1.506 1_655 S
C122 O140 1.261 . S
C122 O141 1.242 . S
C123 C122 1.506 1_455 S
C123 C124 1.358 . S
C123 C128 1.382 . S
C124 C123 1.358 . S
C124 C125 1.385 . S
C124 H152 0.930 . S
C125 C124 1.385 . S
C125 C126 1.395 . S
C125 H153 0.929 . S
C126 C125 1.395 . S
C126 C127 1.335 . S
C127 C126 1.335 . S
C127 C128 1.398 . S
C127 H154 0.930 . S
C128 C123 1.382 . S
C128 C127 1.398 . S
C128 H155 0.929 . S
C129 O142 1.271 . S
C129 O143 1.251 . S
C130 O144 1.252 . S
C130 O145 1.272 . S
C131 Sm121 2.846 . S
C131 C132 1.506 . S
C131 O146 1.261 . S
C131 O147 1.242 . S
C132 C131 1.506 . S
C132 C133 1.358 . S
C132 C137 1.382 . S
C133 C132 1.358 . S
C133 C134 1.385 . S
C133 H156 0.930 . S
C134 C133 1.385 . S
C134 C135 1.395 . S
C134 H157 0.929 . S
C135 C134 1.395 . S
C135 C136 1.335 . S
C136 C135 1.335 . S
C136 C137 1.398 . S
C136 H158 0.930 . S
C137 C132 1.382 . S
C137 C136 1.398 . S
C137 H159 0.929 . S
C138 O148 1.271 . S
C138 O149 1.251 . S
C139 O150 1.252 . S
C139 O151 1.272 . S
O140 Sm120 2.543 . S
O140 C122 1.261 . S
O141 Sm120 2.450 . S
O141 C122 1.242 . S
O142 Sm120 2.681 . S
O142 Sm121 2.386 . S
O142 C129 1.271 . S
O143 Sm120 2.464 . S
O143 C129 1.251 . S
O144 Sm120 2.396 1_455 S
O144 C130 1.252 . S
O145 Sm121 2.408 1_455 S
O145 C130 1.272 . S
O146 Sm121 2.543 . S
O146 C131 1.261 . S
O147 Sm121 2.450 . S
O147 C131 1.242 . S
O148 Sm120 2.386 . S
O148 Sm121 2.681 . S
O148 C138 1.271 . S
O149 Sm121 2.464 . S
O149 C138 1.251 . S
O150 Sm121 2.396 . S
O150 C139 1.252 . S
O151 Sm120 2.408 . S
O151 C139 1.272 . S
H152 C124 0.930 . S
H153 C125 0.929 . S
H154 C127 0.930 . S
H155 C128 0.929 . S
H156 C133 0.930 . S
H157 C134 0.929 . S
H158 C136 0.930 . S
H159 C137 0.929 . S
Sm160 C162 2.846 . S
Sm160 O180 2.543 1_554 S
Sm160 O181 2.450 . S
Sm160 O182 2.681 . S
Sm160 O183 2.464 . S
Sm160 O184 2.396 . S
Sm160 O188 2.386 1_554 S
Sm160 O191 2.408 . S
Sm161 C171 2.846 . S
Sm161 O182 2.386 . S
Sm161 O185 2.408 . S
Sm161 O186 2.543 . S
Sm161 O187 2.450 1_554 S
Sm161 O188 2.681 1_554 S
Sm161 O189 2.464 1_554 S
Sm161 O190 2.396 . S
C162 Sm160 2.846 . S
C162 C163 1.506 . S
C162 O180 1.261 1_554 S
C162 O181 1.242 . S
C163 C162 1.506 . S
C163 C164 1.358 1_554 S
C163 C168 1.382 . S
C164 C163 1.358 1_556 S
C164 C165 1.385 . S
C164 H192 0.930 . S
C165 C164 1.385 . S
C165 C166 1.395 1_556 S
C165 H193 0.929 . S
C166 C165 1.395 1_554 S
C166 C167 1.335 . S
C167 C166 1.335 . S
C167 C168 1.398 . S
C167 H194 0.930 . S
C168 C163 1.382 . S
C168 C167 1.398 . S
C168 H195 0.929 . S
C169 O182 1.271 . S
C169 O183 1.251 . S
C170 O184 1.252 . S
C170 O185 1.272 . S
C171 Sm161 2.846 . S
C171 C172 1.506 . S
C171 O186 1.261 . S
C171 O187 1.242 1_554 S
C172 C171 1.506 . S
C172 C173 1.358 . S
C172 C177 1.382 1_554 S
C173 C172 1.358 . S
C173 C174 1.385 . S
C173 H196 0.930 . S
C174 C173 1.385 . S
C174 C175 1.395 . S
C174 H197 0.929 . S
C175 C174 1.395 . S
C175 C176 1.335 1_554 S
C176 C175 1.335 1_556 S
C176 C177 1.398 . S
C176 H198 0.930 . S
C177 C172 1.382 1_556 S
C177 C176 1.398 . S
C177 H199 0.929 . S
C178 O188 1.271 . S
C178 O189 1.251 . S
C179 O190 1.252 . S
C179 O191 1.272 . S
O180 Sm160 2.543 1_556 S
O180 C162 1.261 1_556 S
O181 Sm160 2.450 . S
O181 C162 1.242 . S
O182 Sm160 2.681 . S
O182 Sm161 2.386 . S
O182 C169 1.271 . S
O183 Sm160 2.464 . S
O183 C169 1.251 . S
O184 Sm160 2.396 . S
O184 C170 1.252 . S
O185 Sm161 2.408 . S
O185 C170 1.272 . S
O186 Sm161 2.543 . S
O186 C171 1.261 . S
O187 Sm161 2.450 1_556 S
O187 C171 1.242 1_556 S
O188 Sm160 2.386 1_556 S
O188 Sm161 2.681 1_556 S
O188 C178 1.271 . S
O189 Sm161 2.464 1_556 S
O189 C178 1.251 . S
O190 Sm161 2.396 . S
O190 C179 1.252 . S
O191 Sm160 2.408 . S
O191 C179 1.272 . S
H192 C164 0.930 . S
H193 C165 0.929 . S
H194 C167 0.930 . S
H195 C168 0.929 . S
H196 C173 0.930 . S
H197 C174 0.929 . S
H198 C176 0.930 . S
H199 C177 0.929 . S
Sm200 C202 2.846 . S
Sm200 O220 2.543 1_554 S
Sm200 O221 2.450 . S
Sm200 O222 2.681 . S
Sm200 O223 2.464 . S
Sm200 O224 2.396 . S
Sm200 O228 2.386 1_554 S
Sm200 O231 2.408 . S
Sm201 C211 2.846 . S
Sm201 O222 2.386 . S
Sm201 O225 2.408 . S
Sm201 O226 2.543 . S
Sm201 O227 2.450 1_554 S
Sm201 O228 2.681 1_554 S
Sm201 O229 2.464 1_554 S
Sm201 O230 2.396 . S
C202 Sm200 2.846 . S
C202 C203 1.506 . S
C202 O220 1.261 1_554 S
C202 O221 1.242 . S
C203 C202 1.506 . S
C203 C204 1.358 1_554 S
C203 C208 1.382 . S
C204 C203 1.358 1_556 S
C204 C205 1.385 . S
C204 H232 0.930 . S
C205 C204 1.385 . S
C205 C206 1.395 1_556 S
C205 H233 0.929 . S
C206 C205 1.395 1_554 S
C206 C207 1.335 . S
C207 C206 1.335 . S
C207 C208 1.398 . S
C207 H234 0.930 . S
C208 C203 1.382 . S
C208 C207 1.398 . S
C208 H235 0.929 . S
C209 O222 1.271 . S
C209 O223 1.251 . S
C210 O224 1.252 . S
C210 O225 1.272 . S
C211 Sm201 2.846 . S
C211 C212 1.506 . S
C211 O226 1.261 . S
C211 O227 1.242 1_554 S
C212 C211 1.506 . S
C212 C213 1.358 . S
C212 C217 1.382 1_554 S
C213 C212 1.358 . S
C213 C214 1.385 . S
C213 H236 0.930 . S
C214 C213 1.385 . S
C214 C215 1.395 . S
C214 H237 0.929 . S
C215 C214 1.395 . S
C215 C216 1.335 1_554 S
C216 C215 1.335 1_556 S
C216 C217 1.398 . S
C216 H238 0.930 . S
C217 C212 1.382 1_556 S
C217 C216 1.398 . S
C217 H239 0.929 . S
C218 O228 1.271 . S
C218 O229 1.251 . S
C219 O230 1.252 . S
C219 O231 1.272 . S
O220 Sm200 2.543 1_556 S
O220 C202 1.261 1_556 S
O221 Sm200 2.450 . S
O221 C202 1.242 . S
O222 Sm200 2.681 . S
O222 Sm201 2.386 . S
O222 C209 1.271 . S
O223 Sm200 2.464 . S
O223 C209 1.251 . S
O224 Sm200 2.396 . S
O224 C210 1.252 . S
O225 Sm201 2.408 . S
O225 C210 1.272 . S
O226 Sm201 2.543 . S
O226 C211 1.261 . S
O227 Sm201 2.450 1_556 S
O227 C211 1.242 1_556 S
O228 Sm200 2.386 1_556 S
O228 Sm201 2.681 1_556 S
O228 C218 1.271 . S
O229 Sm201 2.464 1_556 S
O229 C218 1.251 . S
O230 Sm201 2.396 . S
O230 C219 1.252 . S
O231 Sm200 2.408 . S
O231 C219 1.272 . S
H232 C204 0.930 . S
H233 C205 0.929 . S
H234 C207 0.930 . S
H235 C208 0.929 . S
H236 C213 0.930 . S
H237 C214 0.929 . S
H238 C216 0.930 . S
H239 C217 0.929 . S
Sm240 C242 2.846 . S
Sm240 O260 2.543 . S
Sm240 O261 2.450 . S
Sm240 O262 2.681 . S
Sm240 O263 2.464 . S
Sm240 O264 2.396 . S
Sm240 O268 2.386 . S
Sm240 O271 2.408 . S
Sm241 C251 2.846 . S
Sm241 O262 2.386 . S
Sm241 O265 2.408 . S
Sm241 O266 2.543 . S
Sm241 O267 2.450 . S
Sm241 O268 2.681 . S
Sm241 O269 2.464 . S
Sm241 O270 2.396 . S
C242 Sm240 2.846 . S
C242 C243 1.506 . S
C242 O260 1.261 . S
C242 O261 1.242 . S
C243 C242 1.506 . S
C243 C244 1.358 . S
C243 C248 1.382 . S
C244 C243 1.358 . S
C244 C245 1.385 . S
C244 H272 0.930 . S
C245 C244 1.385 . S
C245 C246 1.395 . S
C245 H273 0.929 . S
C246 C245 1.395 . S
C246 C247 1.335 . S
C247 C246 1.335 . S
C247 C248 1.398 . S
C247 H274 0.930 . S
C248 C243 1.382 . S
C248 C247 1.398 . S
C248 H275 0.929 . S
C249 O262 1.271 . S
C249 O263 1.251 . S
C250 O264 1.252 . S
C250 O265 1.272 . S
C251 Sm241 2.846 . S
C251 C252 1.506 . S
C251 O266 1.261 . S
C251 O267 1.242 . S
C252 C251 1.506 . S
C252 C253 1.358 . S
C252 C257 1.382 . S
C253 C252 1.358 . S
C253 C254 1.385 . S
C253 H276 0.930 . S
C254 C253 1.385 . S
C254 C255 1.395 . S
C254 H277 0.929 . S
C255 C254 1.395 . S
C255 C256 1.335 . S
C256 C255 1.335 . S
C256 C257 1.398 . S
C256 H278 0.930 . S
C257 C252 1.382 . S
C257 C256 1.398 . S
C257 H279 0.929 . S
C258 O268 1.271 . S
C258 O269 1.251 . S
C259 O270 1.252 . S
C259 O271 1.272 . S
O260 Sm240 2.543 . S
O260 C242 1.261 . S
O261 Sm240 2.450 . S
O261 C242 1.242 . S
O262 Sm240 2.681 . S
O262 Sm241 2.386 . S
O262 C249 1.271 . S
O263 Sm240 2.464 . S
O263 C249 1.251 . S
O264 Sm240 2.396 . S
O264 C250 1.252 . S
O265 Sm241 2.408 . S
O265 C250 1.272 . S
O266 Sm241 2.543 . S
O266 C251 1.261 . S
O267 Sm241 2.450 . S
O267 C251 1.242 . S
O268 Sm240 2.386 . S
O268 Sm241 2.681 . S
O268 C258 1.271 . S
O269 Sm241 2.464 . S
O269 C258 1.251 . S
O270 Sm241 2.396 . S
O270 C259 1.252 . S
O271 Sm240 2.408 . S
O271 C259 1.272 . S
H272 C244 0.930 . S
H273 C245 0.929 . S
H274 C247 0.930 . S
H275 C248 0.929 . S
H276 C253 0.930 . S
H277 C254 0.929 . S
H278 C256 0.930 . S
H279 C257 0.929 . S
Sm280 C282 2.846 . S
Sm280 O300 2.543 . S
Sm280 O301 2.450 . S
Sm280 O302 2.681 . S
Sm280 O303 2.464 . S
Sm280 O304 2.396 . S
Sm280 O308 2.386 . S
Sm280 O311 2.408 . S
Sm281 C291 2.846 . S
Sm281 O302 2.386 . S
Sm281 O305 2.408 . S
Sm281 O306 2.543 . S
Sm281 O307 2.450 . S
Sm281 O308 2.681 . S
Sm281 O309 2.464 . S
Sm281 O310 2.396 . S
C282 Sm280 2.846 . S
C282 C283 1.506 . S
C282 O300 1.261 . S
C282 O301 1.242 . S
C283 C282 1.506 . S
C283 C284 1.358 . S
C283 C288 1.382 . S
C284 C283 1.358 . S
C284 C285 1.385 . S
C284 H312 0.930 . S
C285 C284 1.385 . S
C285 C286 1.395 . S
C285 H313 0.929 . S
C286 C285 1.395 . S
C286 C287 1.335 . S
C287 C286 1.335 . S
C287 C288 1.398 . S
C287 H314 0.930 . S
C288 C283 1.382 . S
C288 C287 1.398 . S
C288 H315 0.929 . S
C289 O302 1.271 . S
C289 O303 1.251 . S
C290 O304 1.252 . S
C290 O305 1.272 . S
C291 Sm281 2.846 . S
C291 C292 1.506 . S
C291 O306 1.261 . S
C291 O307 1.242 . S
C292 C291 1.506 . S
C292 C293 1.358 . S
C292 C297 1.382 . S
C293 C292 1.358 . S
C293 C294 1.385 . S
C293 H316 0.930 . S
C294 C293 1.385 . S
C294 C295 1.395 . S
C294 H317 0.929 . S
C295 C294 1.395 . S
C295 C296 1.335 . S
C296 C295 1.335 . S
C296 C297 1.398 . S
C296 H318 0.930 . S
C297 C292 1.382 . S
C297 C296 1.398 . S
C297 H319 0.929 . S
C298 O308 1.271 . S
C298 O309 1.251 . S
C299 O310 1.252 . S
C299 O311 1.272 . S
O300 Sm280 2.543 . S
O300 C282 1.261 . S
O301 Sm280 2.450 . S
O301 C282 1.242 . S
O302 Sm280 2.681 . S
O302 Sm281 2.386 . S
O302 C289 1.271 . S
O303 Sm280 2.464 . S
O303 C289 1.251 . S
O304 Sm280 2.396 . S
O304 C290 1.252 . S
O305 Sm281 2.408 . S
O305 C290 1.272 . S
O306 Sm281 2.543 . S
O306 C291 1.261 . S
O307 Sm281 2.450 . S
O307 C291 1.242 . S
O308 Sm280 2.386 . S
O308 Sm281 2.681 . S
O308 C298 1.271 . S
O309 Sm281 2.464 . S
O309 C298 1.251 . S
O310 Sm281 2.396 . S
O310 C299 1.252 . S
O311 Sm280 2.408 . S
O311 C299 1.272 . S
H312 C284 0.930 . S
H313 C285 0.929 . S
H314 C287 0.930 . S
H315 C288 0.929 . S
H316 C293 0.930 . S
H317 C294 0.929 . S
H318 C296 0.930 . S
H319 C297 0.929 . S
H320 C328 0.929 1_556 S
H321 C330 0.917 1_556 S
H322 C332 0.930 . S
H323 C335 0.929 . S
H324 C338 0.930 . S
H325 C340 0.960 . S
H326 C340 0.960 . S
H327 C340 0.960 . S
C328 H320 0.929 1_554 S
C328 C329 1.377 . S
C328 C330 1.382 . S
C329 C328 1.377 . S
C329 C335 1.390 . S
C330 H321 0.917 1_554 S
C330 C328 1.382 . S
C330 C331 1.388 . S
C331 C330 1.388 . S
C331 C332 1.400 . S
C331 C336 1.490 . S
C332 H322 0.930 . S
C332 C331 1.400 . S
C332 C335 1.386 . S
H333 C349 0.930 . S
H334 C350 0.931 . S
C335 H323 0.929 . S
C335 C329 1.390 . S
C335 C332 1.386 . S
C336 C331 1.490 . S
C336 C338 1.395 1_554 S
C336 C339 1.403 . S
H337 C343 0.930 . S
C338 H324 0.930 . S
C338 C336 1.395 1_556 S
C338 C341 1.403 . S
C339 C336 1.403 . S
C339 C340 1.524 . S
C339 C343 1.400 . S
C340 H325 0.960 . S
C340 H326 0.960 . S
C340 H327 0.960 . S
C340 C339 1.524 . S
C341 C338 1.403 . S
C341 C342 1.392 1_556 S
C341 C345 1.495 . S
C342 C341 1.392 1_554 S
C342 C343 1.385 . S
C342 C344 1.478 . S
C343 H337 0.930 . S
C343 C339 1.400 . S
C343 C342 1.385 . S
C344 C342 1.478 . S
C344 C346 1.378 1_554 S
C344 C350 1.383 . S
C345 C341 1.495 . S
C345 H351 0.959 . S
C345 H352 0.961 . S
C345 H353 0.960 . S
C346 C344 1.378 1_556 S
C346 C347 1.392 1_556 S
C346 H354 0.936 . S
C347 C346 1.392 1_554 S
C347 C348 1.383 . S
C347 H355 0.929 1_554 S
C348 C347 1.383 . S
C348 C349 1.377 . S
C349 H333 0.930 . S
C349 C348 1.377 . S
C349 C350 1.379 . S
C350 H334 0.931 . S
C350 C344 1.383 . S
C350 C349 1.379 . S
H351 C345 0.959 . S
H352 C345 0.961 . S
H353 C345 0.960 . S
H354 C346 0.936 . S
H355 C347 0.929 1_556 S
H356 C364 0.929 . S
H357 C366 0.930 . S
H358 C368 0.930 . S
H359 C371 0.929 . S
H360 C374 0.930 . S
H361 C376 0.960 . S
H362 C376 0.960 . S
H363 C376 0.960 1_554 S
C364 H356 0.929 . S
C364 C365 1.377 1_556 S
C364 C366 1.384 . S
C365 C364 1.377 1_554 S
C365 C371 1.390 . S
C366 H357 0.930 . S
C366 C364 1.384 . S
C366 C367 1.372 1_556 S
C367 C366 1.372 1_554 S
C367 C368 1.400 . S
C367 C372 1.490 . S
C368 H358 0.930 . S
C368 C367 1.400 . S
C368 C371 1.386 . S
H369 C385 0.930 . S
H370 C386 0.931 . S
C371 H359 0.929 . S
C371 C365 1.390 . S
C371 C368 1.386 . S
C372 C367 1.490 . S
C372 C374 1.395 . S
C372 C375 1.403 . S
H373 C379 0.930 . S
C374 H360 0.930 . S
C374 C372 1.395 . S
C374 C377 1.403 . S
C375 C372 1.403 . S
C375 C376 1.524 1_554 S
C375 C379 1.400 . S
C376 H361 0.960 . S
C376 H362 0.960 . S
C376 H363 0.960 1_556 S
C376 C375 1.524 1_556 S
C377 C374 1.403 . S
C377 C378 1.392 . S
C377 C381 1.495 . S
C378 C377 1.392 . S
C378 C379 1.385 . S
C378 C380 1.478 . S
C379 H373 0.930 . S
C379 C375 1.400 . S
C379 C378 1.385 . S
C380 C378 1.478 . S
C380 C382 1.382 1_554 S
C380 C386 1.383 . S
C381 C377 1.495 . S
C381 H387 0.959 . S
C381 H388 0.961 . S
C381 H389 0.960 . S
C382 C380 1.382 1_556 S
C382 C383 1.396 . S
C382 H390 0.929 . S
C383 C382 1.396 . S
C383 C384 1.367 1_556 S
C383 H391 0.944 . S
C384 C383 1.367 1_554 S
C384 C385 1.377 . S
C385 H369 0.930 . S
C385 C384 1.377 . S
C385 C386 1.379 . S
C386 H370 0.931 . S
C386 C380 1.383 . S
C386 C385 1.379 . S
H387 C381 0.959 . S
H388 C381 0.961 . S
H389 C381 0.960 . S
H390 C382 0.929 . S
H391 C383 0.944 . S
H392 C400 0.929 . S
H393 C402 0.930 . S
H394 C404 0.930 . S
H395 C407 0.929 . S
H396 C410 0.930 . S
H397 C412 0.960 . S
H398 C412 0.960 . S
H399 C412 0.960 . S
C400 H392 0.929 . S
C400 C401 1.377 . S
C400 C402 1.384 . S
C401 C400 1.377 . S
C401 C407 1.390 . S
C402 H393 0.930 . S
C402 C400 1.384 . S
C402 C403 1.372 . S
C403 C402 1.372 . S
C403 C404 1.400 . S
C403 C408 1.490 . S
C404 H394 0.930 . S
C404 C403 1.400 . S
C404 C407 1.386 . S
H405 C421 0.930 . S
H406 C422 0.931 . S
C407 H395 0.929 . S
C407 C401 1.390 . S
C407 C404 1.386 . S
C408 C403 1.490 . S
C408 C410 1.395 . S
C408 C411 1.403 . S
H409 C415 0.930 . S
C410 H396 0.930 . S
C410 C408 1.395 . S
C410 C413 1.403 . S
C411 C408 1.403 . S
C411 C412 1.524 . S
C411 C415 1.400 . S
C412 H397 0.960 . S
C412 H398 0.960 . S
C412 H399 0.960 . S
C412 C411 1.524 . S
C413 C410 1.403 . S
C413 C414 1.392 . S
C413 C417 1.495 . S
C414 C413 1.392 . S
C414 C415 1.385 . S
C414 C416 1.478 . S
C415 H409 0.930 . S
C415 C411 1.400 . S
C415 C414 1.385 . S
C416 C414 1.478 . S
C416 C418 1.381 . S
C416 C422 1.383 . S
C417 C413 1.495 . S
C417 H423 0.959 . S
C417 H424 0.961 . S
C417 H425 0.960 . S
C418 C416 1.381 . S
C418 C419 1.394 . S
C418 H426 0.930 . S
C419 C418 1.394 . S
C419 C420 1.383 . S
C419 H427 0.929 . S
C420 C419 1.383 . S
C420 C421 1.377 . S
C421 H405 0.930 . S
C421 C420 1.377 . S
C421 C422 1.379 . S
C422 H406 0.931 . S
C422 C416 1.383 . S
C422 C421 1.379 . S
H423 C417 0.959 . S
H424 C417 0.961 . S
H425 C417 0.960 . S
H426 C418 0.930 . S
H427 C419 0.929 . S
H428 C436 0.929 . S
H429 C438 0.930 . S
H430 C440 0.930 . S
H431 C443 0.929 . S
H432 C446 0.930 . S
H433 C448 0.960 . S
H434 C448 0.960 . S
H435 C448 0.960 . S
C436 H428 0.929 . S
C436 C437 1.377 . S
C436 C438 1.384 . S
C437 C436 1.377 . S
C437 C443 1.390 . S
C438 H429 0.930 . S
C438 C436 1.384 . S
C438 C439 1.372 . S
C439 C438 1.372 . S
C439 C440 1.400 . S
C439 C444 1.490 . S
C440 H430 0.930 . S
C440 C439 1.400 . S
C440 C443 1.386 . S
H441 C457 0.930 . S
H442 C458 0.931 . S
C443 H431 0.929 . S
C443 C437 1.390 . S
C443 C440 1.386 . S
C444 C439 1.490 . S
C444 C446 1.395 . S
C444 C447 1.403 . S
H445 C451 0.930 . S
C446 H432 0.930 . S
C446 C444 1.395 . S
C446 C449 1.403 . S
C447 C444 1.403 . S
C447 C448 1.524 . S
C447 C451 1.400 . S
C448 H433 0.960 . S
C448 H434 0.960 . S
C448 H435 0.960 . S
C448 C447 1.524 . S
C449 C446 1.403 . S
C449 C450 1.392 . S
C449 C453 1.495 . S
C450 C449 1.392 . S
C450 C451 1.385 . S
C450 C452 1.478 . S
C451 H445 0.930 . S
C451 C447 1.400 . S
C451 C450 1.385 . S
C452 C450 1.478 . S
C452 C454 1.381 . S
C452 C458 1.383 . S
C453 C449 1.495 . S
C453 H459 0.959 . S
C453 H460 0.961 . S
C453 H461 0.960 . S
C454 C452 1.381 . S
C454 C455 1.394 . S
C454 H462 0.930 . S
C455 C454 1.394 . S
C455 C456 1.383 . S
C455 H463 0.929 . S
C456 C455 1.383 . S
C456 C457 1.377 . S
C457 H441 0.930 . S
C457 C456 1.377 . S
C457 C458 1.379 . S
C458 H442 0.931 . S
C458 C452 1.383 . S
C458 C457 1.379 . S
H459 C453 0.959 . S
H460 C453 0.961 . S
H461 C453 0.960 . S
H462 C454 0.930 . S
H463 C455 0.929 . S
H464 C472 0.929 . S
H465 C474 0.930 . S
H466 C476 0.930 . S
H467 C479 0.929 . S
H468 C482 0.930 1_655 S
H469 C484 0.960 . S
H470 C484 0.960 1_655 S
H471 C484 0.960 1_655 S
C472 H464 0.929 . S
C472 C473 1.377 . S
C472 C474 1.384 . S
C473 C472 1.377 . S
C473 C479 1.390 . S
C474 H465 0.930 . S
C474 C472 1.384 . S
C474 C475 1.372 . S
C475 C474 1.372 . S
C475 C476 1.400 . S
C475 C480 1.490 . S
C476 H466 0.930 . S
C476 C475 1.400 . S
C476 C479 1.386 . S
H477 C493 0.930 . S
H478 C494 0.931 . S
C479 H467 0.929 . S
C479 C473 1.390 . S
C479 C476 1.386 . S
C480 C475 1.490 . S
C480 C482 1.395 1_655 S
C480 C483 1.403 1_654 S
H481 C487 0.930 . S
C482 H468 0.930 1_455 S
C482 C480 1.395 1_455 S
C482 C485 1.403 . S
C483 C480 1.403 1_456 S
C483 C484 1.524 . S
C483 C487 1.400 . S
C484 H469 0.960 . S
C484 H470 0.960 1_455 S
C484 H471 0.960 1_455 S
C484 C483 1.524 . S
C485 C482 1.403 . S
C485 C486 1.392 . S
C485 C489 1.495 . S
C486 C485 1.392 . S
C486 C487 1.385 1_554 S
C486 C488 1.478 . S
C487 H481 0.930 . S
C487 C483 1.400 . S
C487 C486 1.385 1_556 S
C488 C486 1.478 . S
C488 C490 1.381 . S
C488 C494 1.383 . S
C489 C485 1.495 . S
C489 H495 0.959 . S
C489 H496 0.961 . S
C489 H497 0.960 . S
C490 C488 1.381 . S
C490 C491 1.394 . S
C490 H498 0.930 . S
C491 C490 1.394 . S
C491 C492 1.383 . S
C491 H499 0.929 . S
C492 C491 1.383 . S
C492 C493 1.377 . S
C493 H477 0.930 . S
C493 C492 1.377 . S
C493 C494 1.379 . S
C494 H478 0.931 . S
C494 C488 1.383 . S
C494 C493 1.379 . S
H495 C489 0.959 . S
H496 C489 0.961 . S
H497 C489 0.960 . S
H498 C490 0.930 . S
H499 C491 0.929 . S
H500 C508 0.929 . S
H501 C510 0.930 . S
H502 C512 0.930 . S
H503 C515 0.929 . S
H504 C518 0.930 1_455 S
H505 C520 0.960 . S
H506 C520 0.960 1_455 S
H507 C520 0.960 1_455 S
C508 H500 0.929 . S
C508 C509 1.377 1_556 S
C508 C510 1.384 . S
C509 C508 1.377 1_554 S
C509 C515 1.390 . S
C510 H501 0.930 . S
C510 C508 1.384 . S
C510 C511 1.372 1_556 S
C511 C510 1.372 1_554 S
C511 C512 1.400 . S
C511 C516 1.490 . S
C512 H502 0.930 . S
C512 C511 1.400 . S
C512 C515 1.386 . S
H513 C529 0.930 . S
H514 C530 0.931 . S
C515 H503 0.929 . S
C515 C509 1.390 . S
C515 C512 1.386 . S
C516 C511 1.490 . S
C516 C518 1.395 1_455 S
C516 C519 1.403 1_455 S
H517 C523 0.930 . S
C518 H504 0.930 1_655 S
C518 C516 1.395 1_655 S
C518 C521 1.403 . S
C519 C516 1.403 1_655 S
C519 C520 1.524 . S
C519 C523 1.400 . S
C520 H505 0.960 . S
C520 H506 0.960 1_655 S
C520 H507 0.960 1_655 S
C520 C519 1.524 . S
C521 C518 1.403 . S
C521 C522 1.392 . S
C521 C525 1.495 . S
C522 C521 1.392 . S
C522 C523 1.385 . S
C522 C524 1.478 . S
C523 H517 0.930 . S
C523 C519 1.400 . S
C523 C522 1.385 . S
C524 C522 1.478 . S
C524 C526 1.381 1_554 S
C524 C530 1.383 . S
C525 C521 1.495 . S
C525 H531 0.959 . S
C525 H532 0.961 . S
C525 H533 0.960 1_554 S
C526 C524 1.381 1_556 S
C526 C527 1.394 . S
C526 H534 0.930 . S
C527 C526 1.394 . S
C527 C528 1.383 1_556 S
C527 H535 0.929 . S
C528 C527 1.383 1_554 S
C528 C529 1.377 . S
C529 H513 0.930 . S
C529 C528 1.377 . S
C529 C530 1.379 . S
C530 H514 0.931 . S
C530 C524 1.383 . S
C530 C529 1.379 . S
H531 C525 0.959 . S
H532 C525 0.961 . S
H533 C525 0.960 1_556 S
H534 C526 0.930 . S
H535 C527 0.929 . S
H536 C544 0.929 . S
H537 C546 0.930 . S
H538 C548 0.930 . S
H539 C551 0.929 . S
H540 C554 0.930 . S
H541 C556 0.960 . S
H542 C556 0.960 . S
H543 C556 0.960 . S
C544 H536 0.929 . S
C544 C545 1.377 . S
C544 C546 1.384 . S
C545 C544 1.377 . S
C545 C551 1.390 . S
C546 H537 0.930 . S
C546 C544 1.384 . S
C546 C547 1.372 . S
C547 C546 1.372 . S
C547 C548 1.400 . S
C547 C552 1.490 . S
C548 H538 0.930 . S
C548 C547 1.400 . S
C548 C551 1.386 . S
H549 C565 0.930 . S
H550 C566 0.931 . S
C551 H539 0.929 . S
C551 C545 1.390 . S
C551 C548 1.386 . S
C552 C547 1.490 . S
C552 C554 1.395 . S
C552 C555 1.403 . S
H553 C559 0.930 1_655 S
C554 H540 0.930 . S
C554 C552 1.395 . S
C554 C557 1.403 . S
C555 C552 1.403 . S
C555 C556 1.524 . S
C555 C559 1.400 . S
C556 H541 0.960 . S
C556 H542 0.960 . S
C556 H543 0.960 . S
C556 C555 1.524 . S
C557 C554 1.403 . S
C557 C558 1.392 1_455 S
C557 C561 1.495 . S
C558 C557 1.392 1_655 S
C558 C559 1.385 1_655 S
C558 C560 1.478 . S
C559 H553 0.930 1_455 S
C559 C555 1.400 . S
C559 C558 1.385 1_455 S
C560 C558 1.478 . S
C560 C562 1.381 . S
C560 C566 1.383 . S
C561 C557 1.495 . S
C561 H567 0.959 . S
C561 H568 0.961 1_455 S
C561 H569 0.960 1_455 S
C562 C560 1.381 . S
C562 C563 1.394 . S
C562 H570 0.930 . S
C563 C562 1.394 . S
C563 C564 1.383 . S
C563 H571 0.929 . S
C564 C563 1.383 . S
C564 C565 1.377 . S
C565 H549 0.930 . S
C565 C564 1.377 . S
C565 C566 1.379 . S
C566 H550 0.931 . S
C566 C560 1.383 . S
C566 C565 1.379 . S
H567 C561 0.959 . S
H568 C561 0.961 1_655 S
H569 C561 0.960 1_655 S
H570 C562 0.930 . S
H571 C563 0.929 . S
H572 C580 0.929 . S
H573 C582 0.930 . S
H574 C584 0.930 . S
H575 C587 0.929 . S
H576 C590 0.930 . S
H577 C592 0.960 . S
H578 C592 0.960 . S
H579 C592 0.960 . S
C580 H572 0.929 . S
C580 C581 1.377 . S
C580 C582 1.384 . S
C581 C580 1.377 . S
C581 C587 1.390 . S
C582 H573 0.930 . S
C582 C580 1.384 . S
C582 C583 1.372 . S
C583 C582 1.372 . S
C583 C584 1.400 . S
C583 C588 1.490 . S
C584 H574 0.930 . S
C584 C583 1.400 . S
C584 C587 1.386 . S
H585 C601 0.930 . S
H586 C602 0.931 . S
C587 H575 0.929 . S
C587 C581 1.390 . S
C587 C584 1.386 . S
C588 C583 1.490 . S
C588 C590 1.395 . S
C588 C591 1.403 . S
H589 C595 0.930 . S
C590 H576 0.930 . S
C590 C588 1.395 . S
C590 C593 1.403 . S
C591 C588 1.403 . S
C591 C592 1.524 . S
C591 C595 1.400 . S
C592 H577 0.960 . S
C592 H578 0.960 . S
C592 H579 0.960 . S
C592 C591 1.524 . S
C593 C590 1.403 . S
C593 C594 1.392 1_655 S
C593 C597 1.495 1_655 S
C594 C593 1.392 1_455 S
C594 C595 1.385 1_455 S
C594 C596 1.478 . S
C595 H589 0.930 . S
C595 C591 1.400 . S
C595 C594 1.385 1_655 S
C596 C594 1.478 . S
C596 C598 1.381 . S
C596 C602 1.383 . S
C597 C593 1.495 1_455 S
C597 H603 0.959 1_455 S
C597 H604 0.961 . S
C597 H605 0.960 . S
C598 C596 1.381 . S
C598 C599 1.394 . S
C598 H606 0.930 . S
C599 C598 1.394 . S
C599 C600 1.383 . S
C599 H607 0.929 . S
C600 C599 1.383 . S
C600 C601 1.377 . S
C601 H585 0.930 . S
C601 C600 1.377 . S
C601 C602 1.379 . S
C602 H586 0.931 . S
C602 C596 1.383 . S
C602 C601 1.379 . S
H603 C597 0.959 1_655 S
H604 C597 0.961 . S
H605 C597 0.960 . S
H606 C598 0.930 . S
H607 C599 0.929 . S
H608 C616 0.918 1_655 S
H609 C618 0.930 1_655 S
H610 C620 0.930 . S
H611 C623 0.929 . S
H612 C626 0.930 . S
H613 C628 0.960 . S
H614 C628 0.960 1_655 S
H615 C628 0.960 . S
C616 H608 0.918 1_455 S
C616 C617 1.377 . S
C616 C618 1.384 . S
C617 C616 1.377 . S
C617 C623 1.390 . S
C618 H609 0.930 1_455 S
C618 C616 1.384 . S
C618 C619 1.372 . S
C619 C618 1.372 . S
C619 C620 1.400 . S
C619 C624 1.490 . S
C620 H610 0.930 . S
C620 C619 1.400 . S
C620 C623 1.386 . S
H621 C637 0.930 1_455 S
H622 C638 0.931 1_455 S
C623 H611 0.929 . S
C623 C617 1.390 . S
C623 C620 1.386 . S
C624 C619 1.490 . S
C624 C626 1.395 1_554 S
C624 C627 1.403 . S
H625 C631 0.930 . S
C626 H612 0.930 . S
C626 C624 1.395 1_556 S
C626 C629 1.403 1_455 S
C627 C624 1.403 . S
C627 C628 1.524 . S
C627 C631 1.400 1_455 S
C628 H613 0.960 . S
C628 H614 0.960 1_455 S
C628 H615 0.960 . S
C628 C627 1.524 . S
C629 C626 1.403 1_655 S
C629 C630 1.392 1_556 S
C629 C633 1.495 . S
C630 C629 1.392 1_554 S
C630 C631 1.385 . S
C630 C632 1.478 . S
C631 H625 0.930 . S
C631 C627 1.400 1_655 S
C631 C630 1.385 . S
C632 C630 1.478 . S
C632 C634 1.381 . S
C632 C638 1.383 . S
C633 C629 1.495 . S
C633 H639 0.959 . S
C633 H640 0.961 1_655 S
C633 H641 0.960 . S
C634 C632 1.381 . S
C634 C635 1.395 . S
C634 H642 0.930 1_554 S
C635 C634 1.395 . S
C635 C636 1.391 . S
C635 H643 0.922 1_554 S
C636 C635 1.391 . S
C636 C637 1.377 . S
C637 H621 0.930 1_655 S
C637 C636 1.377 . S
C637 C638 1.379 . S
C638 H622 0.931 1_655 S
C638 C632 1.383 . S
C638 C637 1.379 . S
H639 C633 0.959 . S
H640 C633 0.961 1_455 S
H641 C633 0.960 . S
H642 C634 0.930 1_556 S
H643 C635 0.922 1_556 S
H644 C652 0.929 . S
H645 C654 0.930 . S
H646 C656 0.930 1_655 S
H647 C659 0.929 1_655 S
H648 C662 0.930 . S
H649 C664 0.960 . S
H650 C664 0.960 . S
H651 C664 0.960 . S
C652 H644 0.929 . S
C652 C653 1.377 . S
C652 C654 1.384 . S
C653 C652 1.377 . S
C653 C659 1.390 . S
C654 H645 0.930 . S
C654 C652 1.384 . S
C654 C655 1.372 . S
C655 C654 1.372 . S
C655 C656 1.400 . S
C655 C660 1.490 . S
C656 H646 0.930 1_455 S
C656 C655 1.400 . S
C656 C659 1.386 . S
H657 C673 0.930 . S
H658 C674 0.931 . S
C659 H647 0.929 1_455 S
C659 C653 1.390 . S
C659 C656 1.386 . S
C660 C655 1.490 . S
C660 C662 1.395 . S
C660 C663 1.403 1_455 S
H661 C667 0.930 . S
C662 H648 0.930 . S
C662 C660 1.395 . S
C662 C665 1.403 . S
C663 C660 1.403 1_655 S
C663 C664 1.524 . S
C663 C667 1.400 . S
C664 H649 0.960 . S
C664 H650 0.960 . S
C664 H651 0.960 . S
C664 C663 1.524 . S
C665 C662 1.403 . S
C665 C666 1.392 1_455 S
C665 C669 1.495 . S
C666 C665 1.392 1_655 S
C666 C667 1.385 . S
C666 C668 1.478 . S
C667 H661 0.930 . S
C667 C663 1.400 . S
C667 C666 1.385 . S
C668 C666 1.478 . S
C668 C670 1.381 1_655 S
C668 C674 1.383 . S
C669 C665 1.495 . S
C669 H675 0.959 . S
C669 H676 0.961 . S
C669 H677 0.960 . S
C670 C668 1.381 1_455 S
C670 C671 1.394 1_455 S
C670 H678 0.930 . S
C671 C670 1.394 1_655 S
C671 C672 1.383 . S
C671 H679 0.929 1_655 S
C672 C671 1.383 . S
C672 C673 1.377 . S
C673 H657 0.930 . S
C673 C672 1.377 . S
C673 C674 1.379 . S
C674 H658 0.931 . S
C674 C668 1.383 . S
C674 C673 1.379 . S
H675 C669 0.959 . S
H676 C669 0.961 . S
H677 C669 0.960 . S
H678 C670 0.930 . S
H679 C671 0.929 1_455 S
H680 C688 0.929 . S
H681 C690 0.930 . S
H682 C692 0.930 . S
H683 C695 0.929 . S
H684 C698 0.930 . S
H685 C700 0.951 1_545 S
H686 C700 0.960 . S
H687 C700 0.960 . S
C688 H680 0.929 . S
C688 C689 1.377 . S
C688 C690 1.384 . S
C689 C688 1.377 . S
C689 C695 1.390 1_554 S
C690 H681 0.930 . S
C690 C688 1.384 . S
C690 C691 1.372 . S
C691 C690 1.372 . S
C691 C692 1.400 1_554 S
C691 C696 1.490 . S
C692 H682 0.930 . S
C692 C691 1.400 1_556 S
C692 C695 1.386 . S
H693 C709 0.930 1_556 S
H694 C710 0.931 1_556 S
C695 H683 0.929 . S
C695 C689 1.390 1_556 S
C695 C692 1.386 . S
C696 C691 1.490 . S
C696 C698 1.395 . S
C696 C699 1.403 1_554 S
H697 C703 0.930 . S
C698 H684 0.930 . S
C698 C696 1.395 . S
C698 C701 1.403 1_565 S
C699 C696 1.403 1_556 S
C699 C700 1.524 . S
C699 C703 1.400 1_565 S
C700 H685 0.951 1_565 S
C700 H686 0.960 . S
C700 H687 0.960 . S
C700 C699 1.524 . S
C701 C698 1.403 1_545 S
C701 C702 1.392 . S
C701 C705 1.495 . S
C702 C701 1.392 . S
C702 C703 1.385 1_554 S
C702 C704 1.478 . S
C703 H697 0.930 . S
C703 C699 1.400 1_545 S
C703 C702 1.385 1_556 S
C704 C702 1.478 . S
C704 C706 1.381 . S
C704 C710 1.383 . S
C705 C701 1.495 . S
C705 H711 0.980 . S
C705 H712 0.961 . S
C705 H713 0.960 . S
C706 C704 1.381 . S
C706 C707 1.394 . S
C706 H714 0.930 . S
C707 C706 1.394 . S
C707 C708 1.383 . S
C707 H715 0.929 . S
C708 C707 1.383 . S
C708 C709 1.377 . S
C709 H693 0.930 1_554 S
C709 C708 1.377 . S
C709 C710 1.379 . S
C710 H694 0.931 1_554 S
C710 C704 1.383 . S
C710 C709 1.379 . S
H711 C705 0.980 . S
H712 C705 0.961 . S
H713 C705 0.960 . S
H714 C706 0.930 . S
H715 C707 0.929 . S
H716 C724 0.929 . S
H717 C726 0.930 . S
H718 C728 0.930 . S
H719 C731 0.929 . S
H720 C734 0.930 . S
H721 C736 0.960 . S
H722 C736 0.960 . S
H723 C736 0.960 . S
C724 H716 0.929 . S
C724 C725 1.377 . S
C724 C726 1.384 . S
C725 C724 1.377 . S
C725 C731 1.390 . S
C726 H717 0.930 . S
C726 C724 1.384 . S
C726 C727 1.372 . S
C727 C726 1.372 . S
C727 C728 1.400 . S
C727 C732 1.490 . S
C728 H718 0.930 . S
C728 C727 1.400 . S
C728 C731 1.386 . S
H729 C745 0.930 . S
H730 C746 0.931 . S
C731 H719 0.929 . S
C731 C725 1.390 . S
C731 C728 1.386 . S
C732 C727 1.490 . S
C732 C734 1.395 . S
C732 C735 1.403 . S
H733 C739 0.930 . S
C734 H720 0.930 . S
C734 C732 1.395 . S
C734 C737 1.403 1_545 S
C735 C732 1.403 . S
C735 C736 1.524 . S
C735 C739 1.400 1_545 S
C736 H721 0.960 . S
C736 H722 0.960 . S
C736 H723 0.960 . S
C736 C735 1.524 . S
C737 C734 1.403 1_565 S
C737 C738 1.392 . S
C737 C741 1.495 . S
C738 C737 1.392 . S
C738 C739 1.385 . S
C738 C740 1.478 . S
C739 H733 0.930 . S
C739 C735 1.400 1_565 S
C739 C738 1.385 . S
C740 C738 1.478 . S
C740 C742 1.381 . S
C740 C746 1.383 . S
C741 C737 1.495 . S
C741 H747 0.959 . S
C741 H748 0.961 . S
C741 H749 0.960 . S
C742 C740 1.381 . S
C742 C743 1.394 . S
C742 H750 0.930 . S
C743 C742 1.394 . S
C743 C744 1.383 . S
C743 H751 0.929 . S
C744 C743 1.383 . S
C744 C745 1.377 . S
C745 H729 0.930 . S
C745 C744 1.377 . S
C745 C746 1.379 . S
C746 H730 0.931 . S
C746 C740 1.383 . S
C746 C745 1.379 . S
H747 C741 0.959 . S
H748 C741 0.961 . S
H749 C741 0.960 . S
H750 C742 0.930 . S
H751 C743 0.929 . S
H752 C760 0.929 . S
H753 C762 0.930 . S
H754 C764 0.930 . S
H755 C767 0.929 . S
H756 C770 0.930 . S
H757 C772 0.960 . S
H758 C772 0.960 . S
H759 C772 0.960 . S
C760 H752 0.929 . S
C760 C761 1.377 1_556 S
C760 C762 1.384 . S
C761 C760 1.377 1_554 S
C761 C767 1.390 . S
C762 H753 0.930 . S
C762 C760 1.384 . S
C762 C763 1.372 1_556 S
C763 C762 1.372 1_554 S
C763 C764 1.400 . S
C763 C768 1.490 . S
C764 H754 0.930 . S
C764 C763 1.400 . S
C764 C767 1.386 . S
H765 C781 0.930 . S
H766 C782 0.931 . S
C767 H755 0.929 . S
C767 C761 1.390 . S
C767 C764 1.386 . S
C768 C763 1.490 . S
C768 C770 1.395 . S
C768 C771 1.403 . S
H769 C775 0.930 . S
C770 H756 0.930 . S
C770 C768 1.395 . S
C770 C773 1.403 . S
C771 C768 1.403 . S
C771 C772 1.524 . S
C771 C775 1.400 . S
C772 H757 0.960 . S
C772 H758 0.960 . S
C772 H759 0.960 . S
C772 C771 1.524 . S
C773 C770 1.403 . S
C773 C774 1.392 . S
C773 C777 1.495 . S
C774 C773 1.392 . S
C774 C775 1.385 . S
C774 C776 1.478 . S
C775 H769 0.930 . S
C775 C771 1.400 . S
C775 C774 1.385 . S
C776 C774 1.478 . S
C776 C778 1.381 1_554 S
C776 C782 1.383 . S
C777 C773 1.495 . S
C777 H783 0.959 . S
C777 H784 0.961 . S
C777 H785 0.960 1_554 S
C778 C776 1.381 1_556 S
C778 C779 1.394 . S
C778 H786 0.930 . S
C779 C778 1.394 . S
C779 C780 1.383 1_556 S
C779 H787 0.929 . S
C780 C779 1.383 1_554 S
C780 C781 1.377 . S
C781 H765 0.930 . S
C781 C780 1.377 . S
C781 C782 1.379 . S
C782 H766 0.931 . S
C782 C776 1.383 . S
C782 C781 1.379 . S
H783 C777 0.959 . S
H784 C777 0.961 . S
H785 C777 0.960 1_556 S
H786 C778 0.930 . S
H787 C779 0.929 . S
H788 C796 0.915 1_556 S
H789 C798 0.930 . S
H790 C800 0.930 . S
H791 C803 0.929 . S
H792 C806 0.930 . S
H793 C808 0.960 . S
H794 C808 0.960 . S
H795 C808 0.960 . S
C796 H788 0.915 1_554 S
C796 C797 1.393 . S
C796 C798 1.383 1_554 S
C797 C796 1.393 . S
C797 C803 1.390 . S
C798 H789 0.930 . S
C798 C796 1.383 1_556 S
C798 C799 1.372 1_556 S
C799 C798 1.372 1_554 S
C799 C800 1.400 . S
C799 C804 1.490 . S
C800 H790 0.930 . S
C800 C799 1.400 . S
C800 C803 1.386 . S
H801 C817 0.930 . S
H802 C818 0.931 . S
C803 H791 0.929 . S
C803 C797 1.390 . S
C803 C800 1.386 . S
C804 C799 1.490 . S
C804 C806 1.395 1_554 S
C804 C807 1.403 . S
H805 C811 0.930 . S
C806 H792 0.930 . S
C806 C804 1.395 1_556 S
C806 C809 1.403 . S
C807 C804 1.403 . S
C807 C808 1.524 . S
C807 C811 1.400 . S
C808 H793 0.960 . S
C808 H794 0.960 . S
C808 H795 0.960 . S
C808 C807 1.524 . S
C809 C806 1.403 . S
C809 C810 1.392 1_556 S
C809 C813 1.495 . S
C810 C809 1.392 1_554 S
C810 C811 1.385 . S
C810 C812 1.478 . S
C811 H805 0.930 . S
C811 C807 1.400 . S
C811 C810 1.385 . S
C812 C810 1.478 . S
C812 C814 1.381 1_554 S
C812 C818 1.383 . S
C813 C809 1.495 . S
C813 H819 0.959 . S
C813 H820 0.961 . S
C813 H821 0.960 . S
C814 C812 1.381 1_556 S
C814 C815 1.394 . S
C814 H822 0.930 . S
C815 C814 1.394 . S
C815 C816 1.383 1_556 S
C815 H823 0.929 . S
C816 C815 1.383 1_554 S
C816 C817 1.377 . S
C817 H801 0.930 . S
C817 C816 1.377 . S
C817 C818 1.379 . S
C818 H802 0.931 . S
C818 C812 1.383 . S
C818 C817 1.379 . S
H819 C813 0.959 . S
H820 C813 0.961 . S
H821 C813 0.960 . S
H822 C814 0.930 . S
H823 C815 0.929 . S
H824 C832 0.929 . S
H825 C834 0.930 . S
H826 C836 0.930 . S
H827 C839 0.929 . S
H828 C842 0.930 . S
H829 C844 0.960 . S
H830 C844 0.960 . S
H831 C844 0.960 . S
C832 H824 0.929 . S
C832 C833 1.377 . S
C832 C834 1.384 . S
C833 C832 1.377 . S
C833 C839 1.390 . S
C834 H825 0.930 . S
C834 C832 1.384 . S
C834 C835 1.372 . S
C835 C834 1.372 . S
C835 C836 1.400 . S
C835 C840 1.490 . S
C836 H826 0.930 . S
C836 C835 1.400 . S
C836 C839 1.386 . S
H837 C853 0.930 . S
H838 C854 0.931 . S
C839 H827 0.929 . S
C839 C833 1.390 . S
C839 C836 1.386 . S
C840 C835 1.490 . S
C840 C842 1.395 . S
C840 C843 1.403 . S
H841 C847 0.930 . S
C842 H828 0.930 . S
C842 C840 1.395 . S
C842 C845 1.403 . S
C843 C840 1.403 . S
C843 C844 1.524 . S
C843 C847 1.400 . S
C844 H829 0.960 . S
C844 H830 0.960 . S
C844 H831 0.960 . S
C844 C843 1.524 . S
C845 C842 1.403 . S
C845 C846 1.392 . S
C845 C849 1.495 . S
C846 C845 1.392 . S
C846 C847 1.385 . S
C846 C848 1.478 . S
C847 H841 0.930 . S
C847 C843 1.400 . S
C847 C846 1.385 . S
C848 C846 1.478 . S
C848 C850 1.381 . S
C848 C854 1.383 . S
C849 C845 1.495 . S
C849 H855 0.959 . S
C849 H856 0.961 . S
C849 H857 0.960 . S
C850 C848 1.381 . S
C850 C851 1.394 . S
C850 H858 0.930 . S
C851 C850 1.394 . S
C851 C852 1.383 . S
C851 H859 0.929 . S
C852 C851 1.383 . S
C852 C853 1.377 . S
C853 H837 0.930 . S
C853 C852 1.377 . S
C853 C854 1.379 . S
C854 H838 0.931 . S
C854 C848 1.383 . S
C854 C853 1.379 . S
H855 C849 0.959 . S
H856 C849 0.961 . S
H857 C849 0.960 . S
H858 C850 0.930 . S
H859 C851 0.929 . S
H860 C868 0.929 . S
H861 C870 0.930 . S
H862 C872 0.930 . S
H863 C875 0.929 . S
H864 C878 0.930 . S
H865 C880 0.960 . S
H866 C880 0.960 . S
H867 C880 0.960 . S
C868 H860 0.929 . S
C868 C869 1.377 . S
C868 C870 1.384 . S
C869 C868 1.377 . S
C869 C875 1.390 . S
C870 H861 0.930 . S
C870 C868 1.384 . S
C870 C871 1.372 . S
C871 C870 1.372 . S
C871 C872 1.400 . S
C871 C876 1.490 . S
C872 H862 0.930 . S
C872 C871 1.400 . S
C872 C875 1.386 . S
H873 C889 0.930 . S
H874 C890 0.931 . S
C875 H863 0.929 . S
C875 C869 1.390 . S
C875 C872 1.386 . S
C876 C871 1.490 . S
C876 C878 1.395 . S
C876 C879 1.403 . S
H877 C883 0.930 . S
C878 H864 0.930 . S
C878 C876 1.395 . S
C878 C881 1.403 . S
C879 C876 1.403 . S
C879 C880 1.524 . S
C879 C883 1.400 . S
C880 H865 0.960 . S
C880 H866 0.960 . S
C880 H867 0.960 . S
C880 C879 1.524 . S
C881 C878 1.403 . S
C881 C882 1.392 . S
C881 C885 1.495 . S
C882 C881 1.392 . S
C882 C883 1.385 . S
C882 C884 1.478 . S
C883 H877 0.930 . S
C883 C879 1.400 . S
C883 C882 1.385 . S
C884 C882 1.478 . S
C884 C886 1.381 . S
C884 C890 1.383 . S
C885 C881 1.495 . S
C885 H891 0.959 . S
C885 H892 0.961 . S
C885 H893 0.960 . S
C886 C884 1.381 . S
C886 C887 1.394 . S
C886 H894 0.930 . S
C887 C886 1.394 . S
C887 C888 1.383 . S
C887 H895 0.929 . S
C888 C887 1.383 . S
C888 C889 1.377 . S
C889 H873 0.930 . S
C889 C888 1.377 . S
C889 C890 1.379 . S
C890 H874 0.931 . S
C890 C884 1.383 . S
C890 C889 1.379 . S
H891 C885 0.959 . S
H892 C885 0.961 . S
H893 C885 0.960 . S
H894 C886 0.930 . S
H895 C887 0.929 . S
H896 C904 0.929 1_655 S
H897 C906 0.930 . S
H898 C908 0.930 . S
H899 C911 0.929 . S
H900 C914 0.930 . S
H901 C916 0.960 . S
H902 C916 0.960 . S
H903 C916 0.960 . S
C904 H896 0.929 1_455 S
C904 C905 1.377 . S
C904 C906 1.384 1_455 S
C905 C904 1.377 . S
C905 C911 1.390 . S
C906 H897 0.930 . S
C906 C904 1.384 1_655 S
C906 C907 1.372 1_655 S
C907 C906 1.372 1_455 S
C907 C908 1.400 . S
C907 C912 1.490 . S
C908 H898 0.930 . S
C908 C907 1.400 . S
C908 C911 1.386 . S
H909 C925 0.930 1_455 S
H910 C926 0.931 . S
C911 H899 0.929 . S
C911 C905 1.390 . S
C911 C908 1.386 . S
C912 C907 1.490 . S
C912 C914 1.395 . S
C912 C915 1.403 1_455 S
H913 C919 0.930 . S
C914 H900 0.930 . S
C914 C912 1.395 . S
C914 C917 1.403 . S
C915 C912 1.403 1_655 S
C915 C916 1.524 . S
C915 C919 1.400 . S
C916 H901 0.960 . S
C916 H902 0.960 . S
C916 H903 0.960 . S
C916 C915 1.524 . S
C917 C914 1.403 . S
C917 C918 1.392 1_455 S
C917 C921 1.495 . S
C918 C917 1.392 1_655 S
C918 C919 1.385 . S
C918 C920 1.478 . S
C919 H913 0.930 . S
C919 C915 1.400 . S
C919 C918 1.385 . S
C920 C918 1.478 . S
C920 C922 1.381 . S
C920 C926 1.383 1_655 S
C921 C917 1.495 . S
C921 H927 0.959 . S
C921 H928 0.961 . S
C921 H929 0.960 . S
C922 C920 1.381 . S
C922 C923 1.394 . S
C922 H930 0.930 . S
C923 C922 1.394 . S
C923 C924 1.383 . S
C923 H931 0.929 . S
C924 C923 1.383 . S
C924 C925 1.377 . S
C925 H909 0.930 1_655 S
C925 C924 1.377 . S
C925 C926 1.379 1_655 S
C926 H910 0.931 . S
C926 C920 1.383 1_455 S
C926 C925 1.379 1_455 S
H927 C921 0.959 . S
H928 C921 0.961 . S
H929 C921 0.960 . S
H930 C922 0.930 . S
H931 C923 0.929 . S
H932 C940 0.929 . S
H933 C942 0.930 . S
H934 C944 0.930 . S
H935 C947 0.929 . S
H936 C950 0.930 . S
H937 C952 0.960 . S
H938 C952 0.960 . S
H939 C952 0.960 . S
C940 H932 0.929 . S
C940 C941 1.377 . S
C940 C942 1.384 . S
C941 C940 1.377 . S
C941 C947 1.390 . S
C942 H933 0.930 . S
C942 C940 1.384 . S
C942 C943 1.372 . S
C943 C942 1.372 . S
C943 C944 1.400 . S
C943 C948 1.490 . S
C944 H934 0.930 . S
C944 C943 1.400 . S
C944 C947 1.386 . S
H945 C961 0.930 . S
H946 C962 0.931 . S
C947 H935 0.929 . S
C947 C941 1.390 . S
C947 C944 1.386 . S
C948 C943 1.490 . S
C948 C950 1.395 1_655 S
C948 C951 1.403 . S
H949 C955 0.930 . S
C950 H936 0.930 . S
C950 C948 1.395 1_455 S
C950 C953 1.403 . S
C951 C948 1.403 . S
C951 C952 1.524 . S
C951 C955 1.400 . S
C952 H937 0.960 . S
C952 H938 0.960 . S
C952 H939 0.960 . S
C952 C951 1.524 . S
C953 C950 1.403 . S
C953 C954 1.392 . S
C953 C957 1.495 . S
C954 C953 1.392 . S
C954 C955 1.385 1_455 S
C954 C956 1.478 . S
C955 H949 0.930 . S
C955 C951 1.400 . S
C955 C954 1.385 1_655 S
C956 C954 1.478 . S
C956 C958 1.381 . S
C956 C962 1.383 . S
C957 C953 1.495 . S
C957 H963 0.959 . S
C957 H964 0.961 . S
C957 H965 0.960 . S
C958 C956 1.381 . S
C958 C959 1.394 . S
C958 H966 0.930 . S
C959 C958 1.394 . S
C959 C960 1.383 . S
C959 H967 0.929 . S
C960 C959 1.383 . S
C960 C961 1.377 . S
C961 H945 0.930 . S
C961 C960 1.377 . S
C961 C962 1.379 . S
C962 H946 0.931 . S
C962 C956 1.383 . S
C962 C961 1.379 . S
H963 C957 0.959 . S
H964 C957 0.961 . S
H965 C957 0.960 . S
H966 C958 0.930 . S
H967 C959 0.929 . S
H968 C976 0.929 . S
H969 C978 0.930 . S
H970 C980 0.930 . S
H971 C983 0.929 1_455 S
H972 C986 0.930 . S
H973 C988 0.960 . S
H974 C988 0.960 . S
H975 C988 0.960 . S
C976 H968 0.929 . S
C976 C977 1.377 . S
C976 C978 1.384 . S
C977 C976 1.377 . S
C977 C983 1.390 . S
C978 H969 0.930 . S
C978 C976 1.384 . S
C978 C979 1.372 . S
C979 C978 1.372 . S
C979 C980 1.400 1_655 S
C979 C984 1.490 . S
C980 H970 0.930 . S
C980 C979 1.400 1_455 S
C980 C983 1.386 1_455 S
H981 C997 0.930 . S
H982 C998 0.931 . S
C983 H971 0.929 1_655 S
C983 C977 1.390 . S
C983 C980 1.386 1_655 S
C984 C979 1.490 . S
C984 C986 1.395 . S
C984 C987 1.403 . S
H985 C991 0.930 1_455 S
C986 H972 0.930 . S
C986 C984 1.395 . S
C986 C989 1.403 1_655 S
C987 C984 1.403 . S
C987 C988 1.524 . S
C987 C991 1.400 . S
C988 H973 0.960 . S
C988 H974 0.960 . S
C988 H975 0.960 . S
C988 C987 1.524 . S
C989 C986 1.403 1_455 S
C989 C990 1.392 . S
C989 C993 1.495 . S
C990 C989 1.392 . S
C990 C991 1.385 1_455 S
C990 C992 1.478 . S
C991 H985 0.930 1_655 S
C991 C987 1.400 . S
C991 C990 1.385 1_655 S
C992 C990 1.478 . S
C992 C994 1.381 1_455 S
C992 C998 1.383 . S
C993 C989 1.495 . S
C993 H999 0.959 . S
C993 H1000 0.961 . S
C993 H1001 0.960 1_455 S
C994 C992 1.381 1_655 S
C994 C995 1.396 . S
C994 H1002 0.930 . S
C995 C994 1.396 . S
C995 C996 1.373 1_655 S
C995 H1003 0.938 . S
C996 C995 1.373 1_455 S
C996 C997 1.377 . S
C997 H981 0.930 . S
C997 C996 1.377 . S
C997 C998 1.379 . S
C998 H982 0.931 . S
C998 C992 1.383 . S
C998 C997 1.379 . S
H999 C993 0.959 . S
H1000 C993 0.961 . S
H1001 C993 0.960 1_655 S
H1002 C994 0.930 . S
H1003 C995 0.938 . S
H1004 C1012 0.929 . S
H1005 C1014 0.930 . S
H1006 C1016 0.930 . S
H1007 C1019 0.929 . S
H1008 C1022 0.930 . S
H1009 C1024 0.960 . S
H1010 C1024 0.960 . S
H1011 C1024 0.960 . S
C1012 H1004 0.929 . S
C1012 C1013 1.377 . S
C1012 C1014 1.384 . S
C1013 C1012 1.377 . S
C1013 C1019 1.390 . S
C1014 H1005 0.930 . S
C1014 C1012 1.384 . S
C1014 C1015 1.372 . S
C1015 C1014 1.372 . S
C1015 C1016 1.400 . S
C1015 C1020 1.490 . S
C1016 H1006 0.930 . S
C1016 C1015 1.400 . S
C1016 C1019 1.386 . S
H1017 C1033 0.930 . S
H1018 C1034 0.931 . S
C1019 H1007 0.929 . S
C1019 C1013 1.390 . S
C1019 C1016 1.386 . S
C1020 C1015 1.490 . S
C1020 C1022 1.395 . S
C1020 C1023 1.403 1_655 S
H1021 C1027 0.930 . S
C1022 H1008 0.930 . S
C1022 C1020 1.395 . S
C1022 C1025 1.403 . S
C1023 C1020 1.403 1_455 S
C1023 C1024 1.524 . S
C1023 C1027 1.400 . S
C1024 H1009 0.960 . S
C1024 H1010 0.960 . S
C1024 H1011 0.960 . S
C1024 C1023 1.524 . S
C1025 C1022 1.403 . S
C1025 C1026 1.392 1_655 S
C1025 C1029 1.495 . S
C1026 C1025 1.392 1_455 S
C1026 C1027 1.385 . S
C1026 C1028 1.478 . S
C1027 H1021 0.930 . S
C1027 C1023 1.400 . S
C1027 C1026 1.385 . S
C1028 C1026 1.478 . S
C1028 C1030 1.381 . S
C1028 C1034 1.383 . S
C1029 C1025 1.495 . S
C1029 H1035 0.959 . S
C1029 H1036 0.961 . S
C1029 H1037 0.960 . S
C1030 C1028 1.381 . S
C1030 C1031 1.394 . S
C1030 H1038 0.930 . S
C1031 C1030 1.394 . S
C1031 C1032 1.383 . S
C1031 H1039 0.929 . S
C1032 C1031 1.383 . S
C1032 C1033 1.377 . S
C1033 H1017 0.930 . S
C1033 C1032 1.377 . S
C1033 C1034 1.379 . S
C1034 H1018 0.931 . S
C1034 C1028 1.383 . S
C1034 C1033 1.379 . S
H1035 C1029 0.959 . S
H1036 C1029 0.961 . S
H1037 C1029 0.960 . S
H1038 C1030 0.930 . S
H1039 C1031 0.929 . S
H1040 C1048 0.929 . S
H1041 C1050 0.930 . S
H1042 C1052 0.930 . S
H1043 C1055 0.929 . S
H1044 C1058 0.930 . S
H1045 C1060 0.960 . S
H1046 C1060 0.960 . S
H1047 C1060 0.960 . S
C1048 H1040 0.929 . S
C1048 C1049 1.377 . S
C1048 C1050 1.384 . S
C1049 C1048 1.377 . S
C1049 C1055 1.390 . S
C1050 H1041 0.930 . S
C1050 C1048 1.384 . S
C1050 C1051 1.372 . S
C1051 C1050 1.372 . S
C1051 C1052 1.400 . S
C1051 C1056 1.490 . S
C1052 H1042 0.930 . S
C1052 C1051 1.400 . S
C1052 C1055 1.386 . S
H1053 C1069 0.930 . S
H1054 C1070 0.931 . S
C1055 H1043 0.929 . S
C1055 C1049 1.390 . S
C1055 C1052 1.386 . S
C1056 C1051 1.490 . S
C1056 C1058 1.395 . S
C1056 C1059 1.403 . S
H1057 C1063 0.930 . S
C1058 H1044 0.930 . S
C1058 C1056 1.395 . S
C1058 C1061 1.403 . S
C1059 C1056 1.403 . S
C1059 C1060 1.524 . S
C1059 C1063 1.400 . S
C1060 H1045 0.960 . S
C1060 H1046 0.960 . S
C1060 H1047 0.960 . S
C1060 C1059 1.524 . S
C1061 C1058 1.403 . S
C1061 C1062 1.392 . S
C1061 C1065 1.495 . S
C1062 C1061 1.392 . S
C1062 C1063 1.385 . S
C1062 C1064 1.478 . S
C1063 H1057 0.930 . S
C1063 C1059 1.400 . S
C1063 C1062 1.385 . S
C1064 C1062 1.478 . S
C1064 C1066 1.381 . S
C1064 C1070 1.383 . S
C1065 C1061 1.495 . S
C1065 H1071 0.959 . S
C1065 H1072 0.961 . S
C1065 H1073 0.960 . S
C1066 C1064 1.381 . S
C1066 C1067 1.394 . S
C1066 H1074 0.930 . S
C1067 C1066 1.394 . S
C1067 C1068 1.383 . S
C1067 H1075 0.929 . S
C1068 C1067 1.383 . S
C1068 C1069 1.377 . S
C1069 H1053 0.930 . S
C1069 C1068 1.377 . S
C1069 C1070 1.379 . S
C1070 H1054 0.931 . S
C1070 C1064 1.383 . S
C1070 C1069 1.379 . S
H1071 C1065 0.959 . S
H1072 C1065 0.961 . S
H1073 C1065 0.960 . S
H1074 C1066 0.930 . S
H1075 C1067 0.929 . S
H1076 C1084 0.929 . S
H1077 C1086 0.930 . S
H1078 C1088 0.930 . S
H1079 C1091 0.929 . S
H1080 C1094 0.930 . S
H1081 C1096 0.960 . S
H1082 C1096 0.960 . S
H1083 C1096 0.960 . S
C1084 H1076 0.929 . S
C1084 C1085 1.377 . S
C1084 C1086 1.384 . S
C1085 C1084 1.377 . S
C1085 C1091 1.390 . S
C1086 H1077 0.930 . S
C1086 C1084 1.384 . S
C1086 C1087 1.372 . S
C1087 C1086 1.372 . S
C1087 C1088 1.400 . S
C1087 C1092 1.490 . S
C1088 H1078 0.930 . S
C1088 C1087 1.400 . S
C1088 C1091 1.386 . S
H1089 C1105 0.930 . S
H1090 C1106 0.931 . S
C1091 H1079 0.929 . S
C1091 C1085 1.390 . S
C1091 C1088 1.386 . S
C1092 C1087 1.490 . S
C1092 C1094 1.395 . S
C1092 C1095 1.403 . S
H1093 C1099 0.930 . S
C1094 H1080 0.930 . S
C1094 C1092 1.395 . S
C1094 C1097 1.403 . S
C1095 C1092 1.403 . S
C1095 C1096 1.524 . S
C1095 C1099 1.400 . S
C1096 H1081 0.960 . S
C1096 H1082 0.960 . S
C1096 H1083 0.960 . S
C1096 C1095 1.524 . S
C1097 C1094 1.403 . S
C1097 C1098 1.392 . S
C1097 C1101 1.495 . S
C1098 C1097 1.392 . S
C1098 C1099 1.385 . S
C1098 C1100 1.478 . S
C1099 H1093 0.930 . S
C1099 C1095 1.400 . S
C1099 C1098 1.385 . S
C1100 C1098 1.478 . S
C1100 C1102 1.381 . S
C1100 C1106 1.383 . S
C1101 C1097 1.495 . S
C1101 H1107 0.959 . S
C1101 H1108 0.961 . S
C1101 H1109 0.960 . S
C1102 C1100 1.381 . S
C1102 C1103 1.394 . S
C1102 H1110 0.930 . S
C1103 C1102 1.394 . S
C1103 C1104 1.383 . S
C1103 H1111 0.929 . S
C1104 C1103 1.383 . S
C1104 C1105 1.377 . S
C1105 H1089 0.930 . S
C1105 C1104 1.377 . S
C1105 C1106 1.379 . S
C1106 H1090 0.931 . S
C1106 C1100 1.383 . S
C1106 C1105 1.379 . S
H1107 C1101 0.959 . S
H1108 C1101 0.961 . S
H1109 C1101 0.960 . S
H1110 C1102 0.930 . S
H1111 C1103 0.929 . S
H1112 C1120 0.929 . S
H1113 C1122 0.930 . S
H1114 C1124 0.930 . S
H1115 C1127 0.929 . S
H1116 C1130 0.930 . S
H1117 C1132 0.960 . S
H1118 C1132 0.960 . S
H1119 C1132 0.960 . S
C1120 H1112 0.929 . S
C1120 C1121 1.377 . S
C1120 C1122 1.384 . S
C1121 C1120 1.377 . S
C1121 C1127 1.390 . S
C1122 H1113 0.930 . S
C1122 C1120 1.384 . S
C1122 C1123 1.372 . S
C1123 C1122 1.372 . S
C1123 C1124 1.400 . S
C1123 C1128 1.490 . S
C1124 H1114 0.930 . S
C1124 C1123 1.400 . S
C1124 C1127 1.386 . S
H1125 C1141 0.930 . S
H1126 C1142 0.931 . S
C1127 H1115 0.929 . S
C1127 C1121 1.390 . S
C1127 C1124 1.386 . S
C1128 C1123 1.490 . S
C1128 C1130 1.395 . S
C1128 C1131 1.403 . S
H1129 C1135 0.930 . S
C1130 H1116 0.930 . S
C1130 C1128 1.395 . S
C1130 C1133 1.403 . S
C1131 C1128 1.403 . S
C1131 C1132 1.524 . S
C1131 C1135 1.400 . S
C1132 H1117 0.960 . S
C1132 H1118 0.960 . S
C1132 H1119 0.960 . S
C1132 C1131 1.524 . S
C1133 C1130 1.403 . S
C1133 C1134 1.392 . S
C1133 C1137 1.495 . S
C1134 C1133 1.392 . S
C1134 C1135 1.385 . S
C1134 C1136 1.478 . S
C1135 H1129 0.930 . S
C1135 C1131 1.400 . S
C1135 C1134 1.385 . S
C1136 C1134 1.478 . S
C1136 C1138 1.381 . S
C1136 C1142 1.383 . S
C1137 C1133 1.495 . S
C1137 H1143 0.959 . S
C1137 H1144 0.961 . S
C1137 H1145 0.960 . S
C1138 C1136 1.381 . S
C1138 C1139 1.394 . S
C1138 H1146 0.930 . S
C1139 C1138 1.394 . S
C1139 C1140 1.383 . S
C1139 H1147 0.929 . S
C1140 C1139 1.383 . S
C1140 C1141 1.377 . S
C1141 H1125 0.930 . S
C1141 C1140 1.377 . S
C1141 C1142 1.379 . S
C1142 H1126 0.931 . S
C1142 C1136 1.383 . S
C1142 C1141 1.379 . S
H1143 C1137 0.959 . S
H1144 C1137 0.961 . S
H1145 C1137 0.960 . S
H1146 C1138 0.930 . S
H1147 C1139 0.929 . S
H1148 C1156 0.929 . S
H1149 C1158 0.930 . S
H1150 C1160 0.930 . S
H1151 C1163 0.929 . S
H1152 C1166 0.930 . S
H1153 C1168 0.960 . S
H1154 C1168 0.960 . S
H1155 C1168 0.960 . S
C1156 H1148 0.929 . S
C1156 C1157 1.377 . S
C1156 C1158 1.384 . S
C1157 C1156 1.377 . S
C1157 C1163 1.390 . S
C1158 H1149 0.930 . S
C1158 C1156 1.384 . S
C1158 C1159 1.372 . S
C1159 C1158 1.372 . S
C1159 C1160 1.400 . S
C1159 C1164 1.490 . S
C1160 H1150 0.930 . S
C1160 C1159 1.400 . S
C1160 C1163 1.386 . S
H1161 C1177 0.930 . S
H1162 C1178 0.931 . S
C1163 H1151 0.929 . S
C1163 C1157 1.390 . S
C1163 C1160 1.386 . S
C1164 C1159 1.490 . S
C1164 C1166 1.395 . S
C1164 C1167 1.403 . S
H1165 C1171 0.930 . S
C1166 H1152 0.930 . S
C1166 C1164 1.395 . S
C1166 C1169 1.403 . S
C1167 C1164 1.403 . S
C1167 C1168 1.524 . S
C1167 C1171 1.400 . S
C1168 H1153 0.960 . S
C1168 H1154 0.960 . S
C1168 H1155 0.960 . S
C1168 C1167 1.524 . S
C1169 C1166 1.403 . S
C1169 C1170 1.392 . S
C1169 C1173 1.495 . S
C1170 C1169 1.392 . S
C1170 C1171 1.385 . S
C1170 C1172 1.478 . S
C1171 H1165 0.930 . S
C1171 C1167 1.400 . S
C1171 C1170 1.385 . S
C1172 C1170 1.478 . S
C1172 C1174 1.381 . S
C1172 C1178 1.383 . S
C1173 C1169 1.495 . S
C1173 H1179 0.959 . S
C1173 H1180 0.961 . S
C1173 H1181 0.960 . S
C1174 C1172 1.381 . S
C1174 C1175 1.394 . S
C1174 H1182 0.930 . S
C1175 C1174 1.394 . S
C1175 C1176 1.383 . S
C1175 H1183 0.929 . S
C1176 C1175 1.383 . S
C1176 C1177 1.377 . S
C1177 H1161 0.930 . S
C1177 C1176 1.377 . S
C1177 C1178 1.379 . S
C1178 H1162 0.931 . S
C1178 C1172 1.383 . S
C1178 C1177 1.379 . S
H1179 C1173 0.959 . S
H1180 C1173 0.961 . S
H1181 C1173 0.960 . S
H1182 C1174 0.930 . S
H1183 C1175 0.929 . S
C329 C19 2.372 . S
C348 C10 2.372 . S
C365 C59 2.368 . S
C384 C50 2.373 . S
C401 C99 2.368 . S
C420 C90 2.374 . S
C437 C139 2.367 . S
C456 C130 2.372 . S
C473 C179 2.366 . S
C492 C170 2.361 . S
C509 C210 2.371 . S
C528 C219 2.377 . S
C545 C259 2.366 . S
C564 C250 2.367 . S
C581 C290 2.367 . S
C600 C299 2.350 . S
C617 C55 2.468 . S
C636 C6 2.471 . S
C653 C126 2.472 . S
C672 C95 2.453 . S
C689 C166 2.476 . S
C708 C215 2.479 . S
C725 C255 2.476 . S
C744 C286 2.466 . S
C761 C15 1.748 . S
C780 C206 1.729 . S
C797 C175 1.747 . S
C816 C46 1.743 . S
C833 C86 1.753 . S
C852 C295 1.763 . S
C869 C135 1.749 . S
C888 C246 1.757 . S
C905 C9 1.469 . S
C924 C129 1.488 . S
C941 C49 1.613 . S
C960 C89 1.628 . S
C977 C58 1.469 . S
C996 C98 1.493 . S
C1013 C138 1.610 . S
C1032 C18 1.599 . S
C1049 C169 1.464 . S
C1068 C289 1.489 . S
C1085 C209 1.613 . S
C1104 C249 1.607 . S
C1121 C218 1.469 . S
C1140 C258 1.492 . S
C1157 C298 1.609 . S
C1176 C178 1.598 . S
