# Generated by pormake.
# Topology whw, (6)-cn, num edge types: 1
# Building blocks:
#     Node 0, Type 0, BuildingBlock: VOLQOD_clean_sbu_1, # of connection points: 6
#     Node 1, Type 0, BuildingBlock: VOLQOD_clean_sbu_1, # of connection points: 6
#     Node 2, Type 0, BuildingBlock: VOLQOD_clean_sbu_1, # of connection points: 6
#     Node 3, Type 0, BuildingBlock: VOLQOD_clean_sbu_1, # of connection points: 6
#     Node 4, Type 0, BuildingBlock: VOLQOD_clean_sbu_1, # of connection points: 6
#     Node 5, Type 0, BuildingBlock: VOLQOD_clean_sbu_1, # of connection points: 6
#     Node 6, Type 0, BuildingBlock: VOLQOD_clean_sbu_1, # of connection points: 6
#     Node 7, Type 0, BuildingBlock: VOLQOD_clean_sbu_1, # of connection points: 6
#     Node 8, Type 0, BuildingBlock: VOLQOD_clean_sbu_1, # of connection points: 6
#     Node 9, Type 0, BuildingBlock: VOLQOD_clean_sbu_1, # of connection points: 6
#     Node 10, Type 0, BuildingBlock: VOLQOD_clean_sbu_1, # of connection points: 6
#     Node 11, Type 0, BuildingBlock: VOLQOD_clean_sbu_1, # of connection points: 6
#     Node 12, Type 0, BuildingBlock: VOLQOD_clean_sbu_1, # of connection points: 6
#     Node 13, Type 0, BuildingBlock: VOLQOD_clean_sbu_1, # of connection points: 6
#     Node 14, Type 0, BuildingBlock: VOLQOD_clean_sbu_1, # of connection points: 6
#     Node 15, Type 0, BuildingBlock: VOLQOD_clean_sbu_1, # of connection points: 6
#     Edge 16, Type (0, 0), BuildingBlock: XIVTED_clean_linker_0, # of connection points: 2
#     Edge 17, Type (0, 0), BuildingBlock: XIVTED_clean_linker_0, # of connection points: 2
#     Edge 18, Type (0, 0), BuildingBlock: XIVTED_clean_linker_0, # of connection points: 2
#     Edge 19, Type (0, 0), BuildingBlock: XIVTED_clean_linker_0, # of connection points: 2
#     Edge 20, Type (0, 0), BuildingBlock: XIVTED_clean_linker_0, # of connection points: 2
#     Edge 21, Type (0, 0), BuildingBlock: XIVTED_clean_linker_0, # of connection points: 2
#     Edge 22, Type (0, 0), BuildingBlock: XIVTED_clean_linker_0, # of connection points: 2
#     Edge 23, Type (0, 0), BuildingBlock: XIVTED_clean_linker_0, # of connection points: 2
#     Edge 24, Type (0, 0), BuildingBlock: XIVTED_clean_linker_0, # of connection points: 2
#     Edge 25, Type (0, 0), BuildingBlock: XIVTED_clean_linker_0, # of connection points: 2
#     Edge 26, Type (0, 0), BuildingBlock: XIVTED_clean_linker_0, # of connection points: 2
#     Edge 27, Type (0, 0), BuildingBlock: XIVTED_clean_linker_0, # of connection points: 2
#     Edge 28, Type (0, 0), BuildingBlock: XIVTED_clean_linker_0, # of connection points: 2
#     Edge 29, Type (0, 0), BuildingBlock: XIVTED_clean_linker_0, # of connection points: 2
#     Edge 30, Type (0, 0), BuildingBlock: XIVTED_clean_linker_0, # of connection points: 2
#     Edge 31, Type (0, 0), BuildingBlock: XIVTED_clean_linker_0, # of connection points: 2
#     Edge 32, Type (0, 0), BuildingBlock: XIVTED_clean_linker_0, # of connection points: 2
#     Edge 33, Type (0, 0), BuildingBlock: XIVTED_clean_linker_0, # of connection points: 2
#     Edge 34, Type (0, 0), BuildingBlock: XIVTED_clean_linker_0, # of connection points: 2
#     Edge 35, Type (0, 0), BuildingBlock: XIVTED_clean_linker_0, # of connection points: 2
#     Edge 36, Type (0, 0), BuildingBlock: XIVTED_clean_linker_0, # of connection points: 2
#     Edge 37, Type (0, 0), BuildingBlock: XIVTED_clean_linker_0, # of connection points: 2
#     Edge 38, Type (0, 0), BuildingBlock: XIVTED_clean_linker_0, # of connection points: 2
#     Edge 39, Type (0, 0), BuildingBlock: XIVTED_clean_linker_0, # of connection points: 2
#     Edge 40, Type (0, 0), BuildingBlock: XIVTED_clean_linker_0, # of connection points: 2
#     Edge 41, Type (0, 0), BuildingBlock: XIVTED_clean_linker_0, # of connection points: 2
#     Edge 42, Type (0, 0), BuildingBlock: XIVTED_clean_linker_0, # of connection points: 2
#     Edge 43, Type (0, 0), BuildingBlock: XIVTED_clean_linker_0, # of connection points: 2
#     Edge 44, Type (0, 0), BuildingBlock: XIVTED_clean_linker_0, # of connection points: 2
#     Edge 45, Type (0, 0), BuildingBlock: XIVTED_clean_linker_0, # of connection points: 2
#     Edge 46, Type (0, 0), BuildingBlock: XIVTED_clean_linker_0, # of connection points: 2
#     Edge 47, Type (0, 0), BuildingBlock: XIVTED_clean_linker_0, # of connection points: 2
#     Edge 48, Type (0, 0), BuildingBlock: XIVTED_clean_linker_0, # of connection points: 2
#     Edge 49, Type (0, 0), BuildingBlock: XIVTED_clean_linker_0, # of connection points: 2
#     Edge 50, Type (0, 0), BuildingBlock: XIVTED_clean_linker_0, # of connection points: 2
#     Edge 51, Type (0, 0), BuildingBlock: XIVTED_clean_linker_0, # of connection points: 2
#     Edge 52, Type (0, 0), BuildingBlock: XIVTED_clean_linker_0, # of connection points: 2
#     Edge 53, Type (0, 0), BuildingBlock: XIVTED_clean_linker_0, # of connection points: 2
#     Edge 54, Type (0, 0), BuildingBlock: XIVTED_clean_linker_0, # of connection points: 2
#     Edge 55, Type (0, 0), BuildingBlock: XIVTED_clean_linker_0, # of connection points: 2
#     Edge 56, Type (0, 0), BuildingBlock: XIVTED_clean_linker_0, # of connection points: 2
#     Edge 57, Type (0, 0), BuildingBlock: XIVTED_clean_linker_0, # of connection points: 2
#     Edge 58, Type (0, 0), BuildingBlock: XIVTED_clean_linker_0, # of connection points: 2
#     Edge 59, Type (0, 0), BuildingBlock: XIVTED_clean_linker_0, # of connection points: 2
#     Edge 60, Type (0, 0), BuildingBlock: XIVTED_clean_linker_0, # of connection points: 2
#     Edge 61, Type (0, 0), BuildingBlock: XIVTED_clean_linker_0, # of connection points: 2
#     Edge 62, Type (0, 0), BuildingBlock: XIVTED_clean_linker_0, # of connection points: 2
#     Edge 63, Type (0, 0), BuildingBlock: XIVTED_clean_linker_0, # of connection points: 2
# Relax obj value: 0.800
# Max RMSD: 0.286
# Mean RMSD: 0.286
data_MOF--net-whw--node1-VOLQOD_clean_sbu_1--edge1-XIVTED_clean_linker_0
_symmetry_space_group_name_H-M    P1
_symmetry_Int_Tables_number       1
_symmetry_cell_setting            triclinic
loop_
_symmetry_equiv_pos_as_xyz
'x, y, z'
_cell_length_a     56.69317
_cell_length_b     56.856652
_cell_length_c     23.950211
_cell_angle_alpha  90.048073
_cell_angle_beta   90.275603
_cell_angle_gamma 90.113529
loop_
_atom_site_label
_atom_site_type_symbol
_atom_site_fract_x
_atom_site_fract_y
_atom_site_fract_z
_atom_type_partial_charge
O0 O 0.94162 0.12969 0.21736 0.0
Zn1 Zn 0.96879 0.13798 0.17021 0.0
O2 O 0.98692 0.11059 0.15833 0.0
Zn3 Zn 0.02031 0.11701 0.16336 0.0
Zn4 Zn 0.98085 0.08751 0.21592 0.0
Zn5 Zn 0.97931 0.09996 0.08584 0.0
O6 O 0.03549 0.11869 0.08764 0.0
O7 O 0.00661 0.10517 0.0335 0.0
O8 O 0.98841 0.1606 0.21382 0.0
O9 O 0.02504 0.14687 0.20675 0.0
O10 O 0.03582 0.09227 0.20995 0.0
O11 O 0.00759 0.09238 0.27258 0.0
O12 O 0.98273 0.05539 0.17642 0.0
O13 O 0.95502 0.15109 0.09859 0.0
O14 O 0.97332 0.066 0.08925 0.0
O15 O 0.95213 0.11725 0.05288 0.0
C16 C 0.93559 0.11259 0.24833 0.0
C17 C 0.02758 0.11285 0.03968 0.0
C18 C 0.02953 0.09233 0.26077 0.0
C19 C 0.01031 0.16167 0.22586 0.0
C20 C 0.9776 0.05028 0.12565 0.0
C21 C 0.9468 0.13886 0.05823 0.0
O22 O 0.94875 0.09444 0.25392 0.0
O23 O 0.12993 0.65803 0.43421 0.0
Zn24 Zn 0.1092 0.67884 0.38903 0.0
O25 O 0.12467 0.70851 0.37662 0.0
Zn26 Zn 0.10232 0.73366 0.38033 0.0
Zn27 Zn 0.14859 0.71272 0.43459 0.0
Zn28 Zn 0.13671 0.70641 0.30264 0.0
O29 O 0.09382 0.7464 0.3041 0.0
O30 O 0.12351 0.73199 0.2546 0.0
O31 O 0.08034 0.68392 0.43472 0.0
O32 O 0.07466 0.7224 0.42424 0.0
O33 O 0.11515 0.76045 0.42447 0.0
O34 O 0.14377 0.74436 0.47501 0.0
O35 O 0.18091 0.7149 0.39583 0.0
O36 O 0.09961 0.66332 0.31708 0.0
O37 O 0.17102 0.70994 0.30617 0.0
O38 O 0.1271 0.67741 0.26103 0.0
C39 C 0.13643 0.66446 0.48278 0.0
C40 C 0.1055 0.74517 0.25883 0.0
C41 C 0.13056 0.76186 0.46304 0.0
C42 C 0.06883 0.70258 0.44486 0.0
C43 C 0.18638 0.71364 0.34405 0.0
C44 C 0.10969 0.6638 0.26976 0.0
O45 O 0.14349 0.68561 0.4912 0.0
O46 O 0.5927 0.86435 0.71376 0.0
Zn47 Zn 0.57001 0.84686 0.66567 0.0
O48 O 0.54279 0.86566 0.64943 0.0
Zn49 Zn 0.51483 0.84658 0.64849 0.0
Zn50 Zn 0.54044 0.88927 0.70781 0.0
Zn51 Zn 0.54822 0.87776 0.57628 0.0
O52 O 0.50253 0.84066 0.57019 0.0
O53 O 0.52178 0.86872 0.52472 0.0
O54 O 0.56014 0.81913 0.7101 0.0
O55 O 0.52164 0.81731 0.69183 0.0
O56 O 0.48898 0.86193 0.69091 0.0
O57 O 0.50788 0.88742 0.74533 0.0
O58 O 0.54235 0.92152 0.66938 0.0
O59 O 0.58523 0.8351 0.59585 0.0
O60 O 0.54942 0.91222 0.58036 0.0
O61 O 0.57625 0.86396 0.5377 0.0
C62 C 0.58622 0.87177 0.76138 0.0
C63 C 0.50616 0.85263 0.52603 0.0
C64 C 0.48901 0.87663 0.73092 0.0
C65 C 0.54009 0.80948 0.71606 0.0
C66 C 0.54586 0.92741 0.61842 0.0
C67 C 0.58694 0.84483 0.54825 0.0
O68 O 0.56588 0.88123 0.76717 0.0
O69 O 0.40678 0.29397 0.96323 0.0
Zn70 Zn 0.39955 0.28151 0.8869 0.0
O71 O 0.36909 0.26833 0.88609 0.0
Zn72 Zn 0.3699 0.23519 0.87691 0.0
Zn73 Zn 0.35263 0.27388 0.95483 0.0
Zn74 Zn 0.35447 0.27769 0.81727 0.0
O75 O 0.34323 0.22405 0.8304 0.0
O76 O 0.35224 0.24928 0.7643 0.0
O77 O 0.42183 0.25803 0.85374 0.0
O78 O 0.39889 0.22696 0.8363 0.0
O79 O 0.37038 0.21833 0.94858 0.0
O80 O 0.35502 0.24466 0.00597 0.0
O81 O 0.3183 0.28077 0.93093 0.0
O82 O 0.40156 0.30932 0.83651 0.0
O83 O 0.32236 0.28642 0.83883 0.0
O84 O 0.37083 0.30533 0.77992 0.0
C85 C 0.39298 0.30324 0.99907 0.0
C86 C 0.3448 0.22897 0.77892 0.0
C87 C 0.36347 0.22418 0.99691 0.0
C88 C 0.41835 0.23784 0.83181 0.0
C89 C 0.3098 0.28608 0.88277 0.0
C90 C 0.38951 0.31622 0.79481 0.0
O91 O 0.37061 0.29977 0.99741 0.0
O92 O 0.97066 0.89407 0.7892 0.0
Zn93 Zn 0.98759 0.86852 0.82983 0.0
O94 O 0.02112 0.87363 0.82892 0.0
Zn95 Zn 0.03725 0.84527 0.81349 0.0
Zn96 Zn 0.02686 0.89745 0.77323 0.0
Zn97 Zn 0.03203 0.88218 0.90102 0.0
O98 O 0.04938 0.82972 0.88433 0.0
O99 O 0.05869 0.8626 0.92883 0.0
O100 O 0.98017 0.83981 0.78493 0.0
O101 O 0.01562 0.82446 0.76993 0.0
O102 O 0.06413 0.8526 0.76422 0.0
O103 O 0.05618 0.88768 0.72703 0.0
O104 O 0.03014 0.92861 0.81654 0.0
O105 O 0.97535 0.86519 0.9079 0.0
O106 O 0.03977 0.91575 0.90165 0.0
O107 O 0.00647 0.87681 0.9573 0.0
C108 C 0.97577 0.89833 0.73854 0.0
C109 C 0.05959 0.84032 0.92475 0.0
C110 C 0.06911 0.86925 0.73078 0.0
C111 C -0.0066 0.82464 0.76186 0.0
C112 C 0.03627 0.93245 0.86735 0.0
C113 C 0.98522 0.86964 0.95462 0.0
O114 O -0.00268 0.89833 0.72291 0.0
O115 O 0.34747 0.72441 0.05683 0.0
Zn116 Zn 0.37452 0.73906 0.09736 0.0
O117 O 0.37252 0.77278 0.09731 0.0
Zn118 Zn 0.40197 0.78674 0.08096 0.0
Zn119 Zn 0.34929 0.77986 0.04076 0.0
Zn120 Zn 0.3646 0.78361 0.17006 0.0
O121 O 0.41815 0.79869 0.15109 0.0
O122 O 0.3863 0.80872 0.19895 0.0
O123 O 0.40243 0.72964 0.05268 0.0
O124 O 0.42138 0.7634 0.03877 0.0
O125 O 0.3964 0.81377 0.03079 0.0
O126 O 0.36024 0.80897 0.99557 0.0
O127 O 0.31849 0.7837 0.08406 0.0
O128 O 0.3771 0.72605 0.17459 0.0
O129 O 0.33085 0.79224 0.17048 0.0
O130 O 0.36888 0.75751 0.2257 0.0
C131 C 0.34466 0.72947 0.00555 0.0
C132 C 0.40859 0.80903 0.19252 0.0
C133 C 0.37976 0.82033 0.99862 0.0
C134 C 0.41906 0.74136 0.03055 0.0
C135 C 0.3143 0.78903 0.13509 0.0
C136 C 0.37412 0.73582 0.22184 0.0
O137 O 0.34699 0.75078 0.98937 0.0
O138 O 0.50915 0.1423 0.37086 0.0
Zn139 Zn 0.49196 0.13642 0.44225 0.0
O140 O 0.46483 0.11739 0.43201 0.0
Zn141 Zn 0.43701 0.13577 0.433 0.0
Zn142 Zn 0.46723 0.10087 0.36206 0.0
Zn143 Zn 0.46153 0.09896 0.49899 0.0
O144 O 0.41105 0.12031 0.47428 0.0
O145 O 0.43337 0.10979 0.54538 0.0
O146 O 0.48228 0.16546 0.48193 0.0
O147 O 0.44316 0.16567 0.47413 0.0
O148 O 0.4256 0.14144 0.35684 0.0
O149 O 0.44029 0.11147 0.30837 0.0
O150 O 0.46904 0.06598 0.3837 0.0
O151 O 0.51488 0.12064 0.49206 0.0
O152 O 0.45773 0.06619 0.47323 0.0
O153 O 0.49176 0.09921 0.54632 0.0
C154 C 0.51126 0.12863 0.32902 0.0
C155 C 0.41342 0.11629 0.52607 0.0
C156 C 0.42678 0.12948 0.3121 0.0
C157 C 0.46228 0.17451 0.49266 0.0
C158 C 0.46392 0.05524 0.42919 0.0
C159 C 0.51206 0.10741 0.53416 0.0
O160 O 0.49773 0.11078 0.3228 0.0
O161 O 0.10735 0.26761 0.56232 0.0
Zn162 Zn 0.09941 0.23939 0.60737 0.0
O163 O 0.12548 0.21807 0.60943 0.0
Zn164 Zn 0.11534 0.18637 0.59232 0.0
Zn165 Zn 0.1492 0.22742 0.55445 0.0
Zn166 Zn 0.13738 0.21595 0.68312 0.0
O167 O 0.10765 0.16698 0.66077 0.0
O168 O 0.12844 0.18664 0.72368 0.0
O169 O 0.07327 0.22397 0.56403 0.0
O170 O 0.08647 0.18795 0.54458 0.0
O171 O 0.14066 0.17152 0.54697 0.0
O172 O 0.14634 0.2023 0.49283 0.0
O173 O 0.1813 0.2305 0.59512 0.0
O174 O 0.0915 0.25225 0.68419 0.0
O175 O 0.17151 0.21971 0.68161 0.0
O176 O 0.12429 0.24177 0.72883 0.0
C177 C 0.12359 0.27334 0.52859 0.0
C178 C 0.11536 0.16935 0.71045 0.0
C179 C 0.14334 0.18012 0.49848 0.0
C180 C 0.0714 0.2043 0.53863 0.0
C181 C 0.18673 0.22621 0.64611 0.0
C182 C 0.10521 0.25342 0.72659 0.0
O183 O 0.14092 0.25955 0.51936 0.0
O184 O 0.85016 0.19883 0.55971 0.0
Zn185 Zn 0.87526 0.21689 0.59962 0.0
O186 O 0.86859 0.25 0.59801 0.0
Zn187 Zn 0.89605 0.26752 0.58096 0.0
Zn188 Zn 0.84376 0.25432 0.54367 0.0
Zn189 Zn 0.86023 0.26073 0.67 0.0
O190 O 0.91164 0.28054 0.65136 0.0
O191 O 0.87838 0.28864 0.69524 0.0
O192 O 0.90432 0.21077 0.55481 0.0
O193 O 0.91749 0.24686 0.53674 0.0
O194 O 0.88651 0.29402 0.53238 0.0
O195 O 0.85103 0.28455 0.49822 0.0
O196 O 0.81287 0.25544 0.58858 0.0
O197 O 0.87932 0.20507 0.67795 0.0
O198 O 0.82628 0.26655 0.67232 0.0
O199 O 0.86775 0.23605 0.72708 0.0
C200 C 0.84571 0.20361 0.50887 0.0
C201 C 0.90066 0.29043 0.69137 0.0
C202 C 0.86889 0.2984 0.50095 0.0
C203 C 0.91853 0.22463 0.53023 0.0
C204 C 0.80936 0.26182 0.6392 0.0
C205 C 0.87537 0.21505 0.72459 0.0
O206 O 0.84444 0.22506 0.49301 0.0
O207 O 0.60973 0.74705 0.07132 0.0
Zn208 Zn 0.59821 0.71985 0.11589 0.0
O209 O 0.62053 0.69464 0.11646 0.0
Zn210 Zn 0.60541 0.66504 0.09873 0.0
Zn211 Zn 0.64422 0.70063 0.0592 0.0
Zn212 Zn 0.63288 0.69028 0.18975 0.0
O213 O 0.59545 0.6469 0.16702 0.0
O214 O 0.62024 0.66164 0.22963 0.0
O215 O 0.57002 0.70903 0.07293 0.0
O216 O 0.57695 0.67141 0.05204 0.0
O217 O 0.62738 0.64644 0.05143 0.0
O218 O 0.63757 0.67621 0.99793 0.0
O219 O 0.67648 0.70044 0.09787 0.0
O220 O 0.59263 0.73325 0.19284 0.0
O221 O 0.66761 0.69127 0.18598 0.0
O222 O 0.62323 0.7174 0.23718 0.0
C223 C 0.6257 0.74997 0.03499 0.0
C224 C 0.60403 0.64713 0.21622 0.0
C225 C 0.63102 0.65479 1.00305 0.0
C226 C 0.56488 0.6901 0.04697 0.0
C227 C 0.68259 0.69669 0.14867 0.0
C228 C 0.6063 0.73203 0.23522 0.0
O229 O 0.64009 0.73342 0.02354 0.0
O230 O 0.60736 0.16807 0.97636 0.0
Zn231 Zn 0.61048 0.17851 0.89813 0.0
O232 O 0.62779 0.20744 0.89468 0.0
Zn233 Zn 0.60753 0.23366 0.88489 0.0
Zn234 Zn 0.64603 0.21199 0.96221 0.0
Zn235 Zn 0.64468 0.2046 0.82599 0.0
O236 O 0.62074 0.2568 0.83144 0.0
O237 O 0.64225 0.23399 0.77693 0.0
O238 O 0.57908 0.1832 0.86233 0.0
O239 O 0.57809 0.22196 0.84924 0.0
O240 O 0.60294 0.25145 0.95588 0.0
O241 O 0.63694 0.24326 0.99834 0.0
O242 O 0.68095 0.21188 0.93853 0.0
O243 O 0.62439 0.15275 0.85228 0.0
O244 O 0.6778 0.20177 0.84833 0.0
O245 O 0.63408 0.17597 0.7822 0.0
C246 C 0.61901 0.17245 0.0207 0.0
C247 C 0.63314 0.25394 0.78801 0.0
C248 C 0.61803 0.25537 0.99441 0.0
C249 C 0.56939 0.2015 0.84233 0.0
C250 C 0.69017 0.2063 0.89154 0.0
C251 C 0.62806 0.15579 0.80048 0.0
O252 O 0.63579 0.18758 0.02137 0.0
O253 O 0.89236 0.81047 0.44274 0.0
Zn254 Zn 0.89737 0.78284 0.39432 0.0
O255 O 0.86819 0.76786 0.38165 0.0
Zn256 Zn 0.87057 0.73408 0.38654 0.0
Zn257 Zn 0.84637 0.77605 0.44003 0.0
Zn258 Zn 0.85803 0.77638 0.30898 0.0
O259 O 0.87057 0.71879 0.31112 0.0
O260 O 0.86134 0.74878 0.25603 0.0
O261 O 0.91805 0.7607 0.4363 0.0
O262 O 0.89998 0.72601 0.42872 0.0
O263 O 0.84445 0.72138 0.43353 0.0
O264 O 0.849 0.74918 0.49649 0.0
O265 O 0.81423 0.77589 0.40092 0.0
O266 O 0.91134 0.79538 0.32302 0.0
O267 O 0.82407 0.7842 0.31277 0.0
O268 O 0.87798 0.80206 0.27668 0.0
C269 C 0.87595 0.81834 0.47342 0.0
C270 C 0.86642 0.72714 0.26275 0.0
C271 C 0.8459 0.72751 0.48443 0.0
C272 C 0.91664 0.73883 0.44751 0.0
C273 C 0.8086 0.78033 0.35011 0.0
C274 C 0.90015 0.80493 0.28264 0.0
O275 O 0.8563 0.80736 0.47814 0.0
O276 O 0.42436 0.63804 0.71069 0.0
Zn277 Zn 0.45249 0.64095 0.66294 0.0
O278 O 0.46588 0.61106 0.65309 0.0
Zn279 Zn 0.49974 0.61128 0.6585 0.0
Zn280 Zn 0.4564 0.59079 0.71393 0.0
Zn281 Zn 0.45646 0.59912 0.58212 0.0
O282 O 0.51469 0.60726 0.5836 0.0
O283 O 0.48488 0.59434 0.53129 0.0
O284 O 0.4758 0.66027 0.70462 0.0
O285 O 0.50992 0.64119 0.69585 0.0
O286 O 0.51088 0.58608 0.71064 0.0
O287 O 0.48297 0.59353 0.77158 0.0
O288 O 0.45739 0.55861 0.67603 0.0
O289 O 0.44147 0.65512 0.59025 0.0
O290 O 0.4393 0.56941 0.59843 0.0
O291 O 0.43563 0.62208 0.54251 0.0
C292 C 0.41532 0.62256 0.74233 0.0
C293 C 0.50667 0.59958 0.53725 0.0
C294 C 0.50448 0.58876 0.76099 0.0
C295 C 0.49777 0.6582 0.71476 0.0
C296 C 0.45002 0.55381 0.62671 0.0
C297 C 0.43319 0.64422 0.54789 0.0
O298 O 0.42505 0.60242 0.74903 0.0
O299 O 0.06948 0.37992 0.21126 0.0
Zn300 Zn 0.05046 0.35721 0.16663 0.0
O301 O 0.01989 0.37039 0.15133 0.0
Zn302 Zn -0.00379 0.34639 0.15488 0.0
Zn303 Zn 0.01373 0.39488 0.20644 0.0
Zn304 Zn 0.02194 0.38151 0.0768 0.0
O305 O 0.98501 0.33628 0.07796 0.0
O306 O -0.00273 0.36693 0.02839 0.0
O307 O 0.04675 0.3289 0.21451 0.0
O308 O 0.00883 0.32004 0.20184 0.0
O309 O 0.96823 0.35797 0.19625 0.0
O310 O 0.98173 0.3886 0.24452 0.0
O311 O 0.0118 0.42677 0.16513 0.0
O312 O 0.06713 0.34731 0.0965 0.0
O313 O 0.01837 0.41549 0.0772 0.0
O314 O 0.0514 0.37268 0.03738 0.0
C315 C 0.06206 0.38629 0.25897 0.0
C316 C 0.98568 0.34785 0.03237 0.0
C317 C 0.96533 0.37387 0.23294 0.0
C318 C 0.02887 0.31607 0.22429 0.0
C319 C 0.01433 0.43138 0.11313 0.0
C320 C 0.06607 0.35646 0.04812 0.0
O321 O 0.04034 0.39184 0.2654 0.0
O322 O 0.47605 0.37543 0.35395 0.0
Zn323 Zn 0.49358 0.37577 0.42628 0.0
O324 O 0.52704 0.37934 0.41684 0.0
Zn325 Zn 0.54281 0.35007 0.4159 0.0
Zn326 Zn 0.5314 0.39571 0.34752 0.0
Zn327 Zn 0.53688 0.39534 0.48356 0.0
O328 O 0.57083 0.34975 0.46634 0.0
O329 O 0.56564 0.38067 0.5211 0.0
O330 O 0.48806 0.34533 0.4636 0.0
O331 O 0.52146 0.32577 0.44889 0.0
O332 O 0.55489 0.34363 0.33942 0.0
O333 O 0.55768 0.37971 0.30301 0.0
O334 O 0.53506 0.43044 0.36894 0.0
O335 O 0.48039 0.39946 0.47884 0.0
O336 O 0.54227 0.42834 0.46086 0.0
O337 O 0.50966 0.39498 0.53892 0.0
C338 C 0.48217 0.38217 0.30555 0.0
C339 C 0.57717 0.3623 0.50768 0.0
C340 C 0.56229 0.35765 0.30173 0.0
C341 C 0.50075 0.32711 0.46911 0.0
C342 C 0.53962 0.44021 0.41609 0.0
C343 C 0.48794 0.39922 0.52891 0.0
O344 O 0.50255 0.39103 0.29721 0.0
O345 O 0.01559 0.62887 0.78567 0.0
Zn346 Zn 0.98888 0.64047 0.83093 0.0
O347 O 0.96404 0.61783 0.83192 0.0
Zn348 Zn 0.93398 0.63224 0.81529 0.0
Zn349 Zn 0.96957 0.59366 0.77525 0.0
Zn350 Zn 0.96086 0.60625 0.90544 0.0
O351 O 0.916 0.64223 0.88389 0.0
O352 O 0.93386 0.62028 0.9474 0.0
O353 O 0.97743 0.66854 0.78874 0.0
O354 O 0.93973 0.66068 0.76887 0.0
O355 O 0.91534 0.60987 0.76851 0.0
O356 O 0.9451 0.60078 0.71386 0.0
O357 O 0.9666 0.5614 0.81405 0.0
O358 O 0.00306 0.64614 0.90758 0.0
O359 O 0.95784 0.57208 0.90135 0.0
O360 O 0.98948 0.61418 0.95015 0.0
C361 C 0.01904 0.6123 0.75111 0.0
C362 C 0.91804 0.63507 0.934 0.0
C363 C 0.92344 0.60646 0.71984 0.0
C364 C 0.95815 0.67323 0.76343 0.0
C365 C 0.9612 0.55633 0.86457 0.0
C366 C 0.00339 0.63175 0.9485 0.0
O367 O 0.00288 0.59717 0.74064 0.0
H368 H 0.01657 0.10334 0.93022 0.0
H369 H 0.13333 0.16451 0.81576 0.0
H370 H 0.07309 0.12918 0.03528 0.0
H371 H 0.07695 0.1398 0.70893 0.0
H372 H 0.11421 0.14592 0.89521 0.0
H373 H 0.04066 0.11141 0.84814 0.0
C374 C 0.03411 0.11055 0.93615 0.0
C375 C 0.04268 0.11587 0.98985 0.0
C376 C 0.10614 0.14426 0.85432 0.0
C377 C 0.07037 0.12513 0.89584 0.0
C378 C 0.1171 0.15483 0.80881 0.0
C379 C 0.10655 0.15401 0.75569 0.0
C380 C 0.08431 0.13296 0.84692 0.0
C381 C 0.08565 0.14099 0.74917 0.0
C382 C 0.04787 0.11511 0.88917 0.0
C383 C 0.06562 0.12501 0.99479 0.0
N384 N 0.075 0.13128 0.79446 0.0
N385 N 0.07856 0.12952 0.9484 0.0
H386 H 0.0786 0.78511 0.25731 0.0
H387 H 0.07422 0.8574 0.02566 0.0
H388 H 0.11604 0.73737 0.1492 0.0
H389 H 0.06717 0.79255 0.9328 0.0
H390 H 0.08537 0.8349 0.10803 0.0
H391 H 0.06853 0.80913 0.17583 0.0
C392 C 0.08468 0.77969 0.21647 0.0
C393 C 0.09838 0.75939 0.21004 0.0
C394 C 0.08127 0.82561 0.0697 0.0
C395 C 0.08717 0.78681 0.11703 0.0
C396 C 0.0752 0.83842 0.02232 0.0
C397 C 0.06951 0.82683 0.97217 0.0
C398 C 0.08185 0.801 0.06703 0.0
C399 C 0.07124 0.8022 0.97064 0.0
C400 C 0.07915 0.79352 0.17015 0.0
C401 C 0.10571 0.75309 0.15606 0.0
N402 N 0.07731 0.79005 0.0175 0.0
N403 N 0.09988 0.7667 0.11148 0.0
H404 H 0.45605 0.81878 0.1901 0.0
H405 H 0.5162 0.8664 0.41943 0.0
H406 H 0.3954 0.82102 0.29837 0.0
H407 H 0.46469 0.82793 0.51542 0.0
H408 H 0.49337 0.85839 0.33487 0.0
H409 H 0.48098 0.83074 0.26884 0.0
C410 C 0.44792 0.82217 0.23014 0.0
C411 C 0.42357 0.81901 0.2375 0.0
C412 C 0.48721 0.85146 0.37428 0.0
C413 C 0.45197 0.83267 0.32776 0.0
C414 C 0.50011 0.85619 0.42274 0.0
C415 C 0.49241 0.8477 0.47465 0.0
C416 C 0.46634 0.83825 0.37772 0.0
C417 C 0.47139 0.83464 0.47629 0.0
C418 C 0.46215 0.82911 0.27504 0.0
C419 C 0.41404 0.82343 0.29054 0.0
N420 N 0.459 0.83045 0.42853 0.0
N421 N 0.4283 0.82973 0.33378 0.0
H422 H 0.33872 0.18216 0.80135 0.0
H423 H 0.41072 0.11198 0.64029 0.0
H424 H 0.35141 0.23025 0.66513 0.0
H425 H 0.37492 0.14274 0.49853 0.0
H426 H 0.38629 0.13592 0.70219 0.0
H427 H 0.34897 0.14938 0.7404 0.0
C428 C 0.34316 0.18587 0.7583 0.0
C429 C 0.34476 0.20915 0.7387 0.0
C430 C 0.3833 0.13683 0.65755 0.0
C431 C 0.35657 0.17158 0.66915 0.0
C432 C 0.39729 0.1232 0.62221 0.0
C433 C 0.39509 0.12549 0.56411 0.0
C434 C 0.36736 0.15309 0.63447 0.0
C435 C 0.37741 0.14045 0.54303 0.0
C436 C 0.34919 0.16709 0.72381 0.0
C437 C 0.35029 0.21268 0.68229 0.0
N438 N 0.3647 0.15418 0.57814 0.0
N439 N 0.35624 0.19407 0.64956 0.0
H440 H 0.94743 0.81525 0.28001 0.0
H441 H 0.00131 0.87489 0.06199 0.0
H442 H 0.8826 0.82515 0.18756 0.0
H443 H 0.94002 0.85332 0.96695 0.0
H444 H 0.98137 0.8632 0.14743 0.0
H445 H 0.9689 0.83445 0.20493 0.0
C446 C 0.93765 0.82181 0.24433 0.0
C447 C 0.91318 0.81847 0.24005 0.0
C448 C 0.97235 0.86076 0.10795 0.0
C449 C 0.9376 0.84098 0.15413 0.0
C450 C 0.98364 0.86769 0.05904 0.0
C451 C 0.97246 0.86475 0.00703 0.0
C452 C 0.94977 0.85065 0.10477 0.0
C453 C 0.94944 0.85566 0.00599 0.0
C454 C 0.94992 0.83302 0.20155 0.0
C455 C 0.90146 0.82726 0.19269 0.0
N456 N 0.93891 0.84883 0.05413 0.0
N457 N 0.91382 0.83787 0.15136 0.0
H458 H 0.88578 0.16844 0.73847 0.0
H459 H 0.93263 0.18501 0.04992 0.0
H460 H 0.87876 0.23355 0.8299 0.0
H461 H 0.92731 0.11776 0.96663 0.0
H462 H 0.91125 0.20303 0.97191 0.0
H463 H 0.8994 0.14928 0.82372 0.0
C464 C 0.88692 0.17867 0.77658 0.0
C465 C 0.88132 0.20267 0.77693 0.0
C466 C 0.91459 0.18429 0.9711 0.0
C467 C 0.8971 0.18091 0.87464 0.0
C468 C 0.92681 0.17401 0.01557 0.0
C469 C 0.93204 0.1499 0.01455 0.0
C470 C 0.90772 0.17036 0.92528 0.0
C471 C 0.92392 0.13646 0.96908 0.0
C472 C 0.89466 0.16771 0.82532 0.0
C473 C 0.88296 0.21501 0.82767 0.0
N474 N 0.91239 0.14692 0.92611 0.0
N475 N 0.89097 0.20405 0.87439 0.0
H476 H 0.63611 0.15281 0.68804 0.0
H477 H 0.51266 0.0931 0.64413 0.0
H478 H 0.59808 0.11908 0.82168 0.0
H479 H 0.55841 0.1137 0.50911 0.0
H480 H 0.54632 0.09577 0.70848 0.0
H481 H 0.61153 0.13181 0.62061 0.0
C482 C 0.62302 0.1405 0.70321 0.0
C483 C 0.61884 0.1381 0.76056 0.0
C484 C 0.54908 0.09921 0.66453 0.0
C485 C 0.59009 0.11452 0.68365 0.0
C486 C 0.52986 0.09765 0.6278 0.0
C487 C 0.5326 0.10378 0.57149 0.0
C488 C 0.57106 0.10708 0.64466 0.0
C489 C 0.55533 0.10941 0.55251 0.0
C490 C 0.60887 0.12855 0.66467 0.0
C491 C 0.60175 0.12171 0.77782 0.0
N492 N 0.57354 0.11133 0.58912 0.0
N493 N 0.58757 0.11102 0.73954 0.0
H494 H 0.61202 0.80367 0.55255 0.0
H495 H 0.58136 0.7733 0.23632 0.0
H496 H 0.58308 0.85425 0.4366 0.0
H497 H 0.62662 0.72992 0.33867 0.0
H498 H 0.58091 0.8028 0.31068 0.0
H499 H 0.61849 0.77663 0.47487 0.0
C500 C 0.60752 0.80932 0.51066 0.0
C501 C 0.59672 0.83116 0.50126 0.0
C502 C 0.59097 0.78683 0.31675 0.0
C503 C 0.60349 0.80008 0.41249 0.0
C504 C 0.59101 0.76988 0.27459 0.0
C505 C 0.60397 0.74909 0.28136 0.0
C506 C 0.6038 0.78285 0.36619 0.0
C507 C 0.61638 0.7457 0.33163 0.0
C508 C 0.61107 0.7938 0.46636 0.0
C509 C 0.59132 0.83754 0.44599 0.0
N510 N 0.61592 0.76237 0.37218 0.0
N511 N 0.59438 0.8219 0.40383 0.0
H512 H 0.61983 0.63976 0.32307 0.0
H513 H 0.49554 0.59125 0.42685 0.0
H514 H 0.56259 0.62204 0.21109 0.0
H515 H 0.55436 0.60702 0.5359 0.0
H516 H 0.52139 0.59676 0.34627 0.0
H517 H 0.59797 0.62211 0.39983 0.0
C518 C 0.60281 0.63184 0.31439 0.0
C519 C 0.59294 0.63269 0.26057 0.0
C520 C 0.52869 0.5987 0.38788 0.0
C521 C 0.56755 0.61269 0.34877 0.0
C522 C 0.51394 0.59551 0.43396 0.0
C523 C 0.52265 0.59905 0.48834 0.0
C524 C 0.5523 0.60553 0.39622 0.0
C525 C 0.54671 0.60444 0.49485 0.0
C526 C 0.59028 0.62178 0.35836 0.0
C527 C 0.57087 0.62194 0.25191 0.0
N528 N 0.56057 0.60777 0.44943 0.0
N529 N 0.55876 0.61271 0.2957 0.0
H530 H 0.62433 0.30035 0.80778 0.0
H531 H 0.60932 0.3278 0.48529 0.0
H532 H 0.64484 0.25261 0.67659 0.0
H533 H 0.58619 0.37401 0.61709 0.0
H534 H 0.63115 0.30467 0.55383 0.0
H535 H 0.61901 0.3313 0.73863 0.0
C536 C 0.62808 0.29645 0.76444 0.0
C537 C 0.63459 0.27368 0.74782 0.0
C538 C 0.6217 0.32014 0.56769 0.0
C539 C 0.62827 0.30913 0.66814 0.0
C540 C 0.60927 0.33344 0.52851 0.0
C541 C 0.59546 0.35262 0.54561 0.0
C542 C 0.62018 0.32591 0.62453 0.0
C543 C 0.59637 0.35924 0.60203 0.0
C544 C 0.62504 0.31419 0.72493 0.0
C545 C 0.63957 0.26983 0.69122 0.0
N546 N 0.6081 0.34562 0.63964 0.0
N547 N 0.63589 0.28726 0.65325 0.0
H548 H 0.94722 0.31863 0.02675 0.0
H549 H 0.94716 0.30469 0.6963 0.0
H550 H -0.0035 0.35671 0.9237 0.0
H551 H 0.88389 0.29944 0.79536 0.0
H552 H 0.96854 0.31867 0.77963 0.0
H553 H 0.92672 0.30528 0.94197 0.0
C554 C 0.95377 0.32407 0.98634 0.0
C555 C 0.97342 0.33892 0.98215 0.0
C556 C 0.94992 0.31457 0.78267 0.0
C557 C 0.95034 0.32361 0.8855 0.0
C558 C 0.93775 0.30666 0.73527 0.0
C559 C 0.91369 0.30102 0.73875 0.0
C560 C 0.93803 0.31628 0.83387 0.0
C561 C 0.90237 0.30376 0.79045 0.0
C562 C 0.94204 0.31658 0.93811 0.0
C563 C 0.98121 0.34548 0.92873 0.0
N564 N 0.91468 0.31096 0.83602 0.0
N565 N 0.96972 0.33768 0.88239 0.0
H566 H 0.87655 0.68007 0.26077 0.0
H567 H 0.891 0.6751 0.92908 0.0
H568 H 0.86155 0.73875 0.1519 0.0
H569 H 0.91328 0.62012 0.04174 0.0
H570 H 0.87361 0.69607 0.0081 0.0
H571 H 0.88377 0.6556 0.17908 0.0
C572 C 0.8746 0.6878 0.2197 0.0
C573 C 0.86872 0.71163 0.21333 0.0
C574 C 0.88205 0.67927 0.01533 0.0
C575 C 0.87705 0.6836 0.11933 0.0
C576 C 0.89186 0.66722 0.97019 0.0
C577 C 0.90389 0.64595 0.97889 0.0
C578 C 0.88422 0.66994 0.06943 0.0
C579 C 0.90445 0.6366 0.03312 0.0
C580 C 0.87873 0.67378 0.17299 0.0
C581 C 0.86624 0.72054 0.1589 0.0
N582 N 0.89498 0.64875 0.07632 0.0
N583 N 0.87063 0.70658 0.11401 0.0
H584 H 0.43985 0.40417 0.52221 0.0
H585 H 0.37415 0.33177 0.69214 0.0
H586 H 0.49594 0.38943 0.63954 0.0
H587 H 0.42672 0.3451 0.81936 0.0
H588 H 0.39437 0.3593 0.63084 0.0
H589 H 0.41123 0.39073 0.59077 0.0
C590 C 0.44616 0.39842 0.56271 0.0
C591 C 0.47045 0.39733 0.57449 0.0
C592 C 0.40115 0.35686 0.6727 0.0
C593 C 0.43774 0.38102 0.65257 0.0
C594 C 0.38961 0.34093 0.7077 0.0
C595 C 0.3989 0.33582 0.7607 0.0
C596 C 0.42214 0.36778 0.69095 0.0
C597 C 0.41906 0.3482 0.77854 0.0
C598 C 0.42976 0.39039 0.60165 0.0
C599 C 0.47747 0.3902 0.62812 0.0
N600 N 0.43018 0.36327 0.74346 0.0
N601 N 0.46122 0.38196 0.66479 0.0
H602 H 0.41445 0.62664 0.45124 0.0
H603 H 0.37796 0.75218 0.3292 0.0
H604 H 0.42421 0.69168 0.54195 0.0
H605 H 0.3805 0.68834 0.23152 0.0
H606 H 0.38924 0.72966 0.41197 0.0
H607 H 0.39645 0.64851 0.37501 0.0
C608 C 0.41274 0.64553 0.45531 0.0
C609 C 0.4211 0.65737 0.50294 0.0
C610 C 0.38715 0.72059 0.37247 0.0
C611 C 0.40044 0.68254 0.41544 0.0
C612 C 0.38062 0.73339 0.32523 0.0
C613 C 0.37849 0.72214 0.27321 0.0
C614 C 0.39145 0.69638 0.36766 0.0
C615 C 0.38215 0.69778 0.27061 0.0
C616 C 0.40244 0.65801 0.41165 0.0
C617 C 0.41819 0.68185 0.50586 0.0
N618 N 0.38856 0.68574 0.31712 0.0
N619 N 0.4082 0.69367 0.4625 0.0
H620 H 0.07215 0.63327 0.26952 0.0
H621 H 0.04238 0.66046 0.95178 0.0
H622 H 0.12025 0.66924 0.15917 0.0
H623 H 0.00397 0.60944 0.04937 0.0
H624 H 0.07123 0.66388 0.02769 0.0
H625 H 0.0477 0.62289 0.18893 0.0
C626 C 0.07785 0.63855 0.22829 0.0
C627 C 0.09813 0.65242 0.22129 0.0
C628 C 0.05654 0.65184 0.03229 0.0
C629 C 0.06994 0.6411 0.12912 0.0
C630 C 0.03996 0.65005 0.98919 0.0
C631 C 0.02066 0.63476 0.99435 0.0
C632 C 0.05363 0.63844 0.08108 0.0
C633 C 0.01855 0.6215 0.04358 0.0
C634 C 0.06381 0.63273 0.1823 0.0
C635 C 0.10468 0.65868 0.16675 0.0
N636 N 0.03474 0.62376 0.08514 0.0
N637 N 0.0904 0.65334 0.12288 0.0
H638 H 0.07431 0.29058 0.72904 0.0
H639 H 0.09635 0.31883 0.05053 0.0
H640 H 0.12452 0.2527 0.83086 0.0
H641 H 0.06205 0.36713 0.93722 0.0
H642 H 0.10743 0.29449 0.9708 0.0
H643 H 0.06845 0.31821 0.80628 0.0
C644 C 0.08394 0.28798 0.76771 0.0
C645 C 0.09988 0.26931 0.77357 0.0
C646 C 0.09777 0.31061 0.9634 0.0
C647 C 0.0935 0.30087 0.8616 0.0
C648 C 0.09159 0.32461 0.00889 0.0
C649 C 0.07798 0.34491 1.00073 0.0
C650 C 0.09005 0.31685 0.90958 0.0
C651 C 0.07235 0.35152 0.9457 0.0
C652 C 0.0808 0.30387 0.81153 0.0
C653 C 0.11209 0.26688 0.82444 0.0
N654 N 0.07807 0.33732 0.90232 0.0
N655 N 0.10858 0.28242 0.86652 0.0
H656 H -0.00404 0.29679 0.29248 0.0
H657 H 0.05542 0.17868 0.23772 0.0
H658 H 0.06807 0.28891 0.23926 0.0
H659 H 0.98439 0.18826 0.29736 0.0
H660 H 0.06608 0.21695 0.27693 0.0
H661 H -0.00255 0.25774 0.33362 0.0
C662 C 0.01224 0.28688 0.29028 0.0
C663 C 0.03154 0.29541 0.26025 0.0
C664 C 0.0483 0.21043 0.2827 0.0
C665 C 0.0332 0.25054 0.30548 0.0
C666 C 0.0422 0.18864 0.26003 0.0
C667 C 0.01863 0.18116 0.26119 0.0
C668 C 0.03057 0.2247 0.30561 0.0
C669 C 0.00245 0.19412 0.29267 0.0
C670 C 0.0132 0.26464 0.31417 0.0
C671 C 0.05253 0.28246 0.26051 0.0
N672 N 0.00856 0.21558 0.31238 0.0
N673 N 0.05258 0.26023 0.28108 0.0
H674 H 0.94541 0.76079 0.52219 0.0
H675 H 0.03811 0.66575 0.457 0.0
H676 H 0.92972 0.69249 0.45251 0.0
H677 H 0.05206 0.73648 0.51353 0.0
H678 H -0.00173 0.66848 0.49544 0.0
H679 H 0.98213 0.74545 0.5596 0.0
C680 C 0.94958 0.74241 0.51554 0.0
C681 C 0.93534 0.72818 0.48154 0.0
C682 C 0.01029 0.68314 0.50094 0.0
C683 C 0.9773 0.71053 0.52394 0.0
C684 C 0.03296 0.6816 0.47885 0.0
C685 C 0.04772 0.70139 0.47974 0.0
C686 C 0.00262 0.70464 0.52341 0.0
C687 C 0.04065 0.72125 0.50976 0.0
C688 C 0.97044 0.73355 0.53744 0.0
C689 C 0.94084 0.70426 0.4766 0.0
N690 N 0.01838 0.72257 0.52944 0.0
N691 N 0.96187 0.69629 0.49605 0.0
H692 H 0.47825 0.68291 0.79947 0.0
H693 H 0.50172 0.79428 0.77277 0.0
H694 H 0.54338 0.67383 0.70988 0.0
H695 H 0.57426 0.77695 0.73877 0.0
H696 H 0.49578 0.75552 0.8109 0.0
H697 H 0.49349 0.71912 0.83938 0.0
C698 C 0.4959 0.68858 0.78858 0.0
C699 C 0.50913 0.67633 0.74887 0.0
C700 C 0.51331 0.76006 0.79699 0.0
C701 C 0.52634 0.71812 0.79251 0.0
C702 C 0.51654 0.78228 0.77437 0.0
C703 C 0.53814 0.78826 0.75031 0.0
C704 C 0.53168 0.74349 0.79376 0.0
C705 C 0.55706 0.77259 0.75533 0.0
C706 C 0.50463 0.7093 0.81134 0.0
C707 C 0.53232 0.68346 0.73863 0.0
N708 N 0.55318 0.75055 0.77491 0.0
N709 N 0.53999 0.70439 0.75904 0.0
H710 H 0.55554 0.22913 0.75609 0.0
H711 H 0.42742 0.19095 0.82043 0.0
H712 H 0.5353 0.16756 0.8496 0.0
H713 H 0.45167 0.25959 0.76959 0.0
H714 H 0.46398 0.17386 0.78461 0.0
H715 H 0.51645 0.22997 0.71333 0.0
C716 C 0.54286 0.21565 0.76716 0.0
C717 C 0.54792 0.1991 0.80877 0.0
C718 C 0.46092 0.19255 0.77972 0.0
C719 C 0.50339 0.20023 0.76111 0.0
C720 C 0.44024 0.20231 0.80054 0.0
C721 C 0.4374 0.22678 0.80054 0.0
C722 C 0.47858 0.20751 0.75914 0.0
C723 C 0.45392 0.24073 0.77282 0.0
C724 C 0.52072 0.21593 0.74223 0.0
C725 C 0.53155 0.18124 0.81944 0.0
N726 N 0.47409 0.23093 0.75407 0.0
N727 N 0.50958 0.18272 0.7971 0.0
H728 H 0.94679 0.81196 0.75423 0.0
H729 H -0.00724 0.68894 0.69567 0.0
H730 H 0.01557 0.79565 0.68826 0.0
H731 H 0.92163 0.70385 0.74753 0.0
H732 H -0.00454 0.72799 0.65522 0.0
H733 H 0.93174 0.7752 0.71523 0.0
C734 C 0.95862 0.80086 0.73056 0.0
C735 C 0.98276 0.80603 0.72731 0.0
C736 C 0.97899 0.72269 0.67422 0.0
C737 C 0.96579 0.76412 0.68303 0.0
C738 C 0.97756 0.70044 0.69766 0.0
C739 C 0.95742 0.6939 0.72732 0.0
C740 C 0.96048 0.7387 0.68267 0.0
C741 C 0.9378 0.70879 0.72665 0.0
C742 C 0.94999 0.77994 0.70796 0.0
C743 C -0.00292 0.79163 0.69432 0.0
N744 N 0.94008 0.73095 0.70636 0.0
N745 N 0.9885 0.771 0.67459 0.0
H746 H 0.55517 0.72367 0.97114 0.0
H747 H 0.42528 0.69377 0.01996 0.0
H748 H 0.52989 0.65735 0.03419 0.0
H749 H 0.45274 0.76042 0.96314 0.0
H750 H 0.46047 0.6744 0.98431 0.0
H751 H 0.51721 0.73025 0.92639 0.0
C752 C 0.54162 0.71028 0.97447 0.0
C753 C 0.54492 0.69056 0.00841 0.0
C754 C 0.45852 0.69318 0.97831 0.0
C755 C 0.50142 0.69814 0.95894 0.0
C756 C 0.4385 0.70428 0.999 0.0
C757 C 0.43686 0.7289 0.99744 0.0
C758 C 0.47697 0.70692 0.95688 0.0
C759 C 0.45393 0.74152 0.96782 0.0
C760 C 0.52 0.7139 0.94861 0.0
C761 C 0.52746 0.6732 0.0098 0.0
N762 N 0.4736 0.73044 0.9499 0.0
N763 N 0.50599 0.67775 0.98695 0.0
H764 H 0.42679 0.20706 0.49689 0.0
H765 H 0.52593 0.29632 0.53185 0.0
H766 H 0.49582 0.19143 0.56375 0.0
H767 H 0.45478 0.31451 0.48437 0.0
H768 H 0.51108 0.26117 0.57772 0.0
H769 H 0.43131 0.24766 0.52803 0.0
C770 C 0.44267 0.21207 0.51931 0.0
C771 C 0.46163 0.19647 0.52464 0.0
C772 C 0.49857 0.27296 0.55804 0.0
C773 C 0.46702 0.24259 0.55956 0.0
C774 C 0.50713 0.29283 0.53121 0.0
C775 C 0.49162 0.30749 0.502 0.0
C776 C 0.4745 0.26728 0.5534 0.0
C777 C 0.46735 0.30301 0.50475 0.0
C778 C 0.44523 0.23522 0.53734 0.0
C779 C 0.48136 0.20343 0.55596 0.0
N780 N 0.45955 0.28284 0.52853 0.0
N781 N 0.48384 0.22623 0.57101 0.0
H782 H 0.04658 0.16362 0.52072 0.0
H783 H 0.94292 0.24652 0.44736 0.0
H784 H 0.05068 0.23636 0.47101 0.0
H785 H 0.93688 0.18013 0.5333 0.0
H786 H 0.98048 0.2338 0.40898 0.0
H787 H 0.00701 0.16125 0.4791 0.0
C788 C 0.03936 0.17888 0.4997 0.0
C789 C 0.05106 0.20058 0.5018 0.0
C790 C 0.97066 0.22173 0.43498 0.0
C791 C 0.00644 0.198 0.45429 0.0
C792 C 0.94934 0.22908 0.45736 0.0
C793 C 0.93757 0.21484 0.49598 0.0
C794 C 0.98057 0.20044 0.45314 0.0
C795 C 0.946 0.19202 0.50545 0.0
C796 C 0.01691 0.1775 0.47575 0.0
C797 C 0.04153 0.21964 0.47259 0.0
N798 N 0.96748 0.18577 0.48566 0.0
N799 N 0.0195 0.21805 0.451 0.0
H800 H 0.95008 0.02456 0.05584 0.0
H801 H 0.00328 0.96552 0.8405 0.0
H802 H 0.01805 0.02537 0.13694 0.0
H803 H 0.0598 0.95091 0.95641 0.0
H804 H 0.98665 -0.00693 0.90763 0.0
H805 H 0.96559 -0.00193 0.98505 0.0
C806 C 0.9681 0.01841 0.05969 0.0
C807 C 0.98282 0.02708 0.1022 0.0
C808 C 0.00264 0.98382 0.91868 0.0
C809 C 0.0014 -0.00148 0.01862 0.0
C810 C 0.01262 0.96871 0.87936 0.0
C811 C 0.0327 0.95563 0.89335 0.0
C812 C 0.01282 0.98563 0.9723 0.0
C813 C 0.04406 0.96045 0.94438 0.0
C814 C 0.97724 0.00398 0.01809 0.0
C815 C 0.00608 0.01886 0.10511 0.0
N816 N 0.03372 0.97472 0.9825 0.0
N817 N 0.0148 0.00533 0.06319 0.0
H818 H 0.21402 0.749 0.38619 0.0
H819 H 0.27939 0.76099 0.0925 0.0
H820 H 0.20979 0.69799 0.25312 0.0
H821 H 0.29651 0.80502 0.23398 0.0
H822 H 0.24929 0.74148 0.14824 0.0
H823 H 0.24317 0.77114 0.33188 0.0
C824 C 0.21992 0.74198 0.34658 0.0
C825 C 0.20951 0.72168 0.324 0.0
C826 C 0.25941 0.75565 0.16689 0.0
C827 C 0.24175 0.74737 0.26077 0.0
C828 C 0.27627 0.76716 0.13462 0.0
C829 C 0.29077 0.78441 0.15888 0.0
C830 C 0.25698 0.76153 0.22361 0.0
C831 C 0.28592 0.79157 0.21388 0.0
C832 C 0.23614 0.75488 0.31507 0.0
C833 C 0.21738 0.71362 0.27193 0.0
N834 N 0.2697 0.77982 0.24477 0.0
N835 N 0.23273 0.72667 0.24172 0.0
H836 H 0.50288 0.03415 0.38542 0.0
H837 H 0.51211 0.95624 0.661 0.0
H838 H 0.44546 0.02275 0.49979 0.0
H839 H 0.56251 0.95069 0.52726 0.0
H840 H 0.49028 0.98527 0.60644 0.0
H841 H 0.5259 0.00442 0.43534 0.0
C842 C 0.49469 0.02464 0.4194 0.0
C843 C 0.47233 0.03111 0.43896 0.0
C844 C 0.50632 0.97795 0.58936 0.0
C845 C 0.49893 -0.00188 0.49776 0.0
C846 C 0.51912 0.96182 0.62114 0.0
C847 C 0.53903 0.95092 0.5984 0.0
C848 C 0.51363 0.9833 0.53481 0.0
C849 C 0.54712 0.95862 0.5461 0.0
C850 C 0.50806 0.00808 0.44871 0.0
C851 C 0.46273 0.01841 0.4837 0.0
N852 N 0.5342 0.97411 0.51564 0.0
N853 N 0.47629 0.00292 0.51244 0.0
H854 H 0.28337 0.31593 0.82004 0.0
H855 H 0.21388 0.20189 0.7186 0.0
H856 H 0.27998 0.25134 0.91344 0.0
H857 H 0.20853 0.26857 0.6342 0.0
H858 H 0.23956 0.21992 0.78854 0.0
H859 H 0.2533 0.30075 0.75608 0.0
C860 C 0.27528 0.29906 0.82892 0.0
C861 C 0.28442 0.28467 0.87145 0.0
C862 C 0.23311 0.2306 0.75432 0.0
C863 C 0.25109 0.26673 0.797 0.0
C864 C 0.21898 0.22015 0.7136 0.0
C865 C 0.20931 0.23373 0.67038 0.0
C866 C 0.23759 0.25486 0.7519 0.0
C867 C 0.21598 0.25742 0.66637 0.0
C868 C 0.2586 0.29013 0.79146 0.0
C869 C 0.27351 0.26294 0.88098 0.0
N870 N 0.2295 0.26736 0.70718 0.0
N871 N 0.25793 0.25427 0.84288 0.0
H872 H 0.71394 0.24673 0.91288 0.0
H873 H 0.78051 0.22407 0.62587 0.0
H874 H 0.72095 0.17862 0.8359 0.0
H875 H 0.78879 0.28832 0.71968 0.0
H876 H 0.755 0.20875 0.69941 0.0
H877 H 0.7421 0.26272 0.84573 0.0
C878 C 0.72245 0.23484 0.88389 0.0
C879 C 0.71495 0.2114 0.87934 0.0
C880 C 0.76208 0.22637 0.70351 0.0
C881 C 0.74594 0.22973 0.80071 0.0
C882 C 0.77607 0.23536 0.66073 0.0
C883 C 0.78671 0.25747 0.66681 0.0
C884 C 0.75864 0.2397 0.7523 0.0
C885 C 0.78082 0.27118 0.71352 0.0
C886 C 0.73799 0.24412 0.84449 0.0
C887 C 0.72623 0.19685 0.84044 0.0
N888 N 0.76742 0.26195 0.75494 0.0
N889 N 0.74064 0.20639 0.80147 0.0
H890 H 0.78506 0.79913 0.2614 0.0
H891 H 0.71282 0.72798 0.09913 0.0
H892 H 0.78009 0.74512 0.38705 0.0
H893 H 0.70413 0.68577 0.24733 0.0
H894 H 0.74202 0.75166 0.14821 0.0
H895 H 0.7559 0.77834 0.20532 0.0
C896 C 0.77728 0.78316 0.2778 0.0
C897 C 0.78513 0.77375 0.32872 0.0
C898 C 0.73372 0.73738 0.17045 0.0
C899 C 0.75295 0.74874 0.26286 0.0
C900 C 0.71747 0.72334 0.14164 0.0
C901 C 0.70567 0.70512 0.16943 0.0
C902 C 0.73799 0.73322 0.22759 0.0
C903 C 0.71251 0.69991 0.2245 0.0
C904 C 0.76108 0.77084 0.24493 0.0
C905 C 0.77449 0.75305 0.34811 0.0
N906 N 0.7279 0.71412 0.25199 0.0
N907 N 0.75926 0.74102 0.31467 0.0
H908 H 0.43784 0.53597 0.52483 0.0
H909 H 0.56103 0.47059 0.48819 0.0
H910 H 0.49203 0.53231 0.6518 0.0
H911 H 0.50424 0.46558 0.36847 0.0
H912 H 0.53919 0.50089 0.53811 0.0
H913 H 0.46358 0.51456 0.46108 0.0
C914 C 0.45495 0.53021 0.53971 0.0
C915 C 0.46268 0.53582 0.59396 0.0
C916 C 0.53173 0.49362 0.50011 0.0
C917 C 0.49255 0.51203 0.52049 0.0
C918 C 0.54445 0.47671 0.47087 0.0
C919 C 0.53418 0.46522 0.42489 0.0
C920 C 0.50865 0.499 0.48306 0.0
C921 C 0.51271 0.47384 0.40408 0.0
C922 C 0.46977 0.51832 0.50299 0.0
C923 C 0.48515 0.52815 0.61072 0.0
N924 N 0.50026 0.48975 0.43433 0.0
N925 N 0.49933 0.51678 0.57399 0.0
H926 H -0.00357 0.52541 0.84201 0.0
H927 H 0.97511 0.45791 0.13077 0.0
H928 H 0.93408 0.53462 0.94191 0.0
H929 H 0.03983 0.45534 0.03737 0.0
H930 H 0.95923 0.48599 0.06264 0.0
H931 H 0.01054 0.49597 0.90858 0.0
C932 C 0.98522 0.52043 0.87658 0.0
C933 C 0.96415 0.53246 0.88676 0.0
C934 C 0.97709 0.47964 0.05768 0.0
C935 C 0.9806 0.49984 0.96442 0.0
C936 C 0.98633 0.46411 0.09734 0.0
C937 C 0.00882 0.45453 0.0897 0.0
C938 C 0.99048 0.48539 0.01027 0.0
C939 C 0.02243 0.46252 0.04476 0.0
C940 C -0.00647 0.50409 0.91541 0.0
C941 C 0.95049 0.5257 0.93283 0.0
N942 N 0.01294 0.47722 0.00627 0.0
N943 N 0.95914 0.51014 0.97058 0.0
H944 H 0.02252 0.12735 0.33618 0.0
H945 H 0.14809 0.13341 0.47329 0.0
H946 H 0.07594 0.08023 0.27445 0.0
H947 H 0.11106 0.19623 0.42354 0.0
H948 H 0.12089 0.11001 0.41495 0.0
H949 H 0.05299 0.14895 0.38803 0.0
C950 C 0.04055 0.12107 0.33502 0.0
C951 C 0.04671 0.10175 0.30167 0.0
C952 C 0.11913 0.12897 0.41605 0.0
C953 C 0.08156 0.1265 0.36035 0.0
C954 C 0.13473 0.14231 0.44873 0.0
C955 C 0.1321 0.16682 0.45243 0.0
C956 C 0.10029 0.14017 0.38886 0.0
C957 C 0.11408 0.17746 0.42096 0.0
C958 C 0.05794 0.13364 0.36381 0.0
C959 C 0.07049 0.09486 0.30027 0.0
N960 N 0.09855 0.16403 0.39148 0.0
N961 N 0.0871 0.10714 0.32955 0.0
H962 H 0.15089 0.76893 0.56659 0.0
H963 H 0.0705 0.88081 0.6196 0.0
H964 H 0.11058 0.80434 0.43864 0.0
H965 H 0.10953 0.84466 0.74828 0.0
H966 H 0.09339 0.85973 0.54898 0.0
H967 H 0.14399 0.8023 0.62914 0.0
C968 C 0.14102 0.7839 0.55121 0.0
C969 C 0.13088 0.78356 0.49766 0.0
C970 C 0.09742 0.85687 0.59268 0.0
C971 C 0.1227 0.82175 0.56917 0.0
C972 C 0.08453 0.86918 0.63301 0.0
C973 C 0.08788 0.8642 0.68981 0.0
C974 C 0.11362 0.83947 0.6095 0.0
C975 C 0.10617 0.84875 0.70481 0.0
C976 C 0.13701 0.80295 0.58701 0.0
C977 C 0.11834 0.80356 0.47998 0.0
N978 N 0.11799 0.83658 0.66499 0.0
N979 N 0.1143 0.82162 0.51585 0.0
H980 H 0.4056 0.85965 0.0191 0.0
H981 H 0.44442 0.86252 0.7024 0.0
H982 H 0.36901 0.82296 0.88703 0.0
H983 H 0.48388 0.89438 0.83728 0.0
H984 H 0.41101 0.85729 0.76489 0.0
H985 H 0.42748 0.88203 0.94949 0.0
C986 C 0.40157 0.85692 0.97529 0.0
C987 C 0.38567 0.83924 0.95874 0.0
C988 C 0.42679 0.86582 0.78065 0.0
C989 C 0.41127 0.86424 0.8787 0.0
C990 C 0.44594 0.86884 0.74496 0.0
C991 C 0.46724 0.87847 0.7649 0.0
C992 C 0.42892 0.87229 0.83698 0.0
C993 C 0.46794 0.88665 0.82018 0.0
C994 C 0.41424 0.86956 0.93553 0.0
C995 C 0.38111 0.83642 0.90155 0.0
N996 N 0.44923 0.88297 0.85456 0.0
N997 N 0.39429 0.84838 0.86349 0.0
H998 H 0.43215 0.11949 0.19971 0.0
H999 H 0.35373 0.22949 0.10901 0.0
H1000 H 0.38995 0.16 0.31437 0.0
H1001 H 0.38309 0.18038 0.99061 0.0
H1002 H 0.36539 0.20299 0.18477 0.0
H1003 H 0.41279 0.13996 0.12167 0.0
C1004 C 0.41858 0.13233 0.20847 0.0
C1005 C 0.41295 0.13824 0.26368 0.0
C1006 C 0.36904 0.19791 0.1421 0.0
C1007 C 0.39102 0.16194 0.17501 0.0
C1008 C 0.36235 0.21306 0.09884 0.0
C1009 C 0.36758 0.20734 0.04331 0.0
C1010 C 0.38127 0.17701 0.12982 0.0
C1011 C 0.37881 0.18571 0.03275 0.0
C1012 C 0.4076 0.14411 0.16399 0.0
C1013 C 0.39521 0.15511 0.27255 0.0
N1014 N 0.38551 0.17151 0.07554 0.0
N1015 N 0.38514 0.16651 0.22886 0.0
H1016 H 0.8621 0.8286 0.58092 0.0
H1017 H 0.97862 0.90246 0.62421 0.0
H1018 H 0.90458 0.85465 0.44547 0.0
H1019 H 0.92873 0.89013 0.75671 0.0
H1020 H 0.94862 0.89035 0.55646 0.0
H1021 H 0.88234 0.85608 0.64429 0.0
C1022 C 0.87506 0.84066 0.56415 0.0
C1023 C 0.8819 0.83912 0.50808 0.0
C1024 C 0.94406 0.89073 0.6003 0.0
C1025 C 0.90554 0.87011 0.58026 0.0
C1026 C 0.96122 0.89774 0.63906 0.0
C1027 C 0.95643 0.89697 0.69644 0.0
C1028 C 0.92203 0.8825 0.61902 0.0
C1029 C 0.93343 0.89075 0.71298 0.0
C1030 C 0.8868 0.85622 0.60038 0.0
C1031 C 0.89902 0.85502 0.48865 0.0
N1032 N 0.91729 0.88329 0.67464 0.0
N1033 N 0.91053 0.86948 0.52478 0.0
H1034 H 0.84188 0.20611 0.39435 0.0
H1035 H 0.92675 0.09816 0.3561 0.0
H1036 H 0.85739 0.15751 0.52795 0.0
H1037 H 0.89618 0.13643 0.2184 0.0
H1038 H 0.89703 0.11537 0.41814 0.0
H1039 H 0.85684 0.17735 0.32753 0.0
C1040 C 0.84789 0.18921 0.4096 0.0
C1041 C 0.84872 0.1845 0.46707 0.0
C1042 C 0.89644 0.11951 0.37403 0.0
C1043 C 0.86647 0.15159 0.39078 0.0
C1044 C 0.91329 0.10949 0.33857 0.0
C1045 C 0.91413 0.11615 0.28227 0.0
C1046 C 0.88055 0.13638 0.35289 0.0
C1047 C 0.89638 0.13112 0.26182 0.0
C1048 C 0.85654 0.17277 0.37139 0.0
C1049 C 0.85666 0.16215 0.48416 0.0
N1050 N 0.88066 0.14107 0.29721 0.0
N1051 N 0.8657 0.14678 0.44639 0.0
H1052 H 0.59693 0.1303 0.03274 0.0
H1053 H 0.54388 0.16438 0.33 0.0
H1054 H 0.61968 0.19104 0.12673 0.0
H1055 H 0.52208 0.10369 0.23415 0.0
H1056 H 0.57458 0.17224 0.26129 0.0
H1057 H 0.57347 0.11752 0.11218 0.0
C1058 C 0.59739 0.14069 0.07069 0.0
C1059 C 0.61016 0.16185 0.073 0.0
C1060 C 0.56317 0.15714 0.25544 0.0
C1061 C 0.58275 0.14762 0.16389 0.0
C1062 C 0.54553 0.15266 0.29457 0.0
C1063 C 0.53014 0.13342 0.28771 0.0
C1064 C 0.56552 0.14233 0.20888 0.0
C1065 C 0.53335 0.11881 0.24109 0.0
C1066 C 0.58385 0.13346 0.11596 0.0
C1067 C 0.61017 0.17457 0.12324 0.0
N1068 N 0.55057 0.12364 0.20341 0.0
N1069 N 0.59632 0.16746 0.16645 0.0
H1070 H 0.62924 0.84979 0.76439 0.0
H1071 H 0.6009 0.78997 0.05786 0.0
H1072 H 0.57166 0.87038 0.87098 0.0
H1073 H 0.65024 0.76142 0.93911 0.0
H1074 H 0.59632 0.82464 0.99923 0.0
H1075 H 0.64349 0.82349 0.83759 0.0
C1076 C 0.6199 0.84932 0.80373 0.0
C1077 C 0.5989 0.86212 0.81092 0.0
C1078 C 0.60836 0.81095 0.9862 0.0
C1079 C 0.61511 0.83164 0.8949 0.0
C1080 C 0.61103 0.79106 0.0197 0.0
C1081 C 0.62577 0.77246 1.00313 0.0
C1082 C 0.62045 0.81244 0.93538 0.0
C1083 C 0.63858 0.77518 0.95349 0.0
C1084 C 0.628 0.83409 0.84539 0.0
C1085 C 0.58779 0.8608 0.86314 0.0
N1086 N 0.63542 0.79465 0.92106 0.0
N1087 N 0.5958 0.84553 0.90269 0.0
H1088 H 0.54687 0.56682 0.77769 0.0
H1089 H 0.60352 0.6771 0.92631 0.0
H1090 H 0.50499 0.6254 0.83393 0.0
H1091 H 0.62547 0.60793 0.97894 0.0
H1092 H 0.57249 0.65915 0.86914 0.0
H1093 H 0.58037 0.58192 0.8332 0.0
C1094 C 0.54461 0.58254 0.80267 0.0
C1095 C 0.52304 0.59464 0.80218 0.0
C1096 C 0.58445 0.64792 0.89233 0.0
C1097 C 0.56139 0.61254 0.86267 0.0
C1098 C 0.60243 0.65809 0.92419 0.0
C1099 C 0.61731 0.64395 0.957 0.0
C1100 C 0.58163 0.62342 0.89215 0.0
C1101 C 0.61452 0.61941 0.95382 0.0
C1102 C 0.5637 0.59119 0.83382 0.0
C1103 C 0.52113 0.61524 0.83417 0.0
N1104 N 0.59699 0.60986 0.92187 0.0
N1105 N 0.54018 0.62376 0.86238 0.0
H1106 H 0.56558 0.37387 0.19382 0.0
H1107 H 0.5866 0.29157 0.985 0.0
H1108 H 0.58858 0.31769 0.30205 0.0
H1109 H 0.63802 0.26182 0.09799 0.0
H1110 H 0.57642 0.32059 0.05585 0.0
H1111 H 0.58241 0.3527 0.11404 0.0
C1112 C 0.57442 0.35725 0.20085 0.0
C1113 C 0.57536 0.34732 0.25441 0.0
C1114 C 0.59034 0.30813 0.06477 0.0
C1115 C 0.59414 0.32284 0.16363 0.0
C1116 C 0.59597 0.29132 0.02453 0.0
C1117 C 0.61312 0.27413 0.03567 0.0
C1118 C 0.60177 0.30764 0.11688 0.0
C1119 C 0.62471 0.27474 0.08757 0.0
C1120 C 0.58374 0.34503 0.15527 0.0
C1121 C 0.5871 0.32578 0.26127 0.0
N1122 N 0.61854 0.29098 0.12658 0.0
N1123 N 0.59594 0.31424 0.21642 0.0
H1124 H 0.9234 0.35322 0.20498 0.0
H1125 H 0.88912 0.34073 0.52283 0.0
H1126 H 0.95786 0.39067 0.33929 0.0
H1127 H 0.85674 0.30074 0.39003 0.0
H1128 H 0.90625 0.36721 0.45386 0.0
H1129 H 0.89179 0.34214 0.26848 0.0
C1130 C 0.92408 0.35956 0.24763 0.0
C1131 C 0.94361 0.37252 0.26711 0.0
C1132 C 0.89492 0.35304 0.43965 0.0
C1133 C 0.90747 0.35956 0.34043 0.0
C1134 C 0.88497 0.33801 0.47907 0.0
C1135 C 0.87172 0.31836 0.46201 0.0
C1136 C 0.89195 0.34819 0.38259 0.0
C1137 C 0.86686 0.31567 0.40493 0.0
C1138 C 0.90598 0.35318 0.28392 0.0
C1139 C 0.94329 0.38051 0.32253 0.0
N1140 N 0.87745 0.33008 0.36711 0.0
N1141 N 0.92577 0.37349 0.35754 0.0
H1142 H 0.94321 0.63603 0.64412 0.0
H1143 H 0.82792 0.68314 0.49764 0.0
H1144 H 0.87617 0.60766 0.69585 0.0
H1145 H 0.88227 0.72986 0.55854 0.0
H1146 H 0.84614 0.65077 0.55095 0.0
H1147 H 0.92241 0.6655 0.58813 0.0
C1148 C 0.92413 0.63539 0.64195 0.0
C1149 C 0.91137 0.61918 0.67416 0.0
C1150 C 0.85378 0.66823 0.55305 0.0
C1151 C 0.88758 0.65301 0.6108 0.0
C1152 C 0.84334 0.68666 0.5232 0.0
C1153 C 0.85335 0.70927 0.52466 0.0
C1154 C 0.87484 0.67231 0.58252 0.0
C1155 C 0.87368 0.71284 0.5573 0.0
C1156 C 0.91231 0.65246 0.61081 0.0
C1157 C 0.88661 0.6197 0.67111 0.0
N1158 N 0.88399 0.69447 0.58416 0.0
N1159 N 0.87546 0.63637 0.63989 0.0
H1160 H 0.49225 0.38464 0.19369 0.0
H1161 H 0.37374 0.31811 0.09871 0.0
H1162 H 0.43638 0.36652 0.30785 0.0
H1163 H 0.43655 0.32357 0.9983 0.0
H1164 H 0.39328 0.34181 0.17133 0.0
H1165 H 0.4685 0.36897 0.11678 0.0
C1166 C 0.47483 0.37776 0.20254 0.0
C1167 C 0.46645 0.37668 0.25752 0.0
C1168 C 0.40267 0.3379 0.13317 0.0
C1169 C 0.43923 0.35843 0.16956 0.0
C1170 C 0.39152 0.32441 0.09173 0.0
C1171 C 0.4036 0.31859 0.0426 0.0
C1172 C 0.42593 0.34582 0.12506 0.0
C1173 C 0.42662 0.32731 0.03576 0.0
C1174 C 0.46133 0.36866 0.1586 0.0
C1175 C 0.44369 0.36752 0.26625 0.0
N1176 N 0.43701 0.34038 0.07647 0.0
N1177 N 0.43097 0.35856 0.22285 0.0
H1178 H 0.34766 0.68216 0.0267 0.0
H1179 H 0.38065 0.65267 0.7112 0.0
H1180 H 0.34342 0.73173 0.89055 0.0
H1181 H 0.40473 0.61166 0.85158 0.0
H1182 H 0.35576 0.67561 0.77361 0.0
H1183 H 0.35763 0.6512 0.96029 0.0
C1184 C 0.34826 0.68651 0.98271 0.0
C1185 C 0.34501 0.70982 0.96442 0.0
C1186 C 0.36605 0.66126 0.7907 0.0
C1187 C 0.35646 0.67418 0.88811 0.0
C1188 C 0.38014 0.648 0.75504 0.0
C1189 C 0.39501 0.63037 0.77633 0.0
C1190 C 0.36683 0.65699 0.8483 0.0
C1191 C 0.39354 0.62505 0.8334 0.0
C1192 C 0.35408 0.66875 0.94487 0.0
C1193 C 0.34596 0.71415 0.90677 0.0
N1194 N 0.38004 0.63863 0.86767 0.0
N1195 N 0.35185 0.69657 0.87081 0.0
H1196 H 0.1176 0.61999 0.47946 0.0
H1197 H 0.05958 0.63514 0.78001 0.0
H1198 H 0.13485 0.67597 0.59462 0.0
H1199 H 0.03011 0.59103 0.65047 0.0
H1200 H 0.0938 0.64258 0.7216 0.0
H1201 H 0.09294 0.6019 0.55085 0.0
C1202 C 0.11678 0.62821 0.52023 0.0
C1203 C 0.12807 0.64989 0.53046 0.0
C1204 C 0.08005 0.63101 0.70614 0.0
C1205 C 0.09957 0.62914 0.61243 0.0
C1206 C 0.06043 0.62669 0.73951 0.0
C1207 C 0.04164 0.61271 0.71982 0.0
C1208 C 0.08106 0.62135 0.65236 0.0
C1209 C 0.04405 0.60201 0.6673 0.0
C1210 C 0.10249 0.61788 0.56084 0.0
C1211 C 0.12639 0.65943 0.58441 0.0
N1212 N 0.06325 0.60682 0.63504 0.0
N1213 N 0.1121 0.64919 0.62301 0.0
H1214 H 0.04908 0.38461 0.36962 0.0
H1215 H 0.14698 0.28845 0.43402 0.0
H1216 H 0.10788 0.3709 0.26049 0.0
H1217 H 0.09298 0.30911 0.55057 0.0
H1218 H 0.13659 0.32236 0.37559 0.0
H1219 H 0.06867 0.36181 0.44262 0.0
C1220 C 0.0664 0.37741 0.36139 0.0
C1221 C 0.07655 0.37936 0.30824 0.0
C1222 C 0.12728 0.31966 0.41443 0.0
C1223 C 0.09888 0.35259 0.39143 0.0
C1224 C 0.13326 0.3003 0.44786 0.0
C1225 C 0.12062 0.29564 0.49689 0.0
C1226 C 0.10848 0.33439 0.43007 0.0
C1227 C 0.10299 0.31169 0.51269 0.0
C1228 C 0.07753 0.36416 0.40306 0.0
C1229 C 0.09911 0.36958 0.30043 0.0
N1230 N 0.09728 0.33008 0.47914 0.0
N1231 N 0.10925 0.35623 0.34102 0.0
loop_
_geom_bond_atom_site_label_1
_geom_bond_atom_site_label_2
_geom_bond_distance
_geom_bond_site_symmetry_2
_ccdc_geom_bond_type
O0 Zn1 1.953 . S
O0 C16 1.225 . S
Zn1 O0 1.953 . S
Zn1 O2 1.949 1_655 S
Zn1 O8 1.919 . S
Zn1 O13 1.924 . S
O2 Zn1 1.949 1_455 S
O2 Zn3 1.923 . S
O2 Zn4 1.950 . S
O2 Zn5 1.945 . S
Zn3 O2 1.923 . S
Zn3 O6 1.933 . S
Zn3 O9 1.941 . S
Zn3 O10 1.965 . S
Zn4 O2 1.950 . S
Zn4 O11 1.938 . S
Zn4 O12 1.906 . S
Zn4 O22 1.953 1_455 S
Zn5 O2 1.945 . S
Zn5 O7 1.932 1_554 S
Zn5 O14 1.977 . S
Zn5 O15 1.910 1_455 S
O6 Zn3 1.933 . S
O6 C17 1.226 . S
O7 Zn5 1.932 1_556 S
O7 C17 1.307 1_556 S
O8 Zn1 1.919 . S
O8 C19 1.253 1_655 S
O9 Zn3 1.941 . S
O9 C19 1.283 . S
O10 Zn3 1.965 . S
O10 C18 1.303 . S
O11 Zn4 1.938 . S
O11 C18 1.247 . S
O12 Zn4 1.906 . S
O12 C20 1.304 . S
O13 Zn1 1.924 . S
O13 C21 1.311 . S
O14 Zn5 1.977 . S
O14 C20 1.272 . S
O15 Zn5 1.910 1_655 S
O15 C21 1.231 . S
C16 O0 1.225 . S
C16 O22 1.298 . S
C17 O6 1.226 . S
C17 O7 1.307 1_554 S
C18 O10 1.303 . S
C18 O11 1.247 . S
C19 O8 1.253 1_455 S
C19 O9 1.283 . S
C20 O12 1.304 . S
C20 O14 1.272 . S
C21 O13 1.311 . S
C21 O15 1.231 . S
O22 Zn4 1.953 1_655 S
O22 C16 1.298 . S
O23 Zn24 1.953 . S
O23 C39 1.225 . S
Zn24 O23 1.953 . S
Zn24 O25 1.949 . S
Zn24 O31 1.919 . S
Zn24 O36 1.924 . S
O25 Zn24 1.949 . S
O25 Zn26 1.923 . S
O25 Zn27 1.950 . S
O25 Zn28 1.945 . S
Zn26 O25 1.923 . S
Zn26 O29 1.933 . S
Zn26 O32 1.941 . S
Zn26 O33 1.965 . S
Zn27 O25 1.950 . S
Zn27 O34 1.938 . S
Zn27 O35 1.906 . S
Zn27 O45 1.953 . S
Zn28 O25 1.945 . S
Zn28 O30 1.932 . S
Zn28 O37 1.977 . S
Zn28 O38 1.910 . S
O29 Zn26 1.933 . S
O29 C40 1.226 . S
O30 Zn28 1.932 . S
O30 C40 1.307 . S
O31 Zn24 1.919 . S
O31 C42 1.253 . S
O32 Zn26 1.941 . S
O32 C42 1.283 . S
O33 Zn26 1.965 . S
O33 C41 1.303 . S
O34 Zn27 1.938 . S
O34 C41 1.247 . S
O35 Zn27 1.906 . S
O35 C43 1.304 . S
O36 Zn24 1.924 . S
O36 C44 1.311 . S
O37 Zn28 1.977 . S
O37 C43 1.272 . S
O38 Zn28 1.910 . S
O38 C44 1.231 . S
C39 O23 1.225 . S
C39 O45 1.298 . S
C40 O29 1.226 . S
C40 O30 1.307 . S
C41 O33 1.303 . S
C41 O34 1.247 . S
C42 O31 1.253 . S
C42 O32 1.283 . S
C43 O35 1.304 . S
C43 O37 1.272 . S
C44 O36 1.311 . S
C44 O38 1.231 . S
O45 Zn27 1.953 . S
O45 C39 1.298 . S
O46 Zn47 1.953 . S
O46 C62 1.225 . S
Zn47 O46 1.953 . S
Zn47 O48 1.949 . S
Zn47 O54 1.919 . S
Zn47 O59 1.924 . S
O48 Zn47 1.949 . S
O48 Zn49 1.923 . S
O48 Zn50 1.950 . S
O48 Zn51 1.945 . S
Zn49 O48 1.923 . S
Zn49 O52 1.933 . S
Zn49 O55 1.941 . S
Zn49 O56 1.965 . S
Zn50 O48 1.950 . S
Zn50 O57 1.938 . S
Zn50 O58 1.906 . S
Zn50 O68 1.953 . S
Zn51 O48 1.945 . S
Zn51 O53 1.932 . S
Zn51 O60 1.977 . S
Zn51 O61 1.910 . S
O52 Zn49 1.933 . S
O52 C63 1.226 . S
O53 Zn51 1.932 . S
O53 C63 1.307 . S
O54 Zn47 1.919 . S
O54 C65 1.253 . S
O55 Zn49 1.941 . S
O55 C65 1.283 . S
O56 Zn49 1.965 . S
O56 C64 1.303 . S
O57 Zn50 1.938 . S
O57 C64 1.247 . S
O58 Zn50 1.906 . S
O58 C66 1.304 . S
O59 Zn47 1.924 . S
O59 C67 1.311 . S
O60 Zn51 1.977 . S
O60 C66 1.272 . S
O61 Zn51 1.910 . S
O61 C67 1.231 . S
C62 O46 1.225 . S
C62 O68 1.298 . S
C63 O52 1.226 . S
C63 O53 1.307 . S
C64 O56 1.303 . S
C64 O57 1.247 . S
C65 O54 1.253 . S
C65 O55 1.283 . S
C66 O58 1.304 . S
C66 O60 1.272 . S
C67 O59 1.311 . S
C67 O61 1.231 . S
O68 Zn50 1.953 . S
O68 C62 1.298 . S
O69 Zn70 1.953 . S
O69 C85 1.225 . S
Zn70 O69 1.953 . S
Zn70 O71 1.949 . S
Zn70 O77 1.919 . S
Zn70 O82 1.924 . S
O71 Zn70 1.949 . S
O71 Zn72 1.923 . S
O71 Zn73 1.950 . S
O71 Zn74 1.945 . S
Zn72 O71 1.923 . S
Zn72 O75 1.933 . S
Zn72 O78 1.941 . S
Zn72 O79 1.965 . S
Zn73 O71 1.950 . S
Zn73 O80 1.938 . S
Zn73 O81 1.906 . S
Zn73 O91 1.953 . S
Zn74 O71 1.945 . S
Zn74 O76 1.932 . S
Zn74 O83 1.977 . S
Zn74 O84 1.910 . S
O75 Zn72 1.933 . S
O75 C86 1.226 . S
O76 Zn74 1.932 . S
O76 C86 1.307 . S
O77 Zn70 1.919 . S
O77 C88 1.253 . S
O78 Zn72 1.941 . S
O78 C88 1.283 . S
O79 Zn72 1.965 . S
O79 C87 1.303 . S
O80 Zn73 1.938 . S
O80 C87 1.247 . S
O81 Zn73 1.906 . S
O81 C89 1.304 . S
O82 Zn70 1.924 . S
O82 C90 1.311 . S
O83 Zn74 1.977 . S
O83 C89 1.272 . S
O84 Zn74 1.910 . S
O84 C90 1.231 . S
C85 O69 1.225 . S
C85 O91 1.298 . S
C86 O75 1.226 . S
C86 O76 1.307 . S
C87 O79 1.303 . S
C87 O80 1.247 . S
C88 O77 1.253 . S
C88 O78 1.283 . S
C89 O81 1.304 . S
C89 O83 1.272 . S
C90 O82 1.311 . S
C90 O84 1.231 . S
O91 Zn73 1.953 . S
O91 C85 1.298 . S
O92 Zn93 1.953 . S
O92 C108 1.225 . S
Zn93 O92 1.953 . S
Zn93 O94 1.949 1_655 S
Zn93 O100 1.919 . S
Zn93 O105 1.924 . S
O94 Zn93 1.949 1_455 S
O94 Zn95 1.923 . S
O94 Zn96 1.950 . S
O94 Zn97 1.945 . S
Zn95 O94 1.923 . S
Zn95 O98 1.933 . S
Zn95 O101 1.941 . S
Zn95 O102 1.965 . S
Zn96 O94 1.950 . S
Zn96 O103 1.938 . S
Zn96 O104 1.906 . S
Zn96 O114 1.953 1_455 S
Zn97 O94 1.945 . S
Zn97 O99 1.932 1_556 S
Zn97 O106 1.977 . S
Zn97 O107 1.910 1_455 S
O98 Zn95 1.933 . S
O98 C109 1.226 . S
O99 Zn97 1.932 1_554 S
O99 C109 1.307 1_554 S
O100 Zn93 1.919 . S
O100 C111 1.253 1_655 S
O101 Zn95 1.941 . S
O101 C111 1.283 . S
O102 Zn95 1.965 . S
O102 C110 1.303 . S
O103 Zn96 1.938 . S
O103 C110 1.247 . S
O104 Zn96 1.906 . S
O104 C112 1.304 . S
O105 Zn93 1.924 . S
O105 C113 1.311 . S
O106 Zn97 1.977 . S
O106 C112 1.272 . S
O107 Zn97 1.910 1_655 S
O107 C113 1.231 . S
C108 O92 1.225 . S
C108 O114 1.298 . S
C109 O98 1.226 . S
C109 O99 1.307 1_556 S
C110 O102 1.303 . S
C110 O103 1.247 . S
C111 O100 1.253 1_455 S
C111 O101 1.283 . S
C112 O104 1.304 . S
C112 O106 1.272 . S
C113 O105 1.311 . S
C113 O107 1.231 . S
O114 Zn96 1.953 1_655 S
O114 C108 1.298 . S
O115 Zn116 1.953 . S
O115 C131 1.225 . S
Zn116 O115 1.953 . S
Zn116 O117 1.949 . S
Zn116 O123 1.919 . S
Zn116 O128 1.924 . S
O117 Zn116 1.949 . S
O117 Zn118 1.923 . S
O117 Zn119 1.950 . S
O117 Zn120 1.945 . S
Zn118 O117 1.923 . S
Zn118 O121 1.933 . S
Zn118 O124 1.941 . S
Zn118 O125 1.965 . S
Zn119 O117 1.950 . S
Zn119 O126 1.938 . S
Zn119 O127 1.906 . S
Zn119 O137 1.953 . S
Zn120 O117 1.945 . S
Zn120 O122 1.932 . S
Zn120 O129 1.977 . S
Zn120 O130 1.910 . S
O121 Zn118 1.933 . S
O121 C132 1.226 . S
O122 Zn120 1.932 . S
O122 C132 1.307 . S
O123 Zn116 1.919 . S
O123 C134 1.253 . S
O124 Zn118 1.941 . S
O124 C134 1.283 . S
O125 Zn118 1.965 . S
O125 C133 1.303 . S
O126 Zn119 1.938 . S
O126 C133 1.247 . S
O127 Zn119 1.906 . S
O127 C135 1.304 . S
O128 Zn116 1.924 . S
O128 C136 1.311 . S
O129 Zn120 1.977 . S
O129 C135 1.272 . S
O130 Zn120 1.910 . S
O130 C136 1.231 . S
C131 O115 1.225 . S
C131 O137 1.298 . S
C132 O121 1.226 . S
C132 O122 1.307 . S
C133 O125 1.303 . S
C133 O126 1.247 . S
C134 O123 1.253 . S
C134 O124 1.283 . S
C135 O127 1.304 . S
C135 O129 1.272 . S
C136 O128 1.311 . S
C136 O130 1.231 . S
O137 Zn119 1.953 . S
O137 C131 1.298 . S
O138 Zn139 1.953 . S
O138 C154 1.225 . S
Zn139 O138 1.953 . S
Zn139 O140 1.949 . S
Zn139 O146 1.919 . S
Zn139 O151 1.924 . S
O140 Zn139 1.949 . S
O140 Zn141 1.923 . S
O140 Zn142 1.950 . S
O140 Zn143 1.945 . S
Zn141 O140 1.923 . S
Zn141 O144 1.933 . S
Zn141 O147 1.941 . S
Zn141 O148 1.965 . S
Zn142 O140 1.950 . S
Zn142 O149 1.938 . S
Zn142 O150 1.906 . S
Zn142 O160 1.953 . S
Zn143 O140 1.945 . S
Zn143 O145 1.932 . S
Zn143 O152 1.977 . S
Zn143 O153 1.910 . S
O144 Zn141 1.933 . S
O144 C155 1.226 . S
O145 Zn143 1.932 . S
O145 C155 1.307 . S
O146 Zn139 1.919 . S
O146 C157 1.253 . S
O147 Zn141 1.941 . S
O147 C157 1.283 . S
O148 Zn141 1.965 . S
O148 C156 1.303 . S
O149 Zn142 1.938 . S
O149 C156 1.247 . S
O150 Zn142 1.906 . S
O150 C158 1.304 . S
O151 Zn139 1.924 . S
O151 C159 1.311 . S
O152 Zn143 1.977 . S
O152 C158 1.272 . S
O153 Zn143 1.910 . S
O153 C159 1.231 . S
C154 O138 1.225 . S
C154 O160 1.298 . S
C155 O144 1.226 . S
C155 O145 1.307 . S
C156 O148 1.303 . S
C156 O149 1.247 . S
C157 O146 1.253 . S
C157 O147 1.283 . S
C158 O150 1.304 . S
C158 O152 1.272 . S
C159 O151 1.311 . S
C159 O153 1.231 . S
O160 Zn142 1.953 . S
O160 C154 1.298 . S
O161 Zn162 1.953 . S
O161 C177 1.225 . S
Zn162 O161 1.953 . S
Zn162 O163 1.949 . S
Zn162 O169 1.919 . S
Zn162 O174 1.924 . S
O163 Zn162 1.949 . S
O163 Zn164 1.923 . S
O163 Zn165 1.950 . S
O163 Zn166 1.945 . S
Zn164 O163 1.923 . S
Zn164 O167 1.933 . S
Zn164 O170 1.941 . S
Zn164 O171 1.965 . S
Zn165 O163 1.950 . S
Zn165 O172 1.938 . S
Zn165 O173 1.906 . S
Zn165 O183 1.953 . S
Zn166 O163 1.945 . S
Zn166 O168 1.932 . S
Zn166 O175 1.977 . S
Zn166 O176 1.910 . S
O167 Zn164 1.933 . S
O167 C178 1.226 . S
O168 Zn166 1.932 . S
O168 C178 1.307 . S
O169 Zn162 1.919 . S
O169 C180 1.253 . S
O170 Zn164 1.941 . S
O170 C180 1.283 . S
O171 Zn164 1.965 . S
O171 C179 1.303 . S
O172 Zn165 1.938 . S
O172 C179 1.247 . S
O173 Zn165 1.906 . S
O173 C181 1.304 . S
O174 Zn162 1.924 . S
O174 C182 1.311 . S
O175 Zn166 1.977 . S
O175 C181 1.272 . S
O176 Zn166 1.910 . S
O176 C182 1.231 . S
C177 O161 1.225 . S
C177 O183 1.298 . S
C178 O167 1.226 . S
C178 O168 1.307 . S
C179 O171 1.303 . S
C179 O172 1.247 . S
C180 O169 1.253 . S
C180 O170 1.283 . S
C181 O173 1.304 . S
C181 O175 1.272 . S
C182 O174 1.311 . S
C182 O176 1.231 . S
O183 Zn165 1.953 . S
O183 C177 1.298 . S
O184 Zn185 1.953 . S
O184 C200 1.225 . S
Zn185 O184 1.953 . S
Zn185 O186 1.949 . S
Zn185 O192 1.919 . S
Zn185 O197 1.924 . S
O186 Zn185 1.949 . S
O186 Zn187 1.923 . S
O186 Zn188 1.950 . S
O186 Zn189 1.945 . S
Zn187 O186 1.923 . S
Zn187 O190 1.933 . S
Zn187 O193 1.941 . S
Zn187 O194 1.965 . S
Zn188 O186 1.950 . S
Zn188 O195 1.938 . S
Zn188 O196 1.906 . S
Zn188 O206 1.953 . S
Zn189 O186 1.945 . S
Zn189 O191 1.932 . S
Zn189 O198 1.977 . S
Zn189 O199 1.910 . S
O190 Zn187 1.933 . S
O190 C201 1.226 . S
O191 Zn189 1.932 . S
O191 C201 1.307 . S
O192 Zn185 1.919 . S
O192 C203 1.253 . S
O193 Zn187 1.941 . S
O193 C203 1.283 . S
O194 Zn187 1.965 . S
O194 C202 1.303 . S
O195 Zn188 1.938 . S
O195 C202 1.247 . S
O196 Zn188 1.906 . S
O196 C204 1.304 . S
O197 Zn185 1.924 . S
O197 C205 1.311 . S
O198 Zn189 1.977 . S
O198 C204 1.272 . S
O199 Zn189 1.910 . S
O199 C205 1.231 . S
C200 O184 1.225 . S
C200 O206 1.298 . S
C201 O190 1.226 . S
C201 O191 1.307 . S
C202 O194 1.303 . S
C202 O195 1.247 . S
C203 O192 1.253 . S
C203 O193 1.283 . S
C204 O196 1.304 . S
C204 O198 1.272 . S
C205 O197 1.311 . S
C205 O199 1.231 . S
O206 Zn188 1.953 . S
O206 C200 1.298 . S
O207 Zn208 1.953 . S
O207 C223 1.225 . S
Zn208 O207 1.953 . S
Zn208 O209 1.949 . S
Zn208 O215 1.919 . S
Zn208 O220 1.924 . S
O209 Zn208 1.949 . S
O209 Zn210 1.923 . S
O209 Zn211 1.950 . S
O209 Zn212 1.945 . S
Zn210 O209 1.923 . S
Zn210 O213 1.933 . S
Zn210 O216 1.941 . S
Zn210 O217 1.965 . S
Zn211 O209 1.950 . S
Zn211 O218 1.938 . S
Zn211 O219 1.906 . S
Zn211 O229 1.953 . S
Zn212 O209 1.945 . S
Zn212 O214 1.932 . S
Zn212 O221 1.977 . S
Zn212 O222 1.910 . S
O213 Zn210 1.933 . S
O213 C224 1.226 . S
O214 Zn212 1.932 . S
O214 C224 1.307 . S
O215 Zn208 1.919 . S
O215 C226 1.253 . S
O216 Zn210 1.941 . S
O216 C226 1.283 . S
O217 Zn210 1.965 . S
O217 C225 1.303 . S
O218 Zn211 1.938 . S
O218 C225 1.247 . S
O219 Zn211 1.906 . S
O219 C227 1.304 . S
O220 Zn208 1.924 . S
O220 C228 1.311 . S
O221 Zn212 1.977 . S
O221 C227 1.272 . S
O222 Zn212 1.910 . S
O222 C228 1.231 . S
C223 O207 1.225 . S
C223 O229 1.298 . S
C224 O213 1.226 . S
C224 O214 1.307 . S
C225 O217 1.303 . S
C225 O218 1.247 . S
C226 O215 1.253 . S
C226 O216 1.283 . S
C227 O219 1.304 . S
C227 O221 1.272 . S
C228 O220 1.311 . S
C228 O222 1.231 . S
O229 Zn211 1.953 . S
O229 C223 1.298 . S
O230 Zn231 1.953 . S
O230 C246 1.225 . S
Zn231 O230 1.953 . S
Zn231 O232 1.949 . S
Zn231 O238 1.919 . S
Zn231 O243 1.924 . S
O232 Zn231 1.949 . S
O232 Zn233 1.923 . S
O232 Zn234 1.950 . S
O232 Zn235 1.945 . S
Zn233 O232 1.923 . S
Zn233 O236 1.933 . S
Zn233 O239 1.941 . S
Zn233 O240 1.965 . S
Zn234 O232 1.950 . S
Zn234 O241 1.938 . S
Zn234 O242 1.906 . S
Zn234 O252 1.953 . S
Zn235 O232 1.945 . S
Zn235 O237 1.932 . S
Zn235 O244 1.977 . S
Zn235 O245 1.910 . S
O236 Zn233 1.933 . S
O236 C247 1.226 . S
O237 Zn235 1.932 . S
O237 C247 1.307 . S
O238 Zn231 1.919 . S
O238 C249 1.253 . S
O239 Zn233 1.941 . S
O239 C249 1.283 . S
O240 Zn233 1.965 . S
O240 C248 1.303 . S
O241 Zn234 1.938 . S
O241 C248 1.247 . S
O242 Zn234 1.906 . S
O242 C250 1.304 . S
O243 Zn231 1.924 . S
O243 C251 1.311 . S
O244 Zn235 1.977 . S
O244 C250 1.272 . S
O245 Zn235 1.910 . S
O245 C251 1.231 . S
C246 O230 1.225 . S
C246 O252 1.298 . S
C247 O236 1.226 . S
C247 O237 1.307 . S
C248 O240 1.303 . S
C248 O241 1.247 . S
C249 O238 1.253 . S
C249 O239 1.283 . S
C250 O242 1.304 . S
C250 O244 1.272 . S
C251 O243 1.311 . S
C251 O245 1.231 . S
O252 Zn234 1.953 . S
O252 C246 1.298 . S
O253 Zn254 1.953 . S
O253 C269 1.225 . S
Zn254 O253 1.953 . S
Zn254 O255 1.949 . S
Zn254 O261 1.919 . S
Zn254 O266 1.924 . S
O255 Zn254 1.949 . S
O255 Zn256 1.923 . S
O255 Zn257 1.950 . S
O255 Zn258 1.945 . S
Zn256 O255 1.923 . S
Zn256 O259 1.933 . S
Zn256 O262 1.941 . S
Zn256 O263 1.965 . S
Zn257 O255 1.950 . S
Zn257 O264 1.938 . S
Zn257 O265 1.906 . S
Zn257 O275 1.953 . S
Zn258 O255 1.945 . S
Zn258 O260 1.932 . S
Zn258 O267 1.977 . S
Zn258 O268 1.910 . S
O259 Zn256 1.933 . S
O259 C270 1.226 . S
O260 Zn258 1.932 . S
O260 C270 1.307 . S
O261 Zn254 1.919 . S
O261 C272 1.253 . S
O262 Zn256 1.941 . S
O262 C272 1.283 . S
O263 Zn256 1.965 . S
O263 C271 1.303 . S
O264 Zn257 1.938 . S
O264 C271 1.247 . S
O265 Zn257 1.906 . S
O265 C273 1.304 . S
O266 Zn254 1.924 . S
O266 C274 1.311 . S
O267 Zn258 1.977 . S
O267 C273 1.272 . S
O268 Zn258 1.910 . S
O268 C274 1.231 . S
C269 O253 1.225 . S
C269 O275 1.298 . S
C270 O259 1.226 . S
C270 O260 1.307 . S
C271 O263 1.303 . S
C271 O264 1.247 . S
C272 O261 1.253 . S
C272 O262 1.283 . S
C273 O265 1.304 . S
C273 O267 1.272 . S
C274 O266 1.311 . S
C274 O268 1.231 . S
O275 Zn257 1.953 . S
O275 C269 1.298 . S
O276 Zn277 1.953 . S
O276 C292 1.225 . S
Zn277 O276 1.953 . S
Zn277 O278 1.949 . S
Zn277 O284 1.919 . S
Zn277 O289 1.924 . S
O278 Zn277 1.949 . S
O278 Zn279 1.923 . S
O278 Zn280 1.950 . S
O278 Zn281 1.945 . S
Zn279 O278 1.923 . S
Zn279 O282 1.933 . S
Zn279 O285 1.941 . S
Zn279 O286 1.965 . S
Zn280 O278 1.950 . S
Zn280 O287 1.938 . S
Zn280 O288 1.906 . S
Zn280 O298 1.953 . S
Zn281 O278 1.945 . S
Zn281 O283 1.932 . S
Zn281 O290 1.977 . S
Zn281 O291 1.910 . S
O282 Zn279 1.933 . S
O282 C293 1.226 . S
O283 Zn281 1.932 . S
O283 C293 1.307 . S
O284 Zn277 1.919 . S
O284 C295 1.253 . S
O285 Zn279 1.941 . S
O285 C295 1.283 . S
O286 Zn279 1.965 . S
O286 C294 1.303 . S
O287 Zn280 1.938 . S
O287 C294 1.247 . S
O288 Zn280 1.906 . S
O288 C296 1.304 . S
O289 Zn277 1.924 . S
O289 C297 1.311 . S
O290 Zn281 1.977 . S
O290 C296 1.272 . S
O291 Zn281 1.910 . S
O291 C297 1.231 . S
C292 O276 1.225 . S
C292 O298 1.298 . S
C293 O282 1.226 . S
C293 O283 1.307 . S
C294 O286 1.303 . S
C294 O287 1.247 . S
C295 O284 1.253 . S
C295 O285 1.283 . S
C296 O288 1.304 . S
C296 O290 1.272 . S
C297 O289 1.311 . S
C297 O291 1.231 . S
O298 Zn280 1.953 . S
O298 C292 1.298 . S
O299 Zn300 1.953 . S
O299 C315 1.225 . S
Zn300 O299 1.953 . S
Zn300 O301 1.949 . S
Zn300 O307 1.919 . S
Zn300 O312 1.924 . S
O301 Zn300 1.949 . S
O301 Zn302 1.923 1_455 S
O301 Zn303 1.950 . S
O301 Zn304 1.945 . S
Zn302 O301 1.923 1_655 S
Zn302 O305 1.933 . S
Zn302 O308 1.941 . S
Zn302 O309 1.965 . S
Zn303 O301 1.950 . S
Zn303 O310 1.938 1_455 S
Zn303 O311 1.906 . S
Zn303 O321 1.953 . S
Zn304 O301 1.945 . S
Zn304 O306 1.932 1_454 S
Zn304 O313 1.977 . S
Zn304 O314 1.910 . S
O305 Zn302 1.933 . S
O305 C316 1.226 . S
O306 Zn304 1.932 1_656 S
O306 C316 1.307 1_556 S
O307 Zn300 1.919 . S
O307 C318 1.253 1_455 S
O308 Zn302 1.941 . S
O308 C318 1.283 . S
O309 Zn302 1.965 . S
O309 C317 1.303 . S
O310 Zn303 1.938 1_655 S
O310 C317 1.247 . S
O311 Zn303 1.906 . S
O311 C319 1.304 . S
O312 Zn300 1.924 . S
O312 C320 1.311 . S
O313 Zn304 1.977 . S
O313 C319 1.272 . S
O314 Zn304 1.910 . S
O314 C320 1.231 . S
C315 O299 1.225 . S
C315 O321 1.298 . S
C316 O305 1.226 . S
C316 O306 1.307 1_554 S
C317 O309 1.303 . S
C317 O310 1.247 . S
C318 O307 1.253 1_655 S
C318 O308 1.283 . S
C319 O311 1.304 . S
C319 O313 1.272 . S
C320 O312 1.311 . S
C320 O314 1.231 . S
O321 Zn303 1.953 . S
O321 C315 1.298 . S
O322 Zn323 1.953 . S
O322 C338 1.225 . S
Zn323 O322 1.953 . S
Zn323 O324 1.949 . S
Zn323 O330 1.919 . S
Zn323 O335 1.924 . S
O324 Zn323 1.949 . S
O324 Zn325 1.923 . S
O324 Zn326 1.950 . S
O324 Zn327 1.945 . S
Zn325 O324 1.923 . S
Zn325 O328 1.933 . S
Zn325 O331 1.941 . S
Zn325 O332 1.965 . S
Zn326 O324 1.950 . S
Zn326 O333 1.938 . S
Zn326 O334 1.906 . S
Zn326 O344 1.953 . S
Zn327 O324 1.945 . S
Zn327 O329 1.932 . S
Zn327 O336 1.977 . S
Zn327 O337 1.910 . S
O328 Zn325 1.933 . S
O328 C339 1.226 . S
O329 Zn327 1.932 . S
O329 C339 1.307 . S
O330 Zn323 1.919 . S
O330 C341 1.253 . S
O331 Zn325 1.941 . S
O331 C341 1.283 . S
O332 Zn325 1.965 . S
O332 C340 1.303 . S
O333 Zn326 1.938 . S
O333 C340 1.247 . S
O334 Zn326 1.906 . S
O334 C342 1.304 . S
O335 Zn323 1.924 . S
O335 C343 1.311 . S
O336 Zn327 1.977 . S
O336 C342 1.272 . S
O337 Zn327 1.910 . S
O337 C343 1.231 . S
C338 O322 1.225 . S
C338 O344 1.298 . S
C339 O328 1.226 . S
C339 O329 1.307 . S
C340 O332 1.303 . S
C340 O333 1.247 . S
C341 O330 1.253 . S
C341 O331 1.283 . S
C342 O334 1.304 . S
C342 O336 1.272 . S
C343 O335 1.311 . S
C343 O337 1.231 . S
O344 Zn326 1.953 . S
O344 C338 1.298 . S
O345 Zn346 1.953 . S
O345 C361 1.225 . S
Zn346 O345 1.953 . S
Zn346 O347 1.949 . S
Zn346 O353 1.919 . S
Zn346 O358 1.924 . S
O347 Zn346 1.949 . S
O347 Zn348 1.923 1_455 S
O347 Zn349 1.950 . S
O347 Zn350 1.945 . S
Zn348 O347 1.923 1_655 S
Zn348 O351 1.933 . S
Zn348 O354 1.941 . S
Zn348 O355 1.965 . S
Zn349 O347 1.950 . S
Zn349 O356 1.938 1_455 S
Zn349 O357 1.906 . S
Zn349 O367 1.953 . S
Zn350 O347 1.945 . S
Zn350 O352 1.932 1_456 S
Zn350 O359 1.977 . S
Zn350 O360 1.910 . S
O351 Zn348 1.933 . S
O351 C362 1.226 . S
O352 Zn350 1.932 1_654 S
O352 C362 1.307 1_554 S
O353 Zn346 1.919 . S
O353 C364 1.253 1_455 S
O354 Zn348 1.941 . S
O354 C364 1.283 . S
O355 Zn348 1.965 . S
O355 C363 1.303 . S
O356 Zn349 1.938 1_655 S
O356 C363 1.247 . S
O357 Zn349 1.906 . S
O357 C365 1.304 . S
O358 Zn346 1.924 . S
O358 C366 1.311 . S
O359 Zn350 1.977 . S
O359 C365 1.272 . S
O360 Zn350 1.910 . S
O360 C366 1.231 . S
C361 O345 1.225 . S
C361 O367 1.298 . S
C362 O351 1.226 . S
C362 O352 1.307 1_556 S
C363 O355 1.303 . S
C363 O356 1.247 . S
C364 O353 1.253 1_655 S
C364 O354 1.283 . S
C365 O357 1.304 . S
C365 O359 1.272 . S
C366 O358 1.311 . S
C366 O360 1.231 . S
O367 Zn349 1.953 . S
O367 C361 1.298 . S
H368 C374 0.930 . S
H369 C378 0.930 . S
H370 C383 0.929 1_554 S
H371 C381 0.929 . S
H372 C376 0.929 . S
H373 C382 0.929 . S
C374 H368 0.930 . S
C374 C375 1.367 . S
C374 C382 1.378 . S
C375 C374 1.367 . S
C375 C383 1.433 . S
C376 H372 0.929 . S
C376 C378 1.378 . S
C376 C380 1.350 . S
C377 C380 1.463 . S
C377 C382 1.350 . S
C377 N385 1.427 . S
C378 H369 0.930 . S
C378 C376 1.378 . S
C378 C379 1.367 . S
C379 C378 1.367 . S
C379 C381 1.433 . S
C380 C376 1.350 . S
C380 C377 1.463 . S
C380 N384 1.427 . S
C381 H371 0.929 . S
C381 C379 1.433 . S
C381 N384 1.384 . S
C382 H373 0.929 . S
C382 C374 1.378 . S
C382 C377 1.350 . S
C383 H370 0.929 1_556 S
C383 C375 1.433 . S
C383 N385 1.384 . S
N384 C380 1.427 . S
N384 C381 1.384 . S
N385 C377 1.427 . S
N385 C383 1.384 . S
H386 C392 0.930 . S
H387 C396 0.923 1_556 S
H388 C401 0.929 . S
H389 C399 0.929 . S
H390 C394 0.929 . S
H391 C400 0.929 . S
C392 H386 0.930 . S
C392 C393 1.367 . S
C392 C400 1.378 . S
C393 C392 1.367 . S
C393 C401 1.433 . S
C394 H390 0.929 . S
C394 C396 1.378 . S
C394 C398 1.350 . S
C395 C398 1.463 . S
C395 C400 1.350 . S
C395 N403 1.427 . S
C396 H387 0.923 1_554 S
C396 C394 1.378 . S
C396 C397 1.367 . S
C397 C396 1.367 . S
C397 C399 1.433 . S
C398 C394 1.350 . S
C398 C395 1.463 . S
C398 N402 1.427 . S
C399 H389 0.929 . S
C399 C397 1.433 . S
C399 N402 1.384 . S
C400 H391 0.929 . S
C400 C392 1.378 . S
C400 C395 1.350 . S
C401 H388 0.929 . S
C401 C393 1.433 . S
C401 N403 1.384 . S
N402 C398 1.427 . S
N402 C399 1.384 . S
N403 C395 1.427 . S
N403 C401 1.384 . S
H404 C410 0.930 . S
H405 C414 0.930 . S
H406 C419 0.929 . S
H407 C417 0.929 . S
H408 C412 0.929 . S
H409 C418 0.929 . S
C410 H404 0.930 . S
C410 C411 1.367 . S
C410 C418 1.378 . S
C411 C410 1.367 . S
C411 C419 1.433 . S
C412 H408 0.929 . S
C412 C414 1.378 . S
C412 C416 1.350 . S
C413 C416 1.463 . S
C413 C418 1.350 . S
C413 N421 1.427 . S
C414 H405 0.930 . S
C414 C412 1.378 . S
C414 C415 1.367 . S
C415 C414 1.367 . S
C415 C417 1.433 . S
C416 C412 1.350 . S
C416 C413 1.463 . S
C416 N420 1.427 . S
C417 H407 0.929 . S
C417 C415 1.433 . S
C417 N420 1.384 . S
C418 H409 0.929 . S
C418 C410 1.378 . S
C418 C413 1.350 . S
C419 H406 0.929 . S
C419 C411 1.433 . S
C419 N421 1.384 . S
N420 C416 1.427 . S
N420 C417 1.384 . S
N421 C413 1.427 . S
N421 C419 1.384 . S
H422 C428 0.930 . S
H423 C432 0.930 . S
H424 C437 0.929 . S
H425 C435 0.929 . S
H426 C430 0.929 . S
H427 C436 0.929 . S
C428 H422 0.930 . S
C428 C429 1.367 . S
C428 C436 1.378 . S
C429 C428 1.367 . S
C429 C437 1.433 . S
C430 H426 0.929 . S
C430 C432 1.378 . S
C430 C434 1.350 . S
C431 C434 1.463 . S
C431 C436 1.350 . S
C431 N439 1.427 . S
C432 H423 0.930 . S
C432 C430 1.378 . S
C432 C433 1.367 . S
C433 C432 1.367 . S
C433 C435 1.433 . S
C434 C430 1.350 . S
C434 C431 1.463 . S
C434 N438 1.427 . S
C435 H425 0.929 . S
C435 C433 1.433 . S
C435 N438 1.384 . S
C436 H427 0.929 . S
C436 C428 1.378 . S
C436 C431 1.350 . S
C437 H424 0.929 . S
C437 C429 1.433 . S
C437 N439 1.384 . S
N438 C434 1.427 . S
N438 C435 1.384 . S
N439 C431 1.427 . S
N439 C437 1.384 . S
H440 C446 0.930 . S
H441 C450 0.930 . S
H442 C455 0.929 . S
H443 C453 0.930 1_556 S
H444 C448 0.929 . S
H445 C454 0.929 . S
C446 H440 0.930 . S
C446 C447 1.367 . S
C446 C454 1.378 . S
C447 C446 1.367 . S
C447 C455 1.433 . S
C448 H444 0.929 . S
C448 C450 1.378 . S
C448 C452 1.350 . S
C449 C452 1.463 . S
C449 C454 1.350 . S
C449 N457 1.427 . S
C450 H441 0.930 . S
C450 C448 1.378 . S
C450 C451 1.367 . S
C451 C450 1.367 . S
C451 C453 1.433 . S
C452 C448 1.350 . S
C452 C449 1.463 . S
C452 N456 1.427 . S
C453 H443 0.930 1_554 S
C453 C451 1.433 . S
C453 N456 1.384 . S
C454 H445 0.929 . S
C454 C446 1.378 . S
C454 C449 1.350 . S
C455 H442 0.929 . S
C455 C447 1.433 . S
C455 N457 1.384 . S
N456 C452 1.427 . S
N456 C453 1.384 . S
N457 C449 1.427 . S
N457 C455 1.384 . S
H458 C464 0.930 . S
H459 C468 0.930 1_554 S
H460 C473 0.929 . S
H461 C471 0.929 . S
H462 C466 0.929 . S
H463 C472 0.929 . S
C464 H458 0.930 . S
C464 C465 1.367 . S
C464 C472 1.378 . S
C465 C464 1.367 . S
C465 C473 1.433 . S
C466 H462 0.929 . S
C466 C468 1.378 . S
C466 C470 1.350 . S
C467 C470 1.463 . S
C467 C472 1.350 . S
C467 N475 1.427 . S
C468 H459 0.930 1_556 S
C468 C466 1.378 . S
C468 C469 1.367 . S
C469 C468 1.367 . S
C469 C471 1.433 . S
C470 C466 1.350 . S
C470 C467 1.463 . S
C470 N474 1.427 . S
C471 H461 0.929 . S
C471 C469 1.433 . S
C471 N474 1.384 . S
C472 H463 0.929 . S
C472 C464 1.378 . S
C472 C467 1.350 . S
C473 H460 0.929 . S
C473 C465 1.433 . S
C473 N475 1.384 . S
N474 C470 1.427 . S
N474 C471 1.384 . S
N475 C467 1.427 . S
N475 C473 1.384 . S
H476 C482 0.930 . S
H477 C486 0.930 . S
H478 C491 0.929 . S
H479 C489 0.929 . S
H480 C484 0.929 . S
H481 C490 0.929 . S
C482 H476 0.930 . S
C482 C483 1.367 . S
C482 C490 1.378 . S
C483 C482 1.367 . S
C483 C491 1.433 . S
C484 H480 0.929 . S
C484 C486 1.378 . S
C484 C488 1.350 . S
C485 C488 1.463 . S
C485 C490 1.350 . S
C485 N493 1.427 . S
C486 H477 0.930 . S
C486 C484 1.378 . S
C486 C487 1.367 . S
C487 C486 1.367 . S
C487 C489 1.433 . S
C488 C484 1.350 . S
C488 C485 1.463 . S
C488 N492 1.427 . S
C489 H479 0.929 . S
C489 C487 1.433 . S
C489 N492 1.384 . S
C490 H481 0.929 . S
C490 C482 1.378 . S
C490 C485 1.350 . S
C491 H478 0.929 . S
C491 C483 1.433 . S
C491 N493 1.384 . S
N492 C488 1.427 . S
N492 C489 1.384 . S
N493 C485 1.427 . S
N493 C491 1.384 . S
H494 C500 0.930 . S
H495 C504 0.930 . S
H496 C509 0.929 . S
H497 C507 0.929 . S
H498 C502 0.929 . S
H499 C508 0.929 . S
C500 H494 0.930 . S
C500 C501 1.367 . S
C500 C508 1.378 . S
C501 C500 1.367 . S
C501 C509 1.433 . S
C502 H498 0.929 . S
C502 C504 1.378 . S
C502 C506 1.350 . S
C503 C506 1.463 . S
C503 C508 1.350 . S
C503 N511 1.427 . S
C504 H495 0.930 . S
C504 C502 1.378 . S
C504 C505 1.367 . S
C505 C504 1.367 . S
C505 C507 1.433 . S
C506 C502 1.350 . S
C506 C503 1.463 . S
C506 N510 1.427 . S
C507 H497 0.929 . S
C507 C505 1.433 . S
C507 N510 1.384 . S
C508 H499 0.929 . S
C508 C500 1.378 . S
C508 C503 1.350 . S
C509 H496 0.929 . S
C509 C501 1.433 . S
C509 N511 1.384 . S
N510 C506 1.427 . S
N510 C507 1.384 . S
N511 C503 1.427 . S
N511 C509 1.384 . S
H512 C518 0.930 . S
H513 C522 0.930 . S
H514 C527 0.929 . S
H515 C525 0.929 . S
H516 C520 0.929 . S
H517 C526 0.929 . S
C518 H512 0.930 . S
C518 C519 1.367 . S
C518 C526 1.378 . S
C519 C518 1.367 . S
C519 C527 1.433 . S
C520 H516 0.929 . S
C520 C522 1.378 . S
C520 C524 1.350 . S
C521 C524 1.463 . S
C521 C526 1.350 . S
C521 N529 1.427 . S
C522 H513 0.930 . S
C522 C520 1.378 . S
C522 C523 1.367 . S
C523 C522 1.367 . S
C523 C525 1.433 . S
C524 C520 1.350 . S
C524 C521 1.463 . S
C524 N528 1.427 . S
C525 H515 0.929 . S
C525 C523 1.433 . S
C525 N528 1.384 . S
C526 H517 0.929 . S
C526 C518 1.378 . S
C526 C521 1.350 . S
C527 H514 0.929 . S
C527 C519 1.433 . S
C527 N529 1.384 . S
N528 C524 1.427 . S
N528 C525 1.384 . S
N529 C521 1.427 . S
N529 C527 1.384 . S
H530 C536 0.930 . S
H531 C540 0.930 . S
H532 C545 0.929 . S
H533 C543 0.929 . S
H534 C538 0.929 . S
H535 C544 0.929 . S
C536 H530 0.930 . S
C536 C537 1.367 . S
C536 C544 1.378 . S
C537 C536 1.367 . S
C537 C545 1.433 . S
C538 H534 0.929 . S
C538 C540 1.378 . S
C538 C542 1.350 . S
C539 C542 1.463 . S
C539 C544 1.350 . S
C539 N547 1.427 . S
C540 H531 0.930 . S
C540 C538 1.378 . S
C540 C541 1.367 . S
C541 C540 1.367 . S
C541 C543 1.433 . S
C542 C538 1.350 . S
C542 C539 1.463 . S
C542 N546 1.427 . S
C543 H533 0.929 . S
C543 C541 1.433 . S
C543 N546 1.384 . S
C544 H535 0.929 . S
C544 C536 1.378 . S
C544 C539 1.350 . S
C545 H532 0.929 . S
C545 C537 1.433 . S
C545 N547 1.384 . S
N546 C542 1.427 . S
N546 C543 1.384 . S
N547 C539 1.427 . S
N547 C545 1.384 . S
H548 C554 0.930 1_554 S
H549 C558 0.930 . S
H550 C563 0.929 . S
H551 C561 0.929 . S
H552 C556 0.929 . S
H553 C562 0.929 . S
C554 H548 0.930 1_556 S
C554 C555 1.367 . S
C554 C562 1.378 . S
C555 C554 1.367 . S
C555 C563 1.433 . S
C556 H552 0.929 . S
C556 C558 1.378 . S
C556 C560 1.350 . S
C557 C560 1.463 . S
C557 C562 1.350 . S
C557 N565 1.427 . S
C558 H549 0.930 . S
C558 C556 1.378 . S
C558 C559 1.367 . S
C559 C558 1.367 . S
C559 C561 1.433 . S
C560 C556 1.350 . S
C560 C557 1.463 . S
C560 N564 1.427 . S
C561 H551 0.929 . S
C561 C559 1.433 . S
C561 N564 1.384 . S
C562 H553 0.929 . S
C562 C554 1.378 . S
C562 C557 1.350 . S
C563 H550 0.929 . S
C563 C555 1.433 . S
C563 N565 1.384 . S
N564 C560 1.427 . S
N564 C561 1.384 . S
N565 C557 1.427 . S
N565 C563 1.384 . S
H566 C572 0.930 . S
H567 C576 0.930 1_556 S
H568 C581 0.929 . S
H569 C579 0.929 . S
H570 C574 0.929 . S
H571 C580 0.929 . S
C572 H566 0.930 . S
C572 C573 1.367 . S
C572 C580 1.378 . S
C573 C572 1.367 . S
C573 C581 1.433 . S
C574 H570 0.929 . S
C574 C576 1.378 . S
C574 C578 1.350 . S
C575 C578 1.463 . S
C575 C580 1.350 . S
C575 N583 1.427 . S
C576 H567 0.930 1_554 S
C576 C574 1.378 . S
C576 C577 1.367 . S
C577 C576 1.367 . S
C577 C579 1.433 . S
C578 C574 1.350 . S
C578 C575 1.463 . S
C578 N582 1.427 . S
C579 H569 0.929 . S
C579 C577 1.433 . S
C579 N582 1.384 . S
C580 H571 0.929 . S
C580 C572 1.378 . S
C580 C575 1.350 . S
C581 H568 0.929 . S
C581 C573 1.433 . S
C581 N583 1.384 . S
N582 C578 1.427 . S
N582 C579 1.384 . S
N583 C575 1.427 . S
N583 C581 1.384 . S
H584 C590 0.930 . S
H585 C594 0.930 . S
H586 C599 0.929 . S
H587 C597 0.929 . S
H588 C592 0.929 . S
H589 C598 0.929 . S
C590 H584 0.930 . S
C590 C591 1.367 . S
C590 C598 1.378 . S
C591 C590 1.367 . S
C591 C599 1.433 . S
C592 H588 0.929 . S
C592 C594 1.378 . S
C592 C596 1.350 . S
C593 C596 1.463 . S
C593 C598 1.350 . S
C593 N601 1.427 . S
C594 H585 0.930 . S
C594 C592 1.378 . S
C594 C595 1.367 . S
C595 C594 1.367 . S
C595 C597 1.433 . S
C596 C592 1.350 . S
C596 C593 1.463 . S
C596 N600 1.427 . S
C597 H587 0.929 . S
C597 C595 1.433 . S
C597 N600 1.384 . S
C598 H589 0.929 . S
C598 C590 1.378 . S
C598 C593 1.350 . S
C599 H586 0.929 . S
C599 C591 1.433 . S
C599 N601 1.384 . S
N600 C596 1.427 . S
N600 C597 1.384 . S
N601 C593 1.427 . S
N601 C599 1.384 . S
H602 C608 0.930 . S
H603 C612 0.930 . S
H604 C617 0.929 . S
H605 C615 0.929 . S
H606 C610 0.929 . S
H607 C616 0.929 . S
C608 H602 0.930 . S
C608 C609 1.367 . S
C608 C616 1.378 . S
C609 C608 1.367 . S
C609 C617 1.433 . S
C610 H606 0.929 . S
C610 C612 1.378 . S
C610 C614 1.350 . S
C611 C614 1.463 . S
C611 C616 1.350 . S
C611 N619 1.427 . S
C612 H603 0.930 . S
C612 C610 1.378 . S
C612 C613 1.367 . S
C613 C612 1.367 . S
C613 C615 1.433 . S
C614 C610 1.350 . S
C614 C611 1.463 . S
C614 N618 1.427 . S
C615 H605 0.929 . S
C615 C613 1.433 . S
C615 N618 1.384 . S
C616 H607 0.929 . S
C616 C608 1.378 . S
C616 C611 1.350 . S
C617 H604 0.929 . S
C617 C609 1.433 . S
C617 N619 1.384 . S
N618 C614 1.427 . S
N618 C615 1.384 . S
N619 C611 1.427 . S
N619 C617 1.384 . S
H620 C626 0.930 . S
H621 C630 0.930 1_556 S
H622 C635 0.929 . S
H623 C633 0.929 . S
H624 C628 0.929 . S
H625 C634 0.929 . S
C626 H620 0.930 . S
C626 C627 1.367 . S
C626 C634 1.378 . S
C627 C626 1.367 . S
C627 C635 1.433 . S
C628 H624 0.929 . S
C628 C630 1.378 . S
C628 C632 1.350 . S
C629 C632 1.463 . S
C629 C634 1.350 . S
C629 N637 1.427 . S
C630 H621 0.930 1_554 S
C630 C628 1.378 . S
C630 C631 1.367 . S
C631 C630 1.367 . S
C631 C633 1.433 . S
C632 C628 1.350 . S
C632 C629 1.463 . S
C632 N636 1.427 . S
C633 H623 0.929 . S
C633 C631 1.433 . S
C633 N636 1.384 . S
C634 H625 0.929 . S
C634 C626 1.378 . S
C634 C629 1.350 . S
C635 H622 0.929 . S
C635 C627 1.433 . S
C635 N637 1.384 . S
N636 C632 1.427 . S
N636 C633 1.384 . S
N637 C629 1.427 . S
N637 C635 1.384 . S
H638 C644 0.930 . S
H639 C648 0.930 1_554 S
H640 C653 0.929 . S
H641 C651 0.929 . S
H642 C646 0.929 . S
H643 C652 0.929 . S
C644 H638 0.930 . S
C644 C645 1.367 . S
C644 C652 1.378 . S
C645 C644 1.367 . S
C645 C653 1.433 . S
C646 H642 0.929 . S
C646 C648 1.378 . S
C646 C650 1.350 . S
C647 C650 1.463 . S
C647 C652 1.350 . S
C647 N655 1.427 . S
C648 H639 0.930 1_556 S
C648 C646 1.378 . S
C648 C649 1.367 . S
C649 C648 1.367 . S
C649 C651 1.433 . S
C650 C646 1.350 . S
C650 C647 1.463 . S
C650 N654 1.427 . S
C651 H641 0.929 . S
C651 C649 1.433 . S
C651 N654 1.384 . S
C652 H643 0.929 . S
C652 C644 1.378 . S
C652 C647 1.350 . S
C653 H640 0.929 . S
C653 C645 1.433 . S
C653 N655 1.384 . S
N654 C650 1.427 . S
N654 C651 1.384 . S
N655 C647 1.427 . S
N655 C653 1.384 . S
H656 C662 0.930 . S
H657 C666 0.930 . S
H658 C671 0.929 . S
H659 C669 0.929 . S
H660 C664 0.929 . S
H661 C670 0.929 . S
C662 H656 0.930 . S
C662 C663 1.367 . S
C662 C670 1.378 . S
C663 C662 1.367 . S
C663 C671 1.433 . S
C664 H660 0.929 . S
C664 C666 1.378 . S
C664 C668 1.350 . S
C665 C668 1.463 . S
C665 C670 1.350 1_455 S
C665 N673 1.427 . S
C666 H657 0.930 . S
C666 C664 1.378 . S
C666 C667 1.367 . S
C667 C666 1.367 . S
C667 C669 1.433 . S
C668 C664 1.350 . S
C668 C665 1.463 . S
C668 N672 1.427 . S
C669 H659 0.929 . S
C669 C667 1.433 . S
C669 N672 1.384 . S
C670 H661 0.929 . S
C670 C662 1.378 . S
C670 C665 1.350 1_655 S
C671 H658 0.929 . S
C671 C663 1.433 . S
C671 N673 1.384 1_655 S
N672 C668 1.427 . S
N672 C669 1.384 . S
N673 C665 1.427 . S
N673 C671 1.384 1_455 S
H674 C680 0.930 . S
H675 C684 0.930 . S
H676 C689 0.929 . S
H677 C687 0.929 . S
H678 C682 0.929 . S
H679 C688 0.929 . S
C680 H674 0.930 . S
C680 C681 1.367 . S
C680 C688 1.378 . S
C681 C680 1.367 . S
C681 C689 1.433 . S
C682 H678 0.929 . S
C682 C684 1.378 . S
C682 C686 1.350 . S
C683 C686 1.463 1_655 S
C683 C688 1.350 . S
C683 N691 1.427 . S
C684 H675 0.930 . S
C684 C682 1.378 . S
C684 C685 1.367 . S
C685 C684 1.367 . S
C685 C687 1.433 . S
C686 C682 1.350 . S
C686 C683 1.463 1_455 S
C686 N690 1.427 . S
C687 H677 0.929 . S
C687 C685 1.433 . S
C687 N690 1.384 . S
C688 H679 0.929 . S
C688 C680 1.378 . S
C688 C683 1.350 . S
C689 H676 0.929 . S
C689 C681 1.433 . S
C689 N691 1.384 . S
N690 C686 1.427 . S
N690 C687 1.384 . S
N691 C683 1.427 . S
N691 C689 1.384 . S
H692 C698 0.930 . S
H693 C702 0.930 . S
H694 C707 0.929 . S
H695 C705 0.929 . S
H696 C700 0.929 . S
H697 C706 0.929 . S
C698 H692 0.930 . S
C698 C699 1.367 . S
C698 C706 1.378 . S
C699 C698 1.367 . S
C699 C707 1.433 . S
C700 H696 0.929 . S
C700 C702 1.378 . S
C700 C704 1.350 . S
C701 C704 1.463 . S
C701 C706 1.350 . S
C701 N709 1.427 . S
C702 H693 0.930 . S
C702 C700 1.378 . S
C702 C703 1.367 . S
C703 C702 1.367 . S
C703 C705 1.433 . S
C704 C700 1.350 . S
C704 C701 1.463 . S
C704 N708 1.427 . S
C705 H695 0.929 . S
C705 C703 1.433 . S
C705 N708 1.384 . S
C706 H697 0.929 . S
C706 C698 1.378 . S
C706 C701 1.350 . S
C707 H694 0.929 . S
C707 C699 1.433 . S
C707 N709 1.384 . S
N708 C704 1.427 . S
N708 C705 1.384 . S
N709 C701 1.427 . S
N709 C707 1.384 . S
H710 C716 0.930 . S
H711 C720 0.930 . S
H712 C725 0.929 . S
H713 C723 0.929 . S
H714 C718 0.929 . S
H715 C724 0.929 . S
C716 H710 0.930 . S
C716 C717 1.367 . S
C716 C724 1.378 . S
C717 C716 1.367 . S
C717 C725 1.433 . S
C718 H714 0.929 . S
C718 C720 1.378 . S
C718 C722 1.350 . S
C719 C722 1.463 . S
C719 C724 1.350 . S
C719 N727 1.427 . S
C720 H711 0.930 . S
C720 C718 1.378 . S
C720 C721 1.367 . S
C721 C720 1.367 . S
C721 C723 1.433 . S
C722 C718 1.350 . S
C722 C719 1.463 . S
C722 N726 1.427 . S
C723 H713 0.929 . S
C723 C721 1.433 . S
C723 N726 1.384 . S
C724 H715 0.929 . S
C724 C716 1.378 . S
C724 C719 1.350 . S
C725 H712 0.929 . S
C725 C717 1.433 . S
C725 N727 1.384 . S
N726 C722 1.427 . S
N726 C723 1.384 . S
N727 C719 1.427 . S
N727 C725 1.384 . S
H728 C734 0.930 . S
H729 C738 0.930 . S
H730 C743 0.929 . S
H731 C741 0.929 . S
H732 C736 0.929 . S
H733 C742 0.929 1_655 S
C734 H728 0.930 . S
C734 C735 1.367 . S
C734 C742 1.378 . S
C735 C734 1.367 . S
C735 C743 1.433 . S
C736 H732 0.929 . S
C736 C738 1.378 . S
C736 C740 1.350 . S
C737 C740 1.463 . S
C737 C742 1.350 . S
C737 N745 1.427 . S
C738 H729 0.930 . S
C738 C736 1.378 . S
C738 C739 1.367 1_455 S
C739 C738 1.367 1_655 S
C739 C741 1.433 . S
C740 C736 1.350 . S
C740 C737 1.463 . S
C740 N744 1.427 1_455 S
C741 H731 0.929 . S
C741 C739 1.433 . S
C741 N744 1.384 . S
C742 H733 0.929 1_455 S
C742 C734 1.378 . S
C742 C737 1.350 . S
C743 H730 0.929 . S
C743 C735 1.433 . S
C743 N745 1.384 . S
N744 C740 1.427 1_655 S
N744 C741 1.384 . S
N745 C737 1.427 . S
N745 C743 1.384 . S
H746 C752 0.930 . S
H747 C756 0.930 . S
H748 C761 0.929 . S
H749 C759 0.929 . S
H750 C754 0.929 . S
H751 C760 0.929 . S
C752 H746 0.930 . S
C752 C753 1.367 . S
C752 C760 1.378 . S
C753 C752 1.367 . S
C753 C761 1.433 . S
C754 H750 0.929 . S
C754 C756 1.378 . S
C754 C758 1.350 . S
C755 C758 1.463 . S
C755 C760 1.350 . S
C755 N763 1.427 . S
C756 H747 0.930 . S
C756 C754 1.378 . S
C756 C757 1.367 . S
C757 C756 1.367 . S
C757 C759 1.433 . S
C758 C754 1.350 . S
C758 C755 1.463 . S
C758 N762 1.427 . S
C759 H749 0.929 . S
C759 C757 1.433 . S
C759 N762 1.384 . S
C760 H751 0.929 . S
C760 C752 1.378 . S
C760 C755 1.350 . S
C761 H748 0.929 . S
C761 C753 1.433 . S
C761 N763 1.384 . S
N762 C758 1.427 . S
N762 C759 1.384 . S
N763 C755 1.427 . S
N763 C761 1.384 . S
H764 C770 0.930 . S
H765 C774 0.930 . S
H766 C779 0.929 . S
H767 C777 0.929 . S
H768 C772 0.929 . S
H769 C778 0.929 . S
C770 H764 0.930 . S
C770 C771 1.367 . S
C770 C778 1.378 . S
C771 C770 1.367 . S
C771 C779 1.433 . S
C772 H768 0.929 . S
C772 C774 1.378 . S
C772 C776 1.350 . S
C773 C776 1.463 . S
C773 C778 1.350 . S
C773 N781 1.427 . S
C774 H765 0.930 . S
C774 C772 1.378 . S
C774 C775 1.367 . S
C775 C774 1.367 . S
C775 C777 1.433 . S
C776 C772 1.350 . S
C776 C773 1.463 . S
C776 N780 1.427 . S
C777 H767 0.929 . S
C777 C775 1.433 . S
C777 N780 1.384 . S
C778 H769 0.929 . S
C778 C770 1.378 . S
C778 C773 1.350 . S
C779 H766 0.929 . S
C779 C771 1.433 . S
C779 N781 1.384 . S
N780 C776 1.427 . S
N780 C777 1.384 . S
N781 C773 1.427 . S
N781 C779 1.384 . S
H782 C788 0.930 . S
H783 C792 0.930 . S
H784 C797 0.929 . S
H785 C795 0.929 . S
H786 C790 0.911 1_455 S
H787 C796 0.929 . S
C788 H782 0.930 . S
C788 C789 1.367 . S
C788 C796 1.378 . S
C789 C788 1.367 . S
C789 C797 1.433 . S
C790 H786 0.911 1_655 S
C790 C792 1.378 . S
C790 C794 1.350 . S
C791 C794 1.463 1_455 S
C791 C796 1.350 . S
C791 N799 1.427 . S
C792 H783 0.930 . S
C792 C790 1.378 . S
C792 C793 1.367 . S
C793 C792 1.367 . S
C793 C795 1.433 . S
C794 C790 1.350 . S
C794 C791 1.463 1_655 S
C794 N798 1.427 . S
C795 H785 0.929 . S
C795 C793 1.433 . S
C795 N798 1.384 . S
C796 H787 0.929 . S
C796 C788 1.378 . S
C796 C791 1.350 . S
C797 H784 0.929 . S
C797 C789 1.433 . S
C797 N799 1.384 . S
N798 C794 1.427 . S
N798 C795 1.384 . S
N799 C791 1.427 . S
N799 C797 1.384 . S
H800 C806 0.930 . S
H801 C810 0.930 . S
H802 C815 0.929 . S
H803 C813 0.929 . S
H804 C808 0.929 1_545 S
H805 C814 0.929 1_565 S
C806 H800 0.930 . S
C806 C807 1.367 . S
C806 C814 1.378 . S
C807 C806 1.367 . S
C807 C815 1.433 . S
C808 H804 0.929 1_565 S
C808 C810 1.378 . S
C808 C812 1.350 . S
C809 C812 1.463 1_544 S
C809 C814 1.350 . S
C809 N817 1.427 1_554 S
C810 H801 0.930 . S
C810 C808 1.378 . S
C810 C811 1.367 . S
C811 C810 1.367 . S
C811 C813 1.433 . S
C812 C808 1.350 . S
C812 C809 1.463 1_566 S
C812 N816 1.427 1_556 S
C813 H803 0.929 . S
C813 C811 1.433 . S
C813 N816 1.384 1_556 S
C814 H805 0.929 1_545 S
C814 C806 1.378 . S
C814 C809 1.350 . S
C815 H802 0.929 . S
C815 C807 1.433 . S
C815 N817 1.384 1_554 S
N816 C812 1.427 1_554 S
N816 C813 1.384 1_554 S
N817 C809 1.427 1_556 S
N817 C815 1.384 1_556 S
H818 C824 0.930 . S
H819 C828 0.930 . S
H820 C833 0.929 . S
H821 C831 0.929 . S
H822 C826 0.929 . S
H823 C832 0.929 . S
C824 H818 0.930 . S
C824 C825 1.367 . S
C824 C832 1.378 . S
C825 C824 1.367 . S
C825 C833 1.433 . S
C826 H822 0.929 . S
C826 C828 1.378 . S
C826 C830 1.350 . S
C827 C830 1.463 . S
C827 C832 1.350 . S
C827 N835 1.427 . S
C828 H819 0.930 . S
C828 C826 1.378 . S
C828 C829 1.367 . S
C829 C828 1.367 . S
C829 C831 1.433 . S
C830 C826 1.350 . S
C830 C827 1.463 . S
C830 N834 1.427 . S
C831 H821 0.929 . S
C831 C829 1.433 . S
C831 N834 1.384 . S
C832 H823 0.929 . S
C832 C824 1.378 . S
C832 C827 1.350 . S
C833 H820 0.929 . S
C833 C825 1.433 . S
C833 N835 1.384 . S
N834 C830 1.427 . S
N834 C831 1.384 . S
N835 C827 1.427 . S
N835 C833 1.384 . S
H836 C842 0.930 . S
H837 C846 0.930 . S
H838 C851 0.929 . S
H839 C849 0.929 . S
H840 C844 0.929 . S
H841 C850 0.929 . S
C842 H836 0.930 . S
C842 C843 1.367 . S
C842 C850 1.378 . S
C843 C842 1.367 . S
C843 C851 1.433 . S
C844 H840 0.929 . S
C844 C846 1.378 . S
C844 C848 1.350 . S
C845 C848 1.463 1_545 S
C845 C850 1.350 . S
C845 N853 1.427 . S
C846 H837 0.930 . S
C846 C844 1.378 . S
C846 C847 1.367 . S
C847 C846 1.367 . S
C847 C849 1.433 . S
C848 C844 1.350 . S
C848 C845 1.463 1_565 S
C848 N852 1.427 . S
C849 H839 0.929 . S
C849 C847 1.433 . S
C849 N852 1.384 . S
C850 H841 0.929 . S
C850 C842 1.378 . S
C850 C845 1.350 . S
C851 H838 0.929 . S
C851 C843 1.433 . S
C851 N853 1.384 . S
N852 C848 1.427 . S
N852 C849 1.384 . S
N853 C845 1.427 . S
N853 C851 1.384 . S
H854 C860 0.930 . S
H855 C864 0.930 . S
H856 C869 0.929 . S
H857 C867 0.929 . S
H858 C862 0.929 . S
H859 C868 0.929 . S
C860 H854 0.930 . S
C860 C861 1.367 . S
C860 C868 1.378 . S
C861 C860 1.367 . S
C861 C869 1.433 . S
C862 H858 0.929 . S
C862 C864 1.378 . S
C862 C866 1.350 . S
C863 C866 1.463 . S
C863 C868 1.350 . S
C863 N871 1.427 . S
C864 H855 0.930 . S
C864 C862 1.378 . S
C864 C865 1.367 . S
C865 C864 1.367 . S
C865 C867 1.433 . S
C866 C862 1.350 . S
C866 C863 1.463 . S
C866 N870 1.427 . S
C867 H857 0.929 . S
C867 C865 1.433 . S
C867 N870 1.384 . S
C868 H859 0.929 . S
C868 C860 1.378 . S
C868 C863 1.350 . S
C869 H856 0.929 . S
C869 C861 1.433 . S
C869 N871 1.384 . S
N870 C866 1.427 . S
N870 C867 1.384 . S
N871 C863 1.427 . S
N871 C869 1.384 . S
H872 C878 0.930 . S
H873 C882 0.930 . S
H874 C887 0.929 . S
H875 C885 0.929 . S
H876 C880 0.929 . S
H877 C886 0.929 . S
C878 H872 0.930 . S
C878 C879 1.367 . S
C878 C886 1.378 . S
C879 C878 1.367 . S
C879 C887 1.433 . S
C880 H876 0.929 . S
C880 C882 1.378 . S
C880 C884 1.350 . S
C881 C884 1.463 . S
C881 C886 1.350 . S
C881 N889 1.427 . S
C882 H873 0.930 . S
C882 C880 1.378 . S
C882 C883 1.367 . S
C883 C882 1.367 . S
C883 C885 1.433 . S
C884 C880 1.350 . S
C884 C881 1.463 . S
C884 N888 1.427 . S
C885 H875 0.929 . S
C885 C883 1.433 . S
C885 N888 1.384 . S
C886 H877 0.929 . S
C886 C878 1.378 . S
C886 C881 1.350 . S
C887 H874 0.929 . S
C887 C879 1.433 . S
C887 N889 1.384 . S
N888 C884 1.427 . S
N888 C885 1.384 . S
N889 C881 1.427 . S
N889 C887 1.384 . S
H890 C896 0.930 . S
H891 C900 0.930 . S
H892 C905 0.929 . S
H893 C903 0.929 . S
H894 C898 0.929 . S
H895 C904 0.929 . S
C896 H890 0.930 . S
C896 C897 1.367 . S
C896 C904 1.378 . S
C897 C896 1.367 . S
C897 C905 1.433 . S
C898 H894 0.929 . S
C898 C900 1.378 . S
C898 C902 1.350 . S
C899 C902 1.463 . S
C899 C904 1.350 . S
C899 N907 1.427 . S
C900 H891 0.930 . S
C900 C898 1.378 . S
C900 C901 1.367 . S
C901 C900 1.367 . S
C901 C903 1.433 . S
C902 C898 1.350 . S
C902 C899 1.463 . S
C902 N906 1.427 . S
C903 H893 0.929 . S
C903 C901 1.433 . S
C903 N906 1.384 . S
C904 H895 0.929 . S
C904 C896 1.378 . S
C904 C899 1.350 . S
C905 H892 0.929 . S
C905 C897 1.433 . S
C905 N907 1.384 . S
N906 C902 1.427 . S
N906 C903 1.384 . S
N907 C899 1.427 . S
N907 C905 1.384 . S
H908 C914 0.930 . S
H909 C918 0.930 . S
H910 C923 0.929 . S
H911 C921 0.929 . S
H912 C916 0.929 . S
H913 C922 0.929 . S
C914 H908 0.930 . S
C914 C915 1.367 . S
C914 C922 1.378 . S
C915 C914 1.367 . S
C915 C923 1.433 . S
C916 H912 0.929 . S
C916 C918 1.378 . S
C916 C920 1.350 . S
C917 C920 1.463 . S
C917 C922 1.350 . S
C917 N925 1.427 . S
C918 H909 0.930 . S
C918 C916 1.378 . S
C918 C919 1.367 . S
C919 C918 1.367 . S
C919 C921 1.433 . S
C920 C916 1.350 . S
C920 C917 1.463 . S
C920 N924 1.427 . S
C921 H911 0.929 . S
C921 C919 1.433 . S
C921 N924 1.384 . S
C922 H913 0.929 . S
C922 C914 1.378 . S
C922 C917 1.350 . S
C923 H910 0.929 . S
C923 C915 1.433 . S
C923 N925 1.384 . S
N924 C920 1.427 . S
N924 C921 1.384 . S
N925 C917 1.427 . S
N925 C923 1.384 . S
H926 C932 0.930 . S
H927 C936 0.930 . S
H928 C941 0.929 . S
H929 C939 0.929 . S
H930 C934 0.929 . S
H931 C940 0.929 . S
C932 H926 0.930 . S
C932 C933 1.367 1_455 S
C932 C940 1.378 1_556 S
C933 C932 1.367 1_655 S
C933 C941 1.433 . S
C934 H930 0.929 . S
C934 C936 1.378 1_556 S
C934 C938 1.350 1_556 S
C935 C938 1.463 1_556 S
C935 C940 1.350 1_656 S
C935 N943 1.427 . S
C936 H927 0.930 . S
C936 C934 1.378 1_554 S
C936 C937 1.367 . S
C937 C936 1.367 . S
C937 C939 1.433 1_655 S
C938 C934 1.350 1_554 S
C938 C935 1.463 1_554 S
C938 N942 1.427 1_655 S
C939 H929 0.929 . S
C939 C937 1.433 1_455 S
C939 N942 1.384 . S
C940 H931 0.929 . S
C940 C932 1.378 1_554 S
C940 C935 1.350 1_454 S
C941 H928 0.929 . S
C941 C933 1.433 . S
C941 N943 1.384 . S
N942 C938 1.427 1_455 S
N942 C939 1.384 . S
N943 C935 1.427 . S
N943 C941 1.384 . S
H944 C950 0.930 . S
H945 C954 0.930 . S
H946 C959 0.929 . S
H947 C957 0.929 . S
H948 C952 0.929 . S
H949 C958 0.929 . S
C950 H944 0.930 . S
C950 C951 1.367 . S
C950 C958 1.378 . S
C951 C950 1.367 . S
C951 C959 1.433 . S
C952 H948 0.929 . S
C952 C954 1.378 . S
C952 C956 1.350 . S
C953 C956 1.463 . S
C953 C958 1.350 . S
C953 N961 1.427 . S
C954 H945 0.930 . S
C954 C952 1.378 . S
C954 C955 1.367 . S
C955 C954 1.367 . S
C955 C957 1.433 . S
C956 C952 1.350 . S
C956 C953 1.463 . S
C956 N960 1.427 . S
C957 H947 0.929 . S
C957 C955 1.433 . S
C957 N960 1.384 . S
C958 H949 0.929 . S
C958 C950 1.378 . S
C958 C953 1.350 . S
C959 H946 0.929 . S
C959 C951 1.433 . S
C959 N961 1.384 . S
N960 C956 1.427 . S
N960 C957 1.384 . S
N961 C953 1.427 . S
N961 C959 1.384 . S
H962 C968 0.930 . S
H963 C972 0.930 . S
H964 C977 0.929 . S
H965 C975 0.929 . S
H966 C970 0.929 . S
H967 C976 0.929 . S
C968 H962 0.930 . S
C968 C969 1.367 . S
C968 C976 1.378 . S
C969 C968 1.367 . S
C969 C977 1.433 . S
C970 H966 0.929 . S
C970 C972 1.378 . S
C970 C974 1.350 . S
C971 C974 1.463 . S
C971 C976 1.350 . S
C971 N979 1.427 . S
C972 H963 0.930 . S
C972 C970 1.378 . S
C972 C973 1.367 . S
C973 C972 1.367 . S
C973 C975 1.433 . S
C974 C970 1.350 . S
C974 C971 1.463 . S
C974 N978 1.427 . S
C975 H965 0.929 . S
C975 C973 1.433 . S
C975 N978 1.384 . S
C976 H967 0.929 . S
C976 C968 1.378 . S
C976 C971 1.350 . S
C977 H964 0.929 . S
C977 C969 1.433 . S
C977 N979 1.384 . S
N978 C974 1.427 . S
N978 C975 1.384 . S
N979 C971 1.427 . S
N979 C977 1.384 . S
H980 C986 0.930 1_554 S
H981 C990 0.930 . S
H982 C995 0.929 . S
H983 C993 0.929 . S
H984 C988 0.929 . S
H985 C994 0.929 . S
C986 H980 0.930 1_556 S
C986 C987 1.367 . S
C986 C994 1.378 . S
C987 C986 1.367 . S
C987 C995 1.433 . S
C988 H984 0.929 . S
C988 C990 1.378 . S
C988 C992 1.350 . S
C989 C992 1.463 . S
C989 C994 1.350 . S
C989 N997 1.427 . S
C990 H981 0.930 . S
C990 C988 1.378 . S
C990 C991 1.367 . S
C991 C990 1.367 . S
C991 C993 1.433 . S
C992 C988 1.350 . S
C992 C989 1.463 . S
C992 N996 1.427 . S
C993 H983 0.929 . S
C993 C991 1.433 . S
C993 N996 1.384 . S
C994 H985 0.929 . S
C994 C986 1.378 . S
C994 C989 1.350 . S
C995 H982 0.929 . S
C995 C987 1.433 . S
C995 N997 1.384 . S
N996 C992 1.427 . S
N996 C993 1.384 . S
N997 C989 1.427 . S
N997 C995 1.384 . S
H998 C1004 0.930 . S
H999 C1008 0.930 . S
H1000 C1013 0.929 . S
H1001 C1011 0.929 1_556 S
H1002 C1006 0.929 . S
H1003 C1012 0.929 . S
C1004 H998 0.930 . S
C1004 C1005 1.367 . S
C1004 C1012 1.378 . S
C1005 C1004 1.367 . S
C1005 C1013 1.433 . S
C1006 H1002 0.929 . S
C1006 C1008 1.378 . S
C1006 C1010 1.350 . S
C1007 C1010 1.463 . S
C1007 C1012 1.350 . S
C1007 N1015 1.427 . S
C1008 H999 0.930 . S
C1008 C1006 1.378 . S
C1008 C1009 1.367 . S
C1009 C1008 1.367 . S
C1009 C1011 1.433 . S
C1010 C1006 1.350 . S
C1010 C1007 1.463 . S
C1010 N1014 1.427 . S
C1011 H1001 0.929 1_554 S
C1011 C1009 1.433 . S
C1011 N1014 1.384 . S
C1012 H1003 0.929 . S
C1012 C1004 1.378 . S
C1012 C1007 1.350 . S
C1013 H1000 0.929 . S
C1013 C1005 1.433 . S
C1013 N1015 1.384 . S
N1014 C1010 1.427 . S
N1014 C1011 1.384 . S
N1015 C1007 1.427 . S
N1015 C1013 1.384 . S
H1016 C1022 0.930 . S
H1017 C1026 0.930 . S
H1018 C1031 0.929 . S
H1019 C1029 0.929 . S
H1020 C1024 0.929 . S
H1021 C1030 0.929 . S
C1022 H1016 0.930 . S
C1022 C1023 1.367 . S
C1022 C1030 1.378 . S
C1023 C1022 1.367 . S
C1023 C1031 1.433 . S
C1024 H1020 0.929 . S
C1024 C1026 1.378 . S
C1024 C1028 1.350 . S
C1025 C1028 1.463 . S
C1025 C1030 1.350 . S
C1025 N1033 1.427 . S
C1026 H1017 0.930 . S
C1026 C1024 1.378 . S
C1026 C1027 1.367 . S
C1027 C1026 1.367 . S
C1027 C1029 1.433 . S
C1028 C1024 1.350 . S
C1028 C1025 1.463 . S
C1028 N1032 1.427 . S
C1029 H1019 0.929 . S
C1029 C1027 1.433 . S
C1029 N1032 1.384 . S
C1030 H1021 0.929 . S
C1030 C1022 1.378 . S
C1030 C1025 1.350 . S
C1031 H1018 0.929 . S
C1031 C1023 1.433 . S
C1031 N1033 1.384 . S
N1032 C1028 1.427 . S
N1032 C1029 1.384 . S
N1033 C1025 1.427 . S
N1033 C1031 1.384 . S
H1034 C1040 0.930 . S
H1035 C1044 0.930 . S
H1036 C1049 0.929 . S
H1037 C1047 0.929 . S
H1038 C1042 0.929 . S
H1039 C1048 0.929 . S
C1040 H1034 0.930 . S
C1040 C1041 1.367 . S
C1040 C1048 1.378 . S
C1041 C1040 1.367 . S
C1041 C1049 1.433 . S
C1042 H1038 0.929 . S
C1042 C1044 1.378 . S
C1042 C1046 1.350 . S
C1043 C1046 1.463 . S
C1043 C1048 1.350 . S
C1043 N1051 1.427 . S
C1044 H1035 0.930 . S
C1044 C1042 1.378 . S
C1044 C1045 1.367 . S
C1045 C1044 1.367 . S
C1045 C1047 1.433 . S
C1046 C1042 1.350 . S
C1046 C1043 1.463 . S
C1046 N1050 1.427 . S
C1047 H1037 0.929 . S
C1047 C1045 1.433 . S
C1047 N1050 1.384 . S
C1048 H1039 0.929 . S
C1048 C1040 1.378 . S
C1048 C1043 1.350 . S
C1049 H1036 0.929 . S
C1049 C1041 1.433 . S
C1049 N1051 1.384 . S
N1050 C1046 1.427 . S
N1050 C1047 1.384 . S
N1051 C1043 1.427 . S
N1051 C1049 1.384 . S
H1052 C1058 0.930 1_556 S
H1053 C1062 0.930 . S
H1054 C1067 0.929 . S
H1055 C1065 0.929 . S
H1056 C1060 0.929 . S
H1057 C1066 0.929 . S
C1058 H1052 0.930 1_554 S
C1058 C1059 1.367 . S
C1058 C1066 1.378 . S
C1059 C1058 1.367 . S
C1059 C1067 1.433 . S
C1060 H1056 0.929 . S
C1060 C1062 1.378 . S
C1060 C1064 1.350 . S
C1061 C1064 1.463 . S
C1061 C1066 1.350 . S
C1061 N1069 1.427 . S
C1062 H1053 0.930 . S
C1062 C1060 1.378 . S
C1062 C1063 1.367 . S
C1063 C1062 1.367 . S
C1063 C1065 1.433 . S
C1064 C1060 1.350 . S
C1064 C1061 1.463 . S
C1064 N1068 1.427 . S
C1065 H1055 0.929 . S
C1065 C1063 1.433 . S
C1065 N1068 1.384 . S
C1066 H1057 0.929 . S
C1066 C1058 1.378 . S
C1066 C1061 1.350 . S
C1067 H1054 0.929 . S
C1067 C1059 1.433 . S
C1067 N1069 1.384 . S
N1068 C1064 1.427 . S
N1068 C1065 1.384 . S
N1069 C1061 1.427 . S
N1069 C1067 1.384 . S
H1070 C1076 0.930 . S
H1071 C1080 0.930 1_554 S
H1072 C1085 0.929 . S
H1073 C1083 0.929 . S
H1074 C1078 0.929 . S
H1075 C1084 0.929 . S
C1076 H1070 0.930 . S
C1076 C1077 1.367 . S
C1076 C1084 1.378 . S
C1077 C1076 1.367 . S
C1077 C1085 1.433 . S
C1078 H1074 0.929 . S
C1078 C1080 1.378 . S
C1078 C1082 1.350 . S
C1079 C1082 1.463 . S
C1079 C1084 1.350 . S
C1079 N1087 1.427 . S
C1080 H1071 0.930 1_556 S
C1080 C1078 1.378 . S
C1080 C1081 1.367 . S
C1081 C1080 1.367 . S
C1081 C1083 1.433 . S
C1082 C1078 1.350 . S
C1082 C1079 1.463 . S
C1082 N1086 1.427 . S
C1083 H1073 0.929 . S
C1083 C1081 1.433 . S
C1083 N1086 1.384 . S
C1084 H1075 0.929 . S
C1084 C1076 1.378 . S
C1084 C1079 1.350 . S
C1085 H1072 0.929 . S
C1085 C1077 1.433 . S
C1085 N1087 1.384 . S
N1086 C1082 1.427 . S
N1086 C1083 1.384 . S
N1087 C1079 1.427 . S
N1087 C1085 1.384 . S
H1088 C1094 0.930 . S
H1089 C1098 0.930 . S
H1090 C1103 0.929 . S
H1091 C1101 0.929 . S
H1092 C1096 0.929 . S
H1093 C1102 0.929 . S
C1094 H1088 0.930 . S
C1094 C1095 1.367 . S
C1094 C1102 1.378 . S
C1095 C1094 1.367 . S
C1095 C1103 1.433 . S
C1096 H1092 0.929 . S
C1096 C1098 1.378 . S
C1096 C1100 1.350 . S
C1097 C1100 1.463 . S
C1097 C1102 1.350 . S
C1097 N1105 1.427 . S
C1098 H1089 0.930 . S
C1098 C1096 1.378 . S
C1098 C1099 1.367 . S
C1099 C1098 1.367 . S
C1099 C1101 1.433 . S
C1100 C1096 1.350 . S
C1100 C1097 1.463 . S
C1100 N1104 1.427 . S
C1101 H1091 0.929 . S
C1101 C1099 1.433 . S
C1101 N1104 1.384 . S
C1102 H1093 0.929 . S
C1102 C1094 1.378 . S
C1102 C1097 1.350 . S
C1103 H1090 0.929 . S
C1103 C1095 1.433 . S
C1103 N1105 1.384 . S
N1104 C1100 1.427 . S
N1104 C1101 1.384 . S
N1105 C1097 1.427 . S
N1105 C1103 1.384 . S
H1106 C1112 0.930 . S
H1107 C1116 0.930 . S
H1108 C1121 0.929 . S
H1109 C1119 0.929 . S
H1110 C1114 0.929 . S
H1111 C1120 0.929 . S
C1112 H1106 0.930 . S
C1112 C1113 1.367 . S
C1112 C1120 1.378 . S
C1113 C1112 1.367 . S
C1113 C1121 1.433 . S
C1114 H1110 0.929 . S
C1114 C1116 1.378 . S
C1114 C1118 1.350 . S
C1115 C1118 1.463 . S
C1115 C1120 1.350 . S
C1115 N1123 1.427 . S
C1116 H1107 0.930 . S
C1116 C1114 1.378 . S
C1116 C1117 1.367 . S
C1117 C1116 1.367 . S
C1117 C1119 1.433 . S
C1118 C1114 1.350 . S
C1118 C1115 1.463 . S
C1118 N1122 1.427 . S
C1119 H1109 0.929 . S
C1119 C1117 1.433 . S
C1119 N1122 1.384 . S
C1120 H1111 0.929 . S
C1120 C1112 1.378 . S
C1120 C1115 1.350 . S
C1121 H1108 0.929 . S
C1121 C1113 1.433 . S
C1121 N1123 1.384 . S
N1122 C1118 1.427 . S
N1122 C1119 1.384 . S
N1123 C1115 1.427 . S
N1123 C1121 1.384 . S
H1124 C1130 0.930 . S
H1125 C1134 0.930 . S
H1126 C1139 0.929 . S
H1127 C1137 0.929 . S
H1128 C1132 0.929 . S
H1129 C1138 0.929 . S
C1130 H1124 0.930 . S
C1130 C1131 1.367 . S
C1130 C1138 1.378 . S
C1131 C1130 1.367 . S
C1131 C1139 1.433 . S
C1132 H1128 0.929 . S
C1132 C1134 1.378 . S
C1132 C1136 1.350 . S
C1133 C1136 1.463 . S
C1133 C1138 1.350 . S
C1133 N1141 1.427 . S
C1134 H1125 0.930 . S
C1134 C1132 1.378 . S
C1134 C1135 1.367 . S
C1135 C1134 1.367 . S
C1135 C1137 1.433 . S
C1136 C1132 1.350 . S
C1136 C1133 1.463 . S
C1136 N1140 1.427 . S
C1137 H1127 0.929 . S
C1137 C1135 1.433 . S
C1137 N1140 1.384 . S
C1138 H1129 0.929 . S
C1138 C1130 1.378 . S
C1138 C1133 1.350 . S
C1139 H1126 0.929 . S
C1139 C1131 1.433 . S
C1139 N1141 1.384 . S
N1140 C1136 1.427 . S
N1140 C1137 1.384 . S
N1141 C1133 1.427 . S
N1141 C1139 1.384 . S
H1142 C1148 0.930 . S
H1143 C1152 0.930 . S
H1144 C1157 0.929 . S
H1145 C1155 0.929 . S
H1146 C1150 0.929 . S
H1147 C1156 0.929 . S
C1148 H1142 0.930 . S
C1148 C1149 1.367 . S
C1148 C1156 1.378 . S
C1149 C1148 1.367 . S
C1149 C1157 1.433 . S
C1150 H1146 0.929 . S
C1150 C1152 1.378 . S
C1150 C1154 1.350 . S
C1151 C1154 1.463 . S
C1151 C1156 1.350 . S
C1151 N1159 1.427 . S
C1152 H1143 0.930 . S
C1152 C1150 1.378 . S
C1152 C1153 1.367 . S
C1153 C1152 1.367 . S
C1153 C1155 1.433 . S
C1154 C1150 1.350 . S
C1154 C1151 1.463 . S
C1154 N1158 1.427 . S
C1155 H1145 0.929 . S
C1155 C1153 1.433 . S
C1155 N1158 1.384 . S
C1156 H1147 0.929 . S
C1156 C1148 1.378 . S
C1156 C1151 1.350 . S
C1157 H1144 0.929 . S
C1157 C1149 1.433 . S
C1157 N1159 1.384 . S
N1158 C1154 1.427 . S
N1158 C1155 1.384 . S
N1159 C1151 1.427 . S
N1159 C1157 1.384 . S
H1160 C1166 0.930 . S
H1161 C1170 0.930 . S
H1162 C1175 0.929 . S
H1163 C1173 0.929 1_556 S
H1164 C1168 0.929 . S
H1165 C1174 0.929 . S
C1166 H1160 0.930 . S
C1166 C1167 1.367 . S
C1166 C1174 1.378 . S
C1167 C1166 1.367 . S
C1167 C1175 1.433 . S
C1168 H1164 0.929 . S
C1168 C1170 1.378 . S
C1168 C1172 1.350 . S
C1169 C1172 1.463 . S
C1169 C1174 1.350 . S
C1169 N1177 1.427 . S
C1170 H1161 0.930 . S
C1170 C1168 1.378 . S
C1170 C1171 1.367 . S
C1171 C1170 1.367 . S
C1171 C1173 1.433 . S
C1172 C1168 1.350 . S
C1172 C1169 1.463 . S
C1172 N1176 1.427 . S
C1173 H1163 0.929 1_554 S
C1173 C1171 1.433 . S
C1173 N1176 1.384 . S
C1174 H1165 0.929 . S
C1174 C1166 1.378 . S
C1174 C1169 1.350 . S
C1175 H1162 0.929 . S
C1175 C1167 1.433 . S
C1175 N1177 1.384 . S
N1176 C1172 1.427 . S
N1176 C1173 1.384 . S
N1177 C1169 1.427 . S
N1177 C1175 1.384 . S
H1178 C1184 0.930 . S
H1179 C1188 0.930 . S
H1180 C1193 0.929 . S
H1181 C1191 0.929 . S
H1182 C1186 0.929 . S
H1183 C1192 0.929 . S
C1184 H1178 0.930 . S
C1184 C1185 1.367 . S
C1184 C1192 1.378 . S
C1185 C1184 1.367 . S
C1185 C1193 1.433 . S
C1186 H1182 0.929 . S
C1186 C1188 1.378 . S
C1186 C1190 1.350 . S
C1187 C1190 1.463 . S
C1187 C1192 1.350 . S
C1187 N1195 1.427 . S
C1188 H1179 0.930 . S
C1188 C1186 1.378 . S
C1188 C1189 1.367 . S
C1189 C1188 1.367 . S
C1189 C1191 1.433 . S
C1190 C1186 1.350 . S
C1190 C1187 1.463 . S
C1190 N1194 1.427 . S
C1191 H1181 0.929 . S
C1191 C1189 1.433 . S
C1191 N1194 1.384 . S
C1192 H1183 0.929 . S
C1192 C1184 1.378 . S
C1192 C1187 1.350 . S
C1193 H1180 0.929 . S
C1193 C1185 1.433 . S
C1193 N1195 1.384 . S
N1194 C1190 1.427 . S
N1194 C1191 1.384 . S
N1195 C1187 1.427 . S
N1195 C1193 1.384 . S
H1196 C1202 0.930 . S
H1197 C1206 0.930 . S
H1198 C1211 0.929 . S
H1199 C1209 0.929 . S
H1200 C1204 0.929 . S
H1201 C1210 0.929 . S
C1202 H1196 0.930 . S
C1202 C1203 1.367 . S
C1202 C1210 1.378 . S
C1203 C1202 1.367 . S
C1203 C1211 1.433 . S
C1204 H1200 0.929 . S
C1204 C1206 1.378 . S
C1204 C1208 1.350 . S
C1205 C1208 1.463 . S
C1205 C1210 1.350 . S
C1205 N1213 1.427 . S
C1206 H1197 0.930 . S
C1206 C1204 1.378 . S
C1206 C1207 1.367 . S
C1207 C1206 1.367 . S
C1207 C1209 1.433 . S
C1208 C1204 1.350 . S
C1208 C1205 1.463 . S
C1208 N1212 1.427 . S
C1209 H1199 0.929 . S
C1209 C1207 1.433 . S
C1209 N1212 1.384 . S
C1210 H1201 0.929 . S
C1210 C1202 1.378 . S
C1210 C1205 1.350 . S
C1211 H1198 0.929 . S
C1211 C1203 1.433 . S
C1211 N1213 1.384 . S
N1212 C1208 1.427 . S
N1212 C1209 1.384 . S
N1213 C1205 1.427 . S
N1213 C1211 1.384 . S
H1214 C1220 0.930 . S
H1215 C1224 0.930 . S
H1216 C1229 0.929 . S
H1217 C1227 0.929 . S
H1218 C1222 0.929 . S
H1219 C1228 0.929 . S
C1220 H1214 0.930 . S
C1220 C1221 1.367 . S
C1220 C1228 1.378 . S
C1221 C1220 1.367 . S
C1221 C1229 1.433 . S
C1222 H1218 0.929 . S
C1222 C1224 1.378 . S
C1222 C1226 1.350 . S
C1223 C1226 1.463 . S
C1223 C1228 1.350 . S
C1223 N1231 1.427 . S
C1224 H1215 0.930 . S
C1224 C1222 1.378 . S
C1224 C1225 1.367 . S
C1225 C1224 1.367 . S
C1225 C1227 1.433 . S
C1226 C1222 1.350 . S
C1226 C1223 1.463 . S
C1226 N1230 1.427 . S
C1227 H1217 0.929 . S
C1227 C1225 1.433 . S
C1227 N1230 1.384 . S
C1228 H1219 0.929 . S
C1228 C1220 1.378 . S
C1228 C1223 1.350 . S
C1229 H1216 0.929 . S
C1229 C1221 1.433 . S
C1229 N1231 1.384 . S
N1230 C1226 1.427 . S
N1230 C1227 1.384 . S
N1231 C1223 1.427 . S
N1231 C1229 1.384 . S
C375 C17 0.923 1_556 S
C379 C178 0.908 . S
C393 C40 0.921 . S
C397 C109 0.905 1_554 S
C411 C132 0.923 . S
C415 C63 0.905 . S
C429 C86 0.923 . S
C433 C155 0.905 . S
C447 C274 1.256 . S
C451 C113 1.280 1_554 S
C465 C205 1.276 . S
C469 C21 1.272 1_556 S
C483 C251 1.263 . S
C487 C159 1.265 . S
C501 C67 1.262 . S
C505 C228 1.282 . S
C519 C224 0.912 . S
C523 C293 0.920 . S
C537 C247 0.922 . S
C541 C339 0.904 . S
C555 C316 0.917 1_556 S
C559 C201 0.907 . S
C573 C270 0.910 . S
C577 C362 0.913 1_554 S
C591 C343 1.258 . S
C595 C90 1.282 . S
C609 C297 1.278 . S
C613 C136 1.256 . S
C627 C44 1.271 . S
C631 C366 1.277 1_554 S
C645 C182 1.274 . S
C649 C320 1.274 1_556 S
C663 C318 0.463 . S
C667 C19 0.431 . S
C681 C272 0.415 . S
C685 C42 0.428 . S
C699 C295 0.448 . S
C703 C65 0.469 . S
C717 C249 0.469 . S
C721 C88 0.457 . S
C735 C111 0.416 . S
C739 C364 0.443 . S
C753 C226 0.424 . S
C757 C134 0.456 . S
C771 C157 0.459 . S
C775 C341 0.468 . S
C789 C180 0.468 . S
C793 C203 0.458 . S
C807 C20 0.868 . S
C811 C112 0.868 . S
C825 C43 0.871 . S
C829 C135 0.854 . S
C843 C158 0.847 . S
C847 C66 0.858 . S
C861 C89 0.858 . S
C865 C181 0.872 . S
C879 C250 0.871 . S
C883 C204 0.854 . S
C897 C273 0.868 . S
C901 C227 0.868 . S
C915 C296 0.848 . S
C919 C342 0.855 . S
C933 C365 0.847 1_655 S
C937 C319 0.856 1_655 S
C951 C18 1.506 . S
C955 C179 1.508 . S
C969 C41 1.510 . S
C973 C110 1.511 . S
C987 C133 1.500 1_556 S
C991 C64 1.502 . S
C1005 C156 1.510 . S
C1009 C87 1.509 1_554 S
C1023 C269 1.509 . S
C1027 C108 1.496 . S
C1041 C200 1.495 . S
C1045 C16 1.509 . S
C1059 C246 1.503 1_554 S
C1063 C154 1.496 . S
C1077 C62 1.498 . S
C1081 C223 1.500 1_556 S
C1095 C294 1.507 . S
C1099 C225 1.504 1_556 S
C1113 C340 1.505 . S
C1117 C248 1.507 1_554 S
C1131 C317 1.504 . S
C1135 C202 1.502 . S
C1149 C363 1.503 . S
C1153 C271 1.506 . S
C1167 C338 1.497 . S
C1171 C85 1.509 1_554 S
C1185 C131 1.509 1_556 S
C1189 C292 1.493 . S
C1203 C39 1.503 . S
C1207 C361 1.496 . S
C1221 C315 1.502 . S
C1225 C177 1.505 . S
