# Generated by pormake.
# Topology ukj, (4)-cn, num edge types: 1
# Building blocks:
#     Node 0, Type 0, BuildingBlock: ESEHIV_clean_sbu_0, # of connection points: 4
#     Node 1, Type 0, BuildingBlock: ESEHIV_clean_sbu_0, # of connection points: 4
#     Node 2, Type 0, BuildingBlock: ESEHIV_clean_sbu_0, # of connection points: 4
#     Node 3, Type 0, BuildingBlock: ESEHIV_clean_sbu_0, # of connection points: 4
#     Node 4, Type 0, BuildingBlock: ESEHIV_clean_sbu_0, # of connection points: 4
#     Node 5, Type 0, BuildingBlock: ESEHIV_clean_sbu_0, # of connection points: 4
#     Node 6, Type 0, BuildingBlock: ESEHIV_clean_sbu_0, # of connection points: 4
#     Node 7, Type 0, BuildingBlock: ESEHIV_clean_sbu_0, # of connection points: 4
#     Node 8, Type 0, BuildingBlock: ESEHIV_clean_sbu_0, # of connection points: 4
#     Node 9, Type 0, BuildingBlock: ESEHIV_clean_sbu_0, # of connection points: 4
#     Node 10, Type 0, BuildingBlock: ESEHIV_clean_sbu_0, # of connection points: 4
#     Node 11, Type 0, BuildingBlock: ESEHIV_clean_sbu_0, # of connection points: 4
#     Node 12, Type 0, BuildingBlock: ESEHIV_clean_sbu_0, # of connection points: 4
#     Node 13, Type 0, BuildingBlock: ESEHIV_clean_sbu_0, # of connection points: 4
#     Node 14, Type 0, BuildingBlock: ESEHIV_clean_sbu_0, # of connection points: 4
#     Node 15, Type 0, BuildingBlock: ESEHIV_clean_sbu_0, # of connection points: 4
#     Node 16, Type 0, BuildingBlock: ESEHIV_clean_sbu_0, # of connection points: 4
#     Node 17, Type 0, BuildingBlock: ESEHIV_clean_sbu_0, # of connection points: 4
#     Node 18, Type 0, BuildingBlock: ESEHIV_clean_sbu_0, # of connection points: 4
#     Node 19, Type 0, BuildingBlock: ESEHIV_clean_sbu_0, # of connection points: 4
#     Node 20, Type 0, BuildingBlock: ESEHIV_clean_sbu_0, # of connection points: 4
#     Node 21, Type 0, BuildingBlock: ESEHIV_clean_sbu_0, # of connection points: 4
#     Node 22, Type 0, BuildingBlock: ESEHIV_clean_sbu_0, # of connection points: 4
#     Node 23, Type 0, BuildingBlock: ESEHIV_clean_sbu_0, # of connection points: 4
#     Node 24, Type 0, BuildingBlock: ESEHIV_clean_sbu_0, # of connection points: 4
#     Node 25, Type 0, BuildingBlock: ESEHIV_clean_sbu_0, # of connection points: 4
#     Node 26, Type 0, BuildingBlock: ESEHIV_clean_sbu_0, # of connection points: 4
#     Node 27, Type 0, BuildingBlock: ESEHIV_clean_sbu_0, # of connection points: 4
#     Node 28, Type 0, BuildingBlock: ESEHIV_clean_sbu_0, # of connection points: 4
#     Node 29, Type 0, BuildingBlock: ESEHIV_clean_sbu_0, # of connection points: 4
#     Node 30, Type 0, BuildingBlock: ESEHIV_clean_sbu_0, # of connection points: 4
#     Node 31, Type 0, BuildingBlock: ESEHIV_clean_sbu_0, # of connection points: 4
#     Edge 32, Type (0, 0), BuildingBlock: CIFDUS_clean_linker_0, # of connection points: 2
#     Edge 33, Type (0, 0), BuildingBlock: CIFDUS_clean_linker_0, # of connection points: 2
#     Edge 34, Type (0, 0), BuildingBlock: CIFDUS_clean_linker_0, # of connection points: 2
#     Edge 35, Type (0, 0), BuildingBlock: CIFDUS_clean_linker_0, # of connection points: 2
#     Edge 36, Type (0, 0), BuildingBlock: CIFDUS_clean_linker_0, # of connection points: 2
#     Edge 37, Type (0, 0), BuildingBlock: CIFDUS_clean_linker_0, # of connection points: 2
#     Edge 38, Type (0, 0), BuildingBlock: CIFDUS_clean_linker_0, # of connection points: 2
#     Edge 39, Type (0, 0), BuildingBlock: CIFDUS_clean_linker_0, # of connection points: 2
#     Edge 40, Type (0, 0), BuildingBlock: CIFDUS_clean_linker_0, # of connection points: 2
#     Edge 41, Type (0, 0), BuildingBlock: CIFDUS_clean_linker_0, # of connection points: 2
#     Edge 42, Type (0, 0), BuildingBlock: CIFDUS_clean_linker_0, # of connection points: 2
#     Edge 43, Type (0, 0), BuildingBlock: CIFDUS_clean_linker_0, # of connection points: 2
#     Edge 44, Type (0, 0), BuildingBlock: CIFDUS_clean_linker_0, # of connection points: 2
#     Edge 45, Type (0, 0), BuildingBlock: CIFDUS_clean_linker_0, # of connection points: 2
#     Edge 46, Type (0, 0), BuildingBlock: CIFDUS_clean_linker_0, # of connection points: 2
#     Edge 47, Type (0, 0), BuildingBlock: CIFDUS_clean_linker_0, # of connection points: 2
#     Edge 48, Type (0, 0), BuildingBlock: CIFDUS_clean_linker_0, # of connection points: 2
#     Edge 49, Type (0, 0), BuildingBlock: CIFDUS_clean_linker_0, # of connection points: 2
#     Edge 50, Type (0, 0), BuildingBlock: CIFDUS_clean_linker_0, # of connection points: 2
#     Edge 51, Type (0, 0), BuildingBlock: CIFDUS_clean_linker_0, # of connection points: 2
#     Edge 52, Type (0, 0), BuildingBlock: CIFDUS_clean_linker_0, # of connection points: 2
#     Edge 53, Type (0, 0), BuildingBlock: CIFDUS_clean_linker_0, # of connection points: 2
#     Edge 54, Type (0, 0), BuildingBlock: CIFDUS_clean_linker_0, # of connection points: 2
#     Edge 55, Type (0, 0), BuildingBlock: CIFDUS_clean_linker_0, # of connection points: 2
#     Edge 56, Type (0, 0), BuildingBlock: CIFDUS_clean_linker_0, # of connection points: 2
#     Edge 57, Type (0, 0), BuildingBlock: CIFDUS_clean_linker_0, # of connection points: 2
#     Edge 58, Type (0, 0), BuildingBlock: CIFDUS_clean_linker_0, # of connection points: 2
#     Edge 59, Type (0, 0), BuildingBlock: CIFDUS_clean_linker_0, # of connection points: 2
#     Edge 60, Type (0, 0), BuildingBlock: CIFDUS_clean_linker_0, # of connection points: 2
#     Edge 61, Type (0, 0), BuildingBlock: CIFDUS_clean_linker_0, # of connection points: 2
#     Edge 62, Type (0, 0), BuildingBlock: CIFDUS_clean_linker_0, # of connection points: 2
#     Edge 63, Type (0, 0), BuildingBlock: CIFDUS_clean_linker_0, # of connection points: 2
#     Edge 64, Type (0, 0), BuildingBlock: CIFDUS_clean_linker_0, # of connection points: 2
#     Edge 65, Type (0, 0), BuildingBlock: CIFDUS_clean_linker_0, # of connection points: 2
#     Edge 66, Type (0, 0), BuildingBlock: CIFDUS_clean_linker_0, # of connection points: 2
#     Edge 67, Type (0, 0), BuildingBlock: CIFDUS_clean_linker_0, # of connection points: 2
#     Edge 68, Type (0, 0), BuildingBlock: CIFDUS_clean_linker_0, # of connection points: 2
#     Edge 69, Type (0, 0), BuildingBlock: CIFDUS_clean_linker_0, # of connection points: 2
#     Edge 70, Type (0, 0), BuildingBlock: CIFDUS_clean_linker_0, # of connection points: 2
#     Edge 71, Type (0, 0), BuildingBlock: CIFDUS_clean_linker_0, # of connection points: 2
#     Edge 72, Type (0, 0), BuildingBlock: CIFDUS_clean_linker_0, # of connection points: 2
#     Edge 73, Type (0, 0), BuildingBlock: CIFDUS_clean_linker_0, # of connection points: 2
#     Edge 74, Type (0, 0), BuildingBlock: CIFDUS_clean_linker_0, # of connection points: 2
#     Edge 75, Type (0, 0), BuildingBlock: CIFDUS_clean_linker_0, # of connection points: 2
#     Edge 76, Type (0, 0), BuildingBlock: CIFDUS_clean_linker_0, # of connection points: 2
#     Edge 77, Type (0, 0), BuildingBlock: CIFDUS_clean_linker_0, # of connection points: 2
#     Edge 78, Type (0, 0), BuildingBlock: CIFDUS_clean_linker_0, # of connection points: 2
#     Edge 79, Type (0, 0), BuildingBlock: CIFDUS_clean_linker_0, # of connection points: 2
#     Edge 80, Type (0, 0), BuildingBlock: CIFDUS_clean_linker_0, # of connection points: 2
#     Edge 81, Type (0, 0), BuildingBlock: CIFDUS_clean_linker_0, # of connection points: 2
#     Edge 82, Type (0, 0), BuildingBlock: CIFDUS_clean_linker_0, # of connection points: 2
#     Edge 83, Type (0, 0), BuildingBlock: CIFDUS_clean_linker_0, # of connection points: 2
#     Edge 84, Type (0, 0), BuildingBlock: CIFDUS_clean_linker_0, # of connection points: 2
#     Edge 85, Type (0, 0), BuildingBlock: CIFDUS_clean_linker_0, # of connection points: 2
#     Edge 86, Type (0, 0), BuildingBlock: CIFDUS_clean_linker_0, # of connection points: 2
#     Edge 87, Type (0, 0), BuildingBlock: CIFDUS_clean_linker_0, # of connection points: 2
#     Edge 88, Type (0, 0), BuildingBlock: CIFDUS_clean_linker_0, # of connection points: 2
#     Edge 89, Type (0, 0), BuildingBlock: CIFDUS_clean_linker_0, # of connection points: 2
#     Edge 90, Type (0, 0), BuildingBlock: CIFDUS_clean_linker_0, # of connection points: 2
#     Edge 91, Type (0, 0), BuildingBlock: CIFDUS_clean_linker_0, # of connection points: 2
#     Edge 92, Type (0, 0), BuildingBlock: CIFDUS_clean_linker_0, # of connection points: 2
#     Edge 93, Type (0, 0), BuildingBlock: CIFDUS_clean_linker_0, # of connection points: 2
#     Edge 94, Type (0, 0), BuildingBlock: CIFDUS_clean_linker_0, # of connection points: 2
#     Edge 95, Type (0, 0), BuildingBlock: CIFDUS_clean_linker_0, # of connection points: 2
# Relax obj value: 0.004
# Max RMSD: 0.099
# Mean RMSD: 0.099
data_MOF--net-ukj--node1-ESEHIV_clean_sbu_0--edge1-CIFDUS_clean_linker_0
_symmetry_space_group_name_H-M    P1
_symmetry_Int_Tables_number       1
_symmetry_cell_setting            triclinic
loop_
_symmetry_equiv_pos_as_xyz
'x, y, z'
_cell_length_a     35.10144
_cell_length_b     62.747404
_cell_length_c     48.901712
_cell_angle_alpha  90.028748
_cell_angle_beta   89.93006
_cell_angle_gamma 90.08267
loop_
_atom_site_label
_atom_site_type_symbol
_atom_site_fract_x
_atom_site_fract_y
_atom_site_fract_z
_atom_type_partial_charge
Cu0 Cu 0.20139 0.34054 0.26779 0.0
N1 N 0.25402 0.33653 0.27065 0.0
N2 N 0.316 0.3448 0.27347 0.0
C3 C 0.27982 0.35181 0.27644 0.0
C4 C 0.31267 0.32426 0.26553 0.0
C5 C 0.2745 0.31927 0.26362 0.0
O6 O 0.18504 0.35561 0.30051 0.0
C7 C 0.16496 0.36118 0.2205 0.0
O8 O 0.13205 0.36079 0.23329 0.0
H9 H 0.27208 0.36791 0.28201 0.0
H10 H 0.26259 0.30442 0.25635 0.0
N11 N 0.17578 0.31429 0.26785 0.0
N12 N 0.12856 0.2903 0.26487 0.0
C13 C 0.14029 0.31026 0.25862 0.0
C14 C 0.18682 0.29628 0.28047 0.0
C15 C 0.15793 0.28145 0.27856 0.0
C16 C 0.1897 0.37524 0.30597 0.0
O17 O 0.20327 0.38806 0.28707 0.0
H18 H 0.1227 0.32206 0.24872 0.0
H19 H 0.21347 0.29431 0.29124 0.0
O20 O 0.19482 0.35467 0.23263 0.0
H21 H 0.33607 0.31385 0.26014 0.0
H22 H 0.15838 0.26551 0.287 0.0
Cu23 Cu 0.10133 0.92782 0.27008 0.0
N24 N 0.04927 0.93165 0.27584 0.0
N25 N 0.98743 0.92327 0.27928 0.0
C26 C 1.02246 0.91666 0.27156 0.0
C27 C 0.9926 0.94334 0.28867 0.0
C28 C 0.03079 0.94842 0.28661 0.0
O29 O 0.12205 0.91555 0.3032 0.0
C30 C 0.13662 0.90933 0.22316 0.0
O31 O 0.16853 0.91685 0.23337 0.0
H32 H 0.0288 0.90113 0.26309 0.0
H33 H 0.04426 0.96309 0.29308 0.0
N34 N 0.12645 0.95368 0.26437 0.0
N35 N 0.17489 0.97678 0.26105 0.0
C36 C 0.16352 0.95733 0.26967 0.0
C37 C 0.11365 0.97145 0.2521 0.0
C38 C 0.14345 0.98578 0.25011 0.0
C39 C 0.11318 0.89735 0.31265 0.0
O40 O 0.09212 0.88443 0.29786 0.0
H41 H 0.1819 0.94567 0.2792 0.0
H42 H 0.08505 0.97356 0.24437 0.0
O43 O 0.10614 0.91079 0.23711 0.0
H44 H 0.97065 0.95342 0.29725 0.0
H45 H 0.14234 1.00123 0.24033 0.0
Cu46 Cu 0.18894 0.92189 1.01118 0.0
N47 N 0.24069 0.92376 1.00301 0.0
N48 N 0.30019 0.91208 0.99668 0.0
C49 C 0.26495 0.90736 1.00594 0.0
C50 C 0.29797 0.93238 0.98762 0.0
C51 C 0.26109 0.93951 0.9914 0.0
O52 O 0.16707 0.90443 0.98245 0.0
C53 C 0.15585 0.90731 0.06149 0.0
O54 O 0.12283 0.91198 0.05041 0.0
H55 H 0.25661 0.89215 0.01452 0.0
H56 H 0.24977 0.95481 0.98536 0.0
N57 N 0.16535 0.94856 1.01225 0.0
N58 N 0.11902 0.97302 0.01358 0.0
C59 C 0.12788 0.95236 1.00893 0.0
C60 C 0.18082 0.9674 0.01928 0.0
C61 C 0.15239 0.98253 0.01997 0.0
C62 C 0.1675 0.91212 0.95834 0.0
O63 O 0.17894 0.93189 0.95489 0.0
H64 H 0.10751 0.94008 1.00368 0.0
H65 H 0.21044 0.9698 0.02451 0.0
O66 O 0.18608 0.90933 0.04737 0.0
H67 H 0.32095 0.9412 0.9781 0.0
H68 H 0.15583 0.99904 0.02589 0.0
Cu69 Cu 0.10869 0.34535 1.01034 0.0
N70 N 0.05696 0.34058 1.00427 0.0
N71 N 0.99502 0.34787 0.99894 0.0
C72 C 0.0297 0.35558 1.00578 0.0
C73 C 1.00092 0.32711 0.9929 0.0
C74 C 0.03916 0.32268 0.99614 0.0
O75 O 0.12801 0.3594 0.97773 0.0
C76 C 0.14297 0.36214 0.05863 0.0
O77 O 0.17487 0.35499 0.04797 0.0
H78 H 0.03559 0.37199 1.01107 0.0
H79 H 0.05304 0.30758 0.99243 0.0
N80 N 0.13467 0.31965 0.01476 0.0
N81 N 0.18289 0.29642 0.01669 0.0
C82 C 0.17134 0.31588 1.00824 0.0
C83 C 0.12249 0.30203 0.02776 0.0
C84 C 0.15208 0.28764 0.02887 0.0
C85 C 0.11982 0.37848 0.9713 0.0
O86 O 0.1015 0.39047 0.98897 0.0
H87 H 0.18935 0.32744 0.99807 0.0
H88 H 0.09449 0.30012 0.03668 0.0
O89 O 0.11255 0.3612 0.04452 0.0
H90 H 0.97927 0.31585 0.98659 0.0
H91 H 0.15138 0.27229 0.03894 0.0
Cu92 Cu 0.84938 0.68073 0.7534 0.0
N93 N 0.79715 0.68408 0.74796 0.0
N94 N 0.73605 0.6743 0.7438 0.0
C95 C 0.77192 0.66797 0.74957 0.0
C96 C 0.73903 0.69534 0.73826 0.0
C97 C 0.77678 0.70132 0.74081 0.0
O98 O 0.86884 0.66668 0.72104 0.0
C99 C 0.88538 0.66269 0.8004 0.0
O100 O 0.91734 0.66953 0.78948 0.0
H101 H 0.78015 0.65177 0.75424 0.0
H102 H 0.78854 0.71704 0.7374 0.0
N103 N 0.875 0.70668 0.75747 0.0
N104 N 0.92421 0.72935 0.76025 0.0
C105 C 0.9122 0.70988 0.75208 0.0
C106 C 0.8628 0.72476 0.76935 0.0
C107 C 0.89304 0.73882 0.77097 0.0
C108 C 0.86606 0.64679 0.71661 0.0
O109 O 0.85295 0.63429 0.73603 0.0
H110 H 0.93029 0.69781 0.74308 0.0
H111 H 0.83441 0.7272 0.77737 0.0
O112 O 0.85448 0.66468 0.78711 0.0
H113 H 0.71568 0.70575 0.73283 0.0
H114 H 0.89248 0.75435 0.78059 0.0
Cu115 Cu 0.94777 0.08617 0.75493 0.0
N116 N 1.00024 0.08511 0.74903 0.0
N117 N 0.05948 0.09792 0.74451 0.0
C118 C 1.02356 0.10186 0.75301 0.0
C119 C 0.05872 0.07768 0.73505 0.0
C120 C 1.02204 0.06984 0.73776 0.0
O121 O 0.92539 0.09816 0.72225 0.0
C122 C 0.91045 0.10337 0.8022 0.0
O123 O 0.87908 0.09505 0.79216 0.0
H124 H 1.01397 0.11681 0.7616 0.0
H125 H 1.01175 0.05442 0.73114 0.0
N126 N 0.92543 0.05939 0.75977 0.0
N127 N 0.87809 0.03556 0.76302 0.0
C128 C 0.88834 0.05538 0.75513 0.0
C129 C 0.93956 0.0414 0.77072 0.0
C130 C 0.91039 0.02661 0.77266 0.0
C131 C 0.93309 0.11656 0.71293 0.0
O132 O 0.95344 0.12978 0.72779 0.0
H133 H 0.86904 0.06711 0.74676 0.0
H134 H 0.96856 0.03947 0.77774 0.0
O135 O 0.94096 0.10261 0.7882 0.0
H136 H 0.0825 0.06938 0.72584 0.0
H137 H 0.91245 0.0109 0.78168 0.0
Cu138 Cu 0.86126 0.09399 0.01496 0.0
N139 N 0.80993 0.09286 0.02453 0.0
N140 N 0.75122 0.10545 0.03184 0.0
C141 C 0.78587 0.10925 0.02087 0.0
C142 C 0.75364 0.08571 0.04275 0.0
C143 C 0.79002 0.07802 0.03834 0.0
O144 O 0.88521 0.11178 0.04244 0.0
C145 C 0.89263 0.108 0.96391 0.0
O146 O 0.92609 0.10433 0.97493 0.0
H147 H 0.79403 0.12384 1.01061 0.0
H148 H 0.80146 0.06303 0.04548 0.0
N149 N 0.88415 0.06713 0.01425 0.0
N150 N 0.93015 0.04248 1.01263 0.0
C151 C 0.92171 0.06326 0.0167 0.0
C152 C 0.86809 0.0482 1.00844 0.0
C153 C 0.89634 0.03295 1.00754 0.0
C154 C 0.88678 0.10429 0.06663 0.0
O155 O 0.87572 0.08455 0.07081 0.0
H156 H 0.94241 0.07561 0.02099 0.0
H157 H 0.83815 0.04579 1.00423 0.0
O158 O 0.86274 0.10567 0.9783 0.0
H159 H 0.73125 0.07769 0.054 0.0
H160 H 0.89237 0.01631 1.00244 0.0
Cu161 Cu 0.94349 0.67253 1.01163 0.0
N162 N 0.99583 0.67549 0.01695 0.0
N163 N 0.05589 0.66457 0.02278 0.0
C164 C 1.01871 0.66038 0.02753 0.0
C165 C 0.05636 0.68313 1.00884 0.0
C166 C 1.01931 0.68973 1.0051 0.0
O167 O 0.92463 0.65388 0.04033 0.0
C168 C 0.90867 0.65691 0.96175 0.0
O169 O 0.87554 0.65845 0.97409 0.0
H170 H 1.00814 0.64569 0.03635 0.0
H171 H 1.01014 0.70304 0.99273 0.0
N172 N 0.91815 0.69878 0.01325 0.0
N173 N 0.87062 0.72261 0.01306 0.0
C174 C 0.88019 0.70174 1.0118 0.0
C175 C 0.9332 0.71839 0.01586 0.0
C176 C 0.90408 0.73309 0.01565 0.0
C177 C 0.92236 0.66169 0.06434 0.0
O178 O 0.93057 0.68193 0.06793 0.0
H179 H 0.86005 0.68876 1.01026 0.0
H180 H 0.96321 0.72186 0.01783 0.0
O181 O 0.93899 0.66107 0.97492 0.0
H182 H 0.08153 0.69081 1.00066 0.0
H183 H 0.90755 0.75019 0.01688 0.0
Cu184 Cu 0.20182 0.83718 0.765 0.0
N185 N 0.25357 0.83292 0.77225 0.0
N186 N 0.31486 0.84153 0.7787 0.0
C187 C 0.27851 0.84861 0.77816 0.0
C188 C 0.31259 0.82052 0.77295 0.0
C189 C 0.27484 0.81531 0.76872 0.0
O190 O 0.18343 0.85779 0.79165 0.0
C191 C 0.17181 0.8547 0.71446 0.0
O192 O 0.13994 0.85868 0.7276 0.0
H193 H 0.27014 0.86504 0.78109 0.0
H194 H 0.26405 0.80004 0.76202 0.0
N195 N 0.17301 0.81205 0.76829 0.0
N196 N 0.1224 0.79021 0.76814 0.0
C197 C 0.13601 0.80971 0.76147 0.0
C198 C 0.18312 0.79343 0.7798 0.0
C199 C 0.15211 0.77993 0.77963 0.0
C200 C 0.17968 0.85112 0.81613 0.0
O201 O 0.1869 0.831 0.82138 0.0
H202 H 0.11931 0.82221 0.75218 0.0
H203 H 0.21059 0.79014 0.78878 0.0
O204 O 0.19986 0.84671 0.72728 0.0
H205 H 0.33664 0.80993 0.77038 0.0
H206 H 0.15117 0.76409 0.78836 0.0
Cu207 Cu 0.11171 0.43186 0.76976 0.0
N208 N 0.05857 0.43257 0.76599 0.0
N209 N 0.9973 0.4226 0.76662 0.0
C210 C 0.03368 0.41675 0.77168 0.0
C211 C 0.99949 0.44283 0.75737 0.0
C212 C 0.03724 0.44888 0.75689 0.0
O213 O 0.12332 0.41867 0.80471 0.0
C214 C 0.11784 0.41369 0.71613 0.0
O215 O 0.08058 0.41539 0.71569 0.0
H216 H 0.0421 0.40133 0.77951 0.0
H217 H 0.0484 0.46405 0.75009 0.0
N218 N 0.13161 0.45948 0.77212 0.0
N219 N 0.17486 0.48576 0.77323 0.0
C220 C 0.16765 0.4653 0.76613 0.0
C221 C 0.11541 0.47678 0.78344 0.0
C222 C 0.14191 0.49302 0.78405 0.0
C223 C 0.12527 0.39888 0.81002 0.0
O224 O 0.12103 0.38496 0.79016 0.0
H225 H 0.18867 0.45439 0.75802 0.0
H226 H 0.08678 0.47732 0.79161 0.0
O227 O 0.13584 0.41844 0.73798 0.0
H228 H 0.97556 0.45243 0.75085 0.0
H229 H 0.13739 0.50883 0.79229 0.0
Cu230 Cu 0.19515 0.42907 0.50792 0.0
N231 N 0.24825 0.4325 0.5097 0.0
N232 N 0.31055 0.42464 0.50893 0.0
C233 C 0.27466 0.41728 0.50521 0.0
C234 C 0.30634 0.44531 0.51607 0.0
C235 C 0.26802 0.45008 0.51657 0.0
O236 O 0.18375 0.41572 0.47297 0.0
C237 C 0.19364 0.41605 0.56309 0.0
O238 O 0.22574 0.4268 0.56378 0.0
H239 H 0.26758 0.40114 0.49928 0.0
H240 H 0.25545 0.46518 0.52218 0.0
N241 N 0.16936 0.45515 0.50748 0.0
N242 N 0.11966 0.47756 0.5088 0.0
C243 C 0.13258 0.45778 0.51466 0.0
C244 C 0.18025 0.47388 0.49662 0.0
C245 C 0.14979 0.48777 0.49757 0.0
C246 C 0.18523 0.39595 0.4674 0.0
O247 O 0.19278 0.38226 0.48697 0.0
H248 H 0.1154 0.44511 0.52327 0.0
H249 H 0.20776 0.47692 0.48742 0.0
O250 O 0.17653 0.4138 0.54024 0.0
H251 H 0.32923 0.45614 0.52127 0.0
H252 H 0.14939 0.50375 0.48928 0.0
Cu253 Cu 0.09853 0.82768 0.51093 0.0
N254 N 0.04541 0.82641 0.50833 0.0
N255 N 0.98481 0.83749 0.50564 0.0
C256 C 1.02169 0.84329 0.50888 0.0
C257 C 0.98566 0.81604 0.50296 0.0
C258 C 1.02297 0.8093 0.50453 0.0
O259 O 0.11708 0.83683 0.4755 0.0
C260 C 0.1415 0.84648 0.554 0.0
O261 O 0.17036 0.83605 0.54337 0.0
H262 H 0.0316 0.85954 0.51098 0.0
H263 H 0.03302 0.79308 0.50272 0.0
N264 N 0.11974 0.8009 0.51839 0.0
N265 N 0.16317 0.77492 0.52214 0.0
C266 C 0.15515 0.79436 0.5117 0.0
C267 C 0.10483 0.7851 0.5336 0.0
C268 C 0.13141 0.76902 0.53581 0.0
C269 C 0.1164 0.85584 0.4666 0.0
O270 O 0.10634 0.87138 0.4831 0.0
H271 H 0.17488 0.80391 0.49988 0.0
H272 H 0.07706 0.78555 0.5432 0.0
O273 O 0.10974 0.84643 0.54151 0.0
H274 H 0.96113 0.80582 0.50017 0.0
H275 H 0.12815 0.75452 0.54757 0.0
Cu276 Cu 0.85612 0.17985 0.25859 0.0
N277 N 0.80432 0.18213 0.2504 0.0
N278 N 0.74446 0.17073 0.24391 0.0
C279 C 0.78163 0.16524 0.24547 0.0
C280 C 0.74396 0.19205 0.24798 0.0
C281 C 0.78084 0.19899 0.25217 0.0
O282 O 0.87724 0.15972 0.23243 0.0
C283 C 0.88541 0.16238 0.30942 0.0
O284 O 0.91775 0.15868 0.29674 0.0
H285 H 0.79219 0.14906 0.24469 0.0
H286 H 0.78953 0.21499 0.25747 0.0
N287 N 0.88226 0.20587 0.25566 0.0
N288 N 0.93038 0.22935 0.25733 0.0
C289 C 0.91814 0.20962 0.26421 0.0
C290 C 0.87137 0.22385 0.24288 0.0
C291 C 0.90089 0.23835 0.24392 0.0
C292 C 0.88076 0.16631 0.2079 0.0
O293 O 0.87217 0.18621 0.20239 0.0
H294 H 0.93539 0.19777 0.2744 0.0
H295 H 0.84439 0.22607 0.23267 0.0
O296 O 0.85766 0.1704 0.29631 0.0
H297 H 0.71875 0.20193 0.24867 0.0
H298 H 0.90066 0.25422 0.23529 0.0
Cu299 Cu 0.94156 0.59567 0.26274 0.0
N300 N 0.99386 0.59456 0.25614 0.0
N301 N 0.0533 0.6072 0.2523 0.0
C302 C 1.01724 0.61122 0.26044 0.0
C303 C 0.05252 0.58703 0.2426 0.0
C304 C 1.01571 0.5793 0.24488 0.0
O305 O 0.92039 0.61305 0.23369 0.0
C306 C 0.90548 0.60881 0.31256 0.0
O307 O 0.87336 0.6032 0.30081 0.0
H308 H 1.00764 0.6261 0.26924 0.0
H309 H 1.00546 0.5639 0.23816 0.0
N310 N 0.91837 0.5688 0.26274 0.0
N311 N 0.87224 0.54415 0.26116 0.0
C312 C 0.88164 0.56475 0.25666 0.0
C313 C 0.93285 0.55014 0.27137 0.0
C314 C 0.90448 0.5349 0.27038 0.0
C315 C 0.92062 0.60508 0.20971 0.0
O316 O 0.93222 0.58533 0.20655 0.0
H317 H 0.86184 0.57693 0.25012 0.0
H318 H 0.9617 0.54793 0.27855 0.0
O319 O 0.93633 0.60791 0.29897 0.0
H320 H 0.07647 0.57868 0.23369 0.0
H321 H 0.90735 0.51834 0.27622 0.0
Cu322 Cu 0.84468 0.58607 0.52083 0.0
N323 N 0.79246 0.58203 0.52623 0.0
N324 N 0.73056 0.59044 0.52938 0.0
C325 C 0.76605 0.59743 0.52339 0.0
C326 C 0.73503 0.56973 0.53632 0.0
C327 C 0.77322 0.56461 0.53439 0.0
O328 O 0.86393 0.60037 0.55306 0.0
C329 C 0.88031 0.60447 0.47381 0.0
O330 O 0.91253 0.59835 0.48493 0.0
H331 H 0.7731 0.61361 0.51765 0.0
H332 H 0.78604 0.54935 0.53885 0.0
N333 N 0.87129 0.56041 0.51685 0.0
N334 N 0.92104 0.53811 0.51446 0.0
C335 C 0.90858 0.55759 0.52227 0.0
C336 C 0.85953 0.54211 0.5053 0.0
C337 C 0.89007 0.52829 0.50391 0.0
C338 C 0.86115 0.62025 0.5575 0.0
O339 O 0.84746 0.6327 0.53829 0.0
H340 H 0.92636 0.56987 0.53114 0.0
H341 H 0.83117 0.53931 0.49745 0.0
O342 O 0.84941 0.60202 0.48702 0.0
H343 H 0.71239 0.55896 0.54227 0.0
H344 H 0.8898 0.51263 0.49465 0.0
Cu345 Cu 0.95147 0.18534 0.51386 0.0
N346 N 1.00453 0.18751 0.51464 0.0
N347 N 0.06499 0.17614 0.5133 0.0
C348 C 0.02806 0.17122 0.50871 0.0
C349 C 0.06458 0.19644 0.52255 0.0
C350 C 1.0272 0.20342 0.52336 0.0
O351 O 0.93578 0.17582 0.54975 0.0
C352 C 0.90871 0.16614 0.47068 0.0
O353 O 0.87934 0.17625 0.48107 0.0
H354 H 1.01798 0.15573 0.50216 0.0
H355 H 1.01721 0.21877 0.53042 0.0
N356 N 0.92682 0.21133 0.50767 0.0
N357 N 0.87765 0.23401 0.50514 0.0
C358 C 0.89079 0.21547 0.51553 0.0
C359 C 0.93728 0.22795 0.49201 0.0
C360 C 0.90705 0.24203 0.49051 0.0
C361 C 0.93342 0.1568 0.55844 0.0
O362 O 0.93922 0.14085 0.54152 0.0
H363 H 0.87412 0.20457 0.52784 0.0
H364 H 0.96426 0.22925 0.48142 0.0
O365 O 0.9402 0.16636 0.4835 0.0
H366 H 0.08942 0.20558 0.52845 0.0
H367 H 0.90617 0.25645 0.47839 0.0
Cu368 Cu 0.71128 0.33622 0.76308 0.0
N369 N 0.7637 0.33167 0.76729 0.0
N370 N 0.82602 0.33966 0.76947 0.0
C371 C 0.78995 0.34731 0.769 0.0
C372 C 0.82192 0.31825 0.76803 0.0
C373 C 0.78364 0.31341 0.76647 0.0
O374 O 0.6961 0.35611 0.79163 0.0
C375 C 0.67671 0.35559 0.71493 0.0
O376 O 0.64568 0.35877 0.7294 0.0
H377 H 0.78246 0.36402 0.76872 0.0
H378 H 0.77147 0.29772 0.7639 0.0
N379 N 0.68263 0.31102 0.76694 0.0
N380 N 0.63265 0.28863 0.76683 0.0
C381 C 0.64648 0.30773 0.75851 0.0
C382 C 0.69193 0.29343 0.78115 0.0
C383 C 0.66139 0.27963 0.78105 0.0
C384 C 0.69854 0.34947 0.81621 0.0
O385 O 0.70998 0.32984 0.82053 0.0
H386 H 0.63045 0.31932 0.74695 0.0
H387 H 0.71839 0.29116 0.79202 0.0
O388 O 0.70568 0.34712 0.72611 0.0
H389 H 0.84479 0.30673 0.76759 0.0
H390 H 0.66001 0.26457 0.79177 0.0
Cu391 Cu 0.60275 0.92521 0.76554 0.0
N392 N 0.55081 0.93012 0.77157 0.0
N393 N 0.48844 0.92278 0.77523 0.0
C394 C 0.52425 0.9148 0.77501 0.0
C395 C 0.49295 0.94403 0.77189 0.0
C396 C 0.53125 0.94845 0.76938 0.0
O397 O 0.61927 0.90442 0.79254 0.0
C398 C 0.6339 0.90741 0.71523 0.0
O399 O 0.66558 0.90335 0.7285 0.0
H400 H 0.53115 0.89802 0.77572 0.0
H401 H 0.54364 0.96381 0.76484 0.0
N402 N 0.63206 0.95011 0.76971 0.0
N403 N 0.6825 0.97208 0.7702 0.0
C404 C 0.66873 0.95292 0.76216 0.0
C405 C 0.62247 0.96804 0.78316 0.0
C406 C 0.65331 0.9816 0.78338 0.0
C407 C 0.62093 0.91097 0.81719 0.0
O408 O 0.61239 0.93093 0.82241 0.0
H409 H 0.68512 0.941 0.75138 0.0
H410 H 0.59556 0.97072 0.79332 0.0
O411 O 0.60584 0.91563 0.72786 0.0
H412 H 0.47025 0.95561 0.77054 0.0
H413 H 0.65457 0.9969 0.79358 0.0
Cu414 Cu 0.70751 0.93278 0.51216 0.0
N415 N 0.76054 0.93539 0.51194 0.0
N416 N 0.82167 0.92518 0.51206 0.0
C417 C 0.78488 0.9188 0.51223 0.0
C418 C 0.82029 0.9467 0.51163 0.0
C419 C 0.78255 0.95295 0.51146 0.0
O420 O 0.69287 0.92358 0.47586 0.0
C421 C 0.6639 0.91333 0.55454 0.0
O422 O 0.63503 0.92371 0.54393 0.0
H423 H 0.77562 0.90235 0.51296 0.0
H424 H 0.77196 0.96912 0.51092 0.0
N425 N 0.6828 0.95871 0.51885 0.0
N426 N 0.63471 0.98214 0.52095 0.0
C427 C 0.6477 0.96379 0.50983 0.0
C428 C 0.69264 0.97444 0.53616 0.0
C429 C 0.66315 0.98897 0.53738 0.0
C430 C 0.68887 0.90463 0.46712 0.0
O431 O 0.692 0.88857 0.48418 0.0
H432 H 0.63152 0.95371 0.49613 0.0
H433 H 0.71861 0.97479 0.54803 0.0
O434 O 0.69574 0.91347 0.54209 0.0
H435 H 0.84477 0.95721 0.51111 0.0
H436 H 0.66199 1.00284 0.55051 0.0
Cu437 Cu 0.60267 0.34311 0.50827 0.0
N438 N 0.55019 0.33865 0.50485 0.0
N439 N 0.48768 0.34586 0.50364 0.0
C440 C 0.52307 0.35363 0.50821 0.0
C441 C 0.49293 0.32513 0.49714 0.0
C442 C 0.53147 0.32076 0.49782 0.0
O443 O 0.61963 0.35709 0.47505 0.0
C444 C 0.64225 0.35976 0.55424 0.0
O445 O 0.67272 0.35261 0.54162 0.0
H446 H 0.52933 0.36989 0.51407 0.0
H447 H 0.54491 0.30568 0.49319 0.0
N448 N 0.6296 0.31747 0.5113 0.0
N449 N 0.67953 0.2952 0.51163 0.0
C450 C 0.6658 0.3142 0.50307 0.0
C451 C 0.61984 0.29992 0.52544 0.0
C452 C 0.65045 0.28613 0.52558 0.0
C453 C 0.61415 0.37659 0.46932 0.0
O454 O 0.59914 0.38923 0.48784 0.0
H455 H 0.68206 0.32595 0.49183 0.0
H456 H 0.59301 0.29774 0.53598 0.0
O457 O 0.61028 0.35896 0.54204 0.0
H458 H 0.47064 0.31397 0.49171 0.0
H459 H 0.6517 0.27109 0.53636 0.0
Cu460 Cu 0.35831 0.68752 0.25674 0.0
N461 N 0.30547 0.6863 0.26136 0.0
N462 N 0.24643 0.67277 0.26174 0.0
C463 C 0.28316 0.66965 0.25448 0.0
C464 C 0.24569 0.69226 0.27349 0.0
C465 C 0.28215 0.70054 0.27329 0.0
O466 O 0.36878 0.67794 0.21991 0.0
C467 C 0.36721 0.66493 0.30682 0.0
O468 O 0.32985 0.66526 0.30753 0.0
H469 H 0.29392 0.65542 0.24465 0.0
H470 H 0.29118 0.71559 0.28191 0.0
N471 N 0.37693 0.71533 0.25858 0.0
N472 N 0.42057 0.74136 0.26049 0.0
C473 C 0.41341 0.72037 0.26408 0.0
C474 C 0.36014 0.7337 0.25129 0.0
C475 C 0.38693 0.74982 0.25259 0.0
C476 C 0.37682 0.65924 0.21184 0.0
O477 O 0.38108 0.64388 0.22983 0.0
H478 H 0.43444 0.70863 0.26986 0.0
H479 H 0.33102 0.73513 0.24433 0.0
O480 O 0.38443 0.67184 0.28562 0.0
H481 H 0.22088 0.69973 0.28248 0.0
H482 H 0.38231 0.76625 0.24682 0.0
Cu483 Cu 0.44012 0.09156 0.25577 0.0
N484 N 0.49337 0.09095 0.25329 0.0
N485 N 0.55274 0.10376 0.25013 0.0
C486 C 0.51521 0.10823 0.24856 0.0
C487 C 0.55463 0.08272 0.25568 0.0
C488 C 0.51792 0.07486 0.25775 0.0
O489 O 0.42209 0.10497 0.22269 0.0
C490 C 0.4468 0.11079 0.30847 0.0
O491 O 0.48352 0.10825 0.30468 0.0
H492 H 0.50365 0.12395 0.24496 0.0
H493 H 0.50983 0.0588 0.26322 0.0
N494 N 0.41785 0.06454 0.25593 0.0
N495 N 0.36994 0.04094 0.25695 0.0
C496 C 0.38132 0.06097 0.26299 0.0
C497 C 0.43027 0.04614 0.24501 0.0
C498 C 0.40087 0.03149 0.24581 0.0
C499 C 0.42 0.12484 0.21807 0.0
O500 O 0.42784 0.1384 0.23776 0.0
H501 H 0.3631 0.07324 0.2714 0.0
H502 H 0.45788 0.04389 0.23563 0.0
O503 O 0.42376 0.10579 0.28936 0.0
H504 H 0.58058 0.07388 0.25935 0.0
H505 H 0.4016 0.01558 0.23728 0.0
Cu506 Cu 0.36881 0.09755 0.50998 0.0
N507 N 0.3156 0.09595 0.51135 0.0
N508 N 0.25539 0.10767 0.51401 0.0
C509 C 0.29253 0.11215 0.51866 0.0
C510 C 0.25524 0.08777 0.50342 0.0
C511 C 0.29237 0.08065 0.50168 0.0
O512 O 0.38504 0.11594 0.53967 0.0
C513 C 0.4137 0.1175 0.46868 0.0
O514 O 0.4387 0.12055 0.48827 0.0
H515 H 0.30309 0.12737 0.52582 0.0
H516 H 0.30179 0.06576 0.49284 0.0
N517 N 0.39318 0.0711 0.51377 0.0
N518 N 0.44101 0.04759 0.51715 0.0
C519 C 0.43117 0.0681 0.51255 0.0
C520 C 0.37832 0.05181 0.51942 0.0
C521 C 0.40771 0.03728 0.52141 0.0
C522 C 0.38538 0.10819 0.56374 0.0
O523 O 0.37601 0.08809 0.5672 0.0
H524 H 0.45119 0.08082 0.50847 0.0
H525 H 0.34838 0.0486 0.52257 0.0
O526 O 0.38199 0.10876 0.47433 0.0
H527 H 0.23022 0.0791 0.49682 0.0
H528 H 0.40477 0.02056 0.52645 0.0
Cu529 Cu 0.4428 0.67827 0.51636 0.0
N530 N 0.49606 0.68066 0.51509 0.0
N531 N 0.5576 0.67121 0.51394 0.0
C532 C 0.52133 0.66464 0.51815 0.0
C533 C 0.55487 0.69221 0.50818 0.0
C534 C 0.51701 0.69795 0.50885 0.0
O535 O 0.43033 0.65911 0.54621 0.0
C536 C 0.44257 0.66791 0.45957 0.0
O537 O 0.47732 0.67565 0.45987 0.0
H538 H 0.51305 0.64834 0.52229 0.0
H539 H 0.50551 0.71351 0.50421 0.0
N540 N 0.4193 0.70471 0.52254 0.0
N541 N 0.37464 0.73019 0.52418 0.0
C542 C 0.38292 0.70995 0.51667 0.0
C543 C 0.43443 0.72215 0.53432 0.0
C544 C 0.40709 0.73787 0.53527 0.0
C545 C 0.43446 0.66524 0.57086 0.0
O546 O 0.44596 0.68482 0.57564 0.0
H547 H 0.36303 0.69913 0.50699 0.0
H548 H 0.46312 0.72324 0.54221 0.0
O549 O 0.42357 0.6671 0.48178 0.0
H550 H 0.57849 0.70271 0.50352 0.0
H551 H 0.41059 0.75356 0.54412 0.0
Cu552 Cu 0.70164 0.8348 0.26949 0.0
N553 N 0.75385 0.83201 0.27553 0.0
N554 N 0.81543 0.84086 0.2792 0.0
C555 C 0.78038 0.84717 0.27115 0.0
C556 C 0.81056 0.82088 0.28894 0.0
C557 C 0.77256 0.81551 0.28673 0.0
O558 O 0.67962 0.84653 0.30256 0.0
C559 C 0.66472 0.85255 0.22312 0.0
O560 O 0.6337 0.84423 0.23375 0.0
H561 H 0.77389 0.86256 0.26235 0.0
H562 H 0.75934 0.80081 0.29335 0.0
N563 N 0.67921 0.80826 0.26325 0.0
N564 N 0.63442 0.78296 0.25978 0.0
C565 C 0.64305 0.80266 0.26917 0.0
C566 C 0.69413 0.79159 0.24973 0.0
C567 C 0.66666 0.77595 0.24763 0.0
C568 C 0.68941 0.86447 0.31239 0.0
O569 O 0.71167 0.87701 0.29796 0.0
H570 H 0.62338 0.81306 0.27976 0.0
H571 H 0.72261 0.79113 0.24129 0.0
O572 O 0.69562 0.85179 0.23663 0.0
H573 H 0.83259 0.81104 0.29783 0.0
H574 H 0.66987 0.76092 0.23701 0.0
Cu575 Cu 0.6033 0.43069 0.2694 0.0
N576 N 0.55096 0.43456 0.27394 0.0
N577 N 0.48897 0.42643 0.27661 0.0
C578 C 0.52436 0.41927 0.2708 0.0
C579 C 0.49363 0.44709 0.28367 0.0
C580 C 0.53192 0.45202 0.28214 0.0
O581 O 0.62156 0.41748 0.30272 0.0
C582 C 0.641 0.41278 0.22311 0.0
O583 O 0.67205 0.4207 0.23414 0.0
H584 H 0.53097 0.4032 0.26432 0.0
H585 H 0.545 0.46715 0.2871 0.0
N586 N 0.6287 0.45671 0.26496 0.0
N587 N 0.67627 0.48059 0.26394 0.0
C588 C 0.66524 0.46079 0.27162 0.0
C589 C 0.61598 0.47449 0.25269 0.0
C590 C 0.64513 0.48926 0.25212 0.0
C591 C 0.61677 0.39794 0.30861 0.0
O592 O 0.60231 0.38503 0.29016 0.0
H593 H 0.68367 0.44909 0.28098 0.0
H594 H 0.58772 0.47643 0.24427 0.0
O595 O 0.60973 0.41401 0.23618 0.0
H596 H 0.47115 0.45775 0.29013 0.0
H597 H 0.64339 0.5051 0.24352 0.0
Cu598 Cu 0.70176 0.42436 1.01212 0.0
N599 N 0.75342 0.43081 1.00854 0.0
N600 N 0.81622 0.42482 1.00747 0.0
C601 C 0.7811 0.41631 1.00445 0.0
C602 C 0.81025 0.44555 0.01357 0.0
C603 C 0.77153 0.44915 0.01442 0.0
O604 O 0.68955 0.40382 0.9836 0.0
C605 C 0.66821 0.40636 0.06187 0.0
O606 O 0.63614 0.40337 0.0486 0.0
H607 H 0.77541 0.39954 1.00122 0.0
H608 H 0.75769 0.46378 0.02048 0.0
N609 N 0.67156 0.44872 1.00753 0.0
N610 N 0.62069 0.47021 1.00642 0.0
C611 C 0.6344 0.45096 0.01396 0.0
C612 C 0.68158 0.46712 0.99534 0.0
C613 C 0.65042 0.48039 0.99471 0.0
C614 C 0.69097 0.41064 0.95905 0.0
O615 O 0.69901 0.43082 0.95482 0.0
H616 H 0.6177 0.43865 0.02373 0.0
H617 H 0.70926 0.47041 0.98659 0.0
O618 O 0.69702 0.4139 0.04938 0.0
H619 H 0.83218 0.45716 0.01809 0.0
H620 H 0.64946 0.49604 0.98543 0.0
Cu621 Cu 0.60782 0.83981 1.01172 0.0
N622 N 0.55619 0.83813 1.0032 0.0
N623 N 0.49688 0.85012 0.99696 0.0
C624 C 0.53155 0.85414 1.00771 0.0
C625 C 0.49985 0.83067 0.9853 0.0
C626 C 0.53661 0.82337 0.98901 0.0
O627 O 0.63004 0.85765 0.98352 0.0
C628 C 0.64079 0.85519 0.06178 0.0
O629 O 0.67399 0.85248 0.04985 0.0
H630 H 0.53934 0.86868 0.01824 0.0
H631 H 0.54855 0.80878 0.98095 0.0
N632 N 0.6316 0.81318 1.01201 0.0
N633 N 0.6783 0.78899 0.01351 0.0
C634 C 0.66946 0.80984 1.01104 0.0
C635 C 0.61584 0.79378 0.01525 0.0
C636 C 0.64457 0.7788 0.01601 0.0
C637 C 0.63089 0.85 0.95938 0.0
O638 O 0.62048 0.83008 0.95566 0.0
H639 H 0.69011 0.82255 1.00882 0.0
H640 H 0.58569 0.79078 0.0177 0.0
O641 O 0.61046 0.85174 0.04829 0.0
H642 H 0.47762 0.82269 0.97388 0.0
H643 H 0.64098 0.76185 0.01922 0.0
Cu644 Cu 0.36308 0.17562 0.76034 0.0
N645 N 0.3114 0.17702 0.75176 0.0
N646 N 0.25255 0.16416 0.74534 0.0
C647 C 0.2879 0.16025 0.75491 0.0
C648 C 0.25388 0.1844 0.73589 0.0
C649 C 0.29036 0.19226 0.73975 0.0
O650 O 0.38547 0.15759 0.7325 0.0
C651 C 0.39473 0.16102 0.81111 0.0
O652 O 0.4283 0.16475 0.80021 0.0
H653 H 0.29696 0.14533 0.76387 0.0
H654 H 0.30099 0.20771 0.73353 0.0
N655 N 0.38791 0.20206 0.76063 0.0
N656 N 0.43643 0.22535 0.7613 0.0
C657 C 0.42573 0.20484 0.75753 0.0
C658 C 0.37393 0.22147 0.76649 0.0
C659 C 0.40373 0.23589 0.76682 0.0
C660 C 0.38725 0.16545 0.70853 0.0
O661 O 0.37711 0.18541 0.70494 0.0
H662 H 0.445 0.19186 0.75305 0.0
H663 H 0.34439 0.22479 0.77113 0.0
O664 O 0.36493 0.16368 0.7968 0.0
H665 H 0.23063 0.1927 0.72606 0.0
H666 H 0.40158 0.25263 0.7719 0.0
Cu667 Cu 0.45601 0.58168 0.75975 0.0
N668 N 0.5086 0.57869 0.75526 0.0
N669 N 0.56993 0.58855 0.75379 0.0
C670 C 0.53329 0.59489 0.75132 0.0
C671 C 0.56804 0.56748 0.75936 0.0
C672 C 0.53028 0.56152 0.76049 0.0
O673 O 0.43945 0.60303 0.7336 0.0
C674 C 0.42083 0.59699 0.81008 0.0
O675 O 0.38891 0.59983 0.79658 0.0
H676 H 0.52439 0.61126 0.74862 0.0
H677 H 0.51948 0.54605 0.76638 0.0
N678 N 0.43011 0.55593 0.75327 0.0
N679 N 0.38308 0.53191 0.74901 0.0
C680 C 0.393 0.55156 0.75804 0.0
C681 C 0.44404 0.53849 0.74078 0.0
C682 C 0.41532 0.52368 0.73825 0.0
C683 C 0.4391 0.59752 0.70852 0.0
O684 O 0.44794 0.57779 0.70216 0.0
H685 H 0.37344 0.56287 0.76705 0.0
H686 H 0.47279 0.53685 0.73317 0.0
O687 O 0.45014 0.59009 0.79764 0.0
H688 H 0.59212 0.55721 0.76336 0.0
H689 H 0.41808 0.50809 0.729 0.0
Cu690 Cu 0.35407 0.58233 0.01894 0.0
N691 N 0.30161 0.58107 0.02437 0.0
N692 N 0.24144 0.59272 0.02453 0.0
C693 C 0.27738 0.5962 0.01576 0.0
C694 C 0.24321 0.57454 0.0393 0.0
C695 C 0.28046 0.56738 0.03916 0.0
O696 O 0.3765 0.59586 0.05064 0.0
C697 C 0.39317 0.59751 0.97165 0.0
O698 O 0.4238 0.5898 0.98344 0.0
H699 H 0.28645 0.61003 1.00425 0.0
H700 H 0.29152 0.55354 0.04965 0.0
N701 N 0.37625 0.55546 0.01592 0.0
N702 N 0.42385 0.53186 0.01372 0.0
C703 C 0.41299 0.55153 0.02173 0.0
C704 C 0.36292 0.53757 1.00416 0.0
C705 C 0.39225 0.5229 1.00288 0.0
C706 C 0.36623 0.61396 0.05965 0.0
O707 O 0.34226 0.62546 0.04529 0.0
H708 H 0.43174 0.56333 0.03064 0.0
H709 H 0.33456 0.53573 0.99585 0.0
O710 O 0.36175 0.59727 0.98461 0.0
H711 H 0.21945 0.56706 0.04966 0.0
H712 H 0.39095 0.50739 0.99325 0.0
Cu713 Cu 0.44489 0.1796 0.02108 0.0
N714 N 0.49688 0.18125 0.02815 0.0
N715 N 0.5563 0.16928 0.03388 0.0
C716 C 0.52051 0.1645 0.02589 0.0
C717 C 0.55509 0.19002 0.04132 0.0
C718 C 0.51826 0.19735 0.03787 0.0
O719 O 0.42193 0.16618 0.05261 0.0
C720 C 0.40987 0.16297 0.97294 0.0
O721 O 0.37801 0.17061 0.98306 0.0
H722 H 0.51138 0.14905 0.01855 0.0
H723 H 0.50769 0.2131 0.04264 0.0
N724 N 0.42228 0.20623 0.01662 0.0
N725 N 0.37524 0.23015 0.01361 0.0
C726 C 0.38546 0.21045 0.02198 0.0
C727 C 0.43618 0.22388 1.0046 0.0
C728 C 0.40724 0.23872 1.00283 0.0
C729 C 0.42498 0.14646 0.058 0.0
O730 O 0.44063 0.13371 0.03989 0.0
H731 H 0.36637 0.19896 0.03118 0.0
H732 H 0.46483 0.2255 0.9967 0.0
O733 O 0.44011 0.16391 0.98714 0.0
H734 H 0.57877 0.19909 0.04942 0.0
H735 H 0.40926 0.2542 0.99319 0.0
H736 H 0.10626 0.36859 0.18472 0.0
H737 H 0.22888 0.36418 0.18897 0.0
H738 H 0.23305 0.36631 0.13937 0.0
H739 H 0.20189 0.36558 0.09455 0.0
H740 H 0.07936 0.36965 0.08977 0.0
H741 H 0.07536 0.37182 0.13955 0.0
C742 C 0.13393 0.36846 0.17485 0.0
C743 C 0.16713 0.36594 0.19071 0.0
C744 C 0.13623 0.36947 0.14608 0.0
C745 C 0.20275 0.36589 0.17742 0.0
C746 C 0.20523 0.36706 0.14895 0.0
C747 C 0.17431 0.36727 0.10433 0.0
C748 C 0.141 0.3672 0.08833 0.0
C749 C 0.17214 0.36826 0.13303 0.0
C750 C 0.10554 0.36958 0.10147 0.0
C751 C 0.10318 0.37072 0.13002 0.0
H752 H 0.09803 0.90085 0.09801 0.0
H753 H 0.22062 0.90455 0.09218 0.0
H754 H 0.22572 0.90319 0.14182 0.0
H755 H 0.19524 0.90491 0.18699 0.0
H756 H 0.0727 0.90107 0.19297 0.0
H757 H 0.06793 0.89818 0.14337 0.0
C758 C 0.12589 0.90105 0.10757 0.0
C759 C 0.1588 0.90312 0.0913 0.0
C760 C 0.12872 0.90035 0.13626 0.0
C761 C 0.19471 0.90312 0.1041 0.0
C762 C 0.19771 0.9024 0.13257 0.0
C763 C 0.16751 0.90308 0.17751 0.0
C764 C 0.13441 0.90352 0.19376 0.0
C765 C 0.16488 0.90162 0.14888 0.0
C766 C 0.09873 0.90092 0.18105 0.0
C767 C 0.09591 0.89936 0.15261 0.0
H768 H 0.94493 0.65837 0.83567 0.0
H769 H 0.82243 0.65333 0.83122 0.0
H770 H 0.81897 0.64907 0.88073 0.0
H771 H 0.85011 0.65068 0.92576 0.0
H772 H 0.97265 0.65594 0.92997 0.0
H773 H 0.97654 0.65599 0.88027 0.0
C774 C 0.9175 0.65601 0.84544 0.0
C775 C 0.88401 0.65648 0.82969 0.0
C776 C 0.91561 0.65379 0.87402 0.0
C777 C 0.84873 0.6532 0.84277 0.0
C778 C 0.84666 0.65084 0.87117 0.0
C779 C 0.87771 0.65152 0.91583 0.0
C780 C 0.91094 0.65361 0.93171 0.0
C781 C 0.87983 0.65172 0.88709 0.0
C782 C 0.94649 0.65451 0.91838 0.0
C783 C 0.94881 0.65458 0.88988 0.0
H784 H 0.94942 0.11526 0.92685 0.0
H785 H 0.82738 0.10824 0.93354 0.0
H786 H 0.82165 0.10838 0.8839 0.0
H787 H 0.85181 0.10661 0.8386 0.0
H788 H 0.97379 0.11387 0.83181 0.0
H789 H 0.97878 0.11783 0.88126 0.0
C790 C 0.92152 0.11406 0.91747 0.0
C791 C 0.88901 0.11143 0.93399 0.0
C792 C 0.91834 0.11407 0.88879 0.0
C793 C 0.85301 0.11014 0.92142 0.0
C794 C 0.84965 0.11015 0.89296 0.0
C795 C 0.87943 0.1094 0.84787 0.0
C796 C 0.91237 0.10961 0.83145 0.0
C797 C 0.88221 0.11151 0.87643 0.0
C798 C 0.94789 0.11348 0.84387 0.0
C799 C 0.95085 0.11566 0.87223 0.0
H800 H 0.11529 0.86621 0.67887 0.0
H801 H 0.23364 0.84763 0.68188 0.0
H802 H 0.23586 0.84593 0.63218 0.0
H803 H 0.20266 0.84588 0.58816 0.0
H804 H 0.08409 0.86382 0.58478 0.0
H805 H 0.08384 0.86995 0.63407 0.0
C806 C 0.14172 0.86209 0.66866 0.0
C807 C 0.17405 0.85676 0.68423 0.0
C808 C 0.14279 0.86091 0.6399 0.0
C809 C 0.20813 0.8516 0.67054 0.0
C810 C 0.20948 0.8506 0.64204 0.0
C811 C 0.1769 0.85148 0.59808 0.0
C812 C 0.14335 0.85409 0.58274 0.0
C813 C 0.17673 0.85464 0.62654 0.0
C814 C 0.11033 0.86153 0.59602 0.0
C815 C 0.11008 0.86495 0.6243 0.0
H816 H 0.22614 0.41493 0.61342 0.0
H817 H 0.11946 0.40392 0.57193 0.0
H818 H 0.08718 0.39999 0.61602 0.0
H819 H 0.08811 0.40366 0.66619 0.0
H820 H 0.19485 0.41547 0.70737 0.0
H821 H 0.22821 0.41488 0.66356 0.0
C822 C 0.1959 0.41137 0.61396 0.0
C823 C 0.1752 0.40996 0.58933 0.0
C824 C 0.17745 0.40944 0.63937 0.0
C825 C 0.13612 0.40512 0.5905 0.0
C826 C 0.11759 0.40299 0.61574 0.0
C827 C 0.11876 0.4058 0.66567 0.0
C828 C 0.13881 0.40985 0.69013 0.0
C829 C 0.13778 0.40573 0.6403 0.0
C830 C 0.17858 0.41241 0.68896 0.0
C831 C 0.19771 0.41217 0.66386 0.0
H832 H 0.94038 0.14987 0.34572 0.0
H833 H 0.82233 0.1688 0.34092 0.0
H834 H 0.81786 0.16898 0.39057 0.0
H835 H 0.84901 0.16761 0.43528 0.0
H836 H 0.96729 0.14934 0.44054 0.0
H837 H 0.96975 0.14467 0.39102 0.0
C838 C 0.91354 0.15375 0.35551 0.0
C839 C 0.88196 0.15962 0.33949 0.0
C840 C 0.91115 0.15403 0.38427 0.0
C841 C 0.84731 0.16444 0.35263 0.0
C842 C 0.84466 0.16457 0.38111 0.0
C843 C 0.87517 0.16223 0.4257 0.0
C844 C 0.908 0.15912 0.44167 0.0
C845 C 0.87664 0.15995 0.39713 0.0
C846 C 0.94157 0.15199 0.42881 0.0
C847 C 0.9431 0.14942 0.40041 0.0
H848 H 0.84591 0.61325 0.34804 0.0
H849 H 0.96882 0.61288 0.34456 0.0
H850 H 0.97197 0.61367 0.39432 0.0
H851 H 0.93995 0.61057 0.43885 0.0
H852 H 0.81705 0.61112 0.4424 0.0
H853 H 0.81395 0.61447 0.3928 0.0
C854 C 0.87339 0.61365 0.35814 0.0
C855 C 0.90701 0.6127 0.3425 0.0
C856 C 0.87508 0.614 0.38688 0.0
C857 C 0.9424 0.61346 0.356 0.0
C858 C 0.94428 0.61385 0.38453 0.0
C859 C 0.91248 0.61176 0.42884 0.0
C860 C 0.87883 0.61027 0.44439 0.0
C861 C 0.91082 0.61352 0.40019 0.0
C862 C 0.84348 0.61206 0.43102 0.0
C863 C 0.84163 0.61389 0.40257 0.0
H864 H 0.70412 0.3584 0.58764 0.0
H865 H 0.58333 0.37119 0.58807 0.0
H866 H 0.5838 0.37285 0.63798 0.0
H867 H 0.61732 0.36701 0.6817 0.0
H868 H 0.73785 0.3533 0.68065 0.0
H869 H 0.73853 0.35577 0.63099 0.0
C870 C 0.67795 0.36189 0.59857 0.0
C871 C 0.6437 0.36445 0.58402 0.0
C872 C 0.67825 0.36243 0.62731 0.0
C873 C 0.61014 0.36905 0.59866 0.0
C874 C 0.61033 0.36991 0.62727 0.0
C875 C 0.64383 0.36484 0.67064 0.0
C876 C 0.67736 0.35972 0.685 0.0
C877 C 0.64402 0.36604 0.64186 0.0
C878 C 0.71147 0.35704 0.67023 0.0
C879 C 0.71195 0.35845 0.64175 0.0
H880 H 0.69051 0.89549 0.67975 0.0
H881 H 0.57209 0.91396 0.68261 0.0
H882 H 0.56974 0.91482 0.6329 0.0
H883 H 0.60278 0.91418 0.58881 0.0
H884 H 0.72144 0.89639 0.58549 0.0
H885 H 0.72186 0.89104 0.63493 0.0
C886 C 0.66404 0.8994 0.66951 0.0
C887 C 0.63172 0.90496 0.68504 0.0
C888 C 0.66288 0.90009 0.64073 0.0
C889 C 0.5976 0.90985 0.67131 0.0
C890 C 0.59617 0.91036 0.6428 0.0
C891 C 0.6286 0.90877 0.59878 0.0
C892 C 0.66212 0.90598 0.58339 0.0
C893 C 0.62888 0.90609 0.62732 0.0
C894 C 0.69521 0.8988 0.59676 0.0
C895 C 0.69557 0.89584 0.62512 0.0
H896 H 0.33831 0.65391 0.35645 0.0
H897 H 0.4443 0.66767 0.31511 0.0
H898 H 0.47765 0.66779 0.35891 0.0
H899 H 0.47535 0.668 0.4091 0.0
H900 H 0.36883 0.65556 0.45042 0.0
H901 H 0.33717 0.65082 0.40641 0.0
C902 C 0.36883 0.6566 0.3569 0.0
C903 C 0.38864 0.66101 0.33247 0.0
C904 C 0.38769 0.65714 0.38221 0.0
C905 C 0.42824 0.66432 0.33355 0.0
C906 C 0.44733 0.66451 0.35863 0.0
C907 C 0.44529 0.66402 0.40854 0.0
C908 C 0.42443 0.66242 0.43309 0.0
C909 C 0.42712 0.6616 0.38314 0.0
C910 C 0.38557 0.65704 0.4319 0.0
C911 C 0.3674 0.65436 0.4067 0.0
H912 H 0.36789 0.11423 0.42393 0.0
H913 H 0.48302 0.1294 0.44821 0.0
H914 H 0.50239 0.13095 0.40031 0.0
H915 H 0.4882 0.12436 0.35198 0.0
H916 H 0.37346 0.10848 0.32757 0.0
H917 H 0.35231 0.11119 0.37508 0.0
C918 C 0.39714 0.11813 0.41877 0.0
C919 C 0.42407 0.12141 0.43971 0.0
C920 C 0.4082 0.11878 0.39115 0.0
C921 C 0.46172 0.12668 0.43258 0.0
C922 C 0.47287 0.12751 0.40516 0.0
C923 C 0.45843 0.12176 0.35695 0.0
C924 C 0.43257 0.11596 0.33625 0.0
C925 C 0.44659 0.12303 0.38434 0.0
C926 C 0.39403 0.1129 0.34307 0.0
C927 C 0.38194 0.11433 0.37028 0.0
H928 H 0.60484 0.85547 0.18793 0.0
H929 H 0.72701 0.86279 0.19205 0.0
H930 H 0.73012 0.86618 0.14241 0.0
H931 H 0.699 0.86303 0.09748 0.0
H932 H 0.57679 0.85569 0.09358 0.0
H933 H 0.57299 0.85654 0.1433 0.0
C934 C 0.6321 0.85815 0.17804 0.0
C935 C 0.66565 0.85857 0.19376 0.0
C936 C 0.6338 0.85988 0.14939 0.0
C937 C 0.70068 0.86227 0.18053 0.0
C938 C 0.70255 0.86412 0.15207 0.0
C939 C 0.67148 0.86192 0.10748 0.0
C940 C 0.63835 0.85898 0.09172 0.0
C941 C 0.66942 0.8623 0.13622 0.0
C942 C 0.60287 0.85779 0.1051 0.0
C943 C 0.60062 0.85822 0.13361 0.0
H944 H 0.6099 0.39777 0.09755 0.0
H945 H 0.73117 0.4092 0.09425 0.0
H946 H 0.73403 0.40992 0.14396 0.0
H947 H 0.70143 0.41096 0.18824 0.0
H948 H 0.58005 0.40023 0.19199 0.0
H949 H 0.57816 0.39527 0.14249 0.0
C950 C 0.63705 0.40009 0.10769 0.0
C951 C 0.67015 0.40369 0.09204 0.0
C952 C 0.63852 0.40075 0.13648 0.0
C953 C 0.7051 0.4066 0.10565 0.0
C954 C 0.70682 0.40704 0.13416 0.0
C955 C 0.67462 0.40722 0.17833 0.0
C956 C 0.64091 0.40624 0.19389 0.0
C957 C 0.67359 0.4047 0.14977 0.0
C958 C 0.60648 0.40122 0.1806 0.0
C959 C 0.60531 0.39846 0.15221 0.0
H960 H 0.45123 0.15379 0.84829 0.0
H961 H 0.32908 0.15949 0.84104 0.0
H962 H 0.3226 0.15837 0.8906 0.0
H963 H 0.35196 0.15967 0.93609 0.0
H964 H 0.47405 0.15378 0.9435 0.0
H965 H 0.47996 0.15075 0.89399 0.0
C966 C 0.42316 0.15449 0.85752 0.0
C967 C 0.39082 0.15705 0.84089 0.0
C968 C 0.41953 0.15393 0.88617 0.0
C969 C 0.35459 0.15768 0.85326 0.0
C970 C 0.35079 0.1571 0.88168 0.0
C971 C 0.37981 0.15739 0.92693 0.0
C972 C 0.41249 0.15729 0.94354 0.0
C973 C 0.38313 0.15582 0.89835 0.0
C974 C 0.44834 0.15408 0.93127 0.0
C975 C 0.45183 0.15243 0.90288 0.0
H976 H 0.36292 0.60755 0.8452 0.0
H977 H 0.48314 0.59307 0.84285 0.0
H978 H 0.48592 0.59414 0.89251 0.0
H979 H 0.45347 0.59603 0.93673 0.0
H980 H 0.33315 0.60997 0.93968 0.0
H981 H 0.33145 0.6126 0.88989 0.0
C982 C 0.3898 0.60486 0.85553 0.0
C983 C 0.42261 0.59997 0.84019 0.0
C984 C 0.39126 0.60534 0.88431 0.0
C985 C 0.45727 0.59666 0.85402 0.0
C986 C 0.45896 0.59727 0.88251 0.0
C987 C 0.42696 0.59996 0.92656 0.0
C988 C 0.39346 0.60257 0.942 0.0
C989 C 0.426 0.60113 0.89788 0.0
C990 C 0.35941 0.60776 0.92837 0.0
C991 C 0.35833 0.60918 0.89983 0.0
H992 H 0.96565 0.26013 0.22787 0.0
H993 H 0.97945 0.21921 0.29805 0.0
H994 H 0.04256 0.2342 0.30628 0.0
H995 H 0.09347 0.25933 0.29406 0.0
H996 H 0.07972 0.30033 0.22396 0.0
H997 H 1.01666 0.28524 0.2156 0.0
C998 C 0.98222 0.25461 0.24513 0.0
C999 C 0.96759 0.2385 0.26228 0.0
C1000 C 1.01853 0.26339 0.24985 0.0
C1001 C 0.98999 0.23136 0.28428 0.0
C1002 C 1.02609 0.24002 0.2891 0.0
C1003 C 0.07695 0.26483 0.27676 0.0
C1004 C 0.09154 0.281 0.25968 0.0
C1005 C 0.04068 0.25603 0.27201 0.0
C1006 C 0.06919 0.28812 0.23766 0.0
C1007 C 0.03313 0.27941 0.23277 0.0
H1008 H 0.19536 0.01831 0.26091 0.0
H1009 H 0.2412 0.95455 0.26184 0.0
H1010 H 0.30576 0.96883 0.26163 0.0
H1011 H 0.34955 0.99943 0.26022 0.0
H1012 H 0.3035 0.06315 0.25764 0.0
H1013 H 0.23909 0.04889 0.25955 0.0
C1014 C 0.21942 1.00752 0.2609 0.0
C1015 C 0.21316 0.98536 0.26144 0.0
C1016 C 0.25667 0.01584 0.26054 0.0
C1017 C 0.2449 0.97166 0.26184 0.0
C1018 C 0.28198 0.97982 0.26153 0.0
C1019 C 0.32547 0.01021 0.25993 0.0
C1020 C 0.33172 0.03237 0.25884 0.0
C1021 C 0.28823 1.00189 0.26075 0.0
C1022 C 0.29994 0.04606 0.2589 0.0
C1023 C 0.26289 0.0379 0.25977 0.0
H1024 H 0.10178 0.01441 1.00499 0.0
H1025 H 0.05142 0.9532 0.02284 0.0
H1026 H 0.9883 0.96933 0.02397 0.0
H1027 H 0.94736 1.00096 0.02086 0.0
H1028 H 0.9978 0.06213 1.00274 0.0
H1029 H 0.06079 0.04597 1.00154 0.0
C1030 C 0.07707 1.0046 1.00931 0.0
C1031 C 0.08156 0.98258 0.01376 0.0
C1032 C 0.04076 0.01402 1.01015 0.0
C1033 C 0.04898 0.97011 0.01892 0.0
C1034 C 1.01279 0.97936 0.01978 0.0
C1035 C 0.97202 0.01076 0.01642 0.0
C1036 C 0.96754 0.03281 1.01203 0.0
C1037 C 1.00832 1.00131 0.01547 0.0
C1038 C 1.00015 0.04523 1.00668 0.0
C1039 C 0.03631 0.03596 1.00577 0.0
H1040 H 0.35657 0.27199 1.01288 0.0
H1041 H 0.30796 0.20876 0.01487 0.0
H1042 H 0.24417 0.22378 0.01599 0.0
H1043 H 0.20178 0.25479 0.0161 0.0
H1044 H 0.24985 0.31807 0.01386 0.0
H1045 H 0.31393 0.30311 1.01233 0.0
C1046 C 0.33207 0.26148 0.01334 0.0
C1047 C 0.33739 0.23923 0.01403 0.0
C1048 C 0.29517 0.27023 0.01371 0.0
C1049 C 0.30508 0.22592 0.0149 0.0
C1050 C 0.2684 0.2345 0.01531 0.0
C1051 C 0.22623 0.26533 0.01546 0.0
C1052 C 0.2208 0.28754 0.01509 0.0
C1053 C 0.26309 0.25662 0.01481 0.0
C1054 C 0.25297 0.30092 0.01379 0.0
C1055 C 0.28974 0.29237 0.01312 0.0
H1056 H 0.94679 0.77061 0.76035 0.0
H1057 H 0.98941 0.70612 0.76054 0.0
H1058 H 0.05457 0.71937 0.76195 0.0
H1059 H 0.09974 0.74916 0.7643 0.0
H1060 H 0.05748 0.81369 0.76568 0.0
H1061 H 0.99222 0.80054 0.76239 0.0
C1062 C 0.97028 0.75944 0.76083 0.0
C1063 C 0.9629 0.73736 0.76028 0.0
C1064 C 1.00794 0.76718 0.76191 0.0
C1065 C 0.99394 0.72318 0.76051 0.0
C1066 C 0.03137 0.73074 0.76153 0.0
C1067 C 0.07631 0.76038 0.76407 0.0
C1068 C 0.08378 0.78242 0.76532 0.0
C1069 C 0.03871 0.7527 0.76242 0.0
C1070 C 0.05286 0.79667 0.76444 0.0
C1071 C 1.01539 0.78914 0.76274 0.0
H1072 H 0.70382 0.01334 0.76907 0.0
H1073 H 0.74798 0.94933 0.76446 0.0
H1074 H 0.81286 0.96332 0.76128 0.0
H1075 H 0.85741 0.99394 0.76099 0.0
H1076 H 0.81217 0.0577 0.76702 0.0
H1077 H 0.74769 0.04361 0.76858 0.0
C1078 C 0.72758 1.0024 0.76757 0.0
C1079 C 0.72082 0.98029 0.76716 0.0
C1080 C 0.76482 0.01054 0.766 0.0
C1081 C 0.75211 0.96642 0.76458 0.0
C1082 C 0.78934 0.97442 0.76295 0.0
C1083 C 0.83345 1.00473 0.76275 0.0
C1084 C 0.83989 0.0269 0.7637 0.0
C1085 C 0.79609 0.99647 0.76384 0.0
C1086 C 0.80832 0.04063 0.76572 0.0
C1087 C 0.77129 0.03257 0.76682 0.0
H1088 H 0.69919 0.74951 0.99762 0.0
H1089 H 0.7422 0.80768 0.03311 0.0
H1090 H 0.80573 0.79217 0.03624 0.0
H1091 H 0.84882 0.76198 0.0296 0.0
H1092 H 0.80642 0.70404 0.9928 0.0
H1093 H 0.74289 0.71938 0.99019 0.0
C1094 C 0.72243 0.75873 1.00617 0.0
C1095 C 0.71588 0.77976 0.01504 0.0
C1096 C 0.75901 0.7497 1.0079 0.0
C1097 C 0.74647 0.79159 0.02576 0.0
C1098 C 0.78281 0.78267 0.02773 0.0
C1099 C 0.82594 0.7527 0.02074 0.0
C1100 C 0.83283 0.73176 1.01152 0.0
C1101 C 0.78942 0.76174 0.01885 0.0
C1102 C 0.80224 0.72002 1.0005 0.0
C1103 C 0.76577 0.72885 0.9988 0.0
H1104 H 0.32485 0.54029 0.78386 0.0
H1105 H 0.35673 0.50102 0.71506 0.0
H1106 H 0.2951 0.48329 0.71653 0.0
H1107 H 0.23194 0.47868 0.7373 0.0
H1108 H 0.1995 0.51798 0.80584 0.0
H1109 H 0.26089 0.5362 0.80403 0.0
C1110 C 0.31824 0.52801 0.76901 0.0
C1111 C 0.34583 0.52196 0.74955 0.0
C1112 C 0.28239 0.51789 0.7698 0.0
C1113 C 0.33662 0.50581 0.73065 0.0
C1114 C 0.30114 0.49571 0.73133 0.0
C1115 C 0.23834 0.49113 0.75195 0.0
C1116 C 0.21096 0.49686 0.77168 0.0
C1117 C 0.27388 0.50151 0.75091 0.0
C1118 C 0.21967 0.51335 0.7902 0.0
C1119 C 0.25497 0.52372 0.7893 0.0
H1120 H 0.9439 0.49694 0.51486 0.0
H1121 H 0.98624 0.56154 0.51481 0.0
H1122 H 0.05152 0.54846 0.51414 0.0
H1123 H 0.09694 0.51869 0.51233 0.0
H1124 H 0.05449 0.45411 0.5107 0.0
H1125 H 0.98933 0.46717 0.51335 0.0
C1126 C 0.96734 0.50818 0.51456 0.0
C1127 C 0.95981 0.53024 0.5149 0.0
C1128 C 1.00504 0.50055 0.5139 0.0
C1129 C 0.99083 0.54451 0.51495 0.0
C1130 C 0.02834 0.53703 0.51436 0.0
C1131 C 0.0735 0.50745 0.5124 0.0
C1132 C 0.081 0.48539 0.5113 0.0
C1133 C 0.03582 0.51508 0.51364 0.0
C1134 C 0.04999 0.47113 0.51189 0.0
C1135 C 1.01251 0.4786 0.51321 0.0
H1136 H 0.30393 0.71289 0.52444 0.0
H1137 H 0.36416 0.77266 0.51845 0.0
H1138 H 0.30382 0.79185 0.51645 0.0
H1139 H 0.23382 0.79185 0.5179 0.0
H1140 H 0.17333 0.73218 0.52407 0.0
H1141 H 0.23368 0.71282 0.52442 0.0
C1142 C 0.30387 0.73008 0.52236 0.0
C1143 C 0.33869 0.74127 0.52172 0.0
C1144 C 0.26892 0.74108 0.52137 0.0
C1145 C 0.33791 0.76362 0.5194 0.0
C1146 C 0.30335 0.77463 0.51812 0.0
C1147 C 0.23377 0.7746 0.51893 0.0
C1148 C 0.19894 0.76353 0.52097 0.0
C1149 C 0.26866 0.76355 0.51931 0.0
C1150 C 0.19963 0.74115 0.52279 0.0
C1151 C 0.23418 0.73005 0.52288 0.0
H1152 H 0.84359 0.51085 0.28965 0.0
H1153 H 0.81675 0.55575 0.22579 0.0
H1154 H 0.75335 0.54011 0.22111 0.0
H1155 H 0.70577 0.51352 0.23482 0.0
H1156 H 0.73213 0.46907 0.29945 0.0
H1157 H 0.79564 0.48438 0.30364 0.0
C1158 C 0.82405 0.51708 0.27452 0.0
C1159 C 0.83507 0.53448 0.2581 0.0
C1160 C 0.78751 0.50803 0.27197 0.0
C1161 C 0.80899 0.54255 0.23891 0.0
C1162 C 0.77273 0.53354 0.23613 0.0
C1163 C 0.72509 0.50726 0.25005 0.0
C1164 C 0.71377 0.49003 0.26673 0.0
C1165 C 0.76162 0.51631 0.25261 0.0
C1166 C 0.73987 0.48206 0.28602 0.0
C1167 C 0.77629 0.49091 0.28857 0.0
H1168 H 0.70265 0.25415 0.51492 0.0
H1169 H 0.74415 0.31819 0.50233 0.0
H1170 H 0.80911 0.30487 0.49877 0.0
H1171 H 0.85482 0.27507 0.50035 0.0
H1172 H 0.81292 0.21118 0.51338 0.0
H1173 H 0.748 0.2245 0.51636 0.0
C1174 C 0.72583 0.26527 0.5116 0.0
C1175 C 0.71808 0.2872 0.50888 0.0
C1176 C 0.76339 0.25754 0.5099 0.0
C1177 C 0.74878 0.30121 0.50412 0.0
C1178 C 0.78617 0.29362 0.50228 0.0
C1179 C 0.8315 0.26404 0.50368 0.0
C1180 C 0.83912 0.24213 0.50686 0.0
C1181 C 0.79388 0.27181 0.50522 0.0
C1182 C 0.80834 0.22815 0.5114 0.0
C1183 C 0.77098 0.23574 0.51289 0.0
H1184 H 0.45844 0.26644 0.75396 0.0
H1185 H 0.50193 0.20331 0.76981 0.0
H1186 H 0.56649 0.21725 0.77146 0.0
H1187 H 0.61082 0.24734 0.76965 0.0
H1188 H 0.56771 0.31084 0.75607 0.0
H1189 H 0.50318 0.29674 0.75213 0.0
C1190 C 0.48194 0.25572 0.75793 0.0
C1191 C 0.4749 0.23377 0.76168 0.0
C1192 C 0.51931 0.26391 0.75924 0.0
C1193 C 0.5061 0.22017 0.7664 0.0
C1194 C 0.54322 0.22817 0.76756 0.0
C1195 C 0.5874 0.25819 0.76604 0.0
C1196 C 0.5945 0.2802 0.76332 0.0
C1197 C 0.55016 0.25002 0.76419 0.0
C1198 C 0.56353 0.29383 0.75802 0.0
C1199 C 0.52641 0.28578 0.75594 0.0
H1200 H 0.46188 1.00673 0.50776 0.0
H1201 H 0.50652 0.06859 0.52933 0.0
H1202 H 0.57069 0.0539 0.53166 0.0
H1203 H 0.61436 0.02335 0.52823 0.0
H1204 H 0.5693 0.96132 0.50785 0.0
H1205 H 0.50547 0.97621 0.50436 0.0
C1206 C 0.48555 0.01699 0.51317 0.0
C1207 C 0.47909 0.03879 0.51833 0.0
C1208 C 0.52254 1.0084 0.51462 0.0
C1209 C 0.51044 0.05185 0.52488 0.0
C1210 C 0.54725 0.04342 0.52639 0.0
C1211 C 0.59059 0.01305 0.52316 0.0
C1212 C 0.59697 0.99121 0.51825 0.0
C1213 C 0.55366 0.0217 0.52139 0.0
C1214 C 0.56567 0.97822 0.51133 0.0
C1215 C 0.52894 0.98671 0.50953 0.0
H1216 H 0.56464 0.80098 0.26538 0.0
H1217 H 0.62155 0.74042 0.25652 0.0
H1218 H 0.56024 0.72217 0.25614 0.0
H1219 H 0.49063 0.7234 0.2571 0.0
H1220 H 0.43342 0.78371 0.26767 0.0
H1221 H 0.49479 0.802 0.26863 0.0
C1222 C 0.56381 0.78378 0.26375 0.0
C1223 C 0.59797 0.77218 0.26085 0.0
C1224 C 0.52832 0.7733 0.26371 0.0
C1225 C 0.59592 0.74987 0.25834 0.0
C1226 C 0.56079 0.73937 0.25827 0.0
C1227 C 0.49135 0.74049 0.26004 0.0
C1228 C 0.45707 0.75207 0.26224 0.0
C1229 C 0.5268 0.75093 0.26076 0.0
C1230 C 0.45908 0.77433 0.26553 0.0
C1231 C 0.49427 0.78483 0.26623 0.0
H1232 H 0.59861 0.51122 1.00933 0.0
H1233 H 0.55554 0.44681 1.00955 0.0
H1234 H 0.49035 0.4602 1.0126 0.0
H1235 H 0.4453 0.49042 0.01407 0.0
H1236 H 0.48946 0.55466 1.01214 0.0
H1237 H 0.55419 0.54111 1.01084 0.0
C1238 C 0.57502 0.50008 1.00982 0.0
C1239 C 0.58216 0.47803 1.00908 0.0
C1240 C 0.53762 0.50788 1.01132 0.0
C1241 C 0.55109 0.46386 1.01035 0.0
C1242 C 0.5137 0.47151 1.01192 0.0
C1243 C 0.46908 0.50144 0.01327 0.0
C1244 C 0.46224 0.52356 0.01342 0.0
C1245 C 0.50659 0.49352 1.01223 0.0
C1246 C 0.49357 0.53759 1.01262 0.0
C1247 C 0.53077 0.52985 1.01164 0.0
H1248 H 0.18451 0.42056 0.42144 0.0
H1249 H 0.17821 0.35513 0.44833 0.0
H1250 H 0.17619 0.34316 0.40079 0.0
H1251 H 0.17959 0.35109 0.35168 0.0
H1252 H 0.1891 0.41639 0.32473 0.0
H1253 H 0.18618 0.42856 0.37221 0.0
C1254 C 0.18235 0.40368 0.41696 0.0
C1255 C 0.18155 0.38877 0.43854 0.0
C1256 C 0.18187 0.39687 0.38953 0.0
C1257 C 0.17899 0.36696 0.43222 0.0
C1258 C 0.17783 0.36009 0.405 0.0
C1259 C 0.1806 0.36802 0.35611 0.0
C1260 C 0.18453 0.3828 0.33456 0.0
C1261 C 0.17973 0.37488 0.38349 0.0
C1262 C 0.18611 0.40465 0.34083 0.0
C1263 C 0.18451 0.41162 0.36801 0.0
H1264 H 0.11156 0.85856 0.33771 0.0
H1265 H 0.13217 0.92531 0.35312 0.0
H1266 H 0.13697 0.91832 0.40204 0.0
H1267 H 0.13032 0.89366 0.44094 0.0
H1268 H 0.11242 0.82669 0.42536 0.0
H1269 H 0.11193 0.83334 0.37625 0.0
C1270 C 0.11754 0.87152 0.35176 0.0
C1271 C 0.12111 0.89243 0.34174 0.0
C1272 C 0.12057 0.86739 0.37995 0.0
C1273 C 0.12928 0.90903 0.36021 0.0
C1274 C 0.13186 0.90508 0.38826 0.0
C1275 C 0.12673 0.88051 0.42678 0.0
C1276 C 0.12104 0.85977 0.43688 0.0
C1277 C 0.12678 0.88439 0.39843 0.0
C1278 C 0.11685 0.84284 0.41821 0.0
C1279 C 0.11639 0.84662 0.39006 0.0
H1280 H 0.16225 0.84045 0.86836 0.0
H1281 H 0.17857 0.89484 0.81562 0.0
H1282 H 0.17251 0.91872 0.85497 0.0
H1283 H 0.16844 0.92381 0.90476 0.0
H1284 H 0.15344 0.8692 0.95741 0.0
H1285 H 0.15271 0.84575 0.91755 0.0
C1286 C 0.16415 0.85754 0.86538 0.0
C1287 C 0.1713 0.86583 0.83909 0.0
C1288 C 0.16103 0.87112 0.88809 0.0
C1289 C 0.17319 0.88803 0.8356 0.0
C1290 C 0.16987 0.90168 0.85812 0.0
C1291 C 0.16453 0.9068 0.90754 0.0
C1292 C 0.1614 0.89828 0.93413 0.0
C1293 C 0.16466 0.89336 0.88454 0.0
C1294 C 0.15606 0.87621 0.93725 0.0
C1295 C 0.1558 0.86276 0.91445 0.0
H1296 H 0.12307 0.42344 0.85592 0.0
H1297 H 0.1363 0.3583 0.82916 0.0
H1298 H 0.13911 0.34649 0.87676 0.0
H1299 H 0.13406 0.35442 0.92596 0.0
H1300 H 0.11749 0.41938 0.9524 0.0
H1301 H 0.12013 0.43149 0.90496 0.0
C1302 C 0.1269 0.40666 0.86042 0.0
C1303 C 0.12939 0.39178 0.83888 0.0
C1304 C 0.12785 0.39994 0.88784 0.0
C1305 C 0.13418 0.3701 0.84525 0.0
C1306 C 0.13579 0.36333 0.8725 0.0
C1307 C 0.13157 0.37127 0.9214 0.0
C1308 C 0.12564 0.38598 0.94279 0.0
C1309 C 0.13217 0.37807 0.89397 0.0
C1310 C 0.12203 0.40772 0.9364 0.0
C1311 C 0.12345 0.41465 0.90924 0.0
H1312 H 0.87231 0.6696 0.66954 0.0
H1313 H 0.87201 0.60519 0.70053 0.0
H1314 H 0.87419 0.59137 0.65381 0.0
H1315 H 0.87084 0.59754 0.60433 0.0
H1316 H 0.86691 0.66193 0.57341 0.0
H1317 H 0.87202 0.67579 0.61999 0.0
C1318 C 0.87328 0.65253 0.66613 0.0
C1319 C 0.87192 0.63844 0.68855 0.0
C1320 C 0.8735 0.64469 0.63921 0.0
C1321 C 0.87291 0.61638 0.68368 0.0
C1322 C 0.87408 0.60847 0.65696 0.0
C1323 C 0.87161 0.61462 0.6077 0.0
C1324 C 0.86838 0.62868 0.58536 0.0
C1325 C 0.87358 0.62247 0.63458 0.0
C1326 C 0.8692 0.65075 0.5902 0.0
C1327 C 0.87207 0.65869 0.61685 0.0
H1328 H 0.93743 0.15501 0.68732 0.0
H1329 H 0.91155 0.08869 0.67289 0.0
H1330 H 0.90758 0.09534 0.62385 0.0
H1331 H 0.91653 0.11945 0.58458 0.0
H1332 H 0.94047 0.18598 0.59938 0.0
H1333 H 0.93986 0.17976 0.6485 0.0
C1334 C 0.93045 0.14207 0.67348 0.0
C1335 C 0.92519 0.12138 0.68381 0.0
C1336 C 0.92813 0.14598 0.64523 0.0
C1337 C 0.91579 0.10481 0.66557 0.0
C1338 C 0.9137 0.10856 0.63744 0.0
C1339 C 0.92127 0.13261 0.59857 0.0
C1340 C 0.92895 0.15307 0.58822 0.0
C1341 C 0.92064 0.12899 0.62697 0.0
C1342 C 0.93459 0.17001 0.60668 0.0
C1343 C 0.93436 0.16649 0.63486 0.0
H1344 H 0.89618 0.17671 0.15526 0.0
H1345 H 0.88418 0.12265 0.20915 0.0
H1346 H 0.88913 0.09849 0.17003 0.0
H1347 H 0.89016 0.09301 0.12026 0.0
H1348 H 0.90037 0.14727 0.06645 0.0
H1349 H 0.90325 0.17106 0.10593 0.0
C1350 C 0.89506 0.15963 0.15854 0.0
C1351 C 0.88934 0.15151 0.18508 0.0
C1352 C 0.89739 0.14588 0.13595 0.0
C1353 C 0.88844 0.12933 0.18895 0.0
C1354 C 0.8911 0.11551 0.16657 0.0
C1355 C 0.89353 0.11002 0.11712 0.0
C1356 C 0.89458 0.11835 0.09036 0.0
C1357 C 0.89456 0.12365 0.13992 0.0
C1358 C 0.89929 0.14041 0.08676 0.0
C1359 C 0.90079 0.15405 0.10934 0.0
H1360 H 0.91103 0.67433 0.11684 0.0
H1361 H 0.9183 0.61811 0.0662 0.0
H1362 H 0.91491 0.59556 0.10688 0.0
H1363 H 0.9157 0.59198 0.15688 0.0
H1364 H 0.90951 0.64825 0.20753 0.0
H1365 H 0.90626 0.67061 0.1667 0.0
C1366 C 0.91149 0.65713 0.11463 0.0
C1367 C 0.91534 0.64794 0.08848 0.0
C1368 C 0.90991 0.64428 0.13812 0.0
C1369 C 0.91548 0.62562 0.08604 0.0
C1370 C 0.91368 0.61272 0.10932 0.0
C1371 C 0.91321 0.60912 0.15904 0.0
C1372 C 0.91327 0.61842 0.18527 0.0
C1373 C 0.91179 0.6219 0.13548 0.0
C1374 C 0.90965 0.64065 0.18763 0.0
C1375 C 0.90794 0.65346 0.16427 0.0
H1376 H 0.68475 0.42161 0.90556 0.0
H1377 H 0.68903 0.36696 0.95906 0.0
H1378 H 0.68944 0.34323 0.91936 0.0
H1379 H 0.69293 0.33818 0.86962 0.0
H1380 H 0.6889 0.39282 0.81611 0.0
H1381 H 0.68378 0.41642 0.85578 0.0
C1382 C 0.68551 0.40449 0.90859 0.0
C1383 C 0.68721 0.39609 0.9353 0.0
C1384 C 0.68595 0.39098 0.88569 0.0
C1385 C 0.68776 0.37387 0.93879 0.0
C1386 C 0.68814 0.3603 0.91608 0.0
C1387 C 0.69069 0.35525 0.86657 0.0
C1388 C 0.69167 0.36373 0.83989 0.0
C1389 C 0.68793 0.3687 0.88946 0.0
C1390 C 0.6883 0.38586 0.83637 0.0
C1391 C 0.68549 0.39937 0.85906 0.0
H1392 H 0.63235 0.83835 0.90579 0.0
H1393 H 0.64302 0.8931 0.95879 0.0
H1394 H 0.64396 0.9166 0.919 0.0
H1395 H 0.63583 0.9218 0.86971 0.0
H1396 H 0.62387 0.86727 0.81657 0.0
H1397 H 0.62967 0.84343 0.85596 0.0
C1398 C 0.63536 0.85541 0.90867 0.0
C1399 C 0.63721 0.86395 0.93532 0.0
C1400 C 0.63534 0.86886 0.88571 0.0
C1401 C 0.6414 0.88608 0.93858 0.0
C1402 C 0.64178 0.89955 0.91583 0.0
C1403 C 0.63479 0.90469 0.86666 0.0
C1404 C 0.62895 0.89633 0.84025 0.0
C1405 C 0.6378 0.89114 0.88937 0.0
C1406 C 0.62821 0.87412 0.83666 0.0
C1407 C 0.6314 0.8605 0.8592 0.0
H1408 H 0.66952 0.86776 0.44062 0.0
H1409 H 0.70032 0.93346 0.42631 0.0
H1410 H 0.70075 0.92723 0.37718 0.0
H1411 H 0.69694 0.90262 0.33827 0.0
H1412 H 0.6643 0.83717 0.35207 0.0
H1413 H 0.65961 0.8439 0.40112 0.0
C1414 C 0.67601 0.88074 0.42673 0.0
C1415 C 0.68525 0.90097 0.43725 0.0
C1416 C 0.67597 0.87712 0.39831 0.0
C1417 C 0.69318 0.91769 0.41889 0.0
C1418 C 0.69354 0.91415 0.39071 0.0
C1419 C 0.68836 0.88989 0.35197 0.0
C1420 C 0.68134 0.86941 0.34148 0.0
C1421 C 0.68565 0.89386 0.3802 0.0
C1422 C 0.66989 0.85313 0.35953 0.0
C1423 C 0.66739 0.85692 0.38766 0.0
H1424 H 0.62328 0.35247 0.42355 0.0
H1425 H 0.61746 0.41775 0.45107 0.0
H1426 H 0.62138 0.43012 0.40373 0.0
H1427 H 0.62188 0.42233 0.35447 0.0
H1428 H 0.62311 0.35697 0.32695 0.0
H1429 H 0.62585 0.34471 0.37436 0.0
C1430 C 0.62336 0.36942 0.41926 0.0
C1431 C 0.62009 0.38417 0.44089 0.0
C1432 C 0.6246 0.3764 0.39195 0.0
C1433 C 0.61986 0.40606 0.43485 0.0
C1434 C 0.62206 0.41314 0.40777 0.0
C1435 C 0.62329 0.40539 0.35881 0.0
C1436 C 0.62234 0.39058 0.33715 0.0
C1437 C 0.62379 0.39845 0.38614 0.0
C1438 C 0.62373 0.36871 0.3432 0.0
C1439 C 0.62525 0.36168 0.37032 0.0
H1440 H 0.39995 0.62283 0.18589 0.0
H1441 H 0.35469 0.68567 0.17067 0.0
H1442 H 0.34989 0.67777 0.1221 0.0
H1443 H 0.35427 0.65228 0.08422 0.0
H1444 H 0.40063 0.58966 0.09887 0.0
H1445 H 0.40963 0.59833 0.14707 0.0
C1446 C 0.38932 0.63484 0.17192 0.0
C1447 C 0.37736 0.65472 0.18206 0.0
C1448 C 0.38672 0.63025 0.1438 0.0
C1449 C 0.364 0.67018 0.16356 0.0
C1450 C 0.36114 0.66569 0.13569 0.0
C1451 C 0.36673 0.64061 0.09788 0.0
C1452 C 0.37638 0.6203 0.08793 0.0
C1453 C 0.3718 0.64566 0.12564 0.0
C1454 C 0.39284 0.60543 0.10592 0.0
C1455 C 0.39786 0.61033 0.13358 0.0
H1456 H 0.41552 0.10059 0.17214 0.0
H1457 H 0.41112 0.16586 0.19997 0.0
H1458 H 0.40805 0.17815 0.15258 0.0
H1459 H 0.41234 0.17048 0.10343 0.0
H1460 H 0.42075 0.10527 0.07586 0.0
H1461 H 0.41612 0.09283 0.12309 0.0
C1462 C 0.41343 0.11751 0.16794 0.0
C1463 C 0.41379 0.13229 0.18965 0.0
C1464 C 0.41257 0.12447 0.14068 0.0
C1465 C 0.41108 0.15414 0.1837 0.0
C1466 C 0.40939 0.16118 0.15659 0.0
C1467 C 0.41258 0.15352 0.10767 0.0
C1468 C 0.41704 0.13882 0.0861 0.0
C1469 C 0.41095 0.14651 0.13493 0.0
C1470 C 0.4175 0.11692 0.09205 0.0
C1471 C 0.41494 0.1098 0.11907 0.0
H1472 H 0.39509 0.17813 0.65579 0.0
H1473 H 0.39543 0.12206 0.70692 0.0
H1474 H 0.39797 0.0994 0.66631 0.0
H1475 H 0.39399 0.09553 0.61644 0.0
H1476 H 0.39245 0.15162 0.56536 0.0
H1477 H 0.39672 0.17427 0.60589 0.0
C1478 C 0.39617 0.16095 0.65811 0.0
C1479 C 0.39463 0.15181 0.68438 0.0
C1480 C 0.39709 0.14803 0.63468 0.0
C1481 C 0.39645 0.12953 0.68697 0.0
C1482 C 0.39772 0.11655 0.66374 0.0
C1483 C 0.39493 0.11271 0.61412 0.0
C1484 C 0.39243 0.12187 0.5879 0.0
C1485 C 0.39706 0.12563 0.63751 0.0
C1486 C 0.39415 0.14415 0.58528 0.0
C1487 C 0.39649 0.15712 0.60846 0.0
H1488 H 0.42689 0.58926 0.65489 0.0
H1489 H 0.43792 0.64111 0.71237 0.0
H1490 H 0.43527 0.66678 0.67476 0.0
H1491 H 0.4345 0.67425 0.62533 0.0
H1492 H 0.42356 0.62217 0.56811 0.0
H1493 H 0.42135 0.59683 0.60594 0.0
C1494 C 0.42842 0.60619 0.65926 0.0
C1495 C 0.43296 0.61325 0.68639 0.0
C1496 C 0.42712 0.6208 0.63757 0.0
C1497 C 0.43444 0.63525 0.69168 0.0
C1498 C 0.43311 0.64993 0.67017 0.0
C1499 C 0.43136 0.65737 0.62112 0.0
C1500 C 0.42957 0.65012 0.59387 0.0
C1501 C 0.4302 0.64285 0.64299 0.0
C1502 C 0.42511 0.6282 0.58884 0.0
C1503 C 0.42394 0.61368 0.61047 0.0
H1504 H 0.32435 0.38751 0.26777 0.0
H1505 H 0.38661 0.32974 0.28459 0.0
H1506 H 0.44593 0.34996 0.28692 0.0
H1507 H 0.48028 0.38403 0.28409 0.0
H1508 H 0.41803 0.44181 0.26749 0.0
H1509 H 0.35851 0.42167 0.26582 0.0
C1510 C 0.35073 0.37933 0.2723 0.0
C1511 C 0.3508 0.35704 0.27593 0.0
C1512 C 0.38484 0.39109 0.27371 0.0
C1513 C 0.38561 0.34678 0.28134 0.0
C1514 C 0.4196 0.35837 0.2828 0.0
C1515 C 0.45377 0.39222 0.27987 0.0
C1516 C 0.45379 0.41445 0.27583 0.0
C1517 C 0.4196 0.38051 0.27886 0.0
C1518 C 0.41893 0.42479 0.27094 0.0
C1519 C 0.38485 0.41324 0.26984 0.0
H1520 H 0.82256 0.88387 0.27887 0.0
H1521 H 0.88763 0.82556 0.27818 0.0
H1522 H 0.94673 0.84599 0.27833 0.0
H1523 H 0.98003 0.88031 0.27919 0.0
H1524 H 0.91521 0.93871 0.27828 0.0
H1525 H 0.856 0.9183 0.27823 0.0
C1526 C 0.84958 0.87558 0.27841 0.0
C1527 C 0.85038 0.85311 0.27857 0.0
C1528 C 0.88362 0.88746 0.27832 0.0
C1529 C 0.88593 0.84277 0.27845 0.0
C1530 C 0.91984 0.85446 0.27838 0.0
C1531 C 0.95307 0.88866 0.27861 0.0
C1532 C 0.95236 0.91112 0.27873 0.0
C1533 C 0.91904 0.87681 0.27839 0.0
C1534 C 0.91684 0.9215 0.27854 0.0
C1535 C 0.88287 0.90981 0.27836 0.0
H1536 H 0.37448 0.92316 0.99821 0.0
H1537 H 0.29903 0.869 0.99285 0.0
H1538 H 0.35345 0.84493 0.99243 0.0
H1539 H 0.42265 0.83912 0.99414 0.0
H1540 H 0.49813 0.89331 0.99868 0.0
H1541 H 0.44374 0.91739 0.99885 0.0
C1542 C 0.36996 0.90612 0.99669 0.0
C1543 C 0.33263 0.89797 0.99573 0.0
C1544 C 0.40147 0.8923 0.99642 0.0
C1545 C 0.32734 0.87576 0.9941 0.0
C1546 C 0.35851 0.86195 0.99368 0.0
C1547 C 0.4272 0.85619 0.99493 0.0
C1548 C 0.46451 0.8643 0.99657 0.0
C1549 C 0.39571 0.87002 0.99494 0.0
C1550 C 0.46981 0.88653 0.9979 0.0
C1551 C 0.43867 0.90036 0.99781 0.0
H1552 H 0.97791 0.38466 0.02503 0.0
H1553 H 0.9317 0.33768 0.96966 0.0
H1554 H 0.87215 0.35753 0.96724 0.0
H1555 H 0.83322 0.38846 0.98051 0.0
H1556 H 0.88014 0.43546 0.03548 0.0
H1557 H 0.93974 0.41573 0.03756 0.0
C1558 C 0.95511 0.37881 1.01215 0.0
C1559 C 0.95961 0.3596 0.99758 0.0
C1560 C 0.92103 0.39045 1.01055 0.0
C1561 C 0.92914 0.3522 0.98144 0.0
C1562 C 0.89505 0.36365 0.97986 0.0
C1563 C 0.85641 0.39434 0.99304 0.0
C1564 C 0.85202 0.41349 1.00777 0.0
C1565 C 0.89066 0.38279 0.99435 0.0
C1566 C 0.88269 0.421 0.02359 0.0
C1567 C 0.91678 0.40961 0.02499 0.0
H1568 H 0.72512 0.63673 0.76973 0.0
H1569 H 0.67004 0.68192 0.71635 0.0
H1570 H 0.61342 0.65932 0.71474 0.0
H1571 H 0.57981 0.62628 0.72789 0.0
H1572 H 0.63599 0.58121 0.78085 0.0
H1573 H 0.6922 0.60389 0.78243 0.0
C1574 C 0.70103 0.64161 0.75745 0.0
C1575 C 0.7022 0.66108 0.74312 0.0
C1576 C 0.6687 0.62841 0.75632 0.0
C1577 C 0.67005 0.6672 0.72786 0.0
C1578 C 0.63764 0.65419 0.72676 0.0
C1579 C 0.60426 0.62147 0.73988 0.0
C1580 C 0.6035 0.60194 0.75411 0.0
C1581 C 0.63666 0.63472 0.74088 0.0
C1582 C 0.63577 0.5959 0.76929 0.0
C1583 C 0.66794 0.60897 0.77041 0.0
H1584 H 0.13467 0.08852 0.74456 0.0
H1585 H 0.0557 0.14115 0.74327 0.0
H1586 H 0.10849 0.16634 0.74342 0.0
H1587 H 0.17738 0.17364 0.74432 0.0
H1588 H 0.25628 0.12097 0.74413 0.0
H1589 H 0.20348 0.0958 0.74407 0.0
C1590 C 0.12896 0.10548 0.74408 0.0
C1591 C 0.09106 0.11279 0.74413 0.0
C1592 C 0.15958 0.12 0.74396 0.0
C1593 C 0.0844 0.13492 0.74379 0.0
C1594 C 0.11467 0.14942 0.74367 0.0
C1595 C 0.18305 0.15668 0.74401 0.0
C1596 C 0.22094 0.14935 0.74446 0.0
C1597 C 0.15241 0.14216 0.74383 0.0
C1598 C 0.22758 0.12721 0.74433 0.0
C1599 C 0.19731 0.11272 0.74411 0.0
H1600 H 0.63096 0.17962 0.03101 0.0
H1601 H 0.55412 0.12626 0.03926 0.0
H1602 H 0.60779 0.10172 0.03936 0.0
H1603 H 0.67667 0.09522 0.03636 0.0
H1604 H 0.75361 0.14865 0.02956 0.0
H1605 H 0.69998 0.1732 0.02969 0.0
C1606 C 0.62594 0.16266 0.03311 0.0
C1607 C 0.58839 0.1549 0.03489 0.0
C1608 C 0.65705 0.14855 0.0333 0.0
C1609 C 0.58255 0.13277 0.03731 0.0
C1610 C 0.61331 0.11867 0.03756 0.0
C1611 C 0.68176 0.11222 0.03517 0.0
C1612 C 0.71927 0.11995 0.03272 0.0
C1613 C 0.65069 0.12636 0.03542 0.0
C1614 C 0.72515 0.14211 0.03092 0.0
C1615 C 0.69443 0.15624 0.03118 0.0
H1616 H 0.17919 0.59702 0.05693 0.0
H1617 H 0.23041 0.61952 0.98201 0.0
H1618 H 0.17803 0.64436 0.97546 0.0
H1619 H 0.11762 0.65971 0.99071 0.0
H1620 H 0.06482 0.63699 0.06478 0.0
H1621 H 0.11752 0.61201 0.07178 0.0
C1622 C 0.1787 0.60718 0.03903 0.0
C1623 C 0.20902 0.60645 0.02014 0.0
C1624 C 0.14821 0.62143 0.03525 0.0
C1625 C 0.20794 0.61995 0.99717 0.0
C1626 C 0.17785 0.63412 0.99331 0.0
C1627 C 0.11786 0.6495 1.00858 0.0
C1628 C 0.08751 0.65035 0.02735 0.0
C1629 C 0.14799 0.63511 1.01229 0.0
C1630 C 0.08782 0.6366 0.05003 0.0
C1631 C 0.11796 0.62235 0.05403 0.0
H1632 H 0.47716 0.88242 0.79357 0.0
H1633 H 0.41881 0.93622 0.75793 0.0
H1634 H 0.35965 0.91614 0.75731 0.0
H1635 H 0.32467 0.8828 0.7647 0.0
H1636 H 0.38276 0.82849 0.79882 0.0
H1637 H 0.44181 0.84911 0.80162 0.0
C1638 C 0.45166 0.88978 0.7855 0.0
C1639 C 0.45294 0.91094 0.77581 0.0
C1640 C 0.41753 0.87796 0.78472 0.0
C1641 C 0.41908 0.92016 0.76589 0.0
C1642 C 0.38505 0.90859 0.76532 0.0
C1643 C 0.35006 0.87554 0.77313 0.0
C1644 C 0.34917 0.85409 0.78157 0.0
C1645 C 0.38398 0.88744 0.77449 0.0
C1646 C 0.38268 0.84488 0.79194 0.0
C1647 C 0.41645 0.8567 0.79363 0.0
H1648 H 0.83516 0.38182 0.7808 0.0
H1649 H 0.89768 0.32523 0.75796 0.0
H1650 H 0.95638 0.3457 0.75655 0.0
H1651 H 0.99021 0.38007 0.75981 0.0
H1652 H 0.92727 0.43677 0.78047 0.0
H1653 H 0.86865 0.41594 0.78414 0.0
C1654 C 0.86137 0.37385 0.77528 0.0
C1655 C 0.86129 0.35182 0.76942 0.0
C1656 C 0.89525 0.38584 0.77393 0.0
C1657 C 0.89625 0.342 0.76285 0.0
C1658 C 0.93011 0.35377 0.76186 0.0
C1659 C 0.96373 0.3878 0.7654 0.0
C1660 C 0.96315 0.40997 0.76981 0.0
C1661 C 0.92994 0.37573 0.76716 0.0
C1662 C 0.92845 0.41979 0.77666 0.0
C1663 C 0.89492 0.40786 0.77886 0.0
H1664 H 0.32108 0.38207 0.51468 0.0
H1665 H 0.38039 0.44085 0.49751 0.0
H1666 H 0.44057 0.42166 0.49458 0.0
H1667 H 0.47663 0.3882 0.4967 0.0
H1668 H 0.41759 0.32935 0.51386 0.0
H1669 H 0.35718 0.34846 0.51635 0.0
C1670 C 0.34705 0.39068 0.51002 0.0
C1671 C 0.34596 0.41297 0.50645 0.0
C1672 C 0.38176 0.3795 0.50826 0.0
C1673 C 0.38022 0.4238 0.50079 0.0
C1674 C 0.41475 0.4128 0.49895 0.0
C1675 C 0.45067 0.37953 0.50124 0.0
C1676 C 0.45192 0.35729 0.50512 0.0
C1677 C 0.41592 0.39066 0.50278 0.0
C1678 C 0.41764 0.34638 0.51047 0.0
C1679 C 0.383 0.35734 0.51205 0.0
H1680 H 0.97857 0.87794 0.52502 0.0
H1681 H 0.91557 0.82835 0.48362 0.0
H1682 H 0.85952 0.85106 0.48227 0.0
H1683 H 0.82812 0.88511 0.49236 0.0
H1684 H 0.8911 0.93502 0.53284 0.0
H1685 H 0.94752 0.91229 0.53431 0.0
C1686 C 0.95281 0.87209 0.51544 0.0
C1687 C 0.95167 0.85125 0.50458 0.0
C1688 C 0.92053 0.88539 0.51439 0.0
C1689 C 0.91751 0.84406 0.4926 0.0
C1690 C 0.88532 0.85714 0.49162 0.0
C1691 C 0.85406 0.89098 0.50171 0.0
C1692 C 0.85517 0.91178 0.51255 0.0
C1693 C 0.88644 0.8778 0.50251 0.0
C1694 C 0.88941 0.9192 0.5241 0.0
C1695 C 0.92168 0.90614 0.52508 0.0
H1696 H 0.62415 0.09673 0.23181 0.0
H1697 H 0.55141 0.14476 0.26711 0.0
H1698 H 0.60416 0.1701 0.2674 0.0
H1699 H 0.67147 0.17822 0.25938 0.0
H1700 H 0.74427 0.13063 0.22286 0.0
H1701 H 0.69125 0.10554 0.22166 0.0
C1702 C 0.61995 0.11274 0.23957 0.0
C1703 C 0.58386 0.11881 0.24938 0.0
C1704 C 0.6505 0.12731 0.23963 0.0
C1705 C 0.5787 0.13972 0.2591 0.0
C1706 C 0.60896 0.1542 0.25943 0.0
C1707 C 0.67582 0.16251 0.25077 0.0
C1708 C 0.71223 0.15641 0.24148 0.0
C1709 C 0.64504 0.14815 0.24988 0.0
C1710 C 0.71695 0.13576 0.23068 0.0
C1711 C 0.68651 0.12137 0.22984 0.0
H1712 H 0.12841 0.59738 0.25398 0.0
H1713 H 0.05021 0.65038 0.25175 0.0
H1714 H 0.10317 0.67531 0.25449 0.0
H1715 H 0.17175 0.68231 0.25773 0.0
H1716 H 0.25037 0.62958 0.25972 0.0
H1717 H 0.19745 0.60447 0.25617 0.0
C1718 C 0.12294 0.61437 0.25384 0.0
C1719 C 0.08514 0.62186 0.25295 0.0
C1720 C 0.15372 0.62876 0.25524 0.0
C1721 C 0.07877 0.64402 0.25301 0.0
C1722 C 0.10915 0.65837 0.25438 0.0
C1723 C 0.17733 0.66534 0.25756 0.0
C1724 C 0.2151 0.65794 0.25903 0.0
C1725 C 0.14671 0.65094 0.25568 0.0
C1726 C 0.22173 0.63582 0.25829 0.0
C1727 C 0.1914 0.6214 0.25644 0.0
H1728 H 0.71655 0.62641 0.5006 0.0
H1729 H 0.66515 0.58229 0.55743 0.0
H1730 H 0.6066 0.6032 0.5573 0.0
H1731 H 0.57025 0.63461 0.54187 0.0
H1732 H 0.62249 0.67871 0.48542 0.0
H1733 H 0.68055 0.65753 0.48521 0.0
C1734 C 0.69279 0.6214 0.5132 0.0
C1735 C 0.69562 0.60271 0.52904 0.0
C1736 C 0.65924 0.63364 0.51328 0.0
C1737 C 0.66392 0.5964 0.54477 0.0
C1738 C 0.63038 0.60846 0.54486 0.0
C1739 C 0.5942 0.63951 0.52936 0.0
C1740 C 0.59183 0.65837 0.51381 0.0
C1741 C 0.62771 0.62715 0.52923 0.0
C1742 C 0.6235 0.66454 0.49797 0.0
C1743 C 0.65675 0.65232 0.49768 0.0
H1744 H 0.13176 0.17733 0.54107 0.0
H1745 H 0.07146 0.14319 0.4779 0.0
H1746 H 0.12477 0.11863 0.47298 0.0
H1747 H 0.18877 0.10694 0.48619 0.0
H1748 H 0.24941 0.1408 0.54944 0.0
H1749 H 0.19614 0.16551 0.55438 0.0
C1750 C 0.13041 0.16466 0.52605 0.0
C1751 C 0.09741 0.16215 0.50996 0.0
C1752 C 0.16134 0.15051 0.52329 0.0
C1753 C 0.09613 0.14539 0.49084 0.0
C1754 C 0.12674 0.13136 0.48792 0.0
C1755 C 0.19028 0.11954 0.50129 0.0
C1756 C 0.22327 0.1219 0.51741 0.0
C1757 C 0.15944 0.1337 0.50409 0.0
C1758 C 0.2247 0.13867 0.53652 0.0
C1759 C 0.19411 0.15279 0.53944 0.0
loop_
_geom_bond_atom_site_label_1
_geom_bond_atom_site_label_2
_geom_bond_distance
_geom_bond_site_symmetry_2
_ccdc_geom_bond_type
Cu0 N1 1.999 . S
Cu0 O6 1.974 . S
Cu0 N11 1.985 . S
Cu0 O20 1.959 . S
N1 Cu0 1.999 . S
N1 C3 1.263 . S
N1 C5 1.389 . S
N2 C3 1.358 . S
N2 C4 1.400 . S
C3 N1 1.263 . S
C3 N2 1.358 . S
C3 H9 0.930 . S
C4 N2 1.400 . S
C4 C5 1.351 . S
C4 H21 0.930 . S
C5 N1 1.389 . S
C5 C4 1.351 . S
C5 H10 0.930 . S
O6 Cu0 1.974 . S
O6 C16 1.282 . S
C7 O8 1.261 . S
C7 O20 1.251 . S
O8 C7 1.261 . S
H9 C3 0.930 . S
H10 C5 0.930 . S
N11 Cu0 1.985 . S
N11 C13 1.335 . S
N11 C14 1.390 . S
N12 C13 1.345 . S
N12 C15 1.336 . S
C13 N11 1.335 . S
C13 N12 1.345 . S
C13 H18 0.930 . S
C14 N11 1.390 . S
C14 C15 1.346 . S
C14 H19 0.930 . S
C15 N12 1.336 . S
C15 C14 1.346 . S
C15 H22 0.929 . S
C16 O6 1.282 . S
C16 O17 1.216 . S
O17 C16 1.216 . S
H18 C13 0.930 . S
H19 C14 0.930 . S
O20 Cu0 1.959 . S
O20 C7 1.251 . S
H21 C4 0.930 . S
H22 C15 0.929 . S
Cu23 N24 1.999 . S
Cu23 O29 1.974 . S
Cu23 N34 1.985 . S
Cu23 O43 1.959 . S
N24 Cu23 1.999 . S
N24 C26 1.263 . S
N24 C28 1.389 1_455 S
N25 C26 1.358 1_655 S
N25 C27 1.400 . S
C26 N24 1.263 . S
C26 N25 1.358 1_455 S
C26 H32 0.930 . S
C27 N25 1.400 . S
C27 C28 1.351 . S
C27 H44 0.930 . S
C28 N24 1.389 1_655 S
C28 C27 1.351 . S
C28 H33 0.930 . S
O29 Cu23 1.974 . S
O29 C39 1.282 . S
C30 O31 1.261 . S
C30 O43 1.251 . S
O31 C30 1.261 . S
H32 C26 0.930 . S
H33 C28 0.930 . S
N34 Cu23 1.985 . S
N34 C36 1.335 . S
N34 C37 1.390 . S
N35 C36 1.345 . S
N35 C38 1.336 . S
C36 N34 1.335 . S
C36 N35 1.345 . S
C36 H41 0.930 . S
C37 N34 1.390 . S
C37 C38 1.346 . S
C37 H42 0.930 . S
C38 N35 1.336 . S
C38 C37 1.346 . S
C38 H45 0.929 . S
C39 O29 1.282 . S
C39 O40 1.216 . S
O40 C39 1.216 . S
H41 C36 0.930 . S
H42 C37 0.930 . S
O43 Cu23 1.959 . S
O43 C30 1.251 . S
H44 C27 0.930 . S
H45 C38 0.929 . S
Cu46 N47 1.999 1_556 S
Cu46 O52 1.974 . S
Cu46 N57 1.985 . S
Cu46 O66 1.959 1_556 S
N47 Cu46 1.999 1_554 S
N47 C49 1.263 1_554 S
N47 C51 1.389 . S
N48 C49 1.366 . S
N48 C50 1.385 1_556 S
C49 N47 1.263 1_556 S
C49 N48 1.366 . S
C49 H55 0.930 . S
C50 N48 1.385 1_554 S
C50 C51 1.351 . S
C50 H67 0.930 . S
C51 N47 1.389 . S
C51 C50 1.351 . S
C51 H56 0.930 . S
O52 Cu46 1.974 . S
O52 C62 1.282 . S
C53 O54 1.261 . S
C53 O66 1.251 . S
O54 C53 1.261 . S
H55 C49 0.930 . S
H56 C51 0.930 . S
N57 Cu46 1.985 . S
N57 C59 1.335 1_556 S
N57 C60 1.390 . S
N58 C59 1.345 1_556 S
N58 C61 1.336 . S
C59 N57 1.335 1_554 S
C59 N58 1.345 1_554 S
C59 H64 0.930 . S
C60 N57 1.390 . S
C60 C61 1.346 . S
C60 H65 0.930 . S
C61 N58 1.336 . S
C61 C60 1.346 . S
C61 H68 0.929 . S
C62 O52 1.282 . S
C62 O63 1.216 . S
O63 C62 1.216 . S
H64 C59 0.930 . S
H65 C60 0.930 . S
O66 Cu46 1.959 1_554 S
O66 C53 1.251 . S
H67 C50 0.930 . S
H68 C61 0.929 . S
Cu69 N70 1.999 1_556 S
Cu69 O75 1.974 . S
Cu69 N80 1.985 . S
Cu69 O89 1.959 1_556 S
N70 Cu69 1.999 1_554 S
N70 C72 1.263 1_554 S
N70 C74 1.389 1_455 S
N71 C72 1.366 1_655 S
N71 C73 1.385 1_556 S
C72 N70 1.263 1_556 S
C72 N71 1.366 1_455 S
C72 H78 0.930 . S
C73 N71 1.385 1_554 S
C73 C74 1.351 . S
C73 H90 0.930 . S
C74 N70 1.389 1_655 S
C74 C73 1.351 . S
C74 H79 0.930 . S
O75 Cu69 1.974 . S
O75 C85 1.282 . S
C76 O77 1.261 . S
C76 O89 1.251 . S
O77 C76 1.261 . S
H78 C72 0.930 . S
H79 C74 0.930 . S
N80 Cu69 1.985 . S
N80 C82 1.335 1_556 S
N80 C83 1.390 . S
N81 C82 1.345 1_556 S
N81 C84 1.336 . S
C82 N80 1.335 1_554 S
C82 N81 1.345 1_554 S
C82 H87 0.930 . S
C83 N80 1.390 . S
C83 C84 1.346 . S
C83 H88 0.930 . S
C84 N81 1.336 . S
C84 C83 1.346 . S
C84 H91 0.929 . S
C85 O75 1.282 . S
C85 O86 1.216 . S
O86 C85 1.216 . S
H87 C82 0.930 . S
H88 C83 0.930 . S
O89 Cu69 1.959 1_554 S
O89 C76 1.251 . S
H90 C73 0.930 . S
H91 C84 0.929 . S
Cu92 N93 1.999 . S
Cu92 O98 1.974 . S
Cu92 N103 1.985 . S
Cu92 O112 1.959 . S
N93 Cu92 1.999 . S
N93 C95 1.263 . S
N93 C97 1.389 . S
N94 C95 1.358 . S
N94 C96 1.400 . S
C95 N93 1.263 . S
C95 N94 1.358 . S
C95 H101 0.930 . S
C96 N94 1.400 . S
C96 C97 1.351 . S
C96 H113 0.930 . S
C97 N93 1.389 . S
C97 C96 1.351 . S
C97 H102 0.930 . S
O98 Cu92 1.974 . S
O98 C108 1.282 . S
C99 O100 1.261 . S
C99 O112 1.251 . S
O100 C99 1.261 . S
H101 C95 0.930 . S
H102 C97 0.930 . S
N103 Cu92 1.985 . S
N103 C105 1.335 . S
N103 C106 1.390 . S
N104 C105 1.345 . S
N104 C107 1.336 . S
C105 N103 1.335 . S
C105 N104 1.345 . S
C105 H110 0.930 . S
C106 N103 1.390 . S
C106 C107 1.346 . S
C106 H111 0.930 . S
C107 N104 1.336 . S
C107 C106 1.346 . S
C107 H114 0.929 . S
C108 O98 1.282 . S
C108 O109 1.216 . S
O109 C108 1.216 . S
H110 C105 0.930 . S
H111 C106 0.930 . S
O112 Cu92 1.959 . S
O112 C99 1.251 . S
H113 C96 0.930 . S
H114 C107 0.929 . S
Cu115 N116 1.999 . S
Cu115 O121 1.974 . S
Cu115 N126 1.985 . S
Cu115 O135 1.959 . S
N116 Cu115 1.999 . S
N116 C118 1.263 . S
N116 C120 1.389 1_655 S
N117 C118 1.358 1_455 S
N117 C119 1.400 . S
C118 N116 1.263 . S
C118 N117 1.358 1_655 S
C118 H124 0.930 . S
C119 N117 1.400 . S
C119 C120 1.351 . S
C119 H136 0.930 . S
C120 N116 1.389 1_455 S
C120 C119 1.351 . S
C120 H125 0.930 . S
O121 Cu115 1.974 . S
O121 C131 1.282 . S
C122 O123 1.261 . S
C122 O135 1.251 . S
O123 C122 1.261 . S
H124 C118 0.930 . S
H125 C120 0.930 . S
N126 Cu115 1.985 . S
N126 C128 1.335 . S
N126 C129 1.390 . S
N127 C128 1.345 . S
N127 C130 1.336 . S
C128 N126 1.335 . S
C128 N127 1.345 . S
C128 H133 0.930 . S
C129 N126 1.390 . S
C129 C130 1.346 . S
C129 H134 0.930 . S
C130 N127 1.336 . S
C130 C129 1.346 . S
C130 H137 0.929 . S
C131 O121 1.282 . S
C131 O132 1.216 . S
O132 C131 1.216 . S
H133 C128 0.930 . S
H134 C129 0.930 . S
O135 Cu115 1.959 . S
O135 C122 1.251 . S
H136 C119 0.930 . S
H137 C130 0.929 . S
Cu138 N139 1.999 1_554 S
Cu138 O144 1.974 . S
Cu138 N149 1.985 . S
Cu138 O158 1.959 1_554 S
N139 Cu138 1.999 1_556 S
N139 C141 1.263 1_556 S
N139 C143 1.389 . S
N140 C141 1.366 . S
N140 C142 1.385 1_554 S
C141 N139 1.263 1_554 S
C141 N140 1.366 . S
C141 H147 0.930 . S
C142 N140 1.385 1_556 S
C142 C143 1.351 . S
C142 H159 0.930 . S
C143 N139 1.389 . S
C143 C142 1.351 . S
C143 H148 0.930 . S
O144 Cu138 1.974 . S
O144 C154 1.282 . S
C145 O146 1.261 . S
C145 O158 1.251 . S
O146 C145 1.261 . S
H147 C141 0.930 . S
H148 C143 0.930 . S
N149 Cu138 1.985 . S
N149 C151 1.335 1_554 S
N149 C152 1.390 . S
N150 C151 1.345 1_554 S
N150 C153 1.336 . S
C151 N149 1.335 1_556 S
C151 N150 1.345 1_556 S
C151 H156 0.930 . S
C152 N149 1.390 . S
C152 C153 1.346 . S
C152 H157 0.930 . S
C153 N150 1.336 . S
C153 C152 1.346 . S
C153 H160 0.929 . S
C154 O144 1.282 . S
C154 O155 1.216 . S
O155 C154 1.216 . S
H156 C151 0.930 . S
H157 C152 0.930 . S
O158 Cu138 1.959 1_556 S
O158 C145 1.251 . S
H159 C142 0.930 . S
H160 C153 0.929 . S
Cu161 N162 1.999 1_554 S
Cu161 O167 1.974 . S
Cu161 N172 1.985 . S
Cu161 O181 1.959 1_554 S
N162 Cu161 1.999 1_556 S
N162 C164 1.263 1_556 S
N162 C166 1.389 1_655 S
N163 C164 1.366 1_455 S
N163 C165 1.385 1_554 S
C164 N162 1.263 1_554 S
C164 N163 1.366 1_655 S
C164 H170 0.930 . S
C165 N163 1.385 1_556 S
C165 C166 1.351 . S
C165 H182 0.930 . S
C166 N162 1.389 1_455 S
C166 C165 1.351 . S
C166 H171 0.930 . S
O167 Cu161 1.974 . S
O167 C177 1.282 . S
C168 O169 1.261 . S
C168 O181 1.251 . S
O169 C168 1.261 . S
H170 C164 0.930 . S
H171 C166 0.930 . S
N172 Cu161 1.985 . S
N172 C174 1.335 1_554 S
N172 C175 1.390 . S
N173 C174 1.345 1_554 S
N173 C176 1.336 . S
C174 N172 1.335 1_556 S
C174 N173 1.345 1_556 S
C174 H179 0.930 . S
C175 N172 1.390 . S
C175 C176 1.346 . S
C175 H180 0.930 . S
C176 N173 1.336 . S
C176 C175 1.346 . S
C176 H183 0.929 . S
C177 O167 1.282 . S
C177 O178 1.216 . S
O178 C177 1.216 . S
H179 C174 0.930 . S
H180 C175 0.930 . S
O181 Cu161 1.959 1_556 S
O181 C168 1.251 . S
H182 C165 0.930 . S
H183 C176 0.929 . S
Cu184 N185 1.999 . S
Cu184 O190 1.974 . S
Cu184 N195 1.985 . S
Cu184 O204 1.959 . S
N185 Cu184 1.999 . S
N185 C187 1.263 . S
N185 C189 1.389 . S
N186 C187 1.358 . S
N186 C188 1.400 . S
C187 N185 1.263 . S
C187 N186 1.358 . S
C187 H193 0.930 . S
C188 N186 1.400 . S
C188 C189 1.351 . S
C188 H205 0.930 . S
C189 N185 1.389 . S
C189 C188 1.351 . S
C189 H194 0.930 . S
O190 Cu184 1.974 . S
O190 C200 1.282 . S
C191 O192 1.261 . S
C191 O204 1.251 . S
O192 C191 1.261 . S
H193 C187 0.930 . S
H194 C189 0.930 . S
N195 Cu184 1.985 . S
N195 C197 1.335 . S
N195 C198 1.390 . S
N196 C197 1.345 . S
N196 C199 1.336 . S
C197 N195 1.335 . S
C197 N196 1.345 . S
C197 H202 0.930 . S
C198 N195 1.390 . S
C198 C199 1.346 . S
C198 H203 0.930 . S
C199 N196 1.336 . S
C199 C198 1.346 . S
C199 H206 0.929 . S
C200 O190 1.282 . S
C200 O201 1.216 . S
O201 C200 1.216 . S
H202 C197 0.930 . S
H203 C198 0.930 . S
O204 Cu184 1.959 . S
O204 C191 1.251 . S
H205 C188 0.930 . S
H206 C199 0.929 . S
Cu207 N208 1.999 . S
Cu207 O213 1.974 . S
Cu207 N218 1.985 . S
Cu207 O227 1.959 . S
N208 Cu207 1.999 . S
N208 C210 1.263 . S
N208 C212 1.389 1_455 S
N209 C210 1.358 1_655 S
N209 C211 1.400 . S
C210 N208 1.263 . S
C210 N209 1.358 1_455 S
C210 H216 0.930 . S
C211 N209 1.400 . S
C211 C212 1.351 . S
C211 H228 0.930 . S
C212 N208 1.389 1_655 S
C212 C211 1.351 . S
C212 H217 0.930 . S
O213 Cu207 1.974 . S
O213 C223 1.282 . S
C214 O215 1.261 . S
C214 O227 1.251 . S
O215 C214 1.261 . S
H216 C210 0.930 . S
H217 C212 0.930 . S
N218 Cu207 1.985 . S
N218 C220 1.335 . S
N218 C221 1.390 . S
N219 C220 1.345 . S
N219 C222 1.336 . S
C220 N218 1.335 . S
C220 N219 1.345 . S
C220 H225 0.930 . S
C221 N218 1.390 . S
C221 C222 1.346 . S
C221 H226 0.930 . S
C222 N219 1.336 . S
C222 C221 1.346 . S
C222 H229 0.929 . S
C223 O213 1.282 . S
C223 O224 1.216 . S
O224 C223 1.216 . S
H225 C220 0.930 . S
H226 C221 0.930 . S
O227 Cu207 1.959 . S
O227 C214 1.251 . S
H228 C211 0.930 . S
H229 C222 0.929 . S
Cu230 N231 1.999 . S
Cu230 O236 1.974 . S
Cu230 N241 1.985 . S
Cu230 O250 1.959 . S
N231 Cu230 1.999 . S
N231 C233 1.263 . S
N231 C235 1.389 . S
N232 C233 1.358 . S
N232 C234 1.400 . S
C233 N231 1.263 . S
C233 N232 1.358 . S
C233 H239 0.930 . S
C234 N232 1.400 . S
C234 C235 1.351 . S
C234 H251 0.930 . S
C235 N231 1.389 . S
C235 C234 1.351 . S
C235 H240 0.930 . S
O236 Cu230 1.974 . S
O236 C246 1.282 . S
C237 O238 1.261 . S
C237 O250 1.251 . S
O238 C237 1.261 . S
H239 C233 0.930 . S
H240 C235 0.930 . S
N241 Cu230 1.985 . S
N241 C243 1.335 . S
N241 C244 1.390 . S
N242 C243 1.345 . S
N242 C245 1.336 . S
C243 N241 1.335 . S
C243 N242 1.345 . S
C243 H248 0.930 . S
C244 N241 1.390 . S
C244 C245 1.346 . S
C244 H249 0.930 . S
C245 N242 1.336 . S
C245 C244 1.346 . S
C245 H252 0.929 . S
C246 O236 1.282 . S
C246 O247 1.216 . S
O247 C246 1.216 . S
H248 C243 0.930 . S
H249 C244 0.930 . S
O250 Cu230 1.959 . S
O250 C237 1.251 . S
H251 C234 0.930 . S
H252 C245 0.929 . S
Cu253 N254 1.999 . S
Cu253 O259 1.974 . S
Cu253 N264 1.985 . S
Cu253 O273 1.959 . S
N254 Cu253 1.999 . S
N254 C256 1.263 . S
N254 C258 1.389 1_455 S
N255 C256 1.358 1_655 S
N255 C257 1.400 . S
C256 N254 1.263 . S
C256 N255 1.358 1_455 S
C256 H262 0.930 . S
C257 N255 1.400 . S
C257 C258 1.351 . S
C257 H274 0.930 . S
C258 N254 1.389 1_655 S
C258 C257 1.351 . S
C258 H263 0.930 . S
O259 Cu253 1.974 . S
O259 C269 1.282 . S
C260 O261 1.261 . S
C260 O273 1.251 . S
O261 C260 1.261 . S
H262 C256 0.930 . S
H263 C258 0.930 . S
N264 Cu253 1.985 . S
N264 C266 1.335 . S
N264 C267 1.390 . S
N265 C266 1.345 . S
N265 C268 1.336 . S
C266 N264 1.335 . S
C266 N265 1.345 . S
C266 H271 0.930 . S
C267 N264 1.390 . S
C267 C268 1.346 . S
C267 H272 0.930 . S
C268 N265 1.336 . S
C268 C267 1.346 . S
C268 H275 0.929 . S
C269 O259 1.282 . S
C269 O270 1.216 . S
O270 C269 1.216 . S
H271 C266 0.930 . S
H272 C267 0.930 . S
O273 Cu253 1.959 . S
O273 C260 1.251 . S
H274 C257 0.930 . S
H275 C268 0.929 . S
Cu276 N277 1.999 . S
Cu276 O282 1.974 . S
Cu276 N287 1.985 . S
Cu276 O296 1.959 . S
N277 Cu276 1.999 . S
N277 C279 1.263 . S
N277 C281 1.389 . S
N278 C279 1.358 . S
N278 C280 1.400 . S
C279 N277 1.263 . S
C279 N278 1.358 . S
C279 H285 0.930 . S
C280 N278 1.400 . S
C280 C281 1.351 . S
C280 H297 0.930 . S
C281 N277 1.389 . S
C281 C280 1.351 . S
C281 H286 0.930 . S
O282 Cu276 1.974 . S
O282 C292 1.282 . S
C283 O284 1.261 . S
C283 O296 1.251 . S
O284 C283 1.261 . S
H285 C279 0.930 . S
H286 C281 0.930 . S
N287 Cu276 1.985 . S
N287 C289 1.335 . S
N287 C290 1.390 . S
N288 C289 1.345 . S
N288 C291 1.336 . S
C289 N287 1.335 . S
C289 N288 1.345 . S
C289 H294 0.930 . S
C290 N287 1.390 . S
C290 C291 1.346 . S
C290 H295 0.930 . S
C291 N288 1.336 . S
C291 C290 1.346 . S
C291 H298 0.929 . S
C292 O282 1.282 . S
C292 O293 1.216 . S
O293 C292 1.216 . S
H294 C289 0.930 . S
H295 C290 0.930 . S
O296 Cu276 1.959 . S
O296 C283 1.251 . S
H297 C280 0.930 . S
H298 C291 0.929 . S
Cu299 N300 1.999 . S
Cu299 O305 1.974 . S
Cu299 N310 1.985 . S
Cu299 O319 1.959 . S
N300 Cu299 1.999 . S
N300 C302 1.263 . S
N300 C304 1.389 1_655 S
N301 C302 1.358 1_455 S
N301 C303 1.400 . S
C302 N300 1.263 . S
C302 N301 1.358 1_655 S
C302 H308 0.930 . S
C303 N301 1.400 . S
C303 C304 1.351 . S
C303 H320 0.930 . S
C304 N300 1.389 1_455 S
C304 C303 1.351 . S
C304 H309 0.930 . S
O305 Cu299 1.974 . S
O305 C315 1.282 . S
C306 O307 1.261 . S
C306 O319 1.251 . S
O307 C306 1.261 . S
H308 C302 0.930 . S
H309 C304 0.930 . S
N310 Cu299 1.985 . S
N310 C312 1.335 . S
N310 C313 1.390 . S
N311 C312 1.345 . S
N311 C314 1.336 . S
C312 N310 1.335 . S
C312 N311 1.345 . S
C312 H317 0.930 . S
C313 N310 1.390 . S
C313 C314 1.346 . S
C313 H318 0.930 . S
C314 N311 1.336 . S
C314 C313 1.346 . S
C314 H321 0.929 . S
C315 O305 1.282 . S
C315 O316 1.216 . S
O316 C315 1.216 . S
H317 C312 0.930 . S
H318 C313 0.930 . S
O319 Cu299 1.959 . S
O319 C306 1.251 . S
H320 C303 0.930 . S
H321 C314 0.929 . S
Cu322 N323 1.999 . S
Cu322 O328 1.974 . S
Cu322 N333 1.985 . S
Cu322 O342 1.959 . S
N323 Cu322 1.999 . S
N323 C325 1.263 . S
N323 C327 1.389 . S
N324 C325 1.358 . S
N324 C326 1.400 . S
C325 N323 1.263 . S
C325 N324 1.358 . S
C325 H331 0.930 . S
C326 N324 1.400 . S
C326 C327 1.351 . S
C326 H343 0.930 . S
C327 N323 1.389 . S
C327 C326 1.351 . S
C327 H332 0.930 . S
O328 Cu322 1.974 . S
O328 C338 1.282 . S
C329 O330 1.261 . S
C329 O342 1.251 . S
O330 C329 1.261 . S
H331 C325 0.930 . S
H332 C327 0.930 . S
N333 Cu322 1.985 . S
N333 C335 1.335 . S
N333 C336 1.390 . S
N334 C335 1.345 . S
N334 C337 1.336 . S
C335 N333 1.335 . S
C335 N334 1.345 . S
C335 H340 0.930 . S
C336 N333 1.390 . S
C336 C337 1.346 . S
C336 H341 0.930 . S
C337 N334 1.336 . S
C337 C336 1.346 . S
C337 H344 0.929 . S
C338 O328 1.282 . S
C338 O339 1.216 . S
O339 C338 1.216 . S
H340 C335 0.930 . S
H341 C336 0.930 . S
O342 Cu322 1.959 . S
O342 C329 1.251 . S
H343 C326 0.930 . S
H344 C337 0.929 . S
Cu345 N346 1.999 . S
Cu345 O351 1.974 . S
Cu345 N356 1.985 . S
Cu345 O365 1.959 . S
N346 Cu345 1.999 . S
N346 C348 1.263 . S
N346 C350 1.389 1_655 S
N347 C348 1.358 1_455 S
N347 C349 1.400 . S
C348 N346 1.263 . S
C348 N347 1.358 1_655 S
C348 H354 0.930 . S
C349 N347 1.400 . S
C349 C350 1.351 . S
C349 H366 0.930 . S
C350 N346 1.389 1_455 S
C350 C349 1.351 . S
C350 H355 0.930 . S
O351 Cu345 1.974 . S
O351 C361 1.282 . S
C352 O353 1.261 . S
C352 O365 1.251 . S
O353 C352 1.261 . S
H354 C348 0.930 . S
H355 C350 0.930 . S
N356 Cu345 1.985 . S
N356 C358 1.335 . S
N356 C359 1.390 . S
N357 C358 1.345 . S
N357 C360 1.336 . S
C358 N356 1.335 . S
C358 N357 1.345 . S
C358 H363 0.930 . S
C359 N356 1.390 . S
C359 C360 1.346 . S
C359 H364 0.930 . S
C360 N357 1.336 . S
C360 C359 1.346 . S
C360 H367 0.929 . S
C361 O351 1.282 . S
C361 O362 1.216 . S
O362 C361 1.216 . S
H363 C358 0.930 . S
H364 C359 0.930 . S
O365 Cu345 1.959 . S
O365 C352 1.251 . S
H366 C349 0.930 . S
H367 C360 0.929 . S
Cu368 N369 1.999 . S
Cu368 O374 1.974 . S
Cu368 N379 1.985 . S
Cu368 O388 1.959 . S
N369 Cu368 1.999 . S
N369 C371 1.263 . S
N369 C373 1.389 . S
N370 C371 1.358 . S
N370 C372 1.400 . S
C371 N369 1.263 . S
C371 N370 1.358 . S
C371 H377 0.930 . S
C372 N370 1.400 . S
C372 C373 1.351 . S
C372 H389 0.930 . S
C373 N369 1.389 . S
C373 C372 1.351 . S
C373 H378 0.930 . S
O374 Cu368 1.974 . S
O374 C384 1.282 . S
C375 O376 1.261 . S
C375 O388 1.251 . S
O376 C375 1.261 . S
H377 C371 0.930 . S
H378 C373 0.930 . S
N379 Cu368 1.985 . S
N379 C381 1.335 . S
N379 C382 1.390 . S
N380 C381 1.345 . S
N380 C383 1.336 . S
C381 N379 1.335 . S
C381 N380 1.345 . S
C381 H386 0.930 . S
C382 N379 1.390 . S
C382 C383 1.346 . S
C382 H387 0.930 . S
C383 N380 1.336 . S
C383 C382 1.346 . S
C383 H390 0.929 . S
C384 O374 1.282 . S
C384 O385 1.216 . S
O385 C384 1.216 . S
H386 C381 0.930 . S
H387 C382 0.930 . S
O388 Cu368 1.959 . S
O388 C375 1.251 . S
H389 C372 0.930 . S
H390 C383 0.929 . S
Cu391 N392 1.999 . S
Cu391 O397 1.974 . S
Cu391 N402 1.985 . S
Cu391 O411 1.959 . S
N392 Cu391 1.999 . S
N392 C394 1.263 . S
N392 C396 1.389 . S
N393 C394 1.358 . S
N393 C395 1.400 . S
C394 N392 1.263 . S
C394 N393 1.358 . S
C394 H400 0.930 . S
C395 N393 1.400 . S
C395 C396 1.351 . S
C395 H412 0.930 . S
C396 N392 1.389 . S
C396 C395 1.351 . S
C396 H401 0.930 . S
O397 Cu391 1.974 . S
O397 C407 1.282 . S
C398 O399 1.261 . S
C398 O411 1.251 . S
O399 C398 1.261 . S
H400 C394 0.930 . S
H401 C396 0.930 . S
N402 Cu391 1.985 . S
N402 C404 1.335 . S
N402 C405 1.390 . S
N403 C404 1.345 . S
N403 C406 1.336 . S
C404 N402 1.335 . S
C404 N403 1.345 . S
C404 H409 0.930 . S
C405 N402 1.390 . S
C405 C406 1.346 . S
C405 H410 0.930 . S
C406 N403 1.336 . S
C406 C405 1.346 . S
C406 H413 0.929 . S
C407 O397 1.282 . S
C407 O408 1.216 . S
O408 C407 1.216 . S
H409 C404 0.930 . S
H410 C405 0.930 . S
O411 Cu391 1.959 . S
O411 C398 1.251 . S
H412 C395 0.930 . S
H413 C406 0.929 . S
Cu414 N415 1.999 . S
Cu414 O420 1.974 . S
Cu414 N425 1.985 . S
Cu414 O434 1.959 . S
N415 Cu414 1.999 . S
N415 C417 1.263 . S
N415 C419 1.389 . S
N416 C417 1.358 . S
N416 C418 1.400 . S
C417 N415 1.263 . S
C417 N416 1.358 . S
C417 H423 0.930 . S
C418 N416 1.400 . S
C418 C419 1.351 . S
C418 H435 0.930 . S
C419 N415 1.389 . S
C419 C418 1.351 . S
C419 H424 0.930 . S
O420 Cu414 1.974 . S
O420 C430 1.282 . S
C421 O422 1.261 . S
C421 O434 1.251 . S
O422 C421 1.261 . S
H423 C417 0.930 . S
H424 C419 0.930 . S
N425 Cu414 1.985 . S
N425 C427 1.335 . S
N425 C428 1.390 . S
N426 C427 1.345 . S
N426 C429 1.336 . S
C427 N425 1.335 . S
C427 N426 1.345 . S
C427 H432 0.930 . S
C428 N425 1.390 . S
C428 C429 1.346 . S
C428 H433 0.930 . S
C429 N426 1.336 . S
C429 C428 1.346 . S
C429 H436 0.929 . S
C430 O420 1.282 . S
C430 O431 1.216 . S
O431 C430 1.216 . S
H432 C427 0.930 . S
H433 C428 0.930 . S
O434 Cu414 1.959 . S
O434 C421 1.251 . S
H435 C418 0.930 . S
H436 C429 0.929 . S
Cu437 N438 1.999 . S
Cu437 O443 1.974 . S
Cu437 N448 1.985 . S
Cu437 O457 1.959 . S
N438 Cu437 1.999 . S
N438 C440 1.263 . S
N438 C442 1.389 . S
N439 C440 1.358 . S
N439 C441 1.400 . S
C440 N438 1.263 . S
C440 N439 1.358 . S
C440 H446 0.930 . S
C441 N439 1.400 . S
C441 C442 1.351 . S
C441 H458 0.930 . S
C442 N438 1.389 . S
C442 C441 1.351 . S
C442 H447 0.930 . S
O443 Cu437 1.974 . S
O443 C453 1.282 . S
C444 O445 1.261 . S
C444 O457 1.251 . S
O445 C444 1.261 . S
H446 C440 0.930 . S
H447 C442 0.930 . S
N448 Cu437 1.985 . S
N448 C450 1.335 . S
N448 C451 1.390 . S
N449 C450 1.345 . S
N449 C452 1.336 . S
C450 N448 1.335 . S
C450 N449 1.345 . S
C450 H455 0.930 . S
C451 N448 1.390 . S
C451 C452 1.346 . S
C451 H456 0.930 . S
C452 N449 1.336 . S
C452 C451 1.346 . S
C452 H459 0.929 . S
C453 O443 1.282 . S
C453 O454 1.216 . S
O454 C453 1.216 . S
H455 C450 0.930 . S
H456 C451 0.930 . S
O457 Cu437 1.959 . S
O457 C444 1.251 . S
H458 C441 0.930 . S
H459 C452 0.929 . S
Cu460 N461 1.999 . S
Cu460 O466 1.974 . S
Cu460 N471 1.985 . S
Cu460 O480 1.959 . S
N461 Cu460 1.999 . S
N461 C463 1.263 . S
N461 C465 1.389 . S
N462 C463 1.358 . S
N462 C464 1.400 . S
C463 N461 1.263 . S
C463 N462 1.358 . S
C463 H469 0.930 . S
C464 N462 1.400 . S
C464 C465 1.351 . S
C464 H481 0.930 . S
C465 N461 1.389 . S
C465 C464 1.351 . S
C465 H470 0.930 . S
O466 Cu460 1.974 . S
O466 C476 1.282 . S
C467 O468 1.261 . S
C467 O480 1.251 . S
O468 C467 1.261 . S
H469 C463 0.930 . S
H470 C465 0.930 . S
N471 Cu460 1.985 . S
N471 C473 1.335 . S
N471 C474 1.390 . S
N472 C473 1.345 . S
N472 C475 1.336 . S
C473 N471 1.335 . S
C473 N472 1.345 . S
C473 H478 0.930 . S
C474 N471 1.390 . S
C474 C475 1.346 . S
C474 H479 0.930 . S
C475 N472 1.336 . S
C475 C474 1.346 . S
C475 H482 0.929 . S
C476 O466 1.282 . S
C476 O477 1.216 . S
O477 C476 1.216 . S
H478 C473 0.930 . S
H479 C474 0.930 . S
O480 Cu460 1.959 . S
O480 C467 1.251 . S
H481 C464 0.930 . S
H482 C475 0.929 . S
Cu483 N484 1.999 . S
Cu483 O489 1.974 . S
Cu483 N494 1.985 . S
Cu483 O503 1.959 . S
N484 Cu483 1.999 . S
N484 C486 1.263 . S
N484 C488 1.389 . S
N485 C486 1.358 . S
N485 C487 1.400 . S
C486 N484 1.263 . S
C486 N485 1.358 . S
C486 H492 0.930 . S
C487 N485 1.400 . S
C487 C488 1.351 . S
C487 H504 0.930 . S
C488 N484 1.389 . S
C488 C487 1.351 . S
C488 H493 0.930 . S
O489 Cu483 1.974 . S
O489 C499 1.282 . S
C490 O491 1.261 . S
C490 O503 1.251 . S
O491 C490 1.261 . S
H492 C486 0.930 . S
H493 C488 0.930 . S
N494 Cu483 1.985 . S
N494 C496 1.335 . S
N494 C497 1.390 . S
N495 C496 1.345 . S
N495 C498 1.336 . S
C496 N494 1.335 . S
C496 N495 1.345 . S
C496 H501 0.930 . S
C497 N494 1.390 . S
C497 C498 1.346 . S
C497 H502 0.930 . S
C498 N495 1.336 . S
C498 C497 1.346 . S
C498 H505 0.929 . S
C499 O489 1.282 . S
C499 O500 1.216 . S
O500 C499 1.216 . S
H501 C496 0.930 . S
H502 C497 0.930 . S
O503 Cu483 1.959 . S
O503 C490 1.251 . S
H504 C487 0.930 . S
H505 C498 0.929 . S
Cu506 N507 1.999 . S
Cu506 O512 1.974 . S
Cu506 N517 1.985 . S
Cu506 O526 1.959 . S
N507 Cu506 1.999 . S
N507 C509 1.263 . S
N507 C511 1.389 . S
N508 C509 1.358 . S
N508 C510 1.400 . S
C509 N507 1.263 . S
C509 N508 1.358 . S
C509 H515 0.930 . S
C510 N508 1.400 . S
C510 C511 1.351 . S
C510 H527 0.930 . S
C511 N507 1.389 . S
C511 C510 1.351 . S
C511 H516 0.930 . S
O512 Cu506 1.974 . S
O512 C522 1.282 . S
C513 O514 1.261 . S
C513 O526 1.251 . S
O514 C513 1.261 . S
H515 C509 0.930 . S
H516 C511 0.930 . S
N517 Cu506 1.985 . S
N517 C519 1.335 . S
N517 C520 1.390 . S
N518 C519 1.345 . S
N518 C521 1.336 . S
C519 N517 1.335 . S
C519 N518 1.345 . S
C519 H524 0.930 . S
C520 N517 1.390 . S
C520 C521 1.346 . S
C520 H525 0.930 . S
C521 N518 1.336 . S
C521 C520 1.346 . S
C521 H528 0.929 . S
C522 O512 1.282 . S
C522 O523 1.216 . S
O523 C522 1.216 . S
H524 C519 0.930 . S
H525 C520 0.930 . S
O526 Cu506 1.959 . S
O526 C513 1.251 . S
H527 C510 0.930 . S
H528 C521 0.929 . S
Cu529 N530 1.999 . S
Cu529 O535 1.974 . S
Cu529 N540 1.985 . S
Cu529 O549 1.959 . S
N530 Cu529 1.999 . S
N530 C532 1.263 . S
N530 C534 1.389 . S
N531 C532 1.358 . S
N531 C533 1.400 . S
C532 N530 1.263 . S
C532 N531 1.358 . S
C532 H538 0.930 . S
C533 N531 1.400 . S
C533 C534 1.351 . S
C533 H550 0.930 . S
C534 N530 1.389 . S
C534 C533 1.351 . S
C534 H539 0.930 . S
O535 Cu529 1.974 . S
O535 C545 1.282 . S
C536 O537 1.261 . S
C536 O549 1.251 . S
O537 C536 1.261 . S
H538 C532 0.930 . S
H539 C534 0.930 . S
N540 Cu529 1.985 . S
N540 C542 1.335 . S
N540 C543 1.390 . S
N541 C542 1.345 . S
N541 C544 1.336 . S
C542 N540 1.335 . S
C542 N541 1.345 . S
C542 H547 0.930 . S
C543 N540 1.390 . S
C543 C544 1.346 . S
C543 H548 0.930 . S
C544 N541 1.336 . S
C544 C543 1.346 . S
C544 H551 0.929 . S
C545 O535 1.282 . S
C545 O546 1.216 . S
O546 C545 1.216 . S
H547 C542 0.930 . S
H548 C543 0.930 . S
O549 Cu529 1.959 . S
O549 C536 1.251 . S
H550 C533 0.930 . S
H551 C544 0.929 . S
Cu552 N553 1.999 . S
Cu552 O558 1.974 . S
Cu552 N563 1.985 . S
Cu552 O572 1.959 . S
N553 Cu552 1.999 . S
N553 C555 1.263 . S
N553 C557 1.389 . S
N554 C555 1.358 . S
N554 C556 1.400 . S
C555 N553 1.263 . S
C555 N554 1.358 . S
C555 H561 0.930 . S
C556 N554 1.400 . S
C556 C557 1.351 . S
C556 H573 0.930 . S
C557 N553 1.389 . S
C557 C556 1.351 . S
C557 H562 0.930 . S
O558 Cu552 1.974 . S
O558 C568 1.282 . S
C559 O560 1.261 . S
C559 O572 1.251 . S
O560 C559 1.261 . S
H561 C555 0.930 . S
H562 C557 0.930 . S
N563 Cu552 1.985 . S
N563 C565 1.335 . S
N563 C566 1.390 . S
N564 C565 1.345 . S
N564 C567 1.336 . S
C565 N563 1.335 . S
C565 N564 1.345 . S
C565 H570 0.930 . S
C566 N563 1.390 . S
C566 C567 1.346 . S
C566 H571 0.930 . S
C567 N564 1.336 . S
C567 C566 1.346 . S
C567 H574 0.929 . S
C568 O558 1.282 . S
C568 O569 1.216 . S
O569 C568 1.216 . S
H570 C565 0.930 . S
H571 C566 0.930 . S
O572 Cu552 1.959 . S
O572 C559 1.251 . S
H573 C556 0.930 . S
H574 C567 0.929 . S
Cu575 N576 1.999 . S
Cu575 O581 1.974 . S
Cu575 N586 1.985 . S
Cu575 O595 1.959 . S
N576 Cu575 1.999 . S
N576 C578 1.263 . S
N576 C580 1.389 . S
N577 C578 1.358 . S
N577 C579 1.400 . S
C578 N576 1.263 . S
C578 N577 1.358 . S
C578 H584 0.930 . S
C579 N577 1.400 . S
C579 C580 1.351 . S
C579 H596 0.930 . S
C580 N576 1.389 . S
C580 C579 1.351 . S
C580 H585 0.930 . S
O581 Cu575 1.974 . S
O581 C591 1.282 . S
C582 O583 1.261 . S
C582 O595 1.251 . S
O583 C582 1.261 . S
H584 C578 0.930 . S
H585 C580 0.930 . S
N586 Cu575 1.985 . S
N586 C588 1.335 . S
N586 C589 1.390 . S
N587 C588 1.345 . S
N587 C590 1.336 . S
C588 N586 1.335 . S
C588 N587 1.345 . S
C588 H593 0.930 . S
C589 N586 1.390 . S
C589 C590 1.346 . S
C589 H594 0.930 . S
C590 N587 1.336 . S
C590 C589 1.346 . S
C590 H597 0.929 . S
C591 O581 1.282 . S
C591 O592 1.216 . S
O592 C591 1.216 . S
H593 C588 0.930 . S
H594 C589 0.930 . S
O595 Cu575 1.959 . S
O595 C582 1.251 . S
H596 C579 0.930 . S
H597 C590 0.929 . S
Cu598 N599 1.999 1_556 S
Cu598 O604 1.974 . S
Cu598 N609 1.985 . S
Cu598 O618 1.959 1_556 S
N599 Cu598 1.999 1_554 S
N599 C601 1.263 1_554 S
N599 C603 1.389 . S
N600 C601 1.366 . S
N600 C602 1.385 1_556 S
C601 N599 1.263 1_556 S
C601 N600 1.366 . S
C601 H607 0.930 . S
C602 N600 1.385 1_554 S
C602 C603 1.351 . S
C602 H619 0.930 . S
C603 N599 1.389 . S
C603 C602 1.351 . S
C603 H608 0.930 . S
O604 Cu598 1.974 . S
O604 C614 1.282 . S
C605 O606 1.261 . S
C605 O618 1.251 . S
O606 C605 1.261 . S
H607 C601 0.930 . S
H608 C603 0.930 . S
N609 Cu598 1.985 . S
N609 C611 1.335 1_556 S
N609 C612 1.390 . S
N610 C611 1.345 1_556 S
N610 C613 1.336 . S
C611 N609 1.335 1_554 S
C611 N610 1.345 1_554 S
C611 H616 0.930 . S
C612 N609 1.390 . S
C612 C613 1.346 . S
C612 H617 0.930 . S
C613 N610 1.336 . S
C613 C612 1.346 . S
C613 H620 0.929 . S
C614 O604 1.282 . S
C614 O615 1.216 . S
O615 C614 1.216 . S
H616 C611 0.930 . S
H617 C612 0.930 . S
O618 Cu598 1.959 1_554 S
O618 C605 1.251 . S
H619 C602 0.930 . S
H620 C613 0.929 . S
Cu621 N622 1.999 1_556 S
Cu621 O627 1.974 . S
Cu621 N632 1.985 . S
Cu621 O641 1.959 1_556 S
N622 Cu621 1.999 1_554 S
N622 C624 1.263 1_554 S
N622 C626 1.389 . S
N623 C624 1.366 . S
N623 C625 1.385 1_556 S
C624 N622 1.263 1_556 S
C624 N623 1.366 . S
C624 H630 0.930 . S
C625 N623 1.385 1_554 S
C625 C626 1.351 . S
C625 H642 0.930 . S
C626 N622 1.389 . S
C626 C625 1.351 . S
C626 H631 0.930 . S
O627 Cu621 1.974 . S
O627 C637 1.282 . S
C628 O629 1.261 . S
C628 O641 1.251 . S
O629 C628 1.261 . S
H630 C624 0.930 . S
H631 C626 0.930 . S
N632 Cu621 1.985 . S
N632 C634 1.335 1_556 S
N632 C635 1.390 . S
N633 C634 1.345 1_556 S
N633 C636 1.336 . S
C634 N632 1.335 1_554 S
C634 N633 1.345 1_554 S
C634 H639 0.930 . S
C635 N632 1.390 . S
C635 C636 1.346 . S
C635 H640 0.930 . S
C636 N633 1.336 . S
C636 C635 1.346 . S
C636 H643 0.929 . S
C637 O627 1.282 . S
C637 O638 1.216 . S
O638 C637 1.216 . S
H639 C634 0.930 . S
H640 C635 0.930 . S
O641 Cu621 1.959 1_554 S
O641 C628 1.251 . S
H642 C625 0.930 . S
H643 C636 0.929 . S
Cu644 N645 1.999 . S
Cu644 O650 1.974 . S
Cu644 N655 1.985 . S
Cu644 O664 1.959 . S
N645 Cu644 1.999 . S
N645 C647 1.263 . S
N645 C649 1.389 . S
N646 C647 1.358 . S
N646 C648 1.400 . S
C647 N645 1.263 . S
C647 N646 1.358 . S
C647 H653 0.930 . S
C648 N646 1.400 . S
C648 C649 1.351 . S
C648 H665 0.930 . S
C649 N645 1.389 . S
C649 C648 1.351 . S
C649 H654 0.930 . S
O650 Cu644 1.974 . S
O650 C660 1.282 . S
C651 O652 1.261 . S
C651 O664 1.251 . S
O652 C651 1.261 . S
H653 C647 0.930 . S
H654 C649 0.930 . S
N655 Cu644 1.985 . S
N655 C657 1.335 . S
N655 C658 1.390 . S
N656 C657 1.345 . S
N656 C659 1.336 . S
C657 N655 1.335 . S
C657 N656 1.345 . S
C657 H662 0.930 . S
C658 N655 1.390 . S
C658 C659 1.346 . S
C658 H663 0.930 . S
C659 N656 1.336 . S
C659 C658 1.346 . S
C659 H666 0.929 . S
C660 O650 1.282 . S
C660 O661 1.216 . S
O661 C660 1.216 . S
H662 C657 0.930 . S
H663 C658 0.930 . S
O664 Cu644 1.959 . S
O664 C651 1.251 . S
H665 C648 0.930 . S
H666 C659 0.929 . S
Cu667 N668 1.999 . S
Cu667 O673 1.974 . S
Cu667 N678 1.985 . S
Cu667 O687 1.959 . S
N668 Cu667 1.999 . S
N668 C670 1.263 . S
N668 C672 1.389 . S
N669 C670 1.358 . S
N669 C671 1.400 . S
C670 N668 1.263 . S
C670 N669 1.358 . S
C670 H676 0.930 . S
C671 N669 1.400 . S
C671 C672 1.351 . S
C671 H688 0.930 . S
C672 N668 1.389 . S
C672 C671 1.351 . S
C672 H677 0.930 . S
O673 Cu667 1.974 . S
O673 C683 1.282 . S
C674 O675 1.261 . S
C674 O687 1.251 . S
O675 C674 1.261 . S
H676 C670 0.930 . S
H677 C672 0.930 . S
N678 Cu667 1.985 . S
N678 C680 1.335 . S
N678 C681 1.390 . S
N679 C680 1.345 . S
N679 C682 1.336 . S
C680 N678 1.335 . S
C680 N679 1.345 . S
C680 H685 0.930 . S
C681 N678 1.390 . S
C681 C682 1.346 . S
C681 H686 0.930 . S
C682 N679 1.336 . S
C682 C681 1.346 . S
C682 H689 0.929 . S
C683 O673 1.282 . S
C683 O684 1.216 . S
O684 C683 1.216 . S
H685 C680 0.930 . S
H686 C681 0.930 . S
O687 Cu667 1.959 . S
O687 C674 1.251 . S
H688 C671 0.930 . S
H689 C682 0.929 . S
Cu690 N691 1.999 1_554 S
Cu690 O696 1.974 . S
Cu690 N701 1.985 . S
Cu690 O710 1.959 1_554 S
N691 Cu690 1.999 1_556 S
N691 C693 1.263 1_556 S
N691 C695 1.389 . S
N692 C693 1.366 . S
N692 C694 1.385 1_554 S
C693 N691 1.263 1_554 S
C693 N692 1.366 . S
C693 H699 0.930 . S
C694 N692 1.385 1_556 S
C694 C695 1.351 . S
C694 H711 0.930 . S
C695 N691 1.389 . S
C695 C694 1.351 . S
C695 H700 0.930 . S
O696 Cu690 1.974 . S
O696 C706 1.282 . S
C697 O698 1.261 . S
C697 O710 1.251 . S
O698 C697 1.261 . S
H699 C693 0.930 . S
H700 C695 0.930 . S
N701 Cu690 1.985 . S
N701 C703 1.335 1_554 S
N701 C704 1.390 . S
N702 C703 1.345 1_554 S
N702 C705 1.336 . S
C703 N701 1.335 1_556 S
C703 N702 1.345 1_556 S
C703 H708 0.930 . S
C704 N701 1.390 . S
C704 C705 1.346 . S
C704 H709 0.930 . S
C705 N702 1.336 . S
C705 C704 1.346 . S
C705 H712 0.929 . S
C706 O696 1.282 . S
C706 O707 1.216 . S
O707 C706 1.216 . S
H708 C703 0.930 . S
H709 C704 0.930 . S
O710 Cu690 1.959 1_556 S
O710 C697 1.251 . S
H711 C694 0.930 . S
H712 C705 0.929 . S
Cu713 N714 1.999 1_554 S
Cu713 O719 1.974 . S
Cu713 N724 1.985 . S
Cu713 O733 1.959 1_554 S
N714 Cu713 1.999 1_556 S
N714 C716 1.263 1_556 S
N714 C718 1.389 . S
N715 C716 1.366 . S
N715 C717 1.385 1_554 S
C716 N714 1.263 1_554 S
C716 N715 1.366 . S
C716 H722 0.930 . S
C717 N715 1.385 1_556 S
C717 C718 1.351 . S
C717 H734 0.930 . S
C718 N714 1.389 . S
C718 C717 1.351 . S
C718 H723 0.930 . S
O719 Cu713 1.974 . S
O719 C729 1.282 . S
C720 O721 1.261 . S
C720 O733 1.251 . S
O721 C720 1.261 . S
H722 C716 0.930 . S
H723 C718 0.930 . S
N724 Cu713 1.985 . S
N724 C726 1.335 1_554 S
N724 C727 1.390 . S
N725 C726 1.345 1_554 S
N725 C728 1.336 . S
C726 N724 1.335 1_556 S
C726 N725 1.345 1_556 S
C726 H731 0.930 . S
C727 N724 1.390 . S
C727 C728 1.346 . S
C727 H732 0.930 . S
C728 N725 1.336 . S
C728 C727 1.346 . S
C728 H735 0.929 . S
C729 O719 1.282 . S
C729 O730 1.216 . S
O730 C729 1.216 . S
H731 C726 0.930 . S
H732 C727 0.930 . S
O733 Cu713 1.959 1_556 S
O733 C720 1.251 . S
H734 C717 0.930 . S
H735 C728 0.929 . S
H736 C742 0.930 . S
H737 C745 0.930 . S
H738 C746 0.930 . S
H739 C747 0.930 . S
H740 C750 0.930 . S
H741 C751 0.930 . S
C742 H736 0.930 . S
C742 C743 1.355 . S
C742 C744 1.415 . S
C743 C742 1.355 . S
C743 C745 1.419 . S
C744 C742 1.415 . S
C744 C749 1.425 . S
C744 C751 1.409 . S
C745 H737 0.930 . S
C745 C743 1.419 . S
C745 C746 1.362 . S
C746 H738 0.930 . S
C746 C745 1.362 . S
C746 C749 1.409 . S
C747 H739 0.930 . S
C747 C748 1.355 . S
C747 C749 1.415 . S
C748 C747 1.355 . S
C748 C750 1.419 . S
C749 C744 1.425 . S
C749 C746 1.409 . S
C749 C747 1.415 . S
C750 H740 0.930 . S
C750 C748 1.419 . S
C750 C751 1.362 . S
C751 H741 0.930 . S
C751 C744 1.409 . S
C751 C750 1.362 . S
H752 C758 0.930 . S
H753 C761 0.930 . S
H754 C762 0.930 . S
H755 C763 0.930 . S
H756 C766 0.930 . S
H757 C767 0.930 . S
C758 H752 0.930 . S
C758 C759 1.355 . S
C758 C760 1.415 . S
C759 C758 1.355 . S
C759 C761 1.419 . S
C760 C758 1.415 . S
C760 C765 1.425 . S
C760 C767 1.409 . S
C761 H753 0.930 . S
C761 C759 1.419 . S
C761 C762 1.362 . S
C762 H754 0.930 . S
C762 C761 1.362 . S
C762 C765 1.409 . S
C763 H755 0.930 . S
C763 C764 1.355 . S
C763 C765 1.415 . S
C764 C763 1.355 . S
C764 C766 1.419 . S
C765 C760 1.425 . S
C765 C762 1.409 . S
C765 C763 1.415 . S
C766 H756 0.930 . S
C766 C764 1.419 . S
C766 C767 1.362 . S
C767 H757 0.930 . S
C767 C760 1.409 . S
C767 C766 1.362 . S
H768 C774 0.930 . S
H769 C777 0.930 . S
H770 C778 0.930 . S
H771 C779 0.930 . S
H772 C782 0.930 . S
H773 C783 0.930 . S
C774 H768 0.930 . S
C774 C775 1.355 . S
C774 C776 1.415 . S
C775 C774 1.355 . S
C775 C777 1.419 . S
C776 C774 1.415 . S
C776 C781 1.425 . S
C776 C783 1.409 . S
C777 H769 0.930 . S
C777 C775 1.419 . S
C777 C778 1.362 . S
C778 H770 0.930 . S
C778 C777 1.362 . S
C778 C781 1.409 . S
C779 H771 0.930 . S
C779 C780 1.355 . S
C779 C781 1.415 . S
C780 C779 1.355 . S
C780 C782 1.419 . S
C781 C776 1.425 . S
C781 C778 1.409 . S
C781 C779 1.415 . S
C782 H772 0.930 . S
C782 C780 1.419 . S
C782 C783 1.362 . S
C783 H773 0.930 . S
C783 C776 1.409 . S
C783 C782 1.362 . S
H784 C790 0.930 . S
H785 C793 0.930 . S
H786 C794 0.930 . S
H787 C795 0.930 . S
H788 C798 0.930 . S
H789 C799 0.930 . S
C790 H784 0.930 . S
C790 C791 1.355 . S
C790 C792 1.415 . S
C791 C790 1.355 . S
C791 C793 1.419 . S
C792 C790 1.415 . S
C792 C797 1.425 . S
C792 C799 1.409 . S
C793 H785 0.930 . S
C793 C791 1.419 . S
C793 C794 1.362 . S
C794 H786 0.930 . S
C794 C793 1.362 . S
C794 C797 1.409 . S
C795 H787 0.930 . S
C795 C796 1.355 . S
C795 C797 1.415 . S
C796 C795 1.355 . S
C796 C798 1.419 . S
C797 C792 1.425 . S
C797 C794 1.409 . S
C797 C795 1.415 . S
C798 H788 0.930 . S
C798 C796 1.419 . S
C798 C799 1.362 . S
C799 H789 0.930 . S
C799 C792 1.409 . S
C799 C798 1.362 . S
H800 C806 0.930 . S
H801 C809 0.930 . S
H802 C810 0.930 . S
H803 C811 0.930 . S
H804 C814 0.930 . S
H805 C815 0.930 . S
C806 H800 0.930 . S
C806 C807 1.355 . S
C806 C808 1.415 . S
C807 C806 1.355 . S
C807 C809 1.419 . S
C808 C806 1.415 . S
C808 C813 1.425 . S
C808 C815 1.409 . S
C809 H801 0.930 . S
C809 C807 1.419 . S
C809 C810 1.362 . S
C810 H802 0.930 . S
C810 C809 1.362 . S
C810 C813 1.409 . S
C811 H803 0.930 . S
C811 C812 1.355 . S
C811 C813 1.415 . S
C812 C811 1.355 . S
C812 C814 1.419 . S
C813 C808 1.425 . S
C813 C810 1.409 . S
C813 C811 1.415 . S
C814 H804 0.930 . S
C814 C812 1.419 . S
C814 C815 1.362 . S
C815 H805 0.930 . S
C815 C808 1.409 . S
C815 C814 1.362 . S
H816 C822 0.930 . S
H817 C825 0.930 . S
H818 C826 0.930 . S
H819 C827 0.930 . S
H820 C830 0.930 . S
H821 C831 0.930 . S
C822 H816 0.930 . S
C822 C823 1.355 . S
C822 C824 1.415 . S
C823 C822 1.355 . S
C823 C825 1.419 . S
C824 C822 1.415 . S
C824 C829 1.425 . S
C824 C831 1.409 . S
C825 H817 0.930 . S
C825 C823 1.419 . S
C825 C826 1.362 . S
C826 H818 0.930 . S
C826 C825 1.362 . S
C826 C829 1.409 . S
C827 H819 0.930 . S
C827 C828 1.355 . S
C827 C829 1.415 . S
C828 C827 1.355 . S
C828 C830 1.419 . S
C829 C824 1.425 . S
C829 C826 1.409 . S
C829 C827 1.415 . S
C830 H820 0.930 . S
C830 C828 1.419 . S
C830 C831 1.362 . S
C831 H821 0.930 . S
C831 C824 1.409 . S
C831 C830 1.362 . S
H832 C838 0.930 . S
H833 C841 0.930 . S
H834 C842 0.930 . S
H835 C843 0.930 . S
H836 C846 0.930 . S
H837 C847 0.930 . S
C838 H832 0.930 . S
C838 C839 1.355 . S
C838 C840 1.415 . S
C839 C838 1.355 . S
C839 C841 1.419 . S
C840 C838 1.415 . S
C840 C845 1.425 . S
C840 C847 1.409 . S
C841 H833 0.930 . S
C841 C839 1.419 . S
C841 C842 1.362 . S
C842 H834 0.930 . S
C842 C841 1.362 . S
C842 C845 1.409 . S
C843 H835 0.930 . S
C843 C844 1.355 . S
C843 C845 1.415 . S
C844 C843 1.355 . S
C844 C846 1.419 . S
C845 C840 1.425 . S
C845 C842 1.409 . S
C845 C843 1.415 . S
C846 H836 0.930 . S
C846 C844 1.419 . S
C846 C847 1.362 . S
C847 H837 0.930 . S
C847 C840 1.409 . S
C847 C846 1.362 . S
H848 C854 0.930 . S
H849 C857 0.930 . S
H850 C858 0.930 . S
H851 C859 0.930 . S
H852 C862 0.930 . S
H853 C863 0.930 . S
C854 H848 0.930 . S
C854 C855 1.355 . S
C854 C856 1.415 . S
C855 C854 1.355 . S
C855 C857 1.419 . S
C856 C854 1.415 . S
C856 C861 1.425 . S
C856 C863 1.409 . S
C857 H849 0.930 . S
C857 C855 1.419 . S
C857 C858 1.362 . S
C858 H850 0.930 . S
C858 C857 1.362 . S
C858 C861 1.409 . S
C859 H851 0.930 . S
C859 C860 1.355 . S
C859 C861 1.415 . S
C860 C859 1.355 . S
C860 C862 1.419 . S
C861 C856 1.425 . S
C861 C858 1.409 . S
C861 C859 1.415 . S
C862 H852 0.930 . S
C862 C860 1.419 . S
C862 C863 1.362 . S
C863 H853 0.930 . S
C863 C856 1.409 . S
C863 C862 1.362 . S
H864 C870 0.930 . S
H865 C873 0.930 . S
H866 C874 0.930 . S
H867 C875 0.930 . S
H868 C878 0.930 . S
H869 C879 0.930 . S
C870 H864 0.930 . S
C870 C871 1.355 . S
C870 C872 1.415 . S
C871 C870 1.355 . S
C871 C873 1.419 . S
C872 C870 1.415 . S
C872 C877 1.425 . S
C872 C879 1.409 . S
C873 H865 0.930 . S
C873 C871 1.419 . S
C873 C874 1.362 . S
C874 H866 0.930 . S
C874 C873 1.362 . S
C874 C877 1.409 . S
C875 H867 0.930 . S
C875 C876 1.355 . S
C875 C877 1.415 . S
C876 C875 1.355 . S
C876 C878 1.419 . S
C877 C872 1.425 . S
C877 C874 1.409 . S
C877 C875 1.415 . S
C878 H868 0.930 . S
C878 C876 1.419 . S
C878 C879 1.362 . S
C879 H869 0.930 . S
C879 C872 1.409 . S
C879 C878 1.362 . S
H880 C886 0.930 . S
H881 C889 0.930 . S
H882 C890 0.930 . S
H883 C891 0.930 . S
H884 C894 0.930 . S
H885 C895 0.930 . S
C886 H880 0.930 . S
C886 C887 1.355 . S
C886 C888 1.415 . S
C887 C886 1.355 . S
C887 C889 1.419 . S
C888 C886 1.415 . S
C888 C893 1.425 . S
C888 C895 1.409 . S
C889 H881 0.930 . S
C889 C887 1.419 . S
C889 C890 1.362 . S
C890 H882 0.930 . S
C890 C889 1.362 . S
C890 C893 1.409 . S
C891 H883 0.930 . S
C891 C892 1.355 . S
C891 C893 1.415 . S
C892 C891 1.355 . S
C892 C894 1.419 . S
C893 C888 1.425 . S
C893 C890 1.409 . S
C893 C891 1.415 . S
C894 H884 0.930 . S
C894 C892 1.419 . S
C894 C895 1.362 . S
C895 H885 0.930 . S
C895 C888 1.409 . S
C895 C894 1.362 . S
H896 C902 0.930 . S
H897 C905 0.930 . S
H898 C906 0.930 . S
H899 C907 0.930 . S
H900 C910 0.930 . S
H901 C911 0.930 . S
C902 H896 0.930 . S
C902 C903 1.355 . S
C902 C904 1.415 . S
C903 C902 1.355 . S
C903 C905 1.419 . S
C904 C902 1.415 . S
C904 C909 1.425 . S
C904 C911 1.409 . S
C905 H897 0.930 . S
C905 C903 1.419 . S
C905 C906 1.362 . S
C906 H898 0.930 . S
C906 C905 1.362 . S
C906 C909 1.409 . S
C907 H899 0.930 . S
C907 C908 1.355 . S
C907 C909 1.415 . S
C908 C907 1.355 . S
C908 C910 1.419 . S
C909 C904 1.425 . S
C909 C906 1.409 . S
C909 C907 1.415 . S
C910 H900 0.930 . S
C910 C908 1.419 . S
C910 C911 1.362 . S
C911 H901 0.930 . S
C911 C904 1.409 . S
C911 C910 1.362 . S
H912 C918 0.930 . S
H913 C921 0.930 . S
H914 C922 0.930 . S
H915 C923 0.930 . S
H916 C926 0.930 . S
H917 C927 0.930 . S
C918 H912 0.930 . S
C918 C919 1.355 . S
C918 C920 1.415 . S
C919 C918 1.355 . S
C919 C921 1.419 . S
C920 C918 1.415 . S
C920 C925 1.425 . S
C920 C927 1.409 . S
C921 H913 0.930 . S
C921 C919 1.419 . S
C921 C922 1.362 . S
C922 H914 0.930 . S
C922 C921 1.362 . S
C922 C925 1.409 . S
C923 H915 0.930 . S
C923 C924 1.355 . S
C923 C925 1.415 . S
C924 C923 1.355 . S
C924 C926 1.419 . S
C925 C920 1.425 . S
C925 C922 1.409 . S
C925 C923 1.415 . S
C926 H916 0.930 . S
C926 C924 1.419 . S
C926 C927 1.362 . S
C927 H917 0.930 . S
C927 C920 1.409 . S
C927 C926 1.362 . S
H928 C934 0.930 . S
H929 C937 0.930 . S
H930 C938 0.930 . S
H931 C939 0.930 . S
H932 C942 0.930 . S
H933 C943 0.930 . S
C934 H928 0.930 . S
C934 C935 1.355 . S
C934 C936 1.415 . S
C935 C934 1.355 . S
C935 C937 1.419 . S
C936 C934 1.415 . S
C936 C941 1.425 . S
C936 C943 1.409 . S
C937 H929 0.930 . S
C937 C935 1.419 . S
C937 C938 1.362 . S
C938 H930 0.930 . S
C938 C937 1.362 . S
C938 C941 1.409 . S
C939 H931 0.930 . S
C939 C940 1.355 . S
C939 C941 1.415 . S
C940 C939 1.355 . S
C940 C942 1.419 . S
C941 C936 1.425 . S
C941 C938 1.409 . S
C941 C939 1.415 . S
C942 H932 0.930 . S
C942 C940 1.419 . S
C942 C943 1.362 . S
C943 H933 0.930 . S
C943 C936 1.409 . S
C943 C942 1.362 . S
H944 C950 0.930 . S
H945 C953 0.930 . S
H946 C954 0.930 . S
H947 C955 0.930 . S
H948 C958 0.930 . S
H949 C959 0.930 . S
C950 H944 0.930 . S
C950 C951 1.355 . S
C950 C952 1.415 . S
C951 C950 1.355 . S
C951 C953 1.419 . S
C952 C950 1.415 . S
C952 C957 1.425 . S
C952 C959 1.409 . S
C953 H945 0.930 . S
C953 C951 1.419 . S
C953 C954 1.362 . S
C954 H946 0.930 . S
C954 C953 1.362 . S
C954 C957 1.409 . S
C955 H947 0.930 . S
C955 C956 1.355 . S
C955 C957 1.415 . S
C956 C955 1.355 . S
C956 C958 1.419 . S
C957 C952 1.425 . S
C957 C954 1.409 . S
C957 C955 1.415 . S
C958 H948 0.930 . S
C958 C956 1.419 . S
C958 C959 1.362 . S
C959 H949 0.930 . S
C959 C952 1.409 . S
C959 C958 1.362 . S
H960 C966 0.930 . S
H961 C969 0.930 . S
H962 C970 0.930 . S
H963 C971 0.930 . S
H964 C974 0.930 . S
H965 C975 0.930 . S
C966 H960 0.930 . S
C966 C967 1.355 . S
C966 C968 1.415 . S
C967 C966 1.355 . S
C967 C969 1.419 . S
C968 C966 1.415 . S
C968 C973 1.425 . S
C968 C975 1.409 . S
C969 H961 0.930 . S
C969 C967 1.419 . S
C969 C970 1.362 . S
C970 H962 0.930 . S
C970 C969 1.362 . S
C970 C973 1.409 . S
C971 H963 0.930 . S
C971 C972 1.355 . S
C971 C973 1.415 . S
C972 C971 1.355 . S
C972 C974 1.419 . S
C973 C968 1.425 . S
C973 C970 1.409 . S
C973 C971 1.415 . S
C974 H964 0.930 . S
C974 C972 1.419 . S
C974 C975 1.362 . S
C975 H965 0.930 . S
C975 C968 1.409 . S
C975 C974 1.362 . S
H976 C982 0.930 . S
H977 C985 0.930 . S
H978 C986 0.930 . S
H979 C987 0.930 . S
H980 C990 0.930 . S
H981 C991 0.930 . S
C982 H976 0.930 . S
C982 C983 1.355 . S
C982 C984 1.415 . S
C983 C982 1.355 . S
C983 C985 1.419 . S
C984 C982 1.415 . S
C984 C989 1.425 . S
C984 C991 1.409 . S
C985 H977 0.930 . S
C985 C983 1.419 . S
C985 C986 1.362 . S
C986 H978 0.930 . S
C986 C985 1.362 . S
C986 C989 1.409 . S
C987 H979 0.930 . S
C987 C988 1.355 . S
C987 C989 1.415 . S
C988 C987 1.355 . S
C988 C990 1.419 . S
C989 C984 1.425 . S
C989 C986 1.409 . S
C989 C987 1.415 . S
C990 H980 0.930 . S
C990 C988 1.419 . S
C990 C991 1.362 . S
C991 H981 0.930 . S
C991 C984 1.409 . S
C991 C990 1.362 . S
H992 C998 0.930 . S
H993 C1001 0.930 . S
H994 C1002 0.930 . S
H995 C1003 0.930 . S
H996 C1006 0.930 . S
H997 C1007 0.930 . S
C998 H992 0.930 . S
C998 C999 1.355 . S
C998 C1000 1.415 1_655 S
C999 C998 1.355 . S
C999 C1001 1.419 . S
C1000 C998 1.415 1_455 S
C1000 C1005 1.425 1_455 S
C1000 C1007 1.409 . S
C1001 H993 0.930 . S
C1001 C999 1.419 . S
C1001 C1002 1.362 . S
C1002 H994 0.930 . S
C1002 C1001 1.362 . S
C1002 C1005 1.409 . S
C1003 H995 0.930 . S
C1003 C1004 1.355 . S
C1003 C1005 1.415 1_455 S
C1004 C1003 1.355 . S
C1004 C1006 1.419 . S
C1005 C1000 1.425 1_655 S
C1005 C1002 1.409 . S
C1005 C1003 1.415 1_655 S
C1006 H996 0.930 . S
C1006 C1004 1.419 . S
C1006 C1007 1.362 . S
C1007 H997 0.930 . S
C1007 C1000 1.409 . S
C1007 C1006 1.362 . S
H1008 C1014 0.913 1_545 S
H1009 C1017 0.930 . S
H1010 C1018 0.930 . S
H1011 C1019 0.913 1_565 S
H1012 C1022 0.930 . S
H1013 C1023 0.930 . S
C1014 H1008 0.913 1_565 S
C1014 C1015 1.355 . S
C1014 C1016 1.415 1_565 S
C1015 C1014 1.355 . S
C1015 C1017 1.419 . S
C1016 C1014 1.415 1_545 S
C1016 C1021 1.425 1_545 S
C1016 C1023 1.409 . S
C1017 H1009 0.930 . S
C1017 C1015 1.419 . S
C1017 C1018 1.362 . S
C1018 H1010 0.930 . S
C1018 C1017 1.362 . S
C1018 C1021 1.409 . S
C1019 H1011 0.913 1_545 S
C1019 C1020 1.355 . S
C1019 C1021 1.415 1_545 S
C1020 C1019 1.355 . S
C1020 C1022 1.419 . S
C1021 C1016 1.425 1_565 S
C1021 C1018 1.409 . S
C1021 C1019 1.415 1_565 S
C1022 H1012 0.930 . S
C1022 C1020 1.419 . S
C1022 C1023 1.362 . S
C1023 H1013 0.930 . S
C1023 C1016 1.409 . S
C1023 C1022 1.362 . S
H1024 C1030 0.905 1_545 S
H1025 C1033 0.930 . S
H1026 C1034 0.930 . S
H1027 C1035 0.905 1_565 S
H1028 C1038 0.930 . S
H1029 C1039 0.930 . S
C1030 H1024 0.905 1_565 S
C1030 C1031 1.355 1_554 S
C1030 C1032 1.415 1_565 S
C1031 C1030 1.355 1_556 S
C1031 C1033 1.419 . S
C1032 C1030 1.415 1_545 S
C1032 C1037 1.425 1_444 S
C1032 C1039 1.409 . S
C1033 H1025 0.930 . S
C1033 C1031 1.419 . S
C1033 C1034 1.362 1_455 S
C1034 H1026 0.930 . S
C1034 C1033 1.362 1_655 S
C1034 C1037 1.409 . S
C1035 H1027 0.905 1_545 S
C1035 C1036 1.355 1_556 S
C1035 C1037 1.415 1_545 S
C1036 C1035 1.355 1_554 S
C1036 C1038 1.419 . S
C1037 C1032 1.425 1_666 S
C1037 C1034 1.409 . S
C1037 C1035 1.415 1_565 S
C1038 H1028 0.930 . S
C1038 C1036 1.419 . S
C1038 C1039 1.362 1_655 S
C1039 H1029 0.930 . S
C1039 C1032 1.409 . S
C1039 C1038 1.362 1_455 S
H1040 C1046 0.930 . S
H1041 C1049 0.930 . S
H1042 C1050 0.930 . S
H1043 C1051 0.930 . S
H1044 C1054 0.930 . S
H1045 C1055 0.930 . S
C1046 H1040 0.930 . S
C1046 C1047 1.357 1_554 S
C1046 C1048 1.415 . S
C1047 C1046 1.357 1_556 S
C1047 C1049 1.416 . S
C1048 C1046 1.415 . S
C1048 C1053 1.425 1_554 S
C1048 C1055 1.409 . S
C1049 H1041 0.930 . S
C1049 C1047 1.416 . S
C1049 C1050 1.362 . S
C1050 H1042 0.930 . S
C1050 C1049 1.362 . S
C1050 C1053 1.409 . S
C1051 H1043 0.930 . S
C1051 C1052 1.357 1_556 S
C1051 C1053 1.415 . S
C1052 C1051 1.357 1_554 S
C1052 C1054 1.416 . S
C1053 C1048 1.425 1_556 S
C1053 C1050 1.409 . S
C1053 C1051 1.415 . S
C1054 H1044 0.930 . S
C1054 C1052 1.416 . S
C1054 C1055 1.362 . S
C1055 H1045 0.930 . S
C1055 C1048 1.409 . S
C1055 C1054 1.362 . S
H1056 C1062 0.930 . S
H1057 C1065 0.930 . S
H1058 C1066 0.930 . S
H1059 C1067 0.930 . S
H1060 C1070 0.930 . S
H1061 C1071 0.930 . S
C1062 H1056 0.930 . S
C1062 C1063 1.355 . S
C1062 C1064 1.425 . S
C1063 C1062 1.355 . S
C1063 C1065 1.419 . S
C1064 C1062 1.425 . S
C1064 C1069 1.425 1_655 S
C1064 C1071 1.399 1_655 S
C1065 H1057 0.930 . S
C1065 C1063 1.419 . S
C1065 C1066 1.362 . S
C1066 H1058 0.930 . S
C1066 C1065 1.362 . S
C1066 C1069 1.399 1_655 S
C1067 H1059 0.930 . S
C1067 C1068 1.355 . S
C1067 C1069 1.425 . S
C1068 C1067 1.355 . S
C1068 C1070 1.419 . S
C1069 C1064 1.425 1_455 S
C1069 C1066 1.399 1_455 S
C1069 C1067 1.425 . S
C1070 H1060 0.930 . S
C1070 C1068 1.419 . S
C1070 C1071 1.362 . S
C1071 H1061 0.930 . S
C1071 C1064 1.399 1_455 S
C1071 C1070 1.362 . S
H1072 C1078 0.930 . S
H1073 C1081 0.930 . S
H1074 C1082 0.930 . S
H1075 C1083 0.930 . S
H1076 C1086 0.930 . S
H1077 C1087 0.930 . S
C1078 H1072 0.930 . S
C1078 C1079 1.355 . S
C1078 C1080 1.415 . S
C1079 C1078 1.355 . S
C1079 C1081 1.419 . S
C1080 C1078 1.415 . S
C1080 C1085 1.425 1_565 S
C1080 C1087 1.409 . S
C1081 H1073 0.930 . S
C1081 C1079 1.419 . S
C1081 C1082 1.362 1_565 S
C1082 H1074 0.930 . S
C1082 C1081 1.362 1_545 S
C1082 C1085 1.409 . S
C1083 H1075 0.930 . S
C1083 C1084 1.355 . S
C1083 C1085 1.415 . S
C1084 C1083 1.355 . S
C1084 C1086 1.419 . S
C1085 C1080 1.425 1_545 S
C1085 C1082 1.409 . S
C1085 C1083 1.415 . S
C1086 H1076 0.930 . S
C1086 C1084 1.419 . S
C1086 C1087 1.362 1_545 S
C1087 H1077 0.930 . S
C1087 C1080 1.409 . S
C1087 C1086 1.362 1_565 S
H1088 C1094 0.930 . S
H1089 C1097 0.930 . S
H1090 C1098 0.930 . S
H1091 C1099 0.930 . S
H1092 C1102 0.930 . S
H1093 C1103 0.930 . S
C1094 H1088 0.930 . S
C1094 C1095 1.336 1_556 S
C1094 C1096 1.415 . S
C1095 C1094 1.336 1_554 S
C1095 C1097 1.444 . S
C1096 C1094 1.415 . S
C1096 C1101 1.425 1_556 S
C1096 C1103 1.409 . S
C1097 H1089 0.930 . S
C1097 C1095 1.444 . S
C1097 C1098 1.362 . S
C1098 H1090 0.930 . S
C1098 C1097 1.362 . S
C1098 C1101 1.409 . S
C1099 H1091 0.930 . S
C1099 C1100 1.336 1_554 S
C1099 C1101 1.415 . S
C1100 C1099 1.336 1_556 S
C1100 C1102 1.444 . S
C1101 C1096 1.425 1_554 S
C1101 C1098 1.409 . S
C1101 C1099 1.415 . S
C1102 H1092 0.930 . S
C1102 C1100 1.444 . S
C1102 C1103 1.362 . S
C1103 H1093 0.930 . S
C1103 C1096 1.409 . S
C1103 C1102 1.362 . S
H1104 C1110 0.930 . S
H1105 C1113 0.930 . S
H1106 C1114 0.930 . S
H1107 C1115 0.930 . S
H1108 C1118 0.930 . S
H1109 C1119 0.930 . S
C1110 H1104 0.930 . S
C1110 C1111 1.355 . S
C1110 C1112 1.415 . S
C1111 C1110 1.355 . S
C1111 C1113 1.419 . S
C1112 C1110 1.415 . S
C1112 C1117 1.425 . S
C1112 C1119 1.409 . S
C1113 H1105 0.930 . S
C1113 C1111 1.419 . S
C1113 C1114 1.362 . S
C1114 H1106 0.930 . S
C1114 C1113 1.362 . S
C1114 C1117 1.409 . S
C1115 H1107 0.930 . S
C1115 C1116 1.355 . S
C1115 C1117 1.415 . S
C1116 C1115 1.355 . S
C1116 C1118 1.419 . S
C1117 C1112 1.425 . S
C1117 C1114 1.409 . S
C1117 C1115 1.415 . S
C1118 H1108 0.930 . S
C1118 C1116 1.419 . S
C1118 C1119 1.362 . S
C1119 H1109 0.930 . S
C1119 C1112 1.409 . S
C1119 C1118 1.362 . S
H1120 C1126 0.930 . S
H1121 C1129 0.930 . S
H1122 C1130 0.930 . S
H1123 C1131 0.930 . S
H1124 C1134 0.930 . S
H1125 C1135 0.930 . S
C1126 H1120 0.930 . S
C1126 C1127 1.355 . S
C1126 C1128 1.415 . S
C1127 C1126 1.355 . S
C1127 C1129 1.419 . S
C1128 C1126 1.415 . S
C1128 C1133 1.425 1_655 S
C1128 C1135 1.409 . S
C1129 H1121 0.930 . S
C1129 C1127 1.419 . S
C1129 C1130 1.362 1_655 S
C1130 H1122 0.930 . S
C1130 C1129 1.362 1_455 S
C1130 C1133 1.409 . S
C1131 H1123 0.930 . S
C1131 C1132 1.355 . S
C1131 C1133 1.415 . S
C1132 C1131 1.355 . S
C1132 C1134 1.419 . S
C1133 C1128 1.425 1_455 S
C1133 C1130 1.409 . S
C1133 C1131 1.415 . S
C1134 H1124 0.930 . S
C1134 C1132 1.419 . S
C1134 C1135 1.362 1_455 S
C1135 H1125 0.930 . S
C1135 C1128 1.409 . S
C1135 C1134 1.362 1_655 S
H1136 C1142 0.930 . S
H1137 C1145 0.930 . S
H1138 C1146 0.930 . S
H1139 C1147 0.930 . S
H1140 C1150 0.930 . S
H1141 C1151 0.930 . S
C1142 H1136 0.930 . S
C1142 C1143 1.355 . S
C1142 C1144 1.415 . S
C1143 C1142 1.355 . S
C1143 C1145 1.419 . S
C1144 C1142 1.415 . S
C1144 C1149 1.425 . S
C1144 C1151 1.409 . S
C1145 H1137 0.930 . S
C1145 C1143 1.419 . S
C1145 C1146 1.362 . S
C1146 H1138 0.930 . S
C1146 C1145 1.362 . S
C1146 C1149 1.409 . S
C1147 H1139 0.930 . S
C1147 C1148 1.355 . S
C1147 C1149 1.415 . S
C1148 C1147 1.355 . S
C1148 C1150 1.419 . S
C1149 C1144 1.425 . S
C1149 C1146 1.409 . S
C1149 C1147 1.415 . S
C1150 H1140 0.930 . S
C1150 C1148 1.419 . S
C1150 C1151 1.362 . S
C1151 H1141 0.930 . S
C1151 C1144 1.409 . S
C1151 C1150 1.362 . S
H1152 C1158 0.930 . S
H1153 C1161 0.930 . S
H1154 C1162 0.930 . S
H1155 C1163 0.930 . S
H1156 C1166 0.930 . S
H1157 C1167 0.930 . S
C1158 H1152 0.930 . S
C1158 C1159 1.355 . S
C1158 C1160 1.415 . S
C1159 C1158 1.355 . S
C1159 C1161 1.419 . S
C1160 C1158 1.415 . S
C1160 C1165 1.425 . S
C1160 C1167 1.409 . S
C1161 H1153 0.930 . S
C1161 C1159 1.419 . S
C1161 C1162 1.362 . S
C1162 H1154 0.930 . S
C1162 C1161 1.362 . S
C1162 C1165 1.409 . S
C1163 H1155 0.930 . S
C1163 C1164 1.355 . S
C1163 C1165 1.415 . S
C1164 C1163 1.355 . S
C1164 C1166 1.419 . S
C1165 C1160 1.425 . S
C1165 C1162 1.409 . S
C1165 C1163 1.415 . S
C1166 H1156 0.930 . S
C1166 C1164 1.419 . S
C1166 C1167 1.362 . S
C1167 H1157 0.930 . S
C1167 C1160 1.409 . S
C1167 C1166 1.362 . S
H1168 C1174 0.930 . S
H1169 C1177 0.930 . S
H1170 C1178 0.930 . S
H1171 C1179 0.930 . S
H1172 C1182 0.930 . S
H1173 C1183 0.930 . S
C1174 H1168 0.930 . S
C1174 C1175 1.355 . S
C1174 C1176 1.415 . S
C1175 C1174 1.355 . S
C1175 C1177 1.419 . S
C1176 C1174 1.415 . S
C1176 C1181 1.425 . S
C1176 C1183 1.409 . S
C1177 H1169 0.930 . S
C1177 C1175 1.419 . S
C1177 C1178 1.362 . S
C1178 H1170 0.930 . S
C1178 C1177 1.362 . S
C1178 C1181 1.409 . S
C1179 H1171 0.930 . S
C1179 C1180 1.355 . S
C1179 C1181 1.415 . S
C1180 C1179 1.355 . S
C1180 C1182 1.419 . S
C1181 C1176 1.425 . S
C1181 C1178 1.409 . S
C1181 C1179 1.415 . S
C1182 H1172 0.930 . S
C1182 C1180 1.419 . S
C1182 C1183 1.362 . S
C1183 H1173 0.930 . S
C1183 C1176 1.409 . S
C1183 C1182 1.362 . S
H1184 C1190 0.930 . S
H1185 C1193 0.930 . S
H1186 C1194 0.930 . S
H1187 C1195 0.930 . S
H1188 C1198 0.930 . S
H1189 C1199 0.930 . S
C1190 H1184 0.930 . S
C1190 C1191 1.355 . S
C1190 C1192 1.415 . S
C1191 C1190 1.355 . S
C1191 C1193 1.419 . S
C1192 C1190 1.415 . S
C1192 C1197 1.425 . S
C1192 C1199 1.409 . S
C1193 H1185 0.930 . S
C1193 C1191 1.419 . S
C1193 C1194 1.362 . S
C1194 H1186 0.930 . S
C1194 C1193 1.362 . S
C1194 C1197 1.409 . S
C1195 H1187 0.930 . S
C1195 C1196 1.355 . S
C1195 C1197 1.415 . S
C1196 C1195 1.355 . S
C1196 C1198 1.419 . S
C1197 C1192 1.425 . S
C1197 C1194 1.409 . S
C1197 C1195 1.415 . S
C1198 H1188 0.930 . S
C1198 C1196 1.419 . S
C1198 C1199 1.362 . S
C1199 H1189 0.930 . S
C1199 C1192 1.409 . S
C1199 C1198 1.362 . S
H1200 C1206 0.930 1_565 S
H1201 C1209 0.930 . S
H1202 C1210 0.930 . S
H1203 C1211 0.930 1_545 S
H1204 C1214 0.930 . S
H1205 C1215 0.930 . S
C1206 H1200 0.930 1_545 S
C1206 C1207 1.355 . S
C1206 C1208 1.415 1_545 S
C1207 C1206 1.355 . S
C1207 C1209 1.419 . S
C1208 C1206 1.415 1_565 S
C1208 C1213 1.425 1_565 S
C1208 C1215 1.409 . S
C1209 H1201 0.930 . S
C1209 C1207 1.419 . S
C1209 C1210 1.362 . S
C1210 H1202 0.930 . S
C1210 C1209 1.362 . S
C1210 C1213 1.409 . S
C1211 H1203 0.930 1_565 S
C1211 C1212 1.355 . S
C1211 C1213 1.415 1_565 S
C1212 C1211 1.355 . S
C1212 C1214 1.419 . S
C1213 C1208 1.425 1_545 S
C1213 C1210 1.409 . S
C1213 C1211 1.415 1_545 S
C1214 H1204 0.930 . S
C1214 C1212 1.419 . S
C1214 C1215 1.362 . S
C1215 H1205 0.930 . S
C1215 C1208 1.409 . S
C1215 C1214 1.362 . S
H1216 C1222 0.930 . S
H1217 C1225 0.930 . S
H1218 C1226 0.930 . S
H1219 C1227 0.930 . S
H1220 C1230 0.930 . S
H1221 C1231 0.930 . S
C1222 H1216 0.930 . S
C1222 C1223 1.355 . S
C1222 C1224 1.415 . S
C1223 C1222 1.355 . S
C1223 C1225 1.419 . S
C1224 C1222 1.415 . S
C1224 C1229 1.425 . S
C1224 C1231 1.409 . S
C1225 H1217 0.930 . S
C1225 C1223 1.419 . S
C1225 C1226 1.362 . S
C1226 H1218 0.930 . S
C1226 C1225 1.362 . S
C1226 C1229 1.409 . S
C1227 H1219 0.930 . S
C1227 C1228 1.355 . S
C1227 C1229 1.415 . S
C1228 C1227 1.355 . S
C1228 C1230 1.419 . S
C1229 C1224 1.425 . S
C1229 C1226 1.409 . S
C1229 C1227 1.415 . S
C1230 H1220 0.930 . S
C1230 C1228 1.419 . S
C1230 C1231 1.362 . S
C1231 H1221 0.930 . S
C1231 C1224 1.409 . S
C1231 C1230 1.362 . S
H1232 C1238 0.930 . S
H1233 C1241 0.930 . S
H1234 C1242 0.930 . S
H1235 C1243 0.930 . S
H1236 C1246 0.930 . S
H1237 C1247 0.930 . S
C1238 H1232 0.930 . S
C1238 C1239 1.345 1_556 S
C1238 C1240 1.415 . S
C1239 C1238 1.345 1_554 S
C1239 C1241 1.432 . S
C1240 C1238 1.415 . S
C1240 C1245 1.425 1_556 S
C1240 C1247 1.409 . S
C1241 H1233 0.930 . S
C1241 C1239 1.432 . S
C1241 C1242 1.362 . S
C1242 H1234 0.930 . S
C1242 C1241 1.362 . S
C1242 C1245 1.409 . S
C1243 H1235 0.930 . S
C1243 C1244 1.345 1_554 S
C1243 C1245 1.415 . S
C1244 C1243 1.345 1_556 S
C1244 C1246 1.432 . S
C1245 C1240 1.425 1_554 S
C1245 C1242 1.409 . S
C1245 C1243 1.415 . S
C1246 H1236 0.930 . S
C1246 C1244 1.432 . S
C1246 C1247 1.362 . S
C1247 H1237 0.930 . S
C1247 C1240 1.409 . S
C1247 C1246 1.362 . S
H1248 C1254 0.930 . S
H1249 C1257 0.930 . S
H1250 C1258 0.930 . S
H1251 C1259 0.930 . S
H1252 C1262 0.930 . S
H1253 C1263 0.930 . S
C1254 H1248 0.930 . S
C1254 C1255 1.355 . S
C1254 C1256 1.415 . S
C1255 C1254 1.355 . S
C1255 C1257 1.419 . S
C1256 C1254 1.415 . S
C1256 C1261 1.425 . S
C1256 C1263 1.409 . S
C1257 H1249 0.930 . S
C1257 C1255 1.419 . S
C1257 C1258 1.362 . S
C1258 H1250 0.930 . S
C1258 C1257 1.362 . S
C1258 C1261 1.409 . S
C1259 H1251 0.930 . S
C1259 C1260 1.355 . S
C1259 C1261 1.415 . S
C1260 C1259 1.355 . S
C1260 C1262 1.419 . S
C1261 C1256 1.425 . S
C1261 C1258 1.409 . S
C1261 C1259 1.415 . S
C1262 H1252 0.930 . S
C1262 C1260 1.419 . S
C1262 C1263 1.362 . S
C1263 H1253 0.930 . S
C1263 C1256 1.409 . S
C1263 C1262 1.362 . S
H1264 C1270 0.930 . S
H1265 C1273 0.930 . S
H1266 C1274 0.930 . S
H1267 C1275 0.930 . S
H1268 C1278 0.930 . S
H1269 C1279 0.930 . S
C1270 H1264 0.930 . S
C1270 C1271 1.355 . S
C1270 C1272 1.415 . S
C1271 C1270 1.355 . S
C1271 C1273 1.419 . S
C1272 C1270 1.415 . S
C1272 C1277 1.425 . S
C1272 C1279 1.409 . S
C1273 H1265 0.930 . S
C1273 C1271 1.419 . S
C1273 C1274 1.362 . S
C1274 H1266 0.930 . S
C1274 C1273 1.362 . S
C1274 C1277 1.409 . S
C1275 H1267 0.930 . S
C1275 C1276 1.355 . S
C1275 C1277 1.415 . S
C1276 C1275 1.355 . S
C1276 C1278 1.419 . S
C1277 C1272 1.425 . S
C1277 C1274 1.409 . S
C1277 C1275 1.415 . S
C1278 H1268 0.930 . S
C1278 C1276 1.419 . S
C1278 C1279 1.362 . S
C1279 H1269 0.930 . S
C1279 C1272 1.409 . S
C1279 C1278 1.362 . S
H1280 C1286 0.930 . S
H1281 C1289 0.930 . S
H1282 C1290 0.930 . S
H1283 C1291 0.930 . S
H1284 C1294 0.930 . S
H1285 C1295 0.930 . S
C1286 H1280 0.930 . S
C1286 C1287 1.355 . S
C1286 C1288 1.415 . S
C1287 C1286 1.355 . S
C1287 C1289 1.419 . S
C1288 C1286 1.415 . S
C1288 C1293 1.425 . S
C1288 C1295 1.409 . S
C1289 H1281 0.930 . S
C1289 C1287 1.419 . S
C1289 C1290 1.362 . S
C1290 H1282 0.930 . S
C1290 C1289 1.362 . S
C1290 C1293 1.409 . S
C1291 H1283 0.930 . S
C1291 C1292 1.355 . S
C1291 C1293 1.415 . S
C1292 C1291 1.355 . S
C1292 C1294 1.419 . S
C1293 C1288 1.425 . S
C1293 C1290 1.409 . S
C1293 C1291 1.415 . S
C1294 H1284 0.930 . S
C1294 C1292 1.419 . S
C1294 C1295 1.362 . S
C1295 H1285 0.930 . S
C1295 C1288 1.409 . S
C1295 C1294 1.362 . S
H1296 C1302 0.930 . S
H1297 C1305 0.930 . S
H1298 C1306 0.930 . S
H1299 C1307 0.930 . S
H1300 C1310 0.930 . S
H1301 C1311 0.930 . S
C1302 H1296 0.930 . S
C1302 C1303 1.355 . S
C1302 C1304 1.415 . S
C1303 C1302 1.355 . S
C1303 C1305 1.419 . S
C1304 C1302 1.415 . S
C1304 C1309 1.425 . S
C1304 C1311 1.409 . S
C1305 H1297 0.930 . S
C1305 C1303 1.419 . S
C1305 C1306 1.362 . S
C1306 H1298 0.930 . S
C1306 C1305 1.362 . S
C1306 C1309 1.409 . S
C1307 H1299 0.930 . S
C1307 C1308 1.355 . S
C1307 C1309 1.415 . S
C1308 C1307 1.355 . S
C1308 C1310 1.419 . S
C1309 C1304 1.425 . S
C1309 C1306 1.409 . S
C1309 C1307 1.415 . S
C1310 H1300 0.930 . S
C1310 C1308 1.419 . S
C1310 C1311 1.362 . S
C1311 H1301 0.930 . S
C1311 C1304 1.409 . S
C1311 C1310 1.362 . S
H1312 C1318 0.930 . S
H1313 C1321 0.930 . S
H1314 C1322 0.930 . S
H1315 C1323 0.930 . S
H1316 C1326 0.930 . S
H1317 C1327 0.930 . S
C1318 H1312 0.930 . S
C1318 C1319 1.355 . S
C1318 C1320 1.415 . S
C1319 C1318 1.355 . S
C1319 C1321 1.419 . S
C1320 C1318 1.415 . S
C1320 C1325 1.425 . S
C1320 C1327 1.409 . S
C1321 H1313 0.930 . S
C1321 C1319 1.419 . S
C1321 C1322 1.362 . S
C1322 H1314 0.930 . S
C1322 C1321 1.362 . S
C1322 C1325 1.409 . S
C1323 H1315 0.930 . S
C1323 C1324 1.355 . S
C1323 C1325 1.415 . S
C1324 C1323 1.355 . S
C1324 C1326 1.419 . S
C1325 C1320 1.425 . S
C1325 C1322 1.409 . S
C1325 C1323 1.415 . S
C1326 H1316 0.930 . S
C1326 C1324 1.419 . S
C1326 C1327 1.362 . S
C1327 H1317 0.930 . S
C1327 C1320 1.409 . S
C1327 C1326 1.362 . S
H1328 C1334 0.930 . S
H1329 C1337 0.930 . S
H1330 C1338 0.930 . S
H1331 C1339 0.930 . S
H1332 C1342 0.930 . S
H1333 C1343 0.930 . S
C1334 H1328 0.930 . S
C1334 C1335 1.355 . S
C1334 C1336 1.415 . S
C1335 C1334 1.355 . S
C1335 C1337 1.419 . S
C1336 C1334 1.415 . S
C1336 C1341 1.425 . S
C1336 C1343 1.409 . S
C1337 H1329 0.930 . S
C1337 C1335 1.419 . S
C1337 C1338 1.362 . S
C1338 H1330 0.930 . S
C1338 C1337 1.362 . S
C1338 C1341 1.409 . S
C1339 H1331 0.930 . S
C1339 C1340 1.355 . S
C1339 C1341 1.415 . S
C1340 C1339 1.355 . S
C1340 C1342 1.419 . S
C1341 C1336 1.425 . S
C1341 C1338 1.409 . S
C1341 C1339 1.415 . S
C1342 H1332 0.930 . S
C1342 C1340 1.419 . S
C1342 C1343 1.362 . S
C1343 H1333 0.930 . S
C1343 C1336 1.409 . S
C1343 C1342 1.362 . S
H1344 C1350 0.930 . S
H1345 C1353 0.930 . S
H1346 C1354 0.930 . S
H1347 C1355 0.930 . S
H1348 C1358 0.930 . S
H1349 C1359 0.930 . S
C1350 H1344 0.930 . S
C1350 C1351 1.355 . S
C1350 C1352 1.415 . S
C1351 C1350 1.355 . S
C1351 C1353 1.419 . S
C1352 C1350 1.415 . S
C1352 C1357 1.425 . S
C1352 C1359 1.409 . S
C1353 H1345 0.930 . S
C1353 C1351 1.419 . S
C1353 C1354 1.362 . S
C1354 H1346 0.930 . S
C1354 C1353 1.362 . S
C1354 C1357 1.409 . S
C1355 H1347 0.930 . S
C1355 C1356 1.355 . S
C1355 C1357 1.415 . S
C1356 C1355 1.355 . S
C1356 C1358 1.419 . S
C1357 C1352 1.425 . S
C1357 C1354 1.409 . S
C1357 C1355 1.415 . S
C1358 H1348 0.930 . S
C1358 C1356 1.419 . S
C1358 C1359 1.362 . S
C1359 H1349 0.930 . S
C1359 C1352 1.409 . S
C1359 C1358 1.362 . S
H1360 C1366 0.930 . S
H1361 C1369 0.930 . S
H1362 C1370 0.930 1_455 S
H1363 C1371 0.930 . S
H1364 C1374 0.930 . S
H1365 C1375 0.930 . S
C1366 H1360 0.930 . S
C1366 C1367 1.355 . S
C1366 C1368 1.415 . S
C1367 C1366 1.355 . S
C1367 C1369 1.419 . S
C1368 C1366 1.415 . S
C1368 C1373 1.425 . S
C1368 C1375 1.409 . S
C1369 H1361 0.930 . S
C1369 C1367 1.419 . S
C1369 C1370 1.362 . S
C1370 H1362 0.930 1_655 S
C1370 C1369 1.362 . S
C1370 C1373 1.409 . S
C1371 H1363 0.930 . S
C1371 C1372 1.355 . S
C1371 C1373 1.415 . S
C1372 C1371 1.355 . S
C1372 C1374 1.419 . S
C1373 C1368 1.425 . S
C1373 C1370 1.409 . S
C1373 C1371 1.415 . S
C1374 H1364 0.930 . S
C1374 C1372 1.419 . S
C1374 C1375 1.362 . S
C1375 H1365 0.930 . S
C1375 C1368 1.409 . S
C1375 C1374 1.362 . S
H1376 C1382 0.930 . S
H1377 C1385 0.930 . S
H1378 C1386 0.930 . S
H1379 C1387 0.930 . S
H1380 C1390 0.930 . S
H1381 C1391 0.930 . S
C1382 H1376 0.930 . S
C1382 C1383 1.355 . S
C1382 C1384 1.415 . S
C1383 C1382 1.355 . S
C1383 C1385 1.419 . S
C1384 C1382 1.415 . S
C1384 C1389 1.425 . S
C1384 C1391 1.409 . S
C1385 H1377 0.930 . S
C1385 C1383 1.419 . S
C1385 C1386 1.362 . S
C1386 H1378 0.930 . S
C1386 C1385 1.362 . S
C1386 C1389 1.409 . S
C1387 H1379 0.930 . S
C1387 C1388 1.355 . S
C1387 C1389 1.415 . S
C1388 C1387 1.355 . S
C1388 C1390 1.419 . S
C1389 C1384 1.425 . S
C1389 C1386 1.409 . S
C1389 C1387 1.415 . S
C1390 H1380 0.930 . S
C1390 C1388 1.419 . S
C1390 C1391 1.362 . S
C1391 H1381 0.930 . S
C1391 C1384 1.409 . S
C1391 C1390 1.362 . S
H1392 C1398 0.930 . S
H1393 C1401 0.930 . S
H1394 C1402 0.930 . S
H1395 C1403 0.930 . S
H1396 C1406 0.930 . S
H1397 C1407 0.930 . S
C1398 H1392 0.930 . S
C1398 C1399 1.355 . S
C1398 C1400 1.415 . S
C1399 C1398 1.355 . S
C1399 C1401 1.419 . S
C1400 C1398 1.415 . S
C1400 C1405 1.425 . S
C1400 C1407 1.409 . S
C1401 H1393 0.930 . S
C1401 C1399 1.419 . S
C1401 C1402 1.362 . S
C1402 H1394 0.930 . S
C1402 C1401 1.362 . S
C1402 C1405 1.409 . S
C1403 H1395 0.930 . S
C1403 C1404 1.355 . S
C1403 C1405 1.415 . S
C1404 C1403 1.355 . S
C1404 C1406 1.419 . S
C1405 C1400 1.425 . S
C1405 C1402 1.409 . S
C1405 C1403 1.415 . S
C1406 H1396 0.930 . S
C1406 C1404 1.419 . S
C1406 C1407 1.362 . S
C1407 H1397 0.930 . S
C1407 C1400 1.409 . S
C1407 C1406 1.362 . S
H1408 C1414 0.930 . S
H1409 C1417 0.930 . S
H1410 C1418 0.930 . S
H1411 C1419 0.930 . S
H1412 C1422 0.930 . S
H1413 C1423 0.930 . S
C1414 H1408 0.930 . S
C1414 C1415 1.355 . S
C1414 C1416 1.415 . S
C1415 C1414 1.355 . S
C1415 C1417 1.419 . S
C1416 C1414 1.415 . S
C1416 C1421 1.425 . S
C1416 C1423 1.409 . S
C1417 H1409 0.930 . S
C1417 C1415 1.419 . S
C1417 C1418 1.362 . S
C1418 H1410 0.930 . S
C1418 C1417 1.362 . S
C1418 C1421 1.409 . S
C1419 H1411 0.930 . S
C1419 C1420 1.355 . S
C1419 C1421 1.415 . S
C1420 C1419 1.355 . S
C1420 C1422 1.419 . S
C1421 C1416 1.425 . S
C1421 C1418 1.409 . S
C1421 C1419 1.415 . S
C1422 H1412 0.930 . S
C1422 C1420 1.419 . S
C1422 C1423 1.362 . S
C1423 H1413 0.930 . S
C1423 C1416 1.409 . S
C1423 C1422 1.362 . S
H1424 C1430 0.930 . S
H1425 C1433 0.930 . S
H1426 C1434 0.930 . S
H1427 C1435 0.930 . S
H1428 C1438 0.930 . S
H1429 C1439 0.930 . S
C1430 H1424 0.930 . S
C1430 C1431 1.355 . S
C1430 C1432 1.415 . S
C1431 C1430 1.355 . S
C1431 C1433 1.419 . S
C1432 C1430 1.415 . S
C1432 C1437 1.425 . S
C1432 C1439 1.409 . S
C1433 H1425 0.930 . S
C1433 C1431 1.419 . S
C1433 C1434 1.362 . S
C1434 H1426 0.930 . S
C1434 C1433 1.362 . S
C1434 C1437 1.409 . S
C1435 H1427 0.930 . S
C1435 C1436 1.355 . S
C1435 C1437 1.415 . S
C1436 C1435 1.355 . S
C1436 C1438 1.419 . S
C1437 C1432 1.425 . S
C1437 C1434 1.409 . S
C1437 C1435 1.415 . S
C1438 H1428 0.930 . S
C1438 C1436 1.419 . S
C1438 C1439 1.362 . S
C1439 H1429 0.930 . S
C1439 C1432 1.409 . S
C1439 C1438 1.362 . S
H1440 C1446 0.930 . S
H1441 C1449 0.930 . S
H1442 C1450 0.930 . S
H1443 C1451 0.930 . S
H1444 C1454 0.930 . S
H1445 C1455 0.930 . S
C1446 H1440 0.930 . S
C1446 C1447 1.355 . S
C1446 C1448 1.415 . S
C1447 C1446 1.355 . S
C1447 C1449 1.419 . S
C1448 C1446 1.415 . S
C1448 C1453 1.425 . S
C1448 C1455 1.409 . S
C1449 H1441 0.930 . S
C1449 C1447 1.419 . S
C1449 C1450 1.362 . S
C1450 H1442 0.930 . S
C1450 C1449 1.362 . S
C1450 C1453 1.409 . S
C1451 H1443 0.930 . S
C1451 C1452 1.355 . S
C1451 C1453 1.415 . S
C1452 C1451 1.355 . S
C1452 C1454 1.419 . S
C1453 C1448 1.425 . S
C1453 C1450 1.409 . S
C1453 C1451 1.415 . S
C1454 H1444 0.930 . S
C1454 C1452 1.419 . S
C1454 C1455 1.362 . S
C1455 H1445 0.930 . S
C1455 C1448 1.409 . S
C1455 C1454 1.362 . S
H1456 C1462 0.930 . S
H1457 C1465 0.930 . S
H1458 C1466 0.930 . S
H1459 C1467 0.930 . S
H1460 C1470 0.930 . S
H1461 C1471 0.930 . S
C1462 H1456 0.930 . S
C1462 C1463 1.355 . S
C1462 C1464 1.415 . S
C1463 C1462 1.355 . S
C1463 C1465 1.419 . S
C1464 C1462 1.415 . S
C1464 C1469 1.425 . S
C1464 C1471 1.409 . S
C1465 H1457 0.930 . S
C1465 C1463 1.419 . S
C1465 C1466 1.362 . S
C1466 H1458 0.930 . S
C1466 C1465 1.362 . S
C1466 C1469 1.409 . S
C1467 H1459 0.930 . S
C1467 C1468 1.355 . S
C1467 C1469 1.415 . S
C1468 C1467 1.355 . S
C1468 C1470 1.419 . S
C1469 C1464 1.425 . S
C1469 C1466 1.409 . S
C1469 C1467 1.415 . S
C1470 H1460 0.930 . S
C1470 C1468 1.419 . S
C1470 C1471 1.362 . S
C1471 H1461 0.930 . S
C1471 C1464 1.409 . S
C1471 C1470 1.362 . S
H1472 C1478 0.930 . S
H1473 C1481 0.930 . S
H1474 C1482 0.930 . S
H1475 C1483 0.930 . S
H1476 C1486 0.930 . S
H1477 C1487 0.930 . S
C1478 H1472 0.930 . S
C1478 C1479 1.355 . S
C1478 C1480 1.415 . S
C1479 C1478 1.355 . S
C1479 C1481 1.419 . S
C1480 C1478 1.415 . S
C1480 C1485 1.425 . S
C1480 C1487 1.409 . S
C1481 H1473 0.930 . S
C1481 C1479 1.419 . S
C1481 C1482 1.362 . S
C1482 H1474 0.930 . S
C1482 C1481 1.362 . S
C1482 C1485 1.409 . S
C1483 H1475 0.930 . S
C1483 C1484 1.355 . S
C1483 C1485 1.415 . S
C1484 C1483 1.355 . S
C1484 C1486 1.419 . S
C1485 C1480 1.425 . S
C1485 C1482 1.409 . S
C1485 C1483 1.415 . S
C1486 H1476 0.930 . S
C1486 C1484 1.419 . S
C1486 C1487 1.362 . S
C1487 H1477 0.930 . S
C1487 C1480 1.409 . S
C1487 C1486 1.362 . S
H1488 C1494 0.930 . S
H1489 C1497 0.930 . S
H1490 C1498 0.930 . S
H1491 C1499 0.930 . S
H1492 C1502 0.930 . S
H1493 C1503 0.930 . S
C1494 H1488 0.930 . S
C1494 C1495 1.355 . S
C1494 C1496 1.415 . S
C1495 C1494 1.355 . S
C1495 C1497 1.419 . S
C1496 C1494 1.415 . S
C1496 C1501 1.425 . S
C1496 C1503 1.409 . S
C1497 H1489 0.930 . S
C1497 C1495 1.419 . S
C1497 C1498 1.362 . S
C1498 H1490 0.930 . S
C1498 C1497 1.362 . S
C1498 C1501 1.409 . S
C1499 H1491 0.930 . S
C1499 C1500 1.355 . S
C1499 C1501 1.415 . S
C1500 C1499 1.355 . S
C1500 C1502 1.419 . S
C1501 C1496 1.425 . S
C1501 C1498 1.409 . S
C1501 C1499 1.415 . S
C1502 H1492 0.930 . S
C1502 C1500 1.419 . S
C1502 C1503 1.362 . S
C1503 H1493 0.930 . S
C1503 C1496 1.409 . S
C1503 C1502 1.362 . S
H1504 C1510 0.930 . S
H1505 C1513 0.930 . S
H1506 C1514 0.930 . S
H1507 C1515 0.930 . S
H1508 C1518 0.930 . S
H1509 C1519 0.930 . S
C1510 H1504 0.930 . S
C1510 C1511 1.355 . S
C1510 C1512 1.415 . S
C1511 C1510 1.355 . S
C1511 C1513 1.419 . S
C1512 C1510 1.415 . S
C1512 C1517 1.425 . S
C1512 C1519 1.409 . S
C1513 H1505 0.930 . S
C1513 C1511 1.419 . S
C1513 C1514 1.362 . S
C1514 H1506 0.930 . S
C1514 C1513 1.362 . S
C1514 C1517 1.409 . S
C1515 H1507 0.930 . S
C1515 C1516 1.355 . S
C1515 C1517 1.415 . S
C1516 C1515 1.355 . S
C1516 C1518 1.419 . S
C1517 C1512 1.425 . S
C1517 C1514 1.409 . S
C1517 C1515 1.415 . S
C1518 H1508 0.930 . S
C1518 C1516 1.419 . S
C1518 C1519 1.362 . S
C1519 H1509 0.930 . S
C1519 C1512 1.409 . S
C1519 C1518 1.362 . S
H1520 C1526 0.930 . S
H1521 C1529 0.930 . S
H1522 C1530 0.930 . S
H1523 C1531 0.930 . S
H1524 C1534 0.930 . S
H1525 C1535 0.930 . S
C1526 H1520 0.930 . S
C1526 C1527 1.355 . S
C1526 C1528 1.415 . S
C1527 C1526 1.355 . S
C1527 C1529 1.419 . S
C1528 C1526 1.415 . S
C1528 C1533 1.425 . S
C1528 C1535 1.409 . S
C1529 H1521 0.930 . S
C1529 C1527 1.419 . S
C1529 C1530 1.362 . S
C1530 H1522 0.930 . S
C1530 C1529 1.362 . S
C1530 C1533 1.409 . S
C1531 H1523 0.930 . S
C1531 C1532 1.355 . S
C1531 C1533 1.415 . S
C1532 C1531 1.355 . S
C1532 C1534 1.419 . S
C1533 C1528 1.425 . S
C1533 C1530 1.409 . S
C1533 C1531 1.415 . S
C1534 H1524 0.930 . S
C1534 C1532 1.419 . S
C1534 C1535 1.362 . S
C1535 H1525 0.930 . S
C1535 C1528 1.409 . S
C1535 C1534 1.362 . S
H1536 C1542 0.930 . S
H1537 C1545 0.930 . S
H1538 C1546 0.930 . S
H1539 C1547 0.930 . S
H1540 C1550 0.930 . S
H1541 C1551 0.930 . S
C1542 H1536 0.930 . S
C1542 C1543 1.355 1_554 S
C1542 C1544 1.415 . S
C1543 C1542 1.355 1_556 S
C1543 C1545 1.419 . S
C1544 C1542 1.415 . S
C1544 C1549 1.425 1_554 S
C1544 C1551 1.409 . S
C1545 H1537 0.930 . S
C1545 C1543 1.419 . S
C1545 C1546 1.362 . S
C1546 H1538 0.930 . S
C1546 C1545 1.362 . S
C1546 C1549 1.409 . S
C1547 H1539 0.930 . S
C1547 C1548 1.355 . S
C1547 C1549 1.415 . S
C1548 C1547 1.355 . S
C1548 C1550 1.419 1_556 S
C1549 C1544 1.425 1_556 S
C1549 C1546 1.409 . S
C1549 C1547 1.415 . S
C1550 H1540 0.930 . S
C1550 C1548 1.419 1_554 S
C1550 C1551 1.362 . S
C1551 H1541 0.930 . S
C1551 C1544 1.409 . S
C1551 C1550 1.362 . S
H1552 C1558 0.930 . S
H1553 C1561 0.934 . S
H1554 C1562 0.930 . S
H1555 C1563 0.933 . S
H1556 C1566 0.930 . S
H1557 C1567 0.930 . S
C1558 H1552 0.930 . S
C1558 C1559 1.355 . S
C1558 C1560 1.415 . S
C1559 C1558 1.355 . S
C1559 C1561 1.415 1_556 S
C1560 C1558 1.415 . S
C1560 C1565 1.425 . S
C1560 C1567 1.409 . S
C1561 H1553 0.934 . S
C1561 C1559 1.415 1_554 S
C1561 C1562 1.363 . S
C1562 H1554 0.930 . S
C1562 C1561 1.363 . S
C1562 C1565 1.409 1_554 S
C1563 H1555 0.933 . S
C1563 C1564 1.355 . S
C1563 C1565 1.415 . S
C1564 C1563 1.355 . S
C1564 C1566 1.419 . S
C1565 C1560 1.425 . S
C1565 C1562 1.409 1_556 S
C1565 C1563 1.415 . S
C1566 H1556 0.930 . S
C1566 C1564 1.419 . S
C1566 C1567 1.362 . S
C1567 H1557 0.930 . S
C1567 C1560 1.409 . S
C1567 C1566 1.362 . S
H1568 C1574 0.930 . S
H1569 C1577 0.930 . S
H1570 C1578 0.930 . S
H1571 C1579 0.930 . S
H1572 C1582 0.930 . S
H1573 C1583 0.930 . S
C1574 H1568 0.930 . S
C1574 C1575 1.355 . S
C1574 C1576 1.415 . S
C1575 C1574 1.355 . S
C1575 C1577 1.419 . S
C1576 C1574 1.415 . S
C1576 C1581 1.425 . S
C1576 C1583 1.409 . S
C1577 H1569 0.930 . S
C1577 C1575 1.419 . S
C1577 C1578 1.362 . S
C1578 H1570 0.930 . S
C1578 C1577 1.362 . S
C1578 C1581 1.409 . S
C1579 H1571 0.930 . S
C1579 C1580 1.355 . S
C1579 C1581 1.415 . S
C1580 C1579 1.355 . S
C1580 C1582 1.419 . S
C1581 C1576 1.425 . S
C1581 C1578 1.409 . S
C1581 C1579 1.415 . S
C1582 H1572 0.930 . S
C1582 C1580 1.419 . S
C1582 C1583 1.362 . S
C1583 H1573 0.930 . S
C1583 C1576 1.409 . S
C1583 C1582 1.362 . S
H1584 C1590 0.930 . S
H1585 C1593 0.930 . S
H1586 C1594 0.930 . S
H1587 C1595 0.930 . S
H1588 C1598 0.930 . S
H1589 C1599 0.930 . S
C1590 H1584 0.930 . S
C1590 C1591 1.355 . S
C1590 C1592 1.415 . S
C1591 C1590 1.355 . S
C1591 C1593 1.419 . S
C1592 C1590 1.415 . S
C1592 C1597 1.425 . S
C1592 C1599 1.409 . S
C1593 H1585 0.930 . S
C1593 C1591 1.419 . S
C1593 C1594 1.362 . S
C1594 H1586 0.930 . S
C1594 C1593 1.362 . S
C1594 C1597 1.409 . S
C1595 H1587 0.930 . S
C1595 C1596 1.355 . S
C1595 C1597 1.415 . S
C1596 C1595 1.355 . S
C1596 C1598 1.419 . S
C1597 C1592 1.425 . S
C1597 C1594 1.409 . S
C1597 C1595 1.415 . S
C1598 H1588 0.930 . S
C1598 C1596 1.419 . S
C1598 C1599 1.362 . S
C1599 H1589 0.930 . S
C1599 C1592 1.409 . S
C1599 C1598 1.362 . S
H1600 C1606 0.930 . S
H1601 C1609 0.930 . S
H1602 C1610 0.930 . S
H1603 C1611 0.930 . S
H1604 C1614 0.930 . S
H1605 C1615 0.930 . S
C1606 H1600 0.930 . S
C1606 C1607 1.355 1_556 S
C1606 C1608 1.415 . S
C1607 C1606 1.355 1_554 S
C1607 C1609 1.419 . S
C1608 C1606 1.415 . S
C1608 C1613 1.425 1_556 S
C1608 C1615 1.409 . S
C1609 H1601 0.930 . S
C1609 C1607 1.419 . S
C1609 C1610 1.362 . S
C1610 H1602 0.930 . S
C1610 C1609 1.362 . S
C1610 C1613 1.409 . S
C1611 H1603 0.930 . S
C1611 C1612 1.355 . S
C1611 C1613 1.415 . S
C1612 C1611 1.355 . S
C1612 C1614 1.419 1_554 S
C1613 C1608 1.425 1_554 S
C1613 C1610 1.409 . S
C1613 C1611 1.415 . S
C1614 H1604 0.930 . S
C1614 C1612 1.419 1_556 S
C1614 C1615 1.362 . S
C1615 H1605 0.930 . S
C1615 C1608 1.409 . S
C1615 C1614 1.362 . S
H1616 C1622 0.930 . S
H1617 C1625 0.930 . S
H1618 C1626 0.930 . S
H1619 C1627 0.930 . S
H1620 C1630 0.930 . S
H1621 C1631 0.930 . S
C1622 H1616 0.930 . S
C1622 C1623 1.355 . S
C1622 C1624 1.415 . S
C1623 C1622 1.355 . S
C1623 C1625 1.419 1_554 S
C1624 C1622 1.415 . S
C1624 C1629 1.425 1_554 S
C1624 C1631 1.409 . S
C1625 H1617 0.930 . S
C1625 C1623 1.419 1_556 S
C1625 C1626 1.362 . S
C1626 H1618 0.930 . S
C1626 C1625 1.362 . S
C1626 C1629 1.409 . S
C1627 H1619 0.930 . S
C1627 C1628 1.355 1_556 S
C1627 C1629 1.415 . S
C1628 C1627 1.355 1_554 S
C1628 C1630 1.419 . S
C1629 C1624 1.425 1_556 S
C1629 C1626 1.409 . S
C1629 C1627 1.415 . S
C1630 H1620 0.930 . S
C1630 C1628 1.419 . S
C1630 C1631 1.362 . S
C1631 H1621 0.930 . S
C1631 C1624 1.409 . S
C1631 C1630 1.362 . S
H1632 C1638 0.930 . S
H1633 C1641 0.930 . S
H1634 C1642 0.930 . S
H1635 C1643 0.930 . S
H1636 C1646 0.930 . S
H1637 C1647 0.930 . S
C1638 H1632 0.930 . S
C1638 C1639 1.355 . S
C1638 C1640 1.415 . S
C1639 C1638 1.355 . S
C1639 C1641 1.419 . S
C1640 C1638 1.415 . S
C1640 C1645 1.425 . S
C1640 C1647 1.409 . S
C1641 H1633 0.930 . S
C1641 C1639 1.419 . S
C1641 C1642 1.362 . S
C1642 H1634 0.930 . S
C1642 C1641 1.362 . S
C1642 C1645 1.409 . S
C1643 H1635 0.930 . S
C1643 C1644 1.355 . S
C1643 C1645 1.415 . S
C1644 C1643 1.355 . S
C1644 C1646 1.419 . S
C1645 C1640 1.425 . S
C1645 C1642 1.409 . S
C1645 C1643 1.415 . S
C1646 H1636 0.930 . S
C1646 C1644 1.419 . S
C1646 C1647 1.362 . S
C1647 H1637 0.930 . S
C1647 C1640 1.409 . S
C1647 C1646 1.362 . S
H1648 C1654 0.930 . S
H1649 C1657 0.930 . S
H1650 C1658 0.930 . S
H1651 C1659 0.930 . S
H1652 C1662 0.930 . S
H1653 C1663 0.930 . S
C1654 H1648 0.930 . S
C1654 C1655 1.355 . S
C1654 C1656 1.415 . S
C1655 C1654 1.355 . S
C1655 C1657 1.419 . S
C1656 C1654 1.415 . S
C1656 C1661 1.425 . S
C1656 C1663 1.409 . S
C1657 H1649 0.930 . S
C1657 C1655 1.419 . S
C1657 C1658 1.362 . S
C1658 H1650 0.930 . S
C1658 C1657 1.362 . S
C1658 C1661 1.409 . S
C1659 H1651 0.930 . S
C1659 C1660 1.355 . S
C1659 C1661 1.415 . S
C1660 C1659 1.355 . S
C1660 C1662 1.419 . S
C1661 C1656 1.425 . S
C1661 C1658 1.409 . S
C1661 C1659 1.415 . S
C1662 H1652 0.930 . S
C1662 C1660 1.419 . S
C1662 C1663 1.362 . S
C1663 H1653 0.930 . S
C1663 C1656 1.409 . S
C1663 C1662 1.362 . S
H1664 C1670 0.930 . S
H1665 C1673 0.930 . S
H1666 C1674 0.930 . S
H1667 C1675 0.930 . S
H1668 C1678 0.930 . S
H1669 C1679 0.930 . S
C1670 H1664 0.930 . S
C1670 C1671 1.355 . S
C1670 C1672 1.415 . S
C1671 C1670 1.355 . S
C1671 C1673 1.419 . S
C1672 C1670 1.415 . S
C1672 C1677 1.425 . S
C1672 C1679 1.409 . S
C1673 H1665 0.930 . S
C1673 C1671 1.419 . S
C1673 C1674 1.362 . S
C1674 H1666 0.930 . S
C1674 C1673 1.362 . S
C1674 C1677 1.409 . S
C1675 H1667 0.930 . S
C1675 C1676 1.355 . S
C1675 C1677 1.415 . S
C1676 C1675 1.355 . S
C1676 C1678 1.419 . S
C1677 C1672 1.425 . S
C1677 C1674 1.409 . S
C1677 C1675 1.415 . S
C1678 H1668 0.930 . S
C1678 C1676 1.419 . S
C1678 C1679 1.362 . S
C1679 H1669 0.930 . S
C1679 C1672 1.409 . S
C1679 C1678 1.362 . S
H1680 C1686 0.930 . S
H1681 C1689 0.930 . S
H1682 C1690 0.930 . S
H1683 C1691 0.930 . S
H1684 C1694 0.930 . S
H1685 C1695 0.930 . S
C1686 H1680 0.930 . S
C1686 C1687 1.355 . S
C1686 C1688 1.415 . S
C1687 C1686 1.355 . S
C1687 C1689 1.419 . S
C1688 C1686 1.415 . S
C1688 C1693 1.425 . S
C1688 C1695 1.409 . S
C1689 H1681 0.930 . S
C1689 C1687 1.419 . S
C1689 C1690 1.362 . S
C1690 H1682 0.930 . S
C1690 C1689 1.362 . S
C1690 C1693 1.409 . S
C1691 H1683 0.930 . S
C1691 C1692 1.355 . S
C1691 C1693 1.415 . S
C1692 C1691 1.355 . S
C1692 C1694 1.419 . S
C1693 C1688 1.425 . S
C1693 C1690 1.409 . S
C1693 C1691 1.415 . S
C1694 H1684 0.930 . S
C1694 C1692 1.419 . S
C1694 C1695 1.362 . S
C1695 H1685 0.930 . S
C1695 C1688 1.409 . S
C1695 C1694 1.362 . S
H1696 C1702 0.930 . S
H1697 C1705 0.930 . S
H1698 C1706 0.930 . S
H1699 C1707 0.930 . S
H1700 C1710 0.930 . S
H1701 C1711 0.930 . S
C1702 H1696 0.930 . S
C1702 C1703 1.355 . S
C1702 C1704 1.415 . S
C1703 C1702 1.355 . S
C1703 C1705 1.419 . S
C1704 C1702 1.415 . S
C1704 C1709 1.425 . S
C1704 C1711 1.409 . S
C1705 H1697 0.930 . S
C1705 C1703 1.419 . S
C1705 C1706 1.362 . S
C1706 H1698 0.930 . S
C1706 C1705 1.362 . S
C1706 C1709 1.409 . S
C1707 H1699 0.930 . S
C1707 C1708 1.355 . S
C1707 C1709 1.415 . S
C1708 C1707 1.355 . S
C1708 C1710 1.419 . S
C1709 C1704 1.425 . S
C1709 C1706 1.409 . S
C1709 C1707 1.415 . S
C1710 H1700 0.930 . S
C1710 C1708 1.419 . S
C1710 C1711 1.362 . S
C1711 H1701 0.930 . S
C1711 C1704 1.409 . S
C1711 C1710 1.362 . S
H1712 C1718 0.930 . S
H1713 C1721 0.930 . S
H1714 C1722 0.930 . S
H1715 C1723 0.930 . S
H1716 C1726 0.930 . S
H1717 C1727 0.930 . S
C1718 H1712 0.930 . S
C1718 C1719 1.355 . S
C1718 C1720 1.415 . S
C1719 C1718 1.355 . S
C1719 C1721 1.419 . S
C1720 C1718 1.415 . S
C1720 C1725 1.425 . S
C1720 C1727 1.409 . S
C1721 H1713 0.930 . S
C1721 C1719 1.419 . S
C1721 C1722 1.362 . S
C1722 H1714 0.930 . S
C1722 C1721 1.362 . S
C1722 C1725 1.409 . S
C1723 H1715 0.930 . S
C1723 C1724 1.355 . S
C1723 C1725 1.415 . S
C1724 C1723 1.355 . S
C1724 C1726 1.419 . S
C1725 C1720 1.425 . S
C1725 C1722 1.409 . S
C1725 C1723 1.415 . S
C1726 H1716 0.930 . S
C1726 C1724 1.419 . S
C1726 C1727 1.362 . S
C1727 H1717 0.930 . S
C1727 C1720 1.409 . S
C1727 C1726 1.362 . S
H1728 C1734 0.930 . S
H1729 C1737 0.930 . S
H1730 C1738 0.930 . S
H1731 C1739 0.930 . S
H1732 C1742 0.930 . S
H1733 C1743 0.930 . S
C1734 H1728 0.930 . S
C1734 C1735 1.355 . S
C1734 C1736 1.415 . S
C1735 C1734 1.355 . S
C1735 C1737 1.419 . S
C1736 C1734 1.415 . S
C1736 C1741 1.425 . S
C1736 C1743 1.409 . S
C1737 H1729 0.930 . S
C1737 C1735 1.419 . S
C1737 C1738 1.362 . S
C1738 H1730 0.930 . S
C1738 C1737 1.362 . S
C1738 C1741 1.409 . S
C1739 H1731 0.930 . S
C1739 C1740 1.355 . S
C1739 C1741 1.415 . S
C1740 C1739 1.355 . S
C1740 C1742 1.419 . S
C1741 C1736 1.425 . S
C1741 C1738 1.409 . S
C1741 C1739 1.415 . S
C1742 H1732 0.930 . S
C1742 C1740 1.419 . S
C1742 C1743 1.362 . S
C1743 H1733 0.930 . S
C1743 C1736 1.409 . S
C1743 C1742 1.362 . S
H1744 C1750 0.930 . S
H1745 C1753 0.930 . S
H1746 C1754 0.930 . S
H1747 C1755 0.930 . S
H1748 C1758 0.930 . S
H1749 C1759 0.930 . S
C1750 H1744 0.930 . S
C1750 C1751 1.355 . S
C1750 C1752 1.415 . S
C1751 C1750 1.355 . S
C1751 C1753 1.419 . S
C1752 C1750 1.415 . S
C1752 C1757 1.425 . S
C1752 C1759 1.409 . S
C1753 H1745 0.930 . S
C1753 C1751 1.419 . S
C1753 C1754 1.362 . S
C1754 H1746 0.930 . S
C1754 C1753 1.362 . S
C1754 C1757 1.409 . S
C1755 H1747 0.930 . S
C1755 C1756 1.355 . S
C1755 C1757 1.415 . S
C1756 C1755 1.355 . S
C1756 C1758 1.419 . S
C1757 C1752 1.425 . S
C1757 C1754 1.409 . S
C1757 C1755 1.415 . S
C1758 H1748 0.930 . S
C1758 C1756 1.419 . S
C1758 C1759 1.362 . S
C1759 H1749 0.930 . S
C1759 C1752 1.409 . S
C1759 C1758 1.362 . S
C743 C7 1.655 . S
C748 C76 1.624 . S
C759 C53 1.656 . S
C764 C30 1.644 . S
C775 C99 1.650 . S
C780 C168 1.650 . S
C791 C145 1.660 . S
C796 C122 1.629 . S
C807 C191 1.643 . S
C812 C260 1.657 . S
C823 C237 1.632 . S
C828 C214 1.635 . S
C839 C283 1.627 . S
C844 C352 1.659 . S
C855 C306 1.643 . S
C860 C329 1.656 . S
C871 C444 1.628 . S
C876 C375 1.660 . S
C887 C398 1.641 . S
C892 C421 1.658 . S
C903 C467 1.637 . S
C908 C536 1.631 . S
C919 C513 1.624 . S
C924 C490 1.653 . S
C935 C559 1.659 . S
C940 C628 1.627 . S
C951 C605 1.660 . S
C956 C582 1.634 . S
C967 C651 1.659 . S
C972 C720 1.639 . S
C983 C674 1.639 . S
C988 C697 1.659 . S
C999 N288 1.482 . S
C1004 N12 1.482 . S
C1015 N35 1.475 . S
C1020 N495 1.475 . S
C1031 N58 1.476 . S
C1036 N150 1.476 . S
C1047 N725 1.491 1_556 S
C1052 N81 1.491 1_554 S
C1063 N104 1.497 . S
C1068 N196 1.497 . S
C1079 N403 1.483 . S
C1084 N127 1.483 . S
C1095 N633 1.489 1_554 S
C1100 N173 1.489 1_556 S
C1111 N679 1.452 . S
C1116 N219 1.452 . S
C1127 N334 1.451 . S
C1132 N242 1.451 . S
C1143 N541 1.470 . S
C1148 N265 1.470 . S
C1159 N311 1.455 . S
C1164 N587 1.455 . S
C1175 N449 1.463 . S
C1180 N357 1.463 . S
C1191 N656 1.490 . S
C1196 N380 1.490 . S
C1207 N518 1.465 . S
C1212 N426 1.465 . S
C1223 N564 1.450 . S
C1228 N472 1.450 . S
C1239 N610 1.491 1_554 S
C1244 N702 1.491 1_556 S
C1255 C246 1.641 . S
C1260 C16 1.652 . S
C1271 C39 1.699 . S
C1276 C269 1.697 . S
C1287 C200 1.672 . S
C1292 C62 1.640 . S
C1303 C223 1.639 . S
C1308 C85 1.660 . S
C1319 C108 1.675 . S
C1324 C338 1.641 . S
C1335 C131 1.684 . S
C1340 C361 1.704 . S
C1351 C292 1.686 . S
C1356 C154 1.647 . S
C1367 C177 1.702 . S
C1372 C315 1.668 . S
C1383 C614 1.690 . S
C1388 C384 1.703 . S
C1399 C637 1.669 . S
C1404 C407 1.640 . S
C1415 C430 1.704 . S
C1420 C568 1.685 . S
C1431 C453 1.641 . S
C1436 C591 1.673 . S
C1447 C476 1.684 . S
C1452 C706 1.705 . S
C1463 C499 1.639 . S
C1468 C729 1.662 . S
C1479 C660 1.690 . S
C1484 C522 1.651 . S
C1495 C683 1.689 . S
C1500 C545 1.650 . S
C1511 N2 1.432 . S
C1516 N577 1.434 . S
C1527 N554 1.431 . S
C1532 N25 1.457 . S
C1543 N48 1.508 . S
C1548 N623 1.474 . S
C1559 N71 1.431 . S
C1564 N600 1.450 . S
C1575 N94 1.469 . S
C1580 N669 1.436 . S
C1591 N117 1.506 . S
C1596 N646 1.501 . S
C1607 N715 1.512 . S
C1612 N140 1.498 . S
C1623 N692 1.441 . S
C1628 N163 1.479 . S
C1639 N393 1.430 . S
C1644 N186 1.456 . S
C1655 N370 1.431 . S
C1660 N209 1.458 . S
C1671 N232 1.433 . S
C1676 N439 1.433 . S
C1687 N255 1.429 . S
C1692 N416 1.441 . S
C1703 N485 1.475 . S
C1708 N278 1.504 . S
C1719 N301 1.508 . S
C1724 N462 1.485 . S
C1735 N324 1.457 . S
C1740 N531 1.430 . S
C1751 N347 1.489 . S
C1756 N508 1.508 . S
