# Generated by pormake.
# Topology umy, (4)-cn, num edge types: 1
# Building blocks:
#     Node 0, Type 0, BuildingBlock: UXUYUI_clean_sbu_0, # of connection points: 4
#     Node 1, Type 0, BuildingBlock: UXUYUI_clean_sbu_0, # of connection points: 4
#     Node 2, Type 0, BuildingBlock: UXUYUI_clean_sbu_0, # of connection points: 4
#     Node 3, Type 0, BuildingBlock: UXUYUI_clean_sbu_0, # of connection points: 4
#     Node 4, Type 0, BuildingBlock: UXUYUI_clean_sbu_0, # of connection points: 4
#     Node 5, Type 0, BuildingBlock: UXUYUI_clean_sbu_0, # of connection points: 4
#     Node 6, Type 0, BuildingBlock: UXUYUI_clean_sbu_0, # of connection points: 4
#     Node 7, Type 0, BuildingBlock: UXUYUI_clean_sbu_0, # of connection points: 4
#     Node 8, Type 0, BuildingBlock: UXUYUI_clean_sbu_0, # of connection points: 4
#     Node 9, Type 0, BuildingBlock: UXUYUI_clean_sbu_0, # of connection points: 4
#     Node 10, Type 0, BuildingBlock: UXUYUI_clean_sbu_0, # of connection points: 4
#     Node 11, Type 0, BuildingBlock: UXUYUI_clean_sbu_0, # of connection points: 4
#     Edge 12, Type (0, 0), None
#     Edge 13, Type (0, 0), None
#     Edge 14, Type (0, 0), None
#     Edge 15, Type (0, 0), None
#     Edge 16, Type (0, 0), None
#     Edge 17, Type (0, 0), None
#     Edge 18, Type (0, 0), None
#     Edge 19, Type (0, 0), None
#     Edge 20, Type (0, 0), None
#     Edge 21, Type (0, 0), None
#     Edge 22, Type (0, 0), None
#     Edge 23, Type (0, 0), None
#     Edge 24, Type (0, 0), None
#     Edge 25, Type (0, 0), None
#     Edge 26, Type (0, 0), None
#     Edge 27, Type (0, 0), None
#     Edge 28, Type (0, 0), None
#     Edge 29, Type (0, 0), None
#     Edge 30, Type (0, 0), None
#     Edge 31, Type (0, 0), None
#     Edge 32, Type (0, 0), None
#     Edge 33, Type (0, 0), None
#     Edge 34, Type (0, 0), None
#     Edge 35, Type (0, 0), None
# Relax obj value: 0.205
# Max RMSD: 0.156
# Mean RMSD: 0.156
data_MOF--net-umy--node1-UXUYUI_clean_sbu_0--edge1-none
_symmetry_space_group_name_H-M    P1
_symmetry_Int_Tables_number       1
_symmetry_cell_setting            triclinic
loop_
_symmetry_equiv_pos_as_xyz
'x, y, z'
_cell_length_a     36.7289
_cell_length_b     36.729036
_cell_length_c     41.76233
_cell_angle_alpha  89.999989
_cell_angle_beta   90.000005
_cell_angle_gamma 120.00127
loop_
_atom_site_label
_atom_site_type_symbol
_atom_site_fract_x
_atom_site_fract_y
_atom_site_fract_z
_atom_type_partial_charge
Li0 Li 0.0951 0.33832 0.08603 0.0
Li1 Li 0.10512 0.3642 0.14356 0.0
Li2 Li 0.03507 0.31926 0.12156 0.0
Li3 Li 0.07353 0.39167 0.10526 0.0
C4 C 0.05954 0.26525 0.13505 0.0
N5 N 0.01142 0.18183 0.15248 0.0
C6 C 0.05302 0.25406 0.1674 0.0
C7 C 0.04184 0.23406 0.11156 0.0
C8 C 0.02848 0.2117 0.17572 0.0
C9 C 0.0176 0.19204 0.12087 0.0
C10 C 0.1718 0.42634 0.10694 0.0
C11 C 0.22641 0.49238 0.12808 0.0
N12 N 0.25592 0.48524 0.11448 0.0
C13 C 0.20269 0.41981 0.09299 0.0
C14 C 0.18374 0.46304 0.12446 0.0
C15 C 0.24503 0.44991 0.09714 0.0
C16 C 0.13312 0.33974 0.02484 0.0
N17 N 0.12363 0.3234 0.05495 0.0
C18 C 0.16731 0.29283 0.0485 0.0
C19 C 0.1395 0.29968 0.06668 0.0
C20 C 0.17942 0.31087 0.01794 0.0
C21 C 0.16099 0.33356 0.00568 0.0
H22 H 0.12072 0.3592 0.01632 0.0
H23 H 0.13218 0.28774 0.09087 0.0
C24 C 0.11913 0.36536 0.20937 0.0
N25 N 0.13905 0.37417 0.18062 0.0
C26 C 0.14082 0.36777 0.23746 0.0
C27 C 0.20352 0.38944 0.20596 0.0
C28 C 0.18039 0.38582 0.17843 0.0
C29 C 0.18365 0.37968 0.23605 0.0
H30 H 0.08594 0.35509 0.21035 0.0
H31 H 0.19531 0.39126 0.15533 0.0
C32 C 1.00585 0.31496 0.06182 0.0
N33 N 0.93039 0.26188 0.03208 0.0
C34 C 0.97057 0.31891 0.06788 0.0
C35 C 1.00294 0.28429 0.0405 0.0
C36 C 0.93264 0.29165 0.05267 0.0
C37 C 0.96445 0.25771 0.02571 0.0
C38 C 0.04874 0.39696 0.16644 0.0
C39 C 0.00818 0.3904 0.17095 0.0
C40 C 0.083 0.43206 0.18017 0.0
C41 C 1.00267 0.41958 0.18863 0.0
C42 C 0.0762 0.4605 0.1977 0.0
N43 N 0.03651 0.45376 0.2015 0.0
C44 C 0.9748 0.27808 0.16806 0.0
C45 C 0.95328 0.2397 0.11954 0.0
C46 C 0.93957 0.2469 0.18384 0.0
N47 N 0.9812 0.27421 0.13648 0.0
C48 C 0.91716 0.20765 0.13444 0.0
C49 C 0.91033 0.21084 0.16717 0.0
H50 H 0.99785 0.30496 0.1814 0.0
H51 H 0.95952 0.23618 0.09484 0.0
C52 C 0.10586 0.47578 0.08331 0.0
N53 N 0.07097 0.44128 0.09465 0.0
C54 C 0.10599 0.51356 0.07873 0.0
C55 C 0.03375 0.47931 0.09639 0.0
C56 C 0.03495 0.44212 0.10036 0.0
C57 C 0.06981 0.516 0.08585 0.0
H58 H 0.13382 0.47416 0.07811 0.0
H59 H 1.0073 0.41412 0.10869 0.0
O60 O 0.0822 0.30663 0.1264 0.0
O61 O 0.13017 0.39709 0.10319 0.0
O62 O 0.04337 0.3416 0.0761 0.0
O63 O 0.0547 0.36882 0.14901 0.0
H64 H 0.06632 0.27788 0.18585 0.0
H65 H 0.04632 0.2423 0.08641 0.0
H66 H 0.02288 0.20257 0.20066 0.0
H67 H 1.00349 0.16757 0.10295 0.0
H68 H 0.23606 0.52087 0.14163 0.0
H69 H 0.19415 0.39171 0.07928 0.0
H70 H 0.16034 0.46898 0.13499 0.0
H71 H 0.26924 0.44515 0.0866 0.0
H72 H 0.18031 0.27468 0.05873 0.0
H73 H 0.16973 0.3482 0.9823 0.0
H74 H 0.12365 0.35888 0.25983 0.0
H75 H 0.2365 0.39919 0.20352 0.0
H76 H 0.97242 0.34255 0.08431 0.0
H77 H 0.0301 0.28104 0.03549 0.0
H78 H 0.90498 0.29415 0.05724 0.0
H79 H 0.96165 0.23373 0.00922 0.0
H80 H 0.98128 0.36331 0.16054 0.0
H81 H 0.11447 0.43716 0.17749 0.0
H82 H 0.97149 0.41507 0.19208 0.0
H83 H 0.10247 0.48789 0.20837 0.0
H84 H 0.93544 0.25089 0.20903 0.0
H85 H 0.89562 0.18009 0.12082 0.0
H86 H 0.1342 0.54055 0.06967 0.0
H87 H 1.00512 0.47944 0.10231 0.0
Li88 Li 0.7621 0.09244 0.2527 0.0
Li89 Li 0.74624 0.10245 0.31023 0.0
Li90 Li 0.72114 0.03241 0.28823 0.0
Li91 Li 0.68718 0.07087 0.27193 0.0
C92 C 0.79961 0.05688 0.30172 0.0
N93 N 0.83492 0.00877 0.31915 0.0
C94 C 0.80428 0.05036 0.33407 0.0
C95 C 0.8131 0.03919 0.27822 0.0
C96 C 0.82211 0.02582 0.34239 0.0
C97 C 0.83089 0.01495 0.28753 0.0
C98 C 0.75078 0.16914 0.27361 0.0
C99 C 0.73934 0.22374 0.29474 0.0
N100 N 0.77599 0.25325 0.28115 0.0
C101 C 0.7882 0.20002 0.25966 0.0
C102 C 0.72601 0.18107 0.29113 0.0
C103 C 0.80044 0.24237 0.26381 0.0
C104 C 0.7987 0.13046 0.19151 0.0
N105 N 0.80555 0.12097 0.22162 0.0
C106 C 0.8798 0.16465 0.21517 0.0
C107 C 0.84513 0.13684 0.23335 0.0
C108 C 0.87387 0.17676 0.18461 0.0
C109 C 0.83275 0.15833 0.17234 0.0
H110 H 0.76685 0.11806 0.18299 0.0
H111 H 0.84976 0.12953 0.25754 0.0
C112 C 0.75909 0.11647 0.37604 0.0
N113 N 0.7702 0.13639 0.34729 0.0
C114 C 0.77837 0.13816 0.40413 0.0
C115 C 0.81941 0.20086 0.37263 0.0
C116 C 0.79989 0.17773 0.3451 0.0
C117 C 0.80929 0.18099 0.40272 0.0
H118 H 0.73617 0.08328 0.37702 0.0
H119 H 0.80937 0.19265 0.322 0.0
C120 C 0.69621 1.00319 0.22849 0.0
N121 N 0.67382 0.92773 0.19875 0.0
C122 C 0.65698 0.96791 0.23455 0.0
C123 C 0.72396 1.00027 0.20717 0.0
C124 C 0.64629 0.92997 0.21934 0.0
C125 C 0.71205 0.96179 0.19238 0.0
C126 C 0.6571 0.04608 0.33311 0.0
C127 C 0.6231 0.00551 0.33762 0.0
C128 C 0.65626 0.08034 0.34684 0.0
C129 C 0.58841 1.0 0.3553 0.0
C130 C 0.62102 0.07353 0.36438 0.0
N131 N 0.58808 0.03385 0.36817 0.0
C132 C 0.70204 0.97214 0.33473 0.0
C133 C 0.7189 0.95062 0.28621 0.0
C134 C 0.69799 0.93691 0.35051 0.0
N135 N 0.71231 0.97853 0.30315 0.0
C136 C 0.71483 0.9145 0.3011 0.0
C137 C 0.70482 0.90767 0.33384 0.0
H138 H 0.69821 0.99519 0.34807 0.0
H139 H 0.72866 0.95686 0.2615 0.0
C140 C 0.6354 0.10319 0.24998 0.0
N141 N 0.635 0.0683 0.26131 0.0
C142 C 0.59775 0.10333 0.2454 0.0
C143 C 0.55976 0.03109 0.26306 0.0
C144 C 0.59814 0.03229 0.26703 0.0
C145 C 0.55913 0.06715 0.25252 0.0
H146 H 0.66498 0.13116 0.24478 0.0
H147 H 0.5985 1.00464 0.27536 0.0
O148 O 0.78089 0.07954 0.29307 0.0
O149 O 0.7384 0.12751 0.26986 0.0
O150 O 0.70709 0.04071 0.24277 0.0
O151 O 0.6912 0.05203 0.31568 0.0
H152 H 0.79376 0.06365 0.35252 0.0
H153 H 0.80933 0.04366 0.25308 0.0
H154 H 0.82564 0.02023 0.36733 0.0
H155 H 0.84124 1.00084 0.26962 0.0
H156 H 0.72051 0.23339 0.3083 0.0
H157 H 0.80776 0.19149 0.24595 0.0
H158 H 0.69667 0.15767 0.30166 0.0
H159 H 0.82941 0.26658 0.25327 0.0
H160 H 0.91096 0.17766 0.2254 0.0
H161 H 0.82685 0.16706 0.14897 0.0
H162 H 0.7701 0.12099 0.4265 0.0
H163 H 0.84263 0.23384 0.37019 0.0
H164 H 0.63519 0.96976 0.25098 0.0
H165 H 0.75437 0.02744 0.20215 0.0
H166 H 0.61613 0.90231 0.22391 0.0
H167 H 0.73323 0.95898 0.17588 0.0
H168 H 0.62329 0.97862 0.32721 0.0
H169 H 0.68263 0.1118 0.34416 0.0
H170 H 0.56173 0.96882 0.35875 0.0
H171 H 0.6199 0.0998 0.37504 0.0
H172 H 0.68987 0.93278 0.3757 0.0
H173 H 0.72085 0.89296 0.28749 0.0
H174 H 0.59897 0.13153 0.23634 0.0
H175 H 0.531 1.00246 0.26898 0.0
Li176 Li 0.67499 0.75945 0.41937 0.0
Li177 Li 0.64911 0.74358 0.4769 0.0
Li178 Li 0.69406 0.71848 0.4549 0.0
Li179 Li 0.62164 0.68452 0.43859 0.0
C180 C 0.74806 0.79696 0.46839 0.0
N181 N 0.83148 0.83226 0.48582 0.0
C182 C 0.75925 0.80163 0.50073 0.0
C183 C 0.77925 0.81045 0.44489 0.0
C184 C 0.80162 0.81946 0.50906 0.0
C185 C 0.82127 0.82823 0.4542 0.0
C186 C 0.58697 0.74812 0.44028 0.0
C187 C 0.52093 0.73668 0.46141 0.0
N188 N 0.52806 0.77333 0.44782 0.0
C189 C 0.5935 0.78554 0.42632 0.0
C190 C 0.55027 0.72335 0.4578 0.0
C191 C 0.5634 0.79778 0.43048 0.0
C192 C 0.67357 0.79604 0.35818 0.0
N193 N 0.6899 0.80289 0.38829 0.0
C194 C 0.72047 0.87714 0.38184 0.0
C195 C 0.71362 0.84248 0.40002 0.0
C196 C 0.70243 0.87121 0.35128 0.0
C197 C 0.67974 0.83009 0.33901 0.0
H198 H 0.65411 0.76419 0.34965 0.0
H199 H 0.72556 0.84711 0.42421 0.0
C200 C 0.64795 0.75643 0.54271 0.0
N201 N 0.63914 0.76754 0.51396 0.0
C202 C 0.64554 0.77571 0.5708 0.0
C203 C 0.62387 0.81675 0.5393 0.0
C204 C 0.62749 0.79723 0.51177 0.0
C205 C 0.63363 0.80663 0.56939 0.0
H206 H 0.65822 0.73351 0.54369 0.0
H207 H 0.62205 0.80671 0.48867 0.0
C208 C 0.69835 0.69355 0.39515 0.0
N209 N 0.75142 0.67117 0.36542 0.0
C210 C 0.6944 0.65433 0.40121 0.0
C211 C 0.72902 0.72131 0.37384 0.0
C212 C 0.72165 0.64364 0.386 0.0
C213 C 0.7556 0.7094 0.35905 0.0
C214 C 0.61635 0.65444 0.49978 0.0
C215 C 0.62291 0.62044 0.50428 0.0
C216 C 0.58126 0.6536 0.51351 0.0
C217 C 0.59374 0.58575 0.52196 0.0
C218 C 0.55281 0.61836 0.53104 0.0
N219 N 0.55955 0.58541 0.53484 0.0
C220 C 0.73523 0.69939 0.5014 0.0
C221 C 0.77361 0.71625 0.45288 0.0
C222 C 0.76641 0.69534 0.51717 0.0
N223 N 0.7391 0.70965 0.46982 0.0
C224 C 0.80566 0.71217 0.46777 0.0
C225 C 0.80247 0.70216 0.50051 0.0
H226 H 0.70835 0.69556 0.51474 0.0
H227 H 0.77713 0.726 0.42817 0.0
C228 C 0.53753 0.63274 0.41664 0.0
N229 N 0.57203 0.63235 0.42798 0.0
C230 C 0.49975 0.59509 0.41207 0.0
C231 C 0.534 0.5571 0.42972 0.0
C232 C 0.57118 0.59548 0.4337 0.0
C233 C 0.49731 0.55648 0.41918 0.0
H234 H 0.53915 0.66232 0.41145 0.0
H235 H 0.59919 0.59584 0.44202 0.0
O236 O 0.70668 0.77824 0.45974 0.0
O237 O 0.61622 0.73574 0.43653 0.0
O238 O 0.67171 0.70443 0.40944 0.0
O239 O 0.64449 0.68854 0.48235 0.0
H240 H 0.73543 0.7911 0.51919 0.0
H241 H 0.77101 0.80668 0.41974 0.0
H242 H 0.81074 0.82298 0.53399 0.0
H243 H 0.84574 0.83859 0.43629 0.0
H244 H 0.49244 0.71784 0.47497 0.0
H245 H 0.6216 0.8051 0.41261 0.0
H246 H 0.54433 0.69401 0.46832 0.0
H247 H 0.56816 0.82675 0.41994 0.0
H248 H 0.73863 0.9083 0.39206 0.0
H249 H 0.6651 0.82419 0.31563 0.0
H250 H 0.65444 0.76744 0.59317 0.0
H251 H 0.61412 0.83997 0.53686 0.0
H252 H 0.67076 0.63253 0.41765 0.0
H253 H 0.73226 0.75172 0.36882 0.0
H254 H 0.71915 0.61349 0.39057 0.0
H255 H 0.77957 0.73058 0.34255 0.0
H256 H 0.65 0.62064 0.49387 0.0
H257 H 0.57615 0.67996 0.51083 0.0
H258 H 0.59824 0.55908 0.52541 0.0
H259 H 0.52543 0.61724 0.5417 0.0
H260 H 0.76242 0.68721 0.54236 0.0
H261 H 0.83321 0.71819 0.45415 0.0
H262 H 0.47276 0.59631 0.40301 0.0
H263 H 0.53387 0.52834 0.43564 0.0
Li264 Li 0.9809 0.69139 0.62156 0.0
Li265 Li 0.94244 0.61898 0.60526 0.0
Li266 Li 0.92087 0.67233 0.58603 0.0
Li267 Li 0.91086 0.64645 0.64356 0.0
C268 C 0.01012 0.69569 0.56182 0.0
N269 N 0.08558 0.74876 0.53208 0.0
C270 C 0.0454 0.69174 0.56788 0.0
C271 C 0.01303 0.72636 0.5405 0.0
C272 C 0.08334 0.71899 0.55267 0.0
C273 C 0.05152 0.75294 0.52571 0.0
C274 C 0.96723 0.61369 0.66644 0.0
C275 C 0.93977 0.55015 0.69771 0.0
N276 N 0.97946 0.55689 0.7015 0.0
C277 C 1.00779 0.62025 0.67095 0.0
C278 C 0.93297 0.57859 0.68017 0.0
C279 C 0.01331 0.59107 0.68863 0.0
C280 C 0.04117 0.73257 0.66806 0.0
N281 N 0.03478 0.73644 0.63648 0.0
C282 C 0.09882 0.803 0.63444 0.0
C283 C 0.0627 0.77095 0.61954 0.0
C284 C 0.10564 0.79981 0.66717 0.0
C285 C 0.0764 0.76375 0.68384 0.0
H286 H 0.01812 0.70569 0.6814 0.0
H287 H 0.05645 0.77446 0.59484 0.0
C288 C 0.91011 0.53487 0.58331 0.0
N289 N 0.945 0.56937 0.59464 0.0
C290 C 0.90998 0.49709 0.57873 0.0
C291 C 0.98222 0.53134 0.59639 0.0
C292 C 0.98102 0.56852 0.60036 0.0
C293 C 0.94616 0.49465 0.58585 0.0
H294 H 0.88215 0.53649 0.57811 0.0
H295 H 0.00867 0.59653 0.60869 0.0
C296 C 0.95643 0.7454 0.63505 0.0
N297 N 1.00455 0.82882 0.65248 0.0
C298 C 0.96295 0.75659 0.6674 0.0
C299 C 0.97413 0.77658 0.61156 0.0
C300 C 0.98749 0.79895 0.67572 0.0
C301 C 0.99837 0.81861 0.62086 0.0
C302 C 0.84417 0.58431 0.60694 0.0
C303 C 0.81329 0.59084 0.59299 0.0
C304 C 0.83224 0.5476 0.62446 0.0
C305 C 0.77094 0.56073 0.59714 0.0
C306 C 0.78957 0.51827 0.62808 0.0
N307 N 0.76005 0.5254 0.61448 0.0
C308 C 0.88285 0.67091 0.52484 0.0
C309 C 0.87647 0.71096 0.56668 0.0
C310 C 0.85498 0.67709 0.50568 0.0
N311 N 0.89234 0.68724 0.55495 0.0
C312 C 0.84866 0.71781 0.54851 0.0
C313 C 0.83655 0.69977 0.51795 0.0
H314 H 0.89525 0.65145 0.51632 0.0
H315 H 0.88378 0.7229 0.59087 0.0
C316 C 0.89684 0.64528 0.70937 0.0
N317 N 0.87692 0.63648 0.68062 0.0
C318 C 0.87516 0.64288 0.73746 0.0
C319 C 0.81245 0.62121 0.70596 0.0
C320 C 0.83558 0.62482 0.67843 0.0
C321 C 0.83232 0.63096 0.73605 0.0
H322 H 0.93003 0.65556 0.71035 0.0
H323 H 0.82066 0.61939 0.65533 0.0
O324 O 0.9726 0.66904 0.5761 0.0
O325 O 0.96127 0.64183 0.64901 0.0
O326 O 0.93377 0.70401 0.6264 0.0
O327 O 0.8858 0.61356 0.6032 0.0
H328 H 0.04355 0.6681 0.58431 0.0
H329 H 0.98587 0.7296 0.53549 0.0
H330 H 0.111 0.7165 0.55724 0.0
H331 H 0.05432 0.77691 0.50922 0.0
H332 H 0.91351 0.52276 0.70837 0.0
H333 H 0.03469 0.64734 0.66054 0.0
H334 H 0.90151 0.57349 0.67749 0.0
H335 H 0.04449 0.59558 0.69208 0.0
H336 H 0.12035 0.83055 0.62082 0.0
H337 H 0.08053 0.75976 0.70903 0.0
H338 H 0.88177 0.4701 0.56967 0.0
H339 H 0.01085 0.53121 0.60231 0.0
H340 H 0.94966 0.73277 0.68585 0.0
H341 H 0.96965 0.76834 0.58641 0.0
H342 H 0.99309 0.80808 0.70066 0.0
H343 H 0.01248 0.84307 0.60295 0.0
H344 H 0.82182 0.61894 0.57928 0.0
H345 H 0.85564 0.54166 0.63499 0.0
H346 H 0.74673 0.56549 0.5866 0.0
H347 H 0.77992 0.48978 0.64163 0.0
H348 H 0.84624 0.66245 0.4823 0.0
H349 H 0.83565 0.73596 0.55873 0.0
H350 H 0.89232 0.65177 0.75983 0.0
H351 H 0.77947 0.61145 0.70352 0.0
Li352 Li 0.32879 0.93978 0.77193 0.0
Li353 Li 0.29484 0.97824 0.78823 0.0
Li354 Li 0.26973 0.90819 0.81023 0.0
Li355 Li 0.25387 0.91821 0.7527 0.0
C356 C 0.35887 0.96457 0.83311 0.0
N357 N 0.4279 0.9768 0.86817 0.0
C358 C 0.39287 1.00513 0.83762 0.0
C359 C 0.35971 0.93031 0.84684 0.0
C360 C 0.42756 0.01065 0.8553 0.0
C361 C 0.39496 0.93711 0.86438 0.0
C362 C 0.31977 0.00746 0.72849 0.0
C363 C 0.30392 0.04886 0.69238 0.0
N364 N 0.34215 0.08292 0.69875 0.0
C365 C 0.35899 0.04274 0.73455 0.0
C366 C 0.29201 0.01037 0.70717 0.0
C367 C 0.36968 0.08068 0.71934 0.0
C368 C 0.38057 0.90745 0.74998 0.0
N369 N 0.38097 0.94234 0.76131 0.0
C370 C 0.45621 0.97956 0.76306 0.0
C371 C 0.41783 0.97836 0.76703 0.0
C372 C 0.45684 0.9435 0.75252 0.0
C373 C 0.41822 0.90732 0.7454 0.0
H374 H 0.35099 0.87949 0.74478 0.0
H375 H 0.41748 0.00601 0.77536 0.0
C376 C 0.31393 0.03851 0.83473 0.0
N377 N 0.30367 0.03211 0.80315 0.0
C378 C 0.31798 0.07374 0.85051 0.0
C379 C 0.30115 0.09615 0.80111 0.0
C380 C 0.29707 0.06003 0.78621 0.0
C381 C 0.31116 0.10297 0.83384 0.0
H382 H 0.31776 0.01546 0.84807 0.0
H383 H 0.28732 0.05379 0.76151 0.0
C384 C 0.26519 0.84151 0.77361 0.0
N385 N 0.23998 0.75739 0.78115 0.0
C386 C 0.22778 0.81063 0.75966 0.0
C387 C 0.28996 0.82958 0.79113 0.0
C388 C 0.21553 0.76828 0.76381 0.0
C389 C 0.27663 0.78691 0.79474 0.0
C390 C 0.21636 0.95376 0.80172 0.0
C391 C 0.21169 0.96029 0.83407 0.0
C392 C 0.20287 0.97146 0.77822 0.0
C393 C 0.19386 0.98482 0.84239 0.0
C394 C 0.18509 0.9957 0.78753 0.0
N395 N 0.18106 1.00188 0.81915 0.0
C396 C 0.25688 0.89418 0.87604 0.0
C397 C 0.21608 0.83292 0.8451 0.0
C398 C 0.2376 0.87249 0.90413 0.0
N399 N 0.24577 0.87426 0.84729 0.0
C400 C 0.19656 0.80978 0.87263 0.0
C401 C 0.20668 0.82966 0.90272 0.0
H402 H 0.2798 0.92737 0.87702 0.0
H403 H 0.2066 0.818 0.822 0.0
C404 C 0.21727 0.88019 0.69151 0.0
N405 N 0.21042 0.88968 0.72162 0.0
C406 C 0.18322 0.85232 0.67235 0.0
C407 C 0.13618 0.84599 0.71517 0.0
C408 C 0.17084 0.87381 0.73335 0.0
C409 C 0.1421 0.83389 0.68461 0.0
H410 H 0.24913 0.89259 0.68299 0.0
H411 H 0.16621 0.88112 0.75754 0.0
O412 O 0.32477 0.95861 0.81568 0.0
O413 O 0.30888 0.96994 0.74277 0.0
O414 O 0.27757 0.88314 0.76986 0.0
O415 O 0.23508 0.93111 0.79307 0.0
H416 H 0.39268 0.03203 0.82721 0.0
H417 H 0.33335 0.89884 0.84416 0.0
H418 H 0.45424 0.04183 0.85875 0.0
H419 H 0.39607 0.91085 0.87504 0.0
H420 H 0.28275 0.05166 0.67588 0.0
H421 H 0.38079 0.04089 0.75098 0.0
H422 H 0.2616 0.98321 0.70216 0.0
H423 H 0.39984 0.10833 0.72391 0.0
H424 H 0.48497 0.00818 0.76898 0.0
H425 H 0.417 0.87911 0.73634 0.0
H426 H 0.3261 0.07787 0.8757 0.0
H427 H 0.29512 0.11768 0.78749 0.0
H428 H 0.20821 0.81916 0.74595 0.0
H429 H 0.3193 0.85298 0.80166 0.0
H430 H 0.18656 0.74407 0.75327 0.0
H431 H 0.29547 0.77726 0.8083 0.0
H432 H 0.22221 0.94699 0.85252 0.0
H433 H 0.20664 0.96699 0.75308 0.0
H434 H 0.19034 0.99042 0.86733 0.0
H435 H 0.17473 0.00981 0.76962 0.0
H436 H 0.24588 0.88966 0.9265 0.0
H437 H 0.17334 0.77681 0.87019 0.0
H438 H 0.18912 0.84358 0.64897 0.0
H439 H 0.10502 0.83299 0.7254 0.0
Li440 Li 0.39433 0.32613 0.93859 0.0
Li441 Li 0.32192 0.29217 0.9549 0.0
Li442 Li 0.36686 0.26707 0.9769 0.0
Li443 Li 0.34098 0.2512 0.91937 0.0
C444 C 0.39962 0.35621 0.99978 0.0
N445 N 0.45641 0.42523 0.03484 0.0
C446 C 0.39305 0.39021 0.00428 0.0
C447 C 0.43471 0.35704 0.01351 0.0
C448 C 0.42223 0.4249 0.02197 0.0
C449 C 0.46316 0.39229 0.03104 0.0
C450 C 0.31763 0.31709 0.89515 0.0
C451 C 0.26038 0.30125 0.85905 0.0
N452 N 0.26455 0.33948 0.86542 0.0
C453 C 0.32158 0.35632 0.90121 0.0
C454 C 0.28696 0.28934 0.87383 0.0
C455 C 0.29432 0.36701 0.886 0.0
C456 C 0.47844 0.37791 0.91664 0.0
N457 N 0.44395 0.3783 0.92798 0.0
C458 C 0.48197 0.45355 0.92973 0.0
C459 C 0.44479 0.41516 0.9337 0.0
C460 C 0.51866 0.45417 0.91918 0.0
C461 C 0.51622 0.41556 0.91207 0.0
H462 H 0.47682 0.34833 0.91145 0.0
H463 H 0.41678 0.41481 0.94203 0.0
C464 C 0.28073 0.31125 0.00139 0.0
N465 N 0.27687 0.30099 0.96982 0.0
C466 C 0.24955 0.3153 0.01717 0.0
C467 C 0.21031 0.29847 0.96777 0.0
C468 C 0.24236 0.2944 0.95287 0.0
C469 C 0.21349 0.30848 1.00051 0.0
H470 H 0.30762 0.31509 0.01473 0.0
H471 H 0.23885 0.28465 0.92817 0.0
C472 C 0.429 0.26253 0.94028 0.0
N473 N 0.48791 0.23733 0.94782 0.0
C474 C 0.42247 0.22511 0.92632 0.0
C475 C 0.46571 0.2873 0.9578 0.0
C476 C 0.45258 0.21287 0.93048 0.0
C477 C 0.49504 0.27397 0.96142 0.0
C478 C 0.26791 0.21369 0.96839 0.0
C479 C 0.25672 0.20902 1.00073 0.0
C480 C 0.23673 0.2002 0.94489 0.0
C481 C 0.21435 0.19119 0.00906 0.0
C482 C 0.1947 0.18241 0.9542 0.0
N483 N 0.18449 0.17838 0.98581 0.0
C484 C 0.36802 0.25422 0.04271 0.0
C485 C 0.38849 0.21342 0.01177 0.0
C486 C 0.37043 0.23494 0.0708 0.0
N487 N 0.37683 0.24311 0.01396 0.0
C488 C 0.3921 0.1939 0.0393 0.0
C489 C 0.38234 0.20402 0.06939 0.0
H490 H 0.35775 0.27713 0.04369 0.0
H491 H 0.39392 0.20394 0.98867 0.0
C492 C 0.34241 0.2146 0.85818 0.0
N493 N 0.32607 0.20776 0.88829 0.0
C494 C 0.33623 0.18055 0.83901 0.0
C495 C 0.29551 0.13351 0.88184 0.0
C496 C 0.30235 0.16817 0.90002 0.0
C497 C 0.31354 0.13944 0.85128 0.0
H498 H 0.36186 0.24646 0.84965 0.0
H499 H 0.29041 0.16354 0.92421 0.0
O500 O 0.37148 0.32211 0.98235 0.0
O501 O 0.34427 0.30621 0.90944 0.0
O502 O 0.39975 0.27491 0.93653 0.0
O503 O 0.30929 0.23241 0.95974 0.0
H504 H 0.36596 0.39001 0.99387 0.0
H505 H 0.43982 0.33069 0.01083 0.0
H506 H 0.41772 0.45157 0.02541 0.0
H507 H 0.49054 0.39341 0.04171 0.0
H508 H 0.2364 0.28007 0.84255 0.0
H509 H 0.34521 0.37811 0.91765 0.0
H510 H 0.28371 0.25893 0.86882 0.0
H511 H 0.29682 0.39716 0.89057 0.0
H512 H 0.48211 0.48231 0.93565 0.0
H513 H 0.54321 0.41434 0.90301 0.0
H514 H 0.25355 0.32343 0.04236 0.0
H515 H 0.18276 0.29245 0.95415 0.0
H516 H 0.39438 0.20555 0.91262 0.0
H517 H 0.47165 0.31664 0.96833 0.0
H518 H 0.44782 0.18391 0.91994 0.0
H519 H 0.52353 0.29281 0.97497 0.0
H520 H 0.28054 0.21954 0.01919 0.0
H521 H 0.24497 0.20397 0.91974 0.0
H522 H 0.20523 0.18766 0.03399 0.0
H523 H 0.17024 0.17206 0.93628 0.0
H524 H 0.36153 0.24321 0.09317 0.0
H525 H 0.40185 0.17068 0.03686 0.0
H526 H 0.35087 0.18646 0.81563 0.0
H527 H 0.27735 0.10235 0.89207 0.0
Li528 Li 0.69405 0.97824 0.7133 0.0
Li529 Li 0.62164 0.93978 0.7296 0.0
Li530 Li 0.67499 0.91821 0.74883 0.0
Li531 Li 0.64911 0.90819 0.6913 0.0
C532 C 0.69835 0.00745 0.77304 0.0
N533 N 0.75143 0.08292 0.80278 0.0
C534 C 0.6944 0.04274 0.76698 0.0
C535 C 0.72902 0.01037 0.79436 0.0
C536 C 0.72166 0.08067 0.78219 0.0
C537 C 0.7556 0.04885 0.80914 0.0
C538 C 0.61635 0.96457 0.66841 0.0
C539 C 0.55281 0.93711 0.63715 0.0
N540 N 0.55955 0.9768 0.63336 0.0
C541 C 0.62291 1.00513 0.66391 0.0
C542 C 0.58125 0.93031 0.65469 0.0
C543 C 0.59374 0.01065 0.64623 0.0
C544 C 0.73523 0.03851 0.6668 0.0
N545 N 0.7391 0.03211 0.69837 0.0
C546 C 0.80566 0.09616 0.70042 0.0
C547 C 0.77361 0.06003 0.71531 0.0
C548 C 0.80247 0.10298 0.66768 0.0
C549 C 0.76641 0.07374 0.65102 0.0
H550 H 0.70835 0.01545 0.65346 0.0
H551 H 0.77713 0.05379 0.74002 0.0
C552 C 0.53753 0.90745 0.75155 0.0
N553 N 0.57203 0.94234 0.74021 0.0
C554 C 0.49975 0.90732 0.75612 0.0
C555 C 0.534 0.97956 0.73847 0.0
C556 C 0.57119 0.97836 0.7345 0.0
C557 C 0.49731 0.9435 0.74901 0.0
H558 H 0.53915 0.87949 0.75674 0.0
H559 H 0.59919 0.00601 0.72617 0.0
C560 C 0.74806 0.95377 0.6998 0.0
N561 N 0.83148 1.00189 0.68237 0.0
C562 C 0.75925 0.96029 0.66746 0.0
C563 C 0.77925 0.97147 0.7233 0.0
C564 C 0.80161 0.98483 0.65913 0.0
C565 C 0.82127 0.99571 0.71399 0.0
C566 C 0.58697 0.84151 0.72792 0.0
C567 C 0.5935 0.81062 0.74187 0.0
C568 C 0.55027 0.82957 0.7104 0.0
C569 C 0.5634 0.76828 0.73772 0.0
C570 C 0.52093 0.7869 0.70678 0.0
N571 N 0.52807 0.75739 0.72038 0.0
C572 C 0.67357 0.88018 0.81001 0.0
C573 C 0.71363 0.87381 0.76818 0.0
C574 C 0.67975 0.85232 0.82918 0.0
N575 N 0.68991 0.88968 0.77991 0.0
C576 C 0.72048 0.846 0.78635 0.0
C577 C 0.70244 0.83389 0.81691 0.0
H578 H 0.65411 0.89258 0.81854 0.0
H579 H 0.72557 0.88113 0.74398 0.0
C580 C 0.64794 0.89418 0.62548 0.0
N581 N 0.63914 0.87426 0.65424 0.0
C582 C 0.64554 0.87249 0.59739 0.0
C583 C 0.62388 0.80979 0.6289 0.0
C584 C 0.62749 0.83292 0.65643 0.0
C585 C 0.63363 0.82966 0.59881 0.0
H586 H 0.65821 0.92737 0.6245 0.0
H587 H 0.62206 0.818 0.67953 0.0
O588 O 0.67171 0.96994 0.75876 0.0
O589 O 0.64449 0.95861 0.68585 0.0
O590 O 0.70668 0.93111 0.70846 0.0
O591 O 0.61622 0.88314 0.73166 0.0
H592 H 0.67076 0.04089 0.75055 0.0
H593 H 0.73227 0.98321 0.79937 0.0
H594 H 0.71916 0.10833 0.77762 0.0
H595 H 0.77958 0.05166 0.82564 0.0
H596 H 0.52542 0.91085 0.62649 0.0
H597 H 0.65 0.03203 0.67432 0.0
H598 H 0.57615 0.89884 0.65736 0.0
H599 H 0.59824 0.04183 0.64278 0.0
H600 H 0.83321 0.11769 0.71404 0.0
H601 H 0.76242 0.07787 0.62583 0.0
H602 H 0.47276 0.87911 0.76518 0.0
H603 H 0.53387 0.00819 0.73255 0.0
H604 H 0.73543 0.94699 0.649 0.0
H605 H 0.77101 0.967 0.74845 0.0
H606 H 0.81074 0.99042 0.6342 0.0
H607 H 0.84574 0.00982 0.7319 0.0
H608 H 0.6216 0.81916 0.75558 0.0
H609 H 0.54433 0.85297 0.69987 0.0
H610 H 0.56816 0.74407 0.74825 0.0
H611 H 0.49244 0.77725 0.69322 0.0
H612 H 0.66511 0.84358 0.85256 0.0
H613 H 0.73863 0.833 0.77613 0.0
H614 H 0.65443 0.88966 0.57502 0.0
H615 H 0.61412 0.77681 0.63134 0.0
Li616 Li 0.72114 0.69139 0.87996 0.0
Li617 Li 0.68718 0.61898 0.89626 0.0
Li618 Li 0.76211 0.67233 0.91549 0.0
Li619 Li 0.74624 0.64645 0.85796 0.0
C620 C 0.69622 0.69568 0.9397 0.0
N621 N 0.67383 0.74876 0.96944 0.0
C622 C 0.65699 0.69173 0.93365 0.0
C623 C 0.72397 0.72635 0.96102 0.0
C624 C 0.6463 0.71899 0.94886 0.0
C625 C 0.71207 0.75293 0.97581 0.0
C626 C 0.6571 0.61369 0.83508 0.0
C627 C 0.62101 0.55015 0.80382 0.0
N628 N 0.58807 0.5569 0.80002 0.0
C629 C 0.6231 0.62026 0.83058 0.0
C630 C 0.65626 0.57859 0.82135 0.0
C631 C 0.58841 0.59108 0.8129 0.0
C632 C 0.70206 0.73257 0.83346 0.0
N633 N 0.71232 0.73644 0.86504 0.0
C634 C 0.71484 0.803 0.86709 0.0
C635 C 0.71891 0.77095 0.88198 0.0
C636 C 0.70483 0.79981 0.83435 0.0
C637 C 0.69801 0.76376 0.81768 0.0
H638 H 0.69822 0.70569 0.82012 0.0
H639 H 0.72866 0.77446 0.90669 0.0
C640 C 0.6354 0.53487 0.91821 0.0
N641 N 0.63501 0.56936 0.90688 0.0
C642 C 0.59775 0.49708 0.92279 0.0
C643 C 0.55976 0.53134 0.90513 0.0
C644 C 0.59815 0.56852 0.90116 0.0
C645 C 0.55914 0.49465 0.91567 0.0
H646 H 0.66498 0.53649 0.92341 0.0
H647 H 0.5985 0.59653 0.89283 0.0
C648 C 0.79962 0.7454 0.86647 0.0
N649 N 0.83493 0.82882 0.84904 0.0
C650 C 0.80429 0.75659 0.83412 0.0
C651 C 0.81311 0.77658 0.88997 0.0
C652 C 0.82212 0.79895 0.8258 0.0
C653 C 0.83089 0.81861 0.88066 0.0
C654 C 0.75078 0.58431 0.89458 0.0
C655 C 0.7882 0.59084 0.90853 0.0
C656 C 0.72601 0.54761 0.87706 0.0
C657 C 0.80044 0.56073 0.90438 0.0
C658 C 0.73935 0.51827 0.87344 0.0
N659 N 0.77599 0.5254 0.88704 0.0
C660 C 0.79871 0.6709 0.97668 0.0
C661 C 0.84514 0.71096 0.93484 0.0
C662 C 0.83276 0.67708 0.99585 0.0
N663 N 0.80555 0.68724 0.94657 0.0
C664 C 0.8798 0.71781 0.95302 0.0
C665 C 0.87387 0.69977 0.98358 0.0
H666 H 0.76685 0.65145 0.9852 0.0
H667 H 0.84977 0.7229 0.91065 0.0
C668 C 0.75909 0.64528 0.79215 0.0
N669 N 0.77021 0.63648 0.8209 0.0
C670 C 0.77837 0.64288 0.76406 0.0
C671 C 0.81941 0.62121 0.79556 0.0
C672 C 0.79989 0.62483 0.82309 0.0
C673 C 0.80929 0.63097 0.76547 0.0
H674 H 0.73617 0.65555 0.79117 0.0
H675 H 0.80938 0.6194 0.84619 0.0
O676 O 0.7071 0.66904 0.92542 0.0
O677 O 0.6912 0.64183 0.85251 0.0
O678 O 0.7809 0.70402 0.87512 0.0
O679 O 0.7384 0.61356 0.89833 0.0
H680 H 0.63519 0.6681 0.91721 0.0
H681 H 0.75438 0.7296 0.96604 0.0
H682 H 0.61615 0.71649 0.94429 0.0
H683 H 0.73324 0.77691 0.99231 0.0
H684 H 0.61989 0.52277 0.79315 0.0
H685 H 0.6233 0.64735 0.84099 0.0
H686 H 0.68262 0.57349 0.82403 0.0
H687 H 0.56174 0.59559 0.80945 0.0
H688 H 0.72086 0.83055 0.88071 0.0
H689 H 0.68988 0.75976 0.79249 0.0
H690 H 0.59897 0.4701 0.93185 0.0
H691 H 0.531 0.5312 0.89921 0.0
H692 H 0.79377 0.73277 0.81567 0.0
H693 H 0.80934 0.76834 0.91511 0.0
H694 H 0.82565 0.80808 0.80086 0.0
H695 H 0.84125 0.84307 0.89857 0.0
H696 H 0.80776 0.61894 0.92224 0.0
H697 H 0.69667 0.54167 0.86653 0.0
H698 H 0.82941 0.56549 0.91492 0.0
H699 H 0.72051 0.48978 0.85988 0.0
H700 H 0.82685 0.66244 0.01922 0.0
H701 H 0.91096 0.73597 0.94279 0.0
H702 H 0.7701 0.65177 0.74169 0.0
H703 H 0.84263 0.61146 0.798 0.0
Li704 Li 0.10512 0.74358 0.02463 0.0
Li705 Li 0.0951 0.75944 0.08216 0.0
Li706 Li 0.07353 0.68452 0.06293 0.0
Li707 Li 0.03507 0.71847 0.04663 0.0
C708 C 0.1718 0.74812 0.06125 0.0
N709 N 0.25592 0.77333 0.05371 0.0
C710 C 0.20269 0.78553 0.0752 0.0
C711 C 0.18373 0.72335 0.04373 0.0
C712 C 0.24503 0.79778 0.07105 0.0
C713 C 0.2264 0.73669 0.04011 0.0
C714 C 0.05954 0.79695 0.03314 0.0
C715 C 0.01761 0.82822 0.04732 0.0
N716 N 0.01143 0.83225 0.01571 0.0
C717 C 0.05302 0.80162 0.00079 0.0
C718 C 0.04185 0.81044 0.05663 0.0
C719 C 0.02849 0.81945 0.99247 0.0
C720 C 0.11913 0.75643 0.95882 0.0
N721 N 0.13905 0.76754 0.98757 0.0
C722 C 0.20353 0.81675 0.96223 0.0
C723 C 0.18039 0.79723 0.98976 0.0
C724 C 0.18365 0.80663 0.93214 0.0
C725 C 0.14082 0.77571 0.93073 0.0
H726 H 0.08594 0.7335 0.95784 0.0
H727 H 0.19531 0.80671 0.01286 0.0
C728 C 0.13313 0.79604 0.14335 0.0
N729 N 0.12363 0.80288 0.11324 0.0
C730 C 0.16099 0.83009 0.16251 0.0
C731 C 0.16731 0.87713 0.11969 0.0
C732 C 0.1395 0.84247 0.10151 0.0
C733 C 0.17942 0.87121 0.15025 0.0
H734 H 0.12072 0.76418 0.15187 0.0
H735 H 0.13219 0.8471 0.07732 0.0
C736 C 0.04874 0.65443 0.00175 0.0
N737 N 0.0365 0.58541 0.96669 0.0
C738 C 0.00817 0.62044 0.99724 0.0
C739 C 0.083 0.6536 0.98802 0.0
C740 C 1.00266 0.58575 0.97956 0.0
C741 C 0.07619 0.61835 0.97048 0.0
C742 C 1.00585 0.69354 0.10637 0.0
C743 C 0.97057 0.65431 0.10031 0.0
C744 C 1.00294 0.7213 0.12769 0.0
C745 C 0.93263 0.64363 0.11552 0.0
C746 C 0.96445 0.70939 0.14248 0.0
N747 N 0.93039 0.67115 0.13611 0.0
C748 C 0.10586 0.63273 0.08488 0.0
C749 C 0.03495 0.59548 0.06782 0.0
C750 C 0.10599 0.59508 0.08945 0.0
N751 N 0.07097 0.63234 0.07354 0.0
C752 C 0.03375 0.5571 0.0718 0.0
C753 C 0.06981 0.55647 0.08234 0.0
H754 H 0.13382 0.66232 0.09008 0.0
H755 H 1.0073 0.59583 0.0595 0.0
C756 C 0.9748 0.69938 1.00013 0.0
N757 N 0.9812 0.70964 0.03171 0.0
C758 C 0.93957 0.69533 0.98435 0.0
C759 C 0.91716 0.71217 0.03375 0.0
C760 C 0.95328 0.71624 0.04865 0.0
C761 C 0.91034 0.70216 0.00102 0.0
H762 H 0.99785 0.69555 0.98679 0.0
H763 H 0.95952 0.72599 0.07335 0.0
O764 O 0.13017 0.73574 0.06499 0.0
O765 O 0.0822 0.77823 0.04179 0.0
O766 O 0.0547 0.68854 0.01918 0.0
O767 O 0.04337 0.70442 0.09209 0.0
H768 H 0.19415 0.8051 0.08891 0.0
H769 H 0.16033 0.69401 0.0332 0.0
H770 H 0.26924 0.82675 0.08159 0.0
H771 H 0.23605 0.71785 0.02655 0.0
H772 H 1.0035 0.83858 0.06524 0.0
H773 H 0.06632 0.7911 0.98234 0.0
H774 H 0.04632 0.80667 0.08178 0.0
H775 H 0.02289 0.82297 0.96753 0.0
H776 H 0.2365 0.83997 0.96467 0.0
H777 H 0.12365 0.76743 0.90836 0.0
H778 H 0.16973 0.82419 0.18589 0.0
H779 H 0.18032 0.90829 0.10946 0.0
H780 H 0.98128 0.62063 0.00765 0.0
H781 H 0.11446 0.67996 0.99069 0.0
H782 H 0.97148 0.55907 0.97611 0.0
H783 H 0.10246 0.61723 0.95982 0.0
H784 H 0.97242 0.63252 0.08388 0.0
H785 H 0.0301 0.75171 0.1327 0.0
H786 H 0.90497 0.61347 0.11095 0.0
H787 H 0.96165 0.73056 0.15898 0.0
H788 H 0.1342 0.59631 0.09852 0.0
H789 H 1.00512 0.52834 0.06588 0.0
H790 H 0.93544 0.68721 0.95916 0.0
H791 H 0.89563 0.71819 0.04737 0.0
Li792 Li 0.32192 0.03241 0.2133 0.0
Li793 Li 0.39433 0.07087 0.2296 0.0
Li794 Li 0.34098 0.09244 0.24883 0.0
Li795 Li 0.36686 0.10245 0.1913 0.0
C796 C 0.31763 1.00319 0.27304 0.0
N797 N 0.26455 0.92773 0.30278 0.0
C798 C 0.32157 0.96791 0.26698 0.0
C799 C 0.28695 1.00028 0.29436 0.0
C800 C 0.29432 0.92997 0.28219 0.0
C801 C 0.26037 0.96179 0.30915 0.0
C802 C 0.39962 0.04608 0.16841 0.0
C803 C 0.46316 0.07353 0.13715 0.0
N804 N 0.45642 0.03384 0.13336 0.0
C805 C 0.39306 0.00551 0.16391 0.0
C806 C 0.43472 0.08033 0.15469 0.0
C807 C 0.42223 1.0 0.14623 0.0
C808 C 0.28074 0.97214 0.1668 0.0
N809 N 0.27687 0.97853 0.19837 0.0
C810 C 0.21031 0.91449 0.20042 0.0
C811 C 0.24236 0.95061 0.21532 0.0
C812 C 0.2135 0.90767 0.16768 0.0
C813 C 0.24955 0.93691 0.15102 0.0
H814 H 0.30762 0.99519 0.15346 0.0
H815 H 0.23885 0.95686 0.24002 0.0
C816 C 0.47844 0.1032 0.25155 0.0
N817 N 0.44395 0.06831 0.24021 0.0
C818 C 0.51623 0.10333 0.25612 0.0
C819 C 0.48197 0.03109 0.23847 0.0
C820 C 0.44479 0.03229 0.2345 0.0
C821 C 0.51866 0.06715 0.24901 0.0
H822 H 0.47683 0.13116 0.25674 0.0
H823 H 0.41678 1.00464 0.22617 0.0
C824 C 0.26791 0.05688 0.1998 0.0
N825 N 0.18449 0.00876 0.18237 0.0
C826 C 0.25672 0.05036 0.16746 0.0
C827 C 0.23673 0.03918 0.2233 0.0
C828 C 0.21436 0.02582 0.15913 0.0
C829 C 0.1947 0.01494 0.21399 0.0
C830 C 0.429 0.16914 0.22792 0.0
C831 C 0.42247 0.20002 0.24187 0.0
C832 C 0.4657 0.18107 0.2104 0.0
C833 C 0.45257 0.24237 0.23772 0.0
C834 C 0.49504 0.22374 0.20678 0.0
N835 N 0.48791 0.25325 0.22037 0.0
C836 C 0.3424 0.13046 0.31002 0.0
C837 C 0.30235 0.13684 0.26818 0.0
C838 C 0.33622 0.15833 0.32918 0.0
N839 N 0.32607 0.12097 0.27991 0.0
C840 C 0.2955 0.16465 0.28635 0.0
C841 C 0.31353 0.17676 0.31691 0.0
H842 H 0.36186 0.11806 0.31854 0.0
H843 H 0.29041 0.12952 0.24399 0.0
C844 C 0.36803 0.11647 0.12548 0.0
N845 N 0.37683 0.13639 0.15424 0.0
C846 C 0.37043 0.13816 0.09739 0.0
C847 C 0.39209 0.20086 0.1289 0.0
C848 C 0.38848 0.17773 0.15643 0.0
C849 C 0.38234 0.18099 0.09881 0.0
H850 H 0.35776 0.08328 0.1245 0.0
H851 H 0.39391 0.19265 0.17953 0.0
O852 O 0.34427 0.04071 0.25876 0.0
O853 O 0.37148 0.05204 0.18585 0.0
O854 O 0.30929 0.07954 0.20846 0.0
O855 O 0.39975 0.12751 0.23166 0.0
H856 H 0.34521 0.96976 0.25055 0.0
H857 H 0.28371 0.02744 0.29937 0.0
H858 H 0.29682 0.90231 0.27762 0.0
H859 H 0.2364 0.95899 0.32564 0.0
H860 H 0.49055 0.09979 0.12649 0.0
H861 H 0.36597 0.97862 0.17432 0.0
H862 H 0.43982 0.1118 0.15736 0.0
H863 H 0.41773 0.96882 0.14279 0.0
H864 H 0.18276 0.89296 0.21404 0.0
H865 H 0.25355 0.93278 0.12583 0.0
H866 H 0.54321 0.13154 0.26518 0.0
H867 H 0.4821 1.00246 0.23255 0.0
H868 H 0.28054 0.06366 0.14901 0.0
H869 H 0.24496 0.04365 0.24845 0.0
H870 H 0.20523 0.02023 0.1342 0.0
H871 H 0.17023 1.00083 0.2319 0.0
H872 H 0.39437 0.19149 0.25558 0.0
H873 H 0.47164 0.15767 0.19987 0.0
H874 H 0.44781 0.26658 0.24825 0.0
H875 H 0.52353 0.2334 0.19322 0.0
H876 H 0.35086 0.16707 0.35256 0.0
H877 H 0.27734 0.17765 0.27613 0.0
H878 H 0.36154 0.12099 0.07502 0.0
H879 H 0.40185 0.23383 0.13134 0.0
Li880 Li 0.32879 0.39167 0.39626 0.0
Li881 Li 0.29483 0.31925 0.37996 0.0
Li882 Li 0.26973 0.36419 0.35796 0.0
Li883 Li 0.25386 0.33832 0.41549 0.0
C884 C 0.35887 0.39696 0.33508 0.0
N885 N 0.4279 0.45375 0.30002 0.0
C886 C 0.39287 0.39039 0.33057 0.0
C887 C 0.35971 0.43205 0.32135 0.0
C888 C 0.42756 0.41957 0.31289 0.0
C889 C 0.39496 0.4605 0.30381 0.0
C890 C 0.31976 0.31497 0.4397 0.0
C891 C 0.30391 0.25772 0.47581 0.0
N892 N 0.34214 0.26189 0.46944 0.0
C893 C 0.35899 0.31891 0.43365 0.0
C894 C 0.292 0.28429 0.46102 0.0
C895 C 0.36967 0.29166 0.44886 0.0
C896 C 0.38057 0.47578 0.41821 0.0
N897 N 0.38096 0.44128 0.40688 0.0
C898 C 0.45621 0.47931 0.40513 0.0
C899 C 0.41783 0.44213 0.40116 0.0
C900 C 0.45684 0.516 0.41567 0.0
C901 C 0.41822 0.51356 0.42279 0.0
H902 H 0.35099 0.47416 0.42341 0.0
H903 H 0.41747 0.41412 0.39283 0.0
C904 C 0.31392 0.27807 0.33346 0.0
N905 N 0.30366 0.27421 0.36504 0.0
C906 C 0.31797 0.24689 0.31768 0.0
C907 C 0.30114 0.20765 0.36709 0.0
C908 C 0.29707 0.2397 0.38198 0.0
C909 C 0.31114 0.21083 0.33435 0.0
H910 H 0.31775 0.30496 0.32012 0.0
H911 H 0.28731 0.23619 0.40669 0.0
C912 C 0.26519 0.42634 0.39458 0.0
N913 N 0.23998 0.48525 0.38704 0.0
C914 C 0.22777 0.41981 0.40853 0.0
C915 C 0.28996 0.46304 0.37706 0.0
C916 C 0.21553 0.44991 0.40438 0.0
C917 C 0.27663 0.49238 0.37344 0.0
C918 C 0.21635 0.26525 0.36647 0.0
C919 C 0.21168 0.25406 0.33412 0.0
C920 C 0.20286 0.23406 0.38997 0.0
C921 C 0.19385 0.21169 0.3258 0.0
C922 C 0.18508 0.19204 0.38066 0.0
N923 N 0.18105 0.18183 0.34904 0.0
C924 C 0.25688 0.36536 0.29215 0.0
C925 C 0.21608 0.38582 0.32309 0.0
C926 C 0.2376 0.36777 0.26406 0.0
N927 N 0.24577 0.37417 0.3209 0.0
C928 C 0.19656 0.38943 0.29556 0.0
C929 C 0.20668 0.37968 0.26547 0.0
H930 H 0.2798 0.35509 0.29117 0.0
H931 H 0.2066 0.39125 0.34619 0.0
C932 C 0.21727 0.33974 0.47668 0.0
N933 N 0.21042 0.3234 0.44657 0.0
C934 C 0.18322 0.33356 0.49585 0.0
C935 C 0.13617 0.29284 0.45302 0.0
C936 C 0.17083 0.29969 0.43484 0.0
C937 C 0.1421 0.31087 0.48358 0.0
H938 H 0.24912 0.3592 0.4852 0.0
H939 H 0.1662 0.28774 0.41065 0.0
O940 O 0.32477 0.36882 0.35251 0.0
O941 O 0.30888 0.3416 0.42542 0.0
O942 O 0.27757 0.39709 0.39833 0.0
O943 O 0.23508 0.30663 0.37512 0.0
H944 H 0.39267 0.3633 0.34098 0.0
H945 H 0.33335 0.43716 0.32403 0.0
H946 H 0.45424 0.41506 0.30945 0.0
H947 H 0.39608 0.48788 0.29315 0.0
H948 H 0.28273 0.23374 0.49231 0.0
H949 H 0.38078 0.34255 0.41721 0.0
H950 H 0.26159 0.28105 0.46604 0.0
H951 H 0.39983 0.29416 0.44429 0.0
H952 H 0.48497 0.47944 0.39921 0.0
H953 H 0.417 0.54055 0.43185 0.0
H954 H 0.32609 0.25089 0.2925 0.0
H955 H 0.29512 0.1801 0.38071 0.0
H956 H 0.20821 0.39171 0.42224 0.0
H957 H 0.3193 0.46898 0.36653 0.0
H958 H 0.18656 0.44515 0.41492 0.0
H959 H 0.29547 0.52087 0.35988 0.0
H960 H 0.22221 0.27788 0.31567 0.0
H961 H 0.20663 0.2423 0.41512 0.0
H962 H 0.19033 0.20257 0.30086 0.0
H963 H 0.17472 0.16757 0.39857 0.0
H964 H 0.24587 0.35888 0.24169 0.0
H965 H 0.17334 0.39919 0.298 0.0
H966 H 0.18912 0.3482 0.51922 0.0
H967 H 0.10501 0.27468 0.44279 0.0
Li968 Li 0.9809 0.29217 0.54663 0.0
Li969 Li 0.94244 0.32613 0.56293 0.0
Li970 Li 0.92087 0.25121 0.58216 0.0
Li971 Li 0.91086 0.26707 0.52463 0.0
C972 C 0.01012 0.3171 0.60637 0.0
N973 N 0.08558 0.33949 0.63611 0.0
C974 C 0.0454 0.35633 0.60031 0.0
C975 C 0.01303 0.28935 0.62769 0.0
C976 C 0.08334 0.36702 0.61552 0.0
C977 C 0.05152 0.30126 0.64248 0.0
C978 C 0.96724 0.35621 0.50174 0.0
C979 C 0.93979 0.3923 0.47048 0.0
N980 N 0.97947 0.42524 0.46669 0.0
C981 C 1.0078 0.39021 0.49724 0.0
C982 C 0.93298 0.35705 0.48802 0.0
C983 C 0.01332 0.4249 0.47956 0.0
C984 C 0.04117 0.31126 0.50013 0.0
N985 N 0.03478 0.301 0.53171 0.0
C986 C 0.09881 0.29848 0.53375 0.0
C987 C 0.06269 0.29441 0.54865 0.0
C988 C 0.10563 0.30849 0.50102 0.0
C989 C 0.0764 0.31531 0.48435 0.0
H990 H 0.01812 0.31509 0.48679 0.0
H991 H 0.05645 0.28466 0.57335 0.0
C992 C 0.91012 0.37791 0.58488 0.0
N993 N 0.94501 0.37831 0.57354 0.0
C994 C 0.90998 0.41556 0.58945 0.0
C995 C 0.98222 0.45355 0.5718 0.0
C996 C 0.98103 0.41517 0.56782 0.0
C997 C 0.94616 0.45418 0.58234 0.0
H998 H 0.88215 0.34833 0.59007 0.0
H999 H 0.00868 0.41482 0.5595 0.0
C1000 C 0.95643 0.2137 0.53314 0.0
N1001 N 1.00454 0.17839 0.51571 0.0
C1002 C 0.96295 0.20903 0.50079 0.0
C1003 C 0.97412 0.20021 0.55663 0.0
C1004 C 0.98748 0.1912 0.49247 0.0
C1005 C 0.99836 0.18242 0.54733 0.0
C1006 C 0.84417 0.26253 0.56125 0.0
C1007 C 0.81329 0.22511 0.5752 0.0
C1008 C 0.83224 0.2873 0.54373 0.0
C1009 C 0.77094 0.21287 0.57105 0.0
C1010 C 0.78957 0.27396 0.54011 0.0
N1011 N 0.76006 0.23732 0.5537 0.0
C1012 C 0.88285 0.21461 0.64335 0.0
C1013 C 0.87647 0.16818 0.60151 0.0
C1014 C 0.85498 0.18056 0.66251 0.0
N1015 N 0.89234 0.20776 0.61324 0.0
C1016 C 0.84865 0.13351 0.61968 0.0
C1017 C 0.83655 0.13944 0.65024 0.0
H1018 H 0.89525 0.24646 0.65187 0.0
H1019 H 0.88378 0.16355 0.57732 0.0
C1020 C 0.89684 0.25422 0.45882 0.0
N1021 N 0.87692 0.24311 0.48757 0.0
C1022 C 0.87515 0.23494 0.43073 0.0
C1023 C 0.81245 0.1939 0.46223 0.0
C1024 C 0.83558 0.21342 0.48976 0.0
C1025 C 0.83232 0.20402 0.43214 0.0
H1026 H 0.93003 0.27714 0.45784 0.0
H1027 H 0.82066 0.20393 0.51286 0.0
O1028 O 0.9726 0.30622 0.59209 0.0
O1029 O 0.96128 0.32211 0.51918 0.0
O1030 O 0.93377 0.23242 0.54179 0.0
O1031 O 0.8858 0.27491 0.56499 0.0
H1032 H 0.04355 0.37812 0.58388 0.0
H1033 H 0.98587 0.25894 0.6327 0.0
H1034 H 0.111 0.39717 0.61095 0.0
H1035 H 0.05432 0.28008 0.65898 0.0
H1036 H 0.91352 0.39342 0.45982 0.0
H1037 H 0.0347 0.39002 0.50765 0.0
H1038 H 0.90151 0.33069 0.49069 0.0
H1039 H 0.0445 0.45158 0.47611 0.0
H1040 H 0.12035 0.29246 0.54737 0.0
H1041 H 0.08053 0.32343 0.45916 0.0
H1042 H 0.88177 0.41434 0.59851 0.0
H1043 H 0.01085 0.48231 0.56588 0.0
H1044 H 0.94965 0.21955 0.48234 0.0
H1045 H 0.96965 0.20398 0.58178 0.0
H1046 H 0.99308 0.18767 0.46753 0.0
H1047 H 0.01247 0.17207 0.56524 0.0
H1048 H 0.82182 0.20555 0.58891 0.0
H1049 H 0.85564 0.31664 0.5332 0.0
H1050 H 0.74673 0.1839 0.58158 0.0
H1051 H 0.77992 0.2928 0.52655 0.0
H1052 H 0.84625 0.18646 0.68589 0.0
H1053 H 0.83565 0.10235 0.60946 0.0
H1054 H 0.89232 0.24322 0.40836 0.0
H1055 H 0.77947 0.17068 0.46467 0.0
loop_
_geom_bond_atom_site_label_1
_geom_bond_atom_site_label_2
_geom_bond_distance
_geom_bond_site_symmetry_2
_ccdc_geom_bond_type
Li0 N17 1.990 . S
Li0 O60 1.956 . S
Li0 O61 1.970 . S
Li0 O62 1.961 . S
Li1 N25 1.990 . S
Li1 O60 1.970 . S
Li1 O61 1.956 . S
Li1 O63 1.961 . S
Li2 N47 1.990 1_455 S
Li2 O60 1.961 . S
Li2 O62 1.956 . S
Li2 O63 1.970 . S
Li3 N53 1.990 . S
Li3 O61 1.961 . S
Li3 O62 1.970 . S
Li3 O63 1.956 . S
C4 C6 1.348 . S
C4 C7 1.356 . S
C4 O60 1.325 . S
N5 C8 1.314 . S
N5 C9 1.279 . S
C6 C4 1.348 . S
C6 C8 1.353 . S
C6 H64 0.929 . S
C7 C4 1.356 . S
C7 C9 1.358 . S
C7 H65 0.930 . S
C8 N5 1.314 . S
C8 C6 1.353 . S
C8 H66 0.930 . S
C9 N5 1.279 . S
C9 C7 1.358 . S
C9 H67 0.930 . S
C10 C13 1.348 . S
C10 C14 1.356 . S
C10 O61 1.325 . S
C11 N12 1.279 . S
C11 C14 1.358 . S
C11 H68 0.930 . S
N12 C11 1.279 . S
N12 C15 1.314 . S
C13 C10 1.348 . S
C13 C15 1.353 . S
C13 H69 0.929 . S
C14 C10 1.356 . S
C14 C11 1.358 . S
C14 H70 0.930 . S
C15 N12 1.314 . S
C15 C13 1.353 . S
C15 H71 0.930 . S
C16 N17 1.314 . S
C16 C21 1.353 1_554 S
C16 H22 0.930 . S
N17 Li0 1.990 . S
N17 C16 1.314 . S
N17 C19 1.279 . S
C18 C19 1.358 . S
C18 C20 1.356 1_554 S
C18 H72 0.930 . S
C19 N17 1.279 . S
C19 C18 1.358 . S
C19 H23 0.930 . S
C20 C18 1.356 1_556 S
C20 C21 1.348 . S
C21 C16 1.353 1_556 S
C21 C20 1.348 . S
C21 H73 0.929 . S
H22 C16 0.930 . S
H23 C19 0.930 . S
C24 N25 1.314 . S
C24 C26 1.353 . S
C24 H30 0.930 . S
N25 Li1 1.990 . S
N25 C24 1.314 . S
N25 C28 1.279 . S
C26 C24 1.353 . S
C26 C29 1.348 . S
C26 H74 0.929 . S
C27 C28 1.358 . S
C27 C29 1.356 . S
C27 H75 0.930 . S
C28 N25 1.279 . S
C28 C27 1.358 . S
C28 H31 0.930 . S
C29 C26 1.348 . S
C29 C27 1.356 . S
H30 C24 0.930 . S
H31 C28 0.930 . S
C32 C34 1.348 . S
C32 C35 1.356 . S
C32 O62 1.325 . S
N33 C36 1.314 1_556 S
N33 C37 1.279 1_556 S
C34 C32 1.348 . S
C34 C36 1.353 1_455 S
C34 H76 0.929 . S
C35 C32 1.356 . S
C35 C37 1.358 1_455 S
C35 H77 0.930 . S
C36 N33 1.314 1_554 S
C36 C34 1.353 1_655 S
C36 H78 0.930 . S
C37 N33 1.279 1_554 S
C37 C35 1.358 1_655 S
C37 H79 0.930 1_554 S
C38 C39 1.343 1_455 S
C38 C40 1.356 . S
C38 O63 1.325 . S
C39 C38 1.343 1_655 S
C39 C41 1.356 . S
C39 H80 0.931 . S
C40 C38 1.356 . S
C40 C42 1.358 . S
C40 H81 0.930 . S
C41 C39 1.356 . S
C41 N43 1.314 1_655 S
C41 H82 0.930 . S
C42 C40 1.358 . S
C42 N43 1.279 . S
C42 H83 0.930 . S
N43 C41 1.314 1_455 S
N43 C42 1.279 . S
C44 C46 1.353 . S
C44 N47 1.314 . S
C44 H50 0.930 . S
C45 N47 1.279 . S
C45 C48 1.358 . S
C45 H51 0.930 . S
C46 C44 1.353 . S
C46 C49 1.348 . S
C46 H84 0.929 . S
N47 Li2 1.990 1_655 S
N47 C44 1.314 . S
N47 C45 1.279 . S
C48 C45 1.358 . S
C48 C49 1.356 . S
C48 H85 0.930 . S
C49 C46 1.348 . S
C49 C48 1.356 . S
H50 C44 0.930 . S
H51 C45 0.930 . S
C52 N53 1.314 . S
C52 C54 1.353 . S
C52 H58 0.930 . S
N53 Li3 1.990 . S
N53 C52 1.314 . S
N53 C56 1.279 . S
C54 C52 1.353 . S
C54 C57 1.348 . S
C54 H86 0.929 . S
C55 C56 1.358 . S
C55 C57 1.356 . S
C55 H87 0.930 . S
C56 N53 1.279 . S
C56 C55 1.358 . S
C56 H59 0.930 . S
C57 C54 1.348 . S
C57 C55 1.356 . S
H58 C52 0.930 . S
H59 C56 0.930 . S
O60 Li0 1.956 . S
O60 Li1 1.970 . S
O60 Li2 1.961 . S
O60 C4 1.325 . S
O61 Li0 1.970 . S
O61 Li1 1.956 . S
O61 Li3 1.961 . S
O61 C10 1.325 . S
O62 Li0 1.961 . S
O62 Li2 1.956 . S
O62 Li3 1.970 . S
O62 C32 1.325 . S
O63 Li1 1.961 . S
O63 Li2 1.970 . S
O63 Li3 1.956 . S
O63 C38 1.325 . S
H64 C6 0.929 . S
H65 C7 0.930 . S
H66 C8 0.930 . S
H67 C9 0.930 . S
H68 C11 0.930 . S
H69 C13 0.929 . S
H70 C14 0.930 . S
H71 C15 0.930 . S
H72 C18 0.930 . S
H73 C21 0.929 . S
H74 C26 0.929 . S
H75 C27 0.930 . S
H76 C34 0.929 . S
H77 C35 0.930 . S
H78 C36 0.930 . S
H79 C37 0.930 1_556 S
H80 C39 0.931 . S
H81 C40 0.930 . S
H82 C41 0.930 . S
H83 C42 0.930 . S
H84 C46 0.929 . S
H85 C48 0.930 . S
H86 C54 0.929 . S
H87 C55 0.930 . S
Li88 N105 1.990 . S
Li88 O148 1.956 . S
Li88 O149 1.970 . S
Li88 O150 1.961 . S
Li89 N113 1.990 . S
Li89 O148 1.970 . S
Li89 O149 1.956 . S
Li89 O151 1.961 . S
Li90 N135 1.990 1_545 S
Li90 O148 1.961 . S
Li90 O150 1.956 . S
Li90 O151 1.970 . S
Li91 N141 1.990 . S
Li91 O149 1.961 . S
Li91 O150 1.970 . S
Li91 O151 1.956 . S
C92 C94 1.348 . S
C92 C95 1.356 . S
C92 O148 1.325 . S
N93 C96 1.314 . S
N93 C97 1.279 . S
C94 C92 1.348 . S
C94 C96 1.353 . S
C94 H152 0.929 . S
C95 C92 1.356 . S
C95 C97 1.358 . S
C95 H153 0.930 . S
C96 N93 1.314 . S
C96 C94 1.353 . S
C96 H154 0.930 . S
C97 N93 1.279 . S
C97 C95 1.358 . S
C97 H155 0.930 . S
C98 C101 1.348 . S
C98 C102 1.356 . S
C98 O149 1.325 . S
C99 N100 1.279 . S
C99 C102 1.358 . S
C99 H156 0.930 . S
N100 C99 1.279 . S
N100 C103 1.314 . S
C101 C98 1.348 . S
C101 C103 1.353 . S
C101 H157 0.929 . S
C102 C98 1.356 . S
C102 C99 1.358 . S
C102 H158 0.930 . S
C103 N100 1.314 . S
C103 C101 1.353 . S
C103 H159 0.930 . S
C104 N105 1.314 . S
C104 C109 1.353 . S
C104 H110 0.930 . S
N105 Li88 1.990 . S
N105 C104 1.314 . S
N105 C107 1.279 . S
C106 C107 1.358 . S
C106 C108 1.356 . S
C106 H160 0.930 . S
C107 N105 1.279 . S
C107 C106 1.358 . S
C107 H111 0.930 . S
C108 C106 1.356 . S
C108 C109 1.348 . S
C109 C104 1.353 . S
C109 C108 1.348 . S
C109 H161 0.929 . S
H110 C104 0.930 . S
H111 C107 0.930 . S
C112 N113 1.314 . S
C112 C114 1.353 . S
C112 H118 0.930 . S
N113 Li89 1.990 . S
N113 C112 1.314 . S
N113 C116 1.279 . S
C114 C112 1.353 . S
C114 C117 1.348 . S
C114 H162 0.929 . S
C115 C116 1.358 . S
C115 C117 1.356 . S
C115 H163 0.930 . S
C116 N113 1.279 . S
C116 C115 1.358 . S
C116 H119 0.930 . S
C117 C114 1.348 . S
C117 C115 1.356 . S
H118 C112 0.930 . S
H119 C116 0.930 . S
C120 C122 1.348 . S
C120 C123 1.356 . S
C120 O150 1.325 . S
N121 C124 1.314 . S
N121 C125 1.279 . S
C122 C120 1.348 . S
C122 C124 1.353 1_545 S
C122 H164 0.929 . S
C123 C120 1.356 . S
C123 C125 1.358 1_545 S
C123 H165 0.930 . S
C124 N121 1.314 . S
C124 C122 1.353 1_565 S
C124 H166 0.930 . S
C125 N121 1.279 . S
C125 C123 1.358 1_565 S
C125 H167 0.930 . S
C126 C127 1.344 1_545 S
C126 C128 1.356 . S
C126 O151 1.325 . S
C127 C126 1.344 1_565 S
C127 C129 1.353 . S
C127 H168 0.933 . S
C128 C126 1.356 . S
C128 C130 1.358 . S
C128 H169 0.930 . S
C129 C127 1.353 . S
C129 N131 1.314 1_565 S
C129 H170 0.930 . S
C130 C128 1.358 . S
C130 N131 1.279 . S
C130 H171 0.930 . S
N131 C129 1.314 1_545 S
N131 C130 1.279 . S
C132 C134 1.353 . S
C132 N135 1.314 . S
C132 H138 0.930 . S
C133 N135 1.279 . S
C133 C136 1.358 . S
C133 H139 0.930 . S
C134 C132 1.353 . S
C134 C137 1.348 . S
C134 H172 0.929 . S
N135 Li90 1.990 1_565 S
N135 C132 1.314 . S
N135 C133 1.279 . S
C136 C133 1.358 . S
C136 C137 1.356 . S
C136 H173 0.930 . S
C137 C134 1.348 . S
C137 C136 1.356 . S
H138 C132 0.930 . S
H139 C133 0.930 . S
C140 N141 1.314 . S
C140 C142 1.353 . S
C140 H146 0.930 . S
N141 Li91 1.990 . S
N141 C140 1.314 . S
N141 C144 1.279 . S
C142 C140 1.353 . S
C142 C145 1.348 . S
C142 H174 0.929 . S
C143 C144 1.358 . S
C143 C145 1.356 . S
C143 H175 0.930 . S
C144 N141 1.279 . S
C144 C143 1.358 . S
C144 H147 0.930 . S
C145 C142 1.348 . S
C145 C143 1.356 . S
H146 C140 0.930 . S
H147 C144 0.930 . S
O148 Li88 1.956 . S
O148 Li89 1.970 . S
O148 Li90 1.961 . S
O148 C92 1.325 . S
O149 Li88 1.970 . S
O149 Li89 1.956 . S
O149 Li91 1.961 . S
O149 C98 1.325 . S
O150 Li88 1.961 . S
O150 Li90 1.956 . S
O150 Li91 1.970 . S
O150 C120 1.325 . S
O151 Li89 1.961 . S
O151 Li90 1.970 . S
O151 Li91 1.956 . S
O151 C126 1.325 . S
H152 C94 0.929 . S
H153 C95 0.930 . S
H154 C96 0.930 . S
H155 C97 0.930 . S
H156 C99 0.930 . S
H157 C101 0.929 . S
H158 C102 0.930 . S
H159 C103 0.930 . S
H160 C106 0.930 . S
H161 C109 0.929 . S
H162 C114 0.929 . S
H163 C115 0.930 . S
H164 C122 0.929 . S
H165 C123 0.930 . S
H166 C124 0.930 . S
H167 C125 0.930 . S
H168 C127 0.933 . S
H169 C128 0.930 . S
H170 C129 0.930 . S
H171 C130 0.930 . S
H172 C134 0.929 . S
H173 C136 0.930 . S
H174 C142 0.929 . S
H175 C143 0.930 . S
Li176 N193 1.990 . S
Li176 O236 1.956 . S
Li176 O237 1.970 . S
Li176 O238 1.961 . S
Li177 N201 1.990 . S
Li177 O236 1.970 . S
Li177 O237 1.956 . S
Li177 O239 1.961 . S
Li178 N223 1.990 . S
Li178 O236 1.961 . S
Li178 O238 1.956 . S
Li178 O239 1.970 . S
Li179 N229 1.990 . S
Li179 O237 1.961 . S
Li179 O238 1.970 . S
Li179 O239 1.956 . S
C180 C182 1.348 . S
C180 C183 1.356 . S
C180 O236 1.325 . S
N181 C184 1.314 . S
N181 C185 1.279 . S
C182 C180 1.348 . S
C182 C184 1.353 . S
C182 H240 0.929 . S
C183 C180 1.356 . S
C183 C185 1.358 . S
C183 H241 0.930 . S
C184 N181 1.314 . S
C184 C182 1.353 . S
C184 H242 0.930 . S
C185 N181 1.279 . S
C185 C183 1.358 . S
C185 H243 0.930 . S
C186 C189 1.348 . S
C186 C190 1.356 . S
C186 O237 1.325 . S
C187 N188 1.279 . S
C187 C190 1.358 . S
C187 H244 0.930 . S
N188 C187 1.279 . S
N188 C191 1.314 . S
C189 C186 1.348 . S
C189 C191 1.353 . S
C189 H245 0.929 . S
C190 C186 1.356 . S
C190 C187 1.358 . S
C190 H246 0.930 . S
C191 N188 1.314 . S
C191 C189 1.353 . S
C191 H247 0.930 . S
C192 N193 1.314 . S
C192 C197 1.353 . S
C192 H198 0.930 . S
N193 Li176 1.990 . S
N193 C192 1.314 . S
N193 C195 1.279 . S
C194 C195 1.358 . S
C194 C196 1.356 . S
C194 H248 0.930 . S
C195 N193 1.279 . S
C195 C194 1.358 . S
C195 H199 0.930 . S
C196 C194 1.356 . S
C196 C197 1.348 . S
C197 C192 1.353 . S
C197 C196 1.348 . S
C197 H249 0.929 . S
H198 C192 0.930 . S
H199 C195 0.930 . S
C200 N201 1.314 . S
C200 C202 1.353 . S
C200 H206 0.930 . S
N201 Li177 1.990 . S
N201 C200 1.314 . S
N201 C204 1.279 . S
C202 C200 1.353 . S
C202 C205 1.348 . S
C202 H250 0.929 . S
C203 C204 1.358 . S
C203 C205 1.356 . S
C203 H251 0.930 . S
C204 N201 1.279 . S
C204 C203 1.358 . S
C204 H207 0.930 . S
C205 C202 1.348 . S
C205 C203 1.356 . S
H206 C200 0.930 . S
H207 C204 0.930 . S
C208 C210 1.348 . S
C208 C211 1.356 . S
C208 O238 1.325 . S
N209 C212 1.314 . S
N209 C213 1.279 . S
C210 C208 1.348 . S
C210 C212 1.353 . S
C210 H252 0.929 . S
C211 C208 1.356 . S
C211 C213 1.358 . S
C211 H253 0.930 . S
C212 N209 1.314 . S
C212 C210 1.353 . S
C212 H254 0.930 . S
C213 N209 1.279 . S
C213 C211 1.358 . S
C213 H255 0.930 . S
C214 C215 1.348 . S
C214 C216 1.356 . S
C214 O239 1.325 . S
C215 C214 1.348 . S
C215 C217 1.353 . S
C215 H256 0.929 . S
C216 C214 1.356 . S
C216 C218 1.358 . S
C216 H257 0.930 . S
C217 C215 1.353 . S
C217 N219 1.314 . S
C217 H258 0.930 . S
C218 C216 1.358 . S
C218 N219 1.279 . S
C218 H259 0.930 . S
N219 C217 1.314 . S
N219 C218 1.279 . S
C220 C222 1.353 . S
C220 N223 1.314 . S
C220 H226 0.930 . S
C221 N223 1.279 . S
C221 C224 1.358 . S
C221 H227 0.930 . S
C222 C220 1.353 . S
C222 C225 1.348 . S
C222 H260 0.929 . S
N223 Li178 1.990 . S
N223 C220 1.314 . S
N223 C221 1.279 . S
C224 C221 1.358 . S
C224 C225 1.356 . S
C224 H261 0.930 . S
C225 C222 1.348 . S
C225 C224 1.356 . S
H226 C220 0.930 . S
H227 C221 0.930 . S
C228 N229 1.314 . S
C228 C230 1.353 . S
C228 H234 0.930 . S
N229 Li179 1.990 . S
N229 C228 1.314 . S
N229 C232 1.279 . S
C230 C228 1.353 . S
C230 C233 1.348 . S
C230 H262 0.929 . S
C231 C232 1.358 . S
C231 C233 1.356 . S
C231 H263 0.930 . S
C232 N229 1.279 . S
C232 C231 1.358 . S
C232 H235 0.930 . S
C233 C230 1.348 . S
C233 C231 1.356 . S
H234 C228 0.930 . S
H235 C232 0.930 . S
O236 Li176 1.956 . S
O236 Li177 1.970 . S
O236 Li178 1.961 . S
O236 C180 1.325 . S
O237 Li176 1.970 . S
O237 Li177 1.956 . S
O237 Li179 1.961 . S
O237 C186 1.325 . S
O238 Li176 1.961 . S
O238 Li178 1.956 . S
O238 Li179 1.970 . S
O238 C208 1.325 . S
O239 Li177 1.961 . S
O239 Li178 1.970 . S
O239 Li179 1.956 . S
O239 C214 1.325 . S
H240 C182 0.929 . S
H241 C183 0.930 . S
H242 C184 0.930 . S
H243 C185 0.930 . S
H244 C187 0.930 . S
H245 C189 0.929 . S
H246 C190 0.930 . S
H247 C191 0.930 . S
H248 C194 0.930 . S
H249 C197 0.929 . S
H250 C202 0.929 . S
H251 C203 0.930 . S
H252 C210 0.929 . S
H253 C211 0.930 . S
H254 C212 0.930 . S
H255 C213 0.930 . S
H256 C215 0.929 . S
H257 C216 0.930 . S
H258 C217 0.930 . S
H259 C218 0.930 . S
H260 C222 0.929 . S
H261 C224 0.930 . S
H262 C230 0.929 . S
H263 C231 0.930 . S
Li264 N281 1.990 1_655 S
Li264 O324 1.956 . S
Li264 O325 1.970 . S
Li264 O326 1.961 . S
Li265 N289 1.990 . S
Li265 O324 1.970 . S
Li265 O325 1.956 . S
Li265 O327 1.961 . S
Li266 N311 1.990 . S
Li266 O324 1.961 . S
Li266 O326 1.956 . S
Li266 O327 1.970 . S
Li267 N317 1.990 . S
Li267 O325 1.961 . S
Li267 O326 1.970 . S
Li267 O327 1.956 . S
C268 C270 1.348 . S
C268 C271 1.356 . S
C268 O324 1.325 . S
N269 C272 1.314 . S
N269 C273 1.279 . S
C270 C268 1.348 . S
C270 C272 1.353 1_655 S
C270 H328 0.929 . S
C271 C268 1.356 . S
C271 C273 1.358 1_655 S
C271 H329 0.930 . S
C272 N269 1.314 . S
C272 C270 1.353 1_455 S
C272 H330 0.930 . S
C273 N269 1.279 . S
C273 C271 1.358 1_455 S
C273 H331 0.930 . S
C274 C277 1.343 1_655 S
C274 C278 1.356 . S
C274 O325 1.325 . S
C275 N276 1.279 . S
C275 C278 1.358 . S
C275 H332 0.930 . S
N276 C275 1.279 . S
N276 C279 1.314 1_655 S
C277 C274 1.343 1_455 S
C277 C279 1.356 . S
C277 H333 0.931 . S
C278 C274 1.356 . S
C278 C275 1.358 . S
C278 H334 0.930 . S
C279 N276 1.314 1_455 S
C279 C277 1.356 . S
C279 H335 0.930 . S
C280 N281 1.314 . S
C280 C285 1.353 . S
C280 H286 0.930 . S
N281 Li264 1.990 1_455 S
N281 C280 1.314 . S
N281 C283 1.279 . S
C282 C283 1.358 . S
C282 C284 1.356 . S
C282 H336 0.930 . S
C283 N281 1.279 . S
C283 C282 1.358 . S
C283 H287 0.930 . S
C284 C282 1.356 . S
C284 C285 1.348 . S
C285 C280 1.353 . S
C285 C284 1.348 . S
C285 H337 0.929 . S
H286 C280 0.930 . S
H287 C283 0.930 . S
C288 N289 1.314 . S
C288 C290 1.353 . S
C288 H294 0.930 . S
N289 Li265 1.990 . S
N289 C288 1.314 . S
N289 C292 1.279 . S
C290 C288 1.353 . S
C290 C293 1.348 . S
C290 H338 0.929 . S
C291 C292 1.358 . S
C291 C293 1.356 . S
C291 H339 0.930 . S
C292 N289 1.279 . S
C292 C291 1.358 . S
C292 H295 0.930 . S
C293 C290 1.348 . S
C293 C291 1.356 . S
H294 C288 0.930 . S
H295 C292 0.930 . S
C296 C298 1.348 . S
C296 C299 1.356 . S
C296 O326 1.325 . S
N297 C300 1.314 . S
N297 C301 1.279 . S
C298 C296 1.348 . S
C298 C300 1.353 . S
C298 H340 0.929 . S
C299 C296 1.356 . S
C299 C301 1.358 . S
C299 H341 0.930 . S
C300 N297 1.314 . S
C300 C298 1.353 . S
C300 H342 0.930 . S
C301 N297 1.279 . S
C301 C299 1.358 . S
C301 H343 0.930 . S
C302 C303 1.348 . S
C302 C304 1.356 . S
C302 O327 1.325 . S
C303 C302 1.348 . S
C303 C305 1.353 . S
C303 H344 0.929 . S
C304 C302 1.356 . S
C304 C306 1.358 . S
C304 H345 0.930 . S
C305 C303 1.353 . S
C305 N307 1.314 . S
C305 H346 0.930 . S
C306 C304 1.358 . S
C306 N307 1.279 . S
C306 H347 0.930 . S
N307 C305 1.314 . S
N307 C306 1.279 . S
C308 C310 1.353 . S
C308 N311 1.314 . S
C308 H314 0.930 . S
C309 N311 1.279 . S
C309 C312 1.358 . S
C309 H315 0.930 . S
C310 C308 1.353 . S
C310 C313 1.348 . S
C310 H348 0.929 . S
N311 Li266 1.990 . S
N311 C308 1.314 . S
N311 C309 1.279 . S
C312 C309 1.358 . S
C312 C313 1.356 . S
C312 H349 0.930 . S
C313 C310 1.348 . S
C313 C312 1.356 . S
H314 C308 0.930 . S
H315 C309 0.930 . S
C316 N317 1.314 . S
C316 C318 1.353 . S
C316 H322 0.930 . S
N317 Li267 1.990 . S
N317 C316 1.314 . S
N317 C320 1.279 . S
C318 C316 1.353 . S
C318 C321 1.348 . S
C318 H350 0.929 . S
C319 C320 1.358 . S
C319 C321 1.356 . S
C319 H351 0.930 . S
C320 N317 1.279 . S
C320 C319 1.358 . S
C320 H323 0.930 . S
C321 C318 1.348 . S
C321 C319 1.356 . S
H322 C316 0.930 . S
H323 C320 0.930 . S
O324 Li264 1.956 . S
O324 Li265 1.970 . S
O324 Li266 1.961 . S
O324 C268 1.325 . S
O325 Li264 1.970 . S
O325 Li265 1.956 . S
O325 Li267 1.961 . S
O325 C274 1.325 . S
O326 Li264 1.961 . S
O326 Li266 1.956 . S
O326 Li267 1.970 . S
O326 C296 1.325 . S
O327 Li265 1.961 . S
O327 Li266 1.970 . S
O327 Li267 1.956 . S
O327 C302 1.325 . S
H328 C270 0.929 . S
H329 C271 0.930 . S
H330 C272 0.930 . S
H331 C273 0.930 . S
H332 C275 0.930 . S
H333 C277 0.931 . S
H334 C278 0.930 . S
H335 C279 0.930 . S
H336 C282 0.930 . S
H337 C285 0.929 . S
H338 C290 0.929 . S
H339 C291 0.930 . S
H340 C298 0.929 . S
H341 C299 0.930 . S
H342 C300 0.930 . S
H343 C301 0.930 . S
H344 C303 0.929 . S
H345 C304 0.930 . S
H346 C305 0.930 . S
H347 C306 0.930 . S
H348 C310 0.929 . S
H349 C312 0.930 . S
H350 C318 0.929 . S
H351 C319 0.930 . S
Li352 N369 1.990 . S
Li352 O412 1.956 . S
Li352 O413 1.970 . S
Li352 O414 1.961 . S
Li353 N377 1.990 1_565 S
Li353 O412 1.970 . S
Li353 O413 1.956 . S
Li353 O415 1.961 . S
Li354 N399 1.990 . S
Li354 O412 1.961 . S
Li354 O414 1.956 . S
Li354 O415 1.970 . S
Li355 N405 1.990 . S
Li355 O413 1.961 . S
Li355 O414 1.970 . S
Li355 O415 1.956 . S
C356 C358 1.344 1_565 S
C356 C359 1.356 . S
C356 O412 1.325 . S
N357 C360 1.314 1_565 S
N357 C361 1.279 . S
C358 C356 1.344 1_545 S
C358 C360 1.353 . S
C358 H416 0.933 . S
C359 C356 1.356 . S
C359 C361 1.358 . S
C359 H417 0.930 . S
C360 N357 1.314 1_545 S
C360 C358 1.353 . S
C360 H418 0.930 . S
C361 N357 1.279 . S
C361 C359 1.358 . S
C361 H419 0.930 . S
C362 C365 1.348 . S
C362 C366 1.356 . S
C362 O413 1.325 . S
C363 N364 1.279 . S
C363 C366 1.358 1_545 S
C363 H420 0.930 . S
N364 C363 1.279 . S
N364 C367 1.314 . S
C365 C362 1.348 . S
C365 C367 1.353 1_565 S
C365 H421 0.929 . S
C366 C362 1.356 . S
C366 C363 1.358 1_565 S
C366 H422 0.930 . S
C367 N364 1.314 . S
C367 C365 1.353 1_545 S
C367 H423 0.930 . S
C368 N369 1.314 . S
C368 C373 1.353 . S
C368 H374 0.930 . S
N369 Li352 1.990 . S
N369 C368 1.314 . S
N369 C371 1.279 . S
C370 C371 1.358 . S
C370 C372 1.356 . S
C370 H424 0.930 . S
C371 N369 1.279 . S
C371 C370 1.358 . S
C371 H375 0.930 . S
C372 C370 1.356 . S
C372 C373 1.348 . S
C373 C368 1.353 . S
C373 C372 1.348 . S
C373 H425 0.929 . S
H374 C368 0.930 . S
H375 C371 0.930 . S
C376 N377 1.314 . S
C376 C378 1.353 . S
C376 H382 0.930 . S
N377 Li353 1.990 1_545 S
N377 C376 1.314 . S
N377 C380 1.279 . S
C378 C376 1.353 . S
C378 C381 1.348 . S
C378 H426 0.929 . S
C379 C380 1.358 . S
C379 C381 1.356 . S
C379 H427 0.930 . S
C380 N377 1.279 . S
C380 C379 1.358 . S
C380 H383 0.930 . S
C381 C378 1.348 . S
C381 C379 1.356 . S
H382 C376 0.930 . S
H383 C380 0.930 . S
C384 C386 1.348 . S
C384 C387 1.356 . S
C384 O414 1.325 . S
N385 C388 1.314 . S
N385 C389 1.279 . S
C386 C384 1.348 . S
C386 C388 1.353 . S
C386 H428 0.929 . S
C387 C384 1.356 . S
C387 C389 1.358 . S
C387 H429 0.930 . S
C388 N385 1.314 . S
C388 C386 1.353 . S
C388 H430 0.930 . S
C389 N385 1.279 . S
C389 C387 1.358 . S
C389 H431 0.930 . S
C390 C391 1.348 . S
C390 C392 1.356 . S
C390 O415 1.325 . S
C391 C390 1.348 . S
C391 C393 1.353 . S
C391 H432 0.929 . S
C392 C390 1.356 . S
C392 C394 1.358 . S
C392 H433 0.930 . S
C393 C391 1.353 . S
C393 N395 1.314 . S
C393 H434 0.930 . S
C394 C392 1.358 . S
C394 N395 1.279 . S
C394 H435 0.930 . S
N395 C393 1.314 . S
N395 C394 1.279 . S
C396 C398 1.353 . S
C396 N399 1.314 . S
C396 H402 0.930 . S
C397 N399 1.279 . S
C397 C400 1.358 . S
C397 H403 0.930 . S
C398 C396 1.353 . S
C398 C401 1.348 . S
C398 H436 0.929 . S
N399 Li354 1.990 . S
N399 C396 1.314 . S
N399 C397 1.279 . S
C400 C397 1.358 . S
C400 C401 1.356 . S
C400 H437 0.930 . S
C401 C398 1.348 . S
C401 C400 1.356 . S
H402 C396 0.930 . S
H403 C397 0.930 . S
C404 N405 1.314 . S
C404 C406 1.353 . S
C404 H410 0.930 . S
N405 Li355 1.990 . S
N405 C404 1.314 . S
N405 C408 1.279 . S
C406 C404 1.353 . S
C406 C409 1.348 . S
C406 H438 0.929 . S
C407 C408 1.358 . S
C407 C409 1.356 . S
C407 H439 0.930 . S
C408 N405 1.279 . S
C408 C407 1.358 . S
C408 H411 0.930 . S
C409 C406 1.348 . S
C409 C407 1.356 . S
H410 C404 0.930 . S
H411 C408 0.930 . S
O412 Li352 1.956 . S
O412 Li353 1.970 . S
O412 Li354 1.961 . S
O412 C356 1.325 . S
O413 Li352 1.970 . S
O413 Li353 1.956 . S
O413 Li355 1.961 . S
O413 C362 1.325 . S
O414 Li352 1.961 . S
O414 Li354 1.956 . S
O414 Li355 1.970 . S
O414 C384 1.325 . S
O415 Li353 1.961 . S
O415 Li354 1.970 . S
O415 Li355 1.956 . S
O415 C390 1.325 . S
H416 C358 0.933 . S
H417 C359 0.930 . S
H418 C360 0.930 . S
H419 C361 0.930 . S
H420 C363 0.930 . S
H421 C365 0.929 . S
H422 C366 0.930 . S
H423 C367 0.930 . S
H424 C370 0.930 . S
H425 C373 0.929 . S
H426 C378 0.929 . S
H427 C379 0.930 . S
H428 C386 0.929 . S
H429 C387 0.930 . S
H430 C388 0.930 . S
H431 C389 0.930 . S
H432 C391 0.929 . S
H433 C392 0.930 . S
H434 C393 0.930 . S
H435 C394 0.930 . S
H436 C398 0.929 . S
H437 C400 0.930 . S
H438 C406 0.929 . S
H439 C407 0.930 . S
Li440 N457 1.990 . S
Li440 O500 1.956 . S
Li440 O501 1.970 . S
Li440 O502 1.961 . S
Li441 N465 1.990 . S
Li441 O500 1.970 . S
Li441 O501 1.956 . S
Li441 O503 1.961 . S
Li442 N487 1.990 1_556 S
Li442 O500 1.961 . S
Li442 O502 1.956 . S
Li442 O503 1.970 . S
Li443 N493 1.990 . S
Li443 O501 1.961 . S
Li443 O502 1.970 . S
Li443 O503 1.956 . S
C444 C446 1.348 1_556 S
C444 C447 1.356 1_556 S
C444 O500 1.325 . S
N445 C448 1.314 . S
N445 C449 1.279 . S
C446 C444 1.348 1_554 S
C446 C448 1.353 . S
C446 H504 0.929 1_554 S
C447 C444 1.356 1_554 S
C447 C449 1.358 . S
C447 H505 0.930 . S
C448 N445 1.314 . S
C448 C446 1.353 . S
C448 H506 0.930 . S
C449 N445 1.279 . S
C449 C447 1.358 . S
C449 H507 0.930 . S
C450 C453 1.348 . S
C450 C454 1.356 . S
C450 O501 1.325 . S
C451 N452 1.279 . S
C451 C454 1.358 . S
C451 H508 0.930 . S
N452 C451 1.279 . S
N452 C455 1.314 . S
C453 C450 1.348 . S
C453 C455 1.353 . S
C453 H509 0.929 . S
C454 C450 1.356 . S
C454 C451 1.358 . S
C454 H510 0.930 . S
C455 N452 1.314 . S
C455 C453 1.353 . S
C455 H511 0.930 . S
C456 N457 1.314 . S
C456 C461 1.353 . S
C456 H462 0.930 . S
N457 Li440 1.990 . S
N457 C456 1.314 . S
N457 C459 1.279 . S
C458 C459 1.358 . S
C458 C460 1.356 . S
C458 H512 0.930 . S
C459 N457 1.279 . S
C459 C458 1.358 . S
C459 H463 0.930 . S
C460 C458 1.356 . S
C460 C461 1.348 . S
C461 C456 1.353 . S
C461 C460 1.348 . S
C461 H513 0.929 . S
H462 C456 0.930 . S
H463 C459 0.930 . S
C464 N465 1.314 . S
C464 C466 1.353 . S
C464 H470 0.930 . S
N465 Li441 1.990 . S
N465 C464 1.314 . S
N465 C468 1.279 . S
C466 C464 1.353 . S
C466 C469 1.348 . S
C466 H514 0.929 1_556 S
C467 C468 1.358 . S
C467 C469 1.356 . S
C467 H515 0.930 . S
C468 N465 1.279 . S
C468 C467 1.358 . S
C468 H471 0.930 . S
C469 C466 1.348 . S
C469 C467 1.356 . S
H470 C464 0.930 . S
H471 C468 0.930 . S
C472 C474 1.348 . S
C472 C475 1.356 . S
C472 O502 1.325 . S
N473 C476 1.314 . S
N473 C477 1.279 . S
C474 C472 1.348 . S
C474 C476 1.353 . S
C474 H516 0.929 . S
C475 C472 1.356 . S
C475 C477 1.358 . S
C475 H517 0.930 . S
C476 N473 1.314 . S
C476 C474 1.353 . S
C476 H518 0.930 . S
C477 N473 1.279 . S
C477 C475 1.358 . S
C477 H519 0.930 . S
C478 C479 1.348 . S
C478 C480 1.356 . S
C478 O503 1.325 . S
C479 C478 1.348 . S
C479 C481 1.353 . S
C479 H520 0.929 . S
C480 C478 1.356 . S
C480 C482 1.358 . S
C480 H521 0.930 . S
C481 C479 1.353 . S
C481 N483 1.314 . S
C481 H522 0.930 1_556 S
C482 C480 1.358 . S
C482 N483 1.279 . S
C482 H523 0.930 . S
N483 C481 1.314 . S
N483 C482 1.279 . S
C484 C486 1.353 . S
C484 N487 1.314 . S
C484 H490 0.930 . S
C485 N487 1.279 . S
C485 C488 1.358 . S
C485 H491 0.930 1_554 S
C486 C484 1.353 . S
C486 C489 1.348 . S
C486 H524 0.929 . S
N487 Li442 1.990 1_554 S
N487 C484 1.314 . S
N487 C485 1.279 . S
C488 C485 1.358 . S
C488 C489 1.356 . S
C488 H525 0.930 . S
C489 C486 1.348 . S
C489 C488 1.356 . S
H490 C484 0.930 . S
H491 C485 0.930 1_556 S
C492 N493 1.314 . S
C492 C494 1.353 . S
C492 H498 0.930 . S
N493 Li443 1.990 . S
N493 C492 1.314 . S
N493 C496 1.279 . S
C494 C492 1.353 . S
C494 C497 1.348 . S
C494 H526 0.929 . S
C495 C496 1.358 . S
C495 C497 1.356 . S
C495 H527 0.930 . S
C496 N493 1.279 . S
C496 C495 1.358 . S
C496 H499 0.930 . S
C497 C494 1.348 . S
C497 C495 1.356 . S
H498 C492 0.930 . S
H499 C496 0.930 . S
O500 Li440 1.956 . S
O500 Li441 1.970 . S
O500 Li442 1.961 . S
O500 C444 1.325 . S
O501 Li440 1.970 . S
O501 Li441 1.956 . S
O501 Li443 1.961 . S
O501 C450 1.325 . S
O502 Li440 1.961 . S
O502 Li442 1.956 . S
O502 Li443 1.970 . S
O502 C472 1.325 . S
O503 Li441 1.961 . S
O503 Li442 1.970 . S
O503 Li443 1.956 . S
O503 C478 1.325 . S
H504 C446 0.929 1_556 S
H505 C447 0.930 . S
H506 C448 0.930 . S
H507 C449 0.930 . S
H508 C451 0.930 . S
H509 C453 0.929 . S
H510 C454 0.930 . S
H511 C455 0.930 . S
H512 C458 0.930 . S
H513 C461 0.929 . S
H514 C466 0.929 1_554 S
H515 C467 0.930 . S
H516 C474 0.929 . S
H517 C475 0.930 . S
H518 C476 0.930 . S
H519 C477 0.930 . S
H520 C479 0.929 . S
H521 C480 0.930 . S
H522 C481 0.930 1_554 S
H523 C482 0.930 . S
H524 C486 0.929 . S
H525 C488 0.930 . S
H526 C494 0.929 . S
H527 C495 0.930 . S
Li528 N545 1.990 1_565 S
Li528 O588 1.956 . S
Li528 O589 1.970 . S
Li528 O590 1.961 . S
Li529 N553 1.990 . S
Li529 O588 1.970 . S
Li529 O589 1.956 . S
Li529 O591 1.961 . S
Li530 N575 1.990 . S
Li530 O588 1.961 . S
Li530 O590 1.956 . S
Li530 O591 1.970 . S
Li531 N581 1.990 . S
Li531 O589 1.961 . S
Li531 O590 1.970 . S
Li531 O591 1.956 . S
C532 C534 1.348 . S
C532 C535 1.356 . S
C532 O588 1.325 . S
N533 C536 1.314 . S
N533 C537 1.279 . S
C534 C532 1.348 . S
C534 C536 1.353 1_565 S
C534 H592 0.929 . S
C535 C532 1.356 . S
C535 C537 1.358 1_565 S
C535 H593 0.930 . S
C536 N533 1.314 . S
C536 C534 1.353 1_545 S
C536 H594 0.930 . S
C537 N533 1.279 . S
C537 C535 1.358 1_545 S
C537 H595 0.930 . S
C538 C541 1.343 1_565 S
C538 C542 1.356 . S
C538 O589 1.325 . S
C539 N540 1.279 . S
C539 C542 1.358 . S
C539 H596 0.930 . S
N540 C539 1.279 . S
N540 C543 1.314 1_565 S
C541 C538 1.343 1_545 S
C541 C543 1.356 . S
C541 H597 0.931 . S
C542 C538 1.356 . S
C542 C539 1.358 . S
C542 H598 0.930 . S
C543 N540 1.314 1_545 S
C543 C541 1.356 . S
C543 H599 0.930 . S
C544 N545 1.314 . S
C544 C549 1.353 . S
C544 H550 0.930 . S
N545 Li528 1.990 1_545 S
N545 C544 1.314 . S
N545 C547 1.279 . S
C546 C547 1.358 . S
C546 C548 1.356 . S
C546 H600 0.930 . S
C547 N545 1.279 . S
C547 C546 1.358 . S
C547 H551 0.930 . S
C548 C546 1.356 . S
C548 C549 1.348 . S
C549 C544 1.353 . S
C549 C548 1.348 . S
C549 H601 0.929 . S
H550 C544 0.930 . S
H551 C547 0.930 . S
C552 N553 1.314 . S
C552 C554 1.353 . S
C552 H558 0.930 . S
N553 Li529 1.990 . S
N553 C552 1.314 . S
N553 C556 1.279 . S
C554 C552 1.353 . S
C554 C557 1.348 . S
C554 H602 0.929 . S
C555 C556 1.358 . S
C555 C557 1.356 . S
C555 H603 0.930 . S
C556 N553 1.279 . S
C556 C555 1.358 . S
C556 H559 0.930 . S
C557 C554 1.348 . S
C557 C555 1.356 . S
H558 C552 0.930 . S
H559 C556 0.930 . S
C560 C562 1.348 . S
C560 C563 1.356 . S
C560 O590 1.325 . S
N561 C564 1.314 . S
N561 C565 1.279 . S
C562 C560 1.348 . S
C562 C564 1.353 . S
C562 H604 0.929 . S
C563 C560 1.356 . S
C563 C565 1.358 . S
C563 H605 0.930 . S
C564 N561 1.314 . S
C564 C562 1.353 . S
C564 H606 0.930 . S
C565 N561 1.279 . S
C565 C563 1.358 . S
C565 H607 0.930 . S
C566 C567 1.348 . S
C566 C568 1.356 . S
C566 O591 1.325 . S
C567 C566 1.348 . S
C567 C569 1.353 . S
C567 H608 0.929 . S
C568 C566 1.356 . S
C568 C570 1.358 . S
C568 H609 0.930 . S
C569 C567 1.353 . S
C569 N571 1.314 . S
C569 H610 0.930 . S
C570 C568 1.358 . S
C570 N571 1.279 . S
C570 H611 0.930 . S
N571 C569 1.314 . S
N571 C570 1.279 . S
C572 C574 1.353 . S
C572 N575 1.314 . S
C572 H578 0.930 . S
C573 N575 1.279 . S
C573 C576 1.358 . S
C573 H579 0.930 . S
C574 C572 1.353 . S
C574 C577 1.348 . S
C574 H612 0.929 . S
N575 Li530 1.990 . S
N575 C572 1.314 . S
N575 C573 1.279 . S
C576 C573 1.358 . S
C576 C577 1.356 . S
C576 H613 0.930 . S
C577 C574 1.348 . S
C577 C576 1.356 . S
H578 C572 0.930 . S
H579 C573 0.930 . S
C580 N581 1.314 . S
C580 C582 1.353 . S
C580 H586 0.930 . S
N581 Li531 1.990 . S
N581 C580 1.314 . S
N581 C584 1.279 . S
C582 C580 1.353 . S
C582 C585 1.348 . S
C582 H614 0.929 . S
C583 C584 1.358 . S
C583 C585 1.356 . S
C583 H615 0.930 . S
C584 N581 1.279 . S
C584 C583 1.358 . S
C584 H587 0.930 . S
C585 C582 1.348 . S
C585 C583 1.356 . S
H586 C580 0.930 . S
H587 C584 0.930 . S
O588 Li528 1.956 . S
O588 Li529 1.970 . S
O588 Li530 1.961 . S
O588 C532 1.325 . S
O589 Li528 1.970 . S
O589 Li529 1.956 . S
O589 Li531 1.961 . S
O589 C538 1.325 . S
O590 Li528 1.961 . S
O590 Li530 1.956 . S
O590 Li531 1.970 . S
O590 C560 1.325 . S
O591 Li529 1.961 . S
O591 Li530 1.970 . S
O591 Li531 1.956 . S
O591 C566 1.325 . S
H592 C534 0.929 . S
H593 C535 0.930 . S
H594 C536 0.930 . S
H595 C537 0.930 . S
H596 C539 0.930 . S
H597 C541 0.931 . S
H598 C542 0.930 . S
H599 C543 0.930 . S
H600 C546 0.930 . S
H601 C549 0.929 . S
H602 C554 0.929 . S
H603 C555 0.930 . S
H604 C562 0.929 . S
H605 C563 0.930 . S
H606 C564 0.930 . S
H607 C565 0.930 . S
H608 C567 0.929 . S
H609 C568 0.930 . S
H610 C569 0.930 . S
H611 C570 0.930 . S
H612 C574 0.929 . S
H613 C576 0.930 . S
H614 C582 0.929 . S
H615 C583 0.930 . S
Li616 N633 1.990 . S
Li616 O676 1.956 . S
Li616 O677 1.970 . S
Li616 O678 1.961 . S
Li617 N641 1.990 . S
Li617 O676 1.970 . S
Li617 O677 1.956 . S
Li617 O679 1.961 . S
Li618 N663 1.990 . S
Li618 O676 1.961 . S
Li618 O678 1.956 . S
Li618 O679 1.970 . S
Li619 N669 1.990 . S
Li619 O677 1.961 . S
Li619 O678 1.970 . S
Li619 O679 1.956 . S
C620 C622 1.348 . S
C620 C623 1.356 . S
C620 O676 1.325 . S
N621 C624 1.314 1_554 S
N621 C625 1.279 1_554 S
C622 C620 1.348 . S
C622 C624 1.353 . S
C622 H680 0.929 . S
C623 C620 1.356 . S
C623 C625 1.358 . S
C623 H681 0.930 . S
C624 N621 1.314 1_556 S
C624 C622 1.353 . S
C624 H682 0.930 . S
C625 N621 1.279 1_556 S
C625 C623 1.358 . S
C625 H683 0.930 1_556 S
C626 C629 1.348 . S
C626 C630 1.356 . S
C626 O677 1.325 . S
C627 N628 1.279 . S
C627 C630 1.358 . S
C627 H684 0.930 . S
N628 C627 1.279 . S
N628 C631 1.314 . S
C629 C626 1.348 . S
C629 C631 1.353 . S
C629 H685 0.929 . S
C630 C626 1.356 . S
C630 C627 1.358 . S
C630 H686 0.930 . S
C631 N628 1.314 . S
C631 C629 1.353 . S
C631 H687 0.930 . S
C632 N633 1.314 . S
C632 C637 1.353 . S
C632 H638 0.930 . S
N633 Li616 1.990 . S
N633 C632 1.314 . S
N633 C635 1.279 . S
C634 C635 1.358 . S
C634 C636 1.356 . S
C634 H688 0.930 . S
C635 N633 1.279 . S
C635 C634 1.358 . S
C635 H639 0.930 . S
C636 C634 1.356 . S
C636 C637 1.348 . S
C637 C632 1.353 . S
C637 C636 1.348 . S
C637 H689 0.929 . S
H638 C632 0.930 . S
H639 C635 0.930 . S
C640 N641 1.314 . S
C640 C642 1.353 . S
C640 H646 0.930 . S
N641 Li617 1.990 . S
N641 C640 1.314 . S
N641 C644 1.279 . S
C642 C640 1.353 . S
C642 C645 1.348 . S
C642 H690 0.929 . S
C643 C644 1.358 . S
C643 C645 1.356 . S
C643 H691 0.930 . S
C644 N641 1.279 . S
C644 C643 1.358 . S
C644 H647 0.930 . S
C645 C642 1.348 . S
C645 C643 1.356 . S
H646 C640 0.930 . S
H647 C644 0.930 . S
C648 C650 1.348 . S
C648 C651 1.356 . S
C648 O678 1.325 . S
N649 C652 1.314 . S
N649 C653 1.279 . S
C650 C648 1.348 . S
C650 C652 1.353 . S
C650 H692 0.929 . S
C651 C648 1.356 . S
C651 C653 1.358 . S
C651 H693 0.930 . S
C652 N649 1.314 . S
C652 C650 1.353 . S
C652 H694 0.930 . S
C653 N649 1.279 . S
C653 C651 1.358 . S
C653 H695 0.930 . S
C654 C655 1.348 . S
C654 C656 1.356 . S
C654 O679 1.325 . S
C655 C654 1.348 . S
C655 C657 1.353 . S
C655 H696 0.929 . S
C656 C654 1.356 . S
C656 C658 1.358 . S
C656 H697 0.930 . S
C657 C655 1.353 . S
C657 N659 1.314 . S
C657 H698 0.930 . S
C658 C656 1.358 . S
C658 N659 1.279 . S
C658 H699 0.930 . S
N659 C657 1.314 . S
N659 C658 1.279 . S
C660 C662 1.353 1_556 S
C660 N663 1.314 . S
C660 H666 0.930 . S
C661 N663 1.279 . S
C661 C664 1.358 . S
C661 H667 0.930 . S
C662 C660 1.353 1_554 S
C662 C665 1.348 . S
C662 H700 0.929 . S
N663 Li618 1.990 . S
N663 C660 1.314 . S
N663 C661 1.279 . S
C664 C661 1.358 . S
C664 C665 1.356 1_556 S
C664 H701 0.930 . S
C665 C662 1.348 . S
C665 C664 1.356 1_554 S
H666 C660 0.930 . S
H667 C661 0.930 . S
C668 N669 1.314 . S
C668 C670 1.353 . S
C668 H674 0.930 . S
N669 Li619 1.990 . S
N669 C668 1.314 . S
N669 C672 1.279 . S
C670 C668 1.353 . S
C670 C673 1.348 . S
C670 H702 0.929 . S
C671 C672 1.358 . S
C671 C673 1.356 . S
C671 H703 0.930 . S
C672 N669 1.279 . S
C672 C671 1.358 . S
C672 H675 0.930 . S
C673 C670 1.348 . S
C673 C671 1.356 . S
H674 C668 0.930 . S
H675 C672 0.930 . S
O676 Li616 1.956 . S
O676 Li617 1.970 . S
O676 Li618 1.961 . S
O676 C620 1.325 . S
O677 Li616 1.970 . S
O677 Li617 1.956 . S
O677 Li619 1.961 . S
O677 C626 1.325 . S
O678 Li616 1.961 . S
O678 Li618 1.956 . S
O678 Li619 1.970 . S
O678 C648 1.325 . S
O679 Li617 1.961 . S
O679 Li618 1.970 . S
O679 Li619 1.956 . S
O679 C654 1.325 . S
H680 C622 0.929 . S
H681 C623 0.930 . S
H682 C624 0.930 . S
H683 C625 0.930 1_554 S
H684 C627 0.930 . S
H685 C629 0.929 . S
H686 C630 0.930 . S
H687 C631 0.930 . S
H688 C634 0.930 . S
H689 C637 0.929 . S
H690 C642 0.929 . S
H691 C643 0.930 . S
H692 C650 0.929 . S
H693 C651 0.930 . S
H694 C652 0.930 . S
H695 C653 0.930 . S
H696 C655 0.929 . S
H697 C656 0.930 . S
H698 C657 0.930 . S
H699 C658 0.930 . S
H700 C662 0.929 . S
H701 C664 0.930 . S
H702 C670 0.929 . S
H703 C671 0.930 . S
Li704 N721 1.990 1_554 S
Li704 O764 1.956 . S
Li704 O765 1.970 . S
Li704 O766 1.961 . S
Li705 N729 1.990 . S
Li705 O764 1.970 . S
Li705 O765 1.956 . S
Li705 O767 1.961 . S
Li706 N751 1.990 . S
Li706 O764 1.961 . S
Li706 O766 1.956 . S
Li706 O767 1.970 . S
Li707 N757 1.990 1_455 S
Li707 O765 1.961 . S
Li707 O766 1.970 . S
Li707 O767 1.956 . S
C708 C710 1.348 . S
C708 C711 1.356 . S
C708 O764 1.325 . S
N709 C712 1.314 . S
N709 C713 1.279 . S
C710 C708 1.348 . S
C710 C712 1.353 . S
C710 H768 0.929 . S
C711 C708 1.356 . S
C711 C713 1.358 . S
C711 H769 0.930 . S
C712 N709 1.314 . S
C712 C710 1.353 . S
C712 H770 0.930 . S
C713 N709 1.279 . S
C713 C711 1.358 . S
C713 H771 0.930 . S
C714 C717 1.348 . S
C714 C718 1.356 . S
C714 O765 1.325 . S
C715 N716 1.279 . S
C715 C718 1.358 . S
C715 H772 0.930 . S
N716 C715 1.279 . S
N716 C719 1.314 . S
C717 C714 1.348 . S
C717 C719 1.353 . S
C717 H773 0.929 . S
C718 C714 1.356 . S
C718 C715 1.358 . S
C718 H774 0.930 . S
C719 N716 1.314 . S
C719 C717 1.353 . S
C719 H775 0.930 1_554 S
C720 N721 1.314 . S
C720 C725 1.353 . S
C720 H726 0.930 . S
N721 Li704 1.990 1_556 S
N721 C720 1.314 . S
N721 C723 1.279 . S
C722 C723 1.358 . S
C722 C724 1.356 . S
C722 H776 0.930 . S
C723 N721 1.279 . S
C723 C722 1.358 . S
C723 H727 0.930 1_556 S
C724 C722 1.356 . S
C724 C725 1.348 . S
C725 C720 1.353 . S
C725 C724 1.348 . S
C725 H777 0.929 . S
H726 C720 0.930 . S
H727 C723 0.930 1_554 S
C728 N729 1.314 . S
C728 C730 1.353 . S
C728 H734 0.930 . S
N729 Li705 1.990 . S
N729 C728 1.314 . S
N729 C732 1.279 . S
C730 C728 1.353 . S
C730 C733 1.348 . S
C730 H778 0.929 . S
C731 C732 1.358 . S
C731 C733 1.356 . S
C731 H779 0.930 . S
C732 N729 1.279 . S
C732 C731 1.358 . S
C732 H735 0.930 . S
C733 C730 1.348 . S
C733 C731 1.356 . S
H734 C728 0.930 . S
H735 C732 0.930 . S
C736 C738 1.344 1_454 S
C736 C739 1.356 1_554 S
C736 O766 1.325 . S
N737 C740 1.314 1_455 S
N737 C741 1.279 . S
C738 C736 1.344 1_656 S
C738 C740 1.353 . S
C738 H780 0.933 1_556 S
C739 C736 1.356 1_556 S
C739 C741 1.358 . S
C739 H781 0.930 . S
C740 N737 1.314 1_655 S
C740 C738 1.353 . S
C740 H782 0.930 . S
C741 N737 1.279 . S
C741 C739 1.358 . S
C741 H783 0.930 . S
C742 C743 1.348 . S
C742 C744 1.356 . S
C742 O767 1.325 . S
C743 C742 1.348 . S
C743 C745 1.353 1_455 S
C743 H784 0.929 . S
C744 C742 1.356 . S
C744 C746 1.358 1_455 S
C744 H785 0.930 . S
C745 C743 1.353 1_655 S
C745 N747 1.314 . S
C745 H786 0.930 . S
C746 C744 1.358 1_655 S
C746 N747 1.279 . S
C746 H787 0.930 . S
N747 C745 1.314 . S
N747 C746 1.279 . S
C748 C750 1.353 . S
C748 N751 1.314 . S
C748 H754 0.930 . S
C749 N751 1.279 . S
C749 C752 1.358 . S
C749 H755 0.930 . S
C750 C748 1.353 . S
C750 C753 1.348 . S
C750 H788 0.929 . S
N751 Li706 1.990 . S
N751 C748 1.314 . S
N751 C749 1.279 . S
C752 C749 1.358 . S
C752 C753 1.356 . S
C752 H789 0.930 . S
C753 C750 1.348 . S
C753 C752 1.356 . S
H754 C748 0.930 . S
H755 C749 0.930 . S
C756 N757 1.314 . S
C756 C758 1.353 . S
C756 H762 0.930 . S
N757 Li707 1.990 1_655 S
N757 C756 1.314 . S
N757 C760 1.279 . S
C758 C756 1.353 . S
C758 C761 1.348 . S
C758 H790 0.929 1_554 S
C759 C760 1.358 . S
C759 C761 1.356 . S
C759 H791 0.930 . S
C760 N757 1.279 . S
C760 C759 1.358 . S
C760 H763 0.930 . S
C761 C758 1.348 . S
C761 C759 1.356 . S
H762 C756 0.930 . S
H763 C760 0.930 . S
O764 Li704 1.956 . S
O764 Li705 1.970 . S
O764 Li706 1.961 . S
O764 C708 1.325 . S
O765 Li704 1.970 . S
O765 Li705 1.956 . S
O765 Li707 1.961 . S
O765 C714 1.325 . S
O766 Li704 1.961 . S
O766 Li706 1.956 . S
O766 Li707 1.970 . S
O766 C736 1.325 . S
O767 Li705 1.961 . S
O767 Li706 1.970 . S
O767 Li707 1.956 . S
O767 C742 1.325 . S
H768 C710 0.929 . S
H769 C711 0.930 . S
H770 C712 0.930 . S
H771 C713 0.930 . S
H772 C715 0.930 . S
H773 C717 0.929 . S
H774 C718 0.930 . S
H775 C719 0.930 1_556 S
H776 C722 0.930 . S
H777 C725 0.929 . S
H778 C730 0.929 . S
H779 C731 0.930 . S
H780 C738 0.933 1_554 S
H781 C739 0.930 . S
H782 C740 0.930 . S
H783 C741 0.930 . S
H784 C743 0.929 . S
H785 C744 0.930 . S
H786 C745 0.930 . S
H787 C746 0.930 . S
H788 C750 0.929 . S
H789 C752 0.930 . S
H790 C758 0.929 1_556 S
H791 C759 0.930 . S
Li792 N809 1.990 1_545 S
Li792 O852 1.956 . S
Li792 O853 1.970 . S
Li792 O854 1.961 . S
Li793 N817 1.990 . S
Li793 O852 1.970 . S
Li793 O853 1.956 . S
Li793 O855 1.961 . S
Li794 N839 1.990 . S
Li794 O852 1.961 . S
Li794 O854 1.956 . S
Li794 O855 1.970 . S
Li795 N845 1.990 . S
Li795 O853 1.961 . S
Li795 O854 1.970 . S
Li795 O855 1.956 . S
C796 C798 1.348 . S
C796 C799 1.356 . S
C796 O852 1.325 . S
N797 C800 1.314 . S
N797 C801 1.279 . S
C798 C796 1.348 . S
C798 C800 1.353 1_545 S
C798 H856 0.929 . S
C799 C796 1.356 . S
C799 C801 1.358 1_545 S
C799 H857 0.930 . S
C800 N797 1.314 . S
C800 C798 1.353 1_565 S
C800 H858 0.930 . S
C801 N797 1.279 . S
C801 C799 1.358 1_565 S
C801 H859 0.930 . S
C802 C805 1.343 1_545 S
C802 C806 1.356 . S
C802 O853 1.325 . S
C803 N804 1.279 . S
C803 C806 1.358 . S
C803 H860 0.930 . S
N804 C803 1.279 . S
N804 C807 1.314 1_545 S
C805 C802 1.343 1_565 S
C805 C807 1.356 . S
C805 H861 0.931 . S
C806 C802 1.356 . S
C806 C803 1.358 . S
C806 H862 0.930 . S
C807 N804 1.314 1_565 S
C807 C805 1.356 . S
C807 H863 0.930 . S
C808 N809 1.314 . S
C808 C813 1.353 . S
C808 H814 0.930 . S
N809 Li792 1.990 1_565 S
N809 C808 1.314 . S
N809 C811 1.279 . S
C810 C811 1.358 . S
C810 C812 1.356 . S
C810 H864 0.930 . S
C811 N809 1.279 . S
C811 C810 1.358 . S
C811 H815 0.930 . S
C812 C810 1.356 . S
C812 C813 1.348 . S
C813 C808 1.353 . S
C813 C812 1.348 . S
C813 H865 0.929 . S
H814 C808 0.930 . S
H815 C811 0.930 . S
C816 N817 1.314 . S
C816 C818 1.353 . S
C816 H822 0.930 . S
N817 Li793 1.990 . S
N817 C816 1.314 . S
N817 C820 1.279 . S
C818 C816 1.353 . S
C818 C821 1.348 . S
C818 H866 0.929 . S
C819 C820 1.358 . S
C819 C821 1.356 . S
C819 H867 0.930 . S
C820 N817 1.279 . S
C820 C819 1.358 . S
C820 H823 0.930 . S
C821 C818 1.348 . S
C821 C819 1.356 . S
H822 C816 0.930 . S
H823 C820 0.930 . S
C824 C826 1.348 . S
C824 C827 1.356 . S
C824 O854 1.325 . S
N825 C828 1.314 . S
N825 C829 1.279 . S
C826 C824 1.348 . S
C826 C828 1.353 . S
C826 H868 0.929 . S
C827 C824 1.356 . S
C827 C829 1.358 . S
C827 H869 0.930 . S
C828 N825 1.314 . S
C828 C826 1.353 . S
C828 H870 0.930 . S
C829 N825 1.279 . S
C829 C827 1.358 . S
C829 H871 0.930 . S
C830 C831 1.348 . S
C830 C832 1.356 . S
C830 O855 1.325 . S
C831 C830 1.348 . S
C831 C833 1.353 . S
C831 H872 0.929 . S
C832 C830 1.356 . S
C832 C834 1.358 . S
C832 H873 0.930 . S
C833 C831 1.353 . S
C833 N835 1.314 . S
C833 H874 0.930 . S
C834 C832 1.358 . S
C834 N835 1.279 . S
C834 H875 0.930 . S
N835 C833 1.314 . S
N835 C834 1.279 . S
C836 C838 1.353 . S
C836 N839 1.314 . S
C836 H842 0.930 . S
C837 N839 1.279 . S
C837 C840 1.358 . S
C837 H843 0.930 . S
C838 C836 1.353 . S
C838 C841 1.348 . S
C838 H876 0.929 . S
N839 Li794 1.990 . S
N839 C836 1.314 . S
N839 C837 1.279 . S
C840 C837 1.358 . S
C840 C841 1.356 . S
C840 H877 0.930 . S
C841 C838 1.348 . S
C841 C840 1.356 . S
H842 C836 0.930 . S
H843 C837 0.930 . S
C844 N845 1.314 . S
C844 C846 1.353 . S
C844 H850 0.930 . S
N845 Li795 1.990 . S
N845 C844 1.314 . S
N845 C848 1.279 . S
C846 C844 1.353 . S
C846 C849 1.348 . S
C846 H878 0.929 . S
C847 C848 1.358 . S
C847 C849 1.356 . S
C847 H879 0.930 . S
C848 N845 1.279 . S
C848 C847 1.358 . S
C848 H851 0.930 . S
C849 C846 1.348 . S
C849 C847 1.356 . S
H850 C844 0.930 . S
H851 C848 0.930 . S
O852 Li792 1.956 . S
O852 Li793 1.970 . S
O852 Li794 1.961 . S
O852 C796 1.325 . S
O853 Li792 1.970 . S
O853 Li793 1.956 . S
O853 Li795 1.961 . S
O853 C802 1.325 . S
O854 Li792 1.961 . S
O854 Li794 1.956 . S
O854 Li795 1.970 . S
O854 C824 1.325 . S
O855 Li793 1.961 . S
O855 Li794 1.970 . S
O855 Li795 1.956 . S
O855 C830 1.325 . S
H856 C798 0.929 . S
H857 C799 0.930 . S
H858 C800 0.930 . S
H859 C801 0.930 . S
H860 C803 0.930 . S
H861 C805 0.931 . S
H862 C806 0.930 . S
H863 C807 0.930 . S
H864 C810 0.930 . S
H865 C813 0.929 . S
H866 C818 0.929 . S
H867 C819 0.930 . S
H868 C826 0.929 . S
H869 C827 0.930 . S
H870 C828 0.930 . S
H871 C829 0.930 . S
H872 C831 0.929 . S
H873 C832 0.930 . S
H874 C833 0.930 . S
H875 C834 0.930 . S
H876 C838 0.929 . S
H877 C840 0.930 . S
H878 C846 0.929 . S
H879 C847 0.930 . S
Li880 N897 1.990 . S
Li880 O940 1.956 . S
Li880 O941 1.970 . S
Li880 O942 1.961 . S
Li881 N905 1.990 . S
Li881 O940 1.970 . S
Li881 O941 1.956 . S
Li881 O943 1.961 . S
Li882 N927 1.990 . S
Li882 O940 1.961 . S
Li882 O942 1.956 . S
Li882 O943 1.970 . S
Li883 N933 1.990 . S
Li883 O941 1.961 . S
Li883 O942 1.970 . S
Li883 O943 1.956 . S
C884 C886 1.348 . S
C884 C887 1.356 . S
C884 O940 1.325 . S
N885 C888 1.314 . S
N885 C889 1.279 . S
C886 C884 1.348 . S
C886 C888 1.353 . S
C886 H944 0.929 . S
C887 C884 1.356 . S
C887 C889 1.358 . S
C887 H945 0.930 . S
C888 N885 1.314 . S
C888 C886 1.353 . S
C888 H946 0.930 . S
C889 N885 1.279 . S
C889 C887 1.358 . S
C889 H947 0.930 . S
C890 C893 1.348 . S
C890 C894 1.356 . S
C890 O941 1.325 . S
C891 N892 1.279 . S
C891 C894 1.358 . S
C891 H948 0.930 . S
N892 C891 1.279 . S
N892 C895 1.314 . S
C893 C890 1.348 . S
C893 C895 1.353 . S
C893 H949 0.929 . S
C894 C890 1.356 . S
C894 C891 1.358 . S
C894 H950 0.930 . S
C895 N892 1.314 . S
C895 C893 1.353 . S
C895 H951 0.930 . S
C896 N897 1.314 . S
C896 C901 1.353 . S
C896 H902 0.930 . S
N897 Li880 1.990 . S
N897 C896 1.314 . S
N897 C899 1.279 . S
C898 C899 1.358 . S
C898 C900 1.356 . S
C898 H952 0.930 . S
C899 N897 1.279 . S
C899 C898 1.358 . S
C899 H903 0.930 . S
C900 C898 1.356 . S
C900 C901 1.348 . S
C901 C896 1.353 . S
C901 C900 1.348 . S
C901 H953 0.929 . S
H902 C896 0.930 . S
H903 C899 0.930 . S
C904 N905 1.314 . S
C904 C906 1.353 . S
C904 H910 0.930 . S
N905 Li881 1.990 . S
N905 C904 1.314 . S
N905 C908 1.279 . S
C906 C904 1.353 . S
C906 C909 1.348 . S
C906 H954 0.929 . S
C907 C908 1.358 . S
C907 C909 1.356 . S
C907 H955 0.930 . S
C908 N905 1.279 . S
C908 C907 1.358 . S
C908 H911 0.930 . S
C909 C906 1.348 . S
C909 C907 1.356 . S
H910 C904 0.930 . S
H911 C908 0.930 . S
C912 C914 1.348 . S
C912 C915 1.356 . S
C912 O942 1.325 . S
N913 C916 1.314 . S
N913 C917 1.279 . S
C914 C912 1.348 . S
C914 C916 1.353 . S
C914 H956 0.929 . S
C915 C912 1.356 . S
C915 C917 1.358 . S
C915 H957 0.930 . S
C916 N913 1.314 . S
C916 C914 1.353 . S
C916 H958 0.930 . S
C917 N913 1.279 . S
C917 C915 1.358 . S
C917 H959 0.930 . S
C918 C919 1.348 . S
C918 C920 1.356 . S
C918 O943 1.325 . S
C919 C918 1.348 . S
C919 C921 1.353 . S
C919 H960 0.929 . S
C920 C918 1.356 . S
C920 C922 1.358 . S
C920 H961 0.930 . S
C921 C919 1.353 . S
C921 N923 1.314 . S
C921 H962 0.930 . S
C922 C920 1.358 . S
C922 N923 1.279 . S
C922 H963 0.930 . S
N923 C921 1.314 . S
N923 C922 1.279 . S
C924 C926 1.353 . S
C924 N927 1.314 . S
C924 H930 0.930 . S
C925 N927 1.279 . S
C925 C928 1.358 . S
C925 H931 0.930 . S
C926 C924 1.353 . S
C926 C929 1.348 . S
C926 H964 0.929 . S
N927 Li882 1.990 . S
N927 C924 1.314 . S
N927 C925 1.279 . S
C928 C925 1.358 . S
C928 C929 1.356 . S
C928 H965 0.930 . S
C929 C926 1.348 . S
C929 C928 1.356 . S
H930 C924 0.930 . S
H931 C925 0.930 . S
C932 N933 1.314 . S
C932 C934 1.353 . S
C932 H938 0.930 . S
N933 Li883 1.990 . S
N933 C932 1.314 . S
N933 C936 1.279 . S
C934 C932 1.353 . S
C934 C937 1.348 . S
C934 H966 0.929 . S
C935 C936 1.358 . S
C935 C937 1.356 . S
C935 H967 0.930 . S
C936 N933 1.279 . S
C936 C935 1.358 . S
C936 H939 0.930 . S
C937 C934 1.348 . S
C937 C935 1.356 . S
H938 C932 0.930 . S
H939 C936 0.930 . S
O940 Li880 1.956 . S
O940 Li881 1.970 . S
O940 Li882 1.961 . S
O940 C884 1.325 . S
O941 Li880 1.970 . S
O941 Li881 1.956 . S
O941 Li883 1.961 . S
O941 C890 1.325 . S
O942 Li880 1.961 . S
O942 Li882 1.956 . S
O942 Li883 1.970 . S
O942 C912 1.325 . S
O943 Li881 1.961 . S
O943 Li882 1.970 . S
O943 Li883 1.956 . S
O943 C918 1.325 . S
H944 C886 0.929 . S
H945 C887 0.930 . S
H946 C888 0.930 . S
H947 C889 0.930 . S
H948 C891 0.930 . S
H949 C893 0.929 . S
H950 C894 0.930 . S
H951 C895 0.930 . S
H952 C898 0.930 . S
H953 C901 0.929 . S
H954 C906 0.929 . S
H955 C907 0.930 . S
H956 C914 0.929 . S
H957 C915 0.930 . S
H958 C916 0.930 . S
H959 C917 0.930 . S
H960 C919 0.929 . S
H961 C920 0.930 . S
H962 C921 0.930 . S
H963 C922 0.930 . S
H964 C926 0.929 . S
H965 C928 0.930 . S
H966 C934 0.929 . S
H967 C935 0.930 . S
Li968 N985 1.990 1_655 S
Li968 O1028 1.956 . S
Li968 O1029 1.970 . S
Li968 O1030 1.961 . S
Li969 N993 1.990 . S
Li969 O1028 1.970 . S
Li969 O1029 1.956 . S
Li969 O1031 1.961 . S
Li970 N1015 1.990 . S
Li970 O1028 1.961 . S
Li970 O1030 1.956 . S
Li970 O1031 1.970 . S
Li971 N1021 1.990 . S
Li971 O1029 1.961 . S
Li971 O1030 1.970 . S
Li971 O1031 1.956 . S
C972 C974 1.348 . S
C972 C975 1.356 . S
C972 O1028 1.325 . S
N973 C976 1.314 . S
N973 C977 1.279 . S
C974 C972 1.348 . S
C974 C976 1.353 1_655 S
C974 H1032 0.929 . S
C975 C972 1.356 . S
C975 C977 1.358 1_655 S
C975 H1033 0.930 . S
C976 N973 1.314 . S
C976 C974 1.353 1_455 S
C976 H1034 0.930 . S
C977 N973 1.279 . S
C977 C975 1.358 1_455 S
C977 H1035 0.930 . S
C978 C981 1.344 1_655 S
C978 C982 1.356 . S
C978 O1029 1.325 . S
C979 N980 1.279 . S
C979 C982 1.358 . S
C979 H1036 0.930 . S
N980 C979 1.279 . S
N980 C983 1.314 1_655 S
C981 C978 1.344 1_455 S
C981 C983 1.353 . S
C981 H1037 0.933 . S
C982 C978 1.356 . S
C982 C979 1.358 . S
C982 H1038 0.930 . S
C983 N980 1.314 1_455 S
C983 C981 1.353 . S
C983 H1039 0.930 . S
C984 N985 1.314 . S
C984 C989 1.353 . S
C984 H990 0.930 . S
N985 Li968 1.990 1_455 S
N985 C984 1.314 . S
N985 C987 1.279 . S
C986 C987 1.358 . S
C986 C988 1.356 . S
C986 H1040 0.930 . S
C987 N985 1.279 . S
C987 C986 1.358 . S
C987 H991 0.930 . S
C988 C986 1.356 . S
C988 C989 1.348 . S
C989 C984 1.353 . S
C989 C988 1.348 . S
C989 H1041 0.929 . S
H990 C984 0.930 . S
H991 C987 0.930 . S
C992 N993 1.314 . S
C992 C994 1.353 . S
C992 H998 0.930 . S
N993 Li969 1.990 . S
N993 C992 1.314 . S
N993 C996 1.279 . S
C994 C992 1.353 . S
C994 C997 1.348 . S
C994 H1042 0.929 . S
C995 C996 1.358 . S
C995 C997 1.356 . S
C995 H1043 0.930 . S
C996 N993 1.279 . S
C996 C995 1.358 . S
C996 H999 0.930 . S
C997 C994 1.348 . S
C997 C995 1.356 . S
H998 C992 0.930 . S
H999 C996 0.930 . S
C1000 C1002 1.348 . S
C1000 C1003 1.356 . S
C1000 O1030 1.325 . S
N1001 C1004 1.314 . S
N1001 C1005 1.279 . S
C1002 C1000 1.348 . S
C1002 C1004 1.353 . S
C1002 H1044 0.929 . S
C1003 C1000 1.356 . S
C1003 C1005 1.358 . S
C1003 H1045 0.930 . S
C1004 N1001 1.314 . S
C1004 C1002 1.353 . S
C1004 H1046 0.930 . S
C1005 N1001 1.279 . S
C1005 C1003 1.358 . S
C1005 H1047 0.930 . S
C1006 C1007 1.348 . S
C1006 C1008 1.356 . S
C1006 O1031 1.325 . S
C1007 C1006 1.348 . S
C1007 C1009 1.353 . S
C1007 H1048 0.929 . S
C1008 C1006 1.356 . S
C1008 C1010 1.358 . S
C1008 H1049 0.930 . S
C1009 C1007 1.353 . S
C1009 N1011 1.314 . S
C1009 H1050 0.930 . S
C1010 C1008 1.358 . S
C1010 N1011 1.279 . S
C1010 H1051 0.930 . S
N1011 C1009 1.314 . S
N1011 C1010 1.279 . S
C1012 C1014 1.353 . S
C1012 N1015 1.314 . S
C1012 H1018 0.930 . S
C1013 N1015 1.279 . S
C1013 C1016 1.358 . S
C1013 H1019 0.930 . S
C1014 C1012 1.353 . S
C1014 C1017 1.348 . S
C1014 H1052 0.929 . S
N1015 Li970 1.990 . S
N1015 C1012 1.314 . S
N1015 C1013 1.279 . S
C1016 C1013 1.358 . S
C1016 C1017 1.356 . S
C1016 H1053 0.930 . S
C1017 C1014 1.348 . S
C1017 C1016 1.356 . S
H1018 C1012 0.930 . S
H1019 C1013 0.930 . S
C1020 N1021 1.314 . S
C1020 C1022 1.353 . S
C1020 H1026 0.930 . S
N1021 Li971 1.990 . S
N1021 C1020 1.314 . S
N1021 C1024 1.279 . S
C1022 C1020 1.353 . S
C1022 C1025 1.348 . S
C1022 H1054 0.929 . S
C1023 C1024 1.358 . S
C1023 C1025 1.356 . S
C1023 H1055 0.930 . S
C1024 N1021 1.279 . S
C1024 C1023 1.358 . S
C1024 H1027 0.930 . S
C1025 C1022 1.348 . S
C1025 C1023 1.356 . S
H1026 C1020 0.930 . S
H1027 C1024 0.930 . S
O1028 Li968 1.956 . S
O1028 Li969 1.970 . S
O1028 Li970 1.961 . S
O1028 C972 1.325 . S
O1029 Li968 1.970 . S
O1029 Li969 1.956 . S
O1029 Li971 1.961 . S
O1029 C978 1.325 . S
O1030 Li968 1.961 . S
O1030 Li970 1.956 . S
O1030 Li971 1.970 . S
O1030 C1000 1.325 . S
O1031 Li969 1.961 . S
O1031 Li970 1.970 . S
O1031 Li971 1.956 . S
O1031 C1006 1.325 . S
H1032 C974 0.929 . S
H1033 C975 0.930 . S
H1034 C976 0.930 . S
H1035 C977 0.930 . S
H1036 C979 0.930 . S
H1037 C981 0.933 . S
H1038 C982 0.930 . S
H1039 C983 0.930 . S
H1040 C986 0.930 . S
H1041 C989 0.929 . S
H1042 C994 0.929 . S
H1043 C995 0.930 . S
H1044 C1002 0.929 . S
H1045 C1003 0.930 . S
H1046 C1004 0.930 . S
H1047 C1005 0.930 . S
H1048 C1007 0.929 . S
H1049 C1008 0.930 . S
H1050 C1009 0.930 . S
H1051 C1010 0.930 . S
H1052 C1014 0.929 . S
H1053 C1016 0.930 . S
H1054 C1022 0.929 . S
H1055 C1023 0.930 . S
C753 C57 1.930 . S
C145 C821 1.930 . S
C233 C900 1.930 . S
C293 C997 1.930 . S
C557 C372 1.930 . S
C460 C645 1.930 . S
C20 C469 1.928 . S
C108 C49 1.928 . S
C196 C137 1.928 . S
C225 C313 1.928 . S
C284 C409 1.928 . S
C381 C497 1.928 . S
C636 C577 1.928 . S
C665 C761 1.928 . S
C812 C733 1.928 . S
C841 C909 1.928 . S
C937 C988 1.928 . S
C1017 C548 1.928 . S
C929 C29 1.118 . S
C1025 C117 1.118 . S
C585 C205 1.118 . S
C321 C673 1.118 . S
C401 C724 1.118 . S
C849 C489 1.118 . S
