# Generated by pormake.
# Topology upb, (4)-cn, num edge types: 1
# Building blocks:
#     Node 0, Type 0, BuildingBlock: UXUYUI_clean_sbu_0, # of connection points: 4
#     Node 1, Type 0, BuildingBlock: UXUYUI_clean_sbu_0, # of connection points: 4
#     Node 2, Type 0, BuildingBlock: UXUYUI_clean_sbu_0, # of connection points: 4
#     Node 3, Type 0, BuildingBlock: UXUYUI_clean_sbu_0, # of connection points: 4
#     Node 4, Type 0, BuildingBlock: UXUYUI_clean_sbu_0, # of connection points: 4
#     Node 5, Type 0, BuildingBlock: UXUYUI_clean_sbu_0, # of connection points: 4
#     Node 6, Type 0, BuildingBlock: UXUYUI_clean_sbu_0, # of connection points: 4
#     Node 7, Type 0, BuildingBlock: UXUYUI_clean_sbu_0, # of connection points: 4
#     Node 8, Type 0, BuildingBlock: UXUYUI_clean_sbu_0, # of connection points: 4
#     Node 9, Type 0, BuildingBlock: UXUYUI_clean_sbu_0, # of connection points: 4
#     Node 10, Type 0, BuildingBlock: UXUYUI_clean_sbu_0, # of connection points: 4
#     Node 11, Type 0, BuildingBlock: UXUYUI_clean_sbu_0, # of connection points: 4
#     Node 12, Type 0, BuildingBlock: UXUYUI_clean_sbu_0, # of connection points: 4
#     Node 13, Type 0, BuildingBlock: UXUYUI_clean_sbu_0, # of connection points: 4
#     Node 14, Type 0, BuildingBlock: UXUYUI_clean_sbu_0, # of connection points: 4
#     Node 15, Type 0, BuildingBlock: UXUYUI_clean_sbu_0, # of connection points: 4
#     Edge 16, Type (0, 0), BuildingBlock: XUDNAN_clean_linker_2, # of connection points: 2
#     Edge 17, Type (0, 0), BuildingBlock: XUDNAN_clean_linker_2, # of connection points: 2
#     Edge 18, Type (0, 0), BuildingBlock: XUDNAN_clean_linker_2, # of connection points: 2
#     Edge 19, Type (0, 0), BuildingBlock: XUDNAN_clean_linker_2, # of connection points: 2
#     Edge 20, Type (0, 0), BuildingBlock: XUDNAN_clean_linker_2, # of connection points: 2
#     Edge 21, Type (0, 0), BuildingBlock: XUDNAN_clean_linker_2, # of connection points: 2
#     Edge 22, Type (0, 0), BuildingBlock: XUDNAN_clean_linker_2, # of connection points: 2
#     Edge 23, Type (0, 0), BuildingBlock: XUDNAN_clean_linker_2, # of connection points: 2
#     Edge 24, Type (0, 0), BuildingBlock: XUDNAN_clean_linker_2, # of connection points: 2
#     Edge 25, Type (0, 0), BuildingBlock: XUDNAN_clean_linker_2, # of connection points: 2
#     Edge 26, Type (0, 0), BuildingBlock: XUDNAN_clean_linker_2, # of connection points: 2
#     Edge 27, Type (0, 0), BuildingBlock: XUDNAN_clean_linker_2, # of connection points: 2
#     Edge 28, Type (0, 0), BuildingBlock: XUDNAN_clean_linker_2, # of connection points: 2
#     Edge 29, Type (0, 0), BuildingBlock: XUDNAN_clean_linker_2, # of connection points: 2
#     Edge 30, Type (0, 0), BuildingBlock: XUDNAN_clean_linker_2, # of connection points: 2
#     Edge 31, Type (0, 0), BuildingBlock: XUDNAN_clean_linker_2, # of connection points: 2
#     Edge 32, Type (0, 0), BuildingBlock: XUDNAN_clean_linker_2, # of connection points: 2
#     Edge 33, Type (0, 0), BuildingBlock: XUDNAN_clean_linker_2, # of connection points: 2
#     Edge 34, Type (0, 0), BuildingBlock: XUDNAN_clean_linker_2, # of connection points: 2
#     Edge 35, Type (0, 0), BuildingBlock: XUDNAN_clean_linker_2, # of connection points: 2
#     Edge 36, Type (0, 0), BuildingBlock: XUDNAN_clean_linker_2, # of connection points: 2
#     Edge 37, Type (0, 0), BuildingBlock: XUDNAN_clean_linker_2, # of connection points: 2
#     Edge 38, Type (0, 0), BuildingBlock: XUDNAN_clean_linker_2, # of connection points: 2
#     Edge 39, Type (0, 0), BuildingBlock: XUDNAN_clean_linker_2, # of connection points: 2
#     Edge 40, Type (0, 0), BuildingBlock: XUDNAN_clean_linker_2, # of connection points: 2
#     Edge 41, Type (0, 0), BuildingBlock: XUDNAN_clean_linker_2, # of connection points: 2
#     Edge 42, Type (0, 0), BuildingBlock: XUDNAN_clean_linker_2, # of connection points: 2
#     Edge 43, Type (0, 0), BuildingBlock: XUDNAN_clean_linker_2, # of connection points: 2
#     Edge 44, Type (0, 0), BuildingBlock: XUDNAN_clean_linker_2, # of connection points: 2
#     Edge 45, Type (0, 0), BuildingBlock: XUDNAN_clean_linker_2, # of connection points: 2
#     Edge 46, Type (0, 0), BuildingBlock: XUDNAN_clean_linker_2, # of connection points: 2
#     Edge 47, Type (0, 0), BuildingBlock: XUDNAN_clean_linker_2, # of connection points: 2
# Relax obj value: 0.322
# Max RMSD: 0.141
# Mean RMSD: 0.140
data_MOF--net-upb--node1-UXUYUI_clean_sbu_0--edge1-XUDNAN_clean_linker_2
_symmetry_space_group_name_H-M    P1
_symmetry_Int_Tables_number       1
_symmetry_cell_setting            triclinic
loop_
_symmetry_equiv_pos_as_xyz
'x, y, z'
_cell_length_a     51.555764
_cell_length_b     51.497819
_cell_length_c     72.595341
_cell_angle_alpha  90.006122
_cell_angle_beta   89.996362
_cell_angle_gamma 90.004333
loop_
_atom_site_label
_atom_site_type_symbol
_atom_site_fract_x
_atom_site_fract_y
_atom_site_fract_z
_atom_type_partial_charge
Li0 Li 0.02041 0.27701 0.34693 0.0
Li1 Li 0.99627 0.30995 0.36594 0.0
Li2 Li 0.97307 0.28082 0.3458 0.0
Li3 Li 0.99709 0.31582 0.33336 0.0
C4 C 0.98201 0.25396 0.37672 0.0
N5 N 0.95236 0.21796 0.39546 0.0
C6 C 0.9621 0.2622 0.3884 0.0
C7 C 0.987 0.22745 0.37467 0.0
C8 C 0.94727 0.24368 0.39772 0.0
C9 C 0.97176 0.20954 0.38425 0.0
C10 C 0.04277 0.32888 0.36224 0.0
C11 C 0.05249 0.36852 0.37856 0.0
N12 N 0.0722 0.35625 0.38746 0.0
C13 C 0.06326 0.31674 0.37143 0.0
C14 C 0.03745 0.35504 0.36572 0.0
C15 C 0.07787 0.33088 0.38416 0.0
C16 C 0.0637 0.25219 0.33048 0.0
N17 N 0.04999 0.25527 0.34633 0.0
C18 C 0.0804 0.22937 0.36297 0.0
C19 C 0.05769 0.24406 0.36237 0.0
C20 C 0.09504 0.22593 0.34685 0.0
C21 C 0.08631 0.23723 0.33039 0.0
H22 H 0.0572 0.2616 0.31799 0.0
H23 H 0.04649 0.24708 0.37478 0.0
C24 C 0.97916 0.3431 0.395 0.0
N25 N 0.99606 0.32408 0.3901 0.0
C26 C 0.97681 0.35045 0.41345 0.0
C27 C 0.00971 0.31889 0.42132 0.0
C28 C 0.01143 0.31218 0.40275 0.0
C29 C 0.99181 0.33787 0.42695 0.0
H30 H 0.96677 0.35183 0.38472 0.0
H31 H 0.02425 0.29668 0.39848 0.0
C32 C 0.98669 0.26107 0.31326 0.0
N33 N 0.96408 0.22487 0.29019 0.0
C34 C 0.96364 0.26694 0.30403 0.0
C35 C 0.99829 0.23679 0.31071 0.0
C36 C 0.95248 0.24837 0.29246 0.0
C37 C 0.98655 0.21876 0.29898 0.0
C38 C 0.95382 0.33815 0.34144 0.0
C39 C 0.93354 0.33312 0.32915 0.0
C40 C 0.9614 0.36379 0.34472 0.0
C41 C 0.92132 0.35384 0.32026 0.0
C42 C 0.94874 0.38397 0.33553 0.0
N43 N 0.92913 0.37862 0.32359 0.0
C44 C 0.92004 0.27109 0.35167 0.0
C45 C 0.94313 0.23413 0.34126 0.0
C46 C 0.89753 0.25636 0.35383 0.0
N47 N 0.94223 0.25988 0.34542 0.0
C48 C 0.92104 0.21867 0.34315 0.0
C49 C 0.89792 0.22972 0.34972 0.0
H50 H 0.92003 0.29132 0.35562 0.0
H51 H 0.96123 0.22529 0.33722 0.0
C52 C 0.02143 0.35648 0.31402 0.0
N53 N 0.00055 0.34038 0.31374 0.0
C54 C 0.02659 0.37274 0.29908 0.0
C55 C 0.98822 0.35617 0.28403 0.0
C56 C 0.9839 0.34011 0.29922 0.0
C57 C 0.01013 0.37238 0.28365 0.0
H58 H 0.0347 0.35599 0.32552 0.0
H59 H 0.96762 0.32698 0.29916 0.0
O60 O 0.9962 0.27174 0.36705 0.0
O61 O 0.02784 0.31518 0.35003 0.0
O62 O 0.99799 0.27901 0.32463 0.0
O63 O 0.96623 0.3181 0.35015 0.0
H64 H 0.95791 0.28267 0.39004 0.0
H65 H 0.00226 0.22079 0.36557 0.0
H66 H 0.93166 0.24976 0.4067 0.0
H67 H 0.97527 0.18895 0.38271 0.0
H68 H 0.04846 0.38872 0.38147 0.0
H69 H 0.06779 0.29659 0.36886 0.0
H70 H 0.02179 0.36481 0.35867 0.0
H71 H 0.0937 0.32167 0.39144 0.0
H72 H 0.0865 0.2208 0.3759 0.0
H73 H 0.09724 0.2351 0.31773 0.0
H74 H 0.9629 0.3653 0.41716 0.0
H75 H 0.02131 0.30833 0.43125 0.0
H76 H 0.95418 0.28543 0.30603 0.0
H77 H 0.016 0.23179 0.31783 0.0
H78 H 0.93454 0.25261 0.28534 0.0
H79 H 0.99527 0.19987 0.29693 0.0
H80 H 0.9275 0.31343 0.32629 0.0
H81 H 0.97701 0.3681 0.35417 0.0
H82 H 0.90571 0.35019 0.31065 0.0
H83 H 0.95452 0.40389 0.33788 0.0
H84 H 0.88012 0.26565 0.35895 0.0
H85 H 0.92238 0.19808 0.34027 0.0
H86 H 0.044 0.38451 0.29929 0.0
H87 H 0.97486 0.35542 0.27253 0.0
Li88 Li 0.67593 0.99976 0.34367 0.0
Li89 Li 0.71293 0.01966 0.35837 0.0
Li90 Li 0.71227 0.97267 0.35328 0.0
Li91 Li 0.68537 0.9932 0.37648 0.0
C92 C 0.71367 0.98993 0.31743 0.0
N93 N 0.71677 0.96792 0.28279 0.0
C94 C 0.72993 0.00075 0.30409 0.0
C95 C 0.69898 0.96791 0.31317 0.0
C96 C 0.73123 0.98934 0.28665 0.0
C97 C 0.70082 0.95707 0.29558 0.0
C98 C 0.67625 0.05211 0.36604 0.0
C99 C 0.68833 0.08992 0.38372 0.0
N100 N 0.67942 0.10543 0.36994 0.0
C101 C 0.66699 0.06844 0.35214 0.0
C102 C 0.68678 0.06294 0.38204 0.0
C103 C 0.66883 0.09533 0.35434 0.0
C104 C 0.62756 0.99386 0.32298 0.0
N105 N 0.65102 0.00584 0.32446 0.0
C106 C 0.64191 0.03172 0.29791 0.0
C107 C 0.65851 0.02411 0.31205 0.0
C108 C 0.61705 0.02064 0.29655 0.0
C109 C 0.61014 0.00114 0.30916 0.0
H110 H 0.622 0.97893 0.33256 0.0
H111 H 0.67735 0.03318 0.31337 0.0
C112 C 0.7496 0.05435 0.37326 0.0
N113 N 0.73489 0.04938 0.35814 0.0
C114 C 0.76489 0.07663 0.37406 0.0
C115 C 0.75058 0.08778 0.34334 0.0
C116 C 0.73522 0.06539 0.34324 0.0
C117 C 0.7654 0.09371 0.35902 0.0
H118 H 0.74924 0.04116 0.38478 0.0
H119 H 0.72331 0.0609 0.33138 0.0
C120 C 0.64985 0.95842 0.36094 0.0
N121 N 0.59947 0.94249 0.36745 0.0
C122 C 0.63185 0.97561 0.36867 0.0
C123 C 0.64218 0.93314 0.35656 0.0
C124 C 0.6065 0.96717 0.37187 0.0
C125 C 0.61662 0.92547 0.35992 0.0
C126 C 0.73073 0.98319 0.39245 0.0
C127 C 0.73879 0.95748 0.39486 0.0
C128 C 0.72935 0.99972 0.40771 0.0
C129 C 0.74512 0.9487 0.41251 0.0
C130 C 0.73577 0.99018 0.42514 0.0
N131 N 0.74346 0.96508 0.42716 0.0
C132 C 0.75883 0.94877 0.34385 0.0
C133 C 0.7235 0.91948 0.34627 0.0
C134 C 0.77581 0.92838 0.34006 0.0
N135 N 0.73332 0.94393 0.34702 0.0
C136 C 0.73978 0.89847 0.34242 0.0
C137 C 0.76637 0.9028 0.33946 0.0
H138 H 0.766 0.96849 0.34453 0.0
H139 H 0.70313 0.91627 0.34894 0.0
C140 C 0.6589 0.00819 0.40921 0.0
N141 N 0.67101 0.98826 0.40047 0.0
C142 C 0.65118 0.00555 0.42754 0.0
C143 C 0.66747 0.96155 0.42722 0.0
C144 C 0.67448 0.96492 0.40882 0.0
C145 C 0.65614 0.98224 0.43699 0.0
H146 H 0.65564 0.02629 0.40207 0.0
H147 H 0.68376 0.94926 0.4014 0.0
O148 O 0.71224 0.00098 0.33454 0.0
O149 O 0.67525 0.0257 0.36393 0.0
O150 O 0.67503 0.9659 0.35811 0.0
O151 O 0.72421 0.99208 0.37526 0.0
H152 H 0.74141 0.01781 0.30718 0.0
H153 H 0.68625 0.95926 0.32329 0.0
H154 H 0.74373 0.99751 0.27618 0.0
H155 H 0.68957 0.94004 0.2921 0.0
H156 H 0.69671 0.09853 0.39594 0.0
H157 H 0.65847 0.0605 0.33979 0.0
H158 H 0.69414 0.05066 0.39291 0.0
H159 H 0.66185 0.10818 0.34365 0.0
H160 H 0.64848 0.0463 0.28823 0.0
H161 H 0.59122 0.99204 0.3087 0.0
H162 H 0.77637 0.08037 0.38628 0.0
H163 H 0.75048 0.10057 0.3315 0.0
H164 H 0.63721 0.99533 0.37198 0.0
H165 H 0.65582 0.91956 0.3506 0.0
H166 H 0.59239 0.98027 0.3778 0.0
H167 H 0.61043 0.90596 0.35656 0.0
H168 H 0.73999 0.94433 0.38331 0.0
H169 H 0.72288 0.01955 0.40623 0.0
H170 H 0.75128 0.92883 0.41457 0.0
H171 H 0.73451 0.0027 0.43707 0.0
H172 H 0.79611 0.93258 0.33763 0.0
H173 H 0.73178 0.87903 0.34227 0.0
H174 H 0.64183 0.02179 0.4343 0.0
H175 H 0.67195 0.94328 0.43386 0.0
Li176 Li 0.97773 0.71955 0.34848 0.0
Li177 Li 0.00077 0.6908 0.37231 0.0
Li178 Li 0.02493 0.71544 0.34903 0.0
Li179 Li 0.99979 0.67962 0.33997 0.0
C180 C 0.01326 0.75314 0.37173 0.0
N181 N 0.03818 0.80021 0.37645 0.0
C182 C 0.03368 0.75538 0.3843 0.0
C183 C 0.00548 0.77487 0.36159 0.0
C184 C 0.04605 0.77933 0.38646 0.0
C185 C 0.01831 0.79849 0.36419 0.0
C186 C 0.95278 0.66512 0.35077 0.0
C187 C 0.94037 0.62013 0.34782 0.0
N188 N 0.91991 0.6273 0.33715 0.0
C189 C 0.93148 0.67205 0.33991 0.0
C190 C 0.95713 0.63897 0.3549 0.0
C191 C 0.91513 0.65264 0.33312 0.0
C192 C 0.93979 0.74473 0.32697 0.0
N193 N 0.94882 0.74135 0.34439 0.0
C194 C 0.91574 0.76893 0.3565 0.0
C195 C 0.93733 0.75299 0.35907 0.0
C196 C 0.90581 0.7727 0.33867 0.0
C197 C 0.91811 0.76035 0.32378 0.0
H198 H 0.94931 0.73507 0.31559 0.0
H199 H 0.94496 0.74981 0.37276 0.0
C200 C 0.01646 0.68712 0.40975 0.0
N201 N 0.99833 0.67976 0.39722 0.0
C202 C 0.01304 0.68139 0.42842 0.0
C203 C 0.97323 0.65914 0.42069 0.0
C204 C 0.97716 0.66576 0.40228 0.0
C205 C 0.99092 0.66755 0.43419 0.0
H206 H 0.03322 0.69805 0.40533 0.0
H207 H 0.96301 0.66017 0.39205 0.0
C208 C 0.0152 0.7137 0.31157 0.0
N209 N 0.0435 0.7134 0.27925 0.0
C210 C 0.03614 0.69674 0.3095 0.0
C211 C 0.00864 0.73052 0.29721 0.0
C212 C 0.05021 0.69687 0.29306 0.0
C213 C 0.02318 0.73008 0.28097 0.0
C214 C 0.04239 0.65586 0.35847 0.0
C215 C 0.06569 0.65151 0.3491 0.0
C216 C 0.03213 0.63634 0.36969 0.0
C217 C 0.07804 0.62749 0.35081 0.0
C218 C 0.04507 0.61259 0.37106 0.0
N219 N 0.06754 0.60867 0.36165 0.0
C220 C 0.07807 0.7272 0.35382 0.0
C221 C 0.05524 0.75611 0.33424 0.0
C222 C 0.1007 0.74188 0.35194 0.0
N223 N 0.05596 0.73463 0.3451 0.0
C224 C 0.07736 0.77139 0.33203 0.0
C225 C 0.10045 0.76444 0.34105 0.0
H226 H 0.07795 0.71015 0.36252 0.0
H227 H 0.03732 0.76163 0.32757 0.0
C228 C 0.9777 0.65876 0.30903 0.0
N229 N 0.9951 0.65227 0.3223 0.0
C230 C 0.96962 0.6405 0.29613 0.0
C231 C 0.9985 0.60925 0.31008 0.0
C232 C 0.00582 0.62814 0.32292 0.0
C233 C 0.97986 0.61522 0.29658 0.0
H234 H 0.96927 0.678 0.30894 0.0
H235 H 0.01954 0.6232 0.33354 0.0
O236 O 0.00148 0.72965 0.36892 0.0
O237 O 0.96943 0.68384 0.35709 0.0
O238 O 0.00123 0.71409 0.32759 0.0
O239 O 0.03027 0.67941 0.35712 0.0
H240 H 0.0402 0.73875 0.39208 0.0
H241 H 0.99002 0.77345 0.35158 0.0
H242 H 0.062 0.78128 0.39605 0.0
H243 H 0.01258 0.81542 0.35636 0.0
H244 H 0.94369 0.59981 0.35075 0.0
H245 H 0.92772 0.69215 0.33661 0.0
H246 H 0.97349 0.6332 0.36325 0.0
H247 H 0.89869 0.65772 0.3246 0.0
H248 H 0.90665 0.77785 0.36837 0.0
H249 H 0.9112 0.76293 0.30981 0.0
H250 H 0.02712 0.6886 0.43822 0.0
H251 H 0.95624 0.64789 0.4243 0.0
H252 H 0.04142 0.6836 0.32044 0.0
H253 H 0.99253 0.74386 0.29863 0.0
H254 H 0.06646 0.68381 0.29128 0.0
H255 H 0.01834 0.74302 0.26975 0.0
H256 H 0.07423 0.66657 0.34065 0.0
H257 H 0.01435 0.6394 0.37723 0.0
H258 H 0.09601 0.62382 0.34357 0.0
H259 H 0.03725 0.59727 0.37961 0.0
H260 H 0.11798 0.73602 0.35932 0.0
H261 H 0.07638 0.78848 0.32336 0.0
H262 H 0.95477 0.646 0.28634 0.0
H263 H 0.00715 0.59012 0.31086 0.0
Li264 Li 0.30944 0.99975 0.37017 0.0
Li265 Li 0.2864 0.02393 0.34585 0.0
Li266 Li 0.28378 0.97642 0.34723 0.0
Li267 Li 0.3238 0.999 0.33787 0.0
C268 C 0.25969 0.00447 0.38216 0.0
N269 N 0.23705 0.0104 0.41641 0.0
C270 C 0.2493 0.02845 0.38737 0.0
C271 C 0.25848 0.98349 0.39435 0.0
C272 C 0.23793 0.03105 0.40475 0.0
C273 C 0.247 0.98689 0.41161 0.0
C274 C 0.34534 0.04102 0.35234 0.0
C275 C 0.37458 0.06553 0.33313 0.0
N276 N 0.39321 0.06354 0.34632 0.0
C277 C 0.36469 0.03935 0.36577 0.0
C278 C 0.35021 0.05436 0.33594 0.0
C279 C 0.38879 0.05083 0.36245 0.0
C280 C 0.33817 0.98006 0.39977 0.0
N281 N 0.32084 0.99879 0.39509 0.0
C282 C 0.31734 0.01232 0.42645 0.0
C283 C 0.31127 0.01553 0.40785 0.0
C284 C 0.33425 0.99227 0.43191 0.0
C285 C 0.34538 0.97661 0.41812 0.0
H286 H 0.3461 0.96749 0.38926 0.0
H287 H 0.29822 0.03084 0.4037 0.0
C288 C 0.24044 0.05208 0.3397 0.0
N289 N 0.26657 0.05441 0.34159 0.0
C290 C 0.22482 0.07419 0.33899 0.0
C291 C 0.26335 0.10067 0.34179 0.0
C292 C 0.27825 0.07804 0.34235 0.0
C293 C 0.23622 0.09888 0.34047 0.0
H294 H 0.23165 0.03302 0.33959 0.0
H295 H 0.29903 0.0793 0.3441 0.0
C296 C 0.32229 0.94349 0.35516 0.0
N297 N 0.32544 0.88996 0.35422 0.0
C298 C 0.33443 0.93107 0.34037 0.0
C299 C 0.31196 0.92872 0.36955 0.0
C300 C 0.33579 0.90397 0.34014 0.0
C301 C 0.31367 0.90167 0.36879 0.0
C302 C 0.27435 0.00935 0.31229 0.0
C303 C 0.24918 0.99997 0.3097 0.0
C304 C 0.28313 0.03042 0.30189 0.0
C305 C 0.23305 0.01208 0.29684 0.0
C306 C 0.2664 0.04202 0.28919 0.0
N307 N 0.24192 0.03269 0.28696 0.0
C308 C 0.24103 0.94363 0.35414 0.0
C309 C 0.26882 0.92897 0.33032 0.0
C310 C 0.22566 0.92148 0.35243 0.0
N311 N 0.26239 0.94673 0.3434 0.0
C312 C 0.25404 0.90642 0.32817 0.0
C313 C 0.23223 0.90236 0.33943 0.0
H314 H 0.23597 0.95828 0.36414 0.0
H315 H 0.28557 0.93222 0.32166 0.0
C316 C 0.37701 0.9918 0.33129 0.0
N317 N 0.35367 0.99496 0.32289 0.0
C318 C 0.39878 0.98478 0.32104 0.0
C319 C 0.3721 0.98434 0.29366 0.0
C320 C 0.35092 0.99186 0.30441 0.0
C321 C 0.39637 0.98009 0.30203 0.0
H322 H 0.37847 0.99367 0.34608 0.0
H323 H 0.33198 0.99389 0.29818 0.0
O324 O 0.27097 0.00157 0.36522 0.0
O325 O 0.32171 0.02972 0.35528 0.0
O326 O 0.3204 0.96997 0.35552 0.0
O327 O 0.29028 0.99804 0.32501 0.0
H328 H 0.25021 0.04497 0.37821 0.0
H329 H 0.26651 0.96484 0.39058 0.0
H330 H 0.2299 0.04951 0.40899 0.0
H331 H 0.24605 0.97085 0.42121 0.0
H332 H 0.3787 0.07577 0.32045 0.0
H333 H 0.36118 0.02916 0.37857 0.0
H334 H 0.33541 0.05584 0.32543 0.0
H335 H 0.40401 0.04959 0.37267 0.0
H336 H 0.30803 0.02488 0.4364 0.0
H337 H 0.35922 0.96153 0.42143 0.0
H338 H 0.20396 0.07191 0.33827 0.0
H339 H 0.2729 0.11935 0.34284 0.0
H340 H 0.34249 0.94219 0.3291 0.0
H341 H 0.30261 0.93805 0.38113 0.0
H342 H 0.34501 0.89409 0.32874 0.0
H343 H 0.30563 0.88999 0.37978 0.0
H344 H 0.2421 0.98368 0.31766 0.0
H345 H 0.3026 0.03785 0.30372 0.0
H346 H 0.21347 0.00513 0.29475 0.0
H347 H 0.27287 0.05845 0.28112 0.0
H348 H 0.20912 0.91912 0.36147 0.0
H349 H 0.25953 0.8924 0.31776 0.0
H350 H 0.41709 0.98214 0.3281 0.0
H351 H 0.36905 0.9805 0.27917 0.0
Li352 Li 0.00143 0.68046 0.66299 0.0
Li353 Li 0.97804 0.71761 0.65282 0.0
Li354 Li 0.9987 0.68958 0.63064 0.0
Li355 Li 0.0252 0.71997 0.65027 0.0
C356 C 0.95642 0.66002 0.65388 0.0
N357 N 0.93 0.61745 0.66755 0.0
C358 C 0.93499 0.66347 0.66545 0.0
C359 C 0.96427 0.6349 0.6492 0.0
C360 C 0.92192 0.64171 0.67222 0.0
C361 C 0.95073 0.61363 0.65628 0.0
C362 C 0.99358 0.73039 0.68716 0.0
C363 C 0.99423 0.76741 0.70752 0.0
N364 N 0.97196 0.75887 0.71553 0.0
C365 C 0.97073 0.72198 0.69561 0.0
C366 C 0.00546 0.75329 0.69315 0.0
C367 C 0.96007 0.73666 0.70992 0.0
C368 C 0.0281 0.64103 0.68177 0.0
N369 N 0.00523 0.65415 0.68137 0.0
C370 C 0.99117 0.63275 0.70884 0.0
C371 C 0.98681 0.65021 0.69448 0.0
C372 C 0.01495 0.61954 0.70996 0.0
C373 C 0.03339 0.62355 0.69597 0.0
H374 H 0.04268 0.64488 0.67144 0.0
H375 H 0.96897 0.66107 0.69416 0.0
C376 C 0.92507 0.73024 0.64975 0.0
N377 N 0.94817 0.73935 0.65603 0.0
C378 C 0.90265 0.74522 0.65141 0.0
C379 C 0.92832 0.77917 0.66541 0.0
C380 C 0.95025 0.76355 0.66339 0.0
C381 C 0.90405 0.77 0.65946 0.0
H382 H 0.92412 0.71143 0.64318 0.0
H383 H 0.96897 0.77088 0.66755 0.0
C384 C 0.04503 0.66801 0.63272 0.0
N385 N 0.07279 0.64013 0.60685 0.0
C386 C 0.06426 0.6802 0.62227 0.0
C387 C 0.04016 0.64155 0.63019 0.0
C388 C 0.07803 0.6658 0.60922 0.0
C389 C 0.05434 0.62781 0.617 0.0
C390 C 0.98575 0.74771 0.62375 0.0
C391 C 0.96506 0.74228 0.61193 0.0
C392 C 0.99153 0.77342 0.6283 0.0
C393 C 0.95025 0.76278 0.60498 0.0
C394 C 0.97627 0.79338 0.62106 0.0
N395 N 0.9561 0.78768 0.60966 0.0
C396 C 0.97809 0.65946 0.60118 0.0
C397 C 0.01224 0.68825 0.59339 0.0
C398 C 0.9747 0.65286 0.58268 0.0
N399 N 0.99652 0.67699 0.60611 0.0
C400 C 0.0096 0.68216 0.57476 0.0
C401 C 0.9903 0.6646 0.56916 0.0
H402 H 0.96537 0.65132 0.61149 0.0
H403 H 0.02621 0.70272 0.59766 0.0
C404 C 0.06904 0.74349 0.66699 0.0
N405 N 0.05532 0.74097 0.65109 0.0
C406 C 0.09155 0.75862 0.66738 0.0
C407 C 0.08562 0.76766 0.63496 0.0
C408 C 0.063 0.7528 0.63528 0.0
C409 C 0.10017 0.77067 0.65116 0.0
H410 H 0.06258 0.73361 0.67931 0.0
H411 H 0.05169 0.75035 0.62284 0.0
O412 O 0.96955 0.68109 0.64712 0.0
O413 O 0.00426 0.71636 0.67306 0.0
O414 O 0.03098 0.68192 0.64532 0.0
O415 O 0.99997 0.72789 0.63111 0.0
H416 H 0.92873 0.68269 0.66943 0.0
H417 H 0.9807 0.63183 0.64023 0.0
H418 H 0.90541 0.64411 0.68126 0.0
H419 H 0.95669 0.5941 0.65281 0.0
H420 H 0.00317 0.78519 0.71226 0.0
H421 H 0.96098 0.70467 0.69089 0.0
H422 H 0.02301 0.76025 0.68666 0.0
H423 H 0.94229 0.73047 0.71649 0.0
H424 H 0.97629 0.6301 0.7192 0.0
H425 H 0.05221 0.61425 0.69642 0.0
H426 H 0.88451 0.73766 0.64615 0.0
H427 H 0.93036 0.79814 0.67166 0.0
H428 H 0.06837 0.70061 0.62409 0.0
H429 H 0.02565 0.63171 0.63835 0.0
H430 H 0.09284 0.67504 0.60095 0.0
H431 H 0.05068 0.60735 0.61484 0.0
H432 H 0.96031 0.72243 0.60835 0.0
H433 H 0.00743 0.77788 0.63752 0.0
H434 H 0.93406 0.75889 0.59591 0.0
H435 H 0.98038 0.81338 0.62455 0.0
H436 H 0.95963 0.63918 0.57895 0.0
H437 H 0.02168 0.69207 0.56478 0.0
H438 H 0.10242 0.76041 0.68009 0.0
H439 H 0.09162 0.77683 0.62222 0.0
Li440 Li 0.28456 0.02423 0.64985 0.0
Li441 Li 0.32428 0.00615 0.66019 0.0
Li442 Li 0.30978 0.99908 0.62843 0.0
Li443 Li 0.28642 0.97683 0.6545 0.0
C444 C 0.32337 0.05775 0.63834 0.0
N445 N 0.33054 0.11059 0.63413 0.0
C446 C 0.33691 0.07188 0.65169 0.0
C447 C 0.31369 0.07045 0.62277 0.0
C448 C 0.34029 0.09859 0.64931 0.0
C449 C 0.31743 0.09719 0.62093 0.0
C450 C 0.27774 0.02041 0.68524 0.0
C451 C 0.23896 0.03152 0.70205 0.0
N452 N 0.25036 0.05399 0.70766 0.0
C453 C 0.28913 0.04355 0.69123 0.0
C454 C 0.25251 0.01424 0.69075 0.0
C455 C 0.27495 0.06028 0.70255 0.0
C456 C 0.23448 0.04408 0.65036 0.0
N457 N 0.25959 0.05189 0.6519 0.0
C458 C 0.24601 0.09557 0.65777 0.0
C459 C 0.26562 0.07708 0.65569 0.0
C460 C 0.21999 0.08788 0.65645 0.0
C461 C 0.21428 0.0618 0.65271 0.0
H462 H 0.23013 0.02388 0.64771 0.0
H463 H 0.2855 0.08283 0.65765 0.0
C464 C 0.37733 0.01567 0.66578 0.0
N465 N 0.35452 0.0114 0.67464 0.0
C466 C 0.39956 0.02211 0.67574 0.0
C467 C 0.3744 0.01947 0.70378 0.0
C468 C 0.35278 0.01256 0.69329 0.0
C469 C 0.39817 0.02486 0.695 0.0
H470 H 0.37806 0.01477 0.65091 0.0
H471 H 0.33437 0.00904 0.69997 0.0
C472 C 0.25944 0.99492 0.61729 0.0
N473 N 0.23502 0.99112 0.58355 0.0
C474 C 0.24984 0.97101 0.61127 0.0
C475 C 0.25639 0.01695 0.60628 0.0
C476 C 0.23761 0.96947 0.59413 0.0
C477 C 0.24406 0.01461 0.58923 0.0
C478 C 0.34605 0.96151 0.64994 0.0
C479 C 0.36649 0.96257 0.63733 0.0
C480 C 0.34977 0.94982 0.6671 0.0
C481 C 0.3905 0.952 0.64218 0.0
C482 C 0.37408 0.93951 0.67144 0.0
N483 N 0.39377 0.94082 0.659 0.0
C484 C 0.3338 0.01257 0.59456 0.0
C485 C 0.31272 0.97169 0.59527 0.0
C486 C 0.34036 0.00904 0.57606 0.0
N487 N 0.31989 0.99416 0.60362 0.0
C488 C 0.31861 0.96746 0.57677 0.0
C489 C 0.3325 0.98634 0.56685 0.0
H490 H 0.33978 0.02999 0.60169 0.0
H491 H 0.3021 0.95718 0.60295 0.0
C492 C 0.24129 0.94801 0.66126 0.0
N493 N 0.26749 0.94622 0.65966 0.0
C494 C 0.2261 0.92557 0.66172 0.0
C495 C 0.26523 0.8999 0.65926 0.0
C496 C 0.27967 0.92284 0.65893 0.0
C497 C 0.23803 0.90113 0.66025 0.0
H498 H 0.2321 0.96689 0.66116 0.0
H499 H 0.30048 0.92202 0.65723 0.0
O500 O 0.32018 0.03154 0.64029 0.0
O501 O 0.29102 0.00418 0.67368 0.0
O502 O 0.27185 0.99671 0.63387 0.0
O503 O 0.32258 0.97221 0.6456 0.0
H504 H 0.34459 0.06241 0.6638 0.0
H505 H 0.30337 0.05978 0.61224 0.0
H506 H 0.35063 0.10979 0.65956 0.0
H507 H 0.30995 0.10728 0.60899 0.0
H508 H 0.21935 0.02708 0.70633 0.0
H509 H 0.30854 0.04874 0.68693 0.0
H510 H 0.24343 0.99642 0.68624 0.0
H511 H 0.28345 0.07834 0.70718 0.0
H512 H 0.25109 0.11548 0.66097 0.0
H513 H 0.19439 0.05518 0.65163 0.0
H514 H 0.41746 0.02553 0.66834 0.0
H515 H 0.37209 0.0217 0.71851 0.0
H516 H 0.25205 0.95377 0.61966 0.0
H517 H 0.26349 0.03562 0.61085 0.0
H518 H 0.23022 0.95106 0.58922 0.0
H519 H 0.24165 0.03148 0.58051 0.0
H520 H 0.3639 0.97163 0.624 0.0
H521 H 0.33413 0.949 0.67704 0.0
H522 H 0.40655 0.95276 0.6326 0.0
H523 H 0.37732 0.93054 0.68472 0.0
H524 H 0.35152 0.0239 0.5691 0.0
H525 H 0.31183 0.94981 0.57026 0.0
H526 H 0.20518 0.9274 0.66216 0.0
H527 H 0.27516 0.88144 0.65817 0.0
Li528 Li 0.99819 0.32259 0.65637 0.0
Li529 Li 0.02283 0.28642 0.64642 0.0
Li530 Li 0.99928 0.3133 0.62416 0.0
Li531 Li 0.97556 0.28449 0.64611 0.0
C532 C 0.05065 0.332 0.64922 0.0
N533 N 0.09432 0.34863 0.66788 0.0
C534 C 0.05323 0.32721 0.66809 0.0
C535 C 0.07028 0.34527 0.63986 0.0
C536 C 0.07545 0.33576 0.67727 0.0
C537 C 0.09221 0.35352 0.64953 0.0
C538 C 0.99866 0.26473 0.67696 0.0
C539 C 0.99983 0.21789 0.67706 0.0
N540 N 0.9987 0.21809 0.69578 0.0
C541 C 0.99747 0.26445 0.69618 0.0
C542 C 0.99981 0.24125 0.66729 0.0
C543 C 0.99753 0.24068 0.70545 0.0
C544 C 0.97971 0.34416 0.68886 0.0
N545 N 0.99511 0.34962 0.67418 0.0
C546 C 0.99926 0.39381 0.6838 0.0
C547 C 0.00544 0.37367 0.67166 0.0
C548 C 0.98264 0.38892 0.69874 0.0
C549 C 0.97327 0.36359 0.70141 0.0
H550 H 0.97154 0.32493 0.69034 0.0
H551 H 0.01744 0.3775 0.65974 0.0
C552 C 0.06338 0.25279 0.63554 0.0
N553 N 0.05281 0.26531 0.65022 0.0
C554 C 0.08266 0.23407 0.63822 0.0
C555 C 0.08042 0.24225 0.67097 0.0
C556 C 0.06146 0.26098 0.66765 0.0
C557 C 0.09081 0.2281 0.65619 0.0
H558 H 0.05612 0.25662 0.62184 0.0
H559 H 0.05284 0.27123 0.6791 0.0
C560 C 0.95446 0.34241 0.64414 0.0
N561 N 0.92817 0.38641 0.65546 0.0
C562 C 0.93148 0.34017 0.65422 0.0
C563 C 0.96387 0.36707 0.6396 0.0
C564 C 0.91852 0.36263 0.65987 0.0
C565 C 0.95035 0.38906 0.6455 0.0
C566 C 0.98866 0.26369 0.61097 0.0
C567 C 0.96556 0.27419 0.60412 0.0
C568 C 0.99997 0.24243 0.60211 0.0
C569 C 0.95418 0.26319 0.5885 0.0
C570 C 0.98795 0.23196 0.58655 0.0
N571 N 0.96551 0.24248 0.58011 0.0
C572 C 0.01549 0.31497 0.587 0.0
C573 C 0.9795 0.34183 0.59393 0.0
C574 C 0.01288 0.32034 0.56821 0.0
N575 N 0.99864 0.32541 0.59936 0.0
C576 C 0.97649 0.34811 0.57537 0.0
C577 C 0.99284 0.3368 0.56212 0.0
H578 H 0.03019 0.3015 0.59167 0.0
H579 H 0.96585 0.34929 0.60386 0.0
C580 C 0.93245 0.26789 0.66629 0.0
N581 N 0.94645 0.26228 0.65092 0.0
C582 C 0.9117 0.2521 0.67154 0.0
C583 C 0.92043 0.22467 0.64527 0.0
C584 C 0.94109 0.24088 0.6406 0.0
C585 C 0.90542 0.23019 0.66093 0.0
H586 H 0.93774 0.28442 0.67467 0.0
H587 H 0.95314 0.23582 0.62903 0.0
O588 O 0.02914 0.32383 0.63982 0.0
O589 O 0.99855 0.28796 0.66779 0.0
O590 O 0.9678 0.32064 0.63887 0.0
O591 O 0.00059 0.27453 0.62596 0.0
H592 H 0.03826 0.31708 0.67562 0.0
H593 H 0.06857 0.34913 0.62525 0.0
H594 H 0.07768 0.33218 0.69187 0.0
H595 H 0.10755 0.3638 0.64245 0.0
H596 H 0.00076 0.1996 0.66976 0.0
H597 H 0.99655 0.28246 0.70386 0.0
H598 H 0.00074 0.24098 0.65242 0.0
H599 H 0.99664 0.24019 0.72033 0.0
H600 H 0.00689 0.41309 0.68133 0.0
H601 H 0.96008 0.35909 0.71257 0.0
H602 H 0.09014 0.22346 0.62648 0.0
H603 H 0.08642 0.23839 0.68501 0.0
H604 H 0.92366 0.32132 0.65762 0.0
H605 H 0.98178 0.3692 0.63197 0.0
H606 H 0.90079 0.36115 0.66777 0.0
H607 H 0.9576 0.40824 0.64227 0.0
H608 H 0.95648 0.29061 0.61078 0.0
H609 H 0.01786 0.2341 0.60721 0.0
H610 H 0.93634 0.27113 0.58305 0.0
H611 H 0.99649 0.21549 0.57956 0.0
H612 H 0.02571 0.31076 0.55856 0.0
H613 H 0.96103 0.36123 0.57146 0.0
H614 H 0.9007 0.25698 0.68377 0.0
H615 H 0.91672 0.20756 0.637 0.0
Li616 Li 0.7156 0.02723 0.65704 0.0
Li617 Li 0.6909 0.00349 0.63265 0.0
Li618 Li 0.678 0.0012 0.6652 0.0
Li619 Li 0.71674 0.97862 0.65449 0.0
C620 C 0.65545 0.04392 0.65094 0.0
N621 N 0.60683 0.06552 0.65581 0.0
C622 C 0.6361 0.0402 0.6377 0.0
C623 C 0.65016 0.05898 0.66651 0.0
C624 C 0.61163 0.05119 0.64045 0.0
C625 C 0.62543 0.06963 0.66877 0.0
C626 C 0.74081 0.00834 0.62002 0.0
C627 C 0.75231 0.99247 0.58984 0.0
N628 N 0.76359 0.01571 0.58597 0.0
C629 C 0.7526 0.03203 0.61577 0.0
C630 C 0.74073 0.98834 0.60699 0.0
C631 C 0.76399 0.03539 0.59847 0.0
C632 C 0.7579 0.05263 0.67296 0.0
N633 N 0.73644 0.05649 0.66245 0.0
C634 C 0.74704 0.10132 0.65865 0.0
C635 C 0.73061 0.08022 0.65538 0.0
C636 C 0.76939 0.09789 0.66945 0.0
C637 C 0.77461 0.07322 0.67679 0.0
H638 H 0.76216 0.03343 0.67819 0.0
H639 H 0.71346 0.0826 0.64696 0.0
C640 C 0.65965 0.98519 0.60414 0.0
N641 N 0.67843 0.00291 0.60792 0.0
C642 C 0.65123 0.98136 0.5861 0.0
C643 C 0.6812 0.01457 0.57613 0.0
C644 C 0.68844 0.01831 0.59449 0.0
C645 C 0.66269 0.99547 0.57162 0.0
H646 H 0.65143 0.97371 0.61516 0.0
H647 H 0.70279 0.03281 0.59788 0.0
C648 C 0.71534 0.00744 0.6948 0.0
N649 N 0.7206 0.0216 0.73132 0.0
C650 C 0.72503 0.9897 0.70764 0.0
C651 C 0.70852 0.03244 0.70051 0.0
C652 C 0.72748 0.9972 0.72605 0.0
C653 C 0.71128 0.03922 0.71904 0.0
C654 C 0.67837 0.94661 0.64687 0.0
C655 C 0.66779 0.9336 0.662 0.0
C656 C 0.68747 0.93242 0.63179 0.0
C657 C 0.66669 0.90649 0.66184 0.0
C658 C 0.68608 0.90534 0.63218 0.0
N659 N 0.67581 0.89304 0.64707 0.0
C660 C 0.62549 0.99223 0.67102 0.0
C661 C 0.64922 0.99368 0.69892 0.0
C662 C 0.60324 0.98422 0.68036 0.0
N663 N 0.64798 0.99649 0.68032 0.0
C664 C 0.62752 0.98534 0.70879 0.0
C665 C 0.60427 0.97981 0.69944 0.0
H666 H 0.62518 0.99375 0.65618 0.0
H667 H 0.66731 0.99639 0.70608 0.0
C668 C 0.75807 0.94495 0.64567 0.0
N669 N 0.73805 0.94872 0.65754 0.0
C670 C 0.77369 0.92296 0.64717 0.0
C671 C 0.74826 0.90936 0.67342 0.0
C672 C 0.73305 0.93163 0.67135 0.0
C673 C 0.76889 0.90475 0.66118 0.0
H674 H 0.76198 0.95901 0.63503 0.0
H675 H 0.7172 0.93528 0.68076 0.0
O676 O 0.67946 0.03308 0.64857 0.0
O677 O 0.72954 0.00475 0.6369 0.0
O678 O 0.71292 0.00037 0.67672 0.0
O679 O 0.68005 0.97311 0.64688 0.0
H680 H 0.63983 0.02879 0.6255 0.0
H681 H 0.66491 0.06242 0.67678 0.0
H682 H 0.59645 0.0483 0.63037 0.0
H683 H 0.62104 0.08118 0.68082 0.0
H684 H 0.75224 0.97722 0.57959 0.0
H685 H 0.75294 0.04769 0.6257 0.0
H686 H 0.73157 0.96994 0.61001 0.0
H687 H 0.77314 0.05364 0.59497 0.0
H688 H 0.74236 0.12009 0.65279 0.0
H689 H 0.79185 0.06971 0.68495 0.0
H690 H 0.63619 0.96715 0.58357 0.0
H691 H 0.69085 0.02592 0.56563 0.0
H692 H 0.73057 0.97032 0.70343 0.0
H693 H 0.70134 0.04648 0.69073 0.0
H694 H 0.73487 0.98364 0.73615 0.0
H695 H 0.70607 0.0585 0.72364 0.0
H696 H 0.66075 0.94427 0.67382 0.0
H697 H 0.69567 0.94221 0.61996 0.0
H698 H 0.65868 0.89615 0.67349 0.0
H699 H 0.69318 0.89409 0.62065 0.0
H700 H 0.58573 0.9805 0.67256 0.0
H701 H 0.62952 0.98174 0.72341 0.0
H702 H 0.78916 0.92012 0.63728 0.0
H703 H 0.74409 0.89609 0.6846 0.0
Li704 Li 0.52117 0.78086 0.85187 0.0
Li705 Li 0.50022 0.81354 0.87153 0.0
Li706 Li 0.47444 0.78563 0.8513 0.0
Li707 Li 0.50147 0.82028 0.83897 0.0
C708 C 0.48141 0.75826 0.88129 0.0
N709 N 0.44771 0.72423 0.8984 0.0
C710 C 0.46534 0.76694 0.89553 0.0
C711 C 0.48046 0.73225 0.87582 0.0
C712 C 0.44843 0.74943 0.904 0.0
C713 C 0.46324 0.71536 0.88462 0.0
C714 C 0.54773 0.82988 0.86759 0.0
C715 C 0.56037 0.86821 0.88445 0.0
N716 N 0.57928 0.85431 0.89301 0.0
C717 C 0.56737 0.816 0.87649 0.0
C718 C 0.54427 0.85623 0.87151 0.0
C719 C 0.5831 0.8287 0.88932 0.0
C720 C 0.56812 0.75853 0.83782 0.0
N721 N 0.54973 0.75729 0.85124 0.0
C722 C 0.5733 0.72396 0.86684 0.0
C723 C 0.55194 0.74047 0.86558 0.0
C724 C 0.59249 0.72468 0.85315 0.0
C725 C 0.58962 0.74198 0.83835 0.0
H726 H 0.56636 0.77265 0.82689 0.0
H727 H 0.53744 0.74034 0.87632 0.0
C728 C 0.48669 0.84816 0.90095 0.0
N729 N 0.5015 0.82763 0.89566 0.0
C730 C 0.48627 0.85591 0.91941 0.0
C731 C 0.51672 0.82158 0.9264 0.0
C732 C 0.51652 0.81451 0.90788 0.0
C733 C 0.50106 0.8422 0.93245 0.0
H734 H 0.47457 0.85794 0.89098 0.0
H735 H 0.52782 0.79804 0.90329 0.0
C736 C 0.51039 0.76921 0.81711 0.0
N737 N 0.53685 0.73941 0.79164 0.0
C738 C 0.52316 0.78108 0.80236 0.0
C739 C 0.51101 0.74218 0.81888 0.0
C740 C 0.53643 0.76566 0.78962 0.0
C741 C 0.52454 0.72746 0.80588 0.0
C742 C 0.45772 0.84339 0.84781 0.0
C743 C 0.43619 0.83826 0.8367 0.0
C744 C 0.46603 0.869 0.85027 0.0
C745 C 0.42339 0.85889 0.82811 0.0
C746 C 0.45275 0.88907 0.84142 0.0
N747 N 0.43189 0.88365 0.83061 0.0
C748 C 0.42289 0.7758 0.86103 0.0
C749 C 0.44024 0.74524 0.83995 0.0
C750 C 0.40031 0.76112 0.86289 0.0
N751 N 0.44246 0.76737 0.85002 0.0
C752 C 0.41804 0.72986 0.84146 0.0
C753 C 0.39794 0.73745 0.8534 0.0
H754 H 0.42527 0.79346 0.86892 0.0
H755 H 0.45613 0.73896 0.83136 0.0
C756 C 0.52527 0.86149 0.81976 0.0
N757 N 0.50453 0.84524 0.81981 0.0
C758 C 0.52916 0.87856 0.8051 0.0
C759 C 0.48987 0.86232 0.79104 0.0
C760 C 0.48688 0.84538 0.8059 0.0
C761 C 0.5115 0.87891 0.79033 0.0
H762 H 0.53926 0.86062 0.83082 0.0
H763 H 0.47083 0.83188 0.80614 0.0
O764 O 0.49745 0.7753 0.87238 0.0
O765 O 0.53176 0.81768 0.85528 0.0
O766 O 0.49732 0.78397 0.82974 0.0
O767 O 0.4707 0.82344 0.85614 0.0
H768 H 0.46562 0.78706 0.8998 0.0
H769 H 0.49261 0.72528 0.86472 0.0
H770 H 0.43576 0.7559 0.91495 0.0
H771 H 0.46215 0.69523 0.88043 0.0
H772 H 0.5578 0.88855 0.8877 0.0
H773 H 0.57032 0.79561 0.87365 0.0
H774 H 0.52912 0.86724 0.86478 0.0
H775 H 0.59829 0.81817 0.89637 0.0
H776 H 0.5749 0.71087 0.87846 0.0
H777 H 0.60425 0.74329 0.82769 0.0
H778 H 0.47372 0.87174 0.92355 0.0
H779 H 0.52867 0.8107 0.93593 0.0
H780 H 0.52298 0.80195 0.80078 0.0
H781 H 0.50159 0.7327 0.83036 0.0
H782 H 0.54644 0.77458 0.77816 0.0
H783 H 0.52534 0.70655 0.80715 0.0
H784 H 0.42959 0.81855 0.83455 0.0
H785 H 0.48271 0.87329 0.85877 0.0
H786 H 0.40678 0.8552 0.8194 0.0
H787 H 0.45906 0.90897 0.84311 0.0
H788 H 0.38515 0.76794 0.87201 0.0
H789 H 0.41721 0.71164 0.83404 0.0
H790 H 0.54643 0.89052 0.805 0.0
H791 H 0.47565 0.86203 0.78007 0.0
Li792 Li 0.18198 0.5004 0.83922 0.0
Li793 Li 0.21951 0.52151 0.85323 0.0
Li794 Li 0.21871 0.47348 0.84754 0.0
Li795 Li 0.19158 0.49405 0.87206 0.0
C796 C 0.22256 0.49807 0.81136 0.0
N797 N 0.23224 0.48882 0.77451 0.0
C798 C 0.23374 0.51739 0.80042 0.0
C799 C 0.21645 0.47401 0.8036 0.0
C800 C 0.23843 0.51235 0.7818 0.0
C801 C 0.22147 0.46971 0.78494 0.0
C802 C 0.18047 0.55256 0.86073 0.0
C803 C 0.18747 0.59199 0.87794 0.0
N804 N 0.17816 0.606 0.8635 0.0
C805 C 0.17087 0.56732 0.84608 0.0
C806 C 0.18873 0.56494 0.87683 0.0
C807 C 0.16987 0.59433 0.84775 0.0
C808 C 0.13 0.50907 0.83108 0.0
N809 N 0.15358 0.50663 0.82289 0.0
C810 C 0.13575 0.51976 0.79396 0.0
C811 C 0.15672 0.51151 0.80462 0.0
C812 C 0.11125 0.52303 0.80215 0.0
C813 C 0.10843 0.51687 0.8209 0.0
H814 H 0.12814 0.50595 0.84574 0.0
H815 H 0.17564 0.51028 0.79839 0.0
C816 C 0.25946 0.55303 0.86691 0.0
N817 N 0.24103 0.55163 0.85357 0.0
C818 C 0.27443 0.57534 0.86891 0.0
C819 C 0.2523 0.59403 0.84273 0.0
C820 C 0.23751 0.57132 0.84133 0.0
C821 C 0.2707 0.59634 0.8569 0.0
H822 H 0.26246 0.53688 0.87609 0.0
H823 H 0.22292 0.56959 0.8307 0.0
C824 C 0.15826 0.45606 0.84971 0.0
N825 N 0.11034 0.43516 0.84124 0.0
C826 C 0.13778 0.45794 0.86226 0.0
C827 C 0.15446 0.44319 0.83297 0.0
C828 C 0.11367 0.44734 0.8577 0.0
C829 C 0.13006 0.43287 0.82891 0.0
C830 C 0.23997 0.48672 0.88671 0.0
C831 C 0.25069 0.46215 0.8897 0.0
C832 C 0.23911 0.50466 0.90117 0.0
C833 C 0.26026 0.45588 0.90715 0.0
C834 C 0.24886 0.49763 0.91842 0.0
N835 N 0.25913 0.47359 0.92103 0.0
C836 C 0.26323 0.45092 0.83306 0.0
C837 C 0.23297 0.42025 0.84458 0.0
C838 C 0.28035 0.43113 0.82821 0.0
N839 N 0.24012 0.44516 0.84105 0.0
C840 C 0.24967 0.3998 0.84013 0.0
C841 C 0.27371 0.40518 0.83182 0.0
H842 H 0.2684 0.47098 0.83058 0.0
H843 H 0.21445 0.41634 0.85101 0.0
C844 C 0.15902 0.51045 0.9003 0.0
N845 N 0.17699 0.49206 0.8962 0.0
C846 C 0.15083 0.51401 0.91842 0.0
C847 C 0.17854 0.4785 0.92765 0.0
C848 C 0.18566 0.4752 0.90922 0.0
C849 C 0.16162 0.49883 0.93257 0.0
H850 H 0.15176 0.52309 0.88959 0.0
H851 H 0.19936 0.4602 0.90552 0.0
O852 O 0.21791 0.50274 0.8296 0.0
O853 O 0.18206 0.52614 0.85925 0.0
O854 O 0.18192 0.46656 0.85387 0.0
O855 O 0.23055 0.49319 0.8697 0.0
H856 H 0.2387 0.53609 0.80624 0.0
H857 H 0.20804 0.4588 0.8119 0.0
H858 H 0.24699 0.52715 0.77315 0.0
H859 H 0.21683 0.45117 0.77875 0.0
H860 H 0.19395 0.60185 0.89027 0.0
H861 H 0.16451 0.55806 0.83349 0.0
H862 H 0.19625 0.55378 0.88827 0.0
H863 H 0.1626 0.60602 0.8365 0.0
H864 H 0.13912 0.52482 0.77968 0.0
H865 H 0.08993 0.51884 0.82782 0.0
H866 H 0.28887 0.57615 0.87974 0.0
H867 H 0.24893 0.60981 0.83316 0.0
H868 H 0.14036 0.46767 0.87532 0.0
H869 H 0.17011 0.44124 0.82319 0.0
H870 H 0.09761 0.44882 0.86723 0.0
H871 H 0.12681 0.42302 0.81595 0.0
H872 H 0.25159 0.44804 0.87868 0.0
H873 H 0.23067 0.52368 0.89916 0.0
H874 H 0.26857 0.43692 0.90966 0.0
H875 H 0.24814 0.51126 0.92975 0.0
H876 H 0.29885 0.43612 0.8221 0.0
H877 H 0.24384 0.38002 0.84307 0.0
H878 H 0.13693 0.52922 0.92134 0.0
H879 H 0.18744 0.4662 0.93794 0.0
Li880 Li 0.4759 0.21386 0.84769 0.0
Li881 Li 0.49522 0.18383 0.8701 0.0
Li882 Li 0.52394 0.2105 0.84948 0.0
Li883 Li 0.49926 0.17311 0.83808 0.0
C884 C 0.49874 0.24635 0.87624 0.0
N885 N 0.49852 0.29546 0.89163 0.0
C886 C 0.48936 0.25013 0.89411 0.0
C887 C 0.50833 0.26753 0.86631 0.0
C888 C 0.4893 0.27512 0.90161 0.0
C889 C 0.50798 0.2922 0.87429 0.0
C890 C 0.4486 0.16398 0.86245 0.0
C891 C 0.43482 0.12557 0.87873 0.0
N892 N 0.41258 0.13793 0.8837 0.0
C893 C 0.42552 0.17624 0.86759 0.0
C894 C 0.45323 0.13838 0.86793 0.0
C895 C 0.40758 0.16276 0.87838 0.0
C896 C 0.43731 0.23591 0.82535 0.0
N897 N 0.44751 0.23625 0.84261 0.0
C898 C 0.41774 0.26932 0.85183 0.0
C899 C 0.43789 0.25215 0.85589 0.0
C900 C 0.40723 0.26995 0.83397 0.0
C901 C 0.4171 0.25272 0.82069 0.0
H902 H 0.44511 0.22275 0.81514 0.0
H903 H 0.4459 0.25166 0.86961 0.0
C904 C 0.50867 0.15544 0.90236 0.0
N905 N 0.49079 0.17138 0.89452 0.0
C906 C 0.50567 0.14738 0.92064 0.0
C907 C 0.46567 0.17182 0.92215 0.0
C908 C 0.46965 0.17971 0.90402 0.0
C909 C 0.48392 0.15563 0.93072 0.0
H910 H 0.52542 0.14932 0.89453 0.0
H911 H 0.45607 0.19286 0.89757 0.0
C912 C 0.50532 0.22523 0.81302 0.0
N913 N 0.51333 0.25885 0.78388 0.0
C914 C 0.51544 0.216 0.79639 0.0
C915 C 0.499 0.25152 0.81473 0.0
C916 C 0.51943 0.23332 0.78185 0.0
C917 C 0.50326 0.26821 0.79987 0.0
C918 C 0.54292 0.15351 0.85129 0.0
C919 C 0.56599 0.15879 0.8419 0.0
C920 C 0.5357 0.12779 0.85467 0.0
C921 C 0.58135 0.13815 0.83582 0.0
C922 C 0.55156 0.1077 0.84834 0.0
N923 N 0.57386 0.11324 0.83911 0.0
C924 C 0.56746 0.23382 0.86504 0.0
C925 C 0.56501 0.24003 0.83274 0.0
C926 C 0.58991 0.24893 0.86597 0.0
N927 N 0.5554 0.22989 0.84863 0.0
C928 C 0.58722 0.25553 0.83306 0.0
C929 C 0.59986 0.26023 0.84986 0.0
H930 H 0.55936 0.22552 0.87746 0.0
H931 H 0.55546 0.23633 0.8198 0.0
C932 C 0.47681 0.13189 0.81849 0.0
N933 N 0.49878 0.14627 0.82006 0.0
C934 C 0.47392 0.1144 0.80397 0.0
C935 C 0.51674 0.12613 0.79328 0.0
C936 C 0.51878 0.14344 0.80802 0.0
C937 C 0.4938 0.11179 0.79085 0.0
H938 H 0.461 0.13484 0.82803 0.0
H939 H 0.5359 0.15538 0.80941 0.0
O940 O 0.49897 0.22195 0.86875 0.0
O941 O 0.46653 0.17698 0.85208 0.0
O942 O 0.50129 0.20847 0.82738 0.0
O943 O 0.52754 0.17344 0.85722 0.0
H944 H 0.48212 0.23397 0.9021 0.0
H945 H 0.51625 0.26496 0.85267 0.0
H946 H 0.48196 0.27832 0.91539 0.0
H947 H 0.51533 0.30874 0.86673 0.0
H948 H 0.43823 0.10582 0.88318 0.0
H949 H 0.4216 0.19602 0.8634 0.0
H950 H 0.47095 0.1286 0.86399 0.0
H951 H 0.3897 0.17204 0.88255 0.0
H952 H 0.41092 0.28237 0.86248 0.0
H953 H 0.40931 0.25221 0.80684 0.0
H954 H 0.52018 0.13494 0.92684 0.0
H955 H 0.44892 0.17899 0.92959 0.0
H956 H 0.52026 0.19572 0.79473 0.0
H957 H 0.49065 0.25897 0.82729 0.0
H958 H 0.52737 0.22645 0.76894 0.0
H959 H 0.49847 0.2886 0.80103 0.0
H960 H 0.57186 0.1786 0.83922 0.0
H961 H 0.51798 0.12342 0.86201 0.0
H962 H 0.59919 0.14192 0.82845 0.0
H963 H 0.54616 0.08769 0.85075 0.0
H964 H 0.59903 0.25226 0.87921 0.0
H965 H 0.59453 0.26364 0.82031 0.0
H966 H 0.45568 0.10419 0.80248 0.0
H967 H 0.5326 0.12462 0.78356 0.0
Li968 Li 0.78511 0.52238 0.84592 0.0
Li969 Li 0.81208 0.49686 0.86852 0.0
Li970 Li 0.82027 0.49536 0.8363 0.0
Li971 Li 0.78334 0.47245 0.84711 0.0
C972 C 0.84695 0.53551 0.85126 0.0
N973 N 0.89734 0.55318 0.84802 0.0
C974 C 0.86766 0.51966 0.85653 0.0
C975 C 0.85186 0.56034 0.84431 0.0
C976 C 0.893 0.52894 0.85479 0.0
C977 C 0.87748 0.56892 0.84279 0.0
C978 C 0.75626 0.50302 0.88001 0.0
C979 C 0.72493 0.48773 0.90224 0.0
N980 N 0.72056 0.51262 0.90766 0.0
C981 C 0.75132 0.52846 0.88578 0.0
C982 C 0.74283 0.48248 0.88828 0.0
C983 C 0.73328 0.53291 0.89979 0.0
C984 C 0.74001 0.55118 0.83739 0.0
N985 N 0.76488 0.55292 0.84348 0.0
C986 C 0.75906 0.59759 0.85123 0.0
C987 C 0.77477 0.57561 0.84995 0.0
C988 C 0.73294 0.59616 0.84582 0.0
C989 C 0.72361 0.57277 0.83836 0.0
H990 H 0.73261 0.53273 0.83258 0.0
H991 H 0.79445 0.57625 0.85504 0.0
C992 C 0.84634 0.48254 0.89788 0.0
N993 N 0.82556 0.49744 0.89314 0.0
C994 C 0.85454 0.48124 0.9162 0.0
C995 C 0.82043 0.51129 0.92434 0.0
C996 C 0.81316 0.5123 0.90586 0.0
C997 C 0.84109 0.49529 0.92971 0.0
H998 H 0.85624 0.47118 0.88753 0.0
H999 H 0.79743 0.52474 0.90173 0.0
C1000 C 0.79025 0.49623 0.80745 0.0
N1001 N 0.80421 0.4957 0.77074 0.0
C1002 C 0.7933 0.47262 0.79821 0.0
C1003 C 0.794 0.51958 0.79801 0.0
C1004 C 0.80046 0.47277 0.77965 0.0
C1005 C 0.8011 0.51889 0.77944 0.0
C1006 C 0.82207 0.44413 0.86462 0.0
C1007 C 0.84107 0.4253 0.86141 0.0
C1008 C 0.80484 0.44098 0.8793 0.0
C1009 C 0.84236 0.40354 0.87287 0.0
C1010 C 0.80674 0.41897 0.89046 0.0
N1011 N 0.8253 0.40084 0.88703 0.0
C1012 C 0.85739 0.512 0.80861 0.0
C1013 C 0.85406 0.46691 0.81461 0.0
C1014 C 0.87604 0.50745 0.79499 0.0
N1015 N 0.84696 0.4918 0.81815 0.0
C1016 C 0.87237 0.46146 0.80106 0.0
C1017 C 0.88373 0.48184 0.79102 0.0
H1018 H 0.85091 0.53158 0.81129 0.0
H1019 H 0.84487 0.45118 0.82197 0.0
C1020 C 0.7356 0.44509 0.84786 0.0
N1021 N 0.7615 0.44289 0.84471 0.0
C1022 C 0.7199 0.42297 0.84809 0.0
C1023 C 0.75763 0.39699 0.84091 0.0
C1024 C 0.77252 0.4196 0.84068 0.0
C1025 C 0.73106 0.39846 0.84501 0.0
H1026 H 0.72729 0.46395 0.85074 0.0
H1027 H 0.79303 0.41848 0.83769 0.0
O1028 O 0.82205 0.52658 0.85263 0.0
O1029 O 0.7735 0.49835 0.86599 0.0
O1030 O 0.78402 0.4965 0.82573 0.0
O1031 O 0.82053 0.46547 0.85341 0.0
H1032 H 0.86421 0.50023 0.86159 0.0
H1033 H 0.83609 0.57275 0.83994 0.0
H1034 H 0.90921 0.51683 0.85874 0.0
H1035 H 0.88158 0.58807 0.8374 0.0
H1036 H 0.71447 0.47199 0.90875 0.0
H1037 H 0.76168 0.5446 0.87982 0.0
H1038 H 0.74605 0.46265 0.88399 0.0
H1039 H 0.72945 0.5525 0.90443 0.0
H1040 H 0.76705 0.61531 0.85693 0.0
H1041 H 0.70352 0.57077 0.83423 0.0
H1042 H 0.87063 0.46873 0.91986 0.0
H1043 H 0.80994 0.52283 0.93435 0.0
H1044 H 0.79051 0.45441 0.80539 0.0
H1045 H 0.79175 0.53799 0.80503 0.0
H1046 H 0.80313 0.45465 0.77235 0.0
H1047 H 0.80427 0.53679 0.77198 0.0
H1048 H 0.85472 0.42747 0.8502 0.0
H1049 H 0.79038 0.45549 0.88219 0.0
H1050 H 0.85694 0.3888 0.87051 0.0
H1051 H 0.79351 0.41635 0.90188 0.0
H1052 H 0.88423 0.52378 0.78762 0.0
H1053 H 0.87697 0.44136 0.79815 0.0
H1054 H 0.69949 0.42492 0.85132 0.0
H1055 H 0.76686 0.37851 0.83809 0.0
Li1056 Li 0.481 0.21758 0.14714 0.0
Li1057 Li 0.50647 0.17951 0.15691 0.0
Li1058 Li 0.52688 0.21873 0.14526 0.0
Li1059 Li 0.50168 0.19034 0.1244 0.0
C1060 C 0.51965 0.22663 0.18152 0.0
N1061 N 0.54921 0.25057 0.20843 0.0
C1062 C 0.53133 0.21191 0.19542 0.0
C1063 C 0.52253 0.25364 0.18163 0.0
C1064 C 0.5463 0.22434 0.20882 0.0
C1065 C 0.53769 0.26535 0.19524 0.0
C1066 C 0.46648 0.15507 0.13841 0.0
C1067 C 0.47733 0.11081 0.13074 0.0
N1068 N 0.45173 0.10448 0.13127 0.0
C1069 C 0.44029 0.14814 0.13885 0.0
C1070 C 0.48519 0.13627 0.1343 0.0
C1071 C 0.43322 0.12245 0.13521 0.0
C1072 C 0.43268 0.2412 0.13861 0.0
N1073 N 0.45159 0.23898 0.15158 0.0
C1074 C 0.43466 0.27516 0.16818 0.0
C1075 C 0.45227 0.25478 0.16655 0.0
C1076 C 0.4161 0.27918 0.15432 0.0
C1077 C 0.41453 0.26133 0.13974 0.0
H1078 H 0.43278 0.22845 0.12676 0.0
H1079 H 0.46738 0.25246 0.17671 0.0
C1080 C 0.53704 0.14647 0.17698 0.0
N1081 N 0.51169 0.15191 0.17373 0.0
C1082 C 0.5439 0.12804 0.1901 0.0
C1083 C 0.49834 0.12004 0.19574 0.0
C1084 C 0.49232 0.13901 0.18259 0.0
C1085 C 0.52445 0.11486 0.19984 0.0
H1086 H 0.55197 0.15724 0.16985 0.0
H1087 H 0.47229 0.14381 0.17972 0.0
C1088 C 0.49002 0.25046 0.11921 0.0
N1089 N 0.46364 0.29384 0.10677 0.0
C1090 C 0.47691 0.24983 0.10236 0.0
C1091 C 0.49021 0.27342 0.12948 0.0
C1092 C 0.46359 0.2719 0.09635 0.0
C1093 C 0.4766 0.29506 0.12306 0.0
C1094 C 0.55561 0.18063 0.12718 0.0
C1095 C 0.56016 0.19978 0.11389 0.0
C1096 C 0.57311 0.16008 0.12908 0.0
C1097 C 0.58215 0.19799 0.10272 0.0
C1098 C 0.59487 0.15899 0.11764 0.0
N1099 N 0.5989 0.17781 0.10481 0.0
C1100 C 0.57554 0.23159 0.1602 0.0
C1101 C 0.55992 0.26194 0.13829 0.0
C1102 C 0.59683 0.2474 0.16408 0.0
N1103 N 0.55726 0.23947 0.14792 0.0
C1104 C 0.58113 0.27816 0.14152 0.0
C1105 C 0.59959 0.27117 0.15485 0.0
H1106 H 0.57314 0.21336 0.1674 0.0
H1107 H 0.54536 0.2675 0.12835 0.0
C1108 C 0.47338 0.1797 0.0927 0.0
N1109 N 0.49706 0.17567 0.1004 0.0
C1110 C 0.46817 0.17115 0.07484 0.0
C1111 C 0.51128 0.15284 0.07355 0.0
C1112 C 0.51563 0.16177 0.09144 0.0
C1113 C 0.48746 0.15794 0.06488 0.0
H1114 H 0.45867 0.1901 0.10035 0.0
H1115 H 0.53388 0.1576 0.09802 0.0
O1116 O 0.50518 0.21469 0.16809 0.0
O1117 O 0.47357 0.18021 0.14187 0.0
O1118 O 0.50266 0.22879 0.12554 0.0
O1119 O 0.53439 0.18205 0.13846 0.0
H1120 H 0.52879 0.19115 0.19598 0.0
H1121 H 0.51343 0.26547 0.17123 0.0
H1122 H 0.55556 0.21312 0.21957 0.0
H1123 H 0.54032 0.28619 0.19531 0.0
H1124 H 0.4916 0.09607 0.12755 0.0
H1125 H 0.42558 0.16249 0.14196 0.0
H1126 H 0.50555 0.14122 0.13384 0.0
H1127 H 0.41301 0.11681 0.13551 0.0
H1128 H 0.4362 0.28829 0.17979 0.0
H1129 H 0.40057 0.26389 0.12874 0.0
H1130 H 0.56424 0.12439 0.19281 0.0
H1131 H 0.48287 0.11024 0.20306 0.0
H1132 H 0.47707 0.23259 0.09393 0.0
H1133 H 0.50047 0.27445 0.14239 0.0
H1134 H 0.45324 0.27158 0.0834 0.0
H1135 H 0.47631 0.31279 0.13104 0.0
H1136 H 0.54686 0.21579 0.11211 0.0
H1137 H 0.56987 0.14506 0.13925 0.0
H1138 H 0.58589 0.21265 0.09238 0.0
H1139 H 0.60854 0.14317 0.11895 0.0
H1140 H 0.61086 0.24123 0.17429 0.0
H1141 H 0.58261 0.29638 0.13413 0.0
H1142 H 0.44955 0.1756 0.06872 0.0
H1143 H 0.52644 0.14215 0.06654 0.0
Li1144 Li 0.78348 0.5262 0.14075 0.0
Li1145 Li 0.81987 0.50603 0.15631 0.0
Li1146 Li 0.81126 0.49898 0.12348 0.0
Li1147 Li 0.7834 0.47911 0.14654 0.0
C1148 C 0.82165 0.55773 0.13207 0.0
N1149 N 0.82121 0.61045 0.12471 0.0
C1150 C 0.83303 0.57521 0.14439 0.0
C1151 C 0.81065 0.5671 0.11578 0.0
C1152 C 0.83248 0.60177 0.14048 0.0
C1153 C 0.81041 0.59379 0.11236 0.0
C1154 C 0.78193 0.4983 0.1824 0.0
C1155 C 0.79309 0.46581 0.20498 0.0
N1156 N 0.77883 0.47878 0.21778 0.0
C1157 C 0.76744 0.51134 0.19578 0.0
C1158 C 0.79493 0.47537 0.18702 0.0
C1159 C 0.76609 0.50114 0.21359 0.0
C1160 C 0.74685 0.56006 0.12509 0.0
N1161 N 0.76206 0.55628 0.14012 0.0
C1162 C 0.74732 0.5961 0.15345 0.0
C1163 C 0.76251 0.57362 0.15425 0.0
C1164 C 0.73185 0.60074 0.13786 0.0
C1165 C 0.73166 0.58235 0.1236 0.0
H1166 H 0.74665 0.54586 0.11416 0.0
H1167 H 0.77485 0.57007 0.16604 0.0
C1168 C 0.86309 0.49359 0.18041 0.0
N1169 N 0.84434 0.51102 0.17577 0.0
C1170 C 0.88059 0.49921 0.19458 0.0
C1171 C 0.85845 0.54 0.19942 0.0
C1172 C 0.84124 0.53345 0.18537 0.0
C1173 C 0.87865 0.52293 0.20398 0.0
H1174 H 0.86456 0.47531 0.17323 0.0
H1175 H 0.82536 0.54633 0.18201 0.0
C1176 C 0.76563 0.48924 0.10687 0.0
N1177 N 0.75262 0.47103 0.07219 0.0
C1178 C 0.75582 0.46412 0.10465 0.0
C1179 C 0.76828 0.50525 0.09141 0.0
C1180 C 0.74946 0.45524 0.08703 0.0
C1181 C 0.76179 0.49565 0.07401 0.0
C1182 C 0.84533 0.46356 0.13943 0.0
C1183 C 0.86497 0.48092 0.1344 0.0
C1184 C 0.85105 0.43717 0.14131 0.0
C1185 C 0.89003 0.47154 0.13138 0.0
C1186 C 0.87637 0.42857 0.13819 0.0
N1187 N 0.89517 0.44579 0.13333 0.0
C1188 C 0.84165 0.51249 0.09243 0.0
C1189 C 0.82213 0.47084 0.09094 0.0
C1190 C 0.85077 0.50999 0.07442 0.0
N1191 N 0.82695 0.4934 0.10006 0.0
C1192 C 0.8304 0.46775 0.07277 0.0
C1193 C 0.84445 0.48773 0.06424 0.0
H1194 H 0.84572 0.52996 0.10014 0.0
H1195 H 0.81092 0.45573 0.09753 0.0
C1196 C 0.74088 0.45357 0.16296 0.0
N1197 N 0.76284 0.44991 0.15293 0.0
C1198 C 0.72491 0.43254 0.16724 0.0
C1199 C 0.75426 0.40445 0.15054 0.0
C1200 C 0.76998 0.42594 0.14693 0.0
C1201 C 0.73141 0.40771 0.16077 0.0
H1202 H 0.7356 0.4729 0.16742 0.0
H1203 H 0.78749 0.4237 0.13888 0.0
O1204 O 0.82145 0.53164 0.13584 0.0
O1205 O 0.78355 0.50823 0.16496 0.0
O1206 O 0.77224 0.49814 0.12406 0.0
O1207 O 0.82053 0.47213 0.14226 0.0
H1208 H 0.84245 0.56843 0.15674 0.0
H1209 H 0.80215 0.55392 0.10595 0.0
H1210 H 0.8411 0.61549 0.14997 0.0
H1211 H 0.80165 0.60125 0.0999 0.0
H1212 H 0.80303 0.44809 0.20874 0.0
H1213 H 0.75736 0.52917 0.19242 0.0
H1214 H 0.80633 0.46506 0.17689 0.0
H1215 H 0.75492 0.51102 0.22408 0.0
H1216 H 0.74801 0.60991 0.16469 0.0
H1217 H 0.71969 0.58505 0.11149 0.0
H1218 H 0.89576 0.48542 0.19789 0.0
H1219 H 0.8559 0.55817 0.20672 0.0
H1220 H 0.75304 0.45157 0.11636 0.0
H1221 H 0.77561 0.52477 0.09271 0.0
H1222 H 0.742 0.43578 0.08516 0.0
H1223 H 0.7641 0.50775 0.06194 0.0
H1224 H 0.861 0.50141 0.1329 0.0
H1225 H 0.83608 0.42348 0.14518 0.0
H1226 H 0.90541 0.48475 0.12751 0.0
H1227 H 0.88108 0.4082 0.13963 0.0
H1228 H 0.86156 0.5258 0.06824 0.0
H1229 H 0.82538 0.45022 0.06533 0.0
H1230 H 0.70727 0.43575 0.17503 0.0
H1231 H 0.75981 0.38552 0.14535 0.0
Li1232 Li 0.50162 0.82501 0.16102 0.0
Li1233 Li 0.52511 0.78912 0.14912 0.0
Li1234 Li 0.49882 0.81543 0.12899 0.0
Li1235 Li 0.47804 0.78418 0.15115 0.0
C1236 C 0.54274 0.84753 0.14913 0.0
N1237 N 0.5673 0.89105 0.16303 0.0
C1238 C 0.56539 0.84496 0.15958 0.0
C1239 C 0.53264 0.87226 0.14574 0.0
C1240 C 0.57752 0.8672 0.16646 0.0
C1241 C 0.5453 0.89401 0.1529 0.0
C1242 C 0.51578 0.77398 0.18389 0.0
C1243 C 0.51827 0.73478 0.20197 0.0
N1244 N 0.54165 0.74257 0.20867 0.0
C1245 C 0.53977 0.78166 0.19101 0.0
C1246 C 0.50487 0.7504 0.18944 0.0
C1247 C 0.55258 0.76547 0.20348 0.0
C1248 C 0.47737 0.86585 0.18 0.0
N1249 N 0.49944 0.85145 0.17944 0.0
C1250 C 0.51484 0.87158 0.20704 0.0
C1251 C 0.51817 0.85415 0.19249 0.0
C1252 C 0.49177 0.88601 0.20838 0.0
C1253 C 0.47311 0.88331 0.19438 0.0
H1254 H 0.46254 0.86301 0.16969 0.0
H1255 H 0.5354 0.84231 0.19193 0.0
C1256 C 0.57767 0.77901 0.14106 0.0
N1257 N 0.5563 0.7687 0.14923 0.0
C1258 C 0.60005 0.76409 0.13882 0.0
C1259 C 0.57808 0.7281 0.15338 0.0
C1260 C 0.55611 0.74371 0.15532 0.0
C1261 C 0.60036 0.73817 0.14484 0.0
H1262 H 0.57705 0.79856 0.13567 0.0
H1263 H 0.53857 0.73549 0.16096 0.0
C1264 C 0.45162 0.83228 0.13447 0.0
N1265 N 0.41694 0.8536 0.10971 0.0
C1266 C 0.4317 0.81709 0.12708 0.0
C1267 C 0.45376 0.85837 0.12938 0.0
C1268 C 0.41438 0.82822 0.11456 0.0
C1269 C 0.43608 0.86877 0.1168 0.0
C1270 C 0.51455 0.75988 0.11982 0.0
C1271 C 0.53217 0.76904 0.10671 0.0
C1272 C 0.51253 0.73321 0.12309 0.0
C1273 C 0.54761 0.75131 0.09713 0.0
C1274 C 0.52831 0.71611 0.11322 0.0
N1275 N 0.54539 0.72543 0.10056 0.0
C1276 C 0.51032 0.84806 0.09828 0.0
C1277 C 0.4792 0.81497 0.0931 0.0
C1278 C 0.50911 0.85557 0.07981 0.0
N1279 N 0.49553 0.82803 0.10449 0.0
C1280 C 0.47737 0.8218 0.07456 0.0
C1281 C 0.49272 0.84212 0.06763 0.0
H1282 H 0.52364 0.85768 0.1075 0.0
H1283 H 0.46799 0.79885 0.09837 0.0
C1284 C 0.43629 0.76565 0.17194 0.0
N1285 N 0.44961 0.76194 0.15601 0.0
C1286 C 0.41542 0.74957 0.1764 0.0
C1287 C 0.42214 0.72641 0.14782 0.0
C1288 C 0.44287 0.74299 0.1439 0.0
C1289 C 0.40819 0.72947 0.16433 0.0
H1290 H 0.44202 0.78106 0.18121 0.0
H1291 H 0.45365 0.74072 0.13122 0.0
O1292 O 0.53043 0.82598 0.14238 0.0
O1293 O 0.50291 0.7895 0.17164 0.0
O1294 O 0.46912 0.82158 0.14643 0.0
O1295 O 0.49987 0.777 0.12976 0.0
H1296 H 0.57335 0.82602 0.16258 0.0
H1297 H 0.51503 0.87464 0.13784 0.0
H1298 H 0.59498 0.86547 0.17463 0.0
H1299 H 0.5376 0.91325 0.15046 0.0
H1300 H 0.5101 0.71644 0.20635 0.0
H1301 H 0.54865 0.79965 0.18668 0.0
H1302 H 0.48634 0.74413 0.18405 0.0
H1303 H 0.57125 0.77107 0.20899 0.0
H1304 H 0.52989 0.8732 0.21738 0.0
H1305 H 0.45479 0.89355 0.19498 0.0
H1306 H 0.6168 0.77266 0.13217 0.0
H1307 H 0.57721 0.70804 0.1578 0.0
H1308 H 0.42977 0.79686 0.13082 0.0
H1309 H 0.46901 0.87042 0.13499 0.0
H1310 H 0.39897 0.81665 0.10866 0.0
H1311 H 0.43761 0.88889 0.11266 0.0
H1312 H 0.53418 0.78964 0.10416 0.0
H1313 H 0.49924 0.72583 0.13338 0.0
H1314 H 0.56145 0.75812 0.08703 0.0
H1315 H 0.52709 0.69543 0.11569 0.0
H1316 H 0.52159 0.87104 0.07498 0.0
H1317 H 0.46433 0.81105 0.06569 0.0
H1318 H 0.40499 0.75293 0.18913 0.0
H1319 H 0.41745 0.71105 0.13819 0.0
Li1320 Li 0.21693 0.52821 0.15483 0.0
Li1321 Li 0.19299 0.50583 0.12836 0.0
Li1322 Li 0.18121 0.49858 0.16007 0.0
Li1323 Li 0.22093 0.48162 0.14913 0.0
C1324 C 0.15528 0.54051 0.14959 0.0
N1325 N 0.10481 0.5558 0.15647 0.0
C1326 C 0.1358 0.53558 0.13666 0.0
C1327 C 0.14914 0.55355 0.16591 0.0
C1328 C 0.1104 0.54338 0.14042 0.0
C1329 C 0.12349 0.56101 0.16917 0.0
C1330 C 0.25228 0.50093 0.12421 0.0
C1331 C 0.27242 0.47486 0.10063 0.0
N1332 N 0.29598 0.47926 0.10848 0.0
C1333 C 0.27668 0.50535 0.13198 0.0
C1334 C 0.25009 0.48566 0.10838 0.0
C1335 C 0.29855 0.49416 0.12384 0.0
C1336 C 0.25765 0.55369 0.17246 0.0
N1337 N 0.23676 0.55779 0.16143 0.0
C1338 C 0.24789 0.6026 0.15811 0.0
C1339 C 0.23149 0.58162 0.15431 0.0
C1340 C 0.26973 0.59888 0.16941 0.0
C1341 C 0.27435 0.57409 0.17676 0.0
H1342 H 0.26164 0.53438 0.1776 0.0
H1343 H 0.21488 0.58418 0.14539 0.0
C1344 C 0.16554 0.49245 0.09597 0.0
N1345 N 0.1824 0.50962 0.10363 0.0
C1346 C 0.15862 0.49475 0.07744 0.0
C1347 C 0.18637 0.5325 0.0752 0.0
C1348 C 0.19276 0.52945 0.09375 0.0
C1349 C 0.16918 0.51493 0.06679 0.0
H1350 H 0.15757 0.47695 0.10425 0.0
H1351 H 0.20627 0.54266 0.10024 0.0
C1352 C 0.21583 0.50464 0.19107 0.0
N1353 N 0.21668 0.51488 0.22843 0.0
C1354 C 0.22364 0.48543 0.20349 0.0
C1355 C 0.20864 0.52911 0.19764 0.0
C1356 C 0.22387 0.49096 0.22233 0.0
C1357 C 0.20917 0.5339 0.21658 0.0
C1358 C 0.17963 0.44789 0.14661 0.0
C1359 C 0.18667 0.44033 0.16442 0.0
C1360 C 0.16583 0.43066 0.13541 0.0
C1361 C 0.17971 0.41569 0.17075 0.0
C1362 C 0.15925 0.40617 0.14224 0.0
N1363 N 0.16625 0.39926 0.15962 0.0
C1364 C 0.12985 0.48284 0.16464 0.0
C1365 C 0.15113 0.48855 0.19323 0.0
C1366 C 0.1079 0.473 0.17348 0.0
N1367 N 0.15104 0.49011 0.17453 0.0
C1368 C 0.12978 0.47846 0.20261 0.0
C1369 C 0.1079 0.47 0.19272 0.0
H1370 H 0.13035 0.48378 0.14977 0.0
H1371 H 0.16803 0.49401 0.20097 0.0
C1372 C 0.26472 0.45772 0.16345 0.0
N1373 N 0.24606 0.45475 0.15043 0.0
C1374 C 0.28534 0.44032 0.16441 0.0
C1375 C 0.26694 0.41676 0.13872 0.0
C1376 C 0.24654 0.43465 0.1383 0.0
C1377 C 0.28691 0.41974 0.15175 0.0
H1378 H 0.26394 0.47408 0.17277 0.0
H1379 H 0.23153 0.43298 0.12796 0.0
O1380 O 0.18019 0.53262 0.14625 0.0
O1381 O 0.23056 0.51093 0.13234 0.0
O1382 O 0.21572 0.49952 0.17258 0.0
O1383 O 0.1859 0.47207 0.14012 0.0
H1384 H 0.14017 0.52557 0.12395 0.0
H1385 H 0.16394 0.55782 0.17599 0.0
H1386 H 0.09511 0.53951 0.13059 0.0
H1387 H 0.11845 0.57097 0.18179 0.0
H1388 H 0.27102 0.46287 0.08844 0.0
H1389 H 0.27866 0.51702 0.1443 0.0
H1390 H 0.2313 0.48191 0.10228 0.0
H1391 H 0.31754 0.49724 0.12978 0.0
H1392 H 0.24365 0.62144 0.15222 0.0
H1393 H 0.29121 0.57027 0.18524 0.0
H1394 H 0.14512 0.48095 0.07154 0.0
H1395 H 0.19529 0.54808 0.06744 0.0
H1396 H 0.22938 0.4664 0.19863 0.0
H1397 H 0.2028 0.54426 0.18825 0.0
H1398 H 0.22978 0.47625 0.2321 0.0
H1399 H 0.20362 0.55275 0.22185 0.0
H1400 H 0.19729 0.45331 0.17332 0.0
H1401 H 0.16022 0.43616 0.12159 0.0
H1402 H 0.18499 0.40964 0.18451 0.0
H1403 H 0.14854 0.39267 0.13373 0.0
H1404 H 0.09142 0.46714 0.16523 0.0
H1405 H 0.13104 0.47614 0.21741 0.0
H1406 H 0.30005 0.44313 0.17487 0.0
H1407 H 0.26753 0.40132 0.1286 0.0
H1408 H 0.10991 0.18579 0.32444 0.0
H1409 H 0.13524 0.23259 0.37073 0.0
H1410 H 0.17586 0.20718 0.37249 0.0
H1411 H 0.13285 0.12599 0.34199 0.0
H1412 H 0.14265 0.11315 0.31997 0.0
H1413 H 0.11671 0.13647 0.32125 0.0
H1414 H 0.14108 0.16633 0.29831 0.0
H1415 H 0.16713 0.14307 0.29696 0.0
H1416 H 0.17387 0.17622 0.30333 0.0
H1417 H 0.21265 0.17581 0.37004 0.0
H1418 H 0.2421 0.13877 0.36489 0.0
H1419 H 0.19257 0.11153 0.32057 0.0
C1420 C 0.12424 0.19087 0.33474 0.0
C1421 C 0.11963 0.21117 0.34741 0.0
C1422 C 0.13848 0.21702 0.36096 0.0
C1423 C 0.16161 0.20283 0.36198 0.0
C1424 C 0.16551 0.18277 0.3494 0.0
C1425 C 0.14731 0.17667 0.3361 0.0
C1426 C 0.15551 0.15307 0.32508 0.0
C1427 C 0.13576 0.13086 0.32721 0.0
C1428 C 0.15965 0.1601 0.30471 0.0
C1429 C 0.18096 0.14664 0.33445 0.0
C1430 C 0.18653 0.16425 0.34826 0.0
C1431 C 0.20863 0.16201 0.35916 0.0
C1432 C 0.22532 0.141 0.35606 0.0
C1433 C 0.21972 0.12235 0.34226 0.0
C1434 C 0.19735 0.12546 0.33122 0.0
H1435 H 0.8781 0.19055 0.32814 0.0
H1436 H 0.8661 0.2312 0.37983 0.0
H1437 H 0.82904 0.20255 0.38682 0.0
H1438 H 0.8096 0.17877 0.31793 0.0
H1439 H 0.8156 0.14697 0.30846 0.0
H1440 H 0.84015 0.17178 0.30691 0.0
H1441 H 0.87307 0.14132 0.32306 0.0
H1442 H 0.84866 0.11643 0.32465 0.0
H1443 H 0.86501 0.1275 0.34515 0.0
H1444 H 0.79551 0.1677 0.38931 0.0
H1445 H 0.76692 0.12933 0.38676 0.0
H1446 H 0.80026 0.1114 0.3334 0.0
C1447 C 0.86757 0.1935 0.34087 0.0
C1448 C 0.87487 0.21324 0.35338 0.0
C1449 C 0.86057 0.21653 0.36989 0.0
C1450 C 0.83957 0.20027 0.37402 0.0
C1451 C 0.83301 0.18091 0.36147 0.0
C1452 C 0.84647 0.17752 0.34519 0.0
C1453 C 0.83595 0.15466 0.33436 0.0
C1454 C 0.82465 0.16359 0.31582 0.0
C1455 C 0.85692 0.13375 0.33166 0.0
C1456 C 0.81479 0.14545 0.34728 0.0
C1457 C 0.8134 0.16092 0.36281 0.0
C1458 C 0.79623 0.15559 0.37714 0.0
C1459 C 0.78018 0.13374 0.37561 0.0
C1460 C 0.78137 0.11756 0.35986 0.0
C1461 C 0.7987 0.12371 0.34544 0.0
H1462 H 0.81435 0.89545 0.35472 0.0
H1463 H 0.75891 0.86022 0.31732 0.0
H1464 H 0.78884 0.82326 0.31257 0.0
H1465 H 0.87218 0.87671 0.32985 0.0
H1466 H 0.89064 0.87079 0.35051 0.0
H1467 H 0.86501 0.89456 0.35061 0.0
H1468 H 0.84323 0.87089 0.37806 0.0
H1469 H 0.86874 0.84701 0.37803 0.0
H1470 H 0.83539 0.83688 0.37604 0.0
H1471 H 0.825 0.79013 0.31203 0.0
H1472 H 0.86393 0.76278 0.31648 0.0
H1473 H 0.89543 0.82008 0.35417 0.0
C1474 C 0.80861 0.88012 0.34535 0.0
C1475 C 0.78435 0.88074 0.33632 0.0
C1476 C 0.77734 0.86003 0.32447 0.0
C1477 C 0.79425 0.83905 0.32162 0.0
C1478 C 0.81803 0.83907 0.33076 0.0
C1479 C 0.82517 0.85905 0.34242 0.0
C1480 C 0.85153 0.8542 0.35091 0.0
C1481 C 0.87099 0.87532 0.34512 0.0
C1482 C 0.84959 0.85212 0.37201 0.0
C1483 C 0.8581 0.8283 0.34229 0.0
C1484 C 0.83863 0.81994 0.33062 0.0
C1485 C 0.8404 0.79651 0.3211 0.0
C1486 C 0.86261 0.78118 0.32364 0.0
C1487 C 0.88267 0.7893 0.33568 0.0
C1488 C 0.8803 0.81323 0.34504 0.0
H1489 H 0.10288 0.81755 0.34228 0.0
H1490 H 0.15099 0.74887 0.33654 0.0
H1491 H 0.19 0.77669 0.33461 0.0
H1492 H 0.13906 0.85833 0.31066 0.0
H1493 H 0.13458 0.8872 0.32434 0.0
H1494 H 0.11053 0.86183 0.32481 0.0
H1495 H 0.11481 0.859 0.36033 0.0
H1496 H 0.13889 0.88431 0.35997 0.0
H1497 H 0.14626 0.85345 0.37045 0.0
H1498 H 0.22381 0.8122 0.33379 0.0
H1499 H 0.24984 0.85248 0.33499 0.0
H1500 H 0.17922 0.89768 0.34066 0.0
C1501 C 0.12157 0.80835 0.34035 0.0
C1502 C 0.12389 0.78104 0.33949 0.0
C1503 C 0.14878 0.76975 0.33738 0.0
C1504 C 0.17102 0.78539 0.33616 0.0
C1505 C 0.16801 0.81226 0.33708 0.0
C1506 C 0.14391 0.82363 0.33914 0.0
C1507 C 0.14596 0.8529 0.34023 0.0
C1508 C 0.13169 0.86582 0.32404 0.0
C1509 C 0.13589 0.863 0.35885 0.0
C1510 C 0.17502 0.85625 0.33858 0.0
C1511 C 0.18741 0.83261 0.33668 0.0
C1512 C 0.2143 0.83083 0.33517 0.0
C1513 C 0.2289 0.85382 0.33575 0.0
C1514 C 0.21658 0.87824 0.3379 0.0
C1515 C 0.18925 0.87932 0.33919 0.0
H1516 H 0.11372 0.81055 0.67419 0.0
H1517 H 0.14084 0.76568 0.62746 0.0
H1518 H 0.18079 0.79222 0.6263 0.0
H1519 H 0.13522 0.8714 0.6575 0.0
H1520 H 0.14437 0.88398 0.67974 0.0
H1521 H 0.1191 0.85998 0.678 0.0
H1522 H 0.14398 0.83025 0.70075 0.0
H1523 H 0.16935 0.85418 0.70256 0.0
H1524 H 0.17709 0.82139 0.69583 0.0
H1525 H 0.21678 0.82447 0.62945 0.0
H1526 H 0.24523 0.86207 0.63535 0.0
H1527 H 0.19429 0.88696 0.67955 0.0
C1528 C 0.12831 0.80612 0.66392 0.0
C1529 C 0.12441 0.78603 0.65098 0.0
C1530 C 0.14356 0.78106 0.63746 0.0
C1531 C 0.16631 0.79591 0.63677 0.0
C1532 C 0.16951 0.81575 0.64963 0.0
C1533 C 0.15099 0.821 0.66288 0.0
C1534 C 0.15839 0.84456 0.67424 0.0
C1535 C 0.13806 0.86626 0.67224 0.0
C1536 C 0.16245 0.83714 0.69455 0.0
C1537 C 0.18378 0.85192 0.66513 0.0
C1538 C 0.19001 0.83481 0.65115 0.0
C1539 C 0.21223 0.83788 0.64047 0.0
C1540 C 0.22835 0.85921 0.64399 0.0
C1541 C 0.22207 0.87735 0.65798 0.0
C1542 C 0.19958 0.87343 0.66877 0.0
H1543 H 0.21281 0.13487 0.6395 0.0
H1544 H 0.17951 0.08317 0.68028 0.0
H1545 H 0.14375 0.11435 0.68549 0.0
H1546 H 0.19625 0.19565 0.66197 0.0
H1547 H 0.1885 0.21204 0.64074 0.0
H1548 H 0.21215 0.18629 0.64088 0.0
H1549 H 0.18607 0.16186 0.61575 0.0
H1550 H 0.16235 0.18753 0.61554 0.0
H1551 H 0.15234 0.15451 0.61969 0.0
H1552 H 0.11185 0.15091 0.68626 0.0
H1553 H 0.08404 0.18926 0.68115 0.0
H1554 H 0.13688 0.21658 0.63886 0.0
C1555 C 0.19806 0.13031 0.64962 0.0
C1556 C 0.19884 0.10676 0.65958 0.0
C1557 C 0.17909 0.10112 0.67251 0.0
C1558 C 0.15883 0.11873 0.6756 0.0
C1559 C 0.15853 0.14175 0.66552 0.0
C1560 C 0.17748 0.14751 0.65268 0.0
C1561 C 0.17189 0.17305 0.64309 0.0
C1562 C 0.19348 0.19293 0.6469 0.0
C1563 C 0.16792 0.16898 0.62229 0.0
C1564 C 0.1468 0.1807 0.6525 0.0
C1565 C 0.13963 0.16251 0.66555 0.0
C1566 C 0.11727 0.16531 0.67611 0.0
C1567 C 0.10168 0.1872 0.67318 0.0
C1568 C 0.10839 0.20588 0.65967 0.0
C1569 C 0.13127 0.20254 0.64923 0.0
H1570 H 0.86878 0.20788 0.6386 0.0
H1571 H 0.89389 0.21244 0.69556 0.0
H1572 H 0.85968 0.18121 0.70438 0.0
H1573 H 0.79935 0.20154 0.64804 0.0
H1574 H 0.79429 0.17904 0.62936 0.0
H1575 H 0.81955 0.20313 0.62779 0.0
H1576 H 0.85345 0.16691 0.62185 0.0
H1577 H 0.82833 0.14274 0.62338 0.0
H1578 H 0.85643 0.14056 0.63807 0.0
H1579 H 0.82509 0.14685 0.70652 0.0
H1580 H 0.79182 0.11282 0.70193 0.0
H1581 H 0.78915 0.13112 0.64364 0.0
C1582 C 0.86699 0.20241 0.65295 0.0
C1583 C 0.88395 0.21263 0.66641 0.0
C1584 C 0.88088 0.20512 0.68506 0.0
C1585 C 0.86158 0.18733 0.69018 0.0
C1586 C 0.84538 0.17741 0.67652 0.0
C1587 C 0.84777 0.18481 0.6583 0.0
C1588 C 0.82852 0.17063 0.64619 0.0
C1589 C 0.80929 0.18973 0.63733 0.0
C1590 C 0.84252 0.15424 0.63152 0.0
C1591 C 0.81527 0.15368 0.66037 0.0
C1592 C 0.82521 0.15792 0.6778 0.0
C1593 C 0.81695 0.14357 0.69298 0.0
C1594 C 0.79817 0.12424 0.69024 0.0
C1595 C 0.78783 0.11953 0.67247 0.0
C1596 C 0.79634 0.13468 0.65743 0.0
H1597 H 0.82155 0.90089 0.65612 0.0
H1598 H 0.75352 0.85516 0.66996 0.0
H1599 H 0.78085 0.81587 0.672 0.0
H1600 H 0.85084 0.85336 0.62694 0.0
H1601 H 0.88347 0.86108 0.63398 0.0
H1602 H 0.85873 0.88573 0.63458 0.0
H1603 H 0.86838 0.8939 0.66914 0.0
H1604 H 0.89313 0.86923 0.66866 0.0
H1605 H 0.86705 0.86715 0.68513 0.0
H1606 H 0.81559 0.78135 0.6717 0.0
H1607 H 0.85499 0.75432 0.66914 0.0
H1608 H 0.89959 0.8226 0.65401 0.0
C1609 C 0.8123 0.88263 0.65949 0.0
C1610 C 0.78534 0.88117 0.66291 0.0
C1611 C 0.77417 0.85688 0.66756 0.0
C1612 C 0.78951 0.83442 0.66864 0.0
C1613 C 0.81596 0.83657 0.66501 0.0
C1614 C 0.82725 0.86005 0.66052 0.0
C1615 C 0.85599 0.85708 0.65683 0.0
C1616 C 0.86264 0.86476 0.6369 0.0
C1617 C 0.87208 0.87277 0.67078 0.0
C1618 C 0.85911 0.8282 0.65984 0.0
C1619 C 0.83584 0.81671 0.66462 0.0
C1620 C 0.83391 0.79014 0.66795 0.0
C1621 C 0.85637 0.77492 0.66634 0.0
C1622 C 0.88042 0.7863 0.66136 0.0
C1623 C 0.88164 0.81333 0.65811 0.0
H1624 H 0.61334 0.69193 0.82722 0.0
H1625 H 0.62406 0.72016 0.88299 0.0
H1626 H 0.66249 0.69192 0.8865 0.0
H1627 H 0.6296 0.62611 0.83693 0.0
H1628 H 0.646 0.62052 0.81536 0.0
H1629 H 0.62041 0.64424 0.81671 0.0
H1630 H 0.65148 0.67949 0.80398 0.0
H1631 H 0.67718 0.65585 0.80257 0.0
H1632 H 0.68193 0.6854 0.81544 0.0
H1633 H 0.69882 0.66018 0.88431 0.0
H1634 H 0.72981 0.62515 0.87716 0.0
H1635 H 0.69521 0.61634 0.823 0.0
C1636 C 0.62403 0.69233 0.84006 0.0
C1637 C 0.61589 0.70821 0.85484 0.0
C1638 C 0.62999 0.70799 0.87157 0.0
C1639 C 0.65187 0.69215 0.87364 0.0
C1640 C 0.65929 0.67653 0.85889 0.0
C1641 C 0.64576 0.67635 0.84245 0.0
C1642 C 0.65711 0.6567 0.82914 0.0
C1643 C 0.63708 0.63565 0.82426 0.0
C1644 C 0.66755 0.67017 0.81176 0.0
C1645 C 0.67897 0.64575 0.84074 0.0
C1646 C 0.68002 0.6577 0.85776 0.0
C1647 C 0.69832 0.65078 0.87098 0.0
C1648 C 0.71593 0.63096 0.86674 0.0
C1649 C 0.71506 0.61815 0.84948 0.0
C1650 C 0.69632 0.62576 0.83631 0.0
H1651 H 0.37134 0.70691 0.82853 0.0
H1652 H 0.37465 0.72752 0.88651 0.0
H1653 H 0.33963 0.69637 0.89307 0.0
H1654 H 0.30095 0.69569 0.82614 0.0
H1655 H 0.3043 0.66834 0.81082 0.0
H1656 H 0.32779 0.69426 0.81025 0.0
H1657 H 0.36475 0.66105 0.81577 0.0
H1658 H 0.34141 0.63508 0.81636 0.0
H1659 H 0.36319 0.63983 0.83549 0.0
H1660 H 0.3072 0.66062 0.89395 0.0
H1661 H 0.2791 0.62245 0.88898 0.0
H1662 H 0.29704 0.62419 0.8306 0.0
C1663 C 0.36455 0.70504 0.84258 0.0
C1664 C 0.3756 0.71993 0.85696 0.0
C1665 C 0.36612 0.71685 0.87517 0.0
C1666 C 0.34632 0.69907 0.87907 0.0
C1667 C 0.3361 0.68453 0.86463 0.0
C1668 C 0.3448 0.68734 0.84674 0.0
C1669 C 0.33154 0.66822 0.83395 0.0
C1670 C 0.31517 0.68249 0.81943 0.0
C1671 C 0.35141 0.64996 0.82487 0.0
C1672 C 0.31451 0.65382 0.84755 0.0
C1673 C 0.31732 0.66371 0.86514 0.0
C1674 C 0.30463 0.65286 0.88022 0.0
C1675 C 0.28885 0.63112 0.87728 0.0
C1676 C 0.28592 0.62045 0.85942 0.0
C1677 C 0.29864 0.63222 0.84434 0.0
H1678 H 0.2879 0.36439 0.85383 0.0
H1679 H 0.30192 0.39886 0.80022 0.0
H1680 H 0.33567 0.36593 0.79402 0.0
H1681 H 0.35279 0.35165 0.8644 0.0
H1682 H 0.34683 0.32123 0.87592 0.0
H1683 H 0.32201 0.34578 0.87544 0.0
H1684 H 0.28985 0.31302 0.86083 0.0
H1685 H 0.31455 0.28827 0.8614 0.0
H1686 H 0.29877 0.29624 0.83998 0.0
H1687 H 0.36998 0.33147 0.79465 0.0
H1688 H 0.40262 0.29805 0.80206 0.0
H1689 H 0.3657 0.28548 0.85508 0.0
C1690 C 0.29764 0.36461 0.84062 0.0
C1691 C 0.29226 0.38408 0.82746 0.0
C1692 C 0.30587 0.38416 0.81051 0.0
C1693 C 0.32495 0.36547 0.80684 0.0
C1694 C 0.33013 0.34682 0.82024 0.0
C1695 C 0.31681 0.34617 0.83676 0.0
C1696 C 0.3272 0.32508 0.84929 0.0
C1697 C 0.33784 0.33664 0.86732 0.0
C1698 C 0.30635 0.30443 0.85309 0.0
C1699 C 0.34878 0.31434 0.83738 0.0
C1700 C 0.34999 0.32698 0.82061 0.0
C1701 C 0.36901 0.32117 0.80762 0.0
C1702 C 0.38739 0.30205 0.81193 0.0
C1703 C 0.38669 0.28901 0.82912 0.0
C1704 C 0.3669 0.29516 0.84187 0.0
H1705 H 0.68228 0.38888 0.83135 0.0
H1706 H 0.7444 0.35401 0.86319 0.0
H1707 H 0.71801 0.31441 0.86735 0.0
H1708 H 0.6298 0.36386 0.85814 0.0
H1709 H 0.6089 0.3583 0.83864 0.0
H1710 H 0.63294 0.38363 0.83777 0.0
H1711 H 0.65218 0.36346 0.80805 0.0
H1712 H 0.62818 0.33805 0.80883 0.0
H1713 H 0.66217 0.32991 0.8081 0.0
H1714 H 0.68413 0.27948 0.86928 0.0
H1715 H 0.6457 0.25079 0.8676 0.0
H1716 H 0.60605 0.30806 0.83402 0.0
C1717 C 0.6903 0.3729 0.83919 0.0
C1718 C 0.7154 0.37445 0.84691 0.0
C1719 C 0.72534 0.35307 0.85696 0.0
C1720 C 0.71046 0.33057 0.85947 0.0
C1721 C 0.68575 0.32969 0.85175 0.0
C1722 C 0.67579 0.3502 0.8417 0.0
C1723 C 0.64867 0.3443 0.83488 0.0
C1724 C 0.62892 0.36367 0.84284 0.0
C1725 C 0.64776 0.3439 0.8137 0.0
C1726 C 0.64485 0.31738 0.84281 0.0
C1727 C 0.66643 0.30934 0.85254 0.0
C1728 C 0.66718 0.28548 0.86159 0.0
C1729 C 0.64527 0.26939 0.86064 0.0
C1730 C 0.62304 0.27718 0.85061 0.0
C1731 C 0.62295 0.30146 0.84155 0.0
H1732 H 0.7102 0.3757 0.13497 0.0
H1733 H 0.71221 0.39074 0.19369 0.0
H1734 H 0.68073 0.3551 0.19883 0.0
H1735 H 0.64274 0.36465 0.13256 0.0
H1736 H 0.64477 0.33964 0.11525 0.0
H1737 H 0.66934 0.36442 0.11643 0.0
H1738 H 0.70491 0.32907 0.11929 0.0
H1739 H 0.68043 0.30415 0.11807 0.0
H1740 H 0.70255 0.30506 0.13728 0.0
H1741 H 0.64809 0.31882 0.19733 0.0
H1742 H 0.61446 0.28652 0.18922 0.0
H1743 H 0.63235 0.29672 0.1313 0.0
C1744 C 0.70433 0.3711 0.14892 0.0
C1745 C 0.71375 0.38559 0.16399 0.0
C1746 C 0.70521 0.37965 0.18202 0.0
C1747 C 0.68746 0.35944 0.18505 0.0
C1748 C 0.67833 0.34562 0.16986 0.0
C1749 C 0.68634 0.3513 0.15214 0.0
C1750 C 0.67217 0.33486 0.13808 0.0
C1751 C 0.65631 0.35191 0.12481 0.0
C1752 C 0.69115 0.31724 0.12756 0.0
C1753 C 0.65471 0.31922 0.15064 0.0
C1754 C 0.65884 0.32543 0.16894 0.0
C1755 C 0.64478 0.31371 0.18306 0.0
C1756 C 0.62582 0.29535 0.17835 0.0
C1757 C 0.62091 0.28917 0.15966 0.0
C1758 C 0.63568 0.30118 0.14569 0.0
H1759 H 0.62212 0.7016 0.16779 0.0
H1760 H 0.62965 0.73595 0.11343 0.0
H1761 H 0.66608 0.70646 0.10661 0.0
H1762 H 0.69129 0.69048 0.17574 0.0
H1763 H 0.68599 0.6599 0.18721 0.0
H1764 H 0.66169 0.68499 0.18838 0.0
H1765 H 0.62739 0.65306 0.17541 0.0
H1766 H 0.65155 0.62789 0.17422 0.0
H1767 H 0.63355 0.63674 0.15388 0.0
H1768 H 0.69947 0.67138 0.1048 0.0
H1769 H 0.72818 0.63329 0.10834 0.0
H1770 H 0.69908 0.62149 0.16377 0.0
C1771 C 0.63152 0.70301 0.15449 0.0
C1772 C 0.62314 0.72126 0.1412 0.0
C1773 C 0.63602 0.72251 0.12397 0.0
C1774 C 0.65666 0.70574 0.11993 0.0
C1775 C 0.66427 0.68788 0.13327 0.0
C1776 C 0.6522 0.68645 0.15023 0.0
C1777 C 0.66354 0.6648 0.16185 0.0
C1778 C 0.67639 0.6757 0.17933 0.0
C1779 C 0.64277 0.64442 0.16661 0.0
C1780 C 0.68356 0.654 0.14864 0.0
C1781 C 0.68371 0.66767 0.13226 0.0
C1782 C 0.6997 0.66065 0.11761 0.0
C1783 C 0.71582 0.63896 0.11971 0.0
C1784 C 0.71586 0.62455 0.13633 0.0
C1785 C 0.69972 0.63241 0.15103 0.0
H1786 H 0.37091 0.70907 0.14132 0.0
H1787 H 0.39701 0.70872 0.19819 0.0
H1788 H 0.36218 0.67787 0.20612 0.0
H1789 H 0.30167 0.70341 0.15083 0.0
H1790 H 0.29588 0.68216 0.13153 0.0
H1791 H 0.32169 0.70572 0.13054 0.0
H1792 H 0.3547 0.66914 0.12335 0.0
H1793 H 0.32901 0.64552 0.12425 0.0
H1794 H 0.35716 0.64175 0.13872 0.0
H1795 H 0.32637 0.64503 0.20754 0.0
H1796 H 0.29225 0.61217 0.20222 0.0
H1797 H 0.28989 0.6333 0.14438 0.0
C1798 C 0.36931 0.70255 0.15545 0.0
C1799 C 0.38666 0.71148 0.16915 0.0
C1800 C 0.38371 0.70256 0.18751 0.0
C1801 C 0.36404 0.68494 0.19214 0.0
C1802 C 0.3474 0.67644 0.17829 0.0
C1803 C 0.34979 0.68495 0.16032 0.0
C1804 C 0.33006 0.67196 0.14789 0.0
C1805 C 0.31121 0.69201 0.13972 0.0
C1806 C 0.34355 0.65615 0.13266 0.0
C1807 C 0.31653 0.65445 0.16162 0.0
C1808 C 0.32671 0.65747 0.1791 0.0
C1809 C 0.31811 0.64262 0.19394 0.0
C1810 C 0.29882 0.62395 0.19077 0.0
C1811 C 0.28837 0.62026 0.17292 0.0
C1812 C 0.29716 0.63601 0.15825 0.0
H1813 H 0.28805 0.3666 0.14677 0.0
H1814 H 0.33765 0.43333 0.15673 0.0
H1815 H 0.37571 0.40453 0.15825 0.0
H1816 H 0.32077 0.32256 0.17659 0.0
H1817 H 0.31724 0.29482 0.16165 0.0
H1818 H 0.29368 0.32062 0.16095 0.0
H1819 H 0.30151 0.32619 0.12592 0.0
H1820 H 0.32503 0.30032 0.12649 0.0
H1821 H 0.33399 0.33174 0.11759 0.0
H1822 H 0.40806 0.36895 0.15972 0.0
H1823 H 0.43341 0.32836 0.15995 0.0
H1824 H 0.36355 0.28433 0.14819 0.0
C1825 C 0.30695 0.37518 0.14906 0.0
C1826 C 0.3098 0.40222 0.15184 0.0
C1827 C 0.33488 0.41263 0.15495 0.0
C1828 C 0.35666 0.39646 0.15571 0.0
C1829 C 0.35313 0.36992 0.15318 0.0
C1830 C 0.32899 0.3593 0.14979 0.0
C1831 C 0.33069 0.33004 0.14769 0.0
C1832 C 0.31464 0.3162 0.16262 0.0
C1833 C 0.32231 0.32158 0.12827 0.0
C1834 C 0.35952 0.32593 0.15061 0.0
C1835 C 0.37202 0.34924 0.15377 0.0
C1836 C 0.39853 0.35056 0.15723 0.0
C1837 C 0.41271 0.3274 0.15747 0.0
C1838 C 0.40038 0.30324 0.15424 0.0
C1839 C 0.37345 0.30256 0.15064 0.0
H1840 H 0.03152 0.42127 0.28104 0.0
H1841 H 0.00584 0.35595 0.24791 0.0
H1842 H 0.02259 0.37743 0.22007 0.0
H1843 H 0.02061 0.4728 0.24533 0.0
H1844 H 0.04948 0.49009 0.2521 0.0
H1845 H 0.03134 0.47188 0.26896 0.0
H1846 H 0.07286 0.44614 0.27745 0.0
H1847 H 0.09104 0.46411 0.2606 0.0
H1848 H 0.09031 0.42914 0.25962 0.0
H1849 H 0.04804 0.40211 0.19688 0.0
H1850 H 0.07967 0.42855 0.1799 0.0
H1851 H 0.08828 0.47887 0.22757 0.0
C1852 C 0.02898 0.41171 0.26789 0.0
C1853 C 0.01716 0.38698 0.2667 0.0
C1854 C 0.01428 0.37512 0.24919 0.0
C1855 C 0.02384 0.38713 0.23327 0.0
C1856 C 0.03605 0.41113 0.23501 0.0
C1857 C 0.03842 0.42344 0.25184 0.0
C1858 C 0.05449 0.44797 0.2502 0.0
C1859 C 0.03799 0.47211 0.25439 0.0
C1860 C 0.0786 0.44675 0.2627 0.0
C1861 C 0.06183 0.4468 0.23002 0.0
C1862 C 0.05065 0.42563 0.22145 0.0
C1863 C 0.05638 0.41915 0.20329 0.0
C1864 C 0.07433 0.43446 0.19369 0.0
C1865 C 0.08643 0.45607 0.20226 0.0
C1866 C 0.0795 0.46253 0.22056 0.0
H1867 H 0.61057 0.07054 0.28434 0.0
H1868 H 0.58116 0.99226 0.27669 0.0
H1869 H 0.55094 0.00846 0.25288 0.0
H1870 H 0.55041 0.10507 0.27657 0.0
H1871 H 0.56613 0.13108 0.26428 0.0
H1872 H 0.58347 0.11363 0.28191 0.0
H1873 H 0.61995 0.10272 0.25855 0.0
H1874 H 0.60281 0.12022 0.2409 0.0
H1875 H 0.61176 0.08679 0.23721 0.0
H1876 H 0.52523 0.03348 0.22857 0.0
H1877 H 0.50876 0.06438 0.20503 0.0
H1878 H 0.55715 0.12497 0.22817 0.0
C1879 C 0.59793 0.05666 0.27765 0.0
C1880 C 0.59836 0.03007 0.28243 0.0
C1881 C 0.58101 0.01278 0.27349 0.0
C1882 C 0.56381 0.02179 0.25989 0.0
C1883 C 0.56421 0.04811 0.2554 0.0
C1884 C 0.58093 0.06522 0.264 0.0
C1885 C 0.57887 0.09222 0.25603 0.0
C1886 C 0.56913 0.11164 0.27057 0.0
C1887 C 0.60489 0.10099 0.24768 0.0
C1888 C 0.55871 0.08761 0.24131 0.0
C1889 C 0.5501 0.06219 0.24127 0.0
C1890 C 0.53179 0.05344 0.22853 0.0
C1891 C 0.52248 0.07107 0.21528 0.0
C1892 C 0.53186 0.09688 0.21481 0.0
C1893 C 0.54983 0.10524 0.22819 0.0
H1894 H 0.90447 0.5688 0.20734 0.0
H1895 H 0.89514 0.49351 0.23321 0.0
H1896 H 0.92419 0.50732 0.2586 0.0
H1897 H 0.97313 0.57835 0.22049 0.0
H1898 H 0.96863 0.6127 0.22403 0.0
H1899 H 0.94932 0.59579 0.20716 0.0
H1900 H 0.90738 0.6123 0.22303 0.0
H1901 H 0.92652 0.62916 0.23993 0.0
H1902 H 0.90247 0.60592 0.24721 0.0
H1903 H 0.94992 0.53153 0.28287 0.0
H1904 H 0.97093 0.56337 0.30344 0.0
H1905 H 0.96551 0.62175 0.26044 0.0
C1906 C 0.9088 0.55513 0.21826 0.0
C1907 C 0.89758 0.53015 0.21842 0.0
C1908 C 0.90375 0.51269 0.23283 0.0
C1909 C 0.92018 0.52037 0.24728 0.0
C1910 C 0.93056 0.54539 0.24687 0.0
C1911 C 0.92534 0.56237 0.2326 0.0
C1912 C 0.93784 0.58854 0.23575 0.0
C1913 C 0.95846 0.59417 0.22098 0.0
C1914 C 0.91733 0.61025 0.23653 0.0
C1915 C 0.95014 0.58402 0.25437 0.0
C1916 C 0.94593 0.55899 0.26054 0.0
C1917 C 0.95381 0.55102 0.27801 0.0
C1918 C 0.96588 0.56924 0.28957 0.0
C1919 C 0.97 0.59514 0.2836 0.0
C1920 C 0.96252 0.60223 0.26556 0.0
H1921 H 0.40963 0.98805 0.26557 0.0
H1922 H 0.43164 0.94409 0.3142 0.0
H1923 H 0.46404 0.92042 0.29603 0.0
H1924 H 0.40964 0.93614 0.23614 0.0
H1925 H 0.42224 0.95306 0.21632 0.0
H1926 H 0.40468 0.97063 0.23371 0.0
H1927 H 0.44368 0.00185 0.23793 0.0
H1928 H 0.46137 0.98438 0.22045 0.0
H1929 H 0.47531 0.98875 0.24301 0.0
H1930 H 0.48881 0.89671 0.27217 0.0
H1931 H 0.50357 0.87423 0.2442 0.0
H1932 H 0.46564 0.93267 0.21051 0.0
C1933 C 0.42157 0.97379 0.2725 0.0
C1934 C 0.41814 0.96827 0.29144 0.0
C1935 C 0.43422 0.94934 0.29989 0.0
C1936 C 0.45269 0.93563 0.28963 0.0
C1937 C 0.45501 0.94102 0.27092 0.0
C1938 C 0.44 0.95974 0.26242 0.0
C1939 C 0.44424 0.95968 0.24176 0.0
C1940 C 0.41868 0.95456 0.23138 0.0
C1941 C 0.45691 0.98518 0.23542 0.0
C1942 C 0.46286 0.93708 0.23992 0.0
C1943 C 0.46928 0.927 0.25695 0.0
C1944 C 0.48445 0.90478 0.25876 0.0
C1945 C 0.49287 0.89219 0.24273 0.0
C1946 C 0.48597 0.90173 0.22508 0.0
C1947 C 0.47127 0.92486 0.22377 0.0
H1948 H 0.09895 0.51693 0.7654 0.0
H1949 H 0.07524 0.55783 0.81496 0.0
H1950 H 0.04291 0.58209 0.79706 0.0
H1951 H 0.0987 0.5705 0.73734 0.0
H1952 H 0.08681 0.55438 0.71698 0.0
H1953 H 0.10438 0.53626 0.73407 0.0
H1954 H 0.06595 0.50409 0.73711 0.0
H1955 H 0.04825 0.52208 0.71991 0.0
H1956 H 0.03398 0.5163 0.7422 0.0
H1957 H 0.01811 0.60657 0.77354 0.0
H1958 H 0.00296 0.62979 0.74597 0.0
H1959 H 0.0428 0.57388 0.71124 0.0
C1960 C 0.08667 0.53065 0.77257 0.0
C1961 C 0.08958 0.53518 0.79169 0.0
C1962 C 0.07307 0.5534 0.80047 0.0
C1963 C 0.05465 0.56743 0.79039 0.0
C1964 C 0.05285 0.56303 0.77151 0.0
C1965 C 0.06831 0.54499 0.76268 0.0
C1966 C 0.06447 0.54601 0.742 0.0
C1967 C 0.09011 0.55216 0.73202 0.0
C1968 C 0.05244 0.52061 0.73489 0.0
C1969 C 0.04545 0.56832 0.74056 0.0
C1970 C 0.03859 0.57748 0.75777 0.0
C1971 C 0.02284 0.59922 0.75998 0.0
C1972 C 0.01422 0.61223 0.74419 0.0
C1973 C 0.02148 0.60358 0.72638 0.0
C1974 C 0.03688 0.58099 0.72463 0.0
H1975 H 0.46903 0.06473 0.7873 0.0
H1976 H 0.50687 0.12536 0.75565 0.0
H1977 H 0.49245 0.10455 0.72691 0.0
H1978 H 0.47906 0.01053 0.75226 0.0
H1979 H 0.44762 0.99705 0.75741 0.0
H1980 H 0.46596 0.01318 0.77521 0.0
H1981 H 0.4269 0.04382 0.78121 0.0
H1982 H 0.40871 0.0281 0.7633 0.0
H1983 H 0.41391 0.06269 0.76243 0.0
H1984 H 0.4669 0.08306 0.70241 0.0
H1985 H 0.43355 0.06149 0.6838 0.0
H1986 H 0.41282 0.01336 0.73071 0.0
C1987 C 0.47488 0.07321 0.7743 0.0
C1988 C 0.48922 0.0966 0.77376 0.0
C1989 C 0.49637 0.10718 0.75647 0.0
C1990 C 0.48818 0.09553 0.74003 0.0
C1991 C 0.47314 0.07311 0.74107 0.0
C1992 C 0.46687 0.06179 0.75775 0.0
C1993 C 0.4481 0.03943 0.75516 0.0
C1994 C 0.46096 0.01351 0.76032 0.0
C1995 C 0.42293 0.0438 0.76617 0.0
C1996 C 0.44341 0.04116 0.7346 0.0
C1997 C 0.45847 0.06035 0.72669 0.0
C1998 C 0.4556 0.06743 0.7083 0.0
C1999 C 0.43657 0.0549 0.69779 0.0
C2000 C 0.42054 0.03542 0.70564 0.0
C2001 C 0.42462 0.02813 0.72421 0.0
H2002 H 0.97843 0.38889 0.73631 0.0
H2003 H 0.96457 0.4365 0.68805 0.0
H2004 H 0.9426 0.4692 0.70749 0.0
H2005 H 0.91908 0.39731 0.75611 0.0
H2006 H 0.93011 0.39846 0.77966 0.0
H2007 H 0.94876 0.38126 0.76267 0.0
H2008 H 0.98923 0.40896 0.77061 0.0
H2009 H 0.97073 0.42617 0.78779 0.0
H2010 H 0.98713 0.44388 0.76982 0.0
H2011 H 0.91596 0.49278 0.73123 0.0
H2012 H 0.88831 0.50597 0.75734 0.0
H2013 H 0.92109 0.44384 0.7904 0.0
C2014 C 0.97133 0.40651 0.72993 0.0
C2015 C 0.97331 0.41027 0.71072 0.0
C2016 C 0.96365 0.43347 0.7028 0.0
C2017 C 0.95107 0.4521 0.71373 0.0
C2018 C 0.94869 0.44739 0.73257 0.0
C2019 C 0.9589 0.42532 0.74064 0.0
C2020 C 0.95186 0.4237 0.76084 0.0
C2021 C 0.93654 0.39872 0.76505 0.0
C2022 C 0.97619 0.42581 0.77298 0.0
C2023 C 0.93498 0.44759 0.76266 0.0
C2024 C 0.93365 0.46122 0.7463 0.0
C2025 C 0.91737 0.48265 0.74425 0.0
C2026 C 0.90178 0.49006 0.75921 0.0
C2027 C 0.90251 0.47602 0.776 0.0
C2028 C 0.9199 0.45494 0.77776 0.0
H2029 H 0.58718 0.98758 0.73506 0.0
H2030 H 0.57291 0.94115 0.68614 0.0
H2031 H 0.54141 0.91489 0.70332 0.0
H2032 H 0.58984 0.93687 0.76495 0.0
H2033 H 0.57412 0.95267 0.7841 0.0
H2034 H 0.59103 0.97172 0.7672 0.0
H2035 H 0.54941 0.99867 0.76118 0.0
H2036 H 0.53232 0.97974 0.7782 0.0
H2037 H 0.51974 0.98226 0.75511 0.0
H2038 H 0.51776 0.88895 0.72658 0.0
H2039 H 0.50362 0.86536 0.75425 0.0
H2040 H 0.53285 0.92795 0.78857 0.0
C2041 C 0.57702 0.97226 0.72784 0.0
C2042 C 0.58245 0.96671 0.70915 0.0
C2043 C 0.56873 0.94636 0.70028 0.0
C2044 C 0.5508 0.93118 0.70997 0.0
C2045 C 0.54662 0.9366 0.72851 0.0
C2046 C 0.55915 0.95679 0.73735 0.0
C2047 C 0.55346 0.95661 0.75784 0.0
C2048 C 0.5786 0.95432 0.76918 0.0
C2049 C 0.5378 0.98076 0.76341 0.0
C2050 C 0.53712 0.93224 0.75926 0.0
C2051 C 0.5329 0.92136 0.74212 0.0
C2052 C 0.52033 0.89761 0.74004 0.0
C2053 C 0.51226 0.88438 0.75589 0.0
C2054 C 0.51692 0.89482 0.77366 0.0
C2055 C 0.52898 0.9194 0.77523 0.0
H2056 H 0.02794 0.34096 0.45487 0.0
H2057 H 0.94513 0.34457 0.44421 0.0
H2058 H 0.9368 0.3481 0.47752 0.0
H2059 H 0.02396 0.30078 0.49371 0.0
H2060 H 0.04985 0.31626 0.50627 0.0
H2061 H 0.04974 0.31699 0.48149 0.0
H2062 H 0.05217 0.36724 0.48203 0.0
H2063 H 0.05247 0.36667 0.50685 0.0
H2064 H 0.02828 0.38538 0.49481 0.0
H2065 H 0.93701 0.34637 0.51178 0.0
H2066 H 0.9457 0.34142 0.54486 0.0
H2067 H 0.02854 0.34015 0.53373 0.0
C2068 C 0.00807 0.3428 0.45953 0.0
C2069 C 0.9872 0.34269 0.44687 0.0
C2070 C 0.96149 0.34515 0.45355 0.0
C2071 C 0.95653 0.347 0.47248 0.0
C2072 C 0.97749 0.34651 0.48457 0.0
C2073 C 0.00276 0.34471 0.47839 0.0
C2074 C 0.02165 0.34331 0.49437 0.0
C2075 C 0.03721 0.31782 0.49393 0.0
C2076 C 0.03971 0.36707 0.49452 0.0
C2077 C 0.00296 0.34391 0.51047 0.0
C2078 C 0.97761 0.3459 0.50448 0.0
C2079 C 0.9568 0.34537 0.51668 0.0
C2080 C 0.96201 0.34272 0.53552 0.0
C2081 C 0.98787 0.34079 0.54209 0.0
C2082 C 0.00856 0.34156 0.52927 0.0
H2083 H 0.66302 0.02853 0.54149 0.0
H2084 H 0.64898 0.94809 0.55683 0.0
H2085 H 0.64069 0.93738 0.52443 0.0
H2086 H 0.61774 0.03261 0.50296 0.0
H2087 H 0.63968 0.0516 0.48909 0.0
H2088 H 0.64073 0.05406 0.51385 0.0
H2089 H 0.68964 0.04232 0.51351 0.0
H2090 H 0.68875 0.03998 0.4888 0.0
H2091 H 0.70005 0.01287 0.5023 0.0
H2092 H 0.63649 0.93453 0.49011 0.0
H2093 H 0.63984 0.93922 0.4564 0.0
H2094 H 0.6616 0.02015 0.46339 0.0
C2095 C 0.65817 0.00864 0.53818 0.0
C2096 C 0.65633 0.98935 0.55202 0.0
C2097 C 0.64973 0.96359 0.54678 0.0
C2098 C 0.64515 0.95718 0.52831 0.0
C2099 C 0.6475 0.9766 0.5151 0.0
C2100 C 0.65408 0.00175 0.51978 0.0
C2101 C 0.65784 0.01839 0.50279 0.0
C2102 C 0.6378 0.04047 0.50214 0.0
C2103 C 0.68572 0.029 0.50179 0.0
C2104 C 0.65279 0.99851 0.48785 0.0
C2105 C 0.64639 0.97466 0.49524 0.0
C2106 C 0.64151 0.95313 0.48416 0.0
C2107 C 0.64368 0.95595 0.46501 0.0
C2108 C 0.65112 0.98002 0.45712 0.0
C2109 C 0.65537 0.00159 0.46882 0.0
H2110 H 0.02572 0.658 0.54118 0.0
H2111 H 0.94308 0.66269 0.55213 0.0
H2112 H 0.9342 0.66017 0.51881 0.0
H2113 H 0.02587 0.69823 0.50248 0.0
H2114 H 0.0499 0.68014 0.4898 0.0
H2115 H 0.04983 0.67928 0.51458 0.0
H2116 H 0.04684 0.62906 0.5139 0.0
H2117 H 0.04708 0.62974 0.48908 0.0
H2118 H 0.02108 0.61366 0.50114 0.0
H2119 H 0.93445 0.66243 0.48454 0.0
H2120 H 0.94352 0.66728 0.45151 0.0
H2121 H 0.02604 0.65913 0.46243 0.0
C2122 C 0.00575 0.65814 0.53657 0.0
C2123 C 0.98508 0.66037 0.54928 0.0
C2124 C 0.95921 0.66051 0.5427 0.0
C2125 C 0.95397 0.65922 0.52378 0.0
C2126 C 0.97479 0.65756 0.51163 0.0
C2127 C 0.00016 0.65673 0.51773 0.0
C2128 C 0.01901 0.65619 0.50171 0.0
C2129 C 0.03722 0.67987 0.50218 0.0
C2130 C 0.03441 0.63064 0.50144 0.0
C2131 C 0.00027 0.65768 0.48567 0.0
C2132 C 0.97488 0.65831 0.49172 0.0
C2133 C 0.95422 0.66136 0.47959 0.0
C2134 C 0.95962 0.66392 0.46077 0.0
C2135 C 0.98552 0.66325 0.45414 0.0
C2136 C 0.00602 0.65981 0.46689 0.0
H2137 H 0.33179 0.02318 0.53941 0.0
H2138 H 0.3453 0.94103 0.54902 0.0
H2139 H 0.35016 0.93417 0.5156 0.0
H2140 H 0.29488 0.01707 0.49972 0.0
H2141 H 0.30838 0.04482 0.48802 0.0
H2142 H 0.30795 0.04382 0.51279 0.0
H2143 H 0.35769 0.05097 0.51361 0.0
H2144 H 0.35826 0.05225 0.48881 0.0
H2145 H 0.3786 0.02942 0.50087 0.0
H2146 H 0.34864 0.93542 0.48122 0.0
H2147 H 0.34324 0.94488 0.44831 0.0
H2148 H 0.33527 0.02705 0.46104 0.0
C2149 C 0.33646 0.00385 0.53459 0.0
C2150 C 0.33799 0.98262 0.54691 0.0
C2151 C 0.34355 0.95754 0.53988 0.0
C2152 C 0.34658 0.95347 0.52092 0.0
C2153 C 0.34442 0.97473 0.50917 0.0
C2154 C 0.33985 0.99948 0.51573 0.0
C2155 C 0.33741 0.01882 0.50011 0.0
C2156 C 0.31056 0.03189 0.50017 0.0
C2157 C 0.3593 0.03906 0.5009 0.0
C2158 C 0.34056 0.0009 0.48372 0.0
C2159 C 0.34464 0.97558 0.48926 0.0
C2160 C 0.34612 0.95527 0.47667 0.0
C2161 C 0.34321 0.96095 0.45792 0.0
C2162 C 0.33913 0.98683 0.45181 0.0
C2163 C 0.3382 0.00702 0.46503 0.0
H2164 H 0.49746 0.80767 0.96088 0.0
H2165 H 0.50004 0.89024 0.9491 0.0
H2166 H 0.49706 0.89964 0.98251 0.0
H2167 H 0.45225 0.81093 0.99835 0.0
H2168 H 0.46804 0.78563 0.01133 0.0
H2169 H 0.46989 0.78567 0.98656 0.0
H2170 H 0.52012 0.7849 0.98831 0.0
H2171 H 0.51843 0.78474 0.01307 0.0
H2172 H 0.53679 0.80955 0.00138 0.0
H2173 H 0.49501 0.89959 0.01757 0.0
H2174 H 0.49337 0.89014 0.05099 0.0
H2175 H 0.49282 0.80757 0.03906 0.0
C2176 C 0.49763 0.82776 0.96529 0.0
C2177 C 0.49916 0.84824 0.9524 0.0
C2178 C 0.49874 0.87425 0.95875 0.0
C2179 C 0.49715 0.87976 0.97768 0.0
C2180 C 0.49585 0.85903 0.99002 0.0
C2181 C 0.49602 0.83356 0.98403 0.0
C2182 C 0.49458 0.81472 -4e-05 0.0
C2183 C 0.46971 0.79828 0.99898 0.0
C2184 C 0.51893 0.79747 0.00072 0.0
C2185 C 0.49375 0.83353 0.01592 0.0
C2186 C 0.49447 0.85901 0.00997 0.0
C2187 C 0.49436 0.8797 0.02236 0.0
C2188 C 0.49355 0.87415 0.0413 0.0
C2189 C 0.4928 0.84813 0.04763 0.0
C2190 C 0.49287 0.82767 0.03468 0.0
H2191 H 0.15936 0.46614 0.96287 0.0
H2192 H 0.15521 0.54754 0.94723 0.0
H2193 H 0.15166 0.55976 0.97977 0.0
H2194 H 0.11689 0.46975 0.00367 0.0
H2195 H 0.13685 0.44773 0.01676 0.0
H2196 H 0.13512 0.44476 0.99205 0.0
H2197 H 0.18517 0.44853 0.99 0.0
H2198 H 0.18705 0.4515 0.01466 0.0
H2199 H 0.20113 0.47619 0.00017 0.0
H2200 H 0.15276 0.56391 0.01389 0.0
H2201 H 0.15929 0.55948 0.04741 0.0
H2202 H 0.16556 0.47587 0.04114 0.0
C2203 C 0.15746 0.48653 0.96621 0.0
C2204 C 0.15718 0.50575 0.95227 0.0
C2205 C 0.15466 0.53223 0.95744 0.0
C2206 C 0.15282 0.53947 0.97597 0.0
C2207 C 0.15365 0.5201 0.98929 0.0
C2208 C 0.15593 0.49417 0.98469 0.0
C2209 C 0.15864 0.47743 0.00175 0.0
C2210 C 0.13549 0.45882 0.00367 0.0
C2211 C 0.18454 0.46255 0.00163 0.0
C2212 C 0.15822 0.49811 0.01659 0.0
C2213 C 0.15496 0.52254 0.00911 0.0
C2214 C 0.15514 0.54486 0.01994 0.0
C2215 C 0.15905 0.54216 0.03894 0.0
C2216 C 0.16296 0.51735 0.0469 0.0
C2217 C 0.16217 0.49505 0.03553 0.0
H2218 H 0.52188 0.1623 0.03633 0.0
H2219 H 0.4432 0.13826 0.04903 0.0
H2220 H 0.43499 0.13082 0.01592 0.0
H2221 H 0.50745 0.19713 0.99701 0.0
H2222 H 0.5361 0.1879 0.98437 0.0
H2223 H 0.53671 0.18842 0.00913 0.0
H2224 H 0.55145 0.1403 0.00962 0.0
H2225 H 0.55098 0.13965 0.98479 0.0
H2226 H 0.53247 0.11618 0.99769 0.0
H2227 H 0.43396 0.13067 0.98134 0.0
H2228 H 0.44047 0.13718 0.94789 0.0
H2229 H 0.52015 0.16003 0.95795 0.0
C2230 C 0.50316 0.15473 0.03224 0.0
C2231 C 0.4832 0.15079 0.04529 0.0
C2232 C 0.45872 0.14161 0.03926 0.0
C2233 C 0.45394 0.13714 0.02051 0.0
C2234 C 0.47391 0.14171 0.00798 0.0
C2235 C 0.4981 0.1501 0.01361 0.0
C2236 C 0.51568 0.15532 0.99732 0.0
C2237 C 0.52448 0.18388 0.99694 0.0
C2238 C 0.53902 0.13675 0.99736 0.0
C2239 C 0.49736 0.14929 0.98162 0.0
C2240 C 0.47342 0.14126 0.98804 0.0
C2241 C 0.45275 0.13649 0.97614 0.0
C2242 C 0.45657 0.14033 0.95721 0.0
C2243 C 0.48087 0.14882 0.9504 0.0
C2244 C 0.50159 0.15291 0.96277 0.0
H2245 H 0.80818 0.48489 0.95806 0.0
H2246 H 0.88907 0.49977 0.94564 0.0
H2247 H 0.89963 0.4971 0.97892 0.0
H2248 H 0.80453 0.5218 0.99894 0.0
H2249 H 0.78339 0.49941 0.01072 0.0
H2250 H 0.78271 0.50144 0.98597 0.0
H2251 H 0.79182 0.45202 0.98374 0.0
H2252 H 0.79257 0.44985 0.00851 0.0
H2253 H 0.81984 0.43862 0.99516 0.0
H2254 H 0.9003 0.49644 0.01387 0.0
H2255 H 0.89146 0.49531 0.04745 0.0
H2256 H 0.81055 0.47864 0.03639 0.0
C2257 C 0.82813 0.48752 0.96238 0.0
C2258 C 0.84784 0.4927 0.94941 0.0
C2259 C 0.87377 0.49571 0.95545 0.0
C2260 C 0.87989 0.49426 0.97427 0.0
C2261 C 0.8599 0.48937 0.98675 0.0
C2262 C 0.83459 0.48576 0.981 0.0
C2263 C 0.81659 0.48101 0.9971 0.0
C2264 C 0.79558 0.50218 0.99825 0.0
C2265 C 0.8045 0.45375 0.99606 0.0
C2266 C 0.8356 0.48306 0.01288 0.0
C2267 C 0.86049 0.48793 0.00668 0.0
C2268 C 0.88098 0.4922 0.01886 0.0
C2269 C 0.87582 0.49159 0.03785 0.0
C2270 C 0.85046 0.48647 0.04437 0.0
C2271 C 0.83024 0.48193 0.03171 0.0
loop_
_geom_bond_atom_site_label_1
_geom_bond_atom_site_label_2
_geom_bond_distance
_geom_bond_site_symmetry_2
_ccdc_geom_bond_type
Li0 N17 1.990 . S
Li0 O60 1.956 1_455 S
Li0 O61 1.970 . S
Li0 O62 1.961 . S
Li1 N25 1.990 . S
Li1 O60 1.970 1_455 S
Li1 O61 1.956 . S
Li1 O63 1.961 1_455 S
Li2 N47 1.990 . S
Li2 O60 1.961 . S
Li2 O62 1.956 1_655 S
Li2 O63 1.970 . S
Li3 N53 1.990 . S
Li3 O61 1.961 . S
Li3 O62 1.970 . S
Li3 O63 1.956 1_455 S
C4 C6 1.348 . S
C4 C7 1.356 . S
C4 O60 1.325 . S
N5 C8 1.314 . S
N5 C9 1.279 . S
C6 C4 1.348 . S
C6 C8 1.353 . S
C6 H64 0.929 1_655 S
C7 C4 1.356 . S
C7 C9 1.358 . S
C7 H65 0.930 . S
C8 N5 1.314 . S
C8 C6 1.353 . S
C8 H66 0.930 . S
C9 N5 1.279 . S
C9 C7 1.358 . S
C9 H67 0.930 . S
C10 C13 1.348 . S
C10 C14 1.356 . S
C10 O61 1.325 . S
C11 N12 1.279 . S
C11 C14 1.358 . S
C11 H68 0.930 . S
N12 C11 1.279 . S
N12 C15 1.314 . S
C13 C10 1.348 . S
C13 C15 1.353 . S
C13 H69 0.929 . S
C14 C10 1.356 . S
C14 C11 1.358 . S
C14 H70 0.930 . S
C15 N12 1.314 . S
C15 C13 1.353 . S
C15 H71 0.930 . S
C16 N17 1.314 . S
C16 C21 1.353 . S
C16 H22 0.930 . S
N17 Li0 1.990 . S
N17 C16 1.314 . S
N17 C19 1.279 . S
C18 C19 1.358 . S
C18 C20 1.356 . S
C18 H72 0.930 . S
C19 N17 1.279 . S
C19 C18 1.358 . S
C19 H23 0.930 . S
C20 C18 1.356 . S
C20 C21 1.348 . S
C21 C16 1.353 . S
C21 C20 1.348 . S
C21 H73 0.929 . S
H22 C16 0.930 . S
H23 C19 0.930 . S
C24 N25 1.314 1_655 S
C24 C26 1.353 . S
C24 H30 0.930 . S
N25 Li1 1.990 . S
N25 C24 1.314 1_455 S
N25 C28 1.279 . S
C26 C24 1.353 . S
C26 C29 1.348 . S
C26 H74 0.929 . S
C27 C28 1.358 . S
C27 C29 1.356 1_455 S
C27 H75 0.930 . S
C28 N25 1.279 . S
C28 C27 1.358 . S
C28 H31 0.930 . S
C29 C26 1.348 . S
C29 C27 1.356 1_655 S
H30 C24 0.930 . S
H31 C28 0.930 . S
C32 C34 1.348 . S
C32 C35 1.356 . S
C32 O62 1.325 . S
N33 C36 1.314 . S
N33 C37 1.279 . S
C34 C32 1.348 . S
C34 C36 1.353 . S
C34 H76 0.930 1_455 S
C35 C32 1.356 . S
C35 C37 1.358 . S
C35 H77 0.930 . S
C36 N33 1.314 . S
C36 C34 1.353 . S
C36 H78 0.930 . S
C37 N33 1.279 . S
C37 C35 1.358 . S
C37 H79 0.930 . S
C38 C39 1.348 . S
C38 C40 1.356 . S
C38 O63 1.325 . S
C39 C38 1.348 . S
C39 C41 1.353 . S
C39 H80 0.929 . S
C40 C38 1.356 . S
C40 C42 1.358 . S
C40 H81 0.930 . S
C41 C39 1.353 . S
C41 N43 1.314 . S
C41 H82 0.930 . S
C42 C40 1.358 . S
C42 N43 1.279 . S
C42 H83 0.930 . S
N43 C41 1.314 . S
N43 C42 1.279 . S
C44 C46 1.353 . S
C44 N47 1.314 . S
C44 H50 0.930 . S
C45 N47 1.279 . S
C45 C48 1.358 . S
C45 H51 0.930 . S
C46 C44 1.353 . S
C46 C49 1.348 . S
C46 H84 0.929 . S
N47 Li2 1.990 . S
N47 C44 1.314 . S
N47 C45 1.279 . S
C48 C45 1.358 . S
C48 C49 1.356 . S
C48 H85 0.930 . S
C49 C46 1.348 . S
C49 C48 1.356 . S
H50 C44 0.930 . S
H51 C45 0.930 . S
C52 N53 1.314 . S
C52 C54 1.353 . S
C52 H58 0.930 . S
N53 Li3 1.990 . S
N53 C52 1.314 . S
N53 C56 1.279 1_455 S
C54 C52 1.353 . S
C54 C57 1.348 . S
C54 H86 0.929 . S
C55 C56 1.358 1_455 S
C55 C57 1.356 . S
C55 H87 0.930 1_455 S
C56 N53 1.279 1_655 S
C56 C55 1.358 1_655 S
C56 H59 0.930 . S
C57 C54 1.348 . S
C57 C55 1.356 . S
H58 C52 0.930 . S
H59 C56 0.930 . S
O60 Li0 1.956 1_655 S
O60 Li1 1.970 1_655 S
O60 Li2 1.961 . S
O60 C4 1.325 . S
O61 Li0 1.970 . S
O61 Li1 1.956 . S
O61 Li3 1.961 . S
O61 C10 1.325 . S
O62 Li0 1.961 . S
O62 Li2 1.956 1_455 S
O62 Li3 1.970 . S
O62 C32 1.325 . S
O63 Li1 1.961 1_655 S
O63 Li2 1.970 . S
O63 Li3 1.956 1_655 S
O63 C38 1.325 . S
H64 C6 0.929 1_455 S
H65 C7 0.930 . S
H66 C8 0.930 . S
H67 C9 0.930 . S
H68 C11 0.930 . S
H69 C13 0.929 . S
H70 C14 0.930 . S
H71 C15 0.930 . S
H72 C18 0.930 . S
H73 C21 0.929 . S
H74 C26 0.929 . S
H75 C27 0.930 . S
H76 C34 0.930 1_655 S
H77 C35 0.930 . S
H78 C36 0.930 . S
H79 C37 0.930 . S
H80 C39 0.929 . S
H81 C40 0.930 . S
H82 C41 0.930 . S
H83 C42 0.930 . S
H84 C46 0.929 . S
H85 C48 0.930 . S
H86 C54 0.929 . S
H87 C55 0.930 1_655 S
Li88 N105 1.990 . S
Li88 O148 1.956 . S
Li88 O149 1.970 . S
Li88 O150 1.961 1_545 S
Li89 N113 1.990 . S
Li89 O148 1.970 . S
Li89 O149 1.956 . S
Li89 O151 1.961 1_545 S
Li90 N135 1.990 . S
Li90 O148 1.961 1_565 S
Li90 O150 1.956 . S
Li90 O151 1.970 . S
Li91 N141 1.990 . S
Li91 O149 1.961 . S
Li91 O150 1.970 1_545 S
Li91 O151 1.956 1_545 S
C92 C94 1.348 . S
C92 C95 1.356 1_545 S
C92 O148 1.325 . S
N93 C96 1.314 . S
N93 C97 1.279 1_545 S
C94 C92 1.348 . S
C94 C96 1.353 . S
C94 H152 0.929 . S
C95 C92 1.356 1_565 S
C95 C97 1.358 . S
C95 H153 0.930 . S
C96 N93 1.314 . S
C96 C94 1.353 . S
C96 H154 0.930 . S
C97 N93 1.279 1_565 S
C97 C95 1.358 . S
C97 H155 0.930 . S
C98 C101 1.348 . S
C98 C102 1.356 . S
C98 O149 1.325 . S
C99 N100 1.279 . S
C99 C102 1.358 . S
C99 H156 0.930 . S
N100 C99 1.279 . S
N100 C103 1.314 . S
C101 C98 1.348 . S
C101 C103 1.353 . S
C101 H157 0.929 . S
C102 C98 1.356 . S
C102 C99 1.358 . S
C102 H158 0.930 . S
C103 N100 1.314 . S
C103 C101 1.353 . S
C103 H159 0.930 . S
C104 N105 1.314 . S
C104 C109 1.353 . S
C104 H110 0.930 . S
N105 Li88 1.990 . S
N105 C104 1.314 . S
N105 C107 1.279 . S
C106 C107 1.358 . S
C106 C108 1.356 . S
C106 H160 0.930 . S
C107 N105 1.279 . S
C107 C106 1.358 . S
C107 H111 0.930 . S
C108 C106 1.356 . S
C108 C109 1.348 . S
C109 C104 1.353 . S
C109 C108 1.348 . S
C109 H161 0.929 . S
H110 C104 0.930 . S
H111 C107 0.930 . S
C112 N113 1.314 . S
C112 C114 1.353 . S
C112 H118 0.930 . S
N113 Li89 1.990 . S
N113 C112 1.314 . S
N113 C116 1.279 . S
C114 C112 1.353 . S
C114 C117 1.348 . S
C114 H162 0.929 . S
C115 C116 1.358 . S
C115 C117 1.356 . S
C115 H163 0.930 . S
C116 N113 1.279 . S
C116 C115 1.358 . S
C116 H119 0.930 . S
C117 C114 1.348 . S
C117 C115 1.356 . S
H118 C112 0.930 . S
H119 C116 0.930 . S
C120 C122 1.348 . S
C120 C123 1.356 . S
C120 O150 1.325 . S
N121 C124 1.314 . S
N121 C125 1.279 . S
C122 C120 1.348 . S
C122 C124 1.353 . S
C122 H164 0.929 . S
C123 C120 1.356 . S
C123 C125 1.358 . S
C123 H165 0.930 . S
C124 N121 1.314 . S
C124 C122 1.353 . S
C124 H166 0.930 . S
C125 N121 1.279 . S
C125 C123 1.358 . S
C125 H167 0.930 . S
C126 C127 1.348 . S
C126 C128 1.356 1_565 S
C126 O151 1.325 . S
C127 C126 1.348 . S
C127 C129 1.353 . S
C127 H168 0.929 . S
C128 C126 1.356 1_545 S
C128 C130 1.358 . S
C128 H169 0.930 . S
C129 C127 1.353 . S
C129 N131 1.314 . S
C129 H170 0.930 . S
C130 C128 1.358 . S
C130 N131 1.279 1_545 S
C130 H171 0.930 . S
N131 C129 1.314 . S
N131 C130 1.279 1_565 S
C132 C134 1.353 . S
C132 N135 1.314 . S
C132 H138 0.930 . S
C133 N135 1.279 . S
C133 C136 1.358 . S
C133 H139 0.930 . S
C134 C132 1.353 . S
C134 C137 1.348 . S
C134 H172 0.929 . S
N135 Li90 1.990 . S
N135 C132 1.314 . S
N135 C133 1.279 . S
C136 C133 1.358 . S
C136 C137 1.356 . S
C136 H173 0.930 . S
C137 C134 1.348 . S
C137 C136 1.356 . S
H138 C132 0.930 . S
H139 C133 0.930 . S
C140 N141 1.314 . S
C140 C142 1.353 . S
C140 H146 0.930 . S
N141 Li91 1.990 . S
N141 C140 1.314 . S
N141 C144 1.279 1_545 S
C142 C140 1.353 . S
C142 C145 1.348 1_545 S
C142 H174 0.929 . S
C143 C144 1.358 . S
C143 C145 1.356 . S
C143 H175 0.930 . S
C144 N141 1.279 1_565 S
C144 C143 1.358 . S
C144 H147 0.930 . S
C145 C142 1.348 1_565 S
C145 C143 1.356 . S
H146 C140 0.930 . S
H147 C144 0.930 . S
O148 Li88 1.956 . S
O148 Li89 1.970 . S
O148 Li90 1.961 1_545 S
O148 C92 1.325 . S
O149 Li88 1.970 . S
O149 Li89 1.956 . S
O149 Li91 1.961 . S
O149 C98 1.325 . S
O150 Li88 1.961 1_565 S
O150 Li90 1.956 . S
O150 Li91 1.970 1_565 S
O150 C120 1.325 . S
O151 Li89 1.961 1_565 S
O151 Li90 1.970 . S
O151 Li91 1.956 1_565 S
O151 C126 1.325 . S
H152 C94 0.929 . S
H153 C95 0.930 . S
H154 C96 0.930 . S
H155 C97 0.930 . S
H156 C99 0.930 . S
H157 C101 0.929 . S
H158 C102 0.930 . S
H159 C103 0.930 . S
H160 C106 0.930 . S
H161 C109 0.929 . S
H162 C114 0.929 . S
H163 C115 0.930 . S
H164 C122 0.929 . S
H165 C123 0.930 . S
H166 C124 0.930 . S
H167 C125 0.930 . S
H168 C127 0.929 . S
H169 C128 0.930 . S
H170 C129 0.930 . S
H171 C130 0.930 . S
H172 C134 0.929 . S
H173 C136 0.930 . S
H174 C142 0.929 . S
H175 C143 0.930 . S
Li176 N193 1.990 . S
Li176 O236 1.956 1_655 S
Li176 O237 1.970 . S
Li176 O238 1.961 . S
Li177 N201 1.990 . S
Li177 O236 1.970 1_655 S
Li177 O237 1.956 . S
Li177 O239 1.961 1_655 S
Li178 N223 1.990 . S
Li178 O236 1.961 . S
Li178 O238 1.956 1_455 S
Li178 O239 1.970 . S
Li179 N229 1.990 . S
Li179 O237 1.961 . S
Li179 O238 1.970 . S
Li179 O239 1.956 1_655 S
C180 C182 1.348 . S
C180 C183 1.356 . S
C180 O236 1.325 . S
N181 C184 1.314 . S
N181 C185 1.279 . S
C182 C180 1.348 . S
C182 C184 1.353 . S
C182 H240 0.929 1_455 S
C183 C180 1.356 . S
C183 C185 1.358 . S
C183 H241 0.930 . S
C184 N181 1.314 . S
C184 C182 1.353 . S
C184 H242 0.930 . S
C185 N181 1.279 . S
C185 C183 1.358 . S
C185 H243 0.930 . S
C186 C189 1.348 . S
C186 C190 1.356 . S
C186 O237 1.325 . S
C187 N188 1.279 . S
C187 C190 1.358 . S
C187 H244 0.930 . S
N188 C187 1.279 . S
N188 C191 1.314 . S
C189 C186 1.348 . S
C189 C191 1.353 . S
C189 H245 0.929 . S
C190 C186 1.356 . S
C190 C187 1.358 . S
C190 H246 0.930 . S
C191 N188 1.314 . S
C191 C189 1.353 . S
C191 H247 0.930 . S
C192 N193 1.314 . S
C192 C197 1.353 . S
C192 H198 0.930 . S
N193 Li176 1.990 . S
N193 C192 1.314 . S
N193 C195 1.279 . S
C194 C195 1.358 . S
C194 C196 1.356 . S
C194 H248 0.930 . S
C195 N193 1.279 . S
C195 C194 1.358 . S
C195 H199 0.930 . S
C196 C194 1.356 . S
C196 C197 1.348 . S
C197 C192 1.353 . S
C197 C196 1.348 . S
C197 H249 0.929 . S
H198 C192 0.930 . S
H199 C195 0.930 . S
C200 N201 1.314 1_455 S
C200 C202 1.353 . S
C200 H206 0.930 . S
N201 Li177 1.990 . S
N201 C200 1.314 1_655 S
N201 C204 1.279 . S
C202 C200 1.353 . S
C202 C205 1.348 . S
C202 H250 0.929 . S
C203 C204 1.358 . S
C203 C205 1.356 1_655 S
C203 H251 0.930 . S
C204 N201 1.279 . S
C204 C203 1.358 . S
C204 H207 0.930 . S
C205 C202 1.348 . S
C205 C203 1.356 1_455 S
H206 C200 0.930 . S
H207 C204 0.930 . S
C208 C210 1.348 . S
C208 C211 1.356 . S
C208 O238 1.325 . S
N209 C212 1.314 . S
N209 C213 1.279 . S
C210 C208 1.348 . S
C210 C212 1.353 . S
C210 H252 0.930 1_655 S
C211 C208 1.356 . S
C211 C213 1.358 . S
C211 H253 0.930 . S
C212 N209 1.314 . S
C212 C210 1.353 . S
C212 H254 0.930 . S
C213 N209 1.279 . S
C213 C211 1.358 . S
C213 H255 0.930 . S
C214 C215 1.348 . S
C214 C216 1.356 . S
C214 O239 1.325 . S
C215 C214 1.348 . S
C215 C217 1.353 . S
C215 H256 0.929 . S
C216 C214 1.356 . S
C216 C218 1.358 . S
C216 H257 0.930 . S
C217 C215 1.353 . S
C217 N219 1.314 . S
C217 H258 0.930 . S
C218 C216 1.358 . S
C218 N219 1.279 . S
C218 H259 0.930 . S
N219 C217 1.314 . S
N219 C218 1.279 . S
C220 C222 1.353 . S
C220 N223 1.314 . S
C220 H226 0.930 . S
C221 N223 1.279 . S
C221 C224 1.358 . S
C221 H227 0.930 . S
C222 C220 1.353 . S
C222 C225 1.348 . S
C222 H260 0.929 . S
N223 Li178 1.990 . S
N223 C220 1.314 . S
N223 C221 1.279 . S
C224 C221 1.358 . S
C224 C225 1.356 . S
C224 H261 0.930 . S
C225 C222 1.348 . S
C225 C224 1.356 . S
H226 C220 0.930 . S
H227 C221 0.930 . S
C228 N229 1.314 . S
C228 C230 1.353 . S
C228 H234 0.930 . S
N229 Li179 1.990 . S
N229 C228 1.314 . S
N229 C232 1.279 1_655 S
C230 C228 1.353 . S
C230 C233 1.348 . S
C230 H262 0.929 . S
C231 C232 1.358 1_655 S
C231 C233 1.356 . S
C231 H263 0.930 1_655 S
C232 N229 1.279 1_455 S
C232 C231 1.358 1_455 S
C232 H235 0.930 . S
C233 C230 1.348 . S
C233 C231 1.356 . S
H234 C228 0.930 . S
H235 C232 0.930 . S
O236 Li176 1.956 1_455 S
O236 Li177 1.970 1_455 S
O236 Li178 1.961 . S
O236 C180 1.325 . S
O237 Li176 1.970 . S
O237 Li177 1.956 . S
O237 Li179 1.961 . S
O237 C186 1.325 . S
O238 Li176 1.961 . S
O238 Li178 1.956 1_655 S
O238 Li179 1.970 . S
O238 C208 1.325 . S
O239 Li177 1.961 1_455 S
O239 Li178 1.970 . S
O239 Li179 1.956 1_455 S
O239 C214 1.325 . S
H240 C182 0.929 1_655 S
H241 C183 0.930 . S
H242 C184 0.930 . S
H243 C185 0.930 . S
H244 C187 0.930 . S
H245 C189 0.929 . S
H246 C190 0.930 . S
H247 C191 0.930 . S
H248 C194 0.930 . S
H249 C197 0.929 . S
H250 C202 0.929 . S
H251 C203 0.930 . S
H252 C210 0.930 1_455 S
H253 C211 0.930 . S
H254 C212 0.930 . S
H255 C213 0.930 . S
H256 C215 0.929 . S
H257 C216 0.930 . S
H258 C217 0.930 . S
H259 C218 0.930 . S
H260 C222 0.929 . S
H261 C224 0.930 . S
H262 C230 0.929 . S
H263 C231 0.930 1_455 S
Li264 N281 1.990 . S
Li264 O324 1.956 1_565 S
Li264 O325 1.970 1_565 S
Li264 O326 1.961 . S
Li265 N289 1.990 . S
Li265 O324 1.970 . S
Li265 O325 1.956 . S
Li265 O327 1.961 1_545 S
Li266 N311 1.990 . S
Li266 O324 1.961 1_565 S
Li266 O326 1.956 . S
Li266 O327 1.970 . S
Li267 N317 1.990 . S
Li267 O325 1.961 1_565 S
Li267 O326 1.970 . S
Li267 O327 1.956 . S
C268 C270 1.348 . S
C268 C271 1.356 1_545 S
C268 O324 1.325 . S
N269 C272 1.314 . S
N269 C273 1.279 1_545 S
C270 C268 1.348 . S
C270 C272 1.353 . S
C270 H328 0.929 . S
C271 C268 1.356 1_565 S
C271 C273 1.358 . S
C271 H329 0.930 . S
C272 N269 1.314 . S
C272 C270 1.353 . S
C272 H330 0.930 . S
C273 N269 1.279 1_565 S
C273 C271 1.358 . S
C273 H331 0.930 . S
C274 C277 1.348 . S
C274 C278 1.356 . S
C274 O325 1.325 . S
C275 N276 1.279 . S
C275 C278 1.358 . S
C275 H332 0.930 . S
N276 C275 1.279 . S
N276 C279 1.314 . S
C277 C274 1.348 . S
C277 C279 1.353 . S
C277 H333 0.929 . S
C278 C274 1.356 . S
C278 C275 1.358 . S
C278 H334 0.930 . S
C279 N276 1.314 . S
C279 C277 1.353 . S
C279 H335 0.930 . S
C280 N281 1.314 . S
C280 C285 1.353 . S
C280 H286 0.930 . S
N281 Li264 1.990 . S
N281 C280 1.314 . S
N281 C283 1.279 1_565 S
C282 C283 1.358 . S
C282 C284 1.356 . S
C282 H336 0.930 . S
C283 N281 1.279 1_545 S
C283 C282 1.358 . S
C283 H287 0.930 . S
C284 C282 1.356 . S
C284 C285 1.348 1_545 S
C285 C280 1.353 . S
C285 C284 1.348 1_565 S
C285 H337 0.929 . S
H286 C280 0.930 . S
H287 C283 0.930 . S
C288 N289 1.314 . S
C288 C290 1.353 . S
C288 H294 0.930 . S
N289 Li265 1.990 . S
N289 C288 1.314 . S
N289 C292 1.279 . S
C290 C288 1.353 . S
C290 C293 1.348 . S
C290 H338 0.929 . S
C291 C292 1.358 . S
C291 C293 1.356 . S
C291 H339 0.930 . S
C292 N289 1.279 . S
C292 C291 1.358 . S
C292 H295 0.930 . S
C293 C290 1.348 . S
C293 C291 1.356 . S
H294 C288 0.930 . S
H295 C292 0.930 . S
C296 C298 1.348 . S
C296 C299 1.356 . S
C296 O326 1.325 . S
N297 C300 1.314 . S
N297 C301 1.279 . S
C298 C296 1.348 . S
C298 C300 1.353 . S
C298 H340 0.929 . S
C299 C296 1.356 . S
C299 C301 1.358 . S
C299 H341 0.930 . S
C300 N297 1.314 . S
C300 C298 1.353 . S
C300 H342 0.930 . S
C301 N297 1.279 . S
C301 C299 1.358 . S
C301 H343 0.930 . S
C302 C303 1.348 . S
C302 C304 1.356 1_565 S
C302 O327 1.325 . S
C303 C302 1.348 . S
C303 C305 1.353 . S
C303 H344 0.929 . S
C304 C302 1.356 1_545 S
C304 C306 1.358 . S
C304 H345 0.930 . S
C305 C303 1.353 . S
C305 N307 1.314 . S
C305 H346 0.930 . S
C306 C304 1.358 . S
C306 N307 1.279 1_545 S
C306 H347 0.930 . S
N307 C305 1.314 . S
N307 C306 1.279 1_565 S
C308 C310 1.353 . S
C308 N311 1.314 . S
C308 H314 0.930 . S
C309 N311 1.279 . S
C309 C312 1.358 . S
C309 H315 0.930 . S
C310 C308 1.353 . S
C310 C313 1.348 . S
C310 H348 0.929 . S
N311 Li266 1.990 . S
N311 C308 1.314 . S
N311 C309 1.279 . S
C312 C309 1.358 . S
C312 C313 1.356 . S
C312 H349 0.930 . S
C313 C310 1.348 . S
C313 C312 1.356 . S
H314 C308 0.930 . S
H315 C309 0.930 . S
C316 N317 1.314 . S
C316 C318 1.353 . S
C316 H322 0.930 . S
N317 Li267 1.990 . S
N317 C316 1.314 . S
N317 C320 1.279 . S
C318 C316 1.353 . S
C318 C321 1.348 . S
C318 H350 0.929 . S
C319 C320 1.358 . S
C319 C321 1.356 . S
C319 H351 0.930 . S
C320 N317 1.279 . S
C320 C319 1.358 . S
C320 H323 0.930 . S
C321 C318 1.348 . S
C321 C319 1.356 . S
H322 C316 0.930 . S
H323 C320 0.930 . S
O324 Li264 1.956 1_545 S
O324 Li265 1.970 . S
O324 Li266 1.961 1_545 S
O324 C268 1.325 . S
O325 Li264 1.970 1_545 S
O325 Li265 1.956 . S
O325 Li267 1.961 1_545 S
O325 C274 1.325 . S
O326 Li264 1.961 . S
O326 Li266 1.956 . S
O326 Li267 1.970 . S
O326 C296 1.325 . S
O327 Li265 1.961 1_565 S
O327 Li266 1.970 . S
O327 Li267 1.956 . S
O327 C302 1.325 . S
H328 C270 0.929 . S
H329 C271 0.930 . S
H330 C272 0.930 . S
H331 C273 0.930 . S
H332 C275 0.930 . S
H333 C277 0.929 . S
H334 C278 0.930 . S
H335 C279 0.930 . S
H336 C282 0.930 . S
H337 C285 0.929 . S
H338 C290 0.929 . S
H339 C291 0.930 . S
H340 C298 0.929 . S
H341 C299 0.930 . S
H342 C300 0.930 . S
H343 C301 0.930 . S
H344 C303 0.929 . S
H345 C304 0.930 . S
H346 C305 0.930 . S
H347 C306 0.930 . S
H348 C310 0.929 . S
H349 C312 0.930 . S
H350 C318 0.929 . S
H351 C319 0.930 . S
Li352 N369 1.990 . S
Li352 O412 1.956 1_455 S
Li352 O413 1.970 . S
Li352 O414 1.961 . S
Li353 N377 1.990 . S
Li353 O412 1.970 . S
Li353 O413 1.956 1_655 S
Li353 O415 1.961 . S
Li354 N399 1.990 . S
Li354 O412 1.961 1_455 S
Li354 O414 1.956 . S
Li354 O415 1.970 1_455 S
Li355 N405 1.990 . S
Li355 O413 1.961 . S
Li355 O414 1.970 . S
Li355 O415 1.956 1_455 S
C356 C358 1.348 . S
C356 C359 1.356 . S
C356 O412 1.325 . S
N357 C360 1.314 . S
N357 C361 1.279 . S
C358 C356 1.348 . S
C358 C360 1.353 . S
C358 H416 0.929 . S
C359 C356 1.356 . S
C359 C361 1.358 . S
C359 H417 0.930 . S
C360 N357 1.314 . S
C360 C358 1.353 . S
C360 H418 0.930 . S
C361 N357 1.279 . S
C361 C359 1.358 . S
C361 H419 0.930 . S
C362 C365 1.348 . S
C362 C366 1.356 . S
C362 O413 1.325 . S
C363 N364 1.279 . S
C363 C366 1.358 . S
C363 H420 0.930 . S
N364 C363 1.279 . S
N364 C367 1.314 . S
C365 C362 1.348 . S
C365 C367 1.353 . S
C365 H421 0.930 1_455 S
C366 C362 1.356 . S
C366 C363 1.358 . S
C366 H422 0.930 . S
C367 N364 1.314 . S
C367 C365 1.353 . S
C367 H423 0.930 . S
C368 N369 1.314 . S
C368 C373 1.353 . S
C368 H374 0.930 . S
N369 Li352 1.990 . S
N369 C368 1.314 . S
N369 C371 1.279 1_455 S
C370 C371 1.358 1_455 S
C370 C372 1.356 . S
C370 H424 0.930 1_455 S
C371 N369 1.279 1_655 S
C371 C370 1.358 1_655 S
C371 H375 0.930 . S
C372 C370 1.356 . S
C372 C373 1.348 . S
C373 C368 1.353 . S
C373 C372 1.348 . S
C373 H425 0.929 . S
H374 C368 0.930 . S
H375 C371 0.930 . S
C376 N377 1.314 . S
C376 C378 1.353 . S
C376 H382 0.930 . S
N377 Li353 1.990 . S
N377 C376 1.314 . S
N377 C380 1.279 . S
C378 C376 1.353 . S
C378 C381 1.348 . S
C378 H426 0.929 . S
C379 C380 1.358 . S
C379 C381 1.356 . S
C379 H427 0.930 . S
C380 N377 1.279 . S
C380 C379 1.358 . S
C380 H383 0.930 . S
C381 C378 1.348 . S
C381 C379 1.356 . S
H382 C376 0.930 . S
H383 C380 0.930 . S
C384 C386 1.348 . S
C384 C387 1.356 . S
C384 O414 1.325 . S
N385 C388 1.314 . S
N385 C389 1.279 . S
C386 C384 1.348 . S
C386 C388 1.353 . S
C386 H428 0.929 . S
C387 C384 1.356 . S
C387 C389 1.358 . S
C387 H429 0.930 . S
C388 N385 1.314 . S
C388 C386 1.353 . S
C388 H430 0.930 . S
C389 N385 1.279 . S
C389 C387 1.358 . S
C389 H431 0.930 . S
C390 C391 1.348 . S
C390 C392 1.356 . S
C390 O415 1.325 . S
C391 C390 1.348 . S
C391 C393 1.353 . S
C391 H432 0.929 1_655 S
C392 C390 1.356 . S
C392 C394 1.358 . S
C392 H433 0.930 . S
C393 C391 1.353 . S
C393 N395 1.314 . S
C393 H434 0.930 . S
C394 C392 1.358 . S
C394 N395 1.279 . S
C394 H435 0.930 . S
N395 C393 1.314 . S
N395 C394 1.279 . S
C396 C398 1.353 . S
C396 N399 1.314 1_655 S
C396 H402 0.930 . S
C397 N399 1.279 . S
C397 C400 1.358 . S
C397 H403 0.930 . S
C398 C396 1.353 . S
C398 C401 1.348 . S
C398 H436 0.929 . S
N399 Li354 1.990 . S
N399 C396 1.314 1_455 S
N399 C397 1.279 . S
C400 C397 1.358 . S
C400 C401 1.356 1_455 S
C400 H437 0.930 . S
C401 C398 1.348 . S
C401 C400 1.356 1_655 S
H402 C396 0.930 . S
H403 C397 0.930 . S
C404 N405 1.314 . S
C404 C406 1.353 . S
C404 H410 0.930 . S
N405 Li355 1.990 . S
N405 C404 1.314 . S
N405 C408 1.279 . S
C406 C404 1.353 . S
C406 C409 1.348 . S
C406 H438 0.929 . S
C407 C408 1.358 . S
C407 C409 1.356 . S
C407 H439 0.930 . S
C408 N405 1.279 . S
C408 C407 1.358 . S
C408 H411 0.930 . S
C409 C406 1.348 . S
C409 C407 1.356 . S
H410 C404 0.930 . S
H411 C408 0.930 . S
O412 Li352 1.956 1_655 S
O412 Li353 1.970 . S
O412 Li354 1.961 1_655 S
O412 C356 1.325 . S
O413 Li352 1.970 . S
O413 Li353 1.956 1_455 S
O413 Li355 1.961 . S
O413 C362 1.325 . S
O414 Li352 1.961 . S
O414 Li354 1.956 . S
O414 Li355 1.970 . S
O414 C384 1.325 . S
O415 Li353 1.961 . S
O415 Li354 1.970 1_655 S
O415 Li355 1.956 1_655 S
O415 C390 1.325 . S
H416 C358 0.929 . S
H417 C359 0.930 . S
H418 C360 0.930 . S
H419 C361 0.930 . S
H420 C363 0.930 . S
H421 C365 0.930 1_655 S
H422 C366 0.930 . S
H423 C367 0.930 . S
H424 C370 0.930 1_655 S
H425 C373 0.929 . S
H426 C378 0.929 . S
H427 C379 0.930 . S
H428 C386 0.929 . S
H429 C387 0.930 . S
H430 C388 0.930 . S
H431 C389 0.930 . S
H432 C391 0.929 1_455 S
H433 C392 0.930 . S
H434 C393 0.930 . S
H435 C394 0.930 . S
H436 C398 0.929 . S
H437 C400 0.930 . S
H438 C406 0.929 . S
H439 C407 0.930 . S
Li440 N457 1.990 . S
Li440 O500 1.956 . S
Li440 O501 1.970 . S
Li440 O502 1.961 1_545 S
Li441 N465 1.990 . S
Li441 O500 1.970 . S
Li441 O501 1.956 . S
Li441 O503 1.961 1_545 S
Li442 N487 1.990 . S
Li442 O500 1.961 . S
Li442 O502 1.956 1_545 S
Li442 O503 1.970 1_545 S
Li443 N493 1.990 . S
Li443 O501 1.961 1_565 S
Li443 O502 1.970 . S
Li443 O503 1.956 . S
C444 C446 1.348 . S
C444 C447 1.356 . S
C444 O500 1.325 . S
N445 C448 1.314 . S
N445 C449 1.279 . S
C446 C444 1.348 . S
C446 C448 1.353 . S
C446 H504 0.929 . S
C447 C444 1.356 . S
C447 C449 1.358 . S
C447 H505 0.930 . S
C448 N445 1.314 . S
C448 C446 1.353 . S
C448 H506 0.930 . S
C449 N445 1.279 . S
C449 C447 1.358 . S
C449 H507 0.930 . S
C450 C453 1.348 . S
C450 C454 1.356 1_545 S
C450 O501 1.325 . S
C451 N452 1.279 1_565 S
C451 C454 1.358 . S
C451 H508 0.930 . S
N452 C451 1.279 1_545 S
N452 C455 1.314 . S
C453 C450 1.348 . S
C453 C455 1.353 . S
C453 H509 0.929 . S
C454 C450 1.356 1_565 S
C454 C451 1.358 . S
C454 H510 0.930 . S
C455 N452 1.314 . S
C455 C453 1.353 . S
C455 H511 0.930 . S
C456 N457 1.314 . S
C456 C461 1.353 . S
C456 H462 0.930 . S
N457 Li440 1.990 . S
N457 C456 1.314 . S
N457 C459 1.279 . S
C458 C459 1.358 . S
C458 C460 1.356 . S
C458 H512 0.930 . S
C459 N457 1.279 . S
C459 C458 1.358 . S
C459 H463 0.930 . S
C460 C458 1.356 . S
C460 C461 1.348 . S
C461 C456 1.353 . S
C461 C460 1.348 . S
C461 H513 0.929 . S
H462 C456 0.930 . S
H463 C459 0.930 . S
C464 N465 1.314 . S
C464 C466 1.353 . S
C464 H470 0.930 . S
N465 Li441 1.990 . S
N465 C464 1.314 . S
N465 C468 1.279 . S
C466 C464 1.353 . S
C466 C469 1.348 . S
C466 H514 0.929 . S
C467 C468 1.358 . S
C467 C469 1.356 . S
C467 H515 0.930 . S
C468 N465 1.279 . S
C468 C467 1.358 . S
C468 H471 0.930 . S
C469 C466 1.348 . S
C469 C467 1.356 . S
H470 C464 0.930 . S
H471 C468 0.930 . S
C472 C474 1.348 . S
C472 C475 1.356 1_565 S
C472 O502 1.325 . S
N473 C476 1.314 . S
N473 C477 1.279 1_565 S
C474 C472 1.348 . S
C474 C476 1.353 . S
C474 H516 0.929 . S
C475 C472 1.356 1_545 S
C475 C477 1.358 . S
C475 H517 0.930 . S
C476 N473 1.314 . S
C476 C474 1.353 . S
C476 H518 0.930 . S
C477 N473 1.279 1_545 S
C477 C475 1.358 . S
C477 H519 0.930 . S
C478 C479 1.348 . S
C478 C480 1.356 . S
C478 O503 1.325 . S
C479 C478 1.348 . S
C479 C481 1.353 . S
C479 H520 0.929 . S
C480 C478 1.356 . S
C480 C482 1.358 . S
C480 H521 0.930 . S
C481 C479 1.353 . S
C481 N483 1.314 . S
C481 H522 0.930 . S
C482 C480 1.358 . S
C482 N483 1.279 . S
C482 H523 0.930 . S
N483 C481 1.314 . S
N483 C482 1.279 . S
C484 C486 1.353 . S
C484 N487 1.314 . S
C484 H490 0.930 . S
C485 N487 1.279 1_565 S
C485 C488 1.358 . S
C485 H491 0.930 . S
C486 C484 1.353 . S
C486 C489 1.348 1_545 S
C486 H524 0.929 . S
N487 Li442 1.990 . S
N487 C484 1.314 . S
N487 C485 1.279 1_545 S
C488 C485 1.358 . S
C488 C489 1.356 . S
C488 H525 0.930 . S
C489 C486 1.348 1_565 S
C489 C488 1.356 . S
H490 C484 0.930 . S
H491 C485 0.930 . S
C492 N493 1.314 . S
C492 C494 1.353 . S
C492 H498 0.930 . S
N493 Li443 1.990 . S
N493 C492 1.314 . S
N493 C496 1.279 . S
C494 C492 1.353 . S
C494 C497 1.348 . S
C494 H526 0.929 . S
C495 C496 1.358 . S
C495 C497 1.356 . S
C495 H527 0.930 . S
C496 N493 1.279 . S
C496 C495 1.358 . S
C496 H499 0.930 . S
C497 C494 1.348 . S
C497 C495 1.356 . S
H498 C492 0.930 . S
H499 C496 0.930 . S
O500 Li440 1.956 . S
O500 Li441 1.970 . S
O500 Li442 1.961 . S
O500 C444 1.325 . S
O501 Li440 1.970 . S
O501 Li441 1.956 . S
O501 Li443 1.961 1_545 S
O501 C450 1.325 . S
O502 Li440 1.961 1_565 S
O502 Li442 1.956 1_565 S
O502 Li443 1.970 . S
O502 C472 1.325 . S
O503 Li441 1.961 1_565 S
O503 Li442 1.970 1_565 S
O503 Li443 1.956 . S
O503 C478 1.325 . S
H504 C446 0.929 . S
H505 C447 0.930 . S
H506 C448 0.930 . S
H507 C449 0.930 . S
H508 C451 0.930 . S
H509 C453 0.929 . S
H510 C454 0.930 . S
H511 C455 0.930 . S
H512 C458 0.930 . S
H513 C461 0.929 . S
H514 C466 0.929 . S
H515 C467 0.930 . S
H516 C474 0.929 . S
H517 C475 0.930 . S
H518 C476 0.930 . S
H519 C477 0.930 . S
H520 C479 0.929 . S
H521 C480 0.930 . S
H522 C481 0.930 . S
H523 C482 0.930 . S
H524 C486 0.929 . S
H525 C488 0.930 . S
H526 C494 0.929 . S
H527 C495 0.930 . S
Li528 N545 1.990 . S
Li528 O588 1.956 1_655 S
Li528 O589 1.970 . S
Li528 O590 1.961 . S
Li529 N553 1.990 . S
Li529 O588 1.970 . S
Li529 O589 1.956 1_455 S
Li529 O591 1.961 . S
Li530 N575 1.990 . S
Li530 O588 1.961 1_655 S
Li530 O590 1.956 . S
Li530 O591 1.970 1_655 S
Li531 N581 1.990 . S
Li531 O589 1.961 . S
Li531 O590 1.970 . S
Li531 O591 1.956 1_655 S
C532 C534 1.348 . S
C532 C535 1.356 . S
C532 O588 1.325 . S
N533 C536 1.314 . S
N533 C537 1.279 . S
C534 C532 1.348 . S
C534 C536 1.353 . S
C534 H592 0.929 . S
C535 C532 1.356 . S
C535 C537 1.358 . S
C535 H593 0.930 . S
C536 N533 1.314 . S
C536 C534 1.353 . S
C536 H594 0.930 . S
C537 N533 1.279 . S
C537 C535 1.358 . S
C537 H595 0.930 . S
C538 C541 1.348 . S
C538 C542 1.356 . S
C538 O589 1.325 . S
C539 N540 1.279 . S
C539 C542 1.358 . S
C539 H596 0.930 . S
N540 C539 1.279 . S
N540 C543 1.314 . S
C541 C538 1.348 . S
C541 C543 1.353 . S
C541 H597 0.930 1_655 S
C542 C538 1.356 . S
C542 C539 1.358 . S
C542 H598 0.930 . S
C543 N540 1.314 . S
C543 C541 1.353 . S
C543 H599 0.930 . S
C544 N545 1.314 . S
C544 C549 1.353 . S
C544 H550 0.930 . S
N545 Li528 1.990 . S
N545 C544 1.314 . S
N545 C547 1.279 1_655 S
C546 C547 1.358 1_655 S
C546 C548 1.356 . S
C546 H600 0.930 1_655 S
C547 N545 1.279 1_455 S
C547 C546 1.358 1_455 S
C547 H551 0.930 . S
C548 C546 1.356 . S
C548 C549 1.348 . S
C549 C544 1.353 . S
C549 C548 1.348 . S
C549 H601 0.929 . S
H550 C544 0.930 . S
H551 C547 0.930 . S
C552 N553 1.314 . S
C552 C554 1.353 . S
C552 H558 0.930 . S
N553 Li529 1.990 . S
N553 C552 1.314 . S
N553 C556 1.279 . S
C554 C552 1.353 . S
C554 C557 1.348 . S
C554 H602 0.929 . S
C555 C556 1.358 . S
C555 C557 1.356 . S
C555 H603 0.930 . S
C556 N553 1.279 . S
C556 C555 1.358 . S
C556 H559 0.930 . S
C557 C554 1.348 . S
C557 C555 1.356 . S
H558 C552 0.930 . S
H559 C556 0.930 . S
C560 C562 1.348 . S
C560 C563 1.356 . S
C560 O590 1.325 . S
N561 C564 1.314 . S
N561 C565 1.279 . S
C562 C560 1.348 . S
C562 C564 1.353 . S
C562 H604 0.929 . S
C563 C560 1.356 . S
C563 C565 1.358 . S
C563 H605 0.930 . S
C564 N561 1.314 . S
C564 C562 1.353 . S
C564 H606 0.930 . S
C565 N561 1.279 . S
C565 C563 1.358 . S
C565 H607 0.930 . S
C566 C567 1.348 . S
C566 C568 1.356 . S
C566 O591 1.325 . S
C567 C566 1.348 . S
C567 C569 1.353 . S
C567 H608 0.929 1_455 S
C568 C566 1.356 . S
C568 C570 1.358 . S
C568 H609 0.930 . S
C569 C567 1.353 . S
C569 N571 1.314 . S
C569 H610 0.930 . S
C570 C568 1.358 . S
C570 N571 1.279 . S
C570 H611 0.930 . S
N571 C569 1.314 . S
N571 C570 1.279 . S
C572 C574 1.353 . S
C572 N575 1.314 1_455 S
C572 H578 0.930 . S
C573 N575 1.279 . S
C573 C576 1.358 . S
C573 H579 0.930 . S
C574 C572 1.353 . S
C574 C577 1.348 . S
C574 H612 0.929 . S
N575 Li530 1.990 . S
N575 C572 1.314 1_655 S
N575 C573 1.279 . S
C576 C573 1.358 . S
C576 C577 1.356 1_655 S
C576 H613 0.930 . S
C577 C574 1.348 . S
C577 C576 1.356 1_455 S
H578 C572 0.930 . S
H579 C573 0.930 . S
C580 N581 1.314 . S
C580 C582 1.353 . S
C580 H586 0.930 . S
N581 Li531 1.990 . S
N581 C580 1.314 . S
N581 C584 1.279 . S
C582 C580 1.353 . S
C582 C585 1.348 . S
C582 H614 0.929 . S
C583 C584 1.358 . S
C583 C585 1.356 . S
C583 H615 0.930 . S
C584 N581 1.279 . S
C584 C583 1.358 . S
C584 H587 0.930 . S
C585 C582 1.348 . S
C585 C583 1.356 . S
H586 C580 0.930 . S
H587 C584 0.930 . S
O588 Li528 1.956 1_455 S
O588 Li529 1.970 . S
O588 Li530 1.961 1_455 S
O588 C532 1.325 . S
O589 Li528 1.970 . S
O589 Li529 1.956 1_655 S
O589 Li531 1.961 . S
O589 C538 1.325 . S
O590 Li528 1.961 . S
O590 Li530 1.956 . S
O590 Li531 1.970 . S
O590 C560 1.325 . S
O591 Li529 1.961 . S
O591 Li530 1.970 1_455 S
O591 Li531 1.956 1_455 S
O591 C566 1.325 . S
H592 C534 0.929 . S
H593 C535 0.930 . S
H594 C536 0.930 . S
H595 C537 0.930 . S
H596 C539 0.930 . S
H597 C541 0.930 1_455 S
H598 C542 0.930 . S
H599 C543 0.930 . S
H600 C546 0.930 1_455 S
H601 C549 0.929 . S
H602 C554 0.929 . S
H603 C555 0.930 . S
H604 C562 0.929 . S
H605 C563 0.930 . S
H606 C564 0.930 . S
H607 C565 0.930 . S
H608 C567 0.929 1_655 S
H609 C568 0.930 . S
H610 C569 0.930 . S
H611 C570 0.930 . S
H612 C574 0.929 . S
H613 C576 0.930 . S
H614 C582 0.929 . S
H615 C583 0.930 . S
Li616 N633 1.990 . S
Li616 O676 1.956 . S
Li616 O677 1.970 . S
Li616 O678 1.961 1_545 S
Li617 N641 1.990 . S
Li617 O676 1.970 1_565 S
Li617 O677 1.956 1_565 S
Li617 O679 1.961 . S
Li618 N663 1.990 . S
Li618 O676 1.961 1_565 S
Li618 O678 1.956 . S
Li618 O679 1.970 . S
Li619 N669 1.990 . S
Li619 O677 1.961 1_565 S
Li619 O678 1.970 . S
Li619 O679 1.956 . S
C620 C622 1.348 . S
C620 C623 1.356 . S
C620 O676 1.325 . S
N621 C624 1.314 . S
N621 C625 1.279 . S
C622 C620 1.348 . S
C622 C624 1.353 . S
C622 H680 0.929 . S
C623 C620 1.356 . S
C623 C625 1.358 . S
C623 H681 0.930 . S
C624 N621 1.314 . S
C624 C622 1.353 . S
C624 H682 0.930 . S
C625 N621 1.279 . S
C625 C623 1.358 . S
C625 H683 0.930 . S
C626 C629 1.348 . S
C626 C630 1.356 1_545 S
C626 O677 1.325 . S
C627 N628 1.279 1_565 S
C627 C630 1.358 . S
C627 H684 0.930 . S
N628 C627 1.279 1_545 S
N628 C631 1.314 . S
C629 C626 1.348 . S
C629 C631 1.353 . S
C629 H685 0.929 . S
C630 C626 1.356 1_565 S
C630 C627 1.358 . S
C630 H686 0.930 . S
C631 N628 1.314 . S
C631 C629 1.353 . S
C631 H687 0.930 . S
C632 N633 1.314 . S
C632 C637 1.353 . S
C632 H638 0.930 . S
N633 Li616 1.990 . S
N633 C632 1.314 . S
N633 C635 1.279 . S
C634 C635 1.358 . S
C634 C636 1.356 . S
C634 H688 0.930 . S
C635 N633 1.279 . S
C635 C634 1.358 . S
C635 H639 0.930 . S
C636 C634 1.356 . S
C636 C637 1.348 . S
C637 C632 1.353 . S
C637 C636 1.348 . S
C637 H689 0.929 . S
H638 C632 0.930 . S
H639 C635 0.930 . S
C640 N641 1.314 . S
C640 C642 1.353 . S
C640 H646 0.930 . S
N641 Li617 1.990 . S
N641 C640 1.314 . S
N641 C644 1.279 1_565 S
C642 C640 1.353 . S
C642 C645 1.348 1_565 S
C642 H690 0.929 . S
C643 C644 1.358 . S
C643 C645 1.356 . S
C643 H691 0.930 . S
C644 N641 1.279 1_545 S
C644 C643 1.358 . S
C644 H647 0.930 . S
C645 C642 1.348 1_545 S
C645 C643 1.356 . S
H646 C640 0.930 . S
H647 C644 0.930 . S
C648 C650 1.348 . S
C648 C651 1.356 1_565 S
C648 O678 1.325 . S
N649 C652 1.314 . S
N649 C653 1.279 1_565 S
C650 C648 1.348 . S
C650 C652 1.353 . S
C650 H692 0.929 . S
C651 C648 1.356 1_545 S
C651 C653 1.358 . S
C651 H693 0.930 . S
C652 N649 1.314 . S
C652 C650 1.353 . S
C652 H694 0.930 . S
C653 N649 1.279 1_545 S
C653 C651 1.358 . S
C653 H695 0.930 . S
C654 C655 1.348 . S
C654 C656 1.356 . S
C654 O679 1.325 . S
C655 C654 1.348 . S
C655 C657 1.353 . S
C655 H696 0.929 . S
C656 C654 1.356 . S
C656 C658 1.358 . S
C656 H697 0.930 . S
C657 C655 1.353 . S
C657 N659 1.314 . S
C657 H698 0.930 . S
C658 C656 1.358 . S
C658 N659 1.279 . S
C658 H699 0.930 . S
N659 C657 1.314 . S
N659 C658 1.279 . S
C660 C662 1.353 . S
C660 N663 1.314 . S
C660 H666 0.930 . S
C661 N663 1.279 . S
C661 C664 1.358 . S
C661 H667 0.930 . S
C662 C660 1.353 . S
C662 C665 1.348 . S
C662 H700 0.929 . S
N663 Li618 1.990 . S
N663 C660 1.314 . S
N663 C661 1.279 . S
C664 C661 1.358 . S
C664 C665 1.356 . S
C664 H701 0.930 . S
C665 C662 1.348 . S
C665 C664 1.356 . S
H666 C660 0.930 . S
H667 C661 0.930 . S
C668 N669 1.314 . S
C668 C670 1.353 . S
C668 H674 0.930 . S
N669 Li619 1.990 . S
N669 C668 1.314 . S
N669 C672 1.279 . S
C670 C668 1.353 . S
C670 C673 1.348 . S
C670 H702 0.929 . S
C671 C672 1.358 . S
C671 C673 1.356 . S
C671 H703 0.930 . S
C672 N669 1.279 . S
C672 C671 1.358 . S
C672 H675 0.930 . S
C673 C670 1.348 . S
C673 C671 1.356 . S
H674 C668 0.930 . S
H675 C672 0.930 . S
O676 Li616 1.956 . S
O676 Li617 1.970 1_545 S
O676 Li618 1.961 1_545 S
O676 C620 1.325 . S
O677 Li616 1.970 . S
O677 Li617 1.956 1_545 S
O677 Li619 1.961 1_545 S
O677 C626 1.325 . S
O678 Li616 1.961 1_565 S
O678 Li618 1.956 . S
O678 Li619 1.970 . S
O678 C648 1.325 . S
O679 Li617 1.961 . S
O679 Li618 1.970 . S
O679 Li619 1.956 . S
O679 C654 1.325 . S
H680 C622 0.929 . S
H681 C623 0.930 . S
H682 C624 0.930 . S
H683 C625 0.930 . S
H684 C627 0.930 . S
H685 C629 0.929 . S
H686 C630 0.930 . S
H687 C631 0.930 . S
H688 C634 0.930 . S
H689 C637 0.929 . S
H690 C642 0.929 . S
H691 C643 0.930 . S
H692 C650 0.929 . S
H693 C651 0.930 . S
H694 C652 0.930 . S
H695 C653 0.930 . S
H696 C655 0.929 . S
H697 C656 0.930 . S
H698 C657 0.930 . S
H699 C658 0.930 . S
H700 C662 0.929 . S
H701 C664 0.930 . S
H702 C670 0.929 . S
H703 C671 0.930 . S
Li704 N721 1.990 . S
Li704 O764 1.956 . S
Li704 O765 1.970 . S
Li704 O766 1.961 . S
Li705 N729 1.990 . S
Li705 O764 1.970 . S
Li705 O765 1.956 . S
Li705 O767 1.961 . S
Li706 N751 1.990 . S
Li706 O764 1.961 . S
Li706 O766 1.956 . S
Li706 O767 1.970 . S
Li707 N757 1.990 . S
Li707 O765 1.961 . S
Li707 O766 1.970 . S
Li707 O767 1.956 . S
C708 C710 1.348 . S
C708 C711 1.356 . S
C708 O764 1.325 . S
N709 C712 1.314 . S
N709 C713 1.279 . S
C710 C708 1.348 . S
C710 C712 1.353 . S
C710 H768 0.929 . S
C711 C708 1.356 . S
C711 C713 1.358 . S
C711 H769 0.930 . S
C712 N709 1.314 . S
C712 C710 1.353 . S
C712 H770 0.930 . S
C713 N709 1.279 . S
C713 C711 1.358 . S
C713 H771 0.930 . S
C714 C717 1.348 . S
C714 C718 1.356 . S
C714 O765 1.325 . S
C715 N716 1.279 . S
C715 C718 1.358 . S
C715 H772 0.930 . S
N716 C715 1.279 . S
N716 C719 1.314 . S
C717 C714 1.348 . S
C717 C719 1.353 . S
C717 H773 0.929 . S
C718 C714 1.356 . S
C718 C715 1.358 . S
C718 H774 0.930 . S
C719 N716 1.314 . S
C719 C717 1.353 . S
C719 H775 0.930 . S
C720 N721 1.314 . S
C720 C725 1.353 . S
C720 H726 0.930 . S
N721 Li704 1.990 . S
N721 C720 1.314 . S
N721 C723 1.279 . S
C722 C723 1.358 . S
C722 C724 1.356 . S
C722 H776 0.930 . S
C723 N721 1.279 . S
C723 C722 1.358 . S
C723 H727 0.930 . S
C724 C722 1.356 . S
C724 C725 1.348 . S
C725 C720 1.353 . S
C725 C724 1.348 . S
C725 H777 0.929 . S
H726 C720 0.930 . S
H727 C723 0.930 . S
C728 N729 1.314 . S
C728 C730 1.353 . S
C728 H734 0.930 . S
N729 Li705 1.990 . S
N729 C728 1.314 . S
N729 C732 1.279 . S
C730 C728 1.353 . S
C730 C733 1.348 . S
C730 H778 0.929 . S
C731 C732 1.358 . S
C731 C733 1.356 . S
C731 H779 0.930 . S
C732 N729 1.279 . S
C732 C731 1.358 . S
C732 H735 0.930 . S
C733 C730 1.348 . S
C733 C731 1.356 . S
H734 C728 0.930 . S
H735 C732 0.930 . S
C736 C738 1.348 . S
C736 C739 1.356 . S
C736 O766 1.325 . S
N737 C740 1.314 . S
N737 C741 1.279 . S
C738 C736 1.348 . S
C738 C740 1.353 . S
C738 H780 0.929 . S
C739 C736 1.356 . S
C739 C741 1.358 . S
C739 H781 0.930 . S
C740 N737 1.314 . S
C740 C738 1.353 . S
C740 H782 0.930 . S
C741 N737 1.279 . S
C741 C739 1.358 . S
C741 H783 0.930 . S
C742 C743 1.348 . S
C742 C744 1.356 . S
C742 O767 1.325 . S
C743 C742 1.348 . S
C743 C745 1.353 . S
C743 H784 0.929 . S
C744 C742 1.356 . S
C744 C746 1.358 . S
C744 H785 0.930 . S
C745 C743 1.353 . S
C745 N747 1.314 . S
C745 H786 0.930 . S
C746 C744 1.358 . S
C746 N747 1.279 . S
C746 H787 0.930 . S
N747 C745 1.314 . S
N747 C746 1.279 . S
C748 C750 1.353 . S
C748 N751 1.314 . S
C748 H754 0.930 . S
C749 N751 1.279 . S
C749 C752 1.358 . S
C749 H755 0.930 . S
C750 C748 1.353 . S
C750 C753 1.348 . S
C750 H788 0.929 . S
N751 Li706 1.990 . S
N751 C748 1.314 . S
N751 C749 1.279 . S
C752 C749 1.358 . S
C752 C753 1.356 . S
C752 H789 0.930 . S
C753 C750 1.348 . S
C753 C752 1.356 . S
H754 C748 0.930 . S
H755 C749 0.930 . S
C756 N757 1.314 . S
C756 C758 1.353 . S
C756 H762 0.930 . S
N757 Li707 1.990 . S
N757 C756 1.314 . S
N757 C760 1.279 . S
C758 C756 1.353 . S
C758 C761 1.348 . S
C758 H790 0.929 . S
C759 C760 1.358 . S
C759 C761 1.356 . S
C759 H791 0.930 . S
C760 N757 1.279 . S
C760 C759 1.358 . S
C760 H763 0.930 . S
C761 C758 1.348 . S
C761 C759 1.356 . S
H762 C756 0.930 . S
H763 C760 0.930 . S
O764 Li704 1.956 . S
O764 Li705 1.970 . S
O764 Li706 1.961 . S
O764 C708 1.325 . S
O765 Li704 1.970 . S
O765 Li705 1.956 . S
O765 Li707 1.961 . S
O765 C714 1.325 . S
O766 Li704 1.961 . S
O766 Li706 1.956 . S
O766 Li707 1.970 . S
O766 C736 1.325 . S
O767 Li705 1.961 . S
O767 Li706 1.970 . S
O767 Li707 1.956 . S
O767 C742 1.325 . S
H768 C710 0.929 . S
H769 C711 0.930 . S
H770 C712 0.930 . S
H771 C713 0.930 . S
H772 C715 0.930 . S
H773 C717 0.929 . S
H774 C718 0.930 . S
H775 C719 0.930 . S
H776 C722 0.930 . S
H777 C725 0.929 . S
H778 C730 0.929 . S
H779 C731 0.930 . S
H780 C738 0.929 . S
H781 C739 0.930 . S
H782 C740 0.930 . S
H783 C741 0.930 . S
H784 C743 0.929 . S
H785 C744 0.930 . S
H786 C745 0.930 . S
H787 C746 0.930 . S
H788 C750 0.929 . S
H789 C752 0.930 . S
H790 C758 0.929 . S
H791 C759 0.930 . S
Li792 N809 1.990 . S
Li792 O852 1.956 . S
Li792 O853 1.970 . S
Li792 O854 1.961 . S
Li793 N817 1.990 . S
Li793 O852 1.970 . S
Li793 O853 1.956 . S
Li793 O855 1.961 . S
Li794 N839 1.990 . S
Li794 O852 1.961 . S
Li794 O854 1.956 . S
Li794 O855 1.970 . S
Li795 N845 1.990 . S
Li795 O853 1.961 . S
Li795 O854 1.970 . S
Li795 O855 1.956 . S
C796 C798 1.348 . S
C796 C799 1.356 . S
C796 O852 1.325 . S
N797 C800 1.314 . S
N797 C801 1.279 . S
C798 C796 1.348 . S
C798 C800 1.353 . S
C798 H856 0.929 . S
C799 C796 1.356 . S
C799 C801 1.358 . S
C799 H857 0.930 . S
C800 N797 1.314 . S
C800 C798 1.353 . S
C800 H858 0.930 . S
C801 N797 1.279 . S
C801 C799 1.358 . S
C801 H859 0.930 . S
C802 C805 1.348 . S
C802 C806 1.356 . S
C802 O853 1.325 . S
C803 N804 1.279 . S
C803 C806 1.358 . S
C803 H860 0.930 . S
N804 C803 1.279 . S
N804 C807 1.314 . S
C805 C802 1.348 . S
C805 C807 1.353 . S
C805 H861 0.929 . S
C806 C802 1.356 . S
C806 C803 1.358 . S
C806 H862 0.930 . S
C807 N804 1.314 . S
C807 C805 1.353 . S
C807 H863 0.930 . S
C808 N809 1.314 . S
C808 C813 1.353 . S
C808 H814 0.930 . S
N809 Li792 1.990 . S
N809 C808 1.314 . S
N809 C811 1.279 . S
C810 C811 1.358 . S
C810 C812 1.356 . S
C810 H864 0.930 . S
C811 N809 1.279 . S
C811 C810 1.358 . S
C811 H815 0.930 . S
C812 C810 1.356 . S
C812 C813 1.348 . S
C813 C808 1.353 . S
C813 C812 1.348 . S
C813 H865 0.929 . S
H814 C808 0.930 . S
H815 C811 0.930 . S
C816 N817 1.314 . S
C816 C818 1.353 . S
C816 H822 0.930 . S
N817 Li793 1.990 . S
N817 C816 1.314 . S
N817 C820 1.279 . S
C818 C816 1.353 . S
C818 C821 1.348 . S
C818 H866 0.929 . S
C819 C820 1.358 . S
C819 C821 1.356 . S
C819 H867 0.930 . S
C820 N817 1.279 . S
C820 C819 1.358 . S
C820 H823 0.930 . S
C821 C818 1.348 . S
C821 C819 1.356 . S
H822 C816 0.930 . S
H823 C820 0.930 . S
C824 C826 1.348 . S
C824 C827 1.356 . S
C824 O854 1.325 . S
N825 C828 1.314 . S
N825 C829 1.279 . S
C826 C824 1.348 . S
C826 C828 1.353 . S
C826 H868 0.929 . S
C827 C824 1.356 . S
C827 C829 1.358 . S
C827 H869 0.930 . S
C828 N825 1.314 . S
C828 C826 1.353 . S
C828 H870 0.930 . S
C829 N825 1.279 . S
C829 C827 1.358 . S
C829 H871 0.930 . S
C830 C831 1.348 . S
C830 C832 1.356 . S
C830 O855 1.325 . S
C831 C830 1.348 . S
C831 C833 1.353 . S
C831 H872 0.929 . S
C832 C830 1.356 . S
C832 C834 1.358 . S
C832 H873 0.930 . S
C833 C831 1.353 . S
C833 N835 1.314 . S
C833 H874 0.930 . S
C834 C832 1.358 . S
C834 N835 1.279 . S
C834 H875 0.930 . S
N835 C833 1.314 . S
N835 C834 1.279 . S
C836 C838 1.353 . S
C836 N839 1.314 . S
C836 H842 0.930 . S
C837 N839 1.279 . S
C837 C840 1.358 . S
C837 H843 0.930 . S
C838 C836 1.353 . S
C838 C841 1.348 . S
C838 H876 0.929 . S
N839 Li794 1.990 . S
N839 C836 1.314 . S
N839 C837 1.279 . S
C840 C837 1.358 . S
C840 C841 1.356 . S
C840 H877 0.930 . S
C841 C838 1.348 . S
C841 C840 1.356 . S
H842 C836 0.930 . S
H843 C837 0.930 . S
C844 N845 1.314 . S
C844 C846 1.353 . S
C844 H850 0.930 . S
N845 Li795 1.990 . S
N845 C844 1.314 . S
N845 C848 1.279 . S
C846 C844 1.353 . S
C846 C849 1.348 . S
C846 H878 0.929 . S
C847 C848 1.358 . S
C847 C849 1.356 . S
C847 H879 0.930 . S
C848 N845 1.279 . S
C848 C847 1.358 . S
C848 H851 0.930 . S
C849 C846 1.348 . S
C849 C847 1.356 . S
H850 C844 0.930 . S
H851 C848 0.930 . S
O852 Li792 1.956 . S
O852 Li793 1.970 . S
O852 Li794 1.961 . S
O852 C796 1.325 . S
O853 Li792 1.970 . S
O853 Li793 1.956 . S
O853 Li795 1.961 . S
O853 C802 1.325 . S
O854 Li792 1.961 . S
O854 Li794 1.956 . S
O854 Li795 1.970 . S
O854 C824 1.325 . S
O855 Li793 1.961 . S
O855 Li794 1.970 . S
O855 Li795 1.956 . S
O855 C830 1.325 . S
H856 C798 0.929 . S
H857 C799 0.930 . S
H858 C800 0.930 . S
H859 C801 0.930 . S
H860 C803 0.930 . S
H861 C805 0.929 . S
H862 C806 0.930 . S
H863 C807 0.930 . S
H864 C810 0.930 . S
H865 C813 0.929 . S
H866 C818 0.929 . S
H867 C819 0.930 . S
H868 C826 0.929 . S
H869 C827 0.930 . S
H870 C828 0.930 . S
H871 C829 0.930 . S
H872 C831 0.929 . S
H873 C832 0.930 . S
H874 C833 0.930 . S
H875 C834 0.930 . S
H876 C838 0.929 . S
H877 C840 0.930 . S
H878 C846 0.929 . S
H879 C847 0.930 . S
Li880 N897 1.990 . S
Li880 O940 1.956 . S
Li880 O941 1.970 . S
Li880 O942 1.961 . S
Li881 N905 1.990 . S
Li881 O940 1.970 . S
Li881 O941 1.956 . S
Li881 O943 1.961 . S
Li882 N927 1.990 . S
Li882 O940 1.961 . S
Li882 O942 1.956 . S
Li882 O943 1.970 . S
Li883 N933 1.990 . S
Li883 O941 1.961 . S
Li883 O942 1.970 . S
Li883 O943 1.956 . S
C884 C886 1.348 . S
C884 C887 1.356 . S
C884 O940 1.325 . S
N885 C888 1.314 . S
N885 C889 1.279 . S
C886 C884 1.348 . S
C886 C888 1.353 . S
C886 H944 0.929 . S
C887 C884 1.356 . S
C887 C889 1.358 . S
C887 H945 0.930 . S
C888 N885 1.314 . S
C888 C886 1.353 . S
C888 H946 0.930 . S
C889 N885 1.279 . S
C889 C887 1.358 . S
C889 H947 0.930 . S
C890 C893 1.348 . S
C890 C894 1.356 . S
C890 O941 1.325 . S
C891 N892 1.279 . S
C891 C894 1.358 . S
C891 H948 0.930 . S
N892 C891 1.279 . S
N892 C895 1.314 . S
C893 C890 1.348 . S
C893 C895 1.353 . S
C893 H949 0.929 . S
C894 C890 1.356 . S
C894 C891 1.358 . S
C894 H950 0.930 . S
C895 N892 1.314 . S
C895 C893 1.353 . S
C895 H951 0.930 . S
C896 N897 1.314 . S
C896 C901 1.353 . S
C896 H902 0.930 . S
N897 Li880 1.990 . S
N897 C896 1.314 . S
N897 C899 1.279 . S
C898 C899 1.358 . S
C898 C900 1.356 . S
C898 H952 0.930 . S
C899 N897 1.279 . S
C899 C898 1.358 . S
C899 H903 0.930 . S
C900 C898 1.356 . S
C900 C901 1.348 . S
C901 C896 1.353 . S
C901 C900 1.348 . S
C901 H953 0.929 . S
H902 C896 0.930 . S
H903 C899 0.930 . S
C904 N905 1.314 . S
C904 C906 1.353 . S
C904 H910 0.930 . S
N905 Li881 1.990 . S
N905 C904 1.314 . S
N905 C908 1.279 . S
C906 C904 1.353 . S
C906 C909 1.348 . S
C906 H954 0.929 . S
C907 C908 1.358 . S
C907 C909 1.356 . S
C907 H955 0.930 . S
C908 N905 1.279 . S
C908 C907 1.358 . S
C908 H911 0.930 . S
C909 C906 1.348 . S
C909 C907 1.356 . S
H910 C904 0.930 . S
H911 C908 0.930 . S
C912 C914 1.348 . S
C912 C915 1.356 . S
C912 O942 1.325 . S
N913 C916 1.314 . S
N913 C917 1.279 . S
C914 C912 1.348 . S
C914 C916 1.353 . S
C914 H956 0.929 . S
C915 C912 1.356 . S
C915 C917 1.358 . S
C915 H957 0.930 . S
C916 N913 1.314 . S
C916 C914 1.353 . S
C916 H958 0.930 . S
C917 N913 1.279 . S
C917 C915 1.358 . S
C917 H959 0.930 . S
C918 C919 1.348 . S
C918 C920 1.356 . S
C918 O943 1.325 . S
C919 C918 1.348 . S
C919 C921 1.353 . S
C919 H960 0.929 . S
C920 C918 1.356 . S
C920 C922 1.358 . S
C920 H961 0.930 . S
C921 C919 1.353 . S
C921 N923 1.314 . S
C921 H962 0.930 . S
C922 C920 1.358 . S
C922 N923 1.279 . S
C922 H963 0.930 . S
N923 C921 1.314 . S
N923 C922 1.279 . S
C924 C926 1.353 . S
C924 N927 1.314 . S
C924 H930 0.930 . S
C925 N927 1.279 . S
C925 C928 1.358 . S
C925 H931 0.930 . S
C926 C924 1.353 . S
C926 C929 1.348 . S
C926 H964 0.929 . S
N927 Li882 1.990 . S
N927 C924 1.314 . S
N927 C925 1.279 . S
C928 C925 1.358 . S
C928 C929 1.356 . S
C928 H965 0.930 . S
C929 C926 1.348 . S
C929 C928 1.356 . S
H930 C924 0.930 . S
H931 C925 0.930 . S
C932 N933 1.314 . S
C932 C934 1.353 . S
C932 H938 0.930 . S
N933 Li883 1.990 . S
N933 C932 1.314 . S
N933 C936 1.279 . S
C934 C932 1.353 . S
C934 C937 1.348 . S
C934 H966 0.929 . S
C935 C936 1.358 . S
C935 C937 1.356 . S
C935 H967 0.930 . S
C936 N933 1.279 . S
C936 C935 1.358 . S
C936 H939 0.930 . S
C937 C934 1.348 . S
C937 C935 1.356 . S
H938 C932 0.930 . S
H939 C936 0.930 . S
O940 Li880 1.956 . S
O940 Li881 1.970 . S
O940 Li882 1.961 . S
O940 C884 1.325 . S
O941 Li880 1.970 . S
O941 Li881 1.956 . S
O941 Li883 1.961 . S
O941 C890 1.325 . S
O942 Li880 1.961 . S
O942 Li882 1.956 . S
O942 Li883 1.970 . S
O942 C912 1.325 . S
O943 Li881 1.961 . S
O943 Li882 1.970 . S
O943 Li883 1.956 . S
O943 C918 1.325 . S
H944 C886 0.929 . S
H945 C887 0.930 . S
H946 C888 0.930 . S
H947 C889 0.930 . S
H948 C891 0.930 . S
H949 C893 0.929 . S
H950 C894 0.930 . S
H951 C895 0.930 . S
H952 C898 0.930 . S
H953 C901 0.929 . S
H954 C906 0.929 . S
H955 C907 0.930 . S
H956 C914 0.929 . S
H957 C915 0.930 . S
H958 C916 0.930 . S
H959 C917 0.930 . S
H960 C919 0.929 . S
H961 C920 0.930 . S
H962 C921 0.930 . S
H963 C922 0.930 . S
H964 C926 0.929 . S
H965 C928 0.930 . S
H966 C934 0.929 . S
H967 C935 0.930 . S
Li968 N985 1.990 . S
Li968 O1028 1.956 . S
Li968 O1029 1.970 . S
Li968 O1030 1.961 . S
Li969 N993 1.990 . S
Li969 O1028 1.970 . S
Li969 O1029 1.956 . S
Li969 O1031 1.961 . S
Li970 N1015 1.990 . S
Li970 O1028 1.961 . S
Li970 O1030 1.956 . S
Li970 O1031 1.970 . S
Li971 N1021 1.990 . S
Li971 O1029 1.961 . S
Li971 O1030 1.970 . S
Li971 O1031 1.956 . S
C972 C974 1.348 . S
C972 C975 1.356 . S
C972 O1028 1.325 . S
N973 C976 1.314 . S
N973 C977 1.279 . S
C974 C972 1.348 . S
C974 C976 1.353 . S
C974 H1032 0.929 . S
C975 C972 1.356 . S
C975 C977 1.358 . S
C975 H1033 0.930 . S
C976 N973 1.314 . S
C976 C974 1.353 . S
C976 H1034 0.930 . S
C977 N973 1.279 . S
C977 C975 1.358 . S
C977 H1035 0.930 . S
C978 C981 1.348 . S
C978 C982 1.356 . S
C978 O1029 1.325 . S
C979 N980 1.279 . S
C979 C982 1.358 . S
C979 H1036 0.930 . S
N980 C979 1.279 . S
N980 C983 1.314 . S
C981 C978 1.348 . S
C981 C983 1.353 . S
C981 H1037 0.929 . S
C982 C978 1.356 . S
C982 C979 1.358 . S
C982 H1038 0.930 . S
C983 N980 1.314 . S
C983 C981 1.353 . S
C983 H1039 0.930 . S
C984 N985 1.314 . S
C984 C989 1.353 . S
C984 H990 0.930 . S
N985 Li968 1.990 . S
N985 C984 1.314 . S
N985 C987 1.279 . S
C986 C987 1.358 . S
C986 C988 1.356 . S
C986 H1040 0.930 . S
C987 N985 1.279 . S
C987 C986 1.358 . S
C987 H991 0.930 . S
C988 C986 1.356 . S
C988 C989 1.348 . S
C989 C984 1.353 . S
C989 C988 1.348 . S
C989 H1041 0.929 . S
H990 C984 0.930 . S
H991 C987 0.930 . S
C992 N993 1.314 . S
C992 C994 1.353 . S
C992 H998 0.930 . S
N993 Li969 1.990 . S
N993 C992 1.314 . S
N993 C996 1.279 . S
C994 C992 1.353 . S
C994 C997 1.348 . S
C994 H1042 0.929 . S
C995 C996 1.358 . S
C995 C997 1.356 . S
C995 H1043 0.930 . S
C996 N993 1.279 . S
C996 C995 1.358 . S
C996 H999 0.930 . S
C997 C994 1.348 . S
C997 C995 1.356 . S
H998 C992 0.930 . S
H999 C996 0.930 . S
C1000 C1002 1.348 . S
C1000 C1003 1.356 . S
C1000 O1030 1.325 . S
N1001 C1004 1.314 . S
N1001 C1005 1.279 . S
C1002 C1000 1.348 . S
C1002 C1004 1.353 . S
C1002 H1044 0.929 . S
C1003 C1000 1.356 . S
C1003 C1005 1.358 . S
C1003 H1045 0.930 . S
C1004 N1001 1.314 . S
C1004 C1002 1.353 . S
C1004 H1046 0.930 . S
C1005 N1001 1.279 . S
C1005 C1003 1.358 . S
C1005 H1047 0.930 . S
C1006 C1007 1.348 . S
C1006 C1008 1.356 . S
C1006 O1031 1.325 . S
C1007 C1006 1.348 . S
C1007 C1009 1.353 . S
C1007 H1048 0.929 . S
C1008 C1006 1.356 . S
C1008 C1010 1.358 . S
C1008 H1049 0.930 . S
C1009 C1007 1.353 . S
C1009 N1011 1.314 . S
C1009 H1050 0.930 . S
C1010 C1008 1.358 . S
C1010 N1011 1.279 . S
C1010 H1051 0.930 . S
N1011 C1009 1.314 . S
N1011 C1010 1.279 . S
C1012 C1014 1.353 . S
C1012 N1015 1.314 . S
C1012 H1018 0.930 . S
C1013 N1015 1.279 . S
C1013 C1016 1.358 . S
C1013 H1019 0.930 . S
C1014 C1012 1.353 . S
C1014 C1017 1.348 . S
C1014 H1052 0.929 . S
N1015 Li970 1.990 . S
N1015 C1012 1.314 . S
N1015 C1013 1.279 . S
C1016 C1013 1.358 . S
C1016 C1017 1.356 . S
C1016 H1053 0.930 . S
C1017 C1014 1.348 . S
C1017 C1016 1.356 . S
H1018 C1012 0.930 . S
H1019 C1013 0.930 . S
C1020 N1021 1.314 . S
C1020 C1022 1.353 . S
C1020 H1026 0.930 . S
N1021 Li971 1.990 . S
N1021 C1020 1.314 . S
N1021 C1024 1.279 . S
C1022 C1020 1.353 . S
C1022 C1025 1.348 . S
C1022 H1054 0.929 . S
C1023 C1024 1.358 . S
C1023 C1025 1.356 . S
C1023 H1055 0.930 . S
C1024 N1021 1.279 . S
C1024 C1023 1.358 . S
C1024 H1027 0.930 . S
C1025 C1022 1.348 . S
C1025 C1023 1.356 . S
H1026 C1020 0.930 . S
H1027 C1024 0.930 . S
O1028 Li968 1.956 . S
O1028 Li969 1.970 . S
O1028 Li970 1.961 . S
O1028 C972 1.325 . S
O1029 Li968 1.970 . S
O1029 Li969 1.956 . S
O1029 Li971 1.961 . S
O1029 C978 1.325 . S
O1030 Li968 1.961 . S
O1030 Li970 1.956 . S
O1030 Li971 1.970 . S
O1030 C1000 1.325 . S
O1031 Li969 1.961 . S
O1031 Li970 1.970 . S
O1031 Li971 1.956 . S
O1031 C1006 1.325 . S
H1032 C974 0.929 . S
H1033 C975 0.930 . S
H1034 C976 0.930 . S
H1035 C977 0.930 . S
H1036 C979 0.930 . S
H1037 C981 0.929 . S
H1038 C982 0.930 . S
H1039 C983 0.930 . S
H1040 C986 0.930 . S
H1041 C989 0.929 . S
H1042 C994 0.929 . S
H1043 C995 0.930 . S
H1044 C1002 0.929 . S
H1045 C1003 0.930 . S
H1046 C1004 0.930 . S
H1047 C1005 0.930 . S
H1048 C1007 0.929 . S
H1049 C1008 0.930 . S
H1050 C1009 0.930 . S
H1051 C1010 0.930 . S
H1052 C1014 0.929 . S
H1053 C1016 0.930 . S
H1054 C1022 0.929 . S
H1055 C1023 0.930 . S
Li1056 N1073 1.990 . S
Li1056 O1116 1.956 . S
Li1056 O1117 1.970 . S
Li1056 O1118 1.961 . S
Li1057 N1081 1.990 . S
Li1057 O1116 1.970 . S
Li1057 O1117 1.956 . S
Li1057 O1119 1.961 . S
Li1058 N1103 1.990 . S
Li1058 O1116 1.961 . S
Li1058 O1118 1.956 . S
Li1058 O1119 1.970 . S
Li1059 N1109 1.990 . S
Li1059 O1117 1.961 . S
Li1059 O1118 1.970 . S
Li1059 O1119 1.956 . S
C1060 C1062 1.348 . S
C1060 C1063 1.356 . S
C1060 O1116 1.325 . S
N1061 C1064 1.314 . S
N1061 C1065 1.279 . S
C1062 C1060 1.348 . S
C1062 C1064 1.353 . S
C1062 H1120 0.929 . S
C1063 C1060 1.356 . S
C1063 C1065 1.358 . S
C1063 H1121 0.930 . S
C1064 N1061 1.314 . S
C1064 C1062 1.353 . S
C1064 H1122 0.930 . S
C1065 N1061 1.279 . S
C1065 C1063 1.358 . S
C1065 H1123 0.930 . S
C1066 C1069 1.348 . S
C1066 C1070 1.356 . S
C1066 O1117 1.325 . S
C1067 N1068 1.279 . S
C1067 C1070 1.358 . S
C1067 H1124 0.930 . S
N1068 C1067 1.279 . S
N1068 C1071 1.314 . S
C1069 C1066 1.348 . S
C1069 C1071 1.353 . S
C1069 H1125 0.929 . S
C1070 C1066 1.356 . S
C1070 C1067 1.358 . S
C1070 H1126 0.930 . S
C1071 N1068 1.314 . S
C1071 C1069 1.353 . S
C1071 H1127 0.930 . S
C1072 N1073 1.314 . S
C1072 C1077 1.353 . S
C1072 H1078 0.930 . S
N1073 Li1056 1.990 . S
N1073 C1072 1.314 . S
N1073 C1075 1.279 . S
C1074 C1075 1.358 . S
C1074 C1076 1.356 . S
C1074 H1128 0.930 . S
C1075 N1073 1.279 . S
C1075 C1074 1.358 . S
C1075 H1079 0.930 . S
C1076 C1074 1.356 . S
C1076 C1077 1.348 . S
C1077 C1072 1.353 . S
C1077 C1076 1.348 . S
C1077 H1129 0.929 . S
H1078 C1072 0.930 . S
H1079 C1075 0.930 . S
C1080 N1081 1.314 . S
C1080 C1082 1.353 . S
C1080 H1086 0.930 . S
N1081 Li1057 1.990 . S
N1081 C1080 1.314 . S
N1081 C1084 1.279 . S
C1082 C1080 1.353 . S
C1082 C1085 1.348 . S
C1082 H1130 0.929 . S
C1083 C1084 1.358 . S
C1083 C1085 1.356 . S
C1083 H1131 0.930 . S
C1084 N1081 1.279 . S
C1084 C1083 1.358 . S
C1084 H1087 0.930 . S
C1085 C1082 1.348 . S
C1085 C1083 1.356 . S
H1086 C1080 0.930 . S
H1087 C1084 0.930 . S
C1088 C1090 1.348 . S
C1088 C1091 1.356 . S
C1088 O1118 1.325 . S
N1089 C1092 1.314 . S
N1089 C1093 1.279 . S
C1090 C1088 1.348 . S
C1090 C1092 1.353 . S
C1090 H1132 0.929 . S
C1091 C1088 1.356 . S
C1091 C1093 1.358 . S
C1091 H1133 0.930 . S
C1092 N1089 1.314 . S
C1092 C1090 1.353 . S
C1092 H1134 0.930 . S
C1093 N1089 1.279 . S
C1093 C1091 1.358 . S
C1093 H1135 0.930 . S
C1094 C1095 1.348 . S
C1094 C1096 1.356 . S
C1094 O1119 1.325 . S
C1095 C1094 1.348 . S
C1095 C1097 1.353 . S
C1095 H1136 0.929 . S
C1096 C1094 1.356 . S
C1096 C1098 1.358 . S
C1096 H1137 0.930 . S
C1097 C1095 1.353 . S
C1097 N1099 1.314 . S
C1097 H1138 0.930 . S
C1098 C1096 1.358 . S
C1098 N1099 1.279 . S
C1098 H1139 0.930 . S
N1099 C1097 1.314 . S
N1099 C1098 1.279 . S
C1100 C1102 1.353 . S
C1100 N1103 1.314 . S
C1100 H1106 0.930 . S
C1101 N1103 1.279 . S
C1101 C1104 1.358 . S
C1101 H1107 0.930 . S
C1102 C1100 1.353 . S
C1102 C1105 1.348 . S
C1102 H1140 0.929 . S
N1103 Li1058 1.990 . S
N1103 C1100 1.314 . S
N1103 C1101 1.279 . S
C1104 C1101 1.358 . S
C1104 C1105 1.356 . S
C1104 H1141 0.930 . S
C1105 C1102 1.348 . S
C1105 C1104 1.356 . S
H1106 C1100 0.930 . S
H1107 C1101 0.930 . S
C1108 N1109 1.314 . S
C1108 C1110 1.353 . S
C1108 H1114 0.930 . S
N1109 Li1059 1.990 . S
N1109 C1108 1.314 . S
N1109 C1112 1.279 . S
C1110 C1108 1.353 . S
C1110 C1113 1.348 . S
C1110 H1142 0.929 . S
C1111 C1112 1.358 . S
C1111 C1113 1.356 . S
C1111 H1143 0.930 . S
C1112 N1109 1.279 . S
C1112 C1111 1.358 . S
C1112 H1115 0.930 . S
C1113 C1110 1.348 . S
C1113 C1111 1.356 . S
H1114 C1108 0.930 . S
H1115 C1112 0.930 . S
O1116 Li1056 1.956 . S
O1116 Li1057 1.970 . S
O1116 Li1058 1.961 . S
O1116 C1060 1.325 . S
O1117 Li1056 1.970 . S
O1117 Li1057 1.956 . S
O1117 Li1059 1.961 . S
O1117 C1066 1.325 . S
O1118 Li1056 1.961 . S
O1118 Li1058 1.956 . S
O1118 Li1059 1.970 . S
O1118 C1088 1.325 . S
O1119 Li1057 1.961 . S
O1119 Li1058 1.970 . S
O1119 Li1059 1.956 . S
O1119 C1094 1.325 . S
H1120 C1062 0.929 . S
H1121 C1063 0.930 . S
H1122 C1064 0.930 . S
H1123 C1065 0.930 . S
H1124 C1067 0.930 . S
H1125 C1069 0.929 . S
H1126 C1070 0.930 . S
H1127 C1071 0.930 . S
H1128 C1074 0.930 . S
H1129 C1077 0.929 . S
H1130 C1082 0.929 . S
H1131 C1083 0.930 . S
H1132 C1090 0.929 . S
H1133 C1091 0.930 . S
H1134 C1092 0.930 . S
H1135 C1093 0.930 . S
H1136 C1095 0.929 . S
H1137 C1096 0.930 . S
H1138 C1097 0.930 . S
H1139 C1098 0.930 . S
H1140 C1102 0.929 . S
H1141 C1104 0.930 . S
H1142 C1110 0.929 . S
H1143 C1111 0.930 . S
Li1144 N1161 1.990 . S
Li1144 O1204 1.956 . S
Li1144 O1205 1.970 . S
Li1144 O1206 1.961 . S
Li1145 N1169 1.990 . S
Li1145 O1204 1.970 . S
Li1145 O1205 1.956 . S
Li1145 O1207 1.961 . S
Li1146 N1191 1.990 . S
Li1146 O1204 1.961 . S
Li1146 O1206 1.956 . S
Li1146 O1207 1.970 . S
Li1147 N1197 1.990 . S
Li1147 O1205 1.961 . S
Li1147 O1206 1.970 . S
Li1147 O1207 1.956 . S
C1148 C1150 1.348 . S
C1148 C1151 1.356 . S
C1148 O1204 1.325 . S
N1149 C1152 1.314 . S
N1149 C1153 1.279 . S
C1150 C1148 1.348 . S
C1150 C1152 1.353 . S
C1150 H1208 0.929 . S
C1151 C1148 1.356 . S
C1151 C1153 1.358 . S
C1151 H1209 0.930 . S
C1152 N1149 1.314 . S
C1152 C1150 1.353 . S
C1152 H1210 0.930 . S
C1153 N1149 1.279 . S
C1153 C1151 1.358 . S
C1153 H1211 0.930 . S
C1154 C1157 1.348 . S
C1154 C1158 1.356 . S
C1154 O1205 1.325 . S
C1155 N1156 1.279 . S
C1155 C1158 1.358 . S
C1155 H1212 0.930 . S
N1156 C1155 1.279 . S
N1156 C1159 1.314 . S
C1157 C1154 1.348 . S
C1157 C1159 1.353 . S
C1157 H1213 0.929 . S
C1158 C1154 1.356 . S
C1158 C1155 1.358 . S
C1158 H1214 0.930 . S
C1159 N1156 1.314 . S
C1159 C1157 1.353 . S
C1159 H1215 0.930 . S
C1160 N1161 1.314 . S
C1160 C1165 1.353 . S
C1160 H1166 0.930 . S
N1161 Li1144 1.990 . S
N1161 C1160 1.314 . S
N1161 C1163 1.279 . S
C1162 C1163 1.358 . S
C1162 C1164 1.356 . S
C1162 H1216 0.930 . S
C1163 N1161 1.279 . S
C1163 C1162 1.358 . S
C1163 H1167 0.930 . S
C1164 C1162 1.356 . S
C1164 C1165 1.348 . S
C1165 C1160 1.353 . S
C1165 C1164 1.348 . S
C1165 H1217 0.929 . S
H1166 C1160 0.930 . S
H1167 C1163 0.930 . S
C1168 N1169 1.314 . S
C1168 C1170 1.353 . S
C1168 H1174 0.930 . S
N1169 Li1145 1.990 . S
N1169 C1168 1.314 . S
N1169 C1172 1.279 . S
C1170 C1168 1.353 . S
C1170 C1173 1.348 . S
C1170 H1218 0.929 . S
C1171 C1172 1.358 . S
C1171 C1173 1.356 . S
C1171 H1219 0.930 . S
C1172 N1169 1.279 . S
C1172 C1171 1.358 . S
C1172 H1175 0.930 . S
C1173 C1170 1.348 . S
C1173 C1171 1.356 . S
H1174 C1168 0.930 . S
H1175 C1172 0.930 . S
C1176 C1178 1.348 . S
C1176 C1179 1.356 . S
C1176 O1206 1.325 . S
N1177 C1180 1.314 . S
N1177 C1181 1.279 . S
C1178 C1176 1.348 . S
C1178 C1180 1.353 . S
C1178 H1220 0.929 . S
C1179 C1176 1.356 . S
C1179 C1181 1.358 . S
C1179 H1221 0.930 . S
C1180 N1177 1.314 . S
C1180 C1178 1.353 . S
C1180 H1222 0.930 . S
C1181 N1177 1.279 . S
C1181 C1179 1.358 . S
C1181 H1223 0.930 . S
C1182 C1183 1.348 . S
C1182 C1184 1.356 . S
C1182 O1207 1.325 . S
C1183 C1182 1.348 . S
C1183 C1185 1.353 . S
C1183 H1224 0.929 . S
C1184 C1182 1.356 . S
C1184 C1186 1.358 . S
C1184 H1225 0.930 . S
C1185 C1183 1.353 . S
C1185 N1187 1.314 . S
C1185 H1226 0.930 . S
C1186 C1184 1.358 . S
C1186 N1187 1.279 . S
C1186 H1227 0.930 . S
N1187 C1185 1.314 . S
N1187 C1186 1.279 . S
C1188 C1190 1.353 . S
C1188 N1191 1.314 . S
C1188 H1194 0.930 . S
C1189 N1191 1.279 . S
C1189 C1192 1.358 . S
C1189 H1195 0.930 . S
C1190 C1188 1.353 . S
C1190 C1193 1.348 . S
C1190 H1228 0.929 . S
N1191 Li1146 1.990 . S
N1191 C1188 1.314 . S
N1191 C1189 1.279 . S
C1192 C1189 1.358 . S
C1192 C1193 1.356 . S
C1192 H1229 0.930 . S
C1193 C1190 1.348 . S
C1193 C1192 1.356 . S
H1194 C1188 0.930 . S
H1195 C1189 0.930 . S
C1196 N1197 1.314 . S
C1196 C1198 1.353 . S
C1196 H1202 0.930 . S
N1197 Li1147 1.990 . S
N1197 C1196 1.314 . S
N1197 C1200 1.279 . S
C1198 C1196 1.353 . S
C1198 C1201 1.348 . S
C1198 H1230 0.929 . S
C1199 C1200 1.358 . S
C1199 C1201 1.356 . S
C1199 H1231 0.930 . S
C1200 N1197 1.279 . S
C1200 C1199 1.358 . S
C1200 H1203 0.930 . S
C1201 C1198 1.348 . S
C1201 C1199 1.356 . S
H1202 C1196 0.930 . S
H1203 C1200 0.930 . S
O1204 Li1144 1.956 . S
O1204 Li1145 1.970 . S
O1204 Li1146 1.961 . S
O1204 C1148 1.325 . S
O1205 Li1144 1.970 . S
O1205 Li1145 1.956 . S
O1205 Li1147 1.961 . S
O1205 C1154 1.325 . S
O1206 Li1144 1.961 . S
O1206 Li1146 1.956 . S
O1206 Li1147 1.970 . S
O1206 C1176 1.325 . S
O1207 Li1145 1.961 . S
O1207 Li1146 1.970 . S
O1207 Li1147 1.956 . S
O1207 C1182 1.325 . S
H1208 C1150 0.929 . S
H1209 C1151 0.930 . S
H1210 C1152 0.930 . S
H1211 C1153 0.930 . S
H1212 C1155 0.930 . S
H1213 C1157 0.929 . S
H1214 C1158 0.930 . S
H1215 C1159 0.930 . S
H1216 C1162 0.930 . S
H1217 C1165 0.929 . S
H1218 C1170 0.929 . S
H1219 C1171 0.930 . S
H1220 C1178 0.929 . S
H1221 C1179 0.930 . S
H1222 C1180 0.930 . S
H1223 C1181 0.930 . S
H1224 C1183 0.929 . S
H1225 C1184 0.930 . S
H1226 C1185 0.930 . S
H1227 C1186 0.930 . S
H1228 C1190 0.929 . S
H1229 C1192 0.930 . S
H1230 C1198 0.929 . S
H1231 C1199 0.930 . S
Li1232 N1249 1.990 . S
Li1232 O1292 1.956 . S
Li1232 O1293 1.970 . S
Li1232 O1294 1.961 . S
Li1233 N1257 1.990 . S
Li1233 O1292 1.970 . S
Li1233 O1293 1.956 . S
Li1233 O1295 1.961 . S
Li1234 N1279 1.990 . S
Li1234 O1292 1.961 . S
Li1234 O1294 1.956 . S
Li1234 O1295 1.970 . S
Li1235 N1285 1.990 . S
Li1235 O1293 1.961 . S
Li1235 O1294 1.970 . S
Li1235 O1295 1.956 . S
C1236 C1238 1.348 . S
C1236 C1239 1.356 . S
C1236 O1292 1.325 . S
N1237 C1240 1.314 . S
N1237 C1241 1.279 . S
C1238 C1236 1.348 . S
C1238 C1240 1.353 . S
C1238 H1296 0.929 . S
C1239 C1236 1.356 . S
C1239 C1241 1.358 . S
C1239 H1297 0.930 . S
C1240 N1237 1.314 . S
C1240 C1238 1.353 . S
C1240 H1298 0.930 . S
C1241 N1237 1.279 . S
C1241 C1239 1.358 . S
C1241 H1299 0.930 . S
C1242 C1245 1.348 . S
C1242 C1246 1.356 . S
C1242 O1293 1.325 . S
C1243 N1244 1.279 . S
C1243 C1246 1.358 . S
C1243 H1300 0.930 . S
N1244 C1243 1.279 . S
N1244 C1247 1.314 . S
C1245 C1242 1.348 . S
C1245 C1247 1.353 . S
C1245 H1301 0.929 . S
C1246 C1242 1.356 . S
C1246 C1243 1.358 . S
C1246 H1302 0.930 . S
C1247 N1244 1.314 . S
C1247 C1245 1.353 . S
C1247 H1303 0.930 . S
C1248 N1249 1.314 . S
C1248 C1253 1.353 . S
C1248 H1254 0.930 . S
N1249 Li1232 1.990 . S
N1249 C1248 1.314 . S
N1249 C1251 1.279 . S
C1250 C1251 1.358 . S
C1250 C1252 1.356 . S
C1250 H1304 0.930 . S
C1251 N1249 1.279 . S
C1251 C1250 1.358 . S
C1251 H1255 0.930 . S
C1252 C1250 1.356 . S
C1252 C1253 1.348 . S
C1253 C1248 1.353 . S
C1253 C1252 1.348 . S
C1253 H1305 0.929 . S
H1254 C1248 0.930 . S
H1255 C1251 0.930 . S
C1256 N1257 1.314 . S
C1256 C1258 1.353 . S
C1256 H1262 0.930 . S
N1257 Li1233 1.990 . S
N1257 C1256 1.314 . S
N1257 C1260 1.279 . S
C1258 C1256 1.353 . S
C1258 C1261 1.348 . S
C1258 H1306 0.929 . S
C1259 C1260 1.358 . S
C1259 C1261 1.356 . S
C1259 H1307 0.930 . S
C1260 N1257 1.279 . S
C1260 C1259 1.358 . S
C1260 H1263 0.930 . S
C1261 C1258 1.348 . S
C1261 C1259 1.356 . S
H1262 C1256 0.930 . S
H1263 C1260 0.930 . S
C1264 C1266 1.348 . S
C1264 C1267 1.356 . S
C1264 O1294 1.325 . S
N1265 C1268 1.314 . S
N1265 C1269 1.279 . S
C1266 C1264 1.348 . S
C1266 C1268 1.353 . S
C1266 H1308 0.929 . S
C1267 C1264 1.356 . S
C1267 C1269 1.358 . S
C1267 H1309 0.930 . S
C1268 N1265 1.314 . S
C1268 C1266 1.353 . S
C1268 H1310 0.930 . S
C1269 N1265 1.279 . S
C1269 C1267 1.358 . S
C1269 H1311 0.930 . S
C1270 C1271 1.348 . S
C1270 C1272 1.356 . S
C1270 O1295 1.325 . S
C1271 C1270 1.348 . S
C1271 C1273 1.353 . S
C1271 H1312 0.929 . S
C1272 C1270 1.356 . S
C1272 C1274 1.358 . S
C1272 H1313 0.930 . S
C1273 C1271 1.353 . S
C1273 N1275 1.314 . S
C1273 H1314 0.930 . S
C1274 C1272 1.358 . S
C1274 N1275 1.279 . S
C1274 H1315 0.930 . S
N1275 C1273 1.314 . S
N1275 C1274 1.279 . S
C1276 C1278 1.353 . S
C1276 N1279 1.314 . S
C1276 H1282 0.930 . S
C1277 N1279 1.279 . S
C1277 C1280 1.358 . S
C1277 H1283 0.930 . S
C1278 C1276 1.353 . S
C1278 C1281 1.348 . S
C1278 H1316 0.929 . S
N1279 Li1234 1.990 . S
N1279 C1276 1.314 . S
N1279 C1277 1.279 . S
C1280 C1277 1.358 . S
C1280 C1281 1.356 . S
C1280 H1317 0.930 . S
C1281 C1278 1.348 . S
C1281 C1280 1.356 . S
H1282 C1276 0.930 . S
H1283 C1277 0.930 . S
C1284 N1285 1.314 . S
C1284 C1286 1.353 . S
C1284 H1290 0.930 . S
N1285 Li1235 1.990 . S
N1285 C1284 1.314 . S
N1285 C1288 1.279 . S
C1286 C1284 1.353 . S
C1286 C1289 1.348 . S
C1286 H1318 0.929 . S
C1287 C1288 1.358 . S
C1287 C1289 1.356 . S
C1287 H1319 0.930 . S
C1288 N1285 1.279 . S
C1288 C1287 1.358 . S
C1288 H1291 0.930 . S
C1289 C1286 1.348 . S
C1289 C1287 1.356 . S
H1290 C1284 0.930 . S
H1291 C1288 0.930 . S
O1292 Li1232 1.956 . S
O1292 Li1233 1.970 . S
O1292 Li1234 1.961 . S
O1292 C1236 1.325 . S
O1293 Li1232 1.970 . S
O1293 Li1233 1.956 . S
O1293 Li1235 1.961 . S
O1293 C1242 1.325 . S
O1294 Li1232 1.961 . S
O1294 Li1234 1.956 . S
O1294 Li1235 1.970 . S
O1294 C1264 1.325 . S
O1295 Li1233 1.961 . S
O1295 Li1234 1.970 . S
O1295 Li1235 1.956 . S
O1295 C1270 1.325 . S
H1296 C1238 0.929 . S
H1297 C1239 0.930 . S
H1298 C1240 0.930 . S
H1299 C1241 0.930 . S
H1300 C1243 0.930 . S
H1301 C1245 0.929 . S
H1302 C1246 0.930 . S
H1303 C1247 0.930 . S
H1304 C1250 0.930 . S
H1305 C1253 0.929 . S
H1306 C1258 0.929 . S
H1307 C1259 0.930 . S
H1308 C1266 0.929 . S
H1309 C1267 0.930 . S
H1310 C1268 0.930 . S
H1311 C1269 0.930 . S
H1312 C1271 0.929 . S
H1313 C1272 0.930 . S
H1314 C1273 0.930 . S
H1315 C1274 0.930 . S
H1316 C1278 0.929 . S
H1317 C1280 0.930 . S
H1318 C1286 0.929 . S
H1319 C1287 0.930 . S
Li1320 N1337 1.990 . S
Li1320 O1380 1.956 . S
Li1320 O1381 1.970 . S
Li1320 O1382 1.961 . S
Li1321 N1345 1.990 . S
Li1321 O1380 1.970 . S
Li1321 O1381 1.956 . S
Li1321 O1383 1.961 . S
Li1322 N1367 1.990 . S
Li1322 O1380 1.961 . S
Li1322 O1382 1.956 . S
Li1322 O1383 1.970 . S
Li1323 N1373 1.990 . S
Li1323 O1381 1.961 . S
Li1323 O1382 1.970 . S
Li1323 O1383 1.956 . S
C1324 C1326 1.348 . S
C1324 C1327 1.356 . S
C1324 O1380 1.325 . S
N1325 C1328 1.314 . S
N1325 C1329 1.279 . S
C1326 C1324 1.348 . S
C1326 C1328 1.353 . S
C1326 H1384 0.929 . S
C1327 C1324 1.356 . S
C1327 C1329 1.358 . S
C1327 H1385 0.930 . S
C1328 N1325 1.314 . S
C1328 C1326 1.353 . S
C1328 H1386 0.930 . S
C1329 N1325 1.279 . S
C1329 C1327 1.358 . S
C1329 H1387 0.930 . S
C1330 C1333 1.348 . S
C1330 C1334 1.356 . S
C1330 O1381 1.325 . S
C1331 N1332 1.279 . S
C1331 C1334 1.358 . S
C1331 H1388 0.930 . S
N1332 C1331 1.279 . S
N1332 C1335 1.314 . S
C1333 C1330 1.348 . S
C1333 C1335 1.353 . S
C1333 H1389 0.929 . S
C1334 C1330 1.356 . S
C1334 C1331 1.358 . S
C1334 H1390 0.930 . S
C1335 N1332 1.314 . S
C1335 C1333 1.353 . S
C1335 H1391 0.930 . S
C1336 N1337 1.314 . S
C1336 C1341 1.353 . S
C1336 H1342 0.930 . S
N1337 Li1320 1.990 . S
N1337 C1336 1.314 . S
N1337 C1339 1.279 . S
C1338 C1339 1.358 . S
C1338 C1340 1.356 . S
C1338 H1392 0.930 . S
C1339 N1337 1.279 . S
C1339 C1338 1.358 . S
C1339 H1343 0.930 . S
C1340 C1338 1.356 . S
C1340 C1341 1.348 . S
C1341 C1336 1.353 . S
C1341 C1340 1.348 . S
C1341 H1393 0.929 . S
H1342 C1336 0.930 . S
H1343 C1339 0.930 . S
C1344 N1345 1.314 . S
C1344 C1346 1.353 . S
C1344 H1350 0.930 . S
N1345 Li1321 1.990 . S
N1345 C1344 1.314 . S
N1345 C1348 1.279 . S
C1346 C1344 1.353 . S
C1346 C1349 1.348 . S
C1346 H1394 0.929 . S
C1347 C1348 1.358 . S
C1347 C1349 1.356 . S
C1347 H1395 0.930 . S
C1348 N1345 1.279 . S
C1348 C1347 1.358 . S
C1348 H1351 0.930 . S
C1349 C1346 1.348 . S
C1349 C1347 1.356 . S
H1350 C1344 0.930 . S
H1351 C1348 0.930 . S
C1352 C1354 1.348 . S
C1352 C1355 1.356 . S
C1352 O1382 1.325 . S
N1353 C1356 1.314 . S
N1353 C1357 1.279 . S
C1354 C1352 1.348 . S
C1354 C1356 1.353 . S
C1354 H1396 0.929 . S
C1355 C1352 1.356 . S
C1355 C1357 1.358 . S
C1355 H1397 0.930 . S
C1356 N1353 1.314 . S
C1356 C1354 1.353 . S
C1356 H1398 0.930 . S
C1357 N1353 1.279 . S
C1357 C1355 1.358 . S
C1357 H1399 0.930 . S
C1358 C1359 1.348 . S
C1358 C1360 1.356 . S
C1358 O1383 1.325 . S
C1359 C1358 1.348 . S
C1359 C1361 1.353 . S
C1359 H1400 0.929 . S
C1360 C1358 1.356 . S
C1360 C1362 1.358 . S
C1360 H1401 0.930 . S
C1361 C1359 1.353 . S
C1361 N1363 1.314 . S
C1361 H1402 0.930 . S
C1362 C1360 1.358 . S
C1362 N1363 1.279 . S
C1362 H1403 0.930 . S
N1363 C1361 1.314 . S
N1363 C1362 1.279 . S
C1364 C1366 1.353 . S
C1364 N1367 1.314 . S
C1364 H1370 0.930 . S
C1365 N1367 1.279 . S
C1365 C1368 1.358 . S
C1365 H1371 0.930 . S
C1366 C1364 1.353 . S
C1366 C1369 1.348 . S
C1366 H1404 0.929 . S
N1367 Li1322 1.990 . S
N1367 C1364 1.314 . S
N1367 C1365 1.279 . S
C1368 C1365 1.358 . S
C1368 C1369 1.356 . S
C1368 H1405 0.930 . S
C1369 C1366 1.348 . S
C1369 C1368 1.356 . S
H1370 C1364 0.930 . S
H1371 C1365 0.930 . S
C1372 N1373 1.314 . S
C1372 C1374 1.353 . S
C1372 H1378 0.930 . S
N1373 Li1323 1.990 . S
N1373 C1372 1.314 . S
N1373 C1376 1.279 . S
C1374 C1372 1.353 . S
C1374 C1377 1.348 . S
C1374 H1406 0.929 . S
C1375 C1376 1.358 . S
C1375 C1377 1.356 . S
C1375 H1407 0.930 . S
C1376 N1373 1.279 . S
C1376 C1375 1.358 . S
C1376 H1379 0.930 . S
C1377 C1374 1.348 . S
C1377 C1375 1.356 . S
H1378 C1372 0.930 . S
H1379 C1376 0.930 . S
O1380 Li1320 1.956 . S
O1380 Li1321 1.970 . S
O1380 Li1322 1.961 . S
O1380 C1324 1.325 . S
O1381 Li1320 1.970 . S
O1381 Li1321 1.956 . S
O1381 Li1323 1.961 . S
O1381 C1330 1.325 . S
O1382 Li1320 1.961 . S
O1382 Li1322 1.956 . S
O1382 Li1323 1.970 . S
O1382 C1352 1.325 . S
O1383 Li1321 1.961 . S
O1383 Li1322 1.970 . S
O1383 Li1323 1.956 . S
O1383 C1358 1.325 . S
H1384 C1326 0.929 . S
H1385 C1327 0.930 . S
H1386 C1328 0.930 . S
H1387 C1329 0.930 . S
H1388 C1331 0.930 . S
H1389 C1333 0.929 . S
H1390 C1334 0.930 . S
H1391 C1335 0.930 . S
H1392 C1338 0.930 . S
H1393 C1341 0.929 . S
H1394 C1346 0.929 . S
H1395 C1347 0.930 . S
H1396 C1354 0.929 . S
H1397 C1355 0.930 . S
H1398 C1356 0.930 . S
H1399 C1357 0.930 . S
H1400 C1359 0.929 . S
H1401 C1360 0.930 . S
H1402 C1361 0.930 . S
H1403 C1362 0.930 . S
H1404 C1366 0.929 . S
H1405 C1368 0.930 . S
H1406 C1374 0.929 . S
H1407 C1375 0.930 . S
H1408 C1420 0.930 . S
H1409 C1422 0.930 . S
H1410 C1423 0.930 . S
H1411 C1427 0.959 . S
H1412 C1427 0.959 . S
H1413 C1427 0.961 . S
H1414 C1428 0.960 . S
H1415 C1428 0.961 . S
H1416 C1428 0.959 . S
H1417 C1431 0.929 . S
H1418 C1432 0.931 . S
H1419 C1434 0.930 . S
C1420 H1408 0.930 . S
C1420 C1421 1.399 . S
C1420 C1425 1.399 . S
C1421 C1420 1.399 . S
C1421 C1422 1.376 . S
C1422 H1409 0.930 . S
C1422 C1421 1.376 . S
C1422 C1423 1.388 . S
C1423 H1410 0.930 . S
C1423 C1422 1.388 . S
C1423 C1424 1.390 . S
C1424 C1423 1.390 . S
C1424 C1425 1.394 . S
C1424 C1430 1.465 . S
C1425 C1420 1.399 . S
C1425 C1424 1.394 . S
C1425 C1426 1.516 . S
C1426 C1425 1.516 . S
C1426 C1427 1.502 . S
C1426 C1428 1.561 . S
C1426 C1429 1.526 . S
C1427 H1411 0.959 . S
C1427 H1412 0.959 . S
C1427 H1413 0.961 . S
C1427 C1426 1.502 . S
C1428 H1414 0.960 . S
C1428 H1415 0.961 . S
C1428 H1416 0.959 . S
C1428 C1426 1.561 . S
C1429 C1426 1.526 . S
C1429 C1430 1.396 . S
C1429 C1434 1.390 . S
C1430 C1424 1.465 . S
C1430 C1429 1.396 . S
C1430 C1431 1.399 . S
C1431 H1417 0.929 . S
C1431 C1430 1.399 . S
C1431 C1432 1.385 . S
C1432 H1418 0.931 . S
C1432 C1431 1.385 . S
C1432 C1433 1.389 . S
C1433 C1432 1.389 . S
C1433 C1434 1.387 . S
C1434 H1419 0.930 . S
C1434 C1429 1.390 . S
C1434 C1433 1.387 . S
H1435 C1447 0.930 . S
H1436 C1449 0.930 . S
H1437 C1450 0.930 . S
H1438 C1454 0.959 . S
H1439 C1454 0.959 . S
H1440 C1454 0.961 . S
H1441 C1455 0.960 . S
H1442 C1455 0.961 . S
H1443 C1455 0.959 . S
H1444 C1458 0.929 . S
H1445 C1459 0.931 . S
H1446 C1461 0.930 . S
C1447 H1435 0.930 . S
C1447 C1448 1.399 . S
C1447 C1452 1.399 . S
C1448 C1447 1.399 . S
C1448 C1449 1.376 . S
C1449 H1436 0.930 . S
C1449 C1448 1.376 . S
C1449 C1450 1.388 . S
C1450 H1437 0.930 . S
C1450 C1449 1.388 . S
C1450 C1451 1.390 . S
C1451 C1450 1.390 . S
C1451 C1452 1.394 . S
C1451 C1457 1.465 . S
C1452 C1447 1.399 . S
C1452 C1451 1.394 . S
C1452 C1453 1.516 . S
C1453 C1452 1.516 . S
C1453 C1454 1.502 . S
C1453 C1455 1.561 . S
C1453 C1456 1.526 . S
C1454 H1438 0.959 . S
C1454 H1439 0.959 . S
C1454 H1440 0.961 . S
C1454 C1453 1.502 . S
C1455 H1441 0.960 . S
C1455 H1442 0.961 . S
C1455 H1443 0.959 . S
C1455 C1453 1.561 . S
C1456 C1453 1.526 . S
C1456 C1457 1.396 . S
C1456 C1461 1.390 . S
C1457 C1451 1.465 . S
C1457 C1456 1.396 . S
C1457 C1458 1.399 . S
C1458 H1444 0.929 . S
C1458 C1457 1.399 . S
C1458 C1459 1.385 . S
C1459 H1445 0.931 . S
C1459 C1458 1.385 . S
C1459 C1460 1.389 . S
C1460 C1459 1.389 . S
C1460 C1461 1.387 . S
C1461 H1446 0.930 . S
C1461 C1456 1.390 . S
C1461 C1460 1.387 . S
H1462 C1474 0.930 . S
H1463 C1476 0.930 . S
H1464 C1477 0.930 . S
H1465 C1481 0.959 . S
H1466 C1481 0.959 . S
H1467 C1481 0.961 . S
H1468 C1482 0.960 . S
H1469 C1482 0.961 . S
H1470 C1482 0.959 . S
H1471 C1485 0.929 . S
H1472 C1486 0.931 . S
H1473 C1488 0.930 . S
C1474 H1462 0.930 . S
C1474 C1475 1.399 . S
C1474 C1479 1.399 . S
C1475 C1474 1.399 . S
C1475 C1476 1.376 . S
C1476 H1463 0.930 . S
C1476 C1475 1.376 . S
C1476 C1477 1.388 . S
C1477 H1464 0.930 . S
C1477 C1476 1.388 . S
C1477 C1478 1.390 . S
C1478 C1477 1.390 . S
C1478 C1479 1.394 . S
C1478 C1484 1.465 . S
C1479 C1474 1.399 . S
C1479 C1478 1.394 . S
C1479 C1480 1.516 . S
C1480 C1479 1.516 . S
C1480 C1481 1.502 . S
C1480 C1482 1.561 . S
C1480 C1483 1.526 . S
C1481 H1465 0.959 . S
C1481 H1466 0.959 . S
C1481 H1467 0.961 . S
C1481 C1480 1.502 . S
C1482 H1468 0.960 . S
C1482 H1469 0.961 . S
C1482 H1470 0.959 . S
C1482 C1480 1.561 . S
C1483 C1480 1.526 . S
C1483 C1484 1.396 . S
C1483 C1488 1.390 . S
C1484 C1478 1.465 . S
C1484 C1483 1.396 . S
C1484 C1485 1.399 . S
C1485 H1471 0.929 . S
C1485 C1484 1.399 . S
C1485 C1486 1.385 . S
C1486 H1472 0.931 . S
C1486 C1485 1.385 . S
C1486 C1487 1.389 . S
C1487 C1486 1.389 . S
C1487 C1488 1.387 . S
C1488 H1473 0.930 . S
C1488 C1483 1.390 . S
C1488 C1487 1.387 . S
H1489 C1501 0.930 . S
H1490 C1503 0.930 . S
H1491 C1504 0.930 . S
H1492 C1508 0.959 . S
H1493 C1508 0.959 . S
H1494 C1508 0.961 . S
H1495 C1509 0.960 . S
H1496 C1509 0.961 . S
H1497 C1509 0.959 . S
H1498 C1512 0.929 . S
H1499 C1513 0.931 . S
H1500 C1515 0.930 . S
C1501 H1489 0.930 . S
C1501 C1502 1.399 . S
C1501 C1506 1.399 . S
C1502 C1501 1.399 . S
C1502 C1503 1.376 . S
C1503 H1490 0.930 . S
C1503 C1502 1.376 . S
C1503 C1504 1.388 . S
C1504 H1491 0.930 . S
C1504 C1503 1.388 . S
C1504 C1505 1.390 . S
C1505 C1504 1.390 . S
C1505 C1506 1.394 . S
C1505 C1511 1.465 . S
C1506 C1501 1.399 . S
C1506 C1505 1.394 . S
C1506 C1507 1.516 . S
C1507 C1506 1.516 . S
C1507 C1508 1.502 . S
C1507 C1509 1.561 . S
C1507 C1510 1.526 . S
C1508 H1492 0.959 . S
C1508 H1493 0.959 . S
C1508 H1494 0.961 . S
C1508 C1507 1.502 . S
C1509 H1495 0.960 . S
C1509 H1496 0.961 . S
C1509 H1497 0.959 . S
C1509 C1507 1.561 . S
C1510 C1507 1.526 . S
C1510 C1511 1.396 . S
C1510 C1515 1.390 . S
C1511 C1505 1.465 . S
C1511 C1510 1.396 . S
C1511 C1512 1.399 . S
C1512 H1498 0.929 . S
C1512 C1511 1.399 . S
C1512 C1513 1.385 . S
C1513 H1499 0.931 . S
C1513 C1512 1.385 . S
C1513 C1514 1.389 . S
C1514 C1513 1.389 . S
C1514 C1515 1.387 . S
C1515 H1500 0.930 . S
C1515 C1510 1.390 . S
C1515 C1514 1.387 . S
H1516 C1528 0.930 . S
H1517 C1530 0.930 . S
H1518 C1531 0.930 . S
H1519 C1535 0.959 . S
H1520 C1535 0.959 . S
H1521 C1535 0.961 . S
H1522 C1536 0.960 . S
H1523 C1536 0.961 . S
H1524 C1536 0.959 . S
H1525 C1539 0.929 . S
H1526 C1540 0.931 . S
H1527 C1542 0.930 . S
C1528 H1516 0.930 . S
C1528 C1529 1.399 . S
C1528 C1533 1.399 . S
C1529 C1528 1.399 . S
C1529 C1530 1.376 . S
C1530 H1517 0.930 . S
C1530 C1529 1.376 . S
C1530 C1531 1.388 . S
C1531 H1518 0.930 . S
C1531 C1530 1.388 . S
C1531 C1532 1.390 . S
C1532 C1531 1.390 . S
C1532 C1533 1.394 . S
C1532 C1538 1.465 . S
C1533 C1528 1.399 . S
C1533 C1532 1.394 . S
C1533 C1534 1.516 . S
C1534 C1533 1.516 . S
C1534 C1535 1.502 . S
C1534 C1536 1.561 . S
C1534 C1537 1.526 . S
C1535 H1519 0.959 . S
C1535 H1520 0.959 . S
C1535 H1521 0.961 . S
C1535 C1534 1.502 . S
C1536 H1522 0.960 . S
C1536 H1523 0.961 . S
C1536 H1524 0.959 . S
C1536 C1534 1.561 . S
C1537 C1534 1.526 . S
C1537 C1538 1.396 . S
C1537 C1542 1.390 . S
C1538 C1532 1.465 . S
C1538 C1537 1.396 . S
C1538 C1539 1.399 . S
C1539 H1525 0.929 . S
C1539 C1538 1.399 . S
C1539 C1540 1.385 . S
C1540 H1526 0.931 . S
C1540 C1539 1.385 . S
C1540 C1541 1.389 . S
C1541 C1540 1.389 . S
C1541 C1542 1.387 . S
C1542 H1527 0.930 . S
C1542 C1537 1.390 . S
C1542 C1541 1.387 . S
H1543 C1555 0.930 . S
H1544 C1557 0.930 . S
H1545 C1558 0.930 . S
H1546 C1562 0.959 . S
H1547 C1562 0.959 . S
H1548 C1562 0.961 . S
H1549 C1563 0.960 . S
H1550 C1563 0.961 . S
H1551 C1563 0.959 . S
H1552 C1566 0.929 . S
H1553 C1567 0.931 . S
H1554 C1569 0.930 . S
C1555 H1543 0.930 . S
C1555 C1556 1.399 . S
C1555 C1560 1.399 . S
C1556 C1555 1.399 . S
C1556 C1557 1.376 . S
C1557 H1544 0.930 . S
C1557 C1556 1.376 . S
C1557 C1558 1.388 . S
C1558 H1545 0.930 . S
C1558 C1557 1.388 . S
C1558 C1559 1.390 . S
C1559 C1558 1.390 . S
C1559 C1560 1.394 . S
C1559 C1565 1.465 . S
C1560 C1555 1.399 . S
C1560 C1559 1.394 . S
C1560 C1561 1.516 . S
C1561 C1560 1.516 . S
C1561 C1562 1.502 . S
C1561 C1563 1.561 . S
C1561 C1564 1.526 . S
C1562 H1546 0.959 . S
C1562 H1547 0.959 . S
C1562 H1548 0.961 . S
C1562 C1561 1.502 . S
C1563 H1549 0.960 . S
C1563 H1550 0.961 . S
C1563 H1551 0.959 . S
C1563 C1561 1.561 . S
C1564 C1561 1.526 . S
C1564 C1565 1.396 . S
C1564 C1569 1.390 . S
C1565 C1559 1.465 . S
C1565 C1564 1.396 . S
C1565 C1566 1.399 . S
C1566 H1552 0.929 . S
C1566 C1565 1.399 . S
C1566 C1567 1.385 . S
C1567 H1553 0.931 . S
C1567 C1566 1.385 . S
C1567 C1568 1.389 . S
C1568 C1567 1.389 . S
C1568 C1569 1.387 . S
C1569 H1554 0.930 . S
C1569 C1564 1.390 . S
C1569 C1568 1.387 . S
H1570 C1582 0.930 . S
H1571 C1584 0.930 . S
H1572 C1585 0.930 . S
H1573 C1589 0.959 . S
H1574 C1589 0.959 . S
H1575 C1589 0.961 . S
H1576 C1590 0.960 . S
H1577 C1590 0.961 . S
H1578 C1590 0.959 . S
H1579 C1593 0.929 . S
H1580 C1594 0.931 . S
H1581 C1596 0.930 . S
C1582 H1570 0.930 . S
C1582 C1583 1.399 . S
C1582 C1587 1.399 . S
C1583 C1582 1.399 . S
C1583 C1584 1.376 . S
C1584 H1571 0.930 . S
C1584 C1583 1.376 . S
C1584 C1585 1.388 . S
C1585 H1572 0.930 . S
C1585 C1584 1.388 . S
C1585 C1586 1.390 . S
C1586 C1585 1.390 . S
C1586 C1587 1.394 . S
C1586 C1592 1.465 . S
C1587 C1582 1.399 . S
C1587 C1586 1.394 . S
C1587 C1588 1.516 . S
C1588 C1587 1.516 . S
C1588 C1589 1.502 . S
C1588 C1590 1.561 . S
C1588 C1591 1.526 . S
C1589 H1573 0.959 . S
C1589 H1574 0.959 . S
C1589 H1575 0.961 . S
C1589 C1588 1.502 . S
C1590 H1576 0.960 . S
C1590 H1577 0.961 . S
C1590 H1578 0.959 . S
C1590 C1588 1.561 . S
C1591 C1588 1.526 . S
C1591 C1592 1.396 . S
C1591 C1596 1.390 . S
C1592 C1586 1.465 . S
C1592 C1591 1.396 . S
C1592 C1593 1.399 . S
C1593 H1579 0.929 . S
C1593 C1592 1.399 . S
C1593 C1594 1.385 . S
C1594 H1580 0.931 . S
C1594 C1593 1.385 . S
C1594 C1595 1.389 . S
C1595 C1594 1.389 . S
C1595 C1596 1.387 . S
C1596 H1581 0.930 . S
C1596 C1591 1.390 . S
C1596 C1595 1.387 . S
H1597 C1609 0.930 . S
H1598 C1611 0.930 . S
H1599 C1612 0.930 . S
H1600 C1616 0.959 . S
H1601 C1616 0.959 . S
H1602 C1616 0.961 . S
H1603 C1617 0.960 . S
H1604 C1617 0.961 . S
H1605 C1617 0.959 . S
H1606 C1620 0.929 . S
H1607 C1621 0.931 . S
H1608 C1623 0.930 . S
C1609 H1597 0.930 . S
C1609 C1610 1.399 . S
C1609 C1614 1.399 . S
C1610 C1609 1.399 . S
C1610 C1611 1.376 . S
C1611 H1598 0.930 . S
C1611 C1610 1.376 . S
C1611 C1612 1.388 . S
C1612 H1599 0.930 . S
C1612 C1611 1.388 . S
C1612 C1613 1.390 . S
C1613 C1612 1.390 . S
C1613 C1614 1.394 . S
C1613 C1619 1.465 . S
C1614 C1609 1.399 . S
C1614 C1613 1.394 . S
C1614 C1615 1.516 . S
C1615 C1614 1.516 . S
C1615 C1616 1.502 . S
C1615 C1617 1.561 . S
C1615 C1618 1.526 . S
C1616 H1600 0.959 . S
C1616 H1601 0.959 . S
C1616 H1602 0.961 . S
C1616 C1615 1.502 . S
C1617 H1603 0.960 . S
C1617 H1604 0.961 . S
C1617 H1605 0.959 . S
C1617 C1615 1.561 . S
C1618 C1615 1.526 . S
C1618 C1619 1.396 . S
C1618 C1623 1.390 . S
C1619 C1613 1.465 . S
C1619 C1618 1.396 . S
C1619 C1620 1.399 . S
C1620 H1606 0.929 . S
C1620 C1619 1.399 . S
C1620 C1621 1.385 . S
C1621 H1607 0.931 . S
C1621 C1620 1.385 . S
C1621 C1622 1.389 . S
C1622 C1621 1.389 . S
C1622 C1623 1.387 . S
C1623 H1608 0.930 . S
C1623 C1618 1.390 . S
C1623 C1622 1.387 . S
H1624 C1636 0.930 . S
H1625 C1638 0.930 . S
H1626 C1639 0.930 . S
H1627 C1643 0.959 . S
H1628 C1643 0.959 . S
H1629 C1643 0.961 . S
H1630 C1644 0.960 . S
H1631 C1644 0.961 . S
H1632 C1644 0.959 . S
H1633 C1647 0.929 . S
H1634 C1648 0.931 . S
H1635 C1650 0.930 . S
C1636 H1624 0.930 . S
C1636 C1637 1.399 . S
C1636 C1641 1.399 . S
C1637 C1636 1.399 . S
C1637 C1638 1.376 . S
C1638 H1625 0.930 . S
C1638 C1637 1.376 . S
C1638 C1639 1.388 . S
C1639 H1626 0.930 . S
C1639 C1638 1.388 . S
C1639 C1640 1.390 . S
C1640 C1639 1.390 . S
C1640 C1641 1.394 . S
C1640 C1646 1.465 . S
C1641 C1636 1.399 . S
C1641 C1640 1.394 . S
C1641 C1642 1.516 . S
C1642 C1641 1.516 . S
C1642 C1643 1.502 . S
C1642 C1644 1.561 . S
C1642 C1645 1.526 . S
C1643 H1627 0.959 . S
C1643 H1628 0.959 . S
C1643 H1629 0.961 . S
C1643 C1642 1.502 . S
C1644 H1630 0.960 . S
C1644 H1631 0.961 . S
C1644 H1632 0.959 . S
C1644 C1642 1.561 . S
C1645 C1642 1.526 . S
C1645 C1646 1.396 . S
C1645 C1650 1.390 . S
C1646 C1640 1.465 . S
C1646 C1645 1.396 . S
C1646 C1647 1.399 . S
C1647 H1633 0.929 . S
C1647 C1646 1.399 . S
C1647 C1648 1.385 . S
C1648 H1634 0.931 . S
C1648 C1647 1.385 . S
C1648 C1649 1.389 . S
C1649 C1648 1.389 . S
C1649 C1650 1.387 . S
C1650 H1635 0.930 . S
C1650 C1645 1.390 . S
C1650 C1649 1.387 . S
H1651 C1663 0.930 . S
H1652 C1665 0.930 . S
H1653 C1666 0.930 . S
H1654 C1670 0.959 . S
H1655 C1670 0.959 . S
H1656 C1670 0.961 . S
H1657 C1671 0.960 . S
H1658 C1671 0.961 . S
H1659 C1671 0.959 . S
H1660 C1674 0.929 . S
H1661 C1675 0.931 . S
H1662 C1677 0.930 . S
C1663 H1651 0.930 . S
C1663 C1664 1.399 . S
C1663 C1668 1.399 . S
C1664 C1663 1.399 . S
C1664 C1665 1.376 . S
C1665 H1652 0.930 . S
C1665 C1664 1.376 . S
C1665 C1666 1.388 . S
C1666 H1653 0.930 . S
C1666 C1665 1.388 . S
C1666 C1667 1.390 . S
C1667 C1666 1.390 . S
C1667 C1668 1.394 . S
C1667 C1673 1.465 . S
C1668 C1663 1.399 . S
C1668 C1667 1.394 . S
C1668 C1669 1.516 . S
C1669 C1668 1.516 . S
C1669 C1670 1.502 . S
C1669 C1671 1.561 . S
C1669 C1672 1.526 . S
C1670 H1654 0.959 . S
C1670 H1655 0.959 . S
C1670 H1656 0.961 . S
C1670 C1669 1.502 . S
C1671 H1657 0.960 . S
C1671 H1658 0.961 . S
C1671 H1659 0.959 . S
C1671 C1669 1.561 . S
C1672 C1669 1.526 . S
C1672 C1673 1.396 . S
C1672 C1677 1.390 . S
C1673 C1667 1.465 . S
C1673 C1672 1.396 . S
C1673 C1674 1.399 . S
C1674 H1660 0.929 . S
C1674 C1673 1.399 . S
C1674 C1675 1.385 . S
C1675 H1661 0.931 . S
C1675 C1674 1.385 . S
C1675 C1676 1.389 . S
C1676 C1675 1.389 . S
C1676 C1677 1.387 . S
C1677 H1662 0.930 . S
C1677 C1672 1.390 . S
C1677 C1676 1.387 . S
H1678 C1690 0.930 . S
H1679 C1692 0.930 . S
H1680 C1693 0.930 . S
H1681 C1697 0.959 . S
H1682 C1697 0.959 . S
H1683 C1697 0.961 . S
H1684 C1698 0.960 . S
H1685 C1698 0.961 . S
H1686 C1698 0.959 . S
H1687 C1701 0.929 . S
H1688 C1702 0.931 . S
H1689 C1704 0.930 . S
C1690 H1678 0.930 . S
C1690 C1691 1.399 . S
C1690 C1695 1.399 . S
C1691 C1690 1.399 . S
C1691 C1692 1.376 . S
C1692 H1679 0.930 . S
C1692 C1691 1.376 . S
C1692 C1693 1.388 . S
C1693 H1680 0.930 . S
C1693 C1692 1.388 . S
C1693 C1694 1.390 . S
C1694 C1693 1.390 . S
C1694 C1695 1.394 . S
C1694 C1700 1.465 . S
C1695 C1690 1.399 . S
C1695 C1694 1.394 . S
C1695 C1696 1.516 . S
C1696 C1695 1.516 . S
C1696 C1697 1.502 . S
C1696 C1698 1.561 . S
C1696 C1699 1.526 . S
C1697 H1681 0.959 . S
C1697 H1682 0.959 . S
C1697 H1683 0.961 . S
C1697 C1696 1.502 . S
C1698 H1684 0.960 . S
C1698 H1685 0.961 . S
C1698 H1686 0.959 . S
C1698 C1696 1.561 . S
C1699 C1696 1.526 . S
C1699 C1700 1.396 . S
C1699 C1704 1.390 . S
C1700 C1694 1.465 . S
C1700 C1699 1.396 . S
C1700 C1701 1.399 . S
C1701 H1687 0.929 . S
C1701 C1700 1.399 . S
C1701 C1702 1.385 . S
C1702 H1688 0.931 . S
C1702 C1701 1.385 . S
C1702 C1703 1.389 . S
C1703 C1702 1.389 . S
C1703 C1704 1.387 . S
C1704 H1689 0.930 . S
C1704 C1699 1.390 . S
C1704 C1703 1.387 . S
H1705 C1717 0.930 . S
H1706 C1719 0.930 . S
H1707 C1720 0.930 . S
H1708 C1724 0.959 . S
H1709 C1724 0.959 . S
H1710 C1724 0.961 . S
H1711 C1725 0.960 . S
H1712 C1725 0.961 . S
H1713 C1725 0.959 . S
H1714 C1728 0.929 . S
H1715 C1729 0.931 . S
H1716 C1731 0.930 . S
C1717 H1705 0.930 . S
C1717 C1718 1.399 . S
C1717 C1722 1.399 . S
C1718 C1717 1.399 . S
C1718 C1719 1.376 . S
C1719 H1706 0.930 . S
C1719 C1718 1.376 . S
C1719 C1720 1.388 . S
C1720 H1707 0.930 . S
C1720 C1719 1.388 . S
C1720 C1721 1.390 . S
C1721 C1720 1.390 . S
C1721 C1722 1.394 . S
C1721 C1727 1.465 . S
C1722 C1717 1.399 . S
C1722 C1721 1.394 . S
C1722 C1723 1.516 . S
C1723 C1722 1.516 . S
C1723 C1724 1.502 . S
C1723 C1725 1.561 . S
C1723 C1726 1.526 . S
C1724 H1708 0.959 . S
C1724 H1709 0.959 . S
C1724 H1710 0.961 . S
C1724 C1723 1.502 . S
C1725 H1711 0.960 . S
C1725 H1712 0.961 . S
C1725 H1713 0.959 . S
C1725 C1723 1.561 . S
C1726 C1723 1.526 . S
C1726 C1727 1.396 . S
C1726 C1731 1.390 . S
C1727 C1721 1.465 . S
C1727 C1726 1.396 . S
C1727 C1728 1.399 . S
C1728 H1714 0.929 . S
C1728 C1727 1.399 . S
C1728 C1729 1.385 . S
C1729 H1715 0.931 . S
C1729 C1728 1.385 . S
C1729 C1730 1.389 . S
C1730 C1729 1.389 . S
C1730 C1731 1.387 . S
C1731 H1716 0.930 . S
C1731 C1726 1.390 . S
C1731 C1730 1.387 . S
H1732 C1744 0.930 . S
H1733 C1746 0.930 . S
H1734 C1747 0.930 . S
H1735 C1751 0.959 . S
H1736 C1751 0.959 . S
H1737 C1751 0.961 . S
H1738 C1752 0.960 . S
H1739 C1752 0.961 . S
H1740 C1752 0.959 . S
H1741 C1755 0.929 . S
H1742 C1756 0.931 . S
H1743 C1758 0.930 . S
C1744 H1732 0.930 . S
C1744 C1745 1.399 . S
C1744 C1749 1.399 . S
C1745 C1744 1.399 . S
C1745 C1746 1.376 . S
C1746 H1733 0.930 . S
C1746 C1745 1.376 . S
C1746 C1747 1.388 . S
C1747 H1734 0.930 . S
C1747 C1746 1.388 . S
C1747 C1748 1.390 . S
C1748 C1747 1.390 . S
C1748 C1749 1.394 . S
C1748 C1754 1.465 . S
C1749 C1744 1.399 . S
C1749 C1748 1.394 . S
C1749 C1750 1.516 . S
C1750 C1749 1.516 . S
C1750 C1751 1.502 . S
C1750 C1752 1.561 . S
C1750 C1753 1.526 . S
C1751 H1735 0.959 . S
C1751 H1736 0.959 . S
C1751 H1737 0.961 . S
C1751 C1750 1.502 . S
C1752 H1738 0.960 . S
C1752 H1739 0.961 . S
C1752 H1740 0.959 . S
C1752 C1750 1.561 . S
C1753 C1750 1.526 . S
C1753 C1754 1.396 . S
C1753 C1758 1.390 . S
C1754 C1748 1.465 . S
C1754 C1753 1.396 . S
C1754 C1755 1.399 . S
C1755 H1741 0.929 . S
C1755 C1754 1.399 . S
C1755 C1756 1.385 . S
C1756 H1742 0.931 . S
C1756 C1755 1.385 . S
C1756 C1757 1.389 . S
C1757 C1756 1.389 . S
C1757 C1758 1.387 . S
C1758 H1743 0.930 . S
C1758 C1753 1.390 . S
C1758 C1757 1.387 . S
H1759 C1771 0.930 . S
H1760 C1773 0.930 . S
H1761 C1774 0.930 . S
H1762 C1778 0.959 . S
H1763 C1778 0.959 . S
H1764 C1778 0.961 . S
H1765 C1779 0.960 . S
H1766 C1779 0.961 . S
H1767 C1779 0.959 . S
H1768 C1782 0.929 . S
H1769 C1783 0.931 . S
H1770 C1785 0.930 . S
C1771 H1759 0.930 . S
C1771 C1772 1.399 . S
C1771 C1776 1.399 . S
C1772 C1771 1.399 . S
C1772 C1773 1.376 . S
C1773 H1760 0.930 . S
C1773 C1772 1.376 . S
C1773 C1774 1.388 . S
C1774 H1761 0.930 . S
C1774 C1773 1.388 . S
C1774 C1775 1.390 . S
C1775 C1774 1.390 . S
C1775 C1776 1.394 . S
C1775 C1781 1.465 . S
C1776 C1771 1.399 . S
C1776 C1775 1.394 . S
C1776 C1777 1.516 . S
C1777 C1776 1.516 . S
C1777 C1778 1.502 . S
C1777 C1779 1.561 . S
C1777 C1780 1.526 . S
C1778 H1762 0.959 . S
C1778 H1763 0.959 . S
C1778 H1764 0.961 . S
C1778 C1777 1.502 . S
C1779 H1765 0.960 . S
C1779 H1766 0.961 . S
C1779 H1767 0.959 . S
C1779 C1777 1.561 . S
C1780 C1777 1.526 . S
C1780 C1781 1.396 . S
C1780 C1785 1.390 . S
C1781 C1775 1.465 . S
C1781 C1780 1.396 . S
C1781 C1782 1.399 . S
C1782 H1768 0.929 . S
C1782 C1781 1.399 . S
C1782 C1783 1.385 . S
C1783 H1769 0.931 . S
C1783 C1782 1.385 . S
C1783 C1784 1.389 . S
C1784 C1783 1.389 . S
C1784 C1785 1.387 . S
C1785 H1770 0.930 . S
C1785 C1780 1.390 . S
C1785 C1784 1.387 . S
H1786 C1798 0.930 . S
H1787 C1800 0.930 . S
H1788 C1801 0.930 . S
H1789 C1805 0.959 . S
H1790 C1805 0.959 . S
H1791 C1805 0.961 . S
H1792 C1806 0.960 . S
H1793 C1806 0.961 . S
H1794 C1806 0.959 . S
H1795 C1809 0.929 . S
H1796 C1810 0.931 . S
H1797 C1812 0.930 . S
C1798 H1786 0.930 . S
C1798 C1799 1.399 . S
C1798 C1803 1.399 . S
C1799 C1798 1.399 . S
C1799 C1800 1.376 . S
C1800 H1787 0.930 . S
C1800 C1799 1.376 . S
C1800 C1801 1.388 . S
C1801 H1788 0.930 . S
C1801 C1800 1.388 . S
C1801 C1802 1.390 . S
C1802 C1801 1.390 . S
C1802 C1803 1.394 . S
C1802 C1808 1.465 . S
C1803 C1798 1.399 . S
C1803 C1802 1.394 . S
C1803 C1804 1.516 . S
C1804 C1803 1.516 . S
C1804 C1805 1.502 . S
C1804 C1806 1.561 . S
C1804 C1807 1.526 . S
C1805 H1789 0.959 . S
C1805 H1790 0.959 . S
C1805 H1791 0.961 . S
C1805 C1804 1.502 . S
C1806 H1792 0.960 . S
C1806 H1793 0.961 . S
C1806 H1794 0.959 . S
C1806 C1804 1.561 . S
C1807 C1804 1.526 . S
C1807 C1808 1.396 . S
C1807 C1812 1.390 . S
C1808 C1802 1.465 . S
C1808 C1807 1.396 . S
C1808 C1809 1.399 . S
C1809 H1795 0.929 . S
C1809 C1808 1.399 . S
C1809 C1810 1.385 . S
C1810 H1796 0.931 . S
C1810 C1809 1.385 . S
C1810 C1811 1.389 . S
C1811 C1810 1.389 . S
C1811 C1812 1.387 . S
C1812 H1797 0.930 . S
C1812 C1807 1.390 . S
C1812 C1811 1.387 . S
H1813 C1825 0.930 . S
H1814 C1827 0.930 . S
H1815 C1828 0.930 . S
H1816 C1832 0.959 . S
H1817 C1832 0.959 . S
H1818 C1832 0.961 . S
H1819 C1833 0.960 . S
H1820 C1833 0.961 . S
H1821 C1833 0.959 . S
H1822 C1836 0.929 . S
H1823 C1837 0.931 . S
H1824 C1839 0.930 . S
C1825 H1813 0.930 . S
C1825 C1826 1.399 . S
C1825 C1830 1.399 . S
C1826 C1825 1.399 . S
C1826 C1827 1.376 . S
C1827 H1814 0.930 . S
C1827 C1826 1.376 . S
C1827 C1828 1.388 . S
C1828 H1815 0.930 . S
C1828 C1827 1.388 . S
C1828 C1829 1.390 . S
C1829 C1828 1.390 . S
C1829 C1830 1.394 . S
C1829 C1835 1.465 . S
C1830 C1825 1.399 . S
C1830 C1829 1.394 . S
C1830 C1831 1.516 . S
C1831 C1830 1.516 . S
C1831 C1832 1.502 . S
C1831 C1833 1.561 . S
C1831 C1834 1.526 . S
C1832 H1816 0.959 . S
C1832 H1817 0.959 . S
C1832 H1818 0.961 . S
C1832 C1831 1.502 . S
C1833 H1819 0.960 . S
C1833 H1820 0.961 . S
C1833 H1821 0.959 . S
C1833 C1831 1.561 . S
C1834 C1831 1.526 . S
C1834 C1835 1.396 . S
C1834 C1839 1.390 . S
C1835 C1829 1.465 . S
C1835 C1834 1.396 . S
C1835 C1836 1.399 . S
C1836 H1822 0.929 . S
C1836 C1835 1.399 . S
C1836 C1837 1.385 . S
C1837 H1823 0.931 . S
C1837 C1836 1.385 . S
C1837 C1838 1.389 . S
C1838 C1837 1.389 . S
C1838 C1839 1.387 . S
C1839 H1824 0.930 . S
C1839 C1834 1.390 . S
C1839 C1838 1.387 . S
H1840 C1852 0.930 . S
H1841 C1854 0.930 . S
H1842 C1855 0.930 . S
H1843 C1859 0.959 . S
H1844 C1859 0.959 . S
H1845 C1859 0.961 . S
H1846 C1860 0.960 . S
H1847 C1860 0.961 . S
H1848 C1860 0.959 . S
H1849 C1863 0.929 . S
H1850 C1864 0.931 . S
H1851 C1866 0.930 . S
C1852 H1840 0.930 . S
C1852 C1853 1.399 . S
C1852 C1857 1.399 . S
C1853 C1852 1.399 . S
C1853 C1854 1.376 . S
C1854 H1841 0.930 . S
C1854 C1853 1.376 . S
C1854 C1855 1.388 . S
C1855 H1842 0.930 . S
C1855 C1854 1.388 . S
C1855 C1856 1.390 . S
C1856 C1855 1.390 . S
C1856 C1857 1.394 . S
C1856 C1862 1.465 . S
C1857 C1852 1.399 . S
C1857 C1856 1.394 . S
C1857 C1858 1.516 . S
C1858 C1857 1.516 . S
C1858 C1859 1.502 . S
C1858 C1860 1.561 . S
C1858 C1861 1.526 . S
C1859 H1843 0.959 . S
C1859 H1844 0.959 . S
C1859 H1845 0.961 . S
C1859 C1858 1.502 . S
C1860 H1846 0.960 . S
C1860 H1847 0.961 . S
C1860 H1848 0.959 . S
C1860 C1858 1.561 . S
C1861 C1858 1.526 . S
C1861 C1862 1.396 . S
C1861 C1866 1.390 . S
C1862 C1856 1.465 . S
C1862 C1861 1.396 . S
C1862 C1863 1.399 . S
C1863 H1849 0.929 . S
C1863 C1862 1.399 . S
C1863 C1864 1.385 . S
C1864 H1850 0.931 . S
C1864 C1863 1.385 . S
C1864 C1865 1.389 . S
C1865 C1864 1.389 . S
C1865 C1866 1.387 . S
C1866 H1851 0.930 . S
C1866 C1861 1.390 . S
C1866 C1865 1.387 . S
H1867 C1879 0.930 . S
H1868 C1881 0.930 1_565 S
H1869 C1882 0.930 . S
H1870 C1886 0.959 . S
H1871 C1886 0.959 . S
H1872 C1886 0.961 . S
H1873 C1887 0.960 . S
H1874 C1887 0.961 . S
H1875 C1887 0.959 . S
H1876 C1890 0.929 . S
H1877 C1891 0.931 . S
H1878 C1893 0.930 . S
C1879 H1867 0.930 . S
C1879 C1880 1.399 . S
C1879 C1884 1.399 . S
C1880 C1879 1.399 . S
C1880 C1881 1.376 . S
C1881 H1868 0.930 1_545 S
C1881 C1880 1.376 . S
C1881 C1882 1.388 . S
C1882 H1869 0.930 . S
C1882 C1881 1.388 . S
C1882 C1883 1.390 . S
C1883 C1882 1.390 . S
C1883 C1884 1.394 . S
C1883 C1889 1.465 . S
C1884 C1879 1.399 . S
C1884 C1883 1.394 . S
C1884 C1885 1.516 . S
C1885 C1884 1.516 . S
C1885 C1886 1.502 . S
C1885 C1887 1.561 . S
C1885 C1888 1.526 . S
C1886 H1870 0.959 . S
C1886 H1871 0.959 . S
C1886 H1872 0.961 . S
C1886 C1885 1.502 . S
C1887 H1873 0.960 . S
C1887 H1874 0.961 . S
C1887 H1875 0.959 . S
C1887 C1885 1.561 . S
C1888 C1885 1.526 . S
C1888 C1889 1.396 . S
C1888 C1893 1.390 . S
C1889 C1883 1.465 . S
C1889 C1888 1.396 . S
C1889 C1890 1.399 . S
C1890 H1876 0.929 . S
C1890 C1889 1.399 . S
C1890 C1891 1.385 . S
C1891 H1877 0.931 . S
C1891 C1890 1.385 . S
C1891 C1892 1.389 . S
C1892 C1891 1.389 . S
C1892 C1893 1.387 . S
C1893 H1878 0.930 . S
C1893 C1888 1.390 . S
C1893 C1892 1.387 . S
H1894 C1906 0.930 . S
H1895 C1908 0.930 . S
H1896 C1909 0.930 . S
H1897 C1913 0.959 . S
H1898 C1913 0.959 . S
H1899 C1913 0.961 . S
H1900 C1914 0.960 . S
H1901 C1914 0.961 . S
H1902 C1914 0.959 . S
H1903 C1917 0.929 . S
H1904 C1918 0.931 . S
H1905 C1920 0.930 . S
C1906 H1894 0.930 . S
C1906 C1907 1.399 . S
C1906 C1911 1.399 . S
C1907 C1906 1.399 . S
C1907 C1908 1.376 . S
C1908 H1895 0.930 . S
C1908 C1907 1.376 . S
C1908 C1909 1.388 . S
C1909 H1896 0.930 . S
C1909 C1908 1.388 . S
C1909 C1910 1.390 . S
C1910 C1909 1.390 . S
C1910 C1911 1.394 . S
C1910 C1916 1.465 . S
C1911 C1906 1.399 . S
C1911 C1910 1.394 . S
C1911 C1912 1.516 . S
C1912 C1911 1.516 . S
C1912 C1913 1.502 . S
C1912 C1914 1.561 . S
C1912 C1915 1.526 . S
C1913 H1897 0.959 . S
C1913 H1898 0.959 . S
C1913 H1899 0.961 . S
C1913 C1912 1.502 . S
C1914 H1900 0.960 . S
C1914 H1901 0.961 . S
C1914 H1902 0.959 . S
C1914 C1912 1.561 . S
C1915 C1912 1.526 . S
C1915 C1916 1.396 . S
C1915 C1920 1.390 . S
C1916 C1910 1.465 . S
C1916 C1915 1.396 . S
C1916 C1917 1.399 . S
C1917 H1903 0.929 . S
C1917 C1916 1.399 . S
C1917 C1918 1.385 . S
C1918 H1904 0.931 . S
C1918 C1917 1.385 . S
C1918 C1919 1.389 . S
C1919 C1918 1.389 . S
C1919 C1920 1.387 . S
C1920 H1905 0.930 . S
C1920 C1915 1.390 . S
C1920 C1919 1.387 . S
H1921 C1933 0.930 . S
H1922 C1935 0.930 . S
H1923 C1936 0.930 . S
H1924 C1940 0.959 . S
H1925 C1940 0.959 . S
H1926 C1940 0.961 . S
H1927 C1941 0.960 1_545 S
H1928 C1941 0.961 . S
H1929 C1941 0.959 . S
H1930 C1944 0.929 . S
H1931 C1945 0.931 . S
H1932 C1947 0.930 . S
C1933 H1921 0.930 . S
C1933 C1934 1.399 . S
C1933 C1938 1.399 . S
C1934 C1933 1.399 . S
C1934 C1935 1.376 . S
C1935 H1922 0.930 . S
C1935 C1934 1.376 . S
C1935 C1936 1.388 . S
C1936 H1923 0.930 . S
C1936 C1935 1.388 . S
C1936 C1937 1.390 . S
C1937 C1936 1.390 . S
C1937 C1938 1.394 . S
C1937 C1943 1.465 . S
C1938 C1933 1.399 . S
C1938 C1937 1.394 . S
C1938 C1939 1.516 . S
C1939 C1938 1.516 . S
C1939 C1940 1.502 . S
C1939 C1941 1.561 . S
C1939 C1942 1.526 . S
C1940 H1924 0.959 . S
C1940 H1925 0.959 . S
C1940 H1926 0.961 . S
C1940 C1939 1.502 . S
C1941 H1927 0.960 1_565 S
C1941 H1928 0.961 . S
C1941 H1929 0.959 . S
C1941 C1939 1.561 . S
C1942 C1939 1.526 . S
C1942 C1943 1.396 . S
C1942 C1947 1.390 . S
C1943 C1937 1.465 . S
C1943 C1942 1.396 . S
C1943 C1944 1.399 . S
C1944 H1930 0.929 . S
C1944 C1943 1.399 . S
C1944 C1945 1.385 . S
C1945 H1931 0.931 . S
C1945 C1944 1.385 . S
C1945 C1946 1.389 . S
C1946 C1945 1.389 . S
C1946 C1947 1.387 . S
C1947 H1932 0.930 . S
C1947 C1942 1.390 . S
C1947 C1946 1.387 . S
H1948 C1960 0.930 . S
H1949 C1962 0.930 . S
H1950 C1963 0.930 . S
H1951 C1967 0.959 . S
H1952 C1967 0.959 . S
H1953 C1967 0.961 . S
H1954 C1968 0.960 . S
H1955 C1968 0.961 . S
H1956 C1968 0.959 . S
H1957 C1971 0.929 . S
H1958 C1972 0.931 . S
H1959 C1974 0.930 . S
C1960 H1948 0.930 . S
C1960 C1961 1.399 . S
C1960 C1965 1.399 . S
C1961 C1960 1.399 . S
C1961 C1962 1.376 . S
C1962 H1949 0.930 . S
C1962 C1961 1.376 . S
C1962 C1963 1.388 . S
C1963 H1950 0.930 . S
C1963 C1962 1.388 . S
C1963 C1964 1.390 . S
C1964 C1963 1.390 . S
C1964 C1965 1.394 . S
C1964 C1970 1.465 . S
C1965 C1960 1.399 . S
C1965 C1964 1.394 . S
C1965 C1966 1.516 . S
C1966 C1965 1.516 . S
C1966 C1967 1.502 . S
C1966 C1968 1.561 . S
C1966 C1969 1.526 . S
C1967 H1951 0.959 . S
C1967 H1952 0.959 . S
C1967 H1953 0.961 . S
C1967 C1966 1.502 . S
C1968 H1954 0.960 . S
C1968 H1955 0.961 . S
C1968 H1956 0.959 . S
C1968 C1966 1.561 . S
C1969 C1966 1.526 . S
C1969 C1970 1.396 . S
C1969 C1974 1.390 . S
C1970 C1964 1.465 . S
C1970 C1969 1.396 . S
C1970 C1971 1.399 . S
C1971 H1957 0.929 . S
C1971 C1970 1.399 . S
C1971 C1972 1.385 . S
C1972 H1958 0.931 . S
C1972 C1971 1.385 . S
C1972 C1973 1.389 . S
C1973 C1972 1.389 . S
C1973 C1974 1.387 . S
C1974 H1959 0.930 . S
C1974 C1969 1.390 . S
C1974 C1973 1.387 . S
H1975 C1987 0.930 . S
H1976 C1989 0.930 . S
H1977 C1990 0.930 . S
H1978 C1994 0.959 . S
H1979 C1994 0.959 . S
H1980 C1994 0.961 . S
H1981 C1995 0.960 . S
H1982 C1995 0.961 1_565 S
H1983 C1995 0.959 . S
H1984 C1998 0.929 . S
H1985 C1999 0.931 . S
H1986 C2001 0.930 . S
C1987 H1975 0.930 . S
C1987 C1988 1.399 . S
C1987 C1992 1.399 . S
C1988 C1987 1.399 . S
C1988 C1989 1.376 . S
C1989 H1976 0.930 . S
C1989 C1988 1.376 . S
C1989 C1990 1.388 . S
C1990 H1977 0.930 . S
C1990 C1989 1.388 . S
C1990 C1991 1.390 . S
C1991 C1990 1.390 . S
C1991 C1992 1.394 . S
C1991 C1997 1.465 . S
C1992 C1987 1.399 . S
C1992 C1991 1.394 . S
C1992 C1993 1.516 . S
C1993 C1992 1.516 . S
C1993 C1994 1.502 . S
C1993 C1995 1.561 . S
C1993 C1996 1.526 . S
C1994 H1978 0.959 . S
C1994 H1979 0.959 . S
C1994 H1980 0.961 . S
C1994 C1993 1.502 . S
C1995 H1981 0.960 . S
C1995 H1982 0.961 1_545 S
C1995 H1983 0.959 . S
C1995 C1993 1.561 . S
C1996 C1993 1.526 . S
C1996 C1997 1.396 . S
C1996 C2001 1.390 . S
C1997 C1991 1.465 . S
C1997 C1996 1.396 . S
C1997 C1998 1.399 . S
C1998 H1984 0.929 . S
C1998 C1997 1.399 . S
C1998 C1999 1.385 . S
C1999 H1985 0.931 . S
C1999 C1998 1.385 . S
C1999 C2000 1.389 . S
C2000 C1999 1.389 . S
C2000 C2001 1.387 . S
C2001 H1986 0.930 . S
C2001 C1996 1.390 . S
C2001 C2000 1.387 . S
H2002 C2014 0.930 . S
H2003 C2016 0.930 . S
H2004 C2017 0.930 . S
H2005 C2021 0.959 . S
H2006 C2021 0.959 . S
H2007 C2021 0.961 . S
H2008 C2022 0.960 . S
H2009 C2022 0.961 . S
H2010 C2022 0.959 . S
H2011 C2025 0.929 . S
H2012 C2026 0.931 . S
H2013 C2028 0.930 . S
C2014 H2002 0.930 . S
C2014 C2015 1.399 . S
C2014 C2019 1.399 . S
C2015 C2014 1.399 . S
C2015 C2016 1.376 . S
C2016 H2003 0.930 . S
C2016 C2015 1.376 . S
C2016 C2017 1.388 . S
C2017 H2004 0.930 . S
C2017 C2016 1.388 . S
C2017 C2018 1.390 . S
C2018 C2017 1.390 . S
C2018 C2019 1.394 . S
C2018 C2024 1.465 . S
C2019 C2014 1.399 . S
C2019 C2018 1.394 . S
C2019 C2020 1.516 . S
C2020 C2019 1.516 . S
C2020 C2021 1.502 . S
C2020 C2022 1.561 . S
C2020 C2023 1.526 . S
C2021 H2005 0.959 . S
C2021 H2006 0.959 . S
C2021 H2007 0.961 . S
C2021 C2020 1.502 . S
C2022 H2008 0.960 . S
C2022 H2009 0.961 . S
C2022 H2010 0.959 . S
C2022 C2020 1.561 . S
C2023 C2020 1.526 . S
C2023 C2024 1.396 . S
C2023 C2028 1.390 . S
C2024 C2018 1.465 . S
C2024 C2023 1.396 . S
C2024 C2025 1.399 . S
C2025 H2011 0.929 . S
C2025 C2024 1.399 . S
C2025 C2026 1.385 . S
C2026 H2012 0.931 . S
C2026 C2025 1.385 . S
C2026 C2027 1.389 . S
C2027 C2026 1.389 . S
C2027 C2028 1.387 . S
C2028 H2013 0.930 . S
C2028 C2023 1.390 . S
C2028 C2027 1.387 . S
H2029 C2041 0.930 . S
H2030 C2043 0.930 . S
H2031 C2044 0.930 . S
H2032 C2048 0.959 . S
H2033 C2048 0.959 . S
H2034 C2048 0.961 . S
H2035 C2049 0.971 . S
H2036 C2049 0.961 . S
H2037 C2049 0.959 . S
H2038 C2052 0.929 . S
H2039 C2053 0.931 . S
H2040 C2055 0.930 . S
C2041 H2029 0.930 . S
C2041 C2042 1.399 . S
C2041 C2046 1.399 . S
C2042 C2041 1.399 . S
C2042 C2043 1.376 . S
C2043 H2030 0.930 . S
C2043 C2042 1.376 . S
C2043 C2044 1.388 . S
C2044 H2031 0.930 . S
C2044 C2043 1.388 . S
C2044 C2045 1.390 . S
C2045 C2044 1.390 . S
C2045 C2046 1.394 . S
C2045 C2051 1.465 . S
C2046 C2041 1.399 . S
C2046 C2045 1.394 . S
C2046 C2047 1.516 . S
C2047 C2046 1.516 . S
C2047 C2048 1.502 . S
C2047 C2049 1.561 . S
C2047 C2050 1.526 . S
C2048 H2032 0.959 . S
C2048 H2033 0.959 . S
C2048 H2034 0.961 . S
C2048 C2047 1.502 . S
C2049 H2035 0.971 . S
C2049 H2036 0.961 . S
C2049 H2037 0.959 . S
C2049 C2047 1.561 . S
C2050 C2047 1.526 . S
C2050 C2051 1.396 . S
C2050 C2055 1.390 . S
C2051 C2045 1.465 . S
C2051 C2050 1.396 . S
C2051 C2052 1.399 . S
C2052 H2038 0.929 . S
C2052 C2051 1.399 . S
C2052 C2053 1.385 . S
C2053 H2039 0.931 . S
C2053 C2052 1.385 . S
C2053 C2054 1.389 . S
C2054 C2053 1.389 . S
C2054 C2055 1.387 . S
C2055 H2040 0.930 . S
C2055 C2050 1.390 . S
C2055 C2054 1.387 . S
H2056 C2068 0.930 . S
H2057 C2070 0.930 . S
H2058 C2071 0.930 . S
H2059 C2075 0.959 . S
H2060 C2075 0.959 . S
H2061 C2075 0.961 . S
H2062 C2076 0.960 . S
H2063 C2076 0.961 . S
H2064 C2076 0.959 1_655 S
H2065 C2079 0.929 . S
H2066 C2080 0.931 . S
H2067 C2082 0.930 . S
C2068 H2056 0.930 . S
C2068 C2069 1.399 1_455 S
C2068 C2073 1.399 . S
C2069 C2068 1.399 1_655 S
C2069 C2070 1.376 . S
C2070 H2057 0.930 . S
C2070 C2069 1.376 . S
C2070 C2071 1.388 . S
C2071 H2058 0.930 . S
C2071 C2070 1.388 . S
C2071 C2072 1.390 . S
C2072 C2071 1.390 . S
C2072 C2073 1.394 1_655 S
C2072 C2078 1.465 . S
C2073 C2068 1.399 . S
C2073 C2072 1.394 1_455 S
C2073 C2074 1.516 . S
C2074 C2073 1.516 . S
C2074 C2075 1.502 . S
C2074 C2076 1.561 . S
C2074 C2077 1.526 . S
C2075 H2059 0.959 . S
C2075 H2060 0.959 . S
C2075 H2061 0.961 . S
C2075 C2074 1.502 . S
C2076 H2062 0.960 . S
C2076 H2063 0.961 . S
C2076 H2064 0.959 1_455 S
C2076 C2074 1.561 . S
C2077 C2074 1.526 . S
C2077 C2078 1.396 1_455 S
C2077 C2082 1.390 . S
C2078 C2072 1.465 . S
C2078 C2077 1.396 1_655 S
C2078 C2079 1.399 . S
C2079 H2065 0.929 . S
C2079 C2078 1.399 . S
C2079 C2080 1.385 . S
C2080 H2066 0.931 . S
C2080 C2079 1.385 . S
C2080 C2081 1.389 1_655 S
C2081 C2080 1.389 1_455 S
C2081 C2082 1.387 . S
C2082 H2067 0.930 . S
C2082 C2077 1.390 . S
C2082 C2081 1.387 . S
H2083 C2095 0.930 . S
H2084 C2097 0.930 . S
H2085 C2098 0.930 . S
H2086 C2102 0.959 . S
H2087 C2102 0.959 . S
H2088 C2102 0.961 . S
H2089 C2103 0.960 . S
H2090 C2103 0.961 . S
H2091 C2103 0.959 . S
H2092 C2106 0.929 . S
H2093 C2107 0.931 . S
H2094 C2109 0.930 . S
C2095 H2083 0.930 . S
C2095 C2096 1.399 . S
C2095 C2100 1.399 . S
C2096 C2095 1.399 . S
C2096 C2097 1.376 1_545 S
C2097 H2084 0.930 . S
C2097 C2096 1.376 1_565 S
C2097 C2098 1.388 . S
C2098 H2085 0.930 . S
C2098 C2097 1.388 . S
C2098 C2099 1.390 . S
C2099 C2098 1.390 . S
C2099 C2100 1.394 1_565 S
C2099 C2105 1.465 . S
C2100 C2095 1.399 . S
C2100 C2099 1.394 1_545 S
C2100 C2101 1.516 . S
C2101 C2100 1.516 . S
C2101 C2102 1.502 . S
C2101 C2103 1.561 . S
C2101 C2104 1.526 . S
C2102 H2086 0.959 . S
C2102 H2087 0.959 . S
C2102 H2088 0.961 . S
C2102 C2101 1.502 . S
C2103 H2089 0.960 . S
C2103 H2090 0.961 . S
C2103 H2091 0.959 . S
C2103 C2101 1.561 . S
C2104 C2101 1.526 . S
C2104 C2105 1.396 1_545 S
C2104 C2109 1.390 . S
C2105 C2099 1.465 . S
C2105 C2104 1.396 1_565 S
C2105 C2106 1.399 . S
C2106 H2092 0.929 . S
C2106 C2105 1.399 . S
C2106 C2107 1.385 . S
C2107 H2093 0.931 . S
C2107 C2106 1.385 . S
C2107 C2108 1.389 . S
C2108 C2107 1.389 . S
C2108 C2109 1.387 1_565 S
C2109 H2094 0.930 . S
C2109 C2104 1.390 . S
C2109 C2108 1.387 1_545 S
H2110 C2122 0.930 . S
H2111 C2124 0.930 . S
H2112 C2125 0.930 . S
H2113 C2129 0.959 . S
H2114 C2129 0.959 . S
H2115 C2129 0.961 . S
H2116 C2130 0.960 . S
H2117 C2130 0.961 . S
H2118 C2130 0.959 . S
H2119 C2133 0.929 . S
H2120 C2134 0.931 . S
H2121 C2136 0.930 . S
C2122 H2110 0.930 . S
C2122 C2123 1.399 1_455 S
C2122 C2127 1.400 . S
C2123 C2122 1.399 1_655 S
C2123 C2124 1.376 . S
C2124 H2111 0.930 . S
C2124 C2123 1.376 . S
C2124 C2125 1.388 . S
C2125 H2112 0.930 . S
C2125 C2124 1.388 . S
C2125 C2126 1.390 . S
C2126 C2125 1.390 . S
C2126 C2127 1.389 1_655 S
C2126 C2132 1.465 . S
C2127 C2122 1.400 . S
C2127 C2126 1.389 1_455 S
C2127 C2128 1.519 . S
C2128 C2127 1.519 . S
C2128 C2129 1.502 . S
C2128 C2130 1.561 1_455 S
C2128 C2131 1.526 . S
C2129 H2113 0.959 . S
C2129 H2114 0.959 . S
C2129 H2115 0.961 . S
C2129 C2128 1.502 . S
C2130 H2116 0.960 . S
C2130 H2117 0.961 . S
C2130 H2118 0.959 . S
C2130 C2128 1.561 1_655 S
C2131 C2128 1.526 . S
C2131 C2132 1.396 1_455 S
C2131 C2136 1.390 . S
C2132 C2126 1.465 . S
C2132 C2131 1.396 1_655 S
C2132 C2133 1.399 . S
C2133 H2119 0.929 . S
C2133 C2132 1.399 . S
C2133 C2134 1.385 . S
C2134 H2120 0.931 . S
C2134 C2133 1.385 . S
C2134 C2135 1.389 1_655 S
C2135 C2134 1.389 1_455 S
C2135 C2136 1.387 . S
C2136 H2121 0.930 . S
C2136 C2131 1.390 . S
C2136 C2135 1.387 . S
H2137 C2149 0.930 . S
H2138 C2151 0.930 . S
H2139 C2152 0.930 . S
H2140 C2156 0.959 . S
H2141 C2156 0.959 . S
H2142 C2156 0.961 . S
H2143 C2157 0.960 . S
H2144 C2157 0.961 . S
H2145 C2157 0.959 . S
H2146 C2160 0.929 . S
H2147 C2161 0.931 . S
H2148 C2163 0.930 . S
C2149 H2137 0.930 . S
C2149 C2150 1.399 1_545 S
C2149 C2154 1.399 . S
C2150 C2149 1.399 1_565 S
C2150 C2151 1.376 . S
C2151 H2138 0.930 . S
C2151 C2150 1.376 . S
C2151 C2152 1.388 . S
C2152 H2139 0.930 . S
C2152 C2151 1.388 . S
C2152 C2153 1.390 . S
C2153 C2152 1.390 . S
C2153 C2154 1.394 1_565 S
C2153 C2159 1.465 . S
C2154 C2149 1.399 . S
C2154 C2153 1.394 1_545 S
C2154 C2155 1.516 . S
C2155 C2154 1.516 . S
C2155 C2156 1.502 . S
C2155 C2157 1.561 . S
C2155 C2158 1.526 . S
C2156 H2140 0.959 . S
C2156 H2141 0.959 . S
C2156 H2142 0.961 . S
C2156 C2155 1.502 . S
C2157 H2143 0.960 . S
C2157 H2144 0.961 . S
C2157 H2145 0.959 . S
C2157 C2155 1.561 . S
C2158 C2155 1.526 . S
C2158 C2159 1.396 1_545 S
C2158 C2163 1.390 . S
C2159 C2153 1.465 . S
C2159 C2158 1.396 1_565 S
C2159 C2160 1.399 . S
C2160 H2146 0.929 . S
C2160 C2159 1.399 . S
C2160 C2161 1.385 . S
C2161 H2147 0.931 . S
C2161 C2160 1.385 . S
C2161 C2162 1.358 1_565 S
C2162 C2161 1.358 1_545 S
C2162 C2163 1.412 . S
C2163 H2148 0.930 . S
C2163 C2158 1.390 . S
C2163 C2162 1.412 . S
H2164 C2176 0.930 . S
H2165 C2178 0.930 . S
H2166 C2179 0.930 . S
H2167 C2183 0.959 . S
H2168 C2183 0.959 . S
H2169 C2183 0.961 1_556 S
H2170 C2184 0.964 . S
H2171 C2184 0.957 1_554 S
H2172 C2184 0.958 1_554 S
H2173 C2187 0.929 . S
H2174 C2188 0.931 . S
H2175 C2190 0.930 . S
C2176 H2164 0.930 . S
C2176 C2177 1.399 . S
C2176 C2181 1.399 . S
C2177 C2176 1.399 . S
C2177 C2178 1.376 . S
C2178 H2165 0.930 . S
C2178 C2177 1.376 . S
C2178 C2179 1.388 . S
C2179 H2166 0.930 . S
C2179 C2178 1.388 . S
C2179 C2180 1.390 . S
C2180 C2179 1.390 . S
C2180 C2181 1.394 . S
C2180 C2186 1.465 1_556 S
C2181 C2176 1.399 . S
C2181 C2180 1.394 . S
C2181 C2182 1.500 1_556 S
C2182 C2181 1.500 1_554 S
C2182 C2183 1.503 . S
C2182 C2184 1.561 1_554 S
C2182 C2185 1.542 . S
C2183 H2167 0.959 . S
C2183 H2168 0.959 . S
C2183 H2169 0.961 1_554 S
C2183 C2182 1.503 . S
C2184 H2170 0.964 . S
C2184 H2171 0.957 1_556 S
C2184 H2172 0.958 1_556 S
C2184 C2182 1.561 1_556 S
C2185 C2182 1.542 . S
C2185 C2186 1.396 . S
C2185 C2190 1.390 . S
C2186 C2180 1.465 1_554 S
C2186 C2185 1.396 . S
C2186 C2187 1.399 . S
C2187 H2173 0.929 . S
C2187 C2186 1.399 . S
C2187 C2188 1.385 . S
C2188 H2174 0.931 . S
C2188 C2187 1.385 . S
C2188 C2189 1.389 . S
C2189 C2188 1.389 . S
C2189 C2190 1.387 . S
C2190 H2175 0.930 . S
C2190 C2185 1.390 . S
C2190 C2189 1.387 . S
H2191 C2203 0.930 . S
H2192 C2205 0.930 . S
H2193 C2206 0.930 . S
H2194 C2210 0.959 . S
H2195 C2210 0.959 . S
H2196 C2210 0.961 1_556 S
H2197 C2211 0.960 1_556 S
H2198 C2211 0.961 . S
H2199 C2211 0.959 . S
H2200 C2214 0.929 . S
H2201 C2215 0.931 . S
H2202 C2217 0.930 . S
C2203 H2191 0.930 . S
C2203 C2204 1.399 . S
C2203 C2208 1.399 . S
C2204 C2203 1.399 . S
C2204 C2205 1.376 . S
C2205 H2192 0.930 . S
C2205 C2204 1.376 . S
C2205 C2206 1.388 . S
C2206 H2193 0.930 . S
C2206 C2205 1.388 . S
C2206 C2207 1.390 . S
C2207 C2206 1.390 . S
C2207 C2208 1.394 . S
C2207 C2213 1.465 1_556 S
C2208 C2203 1.399 . S
C2208 C2207 1.394 . S
C2208 C2209 1.516 1_556 S
C2209 C2208 1.516 1_554 S
C2209 C2210 1.502 . S
C2209 C2211 1.561 . S
C2209 C2212 1.526 . S
C2210 H2194 0.959 . S
C2210 H2195 0.959 . S
C2210 H2196 0.961 1_554 S
C2210 C2209 1.502 . S
C2211 H2197 0.960 1_554 S
C2211 H2198 0.961 . S
C2211 H2199 0.959 . S
C2211 C2209 1.561 . S
C2212 C2209 1.526 . S
C2212 C2213 1.396 . S
C2212 C2217 1.390 . S
C2213 C2207 1.465 1_554 S
C2213 C2212 1.396 . S
C2213 C2214 1.399 . S
C2214 H2200 0.929 . S
C2214 C2213 1.399 . S
C2214 C2215 1.385 . S
C2215 H2201 0.931 . S
C2215 C2214 1.385 . S
C2215 C2216 1.389 . S
C2216 C2215 1.389 . S
C2216 C2217 1.387 . S
C2217 H2202 0.930 . S
C2217 C2212 1.390 . S
C2217 C2216 1.387 . S
H2218 C2230 0.930 . S
H2219 C2232 0.930 . S
H2220 C2233 0.930 . S
H2221 C2237 0.959 1_556 S
H2222 C2237 0.959 1_556 S
H2223 C2237 0.961 . S
H2224 C2238 0.960 . S
H2225 C2238 0.961 1_556 S
H2226 C2238 0.959 1_556 S
H2227 C2241 0.929 . S
H2228 C2242 0.931 . S
H2229 C2244 0.930 . S
C2230 H2218 0.930 . S
C2230 C2231 1.399 . S
C2230 C2235 1.399 . S
C2231 C2230 1.399 . S
C2231 C2232 1.376 . S
C2232 H2219 0.930 . S
C2232 C2231 1.376 . S
C2232 C2233 1.388 . S
C2233 H2220 0.930 . S
C2233 C2232 1.388 . S
C2233 C2234 1.390 . S
C2234 C2233 1.390 . S
C2234 C2235 1.394 . S
C2234 C2240 1.465 1_554 S
C2235 C2230 1.399 . S
C2235 C2234 1.394 . S
C2235 C2236 1.563 . S
C2236 C2235 1.563 . S
C2236 C2237 1.504 . S
C2236 C2238 1.564 . S
C2236 C2239 1.477 1_554 S
C2237 H2221 0.959 1_554 S
C2237 H2222 0.959 1_554 S
C2237 H2223 0.961 . S
C2237 C2236 1.504 . S
C2238 H2224 0.960 . S
C2238 H2225 0.961 1_554 S
C2238 H2226 0.959 1_554 S
C2238 C2236 1.564 . S
C2239 C2236 1.477 1_556 S
C2239 C2240 1.396 . S
C2239 C2244 1.390 . S
C2240 C2234 1.465 1_556 S
C2240 C2239 1.396 . S
C2240 C2241 1.399 . S
C2241 H2227 0.929 . S
C2241 C2240 1.399 . S
C2241 C2242 1.385 . S
C2242 H2228 0.931 . S
C2242 C2241 1.385 . S
C2242 C2243 1.389 . S
C2243 C2242 1.389 . S
C2243 C2244 1.387 . S
C2244 H2229 0.930 . S
C2244 C2239 1.390 . S
C2244 C2243 1.387 . S
H2245 C2257 0.930 . S
H2246 C2259 0.930 . S
H2247 C2260 0.930 . S
H2248 C2264 0.961 . S
H2249 C2264 0.967 . S
H2250 C2264 0.952 1_556 S
H2251 C2265 0.960 . S
H2252 C2265 0.961 1_554 S
H2253 C2265 0.961 . S
H2254 C2268 0.929 . S
H2255 C2269 0.931 . S
H2256 C2271 0.930 . S
C2257 H2245 0.930 . S
C2257 C2258 1.399 . S
C2257 C2262 1.399 . S
C2258 C2257 1.399 . S
C2258 C2259 1.376 . S
C2259 H2246 0.930 . S
C2259 C2258 1.376 . S
C2259 C2260 1.388 . S
C2260 H2247 0.930 . S
C2260 C2259 1.388 . S
C2260 C2261 1.390 . S
C2261 C2260 1.390 . S
C2261 C2262 1.394 . S
C2261 C2267 1.465 1_556 S
C2262 C2257 1.399 . S
C2262 C2261 1.394 . S
C2262 C2263 1.536 . S
C2263 C2262 1.536 . S
C2263 C2264 1.501 1_556 S
C2263 C2265 1.563 . S
C2263 C2266 1.505 1_556 S
C2264 H2248 0.961 . S
C2264 H2249 0.967 . S
C2264 H2250 0.952 1_554 S
C2264 C2263 1.501 1_554 S
C2265 H2251 0.960 . S
C2265 H2252 0.961 1_556 S
C2265 H2253 0.961 . S
C2265 C2263 1.563 . S
C2266 C2263 1.505 1_554 S
C2266 C2267 1.396 . S
C2266 C2271 1.390 . S
C2267 C2261 1.465 1_554 S
C2267 C2266 1.396 . S
C2267 C2268 1.399 . S
C2268 H2254 0.929 . S
C2268 C2267 1.399 . S
C2268 C2269 1.385 . S
C2269 H2255 0.931 . S
C2269 C2268 1.385 . S
C2269 C2270 1.389 . S
C2270 C2269 1.389 . S
C2270 C2271 1.387 . S
C2271 H2256 0.930 . S
C2271 C2266 1.390 . S
C2271 C2270 1.387 . S
C1421 C20 1.620 . S
C1433 C293 1.584 . S
C1448 C49 1.505 . S
C1460 C117 1.625 . S
C1475 C137 1.602 . S
C1487 C196 1.618 . S
C1502 C225 1.515 . S
C1514 C313 1.620 . S
C1529 C409 1.626 . S
C1541 C497 1.556 . S
C1556 C460 1.622 . S
C1568 C557 1.542 . S
C1583 C585 1.621 . S
C1595 C636 1.590 . S
C1610 C673 1.613 . S
C1622 C381 1.542 . S
C1637 C724 1.630 . S
C1649 C988 1.538 . S
C1664 C753 1.506 . S
C1676 C821 1.627 . S
C1691 C841 1.598 . S
C1703 C900 1.619 . S
C1718 C1025 1.612 . S
C1730 C929 1.544 . S
C1745 C1201 1.597 . S
C1757 C1105 1.619 . S
C1772 C1261 1.506 . S
C1784 C1164 1.624 . S
C1799 C1289 1.620 . S
C1811 C1340 1.591 . S
C1826 C1377 1.626 . S
C1838 C1076 1.507 . S
C1853 C57 0.781 . S
C1865 C1369 0.774 . S
C1880 C108 0.826 . S
C1892 C1085 0.853 . S
C1907 C1173 0.834 . S
C1919 C233 0.859 . S
C1934 C321 0.838 . S
C1946 C1252 0.811 . S
C1961 C812 0.848 . S
C1973 C372 0.820 . S
C1988 C937 0.783 . S
C2000 C469 0.772 . S
C2015 C548 0.875 . S
C2027 C1017 0.872 . S
C2042 C665 0.822 . S
C2054 C761 0.799 . S
C2069 C29 1.444 . S
C2081 C577 1.425 . S
C2096 C645 1.416 . S
C2108 C145 1.436 . S
C2123 C401 1.435 . S
C2135 C205 1.422 . S
C2150 C489 1.475 . S
C2162 C284 1.460 . S
C2177 C733 1.459 . S
C2189 C1281 1.475 . S
C2204 C849 1.417 . S
C2216 C1349 1.438 . S
C2231 C1113 1.468 . S
C2243 C909 1.445 . S
C2258 C997 1.476 . S
C2270 C1193 1.472 . S
