# Generated by pormake.
# Topology afi, (4)-cn, num edge types: 1
# Building blocks:
#     Node 0, Type 0, BuildingBlock: ICAMEG_clean_sbu_1, # of connection points: 4
#     Node 1, Type 0, BuildingBlock: ICAMEG_clean_sbu_1, # of connection points: 4
#     Node 2, Type 0, BuildingBlock: ICAMEG_clean_sbu_1, # of connection points: 4
#     Node 3, Type 0, BuildingBlock: ICAMEG_clean_sbu_1, # of connection points: 4
#     Node 4, Type 0, BuildingBlock: ICAMEG_clean_sbu_1, # of connection points: 4
#     Node 5, Type 0, BuildingBlock: ICAMEG_clean_sbu_1, # of connection points: 4
#     Node 6, Type 0, BuildingBlock: ICAMEG_clean_sbu_1, # of connection points: 4
#     Node 7, Type 0, BuildingBlock: ICAMEG_clean_sbu_1, # of connection points: 4
#     Node 8, Type 0, BuildingBlock: ICAMEG_clean_sbu_1, # of connection points: 4
#     Node 9, Type 0, BuildingBlock: ICAMEG_clean_sbu_1, # of connection points: 4
#     Node 10, Type 0, BuildingBlock: ICAMEG_clean_sbu_1, # of connection points: 4
#     Node 11, Type 0, BuildingBlock: ICAMEG_clean_sbu_1, # of connection points: 4
#     Node 12, Type 0, BuildingBlock: ICAMEG_clean_sbu_1, # of connection points: 4
#     Node 13, Type 0, BuildingBlock: ICAMEG_clean_sbu_1, # of connection points: 4
#     Node 14, Type 0, BuildingBlock: ICAMEG_clean_sbu_1, # of connection points: 4
#     Node 15, Type 0, BuildingBlock: ICAMEG_clean_sbu_1, # of connection points: 4
#     Node 16, Type 0, BuildingBlock: ICAMEG_clean_sbu_1, # of connection points: 4
#     Node 17, Type 0, BuildingBlock: ICAMEG_clean_sbu_1, # of connection points: 4
#     Node 18, Type 0, BuildingBlock: ICAMEG_clean_sbu_1, # of connection points: 4
#     Node 19, Type 0, BuildingBlock: ICAMEG_clean_sbu_1, # of connection points: 4
#     Node 20, Type 0, BuildingBlock: ICAMEG_clean_sbu_1, # of connection points: 4
#     Node 21, Type 0, BuildingBlock: ICAMEG_clean_sbu_1, # of connection points: 4
#     Node 22, Type 0, BuildingBlock: ICAMEG_clean_sbu_1, # of connection points: 4
#     Node 23, Type 0, BuildingBlock: ICAMEG_clean_sbu_1, # of connection points: 4
#     Edge 24, Type (0, 0), BuildingBlock: CIFDUS_clean_linker_0, # of connection points: 2
#     Edge 25, Type (0, 0), BuildingBlock: CIFDUS_clean_linker_0, # of connection points: 2
#     Edge 26, Type (0, 0), BuildingBlock: CIFDUS_clean_linker_0, # of connection points: 2
#     Edge 27, Type (0, 0), BuildingBlock: CIFDUS_clean_linker_0, # of connection points: 2
#     Edge 28, Type (0, 0), BuildingBlock: CIFDUS_clean_linker_0, # of connection points: 2
#     Edge 29, Type (0, 0), BuildingBlock: CIFDUS_clean_linker_0, # of connection points: 2
#     Edge 30, Type (0, 0), BuildingBlock: CIFDUS_clean_linker_0, # of connection points: 2
#     Edge 31, Type (0, 0), BuildingBlock: CIFDUS_clean_linker_0, # of connection points: 2
#     Edge 32, Type (0, 0), BuildingBlock: CIFDUS_clean_linker_0, # of connection points: 2
#     Edge 33, Type (0, 0), BuildingBlock: CIFDUS_clean_linker_0, # of connection points: 2
#     Edge 34, Type (0, 0), BuildingBlock: CIFDUS_clean_linker_0, # of connection points: 2
#     Edge 35, Type (0, 0), BuildingBlock: CIFDUS_clean_linker_0, # of connection points: 2
#     Edge 36, Type (0, 0), BuildingBlock: CIFDUS_clean_linker_0, # of connection points: 2
#     Edge 37, Type (0, 0), BuildingBlock: CIFDUS_clean_linker_0, # of connection points: 2
#     Edge 38, Type (0, 0), BuildingBlock: CIFDUS_clean_linker_0, # of connection points: 2
#     Edge 39, Type (0, 0), BuildingBlock: CIFDUS_clean_linker_0, # of connection points: 2
#     Edge 40, Type (0, 0), BuildingBlock: CIFDUS_clean_linker_0, # of connection points: 2
#     Edge 41, Type (0, 0), BuildingBlock: CIFDUS_clean_linker_0, # of connection points: 2
#     Edge 42, Type (0, 0), BuildingBlock: CIFDUS_clean_linker_0, # of connection points: 2
#     Edge 43, Type (0, 0), BuildingBlock: CIFDUS_clean_linker_0, # of connection points: 2
#     Edge 44, Type (0, 0), BuildingBlock: CIFDUS_clean_linker_0, # of connection points: 2
#     Edge 45, Type (0, 0), BuildingBlock: CIFDUS_clean_linker_0, # of connection points: 2
#     Edge 46, Type (0, 0), BuildingBlock: CIFDUS_clean_linker_0, # of connection points: 2
#     Edge 47, Type (0, 0), BuildingBlock: CIFDUS_clean_linker_0, # of connection points: 2
#     Edge 48, Type (0, 0), BuildingBlock: CIFDUS_clean_linker_0, # of connection points: 2
#     Edge 49, Type (0, 0), BuildingBlock: CIFDUS_clean_linker_0, # of connection points: 2
#     Edge 50, Type (0, 0), BuildingBlock: CIFDUS_clean_linker_0, # of connection points: 2
#     Edge 51, Type (0, 0), BuildingBlock: CIFDUS_clean_linker_0, # of connection points: 2
#     Edge 52, Type (0, 0), BuildingBlock: CIFDUS_clean_linker_0, # of connection points: 2
#     Edge 53, Type (0, 0), BuildingBlock: CIFDUS_clean_linker_0, # of connection points: 2
#     Edge 54, Type (0, 0), BuildingBlock: CIFDUS_clean_linker_0, # of connection points: 2
#     Edge 55, Type (0, 0), BuildingBlock: CIFDUS_clean_linker_0, # of connection points: 2
#     Edge 56, Type (0, 0), BuildingBlock: CIFDUS_clean_linker_0, # of connection points: 2
#     Edge 57, Type (0, 0), BuildingBlock: CIFDUS_clean_linker_0, # of connection points: 2
#     Edge 58, Type (0, 0), BuildingBlock: CIFDUS_clean_linker_0, # of connection points: 2
#     Edge 59, Type (0, 0), BuildingBlock: CIFDUS_clean_linker_0, # of connection points: 2
#     Edge 60, Type (0, 0), BuildingBlock: CIFDUS_clean_linker_0, # of connection points: 2
#     Edge 61, Type (0, 0), BuildingBlock: CIFDUS_clean_linker_0, # of connection points: 2
#     Edge 62, Type (0, 0), BuildingBlock: CIFDUS_clean_linker_0, # of connection points: 2
#     Edge 63, Type (0, 0), BuildingBlock: CIFDUS_clean_linker_0, # of connection points: 2
#     Edge 64, Type (0, 0), BuildingBlock: CIFDUS_clean_linker_0, # of connection points: 2
#     Edge 65, Type (0, 0), BuildingBlock: CIFDUS_clean_linker_0, # of connection points: 2
#     Edge 66, Type (0, 0), BuildingBlock: CIFDUS_clean_linker_0, # of connection points: 2
#     Edge 67, Type (0, 0), BuildingBlock: CIFDUS_clean_linker_0, # of connection points: 2
#     Edge 68, Type (0, 0), BuildingBlock: CIFDUS_clean_linker_0, # of connection points: 2
#     Edge 69, Type (0, 0), BuildingBlock: CIFDUS_clean_linker_0, # of connection points: 2
#     Edge 70, Type (0, 0), BuildingBlock: CIFDUS_clean_linker_0, # of connection points: 2
#     Edge 71, Type (0, 0), BuildingBlock: CIFDUS_clean_linker_0, # of connection points: 2
# Relax obj value: 0.122
# Max RMSD: 0.172
# Mean RMSD: 0.172
data_MOF--net-afi--node1-ICAMEG_clean_sbu_1--edge1-CIFDUS_clean_linker_0
_symmetry_space_group_name_H-M    P1
_symmetry_Int_Tables_number       1
_symmetry_cell_setting            triclinic
loop_
_symmetry_equiv_pos_as_xyz
'x, y, z'
_cell_length_a     61.455277
_cell_length_b     61.457823
_cell_length_c     39.15207
_cell_angle_alpha  89.851711
_cell_angle_beta   90.030163
_cell_angle_gamma 119.99873
loop_
_atom_site_label
_atom_site_type_symbol
_atom_site_fract_x
_atom_site_fract_y
_atom_site_fract_z
_atom_type_partial_charge
Co0 Co 0.48387 0.11829 0.16398 0.0
Co1 Co 0.46721 0.13298 0.2409 0.0
O2 O 0.46973 0.13535 0.19076 0.0
C3 C 0.44719 0.09324 0.10769 0.0
O4 O 0.44454 0.07184 0.11873 0.0
C5 C 0.48977 0.1881 0.22697 0.0
O6 O 0.50245 0.18613 0.20141 0.0
O7 O 0.5036 0.14412 0.24464 0.0
O8 O 0.50886 0.12378 0.20076 0.0
H9 H 0.48217 0.10764 0.3568 0.0
H10 H 0.47957 0.15977 0.13206 0.0
O11 O 0.45981 0.11311 0.12547 0.0
H12 H 0.56984 0.18714 0.12773 0.0
H13 H 0.5174 0.09895 0.05755 0.0
H14 H 0.49779 0.07969 0.17982 0.0
H15 H 0.53953 0.14609 0.15251 0.0
H16 H 0.50006 0.12068 0.09104 0.0
O17 O 0.47509 0.16888 0.24466 0.0
H18 H 0.48462 0.11065 0.29397 0.0
H19 H 0.44497 0.15083 0.29413 0.0
H20 H 0.51522 0.0576 0.14728 0.0
H21 H 0.50915 0.20073 0.10627 0.0
H22 H 0.52512 0.06715 0.08567 0.0
H23 H 0.55468 0.21474 0.10415 0.0
O24 O 0.45918 0.08531 0.18548 0.0
H25 H 0.39287 0.13751 0.19657 0.0
H26 H 0.42028 0.09082 0.27088 0.0
H27 H 0.37509 0.07636 0.26546 0.0
H28 H 0.36113 0.09983 0.22819 0.0
H29 H 0.43789 0.15117 0.20248 0.0
H30 H 0.44231 0.14844 0.35699 0.0
H31 H 0.4609 0.12663 0.38875 0.0
O32 O 0.45891 0.09705 0.23964 0.0
C33 C 0.51626 0.13608 0.22863 0.0
C34 C 0.47394 0.11714 0.34325 0.0
C35 C 0.4516 0.14006 0.34335 0.0
N36 N 0.46483 0.13077 0.29035 0.0
C37 C 0.47521 0.11885 0.30766 0.0
C38 C 0.45323 0.14141 0.30775 0.0
C39 C 0.46203 0.12782 0.36116 0.0
C40 C 0.49931 0.16557 0.13089 0.0
N41 N 0.50778 0.1505 0.1439 0.0
C42 C 0.51599 0.18887 0.11641 0.0
C43 C 0.54153 0.19674 0.1153 0.0
C44 C 0.55006 0.18128 0.12858 0.0
C45 C 0.53282 0.15812 0.14287 0.0
C46 C 0.51315 0.09461 0.08438 0.0
C47 C 0.50203 0.08396 0.15302 0.0
C48 C 0.5033 0.10684 0.10349 0.0
N49 N 0.49779 0.1014 0.13739 0.0
C50 C 0.51192 0.0714 0.13473 0.0
C51 C 0.51747 0.07677 0.10017 0.0
C52 C 0.45386 0.08019 0.21716 0.0
C53 C 0.39872 0.12717 0.21296 0.0
C54 C 0.41436 0.10107 0.25448 0.0
C55 C 0.38874 0.09283 0.25159 0.0
C56 C 0.38092 0.10601 0.23068 0.0
N57 N 0.43171 0.12191 0.23714 0.0
C58 C 0.42418 0.13486 0.21648 0.0
Co59 Co 0.37546 0.47839 0.1624 0.0
Co60 Co 0.34297 0.46068 0.23872 0.0
O61 O 0.34371 0.46394 0.18838 0.0
C62 C 0.33708 0.43778 0.1146 0.0
O63 O 0.31827 0.43063 0.136 0.0
C64 C 0.31055 0.48355 0.22587 0.0
O65 O 0.32549 0.49697 0.20088 0.0
O66 O 0.36779 0.49709 0.24341 0.0
O67 O 0.39371 0.50337 0.19952 0.0
H68 H 0.38185 0.47472 0.35535 0.0
H69 H 0.32924 0.47579 0.13283 0.0
O70 O 0.35923 0.45466 0.12297 0.0
H71 H 0.39553 0.56439 0.12195 0.0
H72 H 0.43002 0.50864 0.05708 0.0
H73 H 0.42808 0.49454 0.18137 0.0
H74 H 0.40482 0.53335 0.14763 0.0
H75 H 0.39031 0.49179 0.08914 0.0
O76 O 0.31474 0.4682 0.24248 0.0
H77 H 0.38204 0.47799 0.29257 0.0
H78 H 0.30223 0.43714 0.29109 0.0
H79 H 0.46827 0.51178 0.15032 0.0
H80 H 0.31928 0.50598 0.10625 0.0
H81 H 0.46941 0.51891 0.08771 0.0
H82 H 0.35251 0.55075 0.10075 0.0
O83 O 0.3835 0.45372 0.18396 0.0
H84 H 0.26467 0.38662 0.19293 0.0
H85 H 0.33848 0.41346 0.26735 0.0
H86 H 0.30815 0.36829 0.26069 0.0
H87 H 0.27088 0.35461 0.22333 0.0
H88 H 0.29563 0.43162 0.20007 0.0
H89 H 0.30119 0.43362 0.35389 0.0
H90 H 0.34121 0.45241 0.38644 0.0
O91 O 0.37087 0.45271 0.23789 0.0
C92 C 0.38837 0.51037 0.22737 0.0
C93 C 0.36428 0.46639 0.34145 0.0
C94 C 0.31902 0.44335 0.34063 0.0
N95 N 0.34219 0.45762 0.28813 0.0
C96 C 0.36427 0.46813 0.30588 0.0
C97 C 0.31973 0.44545 0.30506 0.0
C98 C 0.34148 0.45389 0.35888 0.0
C99 C 0.344 0.49499 0.12996 0.0
N100 N 0.36774 0.50254 0.1414 0.0
C101 C 0.33815 0.51213 0.11513 0.0
C102 C 0.35677 0.53725 0.11215 0.0
C103 C 0.38089 0.54491 0.12408 0.0
C104 C 0.38602 0.52723 0.13877 0.0
C105 C 0.42977 0.50566 0.08437 0.0
C106 C 0.42844 0.49776 0.15417 0.0
C107 C 0.40732 0.49602 0.10267 0.0
N108 N 0.40687 0.4923 0.13719 0.0
C109 C 0.45125 0.50746 0.13671 0.0
C110 C 0.45187 0.51143 0.10157 0.0
C111 C 0.38291 0.44794 0.21543 0.0
C112 C 0.28081 0.39235 0.20932 0.0
C113 C 0.32241 0.40767 0.25086 0.0
C114 C 0.30524 0.38206 0.24729 0.0
C115 C 0.28432 0.37439 0.22635 0.0
N116 N 0.31881 0.42516 0.23409 0.0
C117 C 0.29837 0.41779 0.21352 0.0
Co118 Co 0.91245 0.37987 0.15823 0.0
Co119 Co 0.89605 0.33955 0.22788 0.0
O120 O 0.89506 0.34608 0.17865 0.0
C121 C 0.91931 0.34733 0.10465 0.0
O122 O 0.90656 0.32632 0.12192 0.0
C123 C 0.84206 0.30986 0.24638 0.0
O124 O 0.84691 0.3271 0.26957 0.0
O125 O 0.88638 0.36511 0.24009 0.0
O126 O 0.90247 0.39346 0.1976 0.0
H127 H 0.91889 0.36341 0.35085 0.0
H128 H 0.87106 0.3352 0.1226 0.0
O129 O 0.92314 0.36816 0.11691 0.0
H130 H 0.84651 0.40014 0.11882 0.0
H131 H 0.94036 0.44355 0.06275 0.0
H132 H 0.94569 0.43074 0.18619 0.0
H133 H 0.88605 0.40878 0.14633 0.0
H134 H 0.91729 0.40107 0.08781 0.0
O135 O 0.85943 0.31246 0.2259 0.0
H136 H 0.91746 0.37133 0.28935 0.0
H137 H 0.87663 0.29286 0.27019 0.0
H138 H 0.9688 0.4736 0.16221 0.0
H139 H 0.83168 0.32593 0.09433 0.0
H140 H 0.96624 0.4802 0.10006 0.0
H141 H 0.81906 0.3585 0.09228 0.0
O142 O 0.94447 0.38748 0.1815 0.0
H143 H 0.8884 0.26524 0.16395 0.0
H144 H 0.93706 0.32999 0.25009 0.0
H145 H 0.94996 0.29924 0.23454 0.0
H146 H 0.92549 0.26649 0.19128 0.0
H147 H 0.87634 0.29658 0.17992 0.0
H148 H 0.87757 0.28407 0.3315 0.0
H149 H 0.89882 0.3195 0.37231 0.0
O150 O 0.93229 0.36617 0.23104 0.0
C151 C 0.89153 0.38599 0.22636 0.0
C152 C 0.90954 0.34781 0.33334 0.0
C153 C 0.88636 0.30329 0.32248 0.0
N154 N 0.8969 0.33262 0.2762 0.0
C155 C 0.90865 0.35219 0.29849 0.0
C156 C 0.88587 0.30839 0.2878 0.0
C157 C 0.89829 0.32317 0.34536 0.0
C158 C 0.86611 0.34968 0.12143 0.0
N159 N 0.88131 0.37272 0.13561 0.0
C160 C 0.84358 0.34423 0.10555 0.0
C161 C 0.83648 0.36248 0.10447 0.0
C162 C 0.85186 0.38582 0.11935 0.0
C163 C 0.87424 0.39059 0.13499 0.0
C164 C 0.94159 0.44092 0.08988 0.0
C165 C 0.94432 0.43348 0.15916 0.0
C166 C 0.92865 0.41689 0.10422 0.0
N167 N 0.93 0.41342 0.13852 0.0
C168 C 0.95751 0.45778 0.14571 0.0
C169 C 0.9561 0.46147 0.11083 0.0
C170 C 0.94915 0.38237 0.21132 0.0
C171 C 0.89918 0.27938 0.18289 0.0
C172 C 0.92643 0.31595 0.23103 0.0
C173 C 0.93376 0.2985 0.22244 0.0
C174 C 0.92001 0.28011 0.1982 0.0
N175 N 0.90592 0.31506 0.21597 0.0
C176 C 0.89238 0.29712 0.19213 0.0
Co177 Co 0.54262 0.90345 0.16343 0.0
Co178 Co 0.56531 0.88889 0.23621 0.0
O179 O 0.55882 0.88655 0.18629 0.0
C180 C 0.58284 0.90991 0.11078 0.0
O181 O 0.59134 0.8975 0.12836 0.0
C182 C 0.54095 0.8334 0.22174 0.0
O183 O 0.52828 0.83569 0.1964 0.0
O184 O 0.5298 0.87919 0.24681 0.0
O185 O 0.51888 0.89488 0.20243 0.0
H186 H 0.56213 0.91615 0.35615 0.0
H187 H 0.54667 0.86228 0.12877 0.0
O188 O 0.56535 0.91318 0.12251 0.0
H189 H 0.45671 0.83588 0.12583 0.0
H190 H 0.50712 0.92806 0.06404 0.0
H191 H 0.52492 0.93761 0.18763 0.0
H192 H 0.48723 0.87599 0.15233 0.0
H193 H 0.52655 0.90597 0.09194 0.0
O194 O 0.55617 0.85251 0.23909 0.0
H195 H 0.55418 0.91283 0.29414 0.0
H196 H 0.59056 0.86991 0.28309 0.0
H197 H 0.50514 0.95975 0.16079 0.0
H198 H 0.517 0.82242 0.10121 0.0
H199 H 0.49614 0.95508 0.09856 0.0
H200 H 0.47156 0.80882 0.09973 0.0
O201 O 0.56688 0.93611 0.1851 0.0
H202 H 0.63329 0.88029 0.17756 0.0
H203 H 0.61534 0.93021 0.25932 0.0
H204 H 0.65933 0.94288 0.246 0.0
H205 H 0.66853 0.91779 0.20493 0.0
H206 H 0.58957 0.86843 0.19137 0.0
H207 H 0.59869 0.87257 0.34504 0.0
H208 H 0.58452 0.8959 0.38201 0.0
O209 O 0.57491 0.92517 0.23624 0.0
C210 C 0.51474 0.88476 0.2319 0.0
C211 C 0.56844 0.90596 0.34031 0.0
C212 C 0.58892 0.88148 0.33407 0.0
N213 N 0.57195 0.89127 0.28495 0.0
C214 C 0.56403 0.90406 0.30515 0.0
C215 C 0.58419 0.87998 0.29901 0.0
C216 C 0.58098 0.89458 0.3548 0.0
C217 C 0.52712 0.8569 0.12772 0.0
N218 N 0.51887 0.87176 0.14196 0.0
C219 C 0.5103 0.8341 0.11231 0.0
C220 C 0.48481 0.82645 0.11157 0.0
C221 C 0.47647 0.84159 0.12626 0.0
C222 C 0.49384 0.86425 0.14146 0.0
C223 C 0.51091 0.93021 0.0912 0.0
C224 C 0.52089 0.93531 0.16058 0.0
C225 C 0.522 0.91782 0.10714 0.0
N226 N 0.52674 0.92035 0.14148 0.0
C227 C 0.50976 0.94797 0.1455 0.0
C228 C 0.50474 0.94536 0.11058 0.0
C229 C 0.57621 0.94157 0.21509 0.0
C230 C 0.62952 0.89133 0.19557 0.0
C231 C 0.61918 0.91926 0.24129 0.0
C232 C 0.64413 0.92649 0.23393 0.0
C233 C 0.64929 0.91239 0.2109 0.0
N234 N 0.5999 0.89852 0.22623 0.0
C235 C 0.60481 0.88465 0.20358 0.0
Co236 Co 0.65299 0.53866 0.16754 0.0
Co237 Co 0.68246 0.55757 0.24566 0.0
O238 O 0.68339 0.55376 0.19595 0.0
C239 C 0.66574 0.57522 0.11077 0.0
O240 O 0.64679 0.57782 0.12086 0.0
C241 C 0.7133 0.53277 0.23818 0.0
O242 O 0.69747 0.51807 0.21483 0.0
O243 O 0.65696 0.52138 0.25089 0.0
O244 O 0.63287 0.51405 0.20443 0.0
H245 H 0.64006 0.54602 0.35936 0.0
H246 H 0.70023 0.54364 0.14028 0.0
O247 O 0.67254 0.56237 0.12899 0.0
H248 H 0.63887 0.45291 0.13674 0.0
H249 H 0.60374 0.50343 0.05872 0.0
H250 H 0.59967 0.52345 0.17962 0.0
H251 H 0.62642 0.48293 0.15749 0.0
H252 H 0.64176 0.52185 0.0946 0.0
O253 O 0.71015 0.5496 0.25238 0.0
H254 H 0.64177 0.5418 0.29696 0.0
H255 H 0.72154 0.58107 0.29998 0.0
H256 H 0.56115 0.50489 0.14468 0.0
H257 H 0.71341 0.51433 0.11874 0.0
H258 H 0.56304 0.49479 0.08375 0.0
H259 H 0.68265 0.46859 0.11701 0.0
O260 O 0.64331 0.56304 0.18622 0.0
H261 H 0.76257 0.63045 0.20135 0.0
H262 H 0.68683 0.60536 0.27113 0.0
H263 H 0.71788 0.65034 0.26403 0.0
H264 H 0.75613 0.66313 0.22903 0.0
H265 H 0.73089 0.58567 0.20887 0.0
H266 H 0.72069 0.58549 0.36247 0.0
H267 H 0.67973 0.56798 0.39257 0.0
O268 O 0.65501 0.56588 0.24111 0.0
C269 C 0.63696 0.50783 0.23384 0.0
C270 C 0.65803 0.55379 0.34654 0.0
C271 C 0.70328 0.57591 0.34828 0.0
N272 N 0.68171 0.56132 0.29479 0.0
C273 C 0.65911 0.55153 0.31119 0.0
C274 C 0.70363 0.57329 0.31289 0.0
C275 C 0.68029 0.56609 0.36515 0.0
C276 C 0.68666 0.52379 0.1393 0.0
N277 N 0.66256 0.51502 0.15021 0.0
C278 C 0.69427 0.50727 0.12721 0.0
C279 C 0.67702 0.4816 0.12631 0.0
C280 C 0.65247 0.47279 0.13743 0.0
C281 C 0.64555 0.48987 0.14939 0.0
C282 C 0.60267 0.50775 0.08523 0.0
C283 C 0.60065 0.51908 0.15314 0.0
C284 C 0.62415 0.51821 0.10568 0.0
N285 N 0.62298 0.5238 0.1392 0.0
C286 C 0.57877 0.50857 0.13348 0.0
C287 C 0.57984 0.50291 0.09929 0.0
C288 C 0.64311 0.56955 0.21718 0.0
C289 C 0.74601 0.62511 0.21673 0.0
C290 C 0.70336 0.61078 0.25572 0.0
C291 C 0.72091 0.63628 0.25187 0.0
C292 C 0.74237 0.64344 0.23224 0.0
N293 N 0.70712 0.59291 0.24055 0.0
C294 C 0.72805 0.59979 0.22115 0.0
Co295 Co 0.11464 0.6372 0.16109 0.0
Co296 Co 0.14007 0.68015 0.22722 0.0
O297 O 0.13627 0.67154 0.17828 0.0
C298 C 0.10882 0.67049 0.10756 0.0
O299 O 0.1239 0.69144 0.12361 0.0
C300 C 0.19475 0.70819 0.23912 0.0
O301 O 0.19018 0.69227 0.26426 0.0
O302 O 0.14863 0.65343 0.23751 0.0
O303 O 0.12561 0.62333 0.19932 0.0
H304 H 0.12775 0.66111 0.35301 0.0
H305 H 0.15625 0.67846 0.12028 0.0
O306 O 0.10296 0.64925 0.1208 0.0
H307 H 0.17047 0.60659 0.11249 0.0
H308 H 0.07399 0.56974 0.07141 0.0
H309 H 0.08022 0.5886 0.19455 0.0
H310 H 0.13466 0.60305 0.14516 0.0
H311 H 0.10223 0.6127 0.09219 0.0
O312 O 0.17685 0.70537 0.21955 0.0
H313 H 0.12346 0.65085 0.29167 0.0
H314 H 0.16428 0.72847 0.26641 0.0
H315 H 0.05201 0.54529 0.17486 0.0
H316 H 0.19189 0.68263 0.08685 0.0
H317 H 0.04872 0.53564 0.11288 0.0
H318 H 0.19932 0.64656 0.08273 0.0
O319 O 0.08552 0.63353 0.18891 0.0
H320 H 0.14725 0.75425 0.16269 0.0
H321 H 0.10302 0.69348 0.25544 0.0
H322 H 0.09138 0.72551 0.24184 0.0
H323 H 0.11363 0.75627 0.19526 0.0
H324 H 0.15808 0.72168 0.17682 0.0
H325 H 0.16899 0.73957 0.32749 0.0
H326 H 0.15068 0.70576 0.37129 0.0
O327 O 0.10401 0.65544 0.23628 0.0
C328 C 0.13986 0.63132 0.22545 0.0
C329 C 0.13584 0.67602 0.33418 0.0
C330 C 0.15896 0.72005 0.31986 0.0
N331 N 0.14367 0.68899 0.27543 0.0
C332 C 0.1335 0.67031 0.2994 0.0
C333 C 0.1562 0.71364 0.2853 0.0
C334 C 0.14869 0.70107 0.34441 0.0
C335 C 0.15888 0.66247 0.1183 0.0
N336 N 0.14284 0.64033 0.13429 0.0
C337 C 0.17933 0.66504 0.09945 0.0
C338 C 0.18353 0.64482 0.09722 0.0
C339 C 0.16737 0.62242 0.11391 0.0
C340 C 0.14711 0.62055 0.1325 0.0
C341 C 0.07526 0.57371 0.09849 0.0
C342 C 0.07904 0.58453 0.16756 0.0
C343 C 0.09113 0.59804 0.11042 0.0
N344 N 0.09297 0.60318 0.14462 0.0
C345 C 0.06297 0.55998 0.15655 0.0
C346 C 0.06111 0.55458 0.12176 0.0
C347 C 0.0846 0.63976 0.21979 0.0
C348 C 0.13746 0.74099 0.1831 0.0
C349 C 0.11265 0.70663 0.23492 0.0
C350 C 0.10605 0.72481 0.22745 0.0
C351 C 0.11857 0.74209 0.20134 0.0
N352 N 0.13126 0.70571 0.21696 0.0
C353 C 0.14357 0.72256 0.1913 0.0
Co354 Co 0.91365 0.53922 0.35566 0.0
Co355 Co 0.88905 0.5542 0.28596 0.0
O356 O 0.89259 0.5521 0.33602 0.0
C357 C 0.91954 0.57939 0.40752 0.0
O358 O 0.90472 0.58543 0.39096 0.0
C359 C 0.83682 0.53844 0.31386 0.0
O360 O 0.84302 0.53623 0.34518 0.0
O361 O 0.87796 0.51791 0.28099 0.0
O362 O 0.90329 0.51368 0.31834 0.0
H363 H 0.90068 0.53813 0.16331 0.0
H364 H 0.87299 0.54043 0.39664 0.0
O365 O 0.92501 0.56356 0.39503 0.0
H366 H 0.85585 0.45336 0.40506 0.0
H367 H 0.9517 0.51267 0.4497 0.0
H368 H 0.94845 0.52426 0.32549 0.0
H369 H 0.89216 0.48491 0.37232 0.0
H370 H 0.92439 0.5277 0.42606 0.0
O371 O 0.85281 0.54525 0.28973 0.0
H372 H 0.90498 0.53638 0.2257 0.0
H373 H 0.86534 0.57577 0.2407 0.0
H374 H 0.97575 0.50884 0.34807 0.0
H375 H 0.83691 0.50978 0.43029 0.0
H376 H 0.97753 0.50299 0.41059 0.0
H377 H 0.82796 0.46574 0.43464 0.0
O378 O 0.94323 0.56411 0.32808 0.0
H379 H 0.88998 0.62904 0.33949 0.0
H380 H 0.92668 0.60083 0.25005 0.0
H381 H 0.9415 0.646 0.25625 0.0
H382 H 0.92303 0.66038 0.30113 0.0
H383 H 0.87594 0.58413 0.33266 0.0
H384 H 0.86041 0.57773 0.17847 0.0
H385 H 0.87825 0.55892 0.13929 0.0
O386 O 0.9247 0.56297 0.27839 0.0
C387 C 0.88781 0.50567 0.29349 0.0
C388 C 0.8929 0.54647 0.1801 0.0
C389 C 0.87027 0.56867 0.18862 0.0
N390 N 0.8856 0.55611 0.23687 0.0
C391 C 0.89533 0.5456 0.21547 0.0
C392 C 0.87308 0.56744 0.22385 0.0
C393 C 0.88029 0.55811 0.16665 0.0
C394 C 0.86964 0.52157 0.39862 0.0
N395 N 0.88498 0.51472 0.38243 0.0
C396 C 0.84897 0.50414 0.41763 0.0
C397 C 0.84391 0.47944 0.42 0.0
C398 C 0.85952 0.47248 0.40338 0.0
C399 C 0.88 0.49044 0.38461 0.0
C400 C 0.95108 0.51514 0.4224 0.0
C401 C 0.94899 0.52162 0.35272 0.0
C402 C 0.93574 0.52377 0.40885 0.0
N403 N 0.93473 0.5268 0.37436 0.0
C404 C 0.96454 0.51295 0.36536 0.0
C405 C 0.96556 0.50969 0.40045 0.0
C406 C 0.94418 0.56855 0.29607 0.0
C407 C 0.89807 0.623 0.3197 0.0
C408 C 0.91856 0.6069 0.26971 0.0
C409 C 0.92701 0.63252 0.27305 0.0
C410 C 0.91664 0.64058 0.29822 0.0
N411 N 0.90017 0.58972 0.2907 0.0
C412 C 0.89007 0.59752 0.31558 0.0
Co413 Co 0.38344 0.9085 0.36542 0.0
Co414 Co 0.34804 0.89312 0.29175 0.0
O415 O 0.35142 0.89087 0.34112 0.0
C416 C 0.37278 0.93373 0.42271 0.0
O417 O 0.39136 0.95518 0.41154 0.0
C418 C 0.31969 0.83991 0.26973 0.0
O419 O 0.33642 0.84624 0.24526 0.0
O420 O 0.37465 0.88423 0.28339 0.0
O421 O 0.40142 0.90249 0.32712 0.0
H422 H 0.37995 0.91909 0.17189 0.0
H423 H 0.33845 0.86635 0.3978 0.0
O424 O 0.36567 0.9138 0.40516 0.0
H425 H 0.40302 0.84113 0.40069 0.0
H426 H 0.44009 0.93031 0.46832 0.0
H427 H 0.43525 0.94683 0.34602 0.0
H428 H 0.41262 0.88203 0.37644 0.0
H429 H 0.39986 0.90772 0.43741 0.0
O430 O 0.32167 0.85627 0.29153 0.0
H431 H 0.38375 0.91571 0.23412 0.0
H432 H 0.30428 0.87518 0.24407 0.0
H433 H 0.4759 0.96976 0.37593 0.0
H434 H 0.32812 0.82544 0.42282 0.0
H435 H 0.47849 0.96157 0.43754 0.0
H436 H 0.36051 0.81255 0.4243 0.0
O437 O 0.39081 0.94124 0.34384 0.0
H438 H 0.26979 0.88288 0.34745 0.0
H439 H 0.33886 0.934 0.26747 0.0
H440 H 0.30678 0.94588 0.27929 0.0
H441 H 0.27185 0.92017 0.31941 0.0
H442 H 0.30246 0.87183 0.33523 0.0
H443 H 0.29962 0.87813 0.18192 0.0
H444 H 0.33764 0.90021 0.14539 0.0
O445 O 0.37423 0.92954 0.29134 0.0
C446 C 0.39556 0.89117 0.2984 0.0
C447 C 0.36324 0.90942 0.18753 0.0
C448 C 0.31816 0.88645 0.19317 0.0
N449 N 0.34428 0.89527 0.24273 0.0
C450 C 0.36528 0.90744 0.22279 0.0
C451 C 0.32092 0.88486 0.22834 0.0
C452 C 0.3395 0.89883 0.17268 0.0
C453 C 0.3527 0.86095 0.39847 0.0
N454 N 0.37613 0.87659 0.38553 0.0
C455 C 0.34671 0.83772 0.41262 0.0
C456 C 0.36488 0.83049 0.4134 0.0
C457 C 0.38872 0.8465 0.40012 0.0
C458 C 0.39401 0.86957 0.38617 0.0
C459 C 0.4392 0.93405 0.44148 0.0
C460 C 0.43622 0.94315 0.37282 0.0
C461 C 0.41646 0.92134 0.42383 0.0
N462 N 0.41517 0.926 0.38992 0.0
C463 C 0.45929 0.95619 0.38963 0.0
C464 C 0.46074 0.95159 0.42419 0.0
C465 C 0.38806 0.94633 0.31292 0.0
C466 C 0.28487 0.89418 0.32983 0.0
C467 C 0.32382 0.92279 0.28513 0.0
C468 C 0.30565 0.92957 0.29163 0.0
C469 C 0.28605 0.91512 0.31412 0.0
N470 N 0.32243 0.90211 0.30047 0.0
C471 C 0.30336 0.88795 0.32271 0.0
Co472 Co 0.48129 0.37286 0.35965 0.0
Co473 Co 0.46125 0.33847 0.28464 0.0
O474 O 0.46626 0.34072 0.33472 0.0
C475 C 0.441 0.33547 0.40885 0.0
O476 O 0.43333 0.31649 0.38771 0.0
C477 C 0.48682 0.30857 0.29729 0.0
O478 O 0.50071 0.32476 0.3208 0.0
O479 O 0.49706 0.36439 0.2767 0.0
O480 O 0.50581 0.3901 0.32163 0.0
H481 H 0.46846 0.37337 0.16629 0.0
H482 H 0.47834 0.3266 0.38988 0.0
O483 O 0.45798 0.35746 0.39989 0.0
H484 H 0.56723 0.39235 0.39919 0.0
H485 H 0.51326 0.42905 0.46304 0.0
H486 H 0.49809 0.42532 0.33892 0.0
H487 H 0.53629 0.40189 0.37384 0.0
H488 H 0.49555 0.38879 0.43236 0.0
O489 O 0.47028 0.31125 0.28127 0.0
H490 H 0.4744 0.37568 0.22873 0.0
H491 H 0.43746 0.29607 0.23498 0.0
H492 H 0.5162 0.46606 0.36857 0.0
H493 H 0.50842 0.31639 0.41618 0.0
H494 H 0.52387 0.4681 0.43108 0.0
H495 H 0.55334 0.34934 0.42086 0.0
O496 O 0.45678 0.38122 0.33822 0.0
H497 H 0.39112 0.25964 0.33639 0.0
H498 H 0.41214 0.33123 0.25959 0.0
H499 H 0.36771 0.29964 0.26968 0.0
H500 H 0.35695 0.26348 0.30824 0.0
H501 H 0.43533 0.29183 0.32585 0.0
H502 H 0.43133 0.2929 0.17257 0.0
H503 H 0.44679 0.33174 0.13779 0.0
O504 O 0.45192 0.36536 0.28543 0.0
C505 C 0.51123 0.38481 0.29251 0.0
C506 C 0.46159 0.3563 0.18117 0.0
C507 C 0.44078 0.31115 0.18469 0.0
N508 N 0.45621 0.33605 0.23553 0.0
C509 C 0.46486 0.3575 0.21655 0.0
C510 C 0.44438 0.31307 0.22002 0.0
C511 C 0.44945 0.33294 0.16519 0.0
C512 C 0.49762 0.34124 0.39236 0.0
N513 N 0.50532 0.36496 0.38056 0.0
C514 C 0.51469 0.33526 0.40705 0.0
C515 C 0.5399 0.35372 0.40957 0.0
C516 C 0.5477 0.37782 0.39737 0.0
C517 C 0.53008 0.38309 0.38283 0.0
C518 C 0.51004 0.42841 0.43578 0.0
C519 C 0.50155 0.42607 0.36608 0.0
C520 C 0.49991 0.40564 0.41826 0.0
N521 N 0.4959 0.40469 0.38379 0.0
C522 C 0.51173 0.44919 0.38275 0.0
C523 C 0.516 0.45031 0.41783 0.0
C524 C 0.44914 0.37905 0.30739 0.0
C525 C 0.39557 0.27529 0.31949 0.0
C526 C 0.40763 0.31565 0.2766 0.0
C527 C 0.38242 0.29777 0.28211 0.0
C528 C 0.37641 0.27747 0.30372 0.0
N529 N 0.42632 0.31336 0.29213 0.0
C530 C 0.42056 0.29353 0.31335 0.0
Co531 Co 0.11958 0.4809 0.36132 0.0
Co532 Co 0.1343 0.45858 0.28876 0.0
O533 O 0.13624 0.46442 0.33871 0.0
C534 C 0.11343 0.44092 0.41427 0.0
O535 O 0.12592 0.43257 0.39666 0.0
C536 C 0.18961 0.48248 0.30267 0.0
O537 O 0.18792 0.49677 0.32612 0.0
O538 O 0.14563 0.49456 0.27915 0.0
O539 O 0.12867 0.50499 0.32237 0.0
H540 H 0.10991 0.46529 0.16828 0.0
H541 H 0.1611 0.47656 0.39487 0.0
O542 O 0.10963 0.45804 0.40229 0.0
H543 H 0.18734 0.5664 0.40001 0.0
H544 H 0.09499 0.51641 0.46043 0.0
H545 H 0.08601 0.49925 0.33671 0.0
H546 H 0.14708 0.53616 0.37361 0.0
H547 H 0.11687 0.49674 0.4328 0.0
O548 O 0.17016 0.46629 0.2868 0.0
H549 H 0.1126 0.47228 0.23049 0.0
H550 H 0.15218 0.43248 0.24188 0.0
H551 H 0.06409 0.5193 0.36328 0.0
H552 H 0.20112 0.50594 0.42226 0.0
H553 H 0.06849 0.52798 0.42558 0.0
H554 H 0.21464 0.55133 0.42488 0.0
O555 O 0.08684 0.4569 0.33924 0.0
H556 H 0.13883 0.38786 0.34635 0.0
H557 H 0.09192 0.40968 0.26408 0.0
H558 H 0.07734 0.36512 0.27652 0.0
H559 H 0.10091 0.35396 0.31786 0.0
H560 H 0.15262 0.43221 0.33336 0.0
H561 H 0.15014 0.42528 0.17975 0.0
H562 H 0.12879 0.44165 0.14251 0.0
O563 O 0.09849 0.45047 0.28774 0.0
C564 C 0.13994 0.50961 0.29369 0.0
C565 C 0.11921 0.45801 0.18425 0.0
C566 C 0.14181 0.43558 0.19068 0.0
N567 N 0.1324 0.45269 0.23986 0.0
C568 C 0.12074 0.46186 0.21951 0.0
C569 C 0.14296 0.43978 0.22585 0.0
C570 C 0.12982 0.44476 0.1698 0.0
C571 C 0.16639 0.49605 0.39646 0.0
N572 N 0.15135 0.5044 0.38299 0.0
C573 C 0.1893 0.51273 0.41177 0.0
C574 C 0.19692 0.53819 0.41313 0.0
C575 C 0.18164 0.54665 0.39915 0.0
C576 C 0.15886 0.52942 0.38404 0.0
C577 C 0.09296 0.51276 0.43325 0.0
C578 C 0.08818 0.50314 0.36379 0.0
C579 C 0.10522 0.50152 0.41746 0.0
N580 N 0.10285 0.49697 0.38308 0.0
C581 C 0.07565 0.51442 0.37871 0.0
C582 C 0.0781 0.51926 0.41368 0.0
C583 C 0.08181 0.44864 0.30868 0.0
C584 C 0.12844 0.39248 0.32823 0.0
C585 C 0.1022 0.40499 0.28224 0.0
C586 C 0.0939 0.37972 0.2891 0.0
C587 C 0.10714 0.37347 0.31227 0.0
N588 N 0.12315 0.42352 0.29795 0.0
C589 C 0.1362 0.41755 0.32072 0.0
Co590 Co 0.65011 0.11556 0.3559 0.0
Co591 Co 0.68555 0.12957 0.28183 0.0
O592 O 0.68243 0.1325 0.33152 0.0
C593 C 0.68698 0.11221 0.40525 0.0
O594 O 0.70594 0.12321 0.38393 0.0
C595 C 0.71263 0.18505 0.29182 0.0
O596 O 0.6935 0.1822 0.31017 0.0
O597 O 0.6593 0.13883 0.27223 0.0
O598 O 0.63337 0.12287 0.31733 0.0
H599 H 0.65337 0.10129 0.16274 0.0
H600 H 0.69632 0.15896 0.38549 0.0
O601 O 0.66511 0.10767 0.39654 0.0
H602 H 0.63075 0.1825 0.39313 0.0
H603 H 0.59296 0.09162 0.45847 0.0
H604 H 0.59783 0.08003 0.33467 0.0
H605 H 0.62104 0.14161 0.36922 0.0
H606 H 0.63353 0.11403 0.42826 0.0
O607 O 0.71249 0.16592 0.27912 0.0
H608 H 0.64963 0.10493 0.22489 0.0
H609 H 0.729 0.14877 0.23376 0.0
H610 H 0.55679 0.05753 0.36383 0.0
H611 H 0.70673 0.19975 0.41011 0.0
H612 H 0.55418 0.06324 0.42618 0.0
H613 H 0.67386 0.21189 0.41399 0.0
O614 O 0.6419 0.08264 0.33503 0.0
H615 H 0.76421 0.13984 0.33622 0.0
H616 H 0.69375 0.08792 0.25889 0.0
H617 H 0.72563 0.07572 0.2707 0.0
H618 H 0.76122 0.10182 0.30953 0.0
H619 H 0.73174 0.15119 0.32403 0.0
H620 H 0.73361 0.14581 0.17166 0.0
H621 H 0.69561 0.12185 0.13571 0.0
O622 O 0.65897 0.09328 0.28267 0.0
C623 C 0.63887 0.13306 0.28781 0.0
C624 C 0.67007 0.11176 0.17812 0.0
C625 C 0.7151 0.13677 0.18313 0.0
N626 N 0.68905 0.12698 0.23297 0.0
C627 C 0.66807 0.11385 0.21335 0.0
C628 C 0.71236 0.13844 0.21828 0.0
C629 C 0.69378 0.12331 0.16298 0.0
C630 C 0.68174 0.16374 0.38752 0.0
N631 N 0.65797 0.14759 0.37618 0.0
C632 C 0.68783 0.18705 0.40131 0.0
C633 C 0.66941 0.19388 0.4034 0.0
C634 C 0.64524 0.17742 0.39168 0.0
C635 C 0.63987 0.15429 0.37801 0.0
C636 C 0.59384 0.08901 0.43128 0.0
C637 C 0.59682 0.08277 0.36175 0.0
C638 C 0.61679 0.10157 0.41403 0.0
N639 N 0.61805 0.09847 0.37964 0.0
C640 C 0.57354 0.06991 0.37815 0.0
C641 C 0.57209 0.0731 0.41315 0.0
C642 C 0.6448 0.07698 0.30464 0.0
C643 C 0.74881 0.12834 0.31922 0.0
C644 C 0.70906 0.09926 0.27605 0.0
C645 C 0.72712 0.09232 0.28252 0.0
C646 C 0.7471 0.10698 0.30428 0.0
N647 N 0.71086 0.12024 0.29081 0.0
C648 C 0.73041 0.13471 0.31214 0.0
Co649 Co 0.54 0.64286 0.35352 0.0
Co650 Co 0.56384 0.67929 0.28008 0.0
O651 O 0.5575 0.6757 0.33005 0.0
C652 C 0.58133 0.67545 0.40561 0.0
O653 O 0.59052 0.69653 0.38823 0.0
C654 C 0.53975 0.71068 0.2931 0.0
O655 O 0.52567 0.69483 0.31692 0.0
O656 O 0.52801 0.65419 0.26971 0.0
O657 O 0.51561 0.62849 0.31524 0.0
H658 H 0.55963 0.64767 0.16061 0.0
H659 H 0.54712 0.68984 0.38659 0.0
O660 O 0.56326 0.65509 0.39388 0.0
H661 H 0.45631 0.62979 0.39325 0.0
H662 H 0.50309 0.58403 0.45409 0.0
H663 H 0.51923 0.59036 0.33007 0.0
H664 H 0.48488 0.61756 0.36668 0.0
H665 H 0.52418 0.62533 0.42549 0.0
O666 O 0.55576 0.70724 0.27698 0.0
H667 H 0.55172 0.64363 0.22267 0.0
H668 H 0.58995 0.72307 0.23262 0.0
H669 H 0.49775 0.54864 0.35761 0.0
H670 H 0.51941 0.70267 0.4141 0.0
H671 H 0.48958 0.54529 0.42007 0.0
H672 H 0.47355 0.6726 0.41747 0.0
O673 O 0.56264 0.63241 0.3314 0.0
H674 H 0.63333 0.75521 0.33776 0.0
H675 H 0.61326 0.68626 0.25697 0.0
H676 H 0.65756 0.71665 0.27 0.0
H677 H 0.66784 0.75148 0.31059 0.0
H678 H 0.58926 0.72424 0.32423 0.0
H679 H 0.59808 0.72796 0.17063 0.0
H680 H 0.58296 0.69009 0.13419 0.0
O681 O 0.57238 0.65187 0.28051 0.0
C682 C 0.512 0.63439 0.28545 0.0
C683 C 0.56635 0.66432 0.17622 0.0
C684 C 0.5879 0.70938 0.18184 0.0
N685 N 0.57041 0.68307 0.2313 0.0
C686 C 0.56195 0.66215 0.21139 0.0
C687 C 0.58316 0.70648 0.21693 0.0
C688 C 0.57942 0.68812 0.16141 0.0
C689 C 0.52739 0.67641 0.3885 0.0
N690 N 0.51783 0.6528 0.37535 0.0
C691 C 0.51168 0.6839 0.40387 0.0
C692 C 0.48595 0.66706 0.40566 0.0
C693 C 0.47627 0.64306 0.39204 0.0
C694 C 0.49256 0.63627 0.37684 0.0
C695 C 0.50651 0.58524 0.42684 0.0
C696 C 0.51557 0.58905 0.35721 0.0
C697 C 0.51853 0.6086 0.4105 0.0
N698 N 0.52281 0.61028 0.37605 0.0
C699 C 0.50347 0.56538 0.37269 0.0
C700 C 0.49892 0.56352 0.40774 0.0
C701 C 0.57245 0.63614 0.30169 0.0
C702 C 0.6291 0.74015 0.31997 0.0
C703 C 0.61756 0.70128 0.27479 0.0
C704 C 0.64269 0.71848 0.28199 0.0
C705 C 0.64845 0.73803 0.30475 0.0
N706 N 0.59869 0.70354 0.28975 0.0
C707 C 0.60418 0.72262 0.31213 0.0
Co708 Co 0.54662 0.90418 0.8612 0.0
Co709 Co 0.56684 0.88955 0.78672 0.0
O710 O 0.56151 0.88696 0.83652 0.0
C711 C 0.58723 0.90703 0.90922 0.0
O712 O 0.59466 0.89594 0.88735 0.0
C713 C 0.5386 0.8342 0.79785 0.0
O714 O 0.52256 0.83713 0.81664 0.0
O715 O 0.53122 0.88014 0.77828 0.0
O716 O 0.52205 0.89682 0.82323 0.0
H717 H 0.56102 0.91681 0.66753 0.0
H718 H 0.54933 0.86058 0.8908 0.0
O719 O 0.57005 0.912 0.90124 0.0
H720 H 0.46057 0.83792 0.90072 0.0
H721 H 0.51511 0.92889 0.96463 0.0
H722 H 0.52987 0.93984 0.84036 0.0
H723 H 0.49171 0.87857 0.87587 0.0
H724 H 0.53268 0.90618 0.93396 0.0
O725 O 0.55742 0.85324 0.78458 0.0
H726 H 0.55464 0.91369 0.7299 0.0
H727 H 0.59042 0.87004 0.73814 0.0
H728 H 0.5119 0.96263 0.87 0.0
H729 H 0.519 0.82004 0.91634 0.0
H730 H 0.50444 0.95725 0.93258 0.0
H731 H 0.47417 0.80834 0.92138 0.0
O732 O 0.57123 0.93698 0.83956 0.0
H733 H 0.63618 0.87971 0.83885 0.0
H734 H 0.61628 0.93116 0.76219 0.0
H735 H 0.66055 0.94351 0.77255 0.0
H736 H 0.67074 0.91765 0.81104 0.0
H737 H 0.59216 0.86822 0.82811 0.0
H738 H 0.59699 0.87247 0.67581 0.0
H739 H 0.58233 0.89607 0.64006 0.0
O740 O 0.57645 0.92579 0.787 0.0
C741 C 0.51686 0.88619 0.79405 0.0
C742 C 0.56753 0.90649 0.68282 0.0
C743 C 0.58768 0.88159 0.68747 0.0
N744 N 0.57219 0.89176 0.73768 0.0
C745 C 0.564 0.9047 0.71817 0.0
C746 C 0.58383 0.88021 0.72275 0.0
C747 C 0.57947 0.89484 0.66743 0.0
C748 C 0.53007 0.85602 0.89336 0.0
N749 N 0.52252 0.8723 0.88217 0.0
C750 C 0.51286 0.83284 0.90766 0.0
C751 C 0.48771 0.82625 0.9104 0.0
C752 C 0.48007 0.84282 0.89879 0.0
C753 C 0.49781 0.86582 0.8846 0.0
C754 C 0.51824 0.93137 0.93734 0.0
C755 C 0.52649 0.93724 0.86756 0.0
C756 C 0.52829 0.91863 0.91983 0.0
N757 N 0.53216 0.92155 0.88532 0.0
C758 C 0.5164 0.95027 0.88422 0.0
C759 C 0.51225 0.94726 0.91935 0.0
C760 C 0.57907 0.94232 0.80877 0.0
C761 C 0.63198 0.89112 0.822 0.0
C762 C 0.62055 0.91994 0.77923 0.0
C763 C 0.64566 0.92696 0.78486 0.0
C764 C 0.65136 0.91243 0.80643 0.0
N765 N 0.60164 0.89902 0.79462 0.0
C766 C 0.60709 0.88466 0.81575 0.0
Co767 Co 0.65479 0.54299 0.85736 0.0
Co768 Co 0.68745 0.5613 0.78071 0.0
O769 O 0.68634 0.55838 0.83098 0.0
C770 C 0.663 0.58123 0.90934 0.0
O771 O 0.64428 0.58225 0.89479 0.0
C772 C 0.71935 0.53804 0.79518 0.0
O773 O 0.70458 0.52549 0.82079 0.0
O774 O 0.66214 0.525 0.77579 0.0
O775 O 0.63708 0.51694 0.82137 0.0
H776 H 0.64953 0.54793 0.66351 0.0
H777 H 0.70147 0.55155 0.89134 0.0
O778 O 0.67168 0.56835 0.89534 0.0
H779 H 0.64372 0.46007 0.89777 0.0
H780 H 0.60167 0.50938 0.96367 0.0
H781 H 0.60149 0.5247 0.83999 0.0
H782 H 0.63034 0.4877 0.87066 0.0
H783 H 0.64114 0.5284 0.93072 0.0
O784 O 0.71526 0.5531 0.77766 0.0
H785 H 0.64882 0.54471 0.72633 0.0
H786 H 0.72861 0.58399 0.72885 0.0
H787 H 0.56155 0.50549 0.87196 0.0
H788 H 0.71549 0.52468 0.9193 0.0
H789 H 0.56148 0.49775 0.93427 0.0
H790 H 0.68656 0.47856 0.92251 0.0
O791 O 0.64431 0.56539 0.834 0.0
H792 H 0.76587 0.63471 0.82747 0.0
H793 H 0.69309 0.60876 0.7513 0.0
H794 H 0.72398 0.6538 0.75782 0.0
H795 H 0.76075 0.66703 0.79603 0.0
H796 H 0.73436 0.58985 0.82046 0.0
H797 H 0.73017 0.58743 0.66604 0.0
H798 H 0.69044 0.56941 0.63294 0.0
O799 O 0.66004 0.56982 0.78111 0.0
C800 C 0.6421 0.51089 0.79252 0.0
C801 C 0.66698 0.55592 0.67765 0.0
C802 C 0.71224 0.57805 0.67907 0.0
N803 N 0.68864 0.56428 0.73129 0.0
C804 C 0.6667 0.55421 0.71324 0.0
C805 C 0.71123 0.57599 0.71464 0.0
C806 C 0.68993 0.56795 0.66051 0.0
C807 C 0.68868 0.53154 0.89294 0.0
N808 N 0.6651 0.52122 0.87935 0.0
C809 C 0.69676 0.5164 0.90867 0.0
C810 C 0.68054 0.49052 0.91041 0.0
C811 C 0.65652 0.48013 0.89648 0.0
C812 C 0.64909 0.49585 0.88094 0.0
C813 C 0.60145 0.51266 0.93653 0.0
C814 C 0.60161 0.52136 0.86708 0.0
C815 C 0.62375 0.52345 0.91772 0.0
N816 N 0.62365 0.52771 0.88342 0.0
C817 C 0.57894 0.51048 0.88506 0.0
C818 C 0.57891 0.50614 0.92002 0.0
C819 C 0.64616 0.57249 0.8029 0.0
C820 C 0.74996 0.62918 0.81068 0.0
C821 C 0.70896 0.61436 0.76812 0.0
C822 C 0.72644 0.63989 0.77163 0.0
C823 C 0.74707 0.6473 0.79306 0.0
N824 N 0.712 0.59669 0.78537 0.0
C825 C 0.73211 0.60381 0.80654 0.0
Co826 Co 0.11898 0.64368 0.85723 0.0
Co827 Co 0.13383 0.67805 0.78208 0.0
O828 O 0.13619 0.67589 0.83223 0.0
C829 C 0.11542 0.68089 0.90566 0.0
O830 O 0.12671 0.6998 0.88427 0.0
C831 C 0.18925 0.70881 0.79476 0.0
O832 O 0.18736 0.69256 0.81805 0.0
O833 O 0.14456 0.65269 0.77509 0.0
O834 O 0.12651 0.6265 0.81946 0.0
H835 H 0.10808 0.64278 0.6638 0.0
H836 H 0.16192 0.68988 0.88768 0.0
O837 O 0.11074 0.65895 0.89721 0.0
H838 H 0.18549 0.62443 0.89741 0.0
H839 H 0.09429 0.5873 0.96086 0.0
H840 H 0.08348 0.59124 0.83659 0.0
H841 H 0.14509 0.61478 0.87172 0.0
H842 H 0.11695 0.62763 0.93005 0.0
O843 O 0.16982 0.70582 0.77905 0.0
H844 H 0.11111 0.64065 0.72638 0.0
H845 H 0.15206 0.72034 0.73195 0.0
H846 H 0.06074 0.55044 0.86637 0.0
H847 H 0.20214 0.7002 0.91424 0.0
H848 H 0.06605 0.5483 0.92896 0.0
H849 H 0.21431 0.66739 0.91916 0.0
O850 O 0.08625 0.63537 0.83548 0.0
H851 H 0.14014 0.75612 0.83232 0.0
H852 H 0.09157 0.68419 0.7557 0.0
H853 H 0.07768 0.71505 0.76478 0.0
H854 H 0.10208 0.75139 0.80326 0.0
H855 H 0.15322 0.72463 0.82279 0.0
H856 H 0.14966 0.72332 0.6694 0.0
H857 H 0.12746 0.68435 0.63488 0.0
O858 O 0.09785 0.65067 0.78245 0.0
C859 C 0.13793 0.63208 0.79079 0.0
C860 C 0.11776 0.6599 0.67856 0.0
C861 C 0.14112 0.7051 0.6817 0.0
N862 N 0.13164 0.68033 0.73286 0.0
C863 C 0.1195 0.65881 0.71402 0.0
C864 C 0.14247 0.70328 0.71712 0.0
C865 C 0.12865 0.68323 0.66235 0.0
C866 C 0.16666 0.67531 0.89023 0.0
N867 N 0.1508 0.65161 0.87843 0.0
C868 C 0.18968 0.68135 0.90508 0.0
C869 C 0.19653 0.66297 0.90774 0.0
C870 C 0.18039 0.63889 0.89551 0.0
C871 C 0.15754 0.63356 0.88079 0.0
C872 C 0.09185 0.58798 0.93357 0.0
C873 C 0.08605 0.59044 0.86379 0.0
C874 C 0.10455 0.61079 0.91598 0.0
N875 N 0.10167 0.6118 0.88146 0.0
C876 C 0.07305 0.56729 0.88053 0.0
C877 C 0.07602 0.56611 0.91566 0.0
C878 C 0.08111 0.63726 0.80437 0.0
C879 C 0.12937 0.74039 0.81546 0.0
C880 C 0.10219 0.69983 0.77269 0.0
C881 C 0.09428 0.71731 0.77762 0.0
C882 C 0.108 0.73771 0.79918 0.0
N883 N 0.12319 0.70261 0.78874 0.0
C884 C 0.13673 0.72255 0.80989 0.0
Co885 Co 0.48482 0.11733 0.85551 0.0
Co886 Co 0.47147 0.13843 0.78077 0.0
O887 O 0.47159 0.13644 0.83113 0.0
C888 C 0.44499 0.08603 0.90537 0.0
O889 O 0.44336 0.0665 0.88936 0.0
C890 C 0.48687 0.19132 0.80425 0.0
O891 O 0.49017 0.18624 0.83572 0.0
O892 O 0.50799 0.14993 0.77917 0.0
O893 O 0.51168 0.1265 0.82026 0.0
H894 H 0.49265 0.12319 0.6625 0.0
H895 H 0.4778 0.15455 0.89478 0.0
O896 O 0.45865 0.10797 0.89266 0.0
H897 H 0.56829 0.18343 0.90283 0.0
H898 H 0.51344 0.08905 0.95882 0.0
H899 H 0.50082 0.08126 0.83408 0.0
H900 H 0.53991 0.14499 0.87104 0.0
H901 H 0.4971 0.11311 0.92855 0.0
O902 O 0.47966 0.17457 0.78117 0.0
H903 H 0.49185 0.12089 0.72539 0.0
H904 H 0.45141 0.1602 0.72968 0.0
H905 H 0.5173 0.05693 0.86334 0.0
H906 H 0.50542 0.19281 0.92753 0.0
H907 H 0.52368 0.06071 0.92617 0.0
H908 H 0.55106 0.20758 0.93157 0.0
O909 O 0.46187 0.0864 0.82872 0.0
H910 H 0.3944 0.13813 0.82456 0.0
H911 H 0.42642 0.09932 0.74374 0.0
H912 H 0.38099 0.08427 0.74596 0.0
H913 H 0.36471 0.1038 0.78647 0.0
H914 H 0.43963 0.1524 0.82179 0.0
H915 H 0.45196 0.1631 0.66684 0.0
H916 H 0.47261 0.14442 0.63279 0.0
O917 O 0.4633 0.10271 0.77696 0.0
C918 C 0.52013 0.14088 0.79422 0.0
C919 C 0.48353 0.13133 0.67704 0.0
C920 C 0.46072 0.15376 0.67948 0.0
N921 N 0.47147 0.14025 0.73123 0.0
C922 C 0.48296 0.13004 0.71267 0.0
C923 C 0.46053 0.15211 0.71508 0.0
C924 C 0.4723 0.14327 0.66039 0.0
C925 C 0.49759 0.1607 0.89666 0.0
N926 N 0.50721 0.14755 0.88083 0.0
C927 C 0.51316 0.18246 0.91513 0.0
C928 C 0.53877 0.19075 0.91734 0.0
C929 C 0.54845 0.17725 0.90116 0.0
C930 C 0.53231 0.15558 0.88293 0.0
C931 C 0.51074 0.08723 0.93143 0.0
C932 C 0.50355 0.08303 0.86142 0.0
C933 C 0.50148 0.1008 0.91413 0.0
N934 N 0.49793 0.09856 0.87953 0.0
C935 C 0.5129 0.0692 0.87785 0.0
C936 C 0.51647 0.07134 0.9131 0.0
C937 C 0.45784 0.08408 0.79655 0.0
C938 C 0.40128 0.12957 0.80667 0.0
C939 C 0.4195 0.1079 0.76151 0.0
C940 C 0.39374 0.09931 0.7626 0.0
C941 C 0.38462 0.11028 0.78533 0.0
N942 N 0.43576 0.12699 0.78231 0.0
C943 C 0.42692 0.13767 0.80486 0.0
Co944 Co 0.38337 0.48534 0.86111 0.0
Co945 Co 0.34677 0.46362 0.788 0.0
O946 O 0.3504 0.46935 0.83805 0.0
C947 C 0.34884 0.44501 0.91323 0.0
O948 O 0.32827 0.43684 0.89504 0.0
C949 C 0.31408 0.48612 0.80342 0.0
O950 O 0.32828 0.49829 0.82955 0.0
O951 O 0.37189 0.49951 0.7786 0.0
O952 O 0.39895 0.50931 0.82215 0.0
H953 H 0.37862 0.4701 0.66804 0.0
H954 H 0.33817 0.48155 0.89581 0.0
O955 O 0.36991 0.46239 0.90197 0.0
H956 H 0.40218 0.57134 0.89883 0.0
H957 H 0.44288 0.52002 0.96099 0.0
H958 H 0.43533 0.50288 0.83728 0.0
H959 H 0.41152 0.5407 0.87216 0.0
H960 H 0.40156 0.50097 0.93275 0.0
O961 O 0.31889 0.47181 0.78546 0.0
H962 H 0.38253 0.47686 0.73029 0.0
H963 H 0.30307 0.43818 0.74045 0.0
H964 H 0.47707 0.52228 0.86446 0.0
H965 H 0.32824 0.51133 0.92357 0.0
H966 H 0.48104 0.53094 0.92676 0.0
H967 H 0.36032 0.55669 0.9251 0.0
O968 O 0.39171 0.46105 0.83932 0.0
H969 H 0.27064 0.39326 0.84459 0.0
H970 H 0.33973 0.41457 0.76326 0.0
H971 H 0.3092 0.37008 0.77519 0.0
H972 H 0.27429 0.35918 0.81604 0.0
H973 H 0.30174 0.43752 0.83216 0.0
H974 H 0.29831 0.43122 0.67826 0.0
H975 H 0.33625 0.44714 0.64161 0.0
O976 O 0.37419 0.45506 0.78746 0.0
C977 C 0.39274 0.51412 0.79323 0.0
C978 C 0.36193 0.46302 0.68374 0.0
C979 C 0.31687 0.44123 0.68948 0.0
N980 N 0.34308 0.45784 0.73906 0.0
C981 C 0.36403 0.46674 0.71903 0.0
C982 C 0.31969 0.44529 0.72468 0.0
C983 C 0.33816 0.45016 0.66893 0.0
C984 C 0.35245 0.50105 0.8969 0.0
N985 N 0.37554 0.50917 0.8826 0.0
C986 C 0.34662 0.51794 0.91242 0.0
C987 C 0.36458 0.54339 0.91318 0.0
C988 C 0.38804 0.55161 0.8984 0.0
C989 C 0.39318 0.53417 0.88311 0.0
C990 C 0.4414 0.51637 0.93381 0.0
C991 C 0.43691 0.50676 0.86435 0.0
C992 C 0.41803 0.5055 0.91767 0.0
N993 N 0.41602 0.50094 0.8833 0.0
C994 C 0.4606 0.51768 0.87962 0.0
C995 C 0.4628 0.52251 0.91459 0.0
C996 C 0.38875 0.45298 0.8087 0.0
C997 C 0.28572 0.39777 0.82668 0.0
C998 C 0.32468 0.41 0.78121 0.0
C999 C 0.3074 0.38476 0.78778 0.0
C1000 C 0.28781 0.37866 0.81068 0.0
N1001 N 0.32246 0.42863 0.79692 0.0
C1002 C 0.30334 0.4228 0.81945 0.0
Co1003 Co 0.90952 0.37467 0.85435 0.0
Co1004 Co 0.89549 0.33948 0.78024 0.0
O1005 O 0.8926 0.34246 0.82994 0.0
C1006 C 0.91298 0.33757 0.90321 0.0
O1007 O 0.90208 0.31878 0.88173 0.0
C1008 C 0.84011 0.31268 0.79094 0.0
O1009 O 0.84323 0.33182 0.80943 0.0
O1010 O 0.8864 0.36586 0.77085 0.0
O1011 O 0.90231 0.39164 0.81592 0.0
H1012 H 0.92382 0.37202 0.66111 0.0
H1013 H 0.86628 0.32845 0.88443 0.0
O1014 O 0.91738 0.35947 0.89482 0.0
H1015 H 0.84237 0.39376 0.89161 0.0
H1016 H 0.93323 0.43131 0.95715 0.0
H1017 H 0.94517 0.42705 0.8333 0.0
H1018 H 0.88327 0.40357 0.86746 0.0
H1019 H 0.91088 0.39089 0.92677 0.0
O1020 O 0.85908 0.31272 0.77775 0.0
H1021 H 0.92026 0.37557 0.72332 0.0
H1022 H 0.87604 0.29619 0.73208 0.0
H1023 H 0.96761 0.46794 0.86264 0.0
H1024 H 0.82548 0.31794 0.90928 0.0
H1025 H 0.96172 0.47024 0.92502 0.0
H1026 H 0.81315 0.35067 0.91294 0.0
O1027 O 0.94242 0.38293 0.83329 0.0
H1028 H 0.88471 0.26038 0.83413 0.0
H1029 H 0.93696 0.33107 0.75693 0.0
H1030 H 0.94889 0.29895 0.76839 0.0
H1031 H 0.92263 0.26324 0.80716 0.0
H1032 H 0.87363 0.29309 0.82231 0.0
H1033 H 0.87892 0.29178 0.66991 0.0
H1034 H 0.90303 0.32988 0.634 0.0
O1035 O 0.93187 0.3659 0.78096 0.0
C1036 C 0.8922 0.38627 0.78641 0.0
C1037 C 0.91329 0.35528 0.67649 0.0
C1038 C 0.88807 0.31025 0.68143 0.0
N1039 N 0.89804 0.33613 0.73135 0.0
C1040 C 0.91125 0.35717 0.71175 0.0
C1041 C 0.88644 0.31287 0.71661 0.0
C1042 C 0.90161 0.33163 0.66129 0.0
C1043 C 0.86142 0.34298 0.88637 0.0
N1044 N 0.87748 0.36674 0.87479 0.0
C1045 C 0.83811 0.33683 0.90029 0.0
C1046 C 0.83117 0.35517 0.90225 0.0
C1047 C 0.84754 0.37933 0.89027 0.0
C1048 C 0.87068 0.38477 0.87647 0.0
C1049 C 0.93591 0.43056 0.92995 0.0
C1050 C 0.94235 0.42793 0.8604 0.0
C1051 C 0.92338 0.4077 0.9126 0.0
N1052 N 0.92658 0.40662 0.8782 0.0
C1053 C 0.95518 0.45112 0.8769 0.0
C1054 C 0.95189 0.45239 0.91191 0.0
C1055 C 0.94814 0.38002 0.80292 0.0
C1056 C 0.89629 0.27583 0.81717 0.0
C1057 C 0.92555 0.31572 0.77407 0.0
C1058 C 0.93234 0.29752 0.78034 0.0
C1059 C 0.91758 0.27747 0.80206 0.0
N1060 N 0.90463 0.31399 0.789 0.0
C1061 C 0.89006 0.29437 0.81029 0.0
Co1062 Co 0.12346 0.47944 0.66367 0.0
Co1063 Co 0.13682 0.45956 0.73971 0.0
O1064 O 0.14028 0.46449 0.68963 0.0
C1065 C 0.12071 0.43866 0.61589 0.0
O1066 O 0.13174 0.43104 0.6377 0.0
C1067 C 0.19245 0.4849 0.72865 0.0
O1068 O 0.19056 0.49877 0.70461 0.0
O1069 O 0.14674 0.49542 0.74694 0.0
O1070 O 0.13002 0.50391 0.70139 0.0
H1071 H 0.10769 0.46726 0.85666 0.0
H1072 H 0.16685 0.47642 0.6344 0.0
O1073 O 0.11611 0.45607 0.62382 0.0
H1074 H 0.19067 0.56556 0.62572 0.0
H1075 H 0.10085 0.51146 0.55851 0.0
H1076 H 0.08732 0.49604 0.68244 0.0
H1077 H 0.14984 0.53458 0.65021 0.0
H1078 H 0.12294 0.49375 0.5906 0.0
O1079 O 0.17296 0.46845 0.74432 0.0
H1080 H 0.11222 0.47309 0.79422 0.0
H1081 H 0.15454 0.43569 0.79083 0.0
H1082 H 0.06514 0.51413 0.65136 0.0
H1083 H 0.20753 0.50657 0.60902 0.0
H1084 H 0.07182 0.52192 0.58894 0.0
H1085 H 0.21983 0.5516 0.60464 0.0
O1086 O 0.09034 0.45483 0.68428 0.0
H1087 H 0.14587 0.38912 0.69036 0.0
H1088 H 0.09449 0.41058 0.76447 0.0
H1089 H 0.08157 0.36608 0.75508 0.0
H1090 H 0.10738 0.35511 0.71787 0.0
H1091 H 0.15795 0.4334 0.70016 0.0
H1092 H 0.15066 0.42966 0.85327 0.0
H1093 H 0.127 0.44541 0.88661 0.0
O1094 O 0.10067 0.45033 0.73772 0.0
C1095 C 0.14047 0.50946 0.73069 0.0
C1096 C 0.118 0.46026 0.84241 0.0
C1097 C 0.14214 0.43919 0.84051 0.0
N1098 N 0.13352 0.45464 0.78884 0.0
C1099 C 0.12058 0.46346 0.80703 0.0
C1100 C 0.14433 0.44272 0.80516 0.0
C1101 C 0.12885 0.44802 0.8592 0.0
C1102 C 0.17167 0.49577 0.63206 0.0
N1103 N 0.15565 0.50353 0.6435 0.0
C1104 C 0.19493 0.51287 0.61789 0.0
C1105 C 0.20185 0.53814 0.61553 0.0
C1106 C 0.18553 0.54598 0.62739 0.0
C1107 C 0.16244 0.52834 0.64143 0.0
C1108 C 0.09782 0.50819 0.58572 0.0
C1109 C 0.09049 0.49956 0.65532 0.0
C1110 C 0.1102 0.49807 0.60403 0.0
N1111 N 0.10656 0.494 0.63846 0.0
C1112 C 0.0778 0.50973 0.63784 0.0
C1113 C 0.08154 0.51406 0.60281 0.0
C1114 C 0.08447 0.44729 0.71509 0.0
C1115 C 0.13449 0.39367 0.70668 0.0
C1116 C 0.10573 0.40597 0.74804 0.0
C1117 C 0.09837 0.38073 0.74293 0.0
C1118 C 0.11287 0.37459 0.72208 0.0
N1119 N 0.12697 0.42458 0.73285 0.0
C1120 C 0.14128 0.4187 0.71239 0.0
Co1121 Co 0.64428 0.11289 0.66146 0.0
Co1122 Co 0.68521 0.12917 0.7302 0.0
O1123 O 0.67822 0.13037 0.6812 0.0
C1124 C 0.67655 0.10642 0.60696 0.0
O1125 O 0.6976 0.11904 0.62405 0.0
C1126 C 0.71486 0.18313 0.74868 0.0
O1127 O 0.69792 0.17818 0.77245 0.0
O1128 O 0.65958 0.13854 0.74349 0.0
O1129 O 0.63095 0.12258 0.70144 0.0
H1130 H 0.6626 0.10562 0.85345 0.0
H1131 H 0.68843 0.15452 0.62513 0.0
O1132 O 0.65576 0.10251 0.61956 0.0
H1133 H 0.6231 0.17859 0.62397 0.0
H1134 H 0.57967 0.08505 0.5675 0.0
H1135 H 0.59375 0.07926 0.69039 0.0
H1136 H 0.61495 0.139 0.65098 0.0
H1137 H 0.62238 0.10819 0.59163 0.0
O1138 O 0.71208 0.16582 0.72802 0.0
H1139 H 0.65405 0.10737 0.79227 0.0
H1140 H 0.73232 0.14865 0.77137 0.0
H1141 H 0.55067 0.05607 0.66737 0.0
H1142 H 0.6972 0.19397 0.59735 0.0
H1143 H 0.54343 0.05887 0.60549 0.0
H1144 H 0.66443 0.20635 0.59663 0.0
O1145 O 0.63714 0.08085 0.68432 0.0
H1146 H 0.75913 0.13768 0.66399 0.0
H1147 H 0.69533 0.08828 0.75124 0.0
H1148 H 0.72612 0.07573 0.73437 0.0
H1149 H 0.75839 0.10056 0.69054 0.0
H1150 H 0.72776 0.14938 0.68127 0.0
H1151 H 0.74174 0.1474 0.83235 0.0
H1152 H 0.70673 0.12576 0.87386 0.0
O1153 O 0.65885 0.09286 0.73345 0.0
C1154 C 0.63858 0.13336 0.73022 0.0
C1155 C 0.67802 0.11514 0.83563 0.0
C1156 C 0.72243 0.13858 0.82378 0.0
N1157 N 0.69263 0.12815 0.77827 0.0
C1158 C 0.67329 0.1162 0.80095 0.0
C1159 C 0.71698 0.13924 0.78929 0.0
C1160 C 0.70278 0.12643 0.84706 0.0
C1161 C 0.67387 0.15939 0.62455 0.0
N1162 N 0.651 0.14404 0.63921 0.0
C1163 C 0.67904 0.18195 0.60894 0.0
C1164 C 0.66068 0.18891 0.6086 0.0
C1165 C 0.6375 0.17336 0.62393 0.0
C1166 C 0.63302 0.15095 0.63928 0.0
C1167 C 0.58258 0.08371 0.59451 0.0
C1168 C 0.59073 0.08073 0.66349 0.0
C1169 C 0.60675 0.09669 0.60832 0.0
N1170 N 0.61056 0.09522 0.64247 0.0
C1171 C 0.56631 0.06749 0.65057 0.0
C1172 C 0.56225 0.06904 0.61585 0.0
C1173 C 0.64262 0.07604 0.71383 0.0
C1174 C 0.7452 0.12674 0.68318 0.0
C1175 C 0.70917 0.09908 0.73194 0.0
C1176 C 0.72663 0.09193 0.7226 0.0
C1177 C 0.74475 0.10589 0.69804 0.0
N1178 N 0.70977 0.11959 0.7173 0.0
C1179 C 0.72745 0.13334 0.69316 0.0
Co1180 Co 0.54614 0.64423 0.65653 0.0
Co1181 Co 0.56701 0.68051 0.72956 0.0
O1182 O 0.56103 0.67676 0.68001 0.0
C1183 C 0.58615 0.68144 0.60737 0.0
O1184 O 0.59396 0.70002 0.62917 0.0
C1185 C 0.54252 0.70966 0.74989 0.0
O1186 O 0.52943 0.6916 0.77193 0.0
O1187 O 0.5314 0.65462 0.7386 0.0
O1188 O 0.52215 0.62746 0.69533 0.0
H1189 H 0.56124 0.64958 0.85002 0.0
H1190 H 0.54791 0.68959 0.62533 0.0
O1191 O 0.56895 0.65936 0.61568 0.0
H1192 H 0.45928 0.62267 0.6185 0.0
H1193 H 0.51379 0.58603 0.55522 0.0
H1194 H 0.53042 0.59238 0.67909 0.0
H1195 H 0.49098 0.61417 0.64375 0.0
H1196 H 0.53126 0.62683 0.58449 0.0
O1197 O 0.55776 0.70774 0.7296 0.0
H1198 H 0.55399 0.64524 0.78784 0.0
H1199 H 0.59303 0.72461 0.77639 0.0
H1200 H 0.5126 0.55113 0.65089 0.0
H1201 H 0.51698 0.69878 0.59936 0.0
H1202 H 0.5042 0.54777 0.5885 0.0
H1203 H 0.47223 0.66522 0.59582 0.0
O1204 O 0.57132 0.63693 0.67813 0.0
H1205 H 0.63627 0.75857 0.67472 0.0
H1206 H 0.61662 0.68817 0.75313 0.0
H1207 H 0.66084 0.71956 0.74141 0.0
H1208 H 0.67092 0.75515 0.70207 0.0
H1209 H 0.59229 0.72653 0.6867 0.0
H1210 H 0.60066 0.72982 0.83847 0.0
H1211 H 0.58473 0.69212 0.87573 0.0
O1212 O 0.57634 0.65361 0.73048 0.0
C1213 C 0.51705 0.6337 0.72401 0.0
C1214 C 0.56828 0.66615 0.83406 0.0
C1215 C 0.5904 0.71118 0.82757 0.0
N1216 N 0.57304 0.68463 0.77849 0.0
C1217 C 0.56422 0.66381 0.79883 0.0
C1218 C 0.58601 0.70811 0.79244 0.0
C1219 C 0.58145 0.69002 0.84847 0.0
C1220 C 0.52865 0.67473 0.62354 0.0
N1221 N 0.52147 0.65122 0.63568 0.0
C1222 C 0.51112 0.68012 0.60895 0.0
C1223 C 0.48601 0.6613 0.60703 0.0
C1224 C 0.47874 0.63744 0.61977 0.0
C1225 C 0.4968 0.63276 0.63416 0.0
C1226 C 0.51733 0.58724 0.58243 0.0
C1227 C 0.52663 0.59105 0.65199 0.0
C1228 C 0.52732 0.61032 0.59914 0.0
N1229 N 0.53172 0.61198 0.63355 0.0
C1230 C 0.51662 0.56765 0.63613 0.0
C1231 C 0.51194 0.56578 0.60112 0.0
C1232 C 0.57913 0.63966 0.70894 0.0
C1233 C 0.63212 0.74316 0.69195 0.0
C1234 C 0.62081 0.70342 0.73567 0.0
C1235 C 0.64591 0.72123 0.72929 0.0
C1236 C 0.65155 0.74121 0.70725 0.0
N1237 N 0.60184 0.70546 0.72055 0.0
C1238 C 0.60724 0.72501 0.69894 0.0
Co1239 Co 0.90937 0.54018 0.65759 0.0
Co1240 Co 0.89424 0.55865 0.73309 0.0
O1241 O 0.89183 0.55468 0.68284 0.0
C1242 C 0.91211 0.5809 0.60939 0.0
O1243 O 0.90071 0.58817 0.63101 0.0
C1244 C 0.8389 0.53562 0.71957 0.0
O1245 O 0.84063 0.52266 0.69422 0.0
O1246 O 0.88327 0.52246 0.73927 0.0
O1247 O 0.90248 0.5155 0.69542 0.0
H1248 H 0.91971 0.54722 0.8508 0.0
H1249 H 0.86615 0.5427 0.62645 0.0
O1250 O 0.91705 0.56373 0.61758 0.0
H1251 H 0.84363 0.45392 0.61848 0.0
H1252 H 0.93427 0.50932 0.55368 0.0
H1253 H 0.94568 0.5241 0.67782 0.0
H1254 H 0.88376 0.48511 0.64426 0.0
H1255 H 0.91127 0.52641 0.58475 0.0
O1256 O 0.8583 0.55064 0.73659 0.0
H1257 H 0.91664 0.54289 0.78815 0.0
H1258 H 0.87641 0.58243 0.78404 0.0
H1259 H 0.96878 0.50665 0.64777 0.0
H1260 H 0.8262 0.51236 0.59973 0.0
H1261 H 0.96317 0.49918 0.58524 0.0
H1262 H 0.81456 0.4675 0.59569 0.0
O1263 O 0.94199 0.56494 0.6791 0.0
H1264 H 0.88854 0.63132 0.68436 0.0
H1265 H 0.93664 0.6066 0.76017 0.0
H1266 H 0.95081 0.65152 0.7519 0.0
H1267 H 0.92665 0.66414 0.71384 0.0
H1268 H 0.87519 0.58659 0.69309 0.0
H1269 H 0.87886 0.58697 0.84669 0.0
H1270 H 0.90072 0.56938 0.8805 0.0
O1271 O 0.93019 0.56705 0.73255 0.0
C1272 C 0.89062 0.50905 0.72375 0.0
C1273 C 0.91019 0.55502 0.83635 0.0
C1274 C 0.88723 0.5773 0.83404 0.0
N1275 N 0.89649 0.5625 0.78239 0.0
C1276 C 0.90844 0.55268 0.80084 0.0
C1277 C 0.88586 0.57461 0.79856 0.0
C1278 C 0.89951 0.56744 0.853 0.0
C1279 C 0.86164 0.52345 0.62426 0.0
N1280 N 0.87764 0.51591 0.63662 0.0
C1281 C 0.83878 0.50622 0.60933 0.0
C1282 C 0.83222 0.48105 0.60717 0.0
C1283 C 0.8485 0.47343 0.61999 0.0
C1284 C 0.87119 0.49119 0.63475 0.0
C1285 C 0.93684 0.51246 0.58094 0.0
C1286 C 0.94299 0.52074 0.65065 0.0
C1287 C 0.92394 0.52222 0.59868 0.0
N1288 N 0.927 0.52613 0.63316 0.0
C1289 C 0.95618 0.51092 0.63375 0.0
C1290 C 0.95305 0.50676 0.59866 0.0
C1291 C 0.94704 0.57118 0.71043 0.0
C1292 C 0.8992 0.62606 0.70105 0.0
C1293 C 0.92612 0.61192 0.74337 0.0
C1294 C 0.93418 0.6374 0.73889 0.0
C1295 C 0.9206 0.64446 0.71756 0.0
N1296 N 0.90509 0.59398 0.7271 0.0
C1297 C 0.89169 0.60076 0.70616 0.0
Co1298 Co 0.38036 0.90745 0.67418 0.0
Co1299 Co 0.34472 0.8859 0.74822 0.0
O1300 O 0.34779 0.88824 0.69792 0.0
C1301 C 0.37306 0.93997 0.62503 0.0
O1302 O 0.39088 0.95913 0.64169 0.0
C1303 C 0.30965 0.83266 0.72393 0.0
O1304 O 0.32006 0.8378 0.69358 0.0
O1305 O 0.37049 0.87535 0.75142 0.0
O1306 O 0.39733 0.89727 0.70917 0.0
H1307 H 0.37855 0.90174 0.86803 0.0
H1308 H 0.33608 0.87134 0.63396 0.0
O1309 O 0.36422 0.91782 0.63729 0.0
H1310 H 0.39682 0.84148 0.6241 0.0
H1311 H 0.43826 0.93677 0.57193 0.0
H1312 H 0.43237 0.94258 0.69685 0.0
H1313 H 0.40723 0.87949 0.65723 0.0
H1314 H 0.39753 0.91263 0.6013 0.0
O1315 O 0.31739 0.84951 0.74693 0.0
H1316 H 0.38141 0.90426 0.8052 0.0
H1317 H 0.30181 0.86286 0.79754 0.0
H1318 H 0.47351 0.96697 0.66847 0.0
H1319 H 0.32511 0.8336 0.59977 0.0
H1320 H 0.47665 0.96419 0.60556 0.0
H1321 H 0.35553 0.81833 0.59485 0.0
O1322 O 0.38864 0.93815 0.7018 0.0
H1323 H 0.2676 0.88371 0.70085 0.0
H1324 H 0.33678 0.92422 0.78398 0.0
H1325 H 0.30553 0.93808 0.77988 0.0
H1326 H 0.27054 0.91769 0.73819 0.0
H1327 H 0.29942 0.87064 0.70552 0.0
H1328 H 0.29811 0.85972 0.86027 0.0
H1329 H 0.33666 0.87933 0.89599 0.0
O1330 O 0.37149 0.92181 0.75271 0.0
C1331 C 0.39147 0.88366 0.73599 0.0
C1332 C 0.36161 0.89316 0.85276 0.0
C1333 C 0.31647 0.86956 0.8484 0.0
N1334 N 0.34182 0.88382 0.79767 0.0
C1335 C 0.3631 0.89457 0.81716 0.0
C1336 C 0.31869 0.87134 0.81286 0.0
C1337 C 0.3381 0.88057 0.86842 0.0
C1338 C 0.34953 0.86497 0.63169 0.0
N1339 N 0.37223 0.87755 0.64785 0.0
C1340 C 0.34316 0.84351 0.61241 0.0
C1341 C 0.36021 0.83493 0.60971 0.0
C1342 C 0.38335 0.84787 0.62619 0.0
C1343 C 0.38906 0.86926 0.64523 0.0
C1344 C 0.43715 0.93816 0.59936 0.0
C1345 C 0.43356 0.94125 0.66946 0.0
C1346 C 0.41412 0.92454 0.61615 0.0
N1347 N 0.41251 0.92623 0.65081 0.0
C1348 C 0.45692 0.9551 0.65353 0.0
C1349 C 0.45867 0.95353 0.61824 0.0
C1350 C 0.38566 0.9404 0.73366 0.0
C1351 C 0.28268 0.89266 0.71923 0.0
C1352 C 0.32167 0.91529 0.76569 0.0
C1353 C 0.30399 0.9232 0.76354 0.0
C1354 C 0.28437 0.91175 0.74015 0.0
N1355 N 0.31978 0.89641 0.74526 0.0
C1356 C 0.3007 0.88524 0.7221 0.0
Co1357 Co 0.48881 0.38042 0.66316 0.0
Co1358 Co 0.46578 0.34415 0.73656 0.0
O1359 O 0.47189 0.34758 0.68663 0.0
C1360 C 0.44853 0.34657 0.61065 0.0
O1361 O 0.43995 0.32577 0.62852 0.0
C1362 C 0.49048 0.31326 0.72542 0.0
O1363 O 0.50596 0.32991 0.70334 0.0
O1364 O 0.50174 0.36887 0.74636 0.0
O1365 O 0.51296 0.39547 0.70188 0.0
H1366 H 0.47168 0.37615 0.85618 0.0
H1367 H 0.4836 0.33364 0.63177 0.0
O1368 O 0.46588 0.36744 0.62234 0.0
H1369 H 0.57372 0.39614 0.62461 0.0
H1370 H 0.525 0.43931 0.56252 0.0
H1371 H 0.5081 0.43276 0.68634 0.0
H1372 H 0.54401 0.40732 0.64999 0.0
H1373 H 0.50476 0.39806 0.59125 0.0
O1374 O 0.47333 0.31597 0.73946 0.0
H1375 H 0.47907 0.37999 0.79401 0.0
H1376 H 0.43932 0.30053 0.78419 0.0
H1377 H 0.52873 0.47444 0.65867 0.0
H1378 H 0.51247 0.32182 0.60554 0.0
H1379 H 0.53728 0.4779 0.59631 0.0
H1380 H 0.55799 0.35314 0.60189 0.0
O1381 O 0.46527 0.39001 0.68473 0.0
H1382 H 0.39529 0.26853 0.6798 0.0
H1383 H 0.41679 0.33801 0.76024 0.0
H1384 H 0.37228 0.30803 0.74774 0.0
H1385 H 0.36128 0.27293 0.70733 0.0
H1386 H 0.43959 0.29909 0.69282 0.0
H1387 H 0.43172 0.29584 0.8463 0.0
H1388 H 0.44786 0.33383 0.88274 0.0
O1389 O 0.45781 0.37189 0.73642 0.0
C1390 C 0.51716 0.38921 0.73115 0.0
C1391 C 0.4645 0.35946 0.84058 0.0
C1392 C 0.4421 0.31438 0.83503 0.0
N1393 N 0.45954 0.34054 0.78543 0.0
C1394 C 0.46858 0.36151 0.80534 0.0
C1395 C 0.44652 0.31717 0.79987 0.0
C1396 C 0.45115 0.3357 0.85546 0.0
C1397 C 0.50317 0.3476 0.62975 0.0
N1398 N 0.51187 0.37133 0.64203 0.0
C1399 C 0.51954 0.34069 0.61509 0.0
C1400 C 0.54508 0.35823 0.61315 0.0
C1401 C 0.55392 0.38234 0.62592 0.0
C1402 C 0.53697 0.38854 0.64042 0.0
C1403 C 0.52141 0.43805 0.58972 0.0
C1404 C 0.51193 0.43412 0.65924 0.0
C1405 C 0.50985 0.41472 0.60613 0.0
N1406 N 0.50537 0.41298 0.64054 0.0
C1407 C 0.52354 0.45777 0.64369 0.0
C1408 C 0.52831 0.45969 0.60869 0.0
C1409 C 0.45659 0.38691 0.71509 0.0
C1410 C 0.39983 0.28371 0.69751 0.0
C1411 C 0.41217 0.32288 0.74248 0.0
C1412 C 0.38693 0.30591 0.73559 0.0
C1413 C 0.38077 0.28621 0.71293 0.0
N1414 N 0.43076 0.32025 0.7273 0.0
C1415 C 0.42487 0.30102 0.70504 0.0
H1416 H 0.44795 0.06339 0.28296 0.0
H1417 H 0.43145 0.03688 0.17893 0.0
H1418 H 0.40961 0.99342 0.19954 0.0
H1419 H 0.39473 0.96306 0.24698 0.0
H1420 H 0.41254 0.98961 0.35088 0.0
H1421 H 0.43437 0.03305 0.33025 0.0
C1422 C 0.43961 0.04818 0.26464 0.0
C1423 C 0.44129 0.05358 0.22929 0.0
C1424 C 0.42727 0.02323 0.27667 0.0
C1425 C 0.43051 0.03343 0.20617 0.0
C1426 C 0.41796 1.00854 0.21799 0.0
C1427 C 0.40332 0.97828 0.26526 0.0
C1428 C 0.40174 0.9729 0.30062 0.0
C1429 C 0.41612 1.00323 0.25317 0.0
C1430 C 0.41333 0.99305 0.32364 0.0
C1431 C 0.42583 0.01793 0.31182 0.0
H1432 H 0.43952 0.38714 0.24193 0.0
H1433 H 0.4307 0.40322 0.34668 0.0
H1434 H 0.40962 0.42587 0.32739 0.0
H1435 H 0.39328 0.44067 0.28095 0.0
H1436 H 0.40353 0.42589 0.17615 0.0
H1437 H 0.42458 0.40324 0.19546 0.0
C1438 C 0.433 0.39554 0.26067 0.0
C1439 C 0.43661 0.39323 0.29584 0.0
C1440 C 0.42116 0.40882 0.24938 0.0
C1441 C 0.4282 0.40458 0.31952 0.0
C1442 C 0.4161 0.41754 0.30849 0.0
C1443 C 0.40011 0.43254 0.26222 0.0
C1444 C 0.39662 0.43494 0.22702 0.0
C1445 C 0.41242 0.41972 0.27349 0.0
C1446 C 0.40588 0.4244 0.20331 0.0
C1447 C 0.4179 0.41138 0.21436 0.0
H1448 H 0.96495 0.3896 0.27763 0.0
H1449 H 0.99261 0.40621 0.17402 0.0
H1450 H 0.03583 0.428 0.19511 0.0
H1451 H 0.06573 0.44189 0.24274 0.0
H1452 H 0.03832 0.42742 0.34653 0.0
H1453 H 0.99499 0.40535 0.32552 0.0
C1454 C 0.98041 0.39794 0.25961 0.0
C1455 C 0.97545 0.39603 0.22419 0.0
C1456 C 1.00526 0.41087 0.27195 0.0
C1457 C 0.9958 0.40732 0.20134 0.0
C1458 C 0.02054 0.41977 0.2134 0.0
C1459 C 0.05032 0.43393 0.26087 0.0
C1460 C 0.05538 0.43618 0.29626 0.0
C1461 C 0.02549 0.42159 0.24862 0.0
C1462 C 0.03506 0.426 0.31922 0.0
C1463 C 1.01026 0.41331 0.3072 0.0
H1464 H 0.58604 0.95938 0.28035 0.0
H1465 H 0.59554 0.98389 0.17522 0.0
H1466 H 0.61775 0.02771 0.19375 0.0
H1467 H 0.63476 0.05901 0.23962 0.0
H1468 H 0.62341 0.03467 0.34487 0.0
H1469 H 0.60155 0.99078 0.32639 0.0
C1470 C 0.59298 0.97427 0.26142 0.0
C1471 C 0.58923 0.96824 0.22635 0.0
C1472 C 0.60539 0.99946 0.27228 0.0
C1473 C 0.59811 0.98789 0.20232 0.0
C1474 C 0.61087 0.01298 0.21291 0.0
C1475 C 0.62757 0.04416 0.25861 0.0
C1476 C 0.63095 0.05024 0.29367 0.0
C1477 C 0.61468 0.01898 0.2478 0.0
C1478 C 0.62113 0.03062 0.31778 0.0
C1479 C 0.60866 1.00549 0.3072 0.0
H1480 H 0.58541 0.63001 0.23707 0.0
H1481 H 0.58737 0.60961 0.34221 0.0
H1482 H 0.60901 0.58717 0.32507 0.0
H1483 H 0.62812 0.57412 0.28074 0.0
H1484 H 0.62499 0.59289 0.17522 0.0
H1485 H 0.60287 0.61508 0.19209 0.0
C1486 C 0.59053 0.62066 0.2563 0.0
C1487 C 0.58486 0.62172 0.29101 0.0
C1488 C 0.60274 0.60748 0.24621 0.0
C1489 C 0.59145 0.60918 0.31539 0.0
C1490 C 0.60388 0.59635 0.3056 0.0
C1491 C 0.62263 0.58302 0.2613 0.0
C1492 C 0.62848 0.58197 0.22669 0.0
C1493 C 0.60975 0.59551 0.27115 0.0
C1494 C 0.62081 0.59338 0.20198 0.0
C1495 C 0.60821 0.60614 0.21166 0.0
H1496 H 0.03682 0.611 0.19422 0.0
H1497 H 0.07733 0.64157 0.28831 0.0
H1498 H 0.03818 0.62178 0.32026 0.0
H1499 H 0.99198 0.59585 0.32206 0.0
H1500 H 0.95139 0.56706 0.22766 0.0
H1501 H 0.99062 0.58589 0.19586 0.0
C1502 C 0.0371 0.61337 0.22169 0.0
C1503 C 0.06018 0.62784 0.23857 0.0
C1504 C 1.01432 0.60216 0.24017 0.0
C1505 C 0.05999 0.63067 0.27432 0.0
C1506 C 0.03752 0.61928 0.29281 0.0
C1507 C 0.99173 0.59364 0.29457 0.0
C1508 C 0.96862 0.57999 0.27749 0.0
C1509 C 1.01452 0.60497 0.27607 0.0
C1510 C 0.96878 0.57752 0.24169 0.0
C1511 C 0.99129 0.58829 0.22333 0.0
H1512 H 0.5847 0.9592 0.74332 0.0
H1513 H 0.6014 0.98534 0.84742 0.0
H1514 H 0.62284 0.02893 0.82717 0.0
H1515 H 0.63715 0.05954 0.77978 0.0
H1516 H 0.61824 0.03301 0.67603 0.0
H1517 H 0.59732 0.98957 0.69638 0.0
C1518 C 0.59304 0.97437 0.76169 0.0
C1519 C 0.59158 0.9689 0.79691 0.0
C1520 C 0.60496 0.99933 0.7499 0.0
C1521 C 0.60223 0.98893 0.82022 0.0
C1522 C 0.61454 0.01388 0.80862 0.0
C1523 C 0.6285 0.04428 0.76156 0.0
C1524 C 0.62947 0.04962 0.72632 0.0
C1525 C 0.61609 0.01929 0.7735 0.0
C1526 C 0.61782 0.02953 0.70323 0.0
C1527 C 0.60587 1.00466 0.71485 0.0
H1528 H 0.63762 0.581 0.73715 0.0
H1529 H 0.62228 0.59161 0.84153 0.0
H1530 H 0.60056 0.61341 0.8216 0.0
H1531 H 0.58654 0.63009 0.77467 0.0
H1532 H 0.60024 0.61785 0.67025 0.0
H1533 H 0.62197 0.596 0.6902 0.0
C1534 C 0.62954 0.58803 0.75567 0.0
C1535 C 0.63187 0.58478 0.79095 0.0
C1536 C 0.6168 0.60031 0.744 0.0
C1537 C 0.62093 0.59383 0.81433 0.0
C1538 C 0.60851 0.60636 0.80292 0.0
C1539 C 0.59429 0.6227 0.75618 0.0
C1540 C 0.59189 0.62585 0.72091 0.0
C1541 C 0.60646 0.60984 0.76783 0.0
C1542 C 0.6018 0.61578 0.69748 0.0
C1543 C 0.61427 0.6033 0.70889 0.0
H1544 H 0.96396 0.57832 0.77618 0.0
H1545 H 0.99009 0.59214 0.67171 0.0
H1546 H 0.03361 0.61366 0.6917 0.0
H1547 H 0.06415 0.62906 0.73864 0.0
H1548 H 0.03807 0.61395 0.84309 0.0
H1549 H 0.99453 0.59233 0.82311 0.0
C1550 C 0.97911 0.58601 0.75766 0.0
C1551 C 0.97361 0.5837 0.72237 0.0
C1552 C 1.00411 0.59814 0.76933 0.0
C1553 C 0.99365 0.59362 0.69895 0.0
C1554 C 0.01857 0.60597 0.71038 0.0
C1555 C 0.04901 0.62107 0.75717 0.0
C1556 C 0.05453 0.62336 0.79245 0.0
C1557 C 0.02402 0.60844 0.7455 0.0
C1558 C 0.0345 0.61256 0.81586 0.0
C1559 C 1.00956 0.60021 0.80443 0.0
H1560 H 0.43429 0.03755 0.82718 0.0
H1561 H 0.45569 0.07373 0.72847 0.0
H1562 H 0.43629 0.03307 0.70044 0.0
H1563 H 0.41221 0.9869 0.70333 0.0
H1564 H 0.38945 0.95074 0.80193 0.0
H1565 H 0.4103 0.99136 0.83007 0.0
C1566 C 0.43481 0.03656 0.79957 0.0
C1567 C 0.44647 0.05885 0.78019 0.0
C1568 C 0.42324 0.01294 0.7833 0.0
C1569 C 0.4468 0.05703 0.7443 0.0
C1570 C 0.43569 0.03369 0.72807 0.0
C1571 C 0.41185 0.98787 0.73095 0.0
C1572 C 0.39913 0.96559 0.75023 0.0
C1573 C 0.42368 0.01148 0.74724 0.0
C1574 C 0.39893 0.96742 0.78614 0.0
C1575 C 0.41091 0.99073 0.80244 0.0
H1576 H 0.39848 0.44595 0.74294 0.0
H1577 H 0.41106 0.43235 0.84738 0.0
H1578 H 0.43317 0.41094 0.82746 0.0
H1579 H 0.44816 0.39544 0.7806 0.0
H1580 H 0.43737 0.4106 0.67612 0.0
H1581 H 0.41538 0.43221 0.69596 0.0
C1582 C 0.40602 0.43831 0.76142 0.0
C1583 C 0.40287 0.44062 0.7967 0.0
C1584 C 0.41904 0.42633 0.74978 0.0
C1585 C 0.41314 0.43086 0.82015 0.0
C1586 C 0.42576 0.41857 0.80876 0.0
C1587 C 0.44105 0.40346 0.76206 0.0
C1588 C 0.44428 0.40116 0.72681 0.0
C1589 C 0.4287 0.41609 0.77365 0.0
C1590 C 0.43517 0.41203 0.70333 0.0
C1591 C 0.42253 0.42434 0.71468 0.0
H1592 H 0.06586 0.43914 0.77994 0.0
H1593 H 0.0425 0.42658 0.67437 0.0
H1594 H 0.99845 0.40453 0.69233 0.0
H1595 H 0.96666 0.38845 0.73792 0.0
H1596 H 0.99012 0.40272 0.84339 0.0
H1597 H 0.03413 0.42451 0.82541 0.0
C1598 C 0.0512 0.43159 0.76075 0.0
C1599 C 0.05762 0.43443 0.72576 0.0
C1600 C 0.02592 0.41922 0.77125 0.0
C1601 C 0.03821 0.42471 0.70142 0.0
C1602 C 1.01299 0.41205 0.71169 0.0
C1603 C 0.98135 0.39628 0.75707 0.0
C1604 C 0.97496 0.39374 0.79207 0.0
C1605 C 1.00663 0.40911 0.74653 0.0
C1606 C 0.99438 0.40433 0.81634 0.0
C1607 C 0.01958 0.41678 0.80606 0.0
H1608 H 0.49192 0.20845 0.28918 0.0
H1609 H 0.49062 0.22198 0.18134 0.0
H1610 H 0.48924 0.26039 0.19351 0.0
H1611 H 0.48687 0.28935 0.23509 0.0
H1612 H 0.49291 0.27839 0.34268 0.0
H1613 H 0.49412 0.23987 0.33055 0.0
C1614 C 0.49153 0.21997 0.26841 0.0
C1615 C 0.49117 0.21237 0.23442 0.0
C1616 C 0.49154 0.24242 0.27562 0.0
C1617 C 0.49097 0.22753 0.20768 0.0
C1618 C 0.49008 0.24941 0.21464 0.0
C1619 C 0.48862 0.27856 0.2558 0.0
C1620 C 0.48958 0.28649 0.28975 0.0
C1621 C 0.49012 0.25692 0.24852 0.0
C1622 C 0.49218 0.27262 0.31637 0.0
C1623 C 0.49278 0.25058 0.30944 0.0
H1624 H 0.20813 0.48365 0.23961 0.0
H1625 H 0.2259 0.48655 0.34657 0.0
H1626 H 0.26495 0.48687 0.33228 0.0
H1627 H 0.29324 0.48475 0.28912 0.0
H1628 H 0.27768 0.48654 0.18213 0.0
H1629 H 0.23863 0.48612 0.19646 0.0
C1630 C 0.2207 0.48454 0.25972 0.0
C1631 C 0.21415 0.48486 0.2941 0.0
C1632 C 0.24343 0.48552 0.25123 0.0
C1633 C 0.23064 0.48633 0.31996 0.0
C1634 C 0.25288 0.48642 0.31178 0.0
C1635 C 0.28133 0.48522 0.26901 0.0
C1636 C 0.28813 0.48545 0.23461 0.0
C1637 C 0.25935 0.48578 0.27751 0.0
C1638 C 0.2728 0.4864 0.20875 0.0
C1639 C 0.25046 0.48607 0.21695 0.0
H1640 H 0.75078 0.19835 0.24621 0.0
H1641 H 0.72406 0.22905 0.32386 0.0
H1642 H 0.76096 0.27058 0.31525 0.0
H1643 H 0.80161 0.29784 0.28728 0.0
H1644 H 0.82815 0.26708 0.20941 0.0
H1645 H 0.79039 0.22604 0.21629 0.0
C1646 C 0.75297 0.21411 0.26126 0.0
C1647 C 0.73467 0.21047 0.28585 0.0
C1648 C 0.7742 0.23799 0.25606 0.0
C1649 C 0.73779 0.23123 0.30481 0.0
C1650 C 0.75893 0.25501 0.29991 0.0
C1651 C 0.79908 0.28224 0.27155 0.0
C1652 C 0.81785 0.28565 0.2479 0.0
C1653 C 0.77735 0.25858 0.27579 0.0
C1654 C 0.81409 0.26514 0.22775 0.0
C1655 C 0.79252 0.24158 0.23179 0.0
H1656 H 0.53775 0.81252 0.28406 0.0
H1657 H 0.5398 0.79935 0.17637 0.0
H1658 H 0.54005 0.76035 0.18887 0.0
H1659 H 0.54106 0.73065 0.23071 0.0
H1660 H 0.53424 0.74135 0.33808 0.0
H1661 H 0.53431 0.78052 0.32563 0.0
C1662 C 0.53805 0.80096 0.26339 0.0
C1663 C 0.53892 0.80882 0.22934 0.0
C1664 C 0.53738 0.77817 0.27078 0.0
C1665 C 0.53903 0.79361 0.20274 0.0
C1666 C 0.53928 0.77138 0.2099 0.0
C1667 C 0.53943 0.74153 0.25132 0.0
C1668 C 0.53786 0.7333 0.2853 0.0
C1669 C 0.53866 0.76358 0.24383 0.0
C1670 C 0.53543 0.74732 0.31175 0.0
C1671 C 0.53556 0.76974 0.30462 0.0
H1672 H 0.73633 0.54231 0.29995 0.0
H1673 H 0.73972 0.51797 0.19787 0.0
H1674 H 0.77798 0.517 0.21254 0.0
H1675 H 0.81148 0.52489 0.25374 0.0
H1676 H 0.80649 0.54636 0.35697 0.0
H1677 H 0.76771 0.54639 0.34267 0.0
C1678 C 0.74542 0.53669 0.28099 0.0
C1679 C 0.73539 0.53047 0.24776 0.0
C1680 C 0.76707 0.53563 0.28985 0.0
C1681 C 0.74709 0.52284 0.22359 0.0
C1682 C 0.76899 0.52235 0.23195 0.0
C1683 C 0.80177 0.52936 0.27318 0.0
C1684 C 0.81194 0.53578 0.30634 0.0
C1685 C 0.77929 0.52896 0.2649 0.0
C1686 C 0.79902 0.54127 0.33134 0.0
C1687 C 0.77692 0.54143 0.3231 0.0
H1688 H 0.22239 0.73435 0.29349 0.0
H1689 H 0.22086 0.73602 0.18348 0.0
H1690 H 0.26039 0.77639 0.18322 0.0
H1691 H 0.2948 0.8117 0.21463 0.0
H1692 H 0.29354 0.8118 0.32473 0.0
H1693 H 0.25567 0.7702 0.32477 0.0
C1694 C 0.23089 0.74342 0.26944 0.0
C1695 C 0.21904 0.73206 0.23848 0.0
C1696 C 0.25303 0.76696 0.26962 0.0
C1697 C 0.2298 0.74434 0.20756 0.0
C1698 C 0.25235 0.7674 0.20746 0.0
C1699 C 0.28631 0.80247 0.2386 0.0
C1700 C 0.29708 0.8146 0.26968 0.0
C1701 C 0.26407 0.77894 0.23835 0.0
C1702 C 0.28562 0.80276 0.30054 0.0
C1703 C 0.264 0.779 0.30055 0.0
H1704 H 0.51478 0.72144 0.79259 0.0
H1705 H 0.57077 0.75256 0.71282 0.0
H1706 H 0.57412 0.79349 0.72038 0.0
H1707 H 0.56263 0.82097 0.75116 0.0
H1708 H 0.50654 0.79019 0.83075 0.0
H1709 H 0.5018 0.74865 0.82168 0.0
C1710 C 0.52756 0.73709 0.77661 0.0
C1711 C 0.54255 0.73382 0.75222 0.0
C1712 C 0.52953 0.76073 0.78123 0.0
C1713 C 0.55898 0.75441 0.73178 0.0
C1714 C 0.56099 0.77791 0.73617 0.0
C1715 C 0.54933 0.8052 0.76656 0.0
C1716 C 0.53508 0.80879 0.79179 0.0
C1717 C 0.54663 0.78137 0.76111 0.0
C1718 C 0.51777 0.78802 0.81119 0.0
C1719 C 0.51506 0.76424 0.80603 0.0
H1720 H 0.73672 0.53639 0.73216 0.0
H1721 H 0.75143 0.53397 0.83935 0.0
H1722 H 0.78992 0.53313 0.82545 0.0
H1723 H 0.82023 0.53472 0.78261 0.0
H1724 H 0.80322 0.53267 0.67546 0.0
H1725 H 0.76472 0.53348 0.68936 0.0
C1726 C 0.74832 0.53552 0.75242 0.0
C1727 C 0.74145 0.53548 0.78674 0.0
C1728 C 0.76998 0.53427 0.74418 0.0
C1729 C 0.75636 0.53399 0.81278 0.0
C1730 C 0.77839 0.5336 0.80482 0.0
C1731 C 0.80795 0.53426 0.76237 0.0
C1732 C 0.81458 0.53384 0.72805 0.0
C1733 C 0.78551 0.53398 0.77062 0.0
C1734 C 0.79843 0.53293 0.70203 0.0
C1735 C 0.7765 0.5335 0.70999 0.0
H1736 H 0.29511 0.80818 0.78488 0.0
H1737 H 0.27349 0.80175 0.67895 0.0
H1738 H 0.23429 0.76288 0.69156 0.0
H1739 H 0.20536 0.73162 0.73321 0.0
H1740 H 0.22839 0.73598 0.83817 0.0
H1741 H 0.26788 0.77467 0.82552 0.0
C1742 C 0.28188 0.79813 0.76453 0.0
C1743 C 0.28712 0.80791 0.73104 0.0
C1744 C 0.25962 0.77549 0.77186 0.0
C1745 C 0.26995 0.79458 0.70487 0.0
C1746 C 0.24748 0.77242 0.71212 0.0
C1747 C 0.21911 0.741 0.75326 0.0
C1748 C 0.2139 0.73113 0.78667 0.0
C1749 C 0.24199 0.76285 0.74557 0.0
C1750 C 0.232 0.74323 0.81229 0.0
C1751 C 0.25452 0.76538 0.80506 0.0
H1752 H 0.48172 0.29094 0.78748 0.0
H1753 H 0.50485 0.28636 0.68508 0.0
H1754 H 0.50607 0.24826 0.70052 0.0
H1755 H 0.49892 0.21534 0.74279 0.0
H1756 H 0.47903 0.22207 0.8463 0.0
H1757 H 0.47836 0.26035 0.83091 0.0
C1758 C 0.48711 0.28162 0.76858 0.0
C1759 C 0.49291 0.29124 0.73507 0.0
C1760 C 0.48836 0.26015 0.77789 0.0
C1761 C 0.50029 0.27928 0.711 0.0
C1762 C 0.50091 0.25747 0.71982 0.0
C1763 C 0.49463 0.22532 0.76202 0.0
C1764 C 0.48887 0.21579 0.79562 0.0
C1765 C 0.49476 0.24761 0.75312 0.0
C1766 C 0.48362 0.22905 0.82033 0.0
C1767 C 0.48311 0.25087 0.81149 0.0
H1768 H 0.20989 0.48284 0.79152 0.0
H1769 H 0.23023 0.4929 0.68494 0.0
H1770 H 0.26973 0.49402 0.69859 0.0
H1771 H 0.29778 0.49055 0.74086 0.0
H1772 H 0.27954 0.48504 0.84795 0.0
H1773 H 0.23999 0.48384 0.8343 0.0
C1774 C 0.2231 0.48544 0.77136 0.0
C1775 C 0.21713 0.48756 0.73723 0.0
C1776 C 0.24608 0.48684 0.77956 0.0
C1777 C 0.23447 0.49125 0.71137 0.0
C1778 C 0.25699 0.49181 0.71917 0.0
C1779 C 0.28519 0.4893 0.76116 0.0
C1780 C 0.2914 0.48773 0.79535 0.0
C1781 C 0.26289 0.48939 0.75314 0.0
C1782 C 0.27515 0.48638 0.82149 0.0
C1783 C 0.25252 0.48558 0.81366 0.0
H1784 H 0.82617 0.27463 0.74518 0.0
H1785 H 0.7966 0.30123 0.82456 0.0
H1786 H 0.75499 0.26427 0.81712 0.0
H1787 H 0.72738 0.22355 0.78972 0.0
H1788 H 0.75702 0.19718 0.7101 0.0
H1789 H 0.79808 0.23502 0.7158 0.0
C1790 C 0.81063 0.2724 0.76085 0.0
C1791 C 0.81461 0.29067 0.78558 0.0
C1792 C 0.7867 0.25114 0.75634 0.0
C1793 C 0.79414 0.28752 0.80536 0.0
C1794 C 0.77032 0.26635 0.80114 0.0
C1795 C 0.74273 0.22614 0.77336 0.0
C1796 C 0.73901 0.20739 0.74957 0.0
C1797 C 0.76642 0.24793 0.77691 0.0
C1798 C 0.75921 0.21122 0.72859 0.0
C1799 C 0.78279 0.23284 0.73194 0.0
H1800 H 0.42329 0.0559 0.06054 0.0
H1801 H 0.46067 0.13649 0.07162 0.0
H1802 H 0.46066 0.14136 1.00978 0.0
H1803 H 0.45496 0.12307 0.95221 0.0
H1804 H 0.41788 0.04245 0.94136 0.0
H1805 H 0.41262 0.03741 1.00309 0.0
C1806 C 0.43098 0.07453 0.04954 0.0
C1807 C 0.4422 0.09577 0.07097 0.0
C1808 C 0.43121 0.07727 0.01375 0.0
C1809 C 0.45194 0.11973 0.05601 0.0
C1810 C 0.45209 0.12258 0.02049 0.0
C1811 C 0.4452 0.10436 0.96321 0.0
C1812 C 0.4371 0.0832 0.94192 0.0
C1813 C 0.4425 0.10153 0.99902 0.0
C1814 C 0.4245 0.05913 0.95691 0.0
C1815 C 0.42155 0.0562 0.99236 0.0
H1816 H 0.30895 0.42646 0.95812 0.0
H1817 H 0.38718 0.44763 0.9505 0.0
H1818 H 0.38941 0.44405 0.01211 0.0
H1819 H 0.37099 0.4402 0.0685 0.0
H1820 H 0.29328 0.42023 0.07789 0.0
H1821 H 0.28887 0.41747 0.01556 0.0
C1822 C 0.32628 0.42965 0.9699 0.0
C1823 C 0.34793 0.43754 0.9496 0.0
C1824 C 0.32762 0.42798 1.0058 0.0
C1825 C 0.37028 0.44176 0.9654 0.0
C1826 C 0.37162 0.43977 1.00073 0.0
C1827 C 0.35292 0.43478 0.05699 0.0
C1828 C 0.33257 0.43066 0.0779 0.0
C1829 C 0.35068 0.43372 0.02125 0.0
C1830 C 0.30926 0.42344 0.06249 0.0
C1831 C 0.30679 0.42207 0.02677 0.0
H1832 H 0.94391 0.37184 0.94927 0.0
H1833 H 0.88843 0.29338 0.93951 0.0
H1834 H 0.88767 0.28842 1.0017 0.0
H1835 H 0.89881 0.30795 0.05925 0.0
H1836 H 0.9539 0.38679 0.06748 0.0
H1837 H 0.95887 0.38989 1.00573 0.0
C1838 C 0.93195 0.35352 0.96067 0.0
C1839 C 0.91606 0.33309 0.93975 0.0
C1840 C 0.93136 0.35091 0.99635 0.0
C1841 C 0.90089 0.30944 0.95496 0.0
C1842 C 0.90031 0.30664 0.9906 0.0
C1843 C 0.91235 0.32563 0.04757 0.0
C1844 C 0.92573 0.34717 0.06808 0.0
C1845 C 0.9149 0.32745 0.01166 0.0
C1846 C 0.94314 0.36996 0.0524 0.0
C1847 C 0.94598 0.3718 0.01701 0.0
H1848 H 0.60123 0.88938 0.06451 0.0
H1849 H 0.57959 0.94591 0.07506 0.0
H1850 H 0.58196 0.95207 0.01353 0.0
H1851 H 0.58474 0.93777 0.95646 0.0
H1852 H 0.60571 0.88096 0.94429 0.0
H1853 H 0.60953 0.87893 1.00637 0.0
C1854 C 0.59771 0.9035 0.05338 0.0
C1855 C 0.58996 0.91694 0.07446 0.0
C1856 C 0.59872 0.90675 0.01754 0.0
C1857 C 0.58533 0.93509 0.05951 0.0
C1858 C 0.58662 0.93862 0.02423 0.0
C1859 C 0.5906 0.92526 0.96732 0.0
C1860 C 0.59467 0.90937 0.94574 0.0
C1861 C 0.59242 0.92395 1.00294 0.0
C1862 C 0.6025 0.89345 0.96026 0.0
C1863 C 0.6045 0.89214 0.99583 0.0
H1864 H 0.65567 0.60221 0.06442 0.0
H1865 H 0.6941 0.55994 0.07496 0.0
H1866 H 0.69976 0.56096 0.01318 0.0
H1867 H 0.68852 0.56869 0.95564 0.0
H1868 H 0.6495 0.61043 0.94553 0.0
H1869 H 0.64976 0.61505 1.00733 0.0
C1870 C 0.66576 0.59367 0.05333 0.0
C1871 C 0.67413 0.58076 0.07449 0.0
C1872 C 0.66867 0.594 0.01761 0.0
C1873 C 0.68735 0.56998 0.05949 0.0
C1874 C 0.69048 0.5704 0.02401 0.0
C1875 C 0.68065 0.57936 0.96685 0.0
C1876 C 0.66872 0.58891 0.94579 0.0
C1877 C 0.68045 0.58161 1.0027 0.0
C1878 C 0.65861 0.60265 0.96098 0.0
C1879 C 0.65864 0.60524 0.99644 0.0
H1880 H 0.08402 0.64669 0.95189 0.0
H1881 H 0.14078 0.72476 0.9421 0.0
H1882 H 0.14174 0.72947 1.00429 0.0
H1883 H 0.13024 0.70981 0.0618 0.0
H1884 H 0.07343 0.63151 0.07031 0.0
H1885 H 0.06864 0.62864 1.00854 0.0
C1886 C 0.0963 0.66488 0.96329 0.0
C1887 C 0.11247 0.68527 0.9423 0.0
C1888 C 0.09694 0.66737 0.99902 0.0
C1889 C 0.12807 0.70875 0.95756 0.0
C1890 C 0.12877 0.7114 0.9932 0.0
C1891 C 0.11638 0.69229 0.05022 0.0
C1892 C 0.1025 0.67082 0.07087 0.0
C1893 C 0.11383 0.69063 0.01429 0.0
C1894 C 0.08464 0.64828 0.05521 0.0
C1895 C 0.08188 0.64657 0.01977 0.0
H1896 H 0.94423 0.57966 0.56306 0.0
H1897 H 0.88577 0.59855 0.57324 0.0
H1898 H 0.88489 0.60295 0.51111 0.0
H1899 H 0.89706 0.59597 0.4534 0.0
H1900 H 0.95571 0.57708 0.44458 0.0
H1901 H 0.96028 0.57841 0.50637 0.0
C1902 C 0.9316 0.5852 0.55176 0.0
C1903 C 0.91494 0.58854 0.57283 0.0
C1904 C 0.93105 0.58748 0.51606 0.0
C1905 C 0.89886 0.59592 0.55772 0.0
C1906 C 0.89822 0.59826 0.5221 0.0
C1907 C 0.91129 0.59281 0.46494 0.0
C1908 C 0.92577 0.5861 0.44418 0.0
C1909 C 0.91372 0.59334 0.50089 0.0
C1910 C 0.94407 0.58199 0.45977 0.0
C1911 C 0.94669 0.58268 0.49522 0.0
H1912 H 0.34634 0.90353 0.5774 0.0
H1913 H 0.39148 0.98394 0.5893 0.0
H1914 H 0.39304 0.98937 0.52749 0.0
H1915 H 0.38627 0.97108 0.46994 0.0
H1916 H 0.34154 0.89064 0.45802 0.0
H1917 H 0.33499 0.88562 0.51959 0.0
C1918 C 0.35603 0.9223 0.56659 0.0
C1919 C 0.369 0.94326 0.58823 0.0
C1920 C 0.35723 0.92533 0.53078 0.0
C1921 C 0.38144 0.96741 0.57348 0.0
C1922 C 0.38247 0.97056 0.53799 0.0
C1923 C 0.37467 0.95247 0.48067 0.0
C1924 C 0.3647 0.9313 0.45913 0.0
C1925 C 0.37116 0.94962 0.51635 0.0
C1926 C 0.34959 0.90735 0.47374 0.0
C1927 C 0.3459 0.9044 0.50911 0.0
H1928 H 0.429 0.30688 0.5655 0.0
H1929 H 0.45299 0.38579 0.57334 0.0
H1930 H 0.44988 0.38848 0.51174 0.0
H1931 H 0.44533 0.37002 0.45525 0.0
H1932 H 0.42225 0.29153 0.44571 0.0
H1933 H 0.41948 0.28699 0.50802 0.0
C1934 C 0.43293 0.32448 0.55378 0.0
C1935 C 0.44147 0.34615 0.57416 0.0
C1936 C 0.43147 0.32607 0.51788 0.0
C1937 C 0.44662 0.36885 0.5584 0.0
C1938 C 0.44489 0.37046 0.52306 0.0
C1939 C 0.43926 0.35178 0.46672 0.0
C1940 C 0.43424 0.33122 0.44574 0.0
C1941 C 0.43813 0.34943 0.50248 0.0
C1942 C 0.42618 0.30769 0.46114 0.0
C1943 C 0.42479 0.30513 0.49686 0.0
H1944 H 0.08914 0.44087 0.56968 0.0
H1945 H 0.14605 0.41982 0.57989 0.0
H1946 H 0.14672 0.41539 0.51774 0.0
H1947 H 0.13496 0.42305 0.45996 0.0
H1948 H 0.07836 0.44479 0.4514 0.0
H1949 H 0.07365 0.44315 0.51316 0.0
C1950 C 0.10139 0.43486 0.5584 0.0
C1951 C 0.11769 0.43093 0.57944 0.0
C1952 C 0.10191 0.43269 0.52274 0.0
C1953 C 0.13326 0.42293 0.56436 0.0
C1954 C 0.13378 0.42058 0.52874 0.0
C1955 C 0.12114 0.42676 0.47158 0.0
C1956 C 0.10724 0.43429 0.45094 0.0
C1957 C 0.11873 0.42617 0.50754 0.0
C1958 C 0.0895 0.43918 0.46656 0.0
C1959 C 0.08681 0.43833 0.50198 0.0
H1960 H 0.65224 0.0819 0.45153 0.0
H1961 H 0.73107 0.1363 0.44168 0.0
H1962 H 0.73575 0.13718 0.50392 0.0
H1963 H 0.71601 0.12642 0.56146 0.0
H1964 H 0.63681 0.07248 0.56974 0.0
H1965 H 0.63384 0.06744 0.50804 0.0
C1966 C 0.67057 0.09366 0.46291 0.0
C1967 C 0.6912 0.1092 0.44193 0.0
C1968 C 0.67302 0.09435 0.49862 0.0
C1969 C 0.71486 0.12411 0.45716 0.0
C1970 C 0.7175 0.12476 0.49282 0.0
C1971 C 0.69826 0.11313 0.5498 0.0
C1972 C 0.67661 0.10009 0.57033 0.0
C1973 C 0.69653 0.11053 0.5139 0.0
C1974 C 0.65373 0.08299 0.55467 0.0
C1975 C 0.65197 0.0801 0.51929 0.0
H1976 H 0.60085 0.71407 0.45231 0.0
H1977 H 0.57671 0.63537 0.44069 0.0
H1978 H 0.57881 0.63099 0.50216 0.0
H1979 H 0.58215 0.64788 0.5595 0.0
H1980 H 0.60573 0.72624 0.57266 0.0
H1981 H 0.60965 0.73244 0.51066 0.0
C1982 C 0.59674 0.69617 0.46319 0.0
C1983 C 0.58838 0.67504 0.44183 0.0
C1984 C 0.59759 0.69359 0.49899 0.0
C1985 C 0.58296 0.65191 0.45646 0.0
C1986 C 0.58407 0.64932 0.4917 0.0
C1987 C 0.58858 0.66644 0.54888 0.0
C1988 C 0.59336 0.68648 0.57074 0.0
C1989 C 0.5905 0.66979 0.51327 0.0
C1990 C 0.60192 0.71045 0.55649 0.0
C1991 C 0.604 0.71398 0.52095 0.0
H1992 H 0.5534 0.13141 0.19734 0.0
H1993 H 0.53246 0.14856 0.29462 0.0
H1994 H 0.56931 0.15037 0.32104 0.0
H1995 H 0.60589 0.14452 0.31715 0.0
H1996 H 0.62847 0.13016 0.21946 0.0
H1997 H 0.59275 0.13043 0.19226 0.0
C1998 C 0.55703 0.13597 0.22419 0.0
C1999 C 0.53997 0.1397 0.24392 0.0
C2000 C 0.57853 0.13747 0.23911 0.0
C2001 C 0.54513 0.14554 0.27875 0.0
C2002 C 0.56621 0.14655 0.29393 0.0
C2003 C 0.60315 0.14165 0.2899 0.0
C2004 C 0.61962 0.13692 0.2705 0.0
C2005 C 0.58279 0.14214 0.27446 0.0
C2006 C 0.61606 0.13375 0.23503 0.0
C2007 C 0.59555 0.13379 0.2195 0.0
H2008 H 0.46709 0.60228 0.31441 0.0
H2009 H 0.50474 0.62428 0.21697 0.0
H2010 H 0.46911 0.58812 0.19003 0.0
H2011 H 0.42949 0.54816 0.19567 0.0
H2012 H 0.39117 0.52707 0.29291 0.0
H2013 H 0.42518 0.56504 0.31867 0.0
C2014 C 0.46741 0.59939 0.28722 0.0
C2015 C 0.48874 0.61578 0.26786 0.0
C2016 C 0.44694 0.57859 0.27203 0.0
C2017 C 0.48861 0.61198 0.23249 0.0
C2018 C 0.46832 0.59118 0.21714 0.0
C2019 C 0.42826 0.55197 0.22234 0.0
C2020 C 0.40775 0.53458 0.2423 0.0
C2021 C 0.4477 0.57401 0.23688 0.0
C2022 C 0.40667 0.54001 0.2769 0.0
C2023 C 0.42614 0.56172 0.29168 0.0
H2024 H 0.89281 0.46803 0.32198 0.0
H2025 H 0.87153 0.48953 0.22826 0.0
H2026 H 0.86892 0.45298 0.19964 0.0
H2027 H 0.87636 0.41716 0.20038 0.0
H2028 H 0.89515 0.39451 0.29504 0.0
H2029 H 0.89432 0.42905 0.32468 0.0
C2030 C 0.88713 0.46459 0.29552 0.0
C2031 C 0.88268 0.48177 0.27728 0.0
C2032 C 0.88524 0.44335 0.27946 0.0
C2033 C 0.87522 0.47677 0.24292 0.0
C2034 C 0.87377 0.45588 0.22651 0.0
C2035 C 0.88002 0.41963 0.22753 0.0
C2036 C 0.88633 0.40363 0.24536 0.0
C2037 C 0.87931 0.4394 0.24438 0.0
C2038 C 0.89039 0.40664 0.28073 0.0
C2039 C 0.89006 0.42647 0.29762 0.0
H2040 H 0.47142 0.87825 0.20414 0.0
H2041 H 0.50751 0.8845 0.30103 0.0
H2042 H 0.47352 0.88674 0.33027 0.0
H2043 H 0.4356 0.8905 0.32747 0.0
H2044 H 0.39824 0.88159 0.23079 0.0
H2045 H 0.43101 0.87705 0.20211 0.0
C2046 C 0.47175 0.87975 0.23167 0.0
C2047 C 0.49221 0.88152 0.25026 0.0
C2048 C 0.45211 0.88087 0.24825 0.0
C2049 C 0.49208 0.88314 0.28604 0.0
C2050 C 0.47271 0.88459 0.30275 0.0
C2051 C 0.43434 0.88721 0.30023 0.0
C2052 C 0.41447 0.88657 0.28137 0.0
C2053 C 0.45295 0.88405 0.284 0.0
C2054 C 0.41329 0.88225 0.246 0.0
C2055 C 0.43204 0.87966 0.22955 0.0
H2056 H 0.59726 0.46856 0.20199 0.0
H2057 H 0.63078 0.49447 0.30135 0.0
H2058 H 0.59525 0.45817 0.32799 0.0
H2059 H 0.55366 0.42067 0.3233 0.0
H2060 H 0.52138 0.3929 0.22403 0.0
H2061 H 0.55779 0.42829 0.19696 0.0
C2062 C 0.59706 0.46615 0.22941 0.0
C2063 C 0.61669 0.48443 0.24958 0.0
C2064 C 0.57679 0.44496 0.24456 0.0
C2065 C 0.61598 0.48083 0.28513 0.0
C2066 C 0.59562 0.46007 0.30043 0.0
C2067 C 0.55464 0.42213 0.29577 0.0
C2068 C 0.53461 0.40427 0.27582 0.0
C2069 C 0.57577 0.44225 0.28043 0.0
C2070 C 0.53644 0.40638 0.24005 0.0
C2071 C 0.55723 0.42668 0.22456 0.0
H2072 H 0.14457 0.59369 0.1971 0.0
H2073 H 0.14704 0.62811 0.2939 0.0
H2074 H 0.1489 0.59401 0.32365 0.0
H2075 H 0.14561 0.55254 0.32193 0.0
H2076 H 0.14519 0.51915 0.22494 0.0
H2077 H 0.14687 0.55499 0.19522 0.0
C2078 C 0.14573 0.59389 0.22465 0.0
C2079 C 0.14512 0.61316 0.24325 0.0
C2080 C 0.14702 0.57438 0.24145 0.0
C2081 C 0.14728 0.61344 0.27897 0.0
C2082 C 0.14824 0.59388 0.29598 0.0
C2083 C 0.14625 0.55319 0.29434 0.0
C2084 C 0.1449 0.53293 0.27575 0.0
C2085 C 0.14747 0.57395 0.27747 0.0
C2086 C 0.14608 0.53436 0.23992 0.0
C2087 C 0.14695 0.55482 0.22291 0.0
H2088 H 0.47261 0.87498 0.82414 0.0
H2089 H 0.50872 0.88825 0.72583 0.0
H2090 H 0.4725 0.88756 0.69886 0.0
H2091 H 0.43238 0.88679 0.70422 0.0
H2092 H 0.39482 0.87052 0.80191 0.0
H2093 H 0.42994 0.86874 0.82825 0.0
C2094 C 0.47249 0.87751 0.79681 0.0
C2095 C 0.49357 0.88214 0.77715 0.0
C2096 C 0.45144 0.87668 0.78145 0.0
C2097 C 0.49285 0.88483 0.7416 0.0
C2098 C 0.47216 0.88451 0.72619 0.0
C2099 C 0.43156 0.88241 0.73113 0.0
C2100 C 0.41099 0.87905 0.75104 0.0
C2101 C 0.4516 0.88098 0.746 0.0
C2102 C 0.41038 0.8733 0.78593 0.0
C2103 C 0.43052 0.87234 0.80106 0.0
H2104 H 0.60205 0.47142 0.82382 0.0
H2105 H 0.63805 0.4968 0.72554 0.0
H2106 H 0.60323 0.46035 0.69835 0.0
H2107 H 0.56119 0.4234 0.7019 0.0
H2108 H 0.52578 0.39667 0.80001 0.0
H2109 H 0.5621 0.43142 0.82803 0.0
C2110 C 0.60254 0.46885 0.79653 0.0
C2111 C 0.62263 0.48708 0.77678 0.0
C2112 C 0.58255 0.44767 0.78104 0.0
C2113 C 0.62288 0.48322 0.74143 0.0
C2114 C 0.60291 0.46238 0.72581 0.0
C2115 C 0.56147 0.42493 0.72942 0.0
C2116 C 0.54058 0.40762 0.74872 0.0
C2117 C 0.58243 0.44481 0.74528 0.0
C2118 C 0.54152 0.40974 0.78448 0.0
C2119 C 0.56225 0.4297 0.8005 0.0
H2120 H 0.14126 0.59416 0.82178 0.0
H2121 H 0.14401 0.62638 0.72272 0.0
H2122 H 0.14598 0.59168 0.69542 0.0
H2123 H 0.14391 0.55083 0.69977 0.0
H2124 H 0.14426 0.52024 0.79898 0.0
H2125 H 0.14434 0.55597 0.82629 0.0
C2126 C 0.14263 0.59386 0.79427 0.0
C2127 C 0.14222 0.6128 0.77439 0.0
C2128 C 0.14421 0.57411 0.7788 0.0
C2129 C 0.14421 0.61207 0.7387 0.0
C2130 C 0.14526 0.59217 0.72305 0.0
C2131 C 0.14436 0.55207 0.72734 0.0
C2132 C 0.14381 0.53265 0.74722 0.0
C2133 C 0.14483 0.57288 0.74286 0.0
C2134 C 0.14459 0.5348 0.78299 0.0
C2135 C 0.14455 0.55521 0.79864 0.0
H2136 H 0.61044 0.15218 0.70505 0.0
H2137 H 0.62751 0.12649 0.79835 0.0
H2138 H 0.59298 0.12804 0.82731 0.0
H2139 H 0.55536 0.13235 0.82397 0.0
H2140 H 0.53927 0.15942 0.73079 0.0
H2141 H 0.57603 0.16154 0.70374 0.0
C2142 C 0.60672 0.14712 0.73177 0.0
C2143 C 0.62116 0.13879 0.74938 0.0
C2144 C 0.58691 0.14807 0.74811 0.0
C2145 C 0.61662 0.13292 0.78426 0.0
C2146 C 0.59677 0.13364 0.80072 0.0
C2147 C 0.56006 0.13913 0.79794 0.0
C2148 C 0.54429 0.14544 0.77939 0.0
C2149 C 0.58138 0.14053 0.7826 0.0
C2150 C 0.55089 0.1543 0.74569 0.0
C2151 C 0.57191 0.15548 0.73014 0.0
H2152 H 0.43159 0.5561 0.82101 0.0
H2153 H 0.39728 0.52337 0.7243 0.0
H2154 H 0.43252 0.55794 0.69426 0.0
H2155 H 0.47453 0.59558 0.69576 0.0
H2156 H 0.50726 0.62973 0.79255 0.0
H2157 H 0.47096 0.59638 0.8224 0.0
C2158 C 0.43154 0.55663 0.79339 0.0
C2159 C 0.41188 0.53691 0.77502 0.0
C2160 C 0.45167 0.5767 0.77634 0.0
C2161 C 0.41215 0.53817 0.73915 0.0
C2162 C 0.43237 0.5579 0.72194 0.0
C2163 C 0.47366 0.59593 0.72333 0.0
C2164 C 0.49383 0.61501 0.74184 0.0
C2165 C 0.45248 0.57697 0.74031 0.0
C2166 C 0.49214 0.61525 0.77762 0.0
C2167 C 0.47138 0.59615 0.79473 0.0
H2168 H 0.88414 0.42167 0.81577 0.0
H2169 H 0.89202 0.3945 0.71773 0.0
H2170 H 0.89141 0.42974 0.68955 0.0
H2171 H 0.89184 0.4698 0.69342 0.0
H2172 H 0.8811 0.49545 0.79115 0.0
H2173 H 0.8796 0.45909 0.81894 0.0
C2174 C 0.88547 0.42326 0.78824 0.0
C2175 C 0.88846 0.4056 0.76898 0.0
C2176 C 0.88474 0.44335 0.77222 0.0
C2177 C 0.88978 0.40781 0.73321 0.0
C2178 C 0.88953 0.42804 0.7171 0.0
C2179 C 0.88878 0.46733 0.7207 0.0
C2180 C 0.88679 0.48555 0.74012 0.0
C2181 C 0.88749 0.44616 0.73643 0.0
C2182 C 0.88276 0.48184 0.77552 0.0
C2183 C 0.88196 0.46106 0.79146 0.0
loop_
_geom_bond_atom_site_label_1
_geom_bond_atom_site_label_2
_geom_bond_distance
_geom_bond_site_symmetry_2
_ccdc_geom_bond_type
Co0 O2 2.143 . S
Co0 O8 2.074 . S
Co0 O11 2.093 . S
Co0 O24 2.097 . S
Co0 N41 2.151 . S
Co0 N49 2.214 . S
Co1 O2 2.160 . S
Co1 O7 2.058 . S
Co1 O17 2.057 . S
Co1 O32 2.037 . S
Co1 N36 2.145 . S
Co1 N57 2.257 . S
O2 Co0 2.143 . S
O2 Co1 2.160 . S
C3 O4 1.278 . S
C3 O11 1.224 . S
O4 C3 1.278 . S
C5 O6 1.245 . S
C5 O17 1.232 . S
O6 C5 1.245 . S
O7 Co1 2.058 . S
O7 C33 1.269 . S
O8 Co0 2.074 . S
O8 C33 1.257 . S
H9 C34 0.930 . S
H10 C40 0.930 . S
O11 Co0 2.093 . S
O11 C3 1.224 . S
H12 C44 0.929 . S
H13 C46 0.930 . S
H14 C47 0.930 . S
H15 C45 0.929 . S
H16 C48 0.928 . S
O17 Co1 2.057 . S
O17 C5 1.232 . S
H18 C37 0.929 . S
H19 C38 0.929 . S
H20 C50 0.931 . S
H21 C42 0.929 . S
H22 C51 0.930 . S
H23 C43 0.931 . S
O24 Co0 2.097 . S
O24 C52 1.214 . S
H25 C53 0.929 . S
H26 C54 0.929 . S
H27 C55 0.930 . S
H28 C56 0.929 . S
H29 C58 0.930 . S
H30 C35 0.930 . S
H31 C39 0.930 . S
O32 Co1 2.037 . S
O32 C52 1.234 . S
C33 O7 1.269 . S
C33 O8 1.257 . S
C34 H9 0.930 . S
C34 C37 1.388 . S
C34 C39 1.418 . S
C35 H30 0.930 . S
C35 C38 1.404 . S
C35 C39 1.353 . S
N36 Co1 2.145 . S
N36 C37 1.397 . S
N36 C38 1.334 . S
C37 H18 0.929 . S
C37 C34 1.388 . S
C37 N36 1.397 . S
C38 H19 0.929 . S
C38 C35 1.404 . S
C38 N36 1.334 . S
C39 H31 0.930 . S
C39 C34 1.418 . S
C39 C35 1.353 . S
C40 H10 0.930 . S
C40 N41 1.330 . S
C40 C42 1.446 . S
N41 Co0 2.151 . S
N41 C40 1.330 . S
N41 C45 1.418 . S
C42 H21 0.929 . S
C42 C40 1.446 . S
C42 C43 1.332 . S
C43 H23 0.931 . S
C43 C42 1.332 . S
C43 C44 1.267 . S
C44 H12 0.929 . S
C44 C43 1.267 . S
C44 C45 1.251 . S
C45 H15 0.929 . S
C45 N41 1.418 . S
C45 C44 1.251 . S
C46 H13 0.930 . S
C46 C48 1.406 . S
C46 C51 1.261 . S
C47 H14 0.930 . S
C47 N49 1.325 . S
C47 C50 1.357 . S
C48 H16 0.928 . S
C48 C46 1.406 . S
C48 N49 1.261 . S
N49 Co0 2.214 . S
N49 C47 1.325 . S
N49 C48 1.261 . S
C50 H20 0.931 . S
C50 C47 1.357 . S
C50 C51 1.312 . S
C51 H22 0.930 . S
C51 C46 1.261 . S
C51 C50 1.312 . S
C52 O24 1.214 . S
C52 O32 1.234 . S
C53 H25 0.929 . S
C53 C56 1.391 . S
C53 C58 1.391 . S
C54 H26 0.929 . S
C54 C55 1.390 . S
C54 N57 1.391 . S
C55 H27 0.930 . S
C55 C54 1.390 . S
C55 C56 1.392 . S
C56 H28 0.929 . S
C56 C53 1.391 . S
C56 C55 1.392 . S
N57 Co1 2.257 . S
N57 C54 1.391 . S
N57 C58 1.388 . S
C58 H29 0.930 . S
C58 C53 1.391 . S
C58 N57 1.388 . S
Co59 O61 2.143 . S
Co59 O67 2.074 . S
Co59 O70 2.093 . S
Co59 O83 2.097 . S
Co59 N100 2.151 . S
Co59 N108 2.214 . S
Co60 O61 2.160 . S
Co60 O66 2.058 . S
Co60 O76 2.057 . S
Co60 O91 2.037 . S
Co60 N95 2.145 . S
Co60 N116 2.257 . S
O61 Co59 2.143 . S
O61 Co60 2.160 . S
C62 O63 1.278 . S
C62 O70 1.224 . S
O63 C62 1.278 . S
C64 O65 1.245 . S
C64 O76 1.232 . S
O65 C64 1.245 . S
O66 Co60 2.058 . S
O66 C92 1.269 . S
O67 Co59 2.074 . S
O67 C92 1.257 . S
H68 C93 0.930 . S
H69 C99 0.930 . S
O70 Co59 2.093 . S
O70 C62 1.224 . S
H71 C103 0.929 . S
H72 C105 0.930 . S
H73 C106 0.930 . S
H74 C104 0.929 . S
H75 C107 0.928 . S
O76 Co60 2.057 . S
O76 C64 1.232 . S
H77 C96 0.929 . S
H78 C97 0.929 . S
H79 C109 0.931 . S
H80 C101 0.929 . S
H81 C110 0.930 . S
H82 C102 0.931 . S
O83 Co59 2.097 . S
O83 C111 1.214 . S
H84 C112 0.929 . S
H85 C113 0.929 . S
H86 C114 0.930 . S
H87 C115 0.929 . S
H88 C117 0.930 . S
H89 C94 0.930 . S
H90 C98 0.930 . S
O91 Co60 2.037 . S
O91 C111 1.234 . S
C92 O66 1.269 . S
C92 O67 1.257 . S
C93 H68 0.930 . S
C93 C96 1.388 . S
C93 C98 1.418 . S
C94 H89 0.930 . S
C94 C97 1.404 . S
C94 C98 1.353 . S
N95 Co60 2.145 . S
N95 C96 1.397 . S
N95 C97 1.334 . S
C96 H77 0.929 . S
C96 C93 1.388 . S
C96 N95 1.397 . S
C97 H78 0.929 . S
C97 C94 1.404 . S
C97 N95 1.334 . S
C98 H90 0.930 . S
C98 C93 1.418 . S
C98 C94 1.353 . S
C99 H69 0.930 . S
C99 N100 1.330 . S
C99 C101 1.446 . S
N100 Co59 2.151 . S
N100 C99 1.330 . S
N100 C104 1.418 . S
C101 H80 0.929 . S
C101 C99 1.446 . S
C101 C102 1.332 . S
C102 H82 0.931 . S
C102 C101 1.332 . S
C102 C103 1.267 . S
C103 H71 0.929 . S
C103 C102 1.267 . S
C103 C104 1.251 . S
C104 H74 0.929 . S
C104 N100 1.418 . S
C104 C103 1.251 . S
C105 H72 0.930 . S
C105 C107 1.406 . S
C105 C110 1.261 . S
C106 H73 0.930 . S
C106 N108 1.325 . S
C106 C109 1.357 . S
C107 H75 0.928 . S
C107 C105 1.406 . S
C107 N108 1.261 . S
N108 Co59 2.214 . S
N108 C106 1.325 . S
N108 C107 1.261 . S
C109 H79 0.931 . S
C109 C106 1.357 . S
C109 C110 1.312 . S
C110 H81 0.930 . S
C110 C105 1.261 . S
C110 C109 1.312 . S
C111 O83 1.214 . S
C111 O91 1.234 . S
C112 H84 0.929 . S
C112 C115 1.391 . S
C112 C117 1.391 . S
C113 H85 0.929 . S
C113 C114 1.390 . S
C113 N116 1.391 . S
C114 H86 0.930 . S
C114 C113 1.390 . S
C114 C115 1.392 . S
C115 H87 0.929 . S
C115 C112 1.391 . S
C115 C114 1.392 . S
N116 Co60 2.257 . S
N116 C113 1.391 . S
N116 C117 1.388 . S
C117 H88 0.930 . S
C117 C112 1.391 . S
C117 N116 1.388 . S
Co118 O120 2.143 . S
Co118 O126 2.074 . S
Co118 O129 2.093 . S
Co118 O142 2.097 . S
Co118 N159 2.151 . S
Co118 N167 2.214 . S
Co119 O120 2.160 . S
Co119 O125 2.058 . S
Co119 O135 2.057 . S
Co119 O150 2.037 . S
Co119 N154 2.145 . S
Co119 N175 2.257 . S
O120 Co118 2.143 . S
O120 Co119 2.160 . S
C121 O122 1.278 . S
C121 O129 1.224 . S
O122 C121 1.278 . S
C123 O124 1.245 . S
C123 O135 1.232 . S
O124 C123 1.245 . S
O125 Co119 2.058 . S
O125 C151 1.269 . S
O126 Co118 2.074 . S
O126 C151 1.257 . S
H127 C152 0.930 . S
H128 C158 0.930 . S
O129 Co118 2.093 . S
O129 C121 1.224 . S
H130 C162 0.929 . S
H131 C164 0.930 . S
H132 C165 0.930 . S
H133 C163 0.929 . S
H134 C166 0.928 . S
O135 Co119 2.057 . S
O135 C123 1.232 . S
H136 C155 0.929 . S
H137 C156 0.929 . S
H138 C168 0.931 . S
H139 C160 0.929 . S
H140 C169 0.930 . S
H141 C161 0.931 . S
O142 Co118 2.097 . S
O142 C170 1.214 . S
H143 C171 0.929 . S
H144 C172 0.929 . S
H145 C173 0.930 . S
H146 C174 0.929 . S
H147 C176 0.930 . S
H148 C153 0.930 . S
H149 C157 0.930 . S
O150 Co119 2.037 . S
O150 C170 1.234 . S
C151 O125 1.269 . S
C151 O126 1.257 . S
C152 H127 0.930 . S
C152 C155 1.388 . S
C152 C157 1.418 . S
C153 H148 0.930 . S
C153 C156 1.404 . S
C153 C157 1.353 . S
N154 Co119 2.145 . S
N154 C155 1.397 . S
N154 C156 1.334 . S
C155 H136 0.929 . S
C155 C152 1.388 . S
C155 N154 1.397 . S
C156 H137 0.929 . S
C156 C153 1.404 . S
C156 N154 1.334 . S
C157 H149 0.930 . S
C157 C152 1.418 . S
C157 C153 1.353 . S
C158 H128 0.930 . S
C158 N159 1.330 . S
C158 C160 1.446 . S
N159 Co118 2.151 . S
N159 C158 1.330 . S
N159 C163 1.418 . S
C160 H139 0.929 . S
C160 C158 1.446 . S
C160 C161 1.332 . S
C161 H141 0.931 . S
C161 C160 1.332 . S
C161 C162 1.267 . S
C162 H130 0.929 . S
C162 C161 1.267 . S
C162 C163 1.251 . S
C163 H133 0.929 . S
C163 N159 1.418 . S
C163 C162 1.251 . S
C164 H131 0.930 . S
C164 C166 1.406 . S
C164 C169 1.261 . S
C165 H132 0.930 . S
C165 N167 1.325 . S
C165 C168 1.357 . S
C166 H134 0.928 . S
C166 C164 1.406 . S
C166 N167 1.261 . S
N167 Co118 2.214 . S
N167 C165 1.325 . S
N167 C166 1.261 . S
C168 H138 0.931 . S
C168 C165 1.357 . S
C168 C169 1.312 . S
C169 H140 0.930 . S
C169 C164 1.261 . S
C169 C168 1.312 . S
C170 O142 1.214 . S
C170 O150 1.234 . S
C171 H143 0.929 . S
C171 C174 1.391 . S
C171 C176 1.391 . S
C172 H144 0.929 . S
C172 C173 1.390 . S
C172 N175 1.391 . S
C173 H145 0.930 . S
C173 C172 1.390 . S
C173 C174 1.392 . S
C174 H146 0.929 . S
C174 C171 1.391 . S
C174 C173 1.392 . S
N175 Co119 2.257 . S
N175 C172 1.391 . S
N175 C176 1.388 . S
C176 H147 0.930 . S
C176 C171 1.391 . S
C176 N175 1.388 . S
Co177 O179 2.143 . S
Co177 O185 2.074 . S
Co177 O188 2.093 . S
Co177 O201 2.097 . S
Co177 N218 2.151 . S
Co177 N226 2.214 . S
Co178 O179 2.160 . S
Co178 O184 2.058 . S
Co178 O194 2.057 . S
Co178 O209 2.037 . S
Co178 N213 2.145 . S
Co178 N234 2.257 . S
O179 Co177 2.143 . S
O179 Co178 2.160 . S
C180 O181 1.278 . S
C180 O188 1.224 . S
O181 C180 1.278 . S
C182 O183 1.245 . S
C182 O194 1.232 . S
O183 C182 1.245 . S
O184 Co178 2.058 . S
O184 C210 1.269 . S
O185 Co177 2.074 . S
O185 C210 1.257 . S
H186 C211 0.930 . S
H187 C217 0.930 . S
O188 Co177 2.093 . S
O188 C180 1.224 . S
H189 C221 0.929 . S
H190 C223 0.930 . S
H191 C224 0.930 . S
H192 C222 0.929 . S
H193 C225 0.928 . S
O194 Co178 2.057 . S
O194 C182 1.232 . S
H195 C214 0.929 . S
H196 C215 0.929 . S
H197 C227 0.931 . S
H198 C219 0.929 . S
H199 C228 0.930 . S
H200 C220 0.931 . S
O201 Co177 2.097 . S
O201 C229 1.214 . S
H202 C230 0.929 . S
H203 C231 0.929 . S
H204 C232 0.930 . S
H205 C233 0.929 . S
H206 C235 0.930 . S
H207 C212 0.930 . S
H208 C216 0.930 . S
O209 Co178 2.037 . S
O209 C229 1.234 . S
C210 O184 1.269 . S
C210 O185 1.257 . S
C211 H186 0.930 . S
C211 C214 1.388 . S
C211 C216 1.418 . S
C212 H207 0.930 . S
C212 C215 1.404 . S
C212 C216 1.353 . S
N213 Co178 2.145 . S
N213 C214 1.397 . S
N213 C215 1.334 . S
C214 H195 0.929 . S
C214 C211 1.388 . S
C214 N213 1.397 . S
C215 H196 0.929 . S
C215 C212 1.404 . S
C215 N213 1.334 . S
C216 H208 0.930 . S
C216 C211 1.418 . S
C216 C212 1.353 . S
C217 H187 0.930 . S
C217 N218 1.330 . S
C217 C219 1.446 . S
N218 Co177 2.151 . S
N218 C217 1.330 . S
N218 C222 1.418 . S
C219 H198 0.929 . S
C219 C217 1.446 . S
C219 C220 1.332 . S
C220 H200 0.931 . S
C220 C219 1.332 . S
C220 C221 1.267 . S
C221 H189 0.929 . S
C221 C220 1.267 . S
C221 C222 1.251 . S
C222 H192 0.929 . S
C222 N218 1.418 . S
C222 C221 1.251 . S
C223 H190 0.930 . S
C223 C225 1.406 . S
C223 C228 1.261 . S
C224 H191 0.930 . S
C224 N226 1.325 . S
C224 C227 1.357 . S
C225 H193 0.928 . S
C225 C223 1.406 . S
C225 N226 1.261 . S
N226 Co177 2.214 . S
N226 C224 1.325 . S
N226 C225 1.261 . S
C227 H197 0.931 . S
C227 C224 1.357 . S
C227 C228 1.312 . S
C228 H199 0.930 . S
C228 C223 1.261 . S
C228 C227 1.312 . S
C229 O201 1.214 . S
C229 O209 1.234 . S
C230 H202 0.929 . S
C230 C233 1.391 . S
C230 C235 1.391 . S
C231 H203 0.929 . S
C231 C232 1.390 . S
C231 N234 1.391 . S
C232 H204 0.930 . S
C232 C231 1.390 . S
C232 C233 1.392 . S
C233 H205 0.929 . S
C233 C230 1.391 . S
C233 C232 1.392 . S
N234 Co178 2.257 . S
N234 C231 1.391 . S
N234 C235 1.388 . S
C235 H206 0.930 . S
C235 C230 1.391 . S
C235 N234 1.388 . S
Co236 O238 2.143 . S
Co236 O244 2.074 . S
Co236 O247 2.093 . S
Co236 O260 2.097 . S
Co236 N277 2.151 . S
Co236 N285 2.214 . S
Co237 O238 2.160 . S
Co237 O243 2.058 . S
Co237 O253 2.057 . S
Co237 O268 2.037 . S
Co237 N272 2.145 . S
Co237 N293 2.257 . S
O238 Co236 2.143 . S
O238 Co237 2.160 . S
C239 O240 1.278 . S
C239 O247 1.224 . S
O240 C239 1.278 . S
C241 O242 1.245 . S
C241 O253 1.232 . S
O242 C241 1.245 . S
O243 Co237 2.058 . S
O243 C269 1.269 . S
O244 Co236 2.074 . S
O244 C269 1.257 . S
H245 C270 0.930 . S
H246 C276 0.930 . S
O247 Co236 2.093 . S
O247 C239 1.224 . S
H248 C280 0.929 . S
H249 C282 0.930 . S
H250 C283 0.930 . S
H251 C281 0.929 . S
H252 C284 0.928 . S
O253 Co237 2.057 . S
O253 C241 1.232 . S
H254 C273 0.929 . S
H255 C274 0.929 . S
H256 C286 0.931 . S
H257 C278 0.929 . S
H258 C287 0.930 . S
H259 C279 0.931 . S
O260 Co236 2.097 . S
O260 C288 1.214 . S
H261 C289 0.929 . S
H262 C290 0.929 . S
H263 C291 0.930 . S
H264 C292 0.929 . S
H265 C294 0.930 . S
H266 C271 0.930 . S
H267 C275 0.930 . S
O268 Co237 2.037 . S
O268 C288 1.234 . S
C269 O243 1.269 . S
C269 O244 1.257 . S
C270 H245 0.930 . S
C270 C273 1.388 . S
C270 C275 1.418 . S
C271 H266 0.930 . S
C271 C274 1.404 . S
C271 C275 1.353 . S
N272 Co237 2.145 . S
N272 C273 1.397 . S
N272 C274 1.334 . S
C273 H254 0.929 . S
C273 C270 1.388 . S
C273 N272 1.397 . S
C274 H255 0.929 . S
C274 C271 1.404 . S
C274 N272 1.334 . S
C275 H267 0.930 . S
C275 C270 1.418 . S
C275 C271 1.353 . S
C276 H246 0.930 . S
C276 N277 1.330 . S
C276 C278 1.446 . S
N277 Co236 2.151 . S
N277 C276 1.330 . S
N277 C281 1.418 . S
C278 H257 0.929 . S
C278 C276 1.446 . S
C278 C279 1.332 . S
C279 H259 0.931 . S
C279 C278 1.332 . S
C279 C280 1.267 . S
C280 H248 0.929 . S
C280 C279 1.267 . S
C280 C281 1.251 . S
C281 H251 0.929 . S
C281 N277 1.418 . S
C281 C280 1.251 . S
C282 H249 0.930 . S
C282 C284 1.406 . S
C282 C287 1.261 . S
C283 H250 0.930 . S
C283 N285 1.325 . S
C283 C286 1.357 . S
C284 H252 0.928 . S
C284 C282 1.406 . S
C284 N285 1.261 . S
N285 Co236 2.214 . S
N285 C283 1.325 . S
N285 C284 1.261 . S
C286 H256 0.931 . S
C286 C283 1.357 . S
C286 C287 1.312 . S
C287 H258 0.930 . S
C287 C282 1.261 . S
C287 C286 1.312 . S
C288 O260 1.214 . S
C288 O268 1.234 . S
C289 H261 0.929 . S
C289 C292 1.391 . S
C289 C294 1.391 . S
C290 H262 0.929 . S
C290 C291 1.390 . S
C290 N293 1.391 . S
C291 H263 0.930 . S
C291 C290 1.390 . S
C291 C292 1.392 . S
C292 H264 0.929 . S
C292 C289 1.391 . S
C292 C291 1.392 . S
N293 Co237 2.257 . S
N293 C290 1.391 . S
N293 C294 1.388 . S
C294 H265 0.930 . S
C294 C289 1.391 . S
C294 N293 1.388 . S
Co295 O297 2.143 . S
Co295 O303 2.074 . S
Co295 O306 2.093 . S
Co295 O319 2.097 . S
Co295 N336 2.151 . S
Co295 N344 2.214 . S
Co296 O297 2.160 . S
Co296 O302 2.058 . S
Co296 O312 2.057 . S
Co296 O327 2.037 . S
Co296 N331 2.145 . S
Co296 N352 2.257 . S
O297 Co295 2.143 . S
O297 Co296 2.160 . S
C298 O299 1.278 . S
C298 O306 1.224 . S
O299 C298 1.278 . S
C300 O301 1.245 . S
C300 O312 1.232 . S
O301 C300 1.245 . S
O302 Co296 2.058 . S
O302 C328 1.269 . S
O303 Co295 2.074 . S
O303 C328 1.257 . S
H304 C329 0.930 . S
H305 C335 0.930 . S
O306 Co295 2.093 . S
O306 C298 1.224 . S
H307 C339 0.929 . S
H308 C341 0.930 . S
H309 C342 0.930 . S
H310 C340 0.929 . S
H311 C343 0.928 . S
O312 Co296 2.057 . S
O312 C300 1.232 . S
H313 C332 0.929 . S
H314 C333 0.929 . S
H315 C345 0.931 . S
H316 C337 0.929 . S
H317 C346 0.930 . S
H318 C338 0.931 . S
O319 Co295 2.097 . S
O319 C347 1.214 . S
H320 C348 0.929 . S
H321 C349 0.929 . S
H322 C350 0.930 . S
H323 C351 0.929 . S
H324 C353 0.930 . S
H325 C330 0.930 . S
H326 C334 0.930 . S
O327 Co296 2.037 . S
O327 C347 1.234 . S
C328 O302 1.269 . S
C328 O303 1.257 . S
C329 H304 0.930 . S
C329 C332 1.388 . S
C329 C334 1.418 . S
C330 H325 0.930 . S
C330 C333 1.404 . S
C330 C334 1.353 . S
N331 Co296 2.145 . S
N331 C332 1.397 . S
N331 C333 1.334 . S
C332 H313 0.929 . S
C332 C329 1.388 . S
C332 N331 1.397 . S
C333 H314 0.929 . S
C333 C330 1.404 . S
C333 N331 1.334 . S
C334 H326 0.930 . S
C334 C329 1.418 . S
C334 C330 1.353 . S
C335 H305 0.930 . S
C335 N336 1.330 . S
C335 C337 1.446 . S
N336 Co295 2.151 . S
N336 C335 1.330 . S
N336 C340 1.418 . S
C337 H316 0.929 . S
C337 C335 1.446 . S
C337 C338 1.332 . S
C338 H318 0.931 . S
C338 C337 1.332 . S
C338 C339 1.267 . S
C339 H307 0.929 . S
C339 C338 1.267 . S
C339 C340 1.251 . S
C340 H310 0.929 . S
C340 N336 1.418 . S
C340 C339 1.251 . S
C341 H308 0.930 . S
C341 C343 1.406 . S
C341 C346 1.261 . S
C342 H309 0.930 . S
C342 N344 1.325 . S
C342 C345 1.357 . S
C343 H311 0.928 . S
C343 C341 1.406 . S
C343 N344 1.261 . S
N344 Co295 2.214 . S
N344 C342 1.325 . S
N344 C343 1.261 . S
C345 H315 0.931 . S
C345 C342 1.357 . S
C345 C346 1.312 . S
C346 H317 0.930 . S
C346 C341 1.261 . S
C346 C345 1.312 . S
C347 O319 1.214 . S
C347 O327 1.234 . S
C348 H320 0.929 . S
C348 C351 1.391 . S
C348 C353 1.391 . S
C349 H321 0.929 . S
C349 C350 1.390 . S
C349 N352 1.391 . S
C350 H322 0.930 . S
C350 C349 1.390 . S
C350 C351 1.392 . S
C351 H323 0.929 . S
C351 C348 1.391 . S
C351 C350 1.392 . S
N352 Co296 2.257 . S
N352 C349 1.391 . S
N352 C353 1.388 . S
C353 H324 0.930 . S
C353 C348 1.391 . S
C353 N352 1.388 . S
Co354 O356 2.143 . S
Co354 O362 2.074 . S
Co354 O365 2.093 . S
Co354 O378 2.097 . S
Co354 N395 2.151 . S
Co354 N403 2.214 . S
Co355 O356 2.160 . S
Co355 O361 2.058 . S
Co355 O371 2.057 . S
Co355 O386 2.037 . S
Co355 N390 2.145 . S
Co355 N411 2.257 . S
O356 Co354 2.143 . S
O356 Co355 2.160 . S
C357 O358 1.278 . S
C357 O365 1.224 . S
O358 C357 1.278 . S
C359 O360 1.245 . S
C359 O371 1.232 . S
O360 C359 1.245 . S
O361 Co355 2.058 . S
O361 C387 1.269 . S
O362 Co354 2.074 . S
O362 C387 1.257 . S
H363 C388 0.930 . S
H364 C394 0.930 . S
O365 Co354 2.093 . S
O365 C357 1.224 . S
H366 C398 0.929 . S
H367 C400 0.930 . S
H368 C401 0.930 . S
H369 C399 0.929 . S
H370 C402 0.928 . S
O371 Co355 2.057 . S
O371 C359 1.232 . S
H372 C391 0.929 . S
H373 C392 0.929 . S
H374 C404 0.931 . S
H375 C396 0.929 . S
H376 C405 0.930 . S
H377 C397 0.931 . S
O378 Co354 2.097 . S
O378 C406 1.214 . S
H379 C407 0.929 . S
H380 C408 0.929 . S
H381 C409 0.930 . S
H382 C410 0.929 . S
H383 C412 0.930 . S
H384 C389 0.930 . S
H385 C393 0.930 . S
O386 Co355 2.037 . S
O386 C406 1.234 . S
C387 O361 1.269 . S
C387 O362 1.257 . S
C388 H363 0.930 . S
C388 C391 1.388 . S
C388 C393 1.418 . S
C389 H384 0.930 . S
C389 C392 1.404 . S
C389 C393 1.353 . S
N390 Co355 2.145 . S
N390 C391 1.397 . S
N390 C392 1.334 . S
C391 H372 0.929 . S
C391 C388 1.388 . S
C391 N390 1.397 . S
C392 H373 0.929 . S
C392 C389 1.404 . S
C392 N390 1.334 . S
C393 H385 0.930 . S
C393 C388 1.418 . S
C393 C389 1.353 . S
C394 H364 0.930 . S
C394 N395 1.330 . S
C394 C396 1.446 . S
N395 Co354 2.151 . S
N395 C394 1.330 . S
N395 C399 1.418 . S
C396 H375 0.929 . S
C396 C394 1.446 . S
C396 C397 1.332 . S
C397 H377 0.931 . S
C397 C396 1.332 . S
C397 C398 1.267 . S
C398 H366 0.929 . S
C398 C397 1.267 . S
C398 C399 1.251 . S
C399 H369 0.929 . S
C399 N395 1.418 . S
C399 C398 1.251 . S
C400 H367 0.930 . S
C400 C402 1.406 . S
C400 C405 1.261 . S
C401 H368 0.930 . S
C401 N403 1.325 . S
C401 C404 1.357 . S
C402 H370 0.928 . S
C402 C400 1.406 . S
C402 N403 1.261 . S
N403 Co354 2.214 . S
N403 C401 1.325 . S
N403 C402 1.261 . S
C404 H374 0.931 . S
C404 C401 1.357 . S
C404 C405 1.312 . S
C405 H376 0.930 . S
C405 C400 1.261 . S
C405 C404 1.312 . S
C406 O378 1.214 . S
C406 O386 1.234 . S
C407 H379 0.929 . S
C407 C410 1.391 . S
C407 C412 1.391 . S
C408 H380 0.929 . S
C408 C409 1.390 . S
C408 N411 1.391 . S
C409 H381 0.930 . S
C409 C408 1.390 . S
C409 C410 1.392 . S
C410 H382 0.929 . S
C410 C407 1.391 . S
C410 C409 1.392 . S
N411 Co355 2.257 . S
N411 C408 1.391 . S
N411 C412 1.388 . S
C412 H383 0.930 . S
C412 C407 1.391 . S
C412 N411 1.388 . S
Co413 O415 2.143 . S
Co413 O421 2.074 . S
Co413 O424 2.093 . S
Co413 O437 2.097 . S
Co413 N454 2.151 . S
Co413 N462 2.214 . S
Co414 O415 2.160 . S
Co414 O420 2.058 . S
Co414 O430 2.057 . S
Co414 O445 2.037 . S
Co414 N449 2.145 . S
Co414 N470 2.257 . S
O415 Co413 2.143 . S
O415 Co414 2.160 . S
C416 O417 1.278 . S
C416 O424 1.224 . S
O417 C416 1.278 . S
C418 O419 1.245 . S
C418 O430 1.232 . S
O419 C418 1.245 . S
O420 Co414 2.058 . S
O420 C446 1.269 . S
O421 Co413 2.074 . S
O421 C446 1.257 . S
H422 C447 0.930 . S
H423 C453 0.930 . S
O424 Co413 2.093 . S
O424 C416 1.224 . S
H425 C457 0.929 . S
H426 C459 0.930 . S
H427 C460 0.930 . S
H428 C458 0.929 . S
H429 C461 0.928 . S
O430 Co414 2.057 . S
O430 C418 1.232 . S
H431 C450 0.929 . S
H432 C451 0.929 . S
H433 C463 0.931 . S
H434 C455 0.929 . S
H435 C464 0.930 . S
H436 C456 0.931 . S
O437 Co413 2.097 . S
O437 C465 1.214 . S
H438 C466 0.929 . S
H439 C467 0.929 . S
H440 C468 0.930 . S
H441 C469 0.929 . S
H442 C471 0.930 . S
H443 C448 0.930 . S
H444 C452 0.930 . S
O445 Co414 2.037 . S
O445 C465 1.234 . S
C446 O420 1.269 . S
C446 O421 1.257 . S
C447 H422 0.930 . S
C447 C450 1.388 . S
C447 C452 1.418 . S
C448 H443 0.930 . S
C448 C451 1.404 . S
C448 C452 1.353 . S
N449 Co414 2.145 . S
N449 C450 1.397 . S
N449 C451 1.334 . S
C450 H431 0.929 . S
C450 C447 1.388 . S
C450 N449 1.397 . S
C451 H432 0.929 . S
C451 C448 1.404 . S
C451 N449 1.334 . S
C452 H444 0.930 . S
C452 C447 1.418 . S
C452 C448 1.353 . S
C453 H423 0.930 . S
C453 N454 1.330 . S
C453 C455 1.446 . S
N454 Co413 2.151 . S
N454 C453 1.330 . S
N454 C458 1.418 . S
C455 H434 0.929 . S
C455 C453 1.446 . S
C455 C456 1.332 . S
C456 H436 0.931 . S
C456 C455 1.332 . S
C456 C457 1.267 . S
C457 H425 0.929 . S
C457 C456 1.267 . S
C457 C458 1.251 . S
C458 H428 0.929 . S
C458 N454 1.418 . S
C458 C457 1.251 . S
C459 H426 0.930 . S
C459 C461 1.406 . S
C459 C464 1.261 . S
C460 H427 0.930 . S
C460 N462 1.325 . S
C460 C463 1.357 . S
C461 H429 0.928 . S
C461 C459 1.406 . S
C461 N462 1.261 . S
N462 Co413 2.214 . S
N462 C460 1.325 . S
N462 C461 1.261 . S
C463 H433 0.931 . S
C463 C460 1.357 . S
C463 C464 1.312 . S
C464 H435 0.930 . S
C464 C459 1.261 . S
C464 C463 1.312 . S
C465 O437 1.214 . S
C465 O445 1.234 . S
C466 H438 0.929 . S
C466 C469 1.391 . S
C466 C471 1.391 . S
C467 H439 0.929 . S
C467 C468 1.390 . S
C467 N470 1.391 . S
C468 H440 0.930 . S
C468 C467 1.390 . S
C468 C469 1.392 . S
C469 H441 0.929 . S
C469 C466 1.391 . S
C469 C468 1.392 . S
N470 Co414 2.257 . S
N470 C467 1.391 . S
N470 C471 1.388 . S
C471 H442 0.930 . S
C471 C466 1.391 . S
C471 N470 1.388 . S
Co472 O474 2.143 . S
Co472 O480 2.074 . S
Co472 O483 2.093 . S
Co472 O496 2.097 . S
Co472 N513 2.151 . S
Co472 N521 2.214 . S
Co473 O474 2.160 . S
Co473 O479 2.058 . S
Co473 O489 2.057 . S
Co473 O504 2.037 . S
Co473 N508 2.145 . S
Co473 N529 2.257 . S
O474 Co472 2.143 . S
O474 Co473 2.160 . S
C475 O476 1.278 . S
C475 O483 1.224 . S
O476 C475 1.278 . S
C477 O478 1.245 . S
C477 O489 1.232 . S
O478 C477 1.245 . S
O479 Co473 2.058 . S
O479 C505 1.269 . S
O480 Co472 2.074 . S
O480 C505 1.257 . S
H481 C506 0.930 . S
H482 C512 0.930 . S
O483 Co472 2.093 . S
O483 C475 1.224 . S
H484 C516 0.929 . S
H485 C518 0.930 . S
H486 C519 0.930 . S
H487 C517 0.929 . S
H488 C520 0.928 . S
O489 Co473 2.057 . S
O489 C477 1.232 . S
H490 C509 0.929 . S
H491 C510 0.929 . S
H492 C522 0.931 . S
H493 C514 0.929 . S
H494 C523 0.930 . S
H495 C515 0.931 . S
O496 Co472 2.097 . S
O496 C524 1.214 . S
H497 C525 0.929 . S
H498 C526 0.929 . S
H499 C527 0.930 . S
H500 C528 0.929 . S
H501 C530 0.930 . S
H502 C507 0.930 . S
H503 C511 0.930 . S
O504 Co473 2.037 . S
O504 C524 1.234 . S
C505 O479 1.269 . S
C505 O480 1.257 . S
C506 H481 0.930 . S
C506 C509 1.388 . S
C506 C511 1.418 . S
C507 H502 0.930 . S
C507 C510 1.404 . S
C507 C511 1.353 . S
N508 Co473 2.145 . S
N508 C509 1.397 . S
N508 C510 1.334 . S
C509 H490 0.929 . S
C509 C506 1.388 . S
C509 N508 1.397 . S
C510 H491 0.929 . S
C510 C507 1.404 . S
C510 N508 1.334 . S
C511 H503 0.930 . S
C511 C506 1.418 . S
C511 C507 1.353 . S
C512 H482 0.930 . S
C512 N513 1.330 . S
C512 C514 1.446 . S
N513 Co472 2.151 . S
N513 C512 1.330 . S
N513 C517 1.418 . S
C514 H493 0.929 . S
C514 C512 1.446 . S
C514 C515 1.332 . S
C515 H495 0.931 . S
C515 C514 1.332 . S
C515 C516 1.267 . S
C516 H484 0.929 . S
C516 C515 1.267 . S
C516 C517 1.251 . S
C517 H487 0.929 . S
C517 N513 1.418 . S
C517 C516 1.251 . S
C518 H485 0.930 . S
C518 C520 1.406 . S
C518 C523 1.261 . S
C519 H486 0.930 . S
C519 N521 1.325 . S
C519 C522 1.357 . S
C520 H488 0.928 . S
C520 C518 1.406 . S
C520 N521 1.261 . S
N521 Co472 2.214 . S
N521 C519 1.325 . S
N521 C520 1.261 . S
C522 H492 0.931 . S
C522 C519 1.357 . S
C522 C523 1.312 . S
C523 H494 0.930 . S
C523 C518 1.261 . S
C523 C522 1.312 . S
C524 O496 1.214 . S
C524 O504 1.234 . S
C525 H497 0.929 . S
C525 C528 1.391 . S
C525 C530 1.391 . S
C526 H498 0.929 . S
C526 C527 1.390 . S
C526 N529 1.391 . S
C527 H499 0.930 . S
C527 C526 1.390 . S
C527 C528 1.392 . S
C528 H500 0.929 . S
C528 C525 1.391 . S
C528 C527 1.392 . S
N529 Co473 2.257 . S
N529 C526 1.391 . S
N529 C530 1.388 . S
C530 H501 0.930 . S
C530 C525 1.391 . S
C530 N529 1.388 . S
Co531 O533 2.143 . S
Co531 O539 2.074 . S
Co531 O542 2.093 . S
Co531 O555 2.097 . S
Co531 N572 2.151 . S
Co531 N580 2.214 . S
Co532 O533 2.160 . S
Co532 O538 2.058 . S
Co532 O548 2.057 . S
Co532 O563 2.037 . S
Co532 N567 2.145 . S
Co532 N588 2.257 . S
O533 Co531 2.143 . S
O533 Co532 2.160 . S
C534 O535 1.278 . S
C534 O542 1.224 . S
O535 C534 1.278 . S
C536 O537 1.245 . S
C536 O548 1.232 . S
O537 C536 1.245 . S
O538 Co532 2.058 . S
O538 C564 1.269 . S
O539 Co531 2.074 . S
O539 C564 1.257 . S
H540 C565 0.930 . S
H541 C571 0.930 . S
O542 Co531 2.093 . S
O542 C534 1.224 . S
H543 C575 0.929 . S
H544 C577 0.930 . S
H545 C578 0.930 . S
H546 C576 0.929 . S
H547 C579 0.928 . S
O548 Co532 2.057 . S
O548 C536 1.232 . S
H549 C568 0.929 . S
H550 C569 0.929 . S
H551 C581 0.931 . S
H552 C573 0.929 . S
H553 C582 0.930 . S
H554 C574 0.931 . S
O555 Co531 2.097 . S
O555 C583 1.214 . S
H556 C584 0.929 . S
H557 C585 0.929 . S
H558 C586 0.930 . S
H559 C587 0.929 . S
H560 C589 0.930 . S
H561 C566 0.930 . S
H562 C570 0.930 . S
O563 Co532 2.037 . S
O563 C583 1.234 . S
C564 O538 1.269 . S
C564 O539 1.257 . S
C565 H540 0.930 . S
C565 C568 1.388 . S
C565 C570 1.418 . S
C566 H561 0.930 . S
C566 C569 1.404 . S
C566 C570 1.353 . S
N567 Co532 2.145 . S
N567 C568 1.397 . S
N567 C569 1.334 . S
C568 H549 0.929 . S
C568 C565 1.388 . S
C568 N567 1.397 . S
C569 H550 0.929 . S
C569 C566 1.404 . S
C569 N567 1.334 . S
C570 H562 0.930 . S
C570 C565 1.418 . S
C570 C566 1.353 . S
C571 H541 0.930 . S
C571 N572 1.330 . S
C571 C573 1.446 . S
N572 Co531 2.151 . S
N572 C571 1.330 . S
N572 C576 1.418 . S
C573 H552 0.929 . S
C573 C571 1.446 . S
C573 C574 1.332 . S
C574 H554 0.931 . S
C574 C573 1.332 . S
C574 C575 1.267 . S
C575 H543 0.929 . S
C575 C574 1.267 . S
C575 C576 1.251 . S
C576 H546 0.929 . S
C576 N572 1.418 . S
C576 C575 1.251 . S
C577 H544 0.930 . S
C577 C579 1.406 . S
C577 C582 1.261 . S
C578 H545 0.930 . S
C578 N580 1.325 . S
C578 C581 1.357 . S
C579 H547 0.928 . S
C579 C577 1.406 . S
C579 N580 1.261 . S
N580 Co531 2.214 . S
N580 C578 1.325 . S
N580 C579 1.261 . S
C581 H551 0.931 . S
C581 C578 1.357 . S
C581 C582 1.312 . S
C582 H553 0.930 . S
C582 C577 1.261 . S
C582 C581 1.312 . S
C583 O555 1.214 . S
C583 O563 1.234 . S
C584 H556 0.929 . S
C584 C587 1.391 . S
C584 C589 1.391 . S
C585 H557 0.929 . S
C585 C586 1.390 . S
C585 N588 1.391 . S
C586 H558 0.930 . S
C586 C585 1.390 . S
C586 C587 1.392 . S
C587 H559 0.929 . S
C587 C584 1.391 . S
C587 C586 1.392 . S
N588 Co532 2.257 . S
N588 C585 1.391 . S
N588 C589 1.388 . S
C589 H560 0.930 . S
C589 C584 1.391 . S
C589 N588 1.388 . S
Co590 O592 2.143 . S
Co590 O598 2.074 . S
Co590 O601 2.093 . S
Co590 O614 2.097 . S
Co590 N631 2.151 . S
Co590 N639 2.214 . S
Co591 O592 2.160 . S
Co591 O597 2.058 . S
Co591 O607 2.057 . S
Co591 O622 2.037 . S
Co591 N626 2.145 . S
Co591 N647 2.257 . S
O592 Co590 2.143 . S
O592 Co591 2.160 . S
C593 O594 1.278 . S
C593 O601 1.224 . S
O594 C593 1.278 . S
C595 O596 1.245 . S
C595 O607 1.232 . S
O596 C595 1.245 . S
O597 Co591 2.058 . S
O597 C623 1.269 . S
O598 Co590 2.074 . S
O598 C623 1.257 . S
H599 C624 0.930 . S
H600 C630 0.930 . S
O601 Co590 2.093 . S
O601 C593 1.224 . S
H602 C634 0.929 . S
H603 C636 0.930 . S
H604 C637 0.930 . S
H605 C635 0.929 . S
H606 C638 0.928 . S
O607 Co591 2.057 . S
O607 C595 1.232 . S
H608 C627 0.929 . S
H609 C628 0.929 . S
H610 C640 0.931 . S
H611 C632 0.929 . S
H612 C641 0.930 . S
H613 C633 0.931 . S
O614 Co590 2.097 . S
O614 C642 1.214 . S
H615 C643 0.929 . S
H616 C644 0.929 . S
H617 C645 0.930 . S
H618 C646 0.929 . S
H619 C648 0.930 . S
H620 C625 0.930 . S
H621 C629 0.930 . S
O622 Co591 2.037 . S
O622 C642 1.234 . S
C623 O597 1.269 . S
C623 O598 1.257 . S
C624 H599 0.930 . S
C624 C627 1.388 . S
C624 C629 1.418 . S
C625 H620 0.930 . S
C625 C628 1.404 . S
C625 C629 1.353 . S
N626 Co591 2.145 . S
N626 C627 1.397 . S
N626 C628 1.334 . S
C627 H608 0.929 . S
C627 C624 1.388 . S
C627 N626 1.397 . S
C628 H609 0.929 . S
C628 C625 1.404 . S
C628 N626 1.334 . S
C629 H621 0.930 . S
C629 C624 1.418 . S
C629 C625 1.353 . S
C630 H600 0.930 . S
C630 N631 1.330 . S
C630 C632 1.446 . S
N631 Co590 2.151 . S
N631 C630 1.330 . S
N631 C635 1.418 . S
C632 H611 0.929 . S
C632 C630 1.446 . S
C632 C633 1.332 . S
C633 H613 0.931 . S
C633 C632 1.332 . S
C633 C634 1.267 . S
C634 H602 0.929 . S
C634 C633 1.267 . S
C634 C635 1.251 . S
C635 H605 0.929 . S
C635 N631 1.418 . S
C635 C634 1.251 . S
C636 H603 0.930 . S
C636 C638 1.406 . S
C636 C641 1.261 . S
C637 H604 0.930 . S
C637 N639 1.325 . S
C637 C640 1.357 . S
C638 H606 0.928 . S
C638 C636 1.406 . S
C638 N639 1.261 . S
N639 Co590 2.214 . S
N639 C637 1.325 . S
N639 C638 1.261 . S
C640 H610 0.931 . S
C640 C637 1.357 . S
C640 C641 1.312 . S
C641 H612 0.930 . S
C641 C636 1.261 . S
C641 C640 1.312 . S
C642 O614 1.214 . S
C642 O622 1.234 . S
C643 H615 0.929 . S
C643 C646 1.391 . S
C643 C648 1.391 . S
C644 H616 0.929 . S
C644 C645 1.390 . S
C644 N647 1.391 . S
C645 H617 0.930 . S
C645 C644 1.390 . S
C645 C646 1.392 . S
C646 H618 0.929 . S
C646 C643 1.391 . S
C646 C645 1.392 . S
N647 Co591 2.257 . S
N647 C644 1.391 . S
N647 C648 1.388 . S
C648 H619 0.930 . S
C648 C643 1.391 . S
C648 N647 1.388 . S
Co649 O651 2.143 . S
Co649 O657 2.074 . S
Co649 O660 2.093 . S
Co649 O673 2.097 . S
Co649 N690 2.151 . S
Co649 N698 2.214 . S
Co650 O651 2.160 . S
Co650 O656 2.058 . S
Co650 O666 2.057 . S
Co650 O681 2.037 . S
Co650 N685 2.145 . S
Co650 N706 2.257 . S
O651 Co649 2.143 . S
O651 Co650 2.160 . S
C652 O653 1.278 . S
C652 O660 1.224 . S
O653 C652 1.278 . S
C654 O655 1.245 . S
C654 O666 1.232 . S
O655 C654 1.245 . S
O656 Co650 2.058 . S
O656 C682 1.269 . S
O657 Co649 2.074 . S
O657 C682 1.257 . S
H658 C683 0.930 . S
H659 C689 0.930 . S
O660 Co649 2.093 . S
O660 C652 1.224 . S
H661 C693 0.929 . S
H662 C695 0.930 . S
H663 C696 0.930 . S
H664 C694 0.929 . S
H665 C697 0.928 . S
O666 Co650 2.057 . S
O666 C654 1.232 . S
H667 C686 0.929 . S
H668 C687 0.929 . S
H669 C699 0.931 . S
H670 C691 0.929 . S
H671 C700 0.930 . S
H672 C692 0.931 . S
O673 Co649 2.097 . S
O673 C701 1.214 . S
H674 C702 0.929 . S
H675 C703 0.929 . S
H676 C704 0.930 . S
H677 C705 0.929 . S
H678 C707 0.930 . S
H679 C684 0.930 . S
H680 C688 0.930 . S
O681 Co650 2.037 . S
O681 C701 1.234 . S
C682 O656 1.269 . S
C682 O657 1.257 . S
C683 H658 0.930 . S
C683 C686 1.388 . S
C683 C688 1.418 . S
C684 H679 0.930 . S
C684 C687 1.404 . S
C684 C688 1.353 . S
N685 Co650 2.145 . S
N685 C686 1.397 . S
N685 C687 1.334 . S
C686 H667 0.929 . S
C686 C683 1.388 . S
C686 N685 1.397 . S
C687 H668 0.929 . S
C687 C684 1.404 . S
C687 N685 1.334 . S
C688 H680 0.930 . S
C688 C683 1.418 . S
C688 C684 1.353 . S
C689 H659 0.930 . S
C689 N690 1.330 . S
C689 C691 1.446 . S
N690 Co649 2.151 . S
N690 C689 1.330 . S
N690 C694 1.418 . S
C691 H670 0.929 . S
C691 C689 1.446 . S
C691 C692 1.332 . S
C692 H672 0.931 . S
C692 C691 1.332 . S
C692 C693 1.267 . S
C693 H661 0.929 . S
C693 C692 1.267 . S
C693 C694 1.251 . S
C694 H664 0.929 . S
C694 N690 1.418 . S
C694 C693 1.251 . S
C695 H662 0.930 . S
C695 C697 1.406 . S
C695 C700 1.261 . S
C696 H663 0.930 . S
C696 N698 1.325 . S
C696 C699 1.357 . S
C697 H665 0.928 . S
C697 C695 1.406 . S
C697 N698 1.261 . S
N698 Co649 2.214 . S
N698 C696 1.325 . S
N698 C697 1.261 . S
C699 H669 0.931 . S
C699 C696 1.357 . S
C699 C700 1.312 . S
C700 H671 0.930 . S
C700 C695 1.261 . S
C700 C699 1.312 . S
C701 O673 1.214 . S
C701 O681 1.234 . S
C702 H674 0.929 . S
C702 C705 1.391 . S
C702 C707 1.391 . S
C703 H675 0.929 . S
C703 C704 1.390 . S
C703 N706 1.391 . S
C704 H676 0.930 . S
C704 C703 1.390 . S
C704 C705 1.392 . S
C705 H677 0.929 . S
C705 C702 1.391 . S
C705 C704 1.392 . S
N706 Co650 2.257 . S
N706 C703 1.391 . S
N706 C707 1.388 . S
C707 H678 0.930 . S
C707 C702 1.391 . S
C707 N706 1.388 . S
Co708 O710 2.143 . S
Co708 O716 2.074 . S
Co708 O719 2.093 . S
Co708 O732 2.097 . S
Co708 N749 2.151 . S
Co708 N757 2.214 . S
Co709 O710 2.160 . S
Co709 O715 2.058 . S
Co709 O725 2.057 . S
Co709 O740 2.037 . S
Co709 N744 2.145 . S
Co709 N765 2.257 . S
O710 Co708 2.143 . S
O710 Co709 2.160 . S
C711 O712 1.278 . S
C711 O719 1.224 . S
O712 C711 1.278 . S
C713 O714 1.245 . S
C713 O725 1.232 . S
O714 C713 1.245 . S
O715 Co709 2.058 . S
O715 C741 1.269 . S
O716 Co708 2.074 . S
O716 C741 1.257 . S
H717 C742 0.930 . S
H718 C748 0.930 . S
O719 Co708 2.093 . S
O719 C711 1.224 . S
H720 C752 0.929 . S
H721 C754 0.930 . S
H722 C755 0.930 . S
H723 C753 0.929 . S
H724 C756 0.928 . S
O725 Co709 2.057 . S
O725 C713 1.232 . S
H726 C745 0.929 . S
H727 C746 0.929 . S
H728 C758 0.931 . S
H729 C750 0.929 . S
H730 C759 0.930 . S
H731 C751 0.931 . S
O732 Co708 2.097 . S
O732 C760 1.214 . S
H733 C761 0.929 . S
H734 C762 0.929 . S
H735 C763 0.930 . S
H736 C764 0.929 . S
H737 C766 0.930 . S
H738 C743 0.930 . S
H739 C747 0.930 . S
O740 Co709 2.037 . S
O740 C760 1.234 . S
C741 O715 1.269 . S
C741 O716 1.257 . S
C742 H717 0.930 . S
C742 C745 1.388 . S
C742 C747 1.418 . S
C743 H738 0.930 . S
C743 C746 1.404 . S
C743 C747 1.353 . S
N744 Co709 2.145 . S
N744 C745 1.397 . S
N744 C746 1.334 . S
C745 H726 0.929 . S
C745 C742 1.388 . S
C745 N744 1.397 . S
C746 H727 0.929 . S
C746 C743 1.404 . S
C746 N744 1.334 . S
C747 H739 0.930 . S
C747 C742 1.418 . S
C747 C743 1.353 . S
C748 H718 0.930 . S
C748 N749 1.330 . S
C748 C750 1.446 . S
N749 Co708 2.151 . S
N749 C748 1.330 . S
N749 C753 1.418 . S
C750 H729 0.929 . S
C750 C748 1.446 . S
C750 C751 1.332 . S
C751 H731 0.931 . S
C751 C750 1.332 . S
C751 C752 1.267 . S
C752 H720 0.929 . S
C752 C751 1.267 . S
C752 C753 1.251 . S
C753 H723 0.929 . S
C753 N749 1.418 . S
C753 C752 1.251 . S
C754 H721 0.930 . S
C754 C756 1.406 . S
C754 C759 1.261 . S
C755 H722 0.930 . S
C755 N757 1.325 . S
C755 C758 1.357 . S
C756 H724 0.928 . S
C756 C754 1.406 . S
C756 N757 1.261 . S
N757 Co708 2.214 . S
N757 C755 1.325 . S
N757 C756 1.261 . S
C758 H728 0.931 . S
C758 C755 1.357 . S
C758 C759 1.312 . S
C759 H730 0.930 . S
C759 C754 1.261 . S
C759 C758 1.312 . S
C760 O732 1.214 . S
C760 O740 1.234 . S
C761 H733 0.929 . S
C761 C764 1.391 . S
C761 C766 1.391 . S
C762 H734 0.929 . S
C762 C763 1.390 . S
C762 N765 1.391 . S
C763 H735 0.930 . S
C763 C762 1.390 . S
C763 C764 1.392 . S
C764 H736 0.929 . S
C764 C761 1.391 . S
C764 C763 1.392 . S
N765 Co709 2.257 . S
N765 C762 1.391 . S
N765 C766 1.388 . S
C766 H737 0.930 . S
C766 C761 1.391 . S
C766 N765 1.388 . S
Co767 O769 2.143 . S
Co767 O775 2.074 . S
Co767 O778 2.093 . S
Co767 O791 2.097 . S
Co767 N808 2.151 . S
Co767 N816 2.214 . S
Co768 O769 2.160 . S
Co768 O774 2.058 . S
Co768 O784 2.057 . S
Co768 O799 2.037 . S
Co768 N803 2.145 . S
Co768 N824 2.257 . S
O769 Co767 2.143 . S
O769 Co768 2.160 . S
C770 O771 1.278 . S
C770 O778 1.224 . S
O771 C770 1.278 . S
C772 O773 1.245 . S
C772 O784 1.232 . S
O773 C772 1.245 . S
O774 Co768 2.058 . S
O774 C800 1.269 . S
O775 Co767 2.074 . S
O775 C800 1.257 . S
H776 C801 0.930 . S
H777 C807 0.930 . S
O778 Co767 2.093 . S
O778 C770 1.224 . S
H779 C811 0.929 . S
H780 C813 0.930 . S
H781 C814 0.930 . S
H782 C812 0.929 . S
H783 C815 0.928 . S
O784 Co768 2.057 . S
O784 C772 1.232 . S
H785 C804 0.929 . S
H786 C805 0.929 . S
H787 C817 0.931 . S
H788 C809 0.929 . S
H789 C818 0.930 . S
H790 C810 0.931 . S
O791 Co767 2.097 . S
O791 C819 1.214 . S
H792 C820 0.929 . S
H793 C821 0.929 . S
H794 C822 0.930 . S
H795 C823 0.929 . S
H796 C825 0.930 . S
H797 C802 0.930 . S
H798 C806 0.930 . S
O799 Co768 2.037 . S
O799 C819 1.234 . S
C800 O774 1.269 . S
C800 O775 1.257 . S
C801 H776 0.930 . S
C801 C804 1.388 . S
C801 C806 1.418 . S
C802 H797 0.930 . S
C802 C805 1.404 . S
C802 C806 1.353 . S
N803 Co768 2.145 . S
N803 C804 1.397 . S
N803 C805 1.334 . S
C804 H785 0.929 . S
C804 C801 1.388 . S
C804 N803 1.397 . S
C805 H786 0.929 . S
C805 C802 1.404 . S
C805 N803 1.334 . S
C806 H798 0.930 . S
C806 C801 1.418 . S
C806 C802 1.353 . S
C807 H777 0.930 . S
C807 N808 1.330 . S
C807 C809 1.446 . S
N808 Co767 2.151 . S
N808 C807 1.330 . S
N808 C812 1.418 . S
C809 H788 0.929 . S
C809 C807 1.446 . S
C809 C810 1.332 . S
C810 H790 0.931 . S
C810 C809 1.332 . S
C810 C811 1.267 . S
C811 H779 0.929 . S
C811 C810 1.267 . S
C811 C812 1.251 . S
C812 H782 0.929 . S
C812 N808 1.418 . S
C812 C811 1.251 . S
C813 H780 0.930 . S
C813 C815 1.406 . S
C813 C818 1.261 . S
C814 H781 0.930 . S
C814 N816 1.325 . S
C814 C817 1.357 . S
C815 H783 0.928 . S
C815 C813 1.406 . S
C815 N816 1.261 . S
N816 Co767 2.214 . S
N816 C814 1.325 . S
N816 C815 1.261 . S
C817 H787 0.931 . S
C817 C814 1.357 . S
C817 C818 1.312 . S
C818 H789 0.930 . S
C818 C813 1.261 . S
C818 C817 1.312 . S
C819 O791 1.214 . S
C819 O799 1.234 . S
C820 H792 0.929 . S
C820 C823 1.391 . S
C820 C825 1.391 . S
C821 H793 0.929 . S
C821 C822 1.390 . S
C821 N824 1.391 . S
C822 H794 0.930 . S
C822 C821 1.390 . S
C822 C823 1.392 . S
C823 H795 0.929 . S
C823 C820 1.391 . S
C823 C822 1.392 . S
N824 Co768 2.257 . S
N824 C821 1.391 . S
N824 C825 1.388 . S
C825 H796 0.930 . S
C825 C820 1.391 . S
C825 N824 1.388 . S
Co826 O828 2.143 . S
Co826 O834 2.074 . S
Co826 O837 2.093 . S
Co826 O850 2.097 . S
Co826 N867 2.151 . S
Co826 N875 2.214 . S
Co827 O828 2.160 . S
Co827 O833 2.058 . S
Co827 O843 2.057 . S
Co827 O858 2.037 . S
Co827 N862 2.145 . S
Co827 N883 2.257 . S
O828 Co826 2.143 . S
O828 Co827 2.160 . S
C829 O830 1.278 . S
C829 O837 1.224 . S
O830 C829 1.278 . S
C831 O832 1.245 . S
C831 O843 1.232 . S
O832 C831 1.245 . S
O833 Co827 2.058 . S
O833 C859 1.269 . S
O834 Co826 2.074 . S
O834 C859 1.257 . S
H835 C860 0.930 . S
H836 C866 0.930 . S
O837 Co826 2.093 . S
O837 C829 1.224 . S
H838 C870 0.929 . S
H839 C872 0.930 . S
H840 C873 0.930 . S
H841 C871 0.929 . S
H842 C874 0.928 . S
O843 Co827 2.057 . S
O843 C831 1.232 . S
H844 C863 0.929 . S
H845 C864 0.929 . S
H846 C876 0.931 . S
H847 C868 0.929 . S
H848 C877 0.930 . S
H849 C869 0.931 . S
O850 Co826 2.097 . S
O850 C878 1.214 . S
H851 C879 0.929 . S
H852 C880 0.929 . S
H853 C881 0.930 . S
H854 C882 0.929 . S
H855 C884 0.930 . S
H856 C861 0.930 . S
H857 C865 0.930 . S
O858 Co827 2.037 . S
O858 C878 1.234 . S
C859 O833 1.269 . S
C859 O834 1.257 . S
C860 H835 0.930 . S
C860 C863 1.388 . S
C860 C865 1.418 . S
C861 H856 0.930 . S
C861 C864 1.404 . S
C861 C865 1.353 . S
N862 Co827 2.145 . S
N862 C863 1.397 . S
N862 C864 1.334 . S
C863 H844 0.929 . S
C863 C860 1.388 . S
C863 N862 1.397 . S
C864 H845 0.929 . S
C864 C861 1.404 . S
C864 N862 1.334 . S
C865 H857 0.930 . S
C865 C860 1.418 . S
C865 C861 1.353 . S
C866 H836 0.930 . S
C866 N867 1.330 . S
C866 C868 1.446 . S
N867 Co826 2.151 . S
N867 C866 1.330 . S
N867 C871 1.418 . S
C868 H847 0.929 . S
C868 C866 1.446 . S
C868 C869 1.332 . S
C869 H849 0.931 . S
C869 C868 1.332 . S
C869 C870 1.267 . S
C870 H838 0.929 . S
C870 C869 1.267 . S
C870 C871 1.251 . S
C871 H841 0.929 . S
C871 N867 1.418 . S
C871 C870 1.251 . S
C872 H839 0.930 . S
C872 C874 1.406 . S
C872 C877 1.261 . S
C873 H840 0.930 . S
C873 N875 1.325 . S
C873 C876 1.357 . S
C874 H842 0.928 . S
C874 C872 1.406 . S
C874 N875 1.261 . S
N875 Co826 2.214 . S
N875 C873 1.325 . S
N875 C874 1.261 . S
C876 H846 0.931 . S
C876 C873 1.357 . S
C876 C877 1.312 . S
C877 H848 0.930 . S
C877 C872 1.261 . S
C877 C876 1.312 . S
C878 O850 1.214 . S
C878 O858 1.234 . S
C879 H851 0.929 . S
C879 C882 1.391 . S
C879 C884 1.391 . S
C880 H852 0.929 . S
C880 C881 1.390 . S
C880 N883 1.391 . S
C881 H853 0.930 . S
C881 C880 1.390 . S
C881 C882 1.392 . S
C882 H854 0.929 . S
C882 C879 1.391 . S
C882 C881 1.392 . S
N883 Co827 2.257 . S
N883 C880 1.391 . S
N883 C884 1.388 . S
C884 H855 0.930 . S
C884 C879 1.391 . S
C884 N883 1.388 . S
Co885 O887 2.143 . S
Co885 O893 2.074 . S
Co885 O896 2.093 . S
Co885 O909 2.097 . S
Co885 N926 2.151 . S
Co885 N934 2.214 . S
Co886 O887 2.160 . S
Co886 O892 2.058 . S
Co886 O902 2.057 . S
Co886 O917 2.037 . S
Co886 N921 2.145 . S
Co886 N942 2.257 . S
O887 Co885 2.143 . S
O887 Co886 2.160 . S
C888 O889 1.278 . S
C888 O896 1.224 . S
O889 C888 1.278 . S
C890 O891 1.245 . S
C890 O902 1.232 . S
O891 C890 1.245 . S
O892 Co886 2.058 . S
O892 C918 1.269 . S
O893 Co885 2.074 . S
O893 C918 1.257 . S
H894 C919 0.930 . S
H895 C925 0.930 . S
O896 Co885 2.093 . S
O896 C888 1.224 . S
H897 C929 0.929 . S
H898 C931 0.930 . S
H899 C932 0.930 . S
H900 C930 0.929 . S
H901 C933 0.928 . S
O902 Co886 2.057 . S
O902 C890 1.232 . S
H903 C922 0.929 . S
H904 C923 0.929 . S
H905 C935 0.931 . S
H906 C927 0.929 . S
H907 C936 0.930 . S
H908 C928 0.931 . S
O909 Co885 2.097 . S
O909 C937 1.214 . S
H910 C938 0.929 . S
H911 C939 0.929 . S
H912 C940 0.930 . S
H913 C941 0.929 . S
H914 C943 0.930 . S
H915 C920 0.930 . S
H916 C924 0.930 . S
O917 Co886 2.037 . S
O917 C937 1.234 . S
C918 O892 1.269 . S
C918 O893 1.257 . S
C919 H894 0.930 . S
C919 C922 1.388 . S
C919 C924 1.418 . S
C920 H915 0.930 . S
C920 C923 1.404 . S
C920 C924 1.353 . S
N921 Co886 2.145 . S
N921 C922 1.397 . S
N921 C923 1.334 . S
C922 H903 0.929 . S
C922 C919 1.388 . S
C922 N921 1.397 . S
C923 H904 0.929 . S
C923 C920 1.404 . S
C923 N921 1.334 . S
C924 H916 0.930 . S
C924 C919 1.418 . S
C924 C920 1.353 . S
C925 H895 0.930 . S
C925 N926 1.330 . S
C925 C927 1.446 . S
N926 Co885 2.151 . S
N926 C925 1.330 . S
N926 C930 1.418 . S
C927 H906 0.929 . S
C927 C925 1.446 . S
C927 C928 1.332 . S
C928 H908 0.931 . S
C928 C927 1.332 . S
C928 C929 1.267 . S
C929 H897 0.929 . S
C929 C928 1.267 . S
C929 C930 1.251 . S
C930 H900 0.929 . S
C930 N926 1.418 . S
C930 C929 1.251 . S
C931 H898 0.930 . S
C931 C933 1.406 . S
C931 C936 1.261 . S
C932 H899 0.930 . S
C932 N934 1.325 . S
C932 C935 1.357 . S
C933 H901 0.928 . S
C933 C931 1.406 . S
C933 N934 1.261 . S
N934 Co885 2.214 . S
N934 C932 1.325 . S
N934 C933 1.261 . S
C935 H905 0.931 . S
C935 C932 1.357 . S
C935 C936 1.312 . S
C936 H907 0.930 . S
C936 C931 1.261 . S
C936 C935 1.312 . S
C937 O909 1.214 . S
C937 O917 1.234 . S
C938 H910 0.929 . S
C938 C941 1.391 . S
C938 C943 1.391 . S
C939 H911 0.929 . S
C939 C940 1.390 . S
C939 N942 1.391 . S
C940 H912 0.930 . S
C940 C939 1.390 . S
C940 C941 1.392 . S
C941 H913 0.929 . S
C941 C938 1.391 . S
C941 C940 1.392 . S
N942 Co886 2.257 . S
N942 C939 1.391 . S
N942 C943 1.388 . S
C943 H914 0.930 . S
C943 C938 1.391 . S
C943 N942 1.388 . S
Co944 O946 2.143 . S
Co944 O952 2.074 . S
Co944 O955 2.093 . S
Co944 O968 2.097 . S
Co944 N985 2.151 . S
Co944 N993 2.214 . S
Co945 O946 2.160 . S
Co945 O951 2.058 . S
Co945 O961 2.057 . S
Co945 O976 2.037 . S
Co945 N980 2.145 . S
Co945 N1001 2.257 . S
O946 Co944 2.143 . S
O946 Co945 2.160 . S
C947 O948 1.278 . S
C947 O955 1.224 . S
O948 C947 1.278 . S
C949 O950 1.245 . S
C949 O961 1.232 . S
O950 C949 1.245 . S
O951 Co945 2.058 . S
O951 C977 1.269 . S
O952 Co944 2.074 . S
O952 C977 1.257 . S
H953 C978 0.930 . S
H954 C984 0.930 . S
O955 Co944 2.093 . S
O955 C947 1.224 . S
H956 C988 0.929 . S
H957 C990 0.930 . S
H958 C991 0.930 . S
H959 C989 0.929 . S
H960 C992 0.928 . S
O961 Co945 2.057 . S
O961 C949 1.232 . S
H962 C981 0.929 . S
H963 C982 0.929 . S
H964 C994 0.931 . S
H965 C986 0.929 . S
H966 C995 0.930 . S
H967 C987 0.931 . S
O968 Co944 2.097 . S
O968 C996 1.214 . S
H969 C997 0.929 . S
H970 C998 0.929 . S
H971 C999 0.930 . S
H972 C1000 0.929 . S
H973 C1002 0.930 . S
H974 C979 0.930 . S
H975 C983 0.930 . S
O976 Co945 2.037 . S
O976 C996 1.234 . S
C977 O951 1.269 . S
C977 O952 1.257 . S
C978 H953 0.930 . S
C978 C981 1.388 . S
C978 C983 1.418 . S
C979 H974 0.930 . S
C979 C982 1.404 . S
C979 C983 1.353 . S
N980 Co945 2.145 . S
N980 C981 1.397 . S
N980 C982 1.334 . S
C981 H962 0.929 . S
C981 C978 1.388 . S
C981 N980 1.397 . S
C982 H963 0.929 . S
C982 C979 1.404 . S
C982 N980 1.334 . S
C983 H975 0.930 . S
C983 C978 1.418 . S
C983 C979 1.353 . S
C984 H954 0.930 . S
C984 N985 1.330 . S
C984 C986 1.446 . S
N985 Co944 2.151 . S
N985 C984 1.330 . S
N985 C989 1.418 . S
C986 H965 0.929 . S
C986 C984 1.446 . S
C986 C987 1.332 . S
C987 H967 0.931 . S
C987 C986 1.332 . S
C987 C988 1.267 . S
C988 H956 0.929 . S
C988 C987 1.267 . S
C988 C989 1.251 . S
C989 H959 0.929 . S
C989 N985 1.418 . S
C989 C988 1.251 . S
C990 H957 0.930 . S
C990 C992 1.406 . S
C990 C995 1.261 . S
C991 H958 0.930 . S
C991 N993 1.325 . S
C991 C994 1.357 . S
C992 H960 0.928 . S
C992 C990 1.406 . S
C992 N993 1.261 . S
N993 Co944 2.214 . S
N993 C991 1.325 . S
N993 C992 1.261 . S
C994 H964 0.931 . S
C994 C991 1.357 . S
C994 C995 1.312 . S
C995 H966 0.930 . S
C995 C990 1.261 . S
C995 C994 1.312 . S
C996 O968 1.214 . S
C996 O976 1.234 . S
C997 H969 0.929 . S
C997 C1000 1.391 . S
C997 C1002 1.391 . S
C998 H970 0.929 . S
C998 C999 1.390 . S
C998 N1001 1.391 . S
C999 H971 0.930 . S
C999 C998 1.390 . S
C999 C1000 1.392 . S
C1000 H972 0.929 . S
C1000 C997 1.391 . S
C1000 C999 1.392 . S
N1001 Co945 2.257 . S
N1001 C998 1.391 . S
N1001 C1002 1.388 . S
C1002 H973 0.930 . S
C1002 C997 1.391 . S
C1002 N1001 1.388 . S
Co1003 O1005 2.143 . S
Co1003 O1011 2.074 . S
Co1003 O1014 2.093 . S
Co1003 O1027 2.097 . S
Co1003 N1044 2.151 . S
Co1003 N1052 2.214 . S
Co1004 O1005 2.160 . S
Co1004 O1010 2.058 . S
Co1004 O1020 2.057 . S
Co1004 O1035 2.037 . S
Co1004 N1039 2.145 . S
Co1004 N1060 2.257 . S
O1005 Co1003 2.143 . S
O1005 Co1004 2.160 . S
C1006 O1007 1.278 . S
C1006 O1014 1.224 . S
O1007 C1006 1.278 . S
C1008 O1009 1.245 . S
C1008 O1020 1.232 . S
O1009 C1008 1.245 . S
O1010 Co1004 2.058 . S
O1010 C1036 1.269 . S
O1011 Co1003 2.074 . S
O1011 C1036 1.257 . S
H1012 C1037 0.930 . S
H1013 C1043 0.930 . S
O1014 Co1003 2.093 . S
O1014 C1006 1.224 . S
H1015 C1047 0.929 . S
H1016 C1049 0.930 . S
H1017 C1050 0.930 . S
H1018 C1048 0.929 . S
H1019 C1051 0.928 . S
O1020 Co1004 2.057 . S
O1020 C1008 1.232 . S
H1021 C1040 0.929 . S
H1022 C1041 0.929 . S
H1023 C1053 0.931 . S
H1024 C1045 0.929 . S
H1025 C1054 0.930 . S
H1026 C1046 0.931 . S
O1027 Co1003 2.097 . S
O1027 C1055 1.214 . S
H1028 C1056 0.929 . S
H1029 C1057 0.929 . S
H1030 C1058 0.930 . S
H1031 C1059 0.929 . S
H1032 C1061 0.930 . S
H1033 C1038 0.930 . S
H1034 C1042 0.930 . S
O1035 Co1004 2.037 . S
O1035 C1055 1.234 . S
C1036 O1010 1.269 . S
C1036 O1011 1.257 . S
C1037 H1012 0.930 . S
C1037 C1040 1.388 . S
C1037 C1042 1.418 . S
C1038 H1033 0.930 . S
C1038 C1041 1.404 . S
C1038 C1042 1.353 . S
N1039 Co1004 2.145 . S
N1039 C1040 1.397 . S
N1039 C1041 1.334 . S
C1040 H1021 0.929 . S
C1040 C1037 1.388 . S
C1040 N1039 1.397 . S
C1041 H1022 0.929 . S
C1041 C1038 1.404 . S
C1041 N1039 1.334 . S
C1042 H1034 0.930 . S
C1042 C1037 1.418 . S
C1042 C1038 1.353 . S
C1043 H1013 0.930 . S
C1043 N1044 1.330 . S
C1043 C1045 1.446 . S
N1044 Co1003 2.151 . S
N1044 C1043 1.330 . S
N1044 C1048 1.418 . S
C1045 H1024 0.929 . S
C1045 C1043 1.446 . S
C1045 C1046 1.332 . S
C1046 H1026 0.931 . S
C1046 C1045 1.332 . S
C1046 C1047 1.267 . S
C1047 H1015 0.929 . S
C1047 C1046 1.267 . S
C1047 C1048 1.251 . S
C1048 H1018 0.929 . S
C1048 N1044 1.418 . S
C1048 C1047 1.251 . S
C1049 H1016 0.930 . S
C1049 C1051 1.406 . S
C1049 C1054 1.261 . S
C1050 H1017 0.930 . S
C1050 N1052 1.325 . S
C1050 C1053 1.357 . S
C1051 H1019 0.928 . S
C1051 C1049 1.406 . S
C1051 N1052 1.261 . S
N1052 Co1003 2.214 . S
N1052 C1050 1.325 . S
N1052 C1051 1.261 . S
C1053 H1023 0.931 . S
C1053 C1050 1.357 . S
C1053 C1054 1.312 . S
C1054 H1025 0.930 . S
C1054 C1049 1.261 . S
C1054 C1053 1.312 . S
C1055 O1027 1.214 . S
C1055 O1035 1.234 . S
C1056 H1028 0.929 . S
C1056 C1059 1.391 . S
C1056 C1061 1.391 . S
C1057 H1029 0.929 . S
C1057 C1058 1.390 . S
C1057 N1060 1.391 . S
C1058 H1030 0.930 . S
C1058 C1057 1.390 . S
C1058 C1059 1.392 . S
C1059 H1031 0.929 . S
C1059 C1056 1.391 . S
C1059 C1058 1.392 . S
N1060 Co1004 2.257 . S
N1060 C1057 1.391 . S
N1060 C1061 1.388 . S
C1061 H1032 0.930 . S
C1061 C1056 1.391 . S
C1061 N1060 1.388 . S
Co1062 O1064 2.143 . S
Co1062 O1070 2.074 . S
Co1062 O1073 2.093 . S
Co1062 O1086 2.097 . S
Co1062 N1103 2.151 . S
Co1062 N1111 2.214 . S
Co1063 O1064 2.160 . S
Co1063 O1069 2.058 . S
Co1063 O1079 2.057 . S
Co1063 O1094 2.037 . S
Co1063 N1098 2.145 . S
Co1063 N1119 2.257 . S
O1064 Co1062 2.143 . S
O1064 Co1063 2.160 . S
C1065 O1066 1.278 . S
C1065 O1073 1.224 . S
O1066 C1065 1.278 . S
C1067 O1068 1.245 . S
C1067 O1079 1.232 . S
O1068 C1067 1.245 . S
O1069 Co1063 2.058 . S
O1069 C1095 1.269 . S
O1070 Co1062 2.074 . S
O1070 C1095 1.257 . S
H1071 C1096 0.930 . S
H1072 C1102 0.930 . S
O1073 Co1062 2.093 . S
O1073 C1065 1.224 . S
H1074 C1106 0.929 . S
H1075 C1108 0.930 . S
H1076 C1109 0.930 . S
H1077 C1107 0.929 . S
H1078 C1110 0.928 . S
O1079 Co1063 2.057 . S
O1079 C1067 1.232 . S
H1080 C1099 0.929 . S
H1081 C1100 0.929 . S
H1082 C1112 0.931 . S
H1083 C1104 0.929 . S
H1084 C1113 0.930 . S
H1085 C1105 0.931 . S
O1086 Co1062 2.097 . S
O1086 C1114 1.214 . S
H1087 C1115 0.929 . S
H1088 C1116 0.929 . S
H1089 C1117 0.930 . S
H1090 C1118 0.929 . S
H1091 C1120 0.930 . S
H1092 C1097 0.930 . S
H1093 C1101 0.930 . S
O1094 Co1063 2.037 . S
O1094 C1114 1.234 . S
C1095 O1069 1.269 . S
C1095 O1070 1.257 . S
C1096 H1071 0.930 . S
C1096 C1099 1.388 . S
C1096 C1101 1.418 . S
C1097 H1092 0.930 . S
C1097 C1100 1.404 . S
C1097 C1101 1.353 . S
N1098 Co1063 2.145 . S
N1098 C1099 1.397 . S
N1098 C1100 1.334 . S
C1099 H1080 0.929 . S
C1099 C1096 1.388 . S
C1099 N1098 1.397 . S
C1100 H1081 0.929 . S
C1100 C1097 1.404 . S
C1100 N1098 1.334 . S
C1101 H1093 0.930 . S
C1101 C1096 1.418 . S
C1101 C1097 1.353 . S
C1102 H1072 0.930 . S
C1102 N1103 1.330 . S
C1102 C1104 1.446 . S
N1103 Co1062 2.151 . S
N1103 C1102 1.330 . S
N1103 C1107 1.418 . S
C1104 H1083 0.929 . S
C1104 C1102 1.446 . S
C1104 C1105 1.332 . S
C1105 H1085 0.931 . S
C1105 C1104 1.332 . S
C1105 C1106 1.267 . S
C1106 H1074 0.929 . S
C1106 C1105 1.267 . S
C1106 C1107 1.251 . S
C1107 H1077 0.929 . S
C1107 N1103 1.418 . S
C1107 C1106 1.251 . S
C1108 H1075 0.930 . S
C1108 C1110 1.406 . S
C1108 C1113 1.261 . S
C1109 H1076 0.930 . S
C1109 N1111 1.325 . S
C1109 C1112 1.357 . S
C1110 H1078 0.928 . S
C1110 C1108 1.406 . S
C1110 N1111 1.261 . S
N1111 Co1062 2.214 . S
N1111 C1109 1.325 . S
N1111 C1110 1.261 . S
C1112 H1082 0.931 . S
C1112 C1109 1.357 . S
C1112 C1113 1.312 . S
C1113 H1084 0.930 . S
C1113 C1108 1.261 . S
C1113 C1112 1.312 . S
C1114 O1086 1.214 . S
C1114 O1094 1.234 . S
C1115 H1087 0.929 . S
C1115 C1118 1.391 . S
C1115 C1120 1.391 . S
C1116 H1088 0.929 . S
C1116 C1117 1.390 . S
C1116 N1119 1.391 . S
C1117 H1089 0.930 . S
C1117 C1116 1.390 . S
C1117 C1118 1.392 . S
C1118 H1090 0.929 . S
C1118 C1115 1.391 . S
C1118 C1117 1.392 . S
N1119 Co1063 2.257 . S
N1119 C1116 1.391 . S
N1119 C1120 1.388 . S
C1120 H1091 0.930 . S
C1120 C1115 1.391 . S
C1120 N1119 1.388 . S
Co1121 O1123 2.143 . S
Co1121 O1129 2.074 . S
Co1121 O1132 2.093 . S
Co1121 O1145 2.097 . S
Co1121 N1162 2.151 . S
Co1121 N1170 2.214 . S
Co1122 O1123 2.160 . S
Co1122 O1128 2.058 . S
Co1122 O1138 2.057 . S
Co1122 O1153 2.037 . S
Co1122 N1157 2.145 . S
Co1122 N1178 2.257 . S
O1123 Co1121 2.143 . S
O1123 Co1122 2.160 . S
C1124 O1125 1.278 . S
C1124 O1132 1.224 . S
O1125 C1124 1.278 . S
C1126 O1127 1.245 . S
C1126 O1138 1.232 . S
O1127 C1126 1.245 . S
O1128 Co1122 2.058 . S
O1128 C1154 1.269 . S
O1129 Co1121 2.074 . S
O1129 C1154 1.257 . S
H1130 C1155 0.930 . S
H1131 C1161 0.930 . S
O1132 Co1121 2.093 . S
O1132 C1124 1.224 . S
H1133 C1165 0.929 . S
H1134 C1167 0.930 . S
H1135 C1168 0.930 . S
H1136 C1166 0.929 . S
H1137 C1169 0.928 . S
O1138 Co1122 2.057 . S
O1138 C1126 1.232 . S
H1139 C1158 0.929 . S
H1140 C1159 0.929 . S
H1141 C1171 0.931 . S
H1142 C1163 0.929 . S
H1143 C1172 0.930 . S
H1144 C1164 0.931 . S
O1145 Co1121 2.097 . S
O1145 C1173 1.214 . S
H1146 C1174 0.929 . S
H1147 C1175 0.929 . S
H1148 C1176 0.930 . S
H1149 C1177 0.929 . S
H1150 C1179 0.930 . S
H1151 C1156 0.930 . S
H1152 C1160 0.930 . S
O1153 Co1122 2.037 . S
O1153 C1173 1.234 . S
C1154 O1128 1.269 . S
C1154 O1129 1.257 . S
C1155 H1130 0.930 . S
C1155 C1158 1.388 . S
C1155 C1160 1.418 . S
C1156 H1151 0.930 . S
C1156 C1159 1.404 . S
C1156 C1160 1.353 . S
N1157 Co1122 2.145 . S
N1157 C1158 1.397 . S
N1157 C1159 1.334 . S
C1158 H1139 0.929 . S
C1158 C1155 1.388 . S
C1158 N1157 1.397 . S
C1159 H1140 0.929 . S
C1159 C1156 1.404 . S
C1159 N1157 1.334 . S
C1160 H1152 0.930 . S
C1160 C1155 1.418 . S
C1160 C1156 1.353 . S
C1161 H1131 0.930 . S
C1161 N1162 1.330 . S
C1161 C1163 1.446 . S
N1162 Co1121 2.151 . S
N1162 C1161 1.330 . S
N1162 C1166 1.418 . S
C1163 H1142 0.929 . S
C1163 C1161 1.446 . S
C1163 C1164 1.332 . S
C1164 H1144 0.931 . S
C1164 C1163 1.332 . S
C1164 C1165 1.267 . S
C1165 H1133 0.929 . S
C1165 C1164 1.267 . S
C1165 C1166 1.251 . S
C1166 H1136 0.929 . S
C1166 N1162 1.418 . S
C1166 C1165 1.251 . S
C1167 H1134 0.930 . S
C1167 C1169 1.406 . S
C1167 C1172 1.261 . S
C1168 H1135 0.930 . S
C1168 N1170 1.325 . S
C1168 C1171 1.357 . S
C1169 H1137 0.928 . S
C1169 C1167 1.406 . S
C1169 N1170 1.261 . S
N1170 Co1121 2.214 . S
N1170 C1168 1.325 . S
N1170 C1169 1.261 . S
C1171 H1141 0.931 . S
C1171 C1168 1.357 . S
C1171 C1172 1.312 . S
C1172 H1143 0.930 . S
C1172 C1167 1.261 . S
C1172 C1171 1.312 . S
C1173 O1145 1.214 . S
C1173 O1153 1.234 . S
C1174 H1146 0.929 . S
C1174 C1177 1.391 . S
C1174 C1179 1.391 . S
C1175 H1147 0.929 . S
C1175 C1176 1.390 . S
C1175 N1178 1.391 . S
C1176 H1148 0.930 . S
C1176 C1175 1.390 . S
C1176 C1177 1.392 . S
C1177 H1149 0.929 . S
C1177 C1174 1.391 . S
C1177 C1176 1.392 . S
N1178 Co1122 2.257 . S
N1178 C1175 1.391 . S
N1178 C1179 1.388 . S
C1179 H1150 0.930 . S
C1179 C1174 1.391 . S
C1179 N1178 1.388 . S
Co1180 O1182 2.143 . S
Co1180 O1188 2.074 . S
Co1180 O1191 2.093 . S
Co1180 O1204 2.097 . S
Co1180 N1221 2.151 . S
Co1180 N1229 2.214 . S
Co1181 O1182 2.160 . S
Co1181 O1187 2.058 . S
Co1181 O1197 2.057 . S
Co1181 O1212 2.037 . S
Co1181 N1216 2.145 . S
Co1181 N1237 2.257 . S
O1182 Co1180 2.143 . S
O1182 Co1181 2.160 . S
C1183 O1184 1.278 . S
C1183 O1191 1.224 . S
O1184 C1183 1.278 . S
C1185 O1186 1.245 . S
C1185 O1197 1.232 . S
O1186 C1185 1.245 . S
O1187 Co1181 2.058 . S
O1187 C1213 1.269 . S
O1188 Co1180 2.074 . S
O1188 C1213 1.257 . S
H1189 C1214 0.930 . S
H1190 C1220 0.930 . S
O1191 Co1180 2.093 . S
O1191 C1183 1.224 . S
H1192 C1224 0.929 . S
H1193 C1226 0.930 . S
H1194 C1227 0.930 . S
H1195 C1225 0.929 . S
H1196 C1228 0.928 . S
O1197 Co1181 2.057 . S
O1197 C1185 1.232 . S
H1198 C1217 0.929 . S
H1199 C1218 0.929 . S
H1200 C1230 0.931 . S
H1201 C1222 0.929 . S
H1202 C1231 0.930 . S
H1203 C1223 0.931 . S
O1204 Co1180 2.097 . S
O1204 C1232 1.214 . S
H1205 C1233 0.929 . S
H1206 C1234 0.929 . S
H1207 C1235 0.930 . S
H1208 C1236 0.929 . S
H1209 C1238 0.930 . S
H1210 C1215 0.930 . S
H1211 C1219 0.930 . S
O1212 Co1181 2.037 . S
O1212 C1232 1.234 . S
C1213 O1187 1.269 . S
C1213 O1188 1.257 . S
C1214 H1189 0.930 . S
C1214 C1217 1.388 . S
C1214 C1219 1.418 . S
C1215 H1210 0.930 . S
C1215 C1218 1.404 . S
C1215 C1219 1.353 . S
N1216 Co1181 2.145 . S
N1216 C1217 1.397 . S
N1216 C1218 1.334 . S
C1217 H1198 0.929 . S
C1217 C1214 1.388 . S
C1217 N1216 1.397 . S
C1218 H1199 0.929 . S
C1218 C1215 1.404 . S
C1218 N1216 1.334 . S
C1219 H1211 0.930 . S
C1219 C1214 1.418 . S
C1219 C1215 1.353 . S
C1220 H1190 0.930 . S
C1220 N1221 1.330 . S
C1220 C1222 1.446 . S
N1221 Co1180 2.151 . S
N1221 C1220 1.330 . S
N1221 C1225 1.418 . S
C1222 H1201 0.929 . S
C1222 C1220 1.446 . S
C1222 C1223 1.332 . S
C1223 H1203 0.931 . S
C1223 C1222 1.332 . S
C1223 C1224 1.267 . S
C1224 H1192 0.929 . S
C1224 C1223 1.267 . S
C1224 C1225 1.251 . S
C1225 H1195 0.929 . S
C1225 N1221 1.418 . S
C1225 C1224 1.251 . S
C1226 H1193 0.930 . S
C1226 C1228 1.406 . S
C1226 C1231 1.261 . S
C1227 H1194 0.930 . S
C1227 N1229 1.325 . S
C1227 C1230 1.357 . S
C1228 H1196 0.928 . S
C1228 C1226 1.406 . S
C1228 N1229 1.261 . S
N1229 Co1180 2.214 . S
N1229 C1227 1.325 . S
N1229 C1228 1.261 . S
C1230 H1200 0.931 . S
C1230 C1227 1.357 . S
C1230 C1231 1.312 . S
C1231 H1202 0.930 . S
C1231 C1226 1.261 . S
C1231 C1230 1.312 . S
C1232 O1204 1.214 . S
C1232 O1212 1.234 . S
C1233 H1205 0.929 . S
C1233 C1236 1.391 . S
C1233 C1238 1.391 . S
C1234 H1206 0.929 . S
C1234 C1235 1.390 . S
C1234 N1237 1.391 . S
C1235 H1207 0.930 . S
C1235 C1234 1.390 . S
C1235 C1236 1.392 . S
C1236 H1208 0.929 . S
C1236 C1233 1.391 . S
C1236 C1235 1.392 . S
N1237 Co1181 2.257 . S
N1237 C1234 1.391 . S
N1237 C1238 1.388 . S
C1238 H1209 0.930 . S
C1238 C1233 1.391 . S
C1238 N1237 1.388 . S
Co1239 O1241 2.143 . S
Co1239 O1247 2.074 . S
Co1239 O1250 2.093 . S
Co1239 O1263 2.097 . S
Co1239 N1280 2.151 . S
Co1239 N1288 2.214 . S
Co1240 O1241 2.160 . S
Co1240 O1246 2.058 . S
Co1240 O1256 2.057 . S
Co1240 O1271 2.037 . S
Co1240 N1275 2.145 . S
Co1240 N1296 2.257 . S
O1241 Co1239 2.143 . S
O1241 Co1240 2.160 . S
C1242 O1243 1.278 . S
C1242 O1250 1.224 . S
O1243 C1242 1.278 . S
C1244 O1245 1.245 . S
C1244 O1256 1.232 . S
O1245 C1244 1.245 . S
O1246 Co1240 2.058 . S
O1246 C1272 1.269 . S
O1247 Co1239 2.074 . S
O1247 C1272 1.257 . S
H1248 C1273 0.930 . S
H1249 C1279 0.930 . S
O1250 Co1239 2.093 . S
O1250 C1242 1.224 . S
H1251 C1283 0.929 . S
H1252 C1285 0.930 . S
H1253 C1286 0.930 . S
H1254 C1284 0.929 . S
H1255 C1287 0.928 . S
O1256 Co1240 2.057 . S
O1256 C1244 1.232 . S
H1257 C1276 0.929 . S
H1258 C1277 0.929 . S
H1259 C1289 0.931 . S
H1260 C1281 0.929 . S
H1261 C1290 0.930 . S
H1262 C1282 0.931 . S
O1263 Co1239 2.097 . S
O1263 C1291 1.214 . S
H1264 C1292 0.929 . S
H1265 C1293 0.929 . S
H1266 C1294 0.930 . S
H1267 C1295 0.929 . S
H1268 C1297 0.930 . S
H1269 C1274 0.930 . S
H1270 C1278 0.930 . S
O1271 Co1240 2.037 . S
O1271 C1291 1.234 . S
C1272 O1246 1.269 . S
C1272 O1247 1.257 . S
C1273 H1248 0.930 . S
C1273 C1276 1.388 . S
C1273 C1278 1.418 . S
C1274 H1269 0.930 . S
C1274 C1277 1.404 . S
C1274 C1278 1.353 . S
N1275 Co1240 2.145 . S
N1275 C1276 1.397 . S
N1275 C1277 1.334 . S
C1276 H1257 0.929 . S
C1276 C1273 1.388 . S
C1276 N1275 1.397 . S
C1277 H1258 0.929 . S
C1277 C1274 1.404 . S
C1277 N1275 1.334 . S
C1278 H1270 0.930 . S
C1278 C1273 1.418 . S
C1278 C1274 1.353 . S
C1279 H1249 0.930 . S
C1279 N1280 1.330 . S
C1279 C1281 1.446 . S
N1280 Co1239 2.151 . S
N1280 C1279 1.330 . S
N1280 C1284 1.418 . S
C1281 H1260 0.929 . S
C1281 C1279 1.446 . S
C1281 C1282 1.332 . S
C1282 H1262 0.931 . S
C1282 C1281 1.332 . S
C1282 C1283 1.267 . S
C1283 H1251 0.929 . S
C1283 C1282 1.267 . S
C1283 C1284 1.251 . S
C1284 H1254 0.929 . S
C1284 N1280 1.418 . S
C1284 C1283 1.251 . S
C1285 H1252 0.930 . S
C1285 C1287 1.406 . S
C1285 C1290 1.261 . S
C1286 H1253 0.930 . S
C1286 N1288 1.325 . S
C1286 C1289 1.357 . S
C1287 H1255 0.928 . S
C1287 C1285 1.406 . S
C1287 N1288 1.261 . S
N1288 Co1239 2.214 . S
N1288 C1286 1.325 . S
N1288 C1287 1.261 . S
C1289 H1259 0.931 . S
C1289 C1286 1.357 . S
C1289 C1290 1.312 . S
C1290 H1261 0.930 . S
C1290 C1285 1.261 . S
C1290 C1289 1.312 . S
C1291 O1263 1.214 . S
C1291 O1271 1.234 . S
C1292 H1264 0.929 . S
C1292 C1295 1.391 . S
C1292 C1297 1.391 . S
C1293 H1265 0.929 . S
C1293 C1294 1.390 . S
C1293 N1296 1.391 . S
C1294 H1266 0.930 . S
C1294 C1293 1.390 . S
C1294 C1295 1.392 . S
C1295 H1267 0.929 . S
C1295 C1292 1.391 . S
C1295 C1294 1.392 . S
N1296 Co1240 2.257 . S
N1296 C1293 1.391 . S
N1296 C1297 1.388 . S
C1297 H1268 0.930 . S
C1297 C1292 1.391 . S
C1297 N1296 1.388 . S
Co1298 O1300 2.143 . S
Co1298 O1306 2.074 . S
Co1298 O1309 2.093 . S
Co1298 O1322 2.097 . S
Co1298 N1339 2.151 . S
Co1298 N1347 2.214 . S
Co1299 O1300 2.160 . S
Co1299 O1305 2.058 . S
Co1299 O1315 2.057 . S
Co1299 O1330 2.037 . S
Co1299 N1334 2.145 . S
Co1299 N1355 2.257 . S
O1300 Co1298 2.143 . S
O1300 Co1299 2.160 . S
C1301 O1302 1.278 . S
C1301 O1309 1.224 . S
O1302 C1301 1.278 . S
C1303 O1304 1.245 . S
C1303 O1315 1.232 . S
O1304 C1303 1.245 . S
O1305 Co1299 2.058 . S
O1305 C1331 1.269 . S
O1306 Co1298 2.074 . S
O1306 C1331 1.257 . S
H1307 C1332 0.930 . S
H1308 C1338 0.930 . S
O1309 Co1298 2.093 . S
O1309 C1301 1.224 . S
H1310 C1342 0.929 . S
H1311 C1344 0.930 . S
H1312 C1345 0.930 . S
H1313 C1343 0.929 . S
H1314 C1346 0.928 . S
O1315 Co1299 2.057 . S
O1315 C1303 1.232 . S
H1316 C1335 0.929 . S
H1317 C1336 0.929 . S
H1318 C1348 0.931 . S
H1319 C1340 0.929 . S
H1320 C1349 0.930 . S
H1321 C1341 0.931 . S
O1322 Co1298 2.097 . S
O1322 C1350 1.214 . S
H1323 C1351 0.929 . S
H1324 C1352 0.929 . S
H1325 C1353 0.930 . S
H1326 C1354 0.929 . S
H1327 C1356 0.930 . S
H1328 C1333 0.930 . S
H1329 C1337 0.930 . S
O1330 Co1299 2.037 . S
O1330 C1350 1.234 . S
C1331 O1305 1.269 . S
C1331 O1306 1.257 . S
C1332 H1307 0.930 . S
C1332 C1335 1.388 . S
C1332 C1337 1.418 . S
C1333 H1328 0.930 . S
C1333 C1336 1.404 . S
C1333 C1337 1.353 . S
N1334 Co1299 2.145 . S
N1334 C1335 1.397 . S
N1334 C1336 1.334 . S
C1335 H1316 0.929 . S
C1335 C1332 1.388 . S
C1335 N1334 1.397 . S
C1336 H1317 0.929 . S
C1336 C1333 1.404 . S
C1336 N1334 1.334 . S
C1337 H1329 0.930 . S
C1337 C1332 1.418 . S
C1337 C1333 1.353 . S
C1338 H1308 0.930 . S
C1338 N1339 1.330 . S
C1338 C1340 1.446 . S
N1339 Co1298 2.151 . S
N1339 C1338 1.330 . S
N1339 C1343 1.418 . S
C1340 H1319 0.929 . S
C1340 C1338 1.446 . S
C1340 C1341 1.332 . S
C1341 H1321 0.931 . S
C1341 C1340 1.332 . S
C1341 C1342 1.267 . S
C1342 H1310 0.929 . S
C1342 C1341 1.267 . S
C1342 C1343 1.251 . S
C1343 H1313 0.929 . S
C1343 N1339 1.418 . S
C1343 C1342 1.251 . S
C1344 H1311 0.930 . S
C1344 C1346 1.406 . S
C1344 C1349 1.261 . S
C1345 H1312 0.930 . S
C1345 N1347 1.325 . S
C1345 C1348 1.357 . S
C1346 H1314 0.928 . S
C1346 C1344 1.406 . S
C1346 N1347 1.261 . S
N1347 Co1298 2.214 . S
N1347 C1345 1.325 . S
N1347 C1346 1.261 . S
C1348 H1318 0.931 . S
C1348 C1345 1.357 . S
C1348 C1349 1.312 . S
C1349 H1320 0.930 . S
C1349 C1344 1.261 . S
C1349 C1348 1.312 . S
C1350 O1322 1.214 . S
C1350 O1330 1.234 . S
C1351 H1323 0.929 . S
C1351 C1354 1.391 . S
C1351 C1356 1.391 . S
C1352 H1324 0.929 . S
C1352 C1353 1.390 . S
C1352 N1355 1.391 . S
C1353 H1325 0.930 . S
C1353 C1352 1.390 . S
C1353 C1354 1.392 . S
C1354 H1326 0.929 . S
C1354 C1351 1.391 . S
C1354 C1353 1.392 . S
N1355 Co1299 2.257 . S
N1355 C1352 1.391 . S
N1355 C1356 1.388 . S
C1356 H1327 0.930 . S
C1356 C1351 1.391 . S
C1356 N1355 1.388 . S
Co1357 O1359 2.143 . S
Co1357 O1365 2.074 . S
Co1357 O1368 2.093 . S
Co1357 O1381 2.097 . S
Co1357 N1398 2.151 . S
Co1357 N1406 2.214 . S
Co1358 O1359 2.160 . S
Co1358 O1364 2.058 . S
Co1358 O1374 2.057 . S
Co1358 O1389 2.037 . S
Co1358 N1393 2.145 . S
Co1358 N1414 2.257 . S
O1359 Co1357 2.143 . S
O1359 Co1358 2.160 . S
C1360 O1361 1.278 . S
C1360 O1368 1.224 . S
O1361 C1360 1.278 . S
C1362 O1363 1.245 . S
C1362 O1374 1.232 . S
O1363 C1362 1.245 . S
O1364 Co1358 2.058 . S
O1364 C1390 1.269 . S
O1365 Co1357 2.074 . S
O1365 C1390 1.257 . S
H1366 C1391 0.930 . S
H1367 C1397 0.930 . S
O1368 Co1357 2.093 . S
O1368 C1360 1.224 . S
H1369 C1401 0.929 . S
H1370 C1403 0.930 . S
H1371 C1404 0.930 . S
H1372 C1402 0.929 . S
H1373 C1405 0.928 . S
O1374 Co1358 2.057 . S
O1374 C1362 1.232 . S
H1375 C1394 0.929 . S
H1376 C1395 0.929 . S
H1377 C1407 0.931 . S
H1378 C1399 0.929 . S
H1379 C1408 0.930 . S
H1380 C1400 0.931 . S
O1381 Co1357 2.097 . S
O1381 C1409 1.214 . S
H1382 C1410 0.929 . S
H1383 C1411 0.929 . S
H1384 C1412 0.930 . S
H1385 C1413 0.929 . S
H1386 C1415 0.930 . S
H1387 C1392 0.930 . S
H1388 C1396 0.930 . S
O1389 Co1358 2.037 . S
O1389 C1409 1.234 . S
C1390 O1364 1.269 . S
C1390 O1365 1.257 . S
C1391 H1366 0.930 . S
C1391 C1394 1.388 . S
C1391 C1396 1.418 . S
C1392 H1387 0.930 . S
C1392 C1395 1.404 . S
C1392 C1396 1.353 . S
N1393 Co1358 2.145 . S
N1393 C1394 1.397 . S
N1393 C1395 1.334 . S
C1394 H1375 0.929 . S
C1394 C1391 1.388 . S
C1394 N1393 1.397 . S
C1395 H1376 0.929 . S
C1395 C1392 1.404 . S
C1395 N1393 1.334 . S
C1396 H1388 0.930 . S
C1396 C1391 1.418 . S
C1396 C1392 1.353 . S
C1397 H1367 0.930 . S
C1397 N1398 1.330 . S
C1397 C1399 1.446 . S
N1398 Co1357 2.151 . S
N1398 C1397 1.330 . S
N1398 C1402 1.418 . S
C1399 H1378 0.929 . S
C1399 C1397 1.446 . S
C1399 C1400 1.332 . S
C1400 H1380 0.931 . S
C1400 C1399 1.332 . S
C1400 C1401 1.267 . S
C1401 H1369 0.929 . S
C1401 C1400 1.267 . S
C1401 C1402 1.251 . S
C1402 H1372 0.929 . S
C1402 N1398 1.418 . S
C1402 C1401 1.251 . S
C1403 H1370 0.930 . S
C1403 C1405 1.406 . S
C1403 C1408 1.261 . S
C1404 H1371 0.930 . S
C1404 N1406 1.325 . S
C1404 C1407 1.357 . S
C1405 H1373 0.928 . S
C1405 C1403 1.406 . S
C1405 N1406 1.261 . S
N1406 Co1357 2.214 . S
N1406 C1404 1.325 . S
N1406 C1405 1.261 . S
C1407 H1377 0.931 . S
C1407 C1404 1.357 . S
C1407 C1408 1.312 . S
C1408 H1379 0.930 . S
C1408 C1403 1.261 . S
C1408 C1407 1.312 . S
C1409 O1381 1.214 . S
C1409 O1389 1.234 . S
C1410 H1382 0.929 . S
C1410 C1413 1.391 . S
C1410 C1415 1.391 . S
C1411 H1383 0.929 . S
C1411 C1412 1.390 . S
C1411 N1414 1.391 . S
C1412 H1384 0.930 . S
C1412 C1411 1.390 . S
C1412 C1413 1.392 . S
C1413 H1385 0.929 . S
C1413 C1410 1.391 . S
C1413 C1412 1.392 . S
N1414 Co1358 2.257 . S
N1414 C1411 1.391 . S
N1414 C1415 1.388 . S
C1415 H1386 0.930 . S
C1415 C1410 1.391 . S
C1415 N1414 1.388 . S
H1416 C1422 0.930 . S
H1417 C1425 0.930 . S
H1418 C1426 0.930 . S
H1419 C1427 0.930 . S
H1420 C1430 0.930 . S
H1421 C1431 0.930 . S
C1422 H1416 0.930 . S
C1422 C1423 1.355 . S
C1422 C1424 1.415 . S
C1423 C1422 1.355 . S
C1423 C1425 1.419 . S
C1424 C1422 1.415 . S
C1424 C1429 1.425 1_545 S
C1424 C1431 1.409 . S
C1425 H1417 0.930 . S
C1425 C1423 1.419 . S
C1425 C1426 1.362 1_545 S
C1426 H1418 0.930 . S
C1426 C1425 1.362 1_565 S
C1426 C1429 1.409 . S
C1427 H1419 0.930 . S
C1427 C1428 1.355 . S
C1427 C1429 1.415 . S
C1428 C1427 1.355 . S
C1428 C1430 1.419 . S
C1429 C1424 1.425 1_565 S
C1429 C1426 1.409 . S
C1429 C1427 1.415 . S
C1430 H1420 0.930 . S
C1430 C1428 1.419 . S
C1430 C1431 1.362 1_565 S
C1431 H1421 0.930 . S
C1431 C1424 1.409 . S
C1431 C1430 1.362 1_545 S
H1432 C1438 0.930 . S
H1433 C1441 0.930 . S
H1434 C1442 0.930 . S
H1435 C1443 0.930 . S
H1436 C1446 0.930 . S
H1437 C1447 0.930 . S
C1438 H1432 0.930 . S
C1438 C1439 1.355 . S
C1438 C1440 1.415 . S
C1439 C1438 1.355 . S
C1439 C1441 1.419 . S
C1440 C1438 1.415 . S
C1440 C1445 1.425 . S
C1440 C1447 1.409 . S
C1441 H1433 0.930 . S
C1441 C1439 1.419 . S
C1441 C1442 1.362 . S
C1442 H1434 0.930 . S
C1442 C1441 1.362 . S
C1442 C1445 1.409 . S
C1443 H1435 0.930 . S
C1443 C1444 1.355 . S
C1443 C1445 1.415 . S
C1444 C1443 1.355 . S
C1444 C1446 1.419 . S
C1445 C1440 1.425 . S
C1445 C1442 1.409 . S
C1445 C1443 1.415 . S
C1446 H1436 0.930 . S
C1446 C1444 1.419 . S
C1446 C1447 1.362 . S
C1447 H1437 0.930 . S
C1447 C1440 1.409 . S
C1447 C1446 1.362 . S
H1448 C1454 0.930 . S
H1449 C1457 0.930 . S
H1450 C1458 0.930 . S
H1451 C1459 0.930 . S
H1452 C1462 0.930 . S
H1453 C1463 0.930 . S
C1454 H1448 0.930 . S
C1454 C1455 1.355 . S
C1454 C1456 1.415 . S
C1455 C1454 1.355 . S
C1455 C1457 1.419 . S
C1456 C1454 1.415 . S
C1456 C1461 1.425 1_655 S
C1456 C1463 1.409 1_655 S
C1457 H1449 0.930 . S
C1457 C1455 1.419 . S
C1457 C1458 1.362 . S
C1458 H1450 0.930 . S
C1458 C1457 1.362 . S
C1458 C1461 1.409 1_655 S
C1459 H1451 0.930 . S
C1459 C1460 1.355 . S
C1459 C1461 1.415 . S
C1460 C1459 1.355 . S
C1460 C1462 1.419 . S
C1461 C1456 1.425 1_455 S
C1461 C1458 1.409 1_455 S
C1461 C1459 1.415 . S
C1462 H1452 0.930 . S
C1462 C1460 1.419 . S
C1462 C1463 1.362 . S
C1463 H1453 0.930 . S
C1463 C1456 1.409 1_455 S
C1463 C1462 1.362 . S
H1464 C1470 0.930 . S
H1465 C1473 0.930 . S
H1466 C1474 0.937 . S
H1467 C1475 0.930 . S
H1468 C1478 0.930 . S
H1469 C1479 0.937 . S
C1470 H1464 0.930 . S
C1470 C1471 1.355 . S
C1470 C1472 1.415 . S
C1471 C1470 1.355 . S
C1471 C1473 1.419 . S
C1472 C1470 1.415 . S
C1472 C1477 1.425 1_565 S
C1472 C1479 1.424 . S
C1473 H1465 0.930 . S
C1473 C1471 1.419 . S
C1473 C1474 1.342 1_565 S
C1474 H1466 0.937 . S
C1474 C1473 1.342 1_545 S
C1474 C1477 1.423 . S
C1475 H1467 0.930 . S
C1475 C1476 1.355 . S
C1475 C1477 1.415 . S
C1476 C1475 1.355 . S
C1476 C1478 1.419 . S
C1477 C1472 1.425 1_545 S
C1477 C1474 1.423 . S
C1477 C1475 1.415 . S
C1478 H1468 0.930 . S
C1478 C1476 1.419 . S
C1478 C1479 1.342 1_545 S
C1479 H1469 0.937 . S
C1479 C1472 1.424 . S
C1479 C1478 1.342 1_565 S
H1480 C1486 0.930 . S
H1481 C1489 0.930 . S
H1482 C1490 0.930 . S
H1483 C1491 0.930 . S
H1484 C1494 0.930 . S
H1485 C1495 0.930 . S
C1486 H1480 0.930 . S
C1486 C1487 1.355 . S
C1486 C1488 1.415 . S
C1487 C1486 1.355 . S
C1487 C1489 1.419 . S
C1488 C1486 1.415 . S
C1488 C1493 1.425 . S
C1488 C1495 1.409 . S
C1489 H1481 0.930 . S
C1489 C1487 1.419 . S
C1489 C1490 1.362 . S
C1490 H1482 0.930 . S
C1490 C1489 1.362 . S
C1490 C1493 1.409 . S
C1491 H1483 0.930 . S
C1491 C1492 1.355 . S
C1491 C1493 1.415 . S
C1492 C1491 1.355 . S
C1492 C1494 1.419 . S
C1493 C1488 1.425 . S
C1493 C1490 1.409 . S
C1493 C1491 1.415 . S
C1494 H1484 0.930 . S
C1494 C1492 1.419 . S
C1494 C1495 1.362 . S
C1495 H1485 0.930 . S
C1495 C1488 1.409 . S
C1495 C1494 1.362 . S
H1496 C1502 0.930 . S
H1497 C1505 0.930 . S
H1498 C1506 0.930 . S
H1499 C1507 0.930 . S
H1500 C1510 0.930 . S
H1501 C1511 0.930 . S
C1502 H1496 0.930 . S
C1502 C1503 1.355 . S
C1502 C1504 1.383 1_455 S
C1503 C1502 1.355 . S
C1503 C1505 1.419 . S
C1504 C1502 1.383 1_655 S
C1504 C1509 1.391 1_655 S
C1504 C1511 1.459 . S
C1505 H1497 0.930 . S
C1505 C1503 1.419 . S
C1505 C1506 1.362 . S
C1506 H1498 0.930 . S
C1506 C1505 1.362 . S
C1506 C1509 1.459 . S
C1507 H1499 0.930 . S
C1507 C1508 1.355 . S
C1507 C1509 1.384 1_655 S
C1508 C1507 1.355 . S
C1508 C1510 1.419 . S
C1509 C1504 1.391 1_455 S
C1509 C1506 1.459 . S
C1509 C1507 1.384 1_455 S
C1510 H1500 0.930 . S
C1510 C1508 1.419 . S
C1510 C1511 1.362 . S
C1511 H1501 0.930 . S
C1511 C1504 1.459 . S
C1511 C1510 1.362 . S
H1512 C1518 0.930 . S
H1513 C1521 0.930 . S
H1514 C1522 0.930 . S
H1515 C1523 0.930 . S
H1516 C1526 0.930 . S
H1517 C1527 0.930 . S
C1518 H1512 0.930 . S
C1518 C1519 1.355 . S
C1518 C1520 1.415 . S
C1519 C1518 1.355 . S
C1519 C1521 1.419 . S
C1520 C1518 1.415 . S
C1520 C1525 1.425 1_565 S
C1520 C1527 1.409 1_565 S
C1521 H1513 0.930 . S
C1521 C1519 1.419 . S
C1521 C1522 1.362 . S
C1522 H1514 0.930 . S
C1522 C1521 1.362 . S
C1522 C1525 1.409 1_565 S
C1523 H1515 0.930 . S
C1523 C1524 1.355 . S
C1523 C1525 1.415 . S
C1524 C1523 1.355 . S
C1524 C1526 1.419 . S
C1525 C1520 1.425 1_545 S
C1525 C1522 1.409 1_545 S
C1525 C1523 1.415 . S
C1526 H1516 0.930 . S
C1526 C1524 1.419 . S
C1526 C1527 1.362 . S
C1527 H1517 0.930 . S
C1527 C1520 1.409 1_545 S
C1527 C1526 1.362 . S
H1528 C1534 0.930 . S
H1529 C1537 0.930 . S
H1530 C1538 0.930 . S
H1531 C1539 0.930 . S
H1532 C1542 0.930 . S
H1533 C1543 0.930 . S
C1534 H1528 0.930 . S
C1534 C1535 1.355 . S
C1534 C1536 1.415 . S
C1535 C1534 1.355 . S
C1535 C1537 1.419 . S
C1536 C1534 1.415 . S
C1536 C1541 1.425 . S
C1536 C1543 1.409 . S
C1537 H1529 0.930 . S
C1537 C1535 1.419 . S
C1537 C1538 1.362 . S
C1538 H1530 0.930 . S
C1538 C1537 1.362 . S
C1538 C1541 1.409 . S
C1539 H1531 0.930 . S
C1539 C1540 1.355 . S
C1539 C1541 1.415 . S
C1540 C1539 1.355 . S
C1540 C1542 1.419 . S
C1541 C1536 1.425 . S
C1541 C1538 1.409 . S
C1541 C1539 1.415 . S
C1542 H1532 0.930 . S
C1542 C1540 1.419 . S
C1542 C1543 1.362 . S
C1543 H1533 0.930 . S
C1543 C1536 1.409 . S
C1543 C1542 1.362 . S
H1544 C1550 0.930 . S
H1545 C1553 0.930 . S
H1546 C1554 0.930 . S
H1547 C1555 0.930 . S
H1548 C1558 0.930 . S
H1549 C1559 0.930 . S
C1550 H1544 0.930 . S
C1550 C1551 1.355 . S
C1550 C1552 1.415 . S
C1551 C1550 1.355 . S
C1551 C1553 1.419 . S
C1552 C1550 1.415 . S
C1552 C1557 1.425 1_655 S
C1552 C1559 1.409 . S
C1553 H1545 0.930 . S
C1553 C1551 1.419 . S
C1553 C1554 1.362 1_655 S
C1554 H1546 0.930 . S
C1554 C1553 1.362 1_455 S
C1554 C1557 1.409 . S
C1555 H1547 0.930 . S
C1555 C1556 1.355 . S
C1555 C1557 1.415 . S
C1556 C1555 1.355 . S
C1556 C1558 1.419 . S
C1557 C1552 1.425 1_455 S
C1557 C1554 1.409 . S
C1557 C1555 1.415 . S
C1558 H1548 0.930 . S
C1558 C1556 1.419 . S
C1558 C1559 1.362 1_455 S
C1559 H1549 0.930 . S
C1559 C1552 1.409 . S
C1559 C1558 1.362 1_655 S
H1560 C1566 0.930 . S
H1561 C1569 0.930 . S
H1562 C1570 0.930 . S
H1563 C1571 0.930 . S
H1564 C1574 0.930 . S
H1565 C1575 0.930 . S
C1566 H1560 0.930 . S
C1566 C1567 1.355 . S
C1566 C1568 1.415 . S
C1567 C1566 1.355 . S
C1567 C1569 1.419 . S
C1568 C1566 1.415 . S
C1568 C1573 1.425 1_545 S
C1568 C1575 1.409 1_545 S
C1569 H1561 0.930 . S
C1569 C1567 1.419 . S
C1569 C1570 1.362 . S
C1570 H1562 0.930 . S
C1570 C1569 1.362 . S
C1570 C1573 1.409 1_545 S
C1571 H1563 0.930 . S
C1571 C1572 1.355 . S
C1571 C1573 1.415 . S
C1572 C1571 1.355 . S
C1572 C1574 1.419 . S
C1573 C1568 1.425 1_565 S
C1573 C1570 1.409 1_565 S
C1573 C1571 1.415 . S
C1574 H1564 0.930 . S
C1574 C1572 1.419 . S
C1574 C1575 1.362 . S
C1575 H1565 0.930 . S
C1575 C1568 1.409 1_565 S
C1575 C1574 1.362 . S
H1576 C1582 0.930 . S
H1577 C1585 0.930 . S
H1578 C1586 0.930 . S
H1579 C1587 0.930 . S
H1580 C1590 0.930 . S
H1581 C1591 0.930 . S
C1582 H1576 0.930 . S
C1582 C1583 1.355 . S
C1582 C1584 1.415 . S
C1583 C1582 1.355 . S
C1583 C1585 1.419 . S
C1584 C1582 1.415 . S
C1584 C1589 1.425 . S
C1584 C1591 1.409 . S
C1585 H1577 0.930 . S
C1585 C1583 1.419 . S
C1585 C1586 1.362 . S
C1586 H1578 0.930 . S
C1586 C1585 1.362 . S
C1586 C1589 1.409 . S
C1587 H1579 0.930 . S
C1587 C1588 1.355 . S
C1587 C1589 1.415 . S
C1588 C1587 1.355 . S
C1588 C1590 1.419 . S
C1589 C1584 1.425 . S
C1589 C1586 1.409 . S
C1589 C1587 1.415 . S
C1590 H1580 0.930 . S
C1590 C1588 1.419 . S
C1590 C1591 1.362 . S
C1591 H1581 0.930 . S
C1591 C1584 1.409 . S
C1591 C1590 1.362 . S
H1592 C1598 0.930 . S
H1593 C1601 0.930 . S
H1594 C1602 0.930 . S
H1595 C1603 0.930 . S
H1596 C1606 0.930 . S
H1597 C1607 0.930 . S
C1598 H1592 0.930 . S
C1598 C1599 1.355 . S
C1598 C1600 1.415 . S
C1599 C1598 1.355 . S
C1599 C1601 1.419 . S
C1600 C1598 1.415 . S
C1600 C1605 1.425 1_455 S
C1600 C1607 1.409 . S
C1601 H1593 0.930 . S
C1601 C1599 1.419 . S
C1601 C1602 1.362 1_455 S
C1602 H1594 0.930 . S
C1602 C1601 1.362 1_655 S
C1602 C1605 1.409 . S
C1603 H1595 0.930 . S
C1603 C1604 1.355 . S
C1603 C1605 1.415 . S
C1604 C1603 1.355 . S
C1604 C1606 1.419 . S
C1605 C1600 1.425 1_655 S
C1605 C1602 1.409 . S
C1605 C1603 1.415 . S
C1606 H1596 0.930 . S
C1606 C1604 1.419 . S
C1606 C1607 1.362 1_655 S
C1607 H1597 0.930 . S
C1607 C1600 1.409 . S
C1607 C1606 1.362 1_455 S
H1608 C1614 0.930 . S
H1609 C1617 0.930 . S
H1610 C1618 0.930 . S
H1611 C1619 0.930 . S
H1612 C1622 0.930 . S
H1613 C1623 0.930 . S
C1614 H1608 0.930 . S
C1614 C1615 1.355 . S
C1614 C1616 1.415 . S
C1615 C1614 1.355 . S
C1615 C1617 1.419 . S
C1616 C1614 1.415 . S
C1616 C1621 1.425 . S
C1616 C1623 1.409 . S
C1617 H1609 0.930 . S
C1617 C1615 1.419 . S
C1617 C1618 1.362 . S
C1618 H1610 0.930 . S
C1618 C1617 1.362 . S
C1618 C1621 1.409 . S
C1619 H1611 0.930 . S
C1619 C1620 1.355 . S
C1619 C1621 1.415 . S
C1620 C1619 1.355 . S
C1620 C1622 1.419 . S
C1621 C1616 1.425 . S
C1621 C1618 1.409 . S
C1621 C1619 1.415 . S
C1622 H1612 0.930 . S
C1622 C1620 1.419 . S
C1622 C1623 1.362 . S
C1623 H1613 0.930 . S
C1623 C1616 1.409 . S
C1623 C1622 1.362 . S
H1624 C1630 0.930 . S
H1625 C1633 0.930 . S
H1626 C1634 0.930 . S
H1627 C1635 0.930 . S
H1628 C1638 0.930 . S
H1629 C1639 0.930 . S
C1630 H1624 0.930 . S
C1630 C1631 1.355 . S
C1630 C1632 1.415 . S
C1631 C1630 1.355 . S
C1631 C1633 1.419 . S
C1632 C1630 1.415 . S
C1632 C1637 1.425 . S
C1632 C1639 1.409 . S
C1633 H1625 0.930 . S
C1633 C1631 1.419 . S
C1633 C1634 1.362 . S
C1634 H1626 0.930 . S
C1634 C1633 1.362 . S
C1634 C1637 1.409 . S
C1635 H1627 0.930 . S
C1635 C1636 1.355 . S
C1635 C1637 1.415 . S
C1636 C1635 1.355 . S
C1636 C1638 1.419 . S
C1637 C1632 1.425 . S
C1637 C1634 1.409 . S
C1637 C1635 1.415 . S
C1638 H1628 0.930 . S
C1638 C1636 1.419 . S
C1638 C1639 1.362 . S
C1639 H1629 0.930 . S
C1639 C1632 1.409 . S
C1639 C1638 1.362 . S
H1640 C1646 0.930 . S
H1641 C1649 0.930 . S
H1642 C1650 0.930 . S
H1643 C1651 0.930 . S
H1644 C1654 0.930 . S
H1645 C1655 0.930 . S
C1646 H1640 0.930 . S
C1646 C1647 1.355 . S
C1646 C1648 1.415 . S
C1647 C1646 1.355 . S
C1647 C1649 1.419 . S
C1648 C1646 1.415 . S
C1648 C1653 1.425 . S
C1648 C1655 1.409 . S
C1649 H1641 0.930 . S
C1649 C1647 1.419 . S
C1649 C1650 1.362 . S
C1650 H1642 0.930 . S
C1650 C1649 1.362 . S
C1650 C1653 1.409 . S
C1651 H1643 0.930 . S
C1651 C1652 1.355 . S
C1651 C1653 1.415 . S
C1652 C1651 1.355 . S
C1652 C1654 1.419 . S
C1653 C1648 1.425 . S
C1653 C1650 1.409 . S
C1653 C1651 1.415 . S
C1654 H1644 0.930 . S
C1654 C1652 1.419 . S
C1654 C1655 1.362 . S
C1655 H1645 0.930 . S
C1655 C1648 1.409 . S
C1655 C1654 1.362 . S
H1656 C1662 0.930 . S
H1657 C1665 0.930 . S
H1658 C1666 0.930 . S
H1659 C1667 0.930 . S
H1660 C1670 0.930 . S
H1661 C1671 0.930 . S
C1662 H1656 0.930 . S
C1662 C1663 1.355 . S
C1662 C1664 1.415 . S
C1663 C1662 1.355 . S
C1663 C1665 1.419 . S
C1664 C1662 1.415 . S
C1664 C1669 1.425 . S
C1664 C1671 1.409 . S
C1665 H1657 0.930 . S
C1665 C1663 1.419 . S
C1665 C1666 1.362 . S
C1666 H1658 0.930 . S
C1666 C1665 1.362 . S
C1666 C1669 1.409 . S
C1667 H1659 0.930 . S
C1667 C1668 1.355 . S
C1667 C1669 1.415 . S
C1668 C1667 1.355 . S
C1668 C1670 1.419 . S
C1669 C1664 1.425 . S
C1669 C1666 1.409 . S
C1669 C1667 1.415 . S
C1670 H1660 0.930 . S
C1670 C1668 1.419 . S
C1670 C1671 1.362 . S
C1671 H1661 0.930 . S
C1671 C1664 1.409 . S
C1671 C1670 1.362 . S
H1672 C1678 0.930 . S
H1673 C1681 0.930 . S
H1674 C1682 0.930 . S
H1675 C1683 0.930 . S
H1676 C1686 0.930 . S
H1677 C1687 0.930 . S
C1678 H1672 0.930 . S
C1678 C1679 1.355 . S
C1678 C1680 1.415 . S
C1679 C1678 1.355 . S
C1679 C1681 1.419 . S
C1680 C1678 1.415 . S
C1680 C1685 1.425 . S
C1680 C1687 1.409 . S
C1681 H1673 0.930 . S
C1681 C1679 1.419 . S
C1681 C1682 1.362 . S
C1682 H1674 0.930 . S
C1682 C1681 1.362 . S
C1682 C1685 1.409 . S
C1683 H1675 0.930 . S
C1683 C1684 1.355 . S
C1683 C1685 1.415 . S
C1684 C1683 1.355 . S
C1684 C1686 1.419 . S
C1685 C1680 1.425 . S
C1685 C1682 1.409 . S
C1685 C1683 1.415 . S
C1686 H1676 0.930 . S
C1686 C1684 1.419 . S
C1686 C1687 1.362 . S
C1687 H1677 0.930 . S
C1687 C1680 1.409 . S
C1687 C1686 1.362 . S
H1688 C1694 0.930 . S
H1689 C1697 0.930 . S
H1690 C1698 0.930 . S
H1691 C1699 0.930 . S
H1692 C1702 0.930 . S
H1693 C1703 0.930 . S
C1694 H1688 0.930 . S
C1694 C1695 1.355 . S
C1694 C1696 1.415 . S
C1695 C1694 1.355 . S
C1695 C1697 1.419 . S
C1696 C1694 1.415 . S
C1696 C1701 1.425 . S
C1696 C1703 1.409 . S
C1697 H1689 0.930 . S
C1697 C1695 1.419 . S
C1697 C1698 1.362 . S
C1698 H1690 0.930 . S
C1698 C1697 1.362 . S
C1698 C1701 1.409 . S
C1699 H1691 0.930 . S
C1699 C1700 1.355 . S
C1699 C1701 1.415 . S
C1700 C1699 1.355 . S
C1700 C1702 1.419 . S
C1701 C1696 1.425 . S
C1701 C1698 1.409 . S
C1701 C1699 1.415 . S
C1702 H1692 0.930 . S
C1702 C1700 1.419 . S
C1702 C1703 1.362 . S
C1703 H1693 0.930 . S
C1703 C1696 1.409 . S
C1703 C1702 1.362 . S
H1704 C1710 0.930 . S
H1705 C1713 0.930 . S
H1706 C1714 0.930 . S
H1707 C1715 0.930 . S
H1708 C1718 0.930 . S
H1709 C1719 0.930 . S
C1710 H1704 0.930 . S
C1710 C1711 1.355 . S
C1710 C1712 1.415 . S
C1711 C1710 1.355 . S
C1711 C1713 1.419 . S
C1712 C1710 1.415 . S
C1712 C1717 1.425 . S
C1712 C1719 1.409 . S
C1713 H1705 0.930 . S
C1713 C1711 1.419 . S
C1713 C1714 1.362 . S
C1714 H1706 0.930 . S
C1714 C1713 1.362 . S
C1714 C1717 1.409 . S
C1715 H1707 0.930 . S
C1715 C1716 1.355 . S
C1715 C1717 1.415 . S
C1716 C1715 1.355 . S
C1716 C1718 1.419 . S
C1717 C1712 1.425 . S
C1717 C1714 1.409 . S
C1717 C1715 1.415 . S
C1718 H1708 0.930 . S
C1718 C1716 1.419 . S
C1718 C1719 1.362 . S
C1719 H1709 0.930 . S
C1719 C1712 1.409 . S
C1719 C1718 1.362 . S
H1720 C1726 0.930 . S
H1721 C1729 0.930 . S
H1722 C1730 0.930 . S
H1723 C1731 0.930 . S
H1724 C1734 0.930 . S
H1725 C1735 0.930 . S
C1726 H1720 0.930 . S
C1726 C1727 1.355 . S
C1726 C1728 1.415 . S
C1727 C1726 1.355 . S
C1727 C1729 1.419 . S
C1728 C1726 1.415 . S
C1728 C1733 1.425 . S
C1728 C1735 1.409 . S
C1729 H1721 0.930 . S
C1729 C1727 1.419 . S
C1729 C1730 1.362 . S
C1730 H1722 0.930 . S
C1730 C1729 1.362 . S
C1730 C1733 1.409 . S
C1731 H1723 0.930 . S
C1731 C1732 1.355 . S
C1731 C1733 1.415 . S
C1732 C1731 1.355 . S
C1732 C1734 1.419 . S
C1733 C1728 1.425 . S
C1733 C1730 1.409 . S
C1733 C1731 1.415 . S
C1734 H1724 0.930 . S
C1734 C1732 1.419 . S
C1734 C1735 1.362 . S
C1735 H1725 0.930 . S
C1735 C1728 1.409 . S
C1735 C1734 1.362 . S
H1736 C1742 0.930 . S
H1737 C1745 0.930 . S
H1738 C1746 0.930 . S
H1739 C1747 0.930 . S
H1740 C1750 0.930 . S
H1741 C1751 0.930 . S
C1742 H1736 0.930 . S
C1742 C1743 1.355 . S
C1742 C1744 1.415 . S
C1743 C1742 1.355 . S
C1743 C1745 1.419 . S
C1744 C1742 1.415 . S
C1744 C1749 1.425 . S
C1744 C1751 1.409 . S
C1745 H1737 0.930 . S
C1745 C1743 1.419 . S
C1745 C1746 1.362 . S
C1746 H1738 0.930 . S
C1746 C1745 1.362 . S
C1746 C1749 1.409 . S
C1747 H1739 0.930 . S
C1747 C1748 1.355 . S
C1747 C1749 1.415 . S
C1748 C1747 1.355 . S
C1748 C1750 1.419 . S
C1749 C1744 1.425 . S
C1749 C1746 1.409 . S
C1749 C1747 1.415 . S
C1750 H1740 0.930 . S
C1750 C1748 1.419 . S
C1750 C1751 1.362 . S
C1751 H1741 0.930 . S
C1751 C1744 1.409 . S
C1751 C1750 1.362 . S
H1752 C1758 0.930 . S
H1753 C1761 0.930 . S
H1754 C1762 0.930 . S
H1755 C1763 0.930 . S
H1756 C1766 0.930 . S
H1757 C1767 0.930 . S
C1758 H1752 0.930 . S
C1758 C1759 1.355 . S
C1758 C1760 1.415 . S
C1759 C1758 1.355 . S
C1759 C1761 1.419 . S
C1760 C1758 1.415 . S
C1760 C1765 1.425 . S
C1760 C1767 1.409 . S
C1761 H1753 0.930 . S
C1761 C1759 1.419 . S
C1761 C1762 1.362 . S
C1762 H1754 0.930 . S
C1762 C1761 1.362 . S
C1762 C1765 1.409 . S
C1763 H1755 0.930 . S
C1763 C1764 1.355 . S
C1763 C1765 1.415 . S
C1764 C1763 1.355 . S
C1764 C1766 1.419 . S
C1765 C1760 1.425 . S
C1765 C1762 1.409 . S
C1765 C1763 1.415 . S
C1766 H1756 0.930 . S
C1766 C1764 1.419 . S
C1766 C1767 1.362 . S
C1767 H1757 0.930 . S
C1767 C1760 1.409 . S
C1767 C1766 1.362 . S
H1768 C1774 0.930 . S
H1769 C1777 0.930 . S
H1770 C1778 0.930 . S
H1771 C1779 0.930 . S
H1772 C1782 0.930 . S
H1773 C1783 0.930 . S
C1774 H1768 0.930 . S
C1774 C1775 1.355 . S
C1774 C1776 1.415 . S
C1775 C1774 1.355 . S
C1775 C1777 1.419 . S
C1776 C1774 1.415 . S
C1776 C1781 1.425 . S
C1776 C1783 1.409 . S
C1777 H1769 0.930 . S
C1777 C1775 1.419 . S
C1777 C1778 1.362 . S
C1778 H1770 0.930 . S
C1778 C1777 1.362 . S
C1778 C1781 1.409 . S
C1779 H1771 0.930 . S
C1779 C1780 1.355 . S
C1779 C1781 1.415 . S
C1780 C1779 1.355 . S
C1780 C1782 1.419 . S
C1781 C1776 1.425 . S
C1781 C1778 1.409 . S
C1781 C1779 1.415 . S
C1782 H1772 0.930 . S
C1782 C1780 1.419 . S
C1782 C1783 1.362 . S
C1783 H1773 0.930 . S
C1783 C1776 1.409 . S
C1783 C1782 1.362 . S
H1784 C1790 0.930 . S
H1785 C1793 0.930 . S
H1786 C1794 0.930 . S
H1787 C1795 0.930 . S
H1788 C1798 0.930 . S
H1789 C1799 0.930 . S
C1790 H1784 0.930 . S
C1790 C1791 1.355 . S
C1790 C1792 1.415 . S
C1791 C1790 1.355 . S
C1791 C1793 1.419 . S
C1792 C1790 1.415 . S
C1792 C1797 1.425 . S
C1792 C1799 1.409 . S
C1793 H1785 0.930 . S
C1793 C1791 1.419 . S
C1793 C1794 1.362 . S
C1794 H1786 0.930 . S
C1794 C1793 1.362 . S
C1794 C1797 1.409 . S
C1795 H1787 0.930 . S
C1795 C1796 1.355 . S
C1795 C1797 1.415 . S
C1796 C1795 1.355 . S
C1796 C1798 1.419 . S
C1797 C1792 1.425 . S
C1797 C1794 1.409 . S
C1797 C1795 1.415 . S
C1798 H1788 0.930 . S
C1798 C1796 1.419 . S
C1798 C1799 1.362 . S
C1799 H1789 0.930 . S
C1799 C1792 1.409 . S
C1799 C1798 1.362 . S
H1800 C1806 0.930 . S
H1801 C1809 0.930 . S
H1802 C1810 0.930 . S
H1803 C1811 0.930 . S
H1804 C1814 0.930 . S
H1805 C1815 0.930 . S
C1806 H1800 0.930 . S
C1806 C1807 1.355 . S
C1806 C1808 1.415 . S
C1807 C1806 1.355 . S
C1807 C1809 1.419 . S
C1808 C1806 1.415 . S
C1808 C1813 1.425 1_554 S
C1808 C1815 1.409 1_554 S
C1809 H1801 0.930 . S
C1809 C1807 1.419 . S
C1809 C1810 1.362 . S
C1810 H1802 0.930 . S
C1810 C1809 1.362 . S
C1810 C1813 1.409 1_554 S
C1811 H1803 0.930 . S
C1811 C1812 1.355 . S
C1811 C1813 1.415 . S
C1812 C1811 1.355 . S
C1812 C1814 1.419 . S
C1813 C1808 1.425 1_556 S
C1813 C1810 1.409 1_556 S
C1813 C1811 1.415 . S
C1814 H1804 0.930 . S
C1814 C1812 1.419 . S
C1814 C1815 1.362 . S
C1815 H1805 0.930 . S
C1815 C1808 1.409 1_556 S
C1815 C1814 1.362 . S
H1816 C1822 0.930 . S
H1817 C1825 0.930 . S
H1818 C1826 0.930 . S
H1819 C1827 0.930 . S
H1820 C1830 0.930 . S
H1821 C1831 0.930 . S
C1822 H1816 0.930 . S
C1822 C1823 1.355 . S
C1822 C1824 1.415 . S
C1823 C1822 1.355 . S
C1823 C1825 1.419 . S
C1824 C1822 1.415 . S
C1824 C1829 1.425 1_556 S
C1824 C1831 1.409 1_556 S
C1825 H1817 0.930 . S
C1825 C1823 1.419 . S
C1825 C1826 1.362 . S
C1826 H1818 0.930 . S
C1826 C1825 1.362 . S
C1826 C1829 1.409 1_556 S
C1827 H1819 0.930 . S
C1827 C1828 1.355 . S
C1827 C1829 1.415 . S
C1828 C1827 1.355 . S
C1828 C1830 1.419 . S
C1829 C1824 1.425 1_554 S
C1829 C1826 1.409 1_554 S
C1829 C1827 1.415 . S
C1830 H1820 0.930 . S
C1830 C1828 1.419 . S
C1830 C1831 1.362 . S
C1831 H1821 0.930 . S
C1831 C1824 1.409 1_554 S
C1831 C1830 1.362 . S
H1832 C1838 0.930 . S
H1833 C1841 0.930 . S
H1834 C1842 0.930 . S
H1835 C1843 0.930 . S
H1836 C1846 0.930 . S
H1837 C1847 0.930 . S
C1838 H1832 0.930 . S
C1838 C1839 1.355 . S
C1838 C1840 1.415 . S
C1839 C1838 1.355 . S
C1839 C1841 1.419 . S
C1840 C1838 1.415 . S
C1840 C1845 1.425 1_556 S
C1840 C1847 1.409 1_556 S
C1841 H1833 0.930 . S
C1841 C1839 1.419 . S
C1841 C1842 1.362 . S
C1842 H1834 0.930 . S
C1842 C1841 1.362 . S
C1842 C1845 1.409 1_556 S
C1843 H1835 0.930 . S
C1843 C1844 1.355 . S
C1843 C1845 1.415 . S
C1844 C1843 1.355 . S
C1844 C1846 1.419 . S
C1845 C1840 1.425 1_554 S
C1845 C1842 1.409 1_554 S
C1845 C1843 1.415 . S
C1846 H1836 0.930 . S
C1846 C1844 1.419 . S
C1846 C1847 1.362 . S
C1847 H1837 0.930 . S
C1847 C1840 1.409 1_554 S
C1847 C1846 1.362 . S
H1848 C1854 0.930 . S
H1849 C1857 0.930 . S
H1850 C1858 0.930 . S
H1851 C1859 0.930 . S
H1852 C1862 0.930 . S
H1853 C1863 0.930 . S
C1854 H1848 0.930 . S
C1854 C1855 1.355 . S
C1854 C1856 1.415 . S
C1855 C1854 1.355 . S
C1855 C1857 1.419 . S
C1856 C1854 1.415 . S
C1856 C1861 1.425 1_554 S
C1856 C1863 1.409 1_554 S
C1857 H1849 0.930 . S
C1857 C1855 1.419 . S
C1857 C1858 1.362 . S
C1858 H1850 0.930 . S
C1858 C1857 1.362 . S
C1858 C1861 1.409 1_554 S
C1859 H1851 0.930 . S
C1859 C1860 1.355 . S
C1859 C1861 1.415 . S
C1860 C1859 1.355 . S
C1860 C1862 1.419 . S
C1861 C1856 1.425 1_556 S
C1861 C1858 1.409 1_556 S
C1861 C1859 1.415 . S
C1862 H1852 0.930 . S
C1862 C1860 1.419 . S
C1862 C1863 1.362 . S
C1863 H1853 0.930 . S
C1863 C1856 1.409 1_556 S
C1863 C1862 1.362 . S
H1864 C1870 0.930 . S
H1865 C1873 0.930 . S
H1866 C1874 0.930 . S
H1867 C1875 0.930 . S
H1868 C1878 0.930 . S
H1869 C1879 0.930 . S
C1870 H1864 0.930 . S
C1870 C1871 1.355 . S
C1870 C1872 1.415 . S
C1871 C1870 1.355 . S
C1871 C1873 1.419 . S
C1872 C1870 1.415 . S
C1872 C1877 1.425 1_554 S
C1872 C1879 1.409 1_554 S
C1873 H1865 0.930 . S
C1873 C1871 1.419 . S
C1873 C1874 1.362 . S
C1874 H1866 0.930 . S
C1874 C1873 1.362 . S
C1874 C1877 1.409 1_554 S
C1875 H1867 0.930 . S
C1875 C1876 1.355 . S
C1875 C1877 1.415 . S
C1876 C1875 1.355 . S
C1876 C1878 1.419 . S
C1877 C1872 1.425 1_556 S
C1877 C1874 1.409 1_556 S
C1877 C1875 1.415 . S
C1878 H1868 0.930 . S
C1878 C1876 1.419 . S
C1878 C1879 1.362 . S
C1879 H1869 0.930 . S
C1879 C1872 1.409 1_556 S
C1879 C1878 1.362 . S
H1880 C1886 0.930 . S
H1881 C1889 0.930 . S
H1882 C1890 0.930 . S
H1883 C1891 0.930 . S
H1884 C1894 0.930 . S
H1885 C1895 0.930 . S
C1886 H1880 0.930 . S
C1886 C1887 1.355 . S
C1886 C1888 1.415 . S
C1887 C1886 1.355 . S
C1887 C1889 1.419 . S
C1888 C1886 1.415 . S
C1888 C1893 1.425 1_556 S
C1888 C1895 1.409 1_556 S
C1889 H1881 0.930 . S
C1889 C1887 1.419 . S
C1889 C1890 1.362 . S
C1890 H1882 0.930 . S
C1890 C1889 1.362 . S
C1890 C1893 1.409 1_556 S
C1891 H1883 0.930 . S
C1891 C1892 1.355 . S
C1891 C1893 1.415 . S
C1892 C1891 1.355 . S
C1892 C1894 1.419 . S
C1893 C1888 1.425 1_554 S
C1893 C1890 1.409 1_554 S
C1893 C1891 1.415 . S
C1894 H1884 0.930 . S
C1894 C1892 1.419 . S
C1894 C1895 1.362 . S
C1895 H1885 0.930 . S
C1895 C1888 1.409 1_554 S
C1895 C1894 1.362 . S
H1896 C1902 0.930 . S
H1897 C1905 0.930 . S
H1898 C1906 0.930 . S
H1899 C1907 0.930 . S
H1900 C1910 0.930 . S
H1901 C1911 0.930 . S
C1902 H1896 0.930 . S
C1902 C1903 1.355 . S
C1902 C1904 1.415 . S
C1903 C1902 1.355 . S
C1903 C1905 1.419 . S
C1904 C1902 1.415 . S
C1904 C1909 1.425 . S
C1904 C1911 1.409 . S
C1905 H1897 0.930 . S
C1905 C1903 1.419 . S
C1905 C1906 1.362 . S
C1906 H1898 0.930 . S
C1906 C1905 1.362 . S
C1906 C1909 1.409 . S
C1907 H1899 0.930 . S
C1907 C1908 1.355 . S
C1907 C1909 1.415 . S
C1908 C1907 1.355 . S
C1908 C1910 1.419 . S
C1909 C1904 1.425 . S
C1909 C1906 1.409 . S
C1909 C1907 1.415 . S
C1910 H1900 0.930 . S
C1910 C1908 1.419 . S
C1910 C1911 1.362 . S
C1911 H1901 0.930 . S
C1911 C1904 1.409 . S
C1911 C1910 1.362 . S
H1912 C1918 0.930 . S
H1913 C1921 0.930 . S
H1914 C1922 0.930 . S
H1915 C1923 0.930 . S
H1916 C1926 0.930 . S
H1917 C1927 0.930 . S
C1918 H1912 0.930 . S
C1918 C1919 1.355 . S
C1918 C1920 1.415 . S
C1919 C1918 1.355 . S
C1919 C1921 1.419 . S
C1920 C1918 1.415 . S
C1920 C1925 1.425 . S
C1920 C1927 1.409 . S
C1921 H1913 0.930 . S
C1921 C1919 1.419 . S
C1921 C1922 1.362 . S
C1922 H1914 0.930 . S
C1922 C1921 1.362 . S
C1922 C1925 1.409 . S
C1923 H1915 0.930 . S
C1923 C1924 1.355 . S
C1923 C1925 1.415 . S
C1924 C1923 1.355 . S
C1924 C1926 1.419 . S
C1925 C1920 1.425 . S
C1925 C1922 1.409 . S
C1925 C1923 1.415 . S
C1926 H1916 0.930 . S
C1926 C1924 1.419 . S
C1926 C1927 1.362 . S
C1927 H1917 0.930 . S
C1927 C1920 1.409 . S
C1927 C1926 1.362 . S
H1928 C1934 0.930 . S
H1929 C1937 0.930 . S
H1930 C1938 0.930 . S
H1931 C1939 0.930 . S
H1932 C1942 0.930 . S
H1933 C1943 0.930 . S
C1934 H1928 0.930 . S
C1934 C1935 1.355 . S
C1934 C1936 1.415 . S
C1935 C1934 1.355 . S
C1935 C1937 1.419 . S
C1936 C1934 1.415 . S
C1936 C1941 1.425 . S
C1936 C1943 1.409 . S
C1937 H1929 0.930 . S
C1937 C1935 1.419 . S
C1937 C1938 1.362 . S
C1938 H1930 0.930 . S
C1938 C1937 1.362 . S
C1938 C1941 1.409 . S
C1939 H1931 0.930 . S
C1939 C1940 1.355 . S
C1939 C1941 1.415 . S
C1940 C1939 1.355 . S
C1940 C1942 1.419 . S
C1941 C1936 1.425 . S
C1941 C1938 1.409 . S
C1941 C1939 1.415 . S
C1942 H1932 0.930 . S
C1942 C1940 1.419 . S
C1942 C1943 1.362 . S
C1943 H1933 0.930 . S
C1943 C1936 1.409 . S
C1943 C1942 1.362 . S
H1944 C1950 0.930 . S
H1945 C1953 0.930 . S
H1946 C1954 0.930 . S
H1947 C1955 0.930 . S
H1948 C1958 0.930 . S
H1949 C1959 0.930 . S
C1950 H1944 0.930 . S
C1950 C1951 1.355 . S
C1950 C1952 1.415 . S
C1951 C1950 1.355 . S
C1951 C1953 1.419 . S
C1952 C1950 1.415 . S
C1952 C1957 1.425 . S
C1952 C1959 1.409 . S
C1953 H1945 0.930 . S
C1953 C1951 1.419 . S
C1953 C1954 1.362 . S
C1954 H1946 0.930 . S
C1954 C1953 1.362 . S
C1954 C1957 1.409 . S
C1955 H1947 0.930 . S
C1955 C1956 1.355 . S
C1955 C1957 1.415 . S
C1956 C1955 1.355 . S
C1956 C1958 1.419 . S
C1957 C1952 1.425 . S
C1957 C1954 1.409 . S
C1957 C1955 1.415 . S
C1958 H1948 0.930 . S
C1958 C1956 1.419 . S
C1958 C1959 1.362 . S
C1959 H1949 0.930 . S
C1959 C1952 1.409 . S
C1959 C1958 1.362 . S
H1960 C1966 0.930 . S
H1961 C1969 0.930 . S
H1962 C1970 0.930 . S
H1963 C1971 0.930 . S
H1964 C1974 0.930 . S
H1965 C1975 0.930 . S
C1966 H1960 0.930 . S
C1966 C1967 1.355 . S
C1966 C1968 1.415 . S
C1967 C1966 1.355 . S
C1967 C1969 1.419 . S
C1968 C1966 1.415 . S
C1968 C1973 1.425 . S
C1968 C1975 1.409 . S
C1969 H1961 0.930 . S
C1969 C1967 1.419 . S
C1969 C1970 1.362 . S
C1970 H1962 0.930 . S
C1970 C1969 1.362 . S
C1970 C1973 1.409 . S
C1971 H1963 0.930 . S
C1971 C1972 1.355 . S
C1971 C1973 1.415 . S
C1972 C1971 1.355 . S
C1972 C1974 1.419 . S
C1973 C1968 1.425 . S
C1973 C1970 1.409 . S
C1973 C1971 1.415 . S
C1974 H1964 0.930 . S
C1974 C1972 1.419 . S
C1974 C1975 1.362 . S
C1975 H1965 0.930 . S
C1975 C1968 1.409 . S
C1975 C1974 1.362 . S
H1976 C1982 0.930 . S
H1977 C1985 0.930 . S
H1978 C1986 0.930 . S
H1979 C1987 0.930 . S
H1980 C1990 0.930 . S
H1981 C1991 0.930 . S
C1982 H1976 0.930 . S
C1982 C1983 1.355 . S
C1982 C1984 1.415 . S
C1983 C1982 1.355 . S
C1983 C1985 1.419 . S
C1984 C1982 1.415 . S
C1984 C1989 1.425 . S
C1984 C1991 1.409 . S
C1985 H1977 0.930 . S
C1985 C1983 1.419 . S
C1985 C1986 1.362 . S
C1986 H1978 0.930 . S
C1986 C1985 1.362 . S
C1986 C1989 1.409 . S
C1987 H1979 0.930 . S
C1987 C1988 1.355 . S
C1987 C1989 1.415 . S
C1988 C1987 1.355 . S
C1988 C1990 1.419 . S
C1989 C1984 1.425 . S
C1989 C1986 1.409 . S
C1989 C1987 1.415 . S
C1990 H1980 0.930 . S
C1990 C1988 1.419 . S
C1990 C1991 1.362 . S
C1991 H1981 0.930 . S
C1991 C1984 1.409 . S
C1991 C1990 1.362 . S
H1992 C1998 0.930 . S
H1993 C2001 0.930 . S
H1994 C2002 0.930 . S
H1995 C2003 0.930 . S
H1996 C2006 0.930 . S
H1997 C2007 0.930 . S
C1998 H1992 0.930 . S
C1998 C1999 1.355 . S
C1998 C2000 1.415 . S
C1999 C1998 1.355 . S
C1999 C2001 1.419 . S
C2000 C1998 1.415 . S
C2000 C2005 1.425 . S
C2000 C2007 1.409 . S
C2001 H1993 0.930 . S
C2001 C1999 1.419 . S
C2001 C2002 1.362 . S
C2002 H1994 0.930 . S
C2002 C2001 1.362 . S
C2002 C2005 1.409 . S
C2003 H1995 0.930 . S
C2003 C2004 1.355 . S
C2003 C2005 1.415 . S
C2004 C2003 1.355 . S
C2004 C2006 1.419 . S
C2005 C2000 1.425 . S
C2005 C2002 1.409 . S
C2005 C2003 1.415 . S
C2006 H1996 0.930 . S
C2006 C2004 1.419 . S
C2006 C2007 1.362 . S
C2007 H1997 0.930 . S
C2007 C2000 1.409 . S
C2007 C2006 1.362 . S
H2008 C2014 0.930 . S
H2009 C2017 0.930 . S
H2010 C2018 0.930 . S
H2011 C2019 0.930 . S
H2012 C2022 0.930 . S
H2013 C2023 0.930 . S
C2014 H2008 0.930 . S
C2014 C2015 1.355 . S
C2014 C2016 1.415 . S
C2015 C2014 1.355 . S
C2015 C2017 1.419 . S
C2016 C2014 1.415 . S
C2016 C2021 1.425 . S
C2016 C2023 1.409 . S
C2017 H2009 0.930 . S
C2017 C2015 1.419 . S
C2017 C2018 1.362 . S
C2018 H2010 0.930 . S
C2018 C2017 1.362 . S
C2018 C2021 1.409 . S
C2019 H2011 0.930 . S
C2019 C2020 1.355 . S
C2019 C2021 1.415 . S
C2020 C2019 1.355 . S
C2020 C2022 1.419 . S
C2021 C2016 1.425 . S
C2021 C2018 1.409 . S
C2021 C2019 1.415 . S
C2022 H2012 0.930 . S
C2022 C2020 1.419 . S
C2022 C2023 1.362 . S
C2023 H2013 0.930 . S
C2023 C2016 1.409 . S
C2023 C2022 1.362 . S
H2024 C2030 0.930 . S
H2025 C2033 0.930 . S
H2026 C2034 0.930 . S
H2027 C2035 0.930 . S
H2028 C2038 0.930 . S
H2029 C2039 0.930 . S
C2030 H2024 0.930 . S
C2030 C2031 1.355 . S
C2030 C2032 1.415 . S
C2031 C2030 1.355 . S
C2031 C2033 1.419 . S
C2032 C2030 1.415 . S
C2032 C2037 1.425 . S
C2032 C2039 1.409 . S
C2033 H2025 0.930 . S
C2033 C2031 1.419 . S
C2033 C2034 1.362 . S
C2034 H2026 0.930 . S
C2034 C2033 1.362 . S
C2034 C2037 1.409 . S
C2035 H2027 0.930 . S
C2035 C2036 1.355 . S
C2035 C2037 1.415 . S
C2036 C2035 1.355 . S
C2036 C2038 1.419 . S
C2037 C2032 1.425 . S
C2037 C2034 1.409 . S
C2037 C2035 1.415 . S
C2038 H2028 0.930 . S
C2038 C2036 1.419 . S
C2038 C2039 1.362 . S
C2039 H2029 0.930 . S
C2039 C2032 1.409 . S
C2039 C2038 1.362 . S
H2040 C2046 0.930 . S
H2041 C2049 0.930 . S
H2042 C2050 0.930 . S
H2043 C2051 0.930 . S
H2044 C2054 0.930 . S
H2045 C2055 0.930 . S
C2046 H2040 0.930 . S
C2046 C2047 1.355 . S
C2046 C2048 1.415 . S
C2047 C2046 1.355 . S
C2047 C2049 1.419 . S
C2048 C2046 1.415 . S
C2048 C2053 1.425 . S
C2048 C2055 1.409 . S
C2049 H2041 0.930 . S
C2049 C2047 1.419 . S
C2049 C2050 1.362 . S
C2050 H2042 0.930 . S
C2050 C2049 1.362 . S
C2050 C2053 1.409 . S
C2051 H2043 0.930 . S
C2051 C2052 1.355 . S
C2051 C2053 1.415 . S
C2052 C2051 1.355 . S
C2052 C2054 1.419 . S
C2053 C2048 1.425 . S
C2053 C2050 1.409 . S
C2053 C2051 1.415 . S
C2054 H2044 0.930 . S
C2054 C2052 1.419 . S
C2054 C2055 1.362 . S
C2055 H2045 0.930 . S
C2055 C2048 1.409 . S
C2055 C2054 1.362 . S
H2056 C2062 0.930 . S
H2057 C2065 0.930 . S
H2058 C2066 0.930 . S
H2059 C2067 0.930 . S
H2060 C2070 0.930 . S
H2061 C2071 0.930 . S
C2062 H2056 0.930 . S
C2062 C2063 1.355 . S
C2062 C2064 1.415 . S
C2063 C2062 1.355 . S
C2063 C2065 1.419 . S
C2064 C2062 1.415 . S
C2064 C2069 1.425 . S
C2064 C2071 1.409 . S
C2065 H2057 0.930 . S
C2065 C2063 1.419 . S
C2065 C2066 1.362 . S
C2066 H2058 0.930 . S
C2066 C2065 1.362 . S
C2066 C2069 1.409 . S
C2067 H2059 0.930 . S
C2067 C2068 1.355 . S
C2067 C2069 1.415 . S
C2068 C2067 1.355 . S
C2068 C2070 1.419 . S
C2069 C2064 1.425 . S
C2069 C2066 1.409 . S
C2069 C2067 1.415 . S
C2070 H2060 0.930 . S
C2070 C2068 1.419 . S
C2070 C2071 1.362 . S
C2071 H2061 0.930 . S
C2071 C2064 1.409 . S
C2071 C2070 1.362 . S
H2072 C2078 0.930 . S
H2073 C2081 0.930 . S
H2074 C2082 0.930 . S
H2075 C2083 0.930 . S
H2076 C2086 0.930 . S
H2077 C2087 0.930 . S
C2078 H2072 0.930 . S
C2078 C2079 1.355 . S
C2078 C2080 1.415 . S
C2079 C2078 1.355 . S
C2079 C2081 1.419 . S
C2080 C2078 1.415 . S
C2080 C2085 1.425 . S
C2080 C2087 1.409 . S
C2081 H2073 0.930 . S
C2081 C2079 1.419 . S
C2081 C2082 1.362 . S
C2082 H2074 0.930 . S
C2082 C2081 1.362 . S
C2082 C2085 1.409 . S
C2083 H2075 0.930 . S
C2083 C2084 1.355 . S
C2083 C2085 1.415 . S
C2084 C2083 1.355 . S
C2084 C2086 1.419 . S
C2085 C2080 1.425 . S
C2085 C2082 1.409 . S
C2085 C2083 1.415 . S
C2086 H2076 0.930 . S
C2086 C2084 1.419 . S
C2086 C2087 1.362 . S
C2087 H2077 0.930 . S
C2087 C2080 1.409 . S
C2087 C2086 1.362 . S
H2088 C2094 0.930 . S
H2089 C2097 0.930 . S
H2090 C2098 0.930 . S
H2091 C2099 0.930 . S
H2092 C2102 0.930 . S
H2093 C2103 0.930 . S
C2094 H2088 0.930 . S
C2094 C2095 1.355 . S
C2094 C2096 1.415 . S
C2095 C2094 1.355 . S
C2095 C2097 1.419 . S
C2096 C2094 1.415 . S
C2096 C2101 1.425 . S
C2096 C2103 1.409 . S
C2097 H2089 0.930 . S
C2097 C2095 1.419 . S
C2097 C2098 1.362 . S
C2098 H2090 0.930 . S
C2098 C2097 1.362 . S
C2098 C2101 1.409 . S
C2099 H2091 0.930 . S
C2099 C2100 1.355 . S
C2099 C2101 1.415 . S
C2100 C2099 1.355 . S
C2100 C2102 1.419 . S
C2101 C2096 1.425 . S
C2101 C2098 1.409 . S
C2101 C2099 1.415 . S
C2102 H2092 0.930 . S
C2102 C2100 1.419 . S
C2102 C2103 1.362 . S
C2103 H2093 0.930 . S
C2103 C2096 1.409 . S
C2103 C2102 1.362 . S
H2104 C2110 0.930 . S
H2105 C2113 0.930 . S
H2106 C2114 0.930 . S
H2107 C2115 0.930 . S
H2108 C2118 0.930 . S
H2109 C2119 0.930 . S
C2110 H2104 0.930 . S
C2110 C2111 1.355 . S
C2110 C2112 1.415 . S
C2111 C2110 1.355 . S
C2111 C2113 1.419 . S
C2112 C2110 1.415 . S
C2112 C2117 1.425 . S
C2112 C2119 1.409 . S
C2113 H2105 0.930 . S
C2113 C2111 1.419 . S
C2113 C2114 1.362 . S
C2114 H2106 0.930 . S
C2114 C2113 1.362 . S
C2114 C2117 1.409 . S
C2115 H2107 0.930 . S
C2115 C2116 1.355 . S
C2115 C2117 1.415 . S
C2116 C2115 1.355 . S
C2116 C2118 1.419 . S
C2117 C2112 1.425 . S
C2117 C2114 1.409 . S
C2117 C2115 1.415 . S
C2118 H2108 0.930 . S
C2118 C2116 1.419 . S
C2118 C2119 1.362 . S
C2119 H2109 0.930 . S
C2119 C2112 1.409 . S
C2119 C2118 1.362 . S
H2120 C2126 0.930 . S
H2121 C2129 0.930 . S
H2122 C2130 0.930 . S
H2123 C2131 0.930 . S
H2124 C2134 0.930 . S
H2125 C2135 0.930 . S
C2126 H2120 0.930 . S
C2126 C2127 1.355 . S
C2126 C2128 1.415 . S
C2127 C2126 1.355 . S
C2127 C2129 1.419 . S
C2128 C2126 1.415 . S
C2128 C2133 1.425 . S
C2128 C2135 1.409 . S
C2129 H2121 0.930 . S
C2129 C2127 1.419 . S
C2129 C2130 1.362 . S
C2130 H2122 0.930 . S
C2130 C2129 1.362 . S
C2130 C2133 1.409 . S
C2131 H2123 0.930 . S
C2131 C2132 1.355 . S
C2131 C2133 1.415 . S
C2132 C2131 1.355 . S
C2132 C2134 1.419 . S
C2133 C2128 1.425 . S
C2133 C2130 1.409 . S
C2133 C2131 1.415 . S
C2134 H2124 0.930 . S
C2134 C2132 1.419 . S
C2134 C2135 1.362 . S
C2135 H2125 0.930 . S
C2135 C2128 1.409 . S
C2135 C2134 1.362 . S
H2136 C2142 0.930 . S
H2137 C2145 0.930 . S
H2138 C2146 0.930 . S
H2139 C2147 0.930 . S
H2140 C2150 0.930 . S
H2141 C2151 0.930 . S
C2142 H2136 0.930 . S
C2142 C2143 1.355 . S
C2142 C2144 1.415 . S
C2143 C2142 1.355 . S
C2143 C2145 1.419 . S
C2144 C2142 1.415 . S
C2144 C2149 1.425 . S
C2144 C2151 1.409 . S
C2145 H2137 0.930 . S
C2145 C2143 1.419 . S
C2145 C2146 1.362 . S
C2146 H2138 0.930 . S
C2146 C2145 1.362 . S
C2146 C2149 1.409 . S
C2147 H2139 0.930 . S
C2147 C2148 1.355 . S
C2147 C2149 1.415 . S
C2148 C2147 1.355 . S
C2148 C2150 1.419 . S
C2149 C2144 1.425 . S
C2149 C2146 1.409 . S
C2149 C2147 1.415 . S
C2150 H2140 0.930 . S
C2150 C2148 1.419 . S
C2150 C2151 1.362 . S
C2151 H2141 0.930 . S
C2151 C2144 1.409 . S
C2151 C2150 1.362 . S
H2152 C2158 0.930 . S
H2153 C2161 0.930 . S
H2154 C2162 0.930 . S
H2155 C2163 0.930 . S
H2156 C2166 0.930 . S
H2157 C2167 0.930 . S
C2158 H2152 0.930 . S
C2158 C2159 1.355 . S
C2158 C2160 1.415 . S
C2159 C2158 1.355 . S
C2159 C2161 1.419 . S
C2160 C2158 1.415 . S
C2160 C2165 1.425 . S
C2160 C2167 1.409 . S
C2161 H2153 0.930 . S
C2161 C2159 1.419 . S
C2161 C2162 1.362 . S
C2162 H2154 0.930 . S
C2162 C2161 1.362 . S
C2162 C2165 1.409 . S
C2163 H2155 0.930 . S
C2163 C2164 1.355 . S
C2163 C2165 1.415 . S
C2164 C2163 1.355 . S
C2164 C2166 1.419 . S
C2165 C2160 1.425 . S
C2165 C2162 1.409 . S
C2165 C2163 1.415 . S
C2166 H2156 0.930 . S
C2166 C2164 1.419 . S
C2166 C2167 1.362 . S
C2167 H2157 0.930 . S
C2167 C2160 1.409 . S
C2167 C2166 1.362 . S
H2168 C2174 0.930 . S
H2169 C2177 0.930 . S
H2170 C2178 0.930 . S
H2171 C2179 0.930 . S
H2172 C2182 0.930 . S
H2173 C2183 0.930 . S
C2174 H2168 0.930 . S
C2174 C2175 1.355 . S
C2174 C2176 1.415 . S
C2175 C2174 1.355 . S
C2175 C2177 1.419 . S
C2176 C2174 1.415 . S
C2176 C2181 1.425 . S
C2176 C2183 1.409 . S
C2177 H2169 0.930 . S
C2177 C2175 1.419 . S
C2177 C2178 1.362 . S
C2178 H2170 0.930 . S
C2178 C2177 1.362 . S
C2178 C2181 1.409 . S
C2179 H2171 0.930 . S
C2179 C2180 1.355 . S
C2179 C2181 1.415 . S
C2180 C2179 1.355 . S
C2180 C2182 1.419 . S
C2181 C2176 1.425 . S
C2181 C2178 1.409 . S
C2181 C2179 1.415 . S
C2182 H2172 0.930 . S
C2182 C2180 1.419 . S
C2182 C2183 1.362 . S
C2183 H2173 0.930 . S
C2183 C2176 1.409 . S
C2183 C2182 1.362 . S
C1423 C52 1.770 . S
C1428 C465 1.770 . S
C1439 C524 1.771 . S
C1444 C111 1.771 . S
C1455 C170 1.764 . S
C1460 C583 1.765 . S
C1471 C229 1.770 . S
C1476 C642 1.771 . S
C1487 C701 1.770 . S
C1492 C288 1.769 . S
C1503 C347 1.744 . S
C1508 C406 1.743 . S
C1519 C760 1.763 . S
C1524 C1173 1.761 . S
C1535 C819 1.766 . S
C1540 C1232 1.767 . S
C1551 C1291 1.771 . S
C1556 C878 1.771 . S
C1567 C937 1.746 . S
C1572 C1350 1.748 . S
C1583 C996 1.767 . S
C1588 C1409 1.766 . S
C1599 C1114 1.771 . S
C1604 C1055 1.771 . S
C1615 C5 1.567 . S
C1620 C477 1.569 . S
C1631 C536 1.570 . S
C1636 C64 1.570 . S
C1647 C595 1.556 . S
C1652 C123 1.559 . S
C1663 C182 1.563 . S
C1668 C654 1.561 . S
C1679 C241 1.567 . S
C1684 C359 1.565 . S
C1695 C300 1.554 . S
C1700 C418 1.557 . S
C1711 C1185 1.565 . S
C1716 C713 1.563 . S
C1727 C772 1.570 . S
C1732 C1244 1.570 . S
C1743 C1303 1.570 . S
C1748 C831 1.570 . S
C1759 C1362 1.562 . S
C1764 C890 1.564 . S
C1775 C1067 1.570 . S
C1780 C949 1.570 . S
C1791 C1008 1.556 . S
C1796 C1126 1.558 . S
C1807 C3 1.614 . S
C1812 C888 1.644 . S
C1823 C947 1.610 . S
C1828 C62 1.648 . S
C1839 C1006 1.646 . S
C1844 C121 1.612 . S
C1855 C180 1.631 . S
C1860 C711 1.627 . S
C1871 C239 1.623 . S
C1876 C770 1.636 . S
C1887 C829 1.646 . S
C1892 C298 1.612 . S
C1903 C1242 1.637 . S
C1908 C357 1.621 . S
C1919 C1301 1.638 . S
C1924 C416 1.621 . S
C1935 C1360 1.610 . S
C1940 C475 1.648 . S
C1951 C1065 1.644 . S
C1956 C534 1.614 . S
C1967 C593 1.625 . S
C1972 C1124 1.633 . S
C1983 C652 1.633 . S
C1988 C1183 1.625 . S
C1999 C33 1.514 . S
C2004 C623 1.514 . S
C2015 C682 1.479 . S
C2020 C92 1.492 . S
C2031 C387 1.489 . S
C2036 C151 1.500 . S
C2047 C210 1.513 . S
C2052 C446 1.506 . S
C2063 C269 1.486 . S
C2068 C505 1.474 . S
C2079 C328 1.500 . S
C2084 C564 1.488 . S
C2095 C741 1.471 . S
C2100 C1331 1.462 . S
C2111 C800 1.479 . S
C2116 C1390 1.491 . S
C2127 C859 1.508 . S
C2132 C1095 1.498 . S
C2143 C1154 1.461 . S
C2148 C918 1.468 . S
C2159 C977 1.458 . S
C2164 C1213 1.462 . S
C2175 C1036 1.511 . S
C2180 C1272 1.515 . S
