# Generated by pormake.
# Topology snk, (6)-cn, num edge types: 1
# Building blocks:
#     Node 0, Type 0, BuildingBlock: UKALOJ_clean_sbu_0, # of connection points: 6
#     Node 1, Type 0, BuildingBlock: UKALOJ_clean_sbu_0, # of connection points: 6
#     Node 2, Type 0, BuildingBlock: UKALOJ_clean_sbu_0, # of connection points: 6
#     Node 3, Type 0, BuildingBlock: UKALOJ_clean_sbu_0, # of connection points: 6
#     Node 4, Type 0, BuildingBlock: UKALOJ_clean_sbu_0, # of connection points: 6
#     Node 5, Type 0, BuildingBlock: UKALOJ_clean_sbu_0, # of connection points: 6
#     Node 6, Type 0, BuildingBlock: UKALOJ_clean_sbu_0, # of connection points: 6
#     Node 7, Type 0, BuildingBlock: UKALOJ_clean_sbu_0, # of connection points: 6
#     Edge 8, Type (0, 0), BuildingBlock: EZIPEK_clean_linker_0, # of connection points: 2
#     Edge 9, Type (0, 0), BuildingBlock: EZIPEK_clean_linker_0, # of connection points: 2
#     Edge 10, Type (0, 0), BuildingBlock: EZIPEK_clean_linker_0, # of connection points: 2
#     Edge 11, Type (0, 0), BuildingBlock: EZIPEK_clean_linker_0, # of connection points: 2
#     Edge 12, Type (0, 0), BuildingBlock: EZIPEK_clean_linker_0, # of connection points: 2
#     Edge 13, Type (0, 0), BuildingBlock: EZIPEK_clean_linker_0, # of connection points: 2
#     Edge 14, Type (0, 0), BuildingBlock: EZIPEK_clean_linker_0, # of connection points: 2
#     Edge 15, Type (0, 0), BuildingBlock: EZIPEK_clean_linker_0, # of connection points: 2
#     Edge 16, Type (0, 0), BuildingBlock: EZIPEK_clean_linker_0, # of connection points: 2
#     Edge 17, Type (0, 0), BuildingBlock: EZIPEK_clean_linker_0, # of connection points: 2
#     Edge 18, Type (0, 0), BuildingBlock: EZIPEK_clean_linker_0, # of connection points: 2
#     Edge 19, Type (0, 0), BuildingBlock: EZIPEK_clean_linker_0, # of connection points: 2
#     Edge 20, Type (0, 0), BuildingBlock: EZIPEK_clean_linker_0, # of connection points: 2
#     Edge 21, Type (0, 0), BuildingBlock: EZIPEK_clean_linker_0, # of connection points: 2
#     Edge 22, Type (0, 0), BuildingBlock: EZIPEK_clean_linker_0, # of connection points: 2
#     Edge 23, Type (0, 0), BuildingBlock: EZIPEK_clean_linker_0, # of connection points: 2
#     Edge 24, Type (0, 0), BuildingBlock: EZIPEK_clean_linker_0, # of connection points: 2
#     Edge 25, Type (0, 0), BuildingBlock: EZIPEK_clean_linker_0, # of connection points: 2
#     Edge 26, Type (0, 0), BuildingBlock: EZIPEK_clean_linker_0, # of connection points: 2
#     Edge 27, Type (0, 0), BuildingBlock: EZIPEK_clean_linker_0, # of connection points: 2
#     Edge 28, Type (0, 0), BuildingBlock: EZIPEK_clean_linker_0, # of connection points: 2
#     Edge 29, Type (0, 0), BuildingBlock: EZIPEK_clean_linker_0, # of connection points: 2
#     Edge 30, Type (0, 0), BuildingBlock: EZIPEK_clean_linker_0, # of connection points: 2
#     Edge 31, Type (0, 0), BuildingBlock: EZIPEK_clean_linker_0, # of connection points: 2
# Relax obj value: 0.212
# Max RMSD: 0.115
# Mean RMSD: 0.107
data_MOF--net-snk--node1-UKALOJ_clean_sbu_0--edge1-EZIPEK_clean_linker_0
_symmetry_space_group_name_H-M    P1
_symmetry_Int_Tables_number       1
_symmetry_cell_setting            triclinic
loop_
_symmetry_equiv_pos_as_xyz
'x, y, z'
_cell_length_a     36.30685
_cell_length_b     36.619661
_cell_length_c     11.282415
_cell_angle_alpha  79.686582
_cell_angle_beta   79.253237
_cell_angle_gamma 94.754395
loop_
_atom_site_label
_atom_site_type_symbol
_atom_site_fract_x
_atom_site_fract_y
_atom_site_fract_z
_atom_type_partial_charge
Zn0 Zn 0.07121 1.01663 0.49026 0.0
O1 O 0.06852 1.0167 0.67848 0.0
C2 C 0.9888 0.97562 0.55228 0.0
Zn3 Zn 1.02889 0.05811 0.48545 0.0
C4 C 0.04779 0.03735 0.73357 0.0
O5 O 1.02759 0.05789 0.67591 0.0
C6 C 0.05299 0.03754 0.24182 0.0
O7 O 0.0767 0.10512 0.43432 0.0
O8 O 0.1177 0.06482 0.44363 0.0
N9 N 0.98999 0.0968 0.48054 0.0
C10 C 0.96344 0.10336 0.4121 0.0
C11 C 0.96294 0.14474 0.52299 0.0
N12 N 0.98945 0.12259 0.54945 0.0
N13 N 0.94628 0.13328 0.43674 0.0
C14 C 0.11678 0.95052 0.5755 0.0
C15 C 0.16279 0.95758 0.42216 0.0
N16 N 0.1114 0.9797 0.49103 0.0
N17 N 0.14005 0.98389 0.39591 0.0
N18 N 0.14888 0.93631 0.53462 0.0
H19 H 0.10019 0.9522 0.76601 0.0
H20 H 0.09289 0.90636 0.73152 0.0
H21 H 0.06184 0.94104 0.69387 0.0
C22 C 0.09126 0.9365 0.69864 0.0
C23 C 0.95452 0.081 0.32017 0.0
H24 H 0.95892 0.0515 0.34937 0.0
H25 H 0.97354 0.09263 0.2298 0.0
H26 H 0.92493 0.0825 0.3088 0.0
O27 O 1.03172 0.05766 0.29724 0.0
O28 O 0.07342 1.01741 0.29949 0.0
C29 C 0.1113 0.09908 0.42589 0.0
O30 O 1.02353 0.9696 0.53809 0.0
O31 O 0.98216 1.00986 0.53716 0.0
Zn32 Zn 0.28025 0.76268 0.78159 0.0
O33 O 0.23169 0.79217 0.76406 0.0
C34 C 0.31147 0.79153 0.49673 0.0
Zn35 Zn 0.32122 0.81363 0.71743 0.0
C36 C 0.23887 0.82718 0.72182 0.0
O37 O 0.27286 0.84219 0.698 0.0
C38 C 0.36262 0.74913 0.77713 0.0
O39 O 0.31072 0.80918 0.91639 0.0
O40 O 0.26941 0.7591 0.97449 0.0
N41 N 0.35312 0.8632 0.69851 0.0
C42 C 0.34361 0.88755 0.77176 0.0
C43 C 0.4033 0.88943 0.73874 0.0
N44 N 0.39043 0.86541 0.67389 0.0
N45 N 0.37416 0.90263 0.80435 0.0
C46 C 0.25825 0.68865 0.72731 0.0
C47 C 0.19855 0.68662 0.75908 0.0
N48 N 0.24849 0.71308 0.80007 0.0
N49 N 0.21117 0.71081 0.82384 0.0
N50 N 0.22785 0.6734 0.6944 0.0
H51 H 0.2987 0.65998 0.62145 0.0
H52 H 0.31125 0.67156 0.75751 0.0
H53 H 0.31471 0.70735 0.62302 0.0
C54 C 0.29788 0.68158 0.67892 0.0
C55 C 0.30407 0.89476 0.82073 0.0
H56 H 0.28723 0.86905 0.87697 0.0
H57 H 0.29058 0.90477 0.74244 0.0
H58 H 0.30349 0.91642 0.87798 0.0
O59 O 0.36982 0.78412 0.7345 0.0
O60 O 0.32861 0.73416 0.80155 0.0
C61 C 0.28991 0.78472 0.00238 0.0
O62 O 0.29079 0.76703 0.58281 0.0
O63 O 0.33191 0.81723 0.52445 0.0
Zn64 Zn 0.562 0.04524 0.00315 0.0
O65 O 0.52715 0.08873 0.01863 0.0
C66 C 0.54768 1.02614 0.27404 0.0
Zn67 Zn 0.51398 1.00232 0.07071 0.0
C68 C 0.49215 0.07984 0.06248 0.0
O69 O 0.479 0.0456 0.08745 0.0
C70 C 0.58499 0.96828 0.01158 0.0
O71 O 0.50229 1.00113 0.88849 0.0
O72 O 0.55242 0.0422 0.82542 0.0
N73 N 0.46829 0.96782 0.1634 0.0
C74 C 0.44719 0.94219 0.12746 0.0
C75 C 0.41314 0.95742 0.28233 0.0
N76 N 0.44765 0.9766 0.26193 0.0
N77 N 0.41203 0.93593 0.19795 0.0
C78 C 0.63252 0.10085 0.95425 0.0
C79 C 0.62812 0.13546 0.7856 0.0
N80 N 0.60454 0.08432 0.91385 0.0
N81 N 0.60254 0.1051 0.80679 0.0
N82 N 0.64667 0.13376 0.87869 0.0
H83 H 0.6276 0.09857 0.14779 0.0
H84 H 0.67433 0.09543 0.06708 0.0
H85 H 0.63891 0.05566 0.09718 0.0
C86 C 0.64394 0.08663 0.07363 0.0
C87 C 0.46015 0.92612 0.01585 0.0
H88 H 0.44959 0.94106 0.9368 0.0
H89 H 0.44941 0.89605 0.03276 0.0
H90 H 0.49134 0.9288 -0.0071 0.0
O91 O 0.54967 0.95852 0.05153 0.0
O92 O 0.59781 1.00273 -0.01176 0.0
C93 C 0.52617 1.02193 0.80003 0.0
O94 O 0.57049 0.04853 0.18707 0.0
O95 O 0.52401 1.00339 0.24723 0.0
Zn96 Zn 0.32074 0.26769 0.24969 0.0
O97 O 0.32213 0.27033 0.05877 0.0
C98 C 0.3599 0.35095 0.19082 0.0
Zn99 Zn 0.27827 0.30817 0.25227 0.0
C100 C 0.30094 0.29037 0.0044 0.0
O101 O 0.27971 0.30983 0.06303 0.0
C102 C 0.29782 0.2852 0.49783 0.0
O103 O 0.23279 0.25917 0.29825 0.0
O104 O 0.27415 0.21914 0.2965 0.0
N105 N 0.23671 0.34293 0.25446 0.0
C106 C 0.22656 0.36922 0.31999 0.0
C107 C 0.18649 0.36399 0.20596 0.0
N108 N 0.2117 0.33977 0.1839 0.0
N109 N 0.19511 0.3826 0.29162 0.0
C110 C 0.37172 0.20601 0.18437 0.0
C111 C 0.41179 0.2111 0.29851 0.0
N112 N 0.36204 0.23277 0.24831 0.0
N113 N 0.38703 0.23583 0.31901 0.0
N114 N 0.40285 0.19222 0.21391 0.0
H115 H 0.32107 0.19765 0.11533 0.0
H116 H 0.35409 0.16403 0.08832 0.0
H117 H 0.36378 0.21103 -0.00012 0.0
C118 C 0.35124 0.19376 0.09219 0.0
C119 C 0.24683 0.38138 0.41271 0.0
H120 H 0.2338 0.36446 0.50513 0.0
H121 H 0.24437 0.41125 0.41539 0.0
H122 H 0.27689 0.37702 0.39106 0.0
O123 O 0.27708 0.30567 0.44294 0.0
O124 O 0.31897 0.26567 0.43932 0.0
C125 C 0.23937 0.225 0.31026 0.0
O126 O 0.36627 0.31669 0.20529 0.0
O127 O 0.3251 0.35683 0.20314 0.0
Zn128 Zn 0.77581 0.2709 0.26319 0.0
O129 O 0.7475 0.3194 0.24449 0.0
C130 C 0.8064 0.28801 0.98531 0.0
Zn131 Zn 0.82922 0.30712 0.19943 0.0
C132 C 0.76449 0.35213 0.20147 0.0
O133 O 0.80035 0.35631 0.17801 0.0
C134 C 0.84066 0.22574 0.26161 0.0
O135 O 0.82462 0.30796 0.39115 0.0
O136 O 0.77153 0.27056 0.45188 0.0
N137 N 0.87851 0.33954 0.16136 0.0
C138 C 0.90242 0.3416 0.23806 0.0
C139 C 0.90887 0.39476 0.11793 0.0
N140 N 0.88343 0.3721 0.08363 0.0
N141 N 0.92031 0.3763 0.21641 0.0
C142 C 0.70278 0.237 0.22153 0.0
C143 C 0.69917 0.18209 0.32853 0.0
N144 N 0.72651 0.23827 0.2994 0.0
N145 N 0.72323 0.2045 0.36915 0.0
N146 N 0.68684 0.20188 0.23427 0.0
H147 H 0.70957 0.29582 0.12779 0.0
H148 H 0.66915 0.26758 0.11083 0.0
H149 H 0.71452 0.26242 0.02846 0.0
C150 C 0.6993 0.2678 0.11728 0.0
C151 C 0.90476 0.31223 0.34777 0.0
H152 H 0.89046 0.32006 0.43382 0.0
H153 H 0.93484 0.31124 0.35389 0.0
H154 H 0.89253 0.2841 0.34417 0.0
O155 O 0.85775 0.25851 0.22012 0.0
O156 O 0.80484 0.22187 0.28339 0.0
C157 C 0.79836 0.29005 0.4774 0.0
O158 O 0.78011 0.27038 0.07178 0.0
O159 O 0.83353 0.30715 0.01048 0.0
Zn160 Zn 0.82129 0.76709 0.74837 0.0
O161 O 0.81856 0.7684 0.56254 0.0
C162 C 0.86271 0.848 0.68501 0.0
Zn163 Zn 0.77946 0.80807 0.75478 0.0
C164 C 0.79906 0.79009 0.50679 0.0
O165 O 0.77971 0.81138 0.56381 0.0
C166 C 0.8014 0.78519 -0.00326 0.0
O167 O 0.73188 0.76114 0.80082 0.0
O168 O 0.773 0.72082 0.80475 0.0
N169 N 0.74342 0.84816 0.76435 0.0
C170 C 0.70998 0.84951 0.83864 0.0
C171 C 0.72833 0.90432 0.73137 0.0
N172 N 0.75465 0.88225 0.69785 0.0
N173 N 0.70015 0.88454 0.82042 0.0
C174 C 0.88662 0.72369 0.64771 0.0
C175 C 0.88413 0.67876 0.79915 0.0
N176 N 0.85874 0.72828 0.73946 0.0
N177 N 0.8573 0.70033 0.83341 0.0
N178 N 0.90267 0.69275 0.68278 0.0
H179 H 0.89219 0.77784 0.52808 0.0
H180 H 0.88133 0.7384 0.46039 0.0
H181 H 0.92827 0.74868 0.48449 0.0
C182 C 0.89788 0.74886 0.5234 0.0
C183 C 0.68734 0.81675 0.92905 0.0
H184 H 0.67627 0.79648 0.87827 0.0
H185 H 0.6631 0.82524 -0.01088 0.0
H186 H 0.70565 0.80267 -0.01345 0.0
O187 O 0.77964 0.80463 0.94349 0.0
O188 O 0.82308 0.76619 0.93708 0.0
C189 C 0.73836 0.7269 0.81683 0.0
O190 O 0.86897 0.81387 0.69204 0.0
O191 O 0.8281 0.85398 0.70818 0.0
Zn192 Zn 0.57166 0.5177 0.00985 0.0
O193 O 0.56988 0.5169 0.19742 0.0
C194 C 0.48902 0.47674 0.07052 0.0
Zn195 Zn 0.52949 0.55912 0.00619 0.0
C196 C 0.54911 0.53715 0.25378 0.0
O197 O 0.5286 0.55761 0.19736 0.0
C198 C 0.55186 0.5397 0.76231 0.0
O199 O 0.57702 0.60598 0.95758 0.0
O200 O 0.61827 0.56575 0.95975 0.0
N201 N 0.48967 0.59629 0.00797 0.0
C202 C 0.48468 0.62582 0.92408 0.0
C203 C 0.43818 0.6183 0.07613 0.0
N204 N 0.46074 0.59182 0.10235 0.0
N205 N 0.45248 0.63993 0.9645 0.0
C206 C 0.63884 0.47395 0.0729 0.0
C207 C 0.6374 0.43144 0.96669 0.0
N208 N 0.61074 0.47941 0.01031 0.0
N209 N 0.61007 0.45296 0.94422 0.0
N210 N 0.65578 0.44397 0.0475 0.0
H211 H 0.64399 0.52662 0.13211 0.0
H212 H 0.67958 0.49664 0.16522 0.0
H213 H 0.6321 0.48579 0.25363 0.0
C214 C 0.64939 0.49734 0.16032 0.0
C215 C 0.51055 0.6402 0.80153 0.0
H216 H 0.50924 0.67049 0.77037 0.0
H217 H 0.50149 0.6252 0.73273 0.0
H218 H 0.53999 0.63528 0.80563 0.0
O219 O 0.53097 0.55986 0.81882 0.0
O220 O 0.57232 0.51912 0.81876 0.0
C221 C 0.6117 0.59998 0.94469 0.0
O222 O 0.52365 0.47065 0.06126 0.0
O223 O 0.48283 0.51107 0.05293 0.0
Zn224 Zn 1.0374 0.53125 0.5059 0.0
O225 O 1.02923 0.52832 0.32152 0.0
C226 C 0.10669 0.49505 0.44816 0.0
Zn227 Zn 0.08641 0.57297 0.43508 0.0
C228 C 0.05254 0.54975 0.23364 0.0
O229 O 0.07725 0.57165 0.25894 0.0
C230 C 0.0725 0.55409 0.70867 0.0
O231 O 0.05175 0.61759 0.44708 0.0
O232 O 1.00289 0.57444 0.51864 0.0
N233 N 0.13308 0.60636 0.34281 0.0
C234 C 0.15457 0.63221 0.37653 0.0
C235 C 0.1881 0.6159 0.22285 0.0
N236 N 0.15344 0.5969 0.24502 0.0
N237 N 0.1896 0.63802 0.30522 0.0
C238 C 0.96726 0.47825 0.5397 0.0
C239 C 0.97493 0.43591 0.68601 0.0
N240 N 0.9941 0.49251 0.59018 0.0
N241 N 0.99794 0.46682 0.68453 0.0
N242 N 0.95641 0.44221 0.59286 0.0
H243 H 0.96066 0.52889 0.41752 0.0
H244 H 0.92282 0.49122 0.44384 0.0
H245 H 0.9668 0.4883 0.34648 0.0
C246 C 0.95385 0.49817 0.43035 0.0
C247 C 0.14216 0.64881 0.48709 0.0
H248 H 0.11102 0.64547 0.51279 0.0
H249 H 0.15234 0.67906 0.46757 0.0
H250 H 0.15373 0.63466 0.56499 0.0
O251 O 0.09675 0.57428 0.6195 0.0
O252 O 0.04597 0.53399 0.68393 0.0
C253 C 1.01645 0.60871 0.49047 0.0
O254 O 0.0716 0.48692 0.49184 0.0
O255 O 0.12053 0.52906 0.42253 0.0
C256 C 0.14386 0.1607 0.46531 0.0
C257 C 0.14409 0.13159 0.39564 0.0
C258 C 0.20623 0.16407 0.26728 0.0
C259 C 0.20648 0.19255 0.33945 0.0
N260 N 0.17744 0.21343 0.52143 0.0
N261 N 0.1738 0.10917 0.21783 0.0
C262 C 0.17551 0.18974 0.44124 0.0
C263 C 0.17523 0.13408 0.29443 0.0
N264 N 0.1129 0.16116 0.5548 0.0
N265 N 0.23584 0.16577 0.1711 0.0
H266 H 0.15184 0.08769 0.2319 0.0
H267 H 0.19273 0.11078 0.13523 0.0
H268 H 0.25603 0.189 0.13843 0.0
H269 H 0.24131 0.1441 0.12466 0.0
H270 H 0.10784 0.184 0.59603 0.0
H271 H 0.09075 0.13958 0.58365 0.0
H272 H 0.15911 0.21019 0.60629 0.0
H273 H 0.19948 0.23472 0.50902 0.0
C274 C 0.18304 0.91022 0.69543 0.0
C275 C 0.16624 0.90602 0.59432 0.0
C276 C 0.19335 0.84716 0.58473 0.0
C277 C 0.20903 0.85061 0.68921 0.0
N278 N 0.20916 0.87959 0.86405 0.0
N279 N 0.14785 0.86692 0.4608 0.0
C280 C 0.20081 0.8804 0.75085 0.0
C281 C 0.16893 0.87317 0.54511 0.0
N282 N 0.18381 0.94344 0.73429 0.0
N283 N 0.20349 0.82043 0.51905 0.0
H284 H 0.1296 0.88554 0.43151 0.0
H285 H 0.1458 0.84197 0.42906 0.0
H286 H 0.22181 0.8015 0.54432 0.0
H287 H 0.19643 0.81907 0.43447 0.0
H288 H 0.19903 0.94948 0.79949 0.0
H289 H 0.17196 0.96617 0.69332 0.0
H290 H 0.20131 0.89894 0.9185 0.0
H291 H 0.22008 0.85683 0.90848 0.0
C292 C 0.37294 0.8796 0.02567 0.0
C293 C 0.37303 0.90976 0.92569 0.0
C294 C 0.36868 0.9529 0.06648 0.0
C295 C 0.37958 0.92516 0.15251 0.0
N296 N 0.37957 0.86149 0.23913 0.0
N297 N 0.36565 0.97389 0.85213 0.0
C298 C 0.37515 0.88776 0.14218 0.0
C299 C 0.36836 0.94606 0.9472 0.0
N300 N 0.37311 0.84389 0.00707 0.0
N301 N 0.36156 0.98624 0.09785 0.0
H302 H 0.36542 0.96898 0.76391 0.0
H303 H 0.36522 1.00182 0.8589 0.0
H304 H 0.36155 0.99066 0.1867 0.0
H305 H 0.35237 1.00774 0.04118 0.0
H306 H 0.37164 0.82071 0.07661 0.0
H307 H 0.3744 0.83711 0.92116 0.0
H308 H 0.38078 0.83328 0.23846 0.0
H309 H 0.38208 0.86894 0.32276 0.0
C310 C 0.44442 0.10202 0.21793 0.0
C311 C 0.46766 0.10848 0.09766 0.0
C312 C 0.44804 0.17134 0.05477 0.0
C313 C 0.42267 0.16329 0.17005 0.0
N314 N 0.39071 0.11907 0.35051 0.0
N315 N 0.48665 0.14724 0.89409 0.0
C316 C 0.41892 0.12789 0.24785 0.0
C317 C 0.46812 0.14263 0.01377 0.0
N318 N 0.4485 0.07278 0.30682 0.0
N319 N 0.45379 0.20687 -0.01343 0.0
H320 H 0.50131 0.12683 0.86016 0.0
H321 H 0.48475 0.16989 0.82596 0.0
H322 H 0.43907 0.22822 0.01416 0.0
H323 H 0.47497 0.21581 0.90802 0.0
H324 H 0.43496 0.06922 0.39874 0.0
H325 H 0.4686 0.05445 0.29322 0.0
H326 H 0.38393 0.09229 0.40471 0.0
H327 H 0.37178 0.13777 0.37445 0.0
C328 C 0.95361 0.9135 0.691 0.0
C329 C 0.95631 0.94287 0.58638 0.0
C330 C 0.89643 0.91141 0.55088 0.0
C331 C 0.89532 0.88058 0.65011 0.0
N332 N 0.92686 0.85119 0.80579 0.0
N333 N 0.93245 0.96554 0.40515 0.0
C334 C 0.92528 0.8813 0.71655 0.0
C335 C 0.92804 0.94071 0.51412 0.0
N336 N 0.97675 0.91735 0.77167 0.0
N337 N 0.8673 0.9128 0.48965 0.0
H338 H 0.9549 0.98675 0.37421 0.0
H339 H 0.91607 0.96318 0.33977 0.0
H340 H 0.84585 0.89086 0.50304 0.0
H341 H 0.86321 0.93656 0.42977 0.0
H342 H 0.97363 0.8998 0.85726 0.0
H343 H 0.99689 0.9404 0.75876 0.0
H344 H 0.95036 0.84736 0.84515 0.0
H345 H 0.90568 0.8287 0.83597 0.0
C346 C 0.87948 0.14294 0.44208 0.0
C347 C 0.91779 0.15106 0.38153 0.0
C348 C 0.90035 0.19594 0.21879 0.0
C349 C 0.86342 0.19387 0.29159 0.0
N350 N 0.81658 0.16148 0.47185 0.0
N351 N 0.9657 0.18538 0.21373 0.0
C352 C 0.85227 0.16573 0.40189 0.0
C353 C 0.92843 0.17731 0.26948 0.0
N354 N 0.86923 0.11292 0.53756 0.0
N355 N 0.90819 0.21485 0.09937 0.0
H356 H 0.98672 0.17157 0.24771 0.0
H357 H 0.97598 0.20738 0.13928 0.0
H358 H 0.88765 0.22696 0.0575 0.0
H359 H 0.93351 0.21483 0.03824 0.0
H360 H 0.84136 0.10239 0.57843 0.0
H361 H 0.88888 0.09644 0.56913 0.0
H362 H 0.80912 0.14617 0.56166 0.0
H363 H 0.79409 0.17369 0.44369 0.0
C364 C 0.64033 0.18817 0.11404 0.0
C365 C 0.67755 0.18763 0.13261 0.0
C366 C 0.69753 0.16785 0.93718 0.0
C367 C 0.65964 0.16492 0.92577 0.0
N368 N 0.5981 0.18512 0.97264 0.0
N369 N 0.7439 0.1859 0.05074 0.0
C370 C 0.63219 0.18005 0.00342 0.0
C371 C 0.70706 0.18048 0.04004 0.0
N372 N 0.61288 0.19555 0.20422 0.0
N373 N 0.72329 0.15514 0.85452 0.0
H374 H 0.7521 0.19346 0.12743 0.0
H375 H 0.76669 0.18472 0.98097 0.0
H376 H 0.71597 0.14669 0.7774 0.0
H377 H 0.75095 0.15203 0.86316 0.0
H378 H 0.58425 0.19302 0.20217 0.0
H379 H 0.61867 0.20182 0.28607 0.0
H380 H 0.57741 0.19774 0.02215 0.0
H381 H 0.59205 0.18039 0.88965 0.0
C382 C 0.64278 0.91402 0.80152 0.0
C383 C 0.66717 0.89935 0.87668 0.0
C384 C 0.63069 0.9214 0.05054 0.0
C385 C 0.61039 0.94125 0.96951 0.0
N386 N 0.60206 0.96139 0.76132 0.0
N387 N 0.68783 0.89277 0.06931 0.0
C388 C 0.61757 0.93869 0.84324 0.0
C389 C 0.66188 0.90365 0.00103 0.0
N390 N 0.64384 0.90421 0.68987 0.0
N391 N 0.62029 0.91972 0.17413 0.0
H392 H 0.71135 0.88049 0.03461 0.0
H393 H 0.68763 0.89855 0.15649 0.0
H394 H 0.59734 0.93222 0.21172 0.0
H395 H 0.63197 0.90313 0.23908 0.0
H396 H 0.62437 0.91138 0.63509 0.0
H397 H 0.66184 0.88563 0.65842 0.0
H398 H 0.60976 0.96373 0.66631 0.0
H399 H 0.58397 0.98033 0.78778 0.0
C400 C 0.6447 0.66147 0.98238 0.0
C401 C 0.6443 0.63258 0.91198 0.0
C402 C 0.70526 0.66569 0.77778 0.0
C403 C 0.70578 0.69431 0.84915 0.0
N404 N 0.67894 0.7146 0.03432 0.0
N405 N 0.67218 0.61094 0.73022 0.0
C406 C 0.67596 0.69102 0.95444 0.0
C407 C 0.67441 0.63556 0.80736 0.0
N408 N 0.61484 0.66104 0.07669 0.0
N409 N 0.73467 0.66703 0.68112 0.0
H410 H 0.65061 0.58896 0.74686 0.0
H411 H 0.68988 0.61351 0.64463 0.0
H412 H 0.75553 0.68977 0.64854 0.0
H413 H 0.73971 0.64506 0.63566 0.0
H414 H 0.61001 0.68359 0.11961 0.0
H415 H 0.59338 0.63885 0.10866 0.0
H416 H 0.66138 0.71145 0.12052 0.0
H417 H 0.70133 0.73563 0.0199 0.0
C418 C 0.75019 0.40968 0.05803 0.0
C419 C 0.74151 0.38373 0.17339 0.0
C420 C 0.6774 0.40234 0.21245 0.0
C421 C 0.6857 0.42701 0.09683 0.0
N422 N 0.73155 0.46205 0.92538 0.0
N423 N 0.70171 0.36608 0.376 0.0
C424 C 0.72277 0.43327 0.02516 0.0
C425 C 0.70659 0.38356 0.2556 0.0
N426 N 0.78328 0.41053 0.97605 0.0
N427 N 0.64117 0.39565 0.27866 0.0
H428 H 0.72316 0.35354 0.41158 0.0
H429 H 0.6782 0.36758 0.44296 0.0
H430 H 0.61938 0.4094 0.24984 0.0
H431 H 0.63225 0.37475 0.35718 0.0
H432 H 0.78844 0.42496 0.88517 0.0
H433 H 0.8051 0.39522 -0.0059 0.0
H434 H 0.75893 0.47111 0.87562 0.0
H435 H 0.71162 0.47915 0.89946 0.0
C436 C 0.97721 0.40783 0.42962 0.0
C437 C 0.94776 0.41562 0.52105 0.0
C438 C 0.90072 0.39976 0.40627 0.0
C439 C 0.93012 0.39271 0.31339 0.0
N440 N 0.99423 0.38237 0.24535 0.0
N441 N 0.88257 0.41044 0.6146 0.0
C442 C 0.96779 0.39434 0.32811 0.0
C443 C 0.90972 0.40823 0.51543 0.0
N444 N 1.01415 0.41567 0.43604 0.0
N445 N 0.86443 0.39892 0.38873 0.0
H446 H 0.88958 0.41712 0.69452 0.0
H447 H 0.85388 0.40255 0.62235 0.0
H448 H 0.85633 0.39225 0.31075 0.0
H449 H 0.84257 0.40732 0.44756 0.0
H450 H 1.03678 0.41564 0.36424 0.0
H451 H 1.02253 0.42332 0.5122 0.0
H452 H 1.02152 0.37878 0.25747 0.0
H453 H 0.98797 0.37382 0.16715 0.0
C454 C 0.96963 0.68315 0.6419 0.0
C455 C 0.93336 0.67745 0.61563 0.0
C456 C 0.9564 0.63665 0.47523 0.0
C457 C 0.99082 0.63719 0.51798 0.0
N458 N 1.02889 0.65875 0.65227 0.0
N459 N 0.89073 0.6484 0.51164 0.0
C460 C 0.99748 0.66045 0.60226 0.0
C461 C 0.92642 0.65443 0.5321 0.0
N462 N 0.97714 0.71023 0.70589 0.0
N463 N 0.9527 0.61948 0.37934 0.0
H464 H 0.86851 0.66155 0.55112 0.0
H465 H 0.88261 0.62876 0.46228 0.0
H466 H 0.97454 0.60694 0.33446 0.0
H467 H 0.92958 0.62068 0.33693 0.0
H468 H 1.00409 0.71856 0.71803 0.0
H469 H 0.95681 0.72679 0.73703 0.0
H470 H 1.03298 0.67164 0.72467 0.0
H471 H 0.04958 0.64194 0.62854 0.0
C472 C 0.42537 0.38435 0.06421 0.0
C473 C 0.39305 0.38339 0.16021 0.0
C474 C 0.42357 0.4435 0.19721 0.0
C475 C 0.45595 0.4443 0.10156 0.0
N476 N 0.48888 0.41136 0.95512 0.0
N477 N 0.36119 0.41475 0.31274 0.0
C478 C 0.45707 0.41346 0.03898 0.0
C479 C 0.39224 0.41388 0.22437 0.0
N480 N 0.42478 0.35885 -0.0106 0.0
N481 N 0.42398 0.46957 0.27014 0.0
H482 H 0.34066 0.39199 0.34847 0.0
H483 H 0.35486 0.43831 0.34837 0.0
H484 H 0.44576 0.49117 0.25623 0.0
H485 H 0.40444 0.46848 0.35114 0.0
H486 H 0.44411 0.36071 0.90729 0.0
H487 H 0.40298 0.33733 0.00242 0.0
H488 H 0.49466 0.38728 0.92181 0.0
H489 H 0.51091 0.43294 0.92288 0.0
C490 C 0.43221 0.70293 0.95488 0.0
C491 C 0.43524 0.67029 0.90471 0.0
C492 C 0.40103 0.69618 0.74743 0.0
C493 C 0.39246 0.72571 0.8099 0.0
N494 N 0.3972 0.7553 0.98178 0.0
N495 N 0.41829 0.63325 0.76287 0.0
C496 C 0.40776 0.7289 0.91526 0.0
C497 C 0.41878 0.66631 0.8027 0.0
N498 N 0.45295 0.70899 0.04024 0.0
N499 N 0.39298 0.69725 0.63372 0.0
H500 H 0.43009 0.61048 0.80377 0.0
H501 H 0.40333 0.62736 0.69686 0.0
H502 H 0.38206 0.72005 0.58951 0.0
H503 H 0.40109 0.67809 0.57876 0.0
H504 H 0.45474 0.73382 0.07285 0.0
H505 H 0.4712 0.69038 0.06965 0.0
H506 H 0.40402 0.75649 0.06679 0.0
H507 H 0.3787 0.77403 0.95668 0.0
C508 C 0.22903 0.69564 0.47269 0.0
C509 C 0.22923 0.66583 0.57348 0.0
C510 C 0.23371 0.62208 0.43475 0.0
C511 C 0.22234 0.64934 0.34838 0.0
N512 N 0.22217 0.71278 0.25912 0.0
N513 N 0.23724 0.60201 0.64905 0.0
C514 C 0.22669 0.68691 0.35693 0.0
C515 C 0.23419 0.62945 0.55332 0.0
N516 N 0.22865 0.73148 0.48995 0.0
N517 N 0.24107 0.58866 0.4045 0.0
H518 H 0.23756 0.60728 0.73678 0.0
H519 H 0.23788 0.57402 0.64328 0.0
H520 H 0.2409 0.58386 0.31617 0.0
H521 H 0.25062 0.5675 0.46149 0.0
H522 H 0.22955 0.75444 0.42008 0.0
H523 H 0.22766 0.73859 0.57529 0.0
H524 H 0.22119 0.7411 0.25829 0.0
H525 H 0.2195 0.70489 0.17623 0.0
C526 C 0.15044 0.40333 0.45289 0.0
C527 C 0.17509 0.41135 0.33615 0.0
C528 C 0.1526 0.47227 0.28956 0.0
C529 C 0.13039 0.46604 0.41129 0.0
N530 N 0.11271 0.42756 0.61536 0.0
N531 N 0.20563 0.45549 0.15354 0.0
C532 C 0.13051 0.43202 0.49499 0.0
C533 C 0.17807 0.44657 0.25797 0.0
N534 N 0.14524 0.3679 0.52149 0.0
N535 N 0.1476 0.50121 0.2012 0.0
H536 H 0.22466 0.43699 0.12849 0.0
H537 H 0.21183 0.48222 0.09878 0.0
H538 H 0.12748 0.51941 0.21657 0.0
H539 H 0.16031 0.50458 0.10856 0.0
H540 H 0.12465 0.35899 0.60159 0.0
H541 H 0.15977 0.34656 0.49285 0.0
H542 H 0.11503 0.40502 0.68324 0.0
H543 H 0.09819 0.448 0.64975 0.0
C544 C 0.07605 0.06329 0.892 0.0
C545 C 0.04853 0.03826 0.86357 0.0
C546 C 1.02825 1.0093 0.08182 0.0
C547 C 0.05284 0.0369 0.11132 0.0
N548 N 0.09618 0.09365 0.04737 0.0
N549 N 0.99393 0.99199 0.93138 0.0
C550 C 0.07557 0.06501 0.01718 0.0
C551 C 1.02325 1.01256 0.95858 0.0
N552 N 0.10325 0.08462 0.79966 0.0
N553 N 1.01038 0.97954 0.17095 0.0
H554 H 0.98907 0.99447 0.8422 0.0
H555 H 0.97249 0.97527 -0.00191 0.0
H556 H 1.01399 0.97599 0.26171 0.0
H557 H 0.99484 0.95673 0.15276 0.0
H558 H 0.12631 0.10061 0.8152 0.0
H559 H 0.10452 0.08391 0.70704 0.0
H560 H 0.11018 0.11704 0.98323 0.0
H561 H 0.09691 0.09543 0.13815 0.0
C562 C 0.32017 0.76117 0.31134 0.0
C563 C 0.3084 0.79132 0.36649 0.0
C564 C 0.28107 0.81503 0.18791 0.0
C565 C 0.29287 0.78489 0.13276 0.0
N566 N 0.31815 0.7257 0.14994 0.0
N567 N 0.2828 0.85035 0.34988 0.0
C568 C 0.31072 0.75684 0.19707 0.0
C569 C 0.29043 0.81932 0.30236 0.0
N570 N 0.34307 0.73839 0.36408 0.0
N571 N 0.25822 0.83783 0.135 0.0
H572 H 0.2873 0.85382 0.43588 0.0
H573 H 0.27427 0.87395 0.30121 0.0
H574 H 0.24867 0.8332 0.05699 0.0
H575 H 0.24538 0.85839 0.17433 0.0
H576 H 0.35592 0.71787 0.32452 0.0
H577 H 0.35264 0.74299 0.44207 0.0
H578 H 0.32657 0.70208 0.19892 0.0
H579 H 0.31355 0.72216 0.06412 0.0
C580 C 0.52844 0.05722 0.58447 0.0
C581 C 0.52623 1.02229 0.66671 0.0
C582 C 0.54556 0.99279 0.48933 0.0
C583 C 0.5455 1.02695 0.40705 0.0
N584 N 0.53082 0.09063 0.3763 0.0
N585 N 0.52453 0.95512 0.69361 0.0
C586 C 0.53554 0.05902 0.4545 0.0
C587 C 0.53196 0.98954 0.61794 0.0
N588 N 0.52341 0.0888 0.6311 0.0
N589 N 0.56048 0.96374 0.44454 0.0
H590 H 0.5164 0.95123 0.78853 0.0
H591 H 0.52381 0.9302 0.66128 0.0
H592 H 0.57201 0.96582 0.35151 0.0
H593 H 0.56528 0.93942 0.50028 0.0
H594 H 0.52994 0.11576 0.57819 0.0
H595 H 0.51372 0.08794 0.72456 0.0
H596 H 0.51899 0.11321 0.40583 0.0
H597 H 0.53611 0.09348 0.28095 0.0
C598 C 0.32704 0.31334 0.77893 0.0
C599 C 0.29976 0.28984 0.87442 0.0
C600 C 0.2734 0.26112 0.72328 0.0
C601 C 0.29924 0.28598 0.62744 0.0
N602 N 0.34995 0.33652 0.55934 0.0
N603 N 0.24314 0.24597 0.93955 0.0
C604 C 0.32597 0.3123 0.65402 0.0
C605 C 0.2718 0.26503 0.84717 0.0
N606 N 0.35397 0.33648 0.8084 0.0
N607 N 0.25135 0.23296 0.69584 0.0
H608 H 0.24108 0.24817 0.03136 0.0
H609 H 0.21976 0.23035 0.92462 0.0
H610 H 0.25234 0.2291 0.60599 0.0
H611 H 0.23461 0.21153 0.76187 0.0
H612 H 0.37731 0.35148 0.74557 0.0
H613 H 0.35357 0.33992 0.89834 0.0
H614 H 0.36741 0.35911 0.57034 0.0
H615 H 0.35153 0.33481 0.46733 0.0
C616 C 0.81806 0.25923 0.79814 0.0
C617 C 0.80395 0.28799 0.85591 0.0
C618 C 0.78897 0.31956 0.66298 0.0
C619 C 0.80078 0.28965 0.60709 0.0
N620 N 0.82441 0.2298 0.62004 0.0
N621 N 0.76877 0.34098 0.85312 0.0
C622 C 0.81468 0.25906 0.67448 0.0
C623 C 0.78743 0.31695 0.791 0.0
N624 N 0.83525 0.23251 0.86118 0.0
N625 N 0.77985 0.35072 0.59327 0.0
H626 H 0.76626 0.33916 0.9476 0.0
H627 H 0.75283 0.36034 0.81394 0.0
H628 H 0.78019 0.35333 0.49947 0.0
H629 H 0.77508 0.37516 0.62572 0.0
H630 H 0.84989 0.21301 0.82144 0.0
H631 H 0.83632 0.23082 0.95369 0.0
H632 H 0.83061 0.20467 0.66696 0.0
H633 H 0.82459 0.22998 0.5275 0.0
C634 C 0.77217 0.76461 0.34545 0.0
C635 C 0.79894 0.78992 0.37596 0.0
C636 C 0.82647 0.8132 0.15709 0.0
C637 C 0.80181 0.78569 0.12725 0.0
N638 N 0.75535 0.73138 0.19164 0.0
N639 N 0.85517 0.83434 0.31454 0.0
C640 C 0.77582 0.76024 0.22117 0.0
C641 C 0.82719 0.81309 0.28278 0.0
N642 N 0.74288 0.74534 0.43499 0.0
N643 N 0.84845 0.84001 0.06539 0.0
H644 H 0.85615 0.83548 0.40564 0.0
H645 H 0.87887 0.84866 0.25157 0.0
H646 H 0.84889 0.8407 0.97232 0.0
H647 H 0.86404 0.86313 0.08142 0.0
H648 H 0.72035 0.72919 0.41708 0.0
H649 H 0.73941 0.74795 0.52687 0.0
H650 H 0.73852 0.70976 0.25673 0.0
H651 H 0.75776 0.72724 0.10153 0.0
C652 C 0.52505 0.51238 0.60396 0.0
C653 C 0.55094 0.53914 0.63225 0.0
C654 C 0.57708 0.56272 0.41283 0.0
C655 C 0.5498 0.53752 0.38411 0.0
N656 N 0.49699 0.48921 0.44791 0.0
N657 N 0.59657 0.59411 0.56693 0.0
C658 C 0.52352 0.51252 0.47862 0.0
C659 C 0.57556 0.56557 0.53756 0.0
N660 N 0.50219 0.48674 0.69735 0.0
N661 N 0.60515 0.58306 0.32104 0.0
H662 H 0.59587 0.59714 0.65746 0.0
H663 H 0.61214 0.61654 0.502 0.0
H664 H 0.60721 0.58155 0.22866 0.0
H665 H 0.62816 0.59901 0.33692 0.0
H666 H 0.48549 0.46388 0.68452 0.0
H667 H 0.50089 0.48751 0.78991 0.0
H668 H 0.47437 0.47298 0.51072 0.0
H669 H 0.49677 0.48706 0.35715 0.0
C670 C 0.07121 0.58613 0.89094 0.0
C671 C 0.07323 0.55303 0.8421 0.0
C672 C 0.06098 0.51604 0.05476 0.0
C673 C 0.05385 0.54891 0.10136 0.0
N674 N 0.04435 0.61391 0.06152 0.0
N675 N 0.06984 0.48572 0.87906 0.0
C676 C 0.05661 0.5835 0.01846 0.0
C677 C 0.06781 0.51774 0.92489 0.0
N678 N 0.0845 0.62018 0.8175 0.0
N679 N 0.06347 0.48369 0.13346 0.0
H680 H 0.07969 0.48599 0.78606 0.0
H681 H 0.06078 0.45908 0.9324 0.0
H682 H 0.05869 0.48105 0.22866 0.0
H683 H 0.0731 0.46013 0.10435 0.0
H684 H 0.08686 0.64479 0.85121 0.0
H685 H 0.09769 0.62332 0.72603 0.0
H686 H 0.04209 0.63889 0.00385 0.0
H687 H 1.03252 0.61276 0.15402 0.0
loop_
_geom_bond_atom_site_label_1
_geom_bond_atom_site_label_2
_geom_bond_distance
_geom_bond_site_symmetry_2
_ccdc_geom_bond_type
Zn0 O1 2.055 . S
Zn0 O8 2.046 1_565 S
Zn0 N16 2.036 . S
Zn0 O28 2.053 . S
Zn0 O30 2.062 1_455 S
O1 Zn0 2.055 . S
O1 C4 1.259 1_565 S
C2 O30 1.261 . S
C2 O31 1.244 . S
Zn3 O5 2.046 . S
Zn3 O7 2.055 1_655 S
Zn3 N9 2.036 . S
Zn3 O27 2.066 . S
Zn3 O31 2.053 1_545 S
C4 O1 1.259 1_545 S
C4 O5 1.254 1_455 S
O5 Zn3 2.046 . S
O5 C4 1.254 1_655 S
C6 O27 1.256 1_455 S
C6 O28 1.244 1_545 S
O7 Zn3 2.055 1_455 S
O7 C29 1.259 . S
O8 Zn0 2.046 1_545 S
O8 C29 1.254 . S
N9 Zn3 2.036 . S
N9 C10 1.298 . S
N9 N12 1.398 . S
C10 N9 1.298 . S
C10 N13 1.367 . S
C10 C23 1.481 . S
C11 N12 1.299 . S
C11 N13 1.379 . S
N12 N9 1.398 . S
N12 C11 1.299 . S
N13 C10 1.367 . S
N13 C11 1.379 . S
C14 N16 1.298 . S
C14 N18 1.367 . S
C14 C22 1.481 . S
C15 N17 1.299 . S
C15 N18 1.379 . S
N16 Zn0 2.036 . S
N16 C14 1.298 . S
N16 N17 1.398 . S
N17 C15 1.299 . S
N17 N16 1.398 . S
N18 C14 1.367 . S
N18 C15 1.379 . S
H19 C22 0.980 . S
H20 C22 0.981 . S
H21 C22 0.981 . S
C22 C14 1.481 . S
C22 H19 0.980 . S
C22 H20 0.981 . S
C22 H21 0.981 . S
C23 C10 1.481 . S
C23 H24 0.980 . S
C23 H25 0.981 . S
C23 H26 0.981 . S
H24 C23 0.980 . S
H25 C23 0.981 . S
H26 C23 0.981 . S
O27 Zn3 2.066 . S
O27 C6 1.256 1_655 S
O28 Zn0 2.053 . S
O28 C6 1.244 1_565 S
C29 O7 1.259 . S
C29 O8 1.254 . S
O30 Zn0 2.062 1_655 S
O30 C2 1.261 . S
O31 C2 1.244 . S
O31 Zn3 2.053 1_565 S
Zn32 O33 2.055 . S
Zn32 O40 2.046 . S
Zn32 N48 2.036 . S
Zn32 O60 2.053 . S
Zn32 O62 2.066 . S
O33 Zn32 2.055 . S
O33 C36 1.259 . S
C34 O62 1.256 . S
C34 O63 1.244 . S
Zn35 O37 2.046 . S
Zn35 O39 2.055 . S
Zn35 N41 2.036 . S
Zn35 O59 2.066 . S
Zn35 O63 2.053 . S
C36 O33 1.259 . S
C36 O37 1.254 . S
O37 Zn35 2.046 . S
O37 C36 1.254 . S
C38 O59 1.256 . S
C38 O60 1.244 . S
O39 Zn35 2.055 . S
O39 C61 1.259 1_556 S
O40 Zn32 2.046 . S
O40 C61 1.254 1_556 S
N41 Zn35 2.036 . S
N41 C42 1.298 . S
N41 N44 1.398 . S
C42 N41 1.298 . S
C42 N45 1.367 . S
C42 C55 1.481 . S
C43 N44 1.299 . S
C43 N45 1.379 . S
N44 N41 1.398 . S
N44 C43 1.299 . S
N45 C42 1.367 . S
N45 C43 1.379 . S
C46 N48 1.298 . S
C46 N50 1.367 . S
C46 C54 1.481 . S
C47 N49 1.299 . S
C47 N50 1.379 . S
N48 Zn32 2.036 . S
N48 C46 1.298 . S
N48 N49 1.398 . S
N49 C47 1.299 . S
N49 N48 1.398 . S
N50 C46 1.367 . S
N50 C47 1.379 . S
H51 C54 0.980 . S
H52 C54 0.981 . S
H53 C54 0.981 . S
C54 C46 1.481 . S
C54 H51 0.980 . S
C54 H52 0.981 . S
C54 H53 0.981 . S
C55 C42 1.481 . S
C55 H56 0.980 . S
C55 H57 0.981 1_556 S
C55 H58 0.981 . S
H56 C55 0.980 . S
H57 C55 0.981 1_554 S
H58 C55 0.981 . S
O59 Zn35 2.066 . S
O59 C38 1.256 . S
O60 Zn32 2.053 . S
O60 C38 1.244 . S
C61 O39 1.259 1_554 S
C61 O40 1.254 1_554 S
O62 Zn32 2.066 . S
O62 C34 1.256 . S
O63 C34 1.244 . S
O63 Zn35 2.053 . S
Zn64 O65 2.055 1_556 S
Zn64 O72 2.046 . S
Zn64 N80 2.036 . S
Zn64 O92 2.053 1_545 S
Zn64 O94 2.066 1_556 S
O65 Zn64 2.055 1_554 S
O65 C68 1.259 . S
C66 O94 1.255 1_565 S
C66 O95 1.246 . S
Zn67 O69 2.046 1_566 S
Zn67 O71 2.055 . S
Zn67 N73 2.036 1_556 S
Zn67 O91 2.066 . S
Zn67 O95 2.053 1_556 S
C68 O65 1.259 . S
C68 O69 1.254 . S
O69 Zn67 2.046 1_544 S
O69 C68 1.254 . S
C70 O91 1.256 . S
C70 O92 1.244 . S
O71 Zn67 2.055 . S
O71 C93 1.259 1_565 S
O72 Zn64 2.046 . S
O72 C93 1.254 . S
N73 Zn67 2.036 1_554 S
N73 C74 1.298 1_554 S
N73 N76 1.398 . S
C74 N73 1.298 1_556 S
C74 N77 1.367 1_556 S
C74 C87 1.481 . S
C75 N76 1.299 . S
C75 N77 1.379 . S
N76 N73 1.398 . S
N76 C75 1.299 . S
N77 C74 1.367 1_554 S
N77 C75 1.379 . S
C78 N80 1.298 1_554 S
C78 N82 1.367 . S
C78 C86 1.481 . S
C79 N81 1.299 . S
C79 N82 1.379 1_556 S
N80 Zn64 2.036 . S
N80 C78 1.298 1_556 S
N80 N81 1.398 . S
N81 C79 1.299 . S
N81 N80 1.398 . S
N82 C78 1.367 . S
N82 C79 1.379 1_554 S
H83 C86 0.980 . S
H84 C86 0.981 . S
H85 C86 0.981 . S
C86 C78 1.481 . S
C86 H83 0.980 . S
C86 H84 0.981 . S
C86 H85 0.981 . S
C87 C74 1.481 . S
C87 H88 0.980 . S
C87 H89 0.981 . S
C87 H90 0.981 . S
H88 C87 0.980 . S
H89 C87 0.981 . S
H90 C87 0.981 . S
O91 Zn67 2.066 . S
O91 C70 1.256 . S
O92 Zn64 2.053 1_565 S
O92 C70 1.244 . S
C93 O71 1.259 1_545 S
C93 O72 1.254 . S
O94 Zn64 2.066 1_554 S
O94 C66 1.255 1_545 S
O95 C66 1.246 . S
O95 Zn67 2.053 1_554 S
Zn96 O97 2.055 . S
Zn96 O104 2.046 . S
Zn96 N112 2.036 . S
Zn96 O124 2.053 . S
Zn96 O126 2.066 . S
O97 Zn96 2.055 . S
O97 C100 1.259 1_554 S
C98 O126 1.256 . S
C98 O127 1.244 . S
Zn99 O101 2.046 . S
Zn99 O103 2.055 . S
Zn99 N105 2.036 . S
Zn99 O123 2.066 . S
Zn99 O127 2.053 . S
C100 O97 1.259 1_556 S
C100 O101 1.254 1_556 S
O101 Zn99 2.046 . S
O101 C100 1.254 1_554 S
C102 O123 1.256 . S
C102 O124 1.244 . S
O103 Zn99 2.055 . S
O103 C125 1.259 . S
O104 Zn96 2.046 . S
O104 C125 1.254 . S
N105 Zn99 2.036 . S
N105 C106 1.298 . S
N105 N108 1.398 . S
C106 N105 1.298 . S
C106 N109 1.367 . S
C106 C119 1.481 . S
C107 N108 1.299 . S
C107 N109 1.379 . S
N108 N105 1.398 . S
N108 C107 1.299 . S
N109 C106 1.367 . S
N109 C107 1.379 . S
C110 N112 1.298 . S
C110 N114 1.367 . S
C110 C118 1.481 . S
C111 N113 1.299 . S
C111 N114 1.379 . S
N112 Zn96 2.036 . S
N112 C110 1.298 . S
N112 N113 1.398 . S
N113 C111 1.299 . S
N113 N112 1.398 . S
N114 C110 1.367 . S
N114 C111 1.379 . S
H115 C118 0.980 1_556 S
H116 C118 0.981 1_556 S
H117 C118 0.981 . S
C118 C110 1.481 . S
C118 H115 0.980 1_554 S
C118 H116 0.981 1_554 S
C118 H117 0.981 . S
C119 C106 1.481 . S
C119 H120 0.980 . S
C119 H121 0.981 . S
C119 H122 0.981 . S
H120 C119 0.980 . S
H121 C119 0.981 . S
H122 C119 0.981 . S
O123 Zn99 2.066 . S
O123 C102 1.256 . S
O124 Zn96 2.053 . S
O124 C102 1.244 . S
C125 O103 1.259 . S
C125 O104 1.254 . S
O126 Zn96 2.066 . S
O126 C98 1.256 . S
O127 C98 1.244 . S
O127 Zn99 2.053 . S
Zn128 O129 2.055 . S
Zn128 O136 2.046 . S
Zn128 N144 2.036 . S
Zn128 O156 2.053 . S
Zn128 O158 2.066 . S
O129 Zn128 2.055 . S
O129 C132 1.259 . S
C130 O158 1.256 . S
C130 O159 1.244 . S
Zn131 O133 2.046 . S
Zn131 O135 2.055 . S
Zn131 N137 2.036 . S
Zn131 O155 2.066 . S
Zn131 O159 2.053 . S
C132 O129 1.259 . S
C132 O133 1.254 . S
O133 Zn131 2.046 . S
O133 C132 1.254 . S
C134 O155 1.256 . S
C134 O156 1.244 . S
O135 Zn131 2.055 . S
O135 C157 1.259 . S
O136 Zn128 2.046 . S
O136 C157 1.254 . S
N137 Zn131 2.036 . S
N137 C138 1.298 . S
N137 N140 1.398 . S
C138 N137 1.298 . S
C138 N141 1.367 . S
C138 C151 1.481 . S
C139 N140 1.299 . S
C139 N141 1.379 . S
N140 N137 1.398 . S
N140 C139 1.299 . S
N141 C138 1.367 . S
N141 C139 1.379 . S
C142 N144 1.298 . S
C142 N146 1.367 . S
C142 C150 1.481 . S
C143 N145 1.299 . S
C143 N146 1.379 . S
N144 Zn128 2.036 . S
N144 C142 1.298 . S
N144 N145 1.398 . S
N145 C143 1.299 . S
N145 N144 1.398 . S
N146 C142 1.367 . S
N146 C143 1.379 . S
H147 C150 0.980 . S
H148 C150 0.981 . S
H149 C150 0.981 . S
C150 C142 1.481 . S
C150 H147 0.980 . S
C150 H148 0.981 . S
C150 H149 0.981 . S
C151 C138 1.481 . S
C151 H152 0.980 . S
C151 H153 0.981 . S
C151 H154 0.981 . S
H152 C151 0.980 . S
H153 C151 0.981 . S
H154 C151 0.981 . S
O155 Zn131 2.066 . S
O155 C134 1.256 . S
O156 Zn128 2.053 . S
O156 C134 1.244 . S
C157 O135 1.259 . S
C157 O136 1.254 . S
O158 Zn128 2.066 . S
O158 C130 1.256 . S
O159 C130 1.244 . S
O159 Zn131 2.053 . S
Zn160 O161 2.055 . S
Zn160 O168 2.046 . S
Zn160 N176 2.036 . S
Zn160 O188 2.053 . S
Zn160 O190 2.066 . S
O161 Zn160 2.055 . S
O161 C164 1.259 . S
C162 O190 1.256 . S
C162 O191 1.244 . S
Zn163 O165 2.046 . S
Zn163 O167 2.055 . S
Zn163 N169 2.036 . S
Zn163 O187 2.066 . S
Zn163 O191 2.053 . S
C164 O161 1.259 . S
C164 O165 1.254 . S
O165 Zn163 2.046 . S
O165 C164 1.254 . S
C166 O187 1.256 . S
C166 O188 1.244 . S
O167 Zn163 2.055 . S
O167 C189 1.259 . S
O168 Zn160 2.046 . S
O168 C189 1.254 . S
N169 Zn163 2.036 . S
N169 C170 1.298 . S
N169 N172 1.398 . S
C170 N169 1.298 . S
C170 N173 1.367 . S
C170 C183 1.481 . S
C171 N172 1.299 . S
C171 N173 1.379 . S
N172 N169 1.398 . S
N172 C171 1.299 . S
N173 C170 1.367 . S
N173 C171 1.379 . S
C174 N176 1.298 . S
C174 N178 1.367 . S
C174 C182 1.481 . S
C175 N177 1.299 . S
C175 N178 1.379 . S
N176 Zn160 2.036 . S
N176 C174 1.298 . S
N176 N177 1.398 . S
N177 C175 1.299 . S
N177 N176 1.398 . S
N178 C174 1.367 . S
N178 C175 1.379 . S
H179 C182 0.980 . S
H180 C182 0.981 . S
H181 C182 0.981 . S
C182 C174 1.481 . S
C182 H179 0.980 . S
C182 H180 0.981 . S
C182 H181 0.981 . S
C183 C170 1.481 . S
C183 H184 0.980 . S
C183 H185 0.981 . S
C183 H186 0.981 . S
H184 C183 0.980 . S
H185 C183 0.981 . S
H186 C183 0.981 . S
O187 Zn163 2.066 . S
O187 C166 1.256 . S
O188 Zn160 2.053 . S
O188 C166 1.244 . S
C189 O167 1.259 . S
C189 O168 1.254 . S
O190 Zn160 2.066 . S
O190 C162 1.256 . S
O191 C162 1.244 . S
O191 Zn163 2.053 . S
Zn192 O193 2.055 . S
Zn192 O200 2.046 . S
Zn192 N208 2.036 . S
Zn192 O220 2.053 1_554 S
Zn192 O222 2.066 . S
O193 Zn192 2.055 . S
O193 C196 1.259 . S
C194 O222 1.256 . S
C194 O223 1.244 . S
Zn195 O197 2.046 . S
Zn195 O199 2.055 1_554 S
Zn195 N201 2.036 . S
Zn195 O219 2.066 1_554 S
Zn195 O223 2.053 . S
C196 O193 1.259 . S
C196 O197 1.254 . S
O197 Zn195 2.046 . S
O197 C196 1.254 . S
C198 O219 1.256 . S
C198 O220 1.244 . S
O199 Zn195 2.055 1_556 S
O199 C221 1.259 . S
O200 Zn192 2.046 . S
O200 C221 1.254 1_554 S
N201 Zn195 2.036 . S
N201 C202 1.298 1_554 S
N201 N204 1.398 . S
C202 N201 1.298 1_556 S
C202 N205 1.367 . S
C202 C215 1.481 . S
C203 N204 1.299 . S
C203 N205 1.379 1_554 S
N204 N201 1.398 . S
N204 C203 1.299 . S
N205 C202 1.367 . S
N205 C203 1.379 1_556 S
C206 N208 1.298 . S
C206 N210 1.367 . S
C206 C214 1.481 . S
C207 N209 1.299 . S
C207 N210 1.379 1_556 S
N208 Zn192 2.036 . S
N208 C206 1.298 . S
N208 N209 1.398 1_554 S
N209 C207 1.299 . S
N209 N208 1.398 1_556 S
N210 C206 1.367 . S
N210 C207 1.379 1_554 S
H211 C214 0.980 . S
H212 C214 0.981 . S
H213 C214 0.981 . S
C214 C206 1.481 . S
C214 H211 0.980 . S
C214 H212 0.981 . S
C214 H213 0.981 . S
C215 C202 1.481 . S
C215 H216 0.980 . S
C215 H217 0.981 . S
C215 H218 0.981 . S
H216 C215 0.980 . S
H217 C215 0.981 . S
H218 C215 0.981 . S
O219 Zn195 2.066 1_556 S
O219 C198 1.256 . S
O220 Zn192 2.053 1_556 S
O220 C198 1.244 . S
C221 O199 1.259 . S
C221 O200 1.254 1_556 S
O222 Zn192 2.066 . S
O222 C194 1.256 . S
O223 C194 1.244 . S
O223 Zn195 2.053 . S
Zn224 O225 2.055 . S
Zn224 O232 2.046 . S
Zn224 N240 2.036 . S
Zn224 O252 2.053 . S
Zn224 O254 2.066 1_655 S
O225 Zn224 2.055 . S
O225 C228 1.259 1_655 S
C226 O254 1.256 . S
C226 O255 1.244 . S
Zn227 O229 2.046 . S
Zn227 O231 2.055 1_455 S
Zn227 N233 2.036 . S
Zn227 O251 2.066 . S
Zn227 O255 2.053 . S
C228 O225 1.259 1_455 S
C228 O229 1.254 . S
O229 Zn227 2.046 . S
O229 C228 1.254 . S
C230 O251 1.256 . S
C230 O252 1.244 1_455 S
O231 Zn227 2.055 1_655 S
O231 C253 1.259 . S
O232 Zn224 2.046 . S
O232 C253 1.254 . S
N233 Zn227 2.036 . S
N233 C234 1.298 . S
N233 N236 1.398 . S
C234 N233 1.298 . S
C234 N237 1.367 . S
C234 C247 1.481 . S
C235 N236 1.299 . S
C235 N237 1.379 . S
N236 N233 1.398 . S
N236 C235 1.299 . S
N237 C234 1.367 . S
N237 C235 1.379 . S
C238 N240 1.298 . S
C238 N242 1.367 . S
C238 C246 1.481 . S
C239 N241 1.299 . S
C239 N242 1.379 . S
N240 Zn224 2.036 . S
N240 C238 1.298 . S
N240 N241 1.398 . S
N241 C239 1.299 . S
N241 N240 1.398 . S
N242 C238 1.367 . S
N242 C239 1.379 . S
H243 C246 0.980 . S
H244 C246 0.981 . S
H245 C246 0.981 . S
C246 C238 1.481 . S
C246 H243 0.980 . S
C246 H244 0.981 . S
C246 H245 0.981 . S
C247 C234 1.481 . S
C247 H248 0.980 . S
C247 H249 0.981 . S
C247 H250 0.981 . S
H248 C247 0.980 . S
H249 C247 0.981 . S
H250 C247 0.981 . S
O251 Zn227 2.066 . S
O251 C230 1.256 . S
O252 Zn224 2.053 . S
O252 C230 1.244 1_655 S
C253 O231 1.259 . S
C253 O232 1.254 . S
O254 Zn224 2.066 1_455 S
O254 C226 1.256 . S
O255 C226 1.244 . S
O255 Zn227 2.053 . S
C256 C257 1.363 . S
C256 C262 1.379 . S
C256 N264 1.356 . S
C257 C256 1.363 . S
C257 C263 1.363 . S
C258 C259 1.363 . S
C258 C263 1.379 . S
C258 N265 1.356 . S
C259 C258 1.363 . S
C259 C262 1.363 . S
N260 C262 1.356 . S
N260 H272 0.984 . S
N260 H273 0.985 . S
N261 C263 1.356 . S
N261 H266 0.984 . S
N261 H267 0.985 . S
C262 C256 1.379 . S
C262 C259 1.363 . S
C262 N260 1.356 . S
C263 C257 1.363 . S
C263 C258 1.379 . S
C263 N261 1.356 . S
N264 C256 1.356 . S
N264 H270 0.984 . S
N264 H271 0.984 . S
N265 C258 1.356 . S
N265 H268 0.984 . S
N265 H269 0.985 . S
H266 N261 0.984 . S
H267 N261 0.985 . S
H268 N265 0.984 . S
H269 N265 0.985 . S
H270 N264 0.984 . S
H271 N264 0.984 . S
H272 N260 0.984 . S
H273 N260 0.985 . S
C274 C275 1.363 . S
C274 C280 1.379 . S
C274 N282 1.356 . S
C275 C274 1.363 . S
C275 C281 1.363 . S
C276 C277 1.363 . S
C276 C281 1.379 . S
C276 N283 1.356 . S
C277 C276 1.363 . S
C277 C280 1.363 . S
N278 C280 1.356 . S
N278 H290 0.984 . S
N278 H291 0.985 . S
N279 C281 1.356 . S
N279 H284 0.984 . S
N279 H285 0.985 . S
C280 C274 1.379 . S
C280 C277 1.363 . S
C280 N278 1.356 . S
C281 C275 1.363 . S
C281 C276 1.379 . S
C281 N279 1.356 . S
N282 C274 1.356 . S
N282 H288 0.984 . S
N282 H289 0.984 . S
N283 C276 1.356 . S
N283 H286 0.984 . S
N283 H287 0.985 . S
H284 N279 0.984 . S
H285 N279 0.985 . S
H286 N283 0.984 . S
H287 N283 0.985 . S
H288 N282 0.984 . S
H289 N282 0.984 . S
H290 N278 0.984 . S
H291 N278 0.985 . S
C292 C293 1.363 . S
C292 C298 1.379 1_556 S
C292 N300 1.356 . S
C293 C292 1.363 . S
C293 C299 1.363 . S
C294 C295 1.363 . S
C294 C299 1.379 . S
C294 N301 1.356 . S
C295 C294 1.363 . S
C295 C298 1.363 1_556 S
N296 C298 1.356 . S
N296 H308 0.984 . S
N296 H309 0.985 . S
N297 C299 1.356 . S
N297 H302 0.984 . S
N297 H303 0.985 . S
C298 C292 1.379 1_554 S
C298 C295 1.363 1_554 S
C298 N296 1.356 . S
C299 C293 1.363 . S
C299 C294 1.379 . S
C299 N297 1.356 . S
N300 C292 1.356 . S
N300 H306 0.984 . S
N300 H307 0.984 . S
N301 C294 1.356 . S
N301 H304 0.984 . S
N301 H305 0.985 . S
H302 N297 0.984 . S
H303 N297 0.985 . S
H304 N301 0.984 . S
H305 N301 0.985 . S
H306 N300 0.984 . S
H307 N300 0.984 . S
H308 N296 0.984 . S
H309 N296 0.985 . S
C310 C311 1.363 . S
C310 C316 1.379 . S
C310 N318 1.356 . S
C311 C310 1.363 . S
C311 C317 1.363 1_554 S
C312 C313 1.363 . S
C312 C317 1.379 1_554 S
C312 N319 1.356 1_554 S
C313 C312 1.363 . S
C313 C316 1.363 . S
N314 C316 1.356 . S
N314 H326 0.984 . S
N314 H327 0.985 . S
N315 C317 1.356 . S
N315 H320 0.984 . S
N315 H321 0.985 . S
C316 C310 1.379 . S
C316 C313 1.363 . S
C316 N314 1.356 . S
C317 C311 1.363 1_556 S
C317 C312 1.379 1_556 S
C317 N315 1.356 . S
N318 C310 1.356 . S
N318 H324 0.984 . S
N318 H325 0.984 . S
N319 C312 1.356 1_556 S
N319 H322 0.984 1_556 S
N319 H323 0.985 . S
H320 N315 0.984 . S
H321 N315 0.985 . S
H322 N319 0.984 1_554 S
H323 N319 0.985 . S
H324 N318 0.984 . S
H325 N318 0.984 . S
H326 N314 0.984 . S
H327 N314 0.985 . S
C328 C329 1.363 . S
C328 C334 1.379 . S
C328 N336 1.356 . S
C329 C328 1.363 . S
C329 C335 1.363 . S
C330 C331 1.363 . S
C330 C335 1.379 . S
C330 N337 1.356 . S
C331 C330 1.363 . S
C331 C334 1.363 . S
N332 C334 1.356 . S
N332 H344 0.984 . S
N332 H345 0.985 . S
N333 C335 1.356 . S
N333 H338 0.984 . S
N333 H339 0.985 . S
C334 C328 1.379 . S
C334 C331 1.363 . S
C334 N332 1.356 . S
C335 C329 1.363 . S
C335 C330 1.379 . S
C335 N333 1.356 . S
N336 C328 1.356 . S
N336 H342 0.984 . S
N336 H343 0.984 . S
N337 C330 1.356 . S
N337 H340 0.984 . S
N337 H341 0.985 . S
H338 N333 0.984 . S
H339 N333 0.985 . S
H340 N337 0.984 . S
H341 N337 0.985 . S
H342 N336 0.984 . S
H343 N336 0.984 . S
H344 N332 0.984 . S
H345 N332 0.985 . S
C346 C347 1.363 . S
C346 C352 1.379 . S
C346 N354 1.356 . S
C347 C346 1.363 . S
C347 C353 1.363 . S
C348 C349 1.363 . S
C348 C353 1.379 . S
C348 N355 1.356 . S
C349 C348 1.363 . S
C349 C352 1.363 . S
N350 C352 1.356 . S
N350 H362 0.984 . S
N350 H363 0.985 . S
N351 C353 1.356 . S
N351 H356 0.984 . S
N351 H357 0.985 . S
C352 C346 1.379 . S
C352 C349 1.363 . S
C352 N350 1.356 . S
C353 C347 1.363 . S
C353 C348 1.379 . S
C353 N351 1.356 . S
N354 C346 1.356 . S
N354 H360 0.984 . S
N354 H361 0.984 . S
N355 C348 1.356 . S
N355 H358 0.984 . S
N355 H359 0.985 . S
H356 N351 0.984 . S
H357 N351 0.985 . S
H358 N355 0.984 . S
H359 N355 0.985 . S
H360 N354 0.984 . S
H361 N354 0.984 . S
H362 N350 0.984 . S
H363 N350 0.985 . S
C364 C365 1.363 . S
C364 C370 1.379 . S
C364 N372 1.356 . S
C365 C364 1.363 . S
C365 C371 1.363 . S
C366 C367 1.363 . S
C366 C371 1.379 . S
C366 N373 1.356 1_554 S
C367 C366 1.363 . S
C367 C370 1.363 . S
N368 C370 1.356 . S
N368 H380 0.984 . S
N368 H381 0.985 1_554 S
N369 C371 1.356 . S
N369 H374 0.984 . S
N369 H375 0.985 . S
C370 C364 1.379 . S
C370 C367 1.363 . S
C370 N368 1.356 . S
C371 C365 1.363 . S
C371 C366 1.379 . S
C371 N369 1.356 . S
N372 C364 1.356 . S
N372 H378 0.984 . S
N372 H379 0.984 . S
N373 C366 1.356 1_556 S
N373 H376 0.984 . S
N373 H377 0.985 . S
H374 N369 0.984 . S
H375 N369 0.985 . S
H376 N373 0.984 . S
H377 N373 0.985 . S
H378 N372 0.984 . S
H379 N372 0.984 . S
H380 N368 0.984 . S
H381 N368 0.985 1_556 S
C382 C383 1.363 . S
C382 C388 1.379 . S
C382 N390 1.356 . S
C383 C382 1.363 . S
C383 C389 1.363 . S
C384 C385 1.363 . S
C384 C389 1.379 . S
C384 N391 1.356 1_556 S
C385 C384 1.363 . S
C385 C388 1.363 . S
N386 C388 1.356 . S
N386 H398 0.984 . S
N386 H399 0.985 . S
N387 C389 1.356 1_554 S
N387 H392 0.984 1_554 S
N387 H393 0.985 . S
C388 C382 1.379 . S
C388 C385 1.363 . S
C388 N386 1.356 . S
C389 C383 1.363 . S
C389 C384 1.379 . S
C389 N387 1.356 1_556 S
N390 C382 1.356 . S
N390 H396 0.984 . S
N390 H397 0.984 . S
N391 C384 1.356 1_554 S
N391 H394 0.984 . S
N391 H395 0.985 . S
H392 N387 0.984 1_556 S
H393 N387 0.985 . S
H394 N391 0.984 . S
H395 N391 0.985 . S
H396 N390 0.984 . S
H397 N390 0.984 . S
H398 N386 0.984 . S
H399 N386 0.985 . S
C400 C401 1.363 . S
C400 C406 1.379 . S
C400 N408 1.356 1_556 S
C401 C400 1.363 . S
C401 C407 1.363 . S
C402 C403 1.363 . S
C402 C407 1.379 . S
C402 N409 1.356 . S
C403 C402 1.363 . S
C403 C406 1.363 . S
N404 C406 1.356 . S
N404 H416 0.984 . S
N404 H417 0.985 . S
N405 C407 1.356 . S
N405 H410 0.984 . S
N405 H411 0.985 . S
C406 C400 1.379 . S
C406 C403 1.363 . S
C406 N404 1.356 . S
C407 C401 1.363 . S
C407 C402 1.379 . S
C407 N405 1.356 . S
N408 C400 1.356 1_554 S
N408 H414 0.984 . S
N408 H415 0.984 . S
N409 C402 1.356 . S
N409 H412 0.984 . S
N409 H413 0.985 . S
H410 N405 0.984 . S
H411 N405 0.985 . S
H412 N409 0.984 . S
H413 N409 0.985 . S
H414 N408 0.984 . S
H415 N408 0.984 . S
H416 N404 0.984 . S
H417 N404 0.985 . S
C418 C419 1.363 . S
C418 C424 1.379 . S
C418 N426 1.356 . S
C419 C418 1.363 . S
C419 C425 1.363 . S
C420 C421 1.363 . S
C420 C425 1.379 . S
C420 N427 1.356 . S
C421 C420 1.363 . S
C421 C424 1.363 . S
N422 C424 1.356 1_556 S
N422 H434 0.984 . S
N422 H435 0.985 . S
N423 C425 1.356 . S
N423 H428 0.984 . S
N423 H429 0.985 . S
C424 C418 1.379 . S
C424 C421 1.363 . S
C424 N422 1.356 1_554 S
C425 C419 1.363 . S
C425 C420 1.379 . S
C425 N423 1.356 . S
N426 C418 1.356 . S
N426 H432 0.984 . S
N426 H433 0.984 . S
N427 C420 1.356 . S
N427 H430 0.984 . S
N427 H431 0.985 . S
H428 N423 0.984 . S
H429 N423 0.985 . S
H430 N427 0.984 . S
H431 N427 0.985 . S
H432 N426 0.984 . S
H433 N426 0.984 . S
H434 N422 0.984 . S
H435 N422 0.985 . S
C436 C437 1.363 . S
C436 C442 1.379 . S
C436 N444 1.356 . S
C437 C436 1.363 . S
C437 C443 1.363 . S
C438 C439 1.363 . S
C438 C443 1.379 . S
C438 N445 1.356 . S
C439 C438 1.363 . S
C439 C442 1.363 . S
N440 C442 1.356 . S
N440 H452 0.984 . S
N440 H453 0.985 . S
N441 C443 1.356 . S
N441 H446 0.984 . S
N441 H447 0.985 . S
C442 C436 1.379 . S
C442 C439 1.363 . S
C442 N440 1.356 . S
C443 C437 1.363 . S
C443 C438 1.379 . S
C443 N441 1.356 . S
N444 C436 1.356 . S
N444 H450 0.984 . S
N444 H451 0.984 . S
N445 C438 1.356 . S
N445 H448 0.984 . S
N445 H449 0.985 . S
H446 N441 0.984 . S
H447 N441 0.985 . S
H448 N445 0.984 . S
H449 N445 0.985 . S
H450 N444 0.984 . S
H451 N444 0.984 . S
H452 N440 0.984 . S
H453 N440 0.985 . S
C454 C455 1.363 . S
C454 C460 1.379 . S
C454 N462 1.356 . S
C455 C454 1.363 . S
C455 C461 1.363 . S
C456 C457 1.363 . S
C456 C461 1.379 . S
C456 N463 1.356 . S
C457 C456 1.363 . S
C457 C460 1.363 . S
N458 C460 1.356 . S
N458 H470 0.984 . S
N458 H471 0.985 . S
N459 C461 1.356 . S
N459 H464 0.984 . S
N459 H465 0.985 . S
C460 C454 1.379 . S
C460 C457 1.363 . S
C460 N458 1.356 . S
C461 C455 1.363 . S
C461 C456 1.379 . S
C461 N459 1.356 . S
N462 C454 1.356 . S
N462 H468 0.984 . S
N462 H469 0.984 . S
N463 C456 1.356 . S
N463 H466 0.984 . S
N463 H467 0.985 . S
H464 N459 0.984 . S
H465 N459 0.985 . S
H466 N463 0.984 . S
H467 N463 0.985 . S
H468 N462 0.984 . S
H469 N462 0.984 . S
H470 N458 0.984 . S
H471 N458 0.985 . S
C472 C473 1.363 . S
C472 C478 1.379 . S
C472 N480 1.356 1_554 S
C473 C472 1.363 . S
C473 C479 1.363 . S
C474 C475 1.363 . S
C474 C479 1.379 . S
C474 N481 1.356 . S
C475 C474 1.363 . S
C475 C478 1.363 . S
N476 C478 1.356 1_556 S
N476 H488 0.984 . S
N476 H489 0.985 . S
N477 C479 1.356 . S
N477 H482 0.984 . S
N477 H483 0.985 . S
C478 C472 1.379 . S
C478 C475 1.363 . S
C478 N476 1.356 1_554 S
C479 C473 1.363 . S
C479 C474 1.379 . S
C479 N477 1.356 . S
N480 C472 1.356 1_556 S
N480 H486 0.984 . S
N480 H487 0.984 1_556 S
N481 C474 1.356 . S
N481 H484 0.984 . S
N481 H485 0.985 . S
H482 N477 0.984 . S
H483 N477 0.985 . S
H484 N481 0.984 . S
H485 N481 0.985 . S
H486 N480 0.984 . S
H487 N480 0.984 1_554 S
H488 N476 0.984 . S
H489 N476 0.985 . S
C490 C491 1.363 . S
C490 C496 1.379 . S
C490 N498 1.356 1_556 S
C491 C490 1.363 . S
C491 C497 1.363 . S
C492 C493 1.363 . S
C492 C497 1.379 . S
C492 N499 1.356 . S
C493 C492 1.363 . S
C493 C496 1.363 . S
N494 C496 1.356 1_554 S
N494 H506 0.984 . S
N494 H507 0.985 1_554 S
N495 C497 1.356 . S
N495 H500 0.984 . S
N495 H501 0.985 . S
C496 C490 1.379 . S
C496 C493 1.363 . S
C496 N494 1.356 1_556 S
C497 C491 1.363 . S
C497 C492 1.379 . S
C497 N495 1.356 . S
N498 C490 1.356 1_554 S
N498 H504 0.984 . S
N498 H505 0.984 . S
N499 C492 1.356 . S
N499 H502 0.984 . S
N499 H503 0.985 . S
H500 N495 0.984 . S
H501 N495 0.985 . S
H502 N499 0.984 . S
H503 N499 0.985 . S
H504 N498 0.984 . S
H505 N498 0.984 . S
H506 N494 0.984 . S
H507 N494 0.985 1_556 S
C508 C509 1.363 . S
C508 C514 1.379 . S
C508 N516 1.356 . S
C509 C508 1.363 . S
C509 C515 1.363 . S
C510 C511 1.363 . S
C510 C515 1.379 . S
C510 N517 1.356 . S
C511 C510 1.363 . S
C511 C514 1.363 . S
N512 C514 1.356 . S
N512 H524 0.984 . S
N512 H525 0.985 . S
N513 C515 1.356 . S
N513 H518 0.984 . S
N513 H519 0.985 . S
C514 C508 1.379 . S
C514 C511 1.363 . S
C514 N512 1.356 . S
C515 C509 1.363 . S
C515 C510 1.379 . S
C515 N513 1.356 . S
N516 C508 1.356 . S
N516 H522 0.984 . S
N516 H523 0.984 . S
N517 C510 1.356 . S
N517 H520 0.984 . S
N517 H521 0.985 . S
H518 N513 0.984 . S
H519 N513 0.985 . S
H520 N517 0.984 . S
H521 N517 0.985 . S
H522 N516 0.984 . S
H523 N516 0.984 . S
H524 N512 0.984 . S
H525 N512 0.985 . S
C526 C527 1.363 . S
C526 C532 1.379 . S
C526 N534 1.356 . S
C527 C526 1.363 . S
C527 C533 1.363 . S
C528 C529 1.363 . S
C528 C533 1.379 . S
C528 N535 1.356 . S
C529 C528 1.363 . S
C529 C532 1.363 . S
N530 C532 1.356 . S
N530 H542 0.984 . S
N530 H543 0.985 . S
N531 C533 1.356 . S
N531 H536 0.984 . S
N531 H537 0.985 . S
C532 C526 1.379 . S
C532 C529 1.363 . S
C532 N530 1.356 . S
C533 C527 1.363 . S
C533 C528 1.379 . S
C533 N531 1.356 . S
N534 C526 1.356 . S
N534 H540 0.984 . S
N534 H541 0.984 . S
N535 C528 1.356 . S
N535 H538 0.984 . S
N535 H539 0.985 . S
H536 N531 0.984 . S
H537 N531 0.985 . S
H538 N535 0.984 . S
H539 N535 0.985 . S
H540 N534 0.984 . S
H541 N534 0.984 . S
H542 N530 0.984 . S
H543 N530 0.985 . S
C544 C545 1.363 . S
C544 C550 1.379 1_556 S
C544 N552 1.356 . S
C545 C544 1.363 . S
C545 C551 1.364 1_445 S
C546 C547 1.363 1_665 S
C546 C551 1.377 1_554 S
C546 N553 1.356 . S
C547 C546 1.363 1_445 S
C547 C550 1.363 . S
N548 C550 1.356 . S
N548 H560 0.984 . S
N548 H561 0.985 . S
N549 C551 1.357 . S
N549 H554 0.984 . S
N549 H555 0.985 . S
C550 C544 1.379 1_554 S
C550 C547 1.363 . S
C550 N548 1.356 . S
C551 C545 1.364 1_665 S
C551 C546 1.377 1_556 S
C551 N549 1.357 . S
N552 C544 1.356 . S
N552 H558 0.984 . S
N552 H559 0.984 . S
N553 C546 1.356 . S
N553 H556 0.984 . S
N553 H557 0.985 . S
H554 N549 0.984 . S
H555 N549 0.985 . S
H556 N553 0.984 . S
H557 N553 0.985 . S
H558 N552 0.984 . S
H559 N552 0.984 . S
H560 N548 0.984 . S
H561 N548 0.985 . S
C562 C563 1.363 . S
C562 C568 1.379 . S
C562 N570 1.356 . S
C563 C562 1.363 . S
C563 C569 1.363 . S
C564 C565 1.363 . S
C564 C569 1.379 . S
C564 N571 1.356 . S
C565 C564 1.363 . S
C565 C568 1.363 . S
N566 C568 1.356 . S
N566 H578 0.984 . S
N566 H579 0.985 . S
N567 C569 1.356 . S
N567 H572 0.984 . S
N567 H573 0.985 . S
C568 C562 1.379 . S
C568 C565 1.363 . S
C568 N566 1.356 . S
C569 C563 1.363 . S
C569 C564 1.379 . S
C569 N567 1.356 . S
N570 C562 1.356 . S
N570 H576 0.984 . S
N570 H577 0.984 . S
N571 C564 1.356 . S
N571 H574 0.984 . S
N571 H575 0.985 . S
H572 N567 0.984 . S
H573 N567 0.985 . S
H574 N571 0.984 . S
H575 N571 0.985 . S
H576 N570 0.984 . S
H577 N570 0.984 . S
H578 N566 0.984 . S
H579 N566 0.985 . S
C580 C581 1.363 . S
C580 C586 1.379 . S
C580 N588 1.356 . S
C581 C580 1.363 . S
C581 C587 1.363 1_545 S
C582 C583 1.363 1_565 S
C582 C587 1.379 . S
C582 N589 1.356 . S
C583 C582 1.363 1_545 S
C583 C586 1.363 . S
N584 C586 1.356 . S
N584 H596 0.984 . S
N584 H597 0.985 . S
N585 C587 1.356 . S
N585 H590 0.984 . S
N585 H591 0.985 . S
C586 C580 1.379 . S
C586 C583 1.363 . S
C586 N584 1.356 . S
C587 C581 1.363 1_565 S
C587 C582 1.379 . S
C587 N585 1.356 . S
N588 C580 1.356 . S
N588 H594 0.984 . S
N588 H595 0.984 . S
N589 C582 1.356 . S
N589 H592 0.984 . S
N589 H593 0.985 . S
H590 N585 0.984 . S
H591 N585 0.985 . S
H592 N589 0.984 . S
H593 N589 0.985 . S
H594 N588 0.984 . S
H595 N588 0.984 . S
H596 N584 0.984 . S
H597 N584 0.985 . S
C598 C599 1.363 . S
C598 C604 1.379 . S
C598 N606 1.356 . S
C599 C598 1.363 . S
C599 C605 1.363 . S
C600 C601 1.363 . S
C600 C605 1.379 . S
C600 N607 1.356 . S
C601 C600 1.363 . S
C601 C604 1.363 . S
N602 C604 1.356 . S
N602 H614 0.984 . S
N602 H615 0.985 . S
N603 C605 1.356 . S
N603 H608 0.984 . S
N603 H609 0.985 . S
C604 C598 1.379 . S
C604 C601 1.363 . S
C604 N602 1.356 . S
C605 C599 1.363 . S
C605 C600 1.379 . S
C605 N603 1.356 . S
N606 C598 1.356 . S
N606 H612 0.984 . S
N606 H613 0.984 . S
N607 C600 1.356 . S
N607 H610 0.984 . S
N607 H611 0.985 . S
H608 N603 0.984 . S
H609 N603 0.985 . S
H610 N607 0.984 . S
H611 N607 0.985 . S
H612 N606 0.984 . S
H613 N606 0.984 . S
H614 N602 0.984 . S
H615 N602 0.985 . S
C616 C617 1.363 . S
C616 C622 1.379 . S
C616 N624 1.356 . S
C617 C616 1.363 . S
C617 C623 1.363 . S
C618 C619 1.363 . S
C618 C623 1.379 . S
C618 N625 1.356 . S
C619 C618 1.363 . S
C619 C622 1.363 . S
N620 C622 1.356 . S
N620 H632 0.984 . S
N620 H633 0.985 . S
N621 C623 1.356 . S
N621 H626 0.984 1_556 S
N621 H627 0.985 . S
C622 C616 1.379 . S
C622 C619 1.363 . S
C622 N620 1.356 . S
C623 C617 1.363 . S
C623 C618 1.379 . S
C623 N621 1.356 . S
N624 C616 1.356 . S
N624 H630 0.984 . S
N624 H631 0.984 1_556 S
N625 C618 1.356 . S
N625 H628 0.984 . S
N625 H629 0.985 . S
H626 N621 0.984 1_554 S
H627 N621 0.985 . S
H628 N625 0.984 . S
H629 N625 0.985 . S
H630 N624 0.984 . S
H631 N624 0.984 1_554 S
H632 N620 0.984 . S
H633 N620 0.985 . S
C634 C635 1.363 . S
C634 C640 1.379 . S
C634 N642 1.356 . S
C635 C634 1.363 . S
C635 C641 1.363 . S
C636 C637 1.363 . S
C636 C641 1.379 . S
C636 N643 1.356 . S
C637 C636 1.363 . S
C637 C640 1.363 . S
N638 C640 1.356 . S
N638 H650 0.984 . S
N638 H651 0.985 1_554 S
N639 C641 1.356 . S
N639 H644 0.984 . S
N639 H645 0.985 . S
C640 C634 1.379 . S
C640 C637 1.363 . S
C640 N638 1.356 . S
C641 C635 1.363 . S
C641 C636 1.379 . S
C641 N639 1.356 . S
N642 C634 1.356 . S
N642 H648 0.984 . S
N642 H649 0.984 . S
N643 C636 1.356 . S
N643 H646 0.984 . S
N643 H647 0.985 . S
H644 N639 0.984 . S
H645 N639 0.985 . S
H646 N643 0.984 . S
H647 N643 0.985 . S
H648 N642 0.984 . S
H649 N642 0.984 . S
H650 N638 0.984 . S
H651 N638 0.985 1_556 S
C652 C653 1.363 . S
C652 C658 1.379 . S
C652 N660 1.356 . S
C653 C652 1.363 . S
C653 C659 1.363 . S
C654 C655 1.363 . S
C654 C659 1.379 . S
C654 N661 1.356 . S
C655 C654 1.363 . S
C655 C658 1.363 . S
N656 C658 1.356 . S
N656 H668 0.984 . S
N656 H669 0.985 . S
N657 C659 1.356 . S
N657 H662 0.984 . S
N657 H663 0.985 . S
C658 C652 1.379 . S
C658 C655 1.363 . S
C658 N656 1.356 . S
C659 C653 1.363 . S
C659 C654 1.379 . S
C659 N657 1.356 . S
N660 C652 1.356 . S
N660 H666 0.984 . S
N660 H667 0.984 . S
N661 C654 1.356 . S
N661 H664 0.984 . S
N661 H665 0.985 . S
H662 N657 0.984 . S
H663 N657 0.985 . S
H664 N661 0.984 . S
H665 N661 0.985 . S
H666 N660 0.984 . S
H667 N660 0.984 . S
H668 N656 0.984 . S
H669 N656 0.985 . S
C670 C671 1.363 . S
C670 C676 1.379 1_556 S
C670 N678 1.356 . S
C671 C670 1.363 . S
C671 C677 1.363 1_455 S
C672 C673 1.363 1_655 S
C672 C677 1.379 1_554 S
C672 N679 1.356 . S
C673 C672 1.363 1_455 S
C673 C676 1.363 . S
N674 C676 1.356 . S
N674 H686 0.984 . S
N674 H687 0.985 . S
N675 C677 1.356 . S
N675 H680 0.984 . S
N675 H681 0.985 . S
C676 C670 1.379 1_554 S
C676 C673 1.363 . S
C676 N674 1.356 . S
C677 C671 1.363 1_655 S
C677 C672 1.379 1_556 S
C677 N675 1.356 . S
N678 C670 1.356 . S
N678 H684 0.984 . S
N678 H685 0.984 . S
N679 C672 1.356 . S
N679 H682 0.984 . S
N679 H683 0.985 . S
H680 N675 0.984 . S
H681 N675 0.985 . S
H682 N679 0.984 . S
H683 N679 0.985 . S
H684 N678 0.984 . S
H685 N678 0.984 . S
H686 N674 0.984 . S
H687 N674 0.985 . S
C257 C29 2.755 . S
C259 C125 2.755 . S
C275 N18 1.499 . S
C277 C36 1.556 . S
C293 N45 0.848 . S
C295 N77 0.848 1_556 S
C311 C68 1.556 . S
C313 N114 1.498 . S
C329 C2 3.091 . S
C331 C162 3.091 . S
C347 N13 1.454 . S
C349 C134 1.497 . S
C365 N146 0.497 . S
C367 N82 0.496 . S
C383 N173 1.454 . S
C385 C70 1.497 . S
C401 C221 2.755 . S
C403 C189 2.755 . S
C419 C132 1.556 . S
C421 N210 1.499 . S
C437 N242 0.848 . S
C439 N141 0.848 . S
C455 N178 1.499 . S
C457 C253 1.556 . S
C473 C98 3.091 . S
C475 C194 3.091 . S
C491 N205 1.454 . S
C493 C38 1.497 . S
C509 N50 0.497 . S
C511 N237 0.497 . S
C527 N109 1.454 . S
C529 C226 1.497 . S
C545 C4 1.421 . S
C547 C6 1.429 . S
C563 C34 1.460 . S
C565 C61 1.463 . S
C581 C93 1.463 . S
C583 C66 1.460 1_545 S
C599 C100 1.421 . S
C601 C102 1.429 . S
C617 C130 1.460 1_556 S
C619 C157 1.463 . S
C635 C164 1.421 . S
C637 C166 1.429 1_554 S
C653 C198 1.429 . S
C655 C196 1.421 . S
C671 C230 1.460 . S
C673 C228 1.463 . S
