# Generated by pormake.
# Topology zfd, (5)-cn, num edge types: 1
# Building blocks:
#     Node 0, Type 0, BuildingBlock: XOMCOT_clean_sbu_1, # of connection points: 5
#     Node 1, Type 0, BuildingBlock: XOMCOT_clean_sbu_1, # of connection points: 5
#     Node 2, Type 0, BuildingBlock: XOMCOT_clean_sbu_1, # of connection points: 5
#     Node 3, Type 0, BuildingBlock: XOMCOT_clean_sbu_1, # of connection points: 5
#     Node 4, Type 0, BuildingBlock: XOMCOT_clean_sbu_1, # of connection points: 5
#     Node 5, Type 0, BuildingBlock: XOMCOT_clean_sbu_1, # of connection points: 5
#     Node 6, Type 0, BuildingBlock: XOMCOT_clean_sbu_1, # of connection points: 5
#     Node 7, Type 0, BuildingBlock: XOMCOT_clean_sbu_1, # of connection points: 5
#     Node 8, Type 0, BuildingBlock: XOMCOT_clean_sbu_1, # of connection points: 5
#     Node 9, Type 0, BuildingBlock: XOMCOT_clean_sbu_1, # of connection points: 5
#     Node 10, Type 0, BuildingBlock: XOMCOT_clean_sbu_1, # of connection points: 5
#     Node 11, Type 0, BuildingBlock: XOMCOT_clean_sbu_1, # of connection points: 5
#     Node 12, Type 0, BuildingBlock: XOMCOT_clean_sbu_1, # of connection points: 5
#     Node 13, Type 0, BuildingBlock: XOMCOT_clean_sbu_1, # of connection points: 5
#     Node 14, Type 0, BuildingBlock: XOMCOT_clean_sbu_1, # of connection points: 5
#     Node 15, Type 0, BuildingBlock: XOMCOT_clean_sbu_1, # of connection points: 5
#     Edge 16, Type (0, 0), BuildingBlock: KIFKEQ_clean_linker_1, # of connection points: 2
#     Edge 17, Type (0, 0), BuildingBlock: KIFKEQ_clean_linker_1, # of connection points: 2
#     Edge 18, Type (0, 0), BuildingBlock: KIFKEQ_clean_linker_1, # of connection points: 2
#     Edge 19, Type (0, 0), BuildingBlock: KIFKEQ_clean_linker_1, # of connection points: 2
#     Edge 20, Type (0, 0), BuildingBlock: KIFKEQ_clean_linker_1, # of connection points: 2
#     Edge 21, Type (0, 0), BuildingBlock: KIFKEQ_clean_linker_1, # of connection points: 2
#     Edge 22, Type (0, 0), BuildingBlock: KIFKEQ_clean_linker_1, # of connection points: 2
#     Edge 23, Type (0, 0), BuildingBlock: KIFKEQ_clean_linker_1, # of connection points: 2
#     Edge 24, Type (0, 0), BuildingBlock: KIFKEQ_clean_linker_1, # of connection points: 2
#     Edge 25, Type (0, 0), BuildingBlock: KIFKEQ_clean_linker_1, # of connection points: 2
#     Edge 26, Type (0, 0), BuildingBlock: KIFKEQ_clean_linker_1, # of connection points: 2
#     Edge 27, Type (0, 0), BuildingBlock: KIFKEQ_clean_linker_1, # of connection points: 2
#     Edge 28, Type (0, 0), BuildingBlock: KIFKEQ_clean_linker_1, # of connection points: 2
#     Edge 29, Type (0, 0), BuildingBlock: KIFKEQ_clean_linker_1, # of connection points: 2
#     Edge 30, Type (0, 0), BuildingBlock: KIFKEQ_clean_linker_1, # of connection points: 2
#     Edge 31, Type (0, 0), BuildingBlock: KIFKEQ_clean_linker_1, # of connection points: 2
#     Edge 32, Type (0, 0), BuildingBlock: KIFKEQ_clean_linker_1, # of connection points: 2
#     Edge 33, Type (0, 0), BuildingBlock: KIFKEQ_clean_linker_1, # of connection points: 2
#     Edge 34, Type (0, 0), BuildingBlock: KIFKEQ_clean_linker_1, # of connection points: 2
#     Edge 35, Type (0, 0), BuildingBlock: KIFKEQ_clean_linker_1, # of connection points: 2
#     Edge 36, Type (0, 0), BuildingBlock: KIFKEQ_clean_linker_1, # of connection points: 2
#     Edge 37, Type (0, 0), BuildingBlock: KIFKEQ_clean_linker_1, # of connection points: 2
#     Edge 38, Type (0, 0), BuildingBlock: KIFKEQ_clean_linker_1, # of connection points: 2
#     Edge 39, Type (0, 0), BuildingBlock: KIFKEQ_clean_linker_1, # of connection points: 2
#     Edge 40, Type (0, 0), BuildingBlock: KIFKEQ_clean_linker_1, # of connection points: 2
#     Edge 41, Type (0, 0), BuildingBlock: KIFKEQ_clean_linker_1, # of connection points: 2
#     Edge 42, Type (0, 0), BuildingBlock: KIFKEQ_clean_linker_1, # of connection points: 2
#     Edge 43, Type (0, 0), BuildingBlock: KIFKEQ_clean_linker_1, # of connection points: 2
#     Edge 44, Type (0, 0), BuildingBlock: KIFKEQ_clean_linker_1, # of connection points: 2
#     Edge 45, Type (0, 0), BuildingBlock: KIFKEQ_clean_linker_1, # of connection points: 2
#     Edge 46, Type (0, 0), BuildingBlock: KIFKEQ_clean_linker_1, # of connection points: 2
#     Edge 47, Type (0, 0), BuildingBlock: KIFKEQ_clean_linker_1, # of connection points: 2
#     Edge 48, Type (0, 0), BuildingBlock: KIFKEQ_clean_linker_1, # of connection points: 2
#     Edge 49, Type (0, 0), BuildingBlock: KIFKEQ_clean_linker_1, # of connection points: 2
#     Edge 50, Type (0, 0), BuildingBlock: KIFKEQ_clean_linker_1, # of connection points: 2
#     Edge 51, Type (0, 0), BuildingBlock: KIFKEQ_clean_linker_1, # of connection points: 2
#     Edge 52, Type (0, 0), BuildingBlock: KIFKEQ_clean_linker_1, # of connection points: 2
#     Edge 53, Type (0, 0), BuildingBlock: KIFKEQ_clean_linker_1, # of connection points: 2
#     Edge 54, Type (0, 0), BuildingBlock: KIFKEQ_clean_linker_1, # of connection points: 2
#     Edge 55, Type (0, 0), BuildingBlock: KIFKEQ_clean_linker_1, # of connection points: 2
# Relax obj value: 0.221
# Max RMSD: 0.192
# Mean RMSD: 0.192
data_MOF--net-zfd--node1-XOMCOT_clean_sbu_1--edge1-KIFKEQ_clean_linker_1
_symmetry_space_group_name_H-M    P1
_symmetry_Int_Tables_number       1
_symmetry_cell_setting            triclinic
loop_
_symmetry_equiv_pos_as_xyz
'x, y, z'
_cell_length_a     68.5414
_cell_length_b     68.396413
_cell_length_c     20.106279
_cell_angle_alpha  89.673666
_cell_angle_beta   90.1882
_cell_angle_gamma 89.894274
loop_
_atom_site_label
_atom_site_type_symbol
_atom_site_fract_x
_atom_site_fract_y
_atom_site_fract_z
_atom_type_partial_charge
C0 C 0.11574 0.23979 0.15698 0.0
C1 C 0.12493 0.23008 0.2081 0.0
N2 N 0.12614 0.21108 0.19141 0.0
N3 N 0.11162 0.22691 0.10851 0.0
C4 C 0.11787 0.20952 0.13098 0.0
H5 H 0.11241 0.25524 0.15469 0.0
Co6 Co 0.09879 0.23293 1.03234 0.0
C7 C 0.12 0.21021 0.92542 0.0
O8 O 0.12087 0.22721 0.89478 0.0
N9 N 0.08442 0.23982 0.95671 0.0
C10 C 0.06718 0.2401 0.86292 0.0
C11 C 0.0794 0.22924 0.90273 0.0
C12 C 0.07377 0.25637 0.95083 0.0
N13 N 0.06376 0.25721 0.89333 0.0
O14 O 0.07577 0.21813 0.06773 0.0
H15 H 0.08321 0.21414 0.89433 0.0
H16 H 0.07243 0.26715 0.98969 0.0
O17 O 0.11113 0.20928 0.9824 0.0
C18 C 0.06586 0.22969 0.1053 0.0
O19 O 0.07158 0.248 0.10772 0.0
N20 N 0.12061 0.24923 1.00716 0.0
C21 C 0.15238 0.27522 1.00015 0.0
C22 C 0.15541 0.25515 1.01003 0.0
C23 C 0.13939 0.24243 1.01336 0.0
C24 C 0.11759 0.26884 0.99851 0.0
C25 C 0.13318 0.28193 0.99315 0.0
H26 H 0.14213 0.2272 1.02454 0.0
H27 H 0.10317 0.27489 1.00033 0.0
H28 H 0.11689 0.19611 0.10288 0.0
H29 H 0.13046 0.23646 0.25354 0.0
H30 H 0.06005 0.23516 0.81792 0.0
H31 H 0.17001 0.24938 1.01674 0.0
H32 H 0.13015 0.29742 0.98774 0.0
C33 C 0.79526 0.10975 0.16597 0.0
C34 C 0.79611 0.12636 0.20359 0.0
N35 N 0.80423 0.14063 0.16646 0.0
N36 N 0.80303 0.11347 0.10585 0.0
C37 C 0.80855 0.13232 0.1076 0.0
H38 H 0.78858 0.09608 0.18038 0.0
Co39 Co 0.79994 0.09675 0.0366 0.0
C40 C 0.82238 0.11244 0.91784 0.0
O41 O 0.80715 0.10657 0.88358 0.0
N42 N 0.79616 0.07896 0.96864 0.0
C43 C 0.80224 0.0549 0.898 0.0
C44 C 0.81033 0.06748 0.94318 0.0
C45 C 0.77954 0.07294 0.93887 0.0
N46 N 0.78299 0.05853 0.89541 0.0
O47 O 0.81745 0.07757 0.08347 0.0
H48 H 0.82553 0.06803 0.95757 0.0
H49 H 0.76513 0.07836 0.95013 0.0
O50 O 0.82226 0.10981 0.98194 0.0
C51 C 0.80799 0.06364 0.11254 0.0
O52 O 0.78909 0.06257 0.10245 0.0
N53 N 0.78073 0.11444 1.00151 0.0
C54 C 0.75002 0.14186 0.99573 0.0
C55 C 0.76835 0.14616 0.9685 0.0
C56 C 0.7836 0.13248 0.97309 0.0
C57 C 0.76279 0.10991 1.02655 0.0
C58 C 0.74729 0.12326 1.02391 0.0
H59 H 0.79791 0.13735 0.95895 0.0
H60 H 0.76084 0.09622 0.05286 0.0
H61 H 0.81465 0.14001 0.06545 0.0
H62 H 0.79106 0.12775 0.25426 0.0
H63 H 0.80973 0.04359 0.87051 0.0
H64 H 0.77134 0.16053 0.94808 0.0
H65 H 0.73344 0.11927 0.0459 0.0
C66 C 0.91331 0.79498 0.16984 0.0
C67 C 0.9138 0.80841 0.22068 0.0
N68 N 0.91705 0.82617 0.1936 0.0
N69 N 0.91611 0.80448 0.11175 0.0
C70 C 0.91809 0.82338 0.12771 0.0
H71 H 0.91267 0.77926 0.17528 0.0
Co72 Co 0.92517 0.79446 0.0343 0.0
C73 C 0.91891 0.82757 0.93313 0.0
O74 O 0.93707 0.82552 0.91356 0.0
N75 N 0.93462 0.78394 0.9559 0.0
C76 C 0.93702 0.77247 0.85324 0.0
C77 C 0.92518 0.78212 0.89727 0.0
C78 C 0.95187 0.77493 0.94691 0.0
N79 N 0.95386 0.76793 0.88462 0.0
O80 O 0.9505 0.80792 0.05397 0.0
H81 H 0.91062 0.78751 0.88714 0.0
H82 H 0.9627 0.77344 0.98563 0.0
O83 O 0.91287 0.81701 0.98207 0.0
C84 C 0.96013 0.79732 0.09628 0.0
O85 O 0.95325 0.7798 0.1096 0.0
N86 N 0.90232 0.77953 1.02461 0.0
C87 C 0.87163 0.75254 1.02217 0.0
C88 C 0.868 0.77272 1.01479 0.0
C89 C 0.88362 0.78606 1.01618 0.0
C90 C 0.906 0.7601 1.0332 0.0
C91 C 0.89098 0.74641 1.03158 0.0
H92 H 0.88065 0.80154 1.0117 0.0
H93 H 0.9208 0.75522 0.04209 0.0
H94 H 0.92226 0.8346 0.09233 0.0
H95 H 0.91254 0.8053 0.27333 0.0
H96 H 0.93366 0.76964 0.80158 0.0
H97 H 0.85328 0.77814 1.00779 0.0
H98 H 0.89451 0.73112 0.03926 0.0
C99 C 0.24288 0.90172 0.19045 0.0
C100 C 0.24038 0.88264 0.21019 0.0
N101 N 0.22832 0.87387 0.16644 0.0
N102 N 0.23224 0.90504 0.13517 0.0
C103 C 0.22347 0.8879 0.12193 0.0
H104 H 0.25252 0.91226 0.21321 0.0
Co105 Co 0.23529 0.9264 0.08103 0.0
C106 C 0.21248 0.91746 0.95518 0.0
O107 O 0.22733 0.92522 0.92341 0.0
N108 N 0.23892 0.94839 1.0288 0.0
C109 C 0.23177 0.97769 0.98763 0.0
C110 C 0.22423 0.96013 1.00803 0.0
C111 C 0.25525 0.95916 1.02092 0.0
N112 N 0.25122 0.97703 0.99636 0.0
O113 O 0.21807 0.94237 0.1396 0.0
H114 H 0.20889 0.95667 1.01209 0.0
H115 H 0.26956 0.95486 0.03801 0.0
O116 O 0.21285 0.91732 1.01957 0.0
C117 C 0.22828 0.9522 0.18178 0.0
O118 O 0.24731 0.95008 0.18069 0.0
N119 N 0.25423 0.91151 0.03353 0.0
C120 C 0.28445 0.88432 1.01311 0.0
C121 C 0.26577 0.88126 0.98644 0.0
C122 C 0.25084 0.89482 0.9979 0.0
C123 C 0.27253 0.91494 0.05785 0.0
C124 C 0.28786 0.90178 0.04737 0.0
H125 H 0.23633 0.89056 0.98377 0.0
H126 H 0.27484 0.92687 0.09187 0.0
H127 H 0.21443 0.88555 0.0787 0.0
H128 H 0.24683 0.8759 0.25384 0.0
H129 H 0.22355 0.99028 0.97036 0.0
H130 H 0.26237 0.86789 0.96027 0.0
H131 H 0.30182 0.90452 0.07086 0.0
C132 C 0.10174 0.84613 0.4177 0.0
C133 C 0.11515 0.84622 0.36702 0.0
N134 N 0.13169 0.83802 0.39028 0.0
N135 N 0.10979 0.83741 0.47157 0.0
C136 C 0.12835 0.8336 0.45428 0.0
H137 H 0.08662 0.85042 0.41326 0.0
Co138 Co 0.09676 0.82575 0.5411 0.0
C139 C 0.1153 0.85381 0.6317 0.0
O140 O 0.10014 0.86467 0.61577 0.0
N141 N 0.08366 0.81385 0.61079 0.0
C142 C 0.07382 0.80484 0.71137 0.0
C143 C 0.08349 0.81891 0.6756 0.0
C144 C 0.07371 0.79685 0.60823 0.0
N145 N 0.0678 0.79099 0.66885 0.0
O146 O 0.07618 0.81646 0.47573 0.0
H147 H 0.08991 0.83192 0.69624 0.0
H148 H 0.07104 0.78876 0.56301 0.0
O149 O 0.11672 0.83682 0.60502 0.0
C150 C 0.05979 0.82533 0.46669 0.0
O151 O 0.05557 0.83994 0.50631 0.0
N152 N 0.11196 0.80203 0.53045 0.0
C153 C 0.13752 0.77018 0.51309 0.0
C154 C 0.13676 0.78023 0.57355 0.0
C155 C 0.12371 0.79581 0.58161 0.0
C156 C 0.11198 0.79189 0.47185 0.0
C157 C 0.12457 0.77589 0.46236 0.0
H158 H 0.12336 0.80306 0.62915 0.0
H159 H 0.10291 0.79662 0.43078 0.0
H160 H 0.13849 0.82546 0.48525 0.0
H161 H 0.11256 0.8507 0.316 0.0
H162 H 0.07076 0.8051 0.76417 0.0
H163 H 0.14623 0.77604 0.6145 0.0
H164 H 0.12467 0.76851 0.41484 0.0
C165 C 0.24057 0.10297 0.44287 0.0
C166 C 0.23138 0.1098 0.38676 0.0
N167 N 0.21323 0.11534 0.40398 0.0
N168 N 0.22829 0.10449 0.49472 0.0
C169 C 0.2117 0.11192 0.46977 0.0
H170 H 0.25522 0.09711 0.44593 0.0
Co171 Co 0.23439 0.09521 0.57616 0.0
C172 C 0.21118 0.11736 0.67861 0.0
O173 O 0.22809 0.11853 0.70933 0.0
N174 N 0.24131 0.08447 0.65843 0.0
C175 C 0.23839 0.06958 0.75636 0.0
C176 C 0.22854 0.0762 0.70118 0.0
C177 C 0.25896 0.08176 0.68735 0.0
N178 N 0.25744 0.07332 0.74751 0.0
O179 O 0.21999 0.07098 0.55243 0.0
H180 H 0.21303 0.07487 0.69231 0.0
H181 H 0.27279 0.08497 0.66463 0.0
O182 O 0.21051 0.10857 0.62144 0.0
C183 C 0.23145 0.05813 0.5268 0.0
O184 O 0.25031 0.0613 0.53084 0.0
N185 N 0.25008 0.11802 0.58913 0.0
C186 C 0.27546 0.1502 0.57926 0.0
C187 C 0.25522 0.15293 0.58341 0.0
C188 C 0.24278 0.13669 0.58724 0.0
C189 C 0.26964 0.11522 0.58075 0.0
C190 C 0.28261 0.13099 0.5781 0.0
H191 H 0.22726 0.13925 0.58478 0.0
H192 H 0.27519 0.10072 0.57136 0.0
H193 H 0.19893 0.11508 0.49932 0.0
H194 H 0.23753 0.1107 0.33733 0.0
H195 H 0.23226 0.06168 0.79814 0.0
H196 H 0.249 0.1675 0.58203 0.0
H197 H 0.29803 0.12817 0.57126 0.0
C198 C 0.91977 0.23068 0.39497 0.0
C199 C 0.90453 0.22925 0.35111 0.0
N200 N 0.88956 0.2205 0.38266 0.0
N201 N 0.91454 0.22267 0.45356 0.0
C202 C 0.89619 0.21629 0.4444 0.0
H203 H 0.93335 0.23823 0.38594 0.0
Co204 Co 0.92851 0.22704 0.52943 0.0
C205 C 0.91038 0.20437 0.64322 0.0
O206 O 0.91313 0.22073 0.67585 0.0
N207 N 0.94348 0.23213 0.60468 0.0
C208 C 0.9626 0.22716 0.69241 0.0
C209 C 0.95392 0.21855 0.63845 0.0
C210 C 0.94663 0.24901 0.63756 0.0
N211 N 0.95788 0.24627 0.69171 0.0
O212 O 0.95037 0.21113 0.49124 0.0
H213 H 0.95494 0.2033 0.62497 0.0
H214 H 0.94099 0.26309 0.62262 0.0
O215 O 0.91539 0.20384 0.58083 0.0
C216 C 0.96355 0.2227 0.46764 0.0
O217 O 0.96172 0.24143 0.48057 0.0
N218 N 0.90852 0.24499 0.55567 0.0
C219 C 0.87986 0.27453 0.55392 0.0
C220 C 0.8754 0.25548 0.57523 0.0
C221 C 0.8898 0.24089 0.57493 0.0
C222 C 0.91299 0.26344 0.53452 0.0
C223 C 0.89909 0.27844 0.5344 0.0
H224 H 0.88524 0.22617 0.58566 0.0
H225 H 0.92731 0.26632 0.51427 0.0
H226 H 0.88748 0.20991 0.48352 0.0
H227 H 0.9044 0.23469 0.30049 0.0
H228 H 0.97219 0.22009 0.7281 0.0
H229 H 0.86069 0.25167 0.58991 0.0
H230 H 0.90315 0.29273 0.5156 0.0
C231 C 0.81744 0.91014 0.38932 0.0
C232 C 0.83483 0.90826 0.35576 0.0
N233 N 0.84939 0.91031 0.40024 0.0
N234 N 0.82134 0.91319 0.4542 0.0
C235 C 0.84091 0.91309 0.45923 0.0
H236 H 0.80299 0.91027 0.36753 0.0
Co237 Co 0.80503 0.92252 0.51791 0.0
C238 C 0.82958 0.91679 0.64764 0.0
O239 O 0.82348 0.93327 0.67367 0.0
N240 N 0.7883 0.93225 0.58202 0.0
C241 C 0.76909 0.93544 0.66988 0.0
C242 C 0.78177 0.92322 0.63745 0.0
C243 C 0.77908 0.94965 0.58101 0.0
N244 N 0.76744 0.95213 0.6343 0.0
O245 O 0.81794 0.94848 0.5059 0.0
H246 H 0.78625 0.90883 0.65404 0.0
H247 H 0.781 0.96041 0.54216 0.0
O248 O 0.82366 0.91213 0.58906 0.0
C249 C 0.81054 0.95679 0.45363 0.0
O250 O 0.79572 0.94818 0.4245 0.0
N251 N 0.791 0.89882 0.5188 0.0
C252 C 0.76432 0.86784 0.51153 0.0
C253 C 0.78199 0.8658 0.547 0.0
C254 C 0.79528 0.88146 0.54959 0.0
C255 C 0.77414 0.9009 0.48342 0.0
C256 C 0.76065 0.8857 0.47919 0.0
H257 H 0.80876 0.87964 0.57695 0.0
H258 H 0.77099 0.91472 0.45921 0.0
H259 H 0.84895 0.91605 0.50443 0.0
H260 H 0.83669 0.90555 0.30316 0.0
H261 H 0.76243 0.93259 0.71769 0.0
H262 H 0.78555 0.85222 0.57219 0.0
H263 H 0.74719 0.88817 0.45204 0.0
C264 C 0.61511 0.72737 0.67361 0.0
C265 C 0.6317 0.72723 0.71158 0.0
N266 N 0.64613 0.71925 0.67544 0.0
N267 N 0.61894 0.71928 0.61409 0.0
C268 C 0.63788 0.71407 0.61711 0.0
H269 H 0.60161 0.73447 0.68679 0.0
Co270 Co 0.60304 0.72414 0.54255 0.0
C271 C 0.61719 0.70056 0.42465 0.0
O272 O 0.61339 0.71665 0.39094 0.0
N273 N 0.58621 0.73001 0.47297 0.0
C274 C 0.56373 0.72705 0.39416 0.0
C275 C 0.5748 0.71714 0.44032 0.0
C276 C 0.58118 0.7477 0.44813 0.0
N277 N 0.56787 0.7462 0.3993 0.0
O278 O 0.58172 0.70869 0.58749 0.0
H279 H 0.57441 0.70158 0.45015 0.0
H280 H 0.58649 0.76148 0.46663 0.0
O281 O 0.61414 0.70058 0.48852 0.0
C282 C 0.56992 0.72053 0.61696 0.0
O283 O 0.57208 0.73928 0.60416 0.0
N284 N 0.62286 0.7415 0.50907 0.0
C285 C 0.65301 0.76944 0.50022 0.0
C286 C 0.65543 0.7505 0.47506 0.0
C287 C 0.64043 0.73672 0.48096 0.0
C288 C 0.62025 0.75995 0.53318 0.0
C289 C 0.63493 0.77412 0.52869 0.0
H290 H 0.64395 0.72192 0.46799 0.0
H291 H 0.607 0.7634 0.55977 0.0
H292 H 0.64581 0.70806 0.57561 0.0
H293 H 0.6331 0.73314 0.76115 0.0
H294 H 0.5527 0.72086 0.36189 0.0
H295 H 0.66932 0.7459 0.45487 0.0
H296 H 0.63229 0.78849 0.54918 0.0
C297 C 0.27416 0.62895 0.65317 0.0
C298 C 0.27748 0.64445 0.69448 0.0
N299 N 0.29257 0.65466 0.66965 0.0
N300 N 0.28727 0.6293 0.60333 0.0
C301 C 0.29836 0.64512 0.61461 0.0
H302 H 0.26241 0.61852 0.65761 0.0
Co303 Co 0.28513 0.61289 0.53271 0.0
C304 C 0.30941 0.62869 0.41949 0.0
O305 O 0.29365 0.62496 0.38445 0.0
N306 N 0.28217 0.59545 0.4628 0.0
C307 C 0.28945 0.57178 0.39176 0.0
C308 C 0.29665 0.58381 0.44036 0.0
C309 C 0.26627 0.59013 0.42735 0.0
N310 N 0.27046 0.57602 0.38358 0.0
O311 O 0.30108 0.59278 0.58279 0.0
H312 H 0.31145 0.58382 0.4592 0.0
H313 H 0.25173 0.5957 0.43438 0.0
O314 O 0.309 0.62499 0.483 0.0
C315 C 0.29014 0.58173 0.61919 0.0
O316 O 0.27118 0.58396 0.61311 0.0
N317 N 0.26753 0.63173 0.4942 0.0
C318 C 0.23828 0.66086 0.48099 0.0
C319 C 0.25815 0.66522 0.47126 0.0
C320 C 0.27246 0.65061 0.47863 0.0
C321 C 0.24837 0.62733 0.50485 0.0
C322 C 0.2336 0.64133 0.49632 0.0
H323 H 0.28753 0.65508 0.47743 0.0
H324 H 0.24452 0.61312 0.5246 0.0
H325 H 0.31022 0.64972 0.58278 0.0
H326 H 0.26924 0.64819 0.73845 0.0
H327 H 0.2973 0.56038 0.36592 0.0
H328 H 0.26293 0.68006 0.46227 0.0
H329 H 0.21867 0.63683 0.50444 0.0
C330 C 0.41653 0.29201 0.64304 0.0
C331 C 0.41386 0.29948 0.70535 0.0
N332 N 0.41291 0.31912 0.7001 0.0
N333 N 0.417 0.30683 0.59874 0.0
C334 C 0.4148 0.32317 0.63457 0.0
H335 H 0.41928 0.27686 0.63108 0.0
Co336 Co 0.42731 0.30331 0.51683 0.0
C337 C 0.40243 0.32663 0.42015 0.0
O338 O 0.40093 0.30982 0.38927 0.0
N339 N 0.4396 0.2987 0.43584 0.0
C340 C 0.45482 0.30049 0.33853 0.0
C341 C 0.44286 0.31018 0.38207 0.0
C342 C 0.45091 0.28286 0.42573 0.0
N343 N 0.45979 0.28325 0.36629 0.0
O344 O 0.45031 0.31887 0.54742 0.0
H345 H 0.43811 0.32516 0.37627 0.0
H346 H 0.45352 0.27172 0.46303 0.0
O347 O 0.41255 0.32724 0.47502 0.0
C348 C 0.46318 0.30842 0.57847 0.0
O349 O 0.46103 0.28936 0.57832 0.0
N350 N 0.40563 0.28628 0.49597 0.0
C351 C 0.37528 0.25835 0.50161 0.0
C352 C 0.37168 0.27822 0.51447 0.0
C353 C 0.38696 0.29186 0.51148 0.0
C354 C 0.40917 0.26708 0.48184 0.0
C355 C 0.39428 0.25315 0.48259 0.0
H356 H 0.38401 0.30674 0.52628 0.0
H357 H 0.42371 0.26184 0.47447 0.0
H358 H 0.41542 0.33767 0.61304 0.0
H359 H 0.41338 0.29106 0.75102 0.0
H360 H 0.46068 0.30635 0.29264 0.0
H361 H 0.35745 0.28313 0.5306 0.0
H362 H 0.39797 0.23817 0.47094 0.0
C363 C 0.73026 0.41511 0.65518 0.0
C364 C 0.73007 0.39913 0.69632 0.0
N365 N 0.72219 0.38412 0.66261 0.0
N366 N 0.72243 0.41028 0.59604 0.0
C367 C 0.71743 0.39134 0.60199 0.0
H368 H 0.73704 0.429 0.66596 0.0
Co369 Co 0.7266 0.42619 0.52473 0.0
C370 C 0.70518 0.41056 0.40371 0.0
O371 O 0.72082 0.41602 0.37097 0.0
N372 N 0.73184 0.44339 0.45575 0.0
C373 C 0.72824 0.46933 0.39011 0.0
C374 C 0.71861 0.45535 0.42651 0.0
C375 C 0.74936 0.45031 0.43624 0.0
N376 N 0.7475 0.46603 0.39663 0.0
O377 O 0.7089 0.44604 0.56573 0.0
H378 H 0.70304 0.45469 0.43474 0.0
H379 H 0.76325 0.4452 0.45478 0.0
O380 O 0.70476 0.41315 0.46775 0.0
C381 C 0.71811 0.46049 0.59223 0.0
O382 O 0.73704 0.46163 0.58309 0.0
N383 N 0.74573 0.40788 0.49529 0.0
C384 C 0.77596 0.37992 0.49663 0.0
C385 C 0.75769 0.37569 0.46819 0.0
C386 C 0.74272 0.38972 0.4688 0.0
C387 C 0.76346 0.41221 0.52242 0.0
C388 C 0.77879 0.39872 0.52245 0.0
H389 H 0.72843 0.38508 0.4533 0.0
H390 H 0.76537 0.4259 0.54828 0.0
H391 H 0.7113 0.38285 0.56186 0.0
H392 H 0.73616 0.39841 0.74598 0.0
H393 H 0.72172 0.48155 0.36369 0.0
H394 H 0.7545 0.36121 0.44965 0.0
H395 H 0.79254 0.40283 0.54494 0.0
C396 C 0.60729 0.29262 0.86534 0.0
C397 C 0.62155 0.2916 0.81798 0.0
N398 N 0.638 0.29898 0.84429 0.0
N399 N 0.61465 0.30085 0.92075 0.0
C400 C 0.6334 0.30475 0.90639 0.0
H401 H 0.59277 0.28659 0.86118 0.0
Co402 Co 0.60117 0.29898 0.99853 0.0
C403 C 0.62114 0.3222 0.10738 0.0
O404 O 0.61782 0.30663 0.14416 0.0
N405 N 0.58645 0.29621 0.07504 0.0
C406 C 0.56785 0.30344 0.16151 0.0
C407 C 0.57741 0.31092 0.10728 0.0
C408 C 0.58152 0.27987 0.10889 0.0
N409 N 0.57054 0.28395 0.16231 0.0
O410 O 0.58057 0.31636 0.95831 0.0
H411 H 0.57775 0.32611 0.09207 0.0
H412 H 0.58539 0.26521 0.09433 0.0
O413 O 0.61626 0.32185 0.04466 0.0
C414 C 0.56484 0.30755 0.93973 0.0
O415 O 0.56244 0.28929 0.95843 0.0
N416 N 0.62001 0.27996 1.02771 0.0
C417 C 0.64711 0.24891 1.03023 0.0
C418 C 0.65255 0.26782 0.0495 0.0
C419 C 0.63898 0.28319 0.04641 0.0
C420 C 0.61452 0.26158 1.00926 0.0
C421 C 0.62769 0.2459 1.01064 0.0
H422 H 0.64441 0.29776 0.05403 0.0
H423 H 0.6 0.25928 0.98958 0.0
H424 H 0.64362 0.31102 0.94134 0.0
H425 H 0.62017 0.28518 0.7691 0.0
H426 H 0.55878 0.31153 0.19576 0.0
H427 H 0.66754 0.27102 0.06267 0.0
H428 H 0.62281 0.23162 0.99464 0.0
C429 C 0.72267 0.60623 0.88746 0.0
C430 C 0.72349 0.62268 0.84861 0.0
N431 N 0.71918 0.63814 0.88699 0.0
N432 N 0.71765 0.61124 0.94983 0.0
C433 C 0.71513 0.63078 0.94772 0.0
H434 H 0.72729 0.59181 0.87252 0.0
Co435 Co 0.72386 0.59505 1.01938 0.0
C436 C 0.70219 0.60838 0.14317 0.0
O437 O 0.71783 0.60253 0.17557 0.0
N438 N 0.73113 0.57782 0.08604 0.0
C439 C 0.73056 0.55144 0.15052 0.0
C440 C 0.71934 0.56454 0.11529 0.0
C441 C 0.7494 0.57254 0.10402 0.0
N442 N 0.74934 0.55659 0.14302 0.0
O443 O 0.70697 0.57431 0.97898 0.0
H444 H 0.7037 0.56384 0.10841 0.0
H445 H 0.76256 0.57919 0.08527 0.0
O446 O 0.70186 0.60647 0.07891 0.0
C447 C 0.71671 0.56034 0.95162 0.0
O448 O 0.73576 0.56023 0.95875 0.0
N449 N 0.74228 0.61429 0.04876 0.0
C450 C 0.77082 0.64387 0.05059 0.0
C451 C 0.75334 0.6459 0.08606 0.0
C452 C 0.73919 0.63112 0.0839 0.0
C453 C 0.75944 0.61194 1.01544 0.0
C454 C 0.7739 0.62635 1.01616 0.0
H455 H 0.72527 0.6344 0.10548 0.0
H456 H 0.7615 0.59911 0.98501 0.0
H457 H 0.71215 0.6396 0.99092 0.0
H458 H 0.72772 0.62328 0.79683 0.0
H459 H 0.72545 0.53868 0.17733 0.0
H460 H 0.74999 0.65936 0.11175 0.0
H461 H 0.78716 0.62395 0.98825 0.0
C462 C 0.42811 0.72839 0.89995 0.0
C463 C 0.41454 0.72672 0.85027 0.0
N464 N 0.39828 0.7191 0.87704 0.0
N465 N 0.42048 0.72163 0.95735 0.0
C466 C 0.4023 0.71587 0.94183 0.0
H467 H 0.4422 0.73532 0.89541 0.0
Co468 Co 0.43283 0.72614 0.03602 0.0
C469 C 0.411 0.70607 0.14823 0.0
O470 O 0.41411 0.72262 0.17936 0.0
N471 N 0.44652 0.73146 0.11382 0.0
C472 C 0.46434 0.72739 0.2052 0.0
C473 C 0.45489 0.71801 0.15428 0.0
C474 C 0.45178 0.74887 0.13959 0.0
N475 N 0.46231 0.74678 0.19568 0.0
O476 O 0.45428 0.7084 1.00572 0.0
H477 H 0.45436 0.70239 0.14656 0.0
H478 H 0.44876 0.76287 0.1169 0.0
O479 O 0.4172 0.70445 0.08727 0.0
C480 C 0.46913 0.7181 0.98406 0.0
O481 O 0.46955 0.737 0.99522 0.0
N482 N 0.41335 0.74543 0.05482 0.0
C483 C 0.38632 0.7765 0.04959 0.0
C484 C 0.38054 0.75759 0.06858 0.0
C485 C 0.39412 0.74225 0.0697 0.0
C486 C 0.41903 0.76359 0.0343 0.0
C487 C 0.40597 0.77935 1.03271 0.0
H488 H 0.38861 0.72774 0.07829 0.0
H489 H 0.43371 0.76573 1.01616 0.0
H490 H 0.39194 0.71024 0.97759 0.0
H491 H 0.41608 0.73179 0.79945 0.0
H492 H 0.47306 0.72055 0.24388 0.0
H493 H 0.3654 0.75435 0.07908 0.0
H494 H 0.41122 0.79354 1.01694 0.0
C495 C 0.29626 0.41869 0.90604 0.0
C496 C 0.30897 0.40811 0.86783 0.0
N497 N 0.32655 0.4084 0.89796 0.0
N498 N 0.30586 0.4252 0.96011 0.0
C499 C 0.32435 0.41907 0.95323 0.0
H500 H 0.28083 0.42079 0.89687 0.0
Co501 Co 0.29499 0.4384 1.02901 0.0
C502 C 0.3143 0.41778 0.14823 0.0
O503 O 0.29648 0.4149 0.17008 0.0
N504 N 0.28351 0.45286 0.09672 0.0
C505 C 0.27576 0.4691 0.18829 0.0
C506 C 0.28887 0.45646 0.16023 0.0
C507 C 0.26794 0.46464 0.08625 0.0
N508 N 0.26252 0.47399 0.14174 0.0
O509 O 0.30947 0.46237 0.99962 0.0
H510 H 0.30215 0.45163 0.18399 0.0
H511 H 0.26104 0.46677 0.03824 0.0
O512 O 0.31661 0.42779 0.09366 0.0
C513 C 0.30077 0.47024 0.94888 0.0
O514 O 0.28472 0.46197 0.92721 0.0
N515 N 0.27885 0.41593 0.04749 0.0
C516 C 0.25309 0.38373 0.04436 0.0
C517 C 0.27343 0.38099 0.04485 0.0
C518 C 0.286 0.3972 0.04619 0.0
C519 C 0.25912 0.41875 0.04736 0.0
C520 C 0.24613 0.40303 0.04765 0.0
H521 H 0.30153 0.39464 0.04282 0.0
H522 H 0.25305 0.43318 0.04311 0.0
H523 H 0.33571 0.42131 0.98988 0.0
H524 H 0.30544 0.40013 0.82304 0.0
H525 H 0.27677 0.4755 0.23733 0.0
H526 H 0.27972 0.36652 0.04095 0.0
H527 H 0.23065 0.40617 0.04833 0.0
H528 H 0.18057 0.27878 0.09586 0.0
H529 H 0.16108 0.30393 0.91017 0.0
H530 H 0.20531 0.30421 0.10586 0.0
H531 H 0.18647 0.3287 0.9174 0.0
H532 H 0.21752 0.38341 0.98011 0.0
H533 H 0.19445 0.35704 0.97018 0.0
H534 H 0.23443 0.31836 0.07344 0.0
H535 H 0.2569 0.34547 0.08907 0.0
C536 C 0.1819 0.28954 0.05639 0.0
C537 C 0.16884 0.28941 1.00235 0.0
C538 C 0.19616 0.30414 0.06189 0.0
C539 C 0.19798 0.31886 1.01285 0.0
C540 C 0.18532 0.31812 0.95739 0.0
C541 C 0.17083 0.30377 0.95268 0.0
C542 C 0.22136 0.36946 1.00226 0.0
C543 C 0.23917 0.36691 0.03646 0.0
C544 C 0.20816 0.35404 0.9951 0.0
C545 C 0.2124 0.33527 1.02046 0.0
C546 C 0.23035 0.33257 0.05384 0.0
C547 C 0.24347 0.34815 0.06203 0.0
H548 H 0.67565 0.23893 0.12064 0.0
H549 H 0.65229 0.22265 0.92926 0.0
H550 H 0.70027 0.21308 0.1118 0.0
H551 H 0.67681 0.1968 0.92055 0.0
H552 H 0.73795 0.1678 0.89885 0.0
H553 H 0.71311 0.19345 0.90738 0.0
H554 H 0.70219 0.17645 0.11088 0.0
H555 H 0.72702 0.15091 0.10247 0.0
C556 C 0.67575 0.22983 0.07672 0.0
C557 C 0.66189 0.23283 1.02588 0.0
C558 C 0.68979 0.21493 0.07181 0.0
C559 C 0.69054 0.20282 1.01544 0.0
C560 C 0.67676 0.20591 0.96444 0.0
C561 C 0.66256 0.22062 0.96977 0.0
C562 C 0.73024 0.16953 0.94537 0.0
C563 C 0.73443 0.15718 0.99979 0.0
C564 C 0.71591 0.18416 0.95016 0.0
C565 C 0.70562 0.18705 1.00986 0.0
C566 C 0.7099 0.17475 0.06433 0.0
C567 C 0.72401 0.15996 0.05924 0.0
H568 H 0.78222 0.66974 0.14793 0.0
H569 H 0.79149 0.65585 0.94114 0.0
H570 H 0.80537 0.69674 0.13853 0.0
H571 H 0.81456 0.6827 0.93187 0.0
H572 H 0.87138 0.71689 0.96128 0.0
H573 H 0.84684 0.69133 0.9684 0.0
H574 H 0.81065 0.72896 0.08813 0.0
H575 H 0.83565 0.75446 0.08255 0.0
C576 C 0.78909 0.67248 0.10037 0.0
C577 C 0.78508 0.66039 0.04556 0.0
C578 C 0.80234 0.68803 0.09491 0.0
C579 C 0.81196 0.69192 0.03448 0.0
C580 C 0.80776 0.67996 0.97955 0.0
C581 C 0.79453 0.66446 0.98498 0.0
C582 C 0.8582 0.71976 0.9892 0.0
C583 C 0.85558 0.73774 1.02168 0.0
C584 C 0.844 0.70512 0.99279 0.0
C585 C 0.82671 0.70798 1.02901 0.0
C586 C 0.82388 0.72612 0.06045 0.0
C587 C 0.8381 0.74086 0.05658 0.0
H588 H 0.35471 0.78397 0.12956 0.0
H589 H 0.38458 0.80596 0.95567 0.0
H590 H 0.33034 0.80977 0.11767 0.0
H591 H 0.36038 0.83195 0.94473 0.0
H592 H 0.32397 0.8876 0.99223 0.0
H593 H 0.34873 0.86187 1.00084 0.0
H594 H 0.30371 0.81949 0.04225 0.0
H595 H 0.27909 0.84518 0.03509 0.0
C596 C 0.35608 0.79422 0.08861 0.0
C597 C 0.37173 0.79277 0.04369 0.0
C598 C 0.34208 0.80905 0.08181 0.0
C599 C 0.34334 0.82294 1.03011 0.0
C600 C 0.35907 0.82166 0.98561 0.0
C601 C 0.37302 0.80675 0.99213 0.0
C602 C 0.31937 0.87277 1.00295 0.0
C603 C 0.2995 0.86848 1.01261 0.0
C604 C 0.33355 0.858 1.0075 0.0
C605 C 0.32824 0.8386 1.02257 0.0
C606 C 0.30836 0.83429 1.03135 0.0
C607 C 0.29419 0.849 1.02629 0.0
H608 H 0.17704 0.7719 0.52926 0.0
H609 H 0.13086 0.73233 0.47471 0.0
H610 H 0.20104 0.74554 0.51617 0.0
H611 H 0.15482 0.70575 0.46354 0.0
H612 H 0.2033 0.66224 0.5502 0.0
H613 H 0.17888 0.68801 0.55123 0.0
H614 H 0.2138 0.72247 0.4171 0.0
H615 H 0.23783 0.69616 0.41161 0.0
C616 C 0.17204 0.75755 0.51448 0.0
C617 C 0.15206 0.75418 0.50309 0.0
C618 C 0.18578 0.74249 0.50668 0.0
C619 C 0.17984 0.72355 0.48888 0.0
C620 C 0.15984 0.72017 0.47748 0.0
C621 C 0.14615 0.73538 0.48363 0.0
C622 C 0.20574 0.67494 0.51909 0.0
C623 C 0.22284 0.67672 0.4804 0.0
C624 C 0.19167 0.68987 0.52034 0.0
C625 C 0.19439 0.7073 0.48437 0.0
C626 C 0.21135 0.70925 0.4458 0.0
C627 C 0.22524 0.69412 0.44317 0.0
H628 H 0.33514 0.26104 0.48536 0.0
H629 H 0.38039 0.22041 0.54513 0.0
H630 H 0.31062 0.23621 0.50836 0.0
H631 H 0.35624 0.19531 0.56207 0.0
H632 H 0.30927 0.15725 0.64722 0.0
H633 H 0.3323 0.18392 0.63129 0.0
H634 H 0.29592 0.20738 0.47368 0.0
H635 H 0.27245 0.18117 0.49261 0.0
C636 C 0.33997 0.24684 0.50298 0.0
C637 C 0.35997 0.24294 0.51277 0.0
C638 C 0.32583 0.23241 0.51536 0.0
C639 C 0.33124 0.21354 0.53736 0.0
C640 C 0.35125 0.20964 0.54651 0.0
C641 C 0.36529 0.22409 0.53518 0.0
C642 C 0.30617 0.16821 0.60948 0.0
C643 C 0.28904 0.16708 0.57125 0.0
C644 C 0.31948 0.18348 0.59977 0.0
C645 C 0.31629 0.1979 0.55042 0.0
C646 C 0.29892 0.19686 0.51279 0.0
C647 C 0.28543 0.18174 0.52342 0.0
H648 H 0.78573 0.3504 0.40972 0.0
H649 H 0.80103 0.37399 0.60182 0.0
H650 H 0.81047 0.32494 0.4242 0.0
H651 H 0.82584 0.34884 0.61552 0.0
H652 H 0.88219 0.31343 0.58581 0.0
H653 H 0.85739 0.33876 0.57049 0.0
H654 H 0.81757 0.29571 0.49229 0.0
H655 H 0.84252 0.27048 0.5062 0.0
C656 C 0.79428 0.35018 0.45508 0.0
C657 C 0.79138 0.36447 0.50422 0.0
C658 C 0.80849 0.33555 0.4634 0.0
C659 C 0.82024 0.33484 0.52096 0.0
C660 C 0.81733 0.34911 0.57003 0.0
C661 C 0.80309 0.36364 0.56193 0.0
C662 C 0.86816 0.30937 0.56522 0.0
C663 C 0.86438 0.28987 0.54752 0.0
C664 C 0.85387 0.32388 0.55687 0.0
C665 C 0.83544 0.31932 0.53009 0.0
C666 C 0.83164 0.29981 0.51245 0.0
C667 C 0.84589 0.28527 0.52126 0.0
H668 H 0.75234 0.84326 0.61234 0.0
H669 H 0.74233 0.85623 0.40463 0.0
H670 H 0.72623 0.81896 0.60933 0.0
H671 H 0.71591 0.83251 0.40212 0.0
H672 H 0.68053 0.776 0.40329 0.0
H673 H 0.70834 0.7982 0.40647 0.0
H674 H 0.69095 0.81756 0.60158 0.0
H675 H 0.66357 0.79487 0.5994 0.0
C676 C 0.74471 0.84082 0.56588 0.0
C677 C 0.74944 0.85183 0.50885 0.0
C678 C 0.72954 0.82704 0.56432 0.0
C679 C 0.71877 0.8238 0.50558 0.0
C680 C 0.7239 0.83444 0.44816 0.0
C681 C 0.73897 0.84823 0.44979 0.0
C682 C 0.68268 0.7849 0.44708 0.0
C683 C 0.66965 0.78363 0.50092 0.0
C684 C 0.69858 0.79778 0.44869 0.0
C685 C 0.70199 0.80975 0.50431 0.0
C686 C 0.68898 0.80845 0.5582 0.0
C687 C 0.67305 0.79561 0.5565 0.0
H688 H 0.96469 0.19418 0.36717 0.0
H689 H 0.99906 0.23953 0.45815 0.0
H690 H 0.98885 0.1921 0.27598 0.0
H691 H 0.02256 0.23766 0.36819 0.0
H692 H 0.03809 0.25363 0.15478 0.0
H693 H 1.01449 0.24772 0.24198 0.0
H694 H 0.03099 0.18695 0.24903 0.0
H695 H 0.05548 0.193 0.16067 0.0
C696 C 0.97764 0.20321 0.3692 0.0
C697 C 0.97981 0.217 0.42078 0.0
C698 C 0.99147 0.20211 0.31655 0.0
C699 C 1.00769 0.21487 0.31398 0.0
C700 C 1.01028 0.2277 0.36771 0.0
C701 C 0.99673 0.2287 0.4198 0.0
C702 C 0.03674 0.23885 0.17383 0.0
C703 C 0.04905 0.22387 0.15011 0.0
C704 C 0.02307 0.23549 0.22438 0.0
C705 C 0.02081 0.21692 0.25363 0.0
C706 C 0.03224 0.20147 0.22776 0.0
C707 C 0.04626 0.20492 0.1768 0.0
H708 H 0.80242 0.9957 0.47445 0.0
H709 H 0.83439 0.95715 0.34621 0.0
H710 H 0.80618 0.02235 0.39318 0.0
H711 H 0.83822 0.98358 0.26483 0.0
H712 H 0.81153 0.02424 0.09914 0.0
H713 H 0.81653 0.99983 0.18676 0.0
H714 H 0.82613 0.0459 0.32875 0.0
H715 H 0.82125 0.07035 0.23992 0.0
C716 C 0.81111 0.99316 0.43042 0.0
C717 C 0.81873 0.97436 0.41844 0.0
C718 C 0.8131 1.00845 0.38308 0.0
C719 C 0.82239 1.00533 0.32128 0.0
C720 C 0.83078 0.98672 0.31099 0.0
C721 C 0.82894 0.97156 0.3585 0.0
C722 C 0.81553 0.02917 0.14845 0.0
C723 C 0.81669 0.04934 0.16148 0.0
C724 C 0.81828 1.0151 0.19926 0.0
C725 C 0.82178 0.02063 0.26583 0.0
C726 C 0.82342 0.04088 0.2786 0.0
C727 C 0.82098 0.05498 0.22726 0.0
H728 H 0.02335 0.84057 0.44271 0.0
H729 H 0.06516 0.80085 0.35753 0.0
H730 H 1.00149 0.83548 0.34902 0.0
H731 H 0.04338 0.79603 0.26208 0.0
H732 H 0.99059 0.775 0.13766 0.0
H733 H 1.01479 0.78178 0.22278 0.0
H734 H 0.99328 0.84098 0.23687 0.0
H735 H 0.96845 0.83378 0.15189 0.0
C736 C 0.02799 0.8307 0.40388 0.0
C737 C 0.04619 0.82105 0.40884 0.0
C738 C 0.01539 0.82794 0.34912 0.0
C739 C 0.02036 0.81539 0.29635 0.0
C740 C 0.03862 0.80566 0.30135 0.0
C741 C 0.05126 0.80842 0.35648 0.0
C742 C 0.99125 0.78966 0.15767 0.0
C743 C 0.97756 0.80387 0.1366 0.0
C744 C 1.0053 0.7936 0.20705 0.0
C745 C 1.0063 0.81196 0.23835 0.0
C746 C 0.99304 0.82652 0.21538 0.0
C747 C 0.97893 0.82255 0.16535 0.0
H748 H 0.24847 0.02242 0.52056 0.0
H749 H 0.20073 0.05525 0.43578 0.0
H750 H 0.24338 0.99659 0.44012 0.0
H751 H 0.19538 0.029 0.35404 0.0
H752 H 0.21338 0.98952 0.16691 0.0
H753 H 0.21037 1.01432 0.25443 0.0
H754 H 0.22403 0.9704 0.40244 0.0
H755 H 0.22741 0.94605 0.315 0.0
C756 C 0.23645 0.0239 0.48572 0.0
C757 C 0.22484 0.04091 0.48596 0.0
C758 C 0.23348 1.00894 0.43909 0.0
C759 C 0.21888 1.01036 0.38968 0.0
C760 C 0.20684 0.02722 0.39074 0.0
C761 C 0.20969 0.04221 0.43843 0.0
C762 C 0.21491 0.98503 0.21842 0.0
C763 C 0.2201 0.96556 0.23379 0.0
C764 C 0.21336 0.99934 0.26892 0.0
C765 C 0.21721 0.99468 0.33638 0.0
C766 C 0.22129 0.97489 0.35154 0.0
C767 C 0.22289 0.96071 0.30127 0.0
H768 H 0.07154 0.7649 0.76833 0.0
H769 H 0.03429 0.78268 0.60601 0.0
H770 H 0.04465 0.74648 0.81758 0.0
H771 H 1.00707 0.76544 0.6563 0.0
H772 H 0.99082 0.77042 0.93293 0.0
H773 H 0.02028 0.7643 0.87328 0.0
H774 H 0.98708 0.74118 0.70837 0.0
H775 H 0.957 0.74738 0.76923 0.0
C776 C 0.05771 0.76424 0.74225 0.0
C777 C 0.05464 0.77548 0.6847 0.0
C778 C 0.04232 0.7538 0.77029 0.0
C779 C 0.02351 0.75517 0.74241 0.0
C780 C 0.02128 0.7641 0.67955 0.0
C781 C 0.03684 0.77412 0.6507 0.0
C782 C 0.98957 0.76343 0.88506 0.0
C783 C 0.97134 0.76009 0.85517 0.0
C784 C 1.00671 0.75971 0.85062 0.0
C785 C 1.00611 0.75255 0.78523 0.0
C786 C 0.988 0.74711 0.75811 0.0
C787 C 0.97076 0.75083 0.79283 0.0
H788 H 0.24542 1.01424 1.03164 0.0
H789 H 0.28704 0.97549 0.94101 0.0
H790 H 0.26239 0.04215 0.98714 0.0
H791 H 0.30483 1.00369 0.89644 0.0
H792 H 0.26988 0.0864 0.86572 0.0
H793 H 0.28475 0.06538 0.95059 0.0
H794 H 0.29221 0.02021 0.80296 0.0
H795 H 0.27869 0.04183 0.71891 0.0
C796 C 0.25869 1.01185 1.00369 0.0
C797 C 0.26448 0.99292 0.98677 0.0
C798 C 0.26876 0.02788 0.97888 0.0
C799 C 0.28466 0.02523 0.93552 0.0
C800 C 0.29228 1.00623 0.92786 0.0
C801 C 0.28214 0.9901 0.95315 0.0
C802 C 0.27589 0.0724 0.85135 0.0
C803 C 0.27277 0.06528 0.78712 0.0
C804 C 0.28433 0.06031 0.89967 0.0
C805 C 0.28842 0.04064 0.88467 0.0
C806 C 0.2888 0.03505 0.81729 0.0
C807 C 0.28091 0.04737 0.76873 0.0
H808 H 0.97106 0.28203 0.65624 0.0
H809 H 0.96265 0.24342 0.82372 0.0
H810 H 0.9946 0.30098 0.72056 0.0
H811 H 0.98605 0.26195 0.88788 0.0
H812 H 0.03743 0.27454 0.97399 0.0
H813 H 1.00609 0.28761 0.93656 0.0
H814 H 0.02556 0.28365 0.73272 0.0
H815 H 0.05666 0.27089 0.77058 0.0
C816 C 0.97357 0.27818 0.70788 0.0
C817 C 0.96582 0.26088 0.73464 0.0
C818 C 0.98698 0.28906 0.74478 0.0
C819 C 0.99279 0.28254 0.80832 0.0
C820 C 0.9822 0.26733 0.8388 0.0
C821 C 0.96897 0.25644 0.80183 0.0
C822 C 0.03529 0.27745 0.92149 0.0
C823 C 0.04898 0.27102 0.87461 0.0
C824 C 0.01737 0.285 0.90006 0.0
C825 C 1.01303 0.28589 0.83168 0.0
C826 C 0.02821 0.28291 0.78581 0.0
C827 C 0.046 0.27531 0.80721 0.0
H828 H 0.76927 0.02376 0.93173 0.0
H829 H 0.76635 0.06785 0.77868 0.0
H830 H 0.75393 1.00027 0.8579 0.0
H831 H 0.75054 0.04451 0.70355 0.0
H832 H 0.73778 0.95644 0.7225 0.0
H833 H 0.73006 0.98639 0.78231 0.0
H834 H 0.76933 0.01847 0.6544 0.0
H835 H 0.77696 0.98898 0.5955 0.0
C836 C 0.76442 0.02853 0.88294 0.0
C837 C 0.76901 0.04726 0.85991 0.0
C838 C 0.75549 1.01521 0.84064 0.0
C839 C 0.75129 0.02043 0.77428 0.0
C840 C 0.75384 0.04001 0.7541 0.0
C841 C 0.76279 0.05334 0.79675 0.0
C842 C 0.74439 0.96999 0.70626 0.0
C843 C 0.75863 0.97012 0.65607 0.0
C844 C 0.73983 0.98717 0.74013 0.0
C845 C 0.74948 1.00469 0.72435 0.0
C846 C 0.76157 1.00527 0.66807 0.0
C847 C 0.76611 0.98816 0.63431 0.0
H848 H 0.54718 0.68654 0.6406 0.0
H849 H 0.56122 0.7429 0.72276 0.0
H850 H 0.52331 0.68138 0.73153 0.0
H851 H 0.53798 0.73795 0.81096 0.0
H852 H 0.50814 0.72298 0.99629 0.0
H853 H 0.533 0.71965 0.91092 0.0
H854 H 0.49052 0.69428 0.77847 0.0
H855 H 0.46551 0.69729 0.86589 0.0
C856 C 0.54544 0.6977 0.6781 0.0
C857 C 0.55635 0.71516 0.67365 0.0
C858 C 0.5316 0.69484 0.73011 0.0
C859 C 0.52861 0.70916 0.77988 0.0
C860 C 0.53985 0.72631 0.77521 0.0
C861 C 0.55325 0.72924 0.72359 0.0
C862 C 0.50418 0.716 0.94994 0.0
C863 C 0.48477 0.71012 0.93904 0.0
C864 C 0.51846 0.71434 0.90013 0.0
C865 C 0.51393 0.70706 0.83636 0.0
C866 C 0.49477 0.69991 0.8266 0.0
C867 C 0.48038 0.70147 0.87715 0.0
H868 H 0.31487 0.47118 0.8226 0.0
H869 H 0.29961 0.50915 0.98414 0.0
H870 H 0.31599 0.49921 0.74653 0.0
H871 H 0.30082 0.53739 0.90845 0.0
H872 H 0.2736 0.57509 0.73915 0.0
H873 H 0.28054 0.54993 0.82144 0.0
H874 H 0.32929 0.53016 0.70429 0.0
H875 H 0.32214 0.55582 0.62068 0.0
C876 C 0.31262 0.48568 0.84265 0.0
C877 C 0.30779 0.48782 0.91042 0.0
C878 C 0.31312 0.50187 0.79862 0.0
C879 C 0.30834 0.52087 0.82022 0.0
C880 C 0.3044 0.52311 0.88894 0.0
C881 C 0.30408 0.5069 0.93312 0.0
C882 C 0.28606 0.56564 0.73102 0.0
C883 C 0.2973 0.56775 0.67271 0.0
C884 C 0.29014 0.55111 0.77897 0.0
C885 C 0.30556 0.5377 0.77073 0.0
C886 C 0.3172 0.54002 0.71295 0.0
C887 C 0.31325 0.55492 0.665 0.0
H888 H 0.52518 0.30696 0.94735 0.0
H889 H 0.57161 0.32429 0.81614 0.0
H890 H 0.50138 0.31195 0.858 0.0
H891 H 0.54777 0.32895 0.7255 0.0
H892 H 0.50234 0.30203 0.56988 0.0
H893 H 0.52706 0.30656 0.65654 0.0
H894 H 0.48421 0.33477 0.77998 0.0
H895 H 0.45955 0.33053 0.69207 0.0
C896 C 0.53027 0.31249 0.89988 0.0
C897 C 0.55038 0.31567 0.88997 0.0
C898 C 0.51654 0.31529 0.84819 0.0
C899 C 0.52242 0.32084 0.78363 0.0
C900 C 0.54253 0.32462 0.77413 0.0
C901 C 0.55625 0.32224 0.82654 0.0
C902 C 0.49838 0.30998 0.61432 0.0
C903 C 0.479 0.31647 0.62262 0.0
C904 C 0.5126 0.31247 0.66455 0.0
C905 C 0.50786 0.32101 0.72616 0.0
C906 C 0.48857 0.32808 0.73366 0.0
C907 C 0.47443 0.32595 0.68264 0.0
H908 H 0.72041 0.52087 0.96054 0.0
H909 H 0.6961 0.56591 0.83482 0.0
H910 H 0.7155 0.49681 0.87271 0.0
H911 H 0.69139 0.54185 0.74572 0.0
H912 H 0.71979 0.50009 0.58347 0.0
H913 H 0.71418 0.52388 0.67165 0.0
H914 H 0.69326 0.4777 0.79969 0.0
H915 H 0.69866 0.45391 0.71024 0.0
C916 C 0.71329 0.5255 0.9149 0.0
C917 C 0.70818 0.54531 0.90579 0.0
C918 C 0.71055 0.51165 0.86407 0.0
C919 C 0.70309 0.51718 0.80128 0.0
C920 C 0.69725 0.53691 0.793 0.0
C921 C 0.69964 0.55072 0.84459 0.0
C922 C 0.71321 0.49512 0.62948 0.0
C923 C 0.7092 0.47508 0.63876 0.0
C924 C 0.71007 0.50881 0.68049 0.0
C925 C 0.70329 0.50291 0.74362 0.0
C926 C 0.69855 0.48293 0.75213 0.0
C927 C 0.70134 0.46925 0.70037 0.0
H928 H 0.56594 0.28634 0.29407 0.0
H929 H 0.55168 0.25141 0.12312 0.0
H930 H 0.53927 0.27166 0.35529 0.0
H931 H 0.52473 0.23648 0.18422 0.0
H932 H 0.46716 0.27396 0.2392 0.0
H933 H 0.49716 0.25961 0.19834 0.0
H934 H 0.5157 0.24785 0.40036 0.0
H935 H 0.48573 0.26265 0.44111 0.0
C936 C 0.55758 0.27479 0.27093 0.0
C937 C 0.56026 0.27043 0.20371 0.0
C938 C 0.54241 0.26614 0.30607 0.0
C939 C 0.52949 0.25335 0.27365 0.0
C940 C 0.53428 0.24655 0.2099 0.0
C941 C 0.54965 0.2551 0.17493 0.0
C942 C 0.4774 0.26775 0.27463 0.0
C943 C 0.47452 0.27006 0.34304 0.0
C944 C 0.49446 0.25916 0.25137 0.0
C945 C 0.50902 0.253 0.29639 0.0
C946 C 0.50482 0.25271 0.3647 0.0
C947 C 0.48768 0.26126 0.38796 0.0
H948 H 0.7763 0.56793 0.232 0.0
H949 H 0.75899 0.52057 0.10521 0.0
H950 H 0.7947 0.54504 0.30234 0.0
H951 H 0.77707 0.49768 0.17394 0.0
H952 H 0.75136 0.50365 0.42779 0.0
H953 H 0.77038 0.52734 0.36637 0.0
H954 H 0.79722 0.48054 0.25497 0.0
H955 H 0.77787 0.45677 0.31841 0.0
C956 C 0.77739 0.55276 0.21739 0.0
C957 C 0.76578 0.5456 0.16562 0.0
C958 C 0.78799 0.53967 0.25715 0.0
C959 C 0.78639 0.51941 0.246 0.0
C960 C 0.77824 0.51308 0.18545 0.0
C961 C 0.76762 0.52611 0.14619 0.0
C962 C 0.76193 0.49851 0.39195 0.0
C963 C 0.76272 0.47874 0.37519 0.0
C964 C 0.77317 0.512 0.35728 0.0
C965 C 0.7848 0.50588 0.30358 0.0
C966 C 0.78805 0.4857 0.29499 0.0
C967 C 0.7769 0.47214 0.33059 0.0
H968 H 0.56312 0.75193 0.26892 0.0
H969 H 0.5477 0.77445 0.46114 0.0
H970 H 0.53551 0.7688 0.21913 0.0
H971 H 0.51953 0.79129 0.41198 0.0
H972 H 0.46714 0.74989 0.32746 0.0
H973 H 0.49421 0.76646 0.3807 0.0
H974 H 0.50943 0.79347 0.19311 0.0
H975 H 0.48205 0.7768 0.14016 0.0
C976 C 0.55429 0.7614 0.29965 0.0
C977 C 0.55701 0.76161 0.36853 0.0
C978 C 0.53855 0.77128 0.27131 0.0
C979 C 0.52498 0.7809 0.31216 0.0
C980 C 0.52964 0.78378 0.37957 0.0
C981 C 0.54566 0.77411 0.40773 0.0
C982 C 0.47574 0.76012 0.29857 0.0
C983 C 0.47309 0.76159 0.22972 0.0
C984 C 0.49113 0.76988 0.32906 0.0
C985 C 0.50434 0.78079 0.29044 0.0
C986 C 0.49961 0.78493 0.22375 0.0
C987 C 0.48402 0.7753 0.1934 0.0
H988 H 0.25666 0.54093 0.41441 0.0
H989 H 0.2543 0.58663 0.26691 0.0
H990 H 0.24057 0.51866 0.33893 0.0
H991 H 0.23768 0.56446 0.18947 0.0
H992 H 0.23016 0.47515 0.21581 0.0
H993 H 0.21745 0.50519 0.26463 0.0
H994 H 0.25456 0.53888 0.13365 0.0
H995 H 0.266 0.5089 0.08299 0.0
C996 C 0.2519 0.54627 0.3662 0.0
C997 C 0.25688 0.56507 0.34523 0.0
C998 C 0.24242 0.53368 0.32288 0.0
C999 C 0.23805 0.53965 0.25724 0.0
C1000 C 0.24109 0.55934 0.23924 0.0
C1001 C 0.25058 0.57199 0.28312 0.0
C1002 C 0.23449 0.48911 0.19494 0.0
C1003 C 0.2493 0.49 0.14729 0.0
C1004 C 0.22735 0.50629 0.2229 0.0
C1005 C 0.23583 0.52434 0.20573 0.0
C1006 C 0.24789 0.52526 0.14918 0.0
C1007 C 0.25459 0.50808 0.12004 0.0
H1008 H 0.22113 0.1398 0.30244 0.0
H1009 H 0.17405 0.11385 0.41468 0.0
H1010 H 0.19801 0.16161 0.24743 0.0
H1011 H 0.15088 0.13607 0.36023 0.0
H1012 H 0.11707 0.17279 0.19534 0.0
H1013 H 0.13752 0.14648 0.24104 0.0
H1014 H 0.17915 0.18936 0.30906 0.0
H1015 H 0.15895 0.21548 0.26296 0.0
C1016 C 0.20579 0.13843 0.31405 0.0
C1017 C 0.19933 0.12543 0.36341 0.0
C1018 C 0.19264 0.15099 0.28312 0.0
C1019 C 0.1729 0.1506 0.30096 0.0
C1020 C 0.16613 0.13657 0.34626 0.0
C1021 C 0.17933 0.12405 0.37755 0.0
C1022 C 0.13054 0.17648 0.22052 0.0
C1023 C 0.1366 0.19602 0.22554 0.0
C1024 C 0.14212 0.16154 0.24656 0.0
C1025 C 0.15992 0.16608 0.27708 0.0
C1026 C 0.16557 0.18563 0.28448 0.0
C1027 C 0.15394 0.20053 0.25907 0.0
H1028 H 0.78679 0.16086 0.26595 0.0
H1029 H 0.83085 0.16537 0.11312 0.0
H1030 H 0.80026 0.18965 0.31998 0.0
H1031 H 0.84375 0.19421 0.16579 0.0
H1032 H 0.86293 0.19467 0.42937 0.0
H1033 H 0.83355 0.18435 0.37349 0.0
H1034 H 0.84283 0.2277 0.21986 0.0
H1035 H 0.87215 0.23865 0.27723 0.0
C1036 C 0.79901 0.16821 0.24295 0.0
C1037 C 0.80839 0.16025 0.18714 0.0
C1038 C 0.80646 0.18488 0.27329 0.0
C1039 C 0.82325 0.19383 0.2478 0.0
C1040 C 0.83076 0.1876 0.18656 0.0
C1041 C 0.82344 0.17087 0.15659 0.0
C1042 C 0.85845 0.20256 0.38515 0.0
C1043 C 0.87037 0.21696 0.35645 0.0
C1044 C 0.84141 0.19676 0.35334 0.0
C1045 C 0.8361 0.2051 0.2919 0.0
C1046 C 0.84679 0.22095 0.26691 0.0
C1047 C 0.86376 0.22692 0.29918 0.0
H1048 H 0.87272 0.88612 0.46811 0.0
H1049 H 0.87182 0.92867 0.30968 0.0
H1050 H 0.90314 0.87317 0.42804 0.0
H1051 H 0.90371 0.9172 0.27214 0.0
H1052 H 0.90721 0.8614 0.1451 0.0
H1053 H 0.90392 0.89092 0.2067 0.0
H1054 H 0.93058 0.86286 0.3784 0.0
H1055 H 0.93296 0.83255 0.31533 0.0
C1056 C 0.87968 0.89324 0.42619 0.0
C1057 C 0.86971 0.90746 0.38919 0.0
C1058 C 0.89738 0.88602 0.4033 0.0
C1059 C 0.90527 0.8931 0.3431 0.0
C1060 C 0.8973 0.91039 0.31559 0.0
C1061 C 0.87912 0.91702 0.33678 0.0
C1062 C 0.9128 0.86164 0.1955 0.0
C1063 C 0.91931 0.84449 0.22675 0.0
C1064 C 0.91118 0.87882 0.23131 0.0
C1065 C 0.91592 0.87917 0.29958 0.0
C1066 C 0.92567 0.86285 0.32718 0.0
C1067 C 0.92693 0.84545 0.29143 0.0
H1068 H 0.24135 0.84306 0.24173 0.0
H1069 H 0.19649 0.85972 0.10069 0.0
H1070 H 0.22 0.81779 0.28566 0.0
H1071 H 0.17546 0.83522 0.14456 0.0
H1072 H 0.13024 0.82024 0.27099 0.0
H1073 H 0.15811 0.8118 0.20129 0.0
H1074 H 0.19699 0.83139 0.35759 0.0
H1075 H 0.1692 0.83868 0.42687 0.0
C1076 C 0.22716 0.84113 0.21904 0.0
C1077 C 0.21991 0.85466 0.17213 0.0
C1078 C 0.21501 0.82645 0.24364 0.0
C1079 C 0.19541 0.82573 0.22292 0.0
C1080 C 0.19011 0.83591 0.16461 0.0
C1081 C 0.20226 0.85041 0.13963 0.0
C1082 C 0.14486 0.82244 0.29006 0.0
C1083 C 0.14783 0.83107 0.35236 0.0
C1084 C 0.16079 0.81736 0.25079 0.0
C1085 C 0.17987 0.82163 0.27232 0.0
C1086 C 0.18265 0.82795 0.33836 0.0
C1087 C 0.16673 0.83258 0.37797 0.0
H1088 H 0.92526 0.84412 0.81029 0.0
H1089 H 0.88133 0.84063 0.96289 0.0
H1090 H 0.9037 0.86449 0.74243 0.0
H1091 H 0.85968 0.86141 0.89476 0.0
H1092 H 0.8358 0.91707 0.78294 0.0
H1093 H 0.85622 0.89552 0.85117 0.0
H1094 H 0.87315 0.86384 0.67571 0.0
H1095 H 0.85239 0.88534 0.60724 0.0
C1096 C 0.911 0.84772 0.82982 0.0
C1097 C 0.90527 0.8406 0.89292 0.0
C1098 C 0.89849 0.85939 0.79023 0.0
C1099 C 0.87974 0.86476 0.81228 0.0
C1100 C 0.87399 0.8578 0.87572 0.0
C1101 C 0.88644 0.84578 0.91501 0.0
C1102 C 0.84383 0.90551 0.75853 0.0
C1103 C 0.84233 0.90317 0.68891 0.0
C1104 C 0.85552 0.89298 0.79811 0.0
C1105 C 0.86654 0.87775 0.76969 0.0
C1106 C 0.8651 0.87541 0.69993 0.0
C1107 C 0.85308 0.88775 0.6604 0.0
H1108 H 0.10951 0.88307 0.72216 0.0
H1109 H 0.15311 0.84139 0.6612 0.0
H1110 H 0.13205 0.89642 0.8043 0.0
H1111 H 0.17592 0.85504 0.74336 0.0
H1112 H 0.21748 0.90253 0.8311 0.0
H1113 H 0.19445 0.88583 0.75929 0.0
H1114 H 0.15041 0.89004 0.91121 0.0
H1115 H 0.17392 0.90677 0.98466 0.0
C1116 C 0.12392 0.87665 0.72624 0.0
C1117 C 0.12938 0.86111 0.68409 0.0
C1118 C 0.13687 0.88429 0.77411 0.0
C1119 C 0.15598 0.87697 0.78116 0.0
C1120 C 0.16142 0.86125 0.73951 0.0
C1121 C 0.14829 0.85333 0.6923 0.0
C1122 C 0.20293 0.89991 0.84993 0.0
C1123 C 0.1977 0.90629 0.91422 0.0
C1124 C 0.18967 0.89008 0.80843 0.0
C1125 C 0.1704 0.88642 0.82869 0.0
C1126 C 0.16507 0.89263 0.8933 0.0
C1127 C 0.17858 0.90219 0.93575 0.0
H1128 H 0.20723 0.12397 0.81084 0.0
H1129 H 0.17641 0.13313 0.62605 0.0
H1130 H 0.18342 0.14351 0.86926 0.0
H1131 H 0.1518 0.15254 0.68554 0.0
H1132 H 0.12808 0.20729 0.79352 0.0
H1133 H 0.14705 0.18311 0.73482 0.0
H1134 H 0.15273 0.14936 0.91597 0.0
H1135 H 0.1339 0.17432 0.97591 0.0
C1136 C 0.19512 0.12991 0.78244 0.0
C1137 C 0.19403 0.12691 0.713 0.0
C1138 C 0.1812 0.14112 0.81662 0.0
C1139 C 0.16541 0.15 0.78311 0.0
C1140 C 0.1638 0.14635 0.71375 0.0
C1141 C 0.17783 0.13495 0.6793 0.0
C1142 C 0.13317 0.19466 0.82134 0.0
C1143 C 0.12939 0.19306 0.89027 0.0
C1144 C 0.14405 0.18052 0.78693 0.0
C1145 C 0.1518 0.16399 0.81965 0.0
C1146 C 0.14741 0.16192 0.8884 0.0
C1147 C 0.13636 0.17618 0.92308 0.0
H1148 H 0.85616 0.13187 0.96269 0.0
H1149 H 0.82364 0.11926 0.78405 0.0
H1150 H 0.87918 0.15128 0.89641 0.0
H1151 H 0.84564 0.13905 0.71927 0.0
H1152 H 0.89297 0.16935 0.59861 0.0
H1153 H 0.87429 0.14563 0.665 0.0
H1154 H 0.88487 0.17993 0.84114 0.0
H1155 H 0.90394 0.20256 0.77654 0.0
C1156 C 0.85386 0.13315 0.90954 0.0
C1157 C 0.83778 0.12383 0.8797 0.0
C1158 C 0.86703 0.14452 0.87099 0.0
C1159 C 0.86456 0.14714 0.80119 0.0
C1160 C 0.84863 0.13744 0.77188 0.0
C1161 C 0.83569 0.12607 0.80998 0.0
C1162 C 0.89154 0.17162 0.65162 0.0
C1163 C 0.90007 0.18815 0.68123 0.0
C1164 C 0.88056 0.15807 0.69018 0.0
C1165 C 0.87765 0.16059 0.75969 0.0
C1166 C 0.88671 0.17689 0.78879 0.0
C1167 C 0.89765 0.19021 0.75075 0.0
H1168 H 0.69824 0.66769 0.93934 0.0
H1169 H 0.74182 0.65453 0.79151 0.0
H1170 H 0.69171 0.69862 0.88505 0.0
H1171 H 0.73502 0.68557 0.73595 0.0
H1172 H 0.66572 0.74042 0.76818 0.0
H1173 H 0.69578 0.73023 0.8232 0.0
H1174 H 0.70261 0.68417 0.67888 0.0
H1175 H 0.67255 0.69386 0.62564 0.0
C1176 C 0.70699 0.67176 0.89675 0.0
C1177 C 0.71967 0.6583 0.86727 0.0
C1178 C 0.70344 0.68967 0.86587 0.0
C1179 C 0.71237 0.69414 0.80472 0.0
C1180 C 0.72761 0.68221 0.78213 0.0
C1181 C 0.73118 0.66429 0.81314 0.0
C1182 C 0.67384 0.72833 0.74755 0.0
C1183 C 0.66619 0.71715 0.69507 0.0
C1184 C 0.69127 0.72282 0.77824 0.0
C1185 C 0.70117 0.70607 0.75667 0.0
C1186 C 0.69526 0.6971 0.69716 0.0
C1187 C 0.67779 0.7025 0.66687 0.0
H1188 H 0.29659 0.66191 0.80007 0.0
H1189 H 0.30891 0.68503 0.6046 0.0
H1190 H 0.31851 0.68554 0.84906 0.0
H1191 H 0.33063 0.70932 0.65369 0.0
H1192 H 0.39295 0.70873 0.74996 0.0
H1193 H 0.36222 0.70102 0.69647 0.0
H1194 H 0.33131 0.71708 0.87546 0.0
H1195 H 0.36244 0.7244 0.92941 0.0
C1196 C 0.30344 0.6726 0.76791 0.0
C1197 C 0.30166 0.67135 0.69864 0.0
C1198 C 0.31592 0.68628 0.79595 0.0
C1199 C 0.32665 0.699 0.75497 0.0
C1200 C 0.32291 0.69933 0.68621 0.0
C1201 C 0.31062 0.68544 0.65813 0.0
C1202 C 0.37955 0.71098 0.77725 0.0
C1203 C 0.37998 0.71661 0.84405 0.0
C1204 C 0.36189 0.70681 0.74648 0.0
C1205 C 0.34432 0.70836 0.78194 0.0
C1206 C 0.34467 0.71549 0.84733 0.0
C1207 C 0.36241 0.71947 0.87834 0.0
H1208 H 0.32535 0.37131 0.85715 0.0
H1209 H 0.36449 0.41824 0.9086 0.0
H1210 H 0.35301 0.35022 0.83423 0.0
H1211 H 0.39262 0.39695 0.88511 0.0
H1212 H 0.41936 0.35839 0.69899 0.0
H1213 H 0.40283 0.38169 0.77016 0.0
H1214 H 0.38249 0.33438 0.89455 0.0
H1215 H 0.39806 0.31098 0.82224 0.0
C1216 C 0.33995 0.37706 0.86328 0.0
C1217 C 0.34295 0.39636 0.88335 0.0
C1218 C 0.35576 0.36492 0.85166 0.0
C1219 C 0.37487 0.37194 0.85935 0.0
C1220 C 0.37796 0.39124 0.8799 0.0
C1221 C 0.36201 0.40335 0.89269 0.0
C1222 C 0.41166 0.35292 0.74207 0.0
C1223 C 0.40902 0.33275 0.75249 0.0
C1224 C 0.40258 0.36633 0.78366 0.0
C1225 C 0.39097 0.35963 0.83624 0.0
C1226 C 0.39113 0.33974 0.85327 0.0
C1227 C 0.40002 0.32634 0.81144 0.0
H1228 H 0.71953 0.35078 0.59007 0.0
H1229 H 0.71892 0.37294 0.79091 0.0
H1230 H 0.70745 0.31937 0.63061 0.0
H1231 H 0.70709 0.34207 0.83098 0.0
H1232 H 0.6737 0.29664 0.90167 0.0
H1233 H 0.70415 0.3078 0.85152 0.0
H1234 H 0.67405 0.31626 0.66406 0.0
H1235 H 0.64414 0.30481 0.71369 0.0
C1236 C 0.71714 0.34887 0.64287 0.0
C1237 C 0.71933 0.36458 0.68698 0.0
C1238 C 0.71052 0.33081 0.66616 0.0
C1239 C 0.70582 0.32836 0.73369 0.0
C1240 C 0.71056 0.34331 0.77862 0.0
C1241 C 0.71718 0.36124 0.75544 0.0
C1242 C 0.67385 0.30045 0.84933 0.0
C1243 C 0.65651 0.30077 0.81208 0.0
C1244 C 0.69127 0.30659 0.82045 0.0
C1245 C 0.69136 0.31357 0.75454 0.0
C1246 C 0.67458 0.31109 0.71504 0.0
C1247 C 0.65728 0.30474 0.74369 0.0
H1248 H 0.31365 0.40851 0.28014 0.0
H1249 H 0.35204 0.40603 0.11107 0.0
H1250 H 0.33674 0.38975 0.34619 0.0
H1251 H 0.37574 0.38736 0.17833 0.0
H1252 H 0.39956 0.33205 0.28684 0.0
H1253 H 0.38107 0.35607 0.22389 0.0
H1254 H 0.36611 0.38544 0.40625 0.0
H1255 H 0.3846 0.36068 0.47008 0.0
C1256 C 0.32725 0.40426 0.257 0.0
C1257 C 0.33073 0.40893 0.18945 0.0
C1258 C 0.34071 0.39347 0.29564 0.0
C1259 C 0.35838 0.38664 0.26867 0.0
C1260 C 0.36228 0.39195 0.20153 0.0
C1261 C 0.34874 0.40294 0.1627 0.0
C1262 C 0.39258 0.34376 0.31401 0.0
C1263 C 0.3937 0.34417 0.38424 0.0
C1264 C 0.38195 0.35779 0.27729 0.0
C1265 C 0.37172 0.37298 0.30886 0.0
C1266 C 0.37344 0.37393 0.37929 0.0
C1267 C 0.38431 0.35982 0.41633 0.0
H1268 H 0.69688 0.41564 0.2725 0.0
H1269 H 0.67881 0.38108 0.44108 0.0
H1270 H 0.67591 0.39678 0.19976 0.0
H1271 H 0.65791 0.36156 0.36751 0.0
H1272 H 0.61215 0.33574 0.22959 0.0
H1273 H 0.63038 0.35773 0.30105 0.0
H1274 H 0.67148 0.36776 0.14219 0.0
H1275 H 0.65261 0.34591 0.06987 0.0
C1276 C 0.68829 0.40401 0.29447 0.0
C1277 C 0.68966 0.40011 0.36347 0.0
C1278 C 0.67629 0.39292 0.25202 0.0
C1279 C 0.66509 0.37719 0.27623 0.0
C1280 C 0.66599 0.37358 0.34592 0.0
C1281 C 0.67802 0.38486 0.38877 0.0
C1282 C 0.62486 0.34298 0.20915 0.0
C1283 C 0.63061 0.33913 0.14308 0.0
C1284 C 0.6356 0.35547 0.25095 0.0
C1285 C 0.65284 0.36464 0.22905 0.0
C1286 C 0.65827 0.36133 0.1618 0.0
C1287 C 0.64734 0.34882 0.11956 0.0
H1288 H 0.70256 0.61533 0.27675 0.0
H1289 H 0.66768 0.62745 0.10235 0.0
H1290 H 0.6813 0.63521 0.34346 0.0
H1291 H 0.64536 0.64685 0.17076 0.0
H1292 H 0.62144 0.69814 0.29042 0.0
H1293 H 0.63983 0.67543 0.2246 0.0
H1294 H 0.65368 0.64212 0.40185 0.0
H1295 H 0.63578 0.666 0.46923 0.0
C1296 C 0.69012 0.62202 0.25224 0.0
C1297 C 0.68715 0.61965 0.18304 0.0
C1298 C 0.67762 0.63346 0.29149 0.0
C1299 C 0.66126 0.64304 0.26396 0.0
C1300 C 0.65789 0.64023 0.19479 0.0
C1301 C 0.67065 0.62885 0.15504 0.0
C1302 C 0.62832 0.68599 0.31617 0.0
C1303 C 0.62705 0.68427 0.38622 0.0
C1304 C 0.63887 0.67262 0.27747 0.0
C1305 C 0.64863 0.65656 0.30645 0.0
C1306 C 0.64685 0.65436 0.37662 0.0
C1307 C 0.63631 0.668 0.41581 0.0
H1308 H 0.34657 0.64077 0.46446 0.0
H1309 H 0.3109 0.63816 0.28759 0.0
H1310 H 0.37261 0.65624 0.39899 0.0
H1311 H 0.33608 0.65397 0.22383 0.0
H1312 H 0.38769 0.67493 0.10204 0.0
H1313 H 0.36534 0.65451 0.16785 0.0
H1314 H 0.3838 0.68403 0.34657 0.0
H1315 H 0.40634 0.70339 0.28203 0.0
C1316 C 0.34418 0.64346 0.41194 0.0
C1317 C 0.32634 0.63805 0.38232 0.0
C1318 C 0.35915 0.65252 0.37388 0.0
C1319 C 0.35685 0.6566 0.30479 0.0
C1320 C 0.33903 0.65096 0.27579 0.0
C1321 C 0.32426 0.64192 0.31337 0.0
C1322 C 0.38727 0.67673 0.15549 0.0
C1323 C 0.39898 0.69104 0.1859 0.0
C1324 C 0.37415 0.66516 0.19372 0.0
C1325 C 0.37224 0.66749 0.26373 0.0
C1326 C 0.38461 0.6813 0.2937 0.0
C1327 C 0.39762 0.69269 0.25588 0.0
loop_
_geom_bond_atom_site_label_1
_geom_bond_atom_site_label_2
_geom_bond_distance
_geom_bond_site_symmetry_2
_ccdc_geom_bond_type
C0 C1 1.351 . S
C0 N3 1.368 . S
C0 H5 0.931 . S
C1 C0 1.351 . S
C1 N2 1.373 . S
C1 H29 0.930 . S
N2 C1 1.373 . S
N2 C4 1.340 . S
N3 C0 1.368 . S
N3 C4 1.321 . S
N3 Co6 2.135 . S
C4 N2 1.340 . S
C4 N3 1.321 . S
C4 H28 0.930 . S
H5 C0 0.931 . S
Co6 N3 2.135 . S
Co6 N9 2.121 1_554 S
Co6 O14 2.055 . S
Co6 O17 2.039 1_554 S
Co6 N20 2.140 . S
C7 O8 1.227 . S
C7 O17 1.265 . S
O8 C7 1.227 . S
N9 Co6 2.121 1_556 S
N9 C11 1.375 . S
N9 C12 1.313 . S
C10 C11 1.338 . S
C10 N13 1.377 . S
C10 H30 0.930 . S
C11 N9 1.375 . S
C11 C10 1.338 . S
C11 H15 0.931 . S
C12 N9 1.313 . S
C12 N13 1.344 . S
C12 H16 0.930 . S
N13 C10 1.377 . S
N13 C12 1.344 . S
O14 Co6 2.055 . S
O14 C18 1.253 . S
H15 C11 0.931 . S
H16 C12 0.930 . S
O17 Co6 2.039 1_556 S
O17 C7 1.265 . S
C18 O14 1.253 . S
C18 O19 1.227 . S
O19 C18 1.227 . S
N20 Co6 2.140 . S
N20 C23 1.346 . S
N20 C24 1.345 1_554 S
C21 C22 1.386 1_556 S
C21 C25 1.392 . S
C22 C21 1.386 1_554 S
C22 C23 1.369 . S
C22 H31 0.929 . S
C23 N20 1.346 . S
C23 C22 1.369 . S
C23 H26 0.928 . S
C24 N20 1.345 1_556 S
C24 C25 1.371 . S
C24 H27 0.931 . S
C25 C21 1.392 . S
C25 C24 1.371 . S
C25 H32 0.930 . S
H26 C23 0.928 . S
H27 C24 0.931 . S
H28 C4 0.930 . S
H29 C1 0.930 . S
H30 C10 0.930 . S
H31 C22 0.929 . S
H32 C25 0.930 . S
C33 C34 1.351 . S
C33 N36 1.368 . S
C33 H38 0.931 . S
C34 C33 1.351 . S
C34 N35 1.373 . S
C34 H62 0.930 . S
N35 C34 1.373 . S
N35 C37 1.340 . S
N36 C33 1.368 . S
N36 C37 1.321 . S
N36 Co39 2.135 . S
C37 N35 1.340 . S
C37 N36 1.321 . S
C37 H61 0.930 . S
H38 C33 0.931 . S
Co39 N36 2.135 . S
Co39 N42 2.121 1_554 S
Co39 O47 2.055 . S
Co39 O50 2.039 1_554 S
Co39 N53 2.140 . S
C40 O41 1.227 . S
C40 O50 1.265 . S
O41 C40 1.227 . S
N42 Co39 2.121 1_556 S
N42 C44 1.375 . S
N42 C45 1.313 . S
C43 C44 1.338 . S
C43 N46 1.377 . S
C43 H63 0.930 . S
C44 N42 1.375 . S
C44 C43 1.338 . S
C44 H48 0.931 . S
C45 N42 1.313 . S
C45 N46 1.344 . S
C45 H49 0.930 . S
N46 C43 1.377 . S
N46 C45 1.344 . S
O47 Co39 2.055 . S
O47 C51 1.253 . S
H48 C44 0.931 . S
H49 C45 0.930 . S
O50 Co39 2.039 1_556 S
O50 C40 1.265 . S
C51 O47 1.253 . S
C51 O52 1.227 . S
O52 C51 1.227 . S
N53 Co39 2.140 . S
N53 C56 1.346 . S
N53 C57 1.345 1_554 S
C54 C55 1.386 1_556 S
C54 C58 1.392 . S
C55 C54 1.386 1_554 S
C55 C56 1.369 . S
C55 H64 0.929 . S
C56 N53 1.346 . S
C56 C55 1.369 . S
C56 H59 0.928 . S
C57 N53 1.345 1_556 S
C57 C58 1.371 . S
C57 H60 0.931 . S
C58 C54 1.392 . S
C58 C57 1.371 . S
C58 H65 0.930 . S
H59 C56 0.928 . S
H60 C57 0.931 . S
H61 C37 0.930 . S
H62 C34 0.930 . S
H63 C43 0.930 . S
H64 C55 0.929 . S
H65 C58 0.930 . S
C66 C67 1.351 . S
C66 N69 1.368 . S
C66 H71 0.931 . S
C67 C66 1.351 . S
C67 N68 1.373 . S
C67 H95 0.930 . S
N68 C67 1.373 . S
N68 C70 1.340 . S
N69 C66 1.368 . S
N69 C70 1.321 . S
N69 Co72 2.135 . S
C70 N68 1.340 . S
C70 N69 1.321 . S
C70 H94 0.930 . S
H71 C66 0.931 . S
Co72 N69 2.135 . S
Co72 N75 2.121 1_554 S
Co72 O80 2.055 . S
Co72 O83 2.039 1_554 S
Co72 N86 2.140 . S
C73 O74 1.227 . S
C73 O83 1.265 . S
O74 C73 1.227 . S
N75 Co72 2.121 1_556 S
N75 C77 1.375 . S
N75 C78 1.313 . S
C76 C77 1.338 . S
C76 N79 1.377 . S
C76 H96 0.930 . S
C77 N75 1.375 . S
C77 C76 1.338 . S
C77 H81 0.931 . S
C78 N75 1.313 . S
C78 N79 1.344 . S
C78 H82 0.930 . S
N79 C76 1.377 . S
N79 C78 1.344 . S
O80 Co72 2.055 . S
O80 C84 1.253 . S
H81 C77 0.931 . S
H82 C78 0.930 . S
O83 Co72 2.039 1_556 S
O83 C73 1.265 . S
C84 O80 1.253 . S
C84 O85 1.227 . S
O85 C84 1.227 . S
N86 Co72 2.140 . S
N86 C89 1.346 . S
N86 C90 1.345 1_554 S
C87 C88 1.386 1_556 S
C87 C91 1.392 . S
C88 C87 1.386 1_554 S
C88 C89 1.369 . S
C88 H97 0.929 . S
C89 N86 1.346 . S
C89 C88 1.369 . S
C89 H92 0.928 . S
C90 N86 1.345 1_556 S
C90 C91 1.371 . S
C90 H93 0.931 . S
C91 C87 1.392 . S
C91 C90 1.371 . S
C91 H98 0.930 . S
H92 C89 0.928 . S
H93 C90 0.931 . S
H94 C70 0.930 . S
H95 C67 0.930 . S
H96 C76 0.930 . S
H97 C88 0.929 . S
H98 C91 0.930 . S
C99 C100 1.351 . S
C99 N102 1.368 . S
C99 H104 0.931 . S
C100 C99 1.351 . S
C100 N101 1.373 . S
C100 H128 0.930 . S
N101 C100 1.373 . S
N101 C103 1.340 . S
N102 C99 1.368 . S
N102 C103 1.321 . S
N102 Co105 2.135 . S
C103 N101 1.340 . S
C103 N102 1.321 . S
C103 H127 0.930 . S
H104 C99 0.931 . S
Co105 N102 2.135 . S
Co105 N108 2.121 1_554 S
Co105 O113 2.055 . S
Co105 O116 2.039 1_554 S
Co105 N119 2.140 . S
C106 O107 1.227 . S
C106 O116 1.265 . S
O107 C106 1.227 . S
N108 Co105 2.121 1_556 S
N108 C110 1.375 . S
N108 C111 1.313 . S
C109 C110 1.338 . S
C109 N112 1.377 . S
C109 H129 0.930 . S
C110 N108 1.375 . S
C110 C109 1.338 . S
C110 H114 0.931 . S
C111 N108 1.313 . S
C111 N112 1.344 . S
C111 H115 0.930 . S
N112 C109 1.377 . S
N112 C111 1.344 . S
O113 Co105 2.055 . S
O113 C117 1.253 . S
H114 C110 0.931 . S
H115 C111 0.930 . S
O116 Co105 2.039 1_556 S
O116 C106 1.265 . S
C117 O113 1.253 . S
C117 O118 1.227 . S
O118 C117 1.227 . S
N119 Co105 2.140 . S
N119 C122 1.346 . S
N119 C123 1.345 1_554 S
C120 C121 1.386 1_556 S
C120 C124 1.392 . S
C121 C120 1.386 1_554 S
C121 C122 1.369 . S
C121 H130 0.929 . S
C122 N119 1.346 . S
C122 C121 1.369 . S
C122 H125 0.928 . S
C123 N119 1.345 1_556 S
C123 C124 1.371 . S
C123 H126 0.931 . S
C124 C120 1.392 . S
C124 C123 1.371 . S
C124 H131 0.930 . S
H125 C122 0.928 . S
H126 C123 0.931 . S
H127 C103 0.930 . S
H128 C100 0.930 . S
H129 C109 0.930 . S
H130 C121 0.929 . S
H131 C124 0.930 . S
C132 C133 1.351 . S
C132 N135 1.368 . S
C132 H137 0.931 . S
C133 C132 1.351 . S
C133 N134 1.373 . S
C133 H161 0.930 . S
N134 C133 1.373 . S
N134 C136 1.340 . S
N135 C132 1.368 . S
N135 C136 1.321 . S
N135 Co138 2.135 . S
C136 N134 1.340 . S
C136 N135 1.321 . S
C136 H160 0.930 . S
H137 C132 0.931 . S
Co138 N135 2.135 . S
Co138 N141 2.121 . S
Co138 O146 2.055 . S
Co138 O149 2.039 . S
Co138 N152 2.140 . S
C139 O140 1.227 . S
C139 O149 1.265 . S
O140 C139 1.227 . S
N141 Co138 2.121 . S
N141 C143 1.375 . S
N141 C144 1.313 . S
C142 C143 1.338 . S
C142 N145 1.377 . S
C142 H162 0.930 . S
C143 N141 1.375 . S
C143 C142 1.338 . S
C143 H147 0.931 . S
C144 N141 1.313 . S
C144 N145 1.344 . S
C144 H148 0.930 . S
N145 C142 1.377 . S
N145 C144 1.344 . S
O146 Co138 2.055 . S
O146 C150 1.253 . S
H147 C143 0.931 . S
H148 C144 0.930 . S
O149 Co138 2.039 . S
O149 C139 1.265 . S
C150 O146 1.253 . S
C150 O151 1.227 . S
O151 C150 1.227 . S
N152 Co138 2.140 . S
N152 C155 1.346 . S
N152 C156 1.345 . S
C153 C154 1.387 . S
C153 C157 1.391 . S
C154 C153 1.387 . S
C154 C155 1.369 . S
C154 H163 0.929 . S
C155 N152 1.346 . S
C155 C154 1.369 . S
C155 H158 0.928 . S
C156 N152 1.345 . S
C156 C157 1.371 . S
C156 H159 0.931 . S
C157 C153 1.391 . S
C157 C156 1.371 . S
C157 H164 0.930 . S
H158 C155 0.928 . S
H159 C156 0.931 . S
H160 C136 0.930 . S
H161 C133 0.930 . S
H162 C142 0.930 . S
H163 C154 0.929 . S
H164 C157 0.930 . S
C165 C166 1.351 . S
C165 N168 1.368 . S
C165 H170 0.931 . S
C166 C165 1.351 . S
C166 N167 1.373 . S
C166 H194 0.930 . S
N167 C166 1.373 . S
N167 C169 1.340 . S
N168 C165 1.368 . S
N168 C169 1.321 . S
N168 Co171 2.135 . S
C169 N167 1.340 . S
C169 N168 1.321 . S
C169 H193 0.930 . S
H170 C165 0.931 . S
Co171 N168 2.135 . S
Co171 N174 2.121 . S
Co171 O179 2.055 . S
Co171 O182 2.039 . S
Co171 N185 2.140 . S
C172 O173 1.227 . S
C172 O182 1.265 . S
O173 C172 1.227 . S
N174 Co171 2.121 . S
N174 C176 1.375 . S
N174 C177 1.313 . S
C175 C176 1.338 . S
C175 N178 1.377 . S
C175 H195 0.930 . S
C176 N174 1.375 . S
C176 C175 1.338 . S
C176 H180 0.931 . S
C177 N174 1.313 . S
C177 N178 1.344 . S
C177 H181 0.930 . S
N178 C175 1.377 . S
N178 C177 1.344 . S
O179 Co171 2.055 . S
O179 C183 1.253 . S
H180 C176 0.931 . S
H181 C177 0.930 . S
O182 Co171 2.039 . S
O182 C172 1.265 . S
C183 O179 1.253 . S
C183 O184 1.227 . S
O184 C183 1.227 . S
N185 Co171 2.140 . S
N185 C188 1.346 . S
N185 C189 1.345 . S
C186 C187 1.387 . S
C186 C190 1.391 . S
C187 C186 1.387 . S
C187 C188 1.369 . S
C187 H196 0.929 . S
C188 N185 1.346 . S
C188 C187 1.369 . S
C188 H191 0.928 . S
C189 N185 1.345 . S
C189 C190 1.371 . S
C189 H192 0.931 . S
C190 C186 1.391 . S
C190 C189 1.371 . S
C190 H197 0.930 . S
H191 C188 0.928 . S
H192 C189 0.931 . S
H193 C169 0.930 . S
H194 C166 0.930 . S
H195 C175 0.930 . S
H196 C187 0.929 . S
H197 C190 0.930 . S
C198 C199 1.351 . S
C198 N201 1.368 . S
C198 H203 0.931 . S
C199 C198 1.351 . S
C199 N200 1.373 . S
C199 H227 0.930 . S
N200 C199 1.373 . S
N200 C202 1.340 . S
N201 C198 1.368 . S
N201 C202 1.321 . S
N201 Co204 2.135 . S
C202 N200 1.340 . S
C202 N201 1.321 . S
C202 H226 0.930 . S
H203 C198 0.931 . S
Co204 N201 2.135 . S
Co204 N207 2.121 . S
Co204 O212 2.055 . S
Co204 O215 2.039 . S
Co204 N218 2.140 . S
C205 O206 1.227 . S
C205 O215 1.265 . S
O206 C205 1.227 . S
N207 Co204 2.121 . S
N207 C209 1.375 . S
N207 C210 1.313 . S
C208 C209 1.338 . S
C208 N211 1.377 . S
C208 H228 0.930 . S
C209 N207 1.375 . S
C209 C208 1.338 . S
C209 H213 0.931 . S
C210 N207 1.313 . S
C210 N211 1.344 . S
C210 H214 0.930 . S
N211 C208 1.377 . S
N211 C210 1.344 . S
O212 Co204 2.055 . S
O212 C216 1.253 . S
H213 C209 0.931 . S
H214 C210 0.930 . S
O215 Co204 2.039 . S
O215 C205 1.265 . S
C216 O212 1.253 . S
C216 O217 1.227 . S
O217 C216 1.227 . S
N218 Co204 2.140 . S
N218 C221 1.346 . S
N218 C222 1.345 . S
C219 C220 1.387 . S
C219 C223 1.391 . S
C220 C219 1.387 . S
C220 C221 1.369 . S
C220 H229 0.929 . S
C221 N218 1.346 . S
C221 C220 1.369 . S
C221 H224 0.928 . S
C222 N218 1.345 . S
C222 C223 1.371 . S
C222 H225 0.931 . S
C223 C219 1.391 . S
C223 C222 1.371 . S
C223 H230 0.930 . S
H224 C221 0.928 . S
H225 C222 0.931 . S
H226 C202 0.930 . S
H227 C199 0.930 . S
H228 C208 0.930 . S
H229 C220 0.929 . S
H230 C223 0.930 . S
C231 C232 1.351 . S
C231 N234 1.368 . S
C231 H236 0.931 . S
C232 C231 1.351 . S
C232 N233 1.373 . S
C232 H260 0.930 . S
N233 C232 1.373 . S
N233 C235 1.340 . S
N234 C231 1.368 . S
N234 C235 1.321 . S
N234 Co237 2.135 . S
C235 N233 1.340 . S
C235 N234 1.321 . S
C235 H259 0.930 . S
H236 C231 0.931 . S
Co237 N234 2.135 . S
Co237 N240 2.121 . S
Co237 O245 2.055 . S
Co237 O248 2.039 . S
Co237 N251 2.140 . S
C238 O239 1.227 . S
C238 O248 1.265 . S
O239 C238 1.227 . S
N240 Co237 2.121 . S
N240 C242 1.375 . S
N240 C243 1.313 . S
C241 C242 1.338 . S
C241 N244 1.377 . S
C241 H261 0.930 . S
C242 N240 1.375 . S
C242 C241 1.338 . S
C242 H246 0.931 . S
C243 N240 1.313 . S
C243 N244 1.344 . S
C243 H247 0.930 . S
N244 C241 1.377 . S
N244 C243 1.344 . S
O245 Co237 2.055 . S
O245 C249 1.253 . S
H246 C242 0.931 . S
H247 C243 0.930 . S
O248 Co237 2.039 . S
O248 C238 1.265 . S
C249 O245 1.253 . S
C249 O250 1.227 . S
O250 C249 1.227 . S
N251 Co237 2.140 . S
N251 C254 1.346 . S
N251 C255 1.345 . S
C252 C253 1.387 . S
C252 C256 1.391 . S
C253 C252 1.387 . S
C253 C254 1.369 . S
C253 H262 0.929 . S
C254 N251 1.346 . S
C254 C253 1.369 . S
C254 H257 0.928 . S
C255 N251 1.345 . S
C255 C256 1.371 . S
C255 H258 0.931 . S
C256 C252 1.391 . S
C256 C255 1.371 . S
C256 H263 0.930 . S
H257 C254 0.928 . S
H258 C255 0.931 . S
H259 C235 0.930 . S
H260 C232 0.930 . S
H261 C241 0.930 . S
H262 C253 0.929 . S
H263 C256 0.930 . S
C264 C265 1.351 . S
C264 N267 1.368 . S
C264 H269 0.931 . S
C265 C264 1.351 . S
C265 N266 1.373 . S
C265 H293 0.930 . S
N266 C265 1.373 . S
N266 C268 1.340 . S
N267 C264 1.368 . S
N267 C268 1.321 . S
N267 Co270 2.135 . S
C268 N266 1.340 . S
C268 N267 1.321 . S
C268 H292 0.930 . S
H269 C264 0.931 . S
Co270 N267 2.135 . S
Co270 N273 2.121 . S
Co270 O278 2.055 . S
Co270 O281 2.039 . S
Co270 N284 2.140 . S
C271 O272 1.227 . S
C271 O281 1.265 . S
O272 C271 1.227 . S
N273 Co270 2.121 . S
N273 C275 1.375 . S
N273 C276 1.313 . S
C274 C275 1.338 . S
C274 N277 1.377 . S
C274 H294 0.930 . S
C275 N273 1.375 . S
C275 C274 1.338 . S
C275 H279 0.931 . S
C276 N273 1.313 . S
C276 N277 1.344 . S
C276 H280 0.930 . S
N277 C274 1.377 . S
N277 C276 1.344 . S
O278 Co270 2.055 . S
O278 C282 1.253 . S
H279 C275 0.931 . S
H280 C276 0.930 . S
O281 Co270 2.039 . S
O281 C271 1.265 . S
C282 O278 1.253 . S
C282 O283 1.227 . S
O283 C282 1.227 . S
N284 Co270 2.140 . S
N284 C287 1.346 . S
N284 C288 1.345 . S
C285 C286 1.387 . S
C285 C289 1.391 . S
C286 C285 1.387 . S
C286 C287 1.369 . S
C286 H295 0.929 . S
C287 N284 1.346 . S
C287 C286 1.369 . S
C287 H290 0.928 . S
C288 N284 1.345 . S
C288 C289 1.371 . S
C288 H291 0.931 . S
C289 C285 1.391 . S
C289 C288 1.371 . S
C289 H296 0.930 . S
H290 C287 0.928 . S
H291 C288 0.931 . S
H292 C268 0.930 . S
H293 C265 0.930 . S
H294 C274 0.930 . S
H295 C286 0.929 . S
H296 C289 0.930 . S
C297 C298 1.351 . S
C297 N300 1.368 . S
C297 H302 0.931 . S
C298 C297 1.351 . S
C298 N299 1.373 . S
C298 H326 0.930 . S
N299 C298 1.373 . S
N299 C301 1.340 . S
N300 C297 1.368 . S
N300 C301 1.321 . S
N300 Co303 2.135 . S
C301 N299 1.340 . S
C301 N300 1.321 . S
C301 H325 0.930 . S
H302 C297 0.931 . S
Co303 N300 2.135 . S
Co303 N306 2.121 . S
Co303 O311 2.055 . S
Co303 O314 2.039 . S
Co303 N317 2.140 . S
C304 O305 1.227 . S
C304 O314 1.265 . S
O305 C304 1.227 . S
N306 Co303 2.121 . S
N306 C308 1.375 . S
N306 C309 1.313 . S
C307 C308 1.338 . S
C307 N310 1.377 . S
C307 H327 0.930 . S
C308 N306 1.375 . S
C308 C307 1.338 . S
C308 H312 0.931 . S
C309 N306 1.313 . S
C309 N310 1.344 . S
C309 H313 0.930 . S
N310 C307 1.377 . S
N310 C309 1.344 . S
O311 Co303 2.055 . S
O311 C315 1.253 . S
H312 C308 0.931 . S
H313 C309 0.930 . S
O314 Co303 2.039 . S
O314 C304 1.265 . S
C315 O311 1.253 . S
C315 O316 1.227 . S
O316 C315 1.227 . S
N317 Co303 2.140 . S
N317 C320 1.346 . S
N317 C321 1.345 . S
C318 C319 1.387 . S
C318 C322 1.391 . S
C319 C318 1.387 . S
C319 C320 1.369 . S
C319 H328 0.929 . S
C320 N317 1.346 . S
C320 C319 1.369 . S
C320 H323 0.928 . S
C321 N317 1.345 . S
C321 C322 1.371 . S
C321 H324 0.931 . S
C322 C318 1.391 . S
C322 C321 1.371 . S
C322 H329 0.930 . S
H323 C320 0.928 . S
H324 C321 0.931 . S
H325 C301 0.930 . S
H326 C298 0.930 . S
H327 C307 0.930 . S
H328 C319 0.929 . S
H329 C322 0.930 . S
C330 C331 1.351 . S
C330 N333 1.368 . S
C330 H335 0.931 . S
C331 C330 1.351 . S
C331 N332 1.373 . S
C331 H359 0.930 . S
N332 C331 1.373 . S
N332 C334 1.340 . S
N333 C330 1.368 . S
N333 C334 1.321 . S
N333 Co336 2.135 . S
C334 N332 1.340 . S
C334 N333 1.321 . S
C334 H358 0.930 . S
H335 C330 0.931 . S
Co336 N333 2.135 . S
Co336 N339 2.121 . S
Co336 O344 2.055 . S
Co336 O347 2.039 . S
Co336 N350 2.140 . S
C337 O338 1.227 . S
C337 O347 1.265 . S
O338 C337 1.227 . S
N339 Co336 2.121 . S
N339 C341 1.375 . S
N339 C342 1.313 . S
C340 C341 1.338 . S
C340 N343 1.377 . S
C340 H360 0.930 . S
C341 N339 1.375 . S
C341 C340 1.338 . S
C341 H345 0.931 . S
C342 N339 1.313 . S
C342 N343 1.344 . S
C342 H346 0.930 . S
N343 C340 1.377 . S
N343 C342 1.344 . S
O344 Co336 2.055 . S
O344 C348 1.253 . S
H345 C341 0.931 . S
H346 C342 0.930 . S
O347 Co336 2.039 . S
O347 C337 1.265 . S
C348 O344 1.253 . S
C348 O349 1.227 . S
O349 C348 1.227 . S
N350 Co336 2.140 . S
N350 C353 1.346 . S
N350 C354 1.345 . S
C351 C352 1.387 . S
C351 C355 1.391 . S
C352 C351 1.387 . S
C352 C353 1.369 . S
C352 H361 0.929 . S
C353 N350 1.346 . S
C353 C352 1.369 . S
C353 H356 0.928 . S
C354 N350 1.345 . S
C354 C355 1.371 . S
C354 H357 0.931 . S
C355 C351 1.391 . S
C355 C354 1.371 . S
C355 H362 0.930 . S
H356 C353 0.928 . S
H357 C354 0.931 . S
H358 C334 0.930 . S
H359 C331 0.930 . S
H360 C340 0.930 . S
H361 C352 0.929 . S
H362 C355 0.930 . S
C363 C364 1.351 . S
C363 N366 1.368 . S
C363 H368 0.931 . S
C364 C363 1.351 . S
C364 N365 1.373 . S
C364 H392 0.930 . S
N365 C364 1.373 . S
N365 C367 1.340 . S
N366 C363 1.368 . S
N366 C367 1.321 . S
N366 Co369 2.135 . S
C367 N365 1.340 . S
C367 N366 1.321 . S
C367 H391 0.930 . S
H368 C363 0.931 . S
Co369 N366 2.135 . S
Co369 N372 2.121 . S
Co369 O377 2.055 . S
Co369 O380 2.039 . S
Co369 N383 2.140 . S
C370 O371 1.227 . S
C370 O380 1.265 . S
O371 C370 1.227 . S
N372 Co369 2.121 . S
N372 C374 1.375 . S
N372 C375 1.313 . S
C373 C374 1.338 . S
C373 N376 1.377 . S
C373 H393 0.930 . S
C374 N372 1.375 . S
C374 C373 1.338 . S
C374 H378 0.931 . S
C375 N372 1.313 . S
C375 N376 1.344 . S
C375 H379 0.930 . S
N376 C373 1.377 . S
N376 C375 1.344 . S
O377 Co369 2.055 . S
O377 C381 1.253 . S
H378 C374 0.931 . S
H379 C375 0.930 . S
O380 Co369 2.039 . S
O380 C370 1.265 . S
C381 O377 1.253 . S
C381 O382 1.227 . S
O382 C381 1.227 . S
N383 Co369 2.140 . S
N383 C386 1.346 . S
N383 C387 1.345 . S
C384 C385 1.387 . S
C384 C388 1.391 . S
C385 C384 1.387 . S
C385 C386 1.369 . S
C385 H394 0.929 . S
C386 N383 1.346 . S
C386 C385 1.369 . S
C386 H389 0.928 . S
C387 N383 1.345 . S
C387 C388 1.371 . S
C387 H390 0.931 . S
C388 C384 1.391 . S
C388 C387 1.371 . S
C388 H395 0.930 . S
H389 C386 0.928 . S
H390 C387 0.931 . S
H391 C367 0.930 . S
H392 C364 0.930 . S
H393 C373 0.930 . S
H394 C385 0.929 . S
H395 C388 0.930 . S
C396 C397 1.351 . S
C396 N399 1.368 . S
C396 H401 0.931 . S
C397 C396 1.351 . S
C397 N398 1.373 . S
C397 H425 0.930 . S
N398 C397 1.373 . S
N398 C400 1.340 . S
N399 C396 1.368 . S
N399 C400 1.321 . S
N399 Co402 2.135 . S
C400 N398 1.340 . S
C400 N399 1.321 . S
C400 H424 0.930 . S
H401 C396 0.931 . S
Co402 N399 2.135 . S
Co402 N405 2.121 1_556 S
Co402 O410 2.055 . S
Co402 O413 2.039 1_556 S
Co402 N416 2.140 . S
C403 O404 1.227 . S
C403 O413 1.265 . S
O404 C403 1.227 . S
N405 Co402 2.121 1_554 S
N405 C407 1.375 . S
N405 C408 1.313 . S
C406 C407 1.338 . S
C406 N409 1.377 . S
C406 H426 0.930 . S
C407 N405 1.375 . S
C407 C406 1.338 . S
C407 H411 0.931 . S
C408 N405 1.313 . S
C408 N409 1.344 . S
C408 H412 0.930 . S
N409 C406 1.377 . S
N409 C408 1.344 . S
O410 Co402 2.055 . S
O410 C414 1.253 . S
H411 C407 0.931 . S
H412 C408 0.930 . S
O413 Co402 2.039 1_554 S
O413 C403 1.265 . S
C414 O410 1.253 . S
C414 O415 1.227 . S
O415 C414 1.227 . S
N416 Co402 2.140 . S
N416 C419 1.346 . S
N416 C420 1.345 1_556 S
C417 C418 1.385 1_554 S
C417 C421 1.392 . S
C418 C417 1.385 1_556 S
C418 C419 1.369 . S
C418 H427 0.929 . S
C419 N416 1.346 . S
C419 C418 1.369 . S
C419 H422 0.928 . S
C420 N416 1.345 1_554 S
C420 C421 1.371 . S
C420 H423 0.931 . S
C421 C417 1.392 . S
C421 C420 1.371 . S
C421 H428 0.930 . S
H422 C419 0.928 . S
H423 C420 0.931 . S
H424 C400 0.930 . S
H425 C397 0.930 . S
H426 C406 0.930 . S
H427 C418 0.929 . S
H428 C421 0.930 . S
C429 C430 1.351 . S
C429 N432 1.368 . S
C429 H434 0.931 . S
C430 C429 1.351 . S
C430 N431 1.373 . S
C430 H458 0.930 . S
N431 C430 1.373 . S
N431 C433 1.340 . S
N432 C429 1.368 . S
N432 C433 1.321 . S
N432 Co435 2.135 . S
C433 N431 1.340 . S
C433 N432 1.321 . S
C433 H457 0.930 . S
H434 C429 0.931 . S
Co435 N432 2.135 . S
Co435 N438 2.121 1_556 S
Co435 O443 2.055 . S
Co435 O446 2.039 1_556 S
Co435 N449 2.140 . S
C436 O437 1.227 . S
C436 O446 1.265 . S
O437 C436 1.227 . S
N438 Co435 2.121 1_554 S
N438 C440 1.375 . S
N438 C441 1.313 . S
C439 C440 1.338 . S
C439 N442 1.377 . S
C439 H459 0.930 . S
C440 N438 1.375 . S
C440 C439 1.338 . S
C440 H444 0.931 . S
C441 N438 1.313 . S
C441 N442 1.344 . S
C441 H445 0.930 . S
N442 C439 1.377 . S
N442 C441 1.344 . S
O443 Co435 2.055 . S
O443 C447 1.253 . S
H444 C440 0.931 . S
H445 C441 0.930 . S
O446 Co435 2.039 1_554 S
O446 C436 1.265 . S
C447 O443 1.253 . S
C447 O448 1.227 . S
O448 C447 1.227 . S
N449 Co435 2.140 . S
N449 C452 1.346 . S
N449 C453 1.345 1_556 S
C450 C451 1.385 1_554 S
C450 C454 1.392 . S
C451 C450 1.385 1_556 S
C451 C452 1.369 . S
C451 H460 0.929 . S
C452 N449 1.346 . S
C452 C451 1.369 . S
C452 H455 0.928 . S
C453 N449 1.345 1_554 S
C453 C454 1.371 . S
C453 H456 0.931 . S
C454 C450 1.392 . S
C454 C453 1.371 . S
C454 H461 0.930 . S
H455 C452 0.928 . S
H456 C453 0.931 . S
H457 C433 0.930 . S
H458 C430 0.930 . S
H459 C439 0.930 . S
H460 C451 0.929 . S
H461 C454 0.930 . S
C462 C463 1.351 . S
C462 N465 1.368 . S
C462 H467 0.931 . S
C463 C462 1.351 . S
C463 N464 1.373 . S
C463 H491 0.930 . S
N464 C463 1.373 . S
N464 C466 1.340 . S
N465 C462 1.368 . S
N465 C466 1.321 . S
N465 Co468 2.135 . S
C466 N464 1.340 . S
C466 N465 1.321 . S
C466 H490 0.930 . S
H467 C462 0.931 . S
Co468 N465 2.135 . S
Co468 N471 2.121 1_556 S
Co468 O476 2.055 . S
Co468 O479 2.039 1_556 S
Co468 N482 2.140 . S
C469 O470 1.227 . S
C469 O479 1.265 . S
O470 C469 1.227 . S
N471 Co468 2.121 1_554 S
N471 C473 1.375 . S
N471 C474 1.313 . S
C472 C473 1.338 . S
C472 N475 1.377 . S
C472 H492 0.930 . S
C473 N471 1.375 . S
C473 C472 1.338 . S
C473 H477 0.931 . S
C474 N471 1.313 . S
C474 N475 1.344 . S
C474 H478 0.930 . S
N475 C472 1.377 . S
N475 C474 1.344 . S
O476 Co468 2.055 . S
O476 C480 1.253 . S
H477 C473 0.931 . S
H478 C474 0.930 . S
O479 Co468 2.039 1_554 S
O479 C469 1.265 . S
C480 O476 1.253 . S
C480 O481 1.227 . S
O481 C480 1.227 . S
N482 Co468 2.140 . S
N482 C485 1.346 . S
N482 C486 1.345 1_556 S
C483 C484 1.385 1_554 S
C483 C487 1.392 . S
C484 C483 1.385 1_556 S
C484 C485 1.369 . S
C484 H493 0.929 . S
C485 N482 1.346 . S
C485 C484 1.369 . S
C485 H488 0.928 . S
C486 N482 1.345 1_554 S
C486 C487 1.371 . S
C486 H489 0.931 . S
C487 C483 1.392 . S
C487 C486 1.371 . S
C487 H494 0.930 . S
H488 C485 0.928 . S
H489 C486 0.931 . S
H490 C466 0.930 . S
H491 C463 0.930 . S
H492 C472 0.930 . S
H493 C484 0.929 . S
H494 C487 0.930 . S
C495 C496 1.351 . S
C495 N498 1.368 . S
C495 H500 0.931 . S
C496 C495 1.351 . S
C496 N497 1.373 . S
C496 H524 0.930 . S
N497 C496 1.373 . S
N497 C499 1.340 . S
N498 C495 1.368 . S
N498 C499 1.321 . S
N498 Co501 2.135 . S
C499 N497 1.340 . S
C499 N498 1.321 . S
C499 H523 0.930 . S
H500 C495 0.931 . S
Co501 N498 2.135 . S
Co501 N504 2.121 1_556 S
Co501 O509 2.055 . S
Co501 O512 2.039 1_556 S
Co501 N515 2.140 . S
C502 O503 1.227 . S
C502 O512 1.265 . S
O503 C502 1.227 . S
N504 Co501 2.121 1_554 S
N504 C506 1.375 . S
N504 C507 1.313 . S
C505 C506 1.338 . S
C505 N508 1.377 . S
C505 H525 0.930 . S
C506 N504 1.375 . S
C506 C505 1.338 . S
C506 H510 0.931 . S
C507 N504 1.313 . S
C507 N508 1.344 . S
C507 H511 0.930 . S
N508 C505 1.377 . S
N508 C507 1.344 . S
O509 Co501 2.055 . S
O509 C513 1.253 . S
H510 C506 0.931 . S
H511 C507 0.930 . S
O512 Co501 2.039 1_554 S
O512 C502 1.265 . S
C513 O509 1.253 . S
C513 O514 1.227 . S
O514 C513 1.227 . S
N515 Co501 2.140 . S
N515 C518 1.346 . S
N515 C519 1.345 1_556 S
C516 C517 1.385 1_554 S
C516 C520 1.392 . S
C517 C516 1.385 1_556 S
C517 C518 1.369 . S
C517 H526 0.929 . S
C518 N515 1.346 . S
C518 C517 1.369 . S
C518 H521 0.928 . S
C519 N515 1.345 1_554 S
C519 C520 1.371 . S
C519 H522 0.931 . S
C520 C516 1.392 . S
C520 C519 1.371 . S
C520 H527 0.930 . S
H521 C518 0.928 . S
H522 C519 0.931 . S
H523 C499 0.930 . S
H524 C496 0.930 . S
H525 C505 0.930 . S
H526 C517 0.929 . S
H527 C520 0.930 . S
H528 C536 0.950 . S
H529 C541 0.950 . S
H530 C538 0.950 . S
H531 C540 0.950 . S
H532 C542 0.950 . S
H533 C544 0.950 . S
H534 C546 0.950 . S
H535 C547 0.950 . S
C536 H528 0.950 . S
C536 C537 1.386 1_554 S
C536 C538 1.391 . S
C537 C536 1.386 1_556 S
C537 C541 1.393 . S
C538 H530 0.950 . S
C538 C536 1.391 . S
C538 C539 1.389 1_554 S
C539 C538 1.389 1_556 S
C539 C540 1.410 . S
C539 C545 1.490 1_556 S
C540 H531 0.950 . S
C540 C539 1.410 . S
C540 C541 1.391 . S
C541 H529 0.950 . S
C541 C537 1.393 . S
C541 C540 1.391 . S
C542 H532 0.950 . S
C542 C543 1.386 1_556 S
C542 C544 1.391 . S
C543 C542 1.386 1_554 S
C543 C547 1.393 . S
C544 H533 0.950 . S
C544 C542 1.391 . S
C544 C545 1.400 1_556 S
C545 C539 1.490 1_554 S
C545 C544 1.400 1_554 S
C545 C546 1.398 . S
C546 H534 0.950 . S
C546 C545 1.398 . S
C546 C547 1.391 . S
C547 H535 0.950 . S
C547 C543 1.393 . S
C547 C546 1.391 . S
H548 C556 0.950 . S
H549 C561 0.950 . S
H550 C558 0.950 . S
H551 C560 0.950 . S
H552 C562 0.950 . S
H553 C564 0.950 . S
H554 C566 0.950 . S
H555 C567 0.950 . S
C556 H548 0.950 . S
C556 C557 1.386 . S
C556 C558 1.391 . S
C557 C556 1.386 . S
C557 C561 1.393 1_554 S
C558 H550 0.950 . S
C558 C556 1.391 . S
C558 C559 1.400 . S
C559 C558 1.400 . S
C559 C560 1.398 1_554 S
C559 C565 1.490 1_554 S
C560 H551 0.950 . S
C560 C559 1.398 1_556 S
C560 C561 1.391 . S
C561 H549 0.950 . S
C561 C557 1.393 1_556 S
C561 C560 1.391 . S
C562 H552 0.950 . S
C562 C563 1.386 . S
C562 C564 1.391 . S
C563 C562 1.386 . S
C563 C567 1.393 1_556 S
C564 H553 0.950 . S
C564 C562 1.391 . S
C564 C565 1.410 . S
C565 C559 1.490 1_556 S
C565 C564 1.410 . S
C565 C566 1.390 1_556 S
C566 H554 0.950 . S
C566 C565 1.390 1_554 S
C566 C567 1.391 . S
C567 H555 0.950 . S
C567 C563 1.393 1_554 S
C567 C566 1.391 . S
H568 C576 0.950 . S
H569 C581 0.950 . S
H570 C578 0.950 . S
H571 C580 0.950 . S
H572 C582 0.950 . S
H573 C584 0.950 . S
H574 C586 0.950 . S
H575 C587 0.950 . S
C576 H568 0.950 . S
C576 C577 1.386 . S
C576 C578 1.391 . S
C577 C576 1.386 . S
C577 C581 1.393 1_554 S
C578 H570 0.950 . S
C578 C576 1.391 . S
C578 C579 1.400 . S
C579 C578 1.400 . S
C579 C580 1.398 1_554 S
C579 C585 1.491 1_554 S
C580 H571 0.950 . S
C580 C579 1.398 1_556 S
C580 C581 1.391 . S
C581 H569 0.950 . S
C581 C577 1.393 1_556 S
C581 C580 1.391 . S
C582 H572 0.950 . S
C582 C583 1.386 . S
C582 C584 1.391 . S
C583 C582 1.386 . S
C583 C587 1.393 1_556 S
C584 H573 0.950 . S
C584 C582 1.391 . S
C584 C585 1.400 . S
C585 C579 1.491 1_556 S
C585 C584 1.400 . S
C585 C586 1.398 1_556 S
C586 H574 0.950 . S
C586 C585 1.398 1_554 S
C586 C587 1.391 . S
C587 H575 0.950 . S
C587 C583 1.393 1_554 S
C587 C586 1.391 . S
H588 C596 0.950 . S
H589 C601 0.950 . S
H590 C598 0.950 . S
H591 C600 0.950 . S
H592 C602 0.950 . S
H593 C604 0.950 . S
H594 C606 0.950 . S
H595 C607 0.950 . S
C596 H588 0.950 . S
C596 C597 1.386 . S
C596 C598 1.391 . S
C597 C596 1.386 . S
C597 C601 1.393 1_554 S
C598 H590 0.950 . S
C598 C596 1.391 . S
C598 C599 1.410 . S
C599 C598 1.410 . S
C599 C600 1.389 1_554 S
C599 C605 1.490 1_554 S
C600 H591 0.950 . S
C600 C599 1.389 1_556 S
C600 C601 1.391 . S
C601 H589 0.950 . S
C601 C597 1.393 1_556 S
C601 C600 1.391 . S
C602 H592 0.950 . S
C602 C603 1.386 . S
C602 C604 1.391 . S
C603 C602 1.386 . S
C603 C607 1.393 1_556 S
C604 H593 0.950 . S
C604 C602 1.391 . S
C604 C605 1.407 . S
C605 C599 1.490 1_556 S
C605 C604 1.407 . S
C605 C606 1.392 1_556 S
C606 H594 0.950 . S
C606 C605 1.392 1_554 S
C606 C607 1.391 . S
C607 H595 0.950 . S
C607 C603 1.393 1_554 S
C607 C606 1.391 . S
H608 C616 0.950 . S
H609 C621 0.950 . S
H610 C618 0.950 . S
H611 C620 0.950 . S
H612 C622 0.950 . S
H613 C624 0.950 . S
H614 C626 0.950 . S
H615 C627 0.950 . S
C616 H608 0.950 . S
C616 C617 1.386 . S
C616 C618 1.391 . S
C617 C616 1.386 . S
C617 C621 1.393 . S
C618 H610 0.950 . S
C618 C616 1.391 . S
C618 C619 1.400 . S
C619 C618 1.400 . S
C619 C620 1.398 . S
C619 C625 1.491 . S
C620 H611 0.950 . S
C620 C619 1.398 . S
C620 C621 1.391 . S
C621 H609 0.950 . S
C621 C617 1.393 . S
C621 C620 1.391 . S
C622 H612 0.950 . S
C622 C623 1.386 . S
C622 C624 1.391 . S
C623 C622 1.386 . S
C623 C627 1.393 . S
C624 H613 0.950 . S
C624 C622 1.391 . S
C624 C625 1.400 . S
C625 C619 1.491 . S
C625 C624 1.400 . S
C625 C626 1.398 . S
C626 H614 0.950 . S
C626 C625 1.398 . S
C626 C627 1.391 . S
C627 H615 0.950 . S
C627 C623 1.393 . S
C627 C626 1.391 . S
H628 C636 0.950 . S
H629 C641 0.950 . S
H630 C638 0.950 . S
H631 C640 0.950 . S
H632 C642 0.950 . S
H633 C644 0.950 . S
H634 C646 0.950 . S
H635 C647 0.950 . S
C636 H628 0.950 . S
C636 C637 1.386 . S
C636 C638 1.391 . S
C637 C636 1.386 . S
C637 C641 1.393 . S
C638 H630 0.950 . S
C638 C636 1.391 . S
C638 C639 1.400 . S
C639 C638 1.400 . S
C639 C640 1.398 . S
C639 C645 1.491 . S
C640 H631 0.950 . S
C640 C639 1.398 . S
C640 C641 1.391 . S
C641 H629 0.950 . S
C641 C637 1.393 . S
C641 C640 1.391 . S
C642 H632 0.950 . S
C642 C643 1.386 . S
C642 C644 1.391 . S
C643 C642 1.386 . S
C643 C647 1.393 . S
C644 H633 0.950 . S
C644 C642 1.391 . S
C644 C645 1.400 . S
C645 C639 1.491 . S
C645 C644 1.400 . S
C645 C646 1.398 . S
C646 H634 0.950 . S
C646 C645 1.398 . S
C646 C647 1.391 . S
C647 H635 0.950 . S
C647 C643 1.393 . S
C647 C646 1.391 . S
H648 C656 0.950 . S
H649 C661 0.950 . S
H650 C658 0.950 . S
H651 C660 0.950 . S
H652 C662 0.950 . S
H653 C664 0.950 . S
H654 C666 0.950 . S
H655 C667 0.950 . S
C656 H648 0.950 . S
C656 C657 1.386 . S
C656 C658 1.391 . S
C657 C656 1.386 . S
C657 C661 1.393 . S
C658 H650 0.950 . S
C658 C656 1.391 . S
C658 C659 1.400 . S
C659 C658 1.400 . S
C659 C660 1.398 . S
C659 C665 1.491 . S
C660 H651 0.950 . S
C660 C659 1.398 . S
C660 C661 1.391 . S
C661 H649 0.950 . S
C661 C657 1.393 . S
C661 C660 1.391 . S
C662 H652 0.950 . S
C662 C663 1.386 . S
C662 C664 1.391 . S
C663 C662 1.386 . S
C663 C667 1.393 . S
C664 H653 0.950 . S
C664 C662 1.391 . S
C664 C665 1.400 . S
C665 C659 1.491 . S
C665 C664 1.400 . S
C665 C666 1.398 . S
C666 H654 0.950 . S
C666 C665 1.398 . S
C666 C667 1.391 . S
C667 H655 0.950 . S
C667 C663 1.393 . S
C667 C666 1.391 . S
H668 C676 0.950 . S
H669 C681 0.950 . S
H670 C678 0.950 . S
H671 C680 0.950 . S
H672 C682 0.950 . S
H673 C684 0.950 . S
H674 C686 0.950 . S
H675 C687 0.950 . S
C676 H668 0.950 . S
C676 C677 1.386 . S
C676 C678 1.391 . S
C677 C676 1.386 . S
C677 C681 1.393 . S
C678 H670 0.950 . S
C678 C676 1.391 . S
C678 C679 1.400 . S
C679 C678 1.400 . S
C679 C680 1.398 . S
C679 C685 1.491 . S
C680 H671 0.950 . S
C680 C679 1.398 . S
C680 C681 1.391 . S
C681 H669 0.950 . S
C681 C677 1.393 . S
C681 C680 1.391 . S
C682 H672 0.950 . S
C682 C683 1.386 . S
C682 C684 1.391 . S
C683 C682 1.386 . S
C683 C687 1.393 . S
C684 H673 0.950 . S
C684 C682 1.391 . S
C684 C685 1.400 . S
C685 C679 1.491 . S
C685 C684 1.400 . S
C685 C686 1.398 . S
C686 H674 0.950 . S
C686 C685 1.398 . S
C686 C687 1.391 . S
C687 H675 0.950 . S
C687 C683 1.393 . S
C687 C686 1.391 . S
H688 C696 0.950 . S
H689 C701 0.950 . S
H690 C698 0.950 . S
H691 C700 0.950 . S
H692 C702 0.950 . S
H693 C704 0.950 . S
H694 C706 0.950 . S
H695 C707 0.950 . S
C696 H688 0.950 . S
C696 C697 1.386 . S
C696 C698 1.391 . S
C697 C696 1.386 . S
C697 C701 1.393 . S
C698 H690 0.950 . S
C698 C696 1.391 . S
C698 C699 1.400 . S
C699 C698 1.400 . S
C699 C700 1.398 . S
C699 C705 1.491 1_655 S
C700 H691 0.950 . S
C700 C699 1.398 . S
C700 C701 1.391 . S
C701 H689 0.950 . S
C701 C697 1.393 . S
C701 C700 1.391 . S
C702 H692 0.950 . S
C702 C703 1.386 . S
C702 C704 1.391 . S
C703 C702 1.386 . S
C703 C707 1.393 . S
C704 H693 0.950 . S
C704 C702 1.391 . S
C704 C705 1.400 . S
C705 C699 1.491 1_455 S
C705 C704 1.400 . S
C705 C706 1.398 . S
C706 H694 0.950 . S
C706 C705 1.398 . S
C706 C707 1.391 . S
C707 H695 0.950 . S
C707 C703 1.393 . S
C707 C706 1.391 . S
H708 C716 0.950 . S
H709 C721 0.950 . S
H710 C718 0.950 1_545 S
H711 C720 0.950 . S
H712 C722 0.950 . S
H713 C724 0.950 1_565 S
H714 C726 0.950 . S
H715 C727 0.950 . S
C716 H708 0.950 . S
C716 C717 1.386 . S
C716 C718 1.391 . S
C717 C716 1.386 . S
C717 C721 1.393 . S
C718 H710 0.950 1_565 S
C718 C716 1.391 . S
C718 C719 1.400 . S
C719 C718 1.400 . S
C719 C720 1.398 . S
C719 C725 1.491 1_565 S
C720 H711 0.950 . S
C720 C719 1.398 . S
C720 C721 1.391 . S
C721 H709 0.950 . S
C721 C717 1.393 . S
C721 C720 1.391 . S
C722 H712 0.950 . S
C722 C723 1.386 . S
C722 C724 1.391 . S
C723 C722 1.386 . S
C723 C727 1.393 . S
C724 H713 0.950 1_545 S
C724 C722 1.391 . S
C724 C725 1.400 . S
C725 C719 1.491 1_545 S
C725 C724 1.400 . S
C725 C726 1.398 . S
C726 H714 0.950 . S
C726 C725 1.398 . S
C726 C727 1.391 . S
C727 H715 0.950 . S
C727 C723 1.393 . S
C727 C726 1.391 . S
H728 C736 0.950 . S
H729 C741 0.950 . S
H730 C738 0.950 1_655 S
H731 C740 0.950 . S
H732 C742 0.950 . S
H733 C744 0.950 1_455 S
H734 C746 0.950 . S
H735 C747 0.950 . S
C736 H728 0.950 . S
C736 C737 1.386 . S
C736 C738 1.391 . S
C737 C736 1.386 . S
C737 C741 1.393 . S
C738 H730 0.950 1_455 S
C738 C736 1.391 . S
C738 C739 1.400 . S
C739 C738 1.400 . S
C739 C740 1.398 . S
C739 C745 1.491 1_455 S
C740 H731 0.950 . S
C740 C739 1.398 . S
C740 C741 1.391 . S
C741 H729 0.950 . S
C741 C737 1.393 . S
C741 C740 1.391 . S
C742 H732 0.950 . S
C742 C743 1.386 . S
C742 C744 1.391 . S
C743 C742 1.386 . S
C743 C747 1.393 . S
C744 H733 0.950 1_655 S
C744 C742 1.391 . S
C744 C745 1.400 . S
C745 C739 1.491 1_655 S
C745 C744 1.400 . S
C745 C746 1.398 . S
C746 H734 0.950 . S
C746 C745 1.398 . S
C746 C747 1.391 . S
C747 H735 0.950 . S
C747 C743 1.393 . S
C747 C746 1.391 . S
H748 C756 0.950 . S
H749 C761 0.950 . S
H750 C758 0.950 1_565 S
H751 C760 0.950 . S
H752 C762 0.950 . S
H753 C764 0.950 1_545 S
H754 C766 0.950 . S
H755 C767 0.950 . S
C756 H748 0.950 . S
C756 C757 1.386 . S
C756 C758 1.391 . S
C757 C756 1.386 . S
C757 C761 1.393 . S
C758 H750 0.950 1_545 S
C758 C756 1.391 . S
C758 C759 1.400 . S
C759 C758 1.400 . S
C759 C760 1.398 . S
C759 C765 1.491 1_545 S
C760 H751 0.950 . S
C760 C759 1.398 . S
C760 C761 1.391 . S
C761 H749 0.950 . S
C761 C757 1.393 . S
C761 C760 1.391 . S
C762 H752 0.950 . S
C762 C763 1.386 . S
C762 C764 1.391 . S
C763 C762 1.386 . S
C763 C767 1.393 . S
C764 H753 0.950 1_565 S
C764 C762 1.391 . S
C764 C765 1.400 . S
C765 C759 1.491 1_565 S
C765 C764 1.400 . S
C765 C766 1.398 . S
C766 H754 0.950 . S
C766 C765 1.398 . S
C766 C767 1.391 . S
C767 H755 0.950 . S
C767 C763 1.393 . S
C767 C766 1.391 . S
H768 C776 0.950 . S
H769 C781 0.950 . S
H770 C778 0.950 . S
H771 C780 0.950 . S
H772 C782 0.950 . S
H773 C784 0.950 . S
H774 C786 0.950 . S
H775 C787 0.950 . S
C776 H768 0.950 . S
C776 C777 1.386 . S
C776 C778 1.391 . S
C777 C776 1.386 . S
C777 C781 1.393 . S
C778 H770 0.950 . S
C778 C776 1.391 . S
C778 C779 1.400 . S
C779 C778 1.400 . S
C779 C780 1.398 . S
C779 C785 1.491 1_455 S
C780 H771 0.950 . S
C780 C779 1.398 . S
C780 C781 1.391 . S
C781 H769 0.950 . S
C781 C777 1.393 . S
C781 C780 1.391 . S
C782 H772 0.950 . S
C782 C783 1.386 . S
C782 C784 1.391 . S
C783 C782 1.386 . S
C783 C787 1.393 . S
C784 H773 0.950 . S
C784 C782 1.391 . S
C784 C785 1.400 . S
C785 C779 1.491 1_655 S
C785 C784 1.400 . S
C785 C786 1.398 . S
C786 H774 0.950 . S
C786 C785 1.398 . S
C786 C787 1.391 . S
C787 H775 0.950 . S
C787 C783 1.393 . S
C787 C786 1.391 . S
H788 C796 0.950 . S
H789 C801 0.950 . S
H790 C798 0.950 . S
H791 C800 0.950 . S
H792 C802 0.950 . S
H793 C804 0.950 . S
H794 C806 0.950 . S
H795 C807 0.950 . S
C796 H788 0.950 . S
C796 C797 1.386 . S
C796 C798 1.391 . S
C797 C796 1.386 . S
C797 C801 1.393 . S
C798 H790 0.950 . S
C798 C796 1.391 . S
C798 C799 1.400 . S
C799 C798 1.400 . S
C799 C800 1.398 . S
C799 C805 1.491 1_565 S
C800 H791 0.950 . S
C800 C799 1.398 . S
C800 C801 1.391 . S
C801 H789 0.950 . S
C801 C797 1.393 . S
C801 C800 1.391 . S
C802 H792 0.950 . S
C802 C803 1.386 . S
C802 C804 1.391 . S
C803 C802 1.386 . S
C803 C807 1.393 . S
C804 H793 0.950 . S
C804 C802 1.391 . S
C804 C805 1.400 . S
C805 C799 1.491 1_545 S
C805 C804 1.400 . S
C805 C806 1.398 . S
C806 H794 0.950 . S
C806 C805 1.398 . S
C806 C807 1.391 . S
C807 H795 0.950 . S
C807 C803 1.393 . S
C807 C806 1.391 . S
H808 C816 0.950 . S
H809 C821 0.950 . S
H810 C818 0.950 1_455 S
H811 C820 0.950 . S
H812 C822 0.950 . S
H813 C824 0.950 1_655 S
H814 C826 0.950 . S
H815 C827 0.950 . S
C816 H808 0.950 . S
C816 C817 1.386 . S
C816 C818 1.391 . S
C817 C816 1.386 . S
C817 C821 1.393 . S
C818 H810 0.950 1_655 S
C818 C816 1.391 . S
C818 C819 1.400 . S
C819 C818 1.400 . S
C819 C820 1.398 . S
C819 C825 1.491 1_655 S
C820 H811 0.950 . S
C820 C819 1.398 . S
C820 C821 1.391 . S
C821 H809 0.950 . S
C821 C817 1.393 . S
C821 C820 1.391 . S
C822 H812 0.950 . S
C822 C823 1.386 . S
C822 C824 1.391 . S
C823 C822 1.386 . S
C823 C827 1.393 . S
C824 H813 0.950 1_455 S
C824 C822 1.391 . S
C824 C825 1.400 . S
C825 C819 1.491 1_455 S
C825 C824 1.400 . S
C825 C826 1.398 . S
C826 H814 0.950 . S
C826 C825 1.398 . S
C826 C827 1.391 . S
C827 H815 0.950 . S
C827 C823 1.393 . S
C827 C826 1.391 . S
H828 C836 0.950 . S
H829 C841 0.950 . S
H830 C838 0.950 . S
H831 C840 0.950 . S
H832 C842 0.950 . S
H833 C844 0.950 . S
H834 C846 0.950 . S
H835 C847 0.950 . S
C836 H828 0.950 . S
C836 C837 1.386 . S
C836 C838 1.391 . S
C837 C836 1.386 . S
C837 C841 1.393 . S
C838 H830 0.950 . S
C838 C836 1.391 . S
C838 C839 1.400 . S
C839 C838 1.400 . S
C839 C840 1.398 . S
C839 C845 1.491 1_545 S
C840 H831 0.950 . S
C840 C839 1.398 . S
C840 C841 1.391 . S
C841 H829 0.950 . S
C841 C837 1.393 . S
C841 C840 1.391 . S
C842 H832 0.950 . S
C842 C843 1.386 . S
C842 C844 1.391 . S
C843 C842 1.386 . S
C843 C847 1.393 . S
C844 H833 0.950 . S
C844 C842 1.391 . S
C844 C845 1.400 . S
C845 C839 1.491 1_565 S
C845 C844 1.400 . S
C845 C846 1.398 . S
C846 H834 0.950 . S
C846 C845 1.398 . S
C846 C847 1.391 . S
C847 H835 0.950 . S
C847 C843 1.393 . S
C847 C846 1.391 . S
H848 C856 0.950 . S
H849 C861 0.950 . S
H850 C858 0.950 . S
H851 C860 0.950 . S
H852 C862 0.950 . S
H853 C864 0.950 . S
H854 C866 0.950 . S
H855 C867 0.950 . S
C856 H848 0.950 . S
C856 C857 1.386 . S
C856 C858 1.391 . S
C857 C856 1.386 . S
C857 C861 1.393 . S
C858 H850 0.950 . S
C858 C856 1.391 . S
C858 C859 1.400 . S
C859 C858 1.400 . S
C859 C860 1.398 . S
C859 C865 1.491 . S
C860 H851 0.950 . S
C860 C859 1.398 . S
C860 C861 1.391 . S
C861 H849 0.950 . S
C861 C857 1.393 . S
C861 C860 1.391 . S
C862 H852 0.950 . S
C862 C863 1.386 . S
C862 C864 1.391 . S
C863 C862 1.386 . S
C863 C867 1.393 . S
C864 H853 0.950 . S
C864 C862 1.391 . S
C864 C865 1.400 . S
C865 C859 1.491 . S
C865 C864 1.400 . S
C865 C866 1.398 . S
C866 H854 0.950 . S
C866 C865 1.398 . S
C866 C867 1.391 . S
C867 H855 0.950 . S
C867 C863 1.393 . S
C867 C866 1.391 . S
H868 C876 0.950 . S
H869 C881 0.950 . S
H870 C878 0.950 . S
H871 C880 0.950 . S
H872 C882 0.950 . S
H873 C884 0.950 . S
H874 C886 0.950 . S
H875 C887 0.950 . S
C876 H868 0.950 . S
C876 C877 1.386 . S
C876 C878 1.391 . S
C877 C876 1.386 . S
C877 C881 1.393 . S
C878 H870 0.950 . S
C878 C876 1.391 . S
C878 C879 1.400 . S
C879 C878 1.400 . S
C879 C880 1.398 . S
C879 C885 1.491 . S
C880 H871 0.950 . S
C880 C879 1.398 . S
C880 C881 1.391 . S
C881 H869 0.950 . S
C881 C877 1.393 . S
C881 C880 1.391 . S
C882 H872 0.950 . S
C882 C883 1.386 . S
C882 C884 1.391 . S
C883 C882 1.386 . S
C883 C887 1.393 . S
C884 H873 0.950 . S
C884 C882 1.391 . S
C884 C885 1.400 . S
C885 C879 1.491 . S
C885 C884 1.400 . S
C885 C886 1.398 . S
C886 H874 0.950 . S
C886 C885 1.398 . S
C886 C887 1.391 . S
C887 H875 0.950 . S
C887 C883 1.393 . S
C887 C886 1.391 . S
H888 C896 0.950 . S
H889 C901 0.950 . S
H890 C898 0.950 . S
H891 C900 0.950 . S
H892 C902 0.950 . S
H893 C904 0.950 . S
H894 C906 0.950 . S
H895 C907 0.950 . S
C896 H888 0.950 . S
C896 C897 1.386 . S
C896 C898 1.391 . S
C897 C896 1.386 . S
C897 C901 1.393 . S
C898 H890 0.950 . S
C898 C896 1.391 . S
C898 C899 1.400 . S
C899 C898 1.400 . S
C899 C900 1.398 . S
C899 C905 1.491 . S
C900 H891 0.950 . S
C900 C899 1.398 . S
C900 C901 1.391 . S
C901 H889 0.950 . S
C901 C897 1.393 . S
C901 C900 1.391 . S
C902 H892 0.950 . S
C902 C903 1.386 . S
C902 C904 1.391 . S
C903 C902 1.386 . S
C903 C907 1.393 . S
C904 H893 0.950 . S
C904 C902 1.391 . S
C904 C905 1.400 . S
C905 C899 1.491 . S
C905 C904 1.400 . S
C905 C906 1.398 . S
C906 H894 0.950 . S
C906 C905 1.398 . S
C906 C907 1.391 . S
C907 H895 0.950 . S
C907 C903 1.393 . S
C907 C906 1.391 . S
H908 C916 0.950 . S
H909 C921 0.950 . S
H910 C918 0.950 . S
H911 C920 0.950 . S
H912 C922 0.950 . S
H913 C924 0.950 . S
H914 C926 0.950 . S
H915 C927 0.950 . S
C916 H908 0.950 . S
C916 C917 1.386 . S
C916 C918 1.391 . S
C917 C916 1.386 . S
C917 C921 1.393 . S
C918 H910 0.950 . S
C918 C916 1.391 . S
C918 C919 1.400 . S
C919 C918 1.400 . S
C919 C920 1.398 . S
C919 C925 1.491 . S
C920 H911 0.950 . S
C920 C919 1.398 . S
C920 C921 1.391 . S
C921 H909 0.950 . S
C921 C917 1.393 . S
C921 C920 1.391 . S
C922 H912 0.950 . S
C922 C923 1.386 . S
C922 C924 1.391 . S
C923 C922 1.386 . S
C923 C927 1.393 . S
C924 H913 0.950 . S
C924 C922 1.391 . S
C924 C925 1.400 . S
C925 C919 1.491 . S
C925 C924 1.400 . S
C925 C926 1.398 . S
C926 H914 0.950 . S
C926 C925 1.398 . S
C926 C927 1.391 . S
C927 H915 0.950 . S
C927 C923 1.393 . S
C927 C926 1.391 . S
H928 C936 0.950 . S
H929 C941 0.950 . S
H930 C938 0.950 . S
H931 C940 0.950 . S
H932 C942 0.950 . S
H933 C944 0.950 . S
H934 C946 0.950 . S
H935 C947 0.950 . S
C936 H928 0.950 . S
C936 C937 1.386 . S
C936 C938 1.391 . S
C937 C936 1.386 . S
C937 C941 1.393 . S
C938 H930 0.950 . S
C938 C936 1.391 . S
C938 C939 1.400 . S
C939 C938 1.400 . S
C939 C940 1.398 . S
C939 C945 1.491 . S
C940 H931 0.950 . S
C940 C939 1.398 . S
C940 C941 1.391 . S
C941 H929 0.950 . S
C941 C937 1.393 . S
C941 C940 1.391 . S
C942 H932 0.950 . S
C942 C943 1.386 . S
C942 C944 1.391 . S
C943 C942 1.386 . S
C943 C947 1.393 . S
C944 H933 0.950 . S
C944 C942 1.391 . S
C944 C945 1.400 . S
C945 C939 1.491 . S
C945 C944 1.400 . S
C945 C946 1.398 . S
C946 H934 0.950 . S
C946 C945 1.398 . S
C946 C947 1.391 . S
C947 H935 0.950 . S
C947 C943 1.393 . S
C947 C946 1.391 . S
H948 C956 0.950 . S
H949 C961 0.950 . S
H950 C958 0.950 . S
H951 C960 0.950 . S
H952 C962 0.950 . S
H953 C964 0.950 . S
H954 C966 0.950 . S
H955 C967 0.950 . S
C956 H948 0.950 . S
C956 C957 1.386 . S
C956 C958 1.391 . S
C957 C956 1.386 . S
C957 C961 1.393 . S
C958 H950 0.950 . S
C958 C956 1.391 . S
C958 C959 1.400 . S
C959 C958 1.400 . S
C959 C960 1.398 . S
C959 C965 1.491 . S
C960 H951 0.950 . S
C960 C959 1.398 . S
C960 C961 1.391 . S
C961 H949 0.950 . S
C961 C957 1.393 . S
C961 C960 1.391 . S
C962 H952 0.950 . S
C962 C963 1.386 . S
C962 C964 1.391 . S
C963 C962 1.386 . S
C963 C967 1.393 . S
C964 H953 0.950 . S
C964 C962 1.391 . S
C964 C965 1.400 . S
C965 C959 1.491 . S
C965 C964 1.400 . S
C965 C966 1.398 . S
C966 H954 0.950 . S
C966 C965 1.398 . S
C966 C967 1.391 . S
C967 H955 0.950 . S
C967 C963 1.393 . S
C967 C966 1.391 . S
H968 C976 0.950 . S
H969 C981 0.950 . S
H970 C978 0.950 . S
H971 C980 0.950 . S
H972 C982 0.950 . S
H973 C984 0.950 . S
H974 C986 0.950 . S
H975 C987 0.950 . S
C976 H968 0.950 . S
C976 C977 1.386 . S
C976 C978 1.391 . S
C977 C976 1.386 . S
C977 C981 1.393 . S
C978 H970 0.950 . S
C978 C976 1.391 . S
C978 C979 1.400 . S
C979 C978 1.400 . S
C979 C980 1.398 . S
C979 C985 1.491 . S
C980 H971 0.950 . S
C980 C979 1.398 . S
C980 C981 1.391 . S
C981 H969 0.950 . S
C981 C977 1.393 . S
C981 C980 1.391 . S
C982 H972 0.950 . S
C982 C983 1.386 . S
C982 C984 1.391 . S
C983 C982 1.386 . S
C983 C987 1.393 . S
C984 H973 0.950 . S
C984 C982 1.391 . S
C984 C985 1.400 . S
C985 C979 1.491 . S
C985 C984 1.400 . S
C985 C986 1.398 . S
C986 H974 0.950 . S
C986 C985 1.398 . S
C986 C987 1.391 . S
C987 H975 0.950 . S
C987 C983 1.393 . S
C987 C986 1.391 . S
H988 C996 0.950 . S
H989 C1001 0.950 . S
H990 C998 0.950 . S
H991 C1000 0.950 . S
H992 C1002 0.950 . S
H993 C1004 0.950 . S
H994 C1006 0.950 . S
H995 C1007 0.950 . S
C996 H988 0.950 . S
C996 C997 1.386 . S
C996 C998 1.391 . S
C997 C996 1.386 . S
C997 C1001 1.393 . S
C998 H990 0.950 . S
C998 C996 1.391 . S
C998 C999 1.400 . S
C999 C998 1.400 . S
C999 C1000 1.398 . S
C999 C1005 1.491 . S
C1000 H991 0.950 . S
C1000 C999 1.398 . S
C1000 C1001 1.391 . S
C1001 H989 0.950 . S
C1001 C997 1.393 . S
C1001 C1000 1.391 . S
C1002 H992 0.950 . S
C1002 C1003 1.386 . S
C1002 C1004 1.391 . S
C1003 C1002 1.386 . S
C1003 C1007 1.393 . S
C1004 H993 0.950 . S
C1004 C1002 1.391 . S
C1004 C1005 1.400 . S
C1005 C999 1.491 . S
C1005 C1004 1.400 . S
C1005 C1006 1.398 . S
C1006 H994 0.950 . S
C1006 C1005 1.398 . S
C1006 C1007 1.391 . S
C1007 H995 0.950 . S
C1007 C1003 1.393 . S
C1007 C1006 1.391 . S
H1008 C1016 0.950 . S
H1009 C1021 0.950 . S
H1010 C1018 0.950 . S
H1011 C1020 0.950 . S
H1012 C1022 0.950 . S
H1013 C1024 0.950 . S
H1014 C1026 0.950 . S
H1015 C1027 0.950 . S
C1016 H1008 0.950 . S
C1016 C1017 1.386 . S
C1016 C1018 1.391 . S
C1017 C1016 1.386 . S
C1017 C1021 1.393 . S
C1018 H1010 0.950 . S
C1018 C1016 1.391 . S
C1018 C1019 1.400 . S
C1019 C1018 1.400 . S
C1019 C1020 1.398 . S
C1019 C1025 1.491 . S
C1020 H1011 0.950 . S
C1020 C1019 1.398 . S
C1020 C1021 1.391 . S
C1021 H1009 0.950 . S
C1021 C1017 1.393 . S
C1021 C1020 1.391 . S
C1022 H1012 0.950 . S
C1022 C1023 1.386 . S
C1022 C1024 1.391 . S
C1023 C1022 1.386 . S
C1023 C1027 1.393 . S
C1024 H1013 0.950 . S
C1024 C1022 1.391 . S
C1024 C1025 1.400 . S
C1025 C1019 1.491 . S
C1025 C1024 1.400 . S
C1025 C1026 1.398 . S
C1026 H1014 0.950 . S
C1026 C1025 1.398 . S
C1026 C1027 1.391 . S
C1027 H1015 0.950 . S
C1027 C1023 1.393 . S
C1027 C1026 1.391 . S
H1028 C1036 0.950 . S
H1029 C1041 0.950 . S
H1030 C1038 0.950 . S
H1031 C1040 0.950 . S
H1032 C1042 0.950 . S
H1033 C1044 0.950 . S
H1034 C1046 0.950 . S
H1035 C1047 0.950 . S
C1036 H1028 0.950 . S
C1036 C1037 1.386 . S
C1036 C1038 1.391 . S
C1037 C1036 1.386 . S
C1037 C1041 1.393 . S
C1038 H1030 0.950 . S
C1038 C1036 1.391 . S
C1038 C1039 1.400 . S
C1039 C1038 1.400 . S
C1039 C1040 1.398 . S
C1039 C1045 1.491 . S
C1040 H1031 0.950 . S
C1040 C1039 1.398 . S
C1040 C1041 1.391 . S
C1041 H1029 0.950 . S
C1041 C1037 1.393 . S
C1041 C1040 1.391 . S
C1042 H1032 0.950 . S
C1042 C1043 1.386 . S
C1042 C1044 1.391 . S
C1043 C1042 1.386 . S
C1043 C1047 1.393 . S
C1044 H1033 0.950 . S
C1044 C1042 1.391 . S
C1044 C1045 1.400 . S
C1045 C1039 1.491 . S
C1045 C1044 1.400 . S
C1045 C1046 1.398 . S
C1046 H1034 0.950 . S
C1046 C1045 1.398 . S
C1046 C1047 1.391 . S
C1047 H1035 0.950 . S
C1047 C1043 1.393 . S
C1047 C1046 1.391 . S
H1048 C1056 0.950 . S
H1049 C1061 0.950 . S
H1050 C1058 0.950 . S
H1051 C1060 0.950 . S
H1052 C1062 0.950 . S
H1053 C1064 0.950 . S
H1054 C1066 0.950 . S
H1055 C1067 0.950 . S
C1056 H1048 0.950 . S
C1056 C1057 1.386 . S
C1056 C1058 1.391 . S
C1057 C1056 1.386 . S
C1057 C1061 1.393 . S
C1058 H1050 0.950 . S
C1058 C1056 1.391 . S
C1058 C1059 1.400 . S
C1059 C1058 1.400 . S
C1059 C1060 1.398 . S
C1059 C1065 1.491 . S
C1060 H1051 0.950 . S
C1060 C1059 1.398 . S
C1060 C1061 1.391 . S
C1061 H1049 0.950 . S
C1061 C1057 1.393 . S
C1061 C1060 1.391 . S
C1062 H1052 0.950 . S
C1062 C1063 1.386 . S
C1062 C1064 1.391 . S
C1063 C1062 1.386 . S
C1063 C1067 1.393 . S
C1064 H1053 0.950 . S
C1064 C1062 1.391 . S
C1064 C1065 1.400 . S
C1065 C1059 1.491 . S
C1065 C1064 1.400 . S
C1065 C1066 1.398 . S
C1066 H1054 0.950 . S
C1066 C1065 1.398 . S
C1066 C1067 1.391 . S
C1067 H1055 0.950 . S
C1067 C1063 1.393 . S
C1067 C1066 1.391 . S
H1068 C1076 0.950 . S
H1069 C1081 0.950 . S
H1070 C1078 0.950 . S
H1071 C1080 0.950 . S
H1072 C1082 0.950 . S
H1073 C1084 0.950 . S
H1074 C1086 0.950 . S
H1075 C1087 0.950 . S
C1076 H1068 0.950 . S
C1076 C1077 1.386 . S
C1076 C1078 1.391 . S
C1077 C1076 1.386 . S
C1077 C1081 1.393 . S
C1078 H1070 0.950 . S
C1078 C1076 1.391 . S
C1078 C1079 1.400 . S
C1079 C1078 1.400 . S
C1079 C1080 1.398 . S
C1079 C1085 1.491 . S
C1080 H1071 0.950 . S
C1080 C1079 1.398 . S
C1080 C1081 1.391 . S
C1081 H1069 0.950 . S
C1081 C1077 1.393 . S
C1081 C1080 1.391 . S
C1082 H1072 0.950 . S
C1082 C1083 1.386 . S
C1082 C1084 1.391 . S
C1083 C1082 1.386 . S
C1083 C1087 1.393 . S
C1084 H1073 0.950 . S
C1084 C1082 1.391 . S
C1084 C1085 1.400 . S
C1085 C1079 1.491 . S
C1085 C1084 1.400 . S
C1085 C1086 1.398 . S
C1086 H1074 0.950 . S
C1086 C1085 1.398 . S
C1086 C1087 1.391 . S
C1087 H1075 0.950 . S
C1087 C1083 1.393 . S
C1087 C1086 1.391 . S
H1088 C1096 0.950 . S
H1089 C1101 0.950 . S
H1090 C1098 0.950 . S
H1091 C1100 0.950 . S
H1092 C1102 0.950 . S
H1093 C1104 0.950 . S
H1094 C1106 0.950 . S
H1095 C1107 0.950 . S
C1096 H1088 0.950 . S
C1096 C1097 1.386 . S
C1096 C1098 1.391 . S
C1097 C1096 1.386 . S
C1097 C1101 1.393 . S
C1098 H1090 0.950 . S
C1098 C1096 1.391 . S
C1098 C1099 1.400 . S
C1099 C1098 1.400 . S
C1099 C1100 1.398 . S
C1099 C1105 1.491 . S
C1100 H1091 0.950 . S
C1100 C1099 1.398 . S
C1100 C1101 1.391 . S
C1101 H1089 0.950 . S
C1101 C1097 1.393 . S
C1101 C1100 1.391 . S
C1102 H1092 0.950 . S
C1102 C1103 1.386 . S
C1102 C1104 1.391 . S
C1103 C1102 1.386 . S
C1103 C1107 1.393 . S
C1104 H1093 0.950 . S
C1104 C1102 1.391 . S
C1104 C1105 1.400 . S
C1105 C1099 1.491 . S
C1105 C1104 1.400 . S
C1105 C1106 1.398 . S
C1106 H1094 0.950 . S
C1106 C1105 1.398 . S
C1106 C1107 1.391 . S
C1107 H1095 0.950 . S
C1107 C1103 1.393 . S
C1107 C1106 1.391 . S
H1108 C1116 0.950 . S
H1109 C1121 0.950 . S
H1110 C1118 0.950 . S
H1111 C1120 0.950 . S
H1112 C1122 0.950 . S
H1113 C1124 0.950 . S
H1114 C1126 0.950 . S
H1115 C1127 0.950 . S
C1116 H1108 0.950 . S
C1116 C1117 1.386 . S
C1116 C1118 1.391 . S
C1117 C1116 1.386 . S
C1117 C1121 1.393 . S
C1118 H1110 0.950 . S
C1118 C1116 1.391 . S
C1118 C1119 1.400 . S
C1119 C1118 1.400 . S
C1119 C1120 1.398 . S
C1119 C1125 1.491 . S
C1120 H1111 0.950 . S
C1120 C1119 1.398 . S
C1120 C1121 1.391 . S
C1121 H1109 0.950 . S
C1121 C1117 1.393 . S
C1121 C1120 1.391 . S
C1122 H1112 0.950 . S
C1122 C1123 1.386 . S
C1122 C1124 1.391 . S
C1123 C1122 1.386 . S
C1123 C1127 1.393 . S
C1124 H1113 0.950 . S
C1124 C1122 1.391 . S
C1124 C1125 1.400 . S
C1125 C1119 1.491 . S
C1125 C1124 1.400 . S
C1125 C1126 1.398 . S
C1126 H1114 0.950 . S
C1126 C1125 1.398 . S
C1126 C1127 1.391 . S
C1127 H1115 0.950 . S
C1127 C1123 1.393 . S
C1127 C1126 1.391 . S
H1128 C1136 0.950 . S
H1129 C1141 0.950 . S
H1130 C1138 0.950 . S
H1131 C1140 0.950 . S
H1132 C1142 0.950 . S
H1133 C1144 0.950 . S
H1134 C1146 0.950 . S
H1135 C1147 0.950 . S
C1136 H1128 0.950 . S
C1136 C1137 1.386 . S
C1136 C1138 1.391 . S
C1137 C1136 1.386 . S
C1137 C1141 1.393 . S
C1138 H1130 0.950 . S
C1138 C1136 1.391 . S
C1138 C1139 1.400 . S
C1139 C1138 1.400 . S
C1139 C1140 1.398 . S
C1139 C1145 1.491 . S
C1140 H1131 0.950 . S
C1140 C1139 1.398 . S
C1140 C1141 1.391 . S
C1141 H1129 0.950 . S
C1141 C1137 1.393 . S
C1141 C1140 1.391 . S
C1142 H1132 0.950 . S
C1142 C1143 1.386 . S
C1142 C1144 1.391 . S
C1143 C1142 1.386 . S
C1143 C1147 1.393 . S
C1144 H1133 0.950 . S
C1144 C1142 1.391 . S
C1144 C1145 1.400 . S
C1145 C1139 1.491 . S
C1145 C1144 1.400 . S
C1145 C1146 1.398 . S
C1146 H1134 0.950 . S
C1146 C1145 1.398 . S
C1146 C1147 1.391 . S
C1147 H1135 0.950 . S
C1147 C1143 1.393 . S
C1147 C1146 1.391 . S
H1148 C1156 0.950 . S
H1149 C1161 0.950 . S
H1150 C1158 0.950 . S
H1151 C1160 0.950 . S
H1152 C1162 0.950 . S
H1153 C1164 0.950 . S
H1154 C1166 0.950 . S
H1155 C1167 0.950 . S
C1156 H1148 0.950 . S
C1156 C1157 1.386 . S
C1156 C1158 1.391 . S
C1157 C1156 1.386 . S
C1157 C1161 1.393 . S
C1158 H1150 0.950 . S
C1158 C1156 1.391 . S
C1158 C1159 1.400 . S
C1159 C1158 1.400 . S
C1159 C1160 1.398 . S
C1159 C1165 1.491 . S
C1160 H1151 0.950 . S
C1160 C1159 1.398 . S
C1160 C1161 1.391 . S
C1161 H1149 0.950 . S
C1161 C1157 1.393 . S
C1161 C1160 1.391 . S
C1162 H1152 0.950 . S
C1162 C1163 1.386 . S
C1162 C1164 1.391 . S
C1163 C1162 1.386 . S
C1163 C1167 1.393 . S
C1164 H1153 0.950 . S
C1164 C1162 1.391 . S
C1164 C1165 1.400 . S
C1165 C1159 1.491 . S
C1165 C1164 1.400 . S
C1165 C1166 1.398 . S
C1166 H1154 0.950 . S
C1166 C1165 1.398 . S
C1166 C1167 1.391 . S
C1167 H1155 0.950 . S
C1167 C1163 1.393 . S
C1167 C1166 1.391 . S
H1168 C1176 0.950 . S
H1169 C1181 0.950 . S
H1170 C1178 0.950 . S
H1171 C1180 0.950 . S
H1172 C1182 0.950 . S
H1173 C1184 0.950 . S
H1174 C1186 0.950 . S
H1175 C1187 0.950 . S
C1176 H1168 0.950 . S
C1176 C1177 1.386 . S
C1176 C1178 1.391 . S
C1177 C1176 1.386 . S
C1177 C1181 1.393 . S
C1178 H1170 0.950 . S
C1178 C1176 1.391 . S
C1178 C1179 1.400 . S
C1179 C1178 1.400 . S
C1179 C1180 1.398 . S
C1179 C1185 1.491 . S
C1180 H1171 0.950 . S
C1180 C1179 1.398 . S
C1180 C1181 1.391 . S
C1181 H1169 0.950 . S
C1181 C1177 1.393 . S
C1181 C1180 1.391 . S
C1182 H1172 0.950 . S
C1182 C1183 1.386 . S
C1182 C1184 1.391 . S
C1183 C1182 1.386 . S
C1183 C1187 1.393 . S
C1184 H1173 0.950 . S
C1184 C1182 1.391 . S
C1184 C1185 1.400 . S
C1185 C1179 1.491 . S
C1185 C1184 1.400 . S
C1185 C1186 1.398 . S
C1186 H1174 0.950 . S
C1186 C1185 1.398 . S
C1186 C1187 1.391 . S
C1187 H1175 0.950 . S
C1187 C1183 1.393 . S
C1187 C1186 1.391 . S
H1188 C1196 0.950 . S
H1189 C1201 0.950 . S
H1190 C1198 0.950 . S
H1191 C1200 0.950 . S
H1192 C1202 0.950 . S
H1193 C1204 0.950 . S
H1194 C1206 0.950 . S
H1195 C1207 0.950 . S
C1196 H1188 0.950 . S
C1196 C1197 1.386 . S
C1196 C1198 1.391 . S
C1197 C1196 1.386 . S
C1197 C1201 1.393 . S
C1198 H1190 0.950 . S
C1198 C1196 1.391 . S
C1198 C1199 1.400 . S
C1199 C1198 1.400 . S
C1199 C1200 1.398 . S
C1199 C1205 1.491 . S
C1200 H1191 0.950 . S
C1200 C1199 1.398 . S
C1200 C1201 1.391 . S
C1201 H1189 0.950 . S
C1201 C1197 1.393 . S
C1201 C1200 1.391 . S
C1202 H1192 0.950 . S
C1202 C1203 1.386 . S
C1202 C1204 1.391 . S
C1203 C1202 1.386 . S
C1203 C1207 1.393 . S
C1204 H1193 0.950 . S
C1204 C1202 1.391 . S
C1204 C1205 1.400 . S
C1205 C1199 1.491 . S
C1205 C1204 1.400 . S
C1205 C1206 1.398 . S
C1206 H1194 0.950 . S
C1206 C1205 1.398 . S
C1206 C1207 1.391 . S
C1207 H1195 0.950 . S
C1207 C1203 1.393 . S
C1207 C1206 1.391 . S
H1208 C1216 0.950 . S
H1209 C1221 0.950 . S
H1210 C1218 0.950 . S
H1211 C1220 0.950 . S
H1212 C1222 0.950 . S
H1213 C1224 0.950 . S
H1214 C1226 0.950 . S
H1215 C1227 0.950 . S
C1216 H1208 0.950 . S
C1216 C1217 1.386 . S
C1216 C1218 1.391 . S
C1217 C1216 1.386 . S
C1217 C1221 1.393 . S
C1218 H1210 0.950 . S
C1218 C1216 1.391 . S
C1218 C1219 1.400 . S
C1219 C1218 1.400 . S
C1219 C1220 1.398 . S
C1219 C1225 1.491 . S
C1220 H1211 0.950 . S
C1220 C1219 1.398 . S
C1220 C1221 1.391 . S
C1221 H1209 0.950 . S
C1221 C1217 1.393 . S
C1221 C1220 1.391 . S
C1222 H1212 0.950 . S
C1222 C1223 1.386 . S
C1222 C1224 1.391 . S
C1223 C1222 1.386 . S
C1223 C1227 1.393 . S
C1224 H1213 0.950 . S
C1224 C1222 1.391 . S
C1224 C1225 1.400 . S
C1225 C1219 1.491 . S
C1225 C1224 1.400 . S
C1225 C1226 1.398 . S
C1226 H1214 0.950 . S
C1226 C1225 1.398 . S
C1226 C1227 1.391 . S
C1227 H1215 0.950 . S
C1227 C1223 1.393 . S
C1227 C1226 1.391 . S
H1228 C1236 0.950 . S
H1229 C1241 0.950 . S
H1230 C1238 0.950 . S
H1231 C1240 0.950 . S
H1232 C1242 0.950 . S
H1233 C1244 0.950 . S
H1234 C1246 0.950 . S
H1235 C1247 0.950 . S
C1236 H1228 0.950 . S
C1236 C1237 1.386 . S
C1236 C1238 1.391 . S
C1237 C1236 1.386 . S
C1237 C1241 1.393 . S
C1238 H1230 0.950 . S
C1238 C1236 1.391 . S
C1238 C1239 1.400 . S
C1239 C1238 1.400 . S
C1239 C1240 1.398 . S
C1239 C1245 1.491 . S
C1240 H1231 0.950 . S
C1240 C1239 1.398 . S
C1240 C1241 1.391 . S
C1241 H1229 0.950 . S
C1241 C1237 1.393 . S
C1241 C1240 1.391 . S
C1242 H1232 0.950 . S
C1242 C1243 1.386 . S
C1242 C1244 1.391 . S
C1243 C1242 1.386 . S
C1243 C1247 1.393 . S
C1244 H1233 0.950 . S
C1244 C1242 1.391 . S
C1244 C1245 1.400 . S
C1245 C1239 1.491 . S
C1245 C1244 1.400 . S
C1245 C1246 1.398 . S
C1246 H1234 0.950 . S
C1246 C1245 1.398 . S
C1246 C1247 1.391 . S
C1247 H1235 0.950 . S
C1247 C1243 1.393 . S
C1247 C1246 1.391 . S
H1248 C1256 0.950 . S
H1249 C1261 0.950 . S
H1250 C1258 0.950 . S
H1251 C1260 0.950 . S
H1252 C1262 0.950 . S
H1253 C1264 0.950 . S
H1254 C1266 0.950 . S
H1255 C1267 0.950 . S
C1256 H1248 0.950 . S
C1256 C1257 1.386 . S
C1256 C1258 1.391 . S
C1257 C1256 1.386 . S
C1257 C1261 1.393 . S
C1258 H1250 0.950 . S
C1258 C1256 1.391 . S
C1258 C1259 1.400 . S
C1259 C1258 1.400 . S
C1259 C1260 1.398 . S
C1259 C1265 1.491 . S
C1260 H1251 0.950 . S
C1260 C1259 1.398 . S
C1260 C1261 1.391 . S
C1261 H1249 0.950 . S
C1261 C1257 1.393 . S
C1261 C1260 1.391 . S
C1262 H1252 0.950 . S
C1262 C1263 1.386 . S
C1262 C1264 1.391 . S
C1263 C1262 1.386 . S
C1263 C1267 1.393 . S
C1264 H1253 0.950 . S
C1264 C1262 1.391 . S
C1264 C1265 1.400 . S
C1265 C1259 1.491 . S
C1265 C1264 1.400 . S
C1265 C1266 1.398 . S
C1266 H1254 0.950 . S
C1266 C1265 1.398 . S
C1266 C1267 1.391 . S
C1267 H1255 0.950 . S
C1267 C1263 1.393 . S
C1267 C1266 1.391 . S
H1268 C1276 0.950 . S
H1269 C1281 0.950 . S
H1270 C1278 0.950 . S
H1271 C1280 0.950 . S
H1272 C1282 0.950 . S
H1273 C1284 0.950 . S
H1274 C1286 0.950 . S
H1275 C1287 0.950 . S
C1276 H1268 0.950 . S
C1276 C1277 1.386 . S
C1276 C1278 1.391 . S
C1277 C1276 1.386 . S
C1277 C1281 1.393 . S
C1278 H1270 0.950 . S
C1278 C1276 1.391 . S
C1278 C1279 1.400 . S
C1279 C1278 1.400 . S
C1279 C1280 1.398 . S
C1279 C1285 1.491 . S
C1280 H1271 0.950 . S
C1280 C1279 1.398 . S
C1280 C1281 1.391 . S
C1281 H1269 0.950 . S
C1281 C1277 1.393 . S
C1281 C1280 1.391 . S
C1282 H1272 0.950 . S
C1282 C1283 1.386 . S
C1282 C1284 1.391 . S
C1283 C1282 1.386 . S
C1283 C1287 1.393 . S
C1284 H1273 0.950 . S
C1284 C1282 1.391 . S
C1284 C1285 1.400 . S
C1285 C1279 1.491 . S
C1285 C1284 1.400 . S
C1285 C1286 1.398 . S
C1286 H1274 0.950 . S
C1286 C1285 1.398 . S
C1286 C1287 1.391 . S
C1287 H1275 0.950 . S
C1287 C1283 1.393 . S
C1287 C1286 1.391 . S
H1288 C1296 0.950 . S
H1289 C1301 0.950 . S
H1290 C1298 0.950 . S
H1291 C1300 0.950 . S
H1292 C1302 0.950 . S
H1293 C1304 0.950 . S
H1294 C1306 0.950 . S
H1295 C1307 0.950 . S
C1296 H1288 0.950 . S
C1296 C1297 1.386 . S
C1296 C1298 1.391 . S
C1297 C1296 1.386 . S
C1297 C1301 1.393 . S
C1298 H1290 0.950 . S
C1298 C1296 1.391 . S
C1298 C1299 1.400 . S
C1299 C1298 1.400 . S
C1299 C1300 1.398 . S
C1299 C1305 1.491 . S
C1300 H1291 0.950 . S
C1300 C1299 1.398 . S
C1300 C1301 1.391 . S
C1301 H1289 0.950 . S
C1301 C1297 1.393 . S
C1301 C1300 1.391 . S
C1302 H1292 0.950 . S
C1302 C1303 1.386 . S
C1302 C1304 1.391 . S
C1303 C1302 1.386 . S
C1303 C1307 1.393 . S
C1304 H1293 0.950 . S
C1304 C1302 1.391 . S
C1304 C1305 1.400 . S
C1305 C1299 1.491 . S
C1305 C1304 1.400 . S
C1305 C1306 1.398 . S
C1306 H1294 0.950 . S
C1306 C1305 1.398 . S
C1306 C1307 1.391 . S
C1307 H1295 0.950 . S
C1307 C1303 1.393 . S
C1307 C1306 1.391 . S
H1308 C1316 0.950 . S
H1309 C1321 0.950 . S
H1310 C1318 0.950 . S
H1311 C1320 0.950 . S
H1312 C1322 0.950 . S
H1313 C1324 0.950 . S
H1314 C1326 0.950 . S
H1315 C1327 0.950 . S
C1316 H1308 0.950 . S
C1316 C1317 1.386 . S
C1316 C1318 1.391 . S
C1317 C1316 1.386 . S
C1317 C1321 1.393 . S
C1318 H1310 0.950 . S
C1318 C1316 1.391 . S
C1318 C1319 1.400 . S
C1319 C1318 1.400 . S
C1319 C1320 1.398 . S
C1319 C1325 1.491 . S
C1320 H1311 0.950 . S
C1320 C1319 1.398 . S
C1320 C1321 1.391 . S
C1321 H1309 0.950 . S
C1321 C1317 1.393 . S
C1321 C1320 1.391 . S
C1322 H1312 0.950 . S
C1322 C1323 1.386 . S
C1322 C1324 1.391 . S
C1323 C1322 1.386 . S
C1323 C1327 1.393 . S
C1324 H1313 0.950 . S
C1324 C1322 1.391 . S
C1324 C1325 1.400 . S
C1325 C1319 1.491 . S
C1325 C1324 1.400 . S
C1325 C1326 1.398 . S
C1326 H1314 0.950 . S
C1326 C1325 1.398 . S
C1326 C1327 1.391 . S
C1327 H1315 0.950 . S
C1327 C1323 1.393 . S
C1327 C1326 1.391 . S
C537 C21 1.207 . S
C543 C516 1.217 . S
C557 C417 1.218 . S
C563 C54 1.206 . S
C577 C450 1.216 . S
C583 C87 1.208 . S
C597 C483 1.219 . S
C603 C120 1.205 . S
C617 C153 1.211 . S
C623 C318 1.212 . S
C637 C351 1.218 . S
C643 C186 1.205 . S
C657 C384 1.219 . S
C663 C219 1.204 . S
C677 C252 1.218 . S
C683 C285 1.205 . S
C697 C216 1.947 . S
C703 C18 1.945 . S
C717 C249 1.951 . S
C723 C51 1.945 . S
C737 C150 1.951 . S
C743 C84 1.945 . S
C757 C183 1.950 . S
C763 C117 1.945 . S
C777 N145 0.821 . S
C783 N79 0.828 . S
C797 N112 0.847 . S
C803 N178 0.855 . S
C817 N211 0.858 . S
C823 N13 0.825 . S
C837 N46 0.846 . S
C843 N244 0.855 . S
C857 C282 1.948 . S
C863 C480 1.947 . S
C877 C513 1.945 . S
C883 C315 1.950 . S
C897 C414 1.949 . S
C903 C348 1.947 . S
C917 C447 1.952 . S
C923 C381 1.949 . S
C937 N409 0.827 . S
C943 N343 0.859 . S
C957 N442 0.829 . S
C963 N376 0.819 . S
C977 N277 0.827 . S
C983 N475 0.859 . S
C997 N310 0.853 . S
C1003 N508 0.849 . S
C1017 N167 0.842 . S
C1023 N2 0.831 . S
C1037 N35 0.829 . S
C1043 N200 0.850 . S
C1057 N233 0.855 . S
C1063 N68 0.866 . S
C1077 N101 0.835 . S
C1083 N134 0.864 . S
C1097 C73 2.202 . S
C1103 C238 2.213 . S
C1117 C139 2.201 . S
C1123 C106 2.209 . S
C1137 C172 2.206 . S
C1143 C7 2.203 . S
C1157 C40 2.207 . S
C1163 C205 2.203 . S
C1177 N431 0.852 . S
C1183 N266 0.868 . S
C1197 N299 0.830 . S
C1203 N464 0.856 . S
C1217 N497 0.840 . S
C1223 N332 0.833 . S
C1237 N365 0.868 . S
C1243 N398 0.846 . S
C1257 C502 2.205 . S
C1263 C337 2.209 . S
C1277 C370 2.201 . S
C1283 C403 2.208 . S
C1297 C436 2.206 . S
C1303 C271 2.208 . S
C1317 C304 2.206 . S
C1323 C469 2.201 . S
