# Generated by pormake.
# Topology wjl, (5)-cn, num edge types: 1
# Building blocks:
#     Node 0, Type 0, BuildingBlock: XOMCOT_clean_sbu_1, # of connection points: 5
#     Node 1, Type 0, BuildingBlock: XOMCOT_clean_sbu_1, # of connection points: 5
#     Node 2, Type 0, BuildingBlock: XOMCOT_clean_sbu_1, # of connection points: 5
#     Node 3, Type 0, BuildingBlock: XOMCOT_clean_sbu_1, # of connection points: 5
#     Node 4, Type 0, BuildingBlock: XOMCOT_clean_sbu_1, # of connection points: 5
#     Node 5, Type 0, BuildingBlock: XOMCOT_clean_sbu_1, # of connection points: 5
#     Node 6, Type 0, BuildingBlock: XOMCOT_clean_sbu_1, # of connection points: 5
#     Node 7, Type 0, BuildingBlock: XOMCOT_clean_sbu_1, # of connection points: 5
#     Node 8, Type 0, BuildingBlock: XOMCOT_clean_sbu_1, # of connection points: 5
#     Node 9, Type 0, BuildingBlock: XOMCOT_clean_sbu_1, # of connection points: 5
#     Node 10, Type 0, BuildingBlock: XOMCOT_clean_sbu_1, # of connection points: 5
#     Node 11, Type 0, BuildingBlock: XOMCOT_clean_sbu_1, # of connection points: 5
#     Edge 12, Type (0, 0), BuildingBlock: XIVTED_clean_linker_0, # of connection points: 2
#     Edge 13, Type (0, 0), BuildingBlock: XIVTED_clean_linker_0, # of connection points: 2
#     Edge 14, Type (0, 0), BuildingBlock: XIVTED_clean_linker_0, # of connection points: 2
#     Edge 15, Type (0, 0), BuildingBlock: XIVTED_clean_linker_0, # of connection points: 2
#     Edge 16, Type (0, 0), BuildingBlock: XIVTED_clean_linker_0, # of connection points: 2
#     Edge 17, Type (0, 0), BuildingBlock: XIVTED_clean_linker_0, # of connection points: 2
#     Edge 18, Type (0, 0), BuildingBlock: XIVTED_clean_linker_0, # of connection points: 2
#     Edge 19, Type (0, 0), BuildingBlock: XIVTED_clean_linker_0, # of connection points: 2
#     Edge 20, Type (0, 0), BuildingBlock: XIVTED_clean_linker_0, # of connection points: 2
#     Edge 21, Type (0, 0), BuildingBlock: XIVTED_clean_linker_0, # of connection points: 2
#     Edge 22, Type (0, 0), BuildingBlock: XIVTED_clean_linker_0, # of connection points: 2
#     Edge 23, Type (0, 0), BuildingBlock: XIVTED_clean_linker_0, # of connection points: 2
#     Edge 24, Type (0, 0), BuildingBlock: XIVTED_clean_linker_0, # of connection points: 2
#     Edge 25, Type (0, 0), BuildingBlock: XIVTED_clean_linker_0, # of connection points: 2
#     Edge 26, Type (0, 0), BuildingBlock: XIVTED_clean_linker_0, # of connection points: 2
#     Edge 27, Type (0, 0), BuildingBlock: XIVTED_clean_linker_0, # of connection points: 2
#     Edge 28, Type (0, 0), BuildingBlock: XIVTED_clean_linker_0, # of connection points: 2
#     Edge 29, Type (0, 0), BuildingBlock: XIVTED_clean_linker_0, # of connection points: 2
#     Edge 30, Type (0, 0), BuildingBlock: XIVTED_clean_linker_0, # of connection points: 2
#     Edge 31, Type (0, 0), BuildingBlock: XIVTED_clean_linker_0, # of connection points: 2
#     Edge 32, Type (0, 0), BuildingBlock: XIVTED_clean_linker_0, # of connection points: 2
#     Edge 33, Type (0, 0), BuildingBlock: XIVTED_clean_linker_0, # of connection points: 2
#     Edge 34, Type (0, 0), BuildingBlock: XIVTED_clean_linker_0, # of connection points: 2
#     Edge 35, Type (0, 0), BuildingBlock: XIVTED_clean_linker_0, # of connection points: 2
#     Edge 36, Type (0, 0), BuildingBlock: XIVTED_clean_linker_0, # of connection points: 2
#     Edge 37, Type (0, 0), BuildingBlock: XIVTED_clean_linker_0, # of connection points: 2
#     Edge 38, Type (0, 0), BuildingBlock: XIVTED_clean_linker_0, # of connection points: 2
#     Edge 39, Type (0, 0), BuildingBlock: XIVTED_clean_linker_0, # of connection points: 2
#     Edge 40, Type (0, 0), BuildingBlock: XIVTED_clean_linker_0, # of connection points: 2
#     Edge 41, Type (0, 0), BuildingBlock: XIVTED_clean_linker_0, # of connection points: 2
# Relax obj value: 0.437
# Max RMSD: 0.223
# Mean RMSD: 0.222
data_MOF--net-wjl--node1-XOMCOT_clean_sbu_1--edge1-XIVTED_clean_linker_0
_symmetry_space_group_name_H-M    P1
_symmetry_Int_Tables_number       1
_symmetry_cell_setting            triclinic
loop_
_symmetry_equiv_pos_as_xyz
'x, y, z'
_cell_length_a     26.316717
_cell_length_b     26.387671
_cell_length_c     86.657688
_cell_angle_alpha  90.080886
_cell_angle_beta   89.98969
_cell_angle_gamma 120.05263
loop_
_atom_site_label
_atom_site_type_symbol
_atom_site_fract_x
_atom_site_fract_y
_atom_site_fract_z
_atom_type_partial_charge
C0 C 0.33228 0.25505 0.35813 0.0
C1 C 0.36098 0.26149 0.37193 0.0
N2 N 0.41264 0.31222 0.37144 0.0
N3 N 0.36549 0.30198 0.34921 0.0
C4 C 0.41415 0.33558 0.35752 0.0
H5 H 0.29008 0.21868 0.35479 0.0
Co6 Co 0.35123 0.31563 0.32931 0.0
C7 C 0.38662 0.44072 0.32827 0.0
O8 O 0.33647 0.42337 0.32111 0.0
N9 N 0.33904 0.3283 0.3086 0.0
C10 C 0.3636 0.36392 0.2848 0.0
C11 C 0.38141 0.37084 0.29983 0.0
C12 C 0.29706 0.29405 0.2983 0.0
N13 N 0.31055 0.31539 0.28376 0.0
O14 O 0.41741 0.30871 0.32296 0.0
H15 H 0.42468 0.40282 0.30388 0.0
H16 H 0.25987 0.25194 0.30107 0.0
O17 O 0.40086 0.40252 0.33228 0.0
C18 C 0.40201 0.25615 0.31923 0.0
O19 O 0.34563 0.2181 0.31804 0.0
N20 N 0.28362 0.31717 0.33652 0.0
C21 C 0.18437 0.30857 0.35096 0.0
C22 C 0.24091 0.35063 0.35564 0.0
C23 C 0.28952 0.35312 0.34862 0.0
C24 C 0.22881 0.27432 0.33218 0.0
C25 C 0.17846 0.26964 0.33912 0.0
H26 H 0.33208 0.38256 0.35351 0.0
H27 H 0.22365 0.24113 0.32408 0.0
H28 H 0.44968 0.37702 0.35349 0.0
H29 H 0.34505 0.23124 0.38153 0.0
H30 H 0.39029 0.38948 0.27517 0.0
H31 H 0.24777 0.3794 0.36532 0.0
H32 H 0.13552 0.2349 0.33559 0.0
C33 C 0.01738 0.31237 0.5161 0.0
C34 C 0.03478 0.34013 0.53015 0.0
N35 N 0.03013 0.38865 0.52965 0.0
N36 N 1.00111 0.3428 0.50685 0.0
C37 C 0.01005 0.38947 0.51537 0.0
H38 H 0.01698 0.27265 0.51281 0.0
Co39 Co 0.97436 0.32195 0.48669 0.0
C40 C 0.93687 0.40701 0.47658 0.0
O41 O 0.95078 0.4057 0.46209 0.0
N42 N 0.94764 0.29927 0.46614 0.0
C43 C 0.89303 0.25567 0.44527 0.0
C44 C 0.89223 0.26358 0.46097 0.0
C45 C 0.98092 0.31275 0.45324 0.0
N46 N 0.94891 0.28705 0.44049 0.0
O47 O 0.0511 0.38023 0.47977 0.0
H48 H 0.85323 0.24367 0.46803 0.0
H49 H 0.02809 0.34009 0.45305 0.0
O50 O 0.94699 0.37824 0.48674 0.0
C51 C 0.08686 0.36081 0.47951 0.0
O52 O 0.06593 0.30455 0.48179 0.0
N53 N 0.90225 0.26335 0.4945 0.0
C54 C 0.81689 0.18189 0.51419 0.0
C55 C 0.81267 0.22957 0.50858 0.0
C56 C 0.85635 0.27044 0.49894 0.0
C57 C 0.90265 0.21335 0.49805 0.0
C58 C 0.86084 0.1723 0.50807 0.0
H59 H 0.85408 0.30874 0.49579 0.0
H60 H 0.9389 0.20807 0.49426 0.0
H61 H 1.00174 0.42329 0.51126 0.0
H62 H 0.05055 0.32617 0.53987 0.0
H63 H 0.85558 0.22917 0.43795 0.0
H64 H 0.77815 0.23756 0.51243 0.0
H65 H 0.86631 0.13635 0.51194 0.0
C66 C 0.78331 0.12457 0.69334 0.0
C67 C 0.76403 0.13844 0.70659 0.0
N68 N 0.70511 0.11307 0.70581 0.0
N69 N 0.73673 0.09051 0.68434 0.0
C70 C 0.68979 0.08418 0.69223 0.0
H71 H 0.82838 0.13879 0.69033 0.0
Co72 Co 0.74105 0.06323 0.6651 0.0
C73 C 0.61819 0.97818 0.65584 0.0
O74 O 0.63737 0.94588 0.64936 0.0
N75 N 0.7472 0.0373 0.64529 0.0
C76 C 0.76828 1.00123 0.62459 0.0
C77 C 0.77231 0.00627 0.64039 0.0
C78 C 0.72852 0.05061 0.63219 0.0
N79 N 0.74082 0.02937 0.61943 0.0
O80 O 0.75393 0.13608 0.65666 0.0
H81 H 0.79362 0.9892 0.64759 0.0
H82 H 0.70634 0.07576 0.63208 0.0
O83 O 0.65488 0.02663 0.66235 0.0
C84 C 0.80806 0.1724 0.65412 0.0
O85 O 0.84582 0.15378 0.65521 0.0
N86 N 0.73444 0.99626 0.67459 0.0
C87 C 0.74487 0.91809 0.69417 0.0
C88 C 0.69014 0.9135 0.69163 0.0
C89 C 0.6861 0.95402 0.68214 0.0
C90 C 0.788 1.00145 0.67705 0.0
C91 C 0.79415 0.96238 0.68661 0.0
H92 H 0.64502 0.95364 0.68198 0.0
H93 H 0.82672 0.03793 0.67206 0.0
H94 H 0.64506 0.05825 0.68824 0.0
H95 H 0.79136 0.16581 0.71592 0.0
H96 H 0.7866 0.98069 0.61744 0.0
H97 H 0.65156 0.88167 0.69785 0.0
H98 H 0.83742 0.9682 0.68854 0.0
C99 C 0.69412 0.71938 0.86276 0.0
C100 C 0.66673 0.70571 0.87692 0.0
N101 N 0.61612 0.65429 0.87562 0.0
N102 N 0.66117 0.67653 0.85263 0.0
C103 C 0.61367 0.63786 0.86075 0.0
H104 H 0.73588 0.7576 0.86006 0.0
Co105 Co 0.68049 0.67208 0.83223 0.0
C106 C 0.59393 0.54947 0.82395 0.0
O107 O 0.57969 0.56685 0.8113 0.0
N108 N 0.70074 0.66816 0.81179 0.0
C109 C 0.72571 0.64202 0.7899 0.0
C110 C 0.71193 0.62825 0.80523 0.0
C111 C 0.70979 0.70657 0.80041 0.0
N112 N 0.72459 0.69149 0.78699 0.0
O113 O 0.61566 0.68064 0.82568 0.0
H114 H 0.71027 0.59151 0.81121 0.0
H115 H 0.70523 0.74478 0.80181 0.0
O116 O 0.63257 0.58705 0.83304 0.0
C117 C 0.63254 0.73521 0.82577 0.0
O118 O 0.68747 0.77235 0.82939 0.0
N119 N 0.74632 0.6702 0.8389 0.0
C120 C 0.84789 0.69359 0.85443 0.0
C121 C 0.79709 0.63829 0.85558 0.0
C122 C 0.74618 0.62755 0.8478 0.0
C123 C 0.79644 0.72241 0.83672 0.0
C124 C 0.84789 0.73519 0.84445 0.0
H125 H 0.706 0.58691 0.84991 0.0
H126 H 0.79512 0.75599 0.82988 0.0
H127 H 0.57869 0.59753 0.85597 0.0
H128 H 0.68296 0.73154 0.88735 0.0
H129 H 0.73659 0.61819 0.78161 0.0
H130 H 0.79526 0.60547 0.86342 0.0
H131 H 0.88624 0.77835 0.84334 0.0
C132 C 0.92967 0.67194 0.02537 0.0
C133 C 0.90827 0.6459 0.03949 0.0
N134 N 0.90114 0.59163 0.03905 0.0
N135 N 0.93694 0.63443 0.01633 0.0
C136 C 0.91864 0.58592 0.02489 0.0
H137 H 0.93981 0.71541 0.02194 0.0
Co138 Co 0.96228 0.6435 -0.00376 0.0
C139 C 0.04784 0.6027 -0.0048 0.0
O140 O 0.08037 0.64994 0.98696 0.0
N141 N 0.98475 0.65021 0.97538 0.0
C142 C 0.99152 0.61757 0.95223 0.0
C143 C 0.97708 0.60294 0.96734 0.0
C144 C 1.00146 0.69267 0.96457 0.0
N145 N 0.00677 0.67402 0.95042 0.0
O146 O 0.88704 0.57789 0.99095 0.0
H147 H 0.95959 0.55943 0.97206 0.0
H148 H 0.00648 0.7352 0.96671 0.0
O149 O 0.99694 0.59198 -0.00017 0.0
C150 C 0.8499 0.59344 0.98728 0.0
O151 O 0.86898 0.64952 0.98531 0.0
N152 N 0.03361 0.71074 0.00247 0.0
C153 C 0.12192 0.81087 0.01723 0.0
C154 C 0.11046 0.75498 0.02143 0.0
C155 C 0.06534 0.70589 0.01431 0.0
C156 C 0.04376 0.76489 -0.00174 0.0
C157 C 0.08817 0.81567 0.00538 0.0
H158 H 0.05321 0.66395 0.01933 0.0
H159 H 0.01434 0.76885 0.99034 0.0
H160 H 0.91948 0.54748 0.0209 0.0
H161 H 0.8991 0.66543 0.04931 0.0
H162 H 0.98657 0.58756 0.94305 0.0
H163 H 0.13279 0.74871 0.03111 0.0
H164 H 0.09404 0.85793 0.00218 0.0
C165 C 0.26837 0.92132 0.18613 0.0
C166 C 0.28701 0.91015 0.19988 0.0
N167 N 0.34616 0.93947 0.19996 0.0
N168 N 0.31545 0.95764 0.17758 0.0
C169 C 0.36229 0.96784 0.1863 0.0
H170 H 0.2233 0.90466 0.18263 0.0
Co171 Co 0.31017 0.98695 0.15851 0.0
C172 C 0.43309 0.07832 0.15022 0.0
O173 O 0.4134 0.10835 0.14282 0.0
N174 N 0.30263 0.01601 0.13889 0.0
C175 C 0.28436 0.06373 0.12043 0.0
C176 C 0.29153 0.06003 0.13598 0.0
C177 C 0.30249 0.99431 0.12468 0.0
N178 N 0.29075 0.02202 0.1133 0.0
O179 O 0.30418 0.91851 0.14913 0.0
H180 H 0.28884 0.08854 0.14446 0.0
H181 H 0.30851 0.95723 0.12268 0.0
O182 O 0.39674 0.02973 0.15665 0.0
C183 C 0.25008 0.88063 0.14711 0.0
O184 O 0.21096 0.89709 0.14918 0.0
N185 N 0.30864 0.04785 0.16884 0.0
C186 C 0.28296 0.1146 0.18875 0.0
C187 C 0.34131 0.12854 0.18633 0.0
C188 C 0.35326 0.09375 0.17652 0.0
C189 C 0.25188 0.03426 0.17095 0.0
C190 C 0.23804 0.06737 0.18074 0.0
H191 H 0.39756 0.10169 0.176 0.0
H192 H 0.21696 0.99607 0.16531 0.0
H193 H 0.40735 0.99684 0.18296 0.0
H194 H 0.25917 0.88239 0.20907 0.0
H195 H 0.27445 0.09445 0.11486 0.0
H196 H 0.37694 0.16351 0.19277 0.0
H197 H 0.19246 0.05494 0.18244 0.0
C198 C 0.70464 0.67092 0.46409 0.0
C199 C 0.69998 0.64017 0.4508 0.0
N200 N 0.65006 0.58785 0.4516 0.0
N201 N 0.65748 0.6383 0.47303 0.0
C202 C 0.62524 0.58811 0.46519 0.0
H203 H 0.74078 0.71344 0.46727 0.0
Co204 Co 0.6462 0.65363 0.49302 0.0
C205 C 0.52051 0.617 0.49479 0.0
O206 O 0.53758 0.66738 0.50172 0.0
N207 N 0.63739 0.66776 0.51386 0.0
C208 C 0.61254 0.64703 0.53857 0.0
C209 C 0.59529 0.6302 0.52362 0.0
C210 C 0.68067 0.70573 0.52331 0.0
N211 N 0.66683 0.69427 0.53842 0.0
O212 O 0.65481 0.58841 0.49915 0.0
H213 H 0.55732 0.58923 0.52031 0.0
H214 H 0.72397 0.73681 0.51921 0.0
O215 O 0.55911 0.60315 0.49083 0.0
C216 C 0.70744 0.60331 0.50281 0.0
O217 O 0.74591 0.65922 0.5044 0.0
N218 N 0.6428 0.72019 0.48592 0.0
C219 C 0.65556 0.81808 0.4699 0.0
C220 C 0.61181 0.7615 0.4658 0.0
C221 C 0.60698 0.71347 0.47369 0.0
C222 C 0.68499 0.77515 0.49028 0.0
C223 C 0.6917 0.82472 0.48255 0.0
H224 H 0.57696 0.67057 0.46912 0.0
H225 H 0.7168 0.78115 0.49892 0.0
H226 H 0.58477 0.55206 0.46956 0.0
H227 H 0.7317 0.65461 0.44152 0.0
H228 H 0.58959 0.62203 0.54868 0.0
H229 H 0.5845 0.75376 0.45573 0.0
H230 H 0.72691 0.86759 0.48592 0.0
C231 C 0.15223 0.75895 0.62782 0.0
C232 C 0.15926 0.73545 0.61434 0.0
N233 N 0.11652 0.67888 0.61359 0.0
N234 N 0.10535 0.71733 0.6355 0.0
C235 C 0.08444 0.66911 0.62653 0.0
H236 H 0.17892 0.80375 0.63166 0.0
Co237 Co 0.07513 0.72848 0.65364 0.0
C238 C 0.98981 0.60794 0.66547 0.0
O239 O 0.9604 0.6281 0.67304 0.0
N240 N 0.04506 0.74161 0.67215 0.0
C241 C 0.99728 0.76608 0.68908 0.0
C242 C 0.0068 0.76139 0.67373 0.0
C243 C 0.05826 0.73502 0.68685 0.0
N244 N 0.02977 0.74964 0.69737 0.0
O245 O 0.1449 0.7409 0.66406 0.0
H246 H 0.98645 0.77198 0.66445 0.0
H247 H 0.08893 0.72057 0.68978 0.0
O248 O 0.03542 0.64327 0.65771 0.0
C249 C 0.18168 0.79522 0.66606 0.0
O250 O 0.16424 0.83317 0.66341 0.0
N251 N 0.01213 0.72273 0.64231 0.0
C252 C 0.9358 0.73536 0.62256 0.0
C253 C 0.92144 0.68007 0.62831 0.0
C254 C 0.96071 0.67446 0.63801 0.0
C255 C 0.02698 0.77655 0.63665 0.0
C256 C 0.9893 0.78401 0.62688 0.0
H257 H 0.95023 0.63113 0.6414 0.0
H258 H 0.06874 0.814 0.6398 0.0
H259 H 0.04508 0.62819 0.62914 0.0
H260 H 0.19312 0.75826 0.60577 0.0
H261 H 0.96849 0.78055 0.69372 0.0
H262 H 0.88137 0.64115 0.6248 0.0
H263 H 1.00215 0.82742 0.62266 0.0
C264 C 0.33061 0.04691 0.79677 0.0
C265 C 0.36038 0.06746 0.78305 0.0
N266 N 0.41186 0.06823 0.78418 0.0
N267 N 0.36299 0.03413 0.80633 0.0
C268 C 0.41229 0.04802 0.79843 0.0
H269 H 0.2882 0.0416 0.79963 0.0
Co270 Co 0.3453 0.00744 0.82632 0.0
C271 C 0.37923 0.91712 0.82906 0.0
O272 O 0.32773 0.88464 0.83559 0.0
N273 N 0.32915 0.98354 0.84709 0.0
C274 C 0.3492 0.9751 0.87157 0.0
C275 C 0.36891 0.98226 0.85671 0.0
C276 C 0.28673 0.97987 0.85663 0.0
N277 N 0.29766 0.97417 0.8716 0.0
O278 O 0.41114 0.08046 0.8329 0.0
H279 H 0.41222 0.9912 0.85339 0.0
H280 H 0.25172 0.9871 0.85296 0.0
O281 O 0.39449 0.96945 0.82472 0.0
C282 C 0.39787 0.11746 0.83822 0.0
O283 O 0.34245 0.10025 0.84091 0.0
N284 N 0.27848 0.93858 0.81874 0.0
C285 C 0.18211 0.85673 0.80145 0.0
C286 C 0.23841 0.86579 0.79869 0.0
C287 C 0.28581 0.90773 0.80708 0.0
C288 C 0.22371 0.92974 0.82178 0.0
C289 C 0.17476 0.88858 0.81337 0.0
H290 H 0.32903 0.91854 0.8032 0.0
H291 H 0.21818 0.95809 0.82968 0.0
H292 H 0.44759 0.04274 0.80301 0.0
H293 H 0.34555 0.08126 0.7731 0.0
H294 H 0.37419 0.97712 0.88171 0.0
H295 H 0.24697 0.84471 0.78911 0.0
H296 H 0.13226 0.88431 0.81555 0.0
C297 C 0.25539 0.35936 0.97211 0.0
C298 C 0.27648 0.39275 0.95896 0.0
N299 N 0.33395 0.41013 0.95762 0.0
N300 N 0.29934 0.35579 0.97902 0.0
C301 C 0.34653 0.38682 0.96988 0.0
H302 H 0.21084 0.33895 0.97638 0.0
Co303 Co 0.29235 0.31491 -0.00295 0.0
C304 C 0.41555 0.34893 0.00643 0.0
O305 O 0.39678 0.29988 0.0141 0.0
N306 N 0.28362 0.2725 0.01549 0.0
C307 C 0.2622 0.20157 0.0326 0.0
C308 C 0.26676 0.21521 0.01719 0.0
C309 C 0.28941 0.29249 0.03016 0.0
N310 N 0.27609 0.25018 0.04078 0.0
O311 O 0.28385 0.37307 0.00812 0.0
H312 H 0.25742 0.18432 0.00795 0.0
H313 H 0.30105 0.33689 0.03302 0.0
O314 O 0.37862 0.35937 -0.00043 0.0
C315 C 0.22979 0.35534 0.01084 0.0
O316 O 0.19129 0.29995 0.00829 0.0
N317 N 0.29344 0.2568 0.98519 0.0
C318 C 0.27212 0.16881 0.96413 0.0
C319 C 0.32971 0.20903 0.96874 0.0
C320 C 0.33965 0.25359 0.97915 0.0
C321 C 0.23733 0.2178 0.98088 0.0
C322 C 0.22559 0.17323 0.97043 0.0
H323 H 0.38429 0.28639 0.98164 0.0
H324 H 0.20152 0.22228 0.98545 0.0
H325 H 0.38905 0.39121 0.97195 0.0
H326 H 0.25161 0.40398 0.95114 0.0
H327 H 0.24857 0.15874 0.03735 0.0
H328 H 0.36685 0.20788 0.96374 0.0
H329 H 0.18059 0.14316 0.9671 0.0
C330 C 0.95184 0.28137 0.12842 0.0
C331 C 0.93247 0.29518 0.11512 0.0
N332 N 0.92287 0.33975 0.11835 0.0
N333 N 0.95483 0.31765 0.1398 0.0
C334 C 0.93598 0.35161 0.1334 0.0
H335 H 0.96419 0.24817 0.12962 0.0
Co336 Co 0.97842 0.32513 0.16009 0.0
C337 C 0.06708 0.45045 0.16359 0.0
O338 O 0.09879 0.43337 0.17135 0.0
N339 N 0.99984 0.33323 0.18102 0.0
C340 C 0.00676 0.36465 0.20517 0.0
C341 C 0.99383 0.3711 0.1903 0.0
C342 C 0.01441 0.30251 0.19077 0.0
N343 N 0.01952 0.32129 0.20553 0.0
O344 O 0.90405 0.31676 0.1659 0.0
H345 H 0.97828 0.40007 0.18659 0.0
H346 H 0.01784 0.26498 0.18744 0.0
O347 O 0.01639 0.41196 0.15846 0.0
C348 C 0.86702 0.26355 0.1691 0.0
O349 O 0.88615 0.22625 0.17019 0.0
N350 N 0.04796 0.32706 0.1535 0.0
C351 C 0.13164 0.30952 0.13821 0.0
C352 C 0.12743 0.35954 0.13539 0.0
C353 C 0.08452 0.36669 0.14281 0.0
C354 C 0.05126 0.27796 0.15634 0.0
C355 C 0.09347 0.26882 0.14906 0.0
H356 H 0.07768 0.4015 0.13881 0.0
H357 H 0.01777 0.24303 0.16315 0.0
H358 H 0.93191 0.38458 0.1398 0.0
H359 H 0.92777 0.27526 0.1039 0.0
H360 H 1.00216 0.38684 0.21513 0.0
H361 H 0.15354 0.39052 0.1265 0.0
H362 H 0.09385 0.22861 0.15124 0.0
C363 C 0.66089 0.91489 0.29791 0.0
C364 C 0.63193 0.90479 0.28402 0.0
N365 N 0.60318 0.93506 0.28389 0.0
N366 N 0.65063 0.95147 0.30647 0.0
C367 C 0.61526 0.96295 0.29763 0.0
H368 H 0.68834 0.89731 0.30149 0.0
Co369 Co 0.68407 0.98019 0.32572 0.0
C370 C 0.65152 0.07047 0.33406 0.0
O371 O 0.70138 0.1009 0.34147 0.0
N372 N 0.71899 0.00883 0.34545 0.0
C373 C 0.7821 0.05579 0.36458 0.0
C374 C 0.77493 0.05014 0.34889 0.0
C375 C 0.69323 0.99061 0.35945 0.0
N376 N 0.73076 0.01802 0.37126 0.0
O377 O 0.6214 0.91097 0.33487 0.0
H378 H 0.80913 0.07565 0.34069 0.0
H379 H 0.64809 0.95654 0.36099 0.0
O380 O 0.63964 0.02214 0.32753 0.0
C381 C 0.63879 0.87431 0.33727 0.0
O382 O 0.69466 0.89183 0.33516 0.0
N383 N 0.74718 0.0418 0.31579 0.0
C384 C 0.84422 0.11249 0.29761 0.0
C385 C 0.79969 0.12636 0.29981 0.0
C386 C 0.75064 0.08962 0.30873 0.0
C387 C 0.78989 0.02765 0.31365 0.0
C388 C 0.83916 0.06274 0.30477 0.0
H389 H 0.7147 0.09815 0.30917 0.0
H390 H 0.78496 0.98807 0.31876 0.0
H391 H 0.59996 0.99252 0.30095 0.0
H392 H 0.63179 0.87706 0.27478 0.0
H393 H 0.82235 0.08536 0.37057 0.0
H394 H 0.80109 0.16325 0.29393 0.0
H395 H 0.87225 0.05023 0.30319 0.0
H396 H 0.51555 0.31017 0.33023 0.0
H397 H 0.54596 0.02417 0.31855 0.0
H398 H 0.38387 0.15149 0.30826 0.0
H399 H 0.67229 0.1785 0.34325 0.0
H400 H 0.48872 0.0722 0.3133 0.0
H401 H 0.57763 0.26582 0.3332 0.0
C402 C 0.50013 0.26646 0.32579 0.0
C403 C 0.44434 0.2345 0.31902 0.0
C404 C 0.529 0.09555 0.31987 0.0
C405 C 0.51468 0.18303 0.32259 0.0
C406 C 0.56168 0.06803 0.32289 0.0
C407 C 0.61414 0.09717 0.33136 0.0
C408 C 0.54884 0.15272 0.32533 0.0
C409 C 0.63211 0.15409 0.33671 0.0
C410 C 0.53534 0.24091 0.3276 0.0
C411 C 0.42642 0.17771 0.31362 0.0
N412 N 0.59964 0.1799 0.3336 0.0
N413 N 0.46124 0.15377 0.31559 0.0
H414 H 0.17055 0.33047 0.47441 0.0
H415 H 0.43479 0.64535 0.49763 0.0
H416 H 0.15028 0.48061 0.48277 0.0
H417 H 0.46194 0.50435 0.48288 0.0
H418 H 0.33107 0.58558 0.49165 0.0
H419 H 0.27694 0.39321 0.47645 0.0
C420 C 0.1885 0.37684 0.47649 0.0
C421 C 0.1513 0.40027 0.4785 0.0
C422 C 0.35952 0.56757 0.48965 0.0
C423 C 0.27341 0.47231 0.48104 0.0
C424 C 0.41899 0.60164 0.49314 0.0
C425 C 0.45736 0.57973 0.49089 0.0
C426 C 0.33749 0.51061 0.48394 0.0
C427 C 0.434 0.52293 0.48488 0.0
C428 C 0.24936 0.41261 0.47767 0.0
C429 C 0.17717 0.46065 0.48111 0.0
N430 N 0.37544 0.49013 0.48171 0.0
N431 N 0.23655 0.49443 0.48247 0.0
H432 H 0.88502 0.52172 0.67692 0.0
H433 H 0.91442 0.25593 0.6431 0.0
H434 H 0.03254 0.54682 0.64936 0.0
H435 H 0.75456 0.23463 0.66293 0.0
H436 H 0.95837 0.36212 0.6451 0.0
H437 H 0.83795 0.41658 0.67239 0.0
C438 C 0.90782 0.50521 0.66997 0.0
C439 C 0.96311 0.54352 0.66355 0.0
C440 C 0.91347 0.33435 0.64886 0.0
C441 C 0.90879 0.42236 0.65823 0.0
C442 C 0.88821 0.27364 0.64767 0.0
C443 C 0.83067 0.23625 0.65287 0.0
C444 C 0.88133 0.35813 0.65549 0.0
C445 C 0.79888 0.26174 0.6587 0.0
C446 C 0.88058 0.445 0.66731 0.0
C447 C 0.99007 0.51915 0.65459 0.0
N448 N 0.82486 0.32104 0.66002 0.0
N449 N 0.96273 0.46018 0.65224 0.0
H450 H 0.4938 0.97029 0.8187 0.0
H451 H 0.51159 0.67596 0.82634 0.0
H452 H 0.34918 0.80316 0.83287 0.0
H453 H 0.66237 0.8472 0.81897 0.0
H454 H 0.44836 0.71958 0.82494 0.0
H455 H 0.55397 0.92388 0.81526 0.0
C456 C 0.47468 0.92396 0.82103 0.0
C457 C 0.41664 0.89081 0.82626 0.0
C458 C 0.49529 0.74748 0.8235 0.0
C459 C 0.48475 0.83737 0.82224 0.0
C460 C 0.53125 0.72248 0.82421 0.0
C461 C 0.59228 0.75806 0.82294 0.0
C462 C 0.52064 0.80836 0.82143 0.0
C463 C 0.61553 0.8182 0.82021 0.0
C464 C 0.50894 0.89744 0.81906 0.0
C465 C 0.39394 0.83075 0.829 0.0
N466 N 0.5798 0.84148 0.81965 0.0
N467 N 0.42801 0.8061 0.82701 0.0
H468 H 0.7912 0.48263 -0.00022 0.0
H469 H 0.47318 0.45197 0.98996 0.0
H470 H 0.76203 0.61121 0.97703 0.0
H471 H 0.50435 0.33076 0.01598 0.0
H472 H 0.57808 0.5083 0.98393 0.0
H473 H 0.68513 0.4224 0.0041 0.0
C474 C 0.76247 0.49774 -0.00454 0.0
C475 C 0.78565 0.55212 0.98804 0.0
C476 C 0.56195 0.4694 0.99098 0.0
C477 C 0.66422 0.48386 0.99316 0.0
C478 C 0.50197 0.43725 0.99446 0.0
C479 C 0.47961 0.38638 0.0035 0.0
C480 C 0.60004 0.45062 -0.00346 0.0
C481 C 0.51936 0.36966 0.009 0.0
C482 C 0.70192 0.4636 -0.00195 0.0
C483 C 0.74623 0.56972 0.98285 0.0
N484 N 0.5774 0.40153 0.00542 0.0
N485 N 0.68767 0.53592 0.98556 0.0
H486 H 0.30902 0.82182 0.15375 0.0
H487 H 0.01859 0.50534 0.1471 0.0
H488 H 0.14267 0.79523 0.1373 0.0
H489 H 0.17762 0.53853 0.17028 0.0
H490 H 0.06652 0.60946 0.14018 0.0
H491 H 0.26563 0.71546 0.15593 0.0
C492 C 0.26381 0.79361 0.15026 0.0
C493 C 0.2293 0.8174 0.14544 0.0
C494 C 0.09085 0.59376 0.14676 0.0
C495 C 0.17901 0.69585 0.14817 0.0
C496 C 0.06341 0.5344 0.15075 0.0
C497 C 0.09385 0.51315 0.15941 0.0
C498 C 0.1492 0.63196 0.15136 0.0
C499 C 0.15212 0.55282 0.16371 0.0
C500 C 0.23883 0.73291 0.15165 0.0
C501 C 0.17073 0.77873 0.1412 0.0
N502 N 0.17775 0.6101 0.15966 0.0
N503 N 0.1473 0.71996 0.14278 0.0
H504 H 0.87211 0.43611 0.45759 0.0
H505 H 0.78988 0.59917 0.52075 0.0
H506 H 0.9193 0.43885 0.5054 0.0
H507 H 0.67969 0.51797 0.48109 0.0
H508 H 0.84324 0.54733 0.51498 0.0
H509 H 0.80867 0.47527 0.46515 0.0
C510 C 0.86965 0.44547 0.46965 0.0
C511 C 0.90154 0.43457 0.48086 0.0
C512 C 0.80668 0.53998 0.50771 0.0
C513 C 0.82884 0.47925 0.48956 0.0
C514 C 0.77603 0.56921 0.51105 0.0
C515 C 0.72986 0.56214 0.50151 0.0
C516 C 0.7923 0.50489 0.49443 0.0
C517 C 0.71432 0.52374 0.4889 0.0
C518 C 0.83292 0.4672 0.47396 0.0
C519 C 0.89587 0.44684 0.49635 0.0
N520 N 0.74618 0.49732 0.48555 0.0
N521 N 0.86068 0.469 0.50022 0.0
H522 H 0.24273 0.73759 0.66047 0.0
H523 H 0.55875 0.02771 0.66965 0.0
H524 H 0.26615 0.90418 0.67523 0.0
H525 H 0.53068 0.86915 0.64744 0.0
H526 H 0.4528 0.98078 0.67439 0.0
H527 H 0.34969 0.78177 0.65898 0.0
C528 C 0.27033 0.78308 0.66372 0.0
C529 C 0.24541 0.81726 0.66794 0.0
C530 C 0.46994 0.95635 0.66847 0.0
C531 C 0.36785 0.86845 0.666 0.0
C532 C 0.53045 0.98322 0.66572 0.0
C533 C 0.55389 0.95255 0.65808 0.0
C534 C 0.43258 0.89824 0.66364 0.0
C535 C 0.51484 0.89479 0.65331 0.0
C536 C 0.33141 0.8085 0.66271 0.0
C537 C 0.28344 0.87624 0.67184 0.0
N538 N 0.45637 0.8696 0.65618 0.0
N539 N 0.34261 0.90001 0.67069 0.0
H540 H 0.57822 0.49487 0.85183 0.0
H541 H 0.48175 0.17987 0.81656 0.0
H542 H 0.55593 0.46045 0.8029 0.0
H543 H 0.407 0.19943 0.85886 0.0
H544 H 0.53506 0.28696 0.81348 0.0
H545 H 0.5388 0.38978 0.85646 0.0
C546 C 0.56518 0.46523 0.84207 0.0
C547 C 0.56969 0.48623 0.82696 0.0
C548 C 0.50783 0.2677 0.82358 0.0
C549 C 0.52652 0.36674 0.83216 0.0
C550 C 0.4781 0.20682 0.82544 0.0
C551 C 0.44031 0.181 0.83805 0.0
C552 C 0.50062 0.30283 0.83456 0.0
C553 C 0.43595 0.2178 0.84903 0.0
C554 C 0.54281 0.40546 0.84473 0.0
C555 C 0.55242 0.44596 0.81473 0.0
N556 N 0.46577 0.27689 0.84705 0.0
N557 N 0.53197 0.3882 0.81759 0.0
H558 H 0.28914 0.47471 0.00696 0.0
H559 H 0.99557 0.4963 0.01049 0.0
H560 H 0.12012 0.3298 0.01981 0.0
H561 H 0.16085 0.62871 0.99144 0.0
H562 H 0.04256 0.43927 0.01781 0.0
H563 H 0.24558 0.53761 0.00577 0.0
C564 C 0.24322 0.45643 0.00987 0.0
C565 C 0.20813 0.3968 0.01333 0.0
C566 C 0.06842 0.481 0.01209 0.0
C567 C 0.15758 0.46816 0.01169 0.0
C568 C 0.04157 0.51341 0.00789 0.0
C569 C 0.074 0.56698 0.00016 0.0
C570 C 0.12812 0.50271 0.00864 0.0
C571 C 0.13369 0.58733 -0.0028 0.0
C572 C 0.21815 0.49219 0.00905 0.0
C573 C 0.14869 0.37544 0.01692 0.0
N574 N 0.15861 0.55521 0.00139 0.0
N575 N 0.12513 0.41087 0.01584 0.0
H576 H 0.78073 0.15823 0.17977 0.0
H577 H 0.51984 0.18724 0.14141 0.0
H578 H 0.80662 0.31521 0.15729 0.0
H579 H 0.49323 0.03333 0.16583 0.0
H580 H 0.62427 0.23507 0.14744 0.0
H581 H 0.67514 0.11358 0.17573 0.0
C582 C 0.76412 0.18368 0.17415 0.0
C583 C 0.80274 0.24063 0.16884 0.0
C584 C 0.59567 0.19088 0.15151 0.0
C585 C 0.68136 0.1891 0.16394 0.0
C586 C 0.53586 0.16326 0.148 0.0
C587 C 0.49728 0.10597 0.15313 0.0
C588 C 0.61759 0.16116 0.16019 0.0
C589 C 0.52102 0.0775 0.16167 0.0
C590 C 0.70371 0.15797 0.17179 0.0
C591 C 0.77855 0.27138 0.16166 0.0
N592 N 0.57954 0.10536 0.16491 0.0
N593 N 0.71947 0.24504 0.1593 0.0
H594 H 0.49826 0.49969 0.3409 0.0
H595 H 0.51865 0.81304 0.33378 0.0
H596 H 0.35814 0.52575 0.32446 0.0
H597 H 0.66536 0.7915 0.34636 0.0
H598 H 0.4553 0.70636 0.33389 0.0
H599 H 0.55728 0.60543 0.34604 0.0
C600 C 0.47987 0.52746 0.33842 0.0
C601 C 0.42344 0.5038 0.33207 0.0
C602 C 0.50127 0.72502 0.3368 0.0
C603 C 0.49022 0.62439 0.33802 0.0
C604 C 0.5373 0.78597 0.33685 0.0
C605 C 0.59745 0.81122 0.33992 0.0
C606 C 0.52558 0.6891 0.33984 0.0
C607 C 0.61931 0.7739 0.34375 0.0
C608 C 0.51345 0.58775 0.34137 0.0
C609 C 0.40164 0.54188 0.32919 0.0
N610 N 0.58358 0.71482 0.34346 0.0
N611 N 0.43502 0.60003 0.33213 0.0
H612 H 0.67484 0.59663 0.42094 0.0
H613 H 0.39415 0.29519 0.40234 0.0
H614 H 0.57259 0.47233 0.45645 0.0
H615 H 0.52833 0.39264 0.36843 0.0
H616 H 0.46216 0.35513 0.4226 0.0
H617 H 0.62597 0.51976 0.40167 0.0
C618 C 0.64279 0.5531 0.42474 0.0
C619 C 0.62686 0.54148 0.44033 0.0
C620 C 0.47699 0.3628 0.41073 0.0
C621 C 0.57008 0.45344 0.41829 0.0
C622 C 0.43819 0.32839 0.39915 0.0
C623 C 0.45497 0.3399 0.38361 0.0
C624 C 0.53261 0.40935 0.40671 0.0
C625 C 0.51275 0.3836 0.3802 0.0
C626 C 0.61478 0.50916 0.41371 0.0
C627 C 0.58486 0.48402 0.44453 0.0
N628 N 0.54916 0.41745 0.39163 0.0
N629 N 0.55725 0.44238 0.43355 0.0
H630 H 0.02252 0.36803 0.56043 0.0
H631 H 0.14262 0.70301 0.58322 0.0
H632 H 0.06776 0.50466 0.52685 0.0
H633 H 0.06566 0.5609 0.61592 0.0
H634 H 0.12262 0.63225 0.56254 0.0
H635 H 0.04509 0.43939 0.58106 0.0
C636 C 0.03753 0.41313 0.5574 0.0
C637 C 0.0433 0.43042 0.54189 0.0
C638 C 0.11008 0.61656 0.57424 0.0
C639 C 0.06893 0.51235 0.56545 0.0
C640 C 0.12187 0.65697 0.58606 0.0
C641 C 0.10575 0.63783 0.60132 0.0
C642 C 0.08242 0.55659 0.57771 0.0
C643 C 0.0782 0.57752 0.6043 0.0
C644 C 0.05004 0.45378 0.56918 0.0
C645 C 0.06209 0.48932 0.53864 0.0
N646 N 0.06755 0.53908 0.59262 0.0
N647 N 0.07443 0.52823 0.55032 0.0
H648 H 0.72402 0.13239 0.73662 0.0
H649 H 0.39713 0.06389 0.75311 0.0
H650 H 0.59686 0.09899 0.70082 0.0
H651 H 0.5281 0.10925 0.78858 0.0
H652 H 0.47162 0.0832 0.7336 0.0
H653 H 0.65485 0.13038 0.7557 0.0
C654 C 0.68184 0.12519 0.73274 0.0
C655 C 0.66609 0.11522 0.7171 0.0
C656 C 0.48414 0.08928 0.74565 0.0
C657 C 0.58635 0.1122 0.7389 0.0
C658 C 0.44166 0.07857 0.75679 0.0
C659 C 0.4562 0.08423 0.77251 0.0
C660 C 0.54153 0.10567 0.75028 0.0
C661 C 0.51459 0.10296 0.77662 0.0
C662 C 0.64221 0.12379 0.74365 0.0
C663 C 0.61049 0.10559 0.71278 0.0
N664 N 0.555 0.11261 0.76558 0.0
N665 N 0.57253 0.10398 0.72363 0.0
H666 H 0.63912 0.65648 0.90624 0.0
H667 H 0.30714 0.42118 0.928 0.0
H668 H 0.49939 0.57708 0.87273 0.0
H669 H 0.45191 0.48207 0.95994 0.0
H670 H 0.37551 0.483 0.90797 0.0
H671 H 0.56967 0.59829 0.92646 0.0
C672 C 0.59374 0.6272 0.90314 0.0
C673 C 0.57512 0.62165 0.88774 0.0
C674 C 0.39232 0.4828 0.91936 0.0
C675 C 0.49535 0.55435 0.91084 0.0
C676 C 0.35324 0.44774 0.93083 0.0
C677 C 0.37377 0.44629 0.94568 0.0
C678 C 0.45241 0.51703 0.92278 0.0
C679 C 0.43418 0.48115 0.94862 0.0
C680 C 0.55416 0.59363 0.91468 0.0
C681 C 0.51585 0.58226 0.8844 0.0
N682 N 0.4713 0.51515 0.93729 0.0
N683 N 0.47809 0.55018 0.89585 0.0
H684 H 0.94284 0.45053 0.12224 0.0
H685 H 0.84762 0.47353 0.03687 0.0
H686 H 0.86846 0.30465 0.09042 0.0
H687 H 0.92104 0.61616 0.06954 0.0
H688 H 0.84046 0.40674 0.05734 0.0
H689 H 0.92116 0.50682 0.10423 0.0
C690 C 0.92104 0.42969 0.11157 0.0
C691 C 0.90751 0.37236 0.1079 0.0
C692 C 0.85736 0.45248 0.06009 0.0
C693 C 0.88383 0.43805 0.08688 0.0
C694 C 0.86162 0.49063 0.04841 0.0
C695 C 0.88616 0.55066 0.05147 0.0
C696 C 0.87804 0.47468 0.0749 0.0
C697 C 0.90209 0.5703 0.06667 0.0
C698 C 0.90897 0.46231 0.1012 0.0
C699 C 0.88048 0.34886 0.09366 0.0
N700 N 0.89857 0.53252 0.07779 0.0
N701 N 0.86995 0.38202 0.08359 0.0
H702 H 0.61595 0.92526 0.25313 0.0
H703 H 0.32369 0.92948 0.23069 0.0
H704 H 0.50914 0.95069 0.28651 0.0
H705 H 0.45504 0.95281 0.19724 0.0
H706 H 0.38743 0.92992 0.25128 0.0
H707 H 0.55398 0.928 0.23246 0.0
C708 C 0.57933 0.9312 0.25612 0.0
C709 C 0.56762 0.93761 0.27158 0.0
C710 C 0.40242 0.93512 0.23944 0.0
C711 C 0.49652 0.94085 0.24798 0.0
C712 C 0.36587 0.93447 0.22767 0.0
C713 C 0.38398 0.94092 0.21221 0.0
C714 C 0.4573 0.94155 0.23575 0.0
C715 C 0.43954 0.94815 0.209 0.0
C716 C 0.54422 0.93317 0.24431 0.0
C717 C 0.52004 0.94605 0.27475 0.0
N718 N 0.47406 0.94787 0.22066 0.0
N719 N 0.48603 0.94705 0.26307 0.0
H720 H 0.20101 0.06443 0.21145 0.0
H721 H 0.31615 0.36617 0.25624 0.0
H722 H 0.33304 0.23237 0.19392 0.0
H723 H 0.2431 0.19801 0.27862 0.0
H724 H 0.29225 0.31688 0.23119 0.0
H725 H 0.18758 0.11344 0.23376 0.0
C726 C 0.22618 0.11177 0.21213 0.0
C727 C 0.26865 0.14455 0.20094 0.0
C728 C 0.28046 0.29084 0.24162 0.0
C729 C 0.25355 0.20048 0.22636 0.0
C730 C 0.29415 0.31883 0.25589 0.0
C731 C 0.2833 0.2863 0.26953 0.0
C732 C 0.25531 0.22987 0.24099 0.0
C733 C 0.25293 0.22499 0.26845 0.0
C734 C 0.21864 0.13956 0.22487 0.0
C735 C 0.30048 0.20561 0.20243 0.0
N736 N 0.24089 0.19874 0.25438 0.0
N737 N 0.29262 0.23167 0.215 0.0
H738 H 0.08958 0.20788 0.36194 0.0
H739 H 0.03445 0.3835 0.4267 0.0
H740 H 0.164 0.39533 0.36061 0.0
H741 H 0.91447 0.19959 0.4195 0.0
H742 H 0.07943 0.38819 0.40169 0.0
H743 H 0.01981 0.20194 0.38159 0.0
C744 C 0.09018 0.24758 0.36546 0.0
C745 C 0.13333 0.30233 0.35985 0.0
C746 C 0.04273 0.34687 0.40543 0.0
C747 C 0.05484 0.29598 0.38253 0.0
C748 C 0.01741 0.34422 0.41974 0.0
C749 C 0.97121 0.29105 0.42514 0.0
C750 C 0.02258 0.29563 0.3966 0.0
C751 C 0.95006 0.2414 0.41566 0.0
C752 C 0.05061 0.24421 0.37675 0.0
C753 C 0.13232 0.35237 0.3649 0.0
N754 N 0.97661 0.2446 0.40192 0.0
N755 N 0.09453 0.34812 0.37615 0.0
H756 H 0.73511 0.96573 0.59406 0.0
H757 H 0.78123 0.22318 0.53848 0.0
H758 H 0.72949 0.11961 0.60841 0.0
H759 H 0.77644 0.06605 0.52205 0.0
H760 H 0.74446 0.17674 0.56316 0.0
H761 H 0.73537 0.99353 0.56714 0.0
C762 C 0.73348 0.00507 0.59158 0.0
C763 C 0.73329 0.04085 0.60358 0.0
C764 C 0.75058 0.15193 0.55412 0.0
C765 C 0.73302 0.07259 0.5728 0.0
C766 C 0.77106 0.17829 0.53983 0.0
C767 C 0.78296 0.14899 0.52805 0.0
C768 C 0.74278 0.09612 0.55688 0.0
C769 C 0.76961 0.09111 0.53087 0.0
C770 C 0.7332 0.02067 0.5762 0.0
C771 C 0.72966 0.09053 0.59965 0.0
N772 N 0.75126 0.06695 0.54508 0.0
N773 N 0.73042 0.10523 0.58462 0.0
H774 H 0.69164 0.64367 0.75853 0.0
H775 H 0.82602 0.9552 0.71725 0.0
H776 H 0.78218 0.80838 0.78272 0.0
H777 H 0.67752 0.79958 0.69874 0.0
H778 H 0.82881 0.89785 0.73901 0.0
H779 H 0.70393 0.69705 0.73429 0.0
C780 C 0.71479 0.69106 0.75866 0.0
C781 C 0.73557 0.72188 0.77257 0.0
C782 C 0.79607 0.87615 0.73009 0.0
C783 C 0.75011 0.78278 0.74511 0.0
C784 C 0.79475 0.90867 0.71761 0.0
C785 C 0.75136 0.88202 0.70621 0.0
C786 C 0.75402 0.81647 0.73113 0.0
C787 C 0.71134 0.82177 0.70738 0.0
C788 C 0.72148 0.72136 0.7449 0.0
C789 C 0.7649 0.78319 0.77223 0.0
N790 N 0.71348 0.79093 0.71967 0.0
N791 N 0.77134 0.81169 0.75871 0.0
H792 H 0.05282 0.65683 0.92442 0.0
H793 H 0.89753 0.78954 0.87304 0.0
H794 H 0.9743 0.75376 0.94269 0.0
H795 H 0.90649 0.63521 0.86142 0.0
H796 H 0.96157 0.80598 0.89524 0.0
H797 H 0.0363 0.68024 0.89827 0.0
C798 C 0.03334 0.68419 0.92292 0.0
C799 C 0.01309 0.70175 0.93571 0.0
C800 C 0.95074 0.76946 0.88758 0.0
C801 C 0.99471 0.72902 0.90594 0.0
C802 C 0.91455 0.76018 0.87489 0.0
C803 C 0.89638 0.71056 0.86553 0.0
C804 C 0.96912 0.72909 0.89081 0.0
C805 C 0.91904 0.67353 0.8685 0.0
C806 C 0.02406 0.69755 0.90803 0.0
C807 C 0.98985 0.73865 0.93317 0.0
N808 N 0.95382 0.6832 0.88101 0.0
N809 N 0.98013 0.75011 0.91852 0.0
H810 H 0.33394 0.96555 0.09619 0.0
H811 H 0.1041 0.89745 0.02882 0.0
H812 H 0.22117 0.04038 0.09359 0.0
H813 H 0.22974 0.83785 0.02864 0.0
H814 H 0.15715 0.96295 0.05026 0.0
H815 H 0.30554 0.92891 0.06984 0.0
C816 C 0.30352 0.9746 0.09007 0.0
C817 C 0.27942 0.00548 0.09724 0.0
C818 C 0.17384 0.93639 0.04535 0.0
C819 C 0.2468 0.96389 0.06701 0.0
C820 C 0.14386 0.8994 0.03297 0.0
C821 C 0.16196 0.86139 0.02709 0.0
C822 C 0.22187 0.93493 0.05198 0.0
C823 C 0.21356 0.86555 0.03306 0.0
C824 C 0.28761 0.95404 0.07497 0.0
C825 C 0.24108 0.01695 0.08859 0.0
N826 N 0.24105 0.90072 0.04535 0.0
N827 N 0.22543 0.99553 0.07404 0.0
H828 H 0.63809 0.68574 0.56885 0.0
H829 H 0.96779 0.7991 0.59594 0.0
H830 H 0.78701 0.75314 0.53802 0.0
H831 H 0.81608 0.68564 0.62344 0.0
H832 H 0.90311 0.8031 0.57639 0.0
H833 H 0.70455 0.70637 0.59063 0.0
C834 C 0.68461 0.70522 0.56661 0.0
C835 C 0.7064 0.71612 0.55143 0.0
C836 C 0.88401 0.7778 0.58677 0.0
C837 C 0.7827 0.74076 0.57638 0.0
C838 C 0.92087 0.77573 0.59797 0.0
C839 C 0.89715 0.74163 0.61127 0.0
C840 C 0.82299 0.74568 0.58891 0.0
C841 C 0.83602 0.71172 0.61323 0.0
C842 C 0.72248 0.71714 0.57907 0.0
C843 C 0.76752 0.74336 0.54937 0.0
N844 N 0.80093 0.71419 0.60211 0.0
N845 N 0.80335 0.7541 0.56168 0.0
H846 H 0.10591 0.8863 0.78836 0.0
H847 H 0.06378 0.6873 0.71536 0.0
H848 H 0.15366 0.75191 0.78775 0.0
H849 H 0.00965 0.81692 0.71743 0.0
H850 H 0.08203 0.69853 0.74316 0.0
H851 H 0.0519 0.84714 0.76437 0.0
C852 C 0.10348 0.84736 0.78347 0.0
C853 C 0.13536 0.82306 0.78993 0.0
C854 C 0.0654 0.72392 0.73755 0.0
C855 C 0.07532 0.77925 0.76211 0.0
C856 C 0.05549 0.71791 0.72163 0.0
C857 C 0.03595 0.7518 0.71394 0.0
C858 C 0.05612 0.76444 0.74582 0.0
C859 C 0.02458 0.78973 0.72278 0.0
C860 C 0.07317 0.8254 0.76962 0.0
C861 C 0.13082 0.77284 0.78295 0.0
N862 N 0.03549 0.79548 0.73818 0.0
N863 N 0.10253 0.75335 0.76924 0.0
H864 H 0.23823 0.03393 0.87377 0.0
H865 H 0.31648 0.09503 0.96155 0.0
H866 H 0.29752 0.93545 0.90049 0.0
H867 H 0.20288 0.14538 0.93871 0.0
H868 H 0.30464 0.03107 0.9397 0.0
H869 H 0.216 0.0677 0.89764 0.0
C870 C 0.24514 0.01805 0.88462 0.0
C871 C 0.27117 0.98287 0.88513 0.0
C872 C 0.28149 0.05535 0.93958 0.0
C873 C 0.24732 0.02276 0.9125 0.0
C874 C 0.28864 0.0921 0.95198 0.0
C875 C 0.26098 0.12569 0.95183 0.0
C876 C 0.24742 0.05321 0.92684 0.0
C877 C 0.22483 0.12 0.93926 0.0
C878 C 0.23278 0.03774 0.89828 0.0
C879 C 0.27917 0.96398 0.8996 0.0
N880 N 0.2198 0.08514 0.92715 0.0
N881 N 0.26854 0.98518 0.91272 0.0
H882 H 0.20651 0.16183 0.0604 0.0
H883 H 0.24272 0.38431 0.12735 0.0
H884 H 0.32971 0.34761 0.05886 0.0
H885 H 0.10332 0.20411 0.12505 0.0
H886 H 0.29086 0.36629 0.10561 0.0
H887 H 0.18502 0.17184 0.08716 0.0
C888 C 0.22991 0.20464 0.06571 0.0
C889 C 0.26922 0.25421 0.05718 0.0
C890 C 0.25031 0.33044 0.11006 0.0
C891 C 0.24392 0.26599 0.0879 0.0
C892 C 0.22281 0.34067 0.12247 0.0
C893 C 0.16832 0.29596 0.12787 0.0
C894 C 0.22309 0.27512 0.10298 0.0
C895 C 0.1452 0.23998 0.12132 0.0
C896 C 0.21729 0.21033 0.08103 0.0
C897 C 0.29789 0.30848 0.06481 0.0
N898 N 0.17221 0.23142 0.10906 0.0
N899 N 0.28412 0.31305 0.07967 0.0
H900 H 0.98363 0.20578 0.20936 0.0
H901 H 0.91336 0.23134 0.29498 0.0
H902 H 0.06098 0.37115 0.23342 0.0
H903 H 0.88291 0.06886 0.27484 0.0
H904 H 0.98087 0.28457 0.27388 0.0
H905 H 0.96261 0.15552 0.23407 0.0
C906 C 0.99781 0.23172 0.21981 0.0
C907 C 0.02226 0.29269 0.21935 0.0
C908 C 0.96047 0.23734 0.27424 0.0
C909 C 0.99681 0.23534 0.24768 0.0
C910 C 0.92167 0.20705 0.28622 0.0
C911 C 0.89201 0.14577 0.28648 0.0
C912 C 0.96843 0.2059 0.26229 0.0
C913 C 0.90484 0.1162 0.27502 0.0
C914 C 0.98546 0.20291 0.23397 0.0
C915 C 0.03999 0.32389 0.23331 0.0
N916 N 0.94122 0.1465 0.2632 0.0
N917 N 0.02551 0.29482 0.24694 0.0
H918 H 0.62607 0.96853 0.38641 0.0
H919 H 0.76334 0.90552 0.46034 0.0
H920 H 0.81163 0.0369 0.3934 0.0
H921 H 0.57802 0.8421 0.4549 0.0
H922 H 0.78312 0.96986 0.4383 0.0
H923 H 0.60862 0.93563 0.41323 0.0
C924 C 0.66319 0.97698 0.39357 0.0
C925 C 0.7203 0.00467 0.38749 0.0
C926 C 0.73815 0.94267 0.44207 0.0
C927 C 0.70072 0.96756 0.41827 0.0
C928 C 0.72684 0.90628 0.45481 0.0
C929 C 0.66878 0.86746 0.45933 0.0
C930 C 0.69107 0.9398 0.43368 0.0
C931 C 0.62336 0.87025 0.45157 0.0
C932 C 0.65325 0.95858 0.40893 0.0
C933 C 0.76684 0.01577 0.39748 0.0
N934 N 0.63536 0.90488 0.43894 0.0
N935 N 0.75592 0.99651 0.41229 0.0
loop_
_geom_bond_atom_site_label_1
_geom_bond_atom_site_label_2
_geom_bond_distance
_geom_bond_site_symmetry_2
_ccdc_geom_bond_type
C0 C1 1.351 . S
C0 N3 1.368 . S
C0 H5 0.931 . S
C1 C0 1.351 . S
C1 N2 1.373 . S
C1 H29 0.930 . S
N2 C1 1.373 . S
N2 C4 1.340 . S
N3 C0 1.368 . S
N3 C4 1.321 . S
N3 Co6 2.135 . S
C4 N2 1.340 . S
C4 N3 1.321 . S
C4 H28 0.930 . S
H5 C0 0.931 . S
Co6 N3 2.135 . S
Co6 N9 2.121 . S
Co6 O14 2.055 . S
Co6 O17 2.039 . S
Co6 N20 2.140 . S
C7 O8 1.227 . S
C7 O17 1.265 . S
O8 C7 1.227 . S
N9 Co6 2.121 . S
N9 C11 1.375 . S
N9 C12 1.313 . S
C10 C11 1.338 . S
C10 N13 1.377 . S
C10 H30 0.930 . S
C11 N9 1.375 . S
C11 C10 1.338 . S
C11 H15 0.931 . S
C12 N9 1.313 . S
C12 N13 1.344 . S
C12 H16 0.930 . S
N13 C10 1.377 . S
N13 C12 1.344 . S
O14 Co6 2.055 . S
O14 C18 1.253 . S
H15 C11 0.931 . S
H16 C12 0.930 . S
O17 Co6 2.039 . S
O17 C7 1.265 . S
C18 O14 1.253 . S
C18 O19 1.227 . S
O19 C18 1.227 . S
N20 Co6 2.140 . S
N20 C23 1.346 . S
N20 C24 1.345 . S
C21 C22 1.387 . S
C21 C25 1.391 . S
C22 C21 1.387 . S
C22 C23 1.369 . S
C22 H31 0.929 . S
C23 N20 1.346 . S
C23 C22 1.369 . S
C23 H26 0.928 . S
C24 N20 1.345 . S
C24 C25 1.371 . S
C24 H27 0.931 . S
C25 C21 1.391 . S
C25 C24 1.371 . S
C25 H32 0.930 . S
H26 C23 0.928 . S
H27 C24 0.931 . S
H28 C4 0.930 . S
H29 C1 0.930 . S
H30 C10 0.930 . S
H31 C22 0.929 . S
H32 C25 0.930 . S
C33 C34 1.351 . S
C33 N36 1.368 . S
C33 H38 0.931 . S
C34 C33 1.351 . S
C34 N35 1.373 . S
C34 H62 0.930 . S
N35 C34 1.373 . S
N35 C37 1.340 . S
N36 C33 1.368 . S
N36 C37 1.321 . S
N36 Co39 2.135 . S
C37 N35 1.340 . S
C37 N36 1.321 . S
C37 H61 0.930 1_455 S
H38 C33 0.931 . S
Co39 N36 2.135 . S
Co39 N42 2.121 . S
Co39 O47 2.055 . S
Co39 O50 2.039 1_455 S
Co39 N53 2.140 1_455 S
C40 O41 1.227 . S
C40 O50 1.265 . S
O41 C40 1.227 . S
N42 Co39 2.121 . S
N42 C44 1.375 1_455 S
N42 C45 1.313 . S
C43 C44 1.338 . S
C43 N46 1.377 1_655 S
C43 H63 0.930 . S
C44 N42 1.375 1_655 S
C44 C43 1.338 . S
C44 H48 0.931 . S
C45 N42 1.313 . S
C45 N46 1.344 . S
C45 H49 0.930 . S
N46 C43 1.377 1_455 S
N46 C45 1.344 . S
O47 Co39 2.055 . S
O47 C51 1.253 . S
H48 C44 0.931 . S
H49 C45 0.930 . S
O50 Co39 2.039 1_655 S
O50 C40 1.265 . S
C51 O47 1.253 . S
C51 O52 1.227 . S
O52 C51 1.227 . S
N53 Co39 2.140 1_655 S
N53 C56 1.346 . S
N53 C57 1.345 . S
C54 C55 1.387 . S
C54 C58 1.391 . S
C55 C54 1.387 . S
C55 C56 1.369 . S
C55 H64 0.929 . S
C56 N53 1.346 . S
C56 C55 1.369 . S
C56 H59 0.928 . S
C57 N53 1.345 . S
C57 C58 1.371 . S
C57 H60 0.931 1_655 S
C58 C54 1.391 . S
C58 C57 1.371 . S
C58 H65 0.930 . S
H59 C56 0.928 . S
H60 C57 0.931 1_455 S
H61 C37 0.930 1_655 S
H62 C34 0.930 . S
H63 C43 0.930 . S
H64 C55 0.929 . S
H65 C58 0.930 . S
C66 C67 1.351 . S
C66 N69 1.368 . S
C66 H71 0.931 . S
C67 C66 1.351 . S
C67 N68 1.373 . S
C67 H95 0.930 . S
N68 C67 1.373 . S
N68 C70 1.340 . S
N69 C66 1.368 . S
N69 C70 1.321 . S
N69 Co72 2.135 . S
C70 N68 1.340 . S
C70 N69 1.321 . S
C70 H94 0.930 1_545 S
H71 C66 0.931 . S
Co72 N69 2.135 . S
Co72 N75 2.121 . S
Co72 O80 2.055 . S
Co72 O83 2.039 1_545 S
Co72 N86 2.140 1_545 S
C73 O74 1.227 . S
C73 O83 1.265 . S
O74 C73 1.227 . S
N75 Co72 2.121 . S
N75 C77 1.375 1_545 S
N75 C78 1.313 . S
C76 C77 1.338 . S
C76 N79 1.377 1_565 S
C76 H96 0.930 . S
C77 N75 1.375 1_565 S
C77 C76 1.338 . S
C77 H81 0.931 . S
C78 N75 1.313 . S
C78 N79 1.344 . S
C78 H82 0.930 . S
N79 C76 1.377 1_545 S
N79 C78 1.344 . S
O80 Co72 2.055 . S
O80 C84 1.253 . S
H81 C77 0.931 . S
H82 C78 0.930 . S
O83 Co72 2.039 1_565 S
O83 C73 1.265 . S
C84 O80 1.253 . S
C84 O85 1.227 . S
O85 C84 1.227 . S
N86 Co72 2.140 1_565 S
N86 C89 1.346 . S
N86 C90 1.345 . S
C87 C88 1.387 . S
C87 C91 1.391 . S
C88 C87 1.387 . S
C88 C89 1.369 . S
C88 H97 0.929 . S
C89 N86 1.346 . S
C89 C88 1.369 . S
C89 H92 0.928 . S
C90 N86 1.345 . S
C90 C91 1.371 . S
C90 H93 0.931 1_565 S
C91 C87 1.391 . S
C91 C90 1.371 . S
C91 H98 0.930 . S
H92 C89 0.928 . S
H93 C90 0.931 1_545 S
H94 C70 0.930 1_565 S
H95 C67 0.930 . S
H96 C76 0.930 . S
H97 C88 0.929 . S
H98 C91 0.930 . S
C99 C100 1.351 . S
C99 N102 1.368 . S
C99 H104 0.931 . S
C100 C99 1.351 . S
C100 N101 1.373 . S
C100 H128 0.930 . S
N101 C100 1.373 . S
N101 C103 1.340 . S
N102 C99 1.368 . S
N102 C103 1.321 . S
N102 Co105 2.135 . S
C103 N101 1.340 . S
C103 N102 1.321 . S
C103 H127 0.930 . S
H104 C99 0.931 . S
Co105 N102 2.135 . S
Co105 N108 2.121 . S
Co105 O113 2.055 . S
Co105 O116 2.039 . S
Co105 N119 2.140 . S
C106 O107 1.227 . S
C106 O116 1.265 . S
O107 C106 1.227 . S
N108 Co105 2.121 . S
N108 C110 1.375 . S
N108 C111 1.313 . S
C109 C110 1.338 . S
C109 N112 1.377 . S
C109 H129 0.930 . S
C110 N108 1.375 . S
C110 C109 1.338 . S
C110 H114 0.931 . S
C111 N108 1.313 . S
C111 N112 1.344 . S
C111 H115 0.930 . S
N112 C109 1.377 . S
N112 C111 1.344 . S
O113 Co105 2.055 . S
O113 C117 1.253 . S
H114 C110 0.931 . S
H115 C111 0.930 . S
O116 Co105 2.039 . S
O116 C106 1.265 . S
C117 O113 1.253 . S
C117 O118 1.227 . S
O118 C117 1.227 . S
N119 Co105 2.140 . S
N119 C122 1.346 . S
N119 C123 1.345 . S
C120 C121 1.387 . S
C120 C124 1.391 . S
C121 C120 1.387 . S
C121 C122 1.369 . S
C121 H130 0.929 . S
C122 N119 1.346 . S
C122 C121 1.369 . S
C122 H125 0.928 . S
C123 N119 1.345 . S
C123 C124 1.371 . S
C123 H126 0.931 . S
C124 C120 1.391 . S
C124 C123 1.371 . S
C124 H131 0.930 . S
H125 C122 0.928 . S
H126 C123 0.931 . S
H127 C103 0.930 . S
H128 C100 0.930 . S
H129 C109 0.930 . S
H130 C121 0.929 . S
H131 C124 0.930 . S
C132 C133 1.351 . S
C132 N135 1.368 . S
C132 H137 0.931 . S
C133 C132 1.351 . S
C133 N134 1.373 . S
C133 H161 0.930 . S
N134 C133 1.373 . S
N134 C136 1.340 . S
N135 C132 1.368 . S
N135 C136 1.321 . S
N135 Co138 2.135 . S
C136 N134 1.340 . S
C136 N135 1.321 . S
C136 H160 0.930 1_655 S
H137 C132 0.931 . S
Co138 N135 2.135 . S
Co138 N141 2.121 1_554 S
Co138 O146 2.055 . S
Co138 O149 2.018 1_654 S
Co138 N152 2.140 1_655 S
C139 O140 1.227 . S
C139 O149 1.257 1_554 S
O140 C139 1.227 . S
N141 Co138 2.121 1_556 S
N141 C143 1.375 1_655 S
N141 C144 1.313 . S
C142 C143 1.338 . S
C142 N145 1.377 1_455 S
C142 H162 0.930 . S
C143 N141 1.375 1_455 S
C143 C142 1.338 . S
C143 H147 0.931 . S
C144 N141 1.313 . S
C144 N145 1.344 . S
C144 H148 0.930 . S
N145 C142 1.377 1_655 S
N145 C144 1.344 . S
O146 Co138 2.055 . S
O146 C150 1.253 . S
H147 C143 0.931 . S
H148 C144 0.930 . S
O149 Co138 2.018 1_456 S
O149 C139 1.257 1_556 S
C150 O146 1.253 . S
C150 O151 1.227 . S
O151 C150 1.227 . S
N152 Co138 2.140 1_455 S
N152 C155 1.346 . S
N152 C156 1.345 . S
C153 C154 1.387 . S
C153 C157 1.391 . S
C154 C153 1.387 . S
C154 C155 1.369 . S
C154 H163 0.929 . S
C155 N152 1.346 . S
C155 C154 1.369 . S
C155 H158 0.928 . S
C156 N152 1.345 . S
C156 C157 1.371 . S
C156 H159 0.931 1_455 S
C157 C153 1.391 . S
C157 C156 1.371 . S
C157 H164 0.930 . S
H158 C155 0.928 . S
H159 C156 0.931 1_655 S
H160 C136 0.930 1_455 S
H161 C133 0.930 . S
H162 C142 0.930 . S
H163 C154 0.929 . S
H164 C157 0.930 . S
C165 C166 1.351 . S
C165 N168 1.368 . S
C165 H170 0.931 . S
C166 C165 1.351 . S
C166 N167 1.373 . S
C166 H194 0.930 . S
N167 C166 1.373 . S
N167 C169 1.340 . S
N168 C165 1.368 . S
N168 C169 1.321 . S
N168 Co171 2.135 . S
C169 N167 1.340 . S
C169 N168 1.321 . S
C169 H193 0.930 1_565 S
H170 C165 0.931 . S
Co171 N168 2.135 . S
Co171 N174 2.121 . S
Co171 O179 2.055 . S
Co171 O182 2.039 1_565 S
Co171 N185 2.140 1_565 S
C172 O173 1.227 . S
C172 O182 1.265 . S
O173 C172 1.227 . S
N174 Co171 2.121 . S
N174 C176 1.375 1_565 S
N174 C177 1.313 . S
C175 C176 1.338 . S
C175 N178 1.377 1_545 S
C175 H195 0.930 . S
C176 N174 1.375 1_545 S
C176 C175 1.338 . S
C176 H180 0.931 . S
C177 N174 1.313 . S
C177 N178 1.344 . S
C177 H181 0.930 . S
N178 C175 1.377 1_565 S
N178 C177 1.344 . S
O179 Co171 2.055 . S
O179 C183 1.253 . S
H180 C176 0.931 . S
H181 C177 0.930 . S
O182 Co171 2.039 1_545 S
O182 C172 1.265 . S
C183 O179 1.253 . S
C183 O184 1.227 . S
O184 C183 1.227 . S
N185 Co171 2.140 1_545 S
N185 C188 1.346 . S
N185 C189 1.345 . S
C186 C187 1.387 . S
C186 C190 1.391 . S
C187 C186 1.387 . S
C187 C188 1.369 . S
C187 H196 0.929 . S
C188 N185 1.346 . S
C188 C187 1.369 . S
C188 H191 0.928 . S
C189 N185 1.345 . S
C189 C190 1.371 . S
C189 H192 0.931 1_545 S
C190 C186 1.391 . S
C190 C189 1.371 . S
C190 H197 0.930 . S
H191 C188 0.928 . S
H192 C189 0.931 1_565 S
H193 C169 0.930 1_545 S
H194 C166 0.930 . S
H195 C175 0.930 . S
H196 C187 0.929 . S
H197 C190 0.930 . S
C198 C199 1.351 . S
C198 N201 1.368 . S
C198 H203 0.931 . S
C199 C198 1.351 . S
C199 N200 1.373 . S
C199 H227 0.930 . S
N200 C199 1.373 . S
N200 C202 1.340 . S
N201 C198 1.368 . S
N201 C202 1.321 . S
N201 Co204 2.135 . S
C202 N200 1.340 . S
C202 N201 1.321 . S
C202 H226 0.930 . S
H203 C198 0.931 . S
Co204 N201 2.135 . S
Co204 N207 2.121 . S
Co204 O212 2.055 . S
Co204 O215 2.039 . S
Co204 N218 2.140 . S
C205 O206 1.227 . S
C205 O215 1.265 . S
O206 C205 1.227 . S
N207 Co204 2.121 . S
N207 C209 1.375 . S
N207 C210 1.313 . S
C208 C209 1.338 . S
C208 N211 1.377 . S
C208 H228 0.930 . S
C209 N207 1.375 . S
C209 C208 1.338 . S
C209 H213 0.931 . S
C210 N207 1.313 . S
C210 N211 1.344 . S
C210 H214 0.930 . S
N211 C208 1.377 . S
N211 C210 1.344 . S
O212 Co204 2.055 . S
O212 C216 1.253 . S
H213 C209 0.931 . S
H214 C210 0.930 . S
O215 Co204 2.039 . S
O215 C205 1.265 . S
C216 O212 1.253 . S
C216 O217 1.227 . S
O217 C216 1.227 . S
N218 Co204 2.140 . S
N218 C221 1.346 . S
N218 C222 1.345 . S
C219 C220 1.387 . S
C219 C223 1.391 . S
C220 C219 1.387 . S
C220 C221 1.369 . S
C220 H229 0.929 . S
C221 N218 1.346 . S
C221 C220 1.369 . S
C221 H224 0.928 . S
C222 N218 1.345 . S
C222 C223 1.371 . S
C222 H225 0.931 . S
C223 C219 1.391 . S
C223 C222 1.371 . S
C223 H230 0.930 . S
H224 C221 0.928 . S
H225 C222 0.931 . S
H226 C202 0.930 . S
H227 C199 0.930 . S
H228 C208 0.930 . S
H229 C220 0.929 . S
H230 C223 0.930 . S
C231 C232 1.351 . S
C231 N234 1.368 . S
C231 H236 0.931 . S
C232 C231 1.351 . S
C232 N233 1.373 . S
C232 H260 0.930 . S
N233 C232 1.373 . S
N233 C235 1.340 . S
N234 C231 1.368 . S
N234 C235 1.321 . S
N234 Co237 2.135 . S
C235 N233 1.340 . S
C235 N234 1.321 . S
C235 H259 0.930 1_455 S
H236 C231 0.931 . S
Co237 N234 2.135 . S
Co237 N240 2.121 . S
Co237 O245 2.055 . S
Co237 O248 2.039 1_455 S
Co237 N251 2.140 1_455 S
C238 O239 1.227 . S
C238 O248 1.265 . S
O239 C238 1.227 . S
N240 Co237 2.121 . S
N240 C242 1.375 1_455 S
N240 C243 1.313 . S
C241 C242 1.338 . S
C241 N244 1.377 1_655 S
C241 H261 0.930 . S
C242 N240 1.375 1_655 S
C242 C241 1.338 . S
C242 H246 0.931 . S
C243 N240 1.313 . S
C243 N244 1.344 . S
C243 H247 0.930 . S
N244 C241 1.377 1_455 S
N244 C243 1.344 . S
O245 Co237 2.055 . S
O245 C249 1.253 . S
H246 C242 0.931 . S
H247 C243 0.930 . S
O248 Co237 2.039 1_655 S
O248 C238 1.265 . S
C249 O245 1.253 . S
C249 O250 1.227 . S
O250 C249 1.227 . S
N251 Co237 2.140 1_655 S
N251 C254 1.346 . S
N251 C255 1.345 . S
C252 C253 1.387 . S
C252 C256 1.391 . S
C253 C252 1.387 . S
C253 C254 1.369 . S
C253 H262 0.929 . S
C254 N251 1.346 . S
C254 C253 1.369 . S
C254 H257 0.928 . S
C255 N251 1.345 . S
C255 C256 1.371 . S
C255 H258 0.931 1_655 S
C256 C252 1.391 . S
C256 C255 1.371 . S
C256 H263 0.930 . S
H257 C254 0.928 . S
H258 C255 0.931 1_455 S
H259 C235 0.930 1_655 S
H260 C232 0.930 . S
H261 C241 0.930 . S
H262 C253 0.929 . S
H263 C256 0.930 . S
C264 C265 1.351 . S
C264 N267 1.368 . S
C264 H269 0.931 . S
C265 C264 1.351 . S
C265 N266 1.373 . S
C265 H293 0.930 . S
N266 C265 1.373 . S
N266 C268 1.340 . S
N267 C264 1.368 . S
N267 C268 1.321 . S
N267 Co270 2.135 . S
C268 N266 1.340 . S
C268 N267 1.321 . S
C268 H292 0.930 1_545 S
H269 C264 0.931 . S
Co270 N267 2.135 . S
Co270 N273 2.121 . S
Co270 O278 2.055 . S
Co270 O281 2.039 1_545 S
Co270 N284 2.140 1_545 S
C271 O272 1.227 . S
C271 O281 1.265 . S
O272 C271 1.227 . S
N273 Co270 2.121 . S
N273 C275 1.375 1_545 S
N273 C276 1.313 . S
C274 C275 1.338 . S
C274 N277 1.377 1_565 S
C274 H294 0.930 . S
C275 N273 1.375 1_565 S
C275 C274 1.338 . S
C275 H279 0.931 . S
C276 N273 1.313 . S
C276 N277 1.344 . S
C276 H280 0.930 . S
N277 C274 1.377 1_545 S
N277 C276 1.344 . S
O278 Co270 2.055 . S
O278 C282 1.253 . S
H279 C275 0.931 . S
H280 C276 0.930 . S
O281 Co270 2.039 1_565 S
O281 C271 1.265 . S
C282 O278 1.253 . S
C282 O283 1.227 . S
O283 C282 1.227 . S
N284 Co270 2.140 1_565 S
N284 C287 1.346 . S
N284 C288 1.345 . S
C285 C286 1.387 . S
C285 C289 1.391 . S
C286 C285 1.387 . S
C286 C287 1.369 . S
C286 H295 0.929 . S
C287 N284 1.346 . S
C287 C286 1.369 . S
C287 H290 0.928 . S
C288 N284 1.345 . S
C288 C289 1.371 . S
C288 H291 0.931 1_565 S
C289 C285 1.391 . S
C289 C288 1.371 . S
C289 H296 0.930 . S
H290 C287 0.928 . S
H291 C288 0.931 1_545 S
H292 C268 0.930 1_565 S
H293 C265 0.930 . S
H294 C274 0.930 . S
H295 C286 0.929 . S
H296 C289 0.930 . S
C297 C298 1.351 . S
C297 N300 1.368 . S
C297 H302 0.931 . S
C298 C297 1.351 . S
C298 N299 1.373 . S
C298 H326 0.930 . S
N299 C298 1.373 . S
N299 C301 1.340 . S
N300 C297 1.368 . S
N300 C301 1.321 . S
N300 Co303 2.135 . S
C301 N299 1.340 . S
C301 N300 1.321 . S
C301 H325 0.930 . S
H302 C297 0.931 . S
Co303 N300 2.135 . S
Co303 N306 2.121 1_556 S
Co303 O311 2.055 . S
Co303 O314 2.070 . S
Co303 N317 2.140 . S
C304 O305 1.227 . S
C304 O314 1.280 . S
O305 C304 1.227 . S
N306 Co303 2.121 1_554 S
N306 C308 1.375 . S
N306 C309 1.313 . S
C307 C308 1.338 . S
C307 N310 1.377 . S
C307 H327 0.930 . S
C308 N306 1.375 . S
C308 C307 1.338 . S
C308 H312 0.931 . S
C309 N306 1.313 . S
C309 N310 1.344 . S
C309 H313 0.930 . S
N310 C307 1.377 . S
N310 C309 1.344 . S
O311 Co303 2.055 . S
O311 C315 1.253 . S
H312 C308 0.931 . S
H313 C309 0.930 . S
O314 Co303 2.070 . S
O314 C304 1.280 . S
C315 O311 1.253 . S
C315 O316 1.227 . S
O316 C315 1.227 . S
N317 Co303 2.140 . S
N317 C320 1.346 . S
N317 C321 1.345 . S
C318 C319 1.387 . S
C318 C322 1.391 . S
C319 C318 1.387 . S
C319 C320 1.369 . S
C319 H328 0.929 . S
C320 N317 1.346 . S
C320 C319 1.369 . S
C320 H323 0.928 . S
C321 N317 1.345 . S
C321 C322 1.371 . S
C321 H324 0.931 . S
C322 C318 1.391 . S
C322 C321 1.371 . S
C322 H329 0.930 . S
H323 C320 0.928 . S
H324 C321 0.931 . S
H325 C301 0.930 . S
H326 C298 0.930 . S
H327 C307 0.930 . S
H328 C319 0.929 . S
H329 C322 0.930 . S
C330 C331 1.351 . S
C330 N333 1.368 . S
C330 H335 0.931 . S
C331 C330 1.351 . S
C331 N332 1.373 . S
C331 H359 0.930 . S
N332 C331 1.373 . S
N332 C334 1.340 . S
N333 C330 1.368 . S
N333 C334 1.321 . S
N333 Co336 2.135 . S
C334 N332 1.340 . S
C334 N333 1.321 . S
C334 H358 0.930 1_655 S
H335 C330 0.931 . S
Co336 N333 2.135 . S
Co336 N339 2.121 . S
Co336 O344 2.055 . S
Co336 O347 2.039 1_655 S
Co336 N350 2.140 1_655 S
C337 O338 1.227 . S
C337 O347 1.265 . S
O338 C337 1.227 . S
N339 Co336 2.121 . S
N339 C341 1.375 1_655 S
N339 C342 1.313 . S
C340 C341 1.338 . S
C340 N343 1.377 1_455 S
C340 H360 0.930 . S
C341 N339 1.375 1_455 S
C341 C340 1.338 . S
C341 H345 0.931 . S
C342 N339 1.313 . S
C342 N343 1.344 . S
C342 H346 0.930 . S
N343 C340 1.377 1_655 S
N343 C342 1.344 . S
O344 Co336 2.055 . S
O344 C348 1.253 . S
H345 C341 0.931 . S
H346 C342 0.930 . S
O347 Co336 2.039 1_455 S
O347 C337 1.265 . S
C348 O344 1.253 . S
C348 O349 1.227 . S
O349 C348 1.227 . S
N350 Co336 2.140 1_455 S
N350 C353 1.346 . S
N350 C354 1.345 . S
C351 C352 1.387 . S
C351 C355 1.391 . S
C352 C351 1.387 . S
C352 C353 1.369 . S
C352 H361 0.929 . S
C353 N350 1.346 . S
C353 C352 1.369 . S
C353 H356 0.928 . S
C354 N350 1.345 . S
C354 C355 1.371 . S
C354 H357 0.931 1_455 S
C355 C351 1.391 . S
C355 C354 1.371 . S
C355 H362 0.930 . S
H356 C353 0.928 . S
H357 C354 0.931 1_655 S
H358 C334 0.930 1_455 S
H359 C331 0.930 . S
H360 C340 0.930 . S
H361 C352 0.929 . S
H362 C355 0.930 . S
C363 C364 1.351 . S
C363 N366 1.368 . S
C363 H368 0.931 . S
C364 C363 1.351 . S
C364 N365 1.373 . S
C364 H392 0.930 . S
N365 C364 1.373 . S
N365 C367 1.340 . S
N366 C363 1.368 . S
N366 C367 1.321 . S
N366 Co369 2.135 . S
C367 N365 1.340 . S
C367 N366 1.321 . S
C367 H391 0.930 1_565 S
H368 C363 0.931 . S
Co369 N366 2.135 . S
Co369 N372 2.121 . S
Co369 O377 2.055 . S
Co369 O380 2.039 1_565 S
Co369 N383 2.140 1_565 S
C370 O371 1.227 . S
C370 O380 1.265 . S
O371 C370 1.227 . S
N372 Co369 2.121 . S
N372 C374 1.375 1_565 S
N372 C375 1.313 . S
C373 C374 1.338 . S
C373 N376 1.377 1_545 S
C373 H393 0.930 . S
C374 N372 1.375 1_545 S
C374 C373 1.338 . S
C374 H378 0.931 . S
C375 N372 1.313 . S
C375 N376 1.344 . S
C375 H379 0.930 . S
N376 C373 1.377 1_565 S
N376 C375 1.344 . S
O377 Co369 2.055 . S
O377 C381 1.253 . S
H378 C374 0.931 . S
H379 C375 0.930 . S
O380 Co369 2.039 1_545 S
O380 C370 1.265 . S
C381 O377 1.253 . S
C381 O382 1.227 . S
O382 C381 1.227 . S
N383 Co369 2.140 1_545 S
N383 C386 1.346 . S
N383 C387 1.345 . S
C384 C385 1.387 . S
C384 C388 1.391 . S
C385 C384 1.387 . S
C385 C386 1.369 . S
C385 H394 0.929 . S
C386 N383 1.346 . S
C386 C385 1.369 . S
C386 H389 0.928 . S
C387 N383 1.345 . S
C387 C388 1.371 . S
C387 H390 0.931 1_545 S
C388 C384 1.391 . S
C388 C387 1.371 . S
C388 H395 0.930 . S
H389 C386 0.928 . S
H390 C387 0.931 1_565 S
H391 C367 0.930 1_545 S
H392 C364 0.930 . S
H393 C373 0.930 . S
H394 C385 0.929 . S
H395 C388 0.930 . S
H396 C402 0.930 . S
H397 C406 0.930 . S
H398 C411 0.929 . S
H399 C409 0.929 . S
H400 C404 0.929 . S
H401 C410 0.929 . S
C402 H396 0.930 . S
C402 C403 1.367 . S
C402 C410 1.378 . S
C403 C402 1.367 . S
C403 C411 1.433 . S
C404 H400 0.929 . S
C404 C406 1.378 . S
C404 C408 1.350 . S
C405 C408 1.463 . S
C405 C410 1.350 . S
C405 N413 1.427 . S
C406 H397 0.930 . S
C406 C404 1.378 . S
C406 C407 1.367 . S
C407 C406 1.367 . S
C407 C409 1.433 . S
C408 C404 1.350 . S
C408 C405 1.463 . S
C408 N412 1.427 . S
C409 H399 0.929 . S
C409 C407 1.433 . S
C409 N412 1.384 . S
C410 H401 0.929 . S
C410 C402 1.378 . S
C410 C405 1.350 . S
C411 H398 0.929 . S
C411 C403 1.433 . S
C411 N413 1.384 . S
N412 C408 1.427 . S
N412 C409 1.384 . S
N413 C405 1.427 . S
N413 C411 1.384 . S
H414 C420 0.930 . S
H415 C424 0.930 . S
H416 C429 0.929 . S
H417 C427 0.929 . S
H418 C422 0.929 . S
H419 C428 0.929 . S
C420 H414 0.930 . S
C420 C421 1.367 . S
C420 C428 1.378 . S
C421 C420 1.367 . S
C421 C429 1.433 . S
C422 H418 0.929 . S
C422 C424 1.378 . S
C422 C426 1.350 . S
C423 C426 1.463 . S
C423 C428 1.350 . S
C423 N431 1.427 . S
C424 H415 0.930 . S
C424 C422 1.378 . S
C424 C425 1.367 . S
C425 C424 1.367 . S
C425 C427 1.433 . S
C426 C422 1.350 . S
C426 C423 1.463 . S
C426 N430 1.427 . S
C427 H417 0.929 . S
C427 C425 1.433 . S
C427 N430 1.384 . S
C428 H419 0.929 . S
C428 C420 1.378 . S
C428 C423 1.350 . S
C429 H416 0.929 . S
C429 C421 1.433 . S
C429 N431 1.384 . S
N430 C426 1.427 . S
N430 C427 1.384 . S
N431 C423 1.427 . S
N431 C429 1.384 . S
H432 C438 0.930 . S
H433 C442 0.930 . S
H434 C447 0.929 . S
H435 C445 0.929 . S
H436 C440 0.929 . S
H437 C446 0.929 . S
C438 H432 0.930 . S
C438 C439 1.367 . S
C438 C446 1.378 . S
C439 C438 1.367 . S
C439 C447 1.433 . S
C440 H436 0.929 . S
C440 C442 1.378 . S
C440 C444 1.350 . S
C441 C444 1.463 . S
C441 C446 1.350 . S
C441 N449 1.427 . S
C442 H433 0.930 . S
C442 C440 1.378 . S
C442 C443 1.367 . S
C443 C442 1.367 . S
C443 C445 1.433 . S
C444 C440 1.350 . S
C444 C441 1.463 . S
C444 N448 1.427 . S
C445 H435 0.929 . S
C445 C443 1.433 . S
C445 N448 1.384 . S
C446 H437 0.929 . S
C446 C438 1.378 . S
C446 C441 1.350 . S
C447 H434 0.929 . S
C447 C439 1.433 . S
C447 N449 1.384 . S
N448 C444 1.427 . S
N448 C445 1.384 . S
N449 C441 1.427 . S
N449 C447 1.384 . S
H450 C456 0.930 . S
H451 C460 0.930 . S
H452 C465 0.929 . S
H453 C463 0.929 . S
H454 C458 0.929 . S
H455 C464 0.929 . S
C456 H450 0.930 . S
C456 C457 1.367 . S
C456 C464 1.378 . S
C457 C456 1.367 . S
C457 C465 1.433 . S
C458 H454 0.929 . S
C458 C460 1.378 . S
C458 C462 1.350 . S
C459 C462 1.463 . S
C459 C464 1.350 . S
C459 N467 1.427 . S
C460 H451 0.930 . S
C460 C458 1.378 . S
C460 C461 1.367 . S
C461 C460 1.367 . S
C461 C463 1.433 . S
C462 C458 1.350 . S
C462 C459 1.463 . S
C462 N466 1.427 . S
C463 H453 0.929 . S
C463 C461 1.433 . S
C463 N466 1.384 . S
C464 H455 0.929 . S
C464 C456 1.378 . S
C464 C459 1.350 . S
C465 H452 0.929 . S
C465 C457 1.433 . S
C465 N467 1.384 . S
N466 C462 1.427 . S
N466 C463 1.384 . S
N467 C459 1.427 . S
N467 C465 1.384 . S
H468 C474 0.930 . S
H469 C478 0.930 . S
H470 C483 0.929 . S
H471 C481 0.929 . S
H472 C476 0.929 . S
H473 C482 0.929 . S
C474 H468 0.930 . S
C474 C475 1.367 1_556 S
C474 C482 1.378 . S
C475 C474 1.367 1_554 S
C475 C483 1.433 . S
C476 H472 0.929 . S
C476 C478 1.378 . S
C476 C480 1.350 . S
C477 C480 1.463 . S
C477 C482 1.350 1_554 S
C477 N485 1.427 . S
C478 H469 0.930 . S
C478 C476 1.378 . S
C478 C479 1.367 . S
C479 C478 1.367 . S
C479 C481 1.433 1_554 S
C480 C476 1.350 . S
C480 C477 1.463 . S
C480 N484 1.427 1_554 S
C481 H471 0.929 . S
C481 C479 1.433 1_556 S
C481 N484 1.384 . S
C482 H473 0.929 . S
C482 C474 1.378 . S
C482 C477 1.350 1_556 S
C483 H470 0.929 . S
C483 C475 1.433 . S
C483 N485 1.384 . S
N484 C480 1.427 1_556 S
N484 C481 1.384 . S
N485 C477 1.427 . S
N485 C483 1.384 . S
H486 C492 0.930 . S
H487 C496 0.930 . S
H488 C501 0.929 . S
H489 C499 0.929 . S
H490 C494 0.929 . S
H491 C500 0.929 . S
C492 H486 0.930 . S
C492 C493 1.367 . S
C492 C500 1.378 . S
C493 C492 1.367 . S
C493 C501 1.433 . S
C494 H490 0.929 . S
C494 C496 1.378 . S
C494 C498 1.350 . S
C495 C498 1.463 . S
C495 C500 1.350 . S
C495 N503 1.427 . S
C496 H487 0.930 . S
C496 C494 1.378 . S
C496 C497 1.367 . S
C497 C496 1.367 . S
C497 C499 1.433 . S
C498 C494 1.350 . S
C498 C495 1.463 . S
C498 N502 1.427 . S
C499 H489 0.929 . S
C499 C497 1.433 . S
C499 N502 1.384 . S
C500 H491 0.929 . S
C500 C492 1.378 . S
C500 C495 1.350 . S
C501 H488 0.929 . S
C501 C493 1.433 . S
C501 N503 1.384 . S
N502 C498 1.427 . S
N502 C499 1.384 . S
N503 C495 1.427 . S
N503 C501 1.384 . S
H504 C510 0.930 . S
H505 C514 0.930 . S
H506 C519 0.929 . S
H507 C517 0.929 . S
H508 C512 0.929 . S
H509 C518 0.929 . S
C510 H504 0.930 . S
C510 C511 1.367 . S
C510 C518 1.378 . S
C511 C510 1.367 . S
C511 C519 1.433 . S
C512 H508 0.929 . S
C512 C514 1.378 . S
C512 C516 1.350 . S
C513 C516 1.463 . S
C513 C518 1.350 . S
C513 N521 1.427 . S
C514 H505 0.930 . S
C514 C512 1.378 . S
C514 C515 1.367 . S
C515 C514 1.367 . S
C515 C517 1.433 . S
C516 C512 1.350 . S
C516 C513 1.463 . S
C516 N520 1.427 . S
C517 H507 0.929 . S
C517 C515 1.433 . S
C517 N520 1.384 . S
C518 H509 0.929 . S
C518 C510 1.378 . S
C518 C513 1.350 . S
C519 H506 0.929 . S
C519 C511 1.433 . S
C519 N521 1.384 . S
N520 C516 1.427 . S
N520 C517 1.384 . S
N521 C513 1.427 . S
N521 C519 1.384 . S
H522 C528 0.930 . S
H523 C532 0.930 . S
H524 C537 0.929 . S
H525 C535 0.929 . S
H526 C530 0.929 . S
H527 C536 0.929 . S
C528 H522 0.930 . S
C528 C529 1.367 . S
C528 C536 1.378 . S
C529 C528 1.367 . S
C529 C537 1.433 . S
C530 H526 0.929 . S
C530 C532 1.378 . S
C530 C534 1.350 . S
C531 C534 1.463 . S
C531 C536 1.350 . S
C531 N539 1.427 . S
C532 H523 0.930 . S
C532 C530 1.378 . S
C532 C533 1.367 . S
C533 C532 1.367 . S
C533 C535 1.433 . S
C534 C530 1.350 . S
C534 C531 1.463 . S
C534 N538 1.427 . S
C535 H525 0.929 . S
C535 C533 1.433 . S
C535 N538 1.384 . S
C536 H527 0.929 . S
C536 C528 1.378 . S
C536 C531 1.350 . S
C537 H524 0.929 . S
C537 C529 1.433 . S
C537 N539 1.384 . S
N538 C534 1.427 . S
N538 C535 1.384 . S
N539 C531 1.427 . S
N539 C537 1.384 . S
H540 C546 0.930 . S
H541 C550 0.930 . S
H542 C555 0.929 . S
H543 C553 0.929 . S
H544 C548 0.929 . S
H545 C554 0.929 . S
C546 H540 0.930 . S
C546 C547 1.367 . S
C546 C554 1.378 . S
C547 C546 1.367 . S
C547 C555 1.433 . S
C548 H544 0.929 . S
C548 C550 1.378 . S
C548 C552 1.350 . S
C549 C552 1.463 . S
C549 C554 1.350 . S
C549 N557 1.427 . S
C550 H541 0.930 . S
C550 C548 1.378 . S
C550 C551 1.367 . S
C551 C550 1.367 . S
C551 C553 1.433 . S
C552 C548 1.350 . S
C552 C549 1.463 . S
C552 N556 1.427 . S
C553 H543 0.929 . S
C553 C551 1.433 . S
C553 N556 1.384 . S
C554 H545 0.929 . S
C554 C546 1.378 . S
C554 C549 1.350 . S
C555 H542 0.929 . S
C555 C547 1.433 . S
C555 N557 1.384 . S
N556 C552 1.427 . S
N556 C553 1.384 . S
N557 C549 1.427 . S
N557 C555 1.384 . S
H558 C564 0.930 . S
H559 C568 0.930 . S
H560 C573 0.929 . S
H561 C571 0.930 . S
H562 C566 0.929 . S
H563 C572 0.929 . S
C564 H558 0.930 . S
C564 C565 1.367 . S
C564 C572 1.378 . S
C565 C564 1.367 . S
C565 C573 1.433 . S
C566 H562 0.929 . S
C566 C568 1.378 . S
C566 C570 1.350 . S
C567 C570 1.463 . S
C567 C572 1.350 . S
C567 N575 1.427 . S
C568 H559 0.930 . S
C568 C566 1.378 . S
C568 C569 1.367 . S
C569 C568 1.367 . S
C569 C571 1.433 . S
C570 C566 1.350 . S
C570 C567 1.463 . S
C570 N574 1.427 . S
C571 H561 0.930 . S
C571 C569 1.433 . S
C571 N574 1.384 . S
C572 H563 0.929 . S
C572 C564 1.378 . S
C572 C567 1.350 . S
C573 H560 0.929 . S
C573 C565 1.433 . S
C573 N575 1.384 . S
N574 C570 1.427 . S
N574 C571 1.384 . S
N575 C567 1.427 . S
N575 C573 1.384 . S
H576 C582 0.930 . S
H577 C586 0.930 . S
H578 C591 0.929 . S
H579 C589 0.929 . S
H580 C584 0.929 . S
H581 C590 0.929 . S
C582 H576 0.930 . S
C582 C583 1.367 . S
C582 C590 1.378 . S
C583 C582 1.367 . S
C583 C591 1.433 . S
C584 H580 0.929 . S
C584 C586 1.378 . S
C584 C588 1.350 . S
C585 C588 1.463 . S
C585 C590 1.350 . S
C585 N593 1.427 . S
C586 H577 0.930 . S
C586 C584 1.378 . S
C586 C587 1.367 . S
C587 C586 1.367 . S
C587 C589 1.433 . S
C588 C584 1.350 . S
C588 C585 1.463 . S
C588 N592 1.427 . S
C589 H579 0.929 . S
C589 C587 1.433 . S
C589 N592 1.384 . S
C590 H581 0.929 . S
C590 C582 1.378 . S
C590 C585 1.350 . S
C591 H578 0.929 . S
C591 C583 1.433 . S
C591 N593 1.384 . S
N592 C588 1.427 . S
N592 C589 1.384 . S
N593 C585 1.427 . S
N593 C591 1.384 . S
H594 C600 0.930 . S
H595 C604 0.930 . S
H596 C609 0.929 . S
H597 C607 0.929 . S
H598 C602 0.929 . S
H599 C608 0.929 . S
C600 H594 0.930 . S
C600 C601 1.367 . S
C600 C608 1.378 . S
C601 C600 1.367 . S
C601 C609 1.433 . S
C602 H598 0.929 . S
C602 C604 1.378 . S
C602 C606 1.350 . S
C603 C606 1.463 . S
C603 C608 1.350 . S
C603 N611 1.427 . S
C604 H595 0.930 . S
C604 C602 1.378 . S
C604 C605 1.367 . S
C605 C604 1.367 . S
C605 C607 1.433 . S
C606 C602 1.350 . S
C606 C603 1.463 . S
C606 N610 1.427 . S
C607 H597 0.929 . S
C607 C605 1.433 . S
C607 N610 1.384 . S
C608 H599 0.929 . S
C608 C600 1.378 . S
C608 C603 1.350 . S
C609 H596 0.929 . S
C609 C601 1.433 . S
C609 N611 1.384 . S
N610 C606 1.427 . S
N610 C607 1.384 . S
N611 C603 1.427 . S
N611 C609 1.384 . S
H612 C618 0.930 . S
H613 C622 0.930 . S
H614 C627 0.929 . S
H615 C625 0.929 . S
H616 C620 0.929 . S
H617 C626 0.929 . S
C618 H612 0.930 . S
C618 C619 1.367 . S
C618 C626 1.378 . S
C619 C618 1.367 . S
C619 C627 1.433 . S
C620 H616 0.929 . S
C620 C622 1.378 . S
C620 C624 1.350 . S
C621 C624 1.463 . S
C621 C626 1.350 . S
C621 N629 1.427 . S
C622 H613 0.930 . S
C622 C620 1.378 . S
C622 C623 1.367 . S
C623 C622 1.367 . S
C623 C625 1.433 . S
C624 C620 1.350 . S
C624 C621 1.463 . S
C624 N628 1.427 . S
C625 H615 0.929 . S
C625 C623 1.433 . S
C625 N628 1.384 . S
C626 H617 0.929 . S
C626 C618 1.378 . S
C626 C621 1.350 . S
C627 H614 0.929 . S
C627 C619 1.433 . S
C627 N629 1.384 . S
N628 C624 1.427 . S
N628 C625 1.384 . S
N629 C621 1.427 . S
N629 C627 1.384 . S
H630 C636 0.930 . S
H631 C640 0.930 1_655 S
H632 C645 0.929 1_655 S
H633 C643 0.929 . S
H634 C638 0.929 1_655 S
H635 C644 0.929 . S
C636 H630 0.930 . S
C636 C637 1.367 . S
C636 C644 1.378 . S
C637 C636 1.367 . S
C637 C645 1.433 . S
C638 H634 0.929 1_455 S
C638 C640 1.378 . S
C638 C642 1.350 . S
C639 C642 1.463 . S
C639 C644 1.350 . S
C639 N647 1.427 . S
C640 H631 0.930 1_455 S
C640 C638 1.378 . S
C640 C641 1.367 . S
C641 C640 1.367 . S
C641 C643 1.433 . S
C642 C638 1.350 . S
C642 C639 1.463 . S
C642 N646 1.427 . S
C643 H633 0.929 . S
C643 C641 1.433 . S
C643 N646 1.384 . S
C644 H635 0.929 . S
C644 C636 1.378 . S
C644 C639 1.350 . S
C645 H632 0.929 1_455 S
C645 C637 1.433 . S
C645 N647 1.384 . S
N646 C642 1.427 . S
N646 C643 1.384 . S
N647 C639 1.427 . S
N647 C645 1.384 . S
H648 C654 0.930 . S
H649 C658 0.930 . S
H650 C663 0.929 . S
H651 C661 0.929 . S
H652 C656 0.929 . S
H653 C662 0.929 . S
C654 H648 0.930 . S
C654 C655 1.367 . S
C654 C662 1.378 . S
C655 C654 1.367 . S
C655 C663 1.433 1_545 S
C656 H652 0.929 . S
C656 C658 1.378 . S
C656 C660 1.350 1_565 S
C657 C660 1.463 . S
C657 C662 1.350 . S
C657 N665 1.427 1_545 S
C658 H649 0.930 . S
C658 C656 1.378 . S
C658 C659 1.367 1_565 S
C659 C658 1.367 1_545 S
C659 C661 1.433 . S
C660 C656 1.350 1_545 S
C660 C657 1.463 . S
C660 N664 1.427 . S
C661 H651 0.929 . S
C661 C659 1.433 . S
C661 N664 1.384 . S
C662 H653 0.929 . S
C662 C654 1.378 . S
C662 C657 1.350 . S
C663 H650 0.929 . S
C663 C655 1.433 1_565 S
C663 N665 1.384 . S
N664 C660 1.427 . S
N664 C661 1.384 . S
N665 C657 1.427 1_565 S
N665 C663 1.384 . S
H666 C672 0.930 . S
H667 C676 0.930 . S
H668 C681 0.929 . S
H669 C679 0.929 . S
H670 C674 0.929 . S
H671 C680 0.929 . S
C672 H666 0.930 . S
C672 C673 1.367 . S
C672 C680 1.378 . S
C673 C672 1.367 . S
C673 C681 1.433 . S
C674 H670 0.929 . S
C674 C676 1.378 . S
C674 C678 1.350 . S
C675 C678 1.463 . S
C675 C680 1.350 . S
C675 N683 1.427 . S
C676 H667 0.930 . S
C676 C674 1.378 . S
C676 C677 1.367 . S
C677 C676 1.367 . S
C677 C679 1.433 . S
C678 C674 1.350 . S
C678 C675 1.463 . S
C678 N682 1.427 . S
C679 H669 0.929 . S
C679 C677 1.433 . S
C679 N682 1.384 . S
C680 H671 0.929 . S
C680 C672 1.378 . S
C680 C675 1.350 . S
C681 H668 0.929 . S
C681 C673 1.433 . S
C681 N683 1.384 . S
N682 C678 1.427 . S
N682 C679 1.384 . S
N683 C675 1.427 . S
N683 C681 1.384 . S
H684 C690 0.930 . S
H685 C694 0.930 . S
H686 C699 0.929 . S
H687 C697 0.929 . S
H688 C692 0.929 . S
H689 C698 0.929 . S
C690 H684 0.930 . S
C690 C691 1.367 1_455 S
C690 C698 1.378 . S
C691 C690 1.367 1_655 S
C691 C699 1.433 . S
C692 H688 0.929 . S
C692 C694 1.378 . S
C692 C696 1.350 . S
C693 C696 1.463 . S
C693 C698 1.350 1_655 S
C693 N701 1.427 . S
C694 H685 0.930 . S
C694 C692 1.378 . S
C694 C695 1.367 . S
C695 C694 1.367 . S
C695 C697 1.433 1_655 S
C696 C692 1.350 . S
C696 C693 1.463 . S
C696 N700 1.427 1_655 S
C697 H687 0.929 . S
C697 C695 1.433 1_455 S
C697 N700 1.384 . S
C698 H689 0.929 . S
C698 C690 1.378 . S
C698 C693 1.350 1_455 S
C699 H686 0.929 . S
C699 C691 1.433 . S
C699 N701 1.384 . S
N700 C696 1.427 1_455 S
N700 C697 1.384 . S
N701 C693 1.427 . S
N701 C699 1.384 . S
H702 C708 0.930 . S
H703 C712 0.930 . S
H704 C717 0.929 . S
H705 C715 0.929 . S
H706 C710 0.929 . S
H707 C716 0.929 . S
C708 H702 0.930 . S
C708 C709 1.367 1_545 S
C708 C716 1.378 . S
C709 C708 1.367 1_565 S
C709 C717 1.433 . S
C710 H706 0.929 . S
C710 C712 1.378 . S
C710 C714 1.350 . S
C711 C714 1.463 . S
C711 C716 1.350 1_565 S
C711 N719 1.427 . S
C712 H703 0.930 . S
C712 C710 1.378 . S
C712 C713 1.367 . S
C713 C712 1.367 . S
C713 C715 1.433 1_565 S
C714 C710 1.350 . S
C714 C711 1.463 . S
C714 N718 1.427 1_565 S
C715 H705 0.929 . S
C715 C713 1.433 1_545 S
C715 N718 1.384 . S
C716 H707 0.929 . S
C716 C708 1.378 . S
C716 C711 1.350 1_545 S
C717 H704 0.929 . S
C717 C709 1.433 . S
C717 N719 1.384 . S
N718 C714 1.427 1_545 S
N718 C715 1.384 . S
N719 C711 1.427 . S
N719 C717 1.384 . S
H720 C726 0.930 . S
H721 C730 0.930 . S
H722 C735 0.929 . S
H723 C733 0.929 . S
H724 C728 0.929 . S
H725 C734 0.929 . S
C726 H720 0.930 . S
C726 C727 1.367 . S
C726 C734 1.378 . S
C727 C726 1.367 . S
C727 C735 1.433 . S
C728 H724 0.929 . S
C728 C730 1.378 . S
C728 C732 1.350 . S
C729 C732 1.463 . S
C729 C734 1.350 . S
C729 N737 1.427 . S
C730 H721 0.930 . S
C730 C728 1.378 . S
C730 C731 1.367 . S
C731 C730 1.367 . S
C731 C733 1.433 . S
C732 C728 1.350 . S
C732 C729 1.463 . S
C732 N736 1.427 . S
C733 H723 0.929 . S
C733 C731 1.433 . S
C733 N736 1.384 . S
C734 H725 0.929 . S
C734 C726 1.378 . S
C734 C729 1.350 . S
C735 H722 0.929 . S
C735 C727 1.433 . S
C735 N737 1.384 . S
N736 C732 1.427 . S
N736 C733 1.384 . S
N737 C729 1.427 . S
N737 C735 1.384 . S
H738 C744 0.930 . S
H739 C748 0.930 . S
H740 C753 0.929 . S
H741 C751 0.929 . S
H742 C746 0.929 . S
H743 C752 0.929 . S
C744 H738 0.930 . S
C744 C745 1.367 . S
C744 C752 1.378 . S
C745 C744 1.367 . S
C745 C753 1.433 . S
C746 H742 0.929 . S
C746 C748 1.378 . S
C746 C750 1.350 . S
C747 C750 1.463 . S
C747 C752 1.350 . S
C747 N755 1.427 . S
C748 H739 0.930 . S
C748 C746 1.378 . S
C748 C749 1.367 . S
C749 C748 1.367 . S
C749 C751 1.433 . S
C750 C746 1.350 . S
C750 C747 1.463 . S
C750 N754 1.427 . S
C751 H741 0.929 . S
C751 C749 1.433 . S
C751 N754 1.384 . S
C752 H743 0.929 . S
C752 C744 1.378 . S
C752 C747 1.350 . S
C753 H740 0.929 . S
C753 C745 1.433 . S
C753 N755 1.384 . S
N754 C750 1.427 . S
N754 C751 1.384 . S
N755 C747 1.427 . S
N755 C753 1.384 . S
H756 C762 0.930 . S
H757 C766 0.930 . S
H758 C771 0.929 . S
H759 C769 0.929 . S
H760 C764 0.929 . S
H761 C770 0.929 1_565 S
C762 H756 0.930 . S
C762 C763 1.367 1_565 S
C762 C770 1.378 1_565 S
C763 C762 1.367 1_545 S
C763 C771 1.433 . S
C764 H760 0.929 . S
C764 C766 1.378 . S
C764 C768 1.350 . S
C765 C768 1.463 . S
C765 C770 1.350 . S
C765 N773 1.427 . S
C766 H757 0.930 . S
C766 C764 1.378 . S
C766 C767 1.367 . S
C767 C766 1.367 . S
C767 C769 1.433 . S
C768 C764 1.350 . S
C768 C765 1.463 . S
C768 N772 1.427 . S
C769 H759 0.929 . S
C769 C767 1.433 . S
C769 N772 1.384 . S
C770 H761 0.929 1_545 S
C770 C762 1.378 1_545 S
C770 C765 1.350 . S
C771 H758 0.929 . S
C771 C763 1.433 . S
C771 N773 1.384 . S
N772 C768 1.427 . S
N772 C769 1.384 . S
N773 C765 1.427 . S
N773 C771 1.384 . S
H774 C780 0.930 . S
H775 C784 0.930 . S
H776 C789 0.929 . S
H777 C787 0.929 . S
H778 C782 0.929 . S
H779 C788 0.929 . S
C780 H774 0.930 . S
C780 C781 1.367 . S
C780 C788 1.378 . S
C781 C780 1.367 . S
C781 C789 1.433 . S
C782 H778 0.929 . S
C782 C784 1.378 . S
C782 C786 1.350 . S
C783 C786 1.463 . S
C783 C788 1.350 . S
C783 N791 1.427 . S
C784 H775 0.930 . S
C784 C782 1.378 . S
C784 C785 1.367 . S
C785 C784 1.367 . S
C785 C787 1.433 . S
C786 C782 1.350 . S
C786 C783 1.463 . S
C786 N790 1.427 . S
C787 H777 0.929 . S
C787 C785 1.433 . S
C787 N790 1.384 . S
C788 H779 0.929 . S
C788 C780 1.378 . S
C788 C783 1.350 . S
C789 H776 0.929 . S
C789 C781 1.433 . S
C789 N791 1.384 . S
N790 C786 1.427 . S
N790 C787 1.384 . S
N791 C783 1.427 . S
N791 C789 1.384 . S
H792 C798 0.930 1_455 S
H793 C802 0.930 . S
H794 C807 0.929 . S
H795 C805 0.929 . S
H796 C800 0.929 . S
H797 C806 0.927 1_455 S
C798 H792 0.930 1_655 S
C798 C799 1.367 . S
C798 C806 1.378 . S
C799 C798 1.367 . S
C799 C807 1.433 . S
C800 H796 0.929 . S
C800 C802 1.378 . S
C800 C804 1.350 . S
C801 C804 1.463 . S
C801 C806 1.350 . S
C801 N809 1.427 . S
C802 H793 0.930 . S
C802 C800 1.378 . S
C802 C803 1.367 . S
C803 C802 1.367 . S
C803 C805 1.433 . S
C804 C800 1.350 . S
C804 C801 1.463 . S
C804 N808 1.427 . S
C805 H795 0.929 . S
C805 C803 1.433 . S
C805 N808 1.384 . S
C806 H797 0.927 1_655 S
C806 C798 1.378 . S
C806 C801 1.350 . S
C807 H794 0.929 . S
C807 C799 1.433 . S
C807 N809 1.384 . S
N808 C804 1.427 . S
N808 C805 1.384 . S
N809 C801 1.427 . S
N809 C807 1.384 . S
H810 C816 0.930 1_545 S
H811 C820 0.930 . S
H812 C825 0.929 . S
H813 C823 0.929 . S
H814 C818 0.929 . S
H815 C824 0.930 . S
C816 H810 0.930 1_565 S
C816 C817 1.367 . S
C816 C824 1.378 . S
C817 C816 1.367 . S
C817 C825 1.433 . S
C818 H814 0.929 . S
C818 C820 1.378 . S
C818 C822 1.350 . S
C819 C822 1.463 . S
C819 C824 1.350 . S
C819 N827 1.427 . S
C820 H811 0.930 . S
C820 C818 1.378 . S
C820 C821 1.367 . S
C821 C820 1.367 . S
C821 C823 1.433 . S
C822 C818 1.350 . S
C822 C819 1.463 . S
C822 N826 1.427 . S
C823 H813 0.929 . S
C823 C821 1.433 . S
C823 N826 1.384 . S
C824 H815 0.930 . S
C824 C816 1.378 . S
C824 C819 1.350 . S
C825 H812 0.929 . S
C825 C817 1.433 . S
C825 N827 1.384 . S
N826 C822 1.427 . S
N826 C823 1.384 . S
N827 C819 1.427 . S
N827 C825 1.384 . S
H828 C834 0.930 . S
H829 C838 0.930 . S
H830 C843 0.929 . S
H831 C841 0.929 . S
H832 C836 0.929 . S
H833 C842 0.929 . S
C834 H828 0.930 . S
C834 C835 1.367 . S
C834 C842 1.378 . S
C835 C834 1.367 . S
C835 C843 1.433 . S
C836 H832 0.929 . S
C836 C838 1.378 . S
C836 C840 1.350 . S
C837 C840 1.463 . S
C837 C842 1.350 . S
C837 N845 1.427 . S
C838 H829 0.930 . S
C838 C836 1.378 . S
C838 C839 1.367 . S
C839 C838 1.367 . S
C839 C841 1.433 . S
C840 C836 1.350 . S
C840 C837 1.463 . S
C840 N844 1.427 . S
C841 H831 0.929 . S
C841 C839 1.433 . S
C841 N844 1.384 . S
C842 H833 0.929 . S
C842 C834 1.378 . S
C842 C837 1.350 . S
C843 H830 0.929 . S
C843 C835 1.433 . S
C843 N845 1.384 . S
N844 C840 1.427 . S
N844 C841 1.384 . S
N845 C837 1.427 . S
N845 C843 1.384 . S
H846 C852 0.930 . S
H847 C856 0.930 . S
H848 C861 0.929 . S
H849 C859 0.929 . S
H850 C854 0.929 1_655 S
H851 C860 0.929 . S
C852 H846 0.930 . S
C852 C853 1.367 . S
C852 C860 1.378 . S
C853 C852 1.367 . S
C853 C861 1.433 . S
C854 H850 0.929 1_455 S
C854 C856 1.378 1_455 S
C854 C858 1.350 . S
C855 C858 1.463 . S
C855 C860 1.350 . S
C855 N863 1.427 . S
C856 H847 0.930 . S
C856 C854 1.378 1_655 S
C856 C857 1.367 1_655 S
C857 C856 1.367 1_455 S
C857 C859 1.433 . S
C858 C854 1.350 . S
C858 C855 1.463 . S
C858 N862 1.427 . S
C859 H849 0.929 . S
C859 C857 1.433 . S
C859 N862 1.384 . S
C860 H851 0.929 . S
C860 C852 1.378 . S
C860 C855 1.350 . S
C861 H848 0.929 . S
C861 C853 1.433 . S
C861 N863 1.384 . S
N862 C858 1.427 . S
N862 C859 1.384 . S
N863 C855 1.427 . S
N863 C861 1.384 . S
H864 C870 0.930 . S
H865 C874 0.930 . S
H866 C879 0.929 . S
H867 C877 0.929 . S
H868 C872 0.929 . S
H869 C878 0.929 . S
C870 H864 0.930 . S
C870 C871 1.367 . S
C870 C878 1.378 . S
C871 C870 1.367 . S
C871 C879 1.433 1_545 S
C872 H868 0.929 . S
C872 C874 1.378 . S
C872 C876 1.350 . S
C873 C876 1.463 . S
C873 C878 1.350 . S
C873 N881 1.427 . S
C874 H865 0.930 . S
C874 C872 1.378 . S
C874 C875 1.367 . S
C875 C874 1.367 . S
C875 C877 1.433 . S
C876 C872 1.350 . S
C876 C873 1.463 . S
C876 N880 1.427 . S
C877 H867 0.929 . S
C877 C875 1.433 . S
C877 N880 1.384 . S
C878 H869 0.929 . S
C878 C870 1.378 . S
C878 C873 1.350 . S
C879 H866 0.929 . S
C879 C871 1.433 1_565 S
C879 N881 1.384 1_565 S
N880 C876 1.427 . S
N880 C877 1.384 . S
N881 C873 1.427 . S
N881 C879 1.384 1_545 S
H882 C888 0.930 . S
H883 C892 0.930 . S
H884 C897 0.929 . S
H885 C895 0.929 . S
H886 C890 0.929 . S
H887 C896 0.929 . S
C888 H882 0.930 . S
C888 C889 1.367 . S
C888 C896 1.378 . S
C889 C888 1.367 . S
C889 C897 1.433 . S
C890 H886 0.929 . S
C890 C892 1.378 . S
C890 C894 1.350 . S
C891 C894 1.463 . S
C891 C896 1.350 . S
C891 N899 1.427 . S
C892 H883 0.930 . S
C892 C890 1.378 . S
C892 C893 1.367 . S
C893 C892 1.367 . S
C893 C895 1.433 . S
C894 C890 1.350 . S
C894 C891 1.463 . S
C894 N898 1.427 . S
C895 H885 0.929 . S
C895 C893 1.433 . S
C895 N898 1.384 . S
C896 H887 0.929 . S
C896 C888 1.378 . S
C896 C891 1.350 . S
C897 H884 0.929 . S
C897 C889 1.433 . S
C897 N899 1.384 . S
N898 C894 1.427 . S
N898 C895 1.384 . S
N899 C891 1.427 . S
N899 C897 1.384 . S
H900 C906 0.930 . S
H901 C910 0.930 . S
H902 C915 0.941 . S
H903 C913 0.929 . S
H904 C908 0.929 . S
H905 C914 0.929 . S
C906 H900 0.930 . S
C906 C907 1.367 . S
C906 C914 1.378 . S
C907 C906 1.367 . S
C907 C915 1.423 1_655 S
C908 H904 0.929 . S
C908 C910 1.378 . S
C908 C912 1.350 . S
C909 C912 1.463 . S
C909 C914 1.350 . S
C909 N917 1.427 . S
C910 H901 0.930 . S
C910 C908 1.378 . S
C910 C911 1.367 . S
C911 C910 1.367 . S
C911 C913 1.433 . S
C912 C908 1.350 . S
C912 C909 1.463 . S
C912 N916 1.427 . S
C913 H903 0.929 . S
C913 C911 1.433 . S
C913 N916 1.384 . S
C914 H905 0.929 . S
C914 C906 1.378 . S
C914 C909 1.350 . S
C915 H902 0.941 . S
C915 C907 1.423 1_455 S
C915 N917 1.381 1_455 S
N916 C912 1.427 . S
N916 C913 1.384 . S
N917 C909 1.427 . S
N917 C915 1.381 1_655 S
H918 C924 0.914 1_545 S
H919 C928 0.930 . S
H920 C933 0.929 . S
H921 C931 0.929 . S
H922 C926 0.929 . S
H923 C932 0.929 1_545 S
C924 H918 0.914 1_565 S
C924 C925 1.378 . S
C924 C932 1.383 . S
C925 C924 1.378 . S
C925 C933 1.433 . S
C926 H922 0.929 . S
C926 C928 1.378 . S
C926 C930 1.350 . S
C927 C930 1.463 . S
C927 C932 1.350 . S
C927 N935 1.427 . S
C928 H919 0.930 . S
C928 C926 1.378 . S
C928 C929 1.367 . S
C929 C928 1.367 . S
C929 C931 1.433 . S
C930 C926 1.350 . S
C930 C927 1.463 . S
C930 N934 1.427 . S
C931 H921 0.929 . S
C931 C929 1.433 . S
C931 N934 1.384 . S
C932 H923 0.929 1_565 S
C932 C924 1.383 . S
C932 C927 1.350 . S
C933 H920 0.929 . S
C933 C925 1.433 . S
C933 N935 1.384 . S
N934 C930 1.427 . S
N934 C931 1.384 . S
N935 C927 1.427 . S
N935 C933 1.384 . S
C403 C18 1.845 . S
C407 C370 1.783 . S
C421 C51 1.848 . S
C425 C205 1.778 . S
C439 C238 1.788 . S
C443 C84 1.849 . S
C457 C271 1.776 . S
C461 C117 1.847 . S
C475 C150 1.847 . S
C479 C304 1.786 1_554 S
C493 C183 1.846 . S
C497 C337 1.776 . S
C511 C40 1.788 . S
C515 C216 1.849 . S
C529 C249 1.844 . S
C533 C73 1.777 . S
C547 C106 1.775 . S
C551 C282 1.845 . S
C565 C315 1.845 . S
C569 C139 1.780 1_556 S
C583 C348 1.849 . S
C587 C172 1.788 . S
C601 C7 1.777 . S
C605 C381 1.844 . S
C619 N200 0.369 . S
C623 N2 0.388 . S
C637 N35 0.372 . S
C641 N233 0.385 . S
C655 N68 0.367 . S
C659 N266 0.390 . S
C673 N101 0.393 . S
C677 N299 0.364 . S
C691 N332 0.400 . S
C695 N134 0.362 . S
C709 N365 0.395 . S
C713 N167 0.362 . S
C727 C186 1.080 . S
C731 N13 1.108 . S
C745 C21 1.091 . S
C749 N46 1.105 . S
C763 N79 1.110 . S
C767 C54 1.079 . S
C781 N112 1.105 . S
C785 C87 1.090 . S
C799 N145 1.119 . S
C803 C120 1.082 . S
C817 N178 1.106 . S
C821 C153 1.082 . S
C835 N211 1.106 . S
C839 C252 1.083 . S
C853 C285 1.080 . S
C857 N244 1.109 . S
C871 N277 1.119 . S
C875 C318 1.105 . S
C889 N310 1.125 . S
C893 C351 1.092 . S
C907 N343 1.113 . S
C911 C384 1.103 . S
C925 N376 1.107 . S
C929 C219 1.081 . S
