# Generated by pormake.
# Topology qtz-e, (6)-cn, num edge types: 1
# Building blocks:
#     Node 0, Type 0, BuildingBlock: BETGAK_clean_sbu_0, # of connection points: 6
#     Node 1, Type 0, BuildingBlock: BETGAK_clean_sbu_0, # of connection points: 6
#     Node 2, Type 0, BuildingBlock: BETGAK_clean_sbu_0, # of connection points: 6
#     Node 3, Type 0, BuildingBlock: BETGAK_clean_sbu_0, # of connection points: 6
#     Node 4, Type 0, BuildingBlock: BETGAK_clean_sbu_0, # of connection points: 6
#     Node 5, Type 0, BuildingBlock: BETGAK_clean_sbu_0, # of connection points: 6
#     Edge 6, Type (0, 0), BuildingBlock: AJUNOK_clean_linker_0, # of connection points: 2
#     Edge 7, Type (0, 0), BuildingBlock: AJUNOK_clean_linker_0, # of connection points: 2
#     Edge 8, Type (0, 0), BuildingBlock: AJUNOK_clean_linker_0, # of connection points: 2
#     Edge 9, Type (0, 0), BuildingBlock: AJUNOK_clean_linker_0, # of connection points: 2
#     Edge 10, Type (0, 0), BuildingBlock: AJUNOK_clean_linker_0, # of connection points: 2
#     Edge 11, Type (0, 0), BuildingBlock: AJUNOK_clean_linker_0, # of connection points: 2
#     Edge 12, Type (0, 0), BuildingBlock: AJUNOK_clean_linker_0, # of connection points: 2
#     Edge 13, Type (0, 0), BuildingBlock: AJUNOK_clean_linker_0, # of connection points: 2
#     Edge 14, Type (0, 0), BuildingBlock: AJUNOK_clean_linker_0, # of connection points: 2
#     Edge 15, Type (0, 0), BuildingBlock: AJUNOK_clean_linker_0, # of connection points: 2
#     Edge 16, Type (0, 0), BuildingBlock: AJUNOK_clean_linker_0, # of connection points: 2
#     Edge 17, Type (0, 0), BuildingBlock: AJUNOK_clean_linker_0, # of connection points: 2
#     Edge 18, Type (0, 0), BuildingBlock: AJUNOK_clean_linker_0, # of connection points: 2
#     Edge 19, Type (0, 0), BuildingBlock: AJUNOK_clean_linker_0, # of connection points: 2
#     Edge 20, Type (0, 0), BuildingBlock: AJUNOK_clean_linker_0, # of connection points: 2
#     Edge 21, Type (0, 0), BuildingBlock: AJUNOK_clean_linker_0, # of connection points: 2
#     Edge 22, Type (0, 0), BuildingBlock: AJUNOK_clean_linker_0, # of connection points: 2
#     Edge 23, Type (0, 0), BuildingBlock: AJUNOK_clean_linker_0, # of connection points: 2
# Relax obj value: 0.228
# Max RMSD: 0.228
# Mean RMSD: 0.228
data_MOF--net-qtz-e--node1-BETGAK_clean_sbu_0--edge1-AJUNOK_clean_linker_0
_symmetry_space_group_name_H-M    P1
_symmetry_Int_Tables_number       1
_symmetry_cell_setting            triclinic
loop_
_symmetry_equiv_pos_as_xyz
'x, y, z'
_cell_length_a     18.852756
_cell_length_b     18.642102
_cell_length_c     40.380348
_cell_angle_alpha  89.365246
_cell_angle_beta   90.631228
_cell_angle_gamma 119.32933
loop_
_atom_site_label
_atom_site_type_symbol
_atom_site_fract_x
_atom_site_fract_y
_atom_site_fract_z
_atom_type_partial_charge
La0 La 0.19119 0.56361 0.23319 0.0
La1 La 0.12023 0.38471 0.21534 0.0
C2 C 0.21362 0.69547 0.25847 0.0
C3 C 0.24776 0.73125 0.29114 0.0
C4 C 0.32308 0.74028 0.30184 0.0
C5 C 0.35304 0.76968 0.33348 0.0
C6 C 0.308 0.78977 0.35517 0.0
C7 C 0.23279 0.78088 0.34449 0.0
C8 C 0.20305 0.75211 0.3127 0.0
C9 C 0.30001 0.51737 0.22803 0.0
C10 C 0.10606 0.4199 0.28959 0.0
C11 C 0.10841 0.25914 0.18705 0.0
C12 C 0.11872 0.24176 0.1519 0.0
C13 C 0.05939 0.22827 0.12757 0.0
C14 C 0.07038 0.21335 0.09454 0.0
C15 C 0.14112 0.21187 0.0848 0.0
C16 C 0.20015 0.22481 0.10916 0.0
C17 C 0.18906 0.23944 0.14223 0.0
C18 C 1.01824 0.44485 0.21206 0.0
C19 C 0.19655 0.52611 0.15916 0.0
O20 O 0.2643 0.69106 0.23784 0.0
O21 O 0.14296 0.62786 0.25875 0.0
O22 O 0.31435 0.59201 0.22439 0.0
O23 O 0.22944 0.4727 0.23994 0.0
O24 O 0.13824 0.49813 0.28014 0.0
O25 O 0.09911 0.36223 0.2687 0.0
O26 O 0.04593 0.26898 0.19377 0.0
O27 O 0.17408 0.31296 0.20262 0.0
O28 O 0.99703 0.36916 0.21993 0.0
O29 O 0.0918 0.47986 0.20476 0.0
O30 O 0.17311 0.44978 0.16882 0.0
O31 O 0.19571 0.58088 0.17951 0.0
H32 H 0.35878 0.72395 0.28593 0.0
H33 H 0.41156 0.77695 0.34093 0.0
H34 H 0.19643 0.7951 0.36095 0.0
H35 H 0.14459 0.74493 0.30516 0.0
H36 H 1.00418 0.22909 0.13398 0.0
H37 H 0.02271 0.20178 0.0767 0.0
H38 H 0.25553 0.22446 0.10258 0.0
H39 H 0.23598 0.2495 0.16026 0.0
La40 La 0.87478 0.39178 0.47927 0.0
La41 La 0.94664 0.28826 0.50045 0.0
C42 C 0.82342 0.48785 0.46153 0.0
C43 C 0.79196 0.49433 0.42835 0.0
C44 C 0.72472 0.42591 0.4139 0.0
C45 C 0.70414 0.42766 0.38058 0.0
C46 C 0.75062 0.49752 0.36093 0.0
C47 C 0.81472 0.56756 0.37584 0.0
C48 C 0.8352 0.56594 0.40918 0.0
C49 C 0.77511 0.23002 0.47235 0.0
C50 C 0.97045 0.35197 0.42525 0.0
C51 C 0.97595 0.17663 0.51949 0.0
C52 C 0.96312 0.13708 0.55276 0.0
C53 C 0.0303 0.14822 0.57204 0.0
C54 C 1.02028 0.12128 0.60511 0.0
C55 C 0.94265 0.08201 0.61961 0.0
C56 C 0.87517 0.06822 0.59995 0.0
C57 C 0.88518 0.09557 0.56701 0.0
C58 C 0.03353 0.44496 0.51649 0.0
C59 C 0.86102 0.3372 0.55418 0.0
O60 O 0.77947 0.41978 0.47816 0.0
O61 O 0.90085 0.50986 0.46289 0.0
O62 O 0.78644 0.28591 0.45055 0.0
O63 O 0.82524 0.26665 0.49519 0.0
O64 O 0.94017 0.39958 0.43406 0.0
O65 O 0.97246 0.29777 0.44644 0.0
O66 O 0.03152 0.25442 0.5182 0.0
O67 O 0.9107 0.16218 0.50238 0.0
O68 O 0.02879 0.38468 0.53423 0.0
O69 O 0.99564 0.4172 0.4896 0.0
O70 O 0.87436 0.27826 0.54344 0.0
O71 O 0.86963 0.39787 0.53406 0.0
H72 H 0.68989 0.36962 0.42789 0.0
H73 H 0.65433 0.373 0.36978 0.0
H74 H 0.85059 0.62295 0.3614 0.0
H75 H 0.88705 0.61957 0.41959 0.0
H76 H 0.0911 0.18052 0.56187 0.0
H77 H 0.0737 0.13393 0.61966 0.0
H78 H 0.81452 0.03703 0.61024 0.0
H79 H 0.8319 0.08606 0.55307 0.0
La80 La 0.5269 0.66004 0.90181 0.0
La81 La 0.69545 0.77759 0.8799 0.0
C82 C 0.40796 0.54563 0.93151 0.0
C83 C 0.37242 0.54736 0.96342 0.0
C84 C 0.3812 0.62181 0.97542 0.0
C85 C 0.35147 0.62488 1.00657 0.0
C86 C 0.31352 0.55381 1.02639 0.0
C87 C 0.30574 0.47961 1.01446 0.0
C88 C 0.33479 0.47635 0.98314 0.0
C89 C 0.5537 0.81128 0.89693 0.0
C90 C 0.66873 0.72471 0.95533 0.0
C91 C 0.82435 0.90145 0.86098 0.0
C92 C 0.84751 0.93432 0.8267 0.0
C93 C 0.92802 0.96786 0.81566 0.0
C94 C 0.94796 0.99493 0.78266 0.0
C95 C 0.88751 0.98811 0.75997 0.0
C96 C 0.80731 0.95528 0.77134 0.0
C97 C 0.78777 0.92917 0.80415 0.0
C98 C 0.63854 0.62721 0.85578 0.0
C99 C 0.55039 0.71778 0.82931 0.0
O100 O 0.40041 0.58973 0.90781 0.0
O101 O 0.48172 0.55634 0.93325 0.0
O102 O 0.48355 0.74654 0.89327 0.0
O103 O 0.60549 0.79102 0.90706 0.0
O104 O 0.59067 0.69838 0.9495 0.0
O105 O 0.72273 0.75333 0.93094 0.0
O106 O 0.81937 0.82985 0.86704 0.0
O107 O 0.76249 0.90562 0.87337 0.0
O108 O 0.69047 0.69404 0.84102 0.0
O109 O 0.62535 0.64549 0.88429 0.0
O110 O 0.61802 0.78087 0.84036 0.0
O111 O 0.50822 0.65162 0.84797 0.0
H112 H 0.41152 0.67777 0.96078 0.0
H113 H 0.35774 0.68263 1.01506 0.0
H114 H 0.2781 0.42435 1.02959 0.0
H115 H 0.32886 0.41879 0.97451 0.0
H116 H 0.97536 0.97283 0.83248 0.0
H117 H 1.01075 0.02161 0.77501 0.0
H118 H 0.75898 0.94847 0.75467 0.0
H119 H 0.72536 0.9044 0.81169 0.0
La120 La 0.65609 0.50304 0.14505 0.0
La121 La 0.76512 0.67691 0.16928 0.0
C122 C 0.55044 0.363 0.1255 0.0
C123 C 0.54639 0.32463 0.09315 0.0
C124 C 0.61726 0.33159 0.07879 0.0
C125 C 0.61707 0.30945 1.04581 0.0
C126 C 0.54607 0.27983 1.02645 0.0
C127 C 0.47426 0.26935 1.04126 0.0
C128 C 0.47447 0.2916 0.07429 0.0
C129 C 0.81556 0.55285 0.14334 0.0
C130 C 0.71737 0.64861 0.09217 0.0
C131 C 0.87958 0.80921 0.19104 0.0
C132 C 0.91665 0.83029 0.22483 0.0
C133 C 0.89983 0.88005 0.24568 0.0
C134 C 0.92848 0.8948 0.27846 0.0
C135 C 0.97578 0.86126 0.29106 0.0
C136 C 0.99389 0.81263 0.27017 0.0
C137 C 0.96447 0.79704 0.23748 0.0
C138 C 0.60978 0.61412 0.1833 0.0
C139 C 0.70592 0.53275 0.22088 0.0
O140 O 0.61097 0.37512 0.14507 0.0
O141 O 0.54058 0.42765 0.12406 0.0
O142 O 0.76241 0.50782 0.12125 0.0
O143 O 0.77696 0.57014 0.16373 0.0
O144 O 0.67012 0.56921 0.09832 0.0
O145 O 0.7617 0.7015 0.11569 0.0
O146 O 0.80436 0.79489 0.18851 0.0
O147 O 0.89118 0.75629 0.17395 0.0
O148 O 0.66881 0.66739 0.20136 0.0
O149 O 0.63845 0.60389 0.15675 0.0
O150 O 0.76634 0.60487 0.21152 0.0
O151 O 0.64697 0.48519 0.19981 0.0
H152 H 0.67401 0.3577 0.09252 0.0
H153 H 0.67361 0.31961 1.035 0.0
H154 H 0.41845 0.24628 1.02696 0.0
H155 H 0.41934 0.28642 0.08465 0.0
H156 H 0.86317 0.90648 0.23679 0.0
H157 H 0.9139 0.93275 0.29399 0.0
H158 H 0.02949 0.78525 0.27934 0.0
H159 H 0.97817 0.75778 0.22237 0.0
La160 La 0.42395 0.88603 0.56411 0.0
La161 La 0.30258 0.94333 0.54819 0.0
C162 C 0.53207 0.86235 0.59102 0.0
C163 C 0.53266 0.82843 0.62414 0.0
C164 C 0.46054 0.76388 0.63745 0.0
C165 C 0.459 0.73624 0.66986 0.0
C166 C 0.52916 0.77339 0.68968 0.0
C167 C 0.60174 0.83674 0.6762 0.0
C168 C 0.60355 0.86383 0.6436 0.0
C169 C 0.27566 0.76763 0.55215 0.0
C170 C 0.3602 0.95657 0.62241 0.0
C171 C 0.17256 0.93907 0.53072 0.0
C172 C 0.13937 0.9353 0.49669 0.0
C173 C 0.1802 0.9992 0.47348 0.0
C174 C 0.15364 0.99003 0.4404 0.0
C175 C 0.0863 0.91634 0.42949 0.0
C176 C 0.0443 0.85343 0.45294 0.0
C177 C 0.07038 0.86286 0.48605 0.0
C178 C 0.45284 0.04727 0.52862 0.0
C179 C 0.38022 0.88898 0.49106 0.0
O180 O 0.47739 0.81113 0.57046 0.0
O181 O 0.53515 0.9339 0.59039 0.0
O182 O 0.34073 0.76479 0.54531 0.0
O183 O 0.29383 0.83243 0.56831 0.0
O184 O 0.39122 0.90916 0.61354 0.0
O185 O 0.32219 0.98014 0.6006 0.0
O186 O 0.23783 1.00741 0.53967 0.0
O187 O 0.17692 0.87352 0.53971 0.0
O188 O 0.38741 0.04082 0.51506 0.0
O189 O 0.4322 1.00208 0.55423 0.0
O190 O 0.31571 0.89159 0.50209 0.0
O191 O 0.44106 0.89922 0.51075 0.0
H192 H 0.40455 0.73626 0.62314 0.0
H193 H 0.40215 0.68845 0.67993 0.0
H194 H 0.65647 0.86677 0.69123 0.0
H195 H 0.65949 0.91408 0.63397 0.0
H196 H 0.23379 0.05575 0.48064 0.0
H197 H 0.18622 0.04073 0.42333 0.0
H198 H 0.99242 0.79575 0.44549 0.0
H199 H 0.03798 0.81219 0.50319 0.0
La200 La 0.56845 0.19768 0.81204 0.0
La201 La 0.39503 0.12958 0.83161 0.0
C202 C 0.71304 0.24449 0.79593 0.0
C203 C 0.75114 0.27466 0.76308 0.0
C204 C 0.74033 0.33431 0.74541 0.0
C205 C 0.76323 0.3517 0.71216 0.0
C206 C 0.79686 0.30947 0.6958 0.0
C207 C 0.81228 0.25362 0.71402 0.0
C208 C 0.78936 0.23617 0.74727 0.0
C209 C 0.50875 0.30015 0.8012 0.0
C210 C 0.43339 0.0961 0.75807 0.0
C211 C 0.25745 0.10376 0.85064 0.0
C212 C 0.23387 0.12134 0.88341 0.0
C213 C 0.15878 0.06629 0.89783 0.0
C214 C 0.14 0.07971 0.93003 0.0
C215 C 0.19586 0.14867 0.94823 0.0
C216 C 0.27034 0.20393 0.93375 0.0
C217 C 0.28924 0.19001 0.90188 0.0
C218 C 0.46327 0.0433 0.85341 0.0
C219 C 0.53012 0.22018 0.88504 0.0
O220 O 0.69082 0.29113 0.81172 0.0
O221 O 0.65678 0.16697 0.79701 0.0
O222 O 0.55342 0.28659 0.78093 0.0
O223 O 0.49443 0.25096 0.82489 0.0
O224 O 0.51017 0.12793 0.76759 0.0
O225 O 0.37786 0.09652 0.77811 0.0
O226 O 0.27945 0.04723 0.85087 0.0
O227 O 0.30657 0.16748 0.83252 0.0
O228 O 0.40689 0.05015 0.86843 0.0
O229 O 0.47455 0.07773 0.8253 0.0
O230 O 0.46072 0.20998 0.87267 0.0
O231 O 0.58049 0.20748 0.86651 0.0
H232 H 0.71083 0.36502 0.75676 0.0
H233 H 0.75061 0.39492 0.69876 0.0
H234 H 0.83951 0.22122 0.70217 0.0
H235 H 0.79824 0.1899 0.76021 0.0
H236 H 0.11531 1.01221 0.88443 0.0
H237 H 0.08219 0.03607 0.94081 0.0
H238 H 0.3146 0.25722 0.94735 0.0
H239 H 0.34799 0.23244 0.89196 0.0
C240 C 0.35775 0.91618 0.43315 0.0
C241 C 0.38033 0.87283 0.45563 0.0
C242 C 0.33845 0.89103 0.40029 0.0
C243 C 0.33895 0.82039 0.38891 0.0
H244 H 0.35172 0.96806 0.44138 0.0
H245 H 0.32076 0.92581 0.38389 0.0
S246 S 0.39382 0.68545 0.43831 0.0
N247 N 0.4044 0.75761 0.46447 0.0
N248 N 0.36546 0.70819 0.40264 0.0
C249 C 0.36424 0.77802 0.4109 0.0
C250 C 0.38542 0.80472 0.44435 0.0
C251 C 0.85254 0.39533 0.64373 0.0
C252 C 0.80879 0.31765 0.65927 0.0
C253 C 0.8661 0.40236 0.60925 0.0
C254 C 0.83612 0.33191 0.58928 0.0
H255 H 0.8784 0.45077 0.65845 0.0
H256 H 0.90302 0.46285 0.59843 0.0
S257 S 0.70674 0.11558 0.61724 0.0
N258 N 0.72763 0.17015 0.6514 0.0
N259 N 0.7537 0.18284 0.58728 0.0
C260 C 0.78897 0.25446 0.60444 0.0
C261 C 0.77513 0.24744 0.63923 0.0
C262 C 0.17261 0.49018 0.09995 0.0
C263 C 0.2208 0.54629 0.12447 0.0
C264 C 0.202 0.49546 0.06789 0.0
C265 C 0.28121 0.5561 0.05939 0.0
H266 H 0.11288 0.43975 0.10598 0.0
H267 H 0.16327 0.45028 1.04987 0.0
S268 S 0.43216 0.71599 0.11523 0.0
N269 N 0.35072 0.66437 0.13847 0.0
N270 N 0.40737 0.67348 0.0782 0.0
C271 C 0.32918 0.61424 0.08348 0.0
C272 C 0.29858 0.60949 0.11608 0.0
C273 C 0.65832 0.47368 0.31147 0.0
C274 C 0.73611 0.49595 0.32454 0.0
C275 C 0.64626 0.47906 0.27717 0.0
C276 C 0.71159 0.50631 0.25502 0.0
H277 H 0.60736 0.45556 0.32798 0.0
H278 H 0.58689 0.46651 0.26826 0.0
S279 S 0.92371 0.55848 0.27604 0.0
N280 N 0.87662 0.53636 0.31202 0.0
N281 N 0.85429 0.54663 0.24809 0.0
C282 C 0.78811 0.52322 0.26763 0.0
C283 C 0.80034 0.51808 0.30225 0.0
C284 C 0.54713 0.80183 0.78222 0.0
C285 C 0.52805 0.72367 0.79465 0.0
C286 C 0.54593 0.8164 0.74835 0.0
C287 C 0.52476 0.75319 0.7254 0.0
H288 H 0.56622 0.85336 0.79869 0.0
H289 H 0.56324 0.8782 0.74005 0.0
S290 S 0.46511 0.53606 0.74487 0.0
N291 N 0.48404 0.58108 0.78141 0.0
N292 N 0.48004 0.6081 0.71719 0.0
C293 C 0.50124 0.67345 0.73735 0.0
C294 C 0.50309 0.65868 0.77215 0.0
C295 C 0.51517 0.30196 0.96816 0.0
C296 C 0.54838 0.26722 0.99021 0.0
C297 C 0.51434 0.29027 0.93399 0.0
C298 C 0.54677 0.24345 0.92031 0.0
H299 H 0.48905 0.33823 0.9774 0.0
H300 H 0.48642 0.31691 0.91815 0.0
S301 S 0.64169 0.13983 0.96704 0.0
N302 N 0.61569 0.18474 0.99586 0.0
N303 N 0.61439 0.16328 0.93129 0.0
C304 C 0.58261 0.21049 0.94183 0.0
C305 C 0.58324 0.22215 0.97685 0.0
C306 C 0.43174 0.53096 0.2421 0.0
C307 C 0.36409 0.49665 0.2207 0.0
C308 C 0.51106 0.56435 0.22983 0.0
C309 C 0.52562 0.56449 0.19568 0.0
H310 H 0.42406 0.54136 0.26785 0.0
H311 H 0.5614 0.5952 0.24703 0.0
S312 S 0.36883 0.46545 0.1303 0.0
N313 N 0.31672 0.45026 0.16472 0.0
N314 N 0.46558 0.5171 0.14137 0.0
C315 C 0.45857 0.52215 0.17458 0.0
C316 C 0.37776 0.48659 0.18727 0.0
C317 C 0.16205 0.6327 0.56897 0.0
C318 C 0.19455 0.69682 0.54555 0.0
C319 C 0.10611 0.55194 0.55954 0.0
C320 C 0.08093 0.53244 0.5263 0.0
H321 H 0.18523 0.64358 0.59416 0.0
H322 H 0.08584 0.50369 0.57814 0.0
S323 S 0.14149 0.67984 0.45605 0.0
N324 N 0.19215 0.73648 0.48818 0.0
N325 N 0.08686 0.58519 0.47056 0.0
C326 C 0.108 0.59697 0.50314 0.0
C327 C 0.16512 0.67909 0.51275 0.0
C328 C 0.56028 0.98661 0.84968 0.0
C329 C 0.50553 1.0008 0.86811 0.0
C330 C 0.58944 0.93484 0.86208 0.0
C331 C 0.56321 0.8942 0.89279 0.0
H332 H 0.57687 1.01149 0.82486 0.0
H333 H 0.62717 0.92128 0.84635 0.0
S334 S 0.43581 0.9254 0.95367 0.0
N335 N 0.43944 0.98251 0.9215 0.0
N336 N 0.49095 0.88243 0.94347 0.0
C337 C 0.51611 0.91524 0.91277 0.0
C338 C 0.48764 0.96883 0.90065 0.0
C339 C 0.63919 0.53 0.81373 0.0
C340 C 0.59934 0.54484 0.83987 0.0
C341 C 0.60602 0.45222 0.79884 0.0
C342 C 0.53095 0.38634 0.80927 0.0
H343 H 0.69815 0.57802 0.80551 0.0
H344 H 0.6418 0.44274 0.78039 0.0
S345 S 0.39346 0.39889 0.87093 0.0
N346 N 0.47516 0.49072 0.87165 0.0
N347 N 0.41207 0.34553 0.84338 0.0
C348 C 0.48751 0.40264 0.83329 0.0
C349 C 0.5219 0.4814 0.84876 0.0
C350 C 0.99577 0.55409 0.18593 0.0
C351 C 0.96365 0.47153 0.19644 0.0
C352 C 0.94886 0.57987 0.1673 0.0
C353 C 0.86905 0.5235 0.15775 0.0
H354 H 0.05783 0.59924 0.19213 0.0
H355 H 0.97482 0.64429 0.16064 0.0
S356 S 0.75428 0.30213 0.1811 0.0
N357 N 0.84531 0.33508 0.1977 0.0
N358 N 0.75805 0.38267 0.16205 0.0
C359 C 0.83591 0.44118 0.16858 0.0
C360 C 0.88294 0.41539 0.1881 0.0
C361 C 0.60094 0.08636 0.52725 0.0
C362 C 0.53332 0.08545 0.51189 0.0
C363 C 0.67792 0.1257 0.51228 0.0
C364 C 0.69079 0.1672 0.48167 0.0
H365 H 0.59508 0.05889 0.55147 0.0
H366 H 0.72886 0.12754 0.52562 0.0
S367 S 0.53059 0.1706 0.42849 0.0
N368 N 0.4821 0.12033 0.46218 0.0
N369 N 0.62643 0.19448 0.43435 0.0
C370 C 0.62228 0.1609 0.4648 0.0
C371 C 0.54385 0.12062 0.47997 0.0
C372 C 0.19197 0.12272 1.00949 0.0
C373 C 0.17805 0.16283 0.98259 0.0
C374 C 0.18002 0.13897 1.04232 0.0
C375 C 0.15295 0.19548 1.04955 0.0
H376 H 0.21325 0.0792 1.0051 0.0
H377 H 0.1915 0.10647 0.06222 0.0
S378 S 0.1093 0.31753 0.98743 0.0
N379 N 0.13741 0.26221 0.96503 0.0
N380 N 0.11367 0.29219 1.02643 0.0
C381 C 0.13853 0.23562 1.02263 0.0
C382 C 0.15158 0.21961 0.98928 0.0
C383 C 0.02953 0.44064 0.37455 0.0
C384 C 1.00683 0.36542 0.39106 0.0
C385 C 0.06226 0.457 0.34246 0.0
C386 C 0.0736 0.39883 0.32452 0.0
H387 H 0.02232 0.48834 0.38657 0.0
H388 H 0.07764 0.51611 0.33149 0.0
S389 S 0.02467 0.19153 0.35599 0.0
N390 N 0.99923 0.23186 0.38682 0.0
N391 N 0.05935 0.2619 0.32625 0.0
C392 C 0.0514 0.32306 0.34062 0.0
C393 C 1.01874 0.3067 0.37381 0.0
C394 C 0.87201 0.05889 0.70915 0.0
C395 C 0.90645 0.0147 0.72452 0.0
C396 C 0.88428 0.08036 0.67544 0.0
C397 C 0.93189 0.05902 0.65552 0.0
H398 H 0.83509 0.07719 0.72331 0.0
H399 H 0.85659 0.11452 0.66491 0.0
S400 S 0.03318 0.94066 0.68299 0.0
N401 N 0.98854 0.94839 0.71668 0.0
N402 N 1.01229 0.98963 0.65347 0.0
C403 C 0.96723 0.01541 0.67051 0.0
C404 C 0.95443 0.99314 0.7049 0.0
C405 C 0.73401 0.67325 0.99757 0.0
C406 C 0.69318 0.71789 0.99024 0.0
C407 C 0.74387 0.65307 1.03061 0.0
C408 C 0.71573 0.67896 0.05776 0.0
H409 H 0.75457 0.64987 0.97756 0.0
H410 H 0.77226 0.61539 1.03491 0.0
S411 S 0.60785 0.79994 1.05221 0.0
N412 N 0.62533 0.78793 1.01322 0.0
N413 N 0.64726 0.75361 0.07487 0.0
C414 C 0.67767 0.7262 1.05079 0.0
C415 C 0.66557 0.74468 1.01723 0.0
C416 C 0.97666 0.86919 0.38548 0.0
C417 C 0.05986 0.90428 0.39386 0.0
C418 C 0.95005 0.85612 0.35229 0.0
C419 C 1.00535 0.87638 0.32607 0.0
H420 H 0.93162 0.85237 0.40476 0.0
H421 H 0.88552 0.82903 0.34711 0.0
S422 S 0.22931 0.97078 0.33397 0.0
N423 N 0.19727 0.95963 0.37257 0.0
N424 N 0.14689 0.93454 0.31047 0.0
C425 C 0.08844 0.91134 0.33393 0.0
C426 C 0.11576 0.92557 0.36768 0.0
C427 C 0.34143 0.04554 0.70631 0.0
C428 C 0.41125 0.05693 0.72409 0.0
C429 C 0.32442 1.01303 0.67365 0.0
C430 C 0.37536 0.98854 0.65756 0.0
H431 H 0.30051 0.06357 0.71738 0.0
H432 H 0.27085 1.00693 0.66096 0.0
S433 S 0.56593 1.00524 0.69293 0.0
N434 N 0.53131 0.04004 0.72242 0.0
N435 N 0.49946 0.97963 0.66235 0.0
C436 C 0.44457 0.99873 0.67533 0.0
C437 C 0.46236 0.03254 0.7081 0.0
loop_
_geom_bond_atom_site_label_1
_geom_bond_atom_site_label_2
_geom_bond_distance
_geom_bond_site_symmetry_2
_ccdc_geom_bond_type
La0 C2 2.928 . S
La0 O20 2.521 . S
La0 O21 2.628 . S
La0 O22 2.554 . S
La0 O23 2.757 . S
La0 O24 2.470 . S
La0 O29 2.482 . S
La0 O31 2.503 . S
La1 C11 2.928 . S
La1 O23 2.482 . S
La1 O25 2.503 . S
La1 O26 2.521 1_455 S
La1 O27 2.628 . S
La1 O28 2.554 1_455 S
La1 O29 2.757 . S
La1 O30 2.470 . S
C2 La0 2.928 . S
C2 C3 1.503 . S
C2 O20 1.261 . S
C2 O21 1.243 . S
C3 C2 1.503 . S
C3 C4 1.394 . S
C3 C8 1.373 . S
C4 C3 1.394 . S
C4 C5 1.380 . S
C4 H32 0.930 . S
C5 C4 1.380 . S
C5 C6 1.376 . S
C5 H33 0.930 . S
C6 C5 1.376 . S
C6 C7 1.370 . S
C7 C6 1.370 . S
C7 C8 1.396 . S
C7 H34 0.929 . S
C8 C3 1.373 . S
C8 C7 1.396 . S
C8 H35 0.929 . S
C9 O22 1.240 . S
C9 O23 1.289 . S
C10 O24 1.258 . S
C10 O25 1.256 . S
C11 La1 2.928 . S
C11 C12 1.503 . S
C11 O26 1.261 1_455 S
C11 O27 1.243 . S
C12 C11 1.503 . S
C12 C13 1.394 1_455 S
C12 C17 1.373 . S
C13 C12 1.394 1_655 S
C13 C14 1.380 . S
C13 H36 0.930 . S
C14 C13 1.380 . S
C14 C15 1.376 1_655 S
C14 H37 0.930 . S
C15 C14 1.376 1_455 S
C15 C16 1.370 . S
C16 C15 1.370 . S
C16 C17 1.396 . S
C16 H38 0.929 . S
C17 C12 1.373 . S
C17 C16 1.396 . S
C17 H39 0.929 . S
C18 O28 1.240 . S
C18 O29 1.289 1_655 S
C19 O30 1.258 . S
C19 O31 1.256 . S
O20 La0 2.521 . S
O20 C2 1.261 . S
O21 La0 2.628 . S
O21 C2 1.243 . S
O22 La0 2.554 . S
O22 C9 1.240 . S
O23 La0 2.757 . S
O23 La1 2.482 . S
O23 C9 1.289 . S
O24 La0 2.470 . S
O24 C10 1.258 . S
O25 La1 2.503 . S
O25 C10 1.256 . S
O26 La1 2.521 1_655 S
O26 C11 1.261 1_655 S
O27 La1 2.628 . S
O27 C11 1.243 . S
O28 La1 2.554 1_655 S
O28 C18 1.240 . S
O29 La0 2.482 . S
O29 La1 2.757 . S
O29 C18 1.289 1_455 S
O30 La1 2.470 . S
O30 C19 1.258 . S
O31 La0 2.503 . S
O31 C19 1.256 . S
H32 C4 0.930 . S
H33 C5 0.930 . S
H34 C7 0.929 . S
H35 C8 0.929 . S
H36 C13 0.930 . S
H37 C14 0.930 . S
H38 C16 0.929 . S
H39 C17 0.929 . S
La40 C42 2.928 . S
La40 O60 2.521 . S
La40 O61 2.628 . S
La40 O62 2.554 . S
La40 O63 2.757 . S
La40 O64 2.470 . S
La40 O69 2.482 1_655 S
La40 O71 2.503 . S
La41 C51 2.928 . S
La41 O63 2.482 . S
La41 O65 2.503 1_655 S
La41 O66 2.521 1_655 S
La41 O67 2.628 . S
La41 O68 2.554 1_655 S
La41 O69 2.757 1_655 S
La41 O70 2.470 . S
C42 La40 2.928 . S
C42 C43 1.503 . S
C42 O60 1.261 . S
C42 O61 1.243 . S
C43 C42 1.503 . S
C43 C44 1.394 . S
C43 C48 1.373 . S
C44 C43 1.394 . S
C44 C45 1.380 . S
C44 H72 0.930 . S
C45 C44 1.380 . S
C45 C46 1.376 . S
C45 H73 0.930 . S
C46 C45 1.376 . S
C46 C47 1.370 . S
C47 C46 1.370 . S
C47 C48 1.396 . S
C47 H74 0.929 1_655 S
C48 C43 1.373 . S
C48 C47 1.396 . S
C48 H75 0.929 1_655 S
C49 O62 1.240 . S
C49 O63 1.289 . S
C50 O64 1.258 . S
C50 O65 1.256 1_655 S
C51 La41 2.928 . S
C51 C52 1.503 . S
C51 O66 1.261 1_655 S
C51 O67 1.243 . S
C52 C51 1.503 . S
C52 C53 1.394 1_655 S
C52 C57 1.373 . S
C53 C52 1.394 1_455 S
C53 C54 1.380 . S
C53 H76 0.930 . S
C54 C53 1.380 . S
C54 C55 1.376 1_455 S
C54 H77 0.930 . S
C55 C54 1.376 1_655 S
C55 C56 1.370 . S
C56 C55 1.370 . S
C56 C57 1.396 . S
C56 H78 0.929 . S
C57 C52 1.373 . S
C57 C56 1.396 . S
C57 H79 0.929 . S
C58 O68 1.240 . S
C58 O69 1.289 . S
C59 O70 1.258 . S
C59 O71 1.256 . S
O60 La40 2.521 . S
O60 C42 1.261 . S
O61 La40 2.628 . S
O61 C42 1.243 . S
O62 La40 2.554 . S
O62 C49 1.240 . S
O63 La40 2.757 . S
O63 La41 2.482 . S
O63 C49 1.289 . S
O64 La40 2.470 . S
O64 C50 1.258 . S
O65 La41 2.503 1_455 S
O65 C50 1.256 1_455 S
O66 La41 2.521 1_455 S
O66 C51 1.261 1_455 S
O67 La41 2.628 . S
O67 C51 1.243 . S
O68 La41 2.554 1_455 S
O68 C58 1.240 . S
O69 La40 2.482 1_455 S
O69 La41 2.757 1_455 S
O69 C58 1.289 . S
O70 La41 2.470 . S
O70 C59 1.258 . S
O71 La40 2.503 . S
O71 C59 1.256 . S
H72 C44 0.930 . S
H73 C45 0.930 . S
H74 C47 0.929 1_455 S
H75 C48 0.929 1_455 S
H76 C53 0.930 . S
H77 C54 0.930 . S
H78 C56 0.929 . S
H79 C57 0.929 . S
La80 C82 2.928 . S
La80 O100 2.521 . S
La80 O101 2.628 . S
La80 O102 2.554 . S
La80 O103 2.757 . S
La80 O104 2.470 . S
La80 O109 2.482 . S
La80 O111 2.503 . S
La81 C91 2.928 . S
La81 O103 2.482 . S
La81 O105 2.503 . S
La81 O106 2.521 . S
La81 O107 2.628 . S
La81 O108 2.554 . S
La81 O109 2.757 . S
La81 O110 2.470 . S
C82 La80 2.928 . S
C82 C83 1.503 . S
C82 O100 1.261 . S
C82 O101 1.243 . S
C83 C82 1.503 . S
C83 C84 1.394 . S
C83 C88 1.373 . S
C84 C83 1.394 . S
C84 C85 1.380 . S
C84 H112 0.930 . S
C85 C84 1.380 . S
C85 C86 1.361 1_556 S
C85 H113 0.930 . S
C86 C85 1.361 1_554 S
C86 C87 1.351 1_554 S
C87 C86 1.351 1_556 S
C87 C88 1.396 . S
C87 H114 0.929 . S
C88 C83 1.373 . S
C88 C87 1.396 . S
C88 H115 0.929 . S
C89 O102 1.240 . S
C89 O103 1.289 . S
C90 O104 1.258 . S
C90 O105 1.256 . S
C91 La81 2.928 . S
C91 C92 1.503 . S
C91 O106 1.261 . S
C91 O107 1.243 . S
C92 C91 1.503 . S
C92 C93 1.394 . S
C92 C97 1.373 . S
C93 C92 1.394 . S
C93 C94 1.380 . S
C93 H116 0.930 . S
C94 C93 1.380 . S
C94 C95 1.376 . S
C94 H117 0.930 . S
C95 C94 1.376 . S
C95 C96 1.370 . S
C96 C95 1.370 . S
C96 C97 1.396 . S
C96 H118 0.929 . S
C97 C92 1.373 . S
C97 C96 1.396 . S
C97 H119 0.929 . S
C98 O108 1.240 . S
C98 O109 1.289 . S
C99 O110 1.258 . S
C99 O111 1.256 . S
O100 La80 2.521 . S
O100 C82 1.261 . S
O101 La80 2.628 . S
O101 C82 1.243 . S
O102 La80 2.554 . S
O102 C89 1.240 . S
O103 La80 2.757 . S
O103 La81 2.482 . S
O103 C89 1.289 . S
O104 La80 2.470 . S
O104 C90 1.258 . S
O105 La81 2.503 . S
O105 C90 1.256 . S
O106 La81 2.521 . S
O106 C91 1.261 . S
O107 La81 2.628 . S
O107 C91 1.243 . S
O108 La81 2.554 . S
O108 C98 1.240 . S
O109 La80 2.482 . S
O109 La81 2.757 . S
O109 C98 1.289 . S
O110 La81 2.470 . S
O110 C99 1.258 . S
O111 La80 2.503 . S
O111 C99 1.256 . S
H112 C84 0.930 . S
H113 C85 0.930 . S
H114 C87 0.929 . S
H115 C88 0.929 . S
H116 C93 0.930 . S
H117 C94 0.930 . S
H118 C96 0.929 . S
H119 C97 0.929 . S
La120 C122 2.928 . S
La120 O140 2.521 . S
La120 O141 2.628 . S
La120 O142 2.554 . S
La120 O143 2.757 . S
La120 O144 2.470 . S
La120 O149 2.482 . S
La120 O151 2.503 . S
La121 C131 2.928 . S
La121 O143 2.482 . S
La121 O145 2.503 . S
La121 O146 2.521 . S
La121 O147 2.628 . S
La121 O148 2.554 . S
La121 O149 2.757 . S
La121 O150 2.470 . S
C122 La120 2.928 . S
C122 C123 1.503 1_554 S
C122 O140 1.261 . S
C122 O141 1.243 . S
C123 C122 1.503 1_556 S
C123 C124 1.394 . S
C123 C128 1.373 . S
C124 C123 1.394 . S
C124 C125 1.380 . S
C124 H152 0.930 . S
C125 C124 1.380 . S
C125 C126 1.376 . S
C125 H153 0.930 . S
C126 C125 1.376 . S
C126 C127 1.370 . S
C127 C126 1.370 . S
C127 C128 1.396 . S
C127 H154 0.929 . S
C128 C123 1.373 . S
C128 C127 1.396 . S
C128 H155 0.929 . S
C129 O142 1.240 . S
C129 O143 1.289 . S
C130 O144 1.258 . S
C130 O145 1.256 . S
C131 La121 2.928 . S
C131 C132 1.503 . S
C131 O146 1.261 . S
C131 O147 1.243 . S
C132 C131 1.503 . S
C132 C133 1.394 . S
C132 C137 1.373 . S
C133 C132 1.394 . S
C133 C134 1.380 . S
C133 H156 0.930 . S
C134 C133 1.380 . S
C134 C135 1.376 . S
C134 H157 0.930 . S
C135 C134 1.376 . S
C135 C136 1.370 . S
C136 C135 1.370 . S
C136 C137 1.396 . S
C136 H158 0.929 . S
C137 C132 1.373 . S
C137 C136 1.396 . S
C137 H159 0.929 . S
C138 O148 1.240 . S
C138 O149 1.289 . S
C139 O150 1.258 . S
C139 O151 1.256 . S
O140 La120 2.521 . S
O140 C122 1.261 . S
O141 La120 2.628 . S
O141 C122 1.243 . S
O142 La120 2.554 . S
O142 C129 1.240 . S
O143 La120 2.757 . S
O143 La121 2.482 . S
O143 C129 1.289 . S
O144 La120 2.470 . S
O144 C130 1.258 . S
O145 La121 2.503 . S
O145 C130 1.256 . S
O146 La121 2.521 . S
O146 C131 1.261 . S
O147 La121 2.628 . S
O147 C131 1.243 . S
O148 La121 2.554 . S
O148 C138 1.240 . S
O149 La120 2.482 . S
O149 La121 2.757 . S
O149 C138 1.289 . S
O150 La121 2.470 . S
O150 C139 1.258 . S
O151 La120 2.503 . S
O151 C139 1.256 . S
H152 C124 0.930 . S
H153 C125 0.930 . S
H154 C127 0.929 . S
H155 C128 0.929 . S
H156 C133 0.930 . S
H157 C134 0.930 . S
H158 C136 0.929 . S
H159 C137 0.929 . S
La160 C162 2.928 . S
La160 O180 2.521 . S
La160 O181 2.628 . S
La160 O182 2.554 . S
La160 O183 2.757 . S
La160 O184 2.470 . S
La160 O189 2.482 1_565 S
La160 O191 2.503 . S
La161 C171 2.928 . S
La161 O183 2.482 . S
La161 O185 2.503 1_565 S
La161 O186 2.521 1_565 S
La161 O187 2.628 . S
La161 O188 2.554 1_565 S
La161 O189 2.757 1_565 S
La161 O190 2.470 . S
C162 La160 2.928 . S
C162 C163 1.503 . S
C162 O180 1.261 . S
C162 O181 1.243 . S
C163 C162 1.503 . S
C163 C164 1.394 . S
C163 C168 1.373 . S
C164 C163 1.394 . S
C164 C165 1.380 . S
C164 H192 0.930 . S
C165 C164 1.380 . S
C165 C166 1.376 . S
C165 H193 0.930 . S
C166 C165 1.376 . S
C166 C167 1.370 . S
C167 C166 1.370 . S
C167 C168 1.396 . S
C167 H194 0.929 1_565 S
C168 C163 1.373 . S
C168 C167 1.396 . S
C168 H195 0.929 1_565 S
C169 O182 1.240 . S
C169 O183 1.289 . S
C170 O184 1.258 . S
C170 O185 1.256 1_565 S
C171 La161 2.928 . S
C171 C172 1.503 . S
C171 O186 1.261 1_565 S
C171 O187 1.243 . S
C172 C171 1.503 . S
C172 C173 1.394 1_565 S
C172 C177 1.373 . S
C173 C172 1.394 1_545 S
C173 C174 1.380 . S
C173 H196 0.930 . S
C174 C173 1.380 . S
C174 C175 1.376 1_545 S
C174 H197 0.930 . S
C175 C174 1.376 1_565 S
C175 C176 1.370 . S
C176 C175 1.370 . S
C176 C177 1.396 . S
C176 H198 0.929 . S
C177 C172 1.373 . S
C177 C176 1.396 . S
C177 H199 0.929 . S
C178 O188 1.240 . S
C178 O189 1.289 . S
C179 O190 1.258 . S
C179 O191 1.256 . S
O180 La160 2.521 . S
O180 C162 1.261 . S
O181 La160 2.628 . S
O181 C162 1.243 . S
O182 La160 2.554 . S
O182 C169 1.240 . S
O183 La160 2.757 . S
O183 La161 2.482 . S
O183 C169 1.289 . S
O184 La160 2.470 . S
O184 C170 1.258 . S
O185 La161 2.503 1_545 S
O185 C170 1.256 1_545 S
O186 La161 2.521 1_545 S
O186 C171 1.261 1_545 S
O187 La161 2.628 . S
O187 C171 1.243 . S
O188 La161 2.554 1_545 S
O188 C178 1.240 . S
O189 La160 2.482 1_545 S
O189 La161 2.757 1_545 S
O189 C178 1.289 . S
O190 La161 2.470 . S
O190 C179 1.258 . S
O191 La160 2.503 . S
O191 C179 1.256 . S
H192 C164 0.930 . S
H193 C165 0.930 . S
H194 C167 0.929 1_545 S
H195 C168 0.929 1_545 S
H196 C173 0.930 . S
H197 C174 0.930 . S
H198 C176 0.929 . S
H199 C177 0.929 . S
La200 C202 2.928 . S
La200 O220 2.521 . S
La200 O221 2.628 . S
La200 O222 2.554 . S
La200 O223 2.757 . S
La200 O224 2.470 . S
La200 O229 2.482 . S
La200 O231 2.503 . S
La201 C211 2.928 . S
La201 O223 2.482 . S
La201 O225 2.503 . S
La201 O226 2.521 1_545 S
La201 O227 2.628 . S
La201 O228 2.554 1_545 S
La201 O229 2.757 . S
La201 O230 2.470 . S
C202 La200 2.928 . S
C202 C203 1.503 . S
C202 O220 1.261 . S
C202 O221 1.243 . S
C203 C202 1.503 . S
C203 C204 1.394 . S
C203 C208 1.373 . S
C204 C203 1.394 . S
C204 C205 1.380 . S
C204 H232 0.930 . S
C205 C204 1.380 . S
C205 C206 1.376 . S
C205 H233 0.930 . S
C206 C205 1.376 . S
C206 C207 1.370 . S
C207 C206 1.370 . S
C207 C208 1.396 . S
C207 H234 0.929 . S
C208 C203 1.373 . S
C208 C207 1.396 . S
C208 H235 0.929 . S
C209 O222 1.240 . S
C209 O223 1.289 . S
C210 O224 1.258 . S
C210 O225 1.256 . S
C211 La201 2.928 . S
C211 C212 1.503 . S
C211 O226 1.261 1_545 S
C211 O227 1.243 . S
C212 C211 1.503 . S
C212 C213 1.394 1_545 S
C212 C217 1.373 . S
C213 C212 1.394 1_565 S
C213 C214 1.380 . S
C213 H236 0.930 . S
C214 C213 1.380 . S
C214 C215 1.376 1_565 S
C214 H237 0.930 . S
C215 C214 1.376 1_545 S
C215 C216 1.370 . S
C216 C215 1.370 . S
C216 C217 1.396 . S
C216 H238 0.929 . S
C217 C212 1.373 . S
C217 C216 1.396 . S
C217 H239 0.929 . S
C218 O228 1.240 . S
C218 O229 1.289 1_565 S
C219 O230 1.258 . S
C219 O231 1.256 . S
O220 La200 2.521 . S
O220 C202 1.261 . S
O221 La200 2.628 . S
O221 C202 1.243 . S
O222 La200 2.554 . S
O222 C209 1.240 . S
O223 La200 2.757 . S
O223 La201 2.482 . S
O223 C209 1.289 . S
O224 La200 2.470 . S
O224 C210 1.258 . S
O225 La201 2.503 . S
O225 C210 1.256 . S
O226 La201 2.521 1_565 S
O226 C211 1.261 1_565 S
O227 La201 2.628 . S
O227 C211 1.243 . S
O228 La201 2.554 1_565 S
O228 C218 1.240 . S
O229 La200 2.482 . S
O229 La201 2.757 . S
O229 C218 1.289 1_545 S
O230 La201 2.470 . S
O230 C219 1.258 . S
O231 La200 2.503 . S
O231 C219 1.256 . S
H232 C204 0.930 . S
H233 C205 0.930 . S
H234 C207 0.929 . S
H235 C208 0.929 . S
H236 C213 0.930 . S
H237 C214 0.930 . S
H238 C216 0.929 . S
H239 C217 0.929 . S
C240 C241 1.369 . S
C240 C242 1.419 . S
C240 H244 0.930 . S
C241 C240 1.369 . S
C241 C250 1.429 . S
C242 C240 1.419 . S
C242 C243 1.363 . S
C242 H245 0.929 . S
C243 C242 1.363 . S
C243 C249 1.428 . S
H244 C240 0.930 . S
H245 C242 0.929 . S
S246 N247 1.613 . S
S246 N248 1.610 . S
N247 S246 1.613 . S
N247 C250 1.350 . S
N248 S246 1.610 . S
N248 C249 1.351 . S
C249 C243 1.428 . S
C249 N248 1.351 . S
C249 C250 1.434 . S
C250 C241 1.429 . S
C250 N247 1.350 . S
C250 C249 1.434 . S
C251 C252 1.369 . S
C251 C253 1.419 . S
C251 H255 0.930 . S
C252 C251 1.369 . S
C252 C261 1.429 . S
C253 C251 1.419 . S
C253 C254 1.363 . S
C253 H256 0.929 . S
C254 C253 1.363 . S
C254 C260 1.428 . S
H255 C251 0.930 . S
H256 C253 0.929 . S
S257 N258 1.613 . S
S257 N259 1.610 . S
N258 S257 1.613 . S
N258 C261 1.350 . S
N259 S257 1.610 . S
N259 C260 1.351 . S
C260 C254 1.428 . S
C260 N259 1.351 . S
C260 C261 1.434 . S
C261 C252 1.429 . S
C261 N258 1.350 . S
C261 C260 1.434 . S
C262 C263 1.369 . S
C262 C264 1.419 . S
C262 H266 0.930 . S
C263 C262 1.369 . S
C263 C272 1.429 . S
C264 C262 1.419 . S
C264 C265 1.363 . S
C264 H267 0.929 . S
C265 C264 1.363 . S
C265 C271 1.428 . S
H266 C262 0.930 . S
H267 C264 0.929 . S
S268 N269 1.613 . S
S268 N270 1.610 . S
N269 S268 1.613 . S
N269 C272 1.350 . S
N270 S268 1.610 . S
N270 C271 1.351 . S
C271 C265 1.428 . S
C271 N270 1.351 . S
C271 C272 1.434 . S
C272 C263 1.429 . S
C272 N269 1.350 . S
C272 C271 1.434 . S
C273 C274 1.369 . S
C273 C275 1.419 . S
C273 H277 0.930 . S
C274 C273 1.369 . S
C274 C283 1.429 . S
C275 C273 1.419 . S
C275 C276 1.363 . S
C275 H278 0.929 . S
C276 C275 1.363 . S
C276 C282 1.428 . S
H277 C273 0.930 . S
H278 C275 0.929 . S
S279 N280 1.613 . S
S279 N281 1.610 . S
N280 S279 1.613 . S
N280 C283 1.350 . S
N281 S279 1.610 . S
N281 C282 1.351 . S
C282 C276 1.428 . S
C282 N281 1.351 . S
C282 C283 1.434 . S
C283 C274 1.429 . S
C283 N280 1.350 . S
C283 C282 1.434 . S
C284 C285 1.369 . S
C284 C286 1.419 . S
C284 H288 0.930 . S
C285 C284 1.369 . S
C285 C294 1.429 . S
C286 C284 1.419 . S
C286 C287 1.363 . S
C286 H289 0.929 . S
C287 C286 1.363 . S
C287 C293 1.428 . S
H288 C284 0.930 . S
H289 C286 0.929 . S
S290 N291 1.613 . S
S290 N292 1.610 . S
N291 S290 1.613 . S
N291 C294 1.350 . S
N292 S290 1.610 . S
N292 C293 1.351 . S
C293 C287 1.428 . S
C293 N292 1.351 . S
C293 C294 1.434 . S
C294 C285 1.429 . S
C294 N291 1.350 . S
C294 C293 1.434 . S
C295 C296 1.369 . S
C295 C297 1.419 . S
C295 H299 0.930 . S
C296 C295 1.369 . S
C296 C305 1.429 . S
C297 C295 1.419 . S
C297 C298 1.363 . S
C297 H300 0.929 . S
C298 C297 1.363 . S
C298 C304 1.428 . S
H299 C295 0.930 . S
H300 C297 0.929 . S
S301 N302 1.613 . S
S301 N303 1.610 . S
N302 S301 1.613 . S
N302 C305 1.350 . S
N303 S301 1.610 . S
N303 C304 1.351 . S
C304 C298 1.428 . S
C304 N303 1.351 . S
C304 C305 1.434 . S
C305 C296 1.429 . S
C305 N302 1.350 . S
C305 C304 1.434 . S
C306 C307 1.369 . S
C306 C308 1.419 . S
C306 H310 0.930 . S
C307 C306 1.369 . S
C307 C316 1.429 . S
C308 C306 1.419 . S
C308 C309 1.363 . S
C308 H311 0.929 . S
C309 C308 1.363 . S
C309 C315 1.428 . S
H310 C306 0.930 . S
H311 C308 0.929 . S
S312 N313 1.613 . S
S312 N314 1.610 . S
N313 S312 1.613 . S
N313 C316 1.350 . S
N314 S312 1.610 . S
N314 C315 1.351 . S
C315 C309 1.428 . S
C315 N314 1.351 . S
C315 C316 1.434 . S
C316 C307 1.429 . S
C316 N313 1.350 . S
C316 C315 1.434 . S
C317 C318 1.369 . S
C317 C319 1.419 . S
C317 H321 0.930 . S
C318 C317 1.369 . S
C318 C327 1.429 . S
C319 C317 1.419 . S
C319 C320 1.363 . S
C319 H322 0.929 . S
C320 C319 1.363 . S
C320 C326 1.428 . S
H321 C317 0.930 . S
H322 C319 0.929 . S
S323 N324 1.613 . S
S323 N325 1.610 . S
N324 S323 1.613 . S
N324 C327 1.350 . S
N325 S323 1.610 . S
N325 C326 1.351 . S
C326 C320 1.428 . S
C326 N325 1.351 . S
C326 C327 1.434 . S
C327 C318 1.429 . S
C327 N324 1.350 . S
C327 C326 1.434 . S
C328 C329 1.369 . S
C328 C330 1.419 . S
C328 H332 0.930 . S
C329 C328 1.369 . S
C329 C338 1.429 . S
C330 C328 1.419 . S
C330 C331 1.363 . S
C330 H333 0.929 . S
C331 C330 1.363 . S
C331 C337 1.428 . S
H332 C328 0.930 . S
H333 C330 0.929 . S
S334 N335 1.613 . S
S334 N336 1.610 . S
N335 S334 1.613 . S
N335 C338 1.350 . S
N336 S334 1.610 . S
N336 C337 1.351 . S
C337 C331 1.428 . S
C337 N336 1.351 . S
C337 C338 1.434 . S
C338 C329 1.429 . S
C338 N335 1.350 . S
C338 C337 1.434 . S
C339 C340 1.369 . S
C339 C341 1.419 . S
C339 H343 0.930 . S
C340 C339 1.369 . S
C340 C349 1.429 . S
C341 C339 1.419 . S
C341 C342 1.363 . S
C341 H344 0.929 . S
C342 C341 1.363 . S
C342 C348 1.428 . S
H343 C339 0.930 . S
H344 C341 0.929 . S
S345 N346 1.613 . S
S345 N347 1.610 . S
N346 S345 1.613 . S
N346 C349 1.350 . S
N347 S345 1.610 . S
N347 C348 1.351 . S
C348 C342 1.428 . S
C348 N347 1.351 . S
C348 C349 1.434 . S
C349 C340 1.429 . S
C349 N346 1.350 . S
C349 C348 1.434 . S
C350 C351 1.369 . S
C350 C352 1.419 . S
C350 H354 0.930 . S
C351 C350 1.369 . S
C351 C360 1.429 . S
C352 C350 1.419 . S
C352 C353 1.363 . S
C352 H355 0.929 . S
C353 C352 1.363 . S
C353 C359 1.428 . S
H354 C350 0.930 . S
H355 C352 0.929 . S
S356 N357 1.613 . S
S356 N358 1.610 . S
N357 S356 1.613 . S
N357 C360 1.350 . S
N358 S356 1.610 . S
N358 C359 1.351 . S
C359 C353 1.428 . S
C359 N358 1.351 . S
C359 C360 1.434 . S
C360 C351 1.429 . S
C360 N357 1.350 . S
C360 C359 1.434 . S
C361 C362 1.369 . S
C361 C363 1.419 . S
C361 H365 0.930 . S
C362 C361 1.369 . S
C362 C371 1.429 . S
C363 C361 1.419 . S
C363 C364 1.363 . S
C363 H366 0.929 . S
C364 C363 1.363 . S
C364 C370 1.428 . S
H365 C361 0.930 . S
H366 C363 0.929 . S
S367 N368 1.613 . S
S367 N369 1.610 . S
N368 S367 1.613 . S
N368 C371 1.350 . S
N369 S367 1.610 . S
N369 C370 1.351 . S
C370 C364 1.428 . S
C370 N369 1.351 . S
C370 C371 1.434 . S
C371 C362 1.429 . S
C371 N368 1.350 . S
C371 C370 1.434 . S
C372 C373 1.369 . S
C372 C374 1.419 . S
C372 H376 0.930 . S
C373 C372 1.369 . S
C373 C382 1.429 . S
C374 C372 1.419 . S
C374 C375 1.363 . S
C374 H377 0.929 1_556 S
C375 C374 1.363 . S
C375 C381 1.428 . S
H376 C372 0.930 . S
H377 C374 0.929 1_554 S
S378 N379 1.613 . S
S378 N380 1.610 . S
N379 S378 1.613 . S
N379 C382 1.350 1_655 S
N380 S378 1.610 . S
N380 C381 1.351 1_655 S
C381 C375 1.428 . S
C381 N380 1.351 1_455 S
C381 C382 1.434 . S
C382 C373 1.429 . S
C382 N379 1.350 1_455 S
C382 C381 1.434 . S
C383 C384 1.369 . S
C383 C385 1.419 . S
C383 H387 0.930 . S
C384 C383 1.369 . S
C384 C393 1.429 1_455 S
C385 C383 1.419 . S
C385 C386 1.363 . S
C385 H388 0.929 . S
C386 C385 1.363 . S
C386 C392 1.428 1_455 S
H387 C383 0.930 . S
H388 C385 0.929 . S
S389 N390 1.613 . S
S389 N391 1.610 . S
N390 S389 1.613 . S
N390 C393 1.350 . S
N391 S389 1.610 . S
N391 C392 1.351 . S
C392 C386 1.428 1_655 S
C392 N391 1.351 . S
C392 C393 1.434 . S
C393 C384 1.429 1_655 S
C393 N390 1.350 . S
C393 C392 1.434 . S
C394 C395 1.369 1_545 S
C394 C396 1.419 . S
C394 H398 0.930 . S
C395 C394 1.369 1_565 S
C395 C404 1.429 . S
C396 C394 1.419 . S
C396 C397 1.363 . S
C396 H399 0.929 . S
C397 C396 1.363 . S
C397 C403 1.428 . S
H398 C394 0.930 . S
H399 C396 0.929 . S
S400 N401 1.613 1_455 S
S400 N402 1.610 . S
N401 S400 1.613 1_655 S
N401 C404 1.350 . S
N402 S400 1.610 . S
N402 C403 1.351 1_465 S
C403 C397 1.428 . S
C403 N402 1.351 1_645 S
C403 C404 1.434 1_545 S
C404 C395 1.429 . S
C404 N401 1.350 . S
C404 C403 1.434 1_565 S
C405 C406 1.369 . S
C405 C407 1.419 . S
C405 H409 0.930 . S
C406 C405 1.369 . S
C406 C415 1.429 . S
C407 C405 1.419 . S
C407 C408 1.363 1_556 S
C407 H410 0.929 . S
C408 C407 1.363 1_554 S
C408 C414 1.428 1_554 S
H409 C405 0.930 . S
H410 C407 0.929 . S
S411 N412 1.613 . S
S411 N413 1.611 . S
N412 S411 1.613 . S
N412 C415 1.350 . S
N413 S411 1.611 . S
N413 C414 1.352 . S
C414 C408 1.428 1_556 S
C414 N413 1.352 . S
C414 C415 1.434 . S
C415 C406 1.429 . S
C415 N412 1.350 . S
C415 C414 1.434 . S
C416 C417 1.369 . S
C416 C418 1.419 1_455 S
C416 H420 0.930 1_455 S
C417 C416 1.369 . S
C417 C426 1.429 . S
C418 C416 1.419 1_655 S
C418 C419 1.363 . S
C418 H421 0.929 . S
C419 C418 1.363 . S
C419 C425 1.428 1_655 S
H420 C416 0.930 1_655 S
H421 C418 0.929 . S
S422 N423 1.613 . S
S422 N424 1.610 . S
N423 S422 1.613 . S
N423 C426 1.350 . S
N424 S422 1.610 . S
N424 C425 1.351 . S
C425 C419 1.428 1_455 S
C425 N424 1.351 . S
C425 C426 1.434 . S
C426 C417 1.429 . S
C426 N423 1.350 . S
C426 C425 1.434 . S
C427 C428 1.369 . S
C427 C429 1.419 . S
C427 H431 0.930 . S
C428 C427 1.369 . S
C428 C437 1.429 . S
C429 C427 1.419 . S
C429 C430 1.363 . S
C429 H432 0.929 . S
C430 C429 1.363 . S
C430 C436 1.428 . S
H431 C427 0.930 . S
H432 C429 0.929 . S
S433 N434 1.613 . S
S433 N435 1.610 . S
N434 S433 1.613 . S
N434 C437 1.350 . S
N435 S433 1.610 . S
N435 C436 1.351 . S
C436 C430 1.428 . S
C436 N435 1.351 . S
C436 C437 1.434 . S
C437 C428 1.429 . S
C437 N434 1.350 . S
C437 C436 1.434 . S
C241 C179 1.799 . S
C243 C6 1.730 . S
C252 C206 1.739 . S
C254 C59 1.793 . S
C263 C19 1.798 . S
C265 C86 1.765 . S
C274 C46 1.736 . S
C276 C139 1.795 . S
C285 C99 1.797 . S
C287 C166 1.732 . S
C296 C126 1.730 . S
C298 C219 1.797 . S
C307 C9 1.693 . S
C309 C138 1.945 . S
C318 C169 1.693 . S
C320 C58 1.946 . S
C329 C218 1.937 . S
C331 C89 1.698 . S
C340 C98 1.941 . S
C342 C209 1.700 . S
C351 C18 1.946 . S
C353 C129 1.690 . S
C362 C178 1.940 . S
C364 C49 1.692 . S
C373 C215 0.977 . S
C375 C15 0.983 1_556 S
C384 C50 1.846 1_455 S
C386 C10 1.850 . S
C395 C95 0.985 . S
C397 C55 0.982 . S
C406 C90 1.845 . S
C408 C130 1.850 . S
C417 C175 0.983 . S
C419 C135 0.977 . S
C428 C210 1.846 . S
C430 C170 1.848 1_545 S
