# Generated by pormake.
# Topology lcy-e, (6)-cn, num edge types: 1
# Building blocks:
#     Node 0, Type 0, BuildingBlock: NUHQIS_clean_sbu_0, # of connection points: 6
#     Node 1, Type 0, BuildingBlock: NUHQIS_clean_sbu_0, # of connection points: 6
#     Node 2, Type 0, BuildingBlock: NUHQIS_clean_sbu_0, # of connection points: 6
#     Node 3, Type 0, BuildingBlock: NUHQIS_clean_sbu_0, # of connection points: 6
#     Node 4, Type 0, BuildingBlock: NUHQIS_clean_sbu_0, # of connection points: 6
#     Node 5, Type 0, BuildingBlock: NUHQIS_clean_sbu_0, # of connection points: 6
#     Node 6, Type 0, BuildingBlock: NUHQIS_clean_sbu_0, # of connection points: 6
#     Node 7, Type 0, BuildingBlock: NUHQIS_clean_sbu_0, # of connection points: 6
#     Node 8, Type 0, BuildingBlock: NUHQIS_clean_sbu_0, # of connection points: 6
#     Node 9, Type 0, BuildingBlock: NUHQIS_clean_sbu_0, # of connection points: 6
#     Node 10, Type 0, BuildingBlock: NUHQIS_clean_sbu_0, # of connection points: 6
#     Node 11, Type 0, BuildingBlock: NUHQIS_clean_sbu_0, # of connection points: 6
#     Edge 12, Type (0, 0), BuildingBlock: KIFKEQ_clean_linker_1, # of connection points: 2
#     Edge 13, Type (0, 0), BuildingBlock: KIFKEQ_clean_linker_1, # of connection points: 2
#     Edge 14, Type (0, 0), BuildingBlock: KIFKEQ_clean_linker_1, # of connection points: 2
#     Edge 15, Type (0, 0), BuildingBlock: KIFKEQ_clean_linker_1, # of connection points: 2
#     Edge 16, Type (0, 0), BuildingBlock: KIFKEQ_clean_linker_1, # of connection points: 2
#     Edge 17, Type (0, 0), BuildingBlock: KIFKEQ_clean_linker_1, # of connection points: 2
#     Edge 18, Type (0, 0), BuildingBlock: KIFKEQ_clean_linker_1, # of connection points: 2
#     Edge 19, Type (0, 0), BuildingBlock: KIFKEQ_clean_linker_1, # of connection points: 2
#     Edge 20, Type (0, 0), BuildingBlock: KIFKEQ_clean_linker_1, # of connection points: 2
#     Edge 21, Type (0, 0), BuildingBlock: KIFKEQ_clean_linker_1, # of connection points: 2
#     Edge 22, Type (0, 0), BuildingBlock: KIFKEQ_clean_linker_1, # of connection points: 2
#     Edge 23, Type (0, 0), BuildingBlock: KIFKEQ_clean_linker_1, # of connection points: 2
#     Edge 24, Type (0, 0), BuildingBlock: KIFKEQ_clean_linker_1, # of connection points: 2
#     Edge 25, Type (0, 0), BuildingBlock: KIFKEQ_clean_linker_1, # of connection points: 2
#     Edge 26, Type (0, 0), BuildingBlock: KIFKEQ_clean_linker_1, # of connection points: 2
#     Edge 27, Type (0, 0), BuildingBlock: KIFKEQ_clean_linker_1, # of connection points: 2
#     Edge 28, Type (0, 0), BuildingBlock: KIFKEQ_clean_linker_1, # of connection points: 2
#     Edge 29, Type (0, 0), BuildingBlock: KIFKEQ_clean_linker_1, # of connection points: 2
#     Edge 30, Type (0, 0), BuildingBlock: KIFKEQ_clean_linker_1, # of connection points: 2
#     Edge 31, Type (0, 0), BuildingBlock: KIFKEQ_clean_linker_1, # of connection points: 2
#     Edge 32, Type (0, 0), BuildingBlock: KIFKEQ_clean_linker_1, # of connection points: 2
#     Edge 33, Type (0, 0), BuildingBlock: KIFKEQ_clean_linker_1, # of connection points: 2
#     Edge 34, Type (0, 0), BuildingBlock: KIFKEQ_clean_linker_1, # of connection points: 2
#     Edge 35, Type (0, 0), BuildingBlock: KIFKEQ_clean_linker_1, # of connection points: 2
#     Edge 36, Type (0, 0), BuildingBlock: KIFKEQ_clean_linker_1, # of connection points: 2
#     Edge 37, Type (0, 0), BuildingBlock: KIFKEQ_clean_linker_1, # of connection points: 2
#     Edge 38, Type (0, 0), BuildingBlock: KIFKEQ_clean_linker_1, # of connection points: 2
#     Edge 39, Type (0, 0), BuildingBlock: KIFKEQ_clean_linker_1, # of connection points: 2
#     Edge 40, Type (0, 0), BuildingBlock: KIFKEQ_clean_linker_1, # of connection points: 2
#     Edge 41, Type (0, 0), BuildingBlock: KIFKEQ_clean_linker_1, # of connection points: 2
#     Edge 42, Type (0, 0), BuildingBlock: KIFKEQ_clean_linker_1, # of connection points: 2
#     Edge 43, Type (0, 0), BuildingBlock: KIFKEQ_clean_linker_1, # of connection points: 2
#     Edge 44, Type (0, 0), BuildingBlock: KIFKEQ_clean_linker_1, # of connection points: 2
#     Edge 45, Type (0, 0), BuildingBlock: KIFKEQ_clean_linker_1, # of connection points: 2
#     Edge 46, Type (0, 0), BuildingBlock: KIFKEQ_clean_linker_1, # of connection points: 2
#     Edge 47, Type (0, 0), BuildingBlock: KIFKEQ_clean_linker_1, # of connection points: 2
# Relax obj value: 0.180
# Max RMSD: 0.285
# Mean RMSD: 0.269
data_MOF--net-lcy-e--node1-NUHQIS_clean_sbu_0--edge1-KIFKEQ_clean_linker_1
_symmetry_space_group_name_H-M    P1
_symmetry_Int_Tables_number       1
_symmetry_cell_setting            triclinic
loop_
_symmetry_equiv_pos_as_xyz
'x, y, z'
_cell_length_a     44.591591
_cell_length_b     45.9899
_cell_length_c     44.2899
_cell_angle_alpha  89.856287
_cell_angle_beta   89.903797
_cell_angle_gamma 89.482567
loop_
_atom_site_label
_atom_site_type_symbol
_atom_site_fract_x
_atom_site_fract_y
_atom_site_fract_z
_atom_type_partial_charge
Tb0 Tb 0.1369 0.26349 0.5089 0.0
Eu1 Eu 0.11304 0.31102 0.4589 0.0
C2 C 0.16892 0.26867 0.4472 0.0
C3 C 0.16361 0.32736 0.50476 0.0
C4 C 0.13916 0.19798 0.55852 0.0
C5 C 0.13514 0.16376 0.60017 0.0
C6 C 0.14779 0.18864 0.58737 0.0
C7 C 0.11751 0.18211 0.54262 0.0
C8 C 0.105 0.15704 0.55533 0.0
C9 C 0.11364 0.14761 0.5843 0.0
C10 C 0.15323 0.224 0.54528 0.0
O11 O 0.09428 0.27928 0.52591 0.0
O12 O 0.09485 0.32473 0.50474 0.0
O13 O 0.07579 0.27966 0.46598 0.0
O14 O 0.1059 0.24105 0.47837 0.0
C15 C 0.08665 0.30686 0.52648 0.0
O16 O 0.10691 0.35575 0.44305 0.0
O17 O 0.09165 0.31982 0.41563 0.0
O18 O 0.14389 0.27875 0.43539 0.0
O19 O 0.17284 0.26869 0.4765 0.0
O20 O 0.15527 0.30586 0.52272 0.0
O21 O 0.15678 0.3273 0.47601 0.0
C22 C 0.08011 0.2516 0.46858 0.0
O23 O 0.15821 0.22329 0.51628 0.0
O24 O 0.1424 0.2491 0.55379 0.0
C25 C 0.11073 0.36091 0.39016 0.0
C26 C 0.13739 0.38686 0.33895 0.0
C27 C 0.1154 0.40186 0.35585 0.0
C28 C 0.10217 0.38896 0.38113 0.0
C29 C 0.13293 0.34592 0.3737 0.0
C30 C 0.14605 0.35873 0.34827 0.0
C31 C 0.09653 0.34774 0.41687 0.0
H32 H 0.14255 0.15691 0.62238 0.0
H33 H 0.16448 0.20053 0.59998 0.0
H34 H 0.11033 0.18903 0.52035 0.0
H35 H 0.0883 0.14526 0.54267 0.0
H36 H 0.10861 0.42377 0.34981 0.0
H37 H 0.08529 0.40096 0.39371 0.0
H38 H 0.14004 0.32426 0.38043 0.0
H39 H 0.1627 0.34643 0.33572 0.0
Tb40 Tb 0.99858 0.91554 0.70582 0.0
Eu41 Eu 0.04951 0.93334 0.75562 0.0
C42 C 0.05814 0.87918 0.7112 0.0
C43 C 1.00236 0.8855 0.77067 0.0
C44 C 0.94574 0.91664 0.64027 0.0
C45 C 0.90331 0.92019 0.60619 0.0
C46 C 0.91685 0.90825 0.63185 0.0
C47 C 0.96076 0.93768 0.62303 0.0
C48 C 0.94727 0.94956 0.5972 0.0
C49 C 0.91849 0.94068 0.58825 0.0
C50 C 0.96009 0.90246 0.66643 0.0
O51 O 0.9846 0.95734 0.72346 0.0
O52 O 0.00477 0.9523 0.77056 0.0
O53 O 0.04566 0.97036 0.72327 0.0
O54 O 0.02929 0.94509 0.68217 0.0
C55 C 0.98408 0.963 0.75242 0.0
O56 O 0.06452 0.93883 0.80207 0.0
O57 O 0.09337 0.95175 0.76495 0.0
O58 O 0.07166 0.90157 0.72336 0.0
O59 O 0.02883 0.87851 0.70889 0.0
O60 O 0.98477 0.89687 0.74966 0.0
O61 O 0.03114 0.89088 0.77111 0.0
C62 C 0.04228 0.968 0.69406 0.0
O63 O 0.9887 0.89687 0.66395 0.0
O64 O 0.95324 0.91279 0.69296 0.0
C65 C 0.11732 0.93391 0.80878 0.0
C66 C 0.16829 0.90896 0.83668 0.0
C67 C 0.1711 0.93312 0.81739 0.0
C68 C 0.14586 0.94553 0.80374 0.0
C69 C 0.11439 0.90956 0.82776 0.0
C70 C 0.13964 0.89727 0.84164 0.0
C71 C 0.09115 0.94761 0.79402 0.0
H72 H 0.88087 0.91333 0.60042 0.0
H73 H 0.90484 0.8922 0.64499 0.0
H74 H 0.98308 0.94455 0.62924 0.0
H75 H 0.9597 0.96514 0.58388 0.0
H76 H 0.19284 0.94241 0.81265 0.0
H77 H 0.14866 0.96426 0.78914 0.0
H78 H 0.09264 0.90009 0.83206 0.0
H79 H 0.1366 0.87892 0.85668 0.0
Tb80 Tb 0.37424 0.8274 0.01604 0.0
Eu81 Eu 0.39906 0.78236 0.96255 0.0
C82 C 0.34453 0.82646 0.95234 0.0
C83 C 0.34225 0.76617 1.00554 0.0
C84 C 0.37052 0.89249 0.0668 0.0
C85 C 0.37918 0.94393 0.05715 0.0
C86 C 0.36861 0.91683 0.04758 0.0
C87 C 0.38286 0.89582 0.0957 0.0
C88 C 0.39367 0.92269 0.1051 0.0
C89 C 0.39216 0.94702 0.0859 0.0
C90 C 0.361 0.86317 0.05736 0.0
O91 O 0.39278 0.78858 0.03582 0.0
O92 O 0.43072 0.77935 1.00293 0.0
O93 O 0.4164 0.82685 0.95287 0.0
O94 O 0.41816 0.84304 1.00147 0.0
C95 C 0.42022 0.7799 0.03072 0.0
O96 O 0.41251 0.73951 0.94573 0.0
O97 O 0.41564 0.77712 0.91651 0.0
O98 O 0.35413 0.79977 0.94769 0.0
O99 O 0.35609 0.84284 0.97349 0.0
O100 O 0.34116 0.79234 0.01793 0.0
O101 O 0.36281 0.75795 0.986 0.0
C102 C 0.427 0.84449 0.97322 0.0
O103 O 0.34558 0.86056 0.03249 0.0
O104 O 0.38154 0.84304 0.05969 0.0
C105 C 0.40122 0.73333 0.89397 0.0
C106 C 0.37103 0.7062 0.84571 0.0
C107 C 0.40246 0.70893 0.84537 0.0
C108 C 0.41739 0.72237 0.86929 0.0
C109 C 0.36988 0.73073 0.89447 0.0
C110 C 0.35493 0.71722 0.87062 0.0
C111 C 0.41691 0.74885 0.91823 0.0
H112 H 0.3778 0.9623 0.04185 0.0
H113 H 0.35931 0.91489 0.02511 0.0
H114 H 0.38448 0.87742 0.11098 0.0
H115 H 0.40308 0.92447 0.12755 0.0
H116 H 0.41559 0.70037 0.82675 0.0
H117 H 0.44157 0.72436 0.86842 0.0
H118 H 0.35696 0.73943 0.91319 0.0
H119 H 0.33072 0.71581 0.87147 0.0
Tb120 Tb 0.50781 0.1783 0.20487 0.0
Eu121 Eu 0.46102 0.15368 0.25618 0.0
C122 C 0.44719 0.20951 0.21736 0.0
C123 C 0.51493 0.19383 0.27314 0.0
C124 C 0.55714 0.18508 0.1373 0.0
C125 C 0.5596 0.17182 0.08412 0.0
C126 C 0.54423 0.18445 0.10835 0.0
C127 C 0.58606 0.1733 0.14134 0.0
C128 C 0.60152 0.16085 0.11703 0.0
C129 C 0.5884 0.15988 0.0882 0.0
C130 C 0.54026 0.19804 0.16286 0.0
O131 O 0.5336 0.14311 0.22466 0.0
O132 O 0.50016 0.12159 0.2581 0.0
O133 O 0.44653 0.13736 0.21068 0.0
O134 O 0.4925 0.13657 0.18788 0.0
C135 C 0.52671 0.12316 0.24478 0.0
O136 O 0.44273 0.15623 0.30158 0.0
O137 O 0.42313 0.12638 0.26966 0.0
O138 O 0.44747 0.19992 0.24517 0.0
O139 O 0.46365 0.19676 0.19679 0.0
O140 O 0.5134 0.20508 0.24574 0.0
O141 O 0.5016 0.16944 0.27947 0.0
C142 C 0.46482 0.12724 0.18993 0.0
O143 O 0.51118 0.19617 0.16144 0.0
O144 O 0.55004 0.19282 0.19011 0.0
C145 C 0.39074 0.14961 0.30492 0.0
C146 C 0.33658 0.1726 0.32849 0.0
C147 C 0.34471 0.14329 0.33348 0.0
C148 C 0.3716 0.13197 0.32191 0.0
C149 C 0.3821 0.17842 0.29858 0.0
C150 C 0.35535 0.18983 0.31031 0.0
C151 C 0.42064 0.13868 0.29608 0.0
H152 H 0.54911 0.17178 0.06208 0.0
H153 H 0.52215 0.19368 0.10439 0.0
H154 H 0.59675 0.17357 0.16328 0.0
H155 H 0.62364 0.15164 0.12089 0.0
H156 H 0.33057 0.12919 0.34683 0.0
H157 H 0.37783 0.10965 0.32694 0.0
H158 H 0.39659 0.19243 0.28547 0.0
H159 H 0.35009 0.21253 0.3062 0.0
Tb160 Tb 0.63776 0.32956 0.48201 0.0
Eu161 Eu 0.61726 0.28144 0.53272 0.0
C162 C 0.67176 0.32444 0.54329 0.0
C163 C 0.66811 0.26698 0.4862 0.0
C164 C 0.63989 0.39541 0.43294 0.0
C165 C 0.64167 0.43532 0.39717 0.0
C166 C 0.65264 0.40858 0.40755 0.0
C167 C 0.61556 0.40894 0.44756 0.0
C168 C 0.60461 0.4358 0.43726 0.0
C169 C 0.61782 0.44949 0.41216 0.0
C170 C 0.6532 0.36839 0.44477 0.0
O171 O 0.59571 0.31226 0.46583 0.0
O172 O 0.60002 0.26709 0.48716 0.0
O173 O 0.57914 0.31266 0.52708 0.0
O174 O 0.60689 0.35197 0.51301 0.0
C175 C 0.59046 0.28427 0.46533 0.0
O176 O 0.61287 0.23651 0.54819 0.0
O177 O 0.5964 0.27196 0.57607 0.0
O178 O 0.64795 0.31307 0.55596 0.0
O179 O 0.67444 0.32576 0.51384 0.0
O180 O 0.65742 0.28754 0.46823 0.0
O181 O 0.66188 0.26687 0.51511 0.0
C182 C 0.58243 0.34082 0.52484 0.0
O183 O 0.65993 0.36864 0.47336 0.0
O184 O 0.6403 0.34423 0.437 0.0
C185 C 0.61755 0.23114 0.60094 0.0
C186 C 0.64695 0.20501 0.65046 0.0
C187 C 0.62767 0.18873 0.63207 0.0
C188 C 0.61306 0.20172 0.60759 0.0
C189 C 0.63685 0.24751 0.61919 0.0
C190 C 0.65126 0.23458 0.64391 0.0
C191 C 0.60248 0.24418 0.57458 0.0
H192 H 0.65193 0.44489 0.37736 0.0
H193 H 0.67136 0.39836 0.39595 0.0
H194 H 0.60544 0.399 0.46724 0.0
H195 H 0.58633 0.44614 0.4494 0.0
H196 H 0.62369 0.16596 0.6368 0.0
H197 H 0.59831 0.18875 0.59375 0.0
H198 H 0.64092 0.27023 0.61428 0.0
H199 H 0.66618 0.24754 0.65755 0.0
Tb200 Tb 0.96367 0.42552 0.74264 0.0
Eu201 Eu 0.01363 0.40734 0.79369 0.0
C202 C 0.96814 0.46059 0.80251 0.0
C203 C 0.02727 0.45593 0.7463 0.0
C204 C 0.89871 0.42382 0.68957 0.0
C205 C 0.8683 0.41685 0.64481 0.0
C206 C 0.89242 0.43006 0.65925 0.0
C207 C 0.88067 0.40392 0.70527 0.0
C208 C 0.85633 0.39088 0.69089 0.0
C209 C 0.84989 0.39725 0.6605 0.0
C210 C 0.92384 0.43864 0.70438 0.0
O211 O 0.98225 0.38437 0.72789 0.0
O212 O 0.02896 0.38906 0.74846 0.0
O213 O 0.98308 0.36954 0.78878 0.0
O214 O 0.94152 0.3951 0.77373 0.0
C215 C 0.01111 0.37883 0.72739 0.0
O216 O 0.05981 0.40272 0.80923 0.0
O217 O 0.02324 0.38955 0.83839 0.0
O218 O 0.97979 0.43758 0.81584 0.0
O219 O 0.96651 0.46217 0.77302 0.0
O220 O 0.00667 0.44462 0.72858 0.0
O221 O 0.02775 0.45028 0.77527 0.0
C222 C 0.95399 0.37154 0.7854 0.0
O223 O 0.92121 0.44321 0.73332 0.0
O224 O 0.9507 0.42965 0.69715 0.0
C225 C 0.06559 0.40953 0.86173 0.0
C226 C 0.09118 0.43848 0.91135 0.0
C227 C 0.09021 0.40791 0.91055 0.0
C228 C 0.07755 0.39359 0.88592 0.0
C229 C 0.0661 0.44003 0.86253 0.0
C230 C 0.07892 0.45439 0.88708 0.0
C231 C 0.05199 0.39413 0.83622 0.0
H232 H 0.8637 0.42242 0.62148 0.0
H233 H 0.90605 0.44536 0.64678 0.0
H234 H 0.88527 0.39856 0.72865 0.0
H235 H 0.8427 0.37565 0.70343 0.0
H236 H 0.09979 0.39503 0.92869 0.0
H237 H 0.07719 0.37004 0.88572 0.0
H238 H 0.05661 0.45271 0.84417 0.0
H239 H 0.07905 0.47793 0.88717 0.0
Tb240 Tb 0.89837 0.80599 0.03377 0.0
Eu241 Eu 0.87354 0.75888 0.98452 0.0
C242 C 0.93125 0.74702 0.02552 0.0
C243 C 0.92415 0.80301 0.96674 0.0
C244 C 0.90231 0.85411 0.10097 0.0
C245 C 0.90806 0.87758 0.1496 0.0
C246 C 0.92068 0.86429 0.12418 0.0
C247 C 0.87104 0.85686 0.10368 0.0
C248 C 0.85837 0.87027 0.12909 0.0
C249 C 0.87676 0.88103 0.15227 0.0
C250 C 0.91609 0.84024 0.0744 0.0
O251 O 0.85608 0.82364 0.01844 0.0
O252 O 0.8549 0.8034 0.97123 0.0
O253 O 0.83684 0.76611 0.01805 0.0
O254 O 0.86742 0.7768 0.05761 0.0
C255 C 0.84811 0.82474 0.98999 0.0
O256 O 0.86623 0.7432 0.93866 0.0
O257 O 0.85115 0.71759 0.97683 0.0
O258 O 0.9061 0.73562 0.01591 0.0
O259 O 0.93449 0.77525 0.02639 0.0
O260 O 0.91571 0.81984 0.98942 0.0
O261 O 0.91666 0.77554 0.96571 0.0
C262 C 0.84142 0.76804 0.04711 0.0
O263 O 0.91905 0.81206 0.07584 0.0
O264 O 0.90619 0.84874 0.0481 0.0
C265 C 0.86878 0.69194 0.9345 0.0
C266 C 0.89387 0.64014 0.91105 0.0
C267 C 0.86258 0.64358 0.91362 0.0
C268 C 0.85018 0.66927 0.92521 0.0
C269 C 0.90002 0.68857 0.93226 0.0
C270 C 0.91246 0.66295 0.92048 0.0
C271 C 0.85539 0.71836 0.9477 0.0
H272 H 0.92288 0.88512 0.16722 0.0
H273 H 0.94484 0.86202 0.12261 0.0
H274 H 0.85647 0.84887 0.08605 0.0
H275 H 0.83423 0.87279 0.13023 0.0
H276 H 0.84766 0.62657 0.90623 0.0
H277 H 0.82602 0.67143 0.92698 0.0
H278 H 0.91479 0.70569 0.93975 0.0
H279 H 0.93663 0.66084 0.91909 0.0
Tb280 Tb 0.55164 0.66195 0.24462 0.0
Eu281 Eu 0.50043 0.68367 0.29436 0.0
C282 C 0.54523 0.63007 0.30656 0.0
C283 C 0.48633 0.63489 0.24797 0.0
C284 C 0.61815 0.66205 0.19414 0.0
C285 C 0.66623 0.65938 0.16836 0.0
C286 C 0.64118 0.64563 0.18076 0.0
C287 C 0.62054 0.69245 0.19521 0.0
C288 C 0.64553 0.70625 0.18268 0.0
C289 C 0.66869 0.68986 0.16908 0.0
C290 C 0.59231 0.64717 0.20773 0.0
O291 O 0.53606 0.70398 0.22944 0.0
O292 O 0.48835 0.70216 0.24822 0.0
O293 O 0.53381 0.7193 0.29128 0.0
O294 O 0.57427 0.69221 0.27518 0.0
C295 C 0.50757 0.71066 0.22738 0.0
O296 O 0.45343 0.6882 0.30805 0.0
O297 O 0.48874 0.70387 0.33725 0.0
O298 O 0.5322 0.65301 0.31865 0.0
O299 O 0.54786 0.62713 0.27723 0.0
O300 O 0.5081 0.64416 0.23018 0.0
O301 O 0.48658 0.64052 0.27688 0.0
C302 C 0.56278 0.71572 0.28786 0.0
O303 O 0.59391 0.64289 0.23677 0.0
O304 O 0.5658 0.65652 0.19967 0.0
C305 C 0.44565 0.68452 0.3608 0.0
C306 C 0.41756 0.65953 0.41184 0.0
C307 C 0.40219 0.67984 0.39353 0.0
C308 C 0.41614 0.69224 0.36836 0.0
C309 C 0.46096 0.66385 0.37855 0.0
C310 C 0.44709 0.65155 0.40387 0.0
C311 C 0.46018 0.69844 0.33462 0.0
H312 H 0.68344 0.64614 0.15773 0.0
H313 H 0.63978 0.62214 0.17987 0.0
H314 H 0.60311 0.70548 0.2058 0.0
H315 H 0.64686 0.72972 0.18389 0.0
H316 H 0.37924 0.68607 0.3985 0.0
H317 H 0.40387 0.70797 0.35481 0.0
H318 H 0.48374 0.65742 0.37302 0.0
H319 H 0.45974 0.6362 0.4175 0.0
Tb320 Tb 0.2265 0.56091 0.13685 0.0
Eu321 Eu 0.27664 0.51275 0.11437 0.0
C322 C 0.23163 0.50127 0.16944 0.0
C323 C 0.29175 0.55708 0.16504 0.0
C324 C 0.15949 0.60956 0.13595 0.0
C325 C 0.11247 0.60441 0.10856 0.0
C326 C 0.13737 0.5919 0.12295 0.0
C327 C 0.15632 0.63987 0.13405 0.0
C328 C 0.13159 0.65237 0.11942 0.0
C329 C 0.10935 0.63479 0.10655 0.0
C330 C 0.18593 0.59687 0.15144 0.0
O331 O 0.24154 0.57514 0.09285 0.0
O332 O 0.28933 0.55689 0.0952 0.0
O333 O 0.24332 0.51696 0.07702 0.0
O334 O 0.20347 0.53079 0.10646 0.0
C335 C 0.26993 0.57655 0.08547 0.0
O336 O 0.32337 0.49815 0.11098 0.0
O337 O 0.28783 0.4718 0.09237 0.0
O338 O 0.24395 0.48974 0.14523 0.0
O339 O 0.23041 0.52954 0.17312 0.0
O340 O 0.27011 0.57451 0.15532 0.0
O341 O 0.29117 0.52925 0.15919 0.0
C342 C 0.21437 0.51982 0.08122 0.0
O343 O 0.18505 0.56917 0.15767 0.0
O344 O 0.21213 0.60447 0.14112 0.0
C345 C 0.32893 0.4471 0.11479 0.0
C346 C 0.35387 0.39689 0.14226 0.0
C347 C 0.37206 0.41629 0.12591 0.0
C348 C 0.35967 0.44106 0.11223 0.0
C349 C 0.3108 0.42831 0.13181 0.0
C350 C 0.32311 0.4034 0.14526 0.0
C351 C 0.31614 0.47299 0.09969 0.0
H352 H 0.09585 0.59032 0.09864 0.0
H353 H 0.13926 0.56842 0.12382 0.0
H354 H 0.17301 0.65393 0.14393 0.0
H355 H 0.12965 0.67585 0.11856 0.0
H356 H 0.39593 0.41237 0.12363 0.0
H357 H 0.3741 0.45545 0.09952 0.0
H358 H 0.28701 0.43265 0.13442 0.0
H359 H 0.30832 0.38889 0.15737 0.0
Tb360 Tb 0.76909 0.0789 0.88354 0.0
Eu361 Eu 0.72005 0.03065 0.86099 0.0
C362 C 0.70779 0.0732 0.91612 0.0
C363 C 0.76568 1.01565 0.91192 0.0
C364 C 0.8174 0.14477 0.88774 0.0
C365 C 0.8401 0.19191 0.89564 0.0
C366 C 0.82805 0.16625 0.90721 0.0
C367 C 0.81848 0.14944 0.85641 0.0
C368 C 0.8307 0.17512 0.84476 0.0
C369 C 0.8419 0.19659 0.86426 0.0
C370 C 0.80444 0.1182 0.90071 0.0
O371 O 0.78583 0.06348 0.84057 0.0
O372 O 0.76562 1.01785 0.84205 0.0
O373 O 0.725 0.06215 0.82323 0.0
O374 O 0.7388 0.10124 0.85177 0.0
C375 C 0.78654 0.03595 0.83293 0.0
O376 O 0.70647 0.98537 0.8561 0.0
O377 O 0.67719 1.02019 0.84042 0.0
O378 O 0.69601 0.06293 0.89123 0.0
O379 O 0.73692 0.07376 0.91974 0.0
O380 O 0.7835 0.03647 0.90215 0.0
O381 O 0.73701 1.01633 0.90586 0.0
C382 C 0.72754 0.09024 0.82682 0.0
O383 O 0.77556 0.11896 0.90506 0.0
O384 O 0.81328 0.09347 0.88923 0.0
C385 C 0.65436 0.97857 0.86167 0.0
C386 C 0.60551 0.9513 0.89048 0.0
C387 C 0.6257 0.93514 0.87251 0.0
C388 C 0.64978 0.94869 0.85818 0.0
C389 C 0.63475 0.99472 0.88017 0.0
C390 C 0.61049 0.98124 0.89431 0.0
C391 C 0.67982 0.99242 0.84622 0.0
H392 H 0.84793 0.20815 0.91137 0.0
H393 H 0.82699 0.1632 0.93146 0.0
H394 H 0.81004 0.13318 0.84101 0.0
H395 H 0.83193 0.17787 0.8205 0.0
H396 H 0.62296 0.91196 0.86954 0.0
H397 H 0.66486 0.93579 0.84431 0.0
H398 H 0.638 1.0178 0.88351 0.0
H399 H 0.59529 0.99443 0.9077 0.0
Tb400 Tb 0.74245 1.01334 0.37517 0.0
Eu401 Eu 0.79131 0.06235 0.35381 0.0
C402 C 0.80303 1.01913 0.40936 0.0
C403 C 0.74505 0.07584 0.40492 0.0
C404 C 0.6937 0.94763 0.37808 0.0
C405 C 0.65679 0.90927 0.38014 0.0
C406 C 0.66772 0.93575 0.39062 0.0
C407 C 0.70836 0.93302 0.35438 0.0
C408 C 0.69746 0.90642 0.3439 0.0
C409 C 0.67174 0.89402 0.35696 0.0
C410 C 0.70592 0.97443 0.39105 0.0
O411 O 0.72777 0.02836 0.33125 0.0
O412 O 0.74558 0.07471 0.33438 0.0
O413 O 0.78838 0.03001 0.31645 0.0
O414 O 0.77441 0.99099 0.3452 0.0
C415 C 0.72574 0.056 0.32428 0.0
O416 O 0.80552 0.10745 0.34908 0.0
O417 O 0.83457 0.07257 0.33351 0.0
O418 O 0.81523 0.03112 0.3854 0.0
O419 O 0.77385 1.01725 0.41211 0.0
O420 O 0.72756 0.05554 0.39371 0.0
O421 O 0.77373 0.07612 0.39876 0.0
C422 C 0.78633 1.00187 0.32042 0.0
O423 O 0.73447 0.97383 0.39722 0.0
O424 O 0.69785 0.99886 0.37834 0.0
C425 C 0.85784 0.11325 0.35486 0.0
C426 C 0.90819 0.13669 0.38443 0.0
C427 C 0.90566 0.13808 0.35278 0.0
C428 C 0.88069 0.12648 0.33816 0.0
C429 C 0.86032 0.11153 0.38641 0.0
C430 C 0.88521 0.12326 0.40108 0.0
C431 C 0.83216 0.10031 0.33913 0.0
H432 H 0.63655 0.90073 0.39026 0.0
H433 H 0.65607 0.94678 0.40884 0.0
H434 H 0.7285 0.94192 0.3444 0.0
H435 H 0.7096 0.89523 0.32612 0.0
H436 H 0.92275 0.14858 0.33932 0.0
H437 H 0.87924 0.12783 0.31377 0.0
H438 H 0.84306 0.10101 0.39967 0.0
H439 H 0.88661 0.12156 0.42543 0.0
Tb440 Tb 0.23988 0.578 0.61955 0.0
Eu441 Eu 0.29039 0.52997 0.6415 0.0
C442 C 0.30102 0.57353 0.58608 0.0
C443 C 0.24477 0.51491 0.59031 0.0
C444 C 0.18984 0.64369 0.61919 0.0
C445 C 0.19543 0.68922 0.6466 0.0
C446 C 0.20797 0.66379 0.6344 0.0
C447 C 0.15896 0.64922 0.61694 0.0
C448 C 0.14638 0.67448 0.62934 0.0
C449 C 0.16448 0.69491 0.64414 0.0
C450 C 0.20273 0.61739 0.60482 0.0
O451 O 0.22413 0.56117 0.66236 0.0
O452 O 0.24511 0.51571 0.65958 0.0
O453 O 0.28412 0.56118 0.67958 0.0
O454 O 0.2706 0.60022 0.65052 0.0
C455 C 0.22357 0.53335 0.66883 0.0
O456 O 0.30642 0.4851 0.6462 0.0
O457 O 0.33339 0.52066 0.66277 0.0
O458 O 0.31335 0.56194 0.61027 0.0
O459 O 0.27182 0.57448 0.58287 0.0
O460 O 0.22666 0.53596 0.59972 0.0
O461 O 0.27338 0.51508 0.59691 0.0
C462 C 0.2814 0.58931 0.67585 0.0
O463 O 0.23124 0.61799 0.59836 0.0
O464 O 0.19495 0.59238 0.61617 0.0
C465 C 0.35905 0.47996 0.64257 0.0
C466 C 0.41076 0.45479 0.6161 0.0
C467 C 0.39383 0.43937 0.63763 0.0
C468 C 0.36831 0.45189 0.65076 0.0
C469 C 0.37545 0.49533 0.62072 0.0
C470 C 0.40114 0.48289 0.60768 0.0
C471 C 0.33233 0.49286 0.65702 0.0
H472 H 0.20992 0.70433 0.65815 0.0
H473 H 0.23187 0.66001 0.6367 0.0
H474 H 0.14456 0.63409 0.60527 0.0
H475 H 0.12252 0.67833 0.62676 0.0
H476 H 0.40012 0.41746 0.64418 0.0
H477 H 0.35578 0.4396 0.66737 0.0
H478 H 0.36855 0.51701 0.6139 0.0
H479 H 0.41368 0.49549 0.59137 0.0
H480 H 0.19052 0.33563 0.56015 0.0
H481 H 0.1659 0.38063 0.47793 0.0
H482 H 0.20953 0.38148 0.58077 0.0
H483 H 0.18415 0.42603 0.49876 0.0
H484 H 0.18925 0.50625 0.56437 0.0
H485 H 0.16955 0.46049 0.54413 0.0
H486 H 0.25299 0.4171 0.56565 0.0
H487 H 0.27287 0.46237 0.58507 0.0
C488 C 0.18928 0.35515 0.54646 0.0
C489 C 0.17698 0.35428 0.51728 0.0
C490 C 0.20006 0.38138 0.55826 0.0
C491 C 0.19809 0.40735 0.5414 0.0
C492 C 0.18569 0.40646 0.51237 0.0
C493 C 0.17553 0.38027 0.50037 0.0
C494 C 0.20344 0.48701 0.56448 0.0
C495 C 0.23273 0.48817 0.57608 0.0
C496 C 0.19217 0.46084 0.55299 0.0
C497 C 0.20971 0.4352 0.55356 0.0
C498 C 0.23887 0.43639 0.56521 0.0
C499 C 0.25031 0.46253 0.57605 0.0
H500 H 0.80918 0.98051 0.83294 0.0
H501 H 0.82577 0.06695 0.79871 0.0
H502 H 0.85805 0.96444 0.81368 0.0
H503 H 0.87444 0.05085 0.77948 0.0
H504 H 0.94507 0.99894 0.72286 0.0
H505 H 0.89632 1.01642 0.74068 0.0
H506 H 0.91241 0.97595 0.82729 0.0
H507 H 0.96131 0.95847 0.80951 0.0
C508 C 0.82297 0.99591 0.8208 0.0
C509 C 0.81362 1.02496 0.81726 0.0
C510 C 0.85109 0.98681 0.81015 0.0
C511 C 0.87015 1.0065 0.7954 0.0
C512 C 0.86021 0.03521 0.79073 0.0
C513 C 0.83233 0.04439 0.80172 0.0
C514 C 0.93842 0.99419 0.74587 0.0
C515 C 0.95706 0.97746 0.76484 0.0
C516 C 0.9105 1.00416 0.75603 0.0
C517 C 0.90046 0.99725 0.78523 0.0
C518 C 0.91945 0.98124 0.80452 0.0
C519 C 0.94759 0.97161 0.7945 0.0
H520 H 0.31305 0.72591 0.97249 0.0
H521 H 0.3306 0.75248 0.06408 0.0
H522 H 0.29385 0.67943 0.99089 0.0
H523 H 0.31202 0.7056 0.08251 0.0
H524 H 0.32329 0.60437 0.09212 0.0
H525 H 0.33604 0.65291 0.07332 0.0
H526 H 0.25156 0.6578 0.0261 0.0
H527 H 0.23853 0.60958 0.04531 0.0
C528 C 0.31182 0.72212 0.99663 0.0
C529 C 0.32289 0.74283 0.01694 0.0
C530 C 0.30108 0.69549 0.00711 0.0
C531 C 0.30193 0.68884 0.03804 0.0
C532 C 0.31146 0.71017 0.05851 0.0
C533 C 0.32158 0.73712 0.04805 0.0
C534 C 0.30774 0.61558 0.07725 0.0
C535 C 0.28004 0.60316 0.06996 0.0
C536 C 0.31481 0.64349 0.0669 0.0
C537 C 0.29455 0.65917 0.04864 0.0
C538 C 0.26747 0.6462 0.04026 0.0
C539 C 0.26013 0.61859 0.0511 0.0
H540 H 0.54186 0.11215 0.3032 0.0
H541 H 0.57035 0.09704 0.2114 0.0
H542 H 0.59112 0.09562 0.32136 0.0
H543 H 0.61924 0.07989 0.22953 0.0
H544 H 0.69316 1.02654 0.28269 0.0
H545 H 0.64327 0.03905 0.26341 0.0
H546 H 0.64466 0.11925 0.31374 0.0
H547 H 0.69493 0.107 0.33259 0.0
C548 C 0.55821 0.10418 0.28702 0.0
C549 C 0.55218 0.10545 0.25593 0.0
C550 C 0.58654 0.09523 0.29736 0.0
C551 C 0.60909 0.08683 0.2768 0.0
C552 C 0.6023 0.08623 0.24586 0.0
C553 C 0.57426 0.09579 0.23551 0.0
C554 C 0.68305 0.04711 0.28914 0.0
C555 C 0.69806 0.06596 0.30886 0.0
C556 C 0.65446 0.05418 0.27824 0.0
C557 C 0.63996 0.07991 0.28741 0.0
C558 C 0.65521 0.09908 0.30662 0.0
C559 C 0.68413 0.09231 0.31702 0.0
H560 H 0.6646 0.24602 0.42843 0.0
H561 H 0.70325 0.22759 0.51585 0.0
H562 H 0.68212 0.19855 0.41027 0.0
H563 H 0.72048 0.18031 0.49783 0.0
H564 H 0.77392 0.1121 0.44319 0.0
H565 H 0.75655 0.15896 0.46209 0.0
H566 H 0.67057 0.14579 0.41977 0.0
H567 H 0.68815 0.09867 0.40053 0.0
C568 C 0.67733 0.23211 0.44357 0.0
C569 C 0.68273 0.24066 0.47351 0.0
C570 C 0.68694 0.20474 0.43332 0.0
C571 C 0.70244 0.18555 0.45271 0.0
C572 C 0.70872 0.1946 0.48229 0.0
C573 C 0.69888 0.22174 0.4926 0.0
C574 C 0.75112 0.11895 0.43831 0.0
C575 C 0.73235 0.1016 0.4205 0.0
C576 C 0.74118 0.14584 0.44914 0.0
C577 C 0.71227 0.15624 0.44222 0.0
C578 C 0.69311 0.13853 0.42514 0.0
C579 C 0.703 0.11137 0.41452 0.0
H580 H 0.05091 0.45069 0.68944 0.0
H581 H 0.06377 0.49413 0.77473 0.0
H582 H 0.09913 0.46934 0.67163 0.0
H583 H 0.11176 0.51261 0.75703 0.0
H584 H 0.18184 0.56333 0.70156 0.0
H585 H 0.13317 0.54634 0.71899 0.0
H586 H 0.15369 0.46051 0.68504 0.0
H587 H 0.20256 0.47756 0.6674 0.0
C588 C 0.06368 0.46474 0.7041 0.0
C589 C 0.05348 0.4711 0.73341 0.0
C590 C 0.09148 0.47504 0.69409 0.0
C591 C 0.10937 0.4922 0.71305 0.0
C592 C 0.09848 0.49954 0.74185 0.0
C593 C 0.07096 0.48897 0.75197 0.0
C594 C 0.17618 0.54072 0.69816 0.0
C595 C 0.19615 0.52175 0.68323 0.0
C596 C 0.14826 0.53101 0.70813 0.0
C597 C 0.13947 0.50217 0.70314 0.0
C598 C 0.15968 0.48297 0.68882 0.0
C599 C 0.18783 0.49262 0.67912 0.0
H600 H 0.7368 0.96429 0.91924 0.0
H601 H 0.82249 1.00508 0.93426 0.0
H602 H 0.75712 0.9182 0.93698 0.0
H603 H 0.84265 0.95844 0.95284 0.0
H604 H 0.84819 0.87724 0.01805 0.0
H605 H 0.82965 0.9237 0.99909 0.0
H606 H 0.79942 0.88196 0.91765 0.0
H607 H 0.81866 0.83504 0.93633 0.0
C608 C 0.75993 0.9636 0.92667 0.0
C609 C 0.77801 0.98856 0.92549 0.0
C610 C 0.77157 0.93701 0.93654 0.0
C611 C 0.80144 0.93474 0.94601 0.0
C612 C 0.81948 0.9597 0.94559 0.0
C613 C 0.80796 0.98636 0.93509 0.0
C614 C 0.83743 0.87776 0.99614 0.0
C615 C 0.83465 0.85229 0.97877 0.0
C616 C 0.82713 0.90451 0.98522 0.0
C617 C 0.81331 0.90641 0.95691 0.0
C618 C 0.81003 0.88099 0.93962 0.0
C619 C 0.82094 0.85419 0.95031 0.0
H620 H 0.47724 0.61044 0.19186 0.0
H621 H 0.43177 0.63195 0.27525 0.0
H622 H 0.4297 0.59242 0.17129 0.0
H623 H 0.38477 0.61476 0.25449 0.0
H624 H 0.30123 0.61106 0.19021 0.0
H625 H 0.34886 0.63026 0.2093 0.0
H626 H 0.39324 0.54939 0.18697 0.0
H627 H 0.34609 0.52999 0.16873 0.0
C628 C 0.45727 0.61124 0.20578 0.0
C629 C 0.45848 0.62234 0.23529 0.0
C630 C 0.43009 0.60104 0.19403 0.0
C631 C 0.40355 0.60246 0.21128 0.0
C632 C 0.40478 0.6137 0.2406 0.0
C633 C 0.43189 0.62325 0.25255 0.0
C634 C 0.3211 0.59735 0.18964 0.0
C635 C 0.31969 0.5689 0.17827 0.0
C636 C 0.34833 0.60833 0.20044 0.0
C637 C 0.37474 0.59133 0.19935 0.0
C638 C 0.37333 0.56306 0.18778 0.0
C639 C 0.34614 0.55189 0.17765 0.0
H640 H 0.53155 0.16877 0.32563 0.0
H641 H 0.53266 0.25132 0.2788 0.0
H642 H 0.54947 0.19143 0.37072 0.0
H643 H 0.55282 0.2743 0.32449 0.0
H644 H 0.55383 0.30947 0.42288 0.0
H645 H 0.5386 0.28895 0.37438 0.0
H646 H 0.59018 0.21113 0.3943 0.0
H647 H 0.6035 0.23084 0.44309 0.0
C648 C 0.53611 0.19186 0.32478 0.0
C649 C 0.53029 0.2083 0.29858 0.0
C650 C 0.54683 0.20488 0.3508 0.0
C651 C 0.55278 0.23478 0.35149 0.0
C652 C 0.5481 0.25125 0.32492 0.0
C653 C 0.53692 0.2381 0.29863 0.0
C654 C 0.56139 0.28777 0.41695 0.0
C655 C 0.57915 0.27142 0.43708 0.0
C656 C 0.55308 0.27618 0.38897 0.0
C657 C 0.56292 0.24823 0.38032 0.0
C658 C 0.58135 0.23234 0.40037 0.0
C659 C 0.58898 0.2436 0.42849 0.0
H660 H 0.08751 0.36227 0.54899 0.0
H661 H 0.05406 0.27615 0.56736 0.0
H662 H 0.07005 0.37828 0.59878 0.0
H663 H 0.03679 0.29208 0.6169 0.0
H664 H 0.98227 0.34229 0.68931 0.0
H665 H 0.99912 0.32547 0.63992 0.0
H666 H 0.08412 0.36775 0.6533 0.0
H667 H 0.06717 0.38474 0.70294 0.0
C668 C 0.07592 0.34694 0.56338 0.0
C669 C 0.07201 0.318 0.5542 0.0
C670 C 0.06634 0.35598 0.59204 0.0
C671 C 0.05233 0.33634 0.61186 0.0
C672 C 0.04743 0.30774 0.60214 0.0
C673 C 0.05729 0.29864 0.57372 0.0
C674 C 0.00476 0.34759 0.68195 0.0
C675 C 0.02348 0.36466 0.70009 0.0
C676 C 0.01438 0.33798 0.65363 0.0
C677 C 0.04283 0.34552 0.6426 0.0
C678 C 0.06192 0.36193 0.66107 0.0
C679 C 0.05241 0.37126 0.68965 0.0
H680 H 0.94588 0.89111 0.79471 0.0
H681 H 0.03065 0.84671 0.80756 0.0
H682 H 0.92806 0.87161 0.84305 0.0
H683 H 0.01293 0.82734 0.8556 0.0
H684 H 0.95715 0.7744 0.92418 0.0
H685 H 0.97498 0.79308 0.87588 0.0
H686 H 0.94078 0.87839 0.89858 0.0
H687 H 0.92284 0.85964 0.94715 0.0
C688 C 0.96045 0.87671 0.80752 0.0
C689 C 0.98958 0.87026 0.7972 0.0
C690 C 0.95043 0.86591 0.83539 0.0
C691 C 0.96918 0.84811 0.85327 0.0
C692 C 0.99788 0.84086 0.84235 0.0
C693 C 0.00802 0.85195 0.81478 0.0
C694 C 0.95379 0.79726 0.91909 0.0
C695 C 0.93873 0.81558 0.93961 0.0
C696 C 0.96399 0.80794 0.89138 0.0
C697 C 0.95907 0.83715 0.88326 0.0
C698 C 0.94457 0.85568 0.90403 0.0
C699 C 0.93469 0.84505 0.93201 0.0
H700 H 0.54081 0.72423 0.17742 0.0
H701 H 0.45014 0.72642 0.21222 0.0
H702 H 0.5228 0.74153 0.12857 0.0
H703 H 0.43226 0.74361 0.16329 0.0
H704 H 0.41406 0.80319 0.08589 0.0
H705 H 0.43714 0.78815 0.13265 0.0
H706 H 0.49033 0.72431 0.08469 0.0
H707 H 0.46698 0.73995 0.03675 0.0
C708 C 0.51706 0.72869 0.17481 0.0
C709 C 0.49689 0.72416 0.19891 0.0
C710 C 0.50678 0.73827 0.14666 0.0
C711 C 0.47618 0.74385 0.14206 0.0
C712 C 0.45608 0.73975 0.16624 0.0
C713 C 0.4663 0.72996 0.19433 0.0
C714 C 0.43082 0.78607 0.08502 0.0
C715 C 0.43835 0.77243 0.05761 0.0
C716 C 0.44394 0.77736 0.11199 0.0
C717 C 0.46498 0.75462 0.11249 0.0
C718 C 0.47401 0.74189 0.08492 0.0
C719 C 0.46076 0.7508 0.05754 0.0
H720 H 0.10996 0.42114 0.29635 0.0
H721 H 0.19616 0.38388 0.31997 0.0
H722 H 0.13305 0.44682 0.25429 0.0
H723 H 0.21902 0.4091 0.27718 0.0
H724 H 0.2403 0.44257 0.17891 0.0
H725 H 0.21754 0.41246 0.21856 0.0
H726 H 0.17041 0.48791 0.25276 0.0
H727 H 0.19294 0.51779 0.2137 0.0
C728 C 0.13383 0.41841 0.29264 0.0
C729 C 0.15123 0.40072 0.3119 0.0
C730 C 0.147 0.43301 0.26842 0.0
C731 C 0.17786 0.4301 0.26261 0.0
C732 C 0.19514 0.41156 0.28102 0.0
C733 C 0.18199 0.39711 0.3055 0.0
C734 C 0.22506 0.45264 0.19491 0.0
C735 C 0.21845 0.48256 0.19317 0.0
C736 C 0.21216 0.43546 0.21763 0.0
C737 C 0.19206 0.44784 0.23858 0.0
C738 C 0.18551 0.47769 0.23671 0.0
C739 C 0.19863 0.49485 0.21441 0.0
H740 H 0.91998 0.99649 0.5656 0.0
H741 H 0.88529 0.91097 0.54687 0.0
H742 H 0.89448 1.01547 0.5207 0.0
H743 H 0.85948 0.93008 0.50261 0.0
H744 H 0.78611 0.98293 0.45468 0.0
H745 H 0.81611 0.96438 0.49629 0.0
H746 H 0.89294 1.01104 0.46281 0.0
H747 H 0.86266 0.02989 0.42068 0.0
C748 C 0.90723 0.98167 0.55179 0.0
C749 C 0.90437 0.95226 0.56015 0.0
C750 C 0.89264 0.99256 0.52608 0.0
C751 C 0.87477 0.97431 0.50833 0.0
C752 C 0.87267 0.94479 0.51616 0.0
C753 C 0.88735 0.93388 0.54165 0.0
C754 C 0.80939 0.98932 0.45606 0.0
C755 C 0.822 1.00789 0.43431 0.0
C756 C 0.82664 0.97849 0.47985 0.0
C757 C 0.85691 0.9861 0.48272 0.0
C758 C 0.86961 1.00489 0.46118 0.0
C759 C 0.85235 1.01553 0.43702 0.0
H760 H 0.29615 0.5734 0.73319 0.0
H761 H 0.28978 0.64867 0.67485 0.0
H762 H 0.31548 0.60349 0.77347 0.0
H763 H 0.30914 0.67909 0.71574 0.0
H764 H 0.3815 0.71149 0.78482 0.0
H765 H 0.35739 0.68524 0.74368 0.0
H766 H 0.30006 0.64217 0.80812 0.0
H767 H 0.32465 0.66774 0.84925 0.0
C768 C 0.29868 0.59646 0.72896 0.0
C769 C 0.29151 0.60857 0.70065 0.0
C770 C 0.3096 0.61377 0.75223 0.0
C771 C 0.31382 0.64372 0.7479 0.0
C772 C 0.30634 0.65603 0.71971 0.0
C773 C 0.29511 0.63865 0.69636 0.0
C774 C 0.36379 0.69636 0.79021 0.0
C775 C 0.3552 0.69156 0.8204 0.0
C776 C 0.34972 0.68159 0.76658 0.0
C777 C 0.32687 0.66152 0.7726 0.0
C778 C 0.3178 0.65726 0.80272 0.0
C779 C 0.33174 0.67211 0.82629 0.0
H780 H 0.64687 0.16785 0.07252 0.0
H781 H 0.56699 0.12249 0.04547 0.0
H782 H 0.67423 0.14628 0.0305 0.0
H783 H 0.59455 0.10025 1.0036 0.0
H784 H 0.64818 0.08895 0.91443 0.0
H785 H 0.61831 0.10983 0.9556 0.0
H786 H 0.69421 0.10062 0.01557 0.0
H787 H 0.72403 0.08093 0.97454 0.0
C788 C 0.63526 0.153 0.05773 0.0
C789 C 0.60486 0.14673 0.0624 0.0
C790 C 0.65093 0.14055 0.03365 0.0
C791 C 0.63669 0.12126 0.01377 0.0
C792 C 0.60614 0.11523 0.01825 0.0
C793 C 0.59037 0.1279 0.04227 0.0
C794 C 0.65833 0.09132 0.93648 0.0
C795 C 0.68854 0.08364 0.94113 0.0
C796 C 0.64123 0.10317 0.9601 0.0
C797 C 0.65398 0.10732 0.98884 0.0
C798 C 0.68387 0.09855 0.99358 0.0
C799 C 0.70095 0.08705 0.97003 0.0
H800 H 0.67712 0.15339 0.65044 0.0
H801 H 0.65207 0.22488 0.70849 0.0
H802 H 0.69925 0.12793 0.6933 0.0
H803 H 0.67376 0.19906 0.75182 0.0
H804 H 0.73638 0.14914 0.81892 0.0
H805 H 0.71977 0.17914 0.77601 0.0
H806 H 0.67787 0.10399 0.73643 0.0
H807 H 0.69465 0.07434 0.77827 0.0
C808 C 0.67634 0.16363 0.67244 0.0
C809 C 0.6625 0.19089 0.67624 0.0
C810 C 0.68898 0.14906 0.69702 0.0
C811 C 0.68781 0.16125 0.7261 0.0
C812 C 0.67514 0.18914 0.72971 0.0
C813 C 0.66265 0.20387 0.70495 0.0
C814 C 0.7236 0.13916 0.801 0.0
C815 C 0.7171 0.10931 0.80191 0.0
C816 C 0.71406 0.15631 0.7765 0.0
C817 C 0.69789 0.14384 0.75258 0.0
C818 C 0.69096 0.11416 0.754 0.0
C819 C 0.70049 0.09715 0.77821 0.0
H820 H 0.15313 0.51282 0.08318 0.0
H821 H 0.22971 0.50581 0.02357 0.0
H822 H 0.12062 0.49571 0.04239 0.0
H823 H 0.19749 0.48883 0.98335 0.0
H824 H 0.12961 0.48432 0.90867 0.0
H825 H 0.15665 0.50689 0.95018 0.0
H826 H 0.11374 0.44888 0.01336 0.0
H827 H 0.08614 0.42664 0.97183 0.0
C828 C 0.163 0.50778 0.06143 0.0
C829 C 0.19403 0.51055 0.0567 0.0
C830 C 0.14442 0.4979 0.03815 0.0
C831 C 0.15651 0.49103 0.00964 0.0
C832 C 0.18742 0.4943 1.00489 0.0
C833 C 0.20594 0.50384 0.02811 0.0
C834 C 0.12553 0.47671 0.93146 0.0
C835 C 0.10588 0.45356 0.93693 0.0
C836 C 0.1412 0.48948 0.9552 0.0
C837 C 0.13746 0.47952 0.985 0.0
C838 C 0.11695 0.45713 0.99067 0.0
C839 C 0.10142 0.4442 0.96686 0.0
H840 H 0.78803 0.94186 0.31888 0.0
H841 H 0.81144 1.01818 0.26707 0.0
H842 H 0.80986 0.91099 0.27928 0.0
H843 H 0.83249 0.98765 0.22785 0.0
H844 H 0.89806 0.92975 0.17974 0.0
H845 H 0.87621 0.95667 0.22156 0.0
H846 H 0.80283 0.89612 0.22556 0.0
H847 H 0.82546 0.86828 0.18422 0.0
C848 C 0.79766 0.95205 0.29909 0.0
C849 C 0.79819 0.98252 0.29634 0.0
C850 C 0.81004 0.93438 0.27636 0.0
C851 C 0.82326 0.94689 0.25058 0.0
C852 C 0.82312 0.9773 0.24768 0.0
C853 C 0.81081 0.99483 0.2702 0.0
C854 C 0.87753 0.92181 0.18978 0.0
C855 C 0.86354 0.89682 0.17852 0.0
C856 C 0.86479 0.93748 0.21357 0.0
C857 C 0.83759 0.92873 0.22671 0.0
C858 C 0.82385 0.90337 0.216 0.0
C859 C 0.83665 0.88763 0.19209 0.0
H860 H 0.36165 0.56586 0.57626 0.0
H861 H 0.28292 0.60912 0.54042 0.0
H862 H 0.39182 0.58666 0.53524 0.0
H863 H 0.31285 0.62966 0.49991 0.0
H864 H 0.38017 0.68706 0.452 0.0
H865 H 0.35383 0.66618 0.49495 0.0
H866 H 0.39567 0.58291 0.47753 0.0
H867 H 0.42163 0.60356 0.4339 0.0
C868 C 0.35081 0.5798 0.55974 0.0
C869 C 0.31988 0.58581 0.56163 0.0
C870 C 0.36803 0.59157 0.53621 0.0
C871 C 0.35471 0.60992 0.51447 0.0
C872 C 0.32385 0.61592 0.51651 0.0
C873 C 0.30666 0.60394 0.53967 0.0
C874 C 0.38362 0.66423 0.45705 0.0
C875 C 0.40279 0.64696 0.43913 0.0
C876 C 0.36862 0.65231 0.4818 0.0
C877 C 0.37254 0.62286 0.4895 0.0
C878 C 0.3924 0.60574 0.47229 0.0
C879 C 0.40728 0.61762 0.4473 0.0
H880 H 0.22571 0.254 0.46411 0.0
H881 H 0.16706 0.25567 0.38654 0.0
H882 H 0.26477 0.23117 0.43409 0.0
H883 H 0.20629 0.23188 0.35641 0.0
H884 H 0.29655 0.21353 0.30655 0.0
H885 H 0.25587 0.23783 0.33389 0.0
H886 H 0.27493 0.18477 0.41227 0.0
H887 H 0.31635 0.16173 0.38572 0.0
C888 C 0.22108 0.24944 0.4406 0.0
C889 C 0.1931 0.25648 0.42782 0.0
C890 C 0.24349 0.2361 0.4234 0.0
C891 C 0.23857 0.22918 0.39293 0.0
C892 C 0.21088 0.23696 0.37979 0.0
C893 C 0.18837 0.25052 0.39707 0.0
C894 C 0.29214 0.20715 0.32967 0.0
C895 C 0.30992 0.1857 0.3439 0.0
C896 C 0.26858 0.22088 0.34524 0.0
C897 C 0.26227 0.2135 0.37541 0.0
C898 C 0.27947 0.19144 0.38926 0.0
C899 C 0.30301 0.17784 0.3738 0.0
H900 H 0.09354 0.1408 0.64203 0.0
H901 H 0.10364 0.09451 0.55789 0.0
H902 H 0.07516 0.09685 0.66613 0.0
H903 H 0.08552 0.05009 0.58223 0.0
H904 H 0.02717 0.98203 0.63514 0.0
H905 H 0.04253 1.02541 0.60669 0.0
H906 H 0.09754 0.05172 0.68184 0.0
H907 H 0.08197 1.00938 0.71005 0.0
C908 C 0.09194 0.12116 0.6287 0.0
C909 C 0.10045 0.12108 0.59816 0.0
C910 C 0.08143 0.0959 0.64251 0.0
C911 C 0.07932 0.06973 0.62627 0.0
C912 C 0.08674 0.06986 0.59538 0.0
C913 C 0.09717 0.0953 0.58146 0.0
C914 C 0.04267 0.99705 0.64539 0.0
C915 C 0.05299 0.99242 0.67502 0.0
C916 C 0.05149 1.02187 0.62911 0.0
C917 C 0.07082 0.04239 0.64221 0.0
C918 C 0.08194 0.03693 0.67134 0.0
C919 C 0.0731 1.01245 0.6875 0.0
H920 H 0.2157 0.9382 0.86074 0.0
H921 H 0.1816 0.85147 0.84752 0.0
H922 H 0.25946 0.91809 0.88608 0.0
H923 H 0.2246 0.83143 0.87465 0.0
H924 H 0.31949 0.80322 0.90138 0.0
H925 H 0.27787 0.82308 0.8718 0.0
H926 H 0.27133 0.89595 0.93301 0.0
H927 H 0.31329 0.87674 0.96177 0.0
C928 C 0.21757 0.91481 0.86311 0.0
C929 C 0.19509 0.89647 0.85204 0.0
C930 C 0.2425 0.90329 0.87805 0.0
C931 C 0.24548 0.87314 0.88262 0.0
C932 C 0.22317 0.85473 0.87128 0.0
C933 C 0.19829 0.86626 0.8561 0.0
C934 C 0.30923 0.82356 0.90836 0.0
C935 C 0.31979 0.83847 0.93383 0.0
C936 C 0.28527 0.83485 0.89154 0.0
C937 C 0.27129 0.86116 0.89997 0.0
C938 C 0.28192 0.87596 0.92548 0.0
C939 C 0.30594 0.86483 0.9421 0.0
H940 H 0.49818 0.09367 0.15103 0.0
H941 H 0.40769 0.10714 0.18357 0.0
H942 H 0.48135 0.05199 0.12162 0.0
H943 H 0.39106 0.06549 0.15442 0.0
H944 H 0.36572 1.00089 0.08158 0.0
H945 H 0.38387 0.04674 0.10246 0.0
H946 H 0.46351 1.00265 0.13487 0.0
H947 H 0.4456 0.95711 0.11368 0.0
C948 C 0.47467 0.08797 0.15168 0.0
C949 C 0.45434 0.10365 0.16983 0.0
C950 C 0.46507 0.064 0.13494 0.0
C951 C 0.43489 0.05536 0.13578 0.0
C952 C 0.41439 0.07173 0.15303 0.0
C953 C 0.424 0.09551 0.16992 0.0
C954 C 0.38731 1.00115 0.09276 0.0
C955 C 0.40413 0.97538 0.09621 0.0
C956 C 0.3976 1.02733 0.1049 0.0
C957 C 0.42508 0.02831 0.12043 0.0
C958 C 0.44238 1.00272 0.12284 0.0
C959 C 0.43198 0.97656 0.11097 0.0
H960 H 0.84854 0.37289 0.60449 0.0
H961 H 0.79255 0.39147 0.68181 0.0
H962 H 0.80536 0.35385 0.57769 0.0
H963 H 0.74899 0.37295 0.65475 0.0
H964 H 0.6818 0.31497 0.60383 0.0
H965 H 0.72506 0.33049 0.63348 0.0
H966 H 0.7613 0.37325 0.55463 0.0
H967 H 0.71889 0.3572 0.52508 0.0
C968 C 0.82692 0.37298 0.61571 0.0
C969 C 0.82387 0.3839 0.64513 0.0
C970 C 0.80213 0.36215 0.60034 0.0
C971 C 0.77356 0.36222 0.61388 0.0
C972 C 0.77068 0.37234 0.64371 0.0
C973 C 0.7956 0.383 0.6592 0.0
C974 C 0.69902 0.32773 0.59292 0.0
C975 C 0.697 0.33466 0.56205 0.0
C976 C 0.72377 0.33669 0.60991 0.0
C977 C 0.74687 0.35286 0.59637 0.0
C978 C 0.74438 0.36022 0.56565 0.0
C979 C 0.71988 0.35115 0.54872 0.0
H980 H 0.95319 0.51428 0.78114 0.0
H981 H 0.96096 0.46518 0.86417 0.0
H982 H 0.93708 0.55676 0.80938 0.0
H983 H 0.94465 0.50826 0.89264 0.0
H984 H 0.87801 0.58366 0.92233 0.0
H985 H 0.89748 0.53963 0.89799 0.0
H986 H 0.95899 0.59169 0.84593 0.0
H987 H 0.93926 0.63563 0.8698 0.0
C988 C 0.95149 0.51249 0.80547 0.0
C989 C 0.95836 0.48622 0.82038 0.0
C990 C 0.94244 0.537 0.82168 0.0
C991 C 0.93979 0.53593 0.85324 0.0
C992 C 0.94642 0.50966 0.86829 0.0
C993 C 0.95584 0.48507 0.85202 0.0
C994 C 0.89572 0.58566 0.90571 0.0
C995 C 0.90696 0.61315 0.89784 0.0
C996 C 0.90706 0.56043 0.89202 0.0
C997 C 0.92965 0.56223 0.86996 0.0
C998 C 0.94137 0.58965 0.86265 0.0
C999 C 0.93023 0.6148 0.8765 0.0
H1000 H 0.78282 0.76061 0.03256 0.0
H1001 H 0.84375 0.75658 0.10825 0.0
H1002 H 0.74216 0.74437 0.06468 0.0
H1003 H 0.80249 0.74024 0.14076 0.0
H1004 H 0.72808 0.67395 0.17218 0.0
H1005 H 0.77037 0.69557 0.14534 0.0
H1006 H 0.71095 0.76066 0.10747 0.0
H1007 H 0.66863 0.73871 0.1337 0.0
C1008 C 0.78755 0.75641 0.05616 0.0
C1009 C 0.81666 0.75976 0.06777 0.0
C1010 C 0.76409 0.74731 0.07466 0.0
C1011 C 0.76902 0.74108 0.10531 0.0
C1012 C 0.79804 0.74472 0.11717 0.0
C1013 C 0.82161 0.7542 0.09861 0.0
C1014 C 0.72408 0.69291 0.15817 0.0
C1015 C 0.69491 0.70444 0.15488 0.0
C1016 C 0.74837 0.70549 0.14307 0.0
C1017 C 0.74401 0.72974 0.12415 0.0
C1018 C 0.71501 0.74181 0.12165 0.0
C1019 C 0.69078 0.72936 0.13687 0.0
H1020 H 0.5598 0.46998 0.40828 0.0
H1021 H 0.65173 0.49492 0.39242 0.0
H1022 H 0.54262 0.51635 0.38693 0.0
H1023 H 0.63447 0.54075 0.37062 0.0
H1024 H 0.58871 0.59107 0.29239 0.0
H1025 H 0.6062 0.54969 0.32186 0.0
H1026 H 0.54488 0.57278 0.39364 0.0
H1027 H 0.52727 0.61483 0.36391 0.0
C1028 C 0.57635 0.48548 0.40069 0.0
C1029 C 0.60714 0.47851 0.40158 0.0
C1030 C 0.56649 0.51202 0.38852 0.0
C1031 C 0.58722 0.53197 0.37689 0.0
C1032 C 0.61799 0.52556 0.37902 0.0
C1033 C 0.62784 0.49921 0.39131 0.0
C1034 C 0.57901 0.5875 0.31452 0.0
C1035 C 0.55657 0.60615 0.32582 0.0
C1036 C 0.58919 0.56389 0.33148 0.0
C1037 C 0.57697 0.5581 0.36006 0.0
C1038 C 0.55461 0.57679 0.37161 0.0
C1039 C 0.54469 0.60086 0.35472 0.0
H1040 H 0.39694 0.36153 0.11747 0.0
H1041 H 0.33986 0.36983 0.19602 0.0
H1042 H 0.41755 0.31657 0.13748 0.0
H1043 H 0.35924 0.32355 0.21521 0.0
H1044 H 0.42631 0.25398 0.25322 0.0
H1045 H 0.40277 0.29953 0.23634 0.0
H1046 H 0.40318 0.26779 0.14454 0.0
H1047 H 0.42756 0.22321 0.1612 0.0
C1048 C 0.38882 0.35387 0.1391 0.0
C1049 C 0.36671 0.36947 0.15508 0.0
C1050 C 0.4003 0.3277 0.15037 0.0
C1051 C 0.38978 0.31611 0.17781 0.0
C1052 C 0.36795 0.33184 0.19407 0.0
C1053 C 0.35658 0.35823 0.18286 0.0
C1054 C 0.421 0.25673 0.22952 0.0
C1055 C 0.42911 0.23523 0.20848 0.0
C1056 C 0.40748 0.28278 0.21982 0.0
C1057 C 0.4016 0.28762 0.18895 0.0
C1058 C 0.40822 0.26528 0.16832 0.0
C1059 C 0.42199 0.23956 0.17792 0.0
H1060 H 0.8922 0.36672 0.78764 0.0
H1061 H 0.97436 0.31884 0.8046 0.0
H1062 H 0.86331 0.32504 0.80617 0.0
H1063 H 0.94586 0.27772 0.82223 0.0
H1064 H 0.89193 0.22337 0.88562 0.0
H1065 H 0.91634 0.26649 0.86628 0.0
H1066 H 0.85045 0.27317 0.79518 0.0
H1067 H 0.825 0.23033 0.81547 0.0
C1068 C 0.90407 0.34737 0.79513 0.0
C1069 C 0.93562 0.34636 0.795 0.0
C1070 C 0.88755 0.32347 0.8056 0.0
C1071 C 0.90231 0.29821 0.81613 0.0
C1072 C 0.93376 0.29705 0.81504 0.0
C1073 C 0.95013 0.32072 0.80473 0.0
C1074 C 0.88226 0.23419 0.86615 0.0
C1075 C 0.85643 0.2233 0.85217 0.0
C1076 C 0.89651 0.25879 0.8548 0.0
C1077 C 0.88554 0.27316 0.82897 0.0
C1078 C 0.8594 0.26268 0.81518 0.0
C1079 C 0.84504 0.23794 0.82661 0.0
H1080 H 0.05009 0.62019 0.11213 0.0
H1081 H 0.1091 0.6798 0.06635 0.0
H1082 H 0.00664 0.64519 0.09014 0.0
H1083 H 0.06592 0.70443 0.04402 0.0
H1084 H 0.98527 0.76505 0.04627 0.0
H1085 H 0.02735 0.73596 0.06331 0.0
H1086 H 0.97846 0.65753 0.04389 0.0
H1087 H 0.93546 0.68704 0.0271 0.0
C1088 C 0.05378 0.63834 0.09698 0.0
C1089 C 0.083 0.6483 0.0913 0.0
C1090 C 0.0289 0.65261 0.08431 0.0
C1091 C 0.03275 0.67706 0.0656 0.0
C1092 C 0.06208 0.68611 0.0589 0.0
C1093 C 0.08686 0.672 0.07168 0.0
C1094 C 0.98331 0.74161 0.04544 0.0
C1095 C 0.95687 0.72843 0.03523 0.0
C1096 C 0.00768 0.72487 0.05506 0.0
C1097 C 0.00649 0.69437 0.05471 0.0
C1098 C 0.98006 0.681 0.04457 0.0
C1099 C 0.95548 0.69789 0.03485 0.0
H1100 H 0.66844 0.8725 0.29912 0.0
H1101 H 0.6499 0.85008 0.39206 0.0
H1102 H 0.64607 0.82673 0.28284 0.0
H1103 H 0.62724 0.80481 0.37573 0.0
H1104 H 0.54964 0.75555 0.33091 0.0
H1105 H 0.57962 0.79627 0.34746 0.0
H1106 H 0.65036 0.77064 0.2861 0.0
H1107 H 0.62002 0.72929 0.26931 0.0
C1108 C 0.66002 0.85767 0.3161 0.0
C1109 C 0.6605 0.86523 0.34688 0.0
C1110 C 0.64727 0.83144 0.30676 0.0
C1111 C 0.63464 0.81236 0.328 0.0
C1112 C 0.63634 0.81933 0.3588 0.0
C1113 C 0.64917 0.84536 0.36813 0.0
C1114 C 0.57165 0.75839 0.32098 0.0
C1115 C 0.58245 0.73921 0.29875 0.0
C1116 C 0.58892 0.78166 0.33065 0.0
C1117 C 0.61738 0.78659 0.31818 0.0
C1118 C 0.62844 0.76736 0.29603 0.0
C1119 C 0.6112 0.74365 0.28659 0.0
H1120 H 0.57335 0.39972 0.51622 0.0
H1121 H 0.53703 0.32469 0.56198 0.0
H1122 H 0.53321 0.43009 0.53808 0.0
H1123 H 0.49763 0.35479 0.58362 0.0
H1124 H 0.45319 0.42112 0.64434 0.0
H1125 H 0.49588 0.39591 0.6218 0.0
H1126 H 0.47441 0.43357 0.53508 0.0
H1127 H 0.43096 0.45835 0.5574 0.0
C1128 C 0.55691 0.38973 0.53087 0.0
C1129 C 0.55841 0.35979 0.53732 0.0
C1130 C 0.53394 0.40707 0.54327 0.0
C1131 C 0.5125 0.3948 0.56273 0.0
C1132 C 0.51407 0.36492 0.56904 0.0
C1133 C 0.5366 0.34764 0.55641 0.0
C1134 C 0.45735 0.42396 0.62043 0.0
C1135 C 0.43826 0.44143 0.60263 0.0
C1136 C 0.48195 0.40965 0.60757 0.0
C1137 C 0.4883 0.41262 0.57665 0.0
C1138 C 0.47012 0.43106 0.55902 0.0
C1139 C 0.44526 0.44524 0.57185 0.0
H1140 H 0.18617 0.75047 0.64015 0.0
H1141 H 0.11238 0.70102 0.67615 0.0
H1142 H 0.16211 0.79547 0.6574 0.0
H1143 H 0.08853 0.74577 0.69362 0.0
H1144 H 0.03656 0.83028 0.68476 0.0
H1145 H 0.06367 0.78666 0.67024 0.0
H1146 H 0.14635 0.82425 0.70162 0.0
H1147 H 0.11903 0.86864 0.71591 0.0
C1148 C 0.16503 0.74917 0.65213 0.0
C1149 C 0.15103 0.72217 0.65648 0.0
C1150 C 0.15126 0.77496 0.66205 0.0
C1151 C 0.1232 0.77431 0.6766 0.0
C1152 C 0.10979 0.74718 0.68187 0.0
C1153 C 0.12346 0.72148 0.67187 0.0
C1154 C 0.06053 0.82944 0.68863 0.0
C1155 C 0.07555 0.85305 0.70166 0.0
C1156 C 0.07608 0.8042 0.68046 0.0
C1157 C 0.10716 0.80171 0.68508 0.0
C1158 C 0.12242 0.82548 0.69765 0.0
C1159 C 0.10676 0.85088 0.70591 0.0
H1160 H 0.43433 0.86806 0.91775 0.0
H1161 H 0.47302 0.8666 0.00703 0.0
H1162 H 0.47628 0.89632 0.89928 0.0
H1163 H 0.51606 0.89409 0.98823 0.0
H1164 H 0.58016 0.96125 0.94634 0.0
H1165 H 0.53534 0.93898 0.96771 0.0
H1166 H 0.52695 0.88589 0.88784 0.0
H1167 H 0.57027 0.90927 0.86585 0.0
C1168 C 0.45186 0.8739 0.93347 0.0
C1169 C 0.45062 0.86487 0.96373 0.0
C1170 C 0.47606 0.88992 0.92283 0.0
C1171 C 0.49997 0.8969 0.94206 0.0
C1172 C 0.49802 0.88914 0.97279 0.0
C1173 C 0.47342 0.87337 0.98359 0.0
C1174 C 0.5685 0.94508 0.9332 0.0
C1175 C 0.57887 0.93713 0.9043 0.0
C1176 C 0.543 0.93207 0.94562 0.0
C1177 C 0.52733 0.91079 0.92944 0.0
C1178 C 0.53801 0.90261 0.90076 0.0
C1179 C 0.56327 0.91571 0.8883 0.0
H1180 H 0.90778 0.16985 0.43559 0.0
H1181 H 0.96761 0.1337 0.36841 0.0
H1182 H 0.94991 0.19444 0.45919 0.0
H1183 H 0.00972 0.15884 0.39174 0.0
H1184 H 0.08253 0.19279 0.45683 0.0
H1185 H 0.04144 0.16202 0.43912 0.0
H1186 H 0.98105 0.23586 0.44258 0.0
H1187 H 0.02159 0.26631 0.4601 0.0
C1188 C 0.92998 0.16685 0.42607 0.0
C1189 C 0.93428 0.14997 0.39998 0.0
C1190 C 0.95409 0.18111 0.43947 0.0
C1191 C 0.98312 0.17873 0.42723 0.0
C1192 C 0.98767 0.16096 0.40182 0.0
C1193 C 0.96349 0.14684 0.38827 0.0
C1194 C 0.06041 0.20231 0.45401 0.0
C1195 C 0.0554 0.23203 0.45969 0.0
C1196 C 0.03694 0.18475 0.44375 0.0
C1197 C 0.00799 0.19651 0.4395 0.0
C1198 C 1.00296 0.22603 0.44596 0.0
C1199 C 0.02634 0.24355 0.4558 0.0
loop_
_geom_bond_atom_site_label_1
_geom_bond_atom_site_label_2
_geom_bond_distance
_geom_bond_site_symmetry_2
_ccdc_geom_bond_type
Tb0 C10 2.825 . S
Tb0 O11 2.347 . S
Tb0 O14 2.366 . S
Tb0 O19 2.418 . S
Tb0 O20 2.384 . S
Tb0 O23 2.479 . S
Tb0 O24 2.471 . S
Eu1 O12 2.418 . S
Eu1 O13 2.384 . S
Eu1 O16 2.479 . S
Eu1 O17 2.471 . S
Eu1 O18 2.347 . S
Eu1 O21 2.366 . S
Eu1 C31 2.825 . S
C2 O18 1.259 . S
C2 O19 1.265 . S
C3 O20 1.255 . S
C3 O21 1.265 . S
C4 C6 1.380 . S
C4 C7 1.374 . S
C4 C10 1.507 . S
C5 C6 1.384 . S
C5 C9 1.387 . S
C5 H32 0.930 . S
C6 C4 1.380 . S
C6 C5 1.384 . S
C6 H33 0.931 . S
C7 C4 1.374 . S
C7 C8 1.390 . S
C7 H34 0.930 . S
C8 C7 1.390 . S
C8 C9 1.391 . S
C8 H35 0.930 . S
C9 C5 1.387 . S
C9 C8 1.391 . S
C10 Tb0 2.825 . S
C10 C4 1.507 . S
C10 O23 1.238 . S
C10 O24 1.247 . S
O11 Tb0 2.347 . S
O11 C15 1.259 . S
O12 Eu1 2.418 . S
O12 C15 1.265 . S
O13 Eu1 2.384 . S
O13 C22 1.255 . S
O14 Tb0 2.366 . S
O14 C22 1.265 . S
C15 O11 1.259 . S
C15 O12 1.265 . S
O16 Eu1 2.479 . S
O16 C31 1.238 . S
O17 Eu1 2.471 . S
O17 C31 1.247 . S
O18 Eu1 2.347 . S
O18 C2 1.259 . S
O19 Tb0 2.418 . S
O19 C2 1.265 . S
O20 Tb0 2.384 . S
O20 C3 1.255 . S
O21 Eu1 2.366 . S
O21 C3 1.265 . S
C22 O13 1.255 . S
C22 O14 1.265 . S
O23 Tb0 2.479 . S
O23 C10 1.238 . S
O24 Tb0 2.471 . S
O24 C10 1.247 . S
C25 C28 1.380 . S
C25 C29 1.374 . S
C25 C31 1.507 . S
C26 C27 1.387 . S
C26 C30 1.391 . S
C27 C26 1.387 . S
C27 C28 1.384 . S
C27 H36 0.930 . S
C28 C25 1.380 . S
C28 C27 1.384 . S
C28 H37 0.931 . S
C29 C25 1.374 . S
C29 C30 1.390 . S
C29 H38 0.930 . S
C30 C26 1.391 . S
C30 C29 1.390 . S
C30 H39 0.930 . S
C31 Eu1 2.825 . S
C31 O16 1.238 . S
C31 O17 1.247 . S
C31 C25 1.507 . S
H32 C5 0.930 . S
H33 C6 0.931 . S
H34 C7 0.930 . S
H35 C8 0.930 . S
H36 C27 0.930 . S
H37 C28 0.931 . S
H38 C29 0.930 . S
H39 C30 0.930 . S
Tb40 C50 2.825 . S
Tb40 O51 2.347 . S
Tb40 O54 2.366 1_655 S
Tb40 O59 2.418 1_655 S
Tb40 O60 2.384 . S
Tb40 O63 2.479 . S
Tb40 O64 2.471 . S
Eu41 O52 2.418 . S
Eu41 O53 2.384 . S
Eu41 O56 2.479 . S
Eu41 O57 2.471 . S
Eu41 O58 2.347 . S
Eu41 O61 2.366 . S
Eu41 C71 2.825 . S
C42 O58 1.259 . S
C42 O59 1.265 . S
C43 O60 1.255 1_455 S
C43 O61 1.265 . S
C44 C46 1.380 . S
C44 C47 1.374 . S
C44 C50 1.507 . S
C45 C46 1.384 . S
C45 C49 1.387 . S
C45 H72 0.930 . S
C46 C44 1.380 . S
C46 C45 1.384 . S
C46 H73 0.931 . S
C47 C44 1.374 . S
C47 C48 1.390 . S
C47 H74 0.930 . S
C48 C47 1.390 . S
C48 C49 1.391 . S
C48 H75 0.930 . S
C49 C45 1.387 . S
C49 C48 1.391 . S
C50 Tb40 2.825 . S
C50 C44 1.507 . S
C50 O63 1.238 . S
C50 O64 1.247 . S
O51 Tb40 2.347 . S
O51 C55 1.259 . S
O52 Eu41 2.418 . S
O52 C55 1.265 1_455 S
O53 Eu41 2.384 . S
O53 C62 1.255 . S
O54 Tb40 2.366 1_455 S
O54 C62 1.265 . S
C55 O51 1.259 . S
C55 O52 1.265 1_655 S
O56 Eu41 2.479 . S
O56 C71 1.238 . S
O57 Eu41 2.471 . S
O57 C71 1.247 . S
O58 Eu41 2.347 . S
O58 C42 1.259 . S
O59 Tb40 2.418 1_455 S
O59 C42 1.265 . S
O60 Tb40 2.384 . S
O60 C43 1.255 1_655 S
O61 Eu41 2.366 . S
O61 C43 1.265 . S
C62 O53 1.255 . S
C62 O54 1.265 . S
O63 Tb40 2.479 . S
O63 C50 1.238 . S
O64 Tb40 2.471 . S
O64 C50 1.247 . S
C65 C68 1.380 . S
C65 C69 1.374 . S
C65 C71 1.507 . S
C66 C67 1.387 . S
C66 C70 1.391 . S
C67 C66 1.387 . S
C67 C68 1.384 . S
C67 H76 0.930 . S
C68 C65 1.380 . S
C68 C67 1.384 . S
C68 H77 0.931 . S
C69 C65 1.374 . S
C69 C70 1.390 . S
C69 H78 0.930 . S
C70 C66 1.391 . S
C70 C69 1.390 . S
C70 H79 0.930 . S
C71 Eu41 2.825 . S
C71 O56 1.238 . S
C71 O57 1.247 . S
C71 C65 1.507 . S
H72 C45 0.930 . S
H73 C46 0.931 . S
H74 C47 0.930 . S
H75 C48 0.930 . S
H76 C67 0.930 . S
H77 C68 0.931 . S
H78 C69 0.930 . S
H79 C70 0.930 . S
Tb80 C90 2.825 . S
Tb80 O91 2.347 . S
Tb80 O94 2.366 1_554 S
Tb80 O99 2.418 1_554 S
Tb80 O100 2.384 . S
Tb80 O103 2.479 . S
Tb80 O104 2.471 . S
Eu81 O92 2.418 1_556 S
Eu81 O93 2.384 . S
Eu81 O96 2.479 . S
Eu81 O97 2.471 . S
Eu81 O98 2.347 . S
Eu81 O101 2.366 . S
Eu81 C111 2.825 . S
C82 O98 1.259 . S
C82 O99 1.265 . S
C83 O100 1.255 . S
C83 O101 1.265 1_554 S
C84 C86 1.380 . S
C84 C87 1.374 . S
C84 C90 1.507 . S
C85 C86 1.384 . S
C85 C89 1.387 . S
C85 H112 0.930 . S
C86 C84 1.380 . S
C86 C85 1.384 . S
C86 H113 0.931 . S
C87 C84 1.374 . S
C87 C88 1.390 . S
C87 H114 0.930 . S
C88 C87 1.390 . S
C88 C89 1.391 . S
C88 H115 0.930 . S
C89 C85 1.387 . S
C89 C88 1.391 . S
C90 Tb80 2.825 . S
C90 C84 1.507 . S
C90 O103 1.238 . S
C90 O104 1.247 . S
O91 Tb80 2.347 . S
O91 C95 1.259 . S
O92 Eu81 2.418 1_554 S
O92 C95 1.265 . S
O93 Eu81 2.384 . S
O93 C102 1.255 . S
O94 Tb80 2.366 1_556 S
O94 C102 1.265 . S
C95 O91 1.259 . S
C95 O92 1.265 . S
O96 Eu81 2.479 . S
O96 C111 1.238 . S
O97 Eu81 2.471 . S
O97 C111 1.247 . S
O98 Eu81 2.347 . S
O98 C82 1.259 . S
O99 Tb80 2.418 1_556 S
O99 C82 1.265 . S
O100 Tb80 2.384 . S
O100 C83 1.255 . S
O101 Eu81 2.366 . S
O101 C83 1.265 1_556 S
C102 O93 1.255 . S
C102 O94 1.265 . S
O103 Tb80 2.479 . S
O103 C90 1.238 . S
O104 Tb80 2.471 . S
O104 C90 1.247 . S
C105 C108 1.380 . S
C105 C109 1.374 . S
C105 C111 1.507 . S
C106 C107 1.387 . S
C106 C110 1.391 . S
C107 C106 1.387 . S
C107 C108 1.384 . S
C107 H116 0.930 . S
C108 C105 1.380 . S
C108 C107 1.384 . S
C108 H117 0.931 . S
C109 C105 1.374 . S
C109 C110 1.390 . S
C109 H118 0.930 . S
C110 C106 1.391 . S
C110 C109 1.390 . S
C110 H119 0.930 . S
C111 Eu81 2.825 . S
C111 O96 1.238 . S
C111 O97 1.247 . S
C111 C105 1.507 . S
H112 C85 0.930 . S
H113 C86 0.931 . S
H114 C87 0.930 . S
H115 C88 0.930 . S
H116 C107 0.930 . S
H117 C108 0.931 . S
H118 C109 0.930 . S
H119 C110 0.930 . S
Tb120 C130 2.825 . S
Tb120 O131 2.347 . S
Tb120 O134 2.366 . S
Tb120 O139 2.418 . S
Tb120 O140 2.384 . S
Tb120 O143 2.479 . S
Tb120 O144 2.471 . S
Eu121 O132 2.418 . S
Eu121 O133 2.384 . S
Eu121 O136 2.479 . S
Eu121 O137 2.471 . S
Eu121 O138 2.347 . S
Eu121 O141 2.366 . S
Eu121 C151 2.825 . S
C122 O138 1.259 . S
C122 O139 1.265 . S
C123 O140 1.255 . S
C123 O141 1.265 . S
C124 C126 1.380 . S
C124 C127 1.374 . S
C124 C130 1.507 . S
C125 C126 1.384 . S
C125 C129 1.387 . S
C125 H152 0.930 . S
C126 C124 1.380 . S
C126 C125 1.384 . S
C126 H153 0.931 . S
C127 C124 1.374 . S
C127 C128 1.390 . S
C127 H154 0.930 . S
C128 C127 1.390 . S
C128 C129 1.391 . S
C128 H155 0.930 . S
C129 C125 1.387 . S
C129 C128 1.391 . S
C130 Tb120 2.825 . S
C130 C124 1.507 . S
C130 O143 1.238 . S
C130 O144 1.247 . S
O131 Tb120 2.347 . S
O131 C135 1.259 . S
O132 Eu121 2.418 . S
O132 C135 1.265 . S
O133 Eu121 2.384 . S
O133 C142 1.255 . S
O134 Tb120 2.366 . S
O134 C142 1.265 . S
C135 O131 1.259 . S
C135 O132 1.265 . S
O136 Eu121 2.479 . S
O136 C151 1.238 . S
O137 Eu121 2.471 . S
O137 C151 1.247 . S
O138 Eu121 2.347 . S
O138 C122 1.259 . S
O139 Tb120 2.418 . S
O139 C122 1.265 . S
O140 Tb120 2.384 . S
O140 C123 1.255 . S
O141 Eu121 2.366 . S
O141 C123 1.265 . S
C142 O133 1.255 . S
C142 O134 1.265 . S
O143 Tb120 2.479 . S
O143 C130 1.238 . S
O144 Tb120 2.471 . S
O144 C130 1.247 . S
C145 C148 1.380 . S
C145 C149 1.374 . S
C145 C151 1.507 . S
C146 C147 1.387 . S
C146 C150 1.391 . S
C147 C146 1.387 . S
C147 C148 1.384 . S
C147 H156 0.930 . S
C148 C145 1.380 . S
C148 C147 1.384 . S
C148 H157 0.931 . S
C149 C145 1.374 . S
C149 C150 1.390 . S
C149 H158 0.930 . S
C150 C146 1.391 . S
C150 C149 1.390 . S
C150 H159 0.930 . S
C151 Eu121 2.825 . S
C151 O136 1.238 . S
C151 O137 1.247 . S
C151 C145 1.507 . S
H152 C125 0.930 . S
H153 C126 0.931 . S
H154 C127 0.930 . S
H155 C128 0.930 . S
H156 C147 0.930 . S
H157 C148 0.931 . S
H158 C149 0.930 . S
H159 C150 0.930 . S
Tb160 C170 2.825 . S
Tb160 O171 2.347 . S
Tb160 O174 2.366 . S
Tb160 O179 2.418 . S
Tb160 O180 2.384 . S
Tb160 O183 2.479 . S
Tb160 O184 2.471 . S
Eu161 O172 2.418 . S
Eu161 O173 2.384 . S
Eu161 O176 2.479 . S
Eu161 O177 2.471 . S
Eu161 O178 2.347 . S
Eu161 O181 2.366 . S
Eu161 C191 2.825 . S
C162 O178 1.259 . S
C162 O179 1.265 . S
C163 O180 1.255 . S
C163 O181 1.265 . S
C164 C166 1.380 . S
C164 C167 1.374 . S
C164 C170 1.507 . S
C165 C166 1.384 . S
C165 C169 1.387 . S
C165 H192 0.930 . S
C166 C164 1.380 . S
C166 C165 1.384 . S
C166 H193 0.931 . S
C167 C164 1.374 . S
C167 C168 1.390 . S
C167 H194 0.930 . S
C168 C167 1.390 . S
C168 C169 1.391 . S
C168 H195 0.930 . S
C169 C165 1.387 . S
C169 C168 1.391 . S
C170 Tb160 2.825 . S
C170 C164 1.507 . S
C170 O183 1.238 . S
C170 O184 1.247 . S
O171 Tb160 2.347 . S
O171 C175 1.259 . S
O172 Eu161 2.418 . S
O172 C175 1.265 . S
O173 Eu161 2.384 . S
O173 C182 1.255 . S
O174 Tb160 2.366 . S
O174 C182 1.265 . S
C175 O171 1.259 . S
C175 O172 1.265 . S
O176 Eu161 2.479 . S
O176 C191 1.238 . S
O177 Eu161 2.471 . S
O177 C191 1.247 . S
O178 Eu161 2.347 . S
O178 C162 1.259 . S
O179 Tb160 2.418 . S
O179 C162 1.265 . S
O180 Tb160 2.384 . S
O180 C163 1.255 . S
O181 Eu161 2.366 . S
O181 C163 1.265 . S
C182 O173 1.255 . S
C182 O174 1.265 . S
O183 Tb160 2.479 . S
O183 C170 1.238 . S
O184 Tb160 2.471 . S
O184 C170 1.247 . S
C185 C188 1.380 . S
C185 C189 1.374 . S
C185 C191 1.507 . S
C186 C187 1.387 . S
C186 C190 1.391 . S
C187 C186 1.387 . S
C187 C188 1.384 . S
C187 H196 0.930 . S
C188 C185 1.380 . S
C188 C187 1.384 . S
C188 H197 0.931 . S
C189 C185 1.374 . S
C189 C190 1.390 . S
C189 H198 0.930 . S
C190 C186 1.391 . S
C190 C189 1.390 . S
C190 H199 0.930 . S
C191 Eu161 2.825 . S
C191 O176 1.238 . S
C191 O177 1.247 . S
C191 C185 1.507 . S
H192 C165 0.930 . S
H193 C166 0.931 . S
H194 C167 0.930 . S
H195 C168 0.930 . S
H196 C187 0.930 . S
H197 C188 0.931 . S
H198 C189 0.930 . S
H199 C190 0.930 . S
Tb200 C210 2.825 . S
Tb200 O211 2.347 . S
Tb200 O214 2.366 . S
Tb200 O219 2.418 . S
Tb200 O220 2.384 . S
Tb200 O223 2.479 . S
Tb200 O224 2.471 . S
Eu201 O212 2.418 . S
Eu201 O213 2.384 1_455 S
Eu201 O216 2.479 . S
Eu201 O217 2.471 . S
Eu201 O218 2.347 1_455 S
Eu201 O221 2.366 . S
Eu201 C231 2.825 . S
C202 O218 1.259 . S
C202 O219 1.265 . S
C203 O220 1.255 1_455 S
C203 O221 1.265 . S
C204 C206 1.380 . S
C204 C207 1.374 . S
C204 C210 1.507 . S
C205 C206 1.384 . S
C205 C209 1.387 . S
C205 H232 0.930 . S
C206 C204 1.380 . S
C206 C205 1.384 . S
C206 H233 0.931 . S
C207 C204 1.374 . S
C207 C208 1.390 . S
C207 H234 0.930 . S
C208 C207 1.390 . S
C208 C209 1.391 . S
C208 H235 0.930 . S
C209 C205 1.387 . S
C209 C208 1.391 . S
C210 Tb200 2.825 . S
C210 C204 1.507 . S
C210 O223 1.238 . S
C210 O224 1.247 . S
O211 Tb200 2.347 . S
O211 C215 1.259 1_655 S
O212 Eu201 2.418 . S
O212 C215 1.265 . S
O213 Eu201 2.384 1_655 S
O213 C222 1.255 . S
O214 Tb200 2.366 . S
O214 C222 1.265 . S
C215 O211 1.259 1_455 S
C215 O212 1.265 . S
O216 Eu201 2.479 . S
O216 C231 1.238 . S
O217 Eu201 2.471 . S
O217 C231 1.247 . S
O218 Eu201 2.347 1_655 S
O218 C202 1.259 . S
O219 Tb200 2.418 . S
O219 C202 1.265 . S
O220 Tb200 2.384 . S
O220 C203 1.255 1_655 S
O221 Eu201 2.366 . S
O221 C203 1.265 . S
C222 O213 1.255 . S
C222 O214 1.265 . S
O223 Tb200 2.479 . S
O223 C210 1.238 . S
O224 Tb200 2.471 . S
O224 C210 1.247 . S
C225 C228 1.380 . S
C225 C229 1.374 . S
C225 C231 1.507 . S
C226 C227 1.387 . S
C226 C230 1.391 . S
C227 C226 1.387 . S
C227 C228 1.384 . S
C227 H236 0.930 . S
C228 C225 1.380 . S
C228 C227 1.384 . S
C228 H237 0.931 . S
C229 C225 1.374 . S
C229 C230 1.390 . S
C229 H238 0.930 . S
C230 C226 1.391 . S
C230 C229 1.390 . S
C230 H239 0.930 . S
C231 Eu201 2.825 . S
C231 O216 1.238 . S
C231 O217 1.247 . S
C231 C225 1.507 . S
H232 C205 0.930 . S
H233 C206 0.931 . S
H234 C207 0.930 . S
H235 C208 0.930 . S
H236 C227 0.930 . S
H237 C228 0.931 . S
H238 C229 0.930 . S
H239 C230 0.930 . S
Tb240 C250 2.825 . S
Tb240 O251 2.347 1_554 S
Tb240 O254 2.366 . S
Tb240 O259 2.418 . S
Tb240 O260 2.384 1_554 S
Tb240 O263 2.479 . S
Tb240 O264 2.471 . S
Eu241 O252 2.418 . S
Eu241 O253 2.384 1_556 S
Eu241 O256 2.479 . S
Eu241 O257 2.471 . S
Eu241 O258 2.347 1_556 S
Eu241 O261 2.366 . S
Eu241 C271 2.825 . S
C242 O258 1.259 . S
C242 O259 1.265 . S
C243 O260 1.255 . S
C243 O261 1.265 . S
C244 C246 1.380 . S
C244 C247 1.374 . S
C244 C250 1.507 . S
C245 C246 1.384 . S
C245 C249 1.387 . S
C245 H272 0.930 . S
C246 C244 1.380 . S
C246 C245 1.384 . S
C246 H273 0.931 . S
C247 C244 1.374 . S
C247 C248 1.390 . S
C247 H274 0.930 . S
C248 C247 1.390 . S
C248 C249 1.391 . S
C248 H275 0.930 . S
C249 C245 1.387 . S
C249 C248 1.391 . S
C250 Tb240 2.825 . S
C250 C244 1.507 . S
C250 O263 1.238 . S
C250 O264 1.247 . S
O251 Tb240 2.347 1_556 S
O251 C255 1.259 . S
O252 Eu241 2.418 . S
O252 C255 1.265 . S
O253 Eu241 2.384 1_554 S
O253 C262 1.255 . S
O254 Tb240 2.366 . S
O254 C262 1.265 . S
C255 O251 1.259 . S
C255 O252 1.265 . S
O256 Eu241 2.479 . S
O256 C271 1.238 . S
O257 Eu241 2.471 . S
O257 C271 1.247 . S
O258 Eu241 2.347 1_554 S
O258 C242 1.259 . S
O259 Tb240 2.418 . S
O259 C242 1.265 . S
O260 Tb240 2.384 1_556 S
O260 C243 1.255 . S
O261 Eu241 2.366 . S
O261 C243 1.265 . S
C262 O253 1.255 . S
C262 O254 1.265 . S
O263 Tb240 2.479 . S
O263 C250 1.238 . S
O264 Tb240 2.471 . S
O264 C250 1.247 . S
C265 C268 1.380 . S
C265 C269 1.374 . S
C265 C271 1.507 . S
C266 C267 1.387 . S
C266 C270 1.391 . S
C267 C266 1.387 . S
C267 C268 1.384 . S
C267 H276 0.930 . S
C268 C265 1.380 . S
C268 C267 1.384 . S
C268 H277 0.931 . S
C269 C265 1.374 . S
C269 C270 1.390 . S
C269 H278 0.930 . S
C270 C266 1.391 . S
C270 C269 1.390 . S
C270 H279 0.930 . S
C271 Eu241 2.825 . S
C271 O256 1.238 . S
C271 O257 1.247 . S
C271 C265 1.507 . S
H272 C245 0.930 . S
H273 C246 0.931 . S
H274 C247 0.930 . S
H275 C248 0.930 . S
H276 C267 0.930 . S
H277 C268 0.931 . S
H278 C269 0.930 . S
H279 C270 0.930 . S
Tb280 C290 2.825 . S
Tb280 O291 2.347 . S
Tb280 O294 2.366 . S
Tb280 O299 2.418 . S
Tb280 O300 2.384 . S
Tb280 O303 2.479 . S
Tb280 O304 2.471 . S
Eu281 O292 2.418 . S
Eu281 O293 2.384 . S
Eu281 O296 2.479 . S
Eu281 O297 2.471 . S
Eu281 O298 2.347 . S
Eu281 O301 2.366 . S
Eu281 C311 2.825 . S
C282 O298 1.259 . S
C282 O299 1.265 . S
C283 O300 1.255 . S
C283 O301 1.265 . S
C284 C286 1.380 . S
C284 C287 1.374 . S
C284 C290 1.507 . S
C285 C286 1.384 . S
C285 C289 1.387 . S
C285 H312 0.930 . S
C286 C284 1.380 . S
C286 C285 1.384 . S
C286 H313 0.931 . S
C287 C284 1.374 . S
C287 C288 1.390 . S
C287 H314 0.930 . S
C288 C287 1.390 . S
C288 C289 1.391 . S
C288 H315 0.930 . S
C289 C285 1.387 . S
C289 C288 1.391 . S
C290 Tb280 2.825 . S
C290 C284 1.507 . S
C290 O303 1.238 . S
C290 O304 1.247 . S
O291 Tb280 2.347 . S
O291 C295 1.259 . S
O292 Eu281 2.418 . S
O292 C295 1.265 . S
O293 Eu281 2.384 . S
O293 C302 1.255 . S
O294 Tb280 2.366 . S
O294 C302 1.265 . S
C295 O291 1.259 . S
C295 O292 1.265 . S
O296 Eu281 2.479 . S
O296 C311 1.238 . S
O297 Eu281 2.471 . S
O297 C311 1.247 . S
O298 Eu281 2.347 . S
O298 C282 1.259 . S
O299 Tb280 2.418 . S
O299 C282 1.265 . S
O300 Tb280 2.384 . S
O300 C283 1.255 . S
O301 Eu281 2.366 . S
O301 C283 1.265 . S
C302 O293 1.255 . S
C302 O294 1.265 . S
O303 Tb280 2.479 . S
O303 C290 1.238 . S
O304 Tb280 2.471 . S
O304 C290 1.247 . S
C305 C308 1.380 . S
C305 C309 1.374 . S
C305 C311 1.507 . S
C306 C307 1.387 . S
C306 C310 1.391 . S
C307 C306 1.387 . S
C307 C308 1.384 . S
C307 H316 0.930 . S
C308 C305 1.380 . S
C308 C307 1.384 . S
C308 H317 0.931 . S
C309 C305 1.374 . S
C309 C310 1.390 . S
C309 H318 0.930 . S
C310 C306 1.391 . S
C310 C309 1.390 . S
C310 H319 0.930 . S
C311 Eu281 2.825 . S
C311 O296 1.238 . S
C311 O297 1.247 . S
C311 C305 1.507 . S
H312 C285 0.930 . S
H313 C286 0.931 . S
H314 C287 0.930 . S
H315 C288 0.930 . S
H316 C307 0.930 . S
H317 C308 0.931 . S
H318 C309 0.930 . S
H319 C310 0.930 . S
Tb320 C330 2.825 . S
Tb320 O331 2.347 . S
Tb320 O334 2.366 . S
Tb320 O339 2.418 . S
Tb320 O340 2.384 . S
Tb320 O343 2.479 . S
Tb320 O344 2.471 . S
Eu321 O332 2.418 . S
Eu321 O333 2.384 . S
Eu321 O336 2.479 . S
Eu321 O337 2.471 . S
Eu321 O338 2.347 . S
Eu321 O341 2.366 . S
Eu321 C351 2.825 . S
C322 O338 1.259 . S
C322 O339 1.265 . S
C323 O340 1.255 . S
C323 O341 1.265 . S
C324 C326 1.380 . S
C324 C327 1.374 . S
C324 C330 1.507 . S
C325 C326 1.384 . S
C325 C329 1.387 . S
C325 H352 0.930 . S
C326 C324 1.380 . S
C326 C325 1.384 . S
C326 H353 0.931 . S
C327 C324 1.374 . S
C327 C328 1.390 . S
C327 H354 0.930 . S
C328 C327 1.390 . S
C328 C329 1.391 . S
C328 H355 0.930 . S
C329 C325 1.387 . S
C329 C328 1.391 . S
C330 Tb320 2.825 . S
C330 C324 1.507 . S
C330 O343 1.238 . S
C330 O344 1.247 . S
O331 Tb320 2.347 . S
O331 C335 1.259 . S
O332 Eu321 2.418 . S
O332 C335 1.265 . S
O333 Eu321 2.384 . S
O333 C342 1.255 . S
O334 Tb320 2.366 . S
O334 C342 1.265 . S
C335 O331 1.259 . S
C335 O332 1.265 . S
O336 Eu321 2.479 . S
O336 C351 1.238 . S
O337 Eu321 2.471 . S
O337 C351 1.247 . S
O338 Eu321 2.347 . S
O338 C322 1.259 . S
O339 Tb320 2.418 . S
O339 C322 1.265 . S
O340 Tb320 2.384 . S
O340 C323 1.255 . S
O341 Eu321 2.366 . S
O341 C323 1.265 . S
C342 O333 1.255 . S
C342 O334 1.265 . S
O343 Tb320 2.479 . S
O343 C330 1.238 . S
O344 Tb320 2.471 . S
O344 C330 1.247 . S
C345 C348 1.380 . S
C345 C349 1.374 . S
C345 C351 1.507 . S
C346 C347 1.387 . S
C346 C350 1.391 . S
C347 C346 1.387 . S
C347 C348 1.384 . S
C347 H356 0.930 . S
C348 C345 1.380 . S
C348 C347 1.384 . S
C348 H357 0.931 . S
C349 C345 1.374 . S
C349 C350 1.390 . S
C349 H358 0.930 . S
C350 C346 1.391 . S
C350 C349 1.390 . S
C350 H359 0.930 . S
C351 Eu321 2.825 . S
C351 O336 1.238 . S
C351 O337 1.247 . S
C351 C345 1.507 . S
H352 C325 0.930 . S
H353 C326 0.931 . S
H354 C327 0.930 . S
H355 C328 0.930 . S
H356 C347 0.930 . S
H357 C348 0.931 . S
H358 C349 0.930 . S
H359 C350 0.930 . S
Tb360 C370 2.825 . S
Tb360 O371 2.347 . S
Tb360 O374 2.366 . S
Tb360 O379 2.418 . S
Tb360 O380 2.384 1_545 S
Tb360 O383 2.479 . S
Tb360 O384 2.471 . S
Eu361 O372 2.418 . S
Eu361 O373 2.384 1_565 S
Eu361 O376 2.479 . S
Eu361 O377 2.471 . S
Eu361 O378 2.347 1_565 S
Eu361 O381 2.366 . S
Eu361 C391 2.825 . S
C362 O378 1.259 . S
C362 O379 1.265 . S
C363 O380 1.255 . S
C363 O381 1.265 . S
C364 C366 1.380 . S
C364 C367 1.374 . S
C364 C370 1.507 . S
C365 C366 1.384 . S
C365 C369 1.387 . S
C365 H392 0.930 . S
C366 C364 1.380 . S
C366 C365 1.384 . S
C366 H393 0.931 . S
C367 C364 1.374 . S
C367 C368 1.390 . S
C367 H394 0.930 . S
C368 C367 1.390 . S
C368 C369 1.391 . S
C368 H395 0.930 . S
C369 C365 1.387 . S
C369 C368 1.391 . S
C370 Tb360 2.825 . S
C370 C364 1.507 . S
C370 O383 1.238 . S
C370 O384 1.247 . S
O371 Tb360 2.347 . S
O371 C375 1.259 1_545 S
O372 Eu361 2.418 . S
O372 C375 1.265 . S
O373 Eu361 2.384 1_545 S
O373 C382 1.255 . S
O374 Tb360 2.366 . S
O374 C382 1.265 . S
C375 O371 1.259 1_565 S
C375 O372 1.265 . S
O376 Eu361 2.479 . S
O376 C391 1.238 . S
O377 Eu361 2.471 . S
O377 C391 1.247 . S
O378 Eu361 2.347 1_545 S
O378 C362 1.259 . S
O379 Tb360 2.418 . S
O379 C362 1.265 . S
O380 Tb360 2.384 1_565 S
O380 C363 1.255 . S
O381 Eu361 2.366 . S
O381 C363 1.265 . S
C382 O373 1.255 . S
C382 O374 1.265 . S
O383 Tb360 2.479 . S
O383 C370 1.238 . S
O384 Tb360 2.471 . S
O384 C370 1.247 . S
C385 C388 1.380 . S
C385 C389 1.374 . S
C385 C391 1.507 . S
C386 C387 1.387 . S
C386 C390 1.391 . S
C387 C386 1.387 . S
C387 C388 1.384 . S
C387 H396 0.930 . S
C388 C385 1.380 . S
C388 C387 1.384 . S
C388 H397 0.931 . S
C389 C385 1.374 . S
C389 C390 1.390 . S
C389 H398 0.930 . S
C390 C386 1.391 . S
C390 C389 1.390 . S
C390 H399 0.930 . S
C391 Eu361 2.825 . S
C391 O376 1.238 . S
C391 O377 1.247 . S
C391 C385 1.507 . S
H392 C365 0.930 . S
H393 C366 0.931 . S
H394 C367 0.930 . S
H395 C368 0.930 . S
H396 C387 0.930 . S
H397 C388 0.931 . S
H398 C389 0.930 . S
H399 C390 0.930 . S
Tb400 C410 2.825 . S
Tb400 O411 2.347 1_565 S
Tb400 O414 2.366 . S
Tb400 O419 2.418 . S
Tb400 O420 2.384 1_565 S
Tb400 O423 2.479 . S
Tb400 O424 2.471 . S
Eu401 O412 2.418 . S
Eu401 O413 2.384 1_545 S
Eu401 O416 2.479 . S
Eu401 O417 2.471 . S
Eu401 O418 2.347 1_545 S
Eu401 O421 2.366 . S
Eu401 C431 2.825 . S
C402 O418 1.259 . S
C402 O419 1.265 . S
C403 O420 1.255 . S
C403 O421 1.265 . S
C404 C406 1.380 . S
C404 C407 1.374 . S
C404 C410 1.507 . S
C405 C406 1.384 . S
C405 C409 1.387 . S
C405 H432 0.930 . S
C406 C404 1.380 . S
C406 C405 1.384 . S
C406 H433 0.931 . S
C407 C404 1.374 . S
C407 C408 1.390 . S
C407 H434 0.930 . S
C408 C407 1.390 . S
C408 C409 1.391 . S
C408 H435 0.930 . S
C409 C405 1.387 . S
C409 C408 1.391 . S
C410 Tb400 2.825 . S
C410 C404 1.507 . S
C410 O423 1.238 . S
C410 O424 1.247 . S
O411 Tb400 2.347 1_545 S
O411 C415 1.259 . S
O412 Eu401 2.418 . S
O412 C415 1.265 . S
O413 Eu401 2.384 1_565 S
O413 C422 1.255 . S
O414 Tb400 2.366 . S
O414 C422 1.265 . S
C415 O411 1.259 . S
C415 O412 1.265 . S
O416 Eu401 2.479 . S
O416 C431 1.238 . S
O417 Eu401 2.471 . S
O417 C431 1.247 . S
O418 Eu401 2.347 1_565 S
O418 C402 1.259 . S
O419 Tb400 2.418 . S
O419 C402 1.265 . S
O420 Tb400 2.384 1_545 S
O420 C403 1.255 . S
O421 Eu401 2.366 . S
O421 C403 1.265 . S
C422 O413 1.255 . S
C422 O414 1.265 . S
O423 Tb400 2.479 . S
O423 C410 1.238 . S
O424 Tb400 2.471 . S
O424 C410 1.247 . S
C425 C428 1.380 . S
C425 C429 1.374 . S
C425 C431 1.507 . S
C426 C427 1.387 . S
C426 C430 1.391 . S
C427 C426 1.387 . S
C427 C428 1.384 . S
C427 H436 0.930 . S
C428 C425 1.380 . S
C428 C427 1.384 . S
C428 H437 0.931 . S
C429 C425 1.374 . S
C429 C430 1.390 . S
C429 H438 0.930 . S
C430 C426 1.391 . S
C430 C429 1.390 . S
C430 H439 0.930 . S
C431 Eu401 2.825 . S
C431 O416 1.238 . S
C431 O417 1.247 . S
C431 C425 1.507 . S
H432 C405 0.930 . S
H433 C406 0.931 . S
H434 C407 0.930 . S
H435 C408 0.930 . S
H436 C427 0.930 . S
H437 C428 0.931 . S
H438 C429 0.930 . S
H439 C430 0.930 . S
Tb440 C450 2.825 . S
Tb440 O451 2.347 . S
Tb440 O454 2.366 . S
Tb440 O459 2.418 . S
Tb440 O460 2.384 . S
Tb440 O463 2.479 . S
Tb440 O464 2.471 . S
Eu441 O452 2.418 . S
Eu441 O453 2.384 . S
Eu441 O456 2.479 . S
Eu441 O457 2.471 . S
Eu441 O458 2.347 . S
Eu441 O461 2.366 . S
Eu441 C471 2.825 . S
C442 O458 1.259 . S
C442 O459 1.265 . S
C443 O460 1.255 . S
C443 O461 1.265 . S
C444 C446 1.380 . S
C444 C447 1.374 . S
C444 C450 1.507 . S
C445 C446 1.384 . S
C445 C449 1.387 . S
C445 H472 0.930 . S
C446 C444 1.380 . S
C446 C445 1.384 . S
C446 H473 0.931 . S
C447 C444 1.374 . S
C447 C448 1.390 . S
C447 H474 0.930 . S
C448 C447 1.390 . S
C448 C449 1.391 . S
C448 H475 0.930 . S
C449 C445 1.387 . S
C449 C448 1.391 . S
C450 Tb440 2.825 . S
C450 C444 1.507 . S
C450 O463 1.238 . S
C450 O464 1.247 . S
O451 Tb440 2.347 . S
O451 C455 1.259 . S
O452 Eu441 2.418 . S
O452 C455 1.265 . S
O453 Eu441 2.384 . S
O453 C462 1.255 . S
O454 Tb440 2.366 . S
O454 C462 1.265 . S
C455 O451 1.259 . S
C455 O452 1.265 . S
O456 Eu441 2.479 . S
O456 C471 1.238 . S
O457 Eu441 2.471 . S
O457 C471 1.247 . S
O458 Eu441 2.347 . S
O458 C442 1.259 . S
O459 Tb440 2.418 . S
O459 C442 1.265 . S
O460 Tb440 2.384 . S
O460 C443 1.255 . S
O461 Eu441 2.366 . S
O461 C443 1.265 . S
C462 O453 1.255 . S
C462 O454 1.265 . S
O463 Tb440 2.479 . S
O463 C450 1.238 . S
O464 Tb440 2.471 . S
O464 C450 1.247 . S
C465 C468 1.380 . S
C465 C469 1.374 . S
C465 C471 1.507 . S
C466 C467 1.387 . S
C466 C470 1.391 . S
C467 C466 1.387 . S
C467 C468 1.384 . S
C467 H476 0.930 . S
C468 C465 1.380 . S
C468 C467 1.384 . S
C468 H477 0.931 . S
C469 C465 1.374 . S
C469 C470 1.390 . S
C469 H478 0.930 . S
C470 C466 1.391 . S
C470 C469 1.390 . S
C470 H479 0.930 . S
C471 Eu441 2.825 . S
C471 O456 1.238 . S
C471 O457 1.247 . S
C471 C465 1.507 . S
H472 C445 0.930 . S
H473 C446 0.931 . S
H474 C447 0.930 . S
H475 C448 0.930 . S
H476 C467 0.930 . S
H477 C468 0.931 . S
H478 C469 0.930 . S
H479 C470 0.930 . S
H480 C488 0.950 . S
H481 C493 0.950 . S
H482 C490 0.950 . S
H483 C492 0.950 . S
H484 C494 0.950 . S
H485 C496 0.950 . S
H486 C498 0.950 . S
H487 C499 0.950 . S
C488 H480 0.950 . S
C488 C489 1.386 . S
C488 C490 1.391 . S
C489 C488 1.386 . S
C489 C493 1.393 . S
C490 H482 0.950 . S
C490 C488 1.391 . S
C490 C491 1.400 . S
C491 C490 1.400 . S
C491 C492 1.398 . S
C491 C497 1.491 . S
C492 H483 0.950 . S
C492 C491 1.398 . S
C492 C493 1.391 . S
C493 H481 0.950 . S
C493 C489 1.393 . S
C493 C492 1.391 . S
C494 H484 0.950 . S
C494 C495 1.386 . S
C494 C496 1.391 . S
C495 C494 1.386 . S
C495 C499 1.393 . S
C496 H485 0.950 . S
C496 C494 1.391 . S
C496 C497 1.400 . S
C497 C491 1.491 . S
C497 C496 1.400 . S
C497 C498 1.398 . S
C498 H486 0.950 . S
C498 C497 1.398 . S
C498 C499 1.391 . S
C499 H487 0.950 . S
C499 C495 1.393 . S
C499 C498 1.391 . S
H500 C508 0.950 . S
H501 C513 0.950 . S
H502 C510 0.950 . S
H503 C512 0.950 . S
H504 C514 0.950 . S
H505 C516 0.950 . S
H506 C518 0.950 . S
H507 C519 0.950 . S
C508 H500 0.950 . S
C508 C509 1.386 . S
C508 C510 1.391 . S
C509 C508 1.386 . S
C509 C513 1.393 . S
C510 H502 0.950 . S
C510 C508 1.391 . S
C510 C511 1.400 . S
C511 C510 1.400 . S
C511 C512 1.398 . S
C511 C517 1.491 . S
C512 H503 0.950 . S
C512 C511 1.398 . S
C512 C513 1.391 . S
C513 H501 0.950 . S
C513 C509 1.393 . S
C513 C512 1.391 . S
C514 H504 0.950 . S
C514 C515 1.386 . S
C514 C516 1.391 . S
C515 C514 1.386 . S
C515 C519 1.393 . S
C516 H505 0.950 . S
C516 C514 1.391 . S
C516 C517 1.400 . S
C517 C511 1.491 . S
C517 C516 1.400 . S
C517 C518 1.398 . S
C518 H506 0.950 . S
C518 C517 1.398 . S
C518 C519 1.391 . S
C519 H507 0.950 . S
C519 C515 1.393 . S
C519 C518 1.391 . S
H520 C528 0.950 1_556 S
H521 C533 0.950 . S
H522 C530 0.950 . S
H523 C532 0.950 . S
H524 C534 0.950 . S
H525 C536 0.950 . S
H526 C538 0.950 . S
H527 C539 0.950 . S
C528 H520 0.950 1_554 S
C528 C529 1.386 . S
C528 C530 1.391 . S
C529 C528 1.386 . S
C529 C533 1.393 . S
C530 H522 0.950 . S
C530 C528 1.391 . S
C530 C531 1.400 . S
C531 C530 1.400 . S
C531 C532 1.398 . S
C531 C537 1.491 . S
C532 H523 0.950 . S
C532 C531 1.398 . S
C532 C533 1.391 . S
C533 H521 0.950 . S
C533 C529 1.393 . S
C533 C532 1.391 . S
C534 H524 0.950 . S
C534 C535 1.386 . S
C534 C536 1.391 . S
C535 C534 1.386 . S
C535 C539 1.393 . S
C536 H525 0.950 . S
C536 C534 1.391 . S
C536 C537 1.400 . S
C537 C531 1.491 . S
C537 C536 1.400 . S
C537 C538 1.398 . S
C538 H526 0.950 . S
C538 C537 1.398 . S
C538 C539 1.391 . S
C539 H527 0.950 . S
C539 C535 1.393 . S
C539 C538 1.391 . S
H540 C548 0.950 . S
H541 C553 0.950 . S
H542 C550 0.950 . S
H543 C552 0.950 . S
H544 C554 0.950 . S
H545 C556 0.950 . S
H546 C558 0.950 . S
H547 C559 0.950 . S
C548 H540 0.950 . S
C548 C549 1.386 . S
C548 C550 1.391 . S
C549 C548 1.386 . S
C549 C553 1.393 . S
C550 H542 0.950 . S
C550 C548 1.391 . S
C550 C551 1.400 . S
C551 C550 1.400 . S
C551 C552 1.398 . S
C551 C557 1.491 . S
C552 H543 0.950 . S
C552 C551 1.398 . S
C552 C553 1.391 . S
C553 H541 0.950 . S
C553 C549 1.393 . S
C553 C552 1.391 . S
C554 H544 0.950 . S
C554 C555 1.386 . S
C554 C556 1.391 . S
C555 C554 1.386 . S
C555 C559 1.393 . S
C556 H545 0.950 . S
C556 C554 1.391 . S
C556 C557 1.400 . S
C557 C551 1.491 . S
C557 C556 1.400 . S
C557 C558 1.398 . S
C558 H546 0.950 . S
C558 C557 1.398 . S
C558 C559 1.391 . S
C559 H547 0.950 . S
C559 C555 1.393 . S
C559 C558 1.391 . S
H560 C568 0.950 . S
H561 C573 0.950 . S
H562 C570 0.950 . S
H563 C572 0.950 . S
H564 C574 0.950 . S
H565 C576 0.950 . S
H566 C578 0.950 . S
H567 C579 0.950 . S
C568 H560 0.950 . S
C568 C569 1.386 . S
C568 C570 1.391 . S
C569 C568 1.386 . S
C569 C573 1.393 . S
C570 H562 0.950 . S
C570 C568 1.391 . S
C570 C571 1.400 . S
C571 C570 1.400 . S
C571 C572 1.398 . S
C571 C577 1.491 . S
C572 H563 0.950 . S
C572 C571 1.398 . S
C572 C573 1.391 . S
C573 H561 0.950 . S
C573 C569 1.393 . S
C573 C572 1.391 . S
C574 H564 0.950 . S
C574 C575 1.386 . S
C574 C576 1.391 . S
C575 C574 1.386 . S
C575 C579 1.393 . S
C576 H565 0.950 . S
C576 C574 1.391 . S
C576 C577 1.400 . S
C577 C571 1.491 . S
C577 C576 1.400 . S
C577 C578 1.398 . S
C578 H566 0.950 . S
C578 C577 1.398 . S
C578 C579 1.391 . S
C579 H567 0.950 . S
C579 C575 1.393 . S
C579 C578 1.391 . S
H580 C588 0.950 . S
H581 C593 0.950 . S
H582 C590 0.950 . S
H583 C592 0.950 . S
H584 C594 0.950 . S
H585 C596 0.950 . S
H586 C598 0.950 . S
H587 C599 0.950 . S
C588 H580 0.950 . S
C588 C589 1.386 . S
C588 C590 1.391 . S
C589 C588 1.386 . S
C589 C593 1.393 . S
C590 H582 0.950 . S
C590 C588 1.391 . S
C590 C591 1.400 . S
C591 C590 1.400 . S
C591 C592 1.398 . S
C591 C597 1.491 . S
C592 H583 0.950 . S
C592 C591 1.398 . S
C592 C593 1.391 . S
C593 H581 0.950 . S
C593 C589 1.393 . S
C593 C592 1.391 . S
C594 H584 0.950 . S
C594 C595 1.386 . S
C594 C596 1.391 . S
C595 C594 1.386 . S
C595 C599 1.393 . S
C596 H585 0.950 . S
C596 C594 1.391 . S
C596 C597 1.400 . S
C597 C591 1.491 . S
C597 C596 1.400 . S
C597 C598 1.398 . S
C598 H586 0.950 . S
C598 C597 1.398 . S
C598 C599 1.391 . S
C599 H587 0.950 . S
C599 C595 1.393 . S
C599 C598 1.391 . S
H600 C608 0.950 . S
H601 C613 0.950 . S
H602 C610 0.950 . S
H603 C612 0.950 . S
H604 C614 0.950 . S
H605 C616 0.950 . S
H606 C618 0.950 . S
H607 C619 0.950 . S
C608 H600 0.950 . S
C608 C609 1.386 . S
C608 C610 1.391 . S
C609 C608 1.386 . S
C609 C613 1.393 . S
C610 H602 0.950 . S
C610 C608 1.391 . S
C610 C611 1.400 . S
C611 C610 1.400 . S
C611 C612 1.398 . S
C611 C617 1.491 . S
C612 H603 0.950 . S
C612 C611 1.398 . S
C612 C613 1.391 . S
C613 H601 0.950 . S
C613 C609 1.393 . S
C613 C612 1.391 . S
C614 H604 0.950 . S
C614 C615 1.386 . S
C614 C616 1.391 . S
C615 C614 1.386 . S
C615 C619 1.393 . S
C616 H605 0.950 . S
C616 C614 1.391 . S
C616 C617 1.400 . S
C617 C611 1.491 . S
C617 C616 1.400 . S
C617 C618 1.398 . S
C618 H606 0.950 . S
C618 C617 1.398 . S
C618 C619 1.391 . S
C619 H607 0.950 . S
C619 C615 1.393 . S
C619 C618 1.391 . S
H620 C628 0.950 . S
H621 C633 0.950 . S
H622 C630 0.950 . S
H623 C632 0.950 . S
H624 C634 0.950 . S
H625 C636 0.950 . S
H626 C638 0.950 . S
H627 C639 0.950 . S
C628 H620 0.950 . S
C628 C629 1.386 . S
C628 C630 1.391 . S
C629 C628 1.386 . S
C629 C633 1.393 . S
C630 H622 0.950 . S
C630 C628 1.391 . S
C630 C631 1.400 . S
C631 C630 1.400 . S
C631 C632 1.398 . S
C631 C637 1.491 . S
C632 H623 0.950 . S
C632 C631 1.398 . S
C632 C633 1.391 . S
C633 H621 0.950 . S
C633 C629 1.393 . S
C633 C632 1.391 . S
C634 H624 0.950 . S
C634 C635 1.386 . S
C634 C636 1.391 . S
C635 C634 1.386 . S
C635 C639 1.393 . S
C636 H625 0.950 . S
C636 C634 1.391 . S
C636 C637 1.400 . S
C637 C631 1.491 . S
C637 C636 1.400 . S
C637 C638 1.398 . S
C638 H626 0.950 . S
C638 C637 1.398 . S
C638 C639 1.391 . S
C639 H627 0.950 . S
C639 C635 1.393 . S
C639 C638 1.391 . S
H640 C648 0.950 . S
H641 C653 0.950 . S
H642 C650 0.950 . S
H643 C652 0.950 . S
H644 C654 0.950 . S
H645 C656 0.950 . S
H646 C658 0.950 . S
H647 C659 0.950 . S
C648 H640 0.950 . S
C648 C649 1.386 . S
C648 C650 1.391 . S
C649 C648 1.386 . S
C649 C653 1.393 . S
C650 H642 0.950 . S
C650 C648 1.391 . S
C650 C651 1.400 . S
C651 C650 1.400 . S
C651 C652 1.398 . S
C651 C657 1.491 . S
C652 H643 0.950 . S
C652 C651 1.398 . S
C652 C653 1.391 . S
C653 H641 0.950 . S
C653 C649 1.393 . S
C653 C652 1.391 . S
C654 H644 0.950 . S
C654 C655 1.386 . S
C654 C656 1.391 . S
C655 C654 1.386 . S
C655 C659 1.393 . S
C656 H645 0.950 . S
C656 C654 1.391 . S
C656 C657 1.400 . S
C657 C651 1.491 . S
C657 C656 1.400 . S
C657 C658 1.398 . S
C658 H646 0.950 . S
C658 C657 1.398 . S
C658 C659 1.391 . S
C659 H647 0.950 . S
C659 C655 1.393 . S
C659 C658 1.391 . S
H660 C668 0.950 . S
H661 C673 0.950 . S
H662 C670 0.950 . S
H663 C672 0.950 . S
H664 C674 0.950 1_655 S
H665 C676 0.950 . S
H666 C678 0.950 . S
H667 C679 0.950 . S
C668 H660 0.950 . S
C668 C669 1.386 . S
C668 C670 1.391 . S
C669 C668 1.386 . S
C669 C673 1.393 . S
C670 H662 0.950 . S
C670 C668 1.391 . S
C670 C671 1.400 . S
C671 C670 1.400 . S
C671 C672 1.398 . S
C671 C677 1.491 . S
C672 H663 0.950 . S
C672 C671 1.398 . S
C672 C673 1.391 . S
C673 H661 0.950 . S
C673 C669 1.393 . S
C673 C672 1.391 . S
C674 H664 0.950 1_455 S
C674 C675 1.386 . S
C674 C676 1.391 . S
C675 C674 1.386 . S
C675 C679 1.393 . S
C676 H665 0.950 . S
C676 C674 1.391 . S
C676 C677 1.400 . S
C677 C671 1.491 . S
C677 C676 1.400 . S
C677 C678 1.398 . S
C678 H666 0.950 . S
C678 C677 1.398 . S
C678 C679 1.391 . S
C679 H667 0.950 . S
C679 C675 1.393 . S
C679 C678 1.391 . S
H680 C688 0.950 . S
H681 C693 0.950 1_455 S
H682 C690 0.950 . S
H683 C692 0.950 . S
H684 C694 0.950 . S
H685 C696 0.950 . S
H686 C698 0.950 . S
H687 C699 0.950 . S
C688 H680 0.950 . S
C688 C689 1.386 . S
C688 C690 1.391 . S
C689 C688 1.386 . S
C689 C693 1.393 . S
C690 H682 0.950 . S
C690 C688 1.391 . S
C690 C691 1.400 . S
C691 C690 1.400 . S
C691 C692 1.398 . S
C691 C697 1.491 . S
C692 H683 0.950 . S
C692 C691 1.398 . S
C692 C693 1.391 . S
C693 H681 0.950 1_655 S
C693 C689 1.393 . S
C693 C692 1.391 . S
C694 H684 0.950 . S
C694 C695 1.386 . S
C694 C696 1.391 . S
C695 C694 1.386 . S
C695 C699 1.393 . S
C696 H685 0.950 . S
C696 C694 1.391 . S
C696 C697 1.400 . S
C697 C691 1.491 . S
C697 C696 1.400 . S
C697 C698 1.398 . S
C698 H686 0.950 . S
C698 C697 1.398 . S
C698 C699 1.391 . S
C699 H687 0.950 . S
C699 C695 1.393 . S
C699 C698 1.391 . S
H700 C708 0.950 . S
H701 C713 0.950 . S
H702 C710 0.950 . S
H703 C712 0.950 . S
H704 C714 0.950 . S
H705 C716 0.950 . S
H706 C718 0.950 . S
H707 C719 0.950 . S
C708 H700 0.950 . S
C708 C709 1.386 . S
C708 C710 1.391 . S
C709 C708 1.386 . S
C709 C713 1.393 . S
C710 H702 0.950 . S
C710 C708 1.391 . S
C710 C711 1.400 . S
C711 C710 1.400 . S
C711 C712 1.398 . S
C711 C717 1.491 . S
C712 H703 0.950 . S
C712 C711 1.398 . S
C712 C713 1.391 . S
C713 H701 0.950 . S
C713 C709 1.393 . S
C713 C712 1.391 . S
C714 H704 0.950 . S
C714 C715 1.386 . S
C714 C716 1.391 . S
C715 C714 1.386 . S
C715 C719 1.393 . S
C716 H705 0.950 . S
C716 C714 1.391 . S
C716 C717 1.400 . S
C717 C711 1.491 . S
C717 C716 1.400 . S
C717 C718 1.398 . S
C718 H706 0.950 . S
C718 C717 1.398 . S
C718 C719 1.391 . S
C719 H707 0.950 . S
C719 C715 1.393 . S
C719 C718 1.391 . S
H720 C728 0.950 . S
H721 C733 0.950 . S
H722 C730 0.950 . S
H723 C732 0.950 . S
H724 C734 0.950 . S
H725 C736 0.950 . S
H726 C738 0.950 . S
H727 C739 0.950 . S
C728 H720 0.950 . S
C728 C729 1.386 . S
C728 C730 1.391 . S
C729 C728 1.386 . S
C729 C733 1.393 . S
C730 H722 0.950 . S
C730 C728 1.391 . S
C730 C731 1.400 . S
C731 C730 1.400 . S
C731 C732 1.398 . S
C731 C737 1.491 . S
C732 H723 0.950 . S
C732 C731 1.398 . S
C732 C733 1.391 . S
C733 H721 0.950 . S
C733 C729 1.393 . S
C733 C732 1.391 . S
C734 H724 0.950 . S
C734 C735 1.386 . S
C734 C736 1.391 . S
C735 C734 1.386 . S
C735 C739 1.393 . S
C736 H725 0.950 . S
C736 C734 1.391 . S
C736 C737 1.400 . S
C737 C731 1.491 . S
C737 C736 1.400 . S
C737 C738 1.398 . S
C738 H726 0.950 . S
C738 C737 1.398 . S
C738 C739 1.391 . S
C739 H727 0.950 . S
C739 C735 1.393 . S
C739 C738 1.391 . S
H740 C748 0.950 . S
H741 C753 0.950 . S
H742 C750 0.950 . S
H743 C752 0.950 . S
H744 C754 0.950 . S
H745 C756 0.950 . S
H746 C758 0.950 . S
H747 C759 0.950 1_545 S
C748 H740 0.950 . S
C748 C749 1.386 . S
C748 C750 1.391 . S
C749 C748 1.386 . S
C749 C753 1.393 . S
C750 H742 0.950 . S
C750 C748 1.391 . S
C750 C751 1.400 . S
C751 C750 1.400 . S
C751 C752 1.398 . S
C751 C757 1.491 . S
C752 H743 0.950 . S
C752 C751 1.398 . S
C752 C753 1.391 . S
C753 H741 0.950 . S
C753 C749 1.393 . S
C753 C752 1.391 . S
C754 H744 0.950 . S
C754 C755 1.386 . S
C754 C756 1.391 . S
C755 C754 1.386 . S
C755 C759 1.393 . S
C756 H745 0.950 . S
C756 C754 1.391 . S
C756 C757 1.400 . S
C757 C751 1.491 . S
C757 C756 1.400 . S
C757 C758 1.398 . S
C758 H746 0.950 . S
C758 C757 1.398 . S
C758 C759 1.391 . S
C759 H747 0.950 1_565 S
C759 C755 1.393 . S
C759 C758 1.391 . S
H760 C768 0.950 . S
H761 C773 0.950 . S
H762 C770 0.950 . S
H763 C772 0.950 . S
H764 C774 0.950 . S
H765 C776 0.950 . S
H766 C778 0.950 . S
H767 C779 0.950 . S
C768 H760 0.950 . S
C768 C769 1.386 . S
C768 C770 1.391 . S
C769 C768 1.386 . S
C769 C773 1.393 . S
C770 H762 0.950 . S
C770 C768 1.391 . S
C770 C771 1.400 . S
C771 C770 1.400 . S
C771 C772 1.398 . S
C771 C777 1.491 . S
C772 H763 0.950 . S
C772 C771 1.398 . S
C772 C773 1.391 . S
C773 H761 0.950 . S
C773 C769 1.393 . S
C773 C772 1.391 . S
C774 H764 0.950 . S
C774 C775 1.386 . S
C774 C776 1.391 . S
C775 C774 1.386 . S
C775 C779 1.393 . S
C776 H765 0.950 . S
C776 C774 1.391 . S
C776 C777 1.400 . S
C777 C771 1.491 . S
C777 C776 1.400 . S
C777 C778 1.398 . S
C778 H766 0.950 . S
C778 C777 1.398 . S
C778 C779 1.391 . S
C779 H767 0.950 . S
C779 C775 1.393 . S
C779 C778 1.391 . S
H780 C788 0.950 . S
H781 C793 0.950 . S
H782 C790 0.950 . S
H783 C792 0.950 1_556 S
H784 C794 0.950 . S
H785 C796 0.950 . S
H786 C798 0.950 . S
H787 C799 0.950 . S
C788 H780 0.950 . S
C788 C789 1.386 . S
C788 C790 1.391 . S
C789 C788 1.386 . S
C789 C793 1.393 . S
C790 H782 0.950 . S
C790 C788 1.391 . S
C790 C791 1.414 . S
C791 C790 1.414 . S
C791 C792 1.399 . S
C791 C797 1.477 1_554 S
C792 H783 0.950 1_554 S
C792 C791 1.399 . S
C792 C793 1.391 . S
C793 H781 0.950 . S
C793 C789 1.393 . S
C793 C792 1.391 . S
C794 H784 0.950 . S
C794 C795 1.386 . S
C794 C796 1.391 . S
C795 C794 1.386 . S
C795 C799 1.393 . S
C796 H785 0.950 . S
C796 C794 1.391 . S
C796 C797 1.400 . S
C797 C791 1.477 1_556 S
C797 C796 1.400 . S
C797 C798 1.398 . S
C798 H786 0.950 . S
C798 C797 1.398 . S
C798 C799 1.391 . S
C799 H787 0.950 . S
C799 C795 1.393 . S
C799 C798 1.391 . S
H800 C808 0.950 . S
H801 C813 0.950 . S
H802 C810 0.950 . S
H803 C812 0.950 . S
H804 C814 0.950 . S
H805 C816 0.950 . S
H806 C818 0.950 . S
H807 C819 0.950 . S
C808 H800 0.950 . S
C808 C809 1.386 . S
C808 C810 1.391 . S
C809 C808 1.386 . S
C809 C813 1.393 . S
C810 H802 0.950 . S
C810 C808 1.391 . S
C810 C811 1.400 . S
C811 C810 1.400 . S
C811 C812 1.398 . S
C811 C817 1.491 . S
C812 H803 0.950 . S
C812 C811 1.398 . S
C812 C813 1.391 . S
C813 H801 0.950 . S
C813 C809 1.393 . S
C813 C812 1.391 . S
C814 H804 0.950 . S
C814 C815 1.386 . S
C814 C816 1.391 . S
C815 C814 1.386 . S
C815 C819 1.393 . S
C816 H805 0.950 . S
C816 C814 1.391 . S
C816 C817 1.400 . S
C817 C811 1.491 . S
C817 C816 1.400 . S
C817 C818 1.398 . S
C818 H806 0.950 . S
C818 C817 1.398 . S
C818 C819 1.391 . S
C819 H807 0.950 . S
C819 C815 1.393 . S
C819 C818 1.391 . S
H820 C828 0.950 . S
H821 C833 0.950 . S
H822 C830 0.950 . S
H823 C832 0.950 . S
H824 C834 0.950 . S
H825 C836 0.950 . S
H826 C838 0.950 . S
H827 C839 0.950 . S
C828 H820 0.950 . S
C828 C829 1.386 . S
C828 C830 1.391 1_554 S
C829 C828 1.386 . S
C829 C833 1.393 . S
C830 H822 0.950 . S
C830 C828 1.391 1_556 S
C830 C831 1.400 . S
C831 C830 1.400 . S
C831 C832 1.398 . S
C831 C837 1.491 . S
C832 H823 0.950 . S
C832 C831 1.398 . S
C832 C833 1.391 1_556 S
C833 H821 0.950 . S
C833 C829 1.393 . S
C833 C832 1.391 1_554 S
C834 H824 0.950 . S
C834 C835 1.386 . S
C834 C836 1.391 . S
C835 C834 1.386 . S
C835 C839 1.393 . S
C836 H825 0.950 . S
C836 C834 1.391 . S
C836 C837 1.400 . S
C837 C831 1.491 . S
C837 C836 1.400 . S
C837 C838 1.398 . S
C838 H826 0.950 . S
C838 C837 1.398 . S
C838 C839 1.391 . S
C839 H827 0.950 . S
C839 C835 1.393 . S
C839 C838 1.391 . S
H840 C848 0.950 . S
H841 C853 0.950 . S
H842 C850 0.950 . S
H843 C852 0.950 . S
H844 C854 0.950 . S
H845 C856 0.950 . S
H846 C858 0.950 . S
H847 C859 0.950 . S
C848 H840 0.950 . S
C848 C849 1.386 . S
C848 C850 1.391 . S
C849 C848 1.386 . S
C849 C853 1.393 . S
C850 H842 0.950 . S
C850 C848 1.391 . S
C850 C851 1.400 . S
C851 C850 1.400 . S
C851 C852 1.398 . S
C851 C857 1.491 . S
C852 H843 0.950 . S
C852 C851 1.398 . S
C852 C853 1.391 . S
C853 H841 0.950 . S
C853 C849 1.393 . S
C853 C852 1.391 . S
C854 H844 0.950 . S
C854 C855 1.386 . S
C854 C856 1.391 . S
C855 C854 1.386 . S
C855 C859 1.393 . S
C856 H845 0.950 . S
C856 C854 1.391 . S
C856 C857 1.400 . S
C857 C851 1.491 . S
C857 C856 1.400 . S
C857 C858 1.398 . S
C858 H846 0.950 . S
C858 C857 1.398 . S
C858 C859 1.391 . S
C859 H847 0.950 . S
C859 C855 1.393 . S
C859 C858 1.391 . S
H860 C868 0.950 . S
H861 C873 0.950 . S
H862 C870 0.950 . S
H863 C872 0.950 . S
H864 C874 0.950 . S
H865 C876 0.950 . S
H866 C878 0.950 . S
H867 C879 0.950 . S
C868 H860 0.950 . S
C868 C869 1.386 . S
C868 C870 1.391 . S
C869 C868 1.386 . S
C869 C873 1.393 . S
C870 H862 0.950 . S
C870 C868 1.391 . S
C870 C871 1.400 . S
C871 C870 1.400 . S
C871 C872 1.398 . S
C871 C877 1.491 . S
C872 H863 0.950 . S
C872 C871 1.398 . S
C872 C873 1.391 . S
C873 H861 0.950 . S
C873 C869 1.393 . S
C873 C872 1.391 . S
C874 H864 0.950 . S
C874 C875 1.386 . S
C874 C876 1.391 . S
C875 C874 1.386 . S
C875 C879 1.393 . S
C876 H865 0.950 . S
C876 C874 1.391 . S
C876 C877 1.400 . S
C877 C871 1.491 . S
C877 C876 1.400 . S
C877 C878 1.398 . S
C878 H866 0.950 . S
C878 C877 1.398 . S
C878 C879 1.391 . S
C879 H867 0.950 . S
C879 C875 1.393 . S
C879 C878 1.391 . S
H880 C888 0.950 . S
H881 C893 0.950 . S
H882 C890 0.950 . S
H883 C892 0.950 . S
H884 C894 0.950 . S
H885 C896 0.950 . S
H886 C898 0.950 . S
H887 C899 0.950 . S
C888 H880 0.950 . S
C888 C889 1.386 . S
C888 C890 1.391 . S
C889 C888 1.386 . S
C889 C893 1.393 . S
C890 H882 0.950 . S
C890 C888 1.391 . S
C890 C891 1.400 . S
C891 C890 1.400 . S
C891 C892 1.398 . S
C891 C897 1.491 . S
C892 H883 0.950 . S
C892 C891 1.398 . S
C892 C893 1.391 . S
C893 H881 0.950 . S
C893 C889 1.393 . S
C893 C892 1.391 . S
C894 H884 0.950 . S
C894 C895 1.386 . S
C894 C896 1.391 . S
C895 C894 1.386 . S
C895 C899 1.393 . S
C896 H885 0.950 . S
C896 C894 1.391 . S
C896 C897 1.400 . S
C897 C891 1.491 . S
C897 C896 1.400 . S
C897 C898 1.398 . S
C898 H886 0.950 . S
C898 C897 1.398 . S
C898 C899 1.391 . S
C899 H887 0.950 . S
C899 C895 1.393 . S
C899 C898 1.391 . S
H900 C908 0.950 . S
H901 C913 0.950 . S
H902 C910 0.950 . S
H903 C912 0.950 . S
H904 C914 0.950 . S
H905 C916 0.950 1_545 S
H906 C918 0.950 . S
H907 C919 0.950 . S
C908 H900 0.950 . S
C908 C909 1.386 . S
C908 C910 1.391 . S
C909 C908 1.386 . S
C909 C913 1.393 . S
C910 H902 0.950 . S
C910 C908 1.391 . S
C910 C911 1.400 . S
C911 C910 1.400 . S
C911 C912 1.398 . S
C911 C917 1.491 . S
C912 H903 0.950 . S
C912 C911 1.398 . S
C912 C913 1.391 . S
C913 H901 0.950 . S
C913 C909 1.393 . S
C913 C912 1.391 . S
C914 H904 0.950 . S
C914 C915 1.386 . S
C914 C916 1.391 . S
C915 C914 1.386 . S
C915 C919 1.393 . S
C916 H905 0.950 1_565 S
C916 C914 1.391 . S
C916 C917 1.400 1_565 S
C917 C911 1.491 . S
C917 C916 1.400 1_545 S
C917 C918 1.398 . S
C918 H906 0.950 . S
C918 C917 1.398 . S
C918 C919 1.391 1_545 S
C919 H907 0.950 . S
C919 C915 1.393 . S
C919 C918 1.391 1_565 S
H920 C928 0.950 . S
H921 C933 0.950 . S
H922 C930 0.950 . S
H923 C932 0.950 . S
H924 C934 0.950 . S
H925 C936 0.950 . S
H926 C938 0.950 . S
H927 C939 0.950 . S
C928 H920 0.950 . S
C928 C929 1.386 . S
C928 C930 1.391 . S
C929 C928 1.386 . S
C929 C933 1.393 . S
C930 H922 0.950 . S
C930 C928 1.391 . S
C930 C931 1.400 . S
C931 C930 1.400 . S
C931 C932 1.398 . S
C931 C937 1.491 . S
C932 H923 0.950 . S
C932 C931 1.398 . S
C932 C933 1.391 . S
C933 H921 0.950 . S
C933 C929 1.393 . S
C933 C932 1.391 . S
C934 H924 0.950 . S
C934 C935 1.386 . S
C934 C936 1.391 . S
C935 C934 1.386 . S
C935 C939 1.393 . S
C936 H925 0.950 . S
C936 C934 1.391 . S
C936 C937 1.400 . S
C937 C931 1.491 . S
C937 C936 1.400 . S
C937 C938 1.398 . S
C938 H926 0.950 . S
C938 C937 1.398 . S
C938 C939 1.391 . S
C939 H927 0.950 . S
C939 C935 1.393 . S
C939 C938 1.391 . S
H940 C948 0.950 . S
H941 C953 0.950 . S
H942 C950 0.950 . S
H943 C952 0.950 . S
H944 C954 0.950 . S
H945 C956 0.950 1_545 S
H946 C958 0.950 . S
H947 C959 0.950 . S
C948 H940 0.950 . S
C948 C949 1.386 . S
C948 C950 1.391 . S
C949 C948 1.386 . S
C949 C953 1.393 . S
C950 H942 0.950 . S
C950 C948 1.391 . S
C950 C951 1.400 . S
C951 C950 1.400 . S
C951 C952 1.398 . S
C951 C957 1.491 . S
C952 H943 0.950 . S
C952 C951 1.398 . S
C952 C953 1.391 . S
C953 H941 0.950 . S
C953 C949 1.393 . S
C953 C952 1.391 . S
C954 H944 0.950 . S
C954 C955 1.386 . S
C954 C956 1.391 . S
C955 C954 1.386 . S
C955 C959 1.393 . S
C956 H945 0.950 1_565 S
C956 C954 1.391 . S
C956 C957 1.400 1_565 S
C957 C951 1.491 . S
C957 C956 1.400 1_545 S
C957 C958 1.398 1_545 S
C958 H946 0.950 . S
C958 C957 1.398 1_565 S
C958 C959 1.391 . S
C959 H947 0.950 . S
C959 C955 1.393 . S
C959 C958 1.391 . S
H960 C968 0.950 . S
H961 C973 0.950 . S
H962 C970 0.950 . S
H963 C972 0.950 . S
H964 C974 0.950 . S
H965 C976 0.950 . S
H966 C978 0.950 . S
H967 C979 0.950 . S
C968 H960 0.950 . S
C968 C969 1.386 . S
C968 C970 1.391 . S
C969 C968 1.386 . S
C969 C973 1.393 . S
C970 H962 0.950 . S
C970 C968 1.391 . S
C970 C971 1.400 . S
C971 C970 1.400 . S
C971 C972 1.398 . S
C971 C977 1.491 . S
C972 H963 0.950 . S
C972 C971 1.398 . S
C972 C973 1.391 . S
C973 H961 0.950 . S
C973 C969 1.393 . S
C973 C972 1.391 . S
C974 H964 0.950 . S
C974 C975 1.386 . S
C974 C976 1.391 . S
C975 C974 1.386 . S
C975 C979 1.393 . S
C976 H965 0.950 . S
C976 C974 1.391 . S
C976 C977 1.400 . S
C977 C971 1.491 . S
C977 C976 1.400 . S
C977 C978 1.398 . S
C978 H966 0.950 . S
C978 C977 1.398 . S
C978 C979 1.391 . S
C979 H967 0.950 . S
C979 C975 1.393 . S
C979 C978 1.391 . S
H980 C988 0.950 . S
H981 C993 0.950 . S
H982 C990 0.950 . S
H983 C992 0.950 . S
H984 C994 0.950 . S
H985 C996 0.950 . S
H986 C998 0.950 . S
H987 C999 0.950 . S
C988 H980 0.950 . S
C988 C989 1.386 . S
C988 C990 1.391 . S
C989 C988 1.386 . S
C989 C993 1.393 . S
C990 H982 0.950 . S
C990 C988 1.391 . S
C990 C991 1.400 . S
C991 C990 1.400 . S
C991 C992 1.398 . S
C991 C997 1.491 . S
C992 H983 0.950 . S
C992 C991 1.398 . S
C992 C993 1.391 . S
C993 H981 0.950 . S
C993 C989 1.393 . S
C993 C992 1.391 . S
C994 H984 0.950 . S
C994 C995 1.386 . S
C994 C996 1.391 . S
C995 C994 1.386 . S
C995 C999 1.393 . S
C996 H985 0.950 . S
C996 C994 1.391 . S
C996 C997 1.400 . S
C997 C991 1.491 . S
C997 C996 1.400 . S
C997 C998 1.398 . S
C998 H986 0.950 . S
C998 C997 1.398 . S
C998 C999 1.391 . S
C999 H987 0.950 . S
C999 C995 1.393 . S
C999 C998 1.391 . S
H1000 C1008 0.950 . S
H1001 C1013 0.950 . S
H1002 C1010 0.950 . S
H1003 C1012 0.950 . S
H1004 C1014 0.950 . S
H1005 C1016 0.950 . S
H1006 C1018 0.950 . S
H1007 C1019 0.950 . S
C1008 H1000 0.950 . S
C1008 C1009 1.386 . S
C1008 C1010 1.391 . S
C1009 C1008 1.386 . S
C1009 C1013 1.393 . S
C1010 H1002 0.950 . S
C1010 C1008 1.391 . S
C1010 C1011 1.400 . S
C1011 C1010 1.400 . S
C1011 C1012 1.398 . S
C1011 C1017 1.491 . S
C1012 H1003 0.950 . S
C1012 C1011 1.398 . S
C1012 C1013 1.391 . S
C1013 H1001 0.950 . S
C1013 C1009 1.393 . S
C1013 C1012 1.391 . S
C1014 H1004 0.950 . S
C1014 C1015 1.386 . S
C1014 C1016 1.391 . S
C1015 C1014 1.386 . S
C1015 C1019 1.393 . S
C1016 H1005 0.950 . S
C1016 C1014 1.391 . S
C1016 C1017 1.400 . S
C1017 C1011 1.491 . S
C1017 C1016 1.400 . S
C1017 C1018 1.398 . S
C1018 H1006 0.950 . S
C1018 C1017 1.398 . S
C1018 C1019 1.391 . S
C1019 H1007 0.950 . S
C1019 C1015 1.393 . S
C1019 C1018 1.391 . S
H1020 C1028 0.950 . S
H1021 C1033 0.950 . S
H1022 C1030 0.950 . S
H1023 C1032 0.950 . S
H1024 C1034 0.950 . S
H1025 C1036 0.950 . S
H1026 C1038 0.950 . S
H1027 C1039 0.950 . S
C1028 H1020 0.950 . S
C1028 C1029 1.386 . S
C1028 C1030 1.391 . S
C1029 C1028 1.386 . S
C1029 C1033 1.393 . S
C1030 H1022 0.950 . S
C1030 C1028 1.391 . S
C1030 C1031 1.400 . S
C1031 C1030 1.400 . S
C1031 C1032 1.398 . S
C1031 C1037 1.491 . S
C1032 H1023 0.950 . S
C1032 C1031 1.398 . S
C1032 C1033 1.391 . S
C1033 H1021 0.950 . S
C1033 C1029 1.393 . S
C1033 C1032 1.391 . S
C1034 H1024 0.950 . S
C1034 C1035 1.386 . S
C1034 C1036 1.391 . S
C1035 C1034 1.386 . S
C1035 C1039 1.393 . S
C1036 H1025 0.950 . S
C1036 C1034 1.391 . S
C1036 C1037 1.400 . S
C1037 C1031 1.491 . S
C1037 C1036 1.400 . S
C1037 C1038 1.398 . S
C1038 H1026 0.950 . S
C1038 C1037 1.398 . S
C1038 C1039 1.391 . S
C1039 H1027 0.950 . S
C1039 C1035 1.393 . S
C1039 C1038 1.391 . S
H1040 C1048 0.950 . S
H1041 C1053 0.950 . S
H1042 C1050 0.950 . S
H1043 C1052 0.950 . S
H1044 C1054 0.950 . S
H1045 C1056 0.950 . S
H1046 C1058 0.950 . S
H1047 C1059 0.950 . S
C1048 H1040 0.950 . S
C1048 C1049 1.386 . S
C1048 C1050 1.391 . S
C1049 C1048 1.386 . S
C1049 C1053 1.393 . S
C1050 H1042 0.950 . S
C1050 C1048 1.391 . S
C1050 C1051 1.400 . S
C1051 C1050 1.400 . S
C1051 C1052 1.398 . S
C1051 C1057 1.491 . S
C1052 H1043 0.950 . S
C1052 C1051 1.398 . S
C1052 C1053 1.391 . S
C1053 H1041 0.950 . S
C1053 C1049 1.393 . S
C1053 C1052 1.391 . S
C1054 H1044 0.950 . S
C1054 C1055 1.386 . S
C1054 C1056 1.391 . S
C1055 C1054 1.386 . S
C1055 C1059 1.393 . S
C1056 H1045 0.950 . S
C1056 C1054 1.391 . S
C1056 C1057 1.400 . S
C1057 C1051 1.491 . S
C1057 C1056 1.400 . S
C1057 C1058 1.398 . S
C1058 H1046 0.950 . S
C1058 C1057 1.398 . S
C1058 C1059 1.391 . S
C1059 H1047 0.950 . S
C1059 C1055 1.393 . S
C1059 C1058 1.391 . S
H1060 C1068 0.950 . S
H1061 C1073 0.950 . S
H1062 C1070 0.950 . S
H1063 C1072 0.950 . S
H1064 C1074 0.950 . S
H1065 C1076 0.950 . S
H1066 C1078 0.950 . S
H1067 C1079 0.950 . S
C1068 H1060 0.950 . S
C1068 C1069 1.386 . S
C1068 C1070 1.391 . S
C1069 C1068 1.386 . S
C1069 C1073 1.393 . S
C1070 H1062 0.950 . S
C1070 C1068 1.391 . S
C1070 C1071 1.400 . S
C1071 C1070 1.400 . S
C1071 C1072 1.398 . S
C1071 C1077 1.491 . S
C1072 H1063 0.950 . S
C1072 C1071 1.398 . S
C1072 C1073 1.391 . S
C1073 H1061 0.950 . S
C1073 C1069 1.393 . S
C1073 C1072 1.391 . S
C1074 H1064 0.950 . S
C1074 C1075 1.386 . S
C1074 C1076 1.391 . S
C1075 C1074 1.386 . S
C1075 C1079 1.393 . S
C1076 H1065 0.950 . S
C1076 C1074 1.391 . S
C1076 C1077 1.400 . S
C1077 C1071 1.491 . S
C1077 C1076 1.400 . S
C1077 C1078 1.398 . S
C1078 H1066 0.950 . S
C1078 C1077 1.398 . S
C1078 C1079 1.391 . S
C1079 H1067 0.950 . S
C1079 C1075 1.393 . S
C1079 C1078 1.391 . S
H1080 C1088 0.950 . S
H1081 C1093 0.950 . S
H1082 C1090 0.950 . S
H1083 C1092 0.950 . S
H1084 C1094 0.950 1_556 S
H1085 C1096 0.950 . S
H1086 C1098 0.950 . S
H1087 C1099 0.950 . S
C1088 H1080 0.950 . S
C1088 C1089 1.386 . S
C1088 C1090 1.391 . S
C1089 C1088 1.386 . S
C1089 C1093 1.393 . S
C1090 H1082 0.950 . S
C1090 C1088 1.391 . S
C1090 C1091 1.400 . S
C1091 C1090 1.400 . S
C1091 C1092 1.398 . S
C1091 C1097 1.491 1_455 S
C1092 H1083 0.950 . S
C1092 C1091 1.398 . S
C1092 C1093 1.391 . S
C1093 H1081 0.950 . S
C1093 C1089 1.393 . S
C1093 C1092 1.391 . S
C1094 H1084 0.950 1_554 S
C1094 C1095 1.386 . S
C1094 C1096 1.391 . S
C1095 C1094 1.386 . S
C1095 C1099 1.393 . S
C1096 H1085 0.950 . S
C1096 C1094 1.391 . S
C1096 C1097 1.400 . S
C1097 C1091 1.491 1_655 S
C1097 C1096 1.400 . S
C1097 C1098 1.398 . S
C1098 H1086 0.950 . S
C1098 C1097 1.398 . S
C1098 C1099 1.391 . S
C1099 H1087 0.950 . S
C1099 C1095 1.393 . S
C1099 C1098 1.391 . S
H1100 C1108 0.950 . S
H1101 C1113 0.950 . S
H1102 C1110 0.950 . S
H1103 C1112 0.950 . S
H1104 C1114 0.950 . S
H1105 C1116 0.950 . S
H1106 C1118 0.950 . S
H1107 C1119 0.950 . S
C1108 H1100 0.950 . S
C1108 C1109 1.386 . S
C1108 C1110 1.391 . S
C1109 C1108 1.386 . S
C1109 C1113 1.393 . S
C1110 H1102 0.950 . S
C1110 C1108 1.391 . S
C1110 C1111 1.400 . S
C1111 C1110 1.400 . S
C1111 C1112 1.398 . S
C1111 C1117 1.491 . S
C1112 H1103 0.950 . S
C1112 C1111 1.398 . S
C1112 C1113 1.391 . S
C1113 H1101 0.950 . S
C1113 C1109 1.393 . S
C1113 C1112 1.391 . S
C1114 H1104 0.950 . S
C1114 C1115 1.386 . S
C1114 C1116 1.391 . S
C1115 C1114 1.386 . S
C1115 C1119 1.393 . S
C1116 H1105 0.950 . S
C1116 C1114 1.391 . S
C1116 C1117 1.400 . S
C1117 C1111 1.491 . S
C1117 C1116 1.400 . S
C1117 C1118 1.398 . S
C1118 H1106 0.950 . S
C1118 C1117 1.398 . S
C1118 C1119 1.391 . S
C1119 H1107 0.950 . S
C1119 C1115 1.393 . S
C1119 C1118 1.391 . S
H1120 C1128 0.950 . S
H1121 C1133 0.950 . S
H1122 C1130 0.950 . S
H1123 C1132 0.950 . S
H1124 C1134 0.950 . S
H1125 C1136 0.950 . S
H1126 C1138 0.950 . S
H1127 C1139 0.950 . S
C1128 H1120 0.950 . S
C1128 C1129 1.386 . S
C1128 C1130 1.391 . S
C1129 C1128 1.386 . S
C1129 C1133 1.393 . S
C1130 H1122 0.950 . S
C1130 C1128 1.391 . S
C1130 C1131 1.400 . S
C1131 C1130 1.400 . S
C1131 C1132 1.398 . S
C1131 C1137 1.491 . S
C1132 H1123 0.950 . S
C1132 C1131 1.398 . S
C1132 C1133 1.391 . S
C1133 H1121 0.950 . S
C1133 C1129 1.393 . S
C1133 C1132 1.391 . S
C1134 H1124 0.950 . S
C1134 C1135 1.386 . S
C1134 C1136 1.391 . S
C1135 C1134 1.386 . S
C1135 C1139 1.393 . S
C1136 H1125 0.950 . S
C1136 C1134 1.391 . S
C1136 C1137 1.400 . S
C1137 C1131 1.491 . S
C1137 C1136 1.400 . S
C1137 C1138 1.398 . S
C1138 H1126 0.950 . S
C1138 C1137 1.398 . S
C1138 C1139 1.391 . S
C1139 H1127 0.950 . S
C1139 C1135 1.393 . S
C1139 C1138 1.391 . S
H1140 C1148 0.950 . S
H1141 C1153 0.950 . S
H1142 C1150 0.950 . S
H1143 C1152 0.950 . S
H1144 C1154 0.950 . S
H1145 C1156 0.950 . S
H1146 C1158 0.950 . S
H1147 C1159 0.950 . S
C1148 H1140 0.950 . S
C1148 C1149 1.386 . S
C1148 C1150 1.391 . S
C1149 C1148 1.386 . S
C1149 C1153 1.393 . S
C1150 H1142 0.950 . S
C1150 C1148 1.391 . S
C1150 C1151 1.400 . S
C1151 C1150 1.400 . S
C1151 C1152 1.398 . S
C1151 C1157 1.491 . S
C1152 H1143 0.950 . S
C1152 C1151 1.398 . S
C1152 C1153 1.391 . S
C1153 H1141 0.950 . S
C1153 C1149 1.393 . S
C1153 C1152 1.391 . S
C1154 H1144 0.950 . S
C1154 C1155 1.386 . S
C1154 C1156 1.391 . S
C1155 C1154 1.386 . S
C1155 C1159 1.393 . S
C1156 H1145 0.950 . S
C1156 C1154 1.391 . S
C1156 C1157 1.400 . S
C1157 C1151 1.491 . S
C1157 C1156 1.400 . S
C1157 C1158 1.398 . S
C1158 H1146 0.950 . S
C1158 C1157 1.398 . S
C1158 C1159 1.391 . S
C1159 H1147 0.950 . S
C1159 C1155 1.393 . S
C1159 C1158 1.391 . S
H1160 C1168 0.950 . S
H1161 C1173 0.950 . S
H1162 C1170 0.950 . S
H1163 C1172 0.950 . S
H1164 C1174 0.950 . S
H1165 C1176 0.950 . S
H1166 C1178 0.950 . S
H1167 C1179 0.950 . S
C1168 H1160 0.950 . S
C1168 C1169 1.386 . S
C1168 C1170 1.391 . S
C1169 C1168 1.386 . S
C1169 C1173 1.393 . S
C1170 H1162 0.950 . S
C1170 C1168 1.391 . S
C1170 C1171 1.400 . S
C1171 C1170 1.400 . S
C1171 C1172 1.398 . S
C1171 C1177 1.491 . S
C1172 H1163 0.950 . S
C1172 C1171 1.398 . S
C1172 C1173 1.391 . S
C1173 H1161 0.950 . S
C1173 C1169 1.393 . S
C1173 C1172 1.391 . S
C1174 H1164 0.950 . S
C1174 C1175 1.386 . S
C1174 C1176 1.391 . S
C1175 C1174 1.386 . S
C1175 C1179 1.393 . S
C1176 H1165 0.950 . S
C1176 C1174 1.391 . S
C1176 C1177 1.400 . S
C1177 C1171 1.491 . S
C1177 C1176 1.400 . S
C1177 C1178 1.398 . S
C1178 H1166 0.950 . S
C1178 C1177 1.398 . S
C1178 C1179 1.391 . S
C1179 H1167 0.950 . S
C1179 C1175 1.393 . S
C1179 C1178 1.391 . S
H1180 C1188 0.950 . S
H1181 C1193 0.950 . S
H1182 C1190 0.950 . S
H1183 C1192 0.950 . S
H1184 C1194 0.950 . S
H1185 C1196 0.950 . S
H1186 C1198 0.950 1_655 S
H1187 C1199 0.950 . S
C1188 H1180 0.950 . S
C1188 C1189 1.386 . S
C1188 C1190 1.391 . S
C1189 C1188 1.386 . S
C1189 C1193 1.393 . S
C1190 H1182 0.950 . S
C1190 C1188 1.391 . S
C1190 C1191 1.400 . S
C1191 C1190 1.400 . S
C1191 C1192 1.398 . S
C1191 C1197 1.491 1_655 S
C1192 H1183 0.950 . S
C1192 C1191 1.398 . S
C1192 C1193 1.391 . S
C1193 H1181 0.950 . S
C1193 C1189 1.393 . S
C1193 C1192 1.391 . S
C1194 H1184 0.950 . S
C1194 C1195 1.386 . S
C1194 C1196 1.391 . S
C1195 C1194 1.386 . S
C1195 C1199 1.393 . S
C1196 H1185 0.950 . S
C1196 C1194 1.391 . S
C1196 C1197 1.400 . S
C1197 C1191 1.491 1_455 S
C1197 C1196 1.400 . S
C1197 C1198 1.398 . S
C1198 H1186 0.950 1_455 S
C1198 C1197 1.398 . S
C1198 C1199 1.391 . S
C1199 H1187 0.950 . S
C1199 C1195 1.393 . S
C1199 C1198 1.391 . S
C489 C3 1.604 . S
C495 C443 1.579 . S
C509 C375 1.682 . S
C515 C55 1.696 . S
C529 C83 1.560 . S
C535 C335 1.597 . S
C549 C135 1.722 . S
C555 C415 1.706 . S
C569 C163 1.992 . S
C575 C403 1.978 . S
C589 C203 1.426 . S
C595 C455 1.471 . S
C609 C363 2.009 . S
C615 C255 2.037 . S
C629 C283 1.590 . S
C635 C323 1.584 . S
C649 C123 1.411 . S
C655 C175 1.418 . S
C669 C15 1.496 . S
C675 C215 1.503 . S
C689 C43 1.774 1_655 S
C695 C243 1.773 . S
C709 C295 1.692 . S
C715 C95 1.705 . S
C729 C26 1.741 . S
C735 C322 1.713 . S
C749 C49 0.895 . S
C755 C402 0.861 . S
C769 C462 2.318 . S
C775 C106 2.244 . S
C789 C129 1.401 . S
C795 C362 1.322 . S
C809 C186 1.516 . S
C815 C382 1.548 . S
C829 C342 2.085 . S
C835 C226 2.007 . S
C849 C422 1.588 . S
C855 C249 1.600 . S
C869 C442 1.118 . S
C875 C306 1.128 . S
C889 C2 1.979 . S
C895 C146 1.971 . S
C909 C9 2.027 . S
C915 C62 1.996 . S
C929 C66 1.640 . S
C935 C82 1.634 . S
C949 C142 2.028 . S
C955 C89 2.075 . S
C969 C209 0.943 . S
C975 C162 0.931 . S
C989 C202 1.438 . S
C995 C266 1.448 . S
C1009 C262 1.035 . S
C1015 C289 1.031 . S
C1029 C169 1.479 . S
C1035 C282 1.396 . S
C1049 C346 2.026 . S
C1055 C122 2.037 . S
C1069 C222 2.282 . S
C1075 C369 2.323 . S
C1089 C329 1.435 . S
C1095 C242 1.391 . S
C1109 C409 1.565 . S
C1115 C302 1.538 . S
C1129 C182 1.934 . S
C1135 C466 1.864 . S
C1149 C449 1.199 . S
C1155 C42 1.160 . S
C1169 C102 1.944 . S
C1175 C386 1.899 . S
C1189 C426 1.699 . S
C1195 C22 1.731 . S
