# Generated by pormake.
# Topology mdf, (4)-cn, num edge types: 1
# Building blocks:
#     Node 0, Type 0, BuildingBlock: ICAMEG_clean_sbu_1, # of connection points: 4
#     Node 1, Type 0, BuildingBlock: ICAMEG_clean_sbu_1, # of connection points: 4
#     Node 2, Type 0, BuildingBlock: ICAMEG_clean_sbu_1, # of connection points: 4
#     Node 3, Type 0, BuildingBlock: ICAMEG_clean_sbu_1, # of connection points: 4
#     Node 4, Type 0, BuildingBlock: ICAMEG_clean_sbu_1, # of connection points: 4
#     Node 5, Type 0, BuildingBlock: ICAMEG_clean_sbu_1, # of connection points: 4
#     Node 6, Type 0, BuildingBlock: ICAMEG_clean_sbu_1, # of connection points: 4
#     Node 7, Type 0, BuildingBlock: ICAMEG_clean_sbu_1, # of connection points: 4
#     Edge 8, Type (0, 0), BuildingBlock: MIFKUJ_clean_linker_0, # of connection points: 2
#     Edge 9, Type (0, 0), BuildingBlock: MIFKUJ_clean_linker_0, # of connection points: 2
#     Edge 10, Type (0, 0), BuildingBlock: MIFKUJ_clean_linker_0, # of connection points: 2
#     Edge 11, Type (0, 0), BuildingBlock: MIFKUJ_clean_linker_0, # of connection points: 2
#     Edge 12, Type (0, 0), BuildingBlock: MIFKUJ_clean_linker_0, # of connection points: 2
#     Edge 13, Type (0, 0), BuildingBlock: MIFKUJ_clean_linker_0, # of connection points: 2
#     Edge 14, Type (0, 0), BuildingBlock: MIFKUJ_clean_linker_0, # of connection points: 2
#     Edge 15, Type (0, 0), BuildingBlock: MIFKUJ_clean_linker_0, # of connection points: 2
#     Edge 16, Type (0, 0), BuildingBlock: MIFKUJ_clean_linker_0, # of connection points: 2
#     Edge 17, Type (0, 0), BuildingBlock: MIFKUJ_clean_linker_0, # of connection points: 2
#     Edge 18, Type (0, 0), BuildingBlock: MIFKUJ_clean_linker_0, # of connection points: 2
#     Edge 19, Type (0, 0), BuildingBlock: MIFKUJ_clean_linker_0, # of connection points: 2
#     Edge 20, Type (0, 0), BuildingBlock: MIFKUJ_clean_linker_0, # of connection points: 2
#     Edge 21, Type (0, 0), BuildingBlock: MIFKUJ_clean_linker_0, # of connection points: 2
#     Edge 22, Type (0, 0), BuildingBlock: MIFKUJ_clean_linker_0, # of connection points: 2
#     Edge 23, Type (0, 0), BuildingBlock: MIFKUJ_clean_linker_0, # of connection points: 2
# Relax obj value: 0.009
# Max RMSD: 0.053
# Mean RMSD: 0.053
data_MOF--net-mdf--node1-ICAMEG_clean_sbu_1--edge1-MIFKUJ_clean_linker_0
_symmetry_space_group_name_H-M    P1
_symmetry_Int_Tables_number       1
_symmetry_cell_setting            triclinic
loop_
_symmetry_equiv_pos_as_xyz
'x, y, z'
_cell_length_a     53.50969
_cell_length_b     53.489466
_cell_length_c     14.123844
_cell_angle_alpha  90.09051
_cell_angle_beta   90.099413
_cell_angle_gamma 89.965769
loop_
_atom_site_label
_atom_site_type_symbol
_atom_site_fract_x
_atom_site_fract_y
_atom_site_fract_z
_atom_type_partial_charge
Co0 Co 0.24508 0.50236 0.49238 0.0
Co1 Co 0.25734 0.50435 0.25275 0.0
O2 O 0.25181 0.52097 0.37511 0.0
C3 C 0.20322 0.53936 0.49006 0.0
O4 O 0.19904 0.53374 0.40087 0.0
C5 C 0.3012 0.53882 0.26494 0.0
O6 O 0.30388 0.53365 0.35522 0.0
O7 O 0.28385 0.48293 0.30953 0.0
O8 O 0.2691 0.47536 0.45543 0.0
H9 H 0.27043 0.43015 0.03955 0.0
H10 H 0.25981 0.55565 0.50289 0.0
O11 O 0.22105 0.5289 0.53478 0.0
H12 H 0.32346 0.5103 0.68828 0.0
H13 H 0.22753 0.4944 0.84128 0.0
H14 H 0.2367 0.44897 0.53928 0.0
H15 H 0.2888 0.48754 0.6117 0.0
H16 H 0.23806 0.51699 0.69476 0.0
O17 O 0.28332 0.52942 0.21738 0.0
H18 H 0.26185 0.45151 0.19107 0.0
H19 H 0.26573 0.52214 0.05477 0.0
H20 H 0.22712 0.42551 0.68497 0.0
H21 H 0.29422 0.57913 0.57803 0.0
H22 H 0.2224 0.44827 0.83737 0.0
H23 H 0.3263 0.55643 0.67187 0.0
O24 O 0.21727 0.48378 0.43029 0.0
H25 H 0.21429 0.58616 0.19062 0.0
H26 H 0.21319 0.49553 0.12698 0.0
H27 H 0.18047 0.52235 0.05757 0.0
H28 H 0.18096 0.56806 0.08893 0.0
H29 H 0.2465 0.55856 0.25942 0.0
H30 H 0.27507 0.50157 0.90256 0.0
H31 H 0.27725 0.45525 0.89406 0.0
O32 O 0.2313 0.47868 0.28187 0.0
C33 C 0.28443 0.47125 0.38811 0.0
C34 C 0.26944 0.45035 0.0423 0.0
C35 C 0.27206 0.49043 0.96543 0.0
N36 N 0.26315 0.48803 0.1318 0.0
C37 C 0.26446 0.46254 0.1278 0.0
C38 C 0.26684 0.50197 0.05195 0.0
C39 C 0.2733 0.46444 0.96072 0.0
C40 C 0.27367 0.54566 0.54381 0.0
N41 N 0.27225 0.52029 0.55312 0.0
C42 C 0.29314 0.55904 0.58604 0.0
C43 C 0.31116 0.54628 0.63847 0.0
C44 C 0.30959 0.5204 0.64765 0.0
C45 C 0.28994 0.50761 0.60395 0.0
C46 C 0.22973 0.48424 0.77548 0.0
C47 C 0.23503 0.45896 0.60554 0.0
C48 C 0.23554 0.49696 0.69211 0.0
N49 N 0.2381 0.48431 0.6085 0.0
C50 C 0.22948 0.44559 0.68773 0.0
C51 C 0.22679 0.45837 0.77317 0.0
C52 C 0.21592 0.47384 0.34828 0.0
C53 C 0.21388 0.56628 0.1764 0.0
C54 C 0.21337 0.51533 0.14179 0.0
C55 C 0.19487 0.53046 0.1019 0.0
C56 C 0.19517 0.55611 0.11944 0.0
N57 N 0.23169 0.52545 0.19739 0.0
C58 C 0.23209 0.55057 0.21501 0.0
Co59 Co 0.49753 0.76115 0.51105 0.0
Co60 Co 0.49587 0.74865 0.7497 0.0
O61 O 0.47901 0.75477 0.62849 0.0
C62 C 0.46129 0.80358 0.51215 0.0
O63 O 0.46771 0.80849 0.60003 0.0
C64 C 0.46093 0.70516 0.74117 0.0
O65 O 0.46869 0.70023 0.65495 0.0
O66 O 0.51605 0.72134 0.69155 0.0
O67 O 0.52449 0.7371 0.54802 0.0
H68 H 0.57044 0.73291 0.95824 0.0
H69 H 0.44421 0.74645 0.50209 0.0
O70 O 0.47106 0.78516 0.46868 0.0
H71 H 0.48923 0.68279 0.31562 0.0
H72 H 0.50521 0.77814 0.16159 0.0
H73 H 0.5509 0.7694 0.46324 0.0
H74 H 0.51209 0.71737 0.39193 0.0
H75 H 0.48274 0.76797 0.30873 0.0
O76 O 0.4695 0.72396 0.78593 0.0
H77 H 0.54873 0.7421 0.80806 0.0
H78 H 0.47865 0.74067 0.94873 0.0
H79 H 0.57422 0.77873 0.31703 0.0
H80 H 0.42056 0.71215 0.4268 0.0
H81 H 0.55133 0.7832 0.16477 0.0
H82 H 0.44306 0.68005 0.33262 0.0
O83 O 0.51629 0.78886 0.57282 0.0
H84 H 0.41667 0.79615 0.81508 0.0
H85 H 0.50716 0.79154 0.87801 0.0
H86 H 0.48245 0.8252 0.95069 0.0
H87 H 0.43676 0.82777 0.91941 0.0
H88 H 0.44226 0.76262 0.74398 0.0
H89 H 0.49954 0.73071 0.09975 0.0
H90 H 0.54578 0.72706 0.10544 0.0
O91 O 0.52251 0.77367 0.71906 0.0
C92 C 0.52811 0.72119 0.6138 0.0
C93 C 0.55028 0.73456 0.95676 0.0
C94 C 0.51049 0.73329 0.03615 0.0
N95 N 0.51245 0.74204 0.86958 0.0
C96 C 0.53789 0.73987 0.872 0.0
C97 C 0.49875 0.73881 0.95028 0.0
C98 C 0.53644 0.73124 0.03928 0.0
C99 C 0.45411 0.73257 0.461 0.0
N100 N 0.47946 0.73397 0.45106 0.0
C101 C 0.44064 0.71317 0.4187 0.0
C102 C 0.45329 0.69514 0.36596 0.0
C103 C 0.47917 0.69664 0.35646 0.0
C104 C 0.49203 0.71625 0.40002 0.0
C105 C 0.51542 0.77605 0.22733 0.0
C106 C 0.54084 0.77099 0.39709 0.0
C107 C 0.50277 0.77043 0.31104 0.0
N108 N 0.5155 0.76794 0.39454 0.0
C109 C 0.55414 0.77639 0.31458 0.0
C110 C 0.54129 0.77894 0.22922 0.0
C111 C 0.52697 0.7895 0.65364 0.0
C112 C 0.43654 0.7953 0.82916 0.0
C113 C 0.4874 0.7926 0.86331 0.0
C114 C 0.47343 0.81169 0.905 0.0
C115 C 0.44782 0.81305 0.88758 0.0
N116 N 0.47621 0.7752 0.80647 0.0
C117 C 0.45111 0.77636 0.78912 0.0
Co118 Co 0.24567 1.00176 0.74543 0.0
Co119 Co 0.25631 1.00182 0.98794 0.0
O120 O 0.25141 0.98438 0.86648 0.0
C121 C 0.20222 0.96649 0.75217 0.0
O122 O 0.19829 0.97265 0.84096 0.0
C123 C 0.30099 0.9681 0.97807 0.0
O124 O 0.30304 0.97215 0.88677 0.0
O125 O 0.28195 0.02427 0.93083 0.0
O126 O 0.27097 0.02774 0.77812 0.0
H127 H 0.26719 0.07768 0.19395 0.0
H128 H 0.25766 0.94767 0.74557 0.0
O129 O 0.22039 0.97604 0.70685 0.0
H130 H 0.32385 0.9872 0.555 0.0
H131 H 0.22729 0.00602 0.39601 0.0
H132 H 0.2404 0.05484 0.6883 0.0
H133 H 0.29011 0.01263 0.62482 0.0
H134 H 0.238 0.98492 0.54569 0.0
O135 O 0.28337 0.97802 0.02532 0.0
H136 H 0.25828 0.05507 0.0453 0.0
H137 H 0.26597 0.98552 0.18724 0.0
H138 H 0.23057 0.07678 0.53933 0.0
H139 H 0.291 0.92149 0.67665 0.0
H140 H 0.22361 0.05229 0.39206 0.0
H141 H 0.32445 0.94129 0.58081 0.0
O142 O 0.2187 0.02267 0.80247 0.0
H143 H 0.21654 0.91862 0.05382 0.0
H144 H 0.21263 0.00926 0.11608 0.0
H145 H 0.18122 0.98143 0.18802 0.0
H146 H 0.18314 0.93572 0.15731 0.0
H147 H 0.24741 0.94721 0.98261 0.0
H148 H 0.2758 0.00736 0.33646 0.0
H149 H 0.27635 0.05378 0.34061 0.0
O150 O 0.22899 0.0259 0.95663 0.0
C151 C 0.28454 0.03379 0.84871 0.0
C152 C 0.26694 0.05745 0.19309 0.0
C153 C 0.27179 0.01799 0.27307 0.0
N154 N 0.26149 0.01901 0.10757 0.0
C155 C 0.26174 0.04455 0.10929 0.0
C156 C 0.26628 0.00572 0.18823 0.0
C157 C 0.27211 0.04403 0.27532 0.0
C158 C 0.27207 0.95638 0.70345 0.0
N159 N 0.27192 0.98163 0.68917 0.0
C160 C 0.29094 0.94148 0.66487 0.0
C161 C 0.30971 0.9526 0.61119 0.0
C162 C 0.3094 0.97837 0.59675 0.0
C163 C 0.29028 0.99268 0.63668 0.0
C164 C 0.23028 0.0169 0.4597 0.0
C165 C 0.23781 0.04409 0.62419 0.0
C166 C 0.23624 0.00504 0.54481 0.0
N167 N 0.23972 0.01862 0.62586 0.0
C168 C 0.23213 0.05661 0.54013 0.0
C169 C 0.22821 0.04286 0.45756 0.0
C170 C 0.21539 0.03146 0.88551 0.0
C171 C 0.21549 0.9385 0.06764 0.0
C172 C 0.21338 0.98944 0.10148 0.0
C173 C 0.19564 0.97375 0.14283 0.0
C174 C 0.19674 0.94811 0.12565 0.0
N175 N 0.23171 0.97988 0.04473 0.0
C176 C 0.23292 0.95477 0.02757 0.0
Co177 Co 0.00298 0.75658 0.25013 0.0
Co178 Co 1.00091 0.74409 0.01094 0.0
O179 O 0.01963 0.75079 0.12818 0.0
C180 C 0.03808 0.80006 0.24018 0.0
O181 O 0.03169 0.80366 0.15142 0.0
C182 C 0.03821 0.70251 0.01279 0.0
O183 O 0.03309 0.69864 0.10247 0.0
O184 O 0.98251 0.71624 0.07287 0.0
O185 O 0.97669 0.73103 0.21993 0.0
H186 H 0.92383 0.72577 0.81905 0.0
H187 H 0.05688 0.74425 0.24419 0.0
O188 O 0.02883 0.78193 0.28667 0.0
H189 H 0.0188 0.67913 0.44416 0.0
H190 H 1.00005 0.77374 0.60087 0.0
H191 H 0.95022 0.76247 0.30988 0.0
H192 H 0.99299 0.71276 0.37567 0.0
H193 H 0.02064 0.76425 0.44897 0.0
O194 O 0.02738 0.72008 0.9679 0.0
H195 H 0.94749 0.73551 0.96453 0.0
H196 H 0.01522 0.73718 0.80826 0.0
H197 H 0.92881 0.77125 0.46091 0.0
H198 H 0.0835 0.71107 0.3119 0.0
H199 H 0.9538 0.77705 0.60773 0.0
H200 H 0.06444 0.67817 0.41257 0.0
O201 O 0.98219 0.7836 0.19283 0.0
H202 H 0.07741 0.79346 0.92498 0.0
H203 H 0.98581 0.78781 0.89261 0.0
H204 H 0.00829 0.82266 0.81683 0.0
H205 H 0.05443 0.82561 0.83257 0.0
H206 H 0.05415 0.75896 1.00009 0.0
H207 H 0.99242 0.72657 0.66184 0.0
H208 H 0.94635 0.72119 0.66626 0.0
O209 O 0.97392 0.76808 0.04841 0.0
C210 C 0.97216 0.71529 0.15406 0.0
C211 C 0.94389 0.72824 0.81604 0.0
C212 C 0.98238 0.72872 0.7278 0.0
N213 N 0.98269 0.73709 0.89489 0.0
C214 C 0.95737 0.73388 0.89813 0.0
C215 C 0.99521 0.73458 0.8111 0.0
C216 C 0.95653 0.72564 0.73039 0.0
C217 C 0.04849 0.73005 0.28821 0.0
N218 N 0.02339 0.73039 0.30567 0.0
C219 C 0.06364 0.71128 0.3262 0.0
C220 C 0.05293 0.69281 0.38258 0.0
C221 C 0.02732 0.69332 0.40022 0.0
C222 C 0.01276 0.71234 0.36085 0.0
C223 C 0.98896 0.77119 0.53743 0.0
C224 C 0.96119 0.76468 0.37367 0.0
C225 C 1.00052 0.76591 0.4511 0.0
N226 N 0.98664 0.76274 0.37059 0.0
C227 C 0.94897 0.76976 0.45891 0.0
C228 C 0.963 0.77305 0.54122 0.0
C229 C 0.97022 0.78389 0.11466 0.0
C230 C 0.05731 0.79234 0.91741 0.0
C231 C 0.00587 0.78901 0.90018 0.0
C232 C 0.01851 0.80876 0.85688 0.0
C233 C 0.0444 0.81039 0.86569 0.0
N234 N 0.01868 0.77132 0.95048 0.0
C235 C 0.04406 0.77282 0.95956 0.0
Co236 Co 0.74548 0.00356 0.99308 0.0
Co237 Co 0.75784 0.00328 0.75426 0.0
O238 O 0.75176 0.02097 0.87353 0.0
C239 C 0.7015 0.03784 0.98726 0.0
O240 O 0.69548 0.02853 0.9042 0.0
C241 C 0.80102 0.03859 0.75952 0.0
O242 O 0.80589 0.03147 0.84659 0.0
O243 O 0.78527 0.98353 0.8144 0.0
O244 O 0.77004 0.97665 0.96022 0.0
H245 H 0.77429 0.92763 0.55214 0.0
H246 H 0.75943 0.05723 0.99482 0.0
O247 O 0.72102 0.03024 0.0302 0.0
H248 H 0.82325 0.01483 0.18921 0.0
H249 H 0.72777 0.9994 0.34283 0.0
H250 H 0.73828 0.95058 0.0491 0.0
H251 H 0.78916 0.99082 0.11512 0.0
H252 H 0.73767 0.02046 0.19238 0.0
O253 O 0.78237 0.02954 0.71524 0.0
H254 H 0.76491 0.95013 0.70055 0.0
H255 H 0.76517 0.01937 0.55375 0.0
H256 H 0.72913 0.9287 0.19868 0.0
H257 H 0.79328 0.08204 0.06771 0.0
H258 H 0.72376 0.95317 0.34693 0.0
H259 H 0.82548 0.06085 0.16588 0.0
O260 O 0.71822 0.98362 0.93383 0.0
H261 H 0.70952 0.08183 0.68601 0.0
H262 H 0.71428 0.99099 0.62982 0.0
H263 H 0.67951 0.01511 0.56062 0.0
H264 H 0.677 0.06092 0.58841 0.0
H265 H 0.74388 0.05689 0.75459 0.0
H266 H 0.77533 0.99772 0.40448 0.0
H267 H 0.77963 0.95149 0.40275 0.0
O268 O 0.73306 0.97668 0.78762 0.0
C269 C 0.78574 0.97236 0.89421 0.0
C270 C 0.77232 0.94777 0.55187 0.0
C271 C 0.7729 0.9871 0.469 0.0
N272 N 0.76436 0.98602 0.63582 0.0
C273 C 0.7669 0.9606 0.63561 0.0
C274 C 0.76727 0.99927 0.55388 0.0
C275 C 0.77536 0.96117 0.46811 0.0
C276 C 0.77336 0.04791 0.03762 0.0
N277 N 0.77227 0.02264 0.05101 0.0
C278 C 0.7925 0.06203 0.07856 0.0
C279 C 0.81058 0.05012 0.13353 0.0
C280 C 0.80938 0.02433 0.14658 0.0
C281 C 0.79003 0.0108 0.10427 0.0
C282 C 0.73022 0.98852 0.27883 0.0
C283 C 0.7363 0.96133 0.11353 0.0
C284 C 0.73573 1.00035 0.1933 0.0
N285 N 0.73875 0.98674 0.11207 0.0
C286 C 0.73099 0.94884 0.19794 0.0
C287 C 0.72793 0.96258 0.28105 0.0
C288 C 0.71752 0.97241 0.85409 0.0
C289 C 0.71042 0.06189 0.67331 0.0
C290 C 0.71324 0.01085 0.64278 0.0
C291 C 0.69355 0.02445 0.60308 0.0
C292 C 0.69216 0.05014 0.61865 0.0
N293 N 0.73107 0.02249 0.6964 0.0
C294 C 0.72986 0.04769 0.7118 0.0
Co295 Co 0.99872 0.25849 0.00615 0.0
Co296 Co 0.99892 0.24605 0.24605 0.0
O297 O 0.98127 0.25165 0.12579 0.0
C298 C 0.9625 0.30079 0.01542 0.0
O299 O 0.96892 0.3045 0.10413 0.0
C300 C 0.96437 0.20214 0.23666 0.0
O301 O 0.96883 0.1997 0.14573 0.0
O302 O 0.0202 0.2198 0.1863 0.0
O303 O 0.02571 0.23412 0.03848 0.0
H304 H 0.07493 0.23346 0.45011 0.0
H305 H 0.94517 0.24453 0.00233 0.0
O306 O 0.97218 0.28294 0.96845 0.0
H307 H 0.98787 0.18053 0.80974 0.0
H308 H 0.00341 0.2763 0.6565 0.0
H309 H 0.05164 0.26665 0.95202 0.0
H310 H 0.01179 0.21474 0.88413 0.0
H311 H 0.98218 0.26583 0.80604 0.0
O312 O 0.97431 0.21981 0.28381 0.0
H313 H 0.05224 0.24184 0.30126 0.0
H314 H 0.98286 0.23734 0.44593 0.0
H315 H 0.07371 0.27639 0.8034 0.0
H316 H 0.9205 0.21067 0.92897 0.0
H317 H 0.04953 0.28137 0.65428 0.0
H318 H 0.94187 0.17839 0.8317 0.0
O319 O 0.01824 0.286 0.0661 0.0
H320 H 0.91737 0.28871 0.316 0.0
H321 H 0.00829 0.28998 0.37241 0.0
H322 H 0.98181 0.32261 0.44422 0.0
H323 H 0.93597 0.32207 0.41632 0.0
H324 H 0.94463 0.25657 0.2449 0.0
H325 H 0.00476 0.22822 0.59563 0.0
H326 H 0.05113 0.2265 0.59862 0.0
O327 O 0.02407 0.27238 0.21468 0.0
C328 C 0.03084 0.21904 0.10557 0.0
C329 C 0.05472 0.23429 0.44981 0.0
C330 C 0.01534 0.23134 0.53148 0.0
N331 N 0.01626 0.24023 0.3649 0.0
C332 C 0.04177 0.23914 0.36582 0.0
C333 C 0.00304 0.23641 0.44636 0.0
C334 C 0.04136 0.23034 0.53308 0.0
C335 C 0.95457 0.2306 0.95979 0.0
N336 N 0.97986 0.23166 0.94729 0.0
C337 C 0.94052 0.21144 0.91862 0.0
C338 C 0.95253 0.19331 0.86421 0.0
C339 C 0.97834 0.19449 0.85191 0.0
C340 C 0.99179 0.21387 0.89445 0.0
C341 C 0.01416 0.27406 0.72091 0.0
C342 C 0.04103 0.26847 0.88721 0.0
C343 C 0.00223 0.26824 0.80593 0.0
N344 N 0.01567 0.26551 0.88769 0.0
C345 C 0.05362 0.27411 0.80335 0.0
C346 C 0.04004 0.27693 0.71975 0.0
C347 C 0.02855 0.28759 0.14738 0.0
C348 C 0.93732 0.28915 0.32868 0.0
C349 C 0.98842 0.28976 0.35923 0.0
C350 C 0.97349 0.30821 0.40046 0.0
C351 C 0.94777 0.30788 0.38488 0.0
N352 N 0.97804 0.27144 0.30424 0.0
C353 C 0.95284 0.27098 0.28876 0.0
Co354 Co 0.74152 0.50016 0.27657 0.0
Co355 Co 0.75481 0.50383 0.5161 0.0
O356 O 0.74756 0.48448 0.4005 0.0
C357 C 0.70355 0.45798 0.2889 0.0
O358 O 0.71012 0.45239 0.37579 0.0
C359 C 0.7965 0.46692 0.51253 0.0
O360 O 0.79956 0.47161 0.42204 0.0
O361 O 0.78224 0.52218 0.45116 0.0
O362 O 0.76829 0.5255 0.3018 0.0
H363 H 0.77318 0.58188 0.70234 0.0
H364 H 0.7533 0.44577 0.29094 0.0
O365 O 0.71429 0.47563 0.24417 0.0
H366 H 0.81685 0.48052 0.07626 0.0
H367 H 0.72325 0.50113 0.92625 0.0
H368 H 0.73764 0.55265 0.21108 0.0
H369 H 0.78443 0.50768 0.1452 0.0
H370 H 0.73184 0.48129 0.08045 0.0
O371 O 0.77928 0.47785 0.55884 0.0
H372 H 0.76355 0.55748 0.55847 0.0
H373 H 0.76235 0.49047 0.71932 0.0
H374 H 0.72947 0.57326 0.05792 0.0
H375 H 0.78515 0.41789 0.22279 0.0
H376 H 0.72214 0.54743 0.91422 0.0
H377 H 0.81729 0.43521 0.11456 0.0
O378 O 0.71563 0.52243 0.33288 0.0
H379 H 0.70799 0.42712 0.61907 0.0
H380 H 0.71079 0.5192 0.6326 0.0
H381 H 0.67679 0.49675 0.71368 0.0
H382 H 0.67525 0.45035 0.70739 0.0
H383 H 0.7415 0.45033 0.53799 0.0
H384 H 0.77256 0.51405 0.86437 0.0
H385 H 0.77774 0.56013 0.85674 0.0
O386 O 0.73055 0.53045 0.47844 0.0
C387 C 0.78369 0.53107 0.36761 0.0
C388 C 0.77083 0.56182 0.7067 0.0
C389 C 0.77048 0.52376 0.79764 0.0
N390 N 0.76219 0.52261 0.63052 0.0
C391 C 0.76528 0.54792 0.62553 0.0
C392 C 0.76479 0.51049 0.71514 0.0
C393 C 0.77342 0.54961 0.79327 0.0
C394 C 0.76692 0.45345 0.24304 0.0
N395 N 0.76667 0.47833 0.22123 0.0
C396 C 0.78506 0.43757 0.20505 0.0
C397 C 0.80312 0.4473 0.14452 0.0
C398 C 0.80289 0.47271 0.12306 0.0
C399 C 0.78449 0.48803 0.16252 0.0
C400 C 0.72642 0.51258 0.98839 0.0
C401 C 0.73468 0.54129 0.1487 0.0
C402 C 0.73125 0.50146 0.07596 0.0
N403 N 0.7354 0.51581 0.15467 0.0
C404 C 0.72997 0.55306 0.06224 0.0
C405 C 0.72582 0.53856 0.98167 0.0
C406 C 0.71524 0.53445 0.41089 0.0
C407 C 0.70844 0.44733 0.62229 0.0
C408 C 0.71013 0.49903 0.62861 0.0
C409 C 0.69089 0.48641 0.67514 0.0
C410 C 0.69006 0.46038 0.67174 0.0
N411 N 0.72807 0.48609 0.58009 0.0
C412 C 0.72742 0.46057 0.57677 0.0
Co413 Co 0.50617 0.25949 0.7367 0.0
Co414 Co 0.50156 0.24633 0.49589 0.0
O415 O 0.52118 0.25355 0.61123 0.0
C416 C 0.54665 0.29906 0.7181 0.0
O417 O 0.55172 0.29258 0.63066 0.0
C418 C 0.53918 0.2051 0.50327 0.0
O419 O 0.53771 0.20514 0.59597 0.0
O420 O 0.48214 0.21992 0.56217 0.0
O421 O 0.48165 0.23176 0.71488 0.0
H422 H 0.42273 0.23098 0.31052 0.0
H423 H 0.56089 0.24993 0.71819 0.0
O424 O 0.52989 0.28769 0.76535 0.0
H425 H 0.53014 0.18569 0.93872 0.0
H426 H 0.50703 0.27933 0.08595 0.0
H427 H 0.45409 0.26167 0.80759 0.0
H428 H 0.50128 0.21684 0.87103 0.0
H429 H 0.52606 0.27053 0.93045 0.0
O430 O 0.52636 0.22041 0.45428 0.0
H431 H 0.44757 0.23988 0.45395 0.0
H432 H 0.51455 0.23711 0.29327 0.0
H433 H 0.4343 0.27009 0.96214 0.0
H434 H 0.59046 0.21944 0.78526 0.0
H435 H 0.46084 0.27919 0.10244 0.0
H436 H 0.57514 0.18695 0.89632 0.0
O437 O 0.48254 0.2845 0.68211 0.0
H438 H 0.5799 0.28985 0.38956 0.0
H439 H 0.4878 0.29032 0.37654 0.0
H440 H 0.51143 0.32301 0.29263 0.0
H441 H 0.55783 0.3229 0.29866 0.0
H442 H 0.55553 0.25759 0.47325 0.0
H443 H 0.49048 0.22767 0.14862 0.0
H444 H 0.44421 0.22482 0.15641 0.0
O445 O 0.47605 0.27176 0.53242 0.0
C446 C 0.47469 0.21747 0.64737 0.0
C447 C 0.44287 0.2323 0.3061 0.0
C448 C 0.4809 0.23043 0.21526 0.0
N449 N 0.48246 0.23924 0.38196 0.0
C450 C 0.45703 0.23744 0.38702 0.0
C451 C 0.49443 0.2357 0.29752 0.0
C452 C 0.45494 0.22881 0.21971 0.0
C453 C 0.55407 0.23614 0.76733 0.0
N454 N 0.52933 0.23537 0.79097 0.0
C455 C 0.57091 0.21877 0.80468 0.0
C456 C 0.5623 0.2005 0.86675 0.0
C457 C 0.53705 0.19977 0.89048 0.0
C458 C 0.52076 0.21741 0.85156 0.0
C459 C 0.49528 0.27544 0.02524 0.0
C460 C 0.46576 0.26534 0.86857 0.0
C461 C 0.50593 0.27047 0.93694 0.0
N462 N 0.49119 0.26545 0.86 0.0
C463 C 0.45446 0.2702 0.9558 0.0
C464 C 0.46935 0.27533 0.03449 0.0
C465 C 0.47131 0.28597 0.60261 0.0
C466 C 0.55969 0.29009 0.38636 0.0
C467 C 0.50798 0.29024 0.38033 0.0
C468 C 0.52126 0.30876 0.33225 0.0
C469 C 0.5473 0.30866 0.3355 0.0
N470 N 0.52028 0.27207 0.43007 0.0
C471 C 0.54579 0.27182 0.43333 0.0
H472 H 0.44459 0.70878 0.92354 0.0
H473 H 0.41795 0.67991 0.00984 0.0
H474 H 0.41055 0.63407 0.76001 0.0
H475 H 0.43752 0.66303 0.67218 0.0
H476 H 0.36527 0.64133 0.85649 0.0
H477 H 0.44925 0.61697 0.92645 0.0
H478 H 0.49283 0.62264 0.97877 0.0
H479 H 0.4675 0.64403 0.25545 0.0
H480 H 0.4237 0.63944 0.20392 0.0
H481 H 0.31345 0.5366 0.07918 0.0
H482 H 0.34133 0.56394 0.99138 0.0
H483 H 0.3573 0.60529 0.24706 0.0
H484 H 0.33 0.57697 0.33682 0.0
H485 H 0.39835 0.60025 0.14572 0.0
H486 H 0.31446 0.62643 0.07509 0.0
H487 H 0.27082 0.61887 0.02633 0.0
H488 H 0.29582 0.59344 0.75422 0.0
H489 H 0.33967 0.60036 0.80177 0.0
C490 C 0.43731 0.69264 0.88634 0.0
C491 C 0.4434 0.68815 0.79082 0.0
C492 C 0.42209 0.6761 0.93614 0.0
C493 C 0.41253 0.65468 0.89179 0.0
C494 C 0.41784 0.65047 0.79564 0.0
C495 C 0.43328 0.66699 0.74564 0.0
C496 C 0.39735 0.6366 0.94689 0.0
C497 C 0.37259 0.63209 0.91903 0.0
C498 C 0.40675 0.62504 0.02989 0.0
C499 C 0.43312 0.62816 0.06083 0.0
C500 C 0.45293 0.62327 0.99804 0.0
C501 C 0.47769 0.62631 0.02757 0.0
C502 C 0.48293 0.6339 0.12018 0.0
C503 C 0.46341 0.63842 0.18348 0.0
C504 C 0.4386 0.63564 0.1541 0.0
C505 C 0.32292 0.55149 0.11696 0.0
C506 C 0.31928 0.55489 0.21471 0.0
C507 C 0.33881 0.56719 0.06647 0.0
C508 C 0.35089 0.58717 0.11185 0.0
C509 C 0.348 0.59013 0.21028 0.0
C510 C 0.33241 0.574 0.26151 0.0
C511 C 0.36619 0.60506 0.05581 0.0
C512 C 0.39098 0.60955 0.08343 0.0
C513 C 0.35678 0.61674 0.97291 0.0
C514 C 0.33038 0.61371 0.94236 0.0
C515 C 0.31066 0.61916 0.0049 0.0
C516 C 0.2859 0.61493 0.97754 0.0
C517 C 0.28059 0.60548 0.88748 0.0
C518 C 0.30001 0.60059 0.8241 0.0
C519 C 0.32482 0.6047 0.85116 0.0
H520 H 0.26145 0.60193 0.86676 0.0
H521 H 0.50212 0.63615 0.14305 0.0
H522 H 0.44721 0.80001 0.32671 0.0
H523 H 0.42022 0.82806 0.2373 0.0
H524 H 0.40837 0.87272 0.48768 0.0
H525 H 0.43554 0.84456 0.57855 0.0
H526 H 0.3647 0.86458 0.38643 0.0
H527 H 0.44853 0.89074 0.32418 0.0
H528 H 0.4924 0.88669 0.27376 0.0
H529 H 0.46846 0.8668 0.99337 0.0
H530 H 0.42445 0.86957 0.04308 0.0
H531 H 0.31236 0.9697 0.16521 0.0
H532 H 0.3399 0.9421 0.25394 0.0
H533 H 0.35755 0.90193 0.99739 0.0
H534 H 0.33045 0.93035 0.90689 0.0
H535 H 0.39809 0.90746 0.10215 0.0
H536 H 0.31457 0.87973 0.16359 0.0
H537 H 0.27053 0.8859 0.20936 0.0
H538 H 0.29352 0.90945 0.48666 0.0
H539 H 0.33777 0.90403 0.44206 0.0
C540 C 0.43886 0.81572 0.36329 0.0
C541 C 0.44373 0.8201 0.45995 0.0
C542 C 0.42345 0.8318 0.31174 0.0
C543 C 0.41254 0.85268 0.3554 0.0
C544 C 0.4167 0.85676 0.45249 0.0
C545 C 0.43227 0.84069 0.50427 0.0
C546 C 0.39709 0.87035 0.29897 0.0
C547 C 0.37207 0.87419 0.32494 0.0
C548 C 0.40656 0.88239 0.2172 0.0
C549 C 0.43311 0.88003 0.18786 0.0
C550 C 0.45259 0.88503 0.25224 0.0
C551 C 0.47751 0.88293 0.22377 0.0
C552 C 0.48323 0.87623 0.13064 0.0
C553 C 0.46403 0.87164 0.0658 0.0
C554 C 0.43908 0.87341 0.09416 0.0
C555 C 0.32211 0.95503 0.12739 0.0
C556 C 0.31901 0.952 0.02912 0.0
C557 C 0.33781 0.93917 0.17844 0.0
C558 C 0.35031 0.91947 0.13299 0.0
C559 C 0.34793 0.91688 0.0342 0.0
C560 C 0.33246 0.93309 0.98253 0.0
C561 C 0.36567 0.9016 0.18917 0.0
C562 C 0.39067 0.89773 0.1633 0.0
C563 C 0.35615 0.8894 0.2706 0.0
C564 C 0.32953 0.89171 0.29908 0.0
C565 C 0.31026 0.88634 0.23423 0.0
C566 C 0.28527 0.88976 0.25992 0.0
C567 C 0.27928 0.89827 0.35063 0.0
C568 C 0.29825 0.90305 0.41626 0.0
C569 C 0.32328 0.89979 0.39084 0.0
H570 H 0.25995 0.90118 0.37009 0.0
H571 H 0.50254 0.87476 0.10857 0.0
H572 H 0.04515 0.80477 0.43045 0.0
H573 H 0.07285 0.83341 0.51414 0.0
H574 H 0.09794 0.86362 0.24798 0.0
H575 H 0.06985 0.83494 0.16275 0.0
H576 H 0.13722 0.85163 0.38234 0.0
H577 H 0.05977 0.89755 0.3688 0.0
H578 H 0.01434 0.90288 0.38981 0.0
H579 H 0.02199 0.88877 0.68768 0.0
H580 H 0.06746 0.88304 0.66822 0.0
H581 H 0.20142 0.95603 0.56314 0.0
H582 H 0.17371 0.92797 0.47769 0.0
H583 H 0.13698 0.90854 0.7391 0.0
H584 H 0.16445 0.93741 0.82559 0.0
H585 H 0.10336 0.9147 0.60616 0.0
H586 H 0.17889 0.86818 0.62715 0.0
H587 H 0.22398 0.85946 0.6136 0.0
H588 H 0.22023 0.87087 0.31307 0.0
H589 H 0.17513 0.88003 0.32496 0.0
C590 C 0.05655 0.81742 0.38926 0.0
C591 C 0.05526 0.81753 0.28965 0.0
C592 C 0.07233 0.83388 0.43747 0.0
C593 C 0.08734 0.85075 0.3874 0.0
C594 C 0.08645 0.85075 0.28792 0.0
C595 C 0.07035 0.83444 0.23939 0.0
C596 C 0.10392 0.86825 0.43979 0.0
C597 C 0.12987 0.86575 0.43002 0.0
C598 C 0.09428 0.88594 0.50481 0.0
C599 C 0.06699 0.88968 0.5169 0.0
C600 C 0.05174 0.89542 0.43867 0.0
C601 C 0.02599 0.89854 0.45032 0.0
C602 C 0.01528 0.89612 0.53999 0.0
C603 C 0.03032 0.89064 0.61825 0.0
C604 C 0.05608 0.88748 0.60697 0.0
C605 C 0.18755 0.94578 0.60301 0.0
C606 C 0.1853 0.94893 0.70163 0.0
C607 C 0.17173 0.92958 0.55378 0.0
C608 C 0.15348 0.91572 0.60187 0.0
C609 C 0.15097 0.91895 0.70032 0.0
C610 C 0.16672 0.93541 0.74977 0.0
C611 C 0.13685 0.89827 0.5486 0.0
C612 C 0.11084 0.9007 0.55831 0.0
C613 C 0.14647 0.8802 0.48462 0.0
C614 C 0.17365 0.875 0.47709 0.0
C615 C 0.18771 0.86905 0.55826 0.0
C616 C 0.21326 0.86398 0.55086 0.0
C617 C 0.22495 0.8646 0.46255 0.0
C618 C 0.21113 0.87037 0.38143 0.0
C619 C 0.18557 0.87549 0.38845 0.0
H620 H 0.24472 0.86056 0.45699 0.0
H621 H 0.99533 0.89853 0.54885 0.0
H622 H 0.04543 0.69973 0.82183 0.0
H623 H 0.07372 0.67233 0.73499 0.0
H624 H 0.09964 0.64053 0.99772 0.0
H625 H 0.07107 0.66795 0.08597 0.0
H626 H 0.13856 0.65325 0.86701 0.0
H627 H 0.06087 0.60735 0.87018 0.0
H628 H 0.01551 0.60242 0.84524 0.0
H629 H 0.0244 0.61936 0.55012 0.0
H630 H 0.0698 0.62467 0.57356 0.0
H631 H 0.20291 0.54944 0.67962 0.0
H632 H 0.17548 0.57756 0.76627 0.0
H633 H 0.13896 0.59834 0.50538 0.0
H634 H 0.16605 0.56944 0.41791 0.0
H635 H 0.10526 0.59191 0.63503 0.0
H636 H 0.1809 0.63821 0.62313 0.0
H637 H 0.22592 0.64697 0.64013 0.0
H638 H 0.2213 0.63345 0.93916 0.0
H639 H 0.17626 0.62432 0.92382 0.0
C640 C 0.05714 0.68699 0.86157 0.0
C641 C 0.05591 0.68602 0.9611 0.0
C642 C 0.07327 0.67125 0.81157 0.0
C643 C 0.08865 0.65425 0.85975 0.0
C644 C 0.08787 0.65349 0.95916 0.0
C645 C 0.07149 0.6691 0.00943 0.0
C646 C 0.1054 0.63726 0.80569 0.0
C647 C 0.13133 0.63952 0.81743 0.0
C648 C 0.09594 0.62008 0.73827 0.0
C649 C 0.0687 0.61659 0.7238 0.0
C650 C 0.05312 0.61017 0.80009 0.0
C651 C 0.02741 0.60728 0.7862 0.0
C652 C 0.01707 0.61062 0.69618 0.0
C653 C 0.03244 0.61678 0.61981 0.0
C654 C 0.05816 0.6197 0.63333 0.0
C655 C 0.18915 0.56003 0.64021 0.0
C656 C 0.18679 0.5572 0.54147 0.0
C657 C 0.17351 0.57628 0.69008 0.0
C658 C 0.15535 0.59048 0.6425 0.0
C659 C 0.15286 0.58766 0.54385 0.0
C660 C 0.1684 0.57118 0.49381 0.0
C661 C 0.13863 0.60771 0.6964 0.0
C662 C 0.11264 0.60555 0.68465 0.0
C663 C 0.14807 0.62533 0.7626 0.0
C664 C 0.17524 0.63039 0.77216 0.0
C665 C 0.18952 0.63689 0.6924 0.0
C666 C 0.21503 0.64198 0.70177 0.0
C667 C 0.22644 0.6408 0.79066 0.0
C668 C 0.2124 0.63441 0.87037 0.0
C669 C 0.18688 0.62929 0.8614 0.0
H670 H 0.24616 0.64488 0.79776 0.0
H671 H 0.99716 0.60838 0.68559 0.0
H672 H 0.79765 0.05374 0.57549 0.0
H673 H 0.82588 0.08103 0.48884 0.0
H674 H 0.8707 0.09086 0.74014 0.0
H675 H 0.84236 0.06336 0.8283 0.0
H676 H 0.86201 0.13538 0.64368 0.0
H677 H 0.88933 0.0522 0.57135 0.0
H678 H 0.88503 0.00864 0.51657 0.0
H679 H 0.86321 0.03441 0.24086 0.0
H680 H 0.86646 0.07813 0.29483 0.0
H681 H 0.96543 0.19131 0.42427 0.0
H682 H 0.93833 0.16318 0.51194 0.0
H683 H 0.8991 0.14458 0.25402 0.0
H684 H 0.92712 0.1722 0.16461 0.0
H685 H 0.90489 0.10433 0.35521 0.0
H686 H 0.87534 0.18676 0.42502 0.0
H687 H 0.87891 0.23073 0.47597 0.0
H688 H 0.90378 0.20708 0.75072 0.0
H689 H 0.90084 0.16294 0.70094 0.0
C690 C 0.81346 0.06168 0.61287 0.0
C691 C 0.8178 0.05619 0.70902 0.0
C692 C 0.82965 0.07725 0.56286 0.0
C693 C 0.85059 0.08772 0.60758 0.0
C694 C 0.85469 0.08287 0.70415 0.0
C695 C 0.83852 0.06712 0.75437 0.0
C696 C 0.86814 0.10363 0.5529 0.0
C697 C 0.87168 0.12851 0.58138 0.0
C698 C 0.88015 0.09484 0.4699 0.0
C699 C 0.87786 0.06849 0.4376 0.0
C700 C 0.88324 0.0486 0.49944 0.0
C701 C 0.88097 0.02386 0.46851 0.0
C702 C 0.87365 0.01875 0.37548 0.0
C703 C 0.86862 0.03838 0.31314 0.0
C704 C 0.87065 0.06315 0.34391 0.0
C705 C 0.95103 0.18127 0.38597 0.0
C706 C 0.94822 0.18419 0.28756 0.0
C707 C 0.93544 0.16523 0.43643 0.0
C708 C 0.91617 0.15221 0.39029 0.0
C709 C 0.9137 0.15457 0.29144 0.0
C710 C 0.92969 0.17034 0.24037 0.0
C711 C 0.89873 0.13618 0.44561 0.0
C712 C 0.8952 0.11126 0.41736 0.0
C713 C 0.88651 0.145 0.52829 0.0
C714 C 0.88806 0.17153 0.55892 0.0
C715 C 0.88174 0.19093 0.49612 0.0
C716 C 0.88366 0.21588 0.5248 0.0
C717 C 0.89166 0.22169 0.61645 0.0
C718 C 0.89768 0.20254 0.6797 0.0
C719 C 0.89587 0.17755 0.65131 0.0
H720 H 0.89313 0.24102 0.63854 0.0
H721 H 0.87199 0.99959 0.35154 0.0
H722 H 0.93312 0.33771 0.09324 0.0
H723 H 0.90466 0.36617 0.00953 0.0
H724 H 0.92388 0.3312 0.74415 0.0
H725 H 0.95209 0.30281 0.82649 0.0
H726 H 0.92473 0.3831 0.73497 0.0
H727 H 0.86983 0.31756 0.84591 0.0
H728 H 0.85077 0.29059 0.96739 0.0
H729 H 0.82235 0.35534 0.1117 0.0
H730 H 0.84156 0.38272 0.99174 0.0
H731 H 0.83049 0.43388 0.43734 0.0
H732 H 0.85833 0.40553 0.52372 0.0
H733 H 0.82913 0.43304 0.78883 0.0
H734 H 0.80085 0.46064 0.70338 0.0
H735 H 0.83374 0.38534 0.80116 0.0
H736 H 0.8874 0.45123 0.70006 0.0
H737 H 0.90671 0.48021 0.58638 0.0
H738 H 0.93836 0.41823 0.43454 0.0
H739 H 0.9189 0.3888 0.54684 0.0
C740 C 0.93124 0.33607 0.01712 0.0
C741 C 0.94485 0.31793 0.96675 0.0
C742 C 0.91494 0.3523 0.96941 0.0
C743 C 0.91211 0.35074 0.87058 0.0
C744 C 0.92581 0.33277 0.82032 0.0
C745 C 0.94186 0.31646 0.8678 0.0
C746 C 0.8949 0.36774 0.81885 0.0
C747 C 0.90478 0.38342 0.74864 0.0
C748 C 0.86901 0.36866 0.83858 0.0
C749 C 0.85736 0.35219 0.91041 0.0
C750 C 0.85969 0.32606 0.90398 0.0
C751 C 0.84883 0.31069 0.97248 0.0
C752 C 0.83541 0.32125 0.04737 0.0
C753 C 0.83278 0.34719 0.05375 0.0
C754 C 0.84364 0.36264 0.98549 0.0
C755 C 0.83002 0.43385 0.51401 0.0
C756 C 0.81347 0.44957 0.56332 0.0
C757 C 0.84602 0.41772 0.56342 0.0
C758 C 0.84612 0.41733 0.66309 0.0
C759 C 0.82944 0.43289 0.71213 0.0
C760 C 0.81328 0.44875 0.66294 0.0
C761 C 0.8635 0.40078 0.71672 0.0
C762 C 0.85368 0.38514 0.78735 0.0
C763 C 0.88953 0.40022 0.69852 0.0
C764 C 0.90147 0.41781 0.63128 0.0
C765 C 0.89833 0.44377 0.64205 0.0
C766 C 0.90933 0.46028 0.57789 0.0
C767 C 0.9237 0.45109 0.50303 0.0
C768 C 0.92719 0.42533 0.49246 0.0
C769 C 0.91619 0.40872 0.5564 0.0
H770 H 0.93218 0.46392 0.45338 0.0
H771 H 0.82701 0.30932 0.10032 0.0
H772 H 0.6733 0.4727 0.14491 0.0
H773 H 0.6447 0.44711 0.05152 0.0
H774 H 0.66473 0.38246 0.21807 0.0
H775 H 0.69228 0.40852 0.3155 0.0
H776 H 0.6522 0.41276 0.93803 0.0
H777 H 0.61954 0.33716 0.20644 0.0
H778 H 0.60954 0.33282 0.376 0.0
H779 H 0.59541 0.41167 0.39512 0.0
H780 H 0.60492 0.41646 0.22527 0.0
H781 H 0.59579 0.31114 0.68883 0.0
H782 H 0.62165 0.33927 0.78466 0.0
H783 H 0.55701 0.35894 0.95183 0.0
H784 H 0.53167 0.32975 0.86014 0.0
H785 H 0.59141 0.35162 0.06486 0.0
H786 H 0.58741 0.39904 0.77787 0.0
H787 H 0.59209 0.40853 0.60793 0.0
H788 H 0.67092 0.39443 0.62646 0.0
H789 H 0.66671 0.38454 0.79617 0.0
C790 C 0.67129 0.45309 0.16255 0.0
C791 C 0.68493 0.44261 0.23773 0.0
C792 C 0.65502 0.43841 0.10873 0.0
C793 C 0.65234 0.41275 0.12744 0.0
C794 C 0.66591 0.40227 0.20313 0.0
C795 C 0.68176 0.41715 0.25869 0.0
C796 C 0.63624 0.39701 0.0647 0.0
C797 C 0.63883 0.39946 0.96601 0.0
C798 C 0.61857 0.37973 0.10048 0.0
C799 C 0.61328 0.37721 0.20325 0.0
C800 C 0.61431 0.35359 0.24678 0.0
C801 C 0.6087 0.35104 0.34293 0.0
C802 C 0.60192 0.37196 0.39632 0.0
C803 C 0.60075 0.39549 0.35369 0.0
C804 C 0.60629 0.39814 0.25749 0.0
C805 C 0.58711 0.32174 0.74533 0.0
C806 C 0.56176 0.31826 0.76717 0.0
C807 C 0.60188 0.33792 0.79998 0.0
C808 C 0.59136 0.35151 0.87557 0.0
C809 C 0.56575 0.34861 0.89475 0.0
C810 C 0.55121 0.332 0.8419 0.0
C811 C 0.60703 0.3677 0.93818 0.0
C812 C 0.60463 0.36507 0.03687 0.0
C813 C 0.62421 0.38546 0.9024 0.0
C814 C 0.62668 0.39077 0.79964 0.0
C815 C 0.6057 0.3977 0.74552 0.0
C816 C 0.60829 0.40323 0.64927 0.0
C817 C 0.63179 0.40206 0.60646 0.0
C818 C 0.65274 0.39531 0.65972 0.0
C819 C 0.65026 0.38975 0.75593 0.0
H820 H 0.63378 0.40645 0.53208 0.0
H821 H 0.5975 0.36992 0.47065 0.0
H822 H 0.65352 0.0513 0.94009 0.0
H823 H 0.62572 0.07952 0.02699 0.0
H824 H 0.68454 0.09443 0.22865 0.0
H825 H 0.71207 0.06576 0.14409 0.0
H826 H 0.64276 0.08634 0.3188 0.0
H827 H 0.66612 0.13688 0.04893 0.0
H828 H 0.6703 0.14568 0.87828 0.0
H829 H 0.59089 0.13873 0.8429 0.0
H830 H 0.58626 0.12961 0.01318 0.0
H831 H 0.58517 0.18817 0.55848 0.0
H832 H 0.61326 0.16061 0.46979 0.0
H833 H 0.55743 0.15304 0.25025 0.0
H834 H 0.53036 0.18214 0.33522 0.0
H835 H 0.59786 0.15698 0.16826 0.0
H836 H 0.57352 0.10579 0.43358 0.0
H837 H 0.56831 0.0956 0.6027 0.0
H838 H 0.64755 0.10166 0.64534 0.0
H839 H 0.65321 0.11217 0.47669 0.0
C840 C 0.66058 0.06075 0.00251 0.0
C841 C 0.68503 0.05626 0.03504 0.0
C842 C 0.64468 0.07695 0.05208 0.0
C843 C 0.65306 0.08935 0.13414 0.0
C844 C 0.67757 0.08508 0.16583 0.0
C845 C 0.69335 0.06872 0.11705 0.0
C846 C 0.63627 0.1063 0.18872 0.0
C847 C 0.63314 0.10197 0.28611 0.0
C848 C 0.62313 0.12629 0.14578 0.0
C849 C 0.62588 0.13231 0.04371 0.0
C850 C 0.64956 0.1371 0.00469 0.0
C851 C 0.65201 0.14217 0.90802 0.0
C852 C 0.63088 0.14269 0.84974 0.0
C853 C 0.60725 0.13828 0.88811 0.0
C854 C 0.6047 0.1332 0.98471 0.0
C855 C 0.57896 0.18047 0.49145 0.0
C856 C 0.55562 0.18717 0.45375 0.0
C857 C 0.59493 0.16455 0.44092 0.0
C858 C 0.58741 0.15415 0.35364 0.0
C859 C 0.56386 0.16072 0.31698 0.0
C860 C 0.5483 0.17727 0.36583 0.0
C861 C 0.60414 0.13702 0.29887 0.0
C862 C 0.60733 0.14132 0.2013 0.0
C863 C 0.6171 0.11679 0.34149 0.0
C864 C 0.61375 0.11003 0.44264 0.0
C865 C 0.58982 0.10507 0.47911 0.0
C866 C 0.58679 0.09923 0.57489 0.0
C867 C 0.60758 0.09807 0.63478 0.0
C868 C 0.63146 0.10261 0.5989 0.0
C869 C 0.63459 0.10848 0.5032 0.0
H870 H 0.60519 0.09361 0.70895 0.0
H871 H 0.63281 0.14655 0.7749 0.0
H872 H 0.28223 0.43075 0.50421 0.0
H873 H 0.31529 0.40079 0.53924 0.0
H874 H 0.36476 0.4396 0.34835 0.0
H875 H 0.33112 0.46897 0.30923 0.0
H876 H 0.37317 0.39315 0.33062 0.0
H877 H 0.36779 0.4465 0.59806 0.0
H878 H 0.34714 0.46952 0.72752 0.0
H879 H 0.32422 0.40025 0.85342 0.0
H880 H 0.34448 0.37677 0.72403 0.0
H881 H 0.4679 0.33184 0.68876 0.0
H882 H 0.43803 0.36534 0.65269 0.0
H883 H 0.40066 0.31689 0.453 0.0
H884 H 0.43106 0.28408 0.48504 0.0
H885 H 0.39104 0.37301 0.66692 0.0
H886 H 0.37807 0.3471 0.26853 0.0
H887 H 0.40281 0.32776 0.14057 0.0
H888 H 0.47074 0.3506 0.27781 0.0
H889 H 0.44644 0.37038 0.40578 0.0
C890 C 0.3001 0.43283 0.46921 0.0
C891 C 0.30413 0.45231 0.40436 0.0
C892 C 0.31909 0.41577 0.48986 0.0
C893 C 0.34283 0.41825 0.44855 0.0
C894 C 0.34669 0.43732 0.38165 0.0
C895 C 0.32746 0.4541 0.3593 0.0
C896 C 0.36352 0.40099 0.47575 0.0
C897 C 0.3771 0.38885 0.40417 0.0
C898 C 0.36935 0.39587 0.57182 0.0
C899 C 0.35753 0.40987 0.65091 0.0
C900 C 0.35825 0.43616 0.65311 0.0
C901 C 0.3466 0.4493 0.72646 0.0
C902 C 0.33432 0.43636 0.79851 0.0
C903 C 0.33373 0.41024 0.79752 0.0
C904 C 0.34533 0.39701 0.72426 0.0
C905 C 0.45323 0.32838 0.63745 0.0
C906 C 0.45201 0.30546 0.58883 0.0
C907 C 0.43616 0.34752 0.61688 0.0
C908 C 0.4174 0.34393 0.54828 0.0
C909 C 0.41541 0.3205 0.5038 0.0
C910 C 0.43274 0.30165 0.52266 0.0
C911 C 0.40009 0.36462 0.52174 0.0
C912 C 0.38721 0.37746 0.59342 0.0
C913 C 0.39563 0.37112 0.42585 0.0
C914 C 0.41039 0.36006 0.34717 0.0
C915 C 0.39828 0.34817 0.27103 0.0
C916 C 0.41224 0.33708 0.19858 0.0
C917 C 0.43833 0.33787 0.20122 0.0
C918 C 0.45053 0.34991 0.27599 0.0
C919 C 0.43667 0.36106 0.3485 0.0
H920 H 0.4491 0.3292 0.14525 0.0
H921 H 0.32532 0.44657 0.85523 0.0
H922 H 0.7054 0.95002 0.68585 0.0
H923 H 0.67223 0.91992 0.6549 0.0
H924 H 0.65214 0.92065 0.95023 0.0
H925 H 0.68497 0.95157 0.9821 0.0
H926 H 0.65835 0.87052 0.85386 0.0
H927 H 0.61582 0.95003 0.8246 0.0
H928 H 0.61138 0.99285 0.76237 0.0
H929 H 0.60873 0.96415 0.47843 0.0
H930 H 0.61358 0.92115 0.53896 0.0
H931 H 0.54727 0.80223 0.82473 0.0
H932 H 0.57827 0.83409 0.85845 0.0
H933 H 0.58203 0.85248 0.56143 0.0
H934 H 0.54962 0.82139 0.52753 0.0
H935 H 0.58467 0.89347 0.65832 0.0
H936 H 0.62739 0.81545 0.67641 0.0
H937 H 0.63456 0.77198 0.72757 0.0
H938 H 0.64038 0.7963 0.01663 0.0
H939 H 0.63288 0.8399 0.96736 0.0
C940 C 0.69388 0.94404 0.74446 0.0
C941 C 0.6977 0.95355 0.83642 0.0
C942 C 0.67495 0.92674 0.72647 0.0
C943 C 0.6597 0.91823 0.80015 0.0
C944 C 0.66374 0.9271 0.89246 0.0
C945 C 0.68243 0.94482 0.91038 0.0
C946 C 0.63946 0.90014 0.77988 0.0
C947 C 0.642 0.87555 0.8125 0.0
C948 C 0.61875 0.9066 0.72264 0.0
C949 C 0.6153 0.93239 0.68628 0.0
C950 C 0.61449 0.95286 0.74885 0.0
C951 C 0.61187 0.97716 0.7139 0.0
C952 C 0.60985 0.98122 0.61649 0.0
C953 C 0.61033 0.96097 0.55387 0.0
C954 C 0.61299 0.93663 0.58847 0.0
C955 C 0.55438 0.81317 0.76635 0.0
C956 C 0.5458 0.80921 0.67329 0.0
C957 C 0.5724 0.83129 0.78578 0.0
C958 C 0.58298 0.84538 0.71235 0.0
C959 C 0.57423 0.8418 0.61938 0.0
C960 C 0.55574 0.82396 0.60003 0.0
C961 C 0.60328 0.86364 0.73309 0.0
C962 C 0.60089 0.8883 0.7001 0.0
C963 C 0.62445 0.85708 0.7884 0.0
C964 C 0.62935 0.83093 0.81825 0.0
C965 C 0.63005 0.81152 0.75096 0.0
C966 C 0.63419 0.78685 0.77961 0.0
C967 C 0.63786 0.78137 0.87532 0.0
C968 C 0.6375 0.80057 0.94253 0.0
C969 C 0.63334 0.82527 0.91427 0.0
H970 H 0.64103 0.76226 0.89737 0.0
H971 H 0.60785 1.00005 0.58955 0.0
H972 H 0.03864 0.175 0.20092 0.0
H973 H 0.06878 0.14208 0.1624 0.0
H974 H 0.09659 0.18642 0.93033 0.0
H975 H 0.06599 0.21879 0.96596 0.0
H976 H 0.09176 0.14058 0.87427 0.0
H977 H 0.1289 0.17947 0.15161 0.0
H978 H 0.12848 0.1941 0.31743 0.0
H979 H 0.11296 0.11944 0.41209 0.0
H980 H 0.11325 0.10444 0.24717 0.0
H981 H 0.20375 0.07298 0.78259 0.0
H982 H 0.17209 0.10456 0.81978 0.0
H983 H 0.14832 0.06083 0.06014 0.0
H984 H 0.18089 0.03015 0.02588 0.0
H985 H 0.15028 0.10583 0.11273 0.0
H986 H 0.11349 0.06657 0.83661 0.0
H987 H 0.11329 0.05177 0.67099 0.0
H988 H 0.1274 0.12652 0.57418 0.0
H989 H 0.12768 0.14169 0.73884 0.0
C990 C 0.0513 0.17778 0.1421 0.0
C991 C 0.04992 0.19955 0.08671 0.0
C992 C 0.06859 0.15897 0.12025 0.0
C993 C 0.08524 0.16184 0.04403 0.0
C994 C 0.08396 0.18368 0.98928 0.0
C995 C 0.06647 0.20225 0.01006 0.0
C996 C 0.1038 0.14208 0.01984 0.0
C997 C 0.10473 0.13317 0.92628 0.0
C998 C 0.12038 0.13191 0.08781 0.0
C999 C 0.12094 0.14087 0.18712 0.0
C1000 C 0.12538 0.16621 0.20791 0.0
C1001 C 0.1252 0.17456 0.30178 0.0
C1002 C 0.12072 0.15773 0.3754 0.0
C1003 C 0.11653 0.13248 0.35528 0.0
C1004 C 0.11676 0.12403 0.26164 0.0
C1005 C 0.19156 0.07008 0.84269 0.0
C1006 C 0.19474 0.04921 0.90155 0.0
C1007 C 0.17336 0.08806 0.86381 0.0
C1008 C 0.15742 0.08502 0.94222 0.0
C1009 C 0.16036 0.06378 0.99959 0.0
C1010 C 0.17895 0.0462 0.97994 0.0
C1011 C 0.1383 0.10426 0.96693 0.0
C1012 C 0.13727 0.11312 0.06064 0.0
C1013 C 0.12155 0.11432 0.89912 0.0
C1014 C 0.12075 0.10523 0.79998 0.0
C1015 C 0.11657 0.07982 0.77987 0.0
C1016 C 0.1164 0.07137 0.68613 0.0
C1017 C 0.1203 0.08818 0.61196 0.0
C1018 C 0.12427 0.1135 0.63141 0.0
C1019 C 0.12437 0.12205 0.72492 0.0
H1020 H 0.12025 0.0816 0.53946 0.0
H1021 H 0.1205 0.16424 0.44798 0.0
H1022 H 0.94993 0.68308 0.02742 0.0
H1023 H 0.91882 0.65066 0.06118 0.0
H1024 H 0.92183 0.66922 0.35801 0.0
H1025 H 0.95216 0.70205 0.32517 0.0
H1026 H 0.92434 0.61554 0.31161 0.0
H1027 H 0.87576 0.6903 0.24913 0.0
H1028 H 0.86327 0.72654 0.15231 0.0
H1029 H 0.84115 0.67741 0.92656 0.0
H1030 H 0.8539 0.64086 0.0216 0.0
H1031 H 0.81714 0.55328 0.4896 0.0
H1032 H 0.84998 0.5833 0.45093 0.0
H1033 H 0.82976 0.5789 0.15549 0.0
H1034 H 0.79637 0.5498 0.19382 0.0
H1035 H 0.83722 0.62474 0.19608 0.0
H1036 H 0.88357 0.55007 0.25118 0.0
H1037 H 0.89832 0.51262 0.33628 0.0
H1038 H 0.92665 0.55883 0.5609 0.0
H1039 H 0.91172 0.59655 0.47786 0.0
C1040 C 0.94407 0.68023 0.09995 0.0
C1041 C 0.95376 0.69514 0.17358 0.0
C1042 C 0.92628 0.6617 0.11905 0.0
C1043 C 0.91813 0.65752 0.21215 0.0
C1044 C 0.92802 0.67205 0.28581 0.0
C1045 C 0.9454 0.69085 0.26668 0.0
C1046 C 0.89872 0.63853 0.23289 0.0
C1047 C 0.90521 0.61759 0.28731 0.0
C1048 C 0.87401 0.64094 0.1987 0.0
C1049 C 0.86604 0.66287 0.14205 0.0
C1050 C 0.86844 0.68723 0.17854 0.0
C1051 C 0.86127 0.70783 0.12404 0.0
C1052 C 0.85149 0.70429 0.03322 0.0
C1053 C 0.84877 0.68012 0.99686 0.0
C1054 C 0.85595 0.65946 0.05102 0.0
C1055 C 0.81973 0.55862 0.41633 0.0
C1056 C 0.80413 0.5489 0.34488 0.0
C1057 C 0.83865 0.57572 0.39417 0.0
C1058 C 0.84269 0.58316 0.29993 0.0
C1059 C 0.82712 0.5735 0.22869 0.0
C1060 C 0.80804 0.55668 0.25084 0.0
C1061 C 0.86267 0.60149 0.27555 0.0
C1062 C 0.85632 0.62243 0.22039 0.0
C1063 C 0.88765 0.59881 0.30775 0.0
C1064 C 0.8963 0.57613 0.35868 0.0
C1065 C 0.89272 0.55224 0.31918 0.0
C1066 C 0.90115 0.53096 0.36696 0.0
C1067 C 0.91338 0.53335 0.45398 0.0
C1068 C 0.91715 0.55701 0.49352 0.0
C1069 C 0.90872 0.57835 0.44611 0.0
H1070 H 0.92004 0.51689 0.49055 0.0
H1071 H 0.84596 0.72026 0.99113 0.0
H1072 H 0.32013 0.05063 0.97464 0.0
H1073 H 0.35366 0.08072 0.94465 0.0
H1074 H 0.32781 0.08958 0.65725 0.0
H1075 H 0.29461 0.05945 0.68575 0.0
H1076 H 0.3777 0.08455 0.66293 0.0
H1077 H 0.31554 0.1335 0.82995 0.0
H1078 H 0.28761 0.14275 0.96431 0.0
H1079 H 0.3508 0.14608 0.15176 0.0
H1080 H 0.37907 0.13652 0.01868 0.0
H1081 H 0.44291 0.19348 0.52515 0.0
H1082 H 0.41151 0.16198 0.56301 0.0
H1083 H 0.43439 0.16378 0.85618 0.0
H1084 H 0.46468 0.19634 0.81967 0.0
H1085 H 0.38732 0.16192 0.85337 0.0
H1086 H 0.44995 0.11421 0.69174 0.0
H1087 H 0.47883 0.10375 0.56165 0.0
H1088 H 0.41683 0.09622 0.37033 0.0
H1089 H 0.38759 0.10696 0.49901 0.0
C1090 C 0.32153 0.05902 0.9051 0.0
C1091 C 0.30459 0.05255 0.83274 0.0
C1092 C 0.34069 0.07628 0.88814 0.0
C1093 C 0.34317 0.08756 0.7988 0.0
C1094 C 0.32633 0.0811 0.72663 0.0
C1095 C 0.30726 0.06387 0.74334 0.0
C1096 C 0.36328 0.10607 0.77962 0.0
C1097 C 0.37968 0.1016 0.70398 0.0
C1098 C 0.36635 0.12795 0.83488 0.0
C1099 C 0.34938 0.13407 0.91454 0.0
C1100 C 0.32345 0.13606 0.89993 0.0
C1101 C 0.30757 0.14137 0.97584 0.0
C1102 C 0.31742 0.14494 0.06656 0.0
C1103 C 0.34319 0.14329 0.08149 0.0
C1104 C 0.35915 0.13794 0.00584 0.0
C1105 C 0.44136 0.18707 0.59761 0.0
C1106 C 0.45649 0.19736 0.66922 0.0
C1107 C 0.42345 0.1689 0.61919 0.0
C1108 C 0.4208 0.16 0.71234 0.0
C1109 C 0.43599 0.17022 0.78376 0.0
C1110 C 0.45347 0.1888 0.76263 0.0
C1111 C 0.4018 0.14056 0.73594 0.0
C1112 C 0.38555 0.14483 0.81246 0.0
C1113 C 0.39907 0.11832 0.68216 0.0
C1114 C 0.4166 0.11159 0.60488 0.0
C1115 C 0.44249 0.11046 0.62181 0.0
C1116 C 0.45892 0.10447 0.54833 0.0
C1117 C 0.44968 0.09938 0.45775 0.0
C1118 C 0.42397 0.10019 0.44052 0.0
C1119 C 0.40745 0.1062 0.51372 0.0
H1120 H 0.46243 0.09476 0.40094 0.0
H1121 H 0.30509 0.14902 0.12525 0.0
H1122 H 0.83242 0.96842 0.81473 0.0
H1123 H 0.86503 0.93787 0.85338 0.0
H1124 H 0.81515 0.9022 0.0515 0.0
H1125 H 0.78322 0.93328 0.0168 0.0
H1126 H 0.85725 0.90399 0.12886 0.0
H1127 H 0.82998 0.87867 0.81872 0.0
H1128 H 0.82122 0.88355 0.64822 0.0
H1129 H 0.89846 0.90043 0.59717 0.0
H1130 H 0.90761 0.89604 0.76755 0.0
H1131 H 0.9303 0.78173 0.99516 0.0
H1132 H 0.89984 0.81435 0.96099 0.0
H1133 H 0.93746 0.86387 0.15628 0.0
H1134 H 0.9674 0.83067 0.1942 0.0
H1135 H 0.90275 0.85633 0.88211 0.0
H1136 H 0.89712 0.90764 0.2431 0.0
H1137 H 0.90138 0.8986 0.41355 0.0
H1138 H 0.88194 0.82184 0.3632 0.0
H1139 H 0.87719 0.83052 0.19264 0.0
C1140 C 0.82844 0.95397 0.86619 0.0
C1141 C 0.80524 0.95327 0.91262 0.0
C1142 C 0.84707 0.93644 0.8881 0.0
C1143 C 0.84258 0.91744 0.95486 0.0
C1144 C 0.81927 0.91668 1.0003 0.0
C1145 C 0.80092 0.93445 0.98001 0.0
C1146 C 0.86202 0.89841 0.97875 0.0
C1147 C 0.86719 0.8936 0.0747 0.0
C1148 C 0.87493 0.88456 0.90857 0.0
C1149 C 0.86942 0.88731 0.80608 0.0
C1150 C 0.84506 0.88363 0.77123 0.0
C1151 C 0.84002 0.88628 0.67457 0.0
C1152 C 0.85925 0.89236 0.6119 0.0
C1153 C 0.88357 0.89577 0.64575 0.0
C1154 C 0.88869 0.8932 0.74236 0.0
C1155 C 0.93198 0.79949 0.03157 0.0
C1156 C 0.9512 0.80356 0.09783 0.0
C1157 C 0.91459 0.81822 0.01156 0.0
C1158 C 0.91613 0.84166 0.05623 0.0
C1159 C 0.93545 0.84584 0.12215 0.0
C1160 C 0.95262 0.82686 0.14371 0.0
C1161 C 0.89763 0.86159 0.03222 0.0
C1162 C 0.89282 0.86674 0.93626 0.0
C1163 C 0.8844 0.87513 0.10239 0.0
C1164 C 0.88712 0.86968 0.20491 0.0
C1165 C 0.8937 0.88885 0.26845 0.0
C1166 C 0.89619 0.88379 0.3651 0.0
C1167 C 0.89202 0.85964 0.39917 0.0
C1168 C 0.88526 0.84052 0.33668 0.0
C1169 C 0.88269 0.84549 0.23998 0.0
H1170 H 0.89397 0.85576 0.47401 0.0
H1171 H 0.85533 0.89437 0.53708 0.0
H1172 H 0.0504 0.31938 0.01894 0.0
H1173 H 0.08132 0.35217 0.05126 0.0
H1174 H 0.07856 0.33489 0.34902 0.0
H1175 H 0.0484 0.30182 0.31776 0.0
H1176 H 0.07613 0.38787 0.30294 0.0
H1177 H 0.12462 0.31328 0.23807 0.0
H1178 H 0.13696 0.27697 0.14098 0.0
H1179 H 0.15829 0.32596 0.91454 0.0
H1180 H 0.1457 0.36256 0.00985 0.0
H1181 H 0.18357 0.45162 0.4737 0.0
H1182 H 0.15106 0.42084 0.43847 0.0
H1183 H 0.16959 0.4245 0.14154 0.0
H1184 H 0.20277 0.45409 0.17654 0.0
H1185 H 0.16282 0.37888 0.18361 0.0
H1186 H 0.11598 0.45348 0.24191 0.0
H1187 H 0.10237 0.49078 0.33078 0.0
H1188 H 0.07638 0.44416 0.55736 0.0
H1189 H 0.09016 0.40657 0.47039 0.0
C1190 C 0.05628 0.32262 0.09136 0.0
C1191 C 0.04674 0.30799 0.16573 0.0
C1192 C 0.07394 0.34134 0.10963 0.0
C1193 C 0.08211 0.34595 0.20258 0.0
C1194 C 0.07234 0.33172 0.27694 0.0
C1195 C 0.05507 0.31277 0.25868 0.0
C1196 C 0.10151 0.365 0.22256 0.0
C1197 C 0.09517 0.38589 0.27766 0.0
C1198 C 0.12611 0.3626 0.18753 0.0
C1199 C 0.13396 0.34063 0.13067 0.0
C1200 C 0.13174 0.3163 0.16727 0.0
C1201 C 0.13881 0.29567 0.11262 0.0
C1202 C 0.14833 0.29915 0.02153 0.0
C1203 C 0.15087 0.32329 0.98504 0.0
C1204 C 0.14379 0.34398 0.03936 0.0
C1205 C 0.18067 0.44593 0.40087 0.0
C1206 C 0.19569 0.4556 0.32795 0.0
C1207 C 0.16196 0.42841 0.38068 0.0
C1208 C 0.15751 0.42059 0.28697 0.0
C1209 C 0.17255 0.43019 0.21435 0.0
C1210 C 0.19148 0.44733 0.23458 0.0
C1211 C 0.13759 0.40207 0.26425 0.0
C1212 C 0.14381 0.38114 0.20871 0.0
C1213 C 0.11275 0.40468 0.29769 0.0
C1214 C 0.10433 0.42723 0.35002 0.0
C1215 C 0.10752 0.45119 0.31099 0.0
C1216 C 0.09975 0.47238 0.36098 0.0
C1217 C 0.08857 0.46985 0.44976 0.0
C1218 C 0.08507 0.4461 0.48863 0.0
C1219 C 0.09284 0.42484 0.43899 0.0
H1220 H 0.08257 0.48628 0.48836 0.0
H1221 H 0.15379 0.28316 0.97932 0.0
H1222 H 0.53167 0.67466 0.69441 0.0
H1223 H 0.56251 0.64208 0.65901 0.0
H1224 H 0.59931 0.69187 0.46351 0.0
H1225 H 0.56801 0.72383 0.49516 0.0
H1226 H 0.59737 0.64957 0.38619 0.0
H1227 H 0.62181 0.67737 0.69585 0.0
H1228 H 0.61684 0.68664 0.86591 0.0
H1229 H 0.59971 0.60956 0.91999 0.0
H1230 H 0.60418 0.59991 0.75005 0.0
H1231 H 0.71788 0.57466 0.5287 0.0
H1232 H 0.68587 0.60599 0.55945 0.0
H1233 H 0.63629 0.56885 0.36305 0.0
H1234 H 0.66893 0.53806 0.3284 0.0
H1235 H 0.64376 0.60403 0.63632 0.0
H1236 H 0.59348 0.60992 0.27272 0.0
H1237 H 0.60286 0.60554 0.10261 0.0
H1238 H 0.67984 0.62342 0.15588 0.0
H1239 H 0.67083 0.62831 0.32613 0.0
C1240 C 0.54643 0.67864 0.64428 0.0
C1241 C 0.5474 0.7018 0.5976 0.0
C1242 C 0.56411 0.66003 0.62424 0.0
C1243 C 0.58347 0.66451 0.55907 0.0
C1244 C 0.58454 0.6878 0.51352 0.0
C1245 C 0.56665 0.70614 0.53203 0.0
C1246 C 0.60248 0.64501 0.53661 0.0
C1247 C 0.6075 0.63961 0.44104 0.0
C1248 C 0.61598 0.63214 0.60781 0.0
C1249 C 0.61305 0.63797 0.71 0.0
C1250 C 0.61676 0.66244 0.74388 0.0
C1251 C 0.61407 0.66776 0.84031 0.0
C1252 C 0.60791 0.64871 0.90373 0.0
C1253 C 0.60444 0.62431 0.87083 0.0
C1254 C 0.60704 0.6189 0.77446 0.0
C1255 C 0.70024 0.57327 0.49132 0.0
C1256 C 0.69597 0.55393 0.42579 0.0
C1257 C 0.68187 0.59117 0.50933 0.0
C1258 C 0.6586 0.59 0.46338 0.0
C1259 C 0.65422 0.57057 0.39808 0.0
C1260 C 0.67286 0.55291 0.37847 0.0
C1261 C 0.63896 0.60888 0.48584 0.0
C1262 C 0.63364 0.61398 0.58144 0.0
C1263 C 0.62582 0.62214 0.41464 0.0
C1264 C 0.63152 0.61916 0.3124 0.0
C1265 C 0.6124 0.61296 0.24811 0.0
C1266 C 0.61765 0.6104 0.15163 0.0
C1267 C 0.64195 0.61412 0.11846 0.0
C1268 C 0.66104 0.62046 0.18171 0.0
C1269 C 0.65588 0.6231 0.27824 0.0
H1270 H 0.64597 0.61214 0.04373 0.0
H1271 H 0.60589 0.65284 0.97838 0.0
loop_
_geom_bond_atom_site_label_1
_geom_bond_atom_site_label_2
_geom_bond_distance
_geom_bond_site_symmetry_2
_ccdc_geom_bond_type
Co0 O2 2.143 . S
Co0 O8 2.074 . S
Co0 O11 2.093 . S
Co0 O24 2.097 . S
Co0 N41 2.151 . S
Co0 N49 2.214 . S
Co1 O2 2.160 . S
Co1 O7 2.058 . S
Co1 O17 2.057 . S
Co1 O32 2.037 . S
Co1 N36 2.145 . S
Co1 N57 2.257 . S
O2 Co0 2.143 . S
O2 Co1 2.160 . S
C3 O4 1.278 . S
C3 O11 1.224 . S
O4 C3 1.278 . S
C5 O6 1.245 . S
C5 O17 1.232 . S
O6 C5 1.245 . S
O7 Co1 2.058 . S
O7 C33 1.269 . S
O8 Co0 2.074 . S
O8 C33 1.257 . S
H9 C34 0.930 . S
H10 C40 0.930 . S
O11 Co0 2.093 . S
O11 C3 1.224 . S
H12 C44 0.929 . S
H13 C46 0.930 . S
H14 C47 0.930 . S
H15 C45 0.929 . S
H16 C48 0.928 . S
O17 Co1 2.057 . S
O17 C5 1.232 . S
H18 C37 0.929 . S
H19 C38 0.929 . S
H20 C50 0.931 . S
H21 C42 0.929 . S
H22 C51 0.930 . S
H23 C43 0.931 . S
O24 Co0 2.097 . S
O24 C52 1.214 . S
H25 C53 0.929 . S
H26 C54 0.929 . S
H27 C55 0.930 . S
H28 C56 0.929 . S
H29 C58 0.930 . S
H30 C35 0.930 . S
H31 C39 0.930 . S
O32 Co1 2.037 . S
O32 C52 1.234 . S
C33 O7 1.269 . S
C33 O8 1.257 . S
C34 H9 0.930 . S
C34 C37 1.388 . S
C34 C39 1.418 1_554 S
C35 H30 0.930 . S
C35 C38 1.404 1_556 S
C35 C39 1.353 . S
N36 Co1 2.145 . S
N36 C37 1.397 . S
N36 C38 1.334 . S
C37 H18 0.929 . S
C37 C34 1.388 . S
C37 N36 1.397 . S
C38 H19 0.929 . S
C38 C35 1.404 1_554 S
C38 N36 1.334 . S
C39 H31 0.930 . S
C39 C34 1.418 1_556 S
C39 C35 1.353 . S
C40 H10 0.930 . S
C40 N41 1.330 . S
C40 C42 1.446 . S
N41 Co0 2.151 . S
N41 C40 1.330 . S
N41 C45 1.418 . S
C42 H21 0.929 . S
C42 C40 1.446 . S
C42 C43 1.332 . S
C43 H23 0.931 . S
C43 C42 1.332 . S
C43 C44 1.267 . S
C44 H12 0.929 . S
C44 C43 1.267 . S
C44 C45 1.251 . S
C45 H15 0.929 . S
C45 N41 1.418 . S
C45 C44 1.251 . S
C46 H13 0.930 . S
C46 C48 1.406 . S
C46 C51 1.261 . S
C47 H14 0.930 . S
C47 N49 1.325 . S
C47 C50 1.357 . S
C48 H16 0.928 . S
C48 C46 1.406 . S
C48 N49 1.261 . S
N49 Co0 2.214 . S
N49 C47 1.325 . S
N49 C48 1.261 . S
C50 H20 0.931 . S
C50 C47 1.357 . S
C50 C51 1.312 . S
C51 H22 0.930 . S
C51 C46 1.261 . S
C51 C50 1.312 . S
C52 O24 1.214 . S
C52 O32 1.234 . S
C53 H25 0.929 . S
C53 C56 1.391 . S
C53 C58 1.391 . S
C54 H26 0.929 . S
C54 C55 1.390 . S
C54 N57 1.391 . S
C55 H27 0.930 . S
C55 C54 1.390 . S
C55 C56 1.392 . S
C56 H28 0.929 . S
C56 C53 1.391 . S
C56 C55 1.392 . S
N57 Co1 2.257 . S
N57 C54 1.391 . S
N57 C58 1.388 . S
C58 H29 0.930 . S
C58 C53 1.391 . S
C58 N57 1.388 . S
Co59 O61 2.143 . S
Co59 O67 2.074 . S
Co59 O70 2.093 . S
Co59 O83 2.097 . S
Co59 N100 2.151 . S
Co59 N108 2.214 . S
Co60 O61 2.160 . S
Co60 O66 2.058 . S
Co60 O76 2.057 . S
Co60 O91 2.037 . S
Co60 N95 2.145 . S
Co60 N116 2.257 . S
O61 Co59 2.143 . S
O61 Co60 2.160 . S
C62 O63 1.278 . S
C62 O70 1.224 . S
O63 C62 1.278 . S
C64 O65 1.245 . S
C64 O76 1.232 . S
O65 C64 1.245 . S
O66 Co60 2.058 . S
O66 C92 1.269 . S
O67 Co59 2.074 . S
O67 C92 1.257 . S
H68 C93 0.930 . S
H69 C99 0.930 . S
O70 Co59 2.093 . S
O70 C62 1.224 . S
H71 C103 0.929 . S
H72 C105 0.930 . S
H73 C106 0.930 . S
H74 C104 0.929 . S
H75 C107 0.928 . S
O76 Co60 2.057 . S
O76 C64 1.232 . S
H77 C96 0.929 . S
H78 C97 0.929 . S
H79 C109 0.931 . S
H80 C101 0.929 . S
H81 C110 0.930 . S
H82 C102 0.931 . S
O83 Co59 2.097 . S
O83 C111 1.214 . S
H84 C112 0.929 . S
H85 C113 0.929 . S
H86 C114 0.930 . S
H87 C115 0.929 . S
H88 C117 0.930 . S
H89 C94 0.930 . S
H90 C98 0.930 . S
O91 Co60 2.037 . S
O91 C111 1.234 . S
C92 O66 1.269 . S
C92 O67 1.257 . S
C93 H68 0.930 . S
C93 C96 1.388 . S
C93 C98 1.418 1_556 S
C94 H89 0.930 . S
C94 C97 1.404 1_554 S
C94 C98 1.353 . S
N95 Co60 2.145 . S
N95 C96 1.397 . S
N95 C97 1.334 . S
C96 H77 0.929 . S
C96 C93 1.388 . S
C96 N95 1.397 . S
C97 H78 0.929 . S
C97 C94 1.404 1_556 S
C97 N95 1.334 . S
C98 H90 0.930 . S
C98 C93 1.418 1_554 S
C98 C94 1.353 . S
C99 H69 0.930 . S
C99 N100 1.330 . S
C99 C101 1.446 . S
N100 Co59 2.151 . S
N100 C99 1.330 . S
N100 C104 1.418 . S
C101 H80 0.929 . S
C101 C99 1.446 . S
C101 C102 1.332 . S
C102 H82 0.931 . S
C102 C101 1.332 . S
C102 C103 1.267 . S
C103 H71 0.929 . S
C103 C102 1.267 . S
C103 C104 1.251 . S
C104 H74 0.929 . S
C104 N100 1.418 . S
C104 C103 1.251 . S
C105 H72 0.930 . S
C105 C107 1.406 . S
C105 C110 1.261 . S
C106 H73 0.930 . S
C106 N108 1.325 . S
C106 C109 1.357 . S
C107 H75 0.928 . S
C107 C105 1.406 . S
C107 N108 1.261 . S
N108 Co59 2.214 . S
N108 C106 1.325 . S
N108 C107 1.261 . S
C109 H79 0.931 . S
C109 C106 1.357 . S
C109 C110 1.312 . S
C110 H81 0.930 . S
C110 C105 1.261 . S
C110 C109 1.312 . S
C111 O83 1.214 . S
C111 O91 1.234 . S
C112 H84 0.929 . S
C112 C115 1.391 . S
C112 C117 1.391 . S
C113 H85 0.929 . S
C113 C114 1.390 . S
C113 N116 1.391 . S
C114 H86 0.930 . S
C114 C113 1.390 . S
C114 C115 1.392 . S
C115 H87 0.929 . S
C115 C112 1.391 . S
C115 C114 1.392 . S
N116 Co60 2.257 . S
N116 C113 1.391 . S
N116 C117 1.388 . S
C117 H88 0.930 . S
C117 C112 1.391 . S
C117 N116 1.388 . S
Co118 O120 2.143 1_545 S
Co118 O126 2.074 . S
Co118 O129 2.093 1_545 S
Co118 O142 2.097 . S
Co118 N159 2.151 1_545 S
Co118 N167 2.214 . S
Co119 O120 2.160 . S
Co119 O125 2.058 1_565 S
Co119 O135 2.057 1_556 S
Co119 O150 2.037 1_565 S
Co119 N154 2.145 1_566 S
Co119 N175 2.257 1_556 S
O120 Co118 2.143 1_565 S
O120 Co119 2.160 . S
C121 O122 1.278 . S
C121 O129 1.224 . S
O122 C121 1.278 . S
C123 O124 1.245 . S
C123 O135 1.232 1_556 S
O124 C123 1.245 . S
O125 Co119 2.058 1_545 S
O125 C151 1.269 . S
O126 Co118 2.074 . S
O126 C151 1.257 . S
H127 C152 0.930 . S
H128 C158 0.930 . S
O129 Co118 2.093 1_565 S
O129 C121 1.224 . S
H130 C162 0.929 . S
H131 C164 0.930 . S
H132 C165 0.930 . S
H133 C163 0.929 1_545 S
H134 C166 0.928 . S
O135 Co119 2.057 1_554 S
O135 C123 1.232 1_554 S
H136 C155 0.929 . S
H137 C156 0.929 1_565 S
H138 C168 0.931 . S
H139 C160 0.929 . S
H140 C169 0.930 . S
H141 C161 0.931 . S
O142 Co118 2.097 . S
O142 C170 1.214 . S
H143 C171 0.929 . S
H144 C172 0.929 1_545 S
H145 C173 0.930 . S
H146 C174 0.929 . S
H147 C176 0.930 . S
H148 C153 0.930 . S
H149 C157 0.930 . S
O150 Co119 2.037 1_545 S
O150 C170 1.234 . S
C151 O125 1.269 . S
C151 O126 1.257 . S
C152 H127 0.930 . S
C152 C155 1.388 . S
C152 C157 1.418 . S
C153 H148 0.930 . S
C153 C156 1.404 . S
C153 C157 1.353 . S
N154 Co119 2.145 1_544 S
N154 C155 1.397 . S
N154 C156 1.334 . S
C155 H136 0.929 . S
C155 C152 1.388 . S
C155 N154 1.397 . S
C156 H137 0.929 1_545 S
C156 C153 1.404 . S
C156 N154 1.334 . S
C157 H149 0.930 . S
C157 C152 1.418 . S
C157 C153 1.353 . S
C158 H128 0.930 . S
C158 N159 1.330 . S
C158 C160 1.446 . S
N159 Co118 2.151 1_565 S
N159 C158 1.330 . S
N159 C163 1.418 . S
C160 H139 0.929 . S
C160 C158 1.446 . S
C160 C161 1.332 . S
C161 H141 0.931 . S
C161 C160 1.332 . S
C161 C162 1.267 . S
C162 H130 0.929 . S
C162 C161 1.267 . S
C162 C163 1.251 . S
C163 H133 0.929 1_565 S
C163 N159 1.418 . S
C163 C162 1.251 . S
C164 H131 0.930 . S
C164 C166 1.406 . S
C164 C169 1.261 . S
C165 H132 0.930 . S
C165 N167 1.325 . S
C165 C168 1.357 . S
C166 H134 0.928 . S
C166 C164 1.406 . S
C166 N167 1.261 . S
N167 Co118 2.214 . S
N167 C165 1.325 . S
N167 C166 1.261 . S
C168 H138 0.931 . S
C168 C165 1.357 . S
C168 C169 1.312 . S
C169 H140 0.930 . S
C169 C164 1.261 . S
C169 C168 1.312 . S
C170 O142 1.214 . S
C170 O150 1.234 . S
C171 H143 0.929 . S
C171 C174 1.391 . S
C171 C176 1.391 . S
C172 H144 0.929 1_565 S
C172 C173 1.390 . S
C172 N175 1.391 . S
C173 H145 0.930 . S
C173 C172 1.390 . S
C173 C174 1.392 . S
C174 H146 0.929 . S
C174 C171 1.391 . S
C174 C173 1.392 . S
N175 Co119 2.257 1_554 S
N175 C172 1.391 . S
N175 C176 1.388 . S
C176 H147 0.930 . S
C176 C171 1.391 . S
C176 N175 1.388 . S
Co177 O179 2.143 1_655 S
Co177 O185 2.074 . S
Co177 O188 2.093 1_655 S
Co177 O201 2.097 . S
Co177 N218 2.151 1_655 S
Co177 N226 2.214 . S
Co178 O179 2.160 . S
Co178 O184 2.058 1_455 S
Co178 O194 2.057 1_554 S
Co178 O209 2.037 1_455 S
Co178 N213 2.145 1_454 S
Co178 N234 2.257 1_554 S
O179 Co177 2.143 1_455 S
O179 Co178 2.160 . S
C180 O181 1.278 . S
C180 O188 1.224 . S
O181 C180 1.278 . S
C182 O183 1.245 . S
C182 O194 1.232 1_554 S
O183 C182 1.245 . S
O184 Co178 2.058 1_655 S
O184 C210 1.269 . S
O185 Co177 2.074 . S
O185 C210 1.257 . S
H186 C211 0.930 . S
H187 C217 0.930 . S
O188 Co177 2.093 1_455 S
O188 C180 1.224 . S
H189 C221 0.929 . S
H190 C223 0.930 . S
H191 C224 0.930 . S
H192 C222 0.929 1_655 S
H193 C225 0.928 . S
O194 Co178 2.057 1_556 S
O194 C182 1.232 1_556 S
H195 C214 0.929 . S
H196 C215 0.929 1_455 S
H197 C227 0.931 . S
H198 C219 0.929 . S
H199 C228 0.930 . S
H200 C220 0.931 . S
O201 Co177 2.097 . S
O201 C229 1.214 . S
H202 C230 0.929 . S
H203 C231 0.929 1_655 S
H204 C232 0.930 . S
H205 C233 0.929 . S
H206 C235 0.930 . S
H207 C212 0.930 . S
H208 C216 0.930 . S
O209 Co178 2.037 1_655 S
O209 C229 1.234 . S
C210 O184 1.269 . S
C210 O185 1.257 . S
C211 H186 0.930 . S
C211 C214 1.388 . S
C211 C216 1.418 . S
C212 H207 0.930 . S
C212 C215 1.404 . S
C212 C216 1.353 . S
N213 Co178 2.145 1_656 S
N213 C214 1.397 . S
N213 C215 1.334 . S
C214 H195 0.929 . S
C214 C211 1.388 . S
C214 N213 1.397 . S
C215 H196 0.929 1_655 S
C215 C212 1.404 . S
C215 N213 1.334 . S
C216 H208 0.930 . S
C216 C211 1.418 . S
C216 C212 1.353 . S
C217 H187 0.930 . S
C217 N218 1.330 . S
C217 C219 1.446 . S
N218 Co177 2.151 1_455 S
N218 C217 1.330 . S
N218 C222 1.418 . S
C219 H198 0.929 . S
C219 C217 1.446 . S
C219 C220 1.332 . S
C220 H200 0.931 . S
C220 C219 1.332 . S
C220 C221 1.267 . S
C221 H189 0.929 . S
C221 C220 1.267 . S
C221 C222 1.251 . S
C222 H192 0.929 1_455 S
C222 N218 1.418 . S
C222 C221 1.251 . S
C223 H190 0.930 . S
C223 C225 1.406 . S
C223 C228 1.261 . S
C224 H191 0.930 . S
C224 N226 1.325 . S
C224 C227 1.357 . S
C225 H193 0.928 . S
C225 C223 1.406 . S
C225 N226 1.261 . S
N226 Co177 2.214 . S
N226 C224 1.325 . S
N226 C225 1.261 . S
C227 H197 0.931 . S
C227 C224 1.357 . S
C227 C228 1.312 . S
C228 H199 0.930 . S
C228 C223 1.261 . S
C228 C227 1.312 . S
C229 O201 1.214 . S
C229 O209 1.234 . S
C230 H202 0.929 . S
C230 C233 1.391 . S
C230 C235 1.391 . S
C231 H203 0.929 1_455 S
C231 C232 1.390 . S
C231 N234 1.391 . S
C232 H204 0.930 . S
C232 C231 1.390 . S
C232 C233 1.392 . S
C233 H205 0.929 . S
C233 C230 1.391 . S
C233 C232 1.392 . S
N234 Co178 2.257 1_556 S
N234 C231 1.391 . S
N234 C235 1.388 . S
C235 H206 0.930 . S
C235 C230 1.391 . S
C235 N234 1.388 . S
Co236 O238 2.117 1_564 S
Co236 O244 2.106 1_554 S
Co236 O247 2.060 1_565 S
Co236 O260 2.119 1_554 S
Co236 N277 2.131 1_565 S
Co236 N285 2.242 . S
Co237 O238 2.166 . S
Co237 O243 2.052 1_545 S
Co237 O253 2.067 . S
Co237 O268 2.028 1_545 S
Co237 N272 2.139 1_545 S
Co237 N293 2.263 . S
O238 Co236 2.117 1_546 S
O238 Co237 2.166 . S
C239 O240 1.278 . S
C239 O247 1.224 1_556 S
O240 C239 1.278 . S
C241 O242 1.245 . S
C241 O253 1.232 . S
O242 C241 1.245 . S
O243 Co237 2.052 1_565 S
O243 C269 1.269 . S
O244 Co236 2.106 1_556 S
O244 C269 1.257 . S
H245 C270 0.930 . S
H246 C276 0.930 . S
O247 Co236 2.060 1_545 S
O247 C239 1.224 1_554 S
H248 C280 0.929 . S
H249 C282 0.930 . S
H250 C283 0.930 . S
H251 C281 0.929 1_565 S
H252 C284 0.928 . S
O253 Co237 2.067 . S
O253 C241 1.232 . S
H254 C273 0.929 . S
H255 C274 0.929 1_545 S
H256 C286 0.931 . S
H257 C278 0.929 . S
H258 C287 0.930 . S
H259 C279 0.931 . S
O260 Co236 2.119 1_556 S
O260 C288 1.214 . S
H261 C289 0.929 . S
H262 C290 0.929 1_565 S
H263 C291 0.930 . S
H264 C292 0.929 . S
H265 C294 0.930 . S
H266 C271 0.930 . S
H267 C275 0.930 . S
O268 Co237 2.028 1_565 S
O268 C288 1.234 . S
C269 O243 1.269 . S
C269 O244 1.257 . S
C270 H245 0.930 . S
C270 C273 1.388 . S
C270 C275 1.418 . S
C271 H266 0.930 . S
C271 C274 1.404 . S
C271 C275 1.353 . S
N272 Co237 2.139 1_565 S
N272 C273 1.397 . S
N272 C274 1.334 . S
C273 H254 0.929 . S
C273 C270 1.388 . S
C273 N272 1.397 . S
C274 H255 0.929 1_565 S
C274 C271 1.404 . S
C274 N272 1.334 . S
C275 H267 0.930 . S
C275 C270 1.418 . S
C275 C271 1.353 . S
C276 H246 0.930 . S
C276 N277 1.330 . S
C276 C278 1.446 . S
N277 Co236 2.131 1_545 S
N277 C276 1.330 . S
N277 C281 1.418 . S
C278 H257 0.929 . S
C278 C276 1.446 . S
C278 C279 1.332 . S
C279 H259 0.931 . S
C279 C278 1.332 . S
C279 C280 1.267 . S
C280 H248 0.929 . S
C280 C279 1.267 . S
C280 C281 1.251 . S
C281 H251 0.929 1_545 S
C281 N277 1.418 . S
C281 C280 1.251 . S
C282 H249 0.930 . S
C282 C284 1.406 . S
C282 C287 1.261 . S
C283 H250 0.930 . S
C283 N285 1.325 . S
C283 C286 1.357 . S
C284 H252 0.928 . S
C284 C282 1.406 . S
C284 N285 1.261 . S
N285 Co236 2.242 . S
N285 C283 1.325 . S
N285 C284 1.261 . S
C286 H256 0.931 . S
C286 C283 1.357 . S
C286 C287 1.312 . S
C287 H258 0.930 . S
C287 C282 1.261 . S
C287 C286 1.312 . S
C288 O260 1.214 . S
C288 O268 1.234 . S
C289 H261 0.929 . S
C289 C292 1.391 . S
C289 C294 1.391 . S
C290 H262 0.929 1_545 S
C290 C291 1.390 . S
C290 N293 1.391 . S
C291 H263 0.930 . S
C291 C290 1.390 . S
C291 C292 1.392 . S
C292 H264 0.929 . S
C292 C289 1.391 . S
C292 C291 1.392 . S
N293 Co237 2.263 . S
N293 C290 1.391 . S
N293 C294 1.388 . S
C294 H265 0.930 . S
C294 C289 1.391 . S
C294 N293 1.388 . S
Co295 O297 2.117 1_456 S
Co295 O303 2.106 1_556 S
Co295 O306 2.060 1_455 S
Co295 O319 2.119 1_556 S
Co295 N336 2.131 1_455 S
Co295 N344 2.242 . S
Co296 O297 2.166 . S
Co296 O302 2.052 1_655 S
Co296 O312 2.067 . S
Co296 O327 2.028 1_655 S
Co296 N331 2.139 1_655 S
Co296 N352 2.263 . S
O297 Co295 2.117 1_654 S
O297 Co296 2.166 . S
C298 O299 1.278 . S
C298 O306 1.224 1_554 S
O299 C298 1.278 . S
C300 O301 1.245 . S
C300 O312 1.232 . S
O301 C300 1.245 . S
O302 Co296 2.052 1_455 S
O302 C328 1.269 . S
O303 Co295 2.106 1_554 S
O303 C328 1.257 . S
H304 C329 0.930 . S
H305 C335 0.930 . S
O306 Co295 2.060 1_655 S
O306 C298 1.224 1_556 S
H307 C339 0.929 . S
H308 C341 0.930 . S
H309 C342 0.930 . S
H310 C340 0.929 1_455 S
H311 C343 0.928 . S
O312 Co296 2.067 . S
O312 C300 1.232 . S
H313 C332 0.929 . S
H314 C333 0.929 1_655 S
H315 C345 0.931 . S
H316 C337 0.929 . S
H317 C346 0.930 . S
H318 C338 0.931 . S
O319 Co295 2.119 1_554 S
O319 C347 1.214 . S
H320 C348 0.929 . S
H321 C349 0.929 1_455 S
H322 C350 0.930 . S
H323 C351 0.929 . S
H324 C353 0.930 . S
H325 C330 0.930 . S
H326 C334 0.930 . S
O327 Co296 2.028 1_455 S
O327 C347 1.234 . S
C328 O302 1.269 . S
C328 O303 1.257 . S
C329 H304 0.930 . S
C329 C332 1.388 . S
C329 C334 1.418 . S
C330 H325 0.930 . S
C330 C333 1.404 . S
C330 C334 1.353 . S
N331 Co296 2.139 1_455 S
N331 C332 1.397 . S
N331 C333 1.334 . S
C332 H313 0.929 . S
C332 C329 1.388 . S
C332 N331 1.397 . S
C333 H314 0.929 1_455 S
C333 C330 1.404 . S
C333 N331 1.334 . S
C334 H326 0.930 . S
C334 C329 1.418 . S
C334 C330 1.353 . S
C335 H305 0.930 . S
C335 N336 1.330 . S
C335 C337 1.446 . S
N336 Co295 2.131 1_655 S
N336 C335 1.330 . S
N336 C340 1.418 . S
C337 H316 0.929 . S
C337 C335 1.446 . S
C337 C338 1.332 . S
C338 H318 0.931 . S
C338 C337 1.332 . S
C338 C339 1.267 . S
C339 H307 0.929 . S
C339 C338 1.267 . S
C339 C340 1.251 . S
C340 H310 0.929 1_655 S
C340 N336 1.418 . S
C340 C339 1.251 . S
C341 H308 0.930 . S
C341 C343 1.406 . S
C341 C346 1.261 . S
C342 H309 0.930 . S
C342 N344 1.325 . S
C342 C345 1.357 . S
C343 H311 0.928 . S
C343 C341 1.406 . S
C343 N344 1.261 . S
N344 Co295 2.242 . S
N344 C342 1.325 . S
N344 C343 1.261 . S
C345 H315 0.931 . S
C345 C342 1.357 . S
C345 C346 1.312 . S
C346 H317 0.930 . S
C346 C341 1.261 . S
C346 C345 1.312 . S
C347 O319 1.214 . S
C347 O327 1.234 . S
C348 H320 0.929 . S
C348 C351 1.391 . S
C348 C353 1.391 . S
C349 H321 0.929 1_655 S
C349 C350 1.390 . S
C349 N352 1.391 . S
C350 H322 0.930 . S
C350 C349 1.390 . S
C350 C351 1.392 . S
C351 H323 0.929 . S
C351 C348 1.391 . S
C351 C350 1.392 . S
N352 Co296 2.263 . S
N352 C349 1.391 . S
N352 C353 1.388 . S
C353 H324 0.930 . S
C353 C348 1.391 . S
C353 N352 1.388 . S
Co354 O356 2.143 . S
Co354 O362 2.074 . S
Co354 O365 2.093 . S
Co354 O378 2.097 . S
Co354 N395 2.151 . S
Co354 N403 2.214 . S
Co355 O356 2.160 . S
Co355 O361 2.058 . S
Co355 O371 2.057 . S
Co355 O386 2.037 . S
Co355 N390 2.145 . S
Co355 N411 2.257 . S
O356 Co354 2.143 . S
O356 Co355 2.160 . S
C357 O358 1.278 . S
C357 O365 1.224 . S
O358 C357 1.278 . S
C359 O360 1.245 . S
C359 O371 1.232 . S
O360 C359 1.245 . S
O361 Co355 2.058 . S
O361 C387 1.269 . S
O362 Co354 2.074 . S
O362 C387 1.257 . S
H363 C388 0.930 . S
H364 C394 0.930 . S
O365 Co354 2.093 . S
O365 C357 1.224 . S
H366 C398 0.929 1_556 S
H367 C400 0.930 . S
H368 C401 0.930 . S
H369 C399 0.929 . S
H370 C402 0.928 . S
O371 Co355 2.057 . S
O371 C359 1.232 . S
H372 C391 0.929 . S
H373 C392 0.929 . S
H374 C404 0.931 . S
H375 C396 0.929 . S
H376 C405 0.930 . S
H377 C397 0.931 1_556 S
O378 Co354 2.097 . S
O378 C406 1.214 . S
H379 C407 0.929 . S
H380 C408 0.929 . S
H381 C409 0.930 . S
H382 C410 0.929 . S
H383 C412 0.930 . S
H384 C389 0.930 . S
H385 C393 0.930 . S
O386 Co355 2.037 . S
O386 C406 1.234 . S
C387 O361 1.269 . S
C387 O362 1.257 . S
C388 H363 0.930 . S
C388 C391 1.388 . S
C388 C393 1.418 . S
C389 H384 0.930 . S
C389 C392 1.404 . S
C389 C393 1.353 . S
N390 Co355 2.145 . S
N390 C391 1.397 . S
N390 C392 1.334 . S
C391 H372 0.929 . S
C391 C388 1.388 . S
C391 N390 1.397 . S
C392 H373 0.929 . S
C392 C389 1.404 . S
C392 N390 1.334 . S
C393 H385 0.930 . S
C393 C388 1.418 . S
C393 C389 1.353 . S
C394 H364 0.930 . S
C394 N395 1.330 . S
C394 C396 1.446 . S
N395 Co354 2.151 . S
N395 C394 1.330 . S
N395 C399 1.418 . S
C396 H375 0.929 . S
C396 C394 1.446 . S
C396 C397 1.332 . S
C397 H377 0.931 1_554 S
C397 C396 1.332 . S
C397 C398 1.267 . S
C398 H366 0.929 1_554 S
C398 C397 1.267 . S
C398 C399 1.251 . S
C399 H369 0.929 . S
C399 N395 1.418 . S
C399 C398 1.251 . S
C400 H367 0.930 . S
C400 C402 1.406 1_556 S
C400 C405 1.261 . S
C401 H368 0.930 . S
C401 N403 1.325 . S
C401 C404 1.357 . S
C402 H370 0.928 . S
C402 C400 1.406 1_554 S
C402 N403 1.261 . S
N403 Co354 2.214 . S
N403 C401 1.325 . S
N403 C402 1.261 . S
C404 H374 0.931 . S
C404 C401 1.357 . S
C404 C405 1.312 1_554 S
C405 H376 0.930 . S
C405 C400 1.261 . S
C405 C404 1.312 1_556 S
C406 O378 1.214 . S
C406 O386 1.234 . S
C407 H379 0.929 . S
C407 C410 1.391 . S
C407 C412 1.391 . S
C408 H380 0.929 . S
C408 C409 1.390 . S
C408 N411 1.391 . S
C409 H381 0.930 . S
C409 C408 1.390 . S
C409 C410 1.392 . S
C410 H382 0.929 . S
C410 C407 1.391 . S
C410 C409 1.392 . S
N411 Co355 2.257 . S
N411 C408 1.391 . S
N411 C412 1.388 . S
C412 H383 0.930 . S
C412 C407 1.391 . S
C412 N411 1.388 . S
Co413 O415 2.143 . S
Co413 O421 2.074 . S
Co413 O424 2.093 . S
Co413 O437 2.097 . S
Co413 N454 2.151 . S
Co413 N462 2.214 . S
Co414 O415 2.160 . S
Co414 O420 2.058 . S
Co414 O430 2.057 . S
Co414 O445 2.037 . S
Co414 N449 2.145 . S
Co414 N470 2.257 . S
O415 Co413 2.143 . S
O415 Co414 2.160 . S
C416 O417 1.278 . S
C416 O424 1.224 . S
O417 C416 1.278 . S
C418 O419 1.245 . S
C418 O430 1.232 . S
O419 C418 1.245 . S
O420 Co414 2.058 . S
O420 C446 1.269 . S
O421 Co413 2.074 . S
O421 C446 1.257 . S
H422 C447 0.930 . S
H423 C453 0.930 . S
O424 Co413 2.093 . S
O424 C416 1.224 . S
H425 C457 0.929 1_554 S
H426 C459 0.930 . S
H427 C460 0.930 . S
H428 C458 0.929 . S
H429 C461 0.928 . S
O430 Co414 2.057 . S
O430 C418 1.232 . S
H431 C450 0.929 . S
H432 C451 0.929 . S
H433 C463 0.931 . S
H434 C455 0.929 . S
H435 C464 0.930 . S
H436 C456 0.931 1_554 S
O437 Co413 2.097 . S
O437 C465 1.214 . S
H438 C466 0.929 . S
H439 C467 0.929 . S
H440 C468 0.930 . S
H441 C469 0.929 . S
H442 C471 0.930 . S
H443 C448 0.930 . S
H444 C452 0.930 . S
O445 Co414 2.037 . S
O445 C465 1.234 . S
C446 O420 1.269 . S
C446 O421 1.257 . S
C447 H422 0.930 . S
C447 C450 1.388 . S
C447 C452 1.418 . S
C448 H443 0.930 . S
C448 C451 1.404 . S
C448 C452 1.353 . S
N449 Co414 2.145 . S
N449 C450 1.397 . S
N449 C451 1.334 . S
C450 H431 0.929 . S
C450 C447 1.388 . S
C450 N449 1.397 . S
C451 H432 0.929 . S
C451 C448 1.404 . S
C451 N449 1.334 . S
C452 H444 0.930 . S
C452 C447 1.418 . S
C452 C448 1.353 . S
C453 H423 0.930 . S
C453 N454 1.330 . S
C453 C455 1.446 . S
N454 Co413 2.151 . S
N454 C453 1.330 . S
N454 C458 1.418 . S
C455 H434 0.929 . S
C455 C453 1.446 . S
C455 C456 1.332 . S
C456 H436 0.931 1_556 S
C456 C455 1.332 . S
C456 C457 1.267 . S
C457 H425 0.929 1_556 S
C457 C456 1.267 . S
C457 C458 1.251 . S
C458 H428 0.929 . S
C458 N454 1.418 . S
C458 C457 1.251 . S
C459 H426 0.930 . S
C459 C461 1.406 1_554 S
C459 C464 1.261 . S
C460 H427 0.930 . S
C460 N462 1.325 . S
C460 C463 1.357 . S
C461 H429 0.928 . S
C461 C459 1.406 1_556 S
C461 N462 1.261 . S
N462 Co413 2.214 . S
N462 C460 1.325 . S
N462 C461 1.261 . S
C463 H433 0.931 . S
C463 C460 1.357 . S
C463 C464 1.312 1_556 S
C464 H435 0.930 . S
C464 C459 1.261 . S
C464 C463 1.312 1_554 S
C465 O437 1.214 . S
C465 O445 1.234 . S
C466 H438 0.929 . S
C466 C469 1.391 . S
C466 C471 1.391 . S
C467 H439 0.929 . S
C467 C468 1.390 . S
C467 N470 1.391 . S
C468 H440 0.930 . S
C468 C467 1.390 . S
C468 C469 1.392 . S
C469 H441 0.929 . S
C469 C466 1.391 . S
C469 C468 1.392 . S
N470 Co414 2.257 . S
N470 C467 1.391 . S
N470 C471 1.388 . S
C471 H442 0.930 . S
C471 C466 1.391 . S
C471 N470 1.388 . S
H472 C490 0.951 . S
H473 C492 0.951 1_554 S
H474 C494 0.950 . S
H475 C495 0.950 . S
H476 C497 0.950 . S
H477 C500 0.950 . S
H478 C501 0.950 . S
H479 C503 0.950 . S
H480 C504 0.950 . S
H481 C505 0.951 . S
H482 C507 0.951 1_556 S
H483 C509 0.950 . S
H484 C510 0.950 . S
H485 C512 0.950 . S
H486 C515 0.950 . S
H487 C516 0.950 . S
H488 C518 0.950 . S
H489 C519 0.950 . S
C490 H472 0.951 . S
C490 C491 1.366 . S
C490 C492 1.388 . S
C491 C490 1.366 . S
C491 C495 1.385 . S
C492 H473 0.951 1_556 S
C492 C490 1.388 . S
C492 C493 1.366 . S
C493 C492 1.366 . S
C493 C494 1.414 . S
C493 C496 1.499 . S
C494 H474 0.950 . S
C494 C493 1.414 . S
C494 C495 1.374 . S
C495 H475 0.950 . S
C495 C491 1.385 . S
C495 C494 1.374 . S
C496 C493 1.499 . S
C496 C497 1.373 . S
C496 C498 1.389 . S
C497 H476 0.950 . S
C497 C496 1.373 . S
C497 C513 1.377 1_556 S
C498 C496 1.389 . S
C498 C499 1.524 . S
C498 C512 1.377 1_556 S
C499 C498 1.524 . S
C499 C500 1.397 . S
C499 C504 1.363 1_556 S
C500 H477 0.950 . S
C500 C499 1.397 . S
C500 C501 1.334 . S
C501 H478 0.950 . S
C501 C500 1.334 . S
C501 C502 1.287 . S
C502 C501 1.287 . S
C502 C503 1.524 1_556 S
C502 H521 0.913 . S
C503 H479 0.950 . S
C503 C502 1.524 1_554 S
C503 C504 1.415 . S
C504 H480 0.950 . S
C504 C499 1.363 1_554 S
C504 C503 1.415 . S
C505 H481 0.951 . S
C505 C506 1.366 . S
C505 C507 1.388 . S
C506 C505 1.366 . S
C506 C510 1.385 . S
C507 H482 0.951 1_554 S
C507 C505 1.388 . S
C507 C508 1.366 . S
C508 C507 1.366 . S
C508 C509 1.414 . S
C508 C511 1.499 . S
C509 H483 0.950 . S
C509 C508 1.414 . S
C509 C510 1.374 . S
C510 H484 0.950 . S
C510 C506 1.385 . S
C510 C509 1.374 . S
C511 C508 1.499 . S
C511 C512 1.373 . S
C511 C513 1.389 . S
C512 H485 0.950 . S
C512 C498 1.377 1_554 S
C512 C511 1.373 . S
C513 C497 1.377 1_554 S
C513 C511 1.389 . S
C513 C514 1.524 . S
C514 C513 1.524 . S
C514 C515 1.397 . S
C514 C519 1.363 1_554 S
C515 H486 0.950 . S
C515 C514 1.397 . S
C515 C516 1.334 . S
C516 H487 0.950 . S
C516 C515 1.334 . S
C516 C517 1.287 . S
C517 C516 1.287 . S
C517 C518 1.524 1_554 S
C517 H520 0.999 . S
C518 H488 0.950 . S
C518 C517 1.524 1_556 S
C518 C519 1.415 . S
C519 H489 0.950 . S
C519 C514 1.363 1_556 S
C519 C518 1.415 . S
H520 C517 0.999 . S
H521 C502 0.913 . S
H522 C540 0.951 . S
H523 C542 0.951 . S
H524 C544 0.950 . S
H525 C545 0.950 . S
H526 C547 0.950 . S
H527 C550 0.950 . S
H528 C551 0.950 . S
H529 C553 0.950 . S
H530 C554 0.950 . S
H531 C555 0.951 . S
H532 C557 0.951 . S
H533 C559 0.950 . S
H534 C560 0.950 1_556 S
H535 C562 0.950 . S
H536 C565 0.950 . S
H537 C566 0.950 . S
H538 C568 0.950 . S
H539 C569 0.950 . S
C540 H522 0.951 . S
C540 C541 1.366 . S
C540 C542 1.388 . S
C541 C540 1.366 . S
C541 C545 1.385 . S
C542 H523 0.951 . S
C542 C540 1.388 . S
C542 C543 1.366 . S
C543 C542 1.366 . S
C543 C544 1.414 . S
C543 C546 1.499 . S
C544 H524 0.950 . S
C544 C543 1.414 . S
C544 C545 1.374 . S
C545 H525 0.950 . S
C545 C541 1.385 . S
C545 C544 1.374 . S
C546 C543 1.499 . S
C546 C547 1.373 . S
C546 C548 1.389 . S
C547 H526 0.950 . S
C547 C546 1.373 . S
C547 C563 1.377 . S
C548 C546 1.389 . S
C548 C549 1.524 . S
C548 C562 1.377 . S
C549 C548 1.524 . S
C549 C550 1.397 . S
C549 C554 1.363 . S
C550 H527 0.950 . S
C550 C549 1.397 . S
C550 C551 1.334 . S
C551 H528 0.950 . S
C551 C550 1.334 . S
C551 C552 1.287 . S
C552 C551 1.287 . S
C552 C553 1.524 . S
C552 H571 0.913 . S
C553 H529 0.950 . S
C553 C552 1.524 . S
C553 C554 1.415 . S
C554 H530 0.950 . S
C554 C549 1.363 . S
C554 C553 1.415 . S
C555 H531 0.951 . S
C555 C556 1.366 . S
C555 C557 1.388 . S
C556 C555 1.366 . S
C556 C560 1.385 . S
C557 H532 0.951 . S
C557 C555 1.388 . S
C557 C558 1.366 . S
C558 C557 1.366 . S
C558 C559 1.414 . S
C558 C561 1.499 . S
C559 H533 0.950 . S
C559 C558 1.414 . S
C559 C560 1.374 . S
C560 H534 0.950 1_554 S
C560 C556 1.385 . S
C560 C559 1.374 . S
C561 C558 1.499 . S
C561 C562 1.373 . S
C561 C563 1.389 . S
C562 H535 0.950 . S
C562 C548 1.377 . S
C562 C561 1.373 . S
C563 C547 1.377 . S
C563 C561 1.389 . S
C563 C564 1.524 . S
C564 C563 1.524 . S
C564 C565 1.397 . S
C564 C569 1.363 . S
C565 H536 0.950 . S
C565 C564 1.397 . S
C565 C566 1.334 . S
C566 H537 0.950 . S
C566 C565 1.334 . S
C566 C567 1.287 . S
C567 C566 1.287 . S
C567 C568 1.524 . S
C567 H570 0.999 . S
C568 H538 0.950 . S
C568 C567 1.524 . S
C568 C569 1.415 . S
C569 H539 0.950 . S
C569 C564 1.363 . S
C569 C568 1.415 . S
H570 C567 0.999 . S
H571 C552 0.913 . S
H572 C590 0.951 . S
H573 C592 0.951 . S
H574 C594 0.950 . S
H575 C595 0.950 . S
H576 C597 0.950 . S
H577 C600 0.950 . S
H578 C601 0.950 . S
H579 C603 0.950 . S
H580 C604 0.950 . S
H581 C605 0.951 . S
H582 C607 0.951 . S
H583 C609 0.950 . S
H584 C610 0.950 . S
H585 C612 0.950 . S
H586 C615 0.950 . S
H587 C616 0.950 . S
H588 C618 0.950 . S
H589 C619 0.950 . S
C590 H572 0.951 . S
C590 C591 1.366 . S
C590 C592 1.388 . S
C591 C590 1.366 . S
C591 C595 1.385 . S
C592 H573 0.951 . S
C592 C590 1.388 . S
C592 C593 1.366 . S
C593 C592 1.366 . S
C593 C594 1.414 . S
C593 C596 1.499 . S
C594 H574 0.950 . S
C594 C593 1.414 . S
C594 C595 1.374 . S
C595 H575 0.950 . S
C595 C591 1.385 . S
C595 C594 1.374 . S
C596 C593 1.499 . S
C596 C597 1.373 . S
C596 C598 1.389 . S
C597 H576 0.950 . S
C597 C596 1.373 . S
C597 C613 1.377 . S
C598 C596 1.389 . S
C598 C599 1.524 . S
C598 C612 1.377 . S
C599 C598 1.524 . S
C599 C600 1.397 . S
C599 C604 1.363 . S
C600 H577 0.950 . S
C600 C599 1.397 . S
C600 C601 1.334 . S
C601 H578 0.950 . S
C601 C600 1.334 . S
C601 C602 1.287 . S
C602 C601 1.287 . S
C602 C603 1.524 . S
C602 H621 0.913 . S
C603 H579 0.950 . S
C603 C602 1.524 . S
C603 C604 1.415 . S
C604 H580 0.950 . S
C604 C599 1.363 . S
C604 C603 1.415 . S
C605 H581 0.951 . S
C605 C606 1.366 . S
C605 C607 1.388 . S
C606 C605 1.366 . S
C606 C610 1.385 . S
C607 H582 0.951 . S
C607 C605 1.388 . S
C607 C608 1.366 . S
C608 C607 1.366 . S
C608 C609 1.414 . S
C608 C611 1.499 . S
C609 H583 0.950 . S
C609 C608 1.414 . S
C609 C610 1.374 . S
C610 H584 0.950 . S
C610 C606 1.385 . S
C610 C609 1.374 . S
C611 C608 1.499 . S
C611 C612 1.373 . S
C611 C613 1.389 . S
C612 H585 0.950 . S
C612 C598 1.377 . S
C612 C611 1.373 . S
C613 C597 1.377 . S
C613 C611 1.389 . S
C613 C614 1.524 . S
C614 C613 1.524 . S
C614 C615 1.397 . S
C614 C619 1.363 . S
C615 H586 0.950 . S
C615 C614 1.397 . S
C615 C616 1.334 . S
C616 H587 0.950 . S
C616 C615 1.334 . S
C616 C617 1.287 . S
C617 C616 1.287 . S
C617 C618 1.524 . S
C617 H620 0.999 . S
C618 H588 0.950 . S
C618 C617 1.524 . S
C618 C619 1.415 . S
C619 H589 0.950 . S
C619 C614 1.363 . S
C619 C618 1.415 . S
H620 C617 0.999 . S
H621 C602 0.913 . S
H622 C640 0.951 . S
H623 C642 0.951 . S
H624 C644 0.950 . S
H625 C645 0.950 . S
H626 C647 0.950 . S
H627 C650 0.950 . S
H628 C651 0.950 . S
H629 C653 0.950 . S
H630 C654 0.950 . S
H631 C655 0.951 . S
H632 C657 0.951 . S
H633 C659 0.950 . S
H634 C660 0.950 . S
H635 C662 0.950 . S
H636 C665 0.950 . S
H637 C666 0.950 . S
H638 C668 0.950 . S
H639 C669 0.950 . S
C640 H622 0.951 . S
C640 C641 1.366 . S
C640 C642 1.388 . S
C641 C640 1.366 . S
C641 C645 1.385 . S
C642 H623 0.951 . S
C642 C640 1.388 . S
C642 C643 1.366 . S
C643 C642 1.366 . S
C643 C644 1.414 . S
C643 C646 1.499 . S
C644 H624 0.950 . S
C644 C643 1.414 . S
C644 C645 1.374 . S
C645 H625 0.950 . S
C645 C641 1.385 . S
C645 C644 1.374 . S
C646 C643 1.499 . S
C646 C647 1.373 . S
C646 C648 1.389 . S
C647 H626 0.950 . S
C647 C646 1.373 . S
C647 C663 1.377 . S
C648 C646 1.389 . S
C648 C649 1.524 . S
C648 C662 1.377 . S
C649 C648 1.524 . S
C649 C650 1.397 . S
C649 C654 1.363 . S
C650 H627 0.950 . S
C650 C649 1.397 . S
C650 C651 1.334 1_556 S
C651 H628 0.950 . S
C651 C650 1.334 1_554 S
C651 C652 1.287 . S
C652 C651 1.287 . S
C652 C653 1.524 1_554 S
C652 H671 0.913 . S
C653 H629 0.950 . S
C653 C652 1.524 1_556 S
C653 C654 1.415 . S
C654 H630 0.950 . S
C654 C649 1.363 . S
C654 C653 1.415 . S
C655 H631 0.951 . S
C655 C656 1.366 . S
C655 C657 1.388 . S
C656 C655 1.366 . S
C656 C660 1.385 . S
C657 H632 0.951 . S
C657 C655 1.388 . S
C657 C658 1.366 . S
C658 C657 1.366 . S
C658 C659 1.414 . S
C658 C661 1.499 . S
C659 H633 0.950 . S
C659 C658 1.414 . S
C659 C660 1.374 . S
C660 H634 0.950 . S
C660 C656 1.385 . S
C660 C659 1.374 . S
C661 C658 1.499 . S
C661 C662 1.373 . S
C661 C663 1.389 . S
C662 H635 0.950 . S
C662 C648 1.377 . S
C662 C661 1.373 . S
C663 C647 1.377 . S
C663 C661 1.389 . S
C663 C664 1.524 . S
C664 C663 1.524 . S
C664 C665 1.397 . S
C664 C669 1.363 . S
C665 H636 0.950 . S
C665 C664 1.397 . S
C665 C666 1.334 . S
C666 H637 0.950 . S
C666 C665 1.334 . S
C666 C667 1.287 . S
C667 C666 1.287 . S
C667 C668 1.524 . S
C667 H670 0.999 . S
C668 H638 0.950 . S
C668 C667 1.524 . S
C668 C669 1.415 . S
C669 H639 0.950 . S
C669 C664 1.363 . S
C669 C668 1.415 . S
H670 C667 0.999 . S
H671 C652 0.913 . S
H672 C690 0.951 . S
H673 C692 0.951 . S
H674 C694 0.950 . S
H675 C695 0.950 . S
H676 C697 0.950 . S
H677 C700 0.950 . S
H678 C701 0.950 . S
H679 C703 0.950 . S
H680 C704 0.950 . S
H681 C705 0.951 . S
H682 C707 0.951 . S
H683 C709 0.950 . S
H684 C710 0.950 . S
H685 C712 0.950 . S
H686 C715 0.950 . S
H687 C716 0.950 . S
H688 C718 0.950 . S
H689 C719 0.950 . S
C690 H672 0.951 . S
C690 C691 1.366 . S
C690 C692 1.388 . S
C691 C690 1.366 . S
C691 C695 1.385 . S
C692 H673 0.951 . S
C692 C690 1.388 . S
C692 C693 1.366 . S
C693 C692 1.366 . S
C693 C694 1.414 . S
C693 C696 1.499 . S
C694 H674 0.950 . S
C694 C693 1.414 . S
C694 C695 1.374 . S
C695 H675 0.950 . S
C695 C691 1.385 . S
C695 C694 1.374 . S
C696 C693 1.499 . S
C696 C697 1.373 . S
C696 C698 1.389 . S
C697 H676 0.950 . S
C697 C696 1.373 . S
C697 C713 1.377 . S
C698 C696 1.389 . S
C698 C699 1.524 . S
C698 C712 1.377 . S
C699 C698 1.524 . S
C699 C700 1.397 . S
C699 C704 1.363 . S
C700 H677 0.950 . S
C700 C699 1.397 . S
C700 C701 1.334 . S
C701 H678 0.950 . S
C701 C700 1.334 . S
C701 C702 1.287 . S
C702 C701 1.287 . S
C702 C703 1.524 . S
C702 H721 0.913 . S
C703 H679 0.950 . S
C703 C702 1.524 . S
C703 C704 1.415 . S
C704 H680 0.950 . S
C704 C699 1.363 . S
C704 C703 1.415 . S
C705 H681 0.951 . S
C705 C706 1.366 . S
C705 C707 1.388 . S
C706 C705 1.366 . S
C706 C710 1.385 . S
C707 H682 0.951 . S
C707 C705 1.388 . S
C707 C708 1.366 . S
C708 C707 1.366 . S
C708 C709 1.414 . S
C708 C711 1.499 . S
C709 H683 0.950 . S
C709 C708 1.414 . S
C709 C710 1.374 . S
C710 H684 0.950 . S
C710 C706 1.385 . S
C710 C709 1.374 . S
C711 C708 1.499 . S
C711 C712 1.373 . S
C711 C713 1.389 . S
C712 H685 0.950 . S
C712 C698 1.377 . S
C712 C711 1.373 . S
C713 C697 1.377 . S
C713 C711 1.389 . S
C713 C714 1.524 . S
C714 C713 1.524 . S
C714 C715 1.397 . S
C714 C719 1.363 . S
C715 H686 0.950 . S
C715 C714 1.397 . S
C715 C716 1.334 . S
C716 H687 0.950 . S
C716 C715 1.334 . S
C716 C717 1.287 . S
C717 C716 1.287 . S
C717 C718 1.524 . S
C717 H720 0.999 . S
C718 H688 0.950 . S
C718 C717 1.524 . S
C718 C719 1.415 . S
C719 H689 0.950 . S
C719 C714 1.363 . S
C719 C718 1.415 . S
H720 C717 0.999 . S
H721 C702 0.913 . S
H722 C740 0.951 1_554 S
H723 C742 0.951 . S
H724 C744 0.950 . S
H725 C745 0.950 . S
H726 C747 0.950 . S
H727 C750 0.950 . S
H728 C751 0.950 . S
H729 C753 0.950 . S
H730 C754 0.950 . S
H731 C755 0.951 . S
H732 C757 0.951 . S
H733 C759 0.950 . S
H734 C760 0.950 . S
H735 C762 0.950 . S
H736 C765 0.950 . S
H737 C766 0.950 . S
H738 C768 0.950 . S
H739 C769 0.950 . S
C740 H722 0.951 1_556 S
C740 C741 1.366 . S
C740 C742 1.388 . S
C741 C740 1.366 . S
C741 C745 1.385 . S
C742 H723 0.951 . S
C742 C740 1.388 . S
C742 C743 1.366 . S
C743 C742 1.366 . S
C743 C744 1.414 . S
C743 C746 1.499 . S
C744 H724 0.950 . S
C744 C743 1.414 . S
C744 C745 1.374 . S
C745 H725 0.950 . S
C745 C741 1.385 . S
C745 C744 1.374 . S
C746 C743 1.499 . S
C746 C747 1.373 . S
C746 C748 1.389 . S
C747 H726 0.950 . S
C747 C746 1.373 . S
C747 C763 1.377 . S
C748 C746 1.389 . S
C748 C749 1.524 . S
C748 C762 1.377 . S
C749 C748 1.524 . S
C749 C750 1.397 . S
C749 C754 1.363 . S
C750 H727 0.950 . S
C750 C749 1.397 . S
C750 C751 1.334 . S
C751 H728 0.950 . S
C751 C750 1.334 . S
C751 C752 1.287 1_556 S
C752 C751 1.287 1_554 S
C752 C753 1.524 . S
C752 H771 0.913 . S
C753 H729 0.950 . S
C753 C752 1.524 . S
C753 C754 1.415 1_554 S
C754 H730 0.950 . S
C754 C749 1.363 . S
C754 C753 1.415 1_556 S
C755 H731 0.951 . S
C755 C756 1.366 . S
C755 C757 1.388 . S
C756 C755 1.366 . S
C756 C760 1.385 . S
C757 H732 0.951 . S
C757 C755 1.388 . S
C757 C758 1.366 . S
C758 C757 1.366 . S
C758 C759 1.414 . S
C758 C761 1.499 . S
C759 H733 0.950 . S
C759 C758 1.414 . S
C759 C760 1.374 . S
C760 H734 0.950 . S
C760 C756 1.385 . S
C760 C759 1.374 . S
C761 C758 1.499 . S
C761 C762 1.373 . S
C761 C763 1.389 . S
C762 H735 0.950 . S
C762 C748 1.377 . S
C762 C761 1.373 . S
C763 C747 1.377 . S
C763 C761 1.389 . S
C763 C764 1.524 . S
C764 C763 1.524 . S
C764 C765 1.397 . S
C764 C769 1.363 . S
C765 H736 0.950 . S
C765 C764 1.397 . S
C765 C766 1.334 . S
C766 H737 0.950 . S
C766 C765 1.334 . S
C766 C767 1.287 . S
C767 C766 1.287 . S
C767 C768 1.524 . S
C767 H770 0.999 . S
C768 H738 0.950 . S
C768 C767 1.524 . S
C768 C769 1.415 . S
C769 H739 0.950 . S
C769 C764 1.363 . S
C769 C768 1.415 . S
H770 C767 0.999 . S
H771 C752 0.913 . S
H772 C790 0.951 . S
H773 C792 0.951 . S
H774 C794 0.950 . S
H775 C795 0.950 . S
H776 C797 0.950 . S
H777 C800 0.950 . S
H778 C801 0.950 . S
H779 C803 0.950 . S
H780 C804 0.950 . S
H781 C805 0.951 . S
H782 C807 0.951 . S
H783 C809 0.950 . S
H784 C810 0.950 . S
H785 C812 0.950 . S
H786 C815 0.950 . S
H787 C816 0.950 . S
H788 C818 0.950 . S
H789 C819 0.950 . S
C790 H772 0.951 . S
C790 C791 1.366 . S
C790 C792 1.388 . S
C791 C790 1.366 . S
C791 C795 1.385 . S
C792 H773 0.951 . S
C792 C790 1.388 . S
C792 C793 1.366 . S
C793 C792 1.366 . S
C793 C794 1.414 . S
C793 C796 1.499 . S
C794 H774 0.950 . S
C794 C793 1.414 . S
C794 C795 1.374 . S
C795 H775 0.950 . S
C795 C791 1.385 . S
C795 C794 1.374 . S
C796 C793 1.499 . S
C796 C797 1.373 1_554 S
C796 C798 1.389 . S
C797 H776 0.950 . S
C797 C796 1.373 1_556 S
C797 C813 1.377 . S
C798 C796 1.389 . S
C798 C799 1.524 . S
C798 C812 1.377 . S
C799 C798 1.524 . S
C799 C800 1.397 . S
C799 C804 1.363 . S
C800 H777 0.950 . S
C800 C799 1.397 . S
C800 C801 1.334 . S
C801 H778 0.950 . S
C801 C800 1.334 . S
C801 C802 1.287 . S
C802 C801 1.287 . S
C802 C803 1.524 . S
C802 H821 0.913 . S
C803 H779 0.950 . S
C803 C802 1.524 . S
C803 C804 1.415 . S
C804 H780 0.950 . S
C804 C799 1.363 . S
C804 C803 1.415 . S
C805 H781 0.951 . S
C805 C806 1.366 . S
C805 C807 1.388 . S
C806 C805 1.366 . S
C806 C810 1.385 . S
C807 H782 0.951 . S
C807 C805 1.388 . S
C807 C808 1.366 . S
C808 C807 1.366 . S
C808 C809 1.414 . S
C808 C811 1.499 . S
C809 H783 0.950 . S
C809 C808 1.414 . S
C809 C810 1.374 . S
C810 H784 0.950 . S
C810 C806 1.385 . S
C810 C809 1.374 . S
C811 C808 1.499 . S
C811 C812 1.373 1_556 S
C811 C813 1.389 . S
C812 H785 0.950 . S
C812 C798 1.377 . S
C812 C811 1.373 1_554 S
C813 C797 1.377 . S
C813 C811 1.389 . S
C813 C814 1.524 . S
C814 C813 1.524 . S
C814 C815 1.397 . S
C814 C819 1.363 . S
C815 H786 0.950 . S
C815 C814 1.397 . S
C815 C816 1.334 . S
C816 H787 0.950 . S
C816 C815 1.334 . S
C816 C817 1.287 . S
C817 C816 1.287 . S
C817 C818 1.524 . S
C817 H820 0.999 . S
C818 H788 0.950 . S
C818 C817 1.524 . S
C818 C819 1.415 . S
C819 H789 0.950 . S
C819 C814 1.363 . S
C819 C818 1.415 . S
H820 C817 0.999 . S
H821 C802 0.913 . S
H822 C840 0.951 1_556 S
H823 C842 0.951 . S
H824 C844 0.950 . S
H825 C845 0.950 . S
H826 C847 0.950 . S
H827 C850 0.950 1_554 S
H828 C851 0.950 . S
H829 C853 0.950 . S
H830 C854 0.950 . S
H831 C855 0.951 . S
H832 C857 0.951 . S
H833 C859 0.950 . S
H834 C860 0.950 . S
H835 C862 0.950 . S
H836 C865 0.950 . S
H837 C866 0.950 . S
H838 C868 0.950 . S
H839 C869 0.950 . S
C840 H822 0.951 1_554 S
C840 C841 1.366 . S
C840 C842 1.388 . S
C841 C840 1.366 . S
C841 C845 1.385 . S
C842 H823 0.951 . S
C842 C840 1.388 . S
C842 C843 1.366 . S
C843 C842 1.366 . S
C843 C844 1.414 . S
C843 C846 1.499 . S
C844 H824 0.950 . S
C844 C843 1.414 . S
C844 C845 1.374 . S
C845 H825 0.950 . S
C845 C841 1.385 . S
C845 C844 1.374 . S
C846 C843 1.499 . S
C846 C847 1.373 . S
C846 C848 1.389 . S
C847 H826 0.950 . S
C847 C846 1.373 . S
C847 C863 1.377 . S
C848 C846 1.389 . S
C848 C849 1.524 . S
C848 C862 1.377 . S
C849 C848 1.524 . S
C849 C850 1.397 1_554 S
C849 C854 1.363 . S
C850 H827 0.950 1_556 S
C850 C849 1.397 1_556 S
C850 C851 1.334 . S
C851 H828 0.950 . S
C851 C850 1.334 . S
C851 C852 1.287 . S
C852 C851 1.287 . S
C852 C853 1.524 . S
C852 H871 0.913 . S
C853 H829 0.950 . S
C853 C852 1.524 . S
C853 C854 1.415 1_556 S
C854 H830 0.950 . S
C854 C849 1.363 . S
C854 C853 1.415 1_554 S
C855 H831 0.951 . S
C855 C856 1.366 . S
C855 C857 1.388 . S
C856 C855 1.366 . S
C856 C860 1.385 . S
C857 H832 0.951 . S
C857 C855 1.388 . S
C857 C858 1.366 . S
C858 C857 1.366 . S
C858 C859 1.414 . S
C858 C861 1.499 . S
C859 H833 0.950 . S
C859 C858 1.414 . S
C859 C860 1.374 . S
C860 H834 0.950 . S
C860 C856 1.385 . S
C860 C859 1.374 . S
C861 C858 1.499 . S
C861 C862 1.373 . S
C861 C863 1.389 . S
C862 H835 0.950 . S
C862 C848 1.377 . S
C862 C861 1.373 . S
C863 C847 1.377 . S
C863 C861 1.389 . S
C863 C864 1.524 . S
C864 C863 1.524 . S
C864 C865 1.397 . S
C864 C869 1.363 . S
C865 H836 0.950 . S
C865 C864 1.397 . S
C865 C866 1.334 . S
C866 H837 0.950 . S
C866 C865 1.334 . S
C866 C867 1.287 . S
C867 C866 1.287 . S
C867 C868 1.524 . S
C867 H870 0.999 . S
C868 H838 0.950 . S
C868 C867 1.524 . S
C868 C869 1.415 . S
C869 H839 0.950 . S
C869 C864 1.363 . S
C869 C868 1.415 . S
H870 C867 0.999 . S
H871 C852 0.913 . S
H872 C890 0.951 . S
H873 C892 0.951 . S
H874 C894 0.950 . S
H875 C895 0.950 . S
H876 C897 0.950 . S
H877 C900 0.950 . S
H878 C901 0.950 . S
H879 C903 0.950 . S
H880 C904 0.950 . S
H881 C905 0.951 . S
H882 C907 0.951 . S
H883 C909 0.950 . S
H884 C910 0.950 . S
H885 C912 0.950 . S
H886 C915 0.950 . S
H887 C916 0.950 . S
H888 C918 0.950 . S
H889 C919 0.950 . S
C890 H872 0.951 . S
C890 C891 1.366 . S
C890 C892 1.388 . S
C891 C890 1.366 . S
C891 C895 1.385 . S
C892 H873 0.951 . S
C892 C890 1.388 . S
C892 C893 1.366 . S
C893 C892 1.366 . S
C893 C894 1.414 . S
C893 C896 1.499 . S
C894 H874 0.950 . S
C894 C893 1.414 . S
C894 C895 1.374 . S
C895 H875 0.950 . S
C895 C891 1.385 . S
C895 C894 1.374 . S
C896 C893 1.499 . S
C896 C897 1.373 . S
C896 C898 1.389 . S
C897 H876 0.950 . S
C897 C896 1.373 . S
C897 C913 1.377 . S
C898 C896 1.389 . S
C898 C899 1.524 . S
C898 C912 1.377 . S
C899 C898 1.524 . S
C899 C900 1.397 . S
C899 C904 1.363 . S
C900 H877 0.950 . S
C900 C899 1.397 . S
C900 C901 1.334 . S
C901 H878 0.950 . S
C901 C900 1.334 . S
C901 C902 1.287 . S
C902 C901 1.287 . S
C902 C903 1.524 . S
C902 H921 0.913 . S
C903 H879 0.950 . S
C903 C902 1.524 . S
C903 C904 1.415 . S
C904 H880 0.950 . S
C904 C899 1.363 . S
C904 C903 1.415 . S
C905 H881 0.951 . S
C905 C906 1.366 . S
C905 C907 1.388 . S
C906 C905 1.366 . S
C906 C910 1.385 . S
C907 H882 0.951 . S
C907 C905 1.388 . S
C907 C908 1.366 . S
C908 C907 1.366 . S
C908 C909 1.414 . S
C908 C911 1.499 . S
C909 H883 0.950 . S
C909 C908 1.414 . S
C909 C910 1.374 . S
C910 H884 0.950 . S
C910 C906 1.385 . S
C910 C909 1.374 . S
C911 C908 1.499 . S
C911 C912 1.373 . S
C911 C913 1.389 . S
C912 H885 0.950 . S
C912 C898 1.377 . S
C912 C911 1.373 . S
C913 C897 1.377 . S
C913 C911 1.389 . S
C913 C914 1.524 . S
C914 C913 1.524 . S
C914 C915 1.397 . S
C914 C919 1.363 . S
C915 H886 0.950 . S
C915 C914 1.397 . S
C915 C916 1.334 . S
C916 H887 0.950 . S
C916 C915 1.334 . S
C916 C917 1.287 . S
C917 C916 1.287 . S
C917 C918 1.524 . S
C917 H920 0.999 . S
C918 H888 0.950 . S
C918 C917 1.524 . S
C918 C919 1.415 . S
C919 H889 0.950 . S
C919 C914 1.363 . S
C919 C918 1.415 . S
H920 C917 0.999 . S
H921 C902 0.913 . S
H922 C940 0.951 . S
H923 C942 0.951 . S
H924 C944 0.950 . S
H925 C945 0.950 . S
H926 C947 0.950 . S
H927 C950 0.950 . S
H928 C951 0.950 . S
H929 C953 0.950 . S
H930 C954 0.950 . S
H931 C955 0.951 . S
H932 C957 0.951 . S
H933 C959 0.950 . S
H934 C960 0.950 . S
H935 C962 0.950 . S
H936 C965 0.950 . S
H937 C966 0.950 . S
H938 C968 0.950 . S
H939 C969 0.950 . S
C940 H922 0.951 . S
C940 C941 1.366 . S
C940 C942 1.388 . S
C941 C940 1.366 . S
C941 C945 1.385 . S
C942 H923 0.951 . S
C942 C940 1.388 . S
C942 C943 1.366 . S
C943 C942 1.366 . S
C943 C944 1.414 . S
C943 C946 1.499 . S
C944 H924 0.950 . S
C944 C943 1.414 . S
C944 C945 1.374 . S
C945 H925 0.950 . S
C945 C941 1.385 . S
C945 C944 1.374 . S
C946 C943 1.499 . S
C946 C947 1.373 . S
C946 C948 1.389 . S
C947 H926 0.950 . S
C947 C946 1.373 . S
C947 C963 1.377 . S
C948 C946 1.389 . S
C948 C949 1.524 . S
C948 C962 1.377 . S
C949 C948 1.524 . S
C949 C950 1.397 . S
C949 C954 1.363 . S
C950 H927 0.950 . S
C950 C949 1.397 . S
C950 C951 1.334 . S
C951 H928 0.950 . S
C951 C950 1.334 . S
C951 C952 1.287 . S
C952 C951 1.287 . S
C952 C953 1.524 . S
C952 H971 0.913 . S
C953 H929 0.950 . S
C953 C952 1.524 . S
C953 C954 1.415 . S
C954 H930 0.950 . S
C954 C949 1.363 . S
C954 C953 1.415 . S
C955 H931 0.951 . S
C955 C956 1.366 . S
C955 C957 1.388 . S
C956 C955 1.366 . S
C956 C960 1.385 . S
C957 H932 0.951 . S
C957 C955 1.388 . S
C957 C958 1.366 . S
C958 C957 1.366 . S
C958 C959 1.414 . S
C958 C961 1.499 . S
C959 H933 0.950 . S
C959 C958 1.414 . S
C959 C960 1.374 . S
C960 H934 0.950 . S
C960 C956 1.385 . S
C960 C959 1.374 . S
C961 C958 1.499 . S
C961 C962 1.373 . S
C961 C963 1.389 . S
C962 H935 0.950 . S
C962 C948 1.377 . S
C962 C961 1.373 . S
C963 C947 1.377 . S
C963 C961 1.389 . S
C963 C964 1.524 . S
C964 C963 1.524 . S
C964 C965 1.397 . S
C964 C969 1.363 . S
C965 H936 0.950 . S
C965 C964 1.397 . S
C965 C966 1.334 . S
C966 H937 0.950 . S
C966 C965 1.334 . S
C966 C967 1.287 . S
C967 C966 1.287 . S
C967 C968 1.524 . S
C967 H970 0.999 . S
C968 H938 0.950 . S
C968 C967 1.524 . S
C968 C969 1.415 . S
C969 H939 0.950 . S
C969 C964 1.363 . S
C969 C968 1.415 . S
H970 C967 0.999 . S
H971 C952 0.913 . S
H972 C990 0.951 . S
H973 C992 0.951 . S
H974 C994 0.950 1_556 S
H975 C995 0.950 . S
H976 C997 0.950 . S
H977 C1000 0.950 . S
H978 C1001 0.950 . S
H979 C1003 0.950 . S
H980 C1004 0.950 . S
H981 C1005 0.951 . S
H982 C1007 0.951 . S
H983 C1009 0.950 1_554 S
H984 C1010 0.950 . S
H985 C1012 0.950 . S
H986 C1015 0.950 . S
H987 C1016 0.950 . S
H988 C1018 0.950 . S
H989 C1019 0.950 . S
C990 H972 0.951 . S
C990 C991 1.366 . S
C990 C992 1.388 . S
C991 C990 1.366 . S
C991 C995 1.385 . S
C992 H973 0.951 . S
C992 C990 1.388 . S
C992 C993 1.366 . S
C993 C992 1.366 . S
C993 C994 1.414 . S
C993 C996 1.499 . S
C994 H974 0.950 1_554 S
C994 C993 1.414 . S
C994 C995 1.374 . S
C995 H975 0.950 . S
C995 C991 1.385 . S
C995 C994 1.374 . S
C996 C993 1.499 . S
C996 C997 1.373 1_554 S
C996 C998 1.389 . S
C997 H976 0.950 . S
C997 C996 1.373 1_556 S
C997 C1013 1.377 . S
C998 C996 1.389 . S
C998 C999 1.524 . S
C998 C1012 1.377 . S
C999 C998 1.524 . S
C999 C1000 1.397 . S
C999 C1004 1.363 . S
C1000 H977 0.950 . S
C1000 C999 1.397 . S
C1000 C1001 1.334 . S
C1001 H978 0.950 . S
C1001 C1000 1.334 . S
C1001 C1002 1.287 . S
C1002 C1001 1.287 . S
C1002 C1003 1.524 . S
C1002 H1021 0.913 . S
C1003 H979 0.950 . S
C1003 C1002 1.524 . S
C1003 C1004 1.415 . S
C1004 H980 0.950 . S
C1004 C999 1.363 . S
C1004 C1003 1.415 . S
C1005 H981 0.951 . S
C1005 C1006 1.366 . S
C1005 C1007 1.388 . S
C1006 C1005 1.366 . S
C1006 C1010 1.385 . S
C1007 H982 0.951 . S
C1007 C1005 1.388 . S
C1007 C1008 1.366 . S
C1008 C1007 1.366 . S
C1008 C1009 1.414 . S
C1008 C1011 1.499 . S
C1009 H983 0.950 1_556 S
C1009 C1008 1.414 . S
C1009 C1010 1.374 . S
C1010 H984 0.950 . S
C1010 C1006 1.385 . S
C1010 C1009 1.374 . S
C1011 C1008 1.499 . S
C1011 C1012 1.373 1_556 S
C1011 C1013 1.389 . S
C1012 H985 0.950 . S
C1012 C998 1.377 . S
C1012 C1011 1.373 1_554 S
C1013 C997 1.377 . S
C1013 C1011 1.389 . S
C1013 C1014 1.524 . S
C1014 C1013 1.524 . S
C1014 C1015 1.397 . S
C1014 C1019 1.363 . S
C1015 H986 0.950 . S
C1015 C1014 1.397 . S
C1015 C1016 1.334 . S
C1016 H987 0.950 . S
C1016 C1015 1.334 . S
C1016 C1017 1.287 . S
C1017 C1016 1.287 . S
C1017 C1018 1.524 . S
C1017 H1020 0.999 . S
C1018 H988 0.950 . S
C1018 C1017 1.524 . S
C1018 C1019 1.415 . S
C1019 H989 0.950 . S
C1019 C1014 1.363 . S
C1019 C1018 1.415 . S
H1020 C1017 0.999 . S
H1021 C1002 0.913 . S
H1022 C1040 0.951 . S
H1023 C1042 0.951 . S
H1024 C1044 0.950 . S
H1025 C1045 0.950 . S
H1026 C1047 0.950 . S
H1027 C1050 0.950 . S
H1028 C1051 0.950 . S
H1029 C1053 0.950 . S
H1030 C1054 0.950 . S
H1031 C1055 0.951 . S
H1032 C1057 0.951 . S
H1033 C1059 0.950 . S
H1034 C1060 0.950 . S
H1035 C1062 0.950 . S
H1036 C1065 0.950 . S
H1037 C1066 0.950 . S
H1038 C1068 0.950 . S
H1039 C1069 0.950 . S
C1040 H1022 0.951 . S
C1040 C1041 1.366 . S
C1040 C1042 1.388 . S
C1041 C1040 1.366 . S
C1041 C1045 1.385 . S
C1042 H1023 0.951 . S
C1042 C1040 1.388 . S
C1042 C1043 1.366 . S
C1043 C1042 1.366 . S
C1043 C1044 1.414 . S
C1043 C1046 1.499 . S
C1044 H1024 0.950 . S
C1044 C1043 1.414 . S
C1044 C1045 1.374 . S
C1045 H1025 0.950 . S
C1045 C1041 1.385 . S
C1045 C1044 1.374 . S
C1046 C1043 1.499 . S
C1046 C1047 1.373 . S
C1046 C1048 1.389 . S
C1047 H1026 0.950 . S
C1047 C1046 1.373 . S
C1047 C1063 1.377 . S
C1048 C1046 1.389 . S
C1048 C1049 1.524 . S
C1048 C1062 1.377 . S
C1049 C1048 1.524 . S
C1049 C1050 1.397 . S
C1049 C1054 1.363 . S
C1050 H1027 0.950 . S
C1050 C1049 1.397 . S
C1050 C1051 1.334 . S
C1051 H1028 0.950 . S
C1051 C1050 1.334 . S
C1051 C1052 1.287 . S
C1052 C1051 1.287 . S
C1052 C1053 1.524 . S
C1052 H1071 0.913 . S
C1053 H1029 0.950 . S
C1053 C1052 1.524 . S
C1053 C1054 1.415 . S
C1054 H1030 0.950 . S
C1054 C1049 1.363 . S
C1054 C1053 1.415 . S
C1055 H1031 0.951 . S
C1055 C1056 1.366 . S
C1055 C1057 1.388 . S
C1056 C1055 1.366 . S
C1056 C1060 1.385 . S
C1057 H1032 0.951 . S
C1057 C1055 1.388 . S
C1057 C1058 1.366 . S
C1058 C1057 1.366 . S
C1058 C1059 1.414 . S
C1058 C1061 1.499 . S
C1059 H1033 0.950 . S
C1059 C1058 1.414 . S
C1059 C1060 1.374 . S
C1060 H1034 0.950 . S
C1060 C1056 1.385 . S
C1060 C1059 1.374 . S
C1061 C1058 1.499 . S
C1061 C1062 1.373 . S
C1061 C1063 1.389 . S
C1062 H1035 0.950 . S
C1062 C1048 1.377 . S
C1062 C1061 1.373 . S
C1063 C1047 1.377 . S
C1063 C1061 1.389 . S
C1063 C1064 1.524 . S
C1064 C1063 1.524 . S
C1064 C1065 1.397 . S
C1064 C1069 1.363 . S
C1065 H1036 0.950 . S
C1065 C1064 1.397 . S
C1065 C1066 1.334 . S
C1066 H1037 0.950 . S
C1066 C1065 1.334 . S
C1066 C1067 1.287 . S
C1067 C1066 1.287 . S
C1067 C1068 1.524 . S
C1067 H1070 0.999 . S
C1068 H1038 0.950 . S
C1068 C1067 1.524 . S
C1068 C1069 1.415 . S
C1069 H1039 0.950 . S
C1069 C1064 1.363 . S
C1069 C1068 1.415 . S
H1070 C1067 0.999 . S
H1071 C1052 0.913 . S
H1072 C1090 0.951 . S
H1073 C1092 0.951 . S
H1074 C1094 0.950 . S
H1075 C1095 0.950 . S
H1076 C1097 0.950 . S
H1077 C1100 0.950 . S
H1078 C1101 0.950 . S
H1079 C1103 0.950 . S
H1080 C1104 0.949 1_556 S
H1081 C1105 0.951 . S
H1082 C1107 0.951 . S
H1083 C1109 0.950 . S
H1084 C1110 0.950 . S
H1085 C1112 0.950 . S
H1086 C1115 0.950 . S
H1087 C1116 0.950 . S
H1088 C1118 0.950 . S
H1089 C1119 0.950 . S
C1090 H1072 0.951 . S
C1090 C1091 1.366 . S
C1090 C1092 1.388 . S
C1091 C1090 1.366 . S
C1091 C1095 1.385 . S
C1092 H1073 0.951 . S
C1092 C1090 1.388 . S
C1092 C1093 1.366 . S
C1093 C1092 1.366 . S
C1093 C1094 1.414 . S
C1093 C1096 1.499 . S
C1094 H1074 0.950 . S
C1094 C1093 1.414 . S
C1094 C1095 1.374 . S
C1095 H1075 0.950 . S
C1095 C1091 1.385 . S
C1095 C1094 1.374 . S
C1096 C1093 1.499 . S
C1096 C1097 1.373 . S
C1096 C1098 1.389 . S
C1097 H1076 0.950 . S
C1097 C1096 1.373 . S
C1097 C1113 1.377 . S
C1098 C1096 1.389 . S
C1098 C1099 1.524 . S
C1098 C1112 1.377 . S
C1099 C1098 1.524 . S
C1099 C1100 1.397 . S
C1099 C1104 1.363 1_556 S
C1100 H1077 0.950 . S
C1100 C1099 1.397 . S
C1100 C1101 1.334 1_556 S
C1101 H1078 0.950 . S
C1101 C1100 1.334 1_554 S
C1101 C1102 1.287 . S
C1102 C1101 1.287 . S
C1102 C1103 1.524 . S
C1102 H1121 0.913 . S
C1103 H1079 0.950 . S
C1103 C1102 1.524 . S
C1103 C1104 1.415 . S
C1104 H1080 0.949 1_554 S
C1104 C1099 1.363 1_554 S
C1104 C1103 1.415 . S
C1105 H1081 0.951 . S
C1105 C1106 1.366 . S
C1105 C1107 1.388 . S
C1106 C1105 1.366 . S
C1106 C1110 1.385 . S
C1107 H1082 0.951 . S
C1107 C1105 1.388 . S
C1107 C1108 1.366 . S
C1108 C1107 1.366 . S
C1108 C1109 1.414 . S
C1108 C1111 1.499 . S
C1109 H1083 0.950 . S
C1109 C1108 1.414 . S
C1109 C1110 1.374 . S
C1110 H1084 0.950 . S
C1110 C1106 1.385 . S
C1110 C1109 1.374 . S
C1111 C1108 1.499 . S
C1111 C1112 1.373 . S
C1111 C1113 1.389 . S
C1112 H1085 0.950 . S
C1112 C1098 1.377 . S
C1112 C1111 1.373 . S
C1113 C1097 1.377 . S
C1113 C1111 1.389 . S
C1113 C1114 1.524 . S
C1114 C1113 1.524 . S
C1114 C1115 1.397 . S
C1114 C1119 1.363 . S
C1115 H1086 0.950 . S
C1115 C1114 1.397 . S
C1115 C1116 1.334 . S
C1116 H1087 0.950 . S
C1116 C1115 1.334 . S
C1116 C1117 1.287 . S
C1117 C1116 1.287 . S
C1117 C1118 1.524 . S
C1117 H1120 0.999 . S
C1118 H1088 0.950 . S
C1118 C1117 1.524 . S
C1118 C1119 1.415 . S
C1119 H1089 0.950 . S
C1119 C1114 1.363 . S
C1119 C1118 1.415 . S
H1120 C1117 0.999 . S
H1121 C1102 0.913 . S
H1122 C1140 0.951 . S
H1123 C1142 0.951 . S
H1124 C1144 0.950 . S
H1125 C1145 0.950 . S
H1126 C1147 0.950 . S
H1127 C1150 0.950 . S
H1128 C1151 0.950 . S
H1129 C1153 0.950 . S
H1130 C1154 0.950 . S
H1131 C1155 0.951 . S
H1132 C1157 0.951 . S
H1133 C1159 0.950 . S
H1134 C1160 0.950 . S
H1135 C1162 0.950 . S
H1136 C1165 0.950 . S
H1137 C1166 0.950 . S
H1138 C1168 0.950 . S
H1139 C1169 0.950 . S
C1140 H1122 0.951 . S
C1140 C1141 1.366 . S
C1140 C1142 1.388 . S
C1141 C1140 1.366 . S
C1141 C1145 1.385 . S
C1142 H1123 0.951 . S
C1142 C1140 1.388 . S
C1142 C1143 1.366 . S
C1143 C1142 1.366 . S
C1143 C1144 1.414 . S
C1143 C1146 1.499 . S
C1144 H1124 0.950 . S
C1144 C1143 1.414 . S
C1144 C1145 1.374 . S
C1145 H1125 0.950 . S
C1145 C1141 1.385 . S
C1145 C1144 1.374 . S
C1146 C1143 1.499 . S
C1146 C1147 1.373 1_556 S
C1146 C1148 1.389 . S
C1147 H1126 0.950 . S
C1147 C1146 1.373 1_554 S
C1147 C1163 1.377 . S
C1148 C1146 1.389 . S
C1148 C1149 1.524 . S
C1148 C1162 1.377 . S
C1149 C1148 1.524 . S
C1149 C1150 1.397 . S
C1149 C1154 1.363 . S
C1150 H1127 0.950 . S
C1150 C1149 1.397 . S
C1150 C1151 1.334 . S
C1151 H1128 0.950 . S
C1151 C1150 1.334 . S
C1151 C1152 1.287 . S
C1152 C1151 1.287 . S
C1152 C1153 1.524 . S
C1152 H1171 0.913 . S
C1153 H1129 0.950 . S
C1153 C1152 1.524 . S
C1153 C1154 1.415 . S
C1154 H1130 0.950 . S
C1154 C1149 1.363 . S
C1154 C1153 1.415 . S
C1155 H1131 0.951 . S
C1155 C1156 1.366 . S
C1155 C1157 1.388 . S
C1156 C1155 1.366 . S
C1156 C1160 1.385 . S
C1157 H1132 0.951 . S
C1157 C1155 1.388 . S
C1157 C1158 1.366 . S
C1158 C1157 1.366 . S
C1158 C1159 1.414 . S
C1158 C1161 1.499 . S
C1159 H1133 0.950 . S
C1159 C1158 1.414 . S
C1159 C1160 1.374 . S
C1160 H1134 0.950 . S
C1160 C1156 1.385 . S
C1160 C1159 1.374 . S
C1161 C1158 1.499 . S
C1161 C1162 1.373 1_554 S
C1161 C1163 1.389 . S
C1162 H1135 0.950 . S
C1162 C1148 1.377 . S
C1162 C1161 1.373 1_556 S
C1163 C1147 1.377 . S
C1163 C1161 1.389 . S
C1163 C1164 1.524 . S
C1164 C1163 1.524 . S
C1164 C1165 1.397 . S
C1164 C1169 1.363 . S
C1165 H1136 0.950 . S
C1165 C1164 1.397 . S
C1165 C1166 1.334 . S
C1166 H1137 0.950 . S
C1166 C1165 1.334 . S
C1166 C1167 1.287 . S
C1167 C1166 1.287 . S
C1167 C1168 1.524 . S
C1167 H1170 0.999 . S
C1168 H1138 0.950 . S
C1168 C1167 1.524 . S
C1168 C1169 1.415 . S
C1169 H1139 0.950 . S
C1169 C1164 1.363 . S
C1169 C1168 1.415 . S
H1170 C1167 0.999 . S
H1171 C1152 0.913 . S
H1172 C1190 0.951 . S
H1173 C1192 0.951 . S
H1174 C1194 0.950 . S
H1175 C1195 0.950 . S
H1176 C1197 0.950 . S
H1177 C1200 0.950 . S
H1178 C1201 0.950 . S
H1179 C1203 0.950 1_556 S
H1180 C1204 0.950 . S
H1181 C1205 0.951 . S
H1182 C1207 0.951 . S
H1183 C1209 0.950 . S
H1184 C1210 0.950 . S
H1185 C1212 0.950 . S
H1186 C1215 0.950 . S
H1187 C1216 0.950 . S
H1188 C1218 0.950 . S
H1189 C1219 0.950 . S
C1190 H1172 0.951 . S
C1190 C1191 1.366 . S
C1190 C1192 1.388 . S
C1191 C1190 1.366 . S
C1191 C1195 1.385 . S
C1192 H1173 0.951 . S
C1192 C1190 1.388 . S
C1192 C1193 1.366 . S
C1193 C1192 1.366 . S
C1193 C1194 1.414 . S
C1193 C1196 1.499 . S
C1194 H1174 0.950 . S
C1194 C1193 1.414 . S
C1194 C1195 1.374 . S
C1195 H1175 0.950 . S
C1195 C1191 1.385 . S
C1195 C1194 1.374 . S
C1196 C1193 1.499 . S
C1196 C1197 1.373 . S
C1196 C1198 1.389 . S
C1197 H1176 0.950 . S
C1197 C1196 1.373 . S
C1197 C1213 1.377 . S
C1198 C1196 1.389 . S
C1198 C1199 1.524 . S
C1198 C1212 1.377 . S
C1199 C1198 1.524 . S
C1199 C1200 1.397 . S
C1199 C1204 1.363 . S
C1200 H1177 0.950 . S
C1200 C1199 1.397 . S
C1200 C1201 1.334 . S
C1201 H1178 0.950 . S
C1201 C1200 1.334 . S
C1201 C1202 1.287 . S
C1202 C1201 1.287 . S
C1202 C1203 1.524 . S
C1202 H1221 0.913 . S
C1203 H1179 0.950 1_554 S
C1203 C1202 1.524 . S
C1203 C1204 1.415 . S
C1204 H1180 0.950 . S
C1204 C1199 1.363 . S
C1204 C1203 1.415 . S
C1205 H1181 0.951 . S
C1205 C1206 1.366 . S
C1205 C1207 1.388 . S
C1206 C1205 1.366 . S
C1206 C1210 1.385 . S
C1207 H1182 0.951 . S
C1207 C1205 1.388 . S
C1207 C1208 1.366 . S
C1208 C1207 1.366 . S
C1208 C1209 1.414 . S
C1208 C1211 1.499 . S
C1209 H1183 0.950 . S
C1209 C1208 1.414 . S
C1209 C1210 1.374 . S
C1210 H1184 0.950 . S
C1210 C1206 1.385 . S
C1210 C1209 1.374 . S
C1211 C1208 1.499 . S
C1211 C1212 1.373 . S
C1211 C1213 1.389 . S
C1212 H1185 0.950 . S
C1212 C1198 1.377 . S
C1212 C1211 1.373 . S
C1213 C1197 1.377 . S
C1213 C1211 1.389 . S
C1213 C1214 1.524 . S
C1214 C1213 1.524 . S
C1214 C1215 1.397 . S
C1214 C1219 1.363 . S
C1215 H1186 0.950 . S
C1215 C1214 1.397 . S
C1215 C1216 1.334 . S
C1216 H1187 0.950 . S
C1216 C1215 1.334 . S
C1216 C1217 1.287 . S
C1217 C1216 1.287 . S
C1217 C1218 1.524 . S
C1217 H1220 0.999 . S
C1218 H1188 0.950 . S
C1218 C1217 1.524 . S
C1218 C1219 1.415 . S
C1219 H1189 0.950 . S
C1219 C1214 1.363 . S
C1219 C1218 1.415 . S
H1220 C1217 0.999 . S
H1221 C1202 0.913 . S
H1222 C1240 0.951 . S
H1223 C1242 0.951 . S
H1224 C1244 0.950 . S
H1225 C1245 0.950 . S
H1226 C1247 0.950 . S
H1227 C1250 0.950 . S
H1228 C1251 0.950 . S
H1229 C1253 0.950 . S
H1230 C1254 0.950 . S
H1231 C1255 0.951 . S
H1232 C1257 0.951 . S
H1233 C1259 0.950 . S
H1234 C1260 0.950 . S
H1235 C1262 0.950 . S
H1236 C1265 0.950 . S
H1237 C1266 0.950 . S
H1238 C1268 0.950 . S
H1239 C1269 0.950 . S
C1240 H1222 0.951 . S
C1240 C1241 1.366 . S
C1240 C1242 1.388 . S
C1241 C1240 1.366 . S
C1241 C1245 1.385 . S
C1242 H1223 0.951 . S
C1242 C1240 1.388 . S
C1242 C1243 1.366 . S
C1243 C1242 1.366 . S
C1243 C1244 1.414 . S
C1243 C1246 1.499 . S
C1244 H1224 0.950 . S
C1244 C1243 1.414 . S
C1244 C1245 1.374 . S
C1245 H1225 0.950 . S
C1245 C1241 1.385 . S
C1245 C1244 1.374 . S
C1246 C1243 1.499 . S
C1246 C1247 1.373 . S
C1246 C1248 1.389 . S
C1247 H1226 0.950 . S
C1247 C1246 1.373 . S
C1247 C1263 1.377 . S
C1248 C1246 1.389 . S
C1248 C1249 1.524 . S
C1248 C1262 1.377 . S
C1249 C1248 1.524 . S
C1249 C1250 1.397 . S
C1249 C1254 1.363 . S
C1250 H1227 0.950 . S
C1250 C1249 1.397 . S
C1250 C1251 1.334 . S
C1251 H1228 0.950 . S
C1251 C1250 1.334 . S
C1251 C1252 1.287 . S
C1252 C1251 1.287 . S
C1252 C1253 1.524 . S
C1252 H1271 0.913 . S
C1253 H1229 0.950 . S
C1253 C1252 1.524 . S
C1253 C1254 1.415 . S
C1254 H1230 0.950 . S
C1254 C1249 1.363 . S
C1254 C1253 1.415 . S
C1255 H1231 0.951 . S
C1255 C1256 1.366 . S
C1255 C1257 1.388 . S
C1256 C1255 1.366 . S
C1256 C1260 1.385 . S
C1257 H1232 0.951 . S
C1257 C1255 1.388 . S
C1257 C1258 1.366 . S
C1258 C1257 1.366 . S
C1258 C1259 1.414 . S
C1258 C1261 1.499 . S
C1259 H1233 0.950 . S
C1259 C1258 1.414 . S
C1259 C1260 1.374 . S
C1260 H1234 0.950 . S
C1260 C1256 1.385 . S
C1260 C1259 1.374 . S
C1261 C1258 1.499 . S
C1261 C1262 1.373 . S
C1261 C1263 1.389 . S
C1262 H1235 0.950 . S
C1262 C1248 1.377 . S
C1262 C1261 1.373 . S
C1263 C1247 1.377 . S
C1263 C1261 1.389 . S
C1263 C1264 1.524 . S
C1264 C1263 1.524 . S
C1264 C1265 1.397 . S
C1264 C1269 1.363 . S
C1265 H1236 0.950 . S
C1265 C1264 1.397 . S
C1265 C1266 1.334 . S
C1266 H1237 0.950 . S
C1266 C1265 1.334 . S
C1266 C1267 1.287 . S
C1267 C1266 1.287 . S
C1267 C1268 1.524 . S
C1267 H1270 0.999 . S
C1268 H1238 0.950 . S
C1268 C1267 1.524 . S
C1268 C1269 1.415 . S
C1269 H1239 0.950 . S
C1269 C1264 1.363 . S
C1269 C1268 1.415 . S
H1270 C1267 0.999 . S
H1271 C1252 0.913 . S
C491 C64 1.507 . S
C506 C5 1.506 . S
C541 C62 1.499 . S
C556 C123 1.509 1_554 S
C591 C180 1.502 . S
C606 C121 1.501 . S
C641 C182 1.509 1_556 S
C656 C3 1.499 . S
C691 C241 1.507 . S
C706 C300 1.507 . S
C741 C298 1.499 1_556 S
C756 C359 1.509 . S
C791 C357 1.501 . S
C806 C416 1.501 . S
C841 C239 1.499 1_554 S
C856 C418 1.509 . S
C891 C33 1.516 . S
C906 C465 1.514 . S
C941 C288 1.510 . S
C956 C111 1.510 . S
C991 C328 1.516 . S
C1006 C170 1.514 . S
C1041 C210 1.520 . S
C1056 C387 1.520 . S
C1091 C151 1.520 . S
C1106 C446 1.520 . S
C1141 C269 1.516 . S
C1156 C229 1.514 . S
C1191 C347 1.510 . S
C1206 C52 1.510 . S
C1241 C92 1.516 . S
C1256 C406 1.514 . S
