# Generated by pormake.
# Topology ske, (6)-cn, num edge types: 1
# Building blocks:
#     Node 0, Type 0, BuildingBlock: CUWYAW_clean_sbu_0, # of connection points: 6
#     Node 1, Type 0, BuildingBlock: CUWYAW_clean_sbu_0, # of connection points: 6
#     Node 2, Type 0, BuildingBlock: CUWYAW_clean_sbu_0, # of connection points: 6
#     Node 3, Type 0, BuildingBlock: CUWYAW_clean_sbu_0, # of connection points: 6
#     Node 4, Type 0, BuildingBlock: CUWYAW_clean_sbu_0, # of connection points: 6
#     Node 5, Type 0, BuildingBlock: CUWYAW_clean_sbu_0, # of connection points: 6
#     Node 6, Type 0, BuildingBlock: CUWYAW_clean_sbu_0, # of connection points: 6
#     Node 7, Type 0, BuildingBlock: CUWYAW_clean_sbu_0, # of connection points: 6
#     Edge 8, Type (0, 0), BuildingBlock: ZUJKAS_clean_linker_0, # of connection points: 2
#     Edge 9, Type (0, 0), BuildingBlock: ZUJKAS_clean_linker_0, # of connection points: 2
#     Edge 10, Type (0, 0), BuildingBlock: ZUJKAS_clean_linker_0, # of connection points: 2
#     Edge 11, Type (0, 0), BuildingBlock: ZUJKAS_clean_linker_0, # of connection points: 2
#     Edge 12, Type (0, 0), BuildingBlock: ZUJKAS_clean_linker_0, # of connection points: 2
#     Edge 13, Type (0, 0), BuildingBlock: ZUJKAS_clean_linker_0, # of connection points: 2
#     Edge 14, Type (0, 0), BuildingBlock: ZUJKAS_clean_linker_0, # of connection points: 2
#     Edge 15, Type (0, 0), BuildingBlock: ZUJKAS_clean_linker_0, # of connection points: 2
#     Edge 16, Type (0, 0), BuildingBlock: ZUJKAS_clean_linker_0, # of connection points: 2
#     Edge 17, Type (0, 0), BuildingBlock: ZUJKAS_clean_linker_0, # of connection points: 2
#     Edge 18, Type (0, 0), BuildingBlock: ZUJKAS_clean_linker_0, # of connection points: 2
#     Edge 19, Type (0, 0), BuildingBlock: ZUJKAS_clean_linker_0, # of connection points: 2
#     Edge 20, Type (0, 0), BuildingBlock: ZUJKAS_clean_linker_0, # of connection points: 2
#     Edge 21, Type (0, 0), BuildingBlock: ZUJKAS_clean_linker_0, # of connection points: 2
#     Edge 22, Type (0, 0), BuildingBlock: ZUJKAS_clean_linker_0, # of connection points: 2
#     Edge 23, Type (0, 0), BuildingBlock: ZUJKAS_clean_linker_0, # of connection points: 2
#     Edge 24, Type (0, 0), BuildingBlock: ZUJKAS_clean_linker_0, # of connection points: 2
#     Edge 25, Type (0, 0), BuildingBlock: ZUJKAS_clean_linker_0, # of connection points: 2
#     Edge 26, Type (0, 0), BuildingBlock: ZUJKAS_clean_linker_0, # of connection points: 2
#     Edge 27, Type (0, 0), BuildingBlock: ZUJKAS_clean_linker_0, # of connection points: 2
#     Edge 28, Type (0, 0), BuildingBlock: ZUJKAS_clean_linker_0, # of connection points: 2
#     Edge 29, Type (0, 0), BuildingBlock: ZUJKAS_clean_linker_0, # of connection points: 2
#     Edge 30, Type (0, 0), BuildingBlock: ZUJKAS_clean_linker_0, # of connection points: 2
#     Edge 31, Type (0, 0), BuildingBlock: ZUJKAS_clean_linker_0, # of connection points: 2
# Relax obj value: 0.180
# Max RMSD: 0.190
# Mean RMSD: 0.184
data_MOF--net-ske--node1-CUWYAW_clean_sbu_0--edge1-ZUJKAS_clean_linker_0
_symmetry_space_group_name_H-M    P1
_symmetry_Int_Tables_number       1
_symmetry_cell_setting            triclinic
loop_
_symmetry_equiv_pos_as_xyz
'x, y, z'
_cell_length_a     120.25678
_cell_length_b     38.069633
_cell_length_c     20.11027
_cell_angle_alpha  90.012011
_cell_angle_beta   89.997948
_cell_angle_gamma 97.869145
loop_
_atom_site_label
_atom_site_type_symbol
_atom_site_fract_x
_atom_site_fract_y
_atom_site_fract_z
_atom_type_partial_charge
C0 C 0.17486 0.23367 0.54397 0.0
Eu1 Eu 0.15487 0.25301 0.53455 0.0
C2 C 0.18545 0.23794 0.58261 0.0
C3 C 0.19136 0.27154 0.59716 0.0
C4 C 0.20202 0.27464 0.62661 0.0
C5 C 0.207 0.24426 0.64223 0.0
C6 C 0.20089 0.21071 0.62945 0.0
C7 C 0.19026 0.20763 0.5999 0.0
C8 C 0.15042 0.32127 0.52624 0.0
C9 C 0.14323 0.2607 0.67856 0.0
C10 C 0.11021 0.27945 0.53585 0.0
Eu11 Eu 0.13023 0.26008 0.54059 0.0
C12 C 0.09856 0.27403 0.51014 0.0
C13 C 0.09194 0.2406 0.51133 0.0
C14 C 0.08038 0.23745 0.49831 0.0
C15 C 0.07521 0.26768 0.48434 0.0
C16 C 0.082 0.30078 0.48007 0.0
C17 C 0.09353 0.30388 0.49286 0.0
C18 C 0.13475 0.19145 0.5443 0.0
C19 C 0.14208 0.25423 0.39622 0.0
O20 O 0.16591 0.21596 0.57114 0.0
O21 O 0.1726 0.26069 0.50878 0.0
O22 O 0.15864 0.3093 0.49605 0.0
O23 O 0.14546 0.29764 0.56394 0.0
O24 O 0.15125 0.2477 0.64556 0.0
O25 O 0.13513 0.27369 0.64663 0.0
O26 O 0.11841 0.29285 0.49678 0.0
O27 O 0.11314 0.25599 0.57741 0.0
O28 O 0.12644 0.20264 0.5749 0.0
O29 O 0.13965 0.21606 0.50888 0.0
O30 O 0.13397 0.26667 0.42969 0.0
O31 O 0.15023 0.24105 0.4276 0.0
H32 H 0.18787 0.29542 0.58446 0.0
H33 H 0.20641 0.30089 0.63661 0.0
H34 H 0.20448 0.18673 0.63999 0.0
H35 H 0.18592 0.18145 0.58863 0.0
H36 H 0.09558 0.21713 0.52493 0.0
H37 H 0.07541 0.21158 0.50234 0.0
H38 H 0.07835 0.32451 0.46831 0.0
H39 H 0.09845 0.32996 0.49199 0.0
C40 C 0.85451 0.27401 0.54367 0.0
Eu41 Eu 0.87461 0.25543 0.53468 0.0
C42 C 0.84384 0.26896 0.58182 0.0
C43 C 0.83715 0.2357 0.58601 0.0
C44 C 0.82644 0.23253 0.61478 0.0
C45 C 0.82217 0.26249 0.64006 0.0
C46 C 0.82905 0.2955 0.63776 0.0
C47 C 0.83973 0.29868 0.60881 0.0
C48 C 0.87926 0.18746 0.52669 0.0
C49 C 0.8861 0.24804 0.67933 0.0
C50 C 0.91943 0.2309 0.53835 0.0
Eu51 Eu 0.89926 0.2492 0.54213 0.0
C52 C 0.931 0.23656 0.51166 0.0
C53 C 0.93706 0.27064 0.50472 0.0
C54 C 0.94858 0.27487 0.49023 0.0
C55 C 0.95428 0.24513 0.48268 0.0
C56 C 0.94804 0.21111 0.487 0.0
C57 C 0.93654 0.20694 0.50129 0.0
C58 C 0.89441 0.31745 0.54567 0.0
C59 C 0.8876 0.25479 0.39701 0.0
O60 O 0.86337 0.29179 0.57167 0.0
O61 O 0.85693 0.24754 0.50749 0.0
O62 O 0.87103 0.19913 0.49617 0.0
O63 O 0.88411 0.21116 0.56463 0.0
O64 O 0.87809 0.26086 0.6459 0.0
O65 O 0.89428 0.23523 0.64779 0.0
O66 O 0.91123 0.21628 0.50049 0.0
O67 O 0.91643 0.25507 0.57813 0.0
O68 O 0.90255 0.30647 0.57823 0.0
O69 O 0.88977 0.29279 0.50944 0.0
O70 O 0.89574 0.24276 0.43089 0.0
O71 O 0.87934 0.26759 0.42798 0.0
H72 H 0.84005 0.21224 0.56564 0.0
H73 H 0.82145 0.20661 0.61658 0.0
H74 H 0.82602 0.31922 0.65601 0.0
H75 H 0.84466 0.32468 0.60559 0.0
H76 H 0.93298 0.29397 0.51262 0.0
H77 H 0.95305 0.30147 0.48617 0.0
H78 H 0.95211 0.18756 0.48243 0.0
H79 H 0.93208 0.1804 0.50719 0.0
C80 C 0.11057 0.77917 0.48753 0.0
Eu81 Eu 0.13067 0.76027 0.48216 0.0
C82 C 0.09886 0.77156 0.51196 0.0
C83 C 0.09231 0.73853 0.50125 0.0
C84 C 0.08074 0.73401 0.514 0.0
C85 C 0.07546 0.76238 0.53769 0.0
C86 C 0.08215 0.7949 0.55119 0.0
C87 C 0.09371 0.79942 0.53831 0.0
C88 C 0.13519 0.69169 0.47856 0.0
C89 C 0.14252 0.75479 0.62653 0.0
C90 C 0.17544 0.73485 0.47952 0.0
Eu91 Eu 0.15535 0.75361 0.48855 0.0
C92 C 0.18609 0.73947 0.44141 0.0
C93 C 0.19188 0.77321 0.42678 0.0
C94 C 0.2026 0.77671 0.39792 0.0
C95 C 0.20776 0.74657 0.38299 0.0
C96 C 0.20175 0.71285 0.39585 0.0
C97 C 0.19107 0.70939 0.42479 0.0
C98 C 0.1507 0.82172 0.49725 0.0
C99 C 0.14377 0.76123 0.34444 0.0
O100 O 0.11858 0.79097 0.52919 0.0
O101 O 0.1138 0.75799 0.4425 0.0
O102 O 0.12682 0.70281 0.44854 0.0
O103 O 0.14016 0.71632 0.51373 0.0
O104 O 0.13447 0.76741 0.59287 0.0
O105 O 0.15065 0.7414 0.59533 0.0
O106 O 0.16655 0.71703 0.45183 0.0
O107 O 0.17307 0.76167 0.51489 0.0
O108 O 0.15895 0.80996 0.52748 0.0
O109 O 0.14587 0.79802 0.45928 0.0
O110 O 0.15178 0.74828 0.37755 0.0
O111 O 0.13563 0.77414 0.37627 0.0
H112 H 0.09603 0.71653 0.48087 0.0
H113 H 0.07588 0.70843 0.50406 0.0
H114 H 0.0784 0.81747 0.56875 0.0
H115 H 0.09854 0.82526 0.54623 0.0
H116 H 0.18825 0.79693 0.43896 0.0
H117 H 0.20689 0.80307 0.38782 0.0
H118 H 0.20547 0.68905 0.38585 0.0
H119 H 0.18683 0.6831 0.43614 0.0
C120 C 0.91965 0.73099 0.48695 0.0
Eu121 Eu 0.89948 0.74943 0.4819 0.0
C122 C 0.93136 0.73879 0.51131 0.0
C123 C 0.93792 0.77169 0.49949 0.0
C124 C 0.94949 0.77631 0.51223 0.0
C125 C 0.95477 0.74816 0.53703 0.0
C126 C 0.94806 0.71581 0.55162 0.0
C127 C 0.9365 0.7112 0.53875 0.0
C128 C 0.89492 0.81793 0.47758 0.0
C129 C 0.88785 0.75569 0.62686 0.0
C130 C 0.85467 0.77353 0.48071 0.0
Eu131 Eu 0.8749 0.75582 0.48942 0.0
C132 C 0.84403 0.76872 0.4423 0.0
C133 C 0.83761 0.7352 0.43445 0.0
C134 C 0.82691 0.73201 0.40554 0.0
C135 C 0.82236 0.76221 0.38378 0.0
C136 C 0.82897 0.79556 0.38979 0.0
C137 C 0.83965 0.79875 0.41885 0.0
C138 C 0.8797 0.68793 0.49921 0.0
C139 C 0.88628 0.74778 0.34474 0.0
O140 O 0.91166 0.71897 0.52862 0.0
O141 O 0.91635 0.7521 0.44204 0.0
O142 O 0.9032 0.80667 0.44687 0.0
O143 O 0.89004 0.7935 0.51351 0.0
O144 O 0.89584 0.74283 0.59302 0.0
O145 O 0.8797 0.76896 0.59569 0.0
O146 O 0.8635 0.79205 0.45381 0.0
O147 O 0.85717 0.74667 0.51545 0.0
O148 O 0.87169 0.70002 0.5313 0.0
O149 O 0.88431 0.71129 0.45986 0.0
O150 O 0.87831 0.76088 0.3781 0.0
O151 O 0.89444 0.73494 0.37644 0.0
H152 H 0.93421 0.7935 0.47825 0.0
H153 H 0.95436 0.80176 0.50141 0.0
H154 H 0.95181 0.69342 0.57007 0.0
H155 H 0.93166 0.68545 0.54753 0.0
H156 H 0.84073 0.7115 0.45205 0.0
H157 H 0.82214 0.70585 0.40084 0.0
H158 H 0.82573 0.81945 0.37437 0.0
H159 H 0.84435 0.82493 0.42494 0.0
C160 C 0.6757 0.73536 0.05194 0.0
Eu161 Eu 0.65557 0.7537 0.04266 0.0
C162 C 0.6863 0.74011 0.09079 0.0
C163 C 0.69267 0.77365 0.09936 0.0
C164 C 0.70333 0.77684 0.12883 0.0
C165 C 0.70787 0.74661 0.15048 0.0
C166 C 0.7013 0.71323 0.14376 0.0
C167 C 0.69067 0.71005 0.11412 0.0
C168 C 0.6508 0.8215 0.03372 0.0
C169 C 0.64406 0.76132 0.18721 0.0
C170 C 0.61062 0.77751 0.04673 0.0
Eu171 Eu 0.63085 0.75954 0.04997 0.0
C172 C 0.59895 0.77205 0.02151 0.0
C173 C 0.5928 0.73807 0.01523 0.0
C174 C 0.58122 0.73406 1.00238 0.0
C175 C 0.57554 0.76393 0.99591 0.0
C176 C 0.58187 0.79785 0.99963 0.0
C177 C 0.59342 0.8018 1.01223 0.0
C178 C 0.63584 0.6914 0.05328 0.0
C179 C 0.64255 0.75414 0.90487 0.0
O180 O 0.66681 0.71714 0.0788 0.0
O181 O 0.6733 0.7622 0.01676 0.0
O182 O 0.65906 0.80983 1.00349 0.0
O183 O 0.64596 0.7979 0.07199 0.0
O184 O 0.65209 0.74856 0.15392 0.0
O185 O 0.63584 0.77384 0.15554 0.0
O186 O 0.61875 0.79197 1.00812 0.0
O187 O 0.61371 0.7535 0.08653 0.0
O188 O 0.62766 0.70215 0.0858 0.0
O189 O 0.64045 0.71621 0.01732 0.0
O190 O 0.63437 0.76598 0.93872 0.0
O191 O 0.65086 0.74156 0.93586 0.0
H192 H 0.68955 0.79738 0.08192 0.0
H193 H 0.70807 0.80301 0.13408 0.0
H194 H 0.70455 0.68932 0.15909 0.0
H195 H 0.686 0.68386 0.10752 0.0
H196 H 0.59686 0.71464 0.02238 0.0
H197 H 0.57669 0.70752 0.99872 0.0
H198 H 0.57784 0.82151 0.99592 0.0
H199 H 0.59795 0.82827 0.01772 0.0
C200 C 0.35493 0.78118 0.05713 0.0
Eu201 Eu 0.37474 0.76053 0.04715 0.0
C202 C 0.34429 0.77647 0.09534 0.0
C203 C 0.3386 0.74268 0.11058 0.0
C204 C 0.32791 0.73904 0.13984 0.0
C205 C 0.32269 0.76908 0.15461 0.0
C206 C 0.3286 0.80286 0.14113 0.0
C207 C 0.33926 0.80646 0.11177 0.0
C208 C 0.37874 0.69198 0.03769 0.0
C209 C 0.38631 0.75139 0.19094 0.0
C210 C 0.41927 0.73139 0.04819 0.0
Eu211 Eu 0.39938 0.75184 0.053 0.0
C212 C 0.43102 0.73689 0.02399 0.0
C213 C 0.43779 0.76998 0.02877 0.0
C214 C 0.44939 0.77292 0.0171 0.0
C215 C 0.45446 0.74279 1.0009 0.0
C216 C 0.44755 0.71011 0.9931 0.0
C217 C 0.43598 0.70723 1.00455 0.0
C218 C 0.39523 0.82083 0.057 0.0
C219 C 0.38755 0.75856 0.90884 0.0
O220 O 0.36392 0.79775 0.0859 0.0
O221 O 0.35708 0.75476 0.01992 0.0
O222 O 0.3705 0.70445 1.0087 0.0
O223 O 0.38391 0.71521 0.07544 0.0
O224 O 0.3784 0.76507 0.15817 0.0
O225 O 0.39434 0.73803 0.15881 0.0
O226 O 0.41115 0.71944 1.00732 0.0
O227 O 0.41632 0.75394 0.09154 0.0
O228 O 0.40353 0.80929 0.08706 0.0
O229 O 0.39019 0.79639 0.02181 0.0
O230 O 0.39553 0.74543 0.94221 0.0
O231 O 0.37953 0.77244 0.94029 0.0
H232 H 0.34228 0.71905 0.09859 0.0
H233 H 0.32369 0.71264 0.1504 0.0
H234 H 0.32484 0.82658 0.15102 0.0
H235 H 0.34344 0.83278 0.10002 0.0
H236 H 0.43421 0.7933 0.04411 0.0
H237 H 0.45445 0.79847 0.0239 0.0
H238 H 0.45112 0.68649 0.97956 0.0
H239 H 0.43096 0.68139 1.00093 0.0
C240 C 0.61084 0.27756 0.98046 0.0
Eu241 Eu 0.63105 0.25952 0.97571 0.0
C242 C 0.59903 0.26801 1.00164 0.0
C243 C 0.59307 0.23424 0.98911 0.0
C244 C 0.58142 0.22784 0.99872 0.0
C245 C 0.57549 0.25504 0.02102 0.0
C246 C 0.58159 0.28828 0.03644 0.0
C247 C 0.59321 0.29467 0.02672 0.0
C248 C 0.63559 0.19092 0.97159 0.0
C249 C 0.64264 0.25369 0.12066 0.0
C250 C 0.67579 0.23575 0.97462 0.0
Eu251 Eu 0.65555 0.25332 0.98345 0.0
C252 C 0.68638 0.24073 0.93571 0.0
C253 C 0.69306 0.274 0.93097 0.0
C254 C 0.70371 0.27714 0.90155 0.0
C255 C 0.70795 0.24714 0.87618 0.0
C256 C 0.70108 0.21413 0.87898 0.0
C257 C 0.69045 0.21098 0.90858 0.0
C258 C 0.65076 0.32118 0.99444 0.0
C259 C 0.64429 0.26182 0.83874 0.0
O260 O 0.61851 0.28748 0.0253 0.0
O261 O 0.61448 0.25885 0.93275 0.0
O262 O 0.62734 0.20222 0.94073 0.0
O263 O 0.64045 0.21538 1.00747 0.0
O264 O 0.63475 0.26693 0.08666 0.0
O265 O 0.65071 0.23998 0.08955 0.0
O266 O 0.66695 0.21711 0.948 0.0
O267 O 0.67327 0.26256 1.00947 0.0
O268 O 0.65873 0.30886 0.02645 0.0
O269 O 0.64616 0.29808 0.9545 0.0
O270 O 0.65221 0.24849 0.87202 0.0
O271 O 0.63615 0.27463 0.8706 0.0
H272 H 0.59734 0.21316 0.96968 0.0
H273 H 0.57703 0.20176 0.98738 0.0
H274 H 0.57732 0.30997 0.05302 0.0
H275 H 0.5976 0.32101 0.03603 0.0
H276 H 0.69019 0.29749 0.95144 0.0
H277 H 0.7087 0.30306 0.89938 0.0
H278 H 0.70409 0.19039 0.86068 0.0
H279 H 0.68554 0.18496 0.91222 0.0
C280 C 0.41941 0.24736 1.00097 0.0
Eu281 Eu 0.39839 0.25543 0.98795 0.0
C282 C 0.43147 0.24379 1.00912 0.0
C283 C 0.43898 0.27225 0.03416 0.0
C284 C 0.45046 0.26995 0.03872 0.0
C285 C 0.45476 0.2391 0.01839 0.0
C286 C 0.44721 0.21043 0.99404 0.0
C287 C 0.43569 0.21274 0.98949 0.0
C288 C 0.39202 0.32117 0.97563 0.0
C289 C 0.38579 0.25589 0.12948 0.0
C290 C 0.35311 0.27207 0.97935 0.0
Eu291 Eu 0.37354 0.25644 0.9912 0.0
C292 C 0.3427 0.26746 0.93897 0.0
C293 C 0.33683 0.23377 0.92478 0.0
C294 C 0.32627 0.23045 0.89398 0.0
C295 C 0.32135 0.26072 0.87672 0.0
C296 C 0.32744 0.29435 0.88911 0.0
C297 C 0.33797 0.29764 0.91994 0.0
C298 C 0.3794 0.1902 1.00479 0.0
C299 C 0.38621 0.25284 0.84706 0.0
O300 O 0.41195 0.22236 0.97675 0.0
O301 O 0.41537 0.27603 0.0192 0.0
O302 O 0.39999 0.31011 0.94147 0.0
O303 O 0.38782 0.29729 0.01528 0.0
O304 O 0.39374 0.24284 0.09583 0.0
O305 O 0.37781 0.26974 0.09798 0.0
O306 O 0.36195 0.29189 0.9553 0.0
O307 O 0.35566 0.24474 1.01255 0.0
O308 O 0.37086 0.201 0.0337 0.0
O309 O 0.38401 0.21388 0.96577 0.0
O310 O 0.37709 0.25869 0.87985 0.0
O311 O 0.39548 0.24753 0.87835 0.0
H312 H 0.43602 0.29665 0.04934 0.0
H313 H 0.45601 0.29278 0.05673 0.0
H314 H 0.45019 0.1861 0.97866 0.0
H315 H 0.43012 0.19036 0.96996 0.0
H316 H 0.34025 0.20997 0.93885 0.0
H317 H 0.32191 0.20413 0.88434 0.0
H318 H 0.32389 0.31826 0.87737 0.0
H319 H 0.34226 0.32391 0.93095 0.0
H320 H 0.21528 0.20388 0.73901 0.0
H321 H 0.23466 0.20717 0.7783 0.0
H322 H 0.24465 0.29442 0.64492 0.0
H323 H 0.22533 0.29125 0.60518 0.0
H324 H 0.25371 0.19889 0.70607 0.0
H325 H 0.25818 0.33273 0.82024 0.0
H326 H 0.24472 0.30876 0.79751 0.0
H327 H 0.25365 0.33172 0.73513 0.0
C328 C 0.22159 0.22382 0.71802 0.0
C329 C 0.21869 0.2474 0.66904 0.0
C330 C 0.23267 0.22573 0.74073 0.0
C331 C 0.24111 0.25135 0.7153 0.0
C332 C 0.23826 0.27497 0.66652 0.0
H333 H 0.31329 0.30063 0.77832 0.0
H334 H 0.29397 0.29735 0.73788 0.0
C335 C 0.22718 0.27312 0.64385 0.0
C336 C 0.25295 0.25248 0.73801 0.0
H337 H 0.27482 0.30602 0.80991 0.0
C338 C 0.25831 0.22225 0.7291 0.0
C339 C 0.25898 0.28301 0.76783 0.0
C340 C 0.25358 0.31581 0.78139 0.0
C341 C 0.26955 0.2219 0.74814 0.0
C342 C 0.27558 0.25242 0.77802 0.0
C343 C 0.27023 0.28266 0.78685 0.0
C344 C 0.28739 0.25345 0.80119 0.0
C345 C 0.27496 0.1891 0.7347 0.0
C346 C 0.29014 0.22996 0.85046 0.0
C347 C 0.30118 0.23182 0.87385 0.0
C348 C 0.30972 0.25742 0.84886 0.0
C349 C 0.30693 0.28081 0.79922 0.0
C350 C 0.29589 0.2789 0.77584 0.0
H351 H 0.27036 0.17216 0.69584 0.0
H352 H 0.28382 0.19615 0.71864 0.0
H353 H 0.27488 0.17321 0.78098 0.0
H354 H 0.2837 0.21063 0.87196 0.0
H355 H 0.30294 0.21385 0.91299 0.0
H356 H 0.71552 0.21413 0.76673 0.0
H357 H 0.7349 0.21634 0.72765 0.0
H358 H 0.74625 0.28897 0.88575 0.0
H359 H 0.72697 0.28623 0.92616 0.0
H360 H 0.75031 0.2747 0.68585 0.0
H361 H 0.76609 0.21024 0.90768 0.0
H362 H 0.75131 0.20909 0.89055 0.0
H363 H 0.75921 0.24811 0.92605 0.0
C364 C 0.72214 0.2304 0.79349 0.0
C365 C 0.71966 0.24987 0.84984 0.0
C366 C 0.73322 0.23177 0.77085 0.0
C367 C 0.74206 0.25236 0.80437 0.0
C368 C 0.7396 0.27239 0.85975 0.0
H369 H 0.81449 0.29533 0.74933 0.0
H370 H 0.79507 0.293 0.78781 0.0
C371 C 0.72853 0.27113 0.88231 0.0
C372 C 0.75385 0.25309 0.78117 0.0
H373 H 0.77972 0.23458 0.82906 0.0
C374 C 0.75673 0.26577 0.71701 0.0
C375 C 0.76224 0.24147 0.8219 0.0
C376 C 0.75958 0.22615 0.89017 0.0
C377 C 0.76779 0.26779 0.69298 0.0
C378 C 0.77618 0.25621 0.73374 0.0
C379 C 0.7733 0.2435 0.79788 0.0
C380 C 0.78798 0.25709 0.71071 0.0
C381 C 0.77045 0.28312 0.62472 0.0
C382 C 0.79051 0.23718 0.65529 0.0
C383 C 0.80159 0.23852 0.63306 0.0
C384 C 0.81043 0.25973 0.66592 0.0
C385 C 0.80789 0.2791 0.72227 0.0
C386 C 0.7968 0.27765 0.74457 0.0
H387 H 0.76393 0.29897 0.60715 0.0
H388 H 0.77871 0.30023 0.62437 0.0
H389 H 0.77084 0.26117 0.58886 0.0
H390 H 0.78388 0.22061 0.62904 0.0
H391 H 0.8032 0.22349 0.5892 0.0
H392 H 0.31407 0.80951 0.25009 0.0
H393 H 0.29465 0.80511 0.2892 0.0
H394 H 0.2853 0.7163 0.15829 0.0
H395 H 0.30466 0.72058 0.11873 0.0
H396 H 0.27551 0.81143 0.21676 0.0
H397 H 0.2719 0.67855 0.33414 0.0
H398 H 0.28524 0.70317 0.31096 0.0
H399 H 0.27646 0.67917 0.24909 0.0
C400 C 0.30789 0.789 0.2296 0.0
C401 C 0.31098 0.76531 0.18135 0.0
C402 C 0.29679 0.78645 0.25222 0.0
C403 C 0.28851 0.76007 0.22745 0.0
C404 C 0.29156 0.73635 0.17941 0.0
H405 H 0.21641 0.70616 0.28759 0.0
H406 H 0.23586 0.71036 0.24912 0.0
C407 C 0.30267 0.73883 0.15684 0.0
C408 C 0.27663 0.75828 0.24995 0.0
H409 H 0.25501 0.70381 0.32225 0.0
C410 C 0.27105 0.78796 0.24017 0.0
C411 C 0.27078 0.72762 0.28031 0.0
C412 C 0.27641 0.69542 0.29489 0.0
C413 C 0.25975 0.78763 0.25873 0.0
C414 C 0.25389 0.75697 0.28905 0.0
C415 C 0.25947 0.72728 0.29885 0.0
C416 C 0.242 0.75518 0.31141 0.0
C417 C 0.25411 0.81984 0.24421 0.0
C418 C 0.23895 0.77882 0.35957 0.0
C419 C 0.22783 0.77645 0.38179 0.0
C420 C 0.2195 0.75016 0.35677 0.0
C421 C 0.2226 0.72653 0.30846 0.0
C422 C 0.23372 0.72896 0.28621 0.0
H423 H 0.25865 0.8368 0.20516 0.0
H424 H 0.2453 0.81208 0.2279 0.0
H425 H 0.25403 0.83599 0.2901 0.0
H426 H 0.24522 0.79874 0.381 0.0
H427 H 0.22583 0.79465 0.41997 0.0
H428 H 0.7157 0.71042 0.25512 0.0
H429 H 0.73505 0.71358 0.29514 0.0
H430 H 0.74593 0.79208 0.1459 0.0
H431 H 0.72665 0.78905 0.10555 0.0
H432 H 0.75384 0.69902 0.22759 0.0
H433 H 0.76002 0.83885 0.31287 0.0
H434 H 0.74633 0.81526 0.29382 0.0
H435 H 0.75548 0.83352 0.22801 0.0
C436 C 0.7222 0.7284 0.23081 0.0
C437 C 0.71957 0.74962 0.17725 0.0
C438 C 0.73327 0.73026 0.25391 0.0
C439 C 0.74195 0.75346 0.22427 0.0
C440 C 0.73936 0.77463 0.17078 0.0
H441 H 0.81442 0.79817 0.27921 0.0
H442 H 0.79502 0.79502 0.24006 0.0
C443 C 0.7283 0.77286 0.14774 0.0
C444 C 0.75377 0.75453 0.24764 0.0
H445 H 0.77628 0.80978 0.30864 0.0
C446 C 0.75873 0.7232 0.24568 0.0
C447 C 0.76018 0.78609 0.27107 0.0
C448 C 0.75522 0.82028 0.27725 0.0
C449 C 0.76994 0.7227 0.26522 0.0
C450 C 0.77636 0.75428 0.28855 0.0
C451 C 0.77139 0.7856 0.29058 0.0
C452 C 0.78819 0.75539 0.31155 0.0
C453 C 0.7749 0.68851 0.25913 0.0
C454 C 0.79084 0.73435 0.36511 0.0
C455 C 0.80192 0.73612 0.38768 0.0
C456 C 0.81063 0.75922 0.35759 0.0
C457 C 0.80794 0.7803 0.30397 0.0
C458 C 0.79685 0.77846 0.28136 0.0
H459 H 0.77006 0.66982 0.22385 0.0
H460 H 0.78376 0.69351 0.24219 0.0
H461 H 0.7747 0.67542 0.30849 0.0
H462 H 0.78429 0.71699 0.39038 0.0
H463 H 0.80362 0.72003 0.42993 0.0
H464 H 0.16288 0.8763 0.56326 0.0
H465 H 0.15967 0.93819 0.56895 0.0
H466 H 0.13041 0.91438 0.44447 0.0
H467 H 0.13378 0.85216 0.43729 0.0
H468 H 0.143 0.97621 0.40727 0.0
H469 H 0.13651 0.97826 0.67941 0.0
H470 H 0.1497 0.9644 0.65778 0.0
H471 H 0.13681 0.9376 0.63377 0.0
C472 C 0.15574 0.88416 0.53712 0.0
C473 C 0.14856 0.85925 0.49999 0.0
C474 C 0.15386 0.91961 0.54082 0.0
C475 C 0.14466 0.93104 0.50833 0.0
C476 C 0.13753 0.90628 0.47038 0.0
H477 H 0.12165 0.13412 0.59745 0.0
H478 H 0.12376 0.0714 0.58578 0.0
C479 C 0.13945 0.8707 0.46634 0.0
C480 C 0.14264 0.9689 0.51341 0.0
H481 H 0.13953 0.03456 0.62536 0.0
C482 C 0.14217 0.98889 0.45496 0.0
C483 C 0.14138 0.98554 0.57551 0.0
C484 C 0.14101 0.96525 0.64012 0.0
C485 C 0.14074 0.02505 0.45695 0.0
C486 C 0.14002 0.04211 0.51923 0.0
C487 C 0.14024 0.02185 0.57755 0.0
C488 C 0.13877 0.08062 0.52527 0.0
C489 C 0.1398 0.04435 0.39211 0.0
C490 C 0.14657 0.10711 0.49603 0.0
C491 C 0.1453 0.14311 0.50218 0.0
C492 C 0.1363 0.15347 0.53854 0.0
C493 C 0.12865 0.12705 0.56894 0.0
C494 C 0.12987 0.09111 0.56232 0.0
H495 H 0.13712 0.02565 0.3509 0.0
H496 H 0.13372 0.06374 0.39602 0.0
H497 H 0.14813 0.05893 0.37885 0.0
H498 H 0.1537 0.10001 0.46884 0.0
H499 H 0.15139 0.16285 0.4787 0.0
H500 H 0.88157 0.3473 0.45464 0.0
H501 H 0.87961 0.41018 0.44153 0.0
H502 H 0.90114 0.4357 0.61128 0.0
H503 H 0.90346 0.3731 0.62279 0.0
H504 H 0.87114 0.45574 0.51626 0.0
H505 H 0.91608 0.50634 0.48255 0.0
H506 H 0.91089 0.45961 0.48192 0.0
H507 H 0.91363 0.48286 0.55954 0.0
C508 C 0.88593 0.36638 0.48894 0.0
C509 C 0.89277 0.35529 0.53934 0.0
C510 C 0.88481 0.40237 0.48144 0.0
C511 C 0.89044 0.4281 0.52435 0.0
C512 C 0.897 0.41678 0.576 0.0
H513 H 0.87142 0.63776 0.58894 0.0
H514 H 0.8742 0.57543 0.59292 0.0
C515 C 0.89824 0.38087 0.58299 0.0
C516 C 0.88919 0.46649 0.51627 0.0
H517 H 0.90397 0.54981 0.50519 0.0
C518 C 0.87834 0.47622 0.51339 0.0
C519 C 0.89854 0.49347 0.51103 0.0
C520 C 0.91043 0.48503 0.50817 0.0
C521 C 0.87658 0.51189 0.50727 0.0
C522 C 0.88593 0.53902 0.50614 0.0
C523 C 0.89678 0.52926 0.50709 0.0
C524 C 0.8846 0.57757 0.50476 0.0
C525 C 0.86468 0.51995 0.50079 0.0
C526 C 0.88996 0.60036 0.45581 0.0
C527 C 0.88856 0.63641 0.45426 0.0
C528 C 0.88173 0.65033 0.5015 0.0
C529 C 0.8766 0.62773 0.55125 0.0
C530 C 0.87811 0.59193 0.55325 0.0
H531 H 0.85905 0.49694 0.4802 0.0
H532 H 0.86146 0.52575 0.55072 0.0
H533 H 0.86422 0.54323 0.46818 0.0
H534 H 0.89511 0.59016 0.41817 0.0
H535 H 0.89266 0.65322 0.41554 0.0
H536 H 0.90812 0.87508 0.42452 0.0
H537 H 0.90615 0.93788 0.43672 0.0
H538 H 0.87622 0.90967 0.55389 0.0
H539 H 0.87838 0.84676 0.54351 0.0
H540 H 0.89044 0.97505 0.39762 0.0
H541 H 0.89303 0.98351 0.67206 0.0
H542 H 0.89632 0.9454 0.62661 0.0
H543 H 0.88195 0.9504 0.64425 0.0
C544 C 0.90115 0.88226 0.45317 0.0
C545 C 0.89346 0.85595 0.48349 0.0
C546 C 0.90002 0.91824 0.46012 0.0
C547 C 0.89116 0.92883 0.4974 0.0
C548 C 0.88332 0.90246 0.52654 0.0
H549 H 0.86707 0.13285 0.46098 0.0
H550 H 0.87032 0.07103 0.45509 0.0
C551 C 0.8845 0.86642 0.52008 0.0
C552 C 0.88999 0.96735 0.50372 0.0
H553 H 0.8871 0.03307 0.61617 0.0
C554 C 0.88977 0.98769 0.44552 0.0
C555 C 0.88932 0.9843 0.56613 0.0
C556 C 0.89028 0.96489 0.63082 0.0
C557 C 0.88865 0.024 0.44782 0.0
C558 C 0.88742 0.04052 0.51006 0.0
C559 C 0.88791 0.02046 0.56838 0.0
C560 C 0.88537 0.0783 0.51537 0.0
C561 C 0.88901 0.0444 0.38334 0.0
C562 C 0.8925 0.10307 0.55327 0.0
C563 C 0.89055 0.1386 0.55746 0.0
C564 C 0.88142 0.14997 0.52399 0.0
C565 C 0.87423 0.12504 0.48696 0.0
C566 C 0.87613 0.08964 0.48314 0.0
H567 H 0.89351 0.03148 0.34394 0.0
H568 H 0.88031 0.04525 0.36574 0.0
H569 H 0.89319 0.07205 0.38983 0.0
H570 H 0.89964 0.09501 0.579 0.0
H571 H 0.89623 0.15717 0.58644 0.0
H572 H 0.15202 0.66312 0.54239 0.0
H573 H 0.15443 0.60025 0.55108 0.0
H574 H 0.12405 0.57164 0.43812 0.0
H575 H 0.12182 0.63429 0.42762 0.0
H576 H 0.14169 0.5442 0.60647 0.0
H577 H 0.14519 0.5189 0.33671 0.0
H578 H 0.14573 0.56305 0.37021 0.0
H579 H 0.13244 0.53578 0.35773 0.0
C580 C 0.1459 0.64339 0.51904 0.0
C581 C 0.13677 0.65372 0.4839 0.0
C582 C 0.14727 0.60742 0.52419 0.0
C583 C 0.13954 0.58099 0.49429 0.0
C584 C 0.13031 0.59137 0.46014 0.0
H585 H 0.13376 0.35253 0.58728 0.0
H586 H 0.13077 0.41508 0.58133 0.0
C587 C 0.12901 0.62728 0.4545 0.0
C588 C 0.14102 0.54265 0.49951 0.0
H589 H 0.14291 0.46823 0.40702 0.0
C590 C 0.14199 0.52763 0.5628 0.0
C591 C 0.14155 0.5209 0.44266 0.0
C592 C 0.14129 0.53553 0.37301 0.0
C593 C 0.14337 0.49166 0.57078 0.0
C594 C 0.14354 0.46968 0.51398 0.0
C595 C 0.14265 0.48479 0.45073 0.0
C596 C 0.14518 0.43144 0.51845 0.0
C597 C 0.14494 0.47786 0.63998 0.0
C598 C 0.15406 0.41932 0.48376 0.0
C599 C 0.15568 0.38363 0.48648 0.0
C600 C 0.14847 0.35901 0.52404 0.0
C601 C 0.13952 0.37092 0.55844 0.0
C602 C 0.13785 0.40676 0.5554 0.0
H603 H 0.14763 0.49972 0.67552 0.0
H604 H 0.13684 0.46348 0.65791 0.0
H605 H 0.15127 0.45919 0.64043 0.0
H606 H 0.15981 0.43761 0.45468 0.0
H607 H 0.16264 0.37534 0.45917 0.0
H608 H 0.62666 0.63519 0.12877 0.0
H609 H 0.62922 0.57272 0.11691 0.0
H610 H 0.65102 0.5995 0.9488 0.0
H611 H 0.64881 0.66213 0.96222 0.0
H612 H 0.62401 0.52624 0.02105 0.0
H613 H 0.67013 0.54222 0.05364 0.0
H614 H 0.66201 0.57771 0.07011 0.0
H615 H 0.66598 0.56836 0.98624 0.0
C616 C 0.63208 0.62777 0.08966 0.0
C617 C 0.63759 0.65364 0.04673 0.0
C618 C 0.63351 0.59199 0.08274 0.0
C619 C 0.64046 0.58116 0.03258 0.0
C620 C 0.64586 0.60704 0.98909 0.0
H621 H 0.63794 0.35695 0.91159 0.0
H622 H 0.63521 0.41965 0.91796 0.0
C623 C 0.64454 0.64289 0.99651 0.0
C624 C 0.64185 0.54282 0.02525 0.0
H625 H 0.66148 0.48586 0.01617 0.0
C626 C 0.63222 0.51744 0.02021 0.0
C627 C 0.65253 0.531 0.02493 0.0
C628 C 0.66324 0.55619 0.03471 0.0
C629 C 0.63295 0.48089 0.01472 0.0
C630 C 0.64364 0.46921 1.01221 0.0
C631 C 0.65327 0.49461 0.01736 0.0
C632 C 0.6451 0.4308 1.00751 0.0
C633 C 0.62222 0.45518 0.01385 0.0
C634 C 0.6518 0.41606 0.05436 0.0
C635 C 0.65354 0.38052 0.04992 0.0
C636 C 0.64858 0.35861 0.9987 0.0
C637 C 0.64181 0.3731 0.9519 0.0
C638 C 0.64018 0.40893 0.95586 0.0
H639 H 0.6151 0.4671 0.03559 0.0
H640 H 0.62001 0.44782 0.96165 0.0
H641 H 0.62317 0.43064 0.04186 0.0
H642 H 0.65571 0.43212 0.0947 0.0
H643 H 0.65878 0.37015 0.08687 0.0
H644 H 0.40853 0.87792 0.1097 0.0
H645 H 0.40648 0.94072 0.09852 0.0
H646 H 0.3765 0.9127 0.98169 0.0
H647 H 0.37872 0.84975 0.99122 0.0
H648 H 0.38971 0.96839 0.92742 0.0
H649 H 0.38488 0.99377 0.19631 0.0
H650 H 0.39766 0.97651 0.17744 0.0
H651 H 0.38437 0.94961 0.16294 0.0
C652 C 0.40147 0.88512 0.08184 0.0
C653 C 0.39376 0.85885 0.05159 0.0
C654 C 0.40027 0.92109 0.07578 0.0
C655 C 0.39121 0.93164 0.04024 0.0
C656 C 0.38353 0.90537 1.00959 0.0
H657 H 0.36746 0.13565 0.07155 0.0
H658 H 0.37065 0.07383 0.07657 0.0
C659 C 0.38478 0.86936 0.01523 0.0
C660 C 0.38983 0.96999 0.03443 0.0
H661 H 0.38738 0.04428 0.12593 0.0
C662 C 0.38918 0.98497 0.97086 0.0
C663 C 0.38899 0.99169 0.09097 0.0
C664 C 0.38889 0.97703 0.16074 0.0
C665 C 0.38778 0.02087 0.96231 0.0
C666 C 0.38727 0.04282 0.01889 0.0
C667 C 0.38789 0.02775 0.0824 0.0
C668 C 0.38543 0.08084 0.01393 0.0
C669 C 0.38652 0.03458 0.89271 0.0
C670 C 0.39269 0.10588 0.97731 0.0
C671 C 0.39079 0.14148 0.97374 0.0
C672 C 0.38167 0.15281 1.0075 0.0
C673 C 0.37454 0.12784 0.04479 0.0
C674 C 0.37638 0.09239 0.04784 0.0
H675 H 0.38405 0.01265 0.85693 0.0
H676 H 0.38014 0.05308 0.89092 0.0
H677 H 0.39467 0.0491 0.87606 0.0
H678 H 0.3999 0.09801 0.952 0.0
H679 H 0.39646 0.16012 0.94495 0.0
H680 H 0.40434 0.37784 0.9155 0.0
H681 H 0.40266 0.44071 0.92918 0.0
H682 H 0.37429 0.41339 0.05943 0.0
H683 H 0.37621 0.35035 0.04765 0.0
H684 H 0.38688 0.47887 0.89877 0.0
H685 H 0.39281 0.48611 0.17157 0.0
H686 H 0.39529 0.44788 0.12368 0.0
H687 H 0.38124 0.45371 0.14784 0.0
C688 C 0.39775 0.38521 0.94718 0.0
C689 C 0.39046 0.35912 0.98093 0.0
C690 C 0.3968 0.42124 0.95501 0.0
C691 C 0.3885 0.43212 0.99656 0.0
C692 C 0.38099 0.40595 0.02875 0.0
H693 H 0.36557 0.63832 0.97536 0.0
H694 H 0.3683 0.57616 0.96671 0.0
C695 C 0.38201 0.36985 0.02145 0.0
C696 C 0.38762 0.47073 1.00456 0.0
H697 H 0.38655 0.53634 0.11997 0.0
C698 C 0.38686 0.49138 0.94723 0.0
C699 C 0.38783 0.48752 0.06762 0.0
C700 C 0.38946 0.46776 0.13113 0.0
C701 C 0.38606 0.52786 0.95111 0.0
C702 C 0.38566 0.54423 0.01423 0.0
C703 C 0.3867 0.52384 0.07158 0.0
C704 C 0.38393 0.5822 0.02156 0.0
C705 C 0.38584 0.54857 0.88723 0.0
C706 C 0.39156 0.60638 0.05762 0.0
C707 C 0.38991 0.6421 0.06356 0.0
C708 C 0.38058 0.65425 0.03362 0.0
C709 C 0.37289 0.6299 0.99855 0.0
C710 C 0.37449 0.59431 0.99311 0.0
H711 H 0.38984 0.53555 0.84583 0.0
H712 H 0.377 0.54992 0.87298 0.0
H713 H 0.39022 0.57603 0.8929 0.0
H714 H 0.39888 0.59771 0.08048 0.0
H715 H 0.39597 0.66024 0.09096 0.0
H716 H 0.62227 0.13362 0.91956 0.0
H717 H 0.62402 0.07077 0.93401 0.0
H718 H 0.65389 0.09912 0.05166 0.0
H719 H 0.65196 0.16207 0.03899 0.0
H720 H 0.63958 0.03251 0.89717 0.0
H721 H 0.63676 0.02695 0.17168 0.0
H722 H 0.63364 0.06475 0.12468 0.0
H723 H 0.64796 0.05949 0.14332 0.0
C724 C 0.62919 0.12646 0.94878 0.0
C725 C 0.63693 0.15284 0.97858 0.0
C726 C 0.63018 0.09045 0.95702 0.0
C727 C 0.63895 0.07988 0.99515 0.0
C728 C 0.64685 0.10632 0.02371 0.0
H729 H 0.66296 0.8757 0.96697 0.0
H730 H 0.65963 0.93735 0.95897 0.0
C731 C 0.6458 0.14237 0.01592 0.0
C732 C 0.63999 0.04133 1.00296 0.0
H733 H 0.64271 0.9767 0.11799 0.0
C734 C 0.6402 0.02036 0.94556 0.0
C735 C 0.64058 0.02499 0.06603 0.0
C736 C 0.63961 0.04511 0.12994 0.0
C737 C 0.64127 0.98404 0.94929 0.0
C738 C 0.64246 0.96814 1.01217 0.0
C739 C 0.64194 0.98882 0.06971 0.0
C740 C 0.64454 0.93045 0.01893 0.0
C741 C 0.64093 0.96296 0.88557 0.0
C742 C 0.63742 0.90594 0.05742 0.0
C743 C 0.63941 0.87048 0.06283 0.0
C744 C 0.64858 0.85893 0.03001 0.0
C745 C 0.65577 0.88362 0.99246 0.0
C746 C 0.65382 0.91893 0.98743 0.0
H747 H 0.63643 0.97546 0.84561 0.0
H748 H 0.64964 0.96196 0.86819 0.0
H749 H 0.63675 0.93538 0.89298 0.0
H750 H 0.63024 0.91413 0.08263 0.0
H751 H 0.63374 0.85209 0.09219 0.0
H752 H 0.15727 0.23041 0.31186 0.0
H753 H 0.15744 0.23204 0.19051 0.0
H754 H 0.12704 0.28029 0.19107 0.0
H755 H 0.12671 0.27848 0.31287 0.0
H756 H 0.12684 0.22431 0.0992 0.0
H757 H 0.16573 0.32037 0.07491 0.0
H758 H 0.16725 0.28244 0.12546 0.0
H759 H 0.15812 0.31334 0.15222 0.0
C760 C 0.1506 0.2414 0.28638 0.0
C761 C 0.14199 0.25446 0.32234 0.0
C762 C 0.15076 0.24251 0.21687 0.0
C763 C 0.14237 0.25686 0.1817 0.0
C764 C 0.13364 0.26932 0.21724 0.0
H765 H 0.12808 0.2853 0.76218 0.0
H766 H 0.12789 0.28437 0.8836 0.0
C767 C 0.13347 0.26827 0.28689 0.0
C768 C 0.14262 0.25831 0.10782 0.0
H769 H 0.15844 0.29232 0.97564 0.0
C770 C 0.13371 0.23933 0.07215 0.0
C771 C 0.15161 0.27784 0.07259 0.0
C772 C 0.16118 0.29994 0.10813 0.0
C773 C 0.13366 0.23881 1.00225 0.0
C774 C 0.14266 0.25831 0.96701 0.0
C775 C 0.15156 0.27732 1.00268 0.0
C776 C 0.14295 0.25955 0.89312 0.0
C777 C 0.1241 0.21668 0.96672 0.0
C778 C 0.15168 0.2469 0.85796 0.0
C779 C 0.15186 0.24757 0.7883 0.0
C780 C 0.14335 0.26116 0.75245 0.0
C781 C 0.13475 0.27448 0.788 0.0
C782 C 0.13457 0.27376 0.85754 0.0
H783 H 0.11952 0.19635 1.00001 0.0
H784 H 0.11805 0.23418 0.94907 0.0
H785 H 0.12717 0.20315 0.92282 0.0
H786 H 0.15828 0.23604 0.88444 0.0
H787 H 0.15863 0.23717 0.76264 0.0
H788 H 0.87227 0.27731 0.31218 0.0
H789 H 0.87214 0.27533 0.19084 0.0
H790 H 0.90319 0.23057 0.19243 0.0
H791 H 0.90332 0.23194 0.31419 0.0
H792 H 0.88766 0.30746 0.10036 0.0
H793 H 0.88307 0.16095 0.07529 0.0
H794 H 0.88082 0.18262 0.15302 0.0
H795 H 0.89485 0.17967 0.12476 0.0
C796 C 0.87909 0.26699 0.28692 0.0
C797 C 0.88778 0.25461 0.32314 0.0
C798 C 0.87899 0.26591 0.21741 0.0
C799 C 0.88755 0.25228 0.18249 0.0
C800 C 0.89636 0.24049 0.21833 0.0
H801 H 0.90142 0.22482 0.76351 0.0
H802 H 0.9016 0.22642 0.88491 0.0
C803 C 0.89646 0.24151 0.28799 0.0
C804 C 0.88728 0.25094 0.10858 0.0
H805 H 0.88618 0.19438 0.976 0.0
C806 C 0.8873 0.28273 0.07315 0.0
C807 C 0.88681 0.21864 0.07311 0.0
C808 C 0.88628 0.18346 0.10836 0.0
C809 C 0.88705 0.2832 1.00326 0.0
C810 C 0.88655 0.2509 0.96779 0.0
C811 C 0.88655 0.21911 1.00322 0.0
C812 C 0.88622 0.24957 0.89388 0.0
C813 C 0.88758 0.31839 0.96805 0.0
C814 C 0.8774 0.26149 0.85837 0.0
C815 C 0.87727 0.26069 0.78871 0.0
C816 C 0.88592 0.24767 0.7532 0.0
C817 C 0.89462 0.23507 0.78907 0.0
C818 C 0.89474 0.23594 0.8586 0.0
H819 H 0.89084 0.34087 1.00106 0.0
H820 H 0.89299 0.31919 0.92321 0.0
H821 H 0.87901 0.3223 0.95196 0.0
H822 H 0.87059 0.2714 0.88453 0.0
H823 H 0.87041 0.27043 0.76279 0.0
H824 H 0.12847 0.78471 0.26028 0.0
H825 H 0.12832 0.78328 0.13879 0.0
H826 H 0.15927 0.73796 0.13921 0.0
H827 H 0.15943 0.73878 0.2609 0.0
H828 H 0.14386 0.81528 0.04782 0.0
H829 H 0.13897 0.66879 0.02228 0.0
H830 H 0.13679 0.69046 0.10013 0.0
H831 H 0.15079 0.68709 0.07176 0.0
C832 C 0.13526 0.77442 0.23469 0.0
C833 C 0.14394 0.76168 0.27055 0.0
C834 C 0.13516 0.77364 0.16512 0.0
C835 C 0.14367 0.75996 0.12983 0.0
C836 C 0.15247 0.7479 0.16536 0.0
H837 H 0.15781 0.73196 0.71147 0.0
H838 H 0.15793 0.73402 0.83287 0.0
C839 C 0.15258 0.74862 0.235 0.0
C840 C 0.14338 0.75871 0.0559 0.0
H841 H 0.14234 0.70227 0.92315 0.0
C842 C 0.14348 0.79056 0.02053 0.0
C843 C 0.14288 0.72644 0.02032 0.0
C844 C 0.14224 0.69119 0.05544 0.0
C845 C 0.14332 0.79111 0.95062 0.0
C846 C 0.14283 0.75884 0.91505 0.0
C847 C 0.14272 0.72699 0.95043 0.0
C848 C 0.14261 0.75756 0.84111 0.0
C849 C 0.14395 0.82635 0.91549 0.0
C850 C 0.13385 0.76962 0.80517 0.0
C851 C 0.13376 0.76855 0.73553 0.0
C852 C 0.14239 0.75513 0.70042 0.0
C853 C 0.15104 0.74252 0.7367 0.0
C854 C 0.15112 0.74365 0.80623 0.0
H855 H 0.1472 0.84876 0.94868 0.0
H856 H 0.14943 0.8271 0.87089 0.0
H857 H 0.13542 0.83041 0.89902 0.0
H858 H 0.12705 0.77974 0.831 0.0
H859 H 0.12694 0.77831 0.7093 0.0
H860 H 0.87289 0.78029 0.71179 0.0
H861 H 0.87287 0.77893 0.83323 0.0
H862 H 0.90296 0.72903 0.83142 0.0
H863 H 0.90314 0.7306 0.7097 0.0
H864 H 0.87164 0.72012 0.91672 0.0
H865 H 0.911 0.81171 0.96063 0.0
H866 H 0.90398 0.80819 0.88109 0.0
H867 H 0.91252 0.77527 0.90614 0.0
C868 C 0.87957 0.76923 0.73705 0.0
C869 C 0.88805 0.7557 0.70077 0.0
C870 C 0.87952 0.76842 0.80661 0.0
C871 C 0.88798 0.75429 0.84156 0.0
C872 C 0.89646 0.7407 0.80561 0.0
H873 H 0.90125 0.72266 0.26056 0.0
H874 H 0.90129 0.72333 0.13907 0.0
C875 C 0.89652 0.74147 0.73593 0.0
C876 C 0.88772 0.75292 0.9155 0.0
H877 H 0.90251 0.78166 0.05484 0.0
C878 C 0.87837 0.73368 0.94695 0.0
C879 C 0.8965 0.7706 0.95493 0.0
C880 C 0.90653 0.79289 0.92417 0.0
C881 C 0.87766 0.73115 0.01663 0.0
C882 C 0.88644 0.74886 0.05606 0.0
C883 C 0.89579 0.76807 0.02461 0.0
C884 C 0.88614 0.7477 0.13002 0.0
C885 C 0.86763 0.70887 0.04737 0.0
C886 C 0.87762 0.76133 0.16558 0.0
C887 C 0.87755 0.76094 0.23526 0.0
C888 C 0.88604 0.74707 0.27084 0.0
C889 C 0.89455 0.73343 0.23496 0.0
C890 C 0.89461 0.73386 0.16539 0.0
H891 H 0.86321 0.68988 1.011 0.0
H892 H 0.87016 0.69375 0.09074 0.0
H893 H 0.86161 0.72647 0.06491 0.0
H894 H 0.87111 0.77279 0.13945 0.0
H895 H 0.87092 0.77188 0.26117 0.0
H896 H 0.6289 0.7856 0.27125 0.0
H897 H 0.62888 0.78509 0.39273 0.0
H898 H 0.65939 0.7374 0.3926 0.0
H899 H 0.65958 0.73815 0.27087 0.0
H900 H 0.62801 0.72681 0.4772 0.0
H901 H 0.66683 0.82097 0.52045 0.0
H902 H 0.65985 0.81659 0.44078 0.0
H903 H 0.66864 0.78452 0.46666 0.0
C904 C 0.63568 0.77524 0.29689 0.0
C905 C 0.64428 0.76206 0.26109 0.0
C906 C 0.63562 0.77491 0.36646 0.0
C907 C 0.6442 0.76162 0.40186 0.0
C908 C 0.6528 0.74843 0.3664 0.0
H909 H 0.65772 0.73069 0.81996 0.0
H910 H 0.65772 0.73197 0.69856 0.0
C911 C 0.65287 0.74873 0.29672 0.0
C912 C 0.6439 0.76059 0.4758 0.0
H913 H 0.65854 0.79056 0.61493 0.0
C914 C 0.63466 0.74088 0.50735 0.0
C915 C 0.65259 0.77892 0.5151 0.0
C916 C 0.6625 0.80172 0.4842 0.0
C917 C 0.63396 0.73847 0.57704 0.0
C918 C 0.64265 0.75678 0.61633 0.0
C919 C 0.65189 0.77652 0.58478 0.0
C920 C 0.6424 0.7555 0.69025 0.0
C921 C 0.62406 0.71563 0.60795 0.0
C922 C 0.63381 0.7685 0.72617 0.0
C923 C 0.63376 0.76776 0.79585 0.0
C924 C 0.64235 0.75416 0.83099 0.0
C925 C 0.65095 0.74126 0.79472 0.0
C926 C 0.65099 0.74202 0.72519 0.0
H927 H 0.61969 0.69651 0.5716 0.0
H928 H 0.62672 0.70061 0.6511 0.0
H929 H 0.61794 0.73282 0.62589 0.0
H930 H 0.62721 0.77966 0.70034 0.0
H931 H 0.62705 0.77815 0.82208 0.0
H932 H 0.40288 0.73409 0.8255 0.0
H933 H 0.40275 0.73322 0.7037 0.0
H934 H 0.37221 0.78079 0.70307 0.0
H935 H 0.37235 0.78228 0.82441 0.0
H936 H 0.38652 0.69949 0.61812 0.0
H937 H 0.39207 0.84483 0.57621 0.0
H938 H 0.39457 0.82554 0.65589 0.0
H939 H 0.38048 0.82924 0.62958 0.0
C940 C 0.39618 0.74462 0.7995 0.0
C941 C 0.38767 0.75849 0.83493 0.0
C942 C 0.3961 0.74404 0.72982 0.0
C943 C 0.38757 0.75746 0.69414 0.0
C944 C 0.37902 0.77103 0.72938 0.0
H945 H 0.37091 0.77475 0.2751 0.0
H946 H 0.37104 0.77474 0.39687 0.0
C947 C 0.37909 0.77169 0.79893 0.0
C948 C 0.3874 0.75633 0.62018 0.0
H949 H 0.38735 0.80837 0.4817 0.0
C950 C 0.38677 0.72331 0.58826 0.0
C951 C 0.38768 0.78742 0.5812 0.0
C952 C 0.38884 0.82381 0.61233 0.0
C953 C 0.3862 0.72044 0.51858 0.0
C954 C 0.38646 0.75152 0.47962 0.0
C955 C 0.38711 0.78455 0.51155 0.0
C956 C 0.38622 0.75046 0.40565 0.0
C957 C 0.38505 0.68406 0.48741 0.0
C958 C 0.39475 0.73704 0.36997 0.0
C959 C 0.39469 0.73691 0.30038 0.0
C960 C 0.38613 0.75047 0.26484 0.0
C961 C 0.3776 0.76398 0.30073 0.0
C962 C 0.37768 0.76406 0.3704 0.0
H963 H 0.38188 0.663 0.52358 0.0
H964 H 0.3793 0.68229 0.44401 0.0
H965 H 0.39341 0.67874 0.46989 0.0
H966 H 0.40157 0.72714 0.39595 0.0
H967 H 0.40144 0.72655 0.27452 0.0
H968 H 0.65751 0.22877 0.20577 0.0
H969 H 0.65754 0.23034 0.32721 0.0
H970 H 0.62765 0.28125 0.3251 0.0
H971 H 0.62747 0.27949 0.20336 0.0
H972 H 0.65893 0.28938 0.41052 0.0
H973 H 0.61937 0.1988 0.45462 0.0
H974 H 0.62641 0.20199 0.37512 0.0
H975 H 0.61798 0.23524 0.39993 0.0
C976 C 0.65088 0.2401 0.23096 0.0
C977 C 0.64245 0.25385 0.19459 0.0
C978 C 0.65093 0.24103 0.30052 0.0
C979 C 0.64253 0.2555 0.3354 0.0
C980 C 0.6341 0.26933 0.29935 0.0
H981 H 0.62937 0.28732 0.75474 0.0
H982 H 0.62931 0.28676 0.63323 0.0
C983 C 0.63404 0.26844 0.22967 0.0
C984 C 0.6428 0.25695 0.40936 0.0
H985 H 0.62795 0.22861 0.54877 0.0
C986 C 0.65218 0.27599 0.44078 0.0
C987 C 0.63398 0.23951 0.44883 0.0
C988 C 0.6239 0.21745 0.4181 0.0
C989 C 0.6529 0.27854 0.51047 0.0
C990 C 0.64409 0.26104 0.54996 0.0
C991 C 0.6347 0.24205 0.51852 0.0
C992 C 0.64442 0.26217 0.62395 0.0
C993 C 0.66298 0.30061 0.54114 0.0
C994 C 0.65291 0.24838 0.65941 0.0
C995 C 0.65299 0.24872 0.72911 0.0
C996 C 0.64453 0.26268 0.76482 0.0
C997 C 0.63604 0.27648 0.72905 0.0
C998 C 0.63597 0.27612 0.65945 0.0
H999 H 0.66742 0.31955 0.50478 0.0
H1000 H 0.6605 0.31576 0.58462 0.0
H1001 H 0.66897 0.28286 0.55849 0.0
H1002 H 0.65939 0.23683 0.6332 0.0
H1003 H 0.65961 0.23764 0.75492 0.0
H1004 H 0.37005 0.27594 0.21478 0.0
H1005 H 0.37026 0.27491 0.33644 0.0
H1006 H 0.40179 0.23306 0.33329 0.0
H1007 H 0.40171 0.23407 0.2116 0.0
H1008 H 0.37138 0.21498 0.4222 0.0
H1009 H 0.40762 0.32071 0.45736 0.0
H1010 H 0.4 0.31447 0.37989 0.0
H1011 H 0.41001 0.28548 0.40189 0.0
C1012 C 0.37706 0.26661 0.23985 0.0
C1013 C 0.38589 0.25523 0.2033 0.0
C1014 C 0.37715 0.26599 0.30943 0.0
C1015 C 0.3861 0.25432 0.3439 0.0
C1016 C 0.39489 0.2427 0.30768 0.0
H1017 H 0.40267 0.23695 0.76233 0.0
H1018 H 0.40235 0.23612 0.6408 0.0
C1019 C 0.39479 0.24315 0.23808 0.0
C1020 C 0.38615 0.25381 0.41774 0.0
H1021 H 0.40042 0.28997 0.5537 0.0
C1022 C 0.3777 0.23144 0.45106 0.0
C1023 C 0.39443 0.27522 0.45517 0.0
C1024 C 0.40349 0.30058 0.42199 0.0
C1025 C 0.37741 0.22945 0.52086 0.0
C1026 C 0.38565 0.25106 0.55842 0.0
C1027 C 0.39411 0.27341 0.52497 0.0
C1028 C 0.38567 0.25096 0.63242 0.0
C1029 C 0.36844 0.20357 0.55361 0.0
C1030 C 0.37644 0.2599 0.66833 0.0
C1031 C 0.37657 0.26024 0.73795 0.0
C1032 C 0.38599 0.252 0.77318 0.0
C1033 C 0.39527 0.24337 0.73699 0.0
C1034 C 0.39511 0.24291 0.66741 0.0
H1035 H 0.3649 0.1823 0.51874 0.0
H1036 H 0.37179 0.1911 0.5979 0.0
H1037 H 0.36148 0.2179 0.57 0.0
H1038 H 0.36917 0.26705 0.64252 0.0
H1039 H 0.36932 0.2673 0.76405 0.0
H1040 H 0.06153 0.31242 0.53672 0.0
H1041 H 0.04111 0.30789 0.52987 0.0
H1042 H 0.04013 0.21297 0.41177 0.0
H1043 H 0.06062 0.21718 0.41889 0.0
H1044 H 0.02719 0.30899 0.42412 0.0
H1045 H 0.01763 0.1803 0.55572 0.0
H1046 H 0.0315 0.20528 0.55471 0.0
H1047 H 0.02646 0.17865 0.4842 0.0
C1048 C 0.057 0.29069 0.50878 0.0
C1049 C 0.06275 0.26516 0.4783 0.0
C1050 C 0.0453 0.28806 0.50518 0.0
C1051 C 0.03902 0.2598 0.47119 0.0
C1052 C 0.04474 0.23454 0.43972 0.0
H1053 H 0.96681 0.20535 0.40559 0.0
H1054 H 0.98728 0.20944 0.39954 0.0
C1055 C 0.05647 0.23704 0.44363 0.0
C1056 C 0.02654 0.25723 0.46835 0.0
H1057 H 1.00221 0.20395 0.5084 0.0
C1058 C 0.02174 0.28602 0.44263 0.0
C1059 C 0.01939 0.22728 0.49256 0.0
C1060 C 0.02398 0.19625 0.52394 0.0
C1061 C 1.01003 0.28559 0.44006 0.0
C1062 C 1.0029 0.25572 0.46445 0.0
C1063 C 1.00768 0.22678 0.48949 0.0
C1064 C 0.99047 0.25432 0.46604 0.0
C1065 C 1.00537 0.31696 0.41058 0.0
C1066 C 0.98544 0.27815 0.50555 0.0
C1067 C 0.97373 0.27573 0.50963 0.0
C1068 C 0.96676 0.24931 0.47435 0.0
C1069 C 0.97187 0.22577 0.43409 0.0
C1070 C 0.98358 0.22814 0.4303 0.0
H1071 H 1.01168 0.33347 0.37935 0.0
H1072 H 0.99782 0.30818 0.37986 0.0
H1073 H 1.00286 0.33386 0.45139 0.0
H1074 H 0.99057 0.29814 0.53462 0.0
H1075 H 0.97016 0.29387 0.54221 0.0
H1076 H 0.96714 0.72257 0.63664 0.0
H1077 H 0.98758 0.72557 0.64372 0.0
H1078 H 0.99111 0.78397 0.45956 0.0
H1079 H 0.97073 0.78103 0.45199 0.0
H1080 H 1.00199 0.6991 0.5575 0.0
H1081 H 1.01322 0.84472 0.5787 0.0
H1082 H 0.99905 0.82289 0.58995 0.0
H1083 H 1.00462 0.83157 0.50764 0.0
C1084 C 0.97226 0.73615 0.59771 0.0
C1085 C 0.96725 0.75174 0.54393 0.0
C1086 C 0.98396 0.73793 0.60194 0.0
C1087 C 0.99093 0.75545 0.55272 0.0
C1088 C 0.98596 0.77109 0.49908 0.0
H1089 H 0.05949 0.72852 0.45375 0.0
H1090 H 0.03911 0.72563 0.46113 0.0
C1091 C 0.97427 0.7694 0.49486 0.0
C1092 C 1.00334 0.75608 0.55592 0.0
H1093 H 0.02823 0.81159 0.5554 0.0
C1094 C 1.00772 0.72371 0.55749 0.0
C1095 C 1.01085 0.78816 0.55675 0.0
C1096 C 1.00672 0.82381 0.55884 0.0
C1097 C 0.01937 0.72254 0.55818 0.0
C1098 C 0.02688 0.7546 0.55615 0.0
C1099 C 0.0225 0.78698 0.55631 0.0
C1100 C 0.03929 0.7552 0.55313 0.0
C1101 C 0.02351 0.68692 0.56181 0.0
C1102 C 0.04626 0.77327 0.60176 0.0
C1103 C 0.05796 0.77501 0.59765 0.0
C1104 C 0.06297 0.75884 0.54457 0.0
C1105 C 0.05595 0.74062 0.4961 0.0
C1106 C 0.04426 0.73896 0.5002 0.0
H1107 H 0.017 0.66624 0.58238 0.0
H1108 H 0.0256 0.67858 0.51098 0.0
H1109 H 0.03117 0.68821 0.59302 0.0
H1110 H 0.04264 0.78609 0.643 0.0
H1111 H 0.06308 0.78904 0.63612 0.0
H1112 H 0.55979 0.71506 0.05633 0.0
H1113 H 0.53936 0.71083 0.05075 0.0
H1114 H 0.54236 0.801 0.91913 0.0
H1115 H 0.56278 0.80439 0.92179 0.0
H1116 H 0.52625 0.75883 0.09081 0.0
H1117 H 0.51929 0.73341 0.82164 0.0
H1118 H 0.53254 0.73 0.86154 0.0
H1119 H 0.52893 0.77268 0.83837 0.0
C1120 C 0.55614 0.73349 0.02479 0.0
C1121 C 0.56302 0.75998 0.98923 0.0
C1122 C 0.54442 0.73123 0.02219 0.0
C1123 C 0.53926 0.75529 0.98386 0.0
C1124 C 0.54608 0.78162 0.94798 0.0
H1125 H 0.46952 0.79461 0.94201 0.0
H1126 H 0.49005 0.79834 0.93813 0.0
C1127 C 0.55781 0.78381 0.95028 0.0
C1128 C 0.52679 0.75385 0.98422 0.0
H1129 H 0.5036 0.74711 0.88387 0.0
C1130 C 0.52131 0.75607 0.04553 0.0
C1131 C 0.52029 0.75039 0.92517 0.0
C1132 C 0.52554 0.74614 0.85801 0.0
C1133 C 0.5096 0.7553 0.04936 0.0
C1134 C 0.50313 0.75186 0.99038 0.0
C1135 C 0.50858 0.74988 0.92902 0.0
C1136 C 0.49066 0.7494 0.99174 0.0
C1137 C 0.50425 0.7587 0.11651 0.0
C1138 C 0.48417 0.72043 0.02233 0.0
C1139 C 0.47246 0.7182 0.02457 0.0
C1140 C 0.46694 0.74489 0.99615 0.0
C1141 C 0.47348 0.77375 0.9649 0.0
C1142 C 0.48521 0.77584 0.96235 0.0
H1143 H 0.51051 0.76956 0.15449 0.0
H1144 H 0.49757 0.77611 0.11363 0.0
H1145 H 0.50034 0.73211 0.13342 0.0
H1146 H 0.48817 0.69949 0.04466 0.0
H1147 H 0.46774 0.69582 0.04977 0.0
H1148 H 0.46785 0.20996 0.92717 0.0
H1149 H 0.48815 0.20896 0.9306 0.0
H1150 H 0.49002 0.26478 0.11766 0.0
H1151 H 0.4697 0.26477 0.11589 0.0
H1152 H 0.50497 0.26586 0.93282 0.0
H1153 H 0.50757 0.18346 0.1581 0.0
H1154 H 0.49449 0.1864 0.11583 0.0
H1155 H 0.50033 0.22107 0.17151 0.0
C1156 C 0.47253 0.22142 0.96972 0.0
C1157 C 0.46709 0.23733 0.02138 0.0
C1158 C 0.48417 0.22107 0.97134 0.0
C1159 C 0.49061 0.23635 0.02483 0.0
C1160 C 0.48522 0.25218 0.0765 0.0
H1161 H 0.56185 0.27882 0.11608 0.0
H1162 H 0.54132 0.27366 0.11599 0.0
C1163 C 0.47359 0.25254 0.07496 0.0
C1164 C 0.50303 0.2371 0.02517 0.0
H1165 H 0.52485 0.21306 0.11578 0.0
C1166 C 0.50931 0.25407 0.97257 0.0
C1167 C 0.50871 0.22183 0.07717 0.0
C1168 C 0.50243 0.20187 0.13356 0.0
C1169 C 0.52109 0.25686 0.97123 0.0
C1170 C 0.52677 0.24174 0.02338 0.0
C1171 C 0.5205 0.22467 0.07589 0.0
C1172 C 0.53921 0.24365 0.02445 0.0
C1173 C 0.52738 0.2768 0.91483 0.0
C1174 C 0.54485 0.22784 0.97381 0.0
C1175 C 0.55659 0.23084 0.97357 0.0
C1176 C 0.56296 0.24962 0.02419 0.0
C1177 C 0.55724 0.26458 0.07586 0.0
C1178 C 0.5455 0.2615 0.07609 0.0
H1179 H 0.52211 0.29416 0.8884 0.0
H1180 H 0.53509 0.29337 0.93319 0.0
H1181 H 0.52992 0.25753 0.87836 0.0
H1182 H 0.54017 0.2134 0.93405 0.0
H1183 H 0.56067 0.21926 0.93264 0.0
loop_
_geom_bond_atom_site_label_1
_geom_bond_atom_site_label_2
_geom_bond_distance
_geom_bond_site_symmetry_2
_ccdc_geom_bond_type
C0 Eu1 2.835 . S
C0 C2 1.500 . S
C0 O20 1.257 . S
C0 O21 1.260 . S
Eu1 C0 2.835 . S
Eu1 O20 2.473 . S
Eu1 O21 2.480 . S
Eu1 O22 2.430 . S
Eu1 O23 2.670 . S
Eu1 O24 2.394 . S
Eu1 O29 2.355 . S
Eu1 O31 2.374 . S
C2 C0 1.500 . S
C2 C3 1.377 . S
C2 C7 1.377 . S
C3 C2 1.377 . S
C3 C4 1.395 . S
C3 H32 0.931 . S
C4 C3 1.395 . S
C4 C5 1.383 . S
C4 H33 0.931 . S
C5 C4 1.383 . S
C5 C6 1.394 . S
C6 C5 1.394 . S
C6 C7 1.378 . S
C6 H34 0.931 . S
C7 C2 1.377 . S
C7 C6 1.378 . S
C7 H35 0.931 . S
C8 O22 1.259 . S
C8 O23 1.270 . S
C9 O24 1.251 . S
C9 O25 1.251 . S
C10 Eu11 2.835 . S
C10 C12 1.500 . S
C10 O26 1.257 . S
C10 O27 1.260 . S
Eu11 C10 2.835 . S
Eu11 O23 2.355 . S
Eu11 O25 2.374 . S
Eu11 O26 2.473 . S
Eu11 O27 2.480 . S
Eu11 O28 2.430 . S
Eu11 O29 2.670 . S
Eu11 O30 2.394 . S
C12 C10 1.500 . S
C12 C13 1.377 . S
C12 C17 1.377 . S
C13 C12 1.377 . S
C13 C14 1.395 . S
C13 H36 0.931 . S
C14 C13 1.395 . S
C14 C15 1.383 . S
C14 H37 0.931 . S
C15 C14 1.383 . S
C15 C16 1.394 . S
C16 C15 1.394 . S
C16 C17 1.378 . S
C16 H38 0.931 . S
C17 C12 1.377 . S
C17 C16 1.378 . S
C17 H39 0.931 . S
C18 O28 1.259 . S
C18 O29 1.270 . S
C19 O30 1.251 . S
C19 O31 1.251 . S
O20 C0 1.257 . S
O20 Eu1 2.473 . S
O21 C0 1.260 . S
O21 Eu1 2.480 . S
O22 Eu1 2.430 . S
O22 C8 1.259 . S
O23 Eu1 2.670 . S
O23 C8 1.270 . S
O23 Eu11 2.355 . S
O24 Eu1 2.394 . S
O24 C9 1.251 . S
O25 C9 1.251 . S
O25 Eu11 2.374 . S
O26 C10 1.257 . S
O26 Eu11 2.473 . S
O27 C10 1.260 . S
O27 Eu11 2.480 . S
O28 Eu11 2.430 . S
O28 C18 1.259 . S
O29 Eu1 2.355 . S
O29 Eu11 2.670 . S
O29 C18 1.270 . S
O30 Eu11 2.394 . S
O30 C19 1.251 . S
O31 Eu1 2.374 . S
O31 C19 1.251 . S
H32 C3 0.931 . S
H33 C4 0.931 . S
H34 C6 0.931 . S
H35 C7 0.931 . S
H36 C13 0.931 . S
H37 C14 0.931 . S
H38 C16 0.931 . S
H39 C17 0.931 . S
C40 Eu41 2.835 . S
C40 C42 1.500 . S
C40 O60 1.257 . S
C40 O61 1.260 . S
Eu41 C40 2.835 . S
Eu41 O60 2.473 . S
Eu41 O61 2.480 . S
Eu41 O62 2.430 . S
Eu41 O63 2.670 . S
Eu41 O64 2.394 . S
Eu41 O69 2.355 . S
Eu41 O71 2.374 . S
C42 C40 1.500 . S
C42 C43 1.377 . S
C42 C47 1.377 . S
C43 C42 1.377 . S
C43 C44 1.395 . S
C43 H72 0.931 . S
C44 C43 1.395 . S
C44 C45 1.383 . S
C44 H73 0.931 . S
C45 C44 1.383 . S
C45 C46 1.394 . S
C46 C45 1.394 . S
C46 C47 1.378 . S
C46 H74 0.931 . S
C47 C42 1.377 . S
C47 C46 1.378 . S
C47 H75 0.931 . S
C48 O62 1.259 . S
C48 O63 1.270 . S
C49 O64 1.251 . S
C49 O65 1.251 . S
C50 Eu51 2.835 . S
C50 C52 1.500 . S
C50 O66 1.257 . S
C50 O67 1.260 . S
Eu51 C50 2.835 . S
Eu51 O63 2.355 . S
Eu51 O65 2.374 . S
Eu51 O66 2.473 . S
Eu51 O67 2.480 . S
Eu51 O68 2.430 . S
Eu51 O69 2.670 . S
Eu51 O70 2.394 . S
C52 C50 1.500 . S
C52 C53 1.377 . S
C52 C57 1.377 . S
C53 C52 1.377 . S
C53 C54 1.395 . S
C53 H76 0.931 . S
C54 C53 1.395 . S
C54 C55 1.383 . S
C54 H77 0.931 . S
C55 C54 1.383 . S
C55 C56 1.394 . S
C56 C55 1.394 . S
C56 C57 1.378 . S
C56 H78 0.931 . S
C57 C52 1.377 . S
C57 C56 1.378 . S
C57 H79 0.931 . S
C58 O68 1.259 . S
C58 O69 1.270 . S
C59 O70 1.251 . S
C59 O71 1.251 . S
O60 C40 1.257 . S
O60 Eu41 2.473 . S
O61 C40 1.260 . S
O61 Eu41 2.480 . S
O62 Eu41 2.430 . S
O62 C48 1.259 . S
O63 Eu41 2.670 . S
O63 C48 1.270 . S
O63 Eu51 2.355 . S
O64 Eu41 2.394 . S
O64 C49 1.251 . S
O65 C49 1.251 . S
O65 Eu51 2.374 . S
O66 C50 1.257 . S
O66 Eu51 2.473 . S
O67 C50 1.260 . S
O67 Eu51 2.480 . S
O68 Eu51 2.430 . S
O68 C58 1.259 . S
O69 Eu41 2.355 . S
O69 Eu51 2.670 . S
O69 C58 1.270 . S
O70 Eu51 2.394 . S
O70 C59 1.251 . S
O71 Eu41 2.374 . S
O71 C59 1.251 . S
H72 C43 0.931 . S
H73 C44 0.931 . S
H74 C46 0.931 . S
H75 C47 0.931 . S
H76 C53 0.931 . S
H77 C54 0.931 . S
H78 C56 0.931 . S
H79 C57 0.931 . S
C80 Eu81 2.835 . S
C80 C82 1.500 . S
C80 O100 1.257 . S
C80 O101 1.260 . S
Eu81 C80 2.835 . S
Eu81 O100 2.473 . S
Eu81 O101 2.480 . S
Eu81 O102 2.430 . S
Eu81 O103 2.670 . S
Eu81 O104 2.394 . S
Eu81 O109 2.355 . S
Eu81 O111 2.374 . S
C82 C80 1.500 . S
C82 C83 1.377 . S
C82 C87 1.377 . S
C83 C82 1.377 . S
C83 C84 1.395 . S
C83 H112 0.931 . S
C84 C83 1.395 . S
C84 C85 1.383 . S
C84 H113 0.931 . S
C85 C84 1.383 . S
C85 C86 1.394 . S
C86 C85 1.394 . S
C86 C87 1.378 . S
C86 H114 0.931 . S
C87 C82 1.377 . S
C87 C86 1.378 . S
C87 H115 0.931 . S
C88 O102 1.259 . S
C88 O103 1.270 . S
C89 O104 1.251 . S
C89 O105 1.251 . S
C90 Eu91 2.835 . S
C90 C92 1.500 . S
C90 O106 1.257 . S
C90 O107 1.260 . S
Eu91 C90 2.835 . S
Eu91 O103 2.355 . S
Eu91 O105 2.374 . S
Eu91 O106 2.473 . S
Eu91 O107 2.480 . S
Eu91 O108 2.430 . S
Eu91 O109 2.670 . S
Eu91 O110 2.394 . S
C92 C90 1.500 . S
C92 C93 1.377 . S
C92 C97 1.377 . S
C93 C92 1.377 . S
C93 C94 1.395 . S
C93 H116 0.931 . S
C94 C93 1.395 . S
C94 C95 1.383 . S
C94 H117 0.931 . S
C95 C94 1.383 . S
C95 C96 1.394 . S
C96 C95 1.394 . S
C96 C97 1.378 . S
C96 H118 0.931 . S
C97 C92 1.377 . S
C97 C96 1.378 . S
C97 H119 0.931 . S
C98 O108 1.259 . S
C98 O109 1.270 . S
C99 O110 1.251 . S
C99 O111 1.251 . S
O100 C80 1.257 . S
O100 Eu81 2.473 . S
O101 C80 1.260 . S
O101 Eu81 2.480 . S
O102 Eu81 2.430 . S
O102 C88 1.259 . S
O103 Eu81 2.670 . S
O103 C88 1.270 . S
O103 Eu91 2.355 . S
O104 Eu81 2.394 . S
O104 C89 1.251 . S
O105 C89 1.251 . S
O105 Eu91 2.374 . S
O106 C90 1.257 . S
O106 Eu91 2.473 . S
O107 C90 1.260 . S
O107 Eu91 2.480 . S
O108 Eu91 2.430 . S
O108 C98 1.259 . S
O109 Eu81 2.355 . S
O109 Eu91 2.670 . S
O109 C98 1.270 . S
O110 Eu91 2.394 . S
O110 C99 1.251 . S
O111 Eu81 2.374 . S
O111 C99 1.251 . S
H112 C83 0.931 . S
H113 C84 0.931 . S
H114 C86 0.931 . S
H115 C87 0.931 . S
H116 C93 0.931 . S
H117 C94 0.931 . S
H118 C96 0.931 . S
H119 C97 0.931 . S
C120 Eu121 2.835 . S
C120 C122 1.500 . S
C120 O140 1.257 . S
C120 O141 1.260 . S
Eu121 C120 2.835 . S
Eu121 O140 2.473 . S
Eu121 O141 2.480 . S
Eu121 O142 2.430 . S
Eu121 O143 2.670 . S
Eu121 O144 2.394 . S
Eu121 O149 2.355 . S
Eu121 O151 2.374 . S
C122 C120 1.500 . S
C122 C123 1.377 . S
C122 C127 1.377 . S
C123 C122 1.377 . S
C123 C124 1.395 . S
C123 H152 0.931 . S
C124 C123 1.395 . S
C124 C125 1.383 . S
C124 H153 0.931 . S
C125 C124 1.383 . S
C125 C126 1.394 . S
C126 C125 1.394 . S
C126 C127 1.378 . S
C126 H154 0.931 . S
C127 C122 1.377 . S
C127 C126 1.378 . S
C127 H155 0.931 . S
C128 O142 1.259 . S
C128 O143 1.270 . S
C129 O144 1.251 . S
C129 O145 1.251 . S
C130 Eu131 2.835 . S
C130 C132 1.500 . S
C130 O146 1.257 . S
C130 O147 1.260 . S
Eu131 C130 2.835 . S
Eu131 O143 2.355 . S
Eu131 O145 2.374 . S
Eu131 O146 2.473 . S
Eu131 O147 2.480 . S
Eu131 O148 2.430 . S
Eu131 O149 2.670 . S
Eu131 O150 2.394 . S
C132 C130 1.500 . S
C132 C133 1.377 . S
C132 C137 1.377 . S
C133 C132 1.377 . S
C133 C134 1.395 . S
C133 H156 0.931 . S
C134 C133 1.395 . S
C134 C135 1.383 . S
C134 H157 0.931 . S
C135 C134 1.383 . S
C135 C136 1.394 . S
C136 C135 1.394 . S
C136 C137 1.378 . S
C136 H158 0.931 . S
C137 C132 1.377 . S
C137 C136 1.378 . S
C137 H159 0.931 . S
C138 O148 1.259 . S
C138 O149 1.270 . S
C139 O150 1.251 . S
C139 O151 1.251 . S
O140 C120 1.257 . S
O140 Eu121 2.473 . S
O141 C120 1.260 . S
O141 Eu121 2.480 . S
O142 Eu121 2.430 . S
O142 C128 1.259 . S
O143 Eu121 2.670 . S
O143 C128 1.270 . S
O143 Eu131 2.355 . S
O144 Eu121 2.394 . S
O144 C129 1.251 . S
O145 C129 1.251 . S
O145 Eu131 2.374 . S
O146 C130 1.257 . S
O146 Eu131 2.473 . S
O147 C130 1.260 . S
O147 Eu131 2.480 . S
O148 Eu131 2.430 . S
O148 C138 1.259 . S
O149 Eu121 2.355 . S
O149 Eu131 2.670 . S
O149 C138 1.270 . S
O150 Eu131 2.394 . S
O150 C139 1.251 . S
O151 Eu121 2.374 . S
O151 C139 1.251 . S
H152 C123 0.931 . S
H153 C124 0.931 . S
H154 C126 0.931 . S
H155 C127 0.931 . S
H156 C133 0.931 . S
H157 C134 0.931 . S
H158 C136 0.931 . S
H159 C137 0.931 . S
C160 Eu161 2.835 1_554 S
C160 C162 1.500 . S
C160 O180 1.257 . S
C160 O181 1.260 . S
Eu161 C160 2.835 1_556 S
Eu161 O180 2.473 1_556 S
Eu161 O181 2.480 1_556 S
Eu161 O182 2.430 . S
Eu161 O183 2.670 . S
Eu161 O184 2.394 1_556 S
Eu161 O189 2.355 1_556 S
Eu161 O191 2.374 . S
C162 C160 1.500 . S
C162 C163 1.377 . S
C162 C167 1.377 . S
C163 C162 1.377 . S
C163 C164 1.395 . S
C163 H192 0.931 . S
C164 C163 1.395 . S
C164 C165 1.383 . S
C164 H193 0.931 . S
C165 C164 1.383 . S
C165 C166 1.394 . S
C166 C165 1.394 . S
C166 C167 1.378 . S
C166 H194 0.931 . S
C167 C162 1.377 . S
C167 C166 1.378 . S
C167 H195 0.931 . S
C168 O182 1.259 . S
C168 O183 1.270 . S
C169 O184 1.251 . S
C169 O185 1.251 . S
C170 Eu171 2.835 1_556 S
C170 C172 1.500 . S
C170 O186 1.257 . S
C170 O187 1.260 . S
Eu171 C170 2.835 1_554 S
Eu171 O183 2.355 1_554 S
Eu171 O185 2.374 . S
Eu171 O186 2.473 1_554 S
Eu171 O187 2.480 1_554 S
Eu171 O188 2.430 . S
Eu171 O189 2.670 . S
Eu171 O190 2.394 1_554 S
C172 C170 1.500 . S
C172 C173 1.377 . S
C172 C177 1.377 . S
C173 C172 1.377 . S
C173 C174 1.395 . S
C173 H196 0.931 . S
C174 C173 1.395 . S
C174 C175 1.383 . S
C174 H197 0.931 . S
C175 C174 1.383 . S
C175 C176 1.394 . S
C176 C175 1.394 . S
C176 C177 1.378 . S
C176 H198 0.931 . S
C177 C172 1.377 . S
C177 C176 1.378 . S
C177 H199 0.931 . S
C178 O188 1.259 . S
C178 O189 1.270 . S
C179 O190 1.251 . S
C179 O191 1.251 . S
O180 C160 1.257 . S
O180 Eu161 2.473 1_554 S
O181 C160 1.260 . S
O181 Eu161 2.480 1_554 S
O182 Eu161 2.430 . S
O182 C168 1.259 . S
O183 Eu161 2.670 . S
O183 C168 1.270 . S
O183 Eu171 2.355 1_556 S
O184 Eu161 2.394 1_554 S
O184 C169 1.251 . S
O185 C169 1.251 . S
O185 Eu171 2.374 . S
O186 C170 1.257 . S
O186 Eu171 2.473 1_556 S
O187 C170 1.260 . S
O187 Eu171 2.480 1_556 S
O188 Eu171 2.430 . S
O188 C178 1.259 . S
O189 Eu161 2.355 1_554 S
O189 Eu171 2.670 . S
O189 C178 1.270 . S
O190 Eu171 2.394 1_556 S
O190 C179 1.251 . S
O191 Eu161 2.374 . S
O191 C179 1.251 . S
H192 C163 0.931 . S
H193 C164 0.931 . S
H194 C166 0.931 . S
H195 C167 0.931 . S
H196 C173 0.931 . S
H197 C174 0.931 . S
H198 C176 0.931 . S
H199 C177 0.931 . S
C200 Eu201 2.835 1_554 S
C200 C202 1.500 . S
C200 O220 1.257 . S
C200 O221 1.260 . S
Eu201 C200 2.835 1_556 S
Eu201 O220 2.473 1_556 S
Eu201 O221 2.480 1_556 S
Eu201 O222 2.430 . S
Eu201 O223 2.670 . S
Eu201 O224 2.394 1_556 S
Eu201 O229 2.355 1_556 S
Eu201 O231 2.374 . S
C202 C200 1.500 . S
C202 C203 1.377 . S
C202 C207 1.377 . S
C203 C202 1.377 . S
C203 C204 1.395 . S
C203 H232 0.931 . S
C204 C203 1.395 . S
C204 C205 1.383 . S
C204 H233 0.931 . S
C205 C204 1.383 . S
C205 C206 1.394 . S
C206 C205 1.394 . S
C206 C207 1.378 . S
C206 H234 0.931 . S
C207 C202 1.377 . S
C207 C206 1.378 . S
C207 H235 0.931 . S
C208 O222 1.259 . S
C208 O223 1.270 . S
C209 O224 1.251 . S
C209 O225 1.251 . S
C210 Eu211 2.835 1_556 S
C210 C212 1.500 . S
C210 O226 1.257 . S
C210 O227 1.260 . S
Eu211 C210 2.835 1_554 S
Eu211 O223 2.355 1_554 S
Eu211 O225 2.374 . S
Eu211 O226 2.473 1_554 S
Eu211 O227 2.480 1_554 S
Eu211 O228 2.430 . S
Eu211 O229 2.670 . S
Eu211 O230 2.394 1_554 S
C212 C210 1.500 . S
C212 C213 1.377 . S
C212 C217 1.377 . S
C213 C212 1.377 . S
C213 C214 1.395 . S
C213 H236 0.931 . S
C214 C213 1.395 . S
C214 C215 1.383 . S
C214 H237 0.931 . S
C215 C214 1.383 . S
C215 C216 1.394 . S
C216 C215 1.394 . S
C216 C217 1.378 . S
C216 H238 0.931 . S
C217 C212 1.377 . S
C217 C216 1.378 . S
C217 H239 0.931 . S
C218 O228 1.259 . S
C218 O229 1.270 . S
C219 O230 1.251 . S
C219 O231 1.251 . S
O220 C200 1.257 . S
O220 Eu201 2.473 1_554 S
O221 C200 1.260 . S
O221 Eu201 2.480 1_554 S
O222 Eu201 2.430 . S
O222 C208 1.259 . S
O223 Eu201 2.670 . S
O223 C208 1.270 . S
O223 Eu211 2.355 1_556 S
O224 Eu201 2.394 1_554 S
O224 C209 1.251 . S
O225 C209 1.251 . S
O225 Eu211 2.374 . S
O226 C210 1.257 . S
O226 Eu211 2.473 1_556 S
O227 C210 1.260 . S
O227 Eu211 2.480 1_556 S
O228 Eu211 2.430 . S
O228 C218 1.259 . S
O229 Eu201 2.355 1_554 S
O229 Eu211 2.670 . S
O229 C218 1.270 . S
O230 Eu211 2.394 1_556 S
O230 C219 1.251 . S
O231 Eu201 2.374 . S
O231 C219 1.251 . S
H232 C203 0.931 . S
H233 C204 0.931 . S
H234 C206 0.931 . S
H235 C207 0.931 . S
H236 C213 0.931 . S
H237 C214 0.931 . S
H238 C216 0.931 . S
H239 C217 0.931 . S
C240 Eu241 2.835 1_554 S
C240 C242 1.500 . S
C240 O260 1.257 . S
C240 O261 1.260 . S
Eu241 C240 2.835 1_556 S
Eu241 O260 2.473 1_556 S
Eu241 O261 2.480 1_556 S
Eu241 O262 2.430 . S
Eu241 O263 2.670 . S
Eu241 O264 2.394 1_556 S
Eu241 O269 2.355 1_556 S
Eu241 O271 2.374 . S
C242 C240 1.500 . S
C242 C243 1.377 . S
C242 C247 1.377 . S
C243 C242 1.377 . S
C243 C244 1.395 . S
C243 H272 0.931 . S
C244 C243 1.395 . S
C244 C245 1.383 . S
C244 H273 0.931 . S
C245 C244 1.383 . S
C245 C246 1.394 . S
C246 C245 1.394 . S
C246 C247 1.378 . S
C246 H274 0.931 . S
C247 C242 1.377 . S
C247 C246 1.378 . S
C247 H275 0.931 . S
C248 O262 1.259 . S
C248 O263 1.270 . S
C249 O264 1.251 . S
C249 O265 1.251 . S
C250 Eu251 2.835 1_556 S
C250 C252 1.500 . S
C250 O266 1.257 . S
C250 O267 1.260 . S
Eu251 C250 2.835 1_554 S
Eu251 O263 2.355 1_554 S
Eu251 O265 2.374 . S
Eu251 O266 2.473 1_554 S
Eu251 O267 2.480 1_554 S
Eu251 O268 2.430 . S
Eu251 O269 2.670 . S
Eu251 O270 2.394 1_554 S
C252 C250 1.500 . S
C252 C253 1.377 . S
C252 C257 1.377 . S
C253 C252 1.377 . S
C253 C254 1.395 . S
C253 H276 0.931 . S
C254 C253 1.395 . S
C254 C255 1.383 . S
C254 H277 0.931 . S
C255 C254 1.383 . S
C255 C256 1.394 . S
C256 C255 1.394 . S
C256 C257 1.378 . S
C256 H278 0.931 . S
C257 C252 1.377 . S
C257 C256 1.378 . S
C257 H279 0.931 . S
C258 O268 1.259 . S
C258 O269 1.270 . S
C259 O270 1.251 . S
C259 O271 1.251 . S
O260 C240 1.257 . S
O260 Eu241 2.473 1_554 S
O261 C240 1.260 . S
O261 Eu241 2.480 1_554 S
O262 Eu241 2.430 . S
O262 C248 1.259 . S
O263 Eu241 2.670 . S
O263 C248 1.270 . S
O263 Eu251 2.355 1_556 S
O264 Eu241 2.394 1_554 S
O264 C249 1.251 . S
O265 C249 1.251 . S
O265 Eu251 2.374 . S
O266 C250 1.257 . S
O266 Eu251 2.473 1_556 S
O267 C250 1.260 . S
O267 Eu251 2.480 1_556 S
O268 Eu251 2.430 . S
O268 C258 1.259 . S
O269 Eu241 2.355 1_554 S
O269 Eu251 2.670 . S
O269 C258 1.270 . S
O270 Eu251 2.394 1_556 S
O270 C259 1.251 . S
O271 Eu241 2.374 . S
O271 C259 1.251 . S
H272 C243 0.931 . S
H273 C244 0.931 . S
H274 C246 0.931 . S
H275 C247 0.931 . S
H276 C253 0.931 . S
H277 C254 0.931 . S
H278 C256 0.931 . S
H279 C257 0.931 . S
C280 Eu281 2.835 1_554 S
C280 C282 1.500 . S
C280 O300 1.257 . S
C280 O301 1.260 . S
Eu281 C280 2.835 1_556 S
Eu281 O300 2.473 1_556 S
Eu281 O301 2.480 1_556 S
Eu281 O302 2.430 . S
Eu281 O303 2.670 . S
Eu281 O304 2.394 1_556 S
Eu281 O309 2.355 1_556 S
Eu281 O311 2.374 . S
C282 C280 1.500 . S
C282 C283 1.377 . S
C282 C287 1.377 . S
C283 C282 1.377 . S
C283 C284 1.395 . S
C283 H312 0.931 . S
C284 C283 1.395 . S
C284 C285 1.383 . S
C284 H313 0.931 . S
C285 C284 1.383 . S
C285 C286 1.394 . S
C286 C285 1.394 . S
C286 C287 1.378 . S
C286 H314 0.931 . S
C287 C282 1.377 . S
C287 C286 1.378 . S
C287 H315 0.931 . S
C288 O302 1.259 . S
C288 O303 1.270 . S
C289 O304 1.251 . S
C289 O305 1.251 . S
C290 Eu291 2.835 1_556 S
C290 C292 1.500 . S
C290 O306 1.257 . S
C290 O307 1.260 . S
Eu291 C290 2.835 1_554 S
Eu291 O303 2.355 1_554 S
Eu291 O305 2.374 . S
Eu291 O306 2.473 1_554 S
Eu291 O307 2.480 1_554 S
Eu291 O308 2.430 . S
Eu291 O309 2.670 . S
Eu291 O310 2.394 1_554 S
C292 C290 1.500 . S
C292 C293 1.377 . S
C292 C297 1.377 . S
C293 C292 1.377 . S
C293 C294 1.395 . S
C293 H316 0.931 . S
C294 C293 1.395 . S
C294 C295 1.383 . S
C294 H317 0.931 . S
C295 C294 1.383 . S
C295 C296 1.394 . S
C296 C295 1.394 . S
C296 C297 1.378 . S
C296 H318 0.931 . S
C297 C292 1.377 . S
C297 C296 1.378 . S
C297 H319 0.931 . S
C298 O308 1.259 . S
C298 O309 1.270 . S
C299 O310 1.251 . S
C299 O311 1.251 . S
O300 C280 1.257 . S
O300 Eu281 2.473 1_554 S
O301 C280 1.260 . S
O301 Eu281 2.480 1_554 S
O302 Eu281 2.430 . S
O302 C288 1.259 . S
O303 Eu281 2.670 . S
O303 C288 1.270 . S
O303 Eu291 2.355 1_556 S
O304 Eu281 2.394 1_554 S
O304 C289 1.251 . S
O305 C289 1.251 . S
O305 Eu291 2.374 . S
O306 C290 1.257 . S
O306 Eu291 2.473 1_556 S
O307 C290 1.260 . S
O307 Eu291 2.480 1_556 S
O308 Eu291 2.430 . S
O308 C298 1.259 . S
O309 Eu281 2.355 1_554 S
O309 Eu291 2.670 . S
O309 C298 1.270 . S
O310 Eu291 2.394 1_556 S
O310 C299 1.251 . S
O311 Eu281 2.374 . S
O311 C299 1.251 . S
H312 C283 0.931 . S
H313 C284 0.931 . S
H314 C286 0.931 . S
H315 C287 0.931 . S
H316 C293 0.931 . S
H317 C294 0.931 . S
H318 C296 0.931 . S
H319 C297 0.931 . S
H320 C328 0.929 . S
H321 C330 0.930 . S
H322 C332 0.930 . S
H323 C335 0.929 . S
H324 C338 0.930 . S
H325 C340 0.960 . S
H326 C340 0.960 . S
H327 C340 0.960 . S
C328 H320 0.929 . S
C328 C329 1.377 . S
C328 C330 1.384 . S
C329 C328 1.377 . S
C329 C335 1.390 . S
C330 H321 0.930 . S
C330 C328 1.384 . S
C330 C331 1.372 . S
C331 C330 1.372 . S
C331 C332 1.400 . S
C331 C336 1.490 . S
C332 H322 0.930 . S
C332 C331 1.400 . S
C332 C335 1.386 . S
H333 C349 0.930 . S
H334 C350 0.931 . S
C335 H323 0.929 . S
C335 C329 1.390 . S
C335 C332 1.386 . S
C336 C331 1.490 . S
C336 C338 1.395 . S
C336 C339 1.403 . S
H337 C343 0.930 . S
C338 H324 0.930 . S
C338 C336 1.395 . S
C338 C341 1.403 . S
C339 C336 1.403 . S
C339 C340 1.524 . S
C339 C343 1.400 . S
C340 H325 0.960 . S
C340 H326 0.960 . S
C340 H327 0.960 . S
C340 C339 1.524 . S
C341 C338 1.403 . S
C341 C342 1.392 . S
C341 C345 1.495 . S
C342 C341 1.392 . S
C342 C343 1.385 . S
C342 C344 1.478 . S
C343 H337 0.930 . S
C343 C339 1.400 . S
C343 C342 1.385 . S
C344 C342 1.478 . S
C344 C346 1.381 . S
C344 C350 1.383 . S
C345 C341 1.495 . S
C345 H351 0.959 . S
C345 H352 0.961 . S
C345 H353 0.960 . S
C346 C344 1.381 . S
C346 C347 1.394 . S
C346 H354 0.930 . S
C347 C346 1.394 . S
C347 C348 1.383 . S
C347 H355 0.929 . S
C348 C347 1.383 . S
C348 C349 1.377 . S
C349 H333 0.930 . S
C349 C348 1.377 . S
C349 C350 1.379 . S
C350 H334 0.931 . S
C350 C344 1.383 . S
C350 C349 1.379 . S
H351 C345 0.959 . S
H352 C345 0.961 . S
H353 C345 0.960 . S
H354 C346 0.930 . S
H355 C347 0.929 . S
H356 C364 0.929 . S
H357 C366 0.930 . S
H358 C368 0.930 . S
H359 C371 0.929 . S
H360 C374 0.930 . S
H361 C376 0.960 . S
H362 C376 0.960 . S
H363 C376 0.960 . S
C364 H356 0.929 . S
C364 C365 1.377 . S
C364 C366 1.384 . S
C365 C364 1.377 . S
C365 C371 1.390 . S
C366 H357 0.930 . S
C366 C364 1.384 . S
C366 C367 1.372 . S
C367 C366 1.372 . S
C367 C368 1.400 . S
C367 C372 1.490 . S
C368 H358 0.930 . S
C368 C367 1.400 . S
C368 C371 1.386 . S
H369 C385 0.930 . S
H370 C386 0.931 . S
C371 H359 0.929 . S
C371 C365 1.390 . S
C371 C368 1.386 . S
C372 C367 1.490 . S
C372 C374 1.395 . S
C372 C375 1.403 . S
H373 C379 0.930 . S
C374 H360 0.930 . S
C374 C372 1.395 . S
C374 C377 1.403 . S
C375 C372 1.403 . S
C375 C376 1.524 . S
C375 C379 1.400 . S
C376 H361 0.960 . S
C376 H362 0.960 . S
C376 H363 0.960 . S
C376 C375 1.524 . S
C377 C374 1.403 . S
C377 C378 1.392 . S
C377 C381 1.495 . S
C378 C377 1.392 . S
C378 C379 1.385 . S
C378 C380 1.478 . S
C379 H373 0.930 . S
C379 C375 1.400 . S
C379 C378 1.385 . S
C380 C378 1.478 . S
C380 C382 1.381 . S
C380 C386 1.383 . S
C381 C377 1.495 . S
C381 H387 0.959 . S
C381 H388 0.961 . S
C381 H389 0.960 . S
C382 C380 1.381 . S
C382 C383 1.394 . S
C382 H390 0.930 . S
C383 C382 1.394 . S
C383 C384 1.383 . S
C383 H391 0.929 . S
C384 C383 1.383 . S
C384 C385 1.377 . S
C385 H369 0.930 . S
C385 C384 1.377 . S
C385 C386 1.379 . S
C386 H370 0.931 . S
C386 C380 1.383 . S
C386 C385 1.379 . S
H387 C381 0.959 . S
H388 C381 0.961 . S
H389 C381 0.960 . S
H390 C382 0.930 . S
H391 C383 0.929 . S
H392 C400 0.929 . S
H393 C402 0.930 . S
H394 C404 0.930 . S
H395 C407 0.929 . S
H396 C410 0.930 . S
H397 C412 0.960 . S
H398 C412 0.960 . S
H399 C412 0.960 . S
C400 H392 0.929 . S
C400 C401 1.377 . S
C400 C402 1.384 . S
C401 C400 1.377 . S
C401 C407 1.390 . S
C402 H393 0.930 . S
C402 C400 1.384 . S
C402 C403 1.372 . S
C403 C402 1.372 . S
C403 C404 1.400 . S
C403 C408 1.490 . S
C404 H394 0.930 . S
C404 C403 1.400 . S
C404 C407 1.386 . S
H405 C421 0.930 . S
H406 C422 0.931 . S
C407 H395 0.929 . S
C407 C401 1.390 . S
C407 C404 1.386 . S
C408 C403 1.490 . S
C408 C410 1.395 . S
C408 C411 1.403 . S
H409 C415 0.930 . S
C410 H396 0.930 . S
C410 C408 1.395 . S
C410 C413 1.403 . S
C411 C408 1.403 . S
C411 C412 1.524 . S
C411 C415 1.400 . S
C412 H397 0.960 . S
C412 H398 0.960 . S
C412 H399 0.960 . S
C412 C411 1.524 . S
C413 C410 1.403 . S
C413 C414 1.392 . S
C413 C417 1.495 . S
C414 C413 1.392 . S
C414 C415 1.385 . S
C414 C416 1.478 . S
C415 H409 0.930 . S
C415 C411 1.400 . S
C415 C414 1.385 . S
C416 C414 1.478 . S
C416 C418 1.381 . S
C416 C422 1.383 . S
C417 C413 1.495 . S
C417 H423 0.959 . S
C417 H424 0.961 . S
C417 H425 0.960 . S
C418 C416 1.381 . S
C418 C419 1.394 . S
C418 H426 0.930 . S
C419 C418 1.394 . S
C419 C420 1.383 . S
C419 H427 0.929 . S
C420 C419 1.383 . S
C420 C421 1.377 . S
C421 H405 0.930 . S
C421 C420 1.377 . S
C421 C422 1.379 . S
C422 H406 0.931 . S
C422 C416 1.383 . S
C422 C421 1.379 . S
H423 C417 0.959 . S
H424 C417 0.961 . S
H425 C417 0.960 . S
H426 C418 0.930 . S
H427 C419 0.929 . S
H428 C436 0.929 . S
H429 C438 0.930 . S
H430 C440 0.930 . S
H431 C443 0.929 . S
H432 C446 0.930 . S
H433 C448 0.960 . S
H434 C448 0.960 . S
H435 C448 0.960 . S
C436 H428 0.929 . S
C436 C437 1.377 . S
C436 C438 1.384 . S
C437 C436 1.377 . S
C437 C443 1.390 . S
C438 H429 0.930 . S
C438 C436 1.384 . S
C438 C439 1.372 . S
C439 C438 1.372 . S
C439 C440 1.400 . S
C439 C444 1.490 . S
C440 H430 0.930 . S
C440 C439 1.400 . S
C440 C443 1.386 . S
H441 C457 0.930 . S
H442 C458 0.931 . S
C443 H431 0.929 . S
C443 C437 1.390 . S
C443 C440 1.386 . S
C444 C439 1.490 . S
C444 C446 1.395 . S
C444 C447 1.403 . S
H445 C451 0.930 . S
C446 H432 0.930 . S
C446 C444 1.395 . S
C446 C449 1.403 . S
C447 C444 1.403 . S
C447 C448 1.524 . S
C447 C451 1.400 . S
C448 H433 0.960 . S
C448 H434 0.960 . S
C448 H435 0.960 . S
C448 C447 1.524 . S
C449 C446 1.403 . S
C449 C450 1.392 . S
C449 C453 1.495 . S
C450 C449 1.392 . S
C450 C451 1.385 . S
C450 C452 1.478 . S
C451 H445 0.930 . S
C451 C447 1.400 . S
C451 C450 1.385 . S
C452 C450 1.478 . S
C452 C454 1.381 . S
C452 C458 1.383 . S
C453 C449 1.495 . S
C453 H459 0.959 . S
C453 H460 0.961 . S
C453 H461 0.960 . S
C454 C452 1.381 . S
C454 C455 1.394 . S
C454 H462 0.930 . S
C455 C454 1.394 . S
C455 C456 1.383 . S
C455 H463 0.929 . S
C456 C455 1.383 . S
C456 C457 1.377 . S
C457 H441 0.930 . S
C457 C456 1.377 . S
C457 C458 1.379 . S
C458 H442 0.931 . S
C458 C452 1.383 . S
C458 C457 1.379 . S
H459 C453 0.959 . S
H460 C453 0.961 . S
H461 C453 0.960 . S
H462 C454 0.930 . S
H463 C455 0.929 . S
H464 C472 0.929 . S
H465 C474 0.930 . S
H466 C476 0.930 . S
H467 C479 0.929 . S
H468 C482 0.930 . S
H469 C484 0.960 . S
H470 C484 0.960 . S
H471 C484 0.960 . S
C472 H464 0.929 . S
C472 C473 1.377 . S
C472 C474 1.384 . S
C473 C472 1.377 . S
C473 C479 1.390 . S
C474 H465 0.930 . S
C474 C472 1.384 . S
C474 C475 1.372 . S
C475 C474 1.372 . S
C475 C476 1.400 . S
C475 C480 1.490 . S
C476 H466 0.930 . S
C476 C475 1.400 . S
C476 C479 1.386 . S
H477 C493 0.930 . S
H478 C494 0.931 . S
C479 H467 0.929 . S
C479 C473 1.390 . S
C479 C476 1.386 . S
C480 C475 1.490 . S
C480 C482 1.395 . S
C480 C483 1.403 . S
H481 C487 0.930 . S
C482 H468 0.930 . S
C482 C480 1.395 . S
C482 C485 1.403 1_565 S
C483 C480 1.403 . S
C483 C484 1.524 . S
C483 C487 1.400 1_565 S
C484 H469 0.960 . S
C484 H470 0.960 . S
C484 H471 0.960 . S
C484 C483 1.524 . S
C485 C482 1.403 1_545 S
C485 C486 1.392 . S
C485 C489 1.495 . S
C486 C485 1.392 . S
C486 C487 1.385 . S
C486 C488 1.478 . S
C487 H481 0.930 . S
C487 C483 1.400 1_545 S
C487 C486 1.385 . S
C488 C486 1.478 . S
C488 C490 1.381 . S
C488 C494 1.383 . S
C489 C485 1.495 . S
C489 H495 0.959 . S
C489 H496 0.961 . S
C489 H497 0.960 . S
C490 C488 1.381 . S
C490 C491 1.394 . S
C490 H498 0.930 . S
C491 C490 1.394 . S
C491 C492 1.383 . S
C491 H499 0.929 . S
C492 C491 1.383 . S
C492 C493 1.377 . S
C493 H477 0.930 . S
C493 C492 1.377 . S
C493 C494 1.379 . S
C494 H478 0.931 . S
C494 C488 1.383 . S
C494 C493 1.379 . S
H495 C489 0.959 . S
H496 C489 0.961 . S
H497 C489 0.960 . S
H498 C490 0.930 . S
H499 C491 0.929 . S
H500 C508 0.929 . S
H501 C510 0.930 . S
H502 C512 0.930 . S
H503 C515 0.929 . S
H504 C518 0.930 . S
H505 C520 0.960 . S
H506 C520 0.960 . S
H507 C520 0.960 . S
C508 H500 0.929 . S
C508 C509 1.377 . S
C508 C510 1.384 . S
C509 C508 1.377 . S
C509 C515 1.390 . S
C510 H501 0.930 . S
C510 C508 1.384 . S
C510 C511 1.372 . S
C511 C510 1.372 . S
C511 C512 1.400 . S
C511 C516 1.490 . S
C512 H502 0.930 . S
C512 C511 1.400 . S
C512 C515 1.386 . S
H513 C529 0.930 . S
H514 C530 0.931 . S
C515 H503 0.929 . S
C515 C509 1.390 . S
C515 C512 1.386 . S
C516 C511 1.490 . S
C516 C518 1.395 . S
C516 C519 1.403 . S
H517 C523 0.930 . S
C518 H504 0.930 . S
C518 C516 1.395 . S
C518 C521 1.403 . S
C519 C516 1.403 . S
C519 C520 1.524 . S
C519 C523 1.400 . S
C520 H505 0.960 . S
C520 H506 0.960 . S
C520 H507 0.960 . S
C520 C519 1.524 . S
C521 C518 1.403 . S
C521 C522 1.392 . S
C521 C525 1.495 . S
C522 C521 1.392 . S
C522 C523 1.385 . S
C522 C524 1.478 . S
C523 H517 0.930 . S
C523 C519 1.400 . S
C523 C522 1.385 . S
C524 C522 1.478 . S
C524 C526 1.381 . S
C524 C530 1.383 . S
C525 C521 1.495 . S
C525 H531 0.959 . S
C525 H532 0.961 . S
C525 H533 0.960 . S
C526 C524 1.381 . S
C526 C527 1.394 . S
C526 H534 0.930 . S
C527 C526 1.394 . S
C527 C528 1.383 . S
C527 H535 0.929 . S
C528 C527 1.383 . S
C528 C529 1.377 . S
C529 H513 0.930 . S
C529 C528 1.377 . S
C529 C530 1.379 . S
C530 H514 0.931 . S
C530 C524 1.383 . S
C530 C529 1.379 . S
H531 C525 0.959 . S
H532 C525 0.961 . S
H533 C525 0.960 . S
H534 C526 0.930 . S
H535 C527 0.929 . S
H536 C544 0.929 . S
H537 C546 0.930 . S
H538 C548 0.930 . S
H539 C551 0.929 . S
H540 C554 0.930 . S
H541 C556 0.960 . S
H542 C556 0.960 . S
H543 C556 0.960 . S
C544 H536 0.929 . S
C544 C545 1.377 . S
C544 C546 1.384 . S
C545 C544 1.377 . S
C545 C551 1.390 . S
C546 H537 0.930 . S
C546 C544 1.384 . S
C546 C547 1.372 . S
C547 C546 1.372 . S
C547 C548 1.400 . S
C547 C552 1.490 . S
C548 H538 0.930 . S
C548 C547 1.400 . S
C548 C551 1.386 . S
H549 C565 0.930 . S
H550 C566 0.931 . S
C551 H539 0.929 . S
C551 C545 1.390 . S
C551 C548 1.386 . S
C552 C547 1.490 . S
C552 C554 1.395 . S
C552 C555 1.403 . S
H553 C559 0.930 . S
C554 H540 0.930 . S
C554 C552 1.395 . S
C554 C557 1.403 1_565 S
C555 C552 1.403 . S
C555 C556 1.524 . S
C555 C559 1.400 1_565 S
C556 H541 0.960 . S
C556 H542 0.960 . S
C556 H543 0.960 . S
C556 C555 1.524 . S
C557 C554 1.403 1_545 S
C557 C558 1.392 . S
C557 C561 1.495 . S
C558 C557 1.392 . S
C558 C559 1.385 . S
C558 C560 1.478 . S
C559 H553 0.930 . S
C559 C555 1.400 1_545 S
C559 C558 1.385 . S
C560 C558 1.478 . S
C560 C562 1.381 . S
C560 C566 1.383 . S
C561 C557 1.495 . S
C561 H567 0.959 . S
C561 H568 0.961 . S
C561 H569 0.960 . S
C562 C560 1.381 . S
C562 C563 1.394 . S
C562 H570 0.930 . S
C563 C562 1.394 . S
C563 C564 1.383 . S
C563 H571 0.929 . S
C564 C563 1.383 . S
C564 C565 1.377 . S
C565 H549 0.930 . S
C565 C564 1.377 . S
C565 C566 1.379 . S
C566 H550 0.931 . S
C566 C560 1.383 . S
C566 C565 1.379 . S
H567 C561 0.959 . S
H568 C561 0.961 . S
H569 C561 0.960 . S
H570 C562 0.930 . S
H571 C563 0.929 . S
H572 C580 0.929 . S
H573 C582 0.930 . S
H574 C584 0.930 . S
H575 C587 0.929 . S
H576 C590 0.930 . S
H577 C592 0.960 . S
H578 C592 0.960 . S
H579 C592 0.960 . S
C580 H572 0.929 . S
C580 C581 1.377 . S
C580 C582 1.384 . S
C581 C580 1.377 . S
C581 C587 1.390 . S
C582 H573 0.930 . S
C582 C580 1.384 . S
C582 C583 1.372 . S
C583 C582 1.372 . S
C583 C584 1.400 . S
C583 C588 1.490 . S
C584 H574 0.930 . S
C584 C583 1.400 . S
C584 C587 1.386 . S
H585 C601 0.930 . S
H586 C602 0.931 . S
C587 H575 0.929 . S
C587 C581 1.390 . S
C587 C584 1.386 . S
C588 C583 1.490 . S
C588 C590 1.395 . S
C588 C591 1.403 . S
H589 C595 0.930 . S
C590 H576 0.930 . S
C590 C588 1.395 . S
C590 C593 1.403 . S
C591 C588 1.403 . S
C591 C592 1.524 . S
C591 C595 1.400 . S
C592 H577 0.960 . S
C592 H578 0.960 . S
C592 H579 0.960 . S
C592 C591 1.524 . S
C593 C590 1.403 . S
C593 C594 1.392 . S
C593 C597 1.495 . S
C594 C593 1.392 . S
C594 C595 1.385 . S
C594 C596 1.478 . S
C595 H589 0.930 . S
C595 C591 1.400 . S
C595 C594 1.385 . S
C596 C594 1.478 . S
C596 C598 1.381 . S
C596 C602 1.383 . S
C597 C593 1.495 . S
C597 H603 0.959 . S
C597 H604 0.961 . S
C597 H605 0.960 . S
C598 C596 1.381 . S
C598 C599 1.394 . S
C598 H606 0.930 . S
C599 C598 1.394 . S
C599 C600 1.383 . S
C599 H607 0.929 . S
C600 C599 1.383 . S
C600 C601 1.377 . S
C601 H585 0.930 . S
C601 C600 1.377 . S
C601 C602 1.379 . S
C602 H586 0.931 . S
C602 C596 1.383 . S
C602 C601 1.379 . S
H603 C597 0.959 . S
H604 C597 0.961 . S
H605 C597 0.960 . S
H606 C598 0.930 . S
H607 C599 0.929 . S
H608 C616 0.929 . S
H609 C618 0.930 . S
H610 C620 0.930 . S
H611 C623 0.929 . S
H612 C626 0.930 . S
H613 C628 0.960 . S
H614 C628 0.960 . S
H615 C628 0.960 . S
C616 H608 0.929 . S
C616 C617 1.377 1_554 S
C616 C618 1.384 . S
C617 C616 1.377 1_556 S
C617 C623 1.390 . S
C618 H609 0.930 . S
C618 C616 1.384 . S
C618 C619 1.371 1_554 S
C619 C618 1.371 1_556 S
C619 C620 1.401 . S
C619 C624 1.490 1_556 S
C620 H610 0.930 . S
C620 C619 1.401 . S
C620 C623 1.386 . S
H621 C637 0.930 . S
H622 C638 0.931 . S
C623 H611 0.929 . S
C623 C617 1.390 . S
C623 C620 1.386 . S
C624 C619 1.490 1_554 S
C624 C626 1.400 . S
C624 C627 1.398 1_554 S
H625 C631 0.930 . S
C626 H612 0.930 . S
C626 C624 1.400 . S
C626 C629 1.403 . S
C627 C624 1.398 1_556 S
C627 C628 1.524 . S
C627 C631 1.400 . S
C628 H613 0.960 . S
C628 H614 0.960 . S
C628 H615 0.960 . S
C628 C627 1.524 . S
C629 C626 1.403 . S
C629 C630 1.392 . S
C629 C633 1.495 . S
C630 C629 1.392 . S
C630 C631 1.385 1_554 S
C630 C632 1.478 . S
C631 H625 0.930 . S
C631 C627 1.400 . S
C631 C630 1.385 1_556 S
C632 C630 1.478 . S
C632 C634 1.381 . S
C632 C638 1.383 1_554 S
C633 C629 1.495 . S
C633 H639 0.959 . S
C633 H640 0.961 . S
C633 H641 0.960 . S
C634 C632 1.381 . S
C634 C635 1.394 . S
C634 H642 0.930 . S
C635 C634 1.394 . S
C635 C636 1.383 1_554 S
C635 H643 0.929 . S
C636 C635 1.383 1_556 S
C636 C637 1.377 . S
C637 H621 0.930 . S
C637 C636 1.377 . S
C637 C638 1.379 . S
C638 H622 0.931 . S
C638 C632 1.383 1_556 S
C638 C637 1.379 . S
H639 C633 0.959 . S
H640 C633 0.961 . S
H641 C633 0.960 . S
H642 C634 0.930 . S
H643 C635 0.929 . S
H644 C652 0.929 . S
H645 C654 0.930 . S
H646 C656 0.930 1_554 S
H647 C659 0.929 . S
H648 C662 0.930 . S
H649 C664 0.960 . S
H650 C664 0.960 . S
H651 C664 0.960 . S
C652 H644 0.929 . S
C652 C653 1.377 . S
C652 C654 1.384 . S
C653 C652 1.377 . S
C653 C659 1.390 . S
C654 H645 0.930 . S
C654 C652 1.384 . S
C654 C655 1.372 . S
C655 C654 1.372 . S
C655 C656 1.400 . S
C655 C660 1.490 . S
C656 H646 0.930 1_556 S
C656 C655 1.400 . S
C656 C659 1.386 . S
H657 C673 0.930 . S
H658 C674 0.931 . S
C659 H647 0.929 . S
C659 C653 1.390 . S
C659 C656 1.386 . S
C660 C655 1.490 . S
C660 C662 1.395 . S
C660 C663 1.403 1_556 S
H661 C667 0.930 . S
C662 H648 0.930 . S
C662 C660 1.395 . S
C662 C665 1.403 1_565 S
C663 C660 1.403 1_554 S
C663 C664 1.524 . S
C663 C667 1.400 1_565 S
C664 H649 0.960 . S
C664 H650 0.960 . S
C664 H651 0.960 . S
C664 C663 1.524 . S
C665 C662 1.403 1_545 S
C665 C666 1.392 . S
C665 C669 1.495 . S
C666 C665 1.392 . S
C666 C667 1.385 1_556 S
C666 C668 1.478 . S
C667 H661 0.930 . S
C667 C663 1.400 1_545 S
C667 C666 1.385 1_554 S
C668 C666 1.478 . S
C668 C670 1.381 . S
C668 C674 1.383 . S
C669 C665 1.495 . S
C669 H675 0.959 . S
C669 H676 0.961 . S
C669 H677 0.960 . S
C670 C668 1.381 . S
C670 C671 1.394 . S
C670 H678 0.930 . S
C671 C670 1.394 . S
C671 C672 1.383 . S
C671 H679 0.929 1_556 S
C672 C671 1.383 . S
C672 C673 1.377 . S
C673 H657 0.930 . S
C673 C672 1.377 . S
C673 C674 1.379 . S
C674 H658 0.931 . S
C674 C668 1.383 . S
C674 C673 1.379 . S
H675 C669 0.959 . S
H676 C669 0.961 . S
H677 C669 0.960 . S
H678 C670 0.930 . S
H679 C671 0.929 1_554 S
H680 C688 0.929 . S
H681 C690 0.930 . S
H682 C692 0.930 . S
H683 C695 0.929 . S
H684 C698 0.930 . S
H685 C700 0.960 . S
H686 C700 0.960 . S
H687 C700 0.960 . S
C688 H680 0.929 . S
C688 C689 1.377 . S
C688 C690 1.384 . S
C689 C688 1.377 . S
C689 C695 1.390 1_554 S
C690 H681 0.930 . S
C690 C688 1.384 . S
C690 C691 1.372 . S
C691 C690 1.372 . S
C691 C692 1.400 1_554 S
C691 C696 1.490 . S
C692 H682 0.930 . S
C692 C691 1.400 1_556 S
C692 C695 1.386 . S
H693 C709 0.930 . S
H694 C710 0.931 . S
C695 H683 0.929 . S
C695 C689 1.390 1_556 S
C695 C692 1.386 . S
C696 C691 1.490 . S
C696 C698 1.395 1_554 S
C696 C699 1.403 . S
H697 C703 0.930 . S
C698 H684 0.930 . S
C698 C696 1.395 1_556 S
C698 C701 1.403 . S
C699 C696 1.403 . S
C699 C700 1.524 . S
C699 C703 1.400 . S
C700 H685 0.960 . S
C700 H686 0.960 . S
C700 H687 0.960 . S
C700 C699 1.524 . S
C701 C698 1.403 . S
C701 C702 1.392 . S
C701 C705 1.495 . S
C702 C701 1.392 . S
C702 C703 1.385 1_556 S
C702 C704 1.478 . S
C703 H697 0.930 . S
C703 C699 1.400 . S
C703 C702 1.385 1_554 S
C704 C702 1.478 . S
C704 C706 1.381 1_556 S
C704 C710 1.383 . S
C705 C701 1.495 . S
C705 H711 0.959 . S
C705 H712 0.961 . S
C705 H713 0.960 . S
C706 C704 1.381 1_554 S
C706 C707 1.394 . S
C706 H714 0.930 . S
C707 C706 1.394 . S
C707 C708 1.386 . S
C707 H715 0.929 . S
C708 C707 1.386 . S
C708 C709 1.374 1_554 S
C709 H693 0.930 . S
C709 C708 1.374 1_556 S
C709 C710 1.379 . S
C710 H694 0.931 . S
C710 C704 1.383 . S
C710 C709 1.379 . S
H711 C705 0.959 . S
H712 C705 0.961 . S
H713 C705 0.960 . S
H714 C706 0.930 . S
H715 C707 0.929 . S
H716 C724 0.929 . S
H717 C726 0.930 . S
H718 C728 0.930 . S
H719 C731 0.929 . S
H720 C734 0.930 . S
H721 C736 0.960 . S
H722 C736 0.960 . S
H723 C736 0.960 . S
C724 H716 0.929 . S
C724 C725 1.377 . S
C724 C726 1.384 . S
C725 C724 1.377 . S
C725 C731 1.390 1_554 S
C726 H717 0.930 . S
C726 C724 1.384 . S
C726 C727 1.372 . S
C727 C726 1.372 . S
C727 C728 1.400 1_554 S
C727 C732 1.490 . S
C728 H718 0.930 . S
C728 C727 1.400 1_556 S
C728 C731 1.386 . S
H729 C745 0.930 . S
H730 C746 0.931 . S
C731 H719 0.929 . S
C731 C725 1.390 1_556 S
C731 C728 1.386 . S
C732 C727 1.490 . S
C732 C734 1.395 1_554 S
C732 C735 1.403 . S
H733 C739 0.930 . S
C734 H720 0.930 . S
C734 C732 1.395 1_556 S
C734 C737 1.403 1_545 S
C735 C732 1.403 . S
C735 C736 1.524 . S
C735 C739 1.400 1_545 S
C736 H721 0.960 . S
C736 H722 0.960 . S
C736 H723 0.960 . S
C736 C735 1.524 . S
C737 C734 1.403 1_565 S
C737 C738 1.392 . S
C737 C741 1.495 . S
C738 C737 1.392 . S
C738 C739 1.385 1_556 S
C738 C740 1.478 . S
C739 H733 0.930 . S
C739 C735 1.400 1_565 S
C739 C738 1.385 1_554 S
C740 C738 1.478 . S
C740 C742 1.381 1_556 S
C740 C746 1.383 . S
C741 C737 1.495 . S
C741 H747 0.959 . S
C741 H748 0.961 . S
C741 H749 0.960 . S
C742 C740 1.381 1_554 S
C742 C743 1.394 . S
C742 H750 0.930 . S
C743 C742 1.394 . S
C743 C744 1.384 1_554 S
C743 H751 0.929 . S
C744 C743 1.384 1_556 S
C744 C745 1.376 . S
C745 H729 0.930 . S
C745 C744 1.376 . S
C745 C746 1.379 . S
C746 H730 0.931 . S
C746 C740 1.383 . S
C746 C745 1.379 . S
H747 C741 0.959 . S
H748 C741 0.961 . S
H749 C741 0.960 . S
H750 C742 0.930 . S
H751 C743 0.929 . S
H752 C760 0.929 . S
H753 C762 0.930 . S
H754 C764 0.930 . S
H755 C767 0.929 . S
H756 C770 0.930 1_554 S
H757 C772 0.960 1_556 S
H758 C772 0.960 . S
H759 C772 0.960 . S
C760 H752 0.929 . S
C760 C761 1.377 . S
C760 C762 1.384 . S
C761 C760 1.377 . S
C761 C767 1.390 . S
C762 H753 0.930 . S
C762 C760 1.384 . S
C762 C763 1.372 . S
C763 C762 1.372 . S
C763 C764 1.400 . S
C763 C768 1.490 . S
C764 H754 0.930 . S
C764 C763 1.400 . S
C764 C767 1.386 . S
H765 C781 0.930 . S
H766 C782 0.931 . S
C767 H755 0.929 . S
C767 C761 1.390 . S
C767 C764 1.386 . S
C768 C763 1.490 . S
C768 C770 1.395 1_554 S
C768 C771 1.403 1_554 S
H769 C775 0.930 . S
C770 H756 0.930 1_556 S
C770 C768 1.395 1_556 S
C770 C773 1.403 . S
C771 C768 1.403 1_556 S
C771 C772 1.524 1_556 S
C771 C775 1.400 . S
C772 H757 0.960 1_554 S
C772 H758 0.960 . S
C772 H759 0.960 . S
C772 C771 1.524 1_554 S
C773 C770 1.403 . S
C773 C774 1.392 . S
C773 C777 1.495 . S
C774 C773 1.392 . S
C774 C775 1.385 . S
C774 C776 1.478 . S
C775 H769 0.930 . S
C775 C771 1.400 . S
C775 C774 1.385 . S
C776 C774 1.478 . S
C776 C778 1.381 . S
C776 C782 1.383 . S
C777 C773 1.495 . S
C777 H783 0.959 . S
C777 H784 0.961 . S
C777 H785 0.960 . S
C778 C776 1.381 . S
C778 C779 1.394 . S
C778 H786 0.930 . S
C779 C778 1.394 . S
C779 C780 1.383 . S
C779 H787 0.929 . S
C780 C779 1.383 . S
C780 C781 1.377 . S
C781 H765 0.930 . S
C781 C780 1.377 . S
C781 C782 1.379 . S
C782 H766 0.931 . S
C782 C776 1.383 . S
C782 C781 1.379 . S
H783 C777 0.959 . S
H784 C777 0.961 . S
H785 C777 0.960 . S
H786 C778 0.930 . S
H787 C779 0.929 . S
H788 C796 0.929 . S
H789 C798 0.930 . S
H790 C800 0.930 . S
H791 C803 0.929 . S
H792 C806 0.930 1_554 S
H793 C808 0.960 1_556 S
H794 C808 0.960 . S
H795 C808 0.960 . S
C796 H788 0.929 . S
C796 C797 1.377 . S
C796 C798 1.384 . S
C797 C796 1.377 . S
C797 C803 1.390 . S
C798 H789 0.930 . S
C798 C796 1.384 . S
C798 C799 1.372 . S
C799 C798 1.372 . S
C799 C800 1.400 . S
C799 C804 1.490 . S
C800 H790 0.930 . S
C800 C799 1.400 . S
C800 C803 1.386 . S
H801 C817 0.930 . S
H802 C818 0.931 . S
C803 H791 0.929 . S
C803 C797 1.390 . S
C803 C800 1.386 . S
C804 C799 1.490 . S
C804 C806 1.395 1_554 S
C804 C807 1.403 1_554 S
H805 C811 0.930 . S
C806 H792 0.930 1_556 S
C806 C804 1.395 1_556 S
C806 C809 1.403 . S
C807 C804 1.403 1_556 S
C807 C808 1.524 1_556 S
C807 C811 1.400 . S
C808 H793 0.960 1_554 S
C808 H794 0.960 . S
C808 H795 0.960 . S
C808 C807 1.524 1_554 S
C809 C806 1.403 . S
C809 C810 1.392 . S
C809 C813 1.495 . S
C810 C809 1.392 . S
C810 C811 1.385 . S
C810 C812 1.478 . S
C811 H805 0.930 . S
C811 C807 1.400 . S
C811 C810 1.385 . S
C812 C810 1.478 . S
C812 C814 1.381 . S
C812 C818 1.383 . S
C813 C809 1.495 . S
C813 H819 0.959 . S
C813 H820 0.961 . S
C813 H821 0.960 . S
C814 C812 1.381 . S
C814 C815 1.394 . S
C814 H822 0.930 . S
C815 C814 1.394 . S
C815 C816 1.383 . S
C815 H823 0.929 . S
C816 C815 1.383 . S
C816 C817 1.377 . S
C817 H801 0.930 . S
C817 C816 1.377 . S
C817 C818 1.379 . S
C818 H802 0.931 . S
C818 C812 1.383 . S
C818 C817 1.379 . S
H819 C813 0.959 . S
H820 C813 0.961 . S
H821 C813 0.960 . S
H822 C814 0.930 . S
H823 C815 0.929 . S
H824 C832 0.929 . S
H825 C834 0.930 . S
H826 C836 0.930 . S
H827 C839 0.929 . S
H828 C842 0.930 . S
H829 C844 0.960 . S
H830 C844 0.960 . S
H831 C844 0.960 . S
C832 H824 0.929 . S
C832 C833 1.377 . S
C832 C834 1.384 . S
C833 C832 1.377 . S
C833 C839 1.390 . S
C834 H825 0.930 . S
C834 C832 1.384 . S
C834 C835 1.372 . S
C835 C834 1.372 . S
C835 C836 1.400 . S
C835 C840 1.490 . S
C836 H826 0.930 . S
C836 C835 1.400 . S
C836 C839 1.386 . S
H837 C853 0.930 . S
H838 C854 0.931 . S
C839 H827 0.929 . S
C839 C833 1.390 . S
C839 C836 1.386 . S
C840 C835 1.490 . S
C840 C842 1.395 . S
C840 C843 1.403 . S
H841 C847 0.930 1_556 S
C842 H828 0.930 . S
C842 C840 1.395 . S
C842 C845 1.403 . S
C843 C840 1.403 . S
C843 C844 1.524 . S
C843 C847 1.400 . S
C844 H829 0.960 . S
C844 H830 0.960 . S
C844 H831 0.960 . S
C844 C843 1.524 . S
C845 C842 1.403 . S
C845 C846 1.392 1_554 S
C845 C849 1.495 1_554 S
C846 C845 1.392 1_556 S
C846 C847 1.385 1_556 S
C846 C848 1.478 . S
C847 H841 0.930 1_554 S
C847 C843 1.400 . S
C847 C846 1.385 1_554 S
C848 C846 1.478 . S
C848 C850 1.381 . S
C848 C854 1.383 . S
C849 C845 1.495 1_556 S
C849 H855 0.959 1_556 S
C849 H856 0.961 . S
C849 H857 0.960 . S
C850 C848 1.381 . S
C850 C851 1.394 . S
C850 H858 0.930 . S
C851 C850 1.394 . S
C851 C852 1.383 . S
C851 H859 0.929 . S
C852 C851 1.383 . S
C852 C853 1.377 . S
C853 H837 0.930 . S
C853 C852 1.377 . S
C853 C854 1.379 . S
C854 H838 0.931 . S
C854 C848 1.383 . S
C854 C853 1.379 . S
H855 C849 0.959 1_554 S
H856 C849 0.961 . S
H857 C849 0.960 . S
H858 C850 0.930 . S
H859 C851 0.929 . S
H860 C868 0.929 . S
H861 C870 0.930 . S
H862 C872 0.930 . S
H863 C875 0.929 . S
H864 C878 0.930 1_556 S
H865 C880 0.960 . S
H866 C880 0.960 1_556 S
H867 C880 0.960 1_556 S
C868 H860 0.929 . S
C868 C869 1.377 . S
C868 C870 1.384 . S
C869 C868 1.377 . S
C869 C875 1.390 . S
C870 H861 0.930 . S
C870 C868 1.384 . S
C870 C871 1.372 . S
C871 C870 1.372 . S
C871 C872 1.400 . S
C871 C876 1.490 . S
C872 H862 0.930 . S
C872 C871 1.400 . S
C872 C875 1.386 . S
H873 C889 0.930 . S
H874 C890 0.931 . S
C875 H863 0.929 . S
C875 C869 1.390 . S
C875 C872 1.386 . S
C876 C871 1.490 . S
C876 C878 1.395 1_556 S
C876 C879 1.403 1_556 S
H877 C883 0.930 . S
C878 H864 0.930 1_554 S
C878 C876 1.395 1_554 S
C878 C881 1.403 . S
C879 C876 1.403 1_554 S
C879 C880 1.524 . S
C879 C883 1.400 . S
C880 H865 0.960 . S
C880 H866 0.960 1_554 S
C880 H867 0.960 1_554 S
C880 C879 1.524 . S
C881 C878 1.403 . S
C881 C882 1.392 . S
C881 C885 1.495 . S
C882 C881 1.392 . S
C882 C883 1.385 . S
C882 C884 1.478 . S
C883 H877 0.930 . S
C883 C879 1.400 . S
C883 C882 1.385 . S
C884 C882 1.478 . S
C884 C886 1.381 . S
C884 C890 1.383 . S
C885 C881 1.495 . S
C885 H891 0.959 . S
C885 H892 0.961 . S
C885 H893 0.960 . S
C886 C884 1.381 . S
C886 C887 1.394 . S
C886 H894 0.930 . S
C887 C886 1.394 . S
C887 C888 1.383 . S
C887 H895 0.929 . S
C888 C887 1.383 . S
C888 C889 1.377 . S
C889 H873 0.930 . S
C889 C888 1.377 . S
C889 C890 1.379 . S
C890 H874 0.931 . S
C890 C884 1.383 . S
C890 C889 1.379 . S
H891 C885 0.959 . S
H892 C885 0.961 . S
H893 C885 0.960 . S
H894 C886 0.930 . S
H895 C887 0.929 . S
H896 C904 0.929 . S
H897 C906 0.930 . S
H898 C908 0.930 . S
H899 C911 0.929 . S
H900 C914 0.930 . S
H901 C916 0.960 . S
H902 C916 0.960 . S
H903 C916 0.960 . S
C904 H896 0.929 . S
C904 C905 1.377 . S
C904 C906 1.384 . S
C905 C904 1.377 . S
C905 C911 1.390 . S
C906 H897 0.930 . S
C906 C904 1.384 . S
C906 C907 1.372 . S
C907 C906 1.372 . S
C907 C908 1.400 . S
C907 C912 1.490 . S
C908 H898 0.930 . S
C908 C907 1.400 . S
C908 C911 1.386 . S
H909 C925 0.930 . S
H910 C926 0.931 . S
C911 H899 0.929 . S
C911 C905 1.390 . S
C911 C908 1.386 . S
C912 C907 1.490 . S
C912 C914 1.395 . S
C912 C915 1.403 . S
H913 C919 0.930 . S
C914 H900 0.930 . S
C914 C912 1.395 . S
C914 C917 1.403 . S
C915 C912 1.403 . S
C915 C916 1.524 . S
C915 C919 1.400 . S
C916 H901 0.960 . S
C916 H902 0.960 . S
C916 H903 0.960 . S
C916 C915 1.524 . S
C917 C914 1.403 . S
C917 C918 1.392 . S
C917 C921 1.495 . S
C918 C917 1.392 . S
C918 C919 1.385 . S
C918 C920 1.478 . S
C919 H913 0.930 . S
C919 C915 1.400 . S
C919 C918 1.385 . S
C920 C918 1.478 . S
C920 C922 1.381 . S
C920 C926 1.383 . S
C921 C917 1.495 . S
C921 H927 0.959 . S
C921 H928 0.961 . S
C921 H929 0.960 . S
C922 C920 1.381 . S
C922 C923 1.394 . S
C922 H930 0.930 . S
C923 C922 1.394 . S
C923 C924 1.383 . S
C923 H931 0.929 . S
C924 C923 1.383 . S
C924 C925 1.377 . S
C925 H909 0.930 . S
C925 C924 1.377 . S
C925 C926 1.379 . S
C926 H910 0.931 . S
C926 C920 1.383 . S
C926 C925 1.379 . S
H927 C921 0.959 . S
H928 C921 0.961 . S
H929 C921 0.960 . S
H930 C922 0.930 . S
H931 C923 0.929 . S
H932 C940 0.929 . S
H933 C942 0.930 . S
H934 C944 0.930 . S
H935 C947 0.929 . S
H936 C950 0.930 . S
H937 C952 0.960 . S
H938 C952 0.960 . S
H939 C952 0.960 . S
C940 H932 0.929 . S
C940 C941 1.377 . S
C940 C942 1.384 . S
C941 C940 1.377 . S
C941 C947 1.390 . S
C942 H933 0.930 . S
C942 C940 1.384 . S
C942 C943 1.372 . S
C943 C942 1.372 . S
C943 C944 1.400 . S
C943 C948 1.490 . S
C944 H934 0.930 . S
C944 C943 1.400 . S
C944 C947 1.386 . S
H945 C961 0.930 . S
H946 C962 0.931 . S
C947 H935 0.929 . S
C947 C941 1.390 . S
C947 C944 1.386 . S
C948 C943 1.490 . S
C948 C950 1.395 . S
C948 C951 1.403 . S
H949 C955 0.930 . S
C950 H936 0.930 . S
C950 C948 1.395 . S
C950 C953 1.403 . S
C951 C948 1.403 . S
C951 C952 1.524 . S
C951 C955 1.400 . S
C952 H937 0.960 . S
C952 H938 0.960 . S
C952 H939 0.960 . S
C952 C951 1.524 . S
C953 C950 1.403 . S
C953 C954 1.392 . S
C953 C957 1.495 . S
C954 C953 1.392 . S
C954 C955 1.385 . S
C954 C956 1.478 . S
C955 H949 0.930 . S
C955 C951 1.400 . S
C955 C954 1.385 . S
C956 C954 1.478 . S
C956 C958 1.381 . S
C956 C962 1.383 . S
C957 C953 1.495 . S
C957 H963 0.959 . S
C957 H964 0.961 . S
C957 H965 0.960 . S
C958 C956 1.381 . S
C958 C959 1.394 . S
C958 H966 0.930 . S
C959 C958 1.394 . S
C959 C960 1.383 . S
C959 H967 0.929 . S
C960 C959 1.383 . S
C960 C961 1.377 . S
C961 H945 0.930 . S
C961 C960 1.377 . S
C961 C962 1.379 . S
C962 H946 0.931 . S
C962 C956 1.383 . S
C962 C961 1.379 . S
H963 C957 0.959 . S
H964 C957 0.961 . S
H965 C957 0.960 . S
H966 C958 0.930 . S
H967 C959 0.929 . S
H968 C976 0.929 . S
H969 C978 0.930 . S
H970 C980 0.930 . S
H971 C983 0.929 . S
H972 C986 0.930 . S
H973 C988 0.960 . S
H974 C988 0.960 . S
H975 C988 0.960 . S
C976 H968 0.929 . S
C976 C977 1.377 . S
C976 C978 1.384 . S
C977 C976 1.377 . S
C977 C983 1.390 . S
C978 H969 0.930 . S
C978 C976 1.384 . S
C978 C979 1.372 . S
C979 C978 1.372 . S
C979 C980 1.400 . S
C979 C984 1.490 . S
C980 H970 0.930 . S
C980 C979 1.400 . S
C980 C983 1.386 . S
H981 C997 0.930 . S
H982 C998 0.931 . S
C983 H971 0.929 . S
C983 C977 1.390 . S
C983 C980 1.386 . S
C984 C979 1.490 . S
C984 C986 1.395 . S
C984 C987 1.403 . S
H985 C991 0.930 . S
C986 H972 0.930 . S
C986 C984 1.395 . S
C986 C989 1.403 . S
C987 C984 1.403 . S
C987 C988 1.524 . S
C987 C991 1.400 . S
C988 H973 0.960 . S
C988 H974 0.960 . S
C988 H975 0.960 . S
C988 C987 1.524 . S
C989 C986 1.403 . S
C989 C990 1.392 . S
C989 C993 1.495 . S
C990 C989 1.392 . S
C990 C991 1.385 . S
C990 C992 1.478 . S
C991 H985 0.930 . S
C991 C987 1.400 . S
C991 C990 1.385 . S
C992 C990 1.478 . S
C992 C994 1.381 . S
C992 C998 1.383 . S
C993 C989 1.495 . S
C993 H999 0.959 . S
C993 H1000 0.961 . S
C993 H1001 0.960 . S
C994 C992 1.381 . S
C994 C995 1.394 . S
C994 H1002 0.930 . S
C995 C994 1.394 . S
C995 C996 1.383 . S
C995 H1003 0.929 . S
C996 C995 1.383 . S
C996 C997 1.377 . S
C997 H981 0.930 . S
C997 C996 1.377 . S
C997 C998 1.379 . S
C998 H982 0.931 . S
C998 C992 1.383 . S
C998 C997 1.379 . S
H999 C993 0.959 . S
H1000 C993 0.961 . S
H1001 C993 0.960 . S
H1002 C994 0.930 . S
H1003 C995 0.929 . S
H1004 C1012 0.929 . S
H1005 C1014 0.930 . S
H1006 C1016 0.930 . S
H1007 C1019 0.929 . S
H1008 C1022 0.930 . S
H1009 C1024 0.960 . S
H1010 C1024 0.960 . S
H1011 C1024 0.960 . S
C1012 H1004 0.929 . S
C1012 C1013 1.377 . S
C1012 C1014 1.384 . S
C1013 C1012 1.377 . S
C1013 C1019 1.390 . S
C1014 H1005 0.930 . S
C1014 C1012 1.384 . S
C1014 C1015 1.372 . S
C1015 C1014 1.372 . S
C1015 C1016 1.400 . S
C1015 C1020 1.490 . S
C1016 H1006 0.930 . S
C1016 C1015 1.400 . S
C1016 C1019 1.386 . S
H1017 C1033 0.930 . S
H1018 C1034 0.931 . S
C1019 H1007 0.929 . S
C1019 C1013 1.390 . S
C1019 C1016 1.386 . S
C1020 C1015 1.490 . S
C1020 C1022 1.395 . S
C1020 C1023 1.403 . S
H1021 C1027 0.930 . S
C1022 H1008 0.930 . S
C1022 C1020 1.395 . S
C1022 C1025 1.403 . S
C1023 C1020 1.403 . S
C1023 C1024 1.524 . S
C1023 C1027 1.400 . S
C1024 H1009 0.960 . S
C1024 H1010 0.960 . S
C1024 H1011 0.960 . S
C1024 C1023 1.524 . S
C1025 C1022 1.403 . S
C1025 C1026 1.392 . S
C1025 C1029 1.495 . S
C1026 C1025 1.392 . S
C1026 C1027 1.385 . S
C1026 C1028 1.478 . S
C1027 H1021 0.930 . S
C1027 C1023 1.400 . S
C1027 C1026 1.385 . S
C1028 C1026 1.478 . S
C1028 C1030 1.381 . S
C1028 C1034 1.383 . S
C1029 C1025 1.495 . S
C1029 H1035 0.959 . S
C1029 H1036 0.961 . S
C1029 H1037 0.960 . S
C1030 C1028 1.381 . S
C1030 C1031 1.394 . S
C1030 H1038 0.930 . S
C1031 C1030 1.394 . S
C1031 C1032 1.383 . S
C1031 H1039 0.929 . S
C1032 C1031 1.383 . S
C1032 C1033 1.377 . S
C1033 H1017 0.930 . S
C1033 C1032 1.377 . S
C1033 C1034 1.379 . S
C1034 H1018 0.931 . S
C1034 C1028 1.383 . S
C1034 C1033 1.379 . S
H1035 C1029 0.959 . S
H1036 C1029 0.961 . S
H1037 C1029 0.960 . S
H1038 C1030 0.930 . S
H1039 C1031 0.929 . S
H1040 C1048 0.929 . S
H1041 C1050 0.930 . S
H1042 C1052 0.930 . S
H1043 C1055 0.929 . S
H1044 C1058 0.930 . S
H1045 C1060 0.960 . S
H1046 C1060 0.960 . S
H1047 C1060 0.960 . S
C1048 H1040 0.929 . S
C1048 C1049 1.377 . S
C1048 C1050 1.384 . S
C1049 C1048 1.377 . S
C1049 C1055 1.390 . S
C1050 H1041 0.930 . S
C1050 C1048 1.384 . S
C1050 C1051 1.372 . S
C1051 C1050 1.372 . S
C1051 C1052 1.400 . S
C1051 C1056 1.490 . S
C1052 H1042 0.930 . S
C1052 C1051 1.400 . S
C1052 C1055 1.386 . S
H1053 C1069 0.930 . S
H1054 C1070 0.931 . S
C1055 H1043 0.929 . S
C1055 C1049 1.390 . S
C1055 C1052 1.386 . S
C1056 C1051 1.490 . S
C1056 C1058 1.395 . S
C1056 C1059 1.403 . S
H1057 C1063 0.930 . S
C1058 H1044 0.930 . S
C1058 C1056 1.395 . S
C1058 C1061 1.403 1_455 S
C1059 C1056 1.403 . S
C1059 C1060 1.524 . S
C1059 C1063 1.400 1_455 S
C1060 H1045 0.960 . S
C1060 H1046 0.960 . S
C1060 H1047 0.960 . S
C1060 C1059 1.524 . S
C1061 C1058 1.403 1_655 S
C1061 C1062 1.392 . S
C1061 C1065 1.495 . S
C1062 C1061 1.392 . S
C1062 C1063 1.385 . S
C1062 C1064 1.478 . S
C1063 H1057 0.930 . S
C1063 C1059 1.400 1_655 S
C1063 C1062 1.385 . S
C1064 C1062 1.478 . S
C1064 C1066 1.381 . S
C1064 C1070 1.383 . S
C1065 C1061 1.495 . S
C1065 H1071 0.959 . S
C1065 H1072 0.961 . S
C1065 H1073 0.960 . S
C1066 C1064 1.381 . S
C1066 C1067 1.394 . S
C1066 H1074 0.930 . S
C1067 C1066 1.394 . S
C1067 C1068 1.383 . S
C1067 H1075 0.929 . S
C1068 C1067 1.383 . S
C1068 C1069 1.377 . S
C1069 H1053 0.930 . S
C1069 C1068 1.377 . S
C1069 C1070 1.379 . S
C1070 H1054 0.931 . S
C1070 C1064 1.383 . S
C1070 C1069 1.379 . S
H1071 C1065 0.959 . S
H1072 C1065 0.961 . S
H1073 C1065 0.960 . S
H1074 C1066 0.930 . S
H1075 C1067 0.929 . S
H1076 C1084 0.929 . S
H1077 C1086 0.930 . S
H1078 C1088 0.930 . S
H1079 C1091 0.929 . S
H1080 C1094 0.930 . S
H1081 C1096 0.960 . S
H1082 C1096 0.960 . S
H1083 C1096 0.960 . S
C1084 H1076 0.929 . S
C1084 C1085 1.377 . S
C1084 C1086 1.384 . S
C1085 C1084 1.377 . S
C1085 C1091 1.390 . S
C1086 H1077 0.930 . S
C1086 C1084 1.384 . S
C1086 C1087 1.372 . S
C1087 C1086 1.372 . S
C1087 C1088 1.400 . S
C1087 C1092 1.490 . S
C1088 H1078 0.930 . S
C1088 C1087 1.400 . S
C1088 C1091 1.386 . S
H1089 C1105 0.930 . S
H1090 C1106 0.931 . S
C1091 H1079 0.929 . S
C1091 C1085 1.390 . S
C1091 C1088 1.386 . S
C1092 C1087 1.490 . S
C1092 C1094 1.395 . S
C1092 C1095 1.403 . S
H1093 C1099 0.930 . S
C1094 H1080 0.930 . S
C1094 C1092 1.395 . S
C1094 C1097 1.403 1_655 S
C1095 C1092 1.403 . S
C1095 C1096 1.524 . S
C1095 C1099 1.400 1_655 S
C1096 H1081 0.960 . S
C1096 H1082 0.960 . S
C1096 H1083 0.960 . S
C1096 C1095 1.524 . S
C1097 C1094 1.403 1_455 S
C1097 C1098 1.392 . S
C1097 C1101 1.495 . S
C1098 C1097 1.392 . S
C1098 C1099 1.385 . S
C1098 C1100 1.478 . S
C1099 H1093 0.930 . S
C1099 C1095 1.400 1_455 S
C1099 C1098 1.385 . S
C1100 C1098 1.478 . S
C1100 C1102 1.381 . S
C1100 C1106 1.383 . S
C1101 C1097 1.495 . S
C1101 H1107 0.959 . S
C1101 H1108 0.961 . S
C1101 H1109 0.960 . S
C1102 C1100 1.381 . S
C1102 C1103 1.394 . S
C1102 H1110 0.930 . S
C1103 C1102 1.394 . S
C1103 C1104 1.383 . S
C1103 H1111 0.929 . S
C1104 C1103 1.383 . S
C1104 C1105 1.377 . S
C1105 H1089 0.930 . S
C1105 C1104 1.377 . S
C1105 C1106 1.379 . S
C1106 H1090 0.931 . S
C1106 C1100 1.383 . S
C1106 C1105 1.379 . S
H1107 C1101 0.959 . S
H1108 C1101 0.961 . S
H1109 C1101 0.960 . S
H1110 C1102 0.930 . S
H1111 C1103 0.929 . S
H1112 C1120 0.929 . S
H1113 C1122 0.930 . S
H1114 C1124 0.930 . S
H1115 C1127 0.929 . S
H1116 C1130 0.930 . S
H1117 C1132 0.960 . S
H1118 C1132 0.960 . S
H1119 C1132 0.960 . S
C1120 H1112 0.929 . S
C1120 C1121 1.377 . S
C1120 C1122 1.384 . S
C1121 C1120 1.377 . S
C1121 C1127 1.390 . S
C1122 H1113 0.930 . S
C1122 C1120 1.384 . S
C1122 C1123 1.372 . S
C1123 C1122 1.372 . S
C1123 C1124 1.400 . S
C1123 C1128 1.490 . S
C1124 H1114 0.930 . S
C1124 C1123 1.400 . S
C1124 C1127 1.386 . S
H1125 C1141 0.930 . S
H1126 C1142 0.931 . S
C1127 H1115 0.929 . S
C1127 C1121 1.390 . S
C1127 C1124 1.386 . S
C1128 C1123 1.490 . S
C1128 C1130 1.395 . S
C1128 C1131 1.403 . S
H1129 C1135 0.930 . S
C1130 H1116 0.930 . S
C1130 C1128 1.395 . S
C1130 C1133 1.403 . S
C1131 C1128 1.403 . S
C1131 C1132 1.524 . S
C1131 C1135 1.400 . S
C1132 H1117 0.960 . S
C1132 H1118 0.960 . S
C1132 H1119 0.960 . S
C1132 C1131 1.524 . S
C1133 C1130 1.403 . S
C1133 C1134 1.392 . S
C1133 C1137 1.495 . S
C1134 C1133 1.392 . S
C1134 C1135 1.385 . S
C1134 C1136 1.478 . S
C1135 H1129 0.930 . S
C1135 C1131 1.400 . S
C1135 C1134 1.385 . S
C1136 C1134 1.478 . S
C1136 C1138 1.381 . S
C1136 C1142 1.383 . S
C1137 C1133 1.495 . S
C1137 H1143 0.959 . S
C1137 H1144 0.961 . S
C1137 H1145 0.960 . S
C1138 C1136 1.381 . S
C1138 C1139 1.394 . S
C1138 H1146 0.930 . S
C1139 C1138 1.394 . S
C1139 C1140 1.383 . S
C1139 H1147 0.929 . S
C1140 C1139 1.383 . S
C1140 C1141 1.377 . S
C1141 H1125 0.930 . S
C1141 C1140 1.377 . S
C1141 C1142 1.379 . S
C1142 H1126 0.931 . S
C1142 C1136 1.383 . S
C1142 C1141 1.379 . S
H1143 C1137 0.959 . S
H1144 C1137 0.961 . S
H1145 C1137 0.960 . S
H1146 C1138 0.930 . S
H1147 C1139 0.929 . S
H1148 C1156 0.929 . S
H1149 C1158 0.930 . S
H1150 C1160 0.930 . S
H1151 C1163 0.929 . S
H1152 C1166 0.930 . S
H1153 C1168 0.960 . S
H1154 C1168 0.960 . S
H1155 C1168 0.960 . S
C1156 H1148 0.929 . S
C1156 C1157 1.377 . S
C1156 C1158 1.384 . S
C1157 C1156 1.377 . S
C1157 C1163 1.390 . S
C1158 H1149 0.930 . S
C1158 C1156 1.384 . S
C1158 C1159 1.372 . S
C1159 C1158 1.372 . S
C1159 C1160 1.400 . S
C1159 C1164 1.490 . S
C1160 H1150 0.930 . S
C1160 C1159 1.400 . S
C1160 C1163 1.386 . S
H1161 C1177 0.930 . S
H1162 C1178 0.931 . S
C1163 H1151 0.929 . S
C1163 C1157 1.390 . S
C1163 C1160 1.386 . S
C1164 C1159 1.490 . S
C1164 C1166 1.395 . S
C1164 C1167 1.403 . S
H1165 C1171 0.930 . S
C1166 H1152 0.930 . S
C1166 C1164 1.395 . S
C1166 C1169 1.403 . S
C1167 C1164 1.403 . S
C1167 C1168 1.524 . S
C1167 C1171 1.400 . S
C1168 H1153 0.960 . S
C1168 H1154 0.960 . S
C1168 H1155 0.960 . S
C1168 C1167 1.524 . S
C1169 C1166 1.403 . S
C1169 C1170 1.392 . S
C1169 C1173 1.495 . S
C1170 C1169 1.392 . S
C1170 C1171 1.385 . S
C1170 C1172 1.478 . S
C1171 H1165 0.930 . S
C1171 C1167 1.400 . S
C1171 C1170 1.385 . S
C1172 C1170 1.478 . S
C1172 C1174 1.381 . S
C1172 C1178 1.383 . S
C1173 C1169 1.495 . S
C1173 H1179 0.959 . S
C1173 H1180 0.961 . S
C1173 H1181 0.960 . S
C1174 C1172 1.381 . S
C1174 C1175 1.394 . S
C1174 H1182 0.930 . S
C1175 C1174 1.394 . S
C1175 C1176 1.383 . S
C1175 H1183 0.929 . S
C1176 C1175 1.383 . S
C1176 C1177 1.377 . S
C1177 H1161 0.930 . S
C1177 C1176 1.377 . S
C1177 C1178 1.379 . S
C1178 H1162 0.931 . S
C1178 C1172 1.383 . S
C1178 C1177 1.379 . S
H1179 C1173 0.959 . S
H1180 C1173 0.961 . S
H1181 C1173 0.960 . S
H1182 C1174 0.930 . S
H1183 C1175 0.929 . S
C329 C5 1.692 . S
C348 C295 1.687 . S
C365 C255 1.692 . S
C384 C45 1.687 . S
C401 C205 1.692 . S
C420 C95 1.687 . S
C437 C165 1.691 . S
C456 C135 1.684 . S
C473 C98 1.528 . S
C492 C18 1.526 . S
C509 C58 1.504 . S
C528 C138 1.501 . S
C545 C128 1.506 . S
C564 C48 1.544 . S
C581 C88 1.498 . S
C600 C8 1.503 . S
C617 C178 1.443 1_556 S
C636 C258 1.457 1_556 S
C653 C218 1.436 1_556 S
C672 C298 1.456 1_556 S
C689 C288 1.441 1_554 S
C708 C208 1.448 1_554 S
C725 C248 1.441 1_554 S
C744 C168 1.444 . S
C761 C19 1.997 . S
C780 C9 1.987 . S
C797 C59 1.999 . S
C816 C49 2.003 . S
C833 C99 1.998 . S
C852 C89 1.994 . S
C869 C129 2.001 . S
C888 C139 2.012 . S
C905 C169 2.002 . S
C924 C179 2.013 . S
C941 C219 2.002 . S
C960 C209 1.987 . S
C977 C249 2.000 . S
C996 C259 2.009 . S
C1013 C289 1.998 . S
C1032 C299 1.998 . S
C1049 C15 2.314 . S
C1068 C55 2.313 . S
C1085 C125 2.318 . S
C1104 C85 2.314 . S
C1121 C175 2.318 . S
C1140 C215 2.301 . S
C1157 C285 2.318 . S
C1176 C245 2.307 . S
