# Generated by pormake.
# Topology unh, (4)-cn, num edge types: 1
# Building blocks:
#     Node 0, Type 0, BuildingBlock: KUFVIS_clean_sbu_0, # of connection points: 4
#     Node 1, Type 0, BuildingBlock: KUFVIS_clean_sbu_0, # of connection points: 4
#     Node 2, Type 0, BuildingBlock: KUFVIS_clean_sbu_0, # of connection points: 4
#     Node 3, Type 0, BuildingBlock: KUFVIS_clean_sbu_0, # of connection points: 4
#     Node 4, Type 0, BuildingBlock: KUFVIS_clean_sbu_0, # of connection points: 4
#     Node 5, Type 0, BuildingBlock: KUFVIS_clean_sbu_0, # of connection points: 4
#     Edge 6, Type (0, 0), BuildingBlock: ZUJKAS_clean_linker_0, # of connection points: 2
#     Edge 7, Type (0, 0), BuildingBlock: ZUJKAS_clean_linker_0, # of connection points: 2
#     Edge 8, Type (0, 0), BuildingBlock: ZUJKAS_clean_linker_0, # of connection points: 2
#     Edge 9, Type (0, 0), BuildingBlock: ZUJKAS_clean_linker_0, # of connection points: 2
#     Edge 10, Type (0, 0), BuildingBlock: ZUJKAS_clean_linker_0, # of connection points: 2
#     Edge 11, Type (0, 0), BuildingBlock: ZUJKAS_clean_linker_0, # of connection points: 2
#     Edge 12, Type (0, 0), BuildingBlock: ZUJKAS_clean_linker_0, # of connection points: 2
#     Edge 13, Type (0, 0), BuildingBlock: ZUJKAS_clean_linker_0, # of connection points: 2
#     Edge 14, Type (0, 0), BuildingBlock: ZUJKAS_clean_linker_0, # of connection points: 2
#     Edge 15, Type (0, 0), BuildingBlock: ZUJKAS_clean_linker_0, # of connection points: 2
#     Edge 16, Type (0, 0), BuildingBlock: ZUJKAS_clean_linker_0, # of connection points: 2
#     Edge 17, Type (0, 0), BuildingBlock: ZUJKAS_clean_linker_0, # of connection points: 2
# Relax obj value: 0.110
# Max RMSD: 0.222
# Mean RMSD: 0.222
data_MOF--net-unh--node1-KUFVIS_clean_sbu_0--edge1-ZUJKAS_clean_linker_0
_symmetry_space_group_name_H-M    P1
_symmetry_Int_Tables_number       1
_symmetry_cell_setting            triclinic
loop_
_symmetry_equiv_pos_as_xyz
'x, y, z'
_cell_length_a     54.206272
_cell_length_b     54.196205
_cell_length_c     28.768262
_cell_angle_alpha  89.988018
_cell_angle_beta   89.997163
_cell_angle_gamma 120.00156
loop_
_atom_site_label
_atom_site_type_symbol
_atom_site_fract_x
_atom_site_fract_y
_atom_site_fract_z
_atom_type_partial_charge
Mn0 Mn 0.13669 0.57574 0.06333 0.0
Mn1 Mn 0.11004 0.61961 0.04768 0.0
C2 C 0.16067 0.61521 0.01704 0.0
C3 C 0.16314 0.56127 0.10704 0.0
C4 C 0.08669 0.56237 -0.00042 0.0
O5 O 0.10745 0.56439 0.11436 0.0
O6 O 0.09374 0.59711 0.10583 0.0
C7 C 0.13629 0.6579 0.1283 0.0
N8 N 0.13219 0.65417 0.08154 0.0
C9 C 0.16165 0.7045 0.06773 0.0
C10 C 0.16602 0.7089 0.11577 0.0
C11 C 0.15331 0.68549 0.14616 0.0
C12 C 0.14425 0.67655 0.05198 0.0
H13 H 0.12669 0.63994 0.15175 0.0
C14 C 0.09325 0.57611 0.12727 0.0
O15 O 0.14323 0.54378 0.07911 0.0
O16 O 0.16744 0.58703 0.10987 0.0
N17 N 0.12424 0.64276 0.9931 0.0
C18 C 0.11937 0.63468 0.94763 0.0
C19 C 0.13149 0.65546 0.91266 0.0
C20 C 0.14832 0.68432 0.92477 0.0
C21 C 0.15276 0.69215 0.97179 0.0
C22 C 0.13995 0.67052 0.00513 0.0
H23 H 0.10657 0.61252 0.93809 0.0
O24 O 0.16539 0.59406 0.0133 0.0
O25 O 0.14246 0.61291 0.04869 0.0
O26 O 0.10508 0.55646 0.01534 0.0
O27 O 0.08615 0.58496 0.01051 0.0
C28 C 0.16995 0.72049 0.98688 0.0
C29 C 0.17439 0.72666 0.03481 0.0
H30 H 0.17932 0.73012 0.12966 0.0
H31 H 0.15671 0.6887 0.18326 0.0
H32 H 0.128 0.64925 0.87645 0.0
H33 H 0.1579 0.70025 0.8977 0.0
H34 H 0.1802 0.73765 0.9619 0.0
H35 H 0.18798 0.74848 0.04596 0.0
Mn36 Mn 0.55044 0.13662 0.23192 0.0
Mn37 Mn 0.47966 0.10845 0.21926 0.0
C38 C 0.53353 0.15949 0.18568 0.0
C39 C 0.59133 0.16399 0.27521 0.0
C40 C 0.51396 0.08496 0.17247 0.0
O41 O 0.53339 0.10721 0.28314 0.0
O42 O 0.48712 0.09537 0.27977 0.0
C43 C 0.46778 0.13781 0.29534 0.0
N44 N 0.46684 0.13144 0.24935 0.0
C45 C 0.44439 0.15887 0.23058 0.0
C46 C 0.44484 0.16547 0.27781 0.0
C47 C 0.45666 0.15494 0.3103 0.0
C48 C 0.45557 0.1415 0.21777 0.0
H49 H 0.47706 0.12996 0.32034 0.0
C50 C 0.50803 0.09449 0.29895 0.0
O51 O 0.58944 0.14433 0.24718 0.0
O52 O 0.56942 0.16755 0.27822 0.0
N53 N 0.4698 0.11982 0.16245 0.0
C54 C 0.47285 0.11319 0.11791 0.0
C55 C 0.46298 0.1229 0.08103 0.0
C56 C 0.45002 0.13923 0.09027 0.0
C57 C 0.44713 0.14583 0.13635 0.0
C58 C 0.45706 0.13527 0.17174 0.0
H59 H 0.48278 0.10064 0.11052 0.0
O60 O 0.55969 0.16511 0.18157 0.0
O61 O 0.51838 0.14128 0.21779 0.0
O62 O 0.53847 0.10501 0.18437 0.0
O63 O 0.49072 0.08344 0.18578 0.0
C64 C 0.43526 0.16288 0.14851 0.0
C65 C 0.43393 0.16943 0.19558 0.0
H66 H 0.43649 0.17887 0.28945 0.0
H67 H 0.45729 0.16013 0.34677 0.0
H68 H 0.46539 0.11782 0.04554 0.0
H69 H 0.44248 0.14671 0.06168 0.0
H70 H 0.42749 0.17141 0.12188 0.0
H71 H 0.42517 0.18293 0.20444 0.0
Mn72 Mn 0.41079 0.55319 0.40577 0.0
Mn73 Mn 0.36735 0.48204 0.39771 0.0
C74 C 0.37291 0.53521 0.35557 0.0
C75 C 0.42446 0.59606 0.44305 0.0
C76 C 0.42473 0.51363 0.35 0.0
O77 O 0.42091 0.53828 0.46248 0.0
O78 O 0.39052 0.49124 0.45573 0.0
C79 C 0.33032 0.47519 0.47807 0.0
N80 N 0.33334 0.47194 0.43185 0.0
C81 C 0.28284 0.45028 0.41939 0.0
C82 C 0.27916 0.45323 0.46691 0.0
C83 C 0.30303 0.46582 0.49634 0.0
C84 C 0.31056 0.46009 0.40315 0.0
H85 H 0.34861 0.48488 0.50082 0.0
C86 C 0.41031 0.51283 0.47709 0.0
O87 O 0.44257 0.59221 0.41909 0.0
O88 O 0.39844 0.57502 0.44517 0.0
N89 N 0.34338 0.46961 0.34391 0.0
C90 C 0.35062 0.4687 0.29883 0.0
C91 C 0.32921 0.45706 0.26479 0.0
C92 C 0.30058 0.44606 0.27754 0.0
C93 C 0.2936 0.44671 0.32429 0.0
C94 C 0.31585 0.45859 0.35667 0.0
H95 H 0.37257 0.47699 0.28886 0.0
O96 O 0.39409 0.56094 0.35031 0.0
O97 O 0.37398 0.521 0.39132 0.0
O98 O 0.43107 0.53835 0.36441 0.0
O99 O 0.40154 0.49097 0.36057 0.0
C100 C 0.26546 0.43614 0.34002 0.0
C101 C 0.2601 0.4381 0.38746 0.0
H102 H 0.25813 0.44601 0.48114 0.0
H103 H 0.30038 0.46827 0.53303 0.0
H104 H 0.33475 0.45654 0.22881 0.0
H105 H 0.28414 0.43715 0.25116 0.0
H106 H 0.24777 0.42655 0.31592 0.0
H107 H 0.2384 0.43019 0.39903 0.0
Mn108 Mn 0.85492 0.4172 0.56569 0.0
Mn109 Mn 0.87742 0.36998 0.54924 0.0
C110 C 0.83129 0.38035 0.51433 0.0
C111 C 0.82847 0.43213 0.60841 0.0
C112 C 0.90608 0.42882 0.50569 0.0
O113 O 0.88124 0.42446 0.61995 0.0
O114 O 0.89327 0.39071 0.60896 0.0
C115 C 0.84625 0.33092 0.627 0.0
N116 N 0.85198 0.33536 0.58069 0.0
C117 C 0.81892 0.28613 0.56352 0.0
C118 C 0.81282 0.281 0.61107 0.0
C119 C 0.82652 0.3035 0.64293 0.0
C120 C 0.83889 0.31386 0.54973 0.0
H121 H 0.85658 0.3482 0.65158 0.0
C122 C 0.89415 0.41132 0.63222 0.0
O123 O 0.85033 0.45012 0.5841 0.0
O124 O 0.82226 0.4057 0.60808 0.0
N125 N 0.86366 0.34824 0.4932 0.0
C126 C 0.87141 0.35689 0.44843 0.0
C127 C 0.8593 0.337 0.41219 0.0
C128 C 0.83953 0.30842 0.42236 0.0
C129 C 0.83228 0.29992 0.46874 0.0
C130 C 0.84526 0.32063 0.50343 0.0
H131 H 0.88652 0.37884 0.44037 0.0
O132 O 0.82854 0.40277 0.5118 0.0
O133 O 0.8472 0.37985 0.54778 0.0
O134 O 0.88902 0.43644 0.52195 0.0
O135 O 0.90407 0.40475 0.51455 0.0
C136 C 0.81238 0.2718 0.48187 0.0
C137 C 0.80566 0.26492 0.52921 0.0
H138 H 0.79751 0.25991 0.62348 0.0
H139 H 0.82181 0.29974 0.67966 0.0
H140 H 0.86506 0.34372 0.37649 0.0
H141 H 0.83 0.29321 0.39428 0.0
H142 H 0.80192 0.25535 0.4558 0.0
H143 H 0.7901 0.24329 0.53883 0.0
Mn144 Mn 0.43836 0.85821 0.73118 0.0
Mn145 Mn 0.50909 0.88648 0.71678 0.0
C146 C 0.45481 0.83651 0.6816 0.0
C147 C 0.39747 0.83004 0.77397 0.0
C148 C 0.47497 0.91115 0.67413 0.0
O149 O 0.45575 0.88578 0.78479 0.0
O150 O 0.50216 0.89892 0.77821 0.0
C151 C 0.5212 0.85596 0.79056 0.0
N152 N 0.52172 0.86279 0.74488 0.0
C153 C 0.54328 0.83494 0.72336 0.0
C154 C 0.54315 0.82775 0.77023 0.0
C155 C 0.53202 0.83828 0.80395 0.0
C156 C 0.53244 0.85284 0.71215 0.0
H157 H 0.51252 0.8639 0.81652 0.0
C158 C 0.48134 0.89881 0.79962 0.0
O159 O 0.39974 0.85081 0.74837 0.0
O160 O 0.41898 0.82576 0.77479 0.0
N161 N 0.51847 0.87581 0.65887 0.0
C162 C 0.51525 0.88316 0.61492 0.0
C163 C 0.5245 0.87362 0.57697 0.0
C164 C 0.53702 0.8567 0.58457 0.0
C165 C 0.54011 0.8494 0.63009 0.0
C166 C 0.53079 0.8598 0.66659 0.0
H167 H 0.5056 0.89612 0.60882 0.0
O168 O 0.42874 0.83131 0.67836 0.0
O169 O 0.47019 0.85373 0.71469 0.0
O170 O 0.45047 0.89115 0.68606 0.0
O171 O 0.49829 0.91233 0.68571 0.0
C172 C 0.55158 0.83176 0.64063 0.0
C173 C 0.55314 0.82452 0.68723 0.0
H174 H 0.55127 0.81394 0.78066 0.0
H175 H 0.5317 0.8327 0.84015 0.0
H176 H 0.52194 0.87925 0.54192 0.0
H177 H 0.54404 0.84932 0.55516 0.0
H178 H 0.55887 0.82332 0.61312 0.0
H179 H 0.56161 0.81061 0.69484 0.0
Mn180 Mn 0.57974 0.44102 0.90747 0.0
Mn181 Mn 0.62459 0.51177 0.89684 0.0
C182 C 0.61905 0.45716 0.86069 0.0
C183 C 0.5644 0.39899 0.94847 0.0
C184 C 0.56751 0.48015 0.84775 0.0
O185 O 0.56895 0.45782 0.96078 0.0
O186 O 0.60186 0.50435 0.95513 0.0
C187 C 0.66223 0.52061 0.97719 0.0
N188 N 0.65883 0.52253 0.93068 0.0
C189 C 0.70913 0.54295 0.91718 0.0
C190 C 0.71319 0.5414 0.965 0.0
C191 C 0.68963 0.53014 0.99511 0.0
C192 C 0.68135 0.53337 0.90139 0.0
H193 H 0.64415 0.51182 0.00041 0.0
C194 C 0.58076 0.48335 0.97556 0.0
O195 O 0.54714 0.40259 0.92173 0.0
O196 O 0.59051 0.41978 0.95121 0.0
N197 N 0.64799 0.52198 0.84241 0.0
C198 C 0.64021 0.52033 0.79696 0.0
C199 C 0.66116 0.52974 0.76218 0.0
C200 C 0.68988 0.54091 0.77445 0.0
C201 C 0.69741 0.5427 0.82147 0.0
C202 C 0.67563 0.53321 0.85465 0.0
H203 H 0.61816 0.51165 0.78728 0.0
O204 O 0.59757 0.43157 0.85546 0.0
O205 O 0.61714 0.47236 0.89408 0.0
O206 O 0.56097 0.45531 0.86179 0.0
O207 O 0.59034 0.5027 0.8598 0.0
C208 C 0.72559 0.5529 0.83665 0.0
C209 C 0.73144 0.55302 0.88446 0.0
H210 H 0.73427 0.54851 0.97891 0.0
H211 H 0.69258 0.52872 0.03201 0.0
H212 H 0.65517 0.52825 0.72596 0.0
H213 H 0.70594 0.54783 0.74749 0.0
H214 H 0.74286 0.5603 0.81178 0.0
H215 H 0.75313 0.56053 0.89565 0.0
H216 H 0.04303 0.56619 0.95891 0.0
H217 H 0.00836 0.53357 0.90267 0.0
H218 H 0.04655 0.48039 0.9086 0.0
H219 H 0.08152 0.51292 0.96475 0.0
H220 H 0.03838 0.4948 0.81799 0.0
H221 H 0.9399 0.45302 0.92339 0.0
H222 H 0.9609 0.49122 0.92297 0.0
H223 H 0.97507 0.47071 0.94889 0.0
C224 C 0.04399 0.54746 0.94863 0.0
C225 C 0.06509 0.5422 0.96649 0.0
C226 C 0.02401 0.52874 0.9167 0.0
C227 C 0.02466 0.50438 0.90215 0.0
C228 C 0.0456 0.49899 0.91979 0.0
H229 H 0.92652 0.39062 0.67124 0.0
H230 H 0.95741 0.40912 0.73962 0.0
C231 C 0.06557 0.51764 0.95184 0.0
C232 C 0.00452 0.48557 0.8663 0.0
H233 H 0.93371 0.4458 0.84111 0.0
C234 C 0.01549 0.48366 0.82315 0.0
C235 C 0.97474 0.47107 0.87342 0.0
C236 C 0.96191 0.47133 0.91982 0.0
C237 C -0.00264 0.4689 0.78591 0.0
C238 C 0.96754 0.45533 0.7925 0.0
C239 C 0.9566 0.45627 0.83625 0.0
C240 C 0.94746 0.44244 0.75331 0.0
C241 C 0.01025 0.46924 0.73923 0.0
C242 C 0.93102 0.45449 0.73945 0.0
C243 C 0.91331 0.44396 0.70074 0.0
C244 C 0.91164 0.42107 0.67503 0.0
C245 C 0.92748 0.40841 0.68995 0.0
C246 C 0.94522 0.419 0.72889 0.0
H247 H 0.0334 0.48502 0.73795 0.0
H248 H 0.00744 0.44786 0.73214 0.0
H249 H -0.00059 0.47425 0.71111 0.0
H250 H 0.93242 0.47255 0.75799 0.0
H251 H 0.90132 0.45417 0.69057 0.0
H252 H 0.44327 0.90449 0.85438 0.0
H253 H 0.45318 0.93364 0.92383 0.0
H254 H 0.5421 0.95877 0.91484 0.0
H255 H 0.53258 0.92989 0.84461 0.0
H256 H 0.47811 0.93273 0.00993 0.0
H257 H 0.54202 0.03476 0.91404 0.0
H258 H 0.51978 0.00142 0.88466 0.0
H259 H 0.5535 0.00901 0.9084 0.0
C260 C 0.46498 0.9161 0.86707 0.0
C261 C 0.48721 0.9151 0.84347 0.0
C262 C 0.47054 0.93267 0.90693 0.0
C263 C 0.49839 0.9486 0.92398 0.0
C264 C 0.52053 0.94695 0.90165 0.0
H265 H 0.55813 0.07903 0.13968 0.0
H266 H 0.55588 0.0441 0.08378 0.0
C267 C 0.51501 0.93038 0.86162 0.0
C268 C 0.50409 0.96769 0.96412 0.0
H269 H 0.53524 0.03786 0.99397 0.0
C270 C 0.4908 0.95572 0.00665 0.0
C271 C 0.52067 -0.00238 0.95956 0.0
C272 C 0.53469 0.0116 0.91418 0.0
C273 C 0.49327 0.97299 0.0447 0.0
C274 C 0.50906 0.00293 0.03963 0.0
C275 C 0.52313 0.01486 -0.0024 0.0
C276 C 0.51005 0.02239 0.07646 0.0
C277 C 0.47889 0.95908 0.08985 0.0
C278 C 0.48498 0.02172 0.09076 0.0
C279 C 0.48614 0.04167 0.12269 0.0
C280 C 0.51245 0.06281 0.1406 0.0
C281 C 0.53749 0.06312 0.12658 0.0
C282 C 0.53629 0.04314 0.0947 0.0
H283 H 0.47504 0.93696 0.09238 0.0
H284 H 0.49186 0.97148 0.12015 0.0
H285 H 0.45796 0.95806 0.0918 0.0
H286 H 0.46458 0.00625 0.07625 0.0
H287 H 0.46646 0.04088 0.13249 0.0
H288 H 0.47572 0.55667 0.31749 0.0
H289 H 0.5058 0.55365 0.25719 0.0
H290 H 0.44921 0.46289 0.24788 0.0
H291 H 0.41867 0.46559 0.30768 0.0
H292 H 0.53396 0.52126 0.24985 0.0
H293 H 0.45054 0.49243 0.11521 0.0
H294 H 0.44896 0.50651 0.17129 0.0
H295 H 0.43881 0.46961 0.16532 0.0
C296 C 0.4697 0.53598 0.30294 0.0
C297 C 0.44453 0.5114 0.31709 0.0
C298 C 0.48699 0.53434 0.26856 0.0
C299 C 0.4794 0.50816 0.24765 0.0
C300 C 0.45509 0.48339 0.26312 0.0
H301 H 0.53764 0.44404 0.02967 0.0
H302 H 0.51593 0.45253 0.09718 0.0
C303 C 0.43774 0.48497 0.29744 0.0
C304 C 0.49618 0.50687 0.20825 0.0
H305 H 0.49092 0.48887 0.09366 0.0
C306 C 0.5247 0.51438 0.21558 0.0
C307 C 0.48402 0.49823 0.16356 0.0
C308 C 0.45399 0.49149 0.15309 0.0
C309 C 0.54108 0.51234 0.17957 0.0
C310 C 0.52858 0.50283 0.13534 0.0
C311 C 0.50032 0.49603 0.1278 0.0
C312 C 0.54375 0.49823 0.09676 0.0
C313 C 0.57127 0.51943 0.18926 0.0
C314 C 0.56677 0.52122 0.07441 0.0
C315 C 0.57933 0.5165 0.03545 0.0
C316 C 0.56889 0.48871 0.01825 0.0
C317 C 0.54619 0.46576 0.04162 0.0
C318 C 0.53373 0.47051 0.08034 0.0
H319 H 0.57633 0.52234 0.22698 0.0
H320 H 0.57496 0.50234 0.17584 0.0
H321 H 0.58622 0.53948 0.17102 0.0
H322 H 0.57453 0.54282 0.08638 0.0
H323 H 0.59678 0.53464 0.01834 0.0
H324 H 0.91614 0.48075 0.47375 0.0
H325 H 0.94899 0.50959 0.41208 0.0
H326 H 0.9789 0.4496 0.40045 0.0
H327 H 0.94603 0.4204 0.4616 0.0
H328 H 0.0099 0.53473 0.40181 0.0
H329 H 0.9484 0.4519 0.26936 0.0
H330 H 0.93429 0.45193 0.3262 0.0
H331 H 0.95885 0.43907 0.31885 0.0
C332 C 0.92987 0.47377 0.45845 0.0
C333 C 0.92816 0.44802 0.4723 0.0
C334 C 0.94864 0.49033 0.42326 0.0
C335 C 0.9659 0.48139 0.40132 0.0
C336 C 0.96531 0.45652 0.41653 0.0
H337 H 0.08488 0.53052 0.17961 0.0
H338 H 0.05413 0.5103 0.2471 0.0
C339 C 0.94657 0.43994 0.45162 0.0
C340 C 0.98363 0.49726 0.36106 0.0
H341 H 0.99354 0.48997 0.24595 0.0
C342 C 0.00625 0.52514 0.36759 0.0
C343 C 0.97849 0.48466 0.3165 0.0
C344 C 0.95353 0.45535 0.30703 0.0
C345 C 0.02473 0.54034 0.33087 0.0
C346 C 0.02012 0.5273 0.28675 0.0
C347 C -0.00299 0.49977 0.28 0.0
C348 C 0.03985 0.54108 0.24753 0.0
C349 C 0.0496 0.56975 0.33974 0.0
C350 C 0.04194 0.56514 0.22552 0.0
C351 C 0.05952 0.57683 0.18662 0.0
C352 C 0.07517 0.56452 0.16917 0.0
C353 C 0.07315 0.54058 0.19191 0.0
C354 C 0.0556 0.52895 0.23056 0.0
H355 H 0.05269 0.575 0.37739 0.0
H356 H 0.0695 0.57165 0.32542 0.0
H357 H 0.04584 0.58572 0.32187 0.0
H358 H 0.0296 0.57452 0.23788 0.0
H359 H 0.06059 0.59528 0.17002 0.0
H360 H 0.47457 0.09109 0.37241 0.0
H361 H 0.46904 0.06622 0.44627 0.0
H362 H 0.5225 0.03431 0.39412 0.0
H363 H 0.52966 0.06075 0.32203 0.0
H364 H 0.44697 0.01476 0.47026 0.0
H365 H 0.56052 0.0635 0.514 0.0
H366 H 0.54837 0.07652 0.4667 0.0
H367 H 0.55509 0.0474 0.45787 0.0
C368 C 0.48523 0.07887 0.37706 0.0
C369 C 0.50282 0.07804 0.34202 0.0
C370 C 0.48211 0.06471 0.41919 0.0
C371 C 0.49611 0.0491 0.42644 0.0
C372 C 0.51256 0.04725 0.39035 0.0
H373 H 0.44386 0.90345 0.59661 0.0
H374 H 0.44821 0.93975 0.54176 0.0
C375 C 0.51636 0.06205 0.34894 0.0
C376 C 0.49269 0.03368 0.47074 0.0
H377 H 0.52961 0.01683 0.54798 0.0
C378 C 0.4651 0.01564 0.48781 0.0
C379 C 0.5163 0.03551 0.49495 0.0
C380 C 0.54669 0.05709 0.48267 0.0
C381 C 0.4604 -0.00199 0.52641 0.0
C382 C 0.4838 -0.00272 0.5469 0.0
C383 C 0.5115 0.01673 0.53177 0.0
C384 C 0.48008 0.97544 0.58173 0.0
C385 C 0.43039 0.98053 0.54465 0.0
C386 C 0.49744 0.98311 0.62155 0.0
C387 C 0.49587 0.96219 0.65178 0.0
C388 C 0.47639 0.93336 0.64329 0.0
C389 C 0.45868 0.92566 0.60414 0.0
C390 C 0.46093 0.94646 0.57312 0.0
H391 H 0.4183 0.9919 0.53948 0.0
H392 H 0.41913 0.96025 0.52497 0.0
H393 H 0.43004 0.97567 0.58221 0.0
H394 H 0.51252 0.00527 0.6289 0.0
H395 H 0.50971 0.96849 0.6819 0.0
H396 H 0.51847 0.43737 0.80911 0.0
H397 H 0.48876 0.44182 0.74965 0.0
H398 H 0.54261 0.53319 0.75165 0.0
H399 H 0.57277 0.52908 0.81054 0.0
H400 H 0.45854 0.47194 0.74826 0.0
H401 H 0.54418 0.51173 0.61522 0.0
H402 H 0.54608 0.49549 0.66886 0.0
H403 H 0.55426 0.53199 0.66815 0.0
C404 C 0.52399 0.45846 0.79713 0.0
C405 C 0.54824 0.48286 0.8143 0.0
C406 C 0.50692 0.46092 0.76321 0.0
C407 C 0.51381 0.48777 0.74582 0.0
C408 C 0.5373 0.51223 0.76407 0.0
H409 H 0.45142 0.55315 0.53305 0.0
H410 H 0.47394 0.54556 0.60052 0.0
C411 C 0.55444 0.50982 0.79787 0.0
C412 C 0.49701 0.49019 0.7075 0.0
H413 H 0.50254 0.51341 0.59576 0.0
C414 C 0.46805 0.48086 0.7148 0.0
C415 C 0.50952 0.50162 0.66387 0.0
C416 C 0.54015 0.51054 0.65325 0.0
C417 C 0.45143 0.48351 0.67986 0.0
C418 C 0.46415 0.49549 0.63663 0.0
C419 C 0.49297 0.5044 0.62916 0.0
C420 C 0.44828 0.49962 0.59862 0.0
C421 C 0.42065 0.47418 0.68969 0.0
C422 C 0.42618 0.4762 0.57551 0.0
C423 C 0.4132 0.48041 0.53667 0.0
C424 C 0.42228 0.50812 0.52024 0.0
C425 C 0.44394 0.5315 0.54445 0.0
C426 C 0.45685 0.52725 0.58312 0.0
H427 H 0.41564 0.4706 0.72738 0.0
H428 H 0.41536 0.49032 0.67691 0.0
H429 H 0.4068 0.45392 0.67109 0.0
H430 H 0.41959 0.45469 0.58664 0.0
H431 H 0.39659 0.46194 0.5189 0.0
H432 H 0.1986 0.58921 0.17931 0.0
H433 H 0.23092 0.57702 0.2189 0.0
H434 H 0.20114 0.50233 0.13266 0.0
H435 H 0.16798 0.51394 0.09381 0.0
H436 H 0.20898 0.49165 0.2224 0.0
H437 H 0.30384 0.58967 0.15943 0.0
H438 H 0.28015 0.59747 0.19135 0.0
H439 H 0.26853 0.57802 0.1375 0.0
C440 C 0.1988 0.5701 0.16896 0.0
C441 C 0.18104 0.55269 0.13314 0.0
C442 C 0.21737 0.56324 0.19143 0.0
C443 C 0.21893 0.53919 0.17784 0.0
C444 C 0.20041 0.52112 0.14336 0.0
H445 H 0.37003 0.53407 0.26189 0.0
H446 H 0.32999 0.52824 0.21427 0.0
C447 C 0.18152 0.52779 0.12122 0.0
C448 C 0.24049 0.53348 0.19888 0.0
H449 H 0.31162 0.56466 0.22081 0.0
C450 C 0.23147 0.50746 0.22176 0.0
C451 C 0.26988 0.55381 0.19683 0.0
C452 C 0.28122 0.58116 0.1695 0.0
C453 C 0.25104 0.50179 0.24445 0.0
C454 C 0.28018 0.52297 0.24514 0.0
C455 C 0.28924 0.54849 0.22067 0.0
C456 C 0.3017 0.52009 0.27266 0.0
C457 C 0.24051 0.47308 0.26674 0.0
C458 C 0.29883 0.51666 0.32114 0.0
C459 C 0.32154 0.51957 0.34817 0.0
C460 C 0.34739 0.52597 0.32707 0.0
C461 C 0.35002 0.52857 0.27862 0.0
C462 C 0.32722 0.52528 0.25154 0.0
H463 H 0.2196 0.45682 0.25231 0.0
H464 H 0.25608 0.46573 0.26144 0.0
H465 H 0.23781 0.47468 0.30464 0.0
H466 H 0.27975 0.51359 0.33841 0.0
H467 H 0.31949 0.51848 0.38569 0.0
H468 H 0.64445 0.17124 0.2612 0.0
H469 H 0.68861 0.2051 0.30076 0.0
H470 H 0.6413 0.23125 0.38871 0.0
H471 H 0.59739 0.19826 0.34839 0.0
H472 H 0.68576 0.27569 0.34951 0.0
H473 H 0.72092 0.20459 0.42719 0.0
H474 H 0.71494 0.20023 0.36561 0.0
H475 H 0.68553 0.19135 0.40413 0.0
C476 C 0.64347 0.18397 0.28939 0.0
C477 C 0.61756 0.18226 0.30161 0.0
C478 C 0.66868 0.20315 0.31216 0.0
C479 C 0.66819 0.22046 0.34802 0.0
C480 C 0.64214 0.21807 0.36114 0.0
H481 H 0.79275 0.32869 0.54802 0.0
H482 H 0.75533 0.2887 0.50414 0.0
C483 C 0.61708 0.19924 0.33806 0.0
C484 C 0.69491 0.2428 0.36951 0.0
H485 H 0.75335 0.25437 0.43186 0.0
C486 C 0.70054 0.27101 0.36752 0.0
C487 C 0.71407 0.23659 0.3931 0.0
C488 C 0.7085 0.20652 0.3981 0.0
C489 C 0.72449 0.29318 0.38915 0.0
C490 C 0.74395 0.28711 0.41207 0.0
C491 C 0.73856 0.25895 0.4137 0.0
C492 C 0.76888 0.30953 0.43722 0.0
C493 C 0.72808 0.32267 0.38872 0.0
C494 C 0.7893 0.33409 0.41393 0.0
C495 C 0.81037 0.35698 0.43901 0.0
C496 C 0.81196 0.35509 0.48738 0.0
C497 C 0.79227 0.33016 0.5105 0.0
C498 C 0.77094 0.30742 0.48552 0.0
H499 H 0.70783 0.32216 0.3802 0.0
H500 H 0.73573 0.33332 0.4229 0.0
H501 H 0.744 0.33577 0.3619 0.0
H502 H 0.78834 0.33592 0.37658 0.0
H503 H 0.82521 0.37627 0.42079 0.0
H504 H 0.47584 0.8049 0.71836 0.0
H505 H 0.48279 0.76892 0.6786 0.0
H506 H 0.45406 0.78752 0.55025 0.0
H507 H 0.44895 0.82474 0.58956 0.0
H508 H 0.44183 0.72293 0.64447 0.0
H509 H 0.51713 0.77757 0.50072 0.0
H510 H 0.5134 0.79657 0.54921 0.0
H511 H 0.48931 0.7863 0.50054 0.0
C512 C 0.47239 0.80217 0.68118 0.0
C513 C 0.46301 0.81822 0.65642 0.0
C514 C 0.47604 0.78144 0.6586 0.0
C515 C 0.46952 0.77585 0.61115 0.0
C516 C 0.46028 0.7921 0.58638 0.0
H517 H 0.38986 0.6139 0.47988 0.0
H518 H 0.40388 0.65804 0.52199 0.0
C519 C 0.45706 0.81314 0.60887 0.0
C520 C 0.46823 0.75046 0.58932 0.0
H521 H 0.48426 0.72708 0.4899 0.0
C522 C 0.45161 0.72397 0.61108 0.0
C523 C 0.48133 0.75172 0.54617 0.0
C524 C 0.50155 0.77964 0.52309 0.0
C525 C 0.44647 0.69861 0.58976 0.0
C526 C 0.45736 0.69968 0.54467 0.0
C527 C 0.47537 0.72624 0.52403 0.0
C528 C 0.44918 0.67344 0.5177 0.0
C529 C 0.42922 0.67095 0.61576 0.0
C530 C 0.47003 0.66805 0.49942 0.0
C531 C 0.46206 0.64303 0.47447 0.0
C532 C 0.4331 0.62302 0.46763 0.0
C533 C 0.41232 0.62876 0.48515 0.0
C534 C 0.4203 0.65388 0.5095 0.0
H535 H 0.43121 0.67443 0.65397 0.0
H536 H 0.40638 0.66169 0.60669 0.0
H537 H 0.43597 0.65528 0.60677 0.0
H538 H 0.49244 0.68301 0.50501 0.0
H539 H 0.47852 0.63915 0.46125 0.0
H540 H 0.62578 0.45263 0.76864 0.0
H541 H 0.66836 0.45806 0.72953 0.0
H542 H 0.7145 0.48402 0.85923 0.0
H543 H 0.67128 0.47662 0.89881 0.0
H544 H 0.72231 0.49996 0.71558 0.0
H545 H 0.72074 0.41558 0.82769 0.0
H546 H 0.69242 0.42382 0.82834 0.0
H547 H 0.72519 0.44622 0.85877 0.0
C548 C 0.64519 0.45986 0.78847 0.0
C549 C 0.64569 0.465 0.83628 0.0
C550 C 0.66949 0.4631 0.7662 0.0
C551 C 0.69452 0.47114 0.79157 0.0
C552 C 0.6953 0.47733 0.83912 0.0
H553 H 0.84219 0.48605 0.63525 0.0
H554 H 0.81302 0.49966 0.68213 0.0
C555 C 0.67082 0.47359 0.86154 0.0
C556 C 0.71862 0.47037 0.7688 0.0
H557 H 0.75613 0.43524 0.77052 0.0
C558 C 0.72992 0.48599 0.72768 0.0
C559 C 0.7283 0.45193 0.78461 0.0
C560 C 0.7159 0.43323 0.82699 0.0
C561 C 0.74977 0.48277 0.70083 0.0
C562 C 0.75916 0.46408 0.71644 0.0
C563 C 0.74888 0.44957 0.7587 0.0
C564 C 0.7772 0.45672 0.68757 0.0
C565 C 0.75926 0.49816 0.6549 0.0
C566 C 0.76703 0.42807 0.67599 0.0
C567 C 0.78379 0.42025 0.65028 0.0
C568 C 0.81099 0.44095 0.63514 0.0
C569 C 0.82118 0.46971 0.64623 0.0
C570 C 0.80449 0.47752 0.67273 0.0
H571 H 0.74523 0.50647 0.64331 0.0
H572 H 0.78118 0.51652 0.65853 0.0
H573 H 0.75951 0.48388 0.62746 0.0
H574 H 0.74602 0.41166 0.68697 0.0
H575 H 0.77531 0.39794 0.64206 0.0
H576 H 0.3813 0.77793 0.81039 0.0
H577 H 0.33803 0.74706 0.85392 0.0
H578 H 0.3122 0.81039 0.84374 0.0
H579 H 0.35507 0.84096 0.79821 0.0
H580 H 0.32073 0.75506 0.93514 0.0
H581 H 0.24098 0.74089 0.80085 0.0
H582 H 0.27848 0.7572 0.78813 0.0
H583 H 0.26476 0.77722 0.81715 0.0
C584 C 0.36634 0.78524 0.81722 0.0
C585 C 0.37143 0.81174 0.80075 0.0
C586 C 0.34163 0.7676 0.84214 0.0
C587 C 0.32166 0.77623 0.85157 0.0
C588 C 0.32692 0.80296 0.83585 0.0
H589 H 0.19168 0.66755 0.0558 0.0
H590 H 0.22811 0.71108 0.01765 0.0
C591 C 0.35149 0.82047 0.81014 0.0
C592 C 0.29577 0.75715 0.8787 0.0
H593 H 0.22317 0.71835 0.87305 0.0
C594 C 0.29937 0.74713 0.9217 0.0
C595 C 0.26795 0.74686 0.86099 0.0
C596 C 0.2627 0.75586 0.81409 0.0
C597 C 0.2761 0.72609 0.94649 0.0
C598 C 0.24827 0.71564 0.92869 0.0
C599 C 0.24453 0.72657 0.88669 0.0
C600 C 0.2232 0.69118 0.95037 0.0
C601 C 0.28183 0.71415 0.99 0.0
C602 C 0.20726 0.66607 0.92461 0.0
C603 C 0.18585 0.6416 0.94599 0.0
C604 C 0.17982 0.64198 0.99324 0.0
C605 C 0.19534 0.66717 0.01886 0.0
C606 C 0.21644 0.69182 -0.00269 0.0
H607 H 0.30446 0.71961 0.99242 0.0
H608 H 0.27703 0.72324 0.02094 0.0
H609 H 0.26823 0.6906 0.99129 0.0
H610 H 0.2122 0.66504 0.88842 0.0
H611 H 0.17448 0.62214 0.92595 0.0
H612 H 0.50967 0.35683 0.96551 0.0
H613 H 0.49422 0.31341 0.01145 0.0
H614 H 0.58206 0.33755 0.03516 0.0
H615 H 0.59755 0.38125 0.99098 0.0
H616 H 0.50163 0.26913 -0.00059 0.0
H617 H 0.55204 0.32074 0.16508 0.0
H618 H 0.54874 0.34038 0.11716 0.0
H619 H 0.5781 0.33363 0.1196 0.0
C620 C 0.52564 0.35289 0.9808 0.0
C621 C 0.5548 0.3725 0.97508 0.0
C622 C 0.51679 0.32813 0.00702 0.0
C623 C 0.53698 0.32259 0.0277 0.0
C624 C 0.5661 0.34184 0.0209 0.0
H625 H 0.53866 0.17253 0.09421 0.0
H626 H 0.5323 0.20959 0.05723 0.0
C627 C 0.57493 0.36671 0.99531 0.0
C628 C 0.52796 0.29624 0.0549 0.0
H629 H 0.54285 0.27249 0.15475 0.0
C630 C 0.51018 0.2698 0.03377 0.0
C631 C 0.53832 0.29703 0.10033 0.0
C632 C 0.55506 0.32451 0.127 0.0
C633 C 0.50423 0.24423 0.05553 0.0
C634 C 0.51719 0.24526 0.09873 0.0
C635 C 0.53326 0.27159 0.12124 0.0
C636 C 0.51671 0.21996 0.11939 0.0
C637 C 0.48429 0.21645 0.03184 0.0
C638 C 0.51065 0.21375 0.16684 0.0
C639 C 0.51507 0.19313 0.18813 0.0
C640 C 0.52475 0.17781 0.16204 0.0
C641 C 0.53031 0.18355 0.11454 0.0
C642 C 0.52635 0.20448 0.09336 0.0
H643 H 0.46838 0.21844 0.01024 0.0
H644 H 0.49667 0.21042 0.00841 0.0
H645 H 0.47281 0.19914 0.05754 0.0
H646 H 0.50361 0.22567 0.18782 0.0
H647 H 0.51191 0.18989 0.22529 0.0
loop_
_geom_bond_atom_site_label_1
_geom_bond_atom_site_label_2
_geom_bond_distance
_geom_bond_site_symmetry_2
_ccdc_geom_bond_type
Mn0 O5 2.095 . S
Mn0 O15 2.162 . S
Mn0 O16 2.297 . S
Mn0 O24 2.385 . S
Mn0 O25 2.209 . S
Mn0 O26 2.094 . S
Mn1 O6 2.121 . S
Mn1 N8 2.257 . S
Mn1 N17 2.282 1_554 S
Mn1 O25 2.215 . S
Mn1 O27 2.117 . S
C2 O24 1.234 . S
C2 O25 1.283 . S
C3 O15 1.281 . S
C3 O16 1.236 . S
C4 O26 1.240 . S
C4 O27 1.264 . S
O5 Mn0 2.095 . S
O5 C14 1.250 . S
O6 Mn1 2.121 . S
O6 C14 1.258 . S
C7 N8 1.326 . S
C7 C11 1.460 . S
C7 H13 0.929 . S
N8 Mn1 2.257 . S
N8 C7 1.326 . S
N8 C12 1.362 . S
C9 C10 1.258 . S
C9 C12 1.431 . S
C9 C29 1.449 . S
C10 C9 1.258 . S
C10 C11 1.477 . S
C10 H30 0.931 . S
C11 C7 1.460 . S
C11 C10 1.477 . S
C11 H31 0.930 . S
C12 N8 1.362 . S
C12 C9 1.431 . S
C12 C22 1.476 1_554 S
H13 C7 0.929 . S
C14 O5 1.250 . S
C14 O6 1.258 . S
O15 Mn0 2.162 . S
O15 C3 1.281 . S
O16 Mn0 2.297 . S
O16 C3 1.236 . S
N17 Mn1 2.282 1_556 S
N17 C18 1.328 . S
N17 C22 1.318 . S
C18 N17 1.328 . S
C18 C19 1.457 . S
C18 H23 0.929 . S
C19 C18 1.457 . S
C19 C20 1.291 . S
C19 H32 0.931 . S
C20 C19 1.291 . S
C20 C21 1.373 . S
C20 H33 0.929 . S
C21 C20 1.373 . S
C21 C22 1.396 . S
C21 C28 1.403 . S
C22 C12 1.476 1_556 S
C22 N17 1.318 . S
C22 C21 1.396 . S
H23 C18 0.929 . S
O24 Mn0 2.385 . S
O24 C2 1.234 . S
O25 Mn0 2.209 . S
O25 Mn1 2.215 . S
O25 C2 1.283 . S
O26 Mn0 2.094 . S
O26 C4 1.240 . S
O27 Mn1 2.117 . S
O27 C4 1.264 . S
C28 C21 1.403 . S
C28 C29 1.399 1_556 S
C28 H34 0.929 . S
C29 C9 1.449 . S
C29 C28 1.399 1_554 S
C29 H35 0.930 . S
H30 C10 0.931 . S
H31 C11 0.930 . S
H32 C19 0.931 . S
H33 C20 0.929 . S
H34 C28 0.929 . S
H35 C29 0.930 . S
Mn36 O41 2.095 . S
Mn36 O51 2.162 . S
Mn36 O52 2.297 . S
Mn36 O60 2.385 . S
Mn36 O61 2.209 . S
Mn36 O62 2.094 . S
Mn37 O42 2.121 . S
Mn37 N44 2.257 . S
Mn37 N53 2.282 . S
Mn37 O61 2.215 . S
Mn37 O63 2.117 . S
C38 O60 1.234 . S
C38 O61 1.283 . S
C39 O51 1.281 . S
C39 O52 1.236 . S
C40 O62 1.240 . S
C40 O63 1.264 . S
O41 Mn36 2.095 . S
O41 C50 1.250 . S
O42 Mn37 2.121 . S
O42 C50 1.258 . S
C43 N44 1.326 . S
C43 C47 1.460 . S
C43 H49 0.929 . S
N44 Mn37 2.257 . S
N44 C43 1.326 . S
N44 C48 1.362 . S
C45 C46 1.258 . S
C45 C48 1.431 . S
C45 C65 1.449 . S
C46 C45 1.258 . S
C46 C47 1.477 . S
C46 H66 0.931 . S
C47 C43 1.460 . S
C47 C46 1.477 . S
C47 H67 0.930 . S
C48 N44 1.362 . S
C48 C45 1.431 . S
C48 C58 1.476 . S
H49 C43 0.929 . S
C50 O41 1.250 . S
C50 O42 1.258 . S
O51 Mn36 2.162 . S
O51 C39 1.281 . S
O52 Mn36 2.297 . S
O52 C39 1.236 . S
N53 Mn37 2.282 . S
N53 C54 1.328 . S
N53 C58 1.318 . S
C54 N53 1.328 . S
C54 C55 1.457 . S
C54 H59 0.929 . S
C55 C54 1.457 . S
C55 C56 1.291 . S
C55 H68 0.931 . S
C56 C55 1.291 . S
C56 C57 1.373 . S
C56 H69 0.929 . S
C57 C56 1.373 . S
C57 C58 1.396 . S
C57 C64 1.403 . S
C58 C48 1.476 . S
C58 N53 1.318 . S
C58 C57 1.396 . S
H59 C54 0.929 . S
O60 Mn36 2.385 . S
O60 C38 1.234 . S
O61 Mn36 2.209 . S
O61 Mn37 2.215 . S
O61 C38 1.283 . S
O62 Mn36 2.094 . S
O62 C40 1.240 . S
O63 Mn37 2.117 . S
O63 C40 1.264 . S
C64 C57 1.403 . S
C64 C65 1.399 . S
C64 H70 0.929 . S
C65 C45 1.449 . S
C65 C64 1.399 . S
C65 H71 0.930 . S
H66 C46 0.931 . S
H67 C47 0.930 . S
H68 C55 0.931 . S
H69 C56 0.929 . S
H70 C64 0.929 . S
H71 C65 0.930 . S
Mn72 O77 2.095 . S
Mn72 O87 2.162 . S
Mn72 O88 2.297 . S
Mn72 O96 2.385 . S
Mn72 O97 2.209 . S
Mn72 O98 2.094 . S
Mn73 O78 2.121 . S
Mn73 N80 2.257 . S
Mn73 N89 2.282 . S
Mn73 O97 2.215 . S
Mn73 O99 2.117 . S
C74 O96 1.234 . S
C74 O97 1.283 . S
C75 O87 1.281 . S
C75 O88 1.236 . S
C76 O98 1.240 . S
C76 O99 1.264 . S
O77 Mn72 2.095 . S
O77 C86 1.250 . S
O78 Mn73 2.121 . S
O78 C86 1.258 . S
C79 N80 1.326 . S
C79 C83 1.460 . S
C79 H85 0.929 . S
N80 Mn73 2.257 . S
N80 C79 1.326 . S
N80 C84 1.362 . S
C81 C82 1.258 . S
C81 C84 1.431 . S
C81 C101 1.449 . S
C82 C81 1.258 . S
C82 C83 1.477 . S
C82 H102 0.931 . S
C83 C79 1.460 . S
C83 C82 1.477 . S
C83 H103 0.930 . S
C84 N80 1.362 . S
C84 C81 1.431 . S
C84 C94 1.476 . S
H85 C79 0.929 . S
C86 O77 1.250 . S
C86 O78 1.258 . S
O87 Mn72 2.162 . S
O87 C75 1.281 . S
O88 Mn72 2.297 . S
O88 C75 1.236 . S
N89 Mn73 2.282 . S
N89 C90 1.328 . S
N89 C94 1.318 . S
C90 N89 1.328 . S
C90 C91 1.457 . S
C90 H95 0.929 . S
C91 C90 1.457 . S
C91 C92 1.291 . S
C91 H104 0.931 . S
C92 C91 1.291 . S
C92 C93 1.373 . S
C92 H105 0.929 . S
C93 C92 1.373 . S
C93 C94 1.396 . S
C93 C100 1.403 . S
C94 C84 1.476 . S
C94 N89 1.318 . S
C94 C93 1.396 . S
H95 C90 0.929 . S
O96 Mn72 2.385 . S
O96 C74 1.234 . S
O97 Mn72 2.209 . S
O97 Mn73 2.215 . S
O97 C74 1.283 . S
O98 Mn72 2.094 . S
O98 C76 1.240 . S
O99 Mn73 2.117 . S
O99 C76 1.264 . S
C100 C93 1.403 . S
C100 C101 1.399 . S
C100 H106 0.929 . S
C101 C81 1.449 . S
C101 C100 1.399 . S
C101 H107 0.930 . S
H102 C82 0.931 . S
H103 C83 0.930 . S
H104 C91 0.931 . S
H105 C92 0.929 . S
H106 C100 0.929 . S
H107 C101 0.930 . S
Mn108 O113 2.095 . S
Mn108 O123 2.162 . S
Mn108 O124 2.297 . S
Mn108 O132 2.385 . S
Mn108 O133 2.209 . S
Mn108 O134 2.094 . S
Mn109 O114 2.121 . S
Mn109 N116 2.257 . S
Mn109 N125 2.282 . S
Mn109 O133 2.215 . S
Mn109 O135 2.117 . S
C110 O132 1.234 . S
C110 O133 1.283 . S
C111 O123 1.281 . S
C111 O124 1.236 . S
C112 O134 1.240 . S
C112 O135 1.264 . S
O113 Mn108 2.095 . S
O113 C122 1.250 . S
O114 Mn109 2.121 . S
O114 C122 1.258 . S
C115 N116 1.326 . S
C115 C119 1.460 . S
C115 H121 0.929 . S
N116 Mn109 2.257 . S
N116 C115 1.326 . S
N116 C120 1.362 . S
C117 C118 1.258 . S
C117 C120 1.431 . S
C117 C137 1.449 . S
C118 C117 1.258 . S
C118 C119 1.477 . S
C118 H138 0.931 . S
C119 C115 1.460 . S
C119 C118 1.477 . S
C119 H139 0.930 . S
C120 N116 1.362 . S
C120 C117 1.431 . S
C120 C130 1.476 . S
H121 C115 0.929 . S
C122 O113 1.250 . S
C122 O114 1.258 . S
O123 Mn108 2.162 . S
O123 C111 1.281 . S
O124 Mn108 2.297 . S
O124 C111 1.236 . S
N125 Mn109 2.282 . S
N125 C126 1.328 . S
N125 C130 1.318 . S
C126 N125 1.328 . S
C126 C127 1.457 . S
C126 H131 0.929 . S
C127 C126 1.457 . S
C127 C128 1.291 . S
C127 H140 0.931 . S
C128 C127 1.291 . S
C128 C129 1.373 . S
C128 H141 0.929 . S
C129 C128 1.373 . S
C129 C130 1.396 . S
C129 C136 1.403 . S
C130 C120 1.476 . S
C130 N125 1.318 . S
C130 C129 1.396 . S
H131 C126 0.929 . S
O132 Mn108 2.385 . S
O132 C110 1.234 . S
O133 Mn108 2.209 . S
O133 Mn109 2.215 . S
O133 C110 1.283 . S
O134 Mn108 2.094 . S
O134 C112 1.240 . S
O135 Mn109 2.117 . S
O135 C112 1.264 . S
C136 C129 1.403 . S
C136 C137 1.399 . S
C136 H142 0.929 . S
C137 C117 1.449 . S
C137 C136 1.399 . S
C137 H143 0.930 . S
H138 C118 0.931 . S
H139 C119 0.930 . S
H140 C127 0.931 . S
H141 C128 0.929 . S
H142 C136 0.929 . S
H143 C137 0.930 . S
Mn144 O149 2.095 . S
Mn144 O159 2.162 . S
Mn144 O160 2.297 . S
Mn144 O168 2.385 . S
Mn144 O169 2.209 . S
Mn144 O170 2.094 . S
Mn145 O150 2.121 . S
Mn145 N152 2.257 . S
Mn145 N161 2.282 . S
Mn145 O169 2.215 . S
Mn145 O171 2.117 . S
C146 O168 1.234 . S
C146 O169 1.283 . S
C147 O159 1.281 . S
C147 O160 1.236 . S
C148 O170 1.240 . S
C148 O171 1.264 . S
O149 Mn144 2.095 . S
O149 C158 1.250 . S
O150 Mn145 2.121 . S
O150 C158 1.258 . S
C151 N152 1.326 . S
C151 C155 1.460 . S
C151 H157 0.929 . S
N152 Mn145 2.257 . S
N152 C151 1.326 . S
N152 C156 1.362 . S
C153 C154 1.258 . S
C153 C156 1.431 . S
C153 C173 1.449 . S
C154 C153 1.258 . S
C154 C155 1.477 . S
C154 H174 0.931 . S
C155 C151 1.460 . S
C155 C154 1.477 . S
C155 H175 0.930 . S
C156 N152 1.362 . S
C156 C153 1.431 . S
C156 C166 1.476 . S
H157 C151 0.929 . S
C158 O149 1.250 . S
C158 O150 1.258 . S
O159 Mn144 2.162 . S
O159 C147 1.281 . S
O160 Mn144 2.297 . S
O160 C147 1.236 . S
N161 Mn145 2.282 . S
N161 C162 1.328 . S
N161 C166 1.318 . S
C162 N161 1.328 . S
C162 C163 1.457 . S
C162 H167 0.929 . S
C163 C162 1.457 . S
C163 C164 1.291 . S
C163 H176 0.931 . S
C164 C163 1.291 . S
C164 C165 1.373 . S
C164 H177 0.929 . S
C165 C164 1.373 . S
C165 C166 1.396 . S
C165 C172 1.403 . S
C166 C156 1.476 . S
C166 N161 1.318 . S
C166 C165 1.396 . S
H167 C162 0.929 . S
O168 Mn144 2.385 . S
O168 C146 1.234 . S
O169 Mn144 2.209 . S
O169 Mn145 2.215 . S
O169 C146 1.283 . S
O170 Mn144 2.094 . S
O170 C148 1.240 . S
O171 Mn145 2.117 . S
O171 C148 1.264 . S
C172 C165 1.403 . S
C172 C173 1.399 . S
C172 H178 0.929 . S
C173 C153 1.449 . S
C173 C172 1.399 . S
C173 H179 0.930 . S
H174 C154 0.931 . S
H175 C155 0.930 . S
H176 C163 0.931 . S
H177 C164 0.929 . S
H178 C172 0.929 . S
H179 C173 0.930 . S
Mn180 O185 2.095 . S
Mn180 O195 2.162 . S
Mn180 O196 2.297 . S
Mn180 O204 2.385 . S
Mn180 O205 2.209 . S
Mn180 O206 2.094 . S
Mn181 O186 2.121 . S
Mn181 N188 2.257 . S
Mn181 N197 2.282 . S
Mn181 O205 2.215 . S
Mn181 O207 2.117 . S
C182 O204 1.234 . S
C182 O205 1.283 . S
C183 O195 1.281 . S
C183 O196 1.236 . S
C184 O206 1.240 . S
C184 O207 1.264 . S
O185 Mn180 2.095 . S
O185 C194 1.250 . S
O186 Mn181 2.121 . S
O186 C194 1.258 . S
C187 N188 1.326 . S
C187 C191 1.460 . S
C187 H193 0.929 . S
N188 Mn181 2.257 . S
N188 C187 1.326 . S
N188 C192 1.362 . S
C189 C190 1.258 . S
C189 C192 1.431 . S
C189 C209 1.449 . S
C190 C189 1.258 . S
C190 C191 1.477 . S
C190 H210 0.931 . S
C191 C187 1.460 . S
C191 C190 1.477 . S
C191 H211 0.930 . S
C192 N188 1.362 . S
C192 C189 1.431 . S
C192 C202 1.476 . S
H193 C187 0.929 . S
C194 O185 1.250 . S
C194 O186 1.258 . S
O195 Mn180 2.162 . S
O195 C183 1.281 . S
O196 Mn180 2.297 . S
O196 C183 1.236 . S
N197 Mn181 2.282 . S
N197 C198 1.328 . S
N197 C202 1.318 . S
C198 N197 1.328 . S
C198 C199 1.457 . S
C198 H203 0.929 . S
C199 C198 1.457 . S
C199 C200 1.291 . S
C199 H212 0.931 . S
C200 C199 1.291 . S
C200 C201 1.373 . S
C200 H213 0.929 . S
C201 C200 1.373 . S
C201 C202 1.396 . S
C201 C208 1.403 . S
C202 C192 1.476 . S
C202 N197 1.318 . S
C202 C201 1.396 . S
H203 C198 0.929 . S
O204 Mn180 2.385 . S
O204 C182 1.234 . S
O205 Mn180 2.209 . S
O205 Mn181 2.215 . S
O205 C182 1.283 . S
O206 Mn180 2.094 . S
O206 C184 1.240 . S
O207 Mn181 2.117 . S
O207 C184 1.264 . S
C208 C201 1.403 . S
C208 C209 1.399 . S
C208 H214 0.929 . S
C209 C189 1.449 . S
C209 C208 1.399 . S
C209 H215 0.930 . S
H210 C190 0.931 . S
H211 C191 0.930 . S
H212 C199 0.931 . S
H213 C200 0.929 . S
H214 C208 0.929 . S
H215 C209 0.930 . S
H216 C224 0.929 . S
H217 C226 0.930 . S
H218 C228 0.930 . S
H219 C231 0.929 1_554 S
H220 C234 0.930 . S
H221 C236 0.960 . S
H222 C236 0.960 . S
H223 C236 0.960 . S
C224 H216 0.929 . S
C224 C225 1.377 . S
C224 C226 1.384 . S
C225 C224 1.377 . S
C225 C231 1.390 . S
C226 H217 0.930 . S
C226 C224 1.384 . S
C226 C227 1.372 . S
C227 C226 1.372 . S
C227 C228 1.400 . S
C227 C232 1.490 . S
C228 H218 0.930 . S
C228 C227 1.400 . S
C228 C231 1.386 . S
H229 C245 0.930 . S
H230 C246 0.931 . S
C231 H219 0.929 1_556 S
C231 C225 1.390 . S
C231 C228 1.386 . S
C232 C227 1.490 . S
C232 C234 1.395 . S
C232 C235 1.403 1_455 S
H233 C239 0.930 . S
C234 H220 0.930 . S
C234 C232 1.395 . S
C234 C237 1.403 . S
C235 C232 1.403 1_655 S
C235 C236 1.524 . S
C235 C239 1.400 . S
C236 H221 0.960 . S
C236 H222 0.960 . S
C236 H223 0.960 . S
C236 C235 1.524 . S
C237 C234 1.403 . S
C237 C238 1.392 1_455 S
C237 C241 1.495 . S
C238 C237 1.392 1_655 S
C238 C239 1.385 . S
C238 C240 1.478 . S
C239 H233 0.930 . S
C239 C235 1.400 . S
C239 C238 1.385 . S
C240 C238 1.478 . S
C240 C242 1.381 . S
C240 C246 1.383 . S
C241 C237 1.495 . S
C241 H247 0.959 . S
C241 H248 0.961 . S
C241 H249 0.960 . S
C242 C240 1.381 . S
C242 C243 1.394 . S
C242 H250 0.930 . S
C243 C242 1.394 . S
C243 C244 1.383 . S
C243 H251 0.929 . S
C244 C243 1.383 . S
C244 C245 1.377 . S
C245 H229 0.930 . S
C245 C244 1.377 . S
C245 C246 1.379 . S
C246 H230 0.931 . S
C246 C240 1.383 . S
C246 C245 1.379 . S
H247 C241 0.959 . S
H248 C241 0.961 . S
H249 C241 0.960 . S
H250 C242 0.930 . S
H251 C243 0.929 . S
H252 C260 0.929 . S
H253 C262 0.930 . S
H254 C264 0.930 . S
H255 C267 0.929 . S
H256 C270 0.930 . S
H257 C272 0.960 . S
H258 C272 0.960 . S
H259 C272 0.960 1_565 S
C260 H252 0.929 . S
C260 C261 1.377 . S
C260 C262 1.384 . S
C261 C260 1.377 . S
C261 C267 1.390 . S
C262 H253 0.930 . S
C262 C260 1.384 . S
C262 C263 1.372 . S
C263 C262 1.372 . S
C263 C264 1.400 . S
C263 C268 1.490 . S
C264 H254 0.930 . S
C264 C263 1.400 . S
C264 C267 1.386 . S
H265 C281 0.930 . S
H266 C282 0.931 . S
C267 H255 0.929 . S
C267 C261 1.390 . S
C267 C264 1.386 . S
C268 C263 1.490 . S
C268 C270 1.395 1_556 S
C268 C271 1.403 1_565 S
H269 C275 0.930 . S
C270 H256 0.930 . S
C270 C268 1.395 1_554 S
C270 C273 1.403 . S
C271 C268 1.403 1_545 S
C271 C272 1.524 . S
C271 C275 1.400 . S
C272 H257 0.960 . S
C272 H258 0.960 . S
C272 H259 0.960 1_545 S
C272 C271 1.524 . S
C273 C270 1.403 . S
C273 C274 1.392 1_565 S
C273 C277 1.495 . S
C274 C273 1.392 1_545 S
C274 C275 1.385 1_554 S
C274 C276 1.478 . S
C275 H269 0.930 . S
C275 C271 1.400 . S
C275 C274 1.385 1_556 S
C276 C274 1.478 . S
C276 C278 1.381 . S
C276 C282 1.383 . S
C277 C273 1.495 . S
C277 H283 0.959 . S
C277 H284 0.961 . S
C277 H285 0.960 . S
C278 C276 1.381 . S
C278 C279 1.394 . S
C278 H286 0.930 . S
C279 C278 1.394 . S
C279 C280 1.383 . S
C279 H287 0.929 . S
C280 C279 1.383 . S
C280 C281 1.377 . S
C281 H265 0.930 . S
C281 C280 1.377 . S
C281 C282 1.379 . S
C282 H266 0.931 . S
C282 C276 1.383 . S
C282 C281 1.379 . S
H283 C277 0.959 . S
H284 C277 0.961 . S
H285 C277 0.960 . S
H286 C278 0.930 . S
H287 C279 0.929 . S
H288 C296 0.929 . S
H289 C298 0.930 . S
H290 C300 0.930 . S
H291 C303 0.929 . S
H292 C306 0.930 . S
H293 C308 0.960 . S
H294 C308 0.960 . S
H295 C308 0.960 . S
C296 H288 0.929 . S
C296 C297 1.377 . S
C296 C298 1.384 . S
C297 C296 1.377 . S
C297 C303 1.390 . S
C298 H289 0.930 . S
C298 C296 1.384 . S
C298 C299 1.372 . S
C299 C298 1.372 . S
C299 C300 1.400 . S
C299 C304 1.490 . S
C300 H290 0.930 . S
C300 C299 1.400 . S
C300 C303 1.386 . S
H301 C317 0.930 . S
H302 C318 0.931 . S
C303 H291 0.929 . S
C303 C297 1.390 . S
C303 C300 1.386 . S
C304 C299 1.490 . S
C304 C306 1.395 . S
C304 C307 1.403 . S
H305 C311 0.930 . S
C306 H292 0.930 . S
C306 C304 1.395 . S
C306 C309 1.403 . S
C307 C304 1.403 . S
C307 C308 1.524 . S
C307 C311 1.400 . S
C308 H293 0.960 . S
C308 H294 0.960 . S
C308 H295 0.960 . S
C308 C307 1.524 . S
C309 C306 1.403 . S
C309 C310 1.392 . S
C309 C313 1.495 . S
C310 C309 1.392 . S
C310 C311 1.385 . S
C310 C312 1.478 . S
C311 H305 0.930 . S
C311 C307 1.400 . S
C311 C310 1.385 . S
C312 C310 1.478 . S
C312 C314 1.381 . S
C312 C318 1.383 . S
C313 C309 1.495 . S
C313 H319 0.959 . S
C313 H320 0.961 . S
C313 H321 0.960 . S
C314 C312 1.381 . S
C314 C315 1.394 . S
C314 H322 0.930 . S
C315 C314 1.394 . S
C315 C316 1.383 . S
C315 H323 0.929 1_554 S
C316 C315 1.383 . S
C316 C317 1.377 . S
C317 H301 0.930 . S
C317 C316 1.377 . S
C317 C318 1.379 . S
C318 H302 0.931 . S
C318 C312 1.383 . S
C318 C317 1.379 . S
H319 C313 0.959 . S
H320 C313 0.961 . S
H321 C313 0.960 . S
H322 C314 0.930 . S
H323 C315 0.929 1_556 S
H324 C332 0.929 . S
H325 C334 0.930 . S
H326 C336 0.930 . S
H327 C339 0.929 . S
H328 C342 0.930 . S
H329 C344 0.960 1_455 S
H330 C344 0.960 . S
H331 C344 0.960 1_455 S
C332 H324 0.929 . S
C332 C333 1.377 . S
C332 C334 1.384 . S
C333 C332 1.377 . S
C333 C339 1.390 . S
C334 H325 0.930 . S
C334 C332 1.384 . S
C334 C335 1.372 . S
C335 C334 1.372 . S
C335 C336 1.400 . S
C335 C340 1.490 . S
C336 H326 0.930 . S
C336 C335 1.400 . S
C336 C339 1.386 . S
H337 C353 0.930 . S
H338 C354 0.931 . S
C339 H327 0.929 . S
C339 C333 1.390 . S
C339 C336 1.386 . S
C340 C335 1.490 . S
C340 C342 1.395 . S
C340 C343 1.414 . S
H341 C347 0.930 . S
C342 H328 0.930 . S
C342 C340 1.395 . S
C342 C345 1.403 1_655 S
C343 C340 1.414 . S
C343 C344 1.519 . S
C343 C347 1.393 1_655 S
C344 H329 0.960 1_655 S
C344 H330 0.960 . S
C344 H331 0.960 1_655 S
C344 C343 1.519 . S
C345 C342 1.403 1_455 S
C345 C346 1.392 . S
C345 C349 1.495 . S
C346 C345 1.392 . S
C346 C347 1.385 . S
C346 C348 1.478 . S
C347 H341 0.930 . S
C347 C343 1.393 1_455 S
C347 C346 1.385 . S
C348 C346 1.478 . S
C348 C350 1.381 . S
C348 C354 1.383 . S
C349 C345 1.495 . S
C349 H355 0.959 1_455 S
C349 H356 0.961 . S
C349 H357 0.959 1_455 S
C350 C348 1.381 . S
C350 C351 1.394 . S
C350 H358 0.930 . S
C351 C350 1.394 . S
C351 C352 1.383 . S
C351 H359 0.929 . S
C352 C351 1.383 . S
C352 C353 1.377 . S
C353 H337 0.930 . S
C353 C352 1.377 . S
C353 C354 1.379 . S
C354 H338 0.931 . S
C354 C348 1.383 . S
C354 C353 1.379 . S
H355 C349 0.959 1_655 S
H356 C349 0.961 . S
H357 C349 0.959 1_655 S
H358 C350 0.930 . S
H359 C351 0.929 . S
H360 C368 0.929 . S
H361 C370 0.930 . S
H362 C372 0.930 . S
H363 C375 0.929 . S
H364 C378 0.930 . S
H365 C380 0.960 . S
H366 C380 0.960 . S
H367 C380 0.960 . S
C368 H360 0.929 . S
C368 C369 1.377 . S
C368 C370 1.384 . S
C369 C368 1.377 . S
C369 C375 1.390 . S
C370 H361 0.930 . S
C370 C368 1.384 . S
C370 C371 1.372 . S
C371 C370 1.372 . S
C371 C372 1.400 . S
C371 C376 1.490 . S
C372 H362 0.930 . S
C372 C371 1.400 . S
C372 C375 1.386 . S
H373 C389 0.930 . S
H374 C390 0.931 . S
C375 H363 0.929 . S
C375 C369 1.390 . S
C375 C372 1.386 . S
C376 C371 1.490 . S
C376 C378 1.395 . S
C376 C379 1.403 . S
H377 C383 0.930 . S
C378 H364 0.930 . S
C378 C376 1.395 . S
C378 C381 1.403 1_545 S
C379 C376 1.403 . S
C379 C380 1.524 . S
C379 C383 1.400 1_545 S
C380 H365 0.960 . S
C380 H366 0.960 . S
C380 H367 0.960 . S
C380 C379 1.524 . S
C381 C378 1.403 1_565 S
C381 C382 1.392 . S
C381 C385 1.495 . S
C382 C381 1.392 . S
C382 C383 1.385 . S
C382 C384 1.478 . S
C383 H377 0.930 . S
C383 C379 1.400 1_565 S
C383 C382 1.385 . S
C384 C382 1.478 . S
C384 C386 1.381 . S
C384 C390 1.383 . S
C385 C381 1.495 . S
C385 H391 0.960 1_565 S
C385 H392 0.961 . S
C385 H393 0.960 . S
C386 C384 1.381 . S
C386 C387 1.394 . S
C386 H394 0.930 . S
C387 C386 1.394 . S
C387 C388 1.383 . S
C387 H395 0.929 . S
C388 C387 1.383 . S
C388 C389 1.377 . S
C389 H373 0.930 . S
C389 C388 1.377 . S
C389 C390 1.379 . S
C390 H374 0.931 . S
C390 C384 1.383 . S
C390 C389 1.379 . S
H391 C385 0.960 1_545 S
H392 C385 0.961 . S
H393 C385 0.960 . S
H394 C386 0.930 . S
H395 C387 0.929 . S
H396 C404 0.929 . S
H397 C406 0.930 . S
H398 C408 0.930 . S
H399 C411 0.929 . S
H400 C414 0.930 . S
H401 C416 0.960 . S
H402 C416 0.960 . S
H403 C416 0.960 . S
C404 H396 0.929 . S
C404 C405 1.377 . S
C404 C406 1.384 . S
C405 C404 1.377 . S
C405 C411 1.390 . S
C406 H397 0.930 . S
C406 C404 1.384 . S
C406 C407 1.372 . S
C407 C406 1.372 . S
C407 C408 1.400 . S
C407 C412 1.490 . S
C408 H398 0.930 . S
C408 C407 1.400 . S
C408 C411 1.386 . S
H409 C425 0.930 . S
H410 C426 0.931 . S
C411 H399 0.929 . S
C411 C405 1.390 . S
C411 C408 1.386 . S
C412 C407 1.490 . S
C412 C414 1.395 . S
C412 C415 1.403 . S
H413 C419 0.930 . S
C414 H400 0.930 . S
C414 C412 1.395 . S
C414 C417 1.403 . S
C415 C412 1.403 . S
C415 C416 1.524 . S
C415 C419 1.400 . S
C416 H401 0.960 . S
C416 H402 0.960 . S
C416 H403 0.960 . S
C416 C415 1.524 . S
C417 C414 1.403 . S
C417 C418 1.392 . S
C417 C421 1.495 . S
C418 C417 1.392 . S
C418 C419 1.385 . S
C418 C420 1.478 . S
C419 H413 0.930 . S
C419 C415 1.400 . S
C419 C418 1.385 . S
C420 C418 1.478 . S
C420 C422 1.381 . S
C420 C426 1.383 . S
C421 C417 1.495 . S
C421 H427 0.959 . S
C421 H428 0.961 . S
C421 H429 0.960 . S
C422 C420 1.381 . S
C422 C423 1.394 . S
C422 H430 0.930 . S
C423 C422 1.394 . S
C423 C424 1.383 . S
C423 H431 0.929 . S
C424 C423 1.383 . S
C424 C425 1.377 . S
C425 H409 0.930 . S
C425 C424 1.377 . S
C425 C426 1.379 . S
C426 H410 0.931 . S
C426 C420 1.383 . S
C426 C425 1.379 . S
H427 C421 0.959 . S
H428 C421 0.961 . S
H429 C421 0.960 . S
H430 C422 0.930 . S
H431 C423 0.929 . S
H432 C440 0.929 . S
H433 C442 0.930 . S
H434 C444 0.930 . S
H435 C447 0.929 . S
H436 C450 0.930 . S
H437 C452 0.960 . S
H438 C452 0.960 . S
H439 C452 0.960 . S
C440 H432 0.929 . S
C440 C441 1.377 . S
C440 C442 1.384 . S
C441 C440 1.377 . S
C441 C447 1.390 . S
C442 H433 0.930 . S
C442 C440 1.384 . S
C442 C443 1.372 . S
C443 C442 1.372 . S
C443 C444 1.400 . S
C443 C448 1.490 . S
C444 H434 0.930 . S
C444 C443 1.400 . S
C444 C447 1.386 . S
H445 C461 0.930 . S
H446 C462 0.931 . S
C447 H435 0.929 . S
C447 C441 1.390 . S
C447 C444 1.386 . S
C448 C443 1.490 . S
C448 C450 1.395 . S
C448 C451 1.403 . S
H449 C455 0.930 . S
C450 H436 0.930 . S
C450 C448 1.395 . S
C450 C453 1.403 . S
C451 C448 1.403 . S
C451 C452 1.524 . S
C451 C455 1.400 . S
C452 H437 0.960 . S
C452 H438 0.960 . S
C452 H439 0.960 . S
C452 C451 1.524 . S
C453 C450 1.403 . S
C453 C454 1.392 . S
C453 C457 1.495 . S
C454 C453 1.392 . S
C454 C455 1.385 . S
C454 C456 1.478 . S
C455 H449 0.930 . S
C455 C451 1.400 . S
C455 C454 1.385 . S
C456 C454 1.478 . S
C456 C458 1.381 . S
C456 C462 1.383 . S
C457 C453 1.495 . S
C457 H463 0.959 . S
C457 H464 0.961 . S
C457 H465 0.960 . S
C458 C456 1.381 . S
C458 C459 1.394 . S
C458 H466 0.930 . S
C459 C458 1.394 . S
C459 C460 1.383 . S
C459 H467 0.929 . S
C460 C459 1.383 . S
C460 C461 1.377 . S
C461 H445 0.930 . S
C461 C460 1.377 . S
C461 C462 1.379 . S
C462 H446 0.931 . S
C462 C456 1.383 . S
C462 C461 1.379 . S
H463 C457 0.959 . S
H464 C457 0.961 . S
H465 C457 0.960 . S
H466 C458 0.930 . S
H467 C459 0.929 . S
H468 C476 0.929 . S
H469 C478 0.930 . S
H470 C480 0.930 . S
H471 C483 0.929 . S
H472 C486 0.930 . S
H473 C488 0.960 . S
H474 C488 0.960 . S
H475 C488 0.960 . S
C476 H468 0.929 . S
C476 C477 1.377 . S
C476 C478 1.384 . S
C477 C476 1.377 . S
C477 C483 1.390 . S
C478 H469 0.930 . S
C478 C476 1.384 . S
C478 C479 1.372 . S
C479 C478 1.372 . S
C479 C480 1.400 . S
C479 C484 1.490 . S
C480 H470 0.930 . S
C480 C479 1.400 . S
C480 C483 1.386 . S
H481 C497 0.930 . S
H482 C498 0.931 . S
C483 H471 0.929 . S
C483 C477 1.390 . S
C483 C480 1.386 . S
C484 C479 1.490 . S
C484 C486 1.395 . S
C484 C487 1.403 . S
H485 C491 0.930 . S
C486 H472 0.930 . S
C486 C484 1.395 . S
C486 C489 1.403 . S
C487 C484 1.403 . S
C487 C488 1.524 . S
C487 C491 1.400 . S
C488 H473 0.960 . S
C488 H474 0.960 . S
C488 H475 0.960 . S
C488 C487 1.524 . S
C489 C486 1.403 . S
C489 C490 1.392 . S
C489 C493 1.495 . S
C490 C489 1.392 . S
C490 C491 1.385 . S
C490 C492 1.478 . S
C491 H485 0.930 . S
C491 C487 1.400 . S
C491 C490 1.385 . S
C492 C490 1.478 . S
C492 C494 1.381 . S
C492 C498 1.383 . S
C493 C489 1.495 . S
C493 H499 0.959 . S
C493 H500 0.961 . S
C493 H501 0.960 . S
C494 C492 1.381 . S
C494 C495 1.394 . S
C494 H502 0.930 . S
C495 C494 1.394 . S
C495 C496 1.383 . S
C495 H503 0.929 . S
C496 C495 1.383 . S
C496 C497 1.377 . S
C497 H481 0.930 . S
C497 C496 1.377 . S
C497 C498 1.379 . S
C498 H482 0.931 . S
C498 C492 1.383 . S
C498 C497 1.379 . S
H499 C493 0.959 . S
H500 C493 0.961 . S
H501 C493 0.960 . S
H502 C494 0.930 . S
H503 C495 0.929 . S
H504 C512 0.929 . S
H505 C514 0.930 . S
H506 C516 0.930 . S
H507 C519 0.929 . S
H508 C522 0.930 . S
H509 C524 0.960 . S
H510 C524 0.960 . S
H511 C524 0.960 . S
C512 H504 0.929 . S
C512 C513 1.377 . S
C512 C514 1.384 . S
C513 C512 1.377 . S
C513 C519 1.390 . S
C514 H505 0.930 . S
C514 C512 1.384 . S
C514 C515 1.372 . S
C515 C514 1.372 . S
C515 C516 1.400 . S
C515 C520 1.490 . S
C516 H506 0.930 . S
C516 C515 1.400 . S
C516 C519 1.386 . S
H517 C533 0.930 . S
H518 C534 0.931 . S
C519 H507 0.929 . S
C519 C513 1.390 . S
C519 C516 1.386 . S
C520 C515 1.490 . S
C520 C522 1.395 . S
C520 C523 1.403 . S
H521 C527 0.930 . S
C522 H508 0.930 . S
C522 C520 1.395 . S
C522 C525 1.403 . S
C523 C520 1.403 . S
C523 C524 1.524 . S
C523 C527 1.400 . S
C524 H509 0.960 . S
C524 H510 0.960 . S
C524 H511 0.960 . S
C524 C523 1.524 . S
C525 C522 1.403 . S
C525 C526 1.392 . S
C525 C529 1.495 . S
C526 C525 1.392 . S
C526 C527 1.385 . S
C526 C528 1.478 . S
C527 H521 0.930 . S
C527 C523 1.400 . S
C527 C526 1.385 . S
C528 C526 1.478 . S
C528 C530 1.381 . S
C528 C534 1.383 . S
C529 C525 1.495 . S
C529 H535 0.959 . S
C529 H536 0.961 . S
C529 H537 0.960 . S
C530 C528 1.381 . S
C530 C531 1.394 . S
C530 H538 0.930 . S
C531 C530 1.394 . S
C531 C532 1.383 . S
C531 H539 0.929 . S
C532 C531 1.383 . S
C532 C533 1.377 . S
C533 H517 0.930 . S
C533 C532 1.377 . S
C533 C534 1.379 . S
C534 H518 0.931 . S
C534 C528 1.383 . S
C534 C533 1.379 . S
H535 C529 0.959 . S
H536 C529 0.961 . S
H537 C529 0.960 . S
H538 C530 0.930 . S
H539 C531 0.929 . S
H540 C548 0.929 . S
H541 C550 0.930 . S
H542 C552 0.930 . S
H543 C555 0.929 . S
H544 C558 0.930 . S
H545 C560 0.960 . S
H546 C560 0.960 . S
H547 C560 0.960 . S
C548 H540 0.929 . S
C548 C549 1.377 . S
C548 C550 1.384 . S
C549 C548 1.377 . S
C549 C555 1.390 . S
C550 H541 0.930 . S
C550 C548 1.384 . S
C550 C551 1.372 . S
C551 C550 1.372 . S
C551 C552 1.400 . S
C551 C556 1.490 . S
C552 H542 0.930 . S
C552 C551 1.400 . S
C552 C555 1.386 . S
H553 C569 0.930 . S
H554 C570 0.931 . S
C555 H543 0.929 . S
C555 C549 1.390 . S
C555 C552 1.386 . S
C556 C551 1.490 . S
C556 C558 1.395 . S
C556 C559 1.403 . S
H557 C563 0.930 . S
C558 H544 0.930 . S
C558 C556 1.395 . S
C558 C561 1.403 . S
C559 C556 1.403 . S
C559 C560 1.524 . S
C559 C563 1.400 . S
C560 H545 0.960 . S
C560 H546 0.960 . S
C560 H547 0.960 . S
C560 C559 1.524 . S
C561 C558 1.403 . S
C561 C562 1.392 . S
C561 C565 1.495 . S
C562 C561 1.392 . S
C562 C563 1.385 . S
C562 C564 1.478 . S
C563 H557 0.930 . S
C563 C559 1.400 . S
C563 C562 1.385 . S
C564 C562 1.478 . S
C564 C566 1.381 . S
C564 C570 1.383 . S
C565 C561 1.495 . S
C565 H571 0.959 . S
C565 H572 0.961 . S
C565 H573 0.960 . S
C566 C564 1.381 . S
C566 C567 1.394 . S
C566 H574 0.930 . S
C567 C566 1.394 . S
C567 C568 1.383 . S
C567 H575 0.929 . S
C568 C567 1.383 . S
C568 C569 1.377 . S
C569 H553 0.930 . S
C569 C568 1.377 . S
C569 C570 1.379 . S
C570 H554 0.931 . S
C570 C564 1.383 . S
C570 C569 1.379 . S
H571 C565 0.959 . S
H572 C565 0.961 . S
H573 C565 0.960 . S
H574 C566 0.930 . S
H575 C567 0.929 . S
H576 C584 0.929 . S
H577 C586 0.930 . S
H578 C588 0.930 . S
H579 C591 0.929 . S
H580 C594 0.930 . S
H581 C596 0.960 . S
H582 C596 0.960 . S
H583 C596 0.960 . S
C584 H576 0.929 . S
C584 C585 1.377 . S
C584 C586 1.384 . S
C585 C584 1.377 . S
C585 C591 1.390 . S
C586 H577 0.930 . S
C586 C584 1.384 . S
C586 C587 1.372 . S
C587 C586 1.372 . S
C587 C588 1.400 . S
C587 C592 1.490 . S
C588 H578 0.930 . S
C588 C587 1.400 . S
C588 C591 1.386 . S
H589 C605 0.930 . S
H590 C606 0.931 . S
C591 H579 0.929 . S
C591 C585 1.390 . S
C591 C588 1.386 . S
C592 C587 1.490 . S
C592 C594 1.395 . S
C592 C595 1.403 . S
H593 C599 0.930 . S
C594 H580 0.930 . S
C594 C592 1.395 . S
C594 C597 1.403 . S
C595 C592 1.403 . S
C595 C596 1.524 . S
C595 C599 1.400 . S
C596 H581 0.960 . S
C596 H582 0.960 . S
C596 H583 0.960 . S
C596 C595 1.524 . S
C597 C594 1.403 . S
C597 C598 1.392 . S
C597 C601 1.489 1_556 S
C598 C597 1.392 . S
C598 C599 1.385 . S
C598 C600 1.478 . S
C599 H593 0.930 . S
C599 C595 1.400 . S
C599 C598 1.385 . S
C600 C598 1.478 . S
C600 C602 1.381 . S
C600 C606 1.383 1_556 S
C601 C597 1.489 1_554 S
C601 H607 0.959 . S
C601 H608 0.969 . S
C601 H609 0.959 1_554 S
C602 C600 1.381 . S
C602 C603 1.394 1_556 S
C602 H610 0.930 . S
C603 C602 1.394 1_554 S
C603 C604 1.383 . S
C603 H611 0.929 . S
C604 C603 1.383 . S
C604 C605 1.377 . S
C605 H589 0.930 . S
C605 C604 1.377 . S
C605 C606 1.379 . S
C606 H590 0.931 . S
C606 C600 1.383 1_554 S
C606 C605 1.379 . S
H607 C601 0.959 . S
H608 C601 0.969 . S
H609 C601 0.959 1_556 S
H610 C602 0.930 . S
H611 C603 0.929 . S
H612 C620 0.929 . S
H613 C622 0.930 . S
H614 C624 0.930 . S
H615 C627 0.929 . S
H616 C630 0.930 . S
H617 C632 0.960 . S
H618 C632 0.960 . S
H619 C632 0.960 . S
C620 H612 0.929 . S
C620 C621 1.377 . S
C620 C622 1.384 . S
C621 C620 1.377 . S
C621 C627 1.390 1_556 S
C622 H613 0.930 . S
C622 C620 1.384 . S
C622 C623 1.372 1_556 S
C623 C622 1.372 1_554 S
C623 C624 1.400 . S
C623 C628 1.490 . S
C624 H614 0.930 . S
C624 C623 1.400 . S
C624 C627 1.386 . S
H625 C641 0.930 . S
H626 C642 0.931 . S
C627 H615 0.929 . S
C627 C621 1.390 1_554 S
C627 C624 1.386 . S
C628 C623 1.490 . S
C628 C630 1.395 . S
C628 C631 1.403 . S
H629 C635 0.930 . S
C630 H616 0.930 . S
C630 C628 1.395 . S
C630 C633 1.403 . S
C631 C628 1.403 . S
C631 C632 1.524 . S
C631 C635 1.400 . S
C632 H617 0.960 . S
C632 H618 0.960 . S
C632 H619 0.960 . S
C632 C631 1.524 . S
C633 C630 1.403 . S
C633 C634 1.392 . S
C633 C637 1.495 . S
C634 C633 1.392 . S
C634 C635 1.385 . S
C634 C636 1.478 . S
C635 H629 0.930 . S
C635 C631 1.400 . S
C635 C634 1.385 . S
C636 C634 1.478 . S
C636 C638 1.381 . S
C636 C642 1.383 . S
C637 C633 1.495 . S
C637 H643 0.959 1_554 S
C637 H644 0.961 . S
C637 H645 0.960 . S
C638 C636 1.381 . S
C638 C639 1.394 . S
C638 H646 0.930 . S
C639 C638 1.394 . S
C639 C640 1.383 . S
C639 H647 0.929 . S
C640 C639 1.383 . S
C640 C641 1.377 . S
C641 H625 0.930 . S
C641 C640 1.377 . S
C641 C642 1.379 . S
C642 H626 0.931 . S
C642 C636 1.383 . S
C642 C641 1.379 . S
H643 C637 0.959 1_556 S
H644 C637 0.961 . S
H645 C637 0.960 . S
H646 C638 0.930 . S
H647 C639 0.929 . S
C225 C4 1.141 1_556 S
C244 C122 1.116 . S
C261 C158 1.144 . S
C280 C40 1.131 . S
C297 C76 1.145 . S
C316 C194 1.134 1_554 S
C333 C112 1.143 . S
C352 C14 1.124 . S
C369 C50 1.153 . S
C388 C148 1.174 . S
C405 C184 1.146 . S
C424 C86 1.142 . S
C441 C3 1.142 . S
C460 C74 1.148 . S
C477 C39 1.148 . S
C496 C110 1.097 . S
C513 C146 1.132 . S
C532 C75 1.127 . S
C549 C182 1.121 . S
C568 C111 1.159 . S
C585 C147 1.146 . S
C604 C2 1.124 . S
C621 C183 1.147 . S
C640 C38 1.100 . S
