# Generated by pormake.
# Topology fna, (5)-cn, num edge types: 1
# Building blocks:
#     Node 0, Type 0, BuildingBlock: XOMCOT_clean_sbu_0, # of connection points: 5
#     Node 1, Type 0, BuildingBlock: XOMCOT_clean_sbu_0, # of connection points: 5
#     Node 2, Type 0, BuildingBlock: XOMCOT_clean_sbu_0, # of connection points: 5
#     Node 3, Type 0, BuildingBlock: XOMCOT_clean_sbu_0, # of connection points: 5
#     Node 4, Type 0, BuildingBlock: XOMCOT_clean_sbu_0, # of connection points: 5
#     Node 5, Type 0, BuildingBlock: XOMCOT_clean_sbu_0, # of connection points: 5
#     Node 6, Type 0, BuildingBlock: XOMCOT_clean_sbu_0, # of connection points: 5
#     Node 7, Type 0, BuildingBlock: XOMCOT_clean_sbu_0, # of connection points: 5
#     Node 8, Type 0, BuildingBlock: XOMCOT_clean_sbu_0, # of connection points: 5
#     Node 9, Type 0, BuildingBlock: XOMCOT_clean_sbu_0, # of connection points: 5
#     Node 10, Type 0, BuildingBlock: XOMCOT_clean_sbu_0, # of connection points: 5
#     Node 11, Type 0, BuildingBlock: XOMCOT_clean_sbu_0, # of connection points: 5
#     Edge 12, Type (0, 0), BuildingBlock: OJICUG_clean_linker_0, # of connection points: 2
#     Edge 13, Type (0, 0), BuildingBlock: OJICUG_clean_linker_0, # of connection points: 2
#     Edge 14, Type (0, 0), BuildingBlock: OJICUG_clean_linker_0, # of connection points: 2
#     Edge 15, Type (0, 0), BuildingBlock: OJICUG_clean_linker_0, # of connection points: 2
#     Edge 16, Type (0, 0), BuildingBlock: OJICUG_clean_linker_0, # of connection points: 2
#     Edge 17, Type (0, 0), BuildingBlock: OJICUG_clean_linker_0, # of connection points: 2
#     Edge 18, Type (0, 0), BuildingBlock: OJICUG_clean_linker_0, # of connection points: 2
#     Edge 19, Type (0, 0), BuildingBlock: OJICUG_clean_linker_0, # of connection points: 2
#     Edge 20, Type (0, 0), BuildingBlock: OJICUG_clean_linker_0, # of connection points: 2
#     Edge 21, Type (0, 0), BuildingBlock: OJICUG_clean_linker_0, # of connection points: 2
#     Edge 22, Type (0, 0), BuildingBlock: OJICUG_clean_linker_0, # of connection points: 2
#     Edge 23, Type (0, 0), BuildingBlock: OJICUG_clean_linker_0, # of connection points: 2
#     Edge 24, Type (0, 0), BuildingBlock: OJICUG_clean_linker_0, # of connection points: 2
#     Edge 25, Type (0, 0), BuildingBlock: OJICUG_clean_linker_0, # of connection points: 2
#     Edge 26, Type (0, 0), BuildingBlock: OJICUG_clean_linker_0, # of connection points: 2
#     Edge 27, Type (0, 0), BuildingBlock: OJICUG_clean_linker_0, # of connection points: 2
#     Edge 28, Type (0, 0), BuildingBlock: OJICUG_clean_linker_0, # of connection points: 2
#     Edge 29, Type (0, 0), BuildingBlock: OJICUG_clean_linker_0, # of connection points: 2
#     Edge 30, Type (0, 0), BuildingBlock: OJICUG_clean_linker_0, # of connection points: 2
#     Edge 31, Type (0, 0), BuildingBlock: OJICUG_clean_linker_0, # of connection points: 2
#     Edge 32, Type (0, 0), BuildingBlock: OJICUG_clean_linker_0, # of connection points: 2
#     Edge 33, Type (0, 0), BuildingBlock: OJICUG_clean_linker_0, # of connection points: 2
#     Edge 34, Type (0, 0), BuildingBlock: OJICUG_clean_linker_0, # of connection points: 2
#     Edge 35, Type (0, 0), BuildingBlock: OJICUG_clean_linker_0, # of connection points: 2
#     Edge 36, Type (0, 0), BuildingBlock: OJICUG_clean_linker_0, # of connection points: 2
#     Edge 37, Type (0, 0), BuildingBlock: OJICUG_clean_linker_0, # of connection points: 2
#     Edge 38, Type (0, 0), BuildingBlock: OJICUG_clean_linker_0, # of connection points: 2
#     Edge 39, Type (0, 0), BuildingBlock: OJICUG_clean_linker_0, # of connection points: 2
#     Edge 40, Type (0, 0), BuildingBlock: OJICUG_clean_linker_0, # of connection points: 2
#     Edge 41, Type (0, 0), BuildingBlock: OJICUG_clean_linker_0, # of connection points: 2
# Relax obj value: 0.322
# Max RMSD: 0.213
# Mean RMSD: 0.213
data_MOF--net-fna--node1-XOMCOT_clean_sbu_0--edge1-OJICUG_clean_linker_0
_symmetry_space_group_name_H-M    P1
_symmetry_Int_Tables_number       1
_symmetry_cell_setting            triclinic
loop_
_symmetry_equiv_pos_as_xyz
'x, y, z'
_cell_length_a     34.3131
_cell_length_b     34.327286
_cell_length_c     35.768685
_cell_angle_alpha  90.076737
_cell_angle_beta   90.002242
_cell_angle_gamma 119.95273
loop_
_atom_site_label
_atom_site_type_symbol
_atom_site_fract_x
_atom_site_fract_y
_atom_site_fract_z
_atom_type_partial_charge
Co0 Co 0.34722 0.28773 0.48759 0.0
C1 C 0.33266 0.21978 0.42934 0.0
C2 C 0.30589 0.26149 0.41226 0.0
C3 C 0.30141 0.23316 0.38304 0.0
N4 N 0.3253 0.25297 0.44147 0.0
N5 N 0.31837 0.20692 0.39377 0.0
H6 H 0.34994 0.20653 0.44556 0.0
H7 H 0.2971 0.28759 0.41155 0.0
C8 C 0.27396 0.31898 0.47857 0.0
O9 O 0.28925 0.34836 0.4512 0.0
N10 N 0.37084 0.32239 0.5326 0.0
C11 C 0.41507 0.34811 0.54 0.0
C12 C 0.42016 0.3635 0.57595 0.0
C13 C 0.3494 0.32177 0.56429 0.0
N14 N 0.37896 0.34696 0.59124 0.0
C15 C 0.42002 0.33988 0.43858 0.0
C16 C 0.42546 0.42145 0.45394 0.0
C17 C 0.46144 0.42148 0.43513 0.0
C18 C 0.45751 0.37966 0.42647 0.0
C19 C 0.38907 0.38097 0.46621 0.0
N20 N 0.38722 0.341 0.4592 0.0
H21 H 0.41899 0.30825 0.43395 0.0
H22 H 0.36459 0.38226 0.48432 0.0
H23 H 0.44187 0.35387 0.52091 0.0
H24 H 0.31326 0.3026 0.56772 0.0
O25 O 0.38673 0.26307 0.49794 0.0
O26 O 0.31594 0.23452 0.51651 0.0
O27 O 0.29532 0.29945 0.4894 0.0
C28 C 0.35292 0.23316 0.51769 0.0
H29 H 0.28707 0.23233 0.3559 0.0
H30 H 0.45187 0.38368 0.59023 0.0
H31 H 0.4262 0.45253 0.4608 0.0
H32 H 0.48435 0.37745 0.41256 0.0
Co33 Co 0.06976 0.32918 0.65475 0.0
C34 C 0.11486 0.31623 0.58875 0.0
C35 C 0.07004 0.25399 0.61576 0.0
C36 C 0.09396 0.246 0.58896 0.0
N37 N 0.08234 0.29789 0.61529 0.0
N38 N 0.12264 0.28524 0.57214 0.0
H39 H 0.13527 0.3519 0.58394 0.0
H40 H 0.04732 0.22985 0.6359 0.0
C41 C 0.97427 0.25047 0.63734 0.0
O42 O 0.98346 0.24224 0.60362 0.0
N43 N 0.05921 0.36093 0.69428 0.0
C44 C 0.07941 0.40587 0.69876 0.0
C45 C 0.072 0.41492 0.73459 0.0
C46 C 0.04006 0.34329 0.72743 0.0
N47 N 0.04768 0.37555 0.75269 0.0
C48 C 0.10433 0.40768 0.6091 0.0
C49 C 0.02267 0.40291 0.59648 0.0
C50 C 0.06227 0.44404 0.59036 0.0
C51 C 0.10351 0.44528 0.59514 0.0
C52 C 0.02497 0.36633 0.61105 0.0
N53 N 0.06551 0.3697 0.61893 0.0
H54 H 0.13654 0.41111 0.61586 0.0
H55 H 0.99385 0.3368 0.61841 0.0
H56 H 0.10123 0.43066 0.67877 0.0
H57 H 0.02344 0.3077 0.73346 0.0
O58 O 0.13362 0.36274 0.66805 0.0
O59 O 0.08288 0.29704 0.69129 0.0
O60 O 1.00298 0.28486 0.65564 0.0
C61 C 0.12348 0.33077 0.69242 0.0
H62 H 0.09188 0.21397 0.5837 0.0
H63 H 0.0864 0.448 0.74706 0.0
H64 H 0.98991 0.39949 0.59191 0.0
H65 H 0.1352 0.476 0.59112 0.0
Co66 Co 0.75236 0.06699 0.82209 0.0
C67 C 0.81653 0.11681 0.76054 0.0
C68 C 0.78143 0.0459 0.75017 0.0
C69 C 0.80952 0.06746 0.72029 0.0
N70 N 0.78592 0.07685 0.77558 0.0
N71 N 0.83165 0.11227 0.72668 0.0
H72 H 0.82659 0.14876 0.77368 0.0
H73 H 0.75886 1.01015 0.75265 0.0
C74 C 0.71549 0.96271 0.81785 0.0
O75 O 0.68243 0.95161 0.79408 0.0
N76 N 0.71975 0.05904 0.86782 0.0
C77 C 0.69697 0.08045 0.87637 0.0
C78 C 0.67924 0.06773 0.91148 0.0
C79 C 0.7163 0.03411 0.89789 0.0
N80 N 0.69137 0.03863 0.92489 0.0
C81 C 0.69821 0.07826 0.76684 0.0
C82 C 0.61648 1.01384 0.79585 0.0
C83 C 0.61669 0.04358 0.76882 0.0
C84 C 0.6584 0.07481 0.75312 0.0
C85 C 0.65684 0.01754 0.80792 0.0
N86 N 0.69724 0.05047 0.79449 0.0
H87 H 0.72997 0.10519 0.75681 0.0
H88 H 0.6556 0.99634 0.83072 0.0
H89 H 0.69371 0.10386 0.85824 0.0
H90 H 0.73166 1.01328 0.89994 0.0
O91 O 0.77582 0.13151 0.82893 0.0
O92 O 0.80686 0.0924 0.84988 0.0
O93 O 0.7419 1.0037 0.82695 0.0
C94 C 0.80689 0.13013 0.84913 0.0
H95 H 0.81319 0.05102 0.69584 0.0
H96 H 0.65996 0.07989 0.92636 0.0
H97 H 0.58583 0.98964 0.80968 0.0
H98 H 0.66077 0.09784 0.73144 0.0
Co99 Co 0.69944 0.7393 0.99102 0.0
C100 C 0.7074 0.8032 0.93075 0.0
C101 C 0.7677 0.79953 0.93647 0.0
C102 C 0.77465 0.83107 0.90962 0.0
N103 N 0.72544 0.78172 0.94971 0.0
N104 N 0.73677 0.83346 0.90597 0.0
H105 H 0.67438 0.79861 0.9362 0.0
H106 H 0.79266 0.79163 0.94637 0.0
C107 C 0.77443 0.70998 0.97703 0.0
O108 O 0.76702 0.69036 0.94419 0.0
N109 N 0.67293 0.69765 0.0319 0.0
C110 C 0.62856 0.66924 0.03668 0.0
C111 C 0.62152 0.65217 0.07221 0.0
C112 C 0.69231 0.6979 0.06471 0.0
N113 N 0.66152 0.67045 0.08995 0.0
C114 C 0.62367 0.69344 0.94251 0.0
C115 C 0.62391 0.61294 0.9414 0.0
C116 C 0.58565 0.61368 0.92898 0.0
C117 C 0.5862 0.65475 0.92858 0.0
C118 C 0.66019 0.65209 0.95597 0.0
N119 N 0.65941 0.69151 0.95719 0.0
H120 H 0.62195 0.72386 0.94482 0.0
H121 H 0.6864 0.64915 0.96987 0.0
H122 H 0.60263 0.66363 0.01672 0.0
H123 H 0.72775 0.71953 0.07045 0.0
O124 O 0.66189 0.76488 0.00608 0.0
O125 O 0.73097 0.78685 0.0257 0.0
O126 O 0.74926 0.7247 0.98921 0.0
C127 C 0.69497 0.78973 0.02887 0.0
H128 H 0.8056 0.8513 0.89438 0.0
H129 H 0.58903 0.6305 0.08478 0.0
H130 H 0.62422 0.58157 0.94284 0.0
H131 H 0.55697 0.65642 0.91944 0.0
Co132 Co 0.97569 0.6991 0.15535 0.0
C133 C 0.93307 0.71262 0.08798 0.0
C134 C 0.97506 0.77424 0.11712 0.0
C135 C 0.9509 0.78204 0.09048 0.0
N136 N 0.96462 0.73084 0.11535 0.0
N137 N 0.92407 0.74318 0.07235 0.0
H138 H 0.91368 0.67708 0.08213 0.0
H139 H 0.99627 0.79789 0.13828 0.0
C140 C 0.07057 0.77763 0.13898 0.0
O141 O 0.06067 0.78561 0.10546 0.0
N142 N 0.98462 0.66703 0.19542 0.0
C143 C 0.96346 0.62209 0.20015 0.0
C144 C 0.97166 0.61313 0.23575 0.0
C145 C 1.00505 0.68479 0.2282 0.0
N146 N 0.99744 0.65258 0.25344 0.0
C147 C 0.94117 0.62049 0.10976 0.0
C148 C 0.02242 0.62364 0.09878 0.0
C149 C 0.98243 0.58337 0.09183 0.0
C150 C 0.94153 0.58258 0.09601 0.0
C151 C 1.0206 0.66063 0.11321 0.0
N152 N 0.98018 0.65811 0.12008 0.0
H153 H 0.90904 0.61766 0.1157 0.0
H154 H 0.05178 0.68964 0.12143 0.0
H155 H 0.94086 0.59738 0.18037 0.0
H156 H 0.02306 0.72052 0.23393 0.0
O157 O 0.91152 0.66624 0.16677 0.0
O158 O 0.96186 0.73163 0.19123 0.0
O159 O 0.04268 0.74277 0.15715 0.0
C160 C 0.9208 0.69865 0.19048 0.0
H161 H 0.95097 0.81332 0.08644 0.0
H162 H 0.95706 0.58017 0.2484 0.0
H163 H 0.05471 0.62546 0.09581 0.0
H164 H 0.90993 0.5521 0.09063 0.0
Co165 Co 0.29128 0.96288 0.32305 0.0
C166 C 0.23225 0.91556 0.25826 0.0
C167 C 0.23396 0.9778 0.26863 0.0
C168 C 0.20491 0.95616 0.23927 0.0
N169 N 0.25224 0.95297 0.27998 0.0
N170 N 0.20377 0.91691 0.23282 0.0
H171 H 0.23682 0.88688 0.26191 0.0
H172 H 0.2389 1.00815 0.28195 0.0
C173 C 0.32049 0.0639 0.30959 0.0
O174 O 0.32565 0.06442 0.27317 0.0
N175 N 0.32895 0.97046 0.36537 0.0
C176 C 0.3551 0.95175 0.36962 0.0
C177 C 0.37256 0.96065 0.40515 0.0
C178 C 0.33008 0.98972 0.39833 0.0
N179 N 0.35666 0.98438 0.42317 0.0
C180 C 0.3404 0.94139 0.26965 0.0
C181 C 0.4223 0.01785 0.28298 0.0
C182 C 0.42174 0.98255 0.26264 0.0
C183 C 0.3796 0.94483 0.25458 0.0
C184 C 0.38222 1.01359 0.29663 0.0
N185 N 0.34202 0.9751 0.291 0.0
H186 H 0.30942 0.91009 0.26653 0.0
H187 H 0.38446 0.03945 0.31514 0.0
H188 H 0.35981 0.93162 0.34878 0.0
H189 H 0.31064 1.0059 0.40422 0.0
O190 O 0.26342 0.89789 0.33137 0.0
O191 O 0.24092 0.94298 0.35521 0.0
O192 O 0.30878 0.02817 0.32835 0.0
C193 C 0.2365 0.90333 0.35395 0.0
H194 H 0.18415 0.96722 0.22529 0.0
H195 H 0.39359 0.94873 0.41727 0.0
H196 H 0.45359 0.04733 0.29086 0.0
H197 H 0.37683 0.91696 0.23832 0.0
Co198 Co 0.75358 0.69971 0.34375 0.0
C199 C 0.81038 0.71191 0.41035 0.0
C200 C 0.82948 0.77424 0.3828 0.0
C201 C 0.86146 0.7815 0.40931 0.0
N202 N 0.79678 0.73073 0.38375 0.0
N203 N 0.84982 0.74217 0.42642 0.0
H204 H 0.79441 0.67622 0.41535 0.0
H205 H 0.83169 0.79843 0.36233 0.0
C206 C 0.73797 0.77867 0.36132 0.0
O207 O 0.7553 0.78591 0.39505 0.0
N208 N 0.71205 0.66808 0.30368 0.0
C209 C 0.68737 0.62313 0.29934 0.0
C210 C 0.66985 0.61388 0.26388 0.0
C211 C 0.70954 0.68558 0.2707 0.0
N212 N 0.68409 0.65312 0.24574 0.0
C213 C 0.70859 0.62136 0.38945 0.0
C214 C 0.63153 0.62641 0.40074 0.0
C215 C 0.63044 0.58578 0.40769 0.0
C216 C 0.67004 0.58401 0.40338 0.0
C217 C 0.67057 0.66279 0.38614 0.0
N218 N 0.70794 0.65934 0.37909 0.0
H219 H 0.73739 0.61774 0.38327 0.0
H220 H 0.6689 0.69204 0.37786 0.0
H221 H 0.68486 0.59846 0.31928 0.0
H222 H 0.72794 0.72119 0.26464 0.0
O223 O 0.78388 0.66589 0.3319 0.0
O224 O 0.7999 0.73175 0.30791 0.0
O225 O 0.73152 0.74436 0.34246 0.0
C226 C 0.80739 0.69837 0.30843 0.0
H227 H 0.89229 0.81292 0.41399 0.0
H228 H 0.65086 0.58071 0.25162 0.0
H229 H 0.60144 0.62892 0.40376 0.0
H230 H 0.67044 0.55314 0.40865 0.0
Co231 Co 0.07138 0.7387 0.5094 0.0
C232 C 0.12524 0.80548 0.56857 0.0
C233 C 0.05461 0.77442 0.57949 0.0
C234 C 0.07763 0.80314 0.60862 0.0
N235 N 0.08437 0.77595 0.55412 0.0
N236 N 0.1222 0.82269 0.60192 0.0
H237 H 0.15667 0.81321 0.55548 0.0
H238 H 1.01861 0.75337 0.57768 0.0
C239 C 0.96561 0.70478 0.51903 0.0
O240 O 0.95117 0.67705 0.54758 0.0
N241 N 0.06004 0.70156 0.46582 0.0
C242 C 0.07865 0.67563 0.45967 0.0
C243 C 0.06842 0.65885 0.42408 0.0
C244 C 0.0393 0.70093 0.4337 0.0
N245 N 0.04386 0.67484 0.40771 0.0
C246 C 0.09792 0.69083 0.55837 0.0
C247 C 1.02141 0.60785 0.54829 0.0
C248 C 0.05935 0.6098 0.56477 0.0
C249 C 0.09753 0.65202 0.5708 0.0
C250 C 0.02355 0.64731 0.53553 0.0
N251 N 0.06184 0.68796 0.5398 0.0
H252 H 0.12852 0.72289 0.56086 0.0
H253 H 0.99618 0.64441 0.51869 0.0
H254 H 0.10003 0.67093 0.47916 0.0
H255 H 0.02266 0.72025 0.42916 0.0
O256 O 0.13549 0.76593 0.49702 0.0
O257 O 0.08941 0.78968 0.47838 0.0
O258 O 1.00667 0.72363 0.50876 0.0
C259 C 0.12865 0.79322 0.47612 0.0
H260 H 0.06239 0.80911 0.63279 0.0
H261 H 0.08035 0.63851 0.41062 0.0
H262 H 0.99161 0.5758 0.54256 0.0
H263 H 0.12747 0.6548 0.58353 0.0
Co264 Co 0.33979 0.06254 0.67366 0.0
C265 C 0.32609 0.10721 0.74015 0.0
C266 C 0.26392 0.05823 0.71522 0.0
C267 C 0.25483 0.08116 0.74226 0.0
N268 N 0.30858 0.07387 0.71414 0.0
N269 N 0.29396 0.11219 0.75787 0.0
H270 H 0.36151 0.13031 0.74377 0.0
H271 H 0.23978 0.03407 0.6958 0.0
C272 C 0.2626 0.96529 0.68969 0.0
O273 O 0.25799 0.97148 0.72529 0.0
N274 N 0.37101 0.05283 0.6334 0.0
C275 C 0.41583 0.07177 0.62893 0.0
C276 C 0.42408 0.06173 0.59362 0.0
C277 C 0.35263 0.03201 0.601 0.0
N278 N 0.38426 0.03702 0.57608 0.0
C279 C 0.41419 0.09081 0.72389 0.0
C280 C 0.4139 1.0102 0.72245 0.0
C281 C 0.45193 0.04832 0.73685 0.0
C282 C 0.45049 0.0885 0.73914 0.0
C283 C 0.37766 1.0136 0.70863 0.0
N284 N 0.37866 0.0539 0.70822 0.0
H285 H 0.41693 0.12337 0.72157 0.0
H286 H 0.35119 0.98458 0.69474 0.0
H287 H 0.44085 0.09337 0.64905 0.0
H288 H 0.31691 0.0153 0.5954 0.0
O289 O 0.37558 0.12707 0.66298 0.0
O290 O 0.30938 0.07929 0.63845 0.0
O291 O 0.29353 0.99652 0.67025 0.0
C292 C 0.34403 0.11934 0.63866 0.0
H293 H 0.22208 0.07695 0.74849 0.0
H294 H 0.45688 0.07394 0.58113 0.0
H295 H 0.41309 0.97849 0.71911 0.0
H296 H 0.47824 0.11883 0.75069 0.0
Co297 Co 0.28711 0.3319 0.84562 0.0
C298 C 0.23076 0.32329 0.91148 0.0
C299 C 0.23264 0.26256 0.90214 0.0
C300 C 0.20278 0.2554 0.93074 0.0
N301 N 0.25048 0.3053 0.89009 0.0
N302 N 0.20169 0.29367 0.93661 0.0
H303 H 0.23482 0.35624 0.90701 0.0
H304 H 0.23867 0.23733 0.88979 0.0
C305 C 0.31828 0.25891 0.85344 0.0
O306 O 0.33828 0.26809 0.88618 0.0
N307 N 0.32276 0.35953 0.80188 0.0
C308 C 0.34755 0.40421 0.79633 0.0
C309 C 0.36338 0.41176 0.76042 0.0
C310 C 0.32321 0.3403 0.7692 0.0
N311 N 0.34805 0.37164 0.74335 0.0
C312 C 0.33872 0.40587 0.89439 0.0
C313 C 0.41972 0.4085 0.88354 0.0
C314 C 0.42013 0.4457 0.90046 0.0
C315 C 0.3785 0.44318 0.90677 0.0
C316 C 0.3792 0.37221 0.87086 0.0
N317 N 0.33938 0.3715 0.87577 0.0
H318 H 0.30792 0.40683 0.89667 0.0
H319 H 0.3807 0.3469 0.85409 0.0
H320 H 0.35222 0.42963 0.81655 0.0
H321 H 0.30497 0.30439 0.76431 0.0
O322 O 0.26021 0.36983 0.83763 0.0
O323 O 0.23487 0.30094 0.8154 0.0
O324 O 0.30153 0.28201 0.84061 0.0
C325 C 0.23148 0.33676 0.81658 0.0
H326 H 0.1822 0.22393 0.94517 0.0
H327 H 0.38302 0.44437 0.74744 0.0
H328 H 0.45061 0.40813 0.87841 0.0
H329 H 0.37651 0.47106 0.91882 0.0
Co330 Co 0.97078 0.2873 0.00828 0.0
C331 C 0.91451 0.21625 0.06387 0.0
C332 C 0.98196 0.25859 0.08326 0.0
C333 C 0.95714 0.2299 0.11177 0.0
N334 N 0.95541 0.25008 0.05306 0.0
N335 N 0.91461 0.20332 0.09968 0.0
H336 H 0.88468 0.20279 0.04662 0.0
H337 H 1.01648 0.28524 0.08527 0.0
C338 C 0.07435 0.31985 0.02246 0.0
O339 O 0.08499 0.34892 0.04987 0.0
N340 N 0.98442 0.32482 0.96468 0.0
C341 C 0.96644 0.35124 0.95818 0.0
C342 C 0.97802 0.36869 0.923 0.0
C343 C 1.00608 0.32574 0.93302 0.0
N344 N 1.00281 0.35265 0.90711 0.0
C345 C 0.94671 0.33684 0.05799 0.0
C346 C 0.02303 0.41922 0.04583 0.0
C347 C 0.98601 0.41838 0.06337 0.0
C348 C 0.94798 0.37613 0.07054 0.0
C349 C 1.0199 0.37938 0.03295 0.0
N350 N 0.98179 0.33895 0.03841 0.0
H351 H 0.91607 0.30494 0.06125 0.0
H352 H 0.04635 0.38176 0.01514 0.0
H353 H 0.9446 0.35589 0.97721 0.0
H354 H 0.02241 0.30606 0.92869 0.0
O355 O 0.90721 0.26251 0.99459 0.0
O356 O 0.95152 0.23618 0.97711 0.0
O357 O 0.03461 0.29902 0.00894 0.0
C358 C 0.91353 0.23507 0.97328 0.0
H359 H 0.96945 0.22917 0.13947 0.0
H360 H 0.96678 0.38949 0.9094 0.0
H361 H 0.05352 0.4506 0.04015 0.0
H362 H 0.91819 0.37331 0.0835 0.0
Co363 Co 0.69988 0.95898 0.17661 0.0
C364 C 0.71209 0.91532 0.2433 0.0
C365 C 0.77075 0.97945 0.23449 0.0
C366 C 0.77847 0.95871 0.2644 0.0
N367 N 0.72861 0.95259 0.22161 0.0
N368 N 0.74152 0.91821 0.26978 0.0
H369 H 0.67967 0.88567 0.23894 0.0
H370 H 0.79552 1.0106 0.22189 0.0
C371 C 0.76977 0.06117 0.18435 0.0
O372 O 0.76159 0.06515 0.21961 0.0
N373 N 0.6702 0.96279 0.13246 0.0
C374 C 0.62539 0.94329 0.12747 0.0
C375 C 0.61725 0.94942 0.091 0.0
C376 C 0.68875 0.97955 0.09907 0.0
N377 N 0.65714 0.97211 0.07327 0.0
C378 C 0.63234 0.94488 0.23073 0.0
C379 C 0.6223 0.0162 0.20759 0.0
C380 C 0.58961 0.98389 0.23141 0.0
C381 C 0.5965 0.94915 0.24441 0.0
C382 C 0.65842 1.01142 0.19546 0.0
N383 N 0.66217 0.97513 0.20587 0.0
H384 H 0.63389 0.91533 0.23809 0.0
H385 H 0.68062 0.03446 0.17454 0.0
H386 H 0.60039 0.92491 0.14867 0.0
H387 H 0.72448 0.99602 0.09373 0.0
O388 O 0.66114 0.89383 0.17271 0.0
O389 O 0.72903 0.9345 0.1477 0.0
O390 O 0.74846 0.02334 0.16768 0.0
C391 C 0.69289 0.89578 0.15124 0.0
H392 H 0.80989 0.97129 0.27941 0.0
H393 H 0.58452 0.93706 0.0783 0.0
H394 H 0.61861 0.04332 0.19608 0.0
H395 H 0.57324 0.92396 0.26365 0.0
C396 C 0.31273 0.1362 0.58278 0.0
C397 C 0.34889 0.15016 0.60783 0.0
H398 H 0.28701 0.15044 0.53368 0.0
C399 C 0.38937 0.19009 0.60022 0.0
H400 H 0.28118 0.10538 0.58721 0.0
C401 C 0.39272 0.21615 0.56869 0.0
C402 C 0.35573 0.20222 0.54449 0.0
H403 H 0.41806 0.20121 0.61863 0.0
H404 H 0.42319 0.24802 0.56427 0.0
C405 C 0.3162 0.16168 0.55159 0.0
C406 C 0.1919 0.37492 0.73341 0.0
C407 C 0.1523 0.33468 0.72453 0.0
H408 H 0.24812 0.40792 0.7712 0.0
C409 C 0.13683 0.29814 0.74926 0.0
H410 H 0.2041 0.40389 0.71525 0.0
C411 C 0.16084 0.30097 0.78134 0.0
C412 C 0.20113 0.3403 0.78967 0.0
H413 H 0.10614 0.2668 0.74373 0.0
H414 H 0.14889 0.27145 0.79888 0.0
C415 C 0.21632 0.37767 0.76587 0.0
C416 C 0.81976 0.18607 0.89994 0.0
C417 C 0.83641 0.16543 0.87567 0.0
H418 H 0.8307 0.2241 0.95086 0.0
C419 C 0.87825 0.16948 0.8832 0.0
H420 H 0.78687 0.18232 0.89519 0.0
C421 C 0.90207 0.19147 0.91512 0.0
C422 C 0.8851 0.21063 0.9406 0.0
H423 H 0.89161 0.15347 0.86524 0.0
H424 H 0.93393 0.19288 0.91986 0.0
C425 C 0.84419 0.20889 0.93221 0.0
C426 C 0.7266 0.83259 0.08748 0.0
C427 C 0.6909 0.81392 0.06161 0.0
H428 H 0.75381 0.87111 0.13726 0.0
C429 C 0.65193 0.81627 0.06931 0.0
H430 H 0.75687 0.83073 0.08312 0.0
C431 C 0.6501 0.83925 0.10131 0.0
C432 C 0.68703 0.85961 0.1259 0.0
H433 H 0.6236 0.8015 0.05027 0.0
H434 H 0.62123 0.84362 0.10546 0.0
C435 C 0.72465 0.85503 0.11909 0.0
C436 C 0.89688 0.73749 0.23503 0.0
C437 C 0.88904 0.69698 0.21885 0.0
H438 H 0.87786 0.76929 0.27666 0.0
C439 C 0.85519 0.65603 0.23361 0.0
H440 H 0.92308 0.76953 0.22445 0.0
C441 C 0.82968 0.65587 0.26437 0.0
C442 C 0.83762 0.69668 0.28022 0.0
H443 H 0.84922 0.62434 0.22203 0.0
H444 H 0.80315 0.62412 0.27506 0.0
C445 C 0.87135 0.73735 0.2652 0.0
C446 C 0.21736 0.83952 0.39905 0.0
C447 C 0.20695 0.87014 0.38195 0.0
H448 H 0.20128 0.79127 0.44345 0.0
C449 C 0.1723 0.87569 0.39695 0.0
H450 H 0.24473 0.83545 0.38855 0.0
C451 C 0.14916 0.8523 0.42859 0.0
C452 C 0.15926 0.82183 0.44614 0.0
H453 H 0.16372 0.89933 0.38475 0.0
H454 H 0.12279 0.85797 0.43911 0.0
C455 C 0.19345 0.81529 0.43098 0.0
C456 C 0.32507 0.13839 0.39001 0.0
C457 C 0.32132 0.17273 0.37201 0.0
H458 H 0.32881 0.07854 0.38469 0.0
C459 C 0.32005 0.17253 0.33253 0.0
H460 H 0.32577 0.13685 0.42018 0.0
C461 C 0.32149 0.13832 0.31184 0.0
C462 C 0.32399 0.10341 0.33016 0.0
H463 H 0.31783 0.1987 0.31754 0.0
H464 H 0.31944 0.1386 0.28164 0.0
C465 C 0.32647 0.10448 0.36947 0.0
C466 C 0.21433 0.33802 0.49887 0.0
C467 C 0.23289 0.30956 0.50013 0.0
H468 H 0.16466 0.35273 0.52092 0.0
C469 C 0.21342 0.27248 0.52452 0.0
H470 H 0.22856 0.36701 0.48059 0.0
C471 C 0.1772 0.2644 0.54741 0.0
C472 C 0.15904 0.29315 0.54694 0.0
H473 H 0.22663 0.24972 0.52645 0.0
H474 H 0.16436 0.23611 0.56633 0.0
C475 C 0.17794 0.33004 0.5222 0.0
C476 C 0.87184 0.13908 0.66553 0.0
C477 C 0.86473 0.14775 0.7028 0.0
H478 H 0.91125 0.16439 0.61546 0.0
C479 C 0.8915 0.19183 0.71652 0.0
H480 H 0.85172 0.10606 0.65336 0.0
C481 C 0.92505 0.22545 0.69442 0.0
C482 C 0.93351 0.21629 0.65786 0.0
H483 H 0.88778 0.20053 0.74481 0.0
H484 H 0.94542 0.25848 0.70664 0.0
C485 C 0.9058 0.17283 0.64342 0.0
C486 C 0.68431 0.8841 0.84398 0.0
C487 C 0.72094 0.92758 0.8378 0.0
H488 H 0.66041 0.82017 0.87117 0.0
C489 C 0.76269 0.93891 0.85393 0.0
H490 H 0.65156 0.87443 0.83237 0.0
C491 C 0.76774 0.90795 0.87578 0.0
C492 C 0.73106 0.86484 0.88275 0.0
H493 H 0.79159 0.97211 0.84999 0.0
H494 H 0.8003 0.91826 0.88807 0.0
C495 C 0.68922 0.8532 0.86654 0.0
C496 C 0.83725 0.69469 0.99508 0.0
C497 C 0.81377 0.71816 0.00049 0.0
H498 H 0.89074 0.68392 0.01419 0.0
C499 C 0.82761 0.74988 0.02969 0.0
H500 H 0.82737 0.66992 0.973 0.0
C501 C 0.86374 0.75808 0.05273 0.0
C502 C 0.88713 0.73459 0.0477 0.0
H503 H 0.81053 0.76871 0.03487 0.0
H504 H 0.87278 0.78236 0.07509 0.0
C505 C 0.87333 0.70253 0.01873 0.0
C506 C 0.15646 0.8362 0.21628 0.0
C507 C 0.17438 0.88182 0.20707 0.0
H508 H 0.11008 0.76764 0.20192 0.0
C509 C 0.16136 0.89252 0.17303 0.0
H510 H 0.16542 0.82667 0.24233 0.0
C511 C 0.12996 0.85855 0.14948 0.0
C512 C 0.11027 0.81302 0.15968 0.0
H513 H 0.17492 0.92729 0.16492 0.0
H514 H 0.11947 0.86814 0.12422 0.0
C515 C 0.12463 0.8023 0.19305 0.0
C516 C 0.88751 0.68844 0.49975 0.0
C517 C 0.93465 0.71467 0.49692 0.0
H518 H 0.82338 0.67649 0.47935 0.0
C519 C 0.95288 0.7504 0.47115 0.0
H520 H 0.87229 0.66056 0.51915 0.0
C521 C 0.92513 0.75951 0.44868 0.0
C522 C 0.87804 0.73311 0.45094 0.0
H523 H 0.98895 0.77143 0.46799 0.0
H524 H 0.94086 0.78673 0.42878 0.0
C525 C 0.8595 0.69739 0.47681 0.0
C526 C 0.18572 0.89558 0.68493 0.0
C527 C 0.22811 0.92456 0.66929 0.0
H528 H 0.11915 0.84034 0.67623 0.0
C529 C 0.23584 0.91715 0.63193 0.0
H530 H 0.17846 0.90016 0.71354 0.0
C531 C 0.20167 0.88333 0.61027 0.0
C532 C 0.15857 0.85551 0.62526 0.0
H533 H 0.26812 0.93841 0.61888 0.0
H534 H 0.20887 0.8802 0.58135 0.0
C535 C 0.15143 0.86151 0.66323 0.0
C536 C 0.27786 0.20193 0.80327 0.0
C537 C 0.31218 0.2199 0.83043 0.0
H538 H 0.24537 0.15431 0.75931 0.0
C539 C 0.34041 0.20123 0.83374 0.0
H540 H 0.25534 0.21524 0.79979 0.0
C541 C 0.3348 0.16604 0.80984 0.0
C542 C 0.30026 0.14823 0.78279 0.0
H543 H 0.36729 0.21438 0.85418 0.0
H544 H 0.35717 0.15249 0.81265 0.0
C545 C 0.27185 0.1666 0.78007 0.0
C546 C 0.1538 0.34734 0.00014 0.0
C547 C 0.109 0.31246 0.00398 0.0
H548 H 0.21842 0.36885 0.97499 0.0
C549 C 0.09605 0.27087 0.98671 0.0
H550 H 0.16469 0.37988 0.01275 0.0
C551 C 0.12678 0.26442 0.96569 0.0
C552 C 0.17112 0.29967 0.96062 0.0
H553 H 0.06176 0.24334 0.98898 0.0
H554 H 0.11532 0.23225 0.95221 0.0
C555 C 0.18441 0.34116 0.97829 0.0
C556 C 0.84049 0.13755 0.18112 0.0
C557 C 0.80565 0.09987 0.16302 0.0
H558 H 0.9024 0.2 0.17529 0.0
C559 C 0.80645 0.09808 0.12366 0.0
H560 H 0.84102 0.14015 0.21131 0.0
C561 C 0.84149 0.13225 0.10301 0.0
C562 C 0.87713 0.16924 0.12104 0.0
H563 H 0.7801 0.06992 0.1086 0.0
H564 H 0.84124 0.12901 0.0729 0.0
C565 C 0.87592 0.17169 0.16041 0.0
C566 C 0.76009 0.89359 0.32927 0.0
C567 C 0.73673 0.88307 0.29502 0.0
H568 H 0.77789 0.8689 0.37772 0.0
C569 C 0.71005 0.83751 0.28507 0.0
H570 H 0.78052 0.92827 0.33797 0.0
C571 C 0.70847 0.80358 0.30778 0.0
C572 C 0.73319 0.8141 0.34132 0.0
H573 H 0.69192 0.828 0.25884 0.0
H574 H 0.68904 0.76904 0.29833 0.0
C575 C 0.75812 0.85949 0.35228 0.0
C576 C 0.51917 0.50172 0.45164 0.0
C577 C 0.50404 0.46451 0.42728 0.0
H578 H 0.5708 0.5693 0.4644 0.0
C579 C 0.53115 0.46824 0.3964 0.0
H580 H 0.50009 0.50015 0.47624 0.0
C581 C 0.57239 0.5074 0.39056 0.0
C582 C 0.58722 0.54418 0.41496 0.0
H583 H 0.52055 0.44101 0.3765 0.0
H584 H 0.5925 0.50923 0.36655 0.0
C585 C 0.56002 0.54128 0.44525 0.0
C586 C 0.09472 0.52138 0.56152 0.0
C587 C 0.06073 0.4861 0.58255 0.0
H588 H 0.12118 0.58821 0.54004 0.0
C589 C 0.02644 0.49244 0.598 0.0
H590 H 0.12127 0.5178 0.54858 0.0
C591 C 0.02605 0.53257 0.5924 0.0
C592 C 0.06042 0.5678 0.57197 0.0
H593 H 1.00025 0.46681 0.61518 0.0
H594 H 0.99918 0.53636 0.60452 0.0
C595 C 0.09475 0.56184 0.55659 0.0
C596 C 0.5318 1.00542 0.76319 0.0
C597 C 0.5744 0.04427 0.75952 0.0
H598 H 0.46052 0.97649 0.76139 0.0
C599 C 0.57602 0.08452 0.74882 0.0
H600 H 0.52858 0.97342 0.7707 0.0
C601 C 0.53662 0.08577 0.74163 0.0
C602 C 0.494 0.04714 0.74598 0.0
H603 H 0.60771 0.1156 0.74639 0.0
H604 H 0.54002 0.11722 0.73215 0.0
C605 C 0.49233 1.007 0.75714 0.0
C606 C 0.5056 0.5582 0.94368 0.0
C607 C 0.54359 0.57102 0.92119 0.0
H608 H 0.43807 0.50809 0.95633 0.0
C609 C 0.54163 0.54202 0.89271 0.0
H610 H 0.50669 0.5797 0.96634 0.0
C611 C 0.50185 0.50134 0.88615 0.0
C612 C 0.46342 0.48813 0.90862 0.0
H613 H 0.57065 0.5512 0.87512 0.0
H614 H 0.50118 0.48085 0.86288 0.0
C615 C 0.46621 0.5171 0.93778 0.0
C616 C 1.0092 0.49894 0.04773 0.0
C617 C 0.98582 0.46116 0.07123 0.0
H618 H 0.02675 0.56715 0.036 0.0
C619 C 0.96111 0.46435 0.10133 0.0
H620 H 0.02763 0.49779 0.02361 0.0
C621 C 0.95949 0.50379 0.10748 0.0
C622 C 0.98315 0.5413 0.08414 0.0
H623 H 0.94326 0.43658 0.12047 0.0
H624 H 0.94037 0.50529 0.13099 0.0
C625 C 1.00835 0.53868 0.05443 0.0
C626 C 0.505 0.02395 0.24718 0.0
C627 C 0.46465 0.98323 0.25324 0.0
H628 H 0.57584 0.05658 0.2374 0.0
C629 C 0.46618 0.94301 0.25233 0.0
H630 H 0.5055 0.05571 0.24713 0.0
C631 C 0.5064 0.94339 0.24528 0.0
C632 C 0.54692 0.98409 0.23989 0.0
H633 H 0.43645 0.91089 0.25767 0.0
H634 H 0.50527 0.91136 0.24368 0.0
C635 C 0.54556 0.02441 0.24103 0.0
C636 C 0.32408 0.32609 0.68539 0.0
C637 C 0.35533 0.36476 0.70495 0.0
H638 H 0.30709 0.29002 0.63352 0.0
C639 C 0.39365 0.39753 0.68621 0.0
H640 H 0.29395 0.30049 0.69896 0.0
C641 C 0.40066 0.39197 0.64881 0.0
C642 C 0.3698 0.35326 0.62925 0.0
H643 H 0.41862 0.42744 0.70051 0.0
H644 H 0.43038 0.41817 0.63521 0.0
C645 C 0.33124 0.32041 0.64779 0.0
C646 C 0.03098 0.33118 0.81095 0.0
C647 C 0.03747 0.36986 0.79195 0.0
H648 H 1.01482 0.2953 0.86276 0.0
C649 C 0.03482 0.40357 0.81205 0.0
H650 H 0.03374 0.30495 0.79653 0.0
C651 C 0.02518 0.39851 0.85007 0.0
C652 C 1.0174 0.35938 0.86887 0.0
H653 H 0.03948 0.43366 0.79831 0.0
H654 H 0.02335 0.42517 0.86469 0.0
C655 C 1.02096 0.32596 0.84909 0.0
C656 C 0.7114 1.0085 0.97944 0.0
C657 C 0.6813 0.01865 0.9613 0.0
H658 H 0.72699 0.98513 0.02945 0.0
C659 C 0.64204 1.01095 0.97984 0.0
H660 H 0.74203 0.01432 0.96584 0.0
C661 C 0.63371 0.99482 0.0163 0.0
C662 C 0.66447 0.98603 0.03492 0.0
H663 H 0.61791 0.0178 0.96627 0.0
H664 H 0.60382 0.99052 0.03024 0.0
C665 C 0.70308 0.99236 0.01599 0.0
C666 C 0.7047 0.7005 0.14857 0.0
C667 C 0.66821 0.66596 0.12907 0.0
H668 H 0.73858 0.72354 0.20092 0.0
C669 C 0.63694 0.62759 0.14873 0.0
H670 H 0.72906 0.73083 0.13445 0.0
C671 C 0.64175 0.62391 0.187 0.0
C672 C 0.67823 0.65828 0.20656 0.0
H673 H 0.60868 0.60019 0.13454 0.0
H674 H 0.61666 0.5941 0.20126 0.0
C675 C 0.70971 0.69667 0.18692 0.0
C676 C 1.01264 0.62499 0.31197 0.0
C677 C 1.00908 0.65849 0.29243 0.0
H678 H 0.02524 0.60342 0.36418 0.0
C679 C 1.0157 0.69702 0.31179 0.0
H680 H 1.00795 0.59505 0.29784 0.0
C681 C 0.02613 0.70207 0.34985 0.0
C682 C 0.03015 0.66869 0.36921 0.0
H683 H 1.0124 0.72311 0.29773 0.0
H684 H 0.03196 0.73248 0.36386 0.0
C685 C 0.0229 0.62996 0.34992 0.0
C686 C 0.40909 0.01691 0.51817 0.0
C687 C 0.37722 0.02342 0.53755 0.0
H688 H 0.4279 1.0001 0.46631 0.0
C689 C 0.33867 0.01723 0.51857 0.0
H690 H 0.43897 0.02116 0.5321 0.0
C691 C 0.33199 1.00454 0.48112 0.0
C692 C 0.36383 0.99801 0.4617 0.0
H693 H 0.31379 0.02272 0.5324 0.0
H694 H 0.30155 0.99935 0.46763 0.0
C695 C 0.4025 1.0044 0.4806 0.0
loop_
_geom_bond_atom_site_label_1
_geom_bond_atom_site_label_2
_geom_bond_distance
_geom_bond_site_symmetry_2
_ccdc_geom_bond_type
Co0 N4 2.148 . S
Co0 N10 2.128 . S
Co0 N20 2.194 . S
Co0 O25 2.351 . S
Co0 O26 2.155 . S
Co0 O27 2.096 . S
C1 N4 1.301 . S
C1 N5 1.328 . S
C1 H6 0.930 . S
C2 C3 1.333 . S
C2 N4 1.317 . S
C2 H7 0.930 . S
C3 C2 1.333 . S
C3 N5 1.350 . S
C3 H29 0.931 . S
N4 Co0 2.148 . S
N4 C1 1.301 . S
N4 C2 1.317 . S
N5 C1 1.328 . S
N5 C3 1.350 . S
H6 C1 0.930 . S
H7 C2 0.930 . S
C8 O9 1.224 . S
C8 O27 1.247 . S
O9 C8 1.224 . S
N10 Co0 2.128 . S
N10 C11 1.355 . S
N10 C13 1.311 . S
C11 N10 1.355 . S
C11 C12 1.363 . S
C11 H23 0.929 . S
C12 C11 1.363 . S
C12 N14 1.375 . S
C12 H30 0.931 . S
C13 N10 1.311 . S
C13 N14 1.347 . S
C13 H24 0.929 . S
N14 C12 1.375 . S
N14 C13 1.347 . S
C15 C18 1.365 . S
C15 N20 1.328 . S
C15 H21 0.929 . S
C16 C17 1.362 . S
C16 C19 1.378 . S
C16 H31 0.929 . S
C17 C16 1.362 . S
C17 C18 1.366 . S
C18 C15 1.365 . S
C18 C17 1.366 . S
C18 H32 0.930 . S
C19 C16 1.378 . S
C19 N20 1.315 . S
C19 H22 0.930 . S
N20 Co0 2.194 . S
N20 C15 1.328 . S
N20 C19 1.315 . S
H21 C15 0.929 . S
H22 C19 0.930 . S
H23 C11 0.929 . S
H24 C13 0.929 . S
O25 Co0 2.351 . S
O25 C28 1.244 . S
O26 Co0 2.155 . S
O26 C28 1.240 . S
O27 Co0 2.096 . S
O27 C8 1.247 . S
C28 O25 1.244 . S
C28 O26 1.240 . S
H29 C3 0.931 . S
H30 C12 0.931 . S
H31 C16 0.929 . S
H32 C18 0.930 . S
Co33 N37 2.148 . S
Co33 N43 2.128 . S
Co33 N53 2.194 . S
Co33 O58 2.351 . S
Co33 O59 2.155 . S
Co33 O60 2.096 . S
C34 N37 1.301 . S
C34 N38 1.328 . S
C34 H39 0.930 . S
C35 C36 1.333 . S
C35 N37 1.317 . S
C35 H40 0.930 . S
C36 C35 1.333 . S
C36 N38 1.350 . S
C36 H62 0.931 . S
N37 Co33 2.148 . S
N37 C34 1.301 . S
N37 C35 1.317 . S
N38 C34 1.328 . S
N38 C36 1.350 . S
H39 C34 0.930 . S
H40 C35 0.930 . S
C41 O42 1.224 . S
C41 O60 1.247 1_655 S
O42 C41 1.224 . S
N43 Co33 2.128 . S
N43 C44 1.355 . S
N43 C46 1.311 . S
C44 N43 1.355 . S
C44 C45 1.363 . S
C44 H56 0.929 . S
C45 C44 1.363 . S
C45 N47 1.375 . S
C45 H63 0.931 . S
C46 N43 1.311 . S
C46 N47 1.347 . S
C46 H57 0.929 1_455 S
N47 C45 1.375 . S
N47 C46 1.347 . S
C48 C51 1.365 . S
C48 N53 1.328 . S
C48 H54 0.929 . S
C49 C50 1.362 . S
C49 C52 1.378 . S
C49 H64 0.929 1_455 S
C50 C49 1.362 . S
C50 C51 1.366 . S
C51 C48 1.365 . S
C51 C50 1.366 . S
C51 H65 0.930 . S
C52 C49 1.378 . S
C52 N53 1.315 . S
C52 H55 0.930 1_455 S
N53 Co33 2.194 . S
N53 C48 1.328 . S
N53 C52 1.315 . S
H54 C48 0.929 . S
H55 C52 0.930 1_655 S
H56 C44 0.929 . S
H57 C46 0.929 1_655 S
O58 Co33 2.351 . S
O58 C61 1.244 . S
O59 Co33 2.155 . S
O59 C61 1.240 . S
O60 Co33 2.096 . S
O60 C41 1.247 1_455 S
C61 O58 1.244 . S
C61 O59 1.240 . S
H62 C36 0.931 . S
H63 C45 0.931 . S
H64 C49 0.929 1_655 S
H65 C51 0.930 . S
Co66 N70 2.148 . S
Co66 N76 2.128 . S
Co66 N86 2.194 . S
Co66 O91 2.351 . S
Co66 O92 2.155 . S
Co66 O93 2.096 . S
C67 N70 1.301 . S
C67 N71 1.328 . S
C67 H72 0.930 . S
C68 C69 1.333 . S
C68 N70 1.317 . S
C68 H73 0.930 . S
C69 C68 1.333 . S
C69 N71 1.350 . S
C69 H95 0.931 . S
N70 Co66 2.148 . S
N70 C67 1.301 . S
N70 C68 1.317 . S
N71 C67 1.328 . S
N71 C69 1.350 . S
H72 C67 0.930 . S
H73 C68 0.930 . S
C74 O75 1.224 . S
C74 O93 1.247 1_565 S
O75 C74 1.224 . S
N76 Co66 2.128 . S
N76 C77 1.355 . S
N76 C79 1.311 . S
C77 N76 1.355 . S
C77 C78 1.363 . S
C77 H89 0.929 . S
C78 C77 1.363 . S
C78 N80 1.375 . S
C78 H96 0.931 . S
C79 N76 1.311 . S
C79 N80 1.347 . S
C79 H90 0.929 1_545 S
N80 C78 1.375 . S
N80 C79 1.347 . S
C81 C84 1.365 . S
C81 N86 1.328 . S
C81 H87 0.929 . S
C82 C83 1.362 . S
C82 C85 1.378 . S
C82 H97 0.929 1_545 S
C83 C82 1.362 . S
C83 C84 1.366 . S
C84 C81 1.365 . S
C84 C83 1.366 . S
C84 H98 0.930 . S
C85 C82 1.378 . S
C85 N86 1.315 . S
C85 H88 0.930 1_545 S
N86 Co66 2.194 . S
N86 C81 1.328 . S
N86 C85 1.315 . S
H87 C81 0.929 . S
H88 C85 0.930 1_565 S
H89 C77 0.929 . S
H90 C79 0.929 1_565 S
O91 Co66 2.351 . S
O91 C94 1.244 . S
O92 Co66 2.155 . S
O92 C94 1.240 . S
O93 Co66 2.096 . S
O93 C74 1.247 1_545 S
C94 O91 1.244 . S
C94 O92 1.240 . S
H95 C69 0.931 . S
H96 C78 0.931 . S
H97 C82 0.929 1_565 S
H98 C84 0.930 . S
Co99 N103 2.148 1_554 S
Co99 N109 2.128 . S
Co99 N119 2.194 1_554 S
Co99 O124 2.351 . S
Co99 O125 2.155 . S
Co99 O126 2.096 . S
C100 N103 1.301 . S
C100 N104 1.328 . S
C100 H105 0.930 . S
C101 C102 1.333 . S
C101 N103 1.317 . S
C101 H106 0.930 . S
C102 C101 1.333 . S
C102 N104 1.350 . S
C102 H128 0.931 . S
N103 Co99 2.148 1_556 S
N103 C100 1.301 . S
N103 C101 1.317 . S
N104 C100 1.328 . S
N104 C102 1.350 . S
H105 C100 0.930 . S
H106 C101 0.930 . S
C107 O108 1.224 1_554 S
C107 O126 1.247 . S
O108 C107 1.224 1_556 S
N109 Co99 2.128 . S
N109 C110 1.355 . S
N109 C112 1.311 . S
C110 N109 1.355 . S
C110 C111 1.363 . S
C110 H122 0.929 . S
C111 C110 1.363 . S
C111 N113 1.375 . S
C111 H129 0.931 . S
C112 N109 1.311 . S
C112 N113 1.347 . S
C112 H123 0.929 . S
N113 C111 1.375 . S
N113 C112 1.347 . S
C114 C117 1.365 . S
C114 N119 1.328 . S
C114 H120 0.929 . S
C115 C116 1.362 . S
C115 C118 1.378 . S
C115 H130 0.929 . S
C116 C115 1.362 . S
C116 C117 1.366 . S
C117 C114 1.365 . S
C117 C116 1.366 . S
C117 H131 0.930 . S
C118 C115 1.378 . S
C118 N119 1.315 . S
C118 H121 0.930 . S
N119 Co99 2.194 1_556 S
N119 C114 1.328 . S
N119 C118 1.315 . S
H120 C114 0.929 . S
H121 C118 0.930 . S
H122 C110 0.929 . S
H123 C112 0.929 . S
O124 Co99 2.351 . S
O124 C127 1.244 . S
O125 Co99 2.155 . S
O125 C127 1.240 . S
O126 Co99 2.096 . S
O126 C107 1.247 . S
C127 O124 1.244 . S
C127 O125 1.240 . S
H128 C102 0.931 . S
H129 C111 0.931 . S
H130 C115 0.929 . S
H131 C117 0.930 . S
Co132 N136 2.148 . S
Co132 N142 2.128 . S
Co132 N152 2.194 . S
Co132 O157 2.351 . S
Co132 O158 2.155 . S
Co132 O159 2.096 . S
C133 N136 1.301 . S
C133 N137 1.328 . S
C133 H138 0.930 . S
C134 C135 1.333 . S
C134 N136 1.317 . S
C134 H139 0.930 . S
C135 C134 1.333 . S
C135 N137 1.350 . S
C135 H161 0.931 . S
N136 Co132 2.148 . S
N136 C133 1.301 . S
N136 C134 1.317 . S
N137 C133 1.328 . S
N137 C135 1.350 . S
H138 C133 0.930 . S
H139 C134 0.930 . S
C140 O141 1.224 . S
C140 O159 1.247 1_455 S
O141 C140 1.224 . S
N142 Co132 2.128 . S
N142 C143 1.355 . S
N142 C145 1.311 . S
C143 N142 1.355 . S
C143 C144 1.363 . S
C143 H155 0.929 . S
C144 C143 1.363 . S
C144 N146 1.375 . S
C144 H162 0.931 . S
C145 N142 1.311 . S
C145 N146 1.347 . S
C145 H156 0.929 1_655 S
N146 C144 1.375 . S
N146 C145 1.347 . S
C147 C150 1.365 . S
C147 N152 1.328 . S
C147 H153 0.929 . S
C148 C149 1.362 . S
C148 C151 1.378 . S
C148 H163 0.929 1_655 S
C149 C148 1.362 . S
C149 C150 1.366 . S
C150 C147 1.365 . S
C150 C149 1.366 . S
C150 H164 0.930 . S
C151 C148 1.378 . S
C151 N152 1.315 . S
C151 H154 0.930 1_655 S
N152 Co132 2.194 . S
N152 C147 1.328 . S
N152 C151 1.315 . S
H153 C147 0.929 . S
H154 C151 0.930 1_455 S
H155 C143 0.929 . S
H156 C145 0.929 1_455 S
O157 Co132 2.351 . S
O157 C160 1.244 . S
O158 Co132 2.155 . S
O158 C160 1.240 . S
O159 Co132 2.096 . S
O159 C140 1.247 1_655 S
C160 O157 1.244 . S
C160 O158 1.240 . S
H161 C135 0.931 . S
H162 C144 0.931 . S
H163 C148 0.929 1_455 S
H164 C150 0.930 . S
Co165 N169 2.148 . S
Co165 N175 2.128 . S
Co165 N185 2.194 . S
Co165 O190 2.351 . S
Co165 O191 2.155 . S
Co165 O192 2.096 . S
C166 N169 1.301 . S
C166 N170 1.328 . S
C166 H171 0.930 . S
C167 C168 1.333 . S
C167 N169 1.317 . S
C167 H172 0.930 . S
C168 C167 1.333 . S
C168 N170 1.350 . S
C168 H194 0.931 . S
N169 Co165 2.148 . S
N169 C166 1.301 . S
N169 C167 1.317 . S
N170 C166 1.328 . S
N170 C168 1.350 . S
H171 C166 0.930 . S
H172 C167 0.930 . S
C173 O174 1.224 . S
C173 O192 1.247 1_545 S
O174 C173 1.224 . S
N175 Co165 2.128 . S
N175 C176 1.355 . S
N175 C178 1.311 . S
C176 N175 1.355 . S
C176 C177 1.363 . S
C176 H188 0.929 . S
C177 C176 1.363 . S
C177 N179 1.375 . S
C177 H195 0.931 . S
C178 N175 1.311 . S
C178 N179 1.347 . S
C178 H189 0.929 1_565 S
N179 C177 1.375 . S
N179 C178 1.347 . S
C180 C183 1.365 . S
C180 N185 1.328 . S
C180 H186 0.929 . S
C181 C182 1.362 . S
C181 C184 1.378 . S
C181 H196 0.929 1_565 S
C182 C181 1.362 . S
C182 C183 1.366 . S
C183 C180 1.365 . S
C183 C182 1.366 . S
C183 H197 0.930 . S
C184 C181 1.378 . S
C184 N185 1.315 . S
C184 H187 0.930 1_565 S
N185 Co165 2.194 . S
N185 C180 1.328 . S
N185 C184 1.315 . S
H186 C180 0.929 . S
H187 C184 0.930 1_545 S
H188 C176 0.929 . S
H189 C178 0.929 1_545 S
O190 Co165 2.351 . S
O190 C193 1.244 . S
O191 Co165 2.155 . S
O191 C193 1.240 . S
O192 Co165 2.096 . S
O192 C173 1.247 1_565 S
C193 O190 1.244 . S
C193 O191 1.240 . S
H194 C168 0.931 . S
H195 C177 0.931 . S
H196 C181 0.929 1_545 S
H197 C183 0.930 . S
Co198 N202 2.148 . S
Co198 N208 2.128 . S
Co198 N218 2.194 . S
Co198 O223 2.351 . S
Co198 O224 2.155 . S
Co198 O225 2.096 . S
C199 N202 1.301 . S
C199 N203 1.328 . S
C199 H204 0.930 . S
C200 C201 1.333 . S
C200 N202 1.317 . S
C200 H205 0.930 . S
C201 C200 1.333 . S
C201 N203 1.350 . S
C201 H227 0.931 . S
N202 Co198 2.148 . S
N202 C199 1.301 . S
N202 C200 1.317 . S
N203 C199 1.328 . S
N203 C201 1.350 . S
H204 C199 0.930 . S
H205 C200 0.930 . S
C206 O207 1.224 . S
C206 O225 1.247 . S
O207 C206 1.224 . S
N208 Co198 2.128 . S
N208 C209 1.355 . S
N208 C211 1.311 . S
C209 N208 1.355 . S
C209 C210 1.363 . S
C209 H221 0.929 . S
C210 C209 1.363 . S
C210 N212 1.375 . S
C210 H228 0.931 . S
C211 N208 1.311 . S
C211 N212 1.347 . S
C211 H222 0.929 . S
N212 C210 1.375 . S
N212 C211 1.347 . S
C213 C216 1.365 . S
C213 N218 1.328 . S
C213 H219 0.929 . S
C214 C215 1.362 . S
C214 C217 1.378 . S
C214 H229 0.929 . S
C215 C214 1.362 . S
C215 C216 1.366 . S
C216 C213 1.365 . S
C216 C215 1.366 . S
C216 H230 0.930 . S
C217 C214 1.378 . S
C217 N218 1.315 . S
C217 H220 0.930 . S
N218 Co198 2.194 . S
N218 C213 1.328 . S
N218 C217 1.315 . S
H219 C213 0.929 . S
H220 C217 0.930 . S
H221 C209 0.929 . S
H222 C211 0.929 . S
O223 Co198 2.351 . S
O223 C226 1.244 . S
O224 Co198 2.155 . S
O224 C226 1.240 . S
O225 Co198 2.096 . S
O225 C206 1.247 . S
C226 O223 1.244 . S
C226 O224 1.240 . S
H227 C201 0.931 . S
H228 C210 0.931 . S
H229 C214 0.929 . S
H230 C216 0.930 . S
Co231 N235 2.148 . S
Co231 N241 2.128 . S
Co231 N251 2.194 . S
Co231 O256 2.351 . S
Co231 O257 2.155 . S
Co231 O258 2.096 . S
C232 N235 1.301 . S
C232 N236 1.328 . S
C232 H237 0.930 . S
C233 C234 1.333 . S
C233 N235 1.317 . S
C233 H238 0.930 . S
C234 C233 1.333 . S
C234 N236 1.350 . S
C234 H260 0.931 . S
N235 Co231 2.148 . S
N235 C232 1.301 . S
N235 C233 1.317 . S
N236 C232 1.328 . S
N236 C234 1.350 . S
H237 C232 0.930 . S
H238 C233 0.930 . S
C239 O240 1.224 . S
C239 O258 1.247 1_655 S
O240 C239 1.224 . S
N241 Co231 2.128 . S
N241 C242 1.355 . S
N241 C244 1.311 . S
C242 N241 1.355 . S
C242 C243 1.363 . S
C242 H254 0.929 . S
C243 C242 1.363 . S
C243 N245 1.375 . S
C243 H261 0.931 . S
C244 N241 1.311 . S
C244 N245 1.347 . S
C244 H255 0.929 1_455 S
N245 C243 1.375 . S
N245 C244 1.347 . S
C246 C249 1.365 . S
C246 N251 1.328 . S
C246 H252 0.929 . S
C247 C248 1.362 . S
C247 C250 1.378 . S
C247 H262 0.929 1_455 S
C248 C247 1.362 . S
C248 C249 1.366 . S
C249 C246 1.365 . S
C249 C248 1.366 . S
C249 H263 0.930 . S
C250 C247 1.378 . S
C250 N251 1.315 . S
C250 H253 0.930 1_455 S
N251 Co231 2.194 . S
N251 C246 1.328 . S
N251 C250 1.315 . S
H252 C246 0.929 . S
H253 C250 0.930 1_655 S
H254 C242 0.929 . S
H255 C244 0.929 1_655 S
O256 Co231 2.351 . S
O256 C259 1.244 . S
O257 Co231 2.155 . S
O257 C259 1.240 . S
O258 Co231 2.096 . S
O258 C239 1.247 1_455 S
C259 O256 1.244 . S
C259 O257 1.240 . S
H260 C234 0.931 . S
H261 C243 0.931 . S
H262 C247 0.929 1_655 S
H263 C249 0.930 . S
Co264 N268 2.148 . S
Co264 N274 2.128 . S
Co264 N284 2.194 . S
Co264 O289 2.351 . S
Co264 O290 2.155 . S
Co264 O291 2.096 . S
C265 N268 1.301 . S
C265 N269 1.328 . S
C265 H270 0.930 . S
C266 C267 1.333 . S
C266 N268 1.317 . S
C266 H271 0.930 . S
C267 C266 1.333 . S
C267 N269 1.350 . S
C267 H293 0.931 . S
N268 Co264 2.148 . S
N268 C265 1.301 . S
N268 C266 1.317 . S
N269 C265 1.328 . S
N269 C267 1.350 . S
H270 C265 0.930 . S
H271 C266 0.930 . S
C272 O273 1.224 . S
C272 O291 1.247 1_565 S
O273 C272 1.224 . S
N274 Co264 2.128 . S
N274 C275 1.355 . S
N274 C277 1.311 . S
C275 N274 1.355 . S
C275 C276 1.363 . S
C275 H287 0.929 . S
C276 C275 1.363 . S
C276 N278 1.375 . S
C276 H294 0.931 . S
C277 N274 1.311 . S
C277 N278 1.347 . S
C277 H288 0.929 1_545 S
N278 C276 1.375 . S
N278 C277 1.347 . S
C279 C282 1.365 . S
C279 N284 1.328 . S
C279 H285 0.929 . S
C280 C281 1.362 . S
C280 C283 1.378 . S
C280 H295 0.929 1_545 S
C281 C280 1.362 . S
C281 C282 1.366 . S
C282 C279 1.365 . S
C282 C281 1.366 . S
C282 H296 0.930 . S
C283 C280 1.378 . S
C283 N284 1.315 . S
C283 H286 0.930 1_545 S
N284 Co264 2.194 . S
N284 C279 1.328 . S
N284 C283 1.315 . S
H285 C279 0.929 . S
H286 C283 0.930 1_565 S
H287 C275 0.929 . S
H288 C277 0.929 1_565 S
O289 Co264 2.351 . S
O289 C292 1.244 . S
O290 Co264 2.155 . S
O290 C292 1.240 . S
O291 Co264 2.096 . S
O291 C272 1.247 1_545 S
C292 O289 1.244 . S
C292 O290 1.240 . S
H293 C267 0.931 . S
H294 C276 0.931 . S
H295 C280 0.929 1_565 S
H296 C282 0.930 . S
Co297 N301 2.148 . S
Co297 N307 2.128 . S
Co297 N317 2.194 . S
Co297 O322 2.351 . S
Co297 O323 2.155 . S
Co297 O324 2.096 . S
C298 N301 1.301 . S
C298 N302 1.328 . S
C298 H303 0.930 . S
C299 C300 1.333 . S
C299 N301 1.317 . S
C299 H304 0.930 . S
C300 C299 1.333 . S
C300 N302 1.350 . S
C300 H326 0.931 . S
N301 Co297 2.148 . S
N301 C298 1.301 . S
N301 C299 1.317 . S
N302 C298 1.328 . S
N302 C300 1.350 . S
H303 C298 0.930 . S
H304 C299 0.930 . S
C305 O306 1.224 . S
C305 O324 1.247 . S
O306 C305 1.224 . S
N307 Co297 2.128 . S
N307 C308 1.355 . S
N307 C310 1.311 . S
C308 N307 1.355 . S
C308 C309 1.363 . S
C308 H320 0.929 . S
C309 C308 1.363 . S
C309 N311 1.375 . S
C309 H327 0.931 . S
C310 N307 1.311 . S
C310 N311 1.347 . S
C310 H321 0.929 . S
N311 C309 1.375 . S
N311 C310 1.347 . S
C312 C315 1.365 . S
C312 N317 1.328 . S
C312 H318 0.929 . S
C313 C314 1.362 . S
C313 C316 1.378 . S
C313 H328 0.929 . S
C314 C313 1.362 . S
C314 C315 1.366 . S
C315 C312 1.365 . S
C315 C314 1.366 . S
C315 H329 0.930 . S
C316 C313 1.378 . S
C316 N317 1.315 . S
C316 H319 0.930 . S
N317 Co297 2.194 . S
N317 C312 1.328 . S
N317 C316 1.315 . S
H318 C312 0.929 . S
H319 C316 0.930 . S
H320 C308 0.929 . S
H321 C310 0.929 . S
O322 Co297 2.351 . S
O322 C325 1.244 . S
O323 Co297 2.155 . S
O323 C325 1.240 . S
O324 Co297 2.096 . S
O324 C305 1.247 . S
C325 O322 1.244 . S
C325 O323 1.240 . S
H326 C300 0.931 . S
H327 C309 0.931 . S
H328 C313 0.929 . S
H329 C315 0.930 . S
Co330 N334 2.148 1_556 S
Co330 N340 2.128 . S
Co330 N350 2.194 1_556 S
Co330 O355 2.351 . S
Co330 O356 2.155 . S
Co330 O357 2.096 . S
C331 N334 1.301 . S
C331 N335 1.328 . S
C331 H336 0.930 . S
C332 C333 1.333 . S
C332 N334 1.317 . S
C332 H337 0.930 . S
C333 C332 1.333 . S
C333 N335 1.350 . S
C333 H359 0.931 . S
N334 Co330 2.148 1_554 S
N334 C331 1.301 . S
N334 C332 1.317 . S
N335 C331 1.328 . S
N335 C333 1.350 . S
H336 C331 0.930 . S
H337 C332 0.930 . S
C338 O339 1.224 1_556 S
C338 O357 1.247 1_455 S
O339 C338 1.224 1_554 S
N340 Co330 2.128 . S
N340 C341 1.355 . S
N340 C343 1.311 . S
C341 N340 1.355 . S
C341 C342 1.363 . S
C341 H353 0.929 . S
C342 C341 1.363 . S
C342 N344 1.375 . S
C342 H360 0.931 . S
C343 N340 1.311 . S
C343 N344 1.347 . S
C343 H354 0.929 1_655 S
N344 C342 1.375 . S
N344 C343 1.347 . S
C345 C348 1.365 . S
C345 N350 1.328 . S
C345 H351 0.929 . S
C346 C347 1.362 . S
C346 C349 1.378 . S
C346 H361 0.929 1_655 S
C347 C346 1.362 . S
C347 C348 1.366 . S
C348 C345 1.365 . S
C348 C347 1.366 . S
C348 H362 0.930 . S
C349 C346 1.378 . S
C349 N350 1.315 . S
C349 H352 0.930 1_655 S
N350 Co330 2.194 1_554 S
N350 C345 1.328 . S
N350 C349 1.315 . S
H351 C345 0.929 . S
H352 C349 0.930 1_455 S
H353 C341 0.929 . S
H354 C343 0.929 1_455 S
O355 Co330 2.351 . S
O355 C358 1.244 . S
O356 Co330 2.155 . S
O356 C358 1.240 . S
O357 Co330 2.096 . S
O357 C338 1.247 1_655 S
C358 O355 1.244 . S
C358 O356 1.240 . S
H359 C333 0.931 . S
H360 C342 0.931 . S
H361 C346 0.929 1_455 S
H362 C348 0.930 . S
Co363 N367 2.148 . S
Co363 N373 2.128 . S
Co363 N383 2.194 . S
Co363 O388 2.351 . S
Co363 O389 2.155 . S
Co363 O390 2.096 . S
C364 N367 1.301 . S
C364 N368 1.328 . S
C364 H369 0.930 . S
C365 C366 1.333 . S
C365 N367 1.317 . S
C365 H370 0.930 . S
C366 C365 1.333 . S
C366 N368 1.350 . S
C366 H392 0.931 . S
N367 Co363 2.148 . S
N367 C364 1.301 . S
N367 C365 1.317 . S
N368 C364 1.328 . S
N368 C366 1.350 . S
H369 C364 0.930 . S
H370 C365 0.930 . S
C371 O372 1.224 . S
C371 O390 1.247 1_545 S
O372 C371 1.224 . S
N373 Co363 2.128 . S
N373 C374 1.355 . S
N373 C376 1.311 . S
C374 N373 1.355 . S
C374 C375 1.363 . S
C374 H386 0.929 . S
C375 C374 1.363 . S
C375 N377 1.375 . S
C375 H393 0.931 . S
C376 N373 1.311 . S
C376 N377 1.347 . S
C376 H387 0.929 1_565 S
N377 C375 1.375 . S
N377 C376 1.347 . S
C378 C381 1.365 . S
C378 N383 1.328 . S
C378 H384 0.929 . S
C379 C380 1.362 . S
C379 C382 1.378 . S
C379 H394 0.929 1_565 S
C380 C379 1.362 . S
C380 C381 1.366 . S
C381 C378 1.365 . S
C381 C380 1.366 . S
C381 H395 0.930 . S
C382 C379 1.378 . S
C382 N383 1.315 . S
C382 H385 0.930 1_565 S
N383 Co363 2.194 . S
N383 C378 1.328 . S
N383 C382 1.315 . S
H384 C378 0.929 . S
H385 C382 0.930 1_545 S
H386 C374 0.929 . S
H387 C376 0.929 1_545 S
O388 Co363 2.351 . S
O388 C391 1.244 . S
O389 Co363 2.155 . S
O389 C391 1.240 . S
O390 Co363 2.096 . S
O390 C371 1.247 1_565 S
C391 O388 1.244 . S
C391 O389 1.240 . S
H392 C366 0.931 . S
H393 C375 0.931 . S
H394 C379 0.929 1_545 S
H395 C381 0.930 . S
C396 C397 1.387 . S
C396 H400 0.950 . S
C396 C405 1.390 . S
C397 C396 1.387 . S
C397 C399 1.387 . S
H398 C405 0.950 . S
C399 C397 1.387 . S
C399 C401 1.390 . S
C399 H403 0.950 . S
H400 C396 0.950 . S
C401 C399 1.390 . S
C401 C402 1.387 . S
C401 H404 0.950 . S
C402 C401 1.387 . S
C402 C405 1.387 . S
H403 C399 0.950 . S
H404 C401 0.950 . S
C405 C396 1.390 . S
C405 H398 0.950 . S
C405 C402 1.387 . S
C406 C407 1.387 . S
C406 H410 0.950 . S
C406 C415 1.390 . S
C407 C406 1.387 . S
C407 C409 1.387 . S
H408 C415 0.950 . S
C409 C407 1.387 . S
C409 C411 1.390 . S
C409 H413 0.950 . S
H410 C406 0.950 . S
C411 C409 1.390 . S
C411 C412 1.387 . S
C411 H414 0.950 . S
C412 C411 1.387 . S
C412 C415 1.387 . S
H413 C409 0.950 . S
H414 C411 0.950 . S
C415 C406 1.390 . S
C415 H408 0.950 . S
C415 C412 1.387 . S
C416 C417 1.387 . S
C416 H420 0.950 . S
C416 C425 1.390 . S
C417 C416 1.387 . S
C417 C419 1.387 . S
H418 C425 0.950 . S
C419 C417 1.387 . S
C419 C421 1.390 . S
C419 H423 0.950 . S
H420 C416 0.950 . S
C421 C419 1.390 . S
C421 C422 1.387 . S
C421 H424 0.950 . S
C422 C421 1.387 . S
C422 C425 1.387 . S
H423 C419 0.950 . S
H424 C421 0.950 . S
C425 C416 1.390 . S
C425 H418 0.950 . S
C425 C422 1.387 . S
C426 C427 1.387 . S
C426 H430 0.950 . S
C426 C435 1.390 . S
C427 C426 1.387 . S
C427 C429 1.387 . S
H428 C435 0.950 . S
C429 C427 1.387 . S
C429 C431 1.390 . S
C429 H433 0.950 . S
H430 C426 0.950 . S
C431 C429 1.390 . S
C431 C432 1.387 . S
C431 H434 0.950 . S
C432 C431 1.387 . S
C432 C435 1.387 . S
H433 C429 0.950 . S
H434 C431 0.950 . S
C435 C426 1.390 . S
C435 H428 0.950 . S
C435 C432 1.387 . S
C436 C437 1.387 . S
C436 H440 0.950 . S
C436 C445 1.390 . S
C437 C436 1.387 . S
C437 C439 1.387 . S
H438 C445 0.950 . S
C439 C437 1.387 . S
C439 C441 1.390 . S
C439 H443 0.950 . S
H440 C436 0.950 . S
C441 C439 1.390 . S
C441 C442 1.387 . S
C441 H444 0.950 . S
C442 C441 1.387 . S
C442 C445 1.387 . S
H443 C439 0.950 . S
H444 C441 0.950 . S
C445 C436 1.390 . S
C445 H438 0.950 . S
C445 C442 1.387 . S
C446 C447 1.387 . S
C446 H450 0.950 . S
C446 C455 1.390 . S
C447 C446 1.387 . S
C447 C449 1.387 . S
H448 C455 0.950 . S
C449 C447 1.387 . S
C449 C451 1.390 . S
C449 H453 0.950 . S
H450 C446 0.950 . S
C451 C449 1.390 . S
C451 C452 1.387 . S
C451 H454 0.950 . S
C452 C451 1.387 . S
C452 C455 1.387 . S
H453 C449 0.950 . S
H454 C451 0.950 . S
C455 C446 1.390 . S
C455 H448 0.950 . S
C455 C452 1.387 . S
C456 C457 1.387 . S
C456 H460 0.950 . S
C456 C465 1.390 . S
C457 C456 1.387 . S
C457 C459 1.387 . S
H458 C465 0.950 . S
C459 C457 1.387 . S
C459 C461 1.390 . S
C459 H463 0.950 . S
H460 C456 0.950 . S
C461 C459 1.390 . S
C461 C462 1.387 . S
C461 H464 0.950 . S
C462 C461 1.387 . S
C462 C465 1.387 . S
H463 C459 0.950 . S
H464 C461 0.950 . S
C465 C456 1.390 . S
C465 H458 0.950 . S
C465 C462 1.387 . S
C466 C467 1.387 . S
C466 H470 0.950 . S
C466 C475 1.390 . S
C467 C466 1.387 . S
C467 C469 1.387 . S
H468 C475 0.950 . S
C469 C467 1.387 . S
C469 C471 1.390 . S
C469 H473 0.950 . S
H470 C466 0.950 . S
C471 C469 1.390 . S
C471 C472 1.387 . S
C471 H474 0.950 . S
C472 C471 1.387 . S
C472 C475 1.387 . S
H473 C469 0.950 . S
H474 C471 0.950 . S
C475 C466 1.390 . S
C475 H468 0.950 . S
C475 C472 1.387 . S
C476 C477 1.387 . S
C476 H480 0.950 . S
C476 C485 1.390 . S
C477 C476 1.387 . S
C477 C479 1.387 . S
H478 C485 0.950 . S
C479 C477 1.387 . S
C479 C481 1.390 . S
C479 H483 0.950 . S
H480 C476 0.950 . S
C481 C479 1.390 . S
C481 C482 1.387 . S
C481 H484 0.950 . S
C482 C481 1.387 . S
C482 C485 1.387 . S
H483 C479 0.950 . S
H484 C481 0.950 . S
C485 C476 1.390 . S
C485 H478 0.950 . S
C485 C482 1.387 . S
C486 C487 1.387 . S
C486 H490 0.950 . S
C486 C495 1.390 . S
C487 C486 1.387 . S
C487 C489 1.387 . S
H488 C495 0.950 . S
C489 C487 1.387 . S
C489 C491 1.390 . S
C489 H493 0.950 . S
H490 C486 0.950 . S
C491 C489 1.390 . S
C491 C492 1.387 . S
C491 H494 0.950 . S
C492 C491 1.387 . S
C492 C495 1.387 . S
H493 C489 0.950 . S
H494 C491 0.950 . S
C495 C486 1.390 . S
C495 H488 0.950 . S
C495 C492 1.387 . S
C496 C497 1.387 1_556 S
C496 H500 0.950 . S
C496 C505 1.390 1_556 S
C497 C496 1.387 1_554 S
C497 C499 1.387 . S
H498 C505 0.936 1_556 S
C499 C497 1.387 . S
C499 C501 1.390 . S
C499 H503 0.950 . S
H500 C496 0.950 . S
C501 C499 1.390 . S
C501 C502 1.387 . S
C501 H504 0.950 . S
C502 C501 1.387 . S
C502 C505 1.387 . S
H503 C499 0.950 . S
H504 C501 0.950 . S
C505 C496 1.390 1_554 S
C505 H498 0.936 1_554 S
C505 C502 1.387 . S
C506 C507 1.387 . S
C506 H510 0.950 . S
C506 C515 1.390 . S
C507 C506 1.387 . S
C507 C509 1.387 . S
H508 C515 0.950 . S
C509 C507 1.387 . S
C509 C511 1.390 . S
C509 H513 0.950 . S
H510 C506 0.950 . S
C511 C509 1.390 . S
C511 C512 1.387 . S
C511 H514 0.950 . S
C512 C511 1.387 . S
C512 C515 1.387 . S
H513 C509 0.950 . S
H514 C511 0.950 . S
C515 C506 1.390 . S
C515 H508 0.950 . S
C515 C512 1.387 . S
C516 C517 1.387 . S
C516 H520 0.950 . S
C516 C525 1.390 . S
C517 C516 1.387 . S
C517 C519 1.387 . S
H518 C525 0.950 . S
C519 C517 1.387 . S
C519 C521 1.390 . S
C519 H523 0.950 . S
H520 C516 0.950 . S
C521 C519 1.390 . S
C521 C522 1.387 . S
C521 H524 0.950 . S
C522 C521 1.387 . S
C522 C525 1.387 . S
H523 C519 0.950 . S
H524 C521 0.950 . S
C525 C516 1.390 . S
C525 H518 0.950 . S
C525 C522 1.387 . S
C526 C527 1.387 . S
C526 H530 0.950 . S
C526 C535 1.390 . S
C527 C526 1.387 . S
C527 C529 1.387 . S
H528 C535 0.950 . S
C529 C527 1.387 . S
C529 C531 1.390 . S
C529 H533 0.950 . S
H530 C526 0.950 . S
C531 C529 1.390 . S
C531 C532 1.387 . S
C531 H534 0.950 . S
C532 C531 1.387 . S
C532 C535 1.387 . S
H533 C529 0.950 . S
H534 C531 0.950 . S
C535 C526 1.390 . S
C535 H528 0.950 . S
C535 C532 1.387 . S
C536 C537 1.387 . S
C536 H540 0.950 . S
C536 C545 1.390 . S
C537 C536 1.387 . S
C537 C539 1.387 . S
H538 C545 0.950 . S
C539 C537 1.387 . S
C539 C541 1.390 . S
C539 H543 0.950 . S
H540 C536 0.950 . S
C541 C539 1.390 . S
C541 C542 1.387 . S
C541 H544 0.950 . S
C542 C541 1.387 . S
C542 C545 1.387 . S
H543 C539 0.950 . S
H544 C541 0.950 . S
C545 C536 1.390 . S
C545 H538 0.950 . S
C545 C542 1.387 . S
C546 C547 1.387 . S
C546 H550 0.950 1_556 S
C546 C555 1.390 . S
C547 C546 1.387 . S
C547 C549 1.387 . S
H548 C555 0.950 . S
C549 C547 1.387 . S
C549 C551 1.390 . S
C549 H553 0.950 . S
H550 C546 0.950 1_554 S
C551 C549 1.390 . S
C551 C552 1.387 . S
C551 H554 0.950 . S
C552 C551 1.387 . S
C552 C555 1.387 . S
H553 C549 0.950 . S
H554 C551 0.950 . S
C555 C546 1.390 . S
C555 H548 0.950 . S
C555 C552 1.387 . S
C556 C557 1.387 . S
C556 H560 0.950 . S
C556 C565 1.390 . S
C557 C556 1.387 . S
C557 C559 1.387 . S
H558 C565 0.950 . S
C559 C557 1.387 . S
C559 C561 1.390 . S
C559 H563 0.950 . S
H560 C556 0.950 . S
C561 C559 1.390 . S
C561 C562 1.387 . S
C561 H564 0.950 . S
C562 C561 1.387 . S
C562 C565 1.387 . S
H563 C559 0.950 . S
H564 C561 0.950 . S
C565 C556 1.390 . S
C565 H558 0.950 . S
C565 C562 1.387 . S
C566 C567 1.387 . S
C566 H570 0.950 . S
C566 C575 1.390 . S
C567 C566 1.387 . S
C567 C569 1.387 . S
H568 C575 0.950 . S
C569 C567 1.387 . S
C569 C571 1.390 . S
C569 H573 0.950 . S
H570 C566 0.950 . S
C571 C569 1.390 . S
C571 C572 1.387 . S
C571 H574 0.950 . S
C572 C571 1.387 . S
C572 C575 1.387 . S
H573 C569 0.950 . S
H574 C571 0.950 . S
C575 C566 1.390 . S
C575 H568 0.950 . S
C575 C572 1.387 . S
C576 C577 1.387 . S
C576 H580 0.950 . S
C576 C585 1.390 . S
C577 C576 1.387 . S
C577 C579 1.387 . S
H578 C585 0.950 . S
C579 C577 1.387 . S
C579 C581 1.390 . S
C579 H583 0.950 . S
H580 C576 0.950 . S
C581 C579 1.390 . S
C581 C582 1.387 . S
C581 H584 0.950 . S
C582 C581 1.387 . S
C582 C585 1.387 . S
H583 C579 0.950 . S
H584 C581 0.950 . S
C585 C576 1.390 . S
C585 H578 0.950 . S
C585 C582 1.387 . S
C586 C587 1.387 . S
C586 H590 0.950 . S
C586 C595 1.390 . S
C587 C586 1.387 . S
C587 C589 1.387 . S
H588 C595 0.950 . S
C589 C587 1.387 . S
C589 C591 1.390 . S
C589 H593 0.950 . S
H590 C586 0.950 . S
C591 C589 1.390 . S
C591 C592 1.387 . S
C591 H594 0.950 . S
C592 C591 1.387 . S
C592 C595 1.387 . S
H593 C589 0.950 . S
H594 C591 0.950 . S
C595 C586 1.390 . S
C595 H588 0.950 . S
C595 C592 1.387 . S
C596 C597 1.387 . S
C596 H600 0.950 1_545 S
C596 C605 1.390 . S
C597 C596 1.387 . S
C597 C599 1.387 . S
H598 C605 0.950 1_565 S
C599 C597 1.387 . S
C599 C601 1.390 . S
C599 H603 0.950 . S
H600 C596 0.950 1_565 S
C601 C599 1.390 . S
C601 C602 1.387 . S
C601 H604 0.950 . S
C602 C601 1.387 . S
C602 C605 1.387 . S
H603 C599 0.950 . S
H604 C601 0.950 . S
C605 C596 1.390 . S
C605 H598 0.950 1_545 S
C605 C602 1.387 . S
C606 C607 1.387 . S
C606 H610 0.950 . S
C606 C615 1.390 . S
C607 C606 1.387 . S
C607 C609 1.387 . S
H608 C615 0.950 . S
C609 C607 1.387 . S
C609 C611 1.390 . S
C609 H613 0.950 . S
H610 C606 0.950 . S
C611 C609 1.390 . S
C611 C612 1.387 . S
C611 H614 0.950 . S
C612 C611 1.387 . S
C612 C615 1.387 . S
H613 C609 0.950 . S
H614 C611 0.950 . S
C615 C606 1.390 . S
C615 H608 0.950 . S
C615 C612 1.387 . S
C616 C617 1.387 . S
C616 H620 0.950 . S
C616 C625 1.390 . S
C617 C616 1.387 . S
C617 C619 1.387 . S
H618 C625 0.950 . S
C619 C617 1.387 . S
C619 C621 1.390 . S
C619 H623 0.950 . S
H620 C616 0.950 . S
C621 C619 1.390 . S
C621 C622 1.387 . S
C621 H624 0.950 . S
C622 C621 1.387 . S
C622 C625 1.387 . S
H623 C619 0.950 . S
H624 C621 0.950 . S
C625 C616 1.390 . S
C625 H618 0.950 . S
C625 C622 1.387 . S
C626 C627 1.387 . S
C626 H630 0.950 1_565 S
C626 C635 1.390 . S
C627 C626 1.387 . S
C627 C629 1.387 . S
H628 C635 0.950 1_545 S
C629 C627 1.387 . S
C629 C631 1.390 . S
C629 H633 0.950 . S
H630 C626 0.950 1_545 S
C631 C629 1.390 . S
C631 C632 1.387 . S
C631 H634 0.950 . S
C632 C631 1.387 . S
C632 C635 1.387 . S
H633 C629 0.950 . S
H634 C631 0.950 . S
C635 C626 1.390 . S
C635 H628 0.950 1_565 S
C635 C632 1.387 . S
C636 C637 1.387 . S
C636 H640 0.950 . S
C636 C645 1.390 . S
C637 C636 1.387 . S
C637 C639 1.387 . S
H638 C645 0.950 . S
C639 C637 1.387 . S
C639 C641 1.390 . S
C639 H643 0.950 . S
H640 C636 0.950 . S
C641 C639 1.390 . S
C641 C642 1.387 . S
C641 H644 0.950 . S
C642 C641 1.387 . S
C642 C645 1.387 . S
H643 C639 0.950 . S
H644 C641 0.950 . S
C645 C636 1.390 . S
C645 H638 0.950 . S
C645 C642 1.387 . S
C646 C647 1.387 . S
C646 H650 0.950 . S
C646 C655 1.390 1_655 S
C647 C646 1.387 . S
C647 C649 1.387 . S
H648 C655 0.950 . S
C649 C647 1.387 . S
C649 C651 1.390 1_655 S
C649 H653 0.950 . S
H650 C646 0.950 . S
C651 C649 1.390 1_455 S
C651 C652 1.387 . S
C651 H654 0.950 . S
C652 C651 1.387 . S
C652 C655 1.387 . S
H653 C649 0.950 . S
H654 C651 0.950 . S
C655 C646 1.390 1_455 S
C655 H648 0.950 . S
C655 C652 1.387 . S
C656 C657 1.387 . S
C656 H660 0.950 . S
C656 C665 1.390 1_566 S
C657 C656 1.387 . S
C657 C659 1.387 . S
H658 C665 0.950 . S
C659 C657 1.387 . S
C659 C661 1.390 1_566 S
C659 H663 0.950 . S
H660 C656 0.950 . S
C661 C659 1.390 1_544 S
C661 C662 1.387 . S
C661 H664 0.950 . S
C662 C661 1.387 . S
C662 C665 1.387 . S
H663 C659 0.950 . S
H664 C661 0.950 . S
C665 C656 1.390 1_544 S
C665 H658 0.950 . S
C665 C662 1.387 . S
C666 C667 1.387 . S
C666 H670 0.950 . S
C666 C675 1.390 . S
C667 C666 1.387 . S
C667 C669 1.387 . S
H668 C675 0.950 . S
C669 C667 1.387 . S
C669 C671 1.390 . S
C669 H673 0.950 . S
H670 C666 0.950 . S
C671 C669 1.390 . S
C671 C672 1.387 . S
C671 H674 0.950 . S
C672 C671 1.387 . S
C672 C675 1.387 . S
H673 C669 0.950 . S
H674 C671 0.950 . S
C675 C666 1.390 . S
C675 H668 0.950 . S
C675 C672 1.387 . S
C676 C677 1.387 . S
C676 H680 0.950 . S
C676 C685 1.390 . S
C677 C676 1.387 . S
C677 C679 1.387 1_455 S
H678 C685 0.950 . S
C679 C677 1.387 1_655 S
C679 C681 1.390 . S
C679 H683 0.950 . S
H680 C676 0.950 . S
C681 C679 1.390 . S
C681 C682 1.387 . S
C681 H684 0.950 . S
C682 C681 1.387 . S
C682 C685 1.387 1_655 S
H683 C679 0.950 . S
H684 C681 0.950 . S
C685 C676 1.390 . S
C685 H678 0.950 . S
C685 C682 1.387 1_455 S
C686 C687 1.387 . S
C686 H690 0.950 . S
C686 C695 1.390 1_565 S
C687 C686 1.387 . S
C687 C689 1.387 . S
H688 C695 0.950 . S
C689 C687 1.387 . S
C689 C691 1.390 1_565 S
C689 H693 0.950 . S
H690 C686 0.950 . S
C691 C689 1.390 1_545 S
C691 C692 1.387 . S
C691 H694 0.950 . S
C692 C691 1.387 . S
C692 C695 1.387 . S
H693 C689 0.950 . S
H694 C691 0.950 . S
C695 C686 1.390 1_545 S
C695 H688 0.950 . S
C695 C692 1.387 . S
C397 C292 1.055 . S
C402 C28 1.054 . S
C407 C61 1.058 . S
C412 C325 1.058 . S
C417 C94 1.057 . S
C422 C358 1.056 . S
C427 C127 1.053 . S
C432 C391 1.054 . S
C437 C160 1.052 . S
C442 C226 1.052 . S
C447 C193 1.057 . S
C452 C259 1.058 . S
C457 N5 1.749 . S
C462 C173 1.783 . S
C467 C8 1.782 . S
C472 N38 1.749 . S
C477 N71 1.747 . S
C482 C41 1.783 . S
C487 C74 1.782 . S
C492 N104 1.749 . S
C497 C107 1.782 . S
C502 N137 1.748 . S
C507 N170 1.749 . S
C512 C140 1.783 . S
C517 C239 1.782 . S
C522 N203 1.749 . S
C527 C272 1.783 . S
C532 N236 1.747 . S
C537 C305 1.784 . S
C542 N269 1.748 . S
C547 C338 1.782 . S
C552 N302 1.749 . S
C557 C371 1.782 . S
C562 N335 1.748 . S
C567 N368 1.747 . S
C572 C206 1.783 . S
C577 C17 1.371 . S
C582 C215 1.370 . S
C587 C50 1.370 . S
C592 C248 1.370 . S
C597 C83 1.371 . S
C602 C281 1.371 . S
C607 C116 1.370 . S
C612 C314 1.370 . S
C617 C347 1.370 . S
C622 C149 1.370 . S
C627 C182 1.371 . S
C632 C380 1.371 . S
C637 N311 1.081 . S
C642 N14 1.080 . S
C647 N47 1.082 1_655 S
C652 N344 1.082 1_455 S
C657 N80 1.082 1_565 S
C662 N377 1.082 1_545 S
C667 N113 1.082 . S
C672 N212 1.082 . S
C677 N146 1.078 1_455 S
C682 N245 1.077 1_655 S
C687 N278 1.075 1_565 S
C692 N179 1.075 1_545 S
