# Generated by pormake.
# Topology neb, (4)-cn, num edge types: 1
# Building blocks:
#     Node 0, Type 0, BuildingBlock: ICAMEG_clean_sbu_1, # of connection points: 4
#     Node 1, Type 0, BuildingBlock: ICAMEG_clean_sbu_1, # of connection points: 4
#     Node 2, Type 0, BuildingBlock: ICAMEG_clean_sbu_1, # of connection points: 4
#     Node 3, Type 0, BuildingBlock: ICAMEG_clean_sbu_1, # of connection points: 4
#     Node 4, Type 0, BuildingBlock: ICAMEG_clean_sbu_1, # of connection points: 4
#     Node 5, Type 0, BuildingBlock: ICAMEG_clean_sbu_1, # of connection points: 4
#     Node 6, Type 0, BuildingBlock: ICAMEG_clean_sbu_1, # of connection points: 4
#     Node 7, Type 0, BuildingBlock: ICAMEG_clean_sbu_1, # of connection points: 4
#     Node 8, Type 0, BuildingBlock: ICAMEG_clean_sbu_1, # of connection points: 4
#     Node 9, Type 0, BuildingBlock: ICAMEG_clean_sbu_1, # of connection points: 4
#     Node 10, Type 0, BuildingBlock: ICAMEG_clean_sbu_1, # of connection points: 4
#     Node 11, Type 0, BuildingBlock: ICAMEG_clean_sbu_1, # of connection points: 4
#     Node 12, Type 0, BuildingBlock: ICAMEG_clean_sbu_1, # of connection points: 4
#     Node 13, Type 0, BuildingBlock: ICAMEG_clean_sbu_1, # of connection points: 4
#     Node 14, Type 0, BuildingBlock: ICAMEG_clean_sbu_1, # of connection points: 4
#     Node 15, Type 0, BuildingBlock: ICAMEG_clean_sbu_1, # of connection points: 4
#     Edge 16, Type (0, 0), BuildingBlock: TEMPAE_clean_linker_10, # of connection points: 2
#     Edge 17, Type (0, 0), BuildingBlock: TEMPAE_clean_linker_10, # of connection points: 2
#     Edge 18, Type (0, 0), BuildingBlock: TEMPAE_clean_linker_10, # of connection points: 2
#     Edge 19, Type (0, 0), BuildingBlock: TEMPAE_clean_linker_10, # of connection points: 2
#     Edge 20, Type (0, 0), BuildingBlock: TEMPAE_clean_linker_10, # of connection points: 2
#     Edge 21, Type (0, 0), BuildingBlock: TEMPAE_clean_linker_10, # of connection points: 2
#     Edge 22, Type (0, 0), BuildingBlock: TEMPAE_clean_linker_10, # of connection points: 2
#     Edge 23, Type (0, 0), BuildingBlock: TEMPAE_clean_linker_10, # of connection points: 2
#     Edge 24, Type (0, 0), BuildingBlock: TEMPAE_clean_linker_10, # of connection points: 2
#     Edge 25, Type (0, 0), BuildingBlock: TEMPAE_clean_linker_10, # of connection points: 2
#     Edge 26, Type (0, 0), BuildingBlock: TEMPAE_clean_linker_10, # of connection points: 2
#     Edge 27, Type (0, 0), BuildingBlock: TEMPAE_clean_linker_10, # of connection points: 2
#     Edge 28, Type (0, 0), BuildingBlock: TEMPAE_clean_linker_10, # of connection points: 2
#     Edge 29, Type (0, 0), BuildingBlock: TEMPAE_clean_linker_10, # of connection points: 2
#     Edge 30, Type (0, 0), BuildingBlock: TEMPAE_clean_linker_10, # of connection points: 2
#     Edge 31, Type (0, 0), BuildingBlock: TEMPAE_clean_linker_10, # of connection points: 2
#     Edge 32, Type (0, 0), BuildingBlock: TEMPAE_clean_linker_10, # of connection points: 2
#     Edge 33, Type (0, 0), BuildingBlock: TEMPAE_clean_linker_10, # of connection points: 2
#     Edge 34, Type (0, 0), BuildingBlock: TEMPAE_clean_linker_10, # of connection points: 2
#     Edge 35, Type (0, 0), BuildingBlock: TEMPAE_clean_linker_10, # of connection points: 2
#     Edge 36, Type (0, 0), BuildingBlock: TEMPAE_clean_linker_10, # of connection points: 2
#     Edge 37, Type (0, 0), BuildingBlock: TEMPAE_clean_linker_10, # of connection points: 2
#     Edge 38, Type (0, 0), BuildingBlock: TEMPAE_clean_linker_10, # of connection points: 2
#     Edge 39, Type (0, 0), BuildingBlock: TEMPAE_clean_linker_10, # of connection points: 2
#     Edge 40, Type (0, 0), BuildingBlock: TEMPAE_clean_linker_10, # of connection points: 2
#     Edge 41, Type (0, 0), BuildingBlock: TEMPAE_clean_linker_10, # of connection points: 2
#     Edge 42, Type (0, 0), BuildingBlock: TEMPAE_clean_linker_10, # of connection points: 2
#     Edge 43, Type (0, 0), BuildingBlock: TEMPAE_clean_linker_10, # of connection points: 2
#     Edge 44, Type (0, 0), BuildingBlock: TEMPAE_clean_linker_10, # of connection points: 2
#     Edge 45, Type (0, 0), BuildingBlock: TEMPAE_clean_linker_10, # of connection points: 2
#     Edge 46, Type (0, 0), BuildingBlock: TEMPAE_clean_linker_10, # of connection points: 2
#     Edge 47, Type (0, 0), BuildingBlock: TEMPAE_clean_linker_10, # of connection points: 2
# Relax obj value: 0.005
# Max RMSD: 0.056
# Mean RMSD: 0.056
data_MOF--net-neb--node1-ICAMEG_clean_sbu_1--edge1-TEMPAE_clean_linker_10
_symmetry_space_group_name_H-M    P1
_symmetry_Int_Tables_number       1
_symmetry_cell_setting            triclinic
loop_
_symmetry_equiv_pos_as_xyz
'x, y, z'
_cell_length_a     41.888631
_cell_length_b     24.884154
_cell_length_c     83.877088
_cell_angle_alpha  89.994452
_cell_angle_beta   101.60112
_cell_angle_gamma 89.995602
loop_
_atom_site_label
_atom_site_type_symbol
_atom_site_fract_x
_atom_site_fract_y
_atom_site_fract_z
_atom_type_partial_charge
Co0 Co 0.16401 0.08666 0.43032 0.0
Co1 Co 0.09986 0.1445 0.4432 0.0
O2 O 0.12177 0.0811 0.43683 0.0
C3 C 0.12546 0.01744 0.40427 0.0
O4 O 0.10196 0.05326 0.40201 0.0
C5 C 0.08121 0.11013 0.47377 0.0
O6 O 0.09756 0.15213 0.48052 0.0
O7 O 0.13913 0.16029 0.46037 0.0
O8 O 0.17825 0.14657 0.44608 0.0
H9 H 0.09336 0.33777 0.45962 0.0
H10 H 0.14178 0.98161 0.44076 0.0
O11 O 0.15154 0.02579 0.41471 0.0
H12 H 0.24656 0.0175 0.47804 0.0
H13 H 0.26432 0.01244 0.41368 0.0
H14 H 0.20517 0.17696 0.42312 0.0
H15 H 0.22428 0.08181 0.45628 0.0
H16 H 0.21187 0.00664 0.42265 0.0
O17 O 0.08108 0.09884 0.4589 0.0
H18 H 0.11998 0.25695 0.45135 0.0
H19 H 0.033 0.16706 0.44914 0.0
H20 H 0.25765 0.18458 0.41427 0.0
H21 H 0.16338 0.91589 0.46225 0.0
H22 H 0.28761 0.10191 0.40948 0.0
H23 H 0.21611 0.93371 0.48109 0.0
O24 O 0.14583 0.14039 0.41323 0.0
H25 H 0.01427 0.02335 0.41134 0.0
H26 H 0.05801 0.20788 0.41663 0.0
H27 H 0.01121 0.18669 0.39462 0.0
H28 H 0.98895 0.09389 0.39189 0.0
H29 H 0.06134 0.04611 0.43305 0.0
H30 H 0.00547 0.24688 0.45744 0.0
H31 H 0.03569 0.33304 0.46272 0.0
O32 O 0.11763 0.19124 0.42757 0.0
C33 C 0.16844 0.16509 0.45843 0.0
C34 C 0.07993 0.30047 0.45735 0.0
C35 C 0.0306 0.24947 0.45612 0.0
N36 N 0.07807 0.20736 0.44973 0.0
C37 C 0.09487 0.25457 0.45266 0.0
C38 C 0.04631 0.20442 0.45142 0.0
C39 C 0.04757 0.29779 0.45908 0.0
C40 C 0.16485 0.98947 0.44885 0.0
N41 N 0.18181 0.03534 0.4472 0.0
C42 C 0.17691 0.95219 0.46102 0.0
C43 C 0.20649 0.96223 0.4716 0.0
C44 C 0.22358 0.00924 0.46989 0.0
C45 C 0.21078 0.04557 0.45757 0.0
C46 C 0.25152 0.04875 0.41574 0.0
C47 C 0.21812 0.14078 0.42115 0.0
C48 C 0.22176 0.04572 0.42079 0.0
N49 N 0.20554 0.09142 0.42351 0.0
C50 C 0.2478 0.14536 0.4161 0.0
C51 C 0.26458 0.09896 0.4134 0.0
C52 C 0.13156 0.18425 0.41552 0.0
C53 C 0.02368 0.06398 0.41243 0.0
C54 C 0.04861 0.16733 0.41549 0.0
C55 C 0.02201 0.15562 0.40302 0.0
C56 C 0.00952 0.10355 0.40151 0.0
N57 N 0.06231 0.12833 0.42619 0.0
C58 C 0.05023 0.07717 0.42475 0.0
Co59 Co 0.09158 0.08145 0.82057 0.0
Co60 Co 0.15592 0.145 0.80982 0.0
O61 O 0.13565 0.07944 0.81596 0.0
C62 C 0.12858 0.01461 0.84778 0.0
O63 O 0.15144 0.0515 0.85056 0.0
C64 C 0.17035 0.06712 0.78505 0.0
O65 O 0.13965 0.05221 0.78193 0.0
O66 O 0.11871 0.15479 0.79112 0.0
O67 O 0.07786 0.14028 0.80427 0.0
H68 H 0.15617 0.33766 0.7919 0.0
H69 H 0.11891 0.97826 0.81175 0.0
O70 O 0.10339 0.02161 0.83665 0.0
H71 H 0.01854 0.00629 0.77042 0.0
H72 H 0.98952 0.99899 0.83301 0.0
H73 H 0.04604 0.16823 0.82562 0.0
H74 H 0.03512 0.07176 0.79259 0.0
H75 H 0.04424 0.99757 0.82636 0.0
O76 O 0.18023 0.10255 0.79585 0.0
H77 H 0.13178 0.25466 0.80018 0.0
H78 H 0.22278 0.17434 0.80547 0.0
H79 H 0.99126 0.17147 0.83216 0.0
H80 H 0.10299 0.91137 0.7899 0.0
H81 H 0.96262 0.08641 0.8359 0.0
H82 H 0.05253 0.92529 0.769 0.0
O83 O 0.10572 0.13664 0.83785 0.0
H84 H 0.24262 0.03764 0.84632 0.0
H85 H 0.19095 0.21588 0.83647 0.0
H86 H 0.23561 0.20261 0.86021 0.0
H87 H 0.26184 0.11299 0.86524 0.0
H88 H 0.1976 0.05255 0.8228 0.0
H89 H 0.24808 0.25631 0.79706 0.0
H90 H 0.21473 0.33883 0.79029 0.0
O91 O 0.13307 0.19014 0.82384 0.0
C92 C 0.08881 0.15786 0.79214 0.0
C93 C 0.17097 0.30199 0.79485 0.0
C94 C 0.22254 0.25632 0.79773 0.0
N95 N 0.17585 0.20975 0.80339 0.0
C96 C 0.1573 0.25488 0.79958 0.0
C97 C 0.20805 0.20996 0.80243 0.0
C98 C 0.20382 0.30261 0.79394 0.0
C99 C 0.09674 0.98431 0.8028 0.0
N100 N 0.07791 0.02874 0.8035 0.0
C101 C 0.08792 0.94641 0.79042 0.0
C102 C 0.05963 0.95429 0.77868 0.0
C103 C 0.04056 0.99972 0.77947 0.0
C104 C 0.05013 0.03674 0.79203 0.0
C105 C 1.00174 0.03632 0.8314 0.0
C106 C 0.0337 0.13103 0.82716 0.0
C107 C 0.03277 0.03578 0.82767 0.0
N108 N 0.04828 0.08277 0.82553 0.0
C109 C 1.0027 0.13312 0.83089 0.0
C110 C 0.98665 0.08538 0.83301 0.0
C111 C 0.11846 0.18194 0.83558 0.0
C112 C 0.23145 0.07691 0.84423 0.0
C113 C 0.20212 0.17669 0.83861 0.0
C114 C 0.22747 0.16947 0.85205 0.0
C115 C 0.24219 0.11919 0.85486 0.0
N116 N 0.19175 0.13503 0.82823 0.0
C117 C 0.20604 0.08563 0.83091 0.0
Co118 Co 0.84363 0.92696 0.57036 0.0
Co119 Co 0.90632 0.86243 0.55833 0.0
O120 O 0.88694 0.9283 0.56483 0.0
C121 C 0.88284 0.99466 0.59675 0.0
O122 O 0.90571 0.95774 0.59925 0.0
C123 C 0.91892 0.94027 0.53312 0.0
O124 O 0.88835 0.95574 0.53067 0.0
O125 O 0.86785 0.85265 0.54026 0.0
O126 O 0.82853 0.86787 0.55434 0.0
H127 H 0.90457 0.66933 0.54067 0.0
H128 H 0.87037 0.02964 0.56073 0.0
O129 O 0.85685 0.98715 0.58617 0.0
H130 H 0.7674 1.002 0.52121 0.0
H131 H 0.74383 0.01108 0.58483 0.0
H132 H 0.79853 0.8409 0.57648 0.0
H133 H 0.78548 0.93669 0.54328 0.0
H134 H 0.79751 0.01161 0.57701 0.0
O135 O 0.92938 0.90439 0.54369 0.0
H136 H 0.88133 0.75275 0.5494 0.0
H137 H 0.97208 0.83236 0.55253 0.0
H138 H 0.74479 0.83856 0.58419 0.0
H139 H 0.85298 0.09633 0.53897 0.0
H140 H 0.71706 0.92409 0.58843 0.0
H141 H 0.8012 0.08262 0.51898 0.0
O142 O 0.85878 0.87188 0.58756 0.0
H143 H 0.99558 0.9697 0.5931 0.0
H144 H 0.94318 0.79173 0.58453 0.0
H145 H 0.98952 0.80501 0.60747 0.0
H146 H 0.01612 0.8945 0.61184 0.0
H147 H 0.9489 0.95478 0.57041 0.0
H148 H 0.9962 0.74996 0.54367 0.0
H149 H 0.9624 0.66758 0.53775 0.0
O150 O 0.88471 0.81784 0.57302 0.0
C151 C 0.83832 0.8497 0.54195 0.0
C152 C 0.91956 0.70493 0.54324 0.0
C153 C 0.97097 0.7502 0.54491 0.0
N154 N 0.92535 0.79734 0.55154 0.0
C155 C 0.90655 0.75228 0.54822 0.0
C156 C 0.95715 0.79681 0.54987 0.0
C157 C 0.952 0.70399 0.54159 0.0
C158 C 0.84765 0.02366 0.55219 0.0
N159 N 0.82891 0.97944 0.55334 0.0
C160 C 0.83799 0.06146 0.53985 0.0
C161 C 0.80896 0.0537 0.52862 0.0
C162 C 0.78999 0.00847 0.52986 0.0
C163 C 0.80041 0.97155 0.54236 0.0
C164 C 0.75565 0.97354 0.58301 0.0
C165 C 0.78659 0.87832 0.57823 0.0
C166 C 0.7861 0.97358 0.57861 0.0
N167 N 0.80111 0.92633 0.57621 0.0
C168 C 0.75617 0.87672 0.58263 0.0
C169 C 0.74064 0.92472 0.58501 0.0
C170 C 0.87099 0.82633 0.58507 0.0
C171 C 0.98425 0.93049 0.59129 0.0
C172 C 0.95449 0.83086 0.5864 0.0
C173 C 0.9808 0.83809 0.59938 0.0
C174 C 0.99573 0.8883 0.60182 0.0
N175 N 0.94339 0.87243 0.57611 0.0
C176 C 0.95789 0.92176 0.57843 0.0
Co177 Co 0.90813 0.93109 0.18073 0.0
Co178 Co 0.84592 0.86044 0.1922 0.0
O179 O 0.8643 0.92737 0.18563 0.0
C180 C 0.86612 0.99503 0.15387 0.0
O181 O 0.8419 0.96116 0.15328 0.0
C182 C 0.834 0.93729 0.21765 0.0
O183 O 0.86458 0.95254 0.21977 0.0
O184 O 0.88465 0.8496 0.21009 0.0
O185 O 0.92517 0.87774 0.19824 0.0
H186 H 0.84912 0.66618 0.20884 0.0
H187 H 0.87347 0.02924 0.18793 0.0
O188 O 0.89333 0.98649 0.16343 0.0
H189 H 0.97703 0.02881 0.22812 0.0
H190 H 0.00539 0.02477 0.1665 0.0
H191 H 0.95823 0.8502 0.17731 0.0
H192 H 0.96482 0.95737 0.20746 0.0
H193 H 0.95085 0.0201 0.17327 0.0
O194 O 0.82312 0.90125 0.20721 0.0
H195 H 0.87157 0.75051 0.20027 0.0
H196 H 0.78081 0.82882 0.19849 0.0
H197 H 0.01302 0.8531 0.17077 0.0
H198 H 0.88483 0.10201 0.2082 0.0
H199 H 0.03695 0.94086 0.1653 0.0
H200 H 0.93687 0.10198 0.22856 0.0
O201 O 0.89745 0.87114 0.1645 0.0
H202 H 0.75386 0.96606 0.15888 0.0
H203 H 0.80983 0.79073 0.16559 0.0
H204 H 0.76266 0.80362 0.14306 0.0
H205 H 0.73425 0.89176 0.13962 0.0
H206 H 0.80146 0.95168 0.1811 0.0
H207 H 0.75745 0.74542 0.20717 0.0
H208 H 0.79165 0.66326 0.21235 0.0
O209 O 0.86764 0.81768 0.17733 0.0
C210 C 0.91482 0.8532 0.20956 0.0
C211 C 0.83395 0.70168 0.2066 0.0
C212 C 0.78252 0.74618 0.20568 0.0
N213 N 0.82751 0.79453 0.19883 0.0
C214 C 0.84651 0.74955 0.20172 0.0
C215 C 0.79592 0.79334 0.20082 0.0
C216 C 0.80172 0.70008 0.20858 0.0
C217 C 0.89626 0.02905 0.19667 0.0
N218 N 0.91837 0.98871 0.19657 0.0
C219 C 0.90252 0.07034 0.20815 0.0
C220 C 0.93169 0.07026 0.21958 0.0
C221 C 0.9542 0.02917 0.21936 0.0
C222 C 0.94707 0.98853 0.20771 0.0
C223 C 0.99523 0.98628 0.16886 0.0
C224 C 0.96852 0.88858 0.17501 0.0
C225 C 0.96428 0.98336 0.17262 0.0
N226 N 0.95135 0.93493 0.17571 0.0
C227 C 0.99953 0.88995 0.17128 0.0
C228 C 0.01293 0.9392 0.1682 0.0
C229 C 0.88422 0.82583 0.16637 0.0
C230 C 0.76599 0.92744 0.16027 0.0
C231 C 0.79779 0.82934 0.16411 0.0
C232 C 0.77099 0.83632 0.15136 0.0
C233 C 0.75503 0.88576 0.14945 0.0
N234 N 0.8084 0.87042 0.17467 0.0
C235 C 0.79286 0.91898 0.17288 0.0
Co236 Co 0.16508 0.58195 0.93068 0.0
Co237 Co 0.10263 0.63933 0.94509 0.0
O238 O 0.12371 0.57621 0.93803 0.0
C239 C 0.12405 0.51277 0.90552 0.0
O240 O 0.10036 0.54803 0.90431 0.0
C241 C 0.0863 0.60316 0.97606 0.0
O242 O 0.10299 0.64483 0.98282 0.0
O243 O 0.1429 0.65421 0.96169 0.0
O244 O 0.18054 0.64139 0.94646 0.0
H245 H 0.09788 0.83187 0.96252 0.0
H246 H 0.14364 0.47662 0.94136 0.0
O247 O 0.1513 0.5216 0.91501 0.0
H248 H 0.25054 0.51122 0.97692 0.0
H249 H 0.26298 0.50811 0.91166 0.0
H250 H 0.20555 0.67241 0.92294 0.0
H251 H 0.22687 0.57618 0.95562 0.0
H252 H 0.21171 0.50211 0.92175 0.0
O253 O 0.08514 0.59289 0.96104 0.0
H254 H 0.12345 0.7514 0.95333 0.0
H255 H 0.03688 0.66163 0.9525 0.0
H256 H 0.25685 0.68023 0.91298 0.0
H257 H 0.16662 0.41027 0.9624 0.0
H258 H 0.28594 0.59766 0.90726 0.0
H259 H 0.22042 0.42744 0.98038 0.0
O260 O 0.14579 0.63624 0.914 0.0
H261 H 0.0147 0.51992 0.9143 0.0
H262 H 0.05928 0.70392 0.91937 0.0
H263 H 0.01102 0.68386 0.89808 0.0
H264 H 0.98832 0.59133 0.89548 0.0
H265 H 0.06324 0.54154 0.93528 0.0
H266 H 0.01042 0.74109 0.96174 0.0
H267 H 0.04097 0.82701 0.96679 0.0
O268 O 0.11918 0.68677 0.92918 0.0
C269 C 0.17179 0.65922 0.95917 0.0
C270 C 0.08432 0.79467 0.96035 0.0
C271 C 0.03523 0.74373 0.95991 0.0
N272 N 0.08168 0.70189 0.95235 0.0
C273 C 0.09866 0.74898 0.95514 0.0
C274 C 0.05034 0.69888 0.95468 0.0
C275 C 0.05238 0.79192 0.96274 0.0
C276 C 0.16717 0.4842 0.94906 0.0
N277 N 0.18396 0.53007 0.94718 0.0
C278 C 0.18002 0.44655 0.96098 0.0
C279 C 0.21019 0.45624 0.97108 0.0
C280 C 0.2271 0.50324 0.96915 0.0
C281 C 0.21352 0.53994 0.95708 0.0
C282 C 0.25055 0.54437 0.91412 0.0
C283 C 0.21813 0.63628 0.92056 0.0
C284 C 0.22146 0.54123 0.9198 0.0
N285 N 0.20572 0.58687 0.92301 0.0
C286 C 0.24714 0.64097 0.91489 0.0
C287 C 0.26343 0.59463 0.91167 0.0
C288 C 0.13204 0.68014 0.91675 0.0
C289 C 0.02429 0.56044 0.91535 0.0
C290 C 0.04971 0.66347 0.91826 0.0
C291 C 0.02228 0.6524 0.90622 0.0
C292 C 0.00954 0.6005 0.90477 0.0
N293 N 0.06401 0.62398 0.92863 0.0
C294 C 0.05168 0.57299 0.92726 0.0
Co295 Co 0.09044 0.58725 0.32036 0.0
Co296 Co 0.15494 0.6436 0.30747 0.0
O297 O 0.13264 0.58072 0.31386 0.0
C298 C 0.12872 0.51731 0.34624 0.0
O299 O 0.15236 0.55287 0.34842 0.0
C300 C 0.17351 0.60809 0.27697 0.0
O301 O 0.15733 0.65009 0.27011 0.0
O302 O 0.11581 0.65954 0.29025 0.0
O303 O 0.07668 0.64767 0.30468 0.0
H304 H 0.16248 0.83648 0.29087 0.0
H305 H 0.11178 0.48172 0.30979 0.0
O306 O 0.10253 0.52604 0.33591 0.0
H307 H 0.00742 0.52039 0.27249 0.0
H308 H 0.98973 0.51506 0.33707 0.0
H309 H 0.04991 0.6784 0.32759 0.0
H310 H 0.03017 0.58391 0.29439 0.0
H311 H 0.04206 0.50822 0.32801 0.0
O312 O 0.17357 0.59731 0.29187 0.0
H313 H 0.13542 0.75623 0.29921 0.0
H314 H 0.22192 0.66495 0.30152 0.0
H315 H 0.9976 0.68705 0.33655 0.0
H316 H 0.0897 0.41674 0.28817 0.0
H317 H 0.96711 0.60498 0.34135 0.0
H318 H 0.03718 0.43597 0.26932 0.0
O319 O 0.10908 0.6405 0.33748 0.0
H320 H 0.2399 0.52181 0.33955 0.0
H321 H 0.19701 0.70688 0.33398 0.0
H322 H 0.24369 0.68544 0.35604 0.0
H323 H 0.26553 0.59236 0.3589 0.0
H324 H 0.19296 0.54483 0.31778 0.0
H325 H 0.24988 0.74416 0.29314 0.0
H326 H 0.22012 0.83073 0.28777 0.0
O327 O 0.13731 0.69095 0.32304 0.0
C328 C 0.08663 0.66531 0.29227 0.0
C329 C 0.17571 0.79899 0.29318 0.0
C330 C 0.22476 0.74719 0.29446 0.0
N331 N 0.17706 0.70598 0.30088 0.0
C332 C 0.16051 0.75342 0.29791 0.0
C333 C 0.2088 0.70248 0.2992 0.0
C334 C 0.20805 0.79574 0.29144 0.0
C335 C 0.0888 0.49018 0.30171 0.0
N336 N 0.07222 0.53641 0.30342 0.0
C337 C 0.07646 0.45332 0.28946 0.0
C338 C 0.04701 0.46415 0.27887 0.0
C339 C 0.0303 0.51151 0.28065 0.0
C340 C 0.04335 0.54739 0.29305 0.0
C341 C 1.00276 0.55111 0.335 0.0
C342 C 0.03675 0.64248 0.32958 0.0
C343 C 0.03245 0.54749 0.32991 0.0
N344 N 0.04897 0.59287 0.32719 0.0
C345 C 0.00715 0.64764 0.33469 0.0
C346 C 0.99008 0.60158 0.33739 0.0
C347 C 0.12343 0.68422 0.33513 0.0
C348 C 0.23068 0.56255 0.33839 0.0
C349 C 0.20623 0.66621 0.33519 0.0
C350 C 0.23275 0.65436 0.34767 0.0
C351 C 0.24501 0.60214 0.34926 0.0
N352 N 0.19236 0.6272 0.32453 0.0
C353 C 0.2042 0.57589 0.32604 0.0
Co354 Co 0.84512 0.4312 0.06965 0.0
Co355 Co 0.90747 0.35772 0.0596 0.0
O356 O 0.88951 0.42565 0.06566 0.0
C357 C 0.88548 0.49342 0.09743 0.0
O358 O 0.90811 0.45612 0.09962 0.0
C359 C 0.92308 0.43335 0.03474 0.0
O360 O 0.89267 0.4498 0.03199 0.0
O361 O 0.86994 0.34856 0.04099 0.0
O362 O 0.82865 0.37722 0.0522 0.0
H363 H 0.90253 0.16369 0.04265 0.0
H364 H 0.88145 0.52782 0.06275 0.0
O365 O 0.85951 0.48729 0.08673 0.0
H366 H 0.78023 0.52802 0.02091 0.0
H367 H 0.74744 0.52942 0.08173 0.0
H368 H 0.79337 0.35249 0.07233 0.0
H369 H 0.79034 0.45744 0.04193 0.0
H370 H 0.80282 0.52222 0.07611 0.0
O371 O 0.93264 0.39716 0.04535 0.0
H372 H 0.88045 0.24917 0.05062 0.0
H373 H 0.97329 0.32283 0.05515 0.0
H374 H 0.73773 0.35794 0.07773 0.0
H375 H 0.87218 0.59973 0.04212 0.0
H376 H 0.71442 0.44689 0.08248 0.0
H377 H 0.82133 0.6 0.02094 0.0
O378 O 0.8541 0.37196 0.08622 0.0
H379 H 0.9983 0.45962 0.09519 0.0
H380 H 0.93992 0.28662 0.08675 0.0
H381 H 0.98522 0.29766 0.11033 0.0
H382 H 0.01482 0.38462 0.11464 0.0
H383 H 0.95256 0.44707 0.07187 0.0
H384 H 0.99634 0.23826 0.04708 0.0
H385 H 0.9609 0.15784 0.04083 0.0
O386 O 0.88328 0.31622 0.07372 0.0
C387 C 0.83958 0.35254 0.04107 0.0
C388 C 0.91826 0.1984 0.04538 0.0
C389 C 0.97089 0.24028 0.04785 0.0
N390 N 0.92558 0.29087 0.05345 0.0
C391 C 0.9059 0.24689 0.04995 0.0
C392 C 0.95767 0.2881 0.05237 0.0
C393 C 0.95099 0.19516 0.04435 0.0
C394 C 0.85917 0.52778 0.05364 0.0
N395 N 0.83656 0.48808 0.05347 0.0
C396 C 0.8541 0.56857 0.04196 0.0
C397 C 0.82559 0.56866 0.03007 0.0
C398 C 0.80255 0.52824 0.03003 0.0
C399 C 0.80849 0.48808 0.04189 0.0
C400 C 0.75732 0.49043 0.07967 0.0
C401 C 0.78335 0.39139 0.07431 0.0
C402 C 0.78873 0.48607 0.07654 0.0
N403 N 0.80131 0.43698 0.07383 0.0
C404 C 0.75185 0.3942 0.07739 0.0
C405 C 0.7388 0.44412 0.08008 0.0
C406 C 0.86623 0.32568 0.08441 0.0
C407 C 0.98566 0.42149 0.09341 0.0
C408 C 0.95255 0.32469 0.08858 0.0
C409 C 0.97826 0.33064 0.10193 0.0
C410 C 0.99488 0.37942 0.10433 0.0
N411 N 0.94368 0.36613 0.07791 0.0
C412 C 0.95984 0.41407 0.08019 0.0
Co413 Co 0.91343 0.42849 0.68089 0.0
Co414 Co 0.84991 0.36412 0.69305 0.0
O415 O 0.87066 0.4292 0.68692 0.0
C416 C 0.87254 0.49444 0.65446 0.0
O417 O 0.84929 0.45823 0.65269 0.0
C418 C 0.83096 0.39579 0.72386 0.0
O419 O 0.84745 0.35367 0.73044 0.0
O420 O 0.88938 0.34776 0.71007 0.0
O421 O 0.92958 0.37174 0.69741 0.0
H422 H 0.84597 0.16923 0.70826 0.0
H423 H 0.88476 0.52993 0.69014 0.0
O424 O 0.89913 0.48688 0.6646 0.0
H425 H 0.99079 0.51323 0.72801 0.0
H426 H 0.01147 0.51331 0.66474 0.0
H427 H 0.95924 0.343 0.67532 0.0
H428 H 0.97296 0.44482 0.70686 0.0
H429 H 0.95815 0.51354 0.67293 0.0
O430 O 0.83072 0.40775 0.70903 0.0
H431 H 0.87145 0.25177 0.70038 0.0
H432 H 0.7835 0.33825 0.69899 0.0
H433 H 0.01272 0.34098 0.6673 0.0
H434 H 0.90179 0.59975 0.71097 0.0
H435 H 0.0392 0.42658 0.66195 0.0
H436 H 0.95513 0.59158 0.73012 0.0
O437 O 0.89868 0.37156 0.66414 0.0
H438 H 0.76215 0.4838 0.66218 0.0
H439 H 0.80911 0.3014 0.66602 0.0
H440 H 0.76188 0.32223 0.6442 0.0
H441 H 0.73799 0.41394 0.64221 0.0
H442 H 0.80969 0.46148 0.68367 0.0
H443 H 0.75708 0.25663 0.70688 0.0
H444 H 0.78837 0.17132 0.71156 0.0
O445 O 0.86832 0.31991 0.6772 0.0
C446 C 0.91931 0.34795 0.70889 0.0
C447 C 0.83207 0.20615 0.70625 0.0
C448 C 0.78218 0.25519 0.70547 0.0
N449 N 0.829 0.29978 0.69921 0.0
C450 C 0.84637 0.25302 0.70178 0.0
C451 C 0.79727 0.30127 0.701 0.0
C452 C 0.79976 0.20735 0.7081 0.0
C453 C 0.90805 0.52614 0.69839 0.0
N454 N 0.9278 0.48314 0.69731 0.0
C455 C 0.91754 0.56579 0.71018 0.0
C456 C 0.94746 0.56116 0.72093 0.0
C457 C 0.96745 0.51719 0.71976 0.0
C458 C 0.95716 0.47835 0.70782 0.0
C459 C 1.0002 0.47574 0.66705 0.0
C460 C 0.97067 0.38044 0.67309 0.0
C461 C 0.96994 0.4756 0.67165 0.0
N462 N 0.95564 0.42833 0.67468 0.0
C463 C 1.00092 0.37903 0.66852 0.0
C464 C 0.01575 0.42707 0.6655 0.0
C465 C 0.88409 0.32743 0.66587 0.0
C466 C 0.77226 0.44363 0.66295 0.0
C467 C 0.799 0.3415 0.66519 0.0
C468 C 0.77217 0.353 0.65284 0.0
C469 C 0.75876 0.40445 0.65174 0.0
N470 N 0.81206 0.38011 0.67618 0.0
C471 C 0.79908 0.43067 0.67515 0.0
Co472 Co 0.66327 0.08381 0.93006 0.0
Co473 Co 0.60029 0.14229 0.94374 0.0
O474 O 0.62139 0.07883 0.93693 0.0
C475 C 0.62285 0.01511 0.90446 0.0
O476 O 0.59971 0.05154 0.90255 0.0
C477 C 0.58255 0.10671 0.97442 0.0
O478 O 0.59925 0.14827 0.98125 0.0
O479 O 0.6401 0.15657 0.96069 0.0
O480 O 0.67849 0.14336 0.94588 0.0
H481 H 0.59593 0.33506 0.96101 0.0
H482 H 0.64069 0.979 0.94056 0.0
O483 O 0.64966 0.02324 0.9144 0.0
H484 H 0.74666 0.0125 0.97709 0.0
H485 H 0.76178 0.00773 0.91213 0.0
H486 H 0.70493 0.17337 0.92279 0.0
H487 H 0.72419 0.07743 0.95555 0.0
H488 H 0.70985 1.00292 0.92165 0.0
O489 O 0.58177 0.09627 0.95944 0.0
H490 H 0.62152 0.25407 0.95216 0.0
H491 H 0.5341 0.16577 0.9504 0.0
H492 H 0.75687 0.17998 0.91338 0.0
H493 H 0.66247 0.91267 0.96183 0.0
H494 H 0.78568 0.09675 0.90798 0.0
H495 H 0.7158 0.92929 0.9803 0.0
O496 O 0.64499 0.13835 0.91323 0.0
H497 H 0.51279 0.02412 0.91203 0.0
H498 H 0.55832 0.20746 0.91767 0.0
H499 H 0.51074 0.18807 0.89591 0.0
H500 H 0.48757 0.09588 0.89301 0.0
H501 H 0.56065 0.04509 0.9335 0.0
H502 H 0.5076 0.24577 0.95928 0.0
H503 H 0.53856 0.33121 0.96463 0.0
O504 O 0.61794 0.18931 0.92811 0.0
C505 C 0.66917 0.16137 0.95843 0.0
C506 C 0.58218 0.29807 0.95871 0.0
C507 C 0.5326 0.24797 0.95774 0.0
N508 N 0.57933 0.20526 0.95074 0.0
C509 C 0.59654 0.25208 0.9537 0.0
C510 C 0.54774 0.20281 0.95271 0.0
C511 C 0.54999 0.29589 0.96074 0.0
C512 C 0.66402 0.98633 0.94847 0.0
N513 N 0.68121 0.03188 0.94674 0.0
C514 C 0.67619 0.94871 0.96052 0.0
C515 C 0.7061 0.95808 0.97089 0.0
C516 C 0.72342 1.00476 0.9691 0.0
C517 C 0.71052 0.04144 0.9569 0.0
C518 C 0.74947 0.04428 0.91446 0.0
C519 C 0.71736 0.13694 0.92054 0.0
C520 C 0.72001 0.04182 0.91981 0.0
N521 N 0.70443 0.08782 0.92285 0.0
C522 C 0.74675 0.14095 0.91518 0.0
C523 C 0.76288 0.09424 0.91214 0.0
C524 C 0.63148 0.18259 0.9159 0.0
C525 C 0.52259 0.0645 0.9132 0.0
C526 C 0.54853 0.16716 0.91645 0.0
C527 C 0.52149 0.15647 0.90413 0.0
C528 C 0.50849 0.10475 0.90252 0.0
N529 N 0.56217 0.1275 0.92692 0.0
C530 C 0.54959 0.07667 0.92539 0.0
Co531 Co 0.59313 0.07946 0.32105 0.0
Co532 Co 0.65898 0.14312 0.31026 0.0
O533 O 0.63653 0.07866 0.31567 0.0
C534 C 0.63391 0.01493 0.3479 0.0
O535 O 0.65762 0.0501 0.34906 0.0
C536 C 0.67727 0.11307 0.27916 0.0
O537 O 0.66181 0.15664 0.27301 0.0
O538 O 0.62017 0.16364 0.29333 0.0
O539 O 0.5777 0.13371 0.30361 0.0
H540 H 0.66882 0.33929 0.29778 0.0
H541 H 0.62377 0.97809 0.31301 0.0
O542 O 0.60694 0.023 0.33809 0.0
H543 H 0.51802 0.98759 0.2746 0.0
H544 H 0.4944 0.99604 0.33697 0.0
H545 H 0.54601 0.16507 0.3247 0.0
H546 H 0.53436 0.05854 0.29515 0.0
H547 H 0.54836 0.99508 0.32946 0.0
O548 O 0.67724 0.09986 0.29387 0.0
H549 H 0.64094 0.25776 0.3046 0.0
H550 H 0.72601 0.16502 0.30453 0.0
H551 H 0.49187 0.1678 0.33201 0.0
H552 H 0.60825 0.90583 0.29283 0.0
H553 H 0.46572 0.08284 0.33821 0.0
H554 H 0.55507 0.91038 0.2734 0.0
O555 O 0.60617 0.1384 0.33739 0.0
H556 H 0.74379 0.01582 0.33983 0.0
H557 H 0.70075 0.20063 0.33813 0.0
H558 H 0.74729 0.1751 0.35977 0.0
H559 H 0.76921 0.08215 0.36068 0.0
H560 H 0.69695 0.04281 0.31854 0.0
H561 H 0.75484 0.24555 0.29769 0.0
H562 H 0.7262 0.33349 0.29426 0.0
O563 O 0.64136 0.18689 0.32638 0.0
C564 C 0.58969 0.16017 0.29318 0.0
C565 C 0.68154 0.3012 0.2992 0.0
C566 C 0.72982 0.24859 0.29916 0.0
N567 N 0.68173 0.20662 0.30489 0.0
C568 C 0.66585 0.25487 0.30304 0.0
C569 C 0.71336 0.20313 0.30303 0.0
C570 C 0.71374 0.29792 0.29724 0.0
C571 C 0.60057 0.98036 0.30462 0.0
N572 N 0.58011 0.02278 0.30517 0.0
C573 C 0.59192 0.93931 0.29321 0.0
C574 C 0.56209 0.9419 0.2823 0.0
C575 C 0.54131 0.98522 0.28296 0.0
C576 C 0.55078 0.02548 0.29455 0.0
C577 C 0.50553 0.03332 0.33428 0.0
C578 C 0.5347 0.12789 0.32729 0.0
C579 C 0.53615 0.03305 0.33008 0.0
N580 N 0.55028 0.07996 0.32657 0.0
C581 C 0.50408 0.1297 0.33146 0.0
C582 C 0.48944 0.08203 0.33496 0.0
C583 C 0.62293 0.18093 0.33663 0.0
C584 C 0.73454 0.0565 0.33952 0.0
C585 C 0.70998 0.16001 0.33849 0.0
C586 C 0.73644 0.14584 0.35075 0.0
C587 C 0.74875 0.0937 0.35124 0.0
N588 N 0.69622 0.12333 0.32702 0.0
C589 C 0.70813 0.07211 0.32744 0.0
Co590 Co 0.34723 0.92649 0.07046 0.0
Co591 Co 0.41153 0.85655 0.0605 0.0
O592 O 0.39165 0.92324 0.0663 0.0
C593 C 0.38723 0.98931 0.0982 0.0
O594 O 0.41114 0.95443 0.09961 0.0
C595 C 0.4235 0.93208 0.03472 0.0
O596 O 0.3928 0.94682 0.03231 0.0
O597 O 0.37368 0.84275 0.04235 0.0
O598 O 0.33151 0.87359 0.05261 0.0
H599 H 0.41276 0.66082 0.04584 0.0
H600 H 0.38285 0.02415 0.06372 0.0
O601 O 0.36086 0.98164 0.0879 0.0
H602 H 0.27999 0.02637 0.02303 0.0
H603 H 0.24839 0.01849 0.08361 0.0
H604 H 0.29675 0.84508 0.07266 0.0
H605 H 0.29111 0.95463 0.04366 0.0
H606 H 0.30362 0.01477 0.07766 0.0
O607 O 0.43443 0.89701 0.04547 0.0
H608 H 0.38829 0.74481 0.05336 0.0
H609 H 0.47773 0.82724 0.05521 0.0
H610 H 0.24126 0.84704 0.07836 0.0
H611 H 0.37258 0.09726 0.04351 0.0
H612 H 0.21674 0.93422 0.08391 0.0
H613 H 0.32092 0.09853 0.02289 0.0
O614 O 0.35692 0.86644 0.08673 0.0
H615 H 0.5002 0.96859 0.09394 0.0
H616 H 0.44774 0.79032 0.08798 0.0
H617 H 0.49368 0.80692 0.11088 0.0
H618 H 0.52031 0.89655 0.11395 0.0
H619 H 0.45387 0.95048 0.07133 0.0
H620 H 0.50312 0.74424 0.04758 0.0
H621 H 0.4706 0.66018 0.0429 0.0
O622 O 0.38977 0.81412 0.07537 0.0
C623 C 0.34318 0.84759 0.04196 0.0
C624 C 0.4272 0.69717 0.04785 0.0
C625 C 0.47789 0.74401 0.04881 0.0
N626 N 0.43152 0.79092 0.05471 0.0
C627 C 0.41347 0.74487 0.05212 0.0
C628 C 0.46334 0.79095 0.05307 0.0
C629 C 0.45964 0.69685 0.0462 0.0
C630 C 0.36028 0.02441 0.05481 0.0
N631 N 0.33783 0.98447 0.05468 0.0
C632 C 0.35461 0.06594 0.04339 0.0
C633 C 0.32564 0.0666 0.03182 0.0
C634 C 0.30271 0.02607 0.03186 0.0
C635 C 0.30925 0.98517 0.04346 0.0
C636 C 0.25881 0.98026 0.08121 0.0
C637 C 0.28618 0.88321 0.07497 0.0
C638 C 0.29016 0.97787 0.07791 0.0
N639 N 0.30341 0.92976 0.07476 0.0
C640 C 0.25478 0.88405 0.07823 0.0
C641 C 0.24105 0.93297 0.08136 0.0
C642 C 0.37157 0.8219 0.08562 0.0
C643 C 0.48885 0.92933 0.09271 0.0
C644 C 0.45904 0.82954 0.08928 0.0
C645 C 0.48514 0.83864 0.10224 0.0
C646 C 0.50009 0.88892 0.10395 0.0
N647 N 0.44817 0.86938 0.0783 0.0
C648 C 0.46271 0.91876 0.07989 0.0
Co649 Co 0.41492 0.93169 0.68105 0.0
Co650 Co 0.35297 0.87103 0.69508 0.0
O651 O 0.37333 0.93533 0.68825 0.0
C652 C 0.37391 0.99975 0.65535 0.0
O653 O 0.35109 0.96276 0.65322 0.0
C654 C 0.33539 0.90451 0.72599 0.0
O655 O 0.35254 0.86311 0.73262 0.0
O656 O 0.39328 0.85673 0.71177 0.0
O657 O 0.43101 0.87243 0.69678 0.0
H658 H 0.35048 0.67755 0.71198 0.0
H659 H 0.39168 0.03567 0.69177 0.0
O660 O 0.40053 0.9922 0.66549 0.0
H661 H 0.4987 1.00461 0.72765 0.0
H662 H 0.51222 0.01057 0.66266 0.0
H663 H 0.45691 0.84336 0.67332 0.0
H664 H 0.47628 0.93929 0.70622 0.0
H665 H 0.46057 0.01392 0.67247 0.0
O666 O 0.33452 0.91591 0.71106 0.0
H667 H 0.3752 0.75945 0.70318 0.0
H668 H 0.2872 0.8456 0.702 0.0
H669 H 0.50863 0.83818 0.66365 0.0
H670 H 0.41338 0.10235 0.71294 0.0
H671 H 0.53666 0.92222 0.65825 0.0
H672 H 0.46725 0.08697 0.73108 0.0
O673 O 0.39676 0.87695 0.66422 0.0
H674 H 0.2642 0.98857 0.66412 0.0
H675 H 0.31085 0.80594 0.66905 0.0
H676 H 0.26274 0.82516 0.64758 0.0
H677 H 0.239 0.91699 0.64504 0.0
H678 H 0.31258 0.96779 0.6853 0.0
H679 H 0.26157 0.76465 0.71085 0.0
H680 H 0.29326 0.67983 0.71589 0.0
O681 O 0.37045 0.8251 0.67921 0.0
C682 C 0.42232 0.853 0.70933 0.0
C683 C 0.33641 0.71426 0.70982 0.0
C684 C 0.28651 0.76314 0.70918 0.0
N685 N 0.33268 0.80726 0.70205 0.0
C686 C 0.35028 0.76078 0.70483 0.0
C687 C 0.30116 0.80884 0.70417 0.0
C688 C 0.30431 0.71557 0.71201 0.0
C689 C 0.41524 0.02886 0.69955 0.0
N690 N 0.43276 0.98379 0.69769 0.0
C691 C 0.42736 0.06669 0.71154 0.0
C692 C 0.45757 0.05801 0.72172 0.0
C693 C 0.47523 0.01181 0.71981 0.0
C694 C 0.46235 0.9749 0.70767 0.0
C695 C 0.50027 0.97367 0.66499 0.0
C696 C 0.46903 0.88012 0.67109 0.0
C697 C 0.47096 0.97531 0.67051 0.0
N698 N 0.45582 0.92887 0.67357 0.0
C699 C 0.49828 0.87693 0.66557 0.0
C700 C 0.51397 0.92409 0.66253 0.0
C701 C 0.38357 0.83241 0.6669 0.0
C702 C 0.27424 0.94835 0.66514 0.0
C703 C 0.3008 0.84608 0.66799 0.0
C704 C 0.27347 0.85667 0.65583 0.0
C705 C 0.26015 0.90819 0.65442 0.0
N706 N 0.31442 0.88564 0.6785 0.0
C707 C 0.30155 0.93628 0.67716 0.0
Co708 Co 0.65965 0.57894 0.43204 0.0
Co709 Co 0.59757 0.65008 0.44307 0.0
O710 O 0.61583 0.58275 0.43681 0.0
C711 C 0.61968 0.5161 0.40428 0.0
O712 O 0.59786 0.55463 0.40127 0.0
C713 C 0.5841 0.57435 0.46848 0.0
O714 O 0.61468 0.55884 0.47103 0.0
O715 O 0.63594 0.66043 0.46121 0.0
O716 O 0.67636 0.63419 0.44902 0.0
H717 H 0.60143 0.84433 0.45976 0.0
H718 H 0.62582 0.48092 0.44001 0.0
O719 O 0.64497 0.52166 0.41543 0.0
H720 H 0.72899 0.48683 0.48045 0.0
H721 H 0.75709 0.48398 0.41849 0.0
H722 H 0.70961 0.65948 0.42809 0.0
H723 H 0.71627 0.55628 0.45918 0.0
H724 H 0.70242 0.48933 0.42508 0.0
O725 O 0.57378 0.60998 0.4578 0.0
H726 H 0.62378 0.75949 0.4515 0.0
H727 H 0.53209 0.68312 0.44852 0.0
H728 H 0.7645 0.65588 0.42168 0.0
H729 H 0.63772 0.41011 0.46092 0.0
H730 H 0.78859 0.56765 0.41683 0.0
H731 H 0.68956 0.4129 0.48139 0.0
O732 O 0.64861 0.63731 0.41529 0.0
H733 H 0.50708 0.54467 0.40849 0.0
H734 H 0.56252 0.72034 0.41632 0.0
H735 H 0.51638 0.70765 0.39324 0.0
H736 H 0.48826 0.61934 0.38923 0.0
H737 H 0.55357 0.55895 0.43133 0.0
H738 H 0.5088 0.76704 0.45689 0.0
H739 H 0.54352 0.8485 0.46251 0.0
O740 O 0.62019 0.69221 0.42843 0.0
C741 C 0.66607 0.65809 0.46048 0.0
C742 C 0.58603 0.80915 0.45731 0.0
C743 C 0.53406 0.76575 0.45572 0.0
N744 N 0.57924 0.71644 0.44945 0.0
C745 C 0.59853 0.761 0.4526 0.0
C746 C 0.54741 0.71829 0.45103 0.0
C747 C 0.55355 0.81145 0.45886 0.0
C748 C 0.64852 0.48231 0.44882 0.0
N749 N 0.67025 0.52304 0.44843 0.0
C750 C 0.65509 0.44213 0.46065 0.0
C751 C 0.68416 0.44375 0.47214 0.0
C752 C 0.70626 0.48526 0.47164 0.0
C753 C 0.69885 0.52475 0.45963 0.0
C754 C 0.74687 0.52266 0.42059 0.0
C755 C 0.71998 0.6209 0.42607 0.0
C756 C 0.71586 0.52597 0.42428 0.0
N757 N 0.70287 0.57467 0.42705 0.0
C758 C 0.75105 0.61913 0.42241 0.0
C759 C 0.76454 0.56962 0.41967 0.0
C760 C 0.63615 0.6832 0.41726 0.0
C761 C 0.51907 0.58339 0.41014 0.0
C762 C 0.5505 0.68172 0.41463 0.0
C763 C 0.52433 0.67482 0.40156 0.0
C764 C 0.50855 0.62527 0.39932 0.0
N765 N 0.56063 0.64047 0.42521 0.0
C766 C 0.54532 0.59176 0.42308 0.0
Co767 Co 0.59462 0.58084 0.81942 0.0
Co768 Co 0.66095 0.64687 0.8102 0.0
O769 O 0.63922 0.58136 0.81549 0.0
C770 C 0.63227 0.51793 0.84769 0.0
O771 O 0.65563 0.55399 0.84999 0.0
C772 C 0.67217 0.57092 0.78431 0.0
O773 O 0.64123 0.55752 0.78167 0.0
O774 O 0.62383 0.66347 0.7919 0.0
O775 O 0.58049 0.63475 0.80167 0.0
H776 H 0.66766 0.84277 0.7966 0.0
H777 H 0.62784 0.4807 0.81256 0.0
O778 O 0.60689 0.52476 0.83668 0.0
H779 H 0.52563 0.4865 0.77143 0.0
H780 H 0.49366 0.49468 0.83211 0.0
H781 H 0.54573 0.66512 0.82151 0.0
H782 H 0.53843 0.55747 0.79226 0.0
H783 H 0.54913 0.49519 0.8264 0.0
O784 O 0.68342 0.60535 0.79521 0.0
H785 H 0.64081 0.76032 0.80354 0.0
H786 H 0.72819 0.67185 0.80553 0.0
H787 H 0.49006 0.66636 0.827 0.0
H788 H 0.61587 0.40843 0.79213 0.0
H789 H 0.46367 0.58069 0.83236 0.0
H790 H 0.56452 0.41118 0.7713 0.0
O791 O 0.60534 0.63997 0.83593 0.0
H792 H 0.74547 0.52805 0.84391 0.0
H793 H 0.69813 0.71018 0.8381 0.0
H794 H 0.74288 0.68998 0.86127 0.0
H795 H 0.76692 0.59838 0.86426 0.0
H796 H 0.70043 0.54983 0.821 0.0
H797 H 0.75596 0.75322 0.79849 0.0
H798 H 0.72569 0.83954 0.79402 0.0
O799 O 0.63976 0.69041 0.82503 0.0
C800 C 0.59316 0.66003 0.79123 0.0
C801 C 0.68112 0.8054 0.7985 0.0
C802 C 0.73066 0.75513 0.79955 0.0
N803 N 0.68282 0.71125 0.80488 0.0
C804 C 0.66602 0.75857 0.80242 0.0
C805 C 0.71475 0.70911 0.80346 0.0
C806 C 0.71366 0.80355 0.79705 0.0
C807 C 0.60542 0.48216 0.80357 0.0
N808 N 0.58406 0.52375 0.80345 0.0
C809 C 0.59878 0.44111 0.79202 0.0
C810 C 0.56998 0.44271 0.78033 0.0
C811 C 0.54818 0.48499 0.78038 0.0
C812 C 0.55566 0.52532 0.79211 0.0
C813 C 0.50489 0.53227 0.82978 0.0
C814 C 0.53434 0.62763 0.82373 0.0
C815 C 0.53636 0.53284 0.8266 0.0
N816 N 0.55063 0.58014 0.82354 0.0
C817 C 0.50284 0.62861 0.82688 0.0
C818 C 0.48807 0.58053 0.82991 0.0
C819 C 0.62108 0.68356 0.83511 0.0
C820 C 0.73526 0.56815 0.84271 0.0
C821 C 0.70835 0.67015 0.83935 0.0
C822 C 0.73375 0.659 0.85248 0.0
C823 C 0.74725 0.60761 0.85414 0.0
N824 N 0.69676 0.63126 0.82817 0.0
C825 C 0.70985 0.58078 0.82973 0.0
Co826 Co 0.33946 0.43427 0.5708 0.0
Co827 Co 0.40555 0.3721 0.55981 0.0
O828 O 0.38285 0.43604 0.56541 0.0
C829 C 0.37942 0.49781 0.59816 0.0
O830 O 0.40302 0.4623 0.59969 0.0
C831 C 0.42389 0.40325 0.52884 0.0
O832 O 0.4084 0.35983 0.52259 0.0
O833 O 0.36685 0.35185 0.54279 0.0
O834 O 0.32426 0.38037 0.55322 0.0
H835 H 0.41589 0.17667 0.54656 0.0
H836 H 0.36981 0.53593 0.56283 0.0
O837 O 0.35296 0.49036 0.58792 0.0
H838 H 0.26338 0.5275 0.52496 0.0
H839 H 0.24046 0.51512 0.58719 0.0
H840 H 0.29284 0.34767 0.57422 0.0
H841 H 0.28008 0.4561 0.54531 0.0
H842 H 0.29433 0.51746 0.57961 0.0
O843 O 0.42377 0.41616 0.54356 0.0
H844 H 0.38777 0.25758 0.55366 0.0
H845 H 0.47275 0.35114 0.55415 0.0
H846 H 0.23878 0.34359 0.58158 0.0
H847 H 0.35393 0.6087 0.54285 0.0
H848 H 0.21223 0.42775 0.58814 0.0
H849 H 0.30041 0.60466 0.52368 0.0
O850 O 0.35295 0.37518 0.58704 0.0
H851 H 0.48955 0.49946 0.58998 0.0
H852 H 0.44751 0.31391 0.58748 0.0
H853 H 0.49383 0.33923 0.60928 0.0
H854 H 0.51523 0.43256 0.61059 0.0
H855 H 0.44298 0.47264 0.56851 0.0
H856 H 0.5018 0.27124 0.54704 0.0
H857 H 0.47334 0.1832 0.54319 0.0
O858 O 0.3881 0.32746 0.5758 0.0
C859 C 0.33634 0.35473 0.54265 0.0
C860 C 0.42854 0.21481 0.54817 0.0
C861 C 0.47676 0.26788 0.54845 0.0
N862 N 0.42851 0.30909 0.55425 0.0
C863 C 0.41272 0.26079 0.55217 0.0
C864 C 0.46018 0.31298 0.55247 0.0
C865 C 0.46078 0.2185 0.54629 0.0
C866 C 0.3465 0.53381 0.55452 0.0
N867 N 0.32608 0.49133 0.55508 0.0
C868 C 0.33763 0.57518 0.54324 0.0
C869 C 0.30761 0.57289 0.53249 0.0
C870 C 0.28685 0.52958 0.53318 0.0
C871 C 0.29654 0.489 0.54463 0.0
C872 C 0.25176 0.47819 0.58434 0.0
C873 C 0.28135 0.38451 0.57695 0.0
C874 C 0.28234 0.47922 0.5801 0.0
N875 N 0.29666 0.43276 0.57638 0.0
C876 C 0.25078 0.38193 0.58116 0.0
C877 C 0.23592 0.42915 0.58486 0.0
C878 C 0.36992 0.33297 0.58617 0.0
C879 C 0.48053 0.45862 0.5895 0.0
C880 C 0.45655 0.35468 0.58801 0.0
C881 C 0.48287 0.36873 0.60035 0.0
C882 C 0.49489 0.42109 0.60108 0.0
N883 N 0.44265 0.39168 0.57666 0.0
C884 C 0.45427 0.44312 0.57732 0.0
Co885 Co 0.41111 0.42474 0.18122 0.0
Co886 Co 0.35027 0.35713 0.19394 0.0
O887 O 0.368 0.4238 0.18694 0.0
C888 C 0.37006 0.49052 0.15474 0.0
O889 O 0.34747 0.45314 0.1525 0.0
C890 C 0.3367 0.43551 0.21874 0.0
O891 O 0.36701 0.45223 0.22096 0.0
O892 O 0.38923 0.3499 0.21189 0.0
O893 O 0.42776 0.36737 0.19757 0.0
H894 H 0.35637 0.16496 0.21273 0.0
H895 H 0.38223 0.52614 0.1904 0.0
O896 O 0.39644 0.48362 0.1651 0.0
H897 H 0.48646 0.50646 0.22954 0.0
H898 H 0.50881 0.51365 0.16599 0.0
H899 H 0.45777 0.34097 0.17527 0.0
H900 H 0.46942 0.43903 0.20798 0.0
H901 H 0.45528 0.5116 0.17395 0.0
O902 O 0.3267 0.39853 0.20848 0.0
H903 H 0.37766 0.24917 0.2034 0.0
H904 H 0.28544 0.32394 0.20027 0.0
H905 H 0.51143 0.34121 0.16747 0.0
H906 H 0.39851 0.59484 0.21166 0.0
H907 H 0.53733 0.42801 0.16276 0.0
H908 H 0.45093 0.58515 0.23146 0.0
O909 O 0.39691 0.36804 0.16437 0.0
H910 H 0.25814 0.458 0.159 0.0
H911 H 0.31464 0.2835 0.16825 0.0
H912 H 0.26768 0.2933 0.14543 0.0
H913 H 0.23902 0.38102 0.14071 0.0
H914 H 0.30548 0.44659 0.18157 0.0
H915 H 0.26325 0.24069 0.20972 0.0
H916 H 0.29876 0.16034 0.21595 0.0
O917 O 0.3725 0.31317 0.17938 0.0
C918 C 0.41876 0.34846 0.2101 0.0
C919 C 0.34063 0.19966 0.21002 0.0
C920 C 0.28838 0.24218 0.20835 0.0
N921 N 0.33279 0.29136 0.20121 0.0
C922 C 0.35253 0.24744 0.20471 0.0
C923 C 0.30112 0.28927 0.20306 0.0
C924 C 0.30832 0.19711 0.21184 0.0
C925 C 0.40522 0.52189 0.19887 0.0
N926 N 0.42491 0.47874 0.19788 0.0
C927 C 0.41425 0.56082 0.21092 0.0
C928 C 0.44364 0.55532 0.22204 0.0
C929 C 0.46358 0.51116 0.22098 0.0
C930 C 0.45375 0.47303 0.20876 0.0
C931 C 0.4978 0.47557 0.16802 0.0
C932 C 0.46892 0.37893 0.17333 0.0
C933 C 0.46744 0.47415 0.17249 0.0
N934 N 0.45346 0.42621 0.17517 0.0
C935 C 0.49929 0.3788 0.16887 0.0
C936 C 0.51379 0.42751 0.16622 0.0
C937 C 0.38583 0.32189 0.16721 0.0
C938 C 0.27037 0.41954 0.16095 0.0
C939 C 0.30242 0.32188 0.16623 0.0
C940 C 0.27577 0.32714 0.15332 0.0
C941 C 0.25969 0.37635 0.15068 0.0
N942 N 0.31273 0.36442 0.17626 0.0
C943 C 0.2971 0.41279 0.17375 0.0
C944 C 0.28428 0.35287 0.52224 0.0
C945 C 0.31323 0.3271 0.5296 0.0
C946 C 0.26083 0.3267 0.51056 0.0
C947 C 0.26616 0.27289 0.50635 0.0
C948 C 0.29553 0.24664 0.51364 0.0
C949 C 0.31898 0.27439 0.52505 0.0
C950 C 0.23035 0.35675 0.50274 0.0
C951 C 0.30185 0.18898 0.50962 0.0
C952 C 0.19054 0.19331 0.4872 0.0
C953 C 0.19254 0.194 0.47074 0.0
C954 C 0.21477 0.21777 0.49901 0.0
C955 C 0.24109 0.24462 0.49413 0.0
C956 C 0.24284 0.24619 0.47747 0.0
C957 C 0.21877 0.22035 0.46601 0.0
C958 C 0.2124 0.21449 0.5167 0.0
C959 C 0.26995 0.27566 0.4717 0.0
H960 H 0.28007 0.39388 0.52547 0.0
H961 H 0.34128 0.2543 0.53077 0.0
H962 H 0.22787 0.35695 0.48931 0.0
H963 H 0.20855 0.33619 0.50544 0.0
H964 H 0.2304 0.39898 0.50704 0.0
H965 H 0.3257 0.17417 0.5165 0.0
H966 H 0.28226 0.16287 0.51247 0.0
H967 H 0.30142 0.18482 0.49642 0.0
H968 H 0.1705 0.17245 0.4909 0.0
H969 H 0.22031 0.22124 0.45327 0.0
H970 H 0.21024 0.25543 0.5216 0.0
H971 H 0.23495 0.19631 0.5239 0.0
H972 H 0.19115 0.19029 0.51855 0.0
H973 H 0.26989 0.31861 0.47526 0.0
H974 H 0.26765 0.27328 0.45829 0.0
H975 H 0.2939 0.25872 0.47761 0.0
C976 C 0.9733 0.94193 0.5251 0.0
C977 C 0.94199 0.96403 0.52373 0.0
C978 C 0.99594 0.96392 0.51668 0.0
C979 C 0.98729 0.00949 0.50666 0.0
C980 C 0.95565 0.03183 0.50508 0.0
C981 C 0.93332 0.00873 0.51359 0.0
C982 C 0.02929 0.93863 0.51865 0.0
C983 C 0.94557 0.08059 0.49457 0.0
C984 C 0.05631 0.09763 0.4983 0.0
C985 C 0.05865 0.08172 0.48252 0.0
C986 C 0.03314 0.07463 0.50624 0.0
C987 C 0.01176 0.03453 0.49825 0.0
C988 C 0.0143 0.01763 0.48243 0.0
C989 C 0.03768 0.04142 0.47475 0.0
C990 C 0.03132 0.09366 0.52313 0.0
C991 C 0.99213 0.97472 0.47355 0.0
H992 H 0.98028 0.90722 0.53281 0.0
H993 H 0.90925 0.02613 0.51247 0.0
H994 H 0.03421 0.92732 0.50658 0.0
H995 H 0.04824 0.96806 0.52413 0.0
H996 H 0.03183 0.90223 0.52648 0.0
H997 H 0.91989 0.09237 0.4943 0.0
H998 H 0.96163 0.11502 0.49918 0.0
H999 H 0.94849 0.0726 0.48193 0.0
H1000 H 0.07229 0.1288 0.50441 0.0
H1001 H 0.03915 0.02897 0.46254 0.0
H1002 H 0.03541 0.05941 0.53177 0.0
H1003 H 0.00664 0.10979 0.52319 0.0
H1004 H 0.04956 0.12539 0.52763 0.0
H1005 H 0.9949 0.93708 0.48079 0.0
H1006 H 0.99728 0.96592 0.46133 0.0
H1007 H 0.96634 0.98756 0.47208 0.0
C1008 C 0.3098 0.91376 0.75041 0.0
C1009 C 0.31266 0.93171 0.73489 0.0
C1010 C 0.28632 0.93551 0.75839 0.0
C1011 C 0.26521 0.97648 0.75074 0.0
C1012 C 0.26831 0.99549 0.7352 0.0
C1013 C 0.29194 0.97284 0.72746 0.0
C1014 C 0.28384 0.91415 0.77495 0.0
C1015 C 0.24649 0.03946 0.7267 0.0
C1016 C 0.18578 1.00026 0.76535 0.0
C1017 C 0.19411 0.04383 0.77598 0.0
C1018 C 0.2086 0.97805 0.75697 0.0
C1019 C 0.24038 1.00019 0.75918 0.0
C1020 C 0.24876 0.0445 0.76975 0.0
C1021 C 0.22564 0.06558 0.77804 0.0
C1022 C 0.19882 0.93058 0.74586 0.0
C1023 C 0.28226 0.06955 0.77239 0.0
H1024 H 0.32554 0.88187 0.75625 0.0
H1025 H 0.29382 0.98691 0.71545 0.0
H1026 H 0.28767 0.94722 0.78401 0.0
H1027 H 0.25906 0.89782 0.77458 0.0
H1028 H 0.30194 0.88199 0.77921 0.0
H1029 H 0.25213 0.05001 0.71469 0.0
H1030 H 0.22063 0.02668 0.72483 0.0
H1031 H 0.24908 0.07608 0.7344 0.0
H1032 H 0.16154 0.98314 0.76369 0.0
H1033 H 0.23238 0.0994 0.78614 0.0
H1034 H 0.21482 0.89579 0.75016 0.0
H1035 H 0.20207 0.94032 0.73338 0.0
H1036 H 0.17308 0.91847 0.74528 0.0
H1037 H 0.30096 0.0394 0.77762 0.0
H1038 H 0.28464 0.10475 0.7807 0.0
H1039 H 0.28771 0.08269 0.76058 0.0
C1040 C 0.05665 0.16488 0.76388 0.0
C1041 C 0.06578 0.18649 0.77951 0.0
C1042 C 0.03185 0.189 0.75231 0.0
C1043 C 0.01659 0.23644 0.75645 0.0
C1044 C 0.02632 0.25875 0.77221 0.0
C1045 C 0.05047 0.23292 0.78365 0.0
C1046 C 0.02162 0.16333 0.73576 0.0
C1047 C 0.01136 0.31002 0.77697 0.0
C1048 C 0.97718 0.32807 0.72196 0.0
C1049 C 0.94379 0.31898 0.72117 0.0
C1050 C 1.00098 0.30188 0.73345 0.0
C1051 C 0.99135 0.26402 0.74413 0.0
C1052 C 0.95776 0.2535 0.7432 0.0
C1053 C 0.93433 0.28166 0.73188 0.0
C1054 C 0.03646 0.31526 0.73427 0.0
C1055 C 0.94661 0.21234 0.75412 0.0
H1056 H 0.06817 0.12821 0.76091 0.0
H1057 H 0.05752 0.24904 0.79587 0.0
H1058 H 0.99509 0.1547 0.73332 0.0
H1059 H 0.02606 0.19141 0.72618 0.0
H1060 H 0.03494 0.1253 0.73471 0.0
H1061 H 0.02216 0.3226 0.78962 0.0
H1062 H 0.01483 0.34291 0.76855 0.0
H1063 H 0.98474 0.30468 0.77594 0.0
H1064 H 0.98495 0.3561 0.71364 0.0
H1065 H 0.90865 0.2738 0.73125 0.0
H1066 H 0.04992 0.27877 0.73184 0.0
H1067 H 0.04769 0.32941 0.74668 0.0
H1068 H 0.03982 0.34681 0.72538 0.0
H1069 H 0.95833 0.17303 0.75282 0.0
H1070 H 0.91973 0.2069 0.75133 0.0
H1071 H 0.9542 0.22474 0.76703 0.0
C1072 C 0.79692 0.77804 0.53488 0.0
C1073 C 0.81439 0.82054 0.52983 0.0
C1074 C 0.77238 0.75158 0.52384 0.0
C1075 C 0.76437 0.76947 0.50749 0.0
C1076 C 0.78174 0.81307 0.50241 0.0
C1077 C 0.80699 0.83762 0.51362 0.0
C1078 C 0.75527 0.70417 0.52962 0.0
C1079 C 0.77333 0.83422 0.4852 0.0
C1080 C 0.72381 0.67265 0.47472 0.0
C1081 C 0.69068 0.6858 0.473 0.0
C1082 C 0.74783 0.69887 0.48608 0.0
C1083 C 0.73881 0.74099 0.49558 0.0
C1084 C 0.7055 0.75525 0.49378 0.0
C1085 C 0.68174 0.72686 0.48269 0.0
C1086 C 0.78292 0.68127 0.48794 0.0
C1087 C 0.69504 0.80103 0.50337 0.0
H1088 H 0.80272 0.76525 0.5475 0.0
H1089 H 0.82022 0.87127 0.50989 0.0
H1090 H 0.72879 0.71237 0.52795 0.0
H1091 H 0.75817 0.66816 0.52224 0.0
H1092 H 0.76488 0.69473 0.54265 0.0
H1093 H 0.78796 0.87016 0.48344 0.0
H1094 H 0.77757 0.80261 0.47654 0.0
H1095 H 0.74709 0.84495 0.48206 0.0
H1096 H 0.73119 0.64166 0.46718 0.0
H1097 H 0.65629 0.7378 0.48133 0.0
H1098 H 0.79304 0.67069 0.50082 0.0
H1099 H 0.79783 0.71474 0.48463 0.0
H1100 H 0.78565 0.64605 0.48018 0.0
H1101 H 0.70167 0.79219 0.51658 0.0
H1102 H 0.66838 0.80855 0.50007 0.0
H1103 H 0.70806 0.83834 0.50122 0.0
C1104 C 0.71854 0.04154 0.2771 0.0
C1105 C 0.6988 0.08421 0.26993 0.0
C1106 C 0.74093 0.01682 0.26899 0.0
C1107 C 0.7437 0.03513 0.25334 0.0
C1108 C 0.72353 0.07762 0.24595 0.0
C1109 C 0.70134 0.10157 0.25431 0.0
C1110 C 0.76186 0.97143 0.27725 0.0
C1111 C 0.72563 0.09819 0.22925 0.0
C1112 C 0.82126 0.00541 0.23766 0.0
C1113 C 0.81145 0.96199 0.22715 0.0
C1114 C 0.79957 0.0294 0.24637 0.0
C1115 C 0.76735 0.00938 0.24456 0.0
C1116 C 0.75744 0.96526 0.2341 0.0
C1117 C 0.77953 0.94223 0.22553 0.0
C1118 C 0.81101 0.0765 0.25738 0.0
C1119 C 0.72338 0.94256 0.23186 0.0
H1120 H 0.71689 0.02789 0.28918 0.0
H1121 H 0.68629 0.13455 0.24867 0.0
H1122 H 0.75789 0.93484 0.26956 0.0
H1123 H 0.78799 0.98226 0.27879 0.0
H1124 H 0.7566 0.96167 0.28939 0.0
H1125 H 0.7082 0.13144 0.22517 0.0
H1126 H 0.75067 0.11279 0.22929 0.0
H1127 H 0.72055 0.0651 0.22023 0.0
H1128 H 0.84581 0.02103 0.23898 0.0
H1129 H 0.77163 0.90863 0.21749 0.0
H1130 H 0.80808 0.06743 0.26995 0.0
H1131 H 0.7958 0.11228 0.25321 0.0
H1132 H 0.83693 0.08672 0.25766 0.0
H1133 H 0.71821 0.93016 0.24379 0.0
H1134 H 0.71973 0.90734 0.22355 0.0
H1135 H 0.70531 0.97389 0.22682 0.0
C1136 C 0.97222 0.84255 0.22481 0.0
C1137 C 0.93945 0.82649 0.2223 0.0
C1138 C 0.99627 0.81732 0.23641 0.0
C1139 C 0.98772 0.77321 0.24531 0.0
C1140 C 0.9548 0.75605 0.24271 0.0
C1141 C 0.93093 0.78353 0.23144 0.0
C1142 C 0.03085 0.83805 0.23915 0.0
C1143 C 0.94493 0.70807 0.25162 0.0
C1144 C 0.05753 0.68004 0.26366 0.0
C1145 C 0.06296 0.69478 0.28007 0.0
C1146 C 0.03249 0.70426 0.25225 0.0
C1147 C 0.01336 0.7454 0.25735 0.0
C1148 C 0.01947 0.76125 0.2739 0.0
C1149 C 0.04379 0.73495 0.28512 0.0
C1150 C 0.02609 0.68517 0.23481 0.0
C1151 C 1.00051 0.80625 0.27974 0.0
H1152 H 0.97926 0.8751 0.21772 0.0
H1153 H 0.90579 0.77039 0.22947 0.0
H1154 H 0.03971 0.84748 0.25222 0.0
H1155 H 0.04715 0.80669 0.23582 0.0
H1156 H 0.03307 0.87473 0.2319 0.0
H1157 H 0.91859 0.69855 0.24776 0.0
H1158 H 0.95931 0.67234 0.24942 0.0
H1159 H 0.95032 0.71565 0.26492 0.0
H1160 H 0.07207 0.64821 0.25988 0.0
H1161 H 0.04808 0.74607 0.29788 0.0
H1162 H 0.03004 0.71852 0.22666 0.0
H1163 H 1.00029 0.67236 0.23104 0.0
H1164 H 0.04209 0.65105 0.23299 0.0
H1165 H 1.00288 0.84348 0.27278 0.0
H1166 H 0.00899 0.81475 0.29291 0.0
H1167 H 0.97424 0.79591 0.27753 0.0
C1168 C 0.28869 0.84336 0.02336 0.0
C1169 C 0.31961 0.82074 0.02884 0.0
C1170 C 0.26505 0.81747 0.01171 0.0
C1171 C 0.27204 0.76659 0.00575 0.0
C1172 C 0.30324 0.74335 0.01117 0.0
C1173 C 0.32689 0.77119 0.02246 0.0
C1174 C 0.23252 0.84457 0.00587 0.0
C1175 C 0.31133 0.68855 0.00536 0.0
C1176 C 0.19784 0.68187 0.98788 0.0
C1177 C 0.19657 0.68779 0.97117 0.0
C1178 C 0.22291 0.70597 0.9993 0.0
C1179 C 0.24654 0.73806 0.99383 0.0
C1180 C 0.2449 0.74489 0.97693 0.0
C1181 C 0.22023 0.71899 0.96581 0.0
C1182 C 0.22429 0.69675 0.01722 0.0
C1183 C 0.26889 0.78023 0.97059 0.0
H1184 H 0.28288 0.88161 0.02811 0.0
H1185 H 0.35065 0.75328 0.0267 0.0
H1186 H 0.22725 0.84766 0.99239 0.0
H1187 H 0.21282 0.82016 0.00932 0.0
H1188 H 0.23167 0.88553 0.01104 0.0
H1189 H 0.33653 0.67576 0.01092 0.0
H1190 H 0.29398 0.65837 0.0084 0.0
H1191 H 0.30864 0.68855 0.99194 0.0
H1192 H 0.17979 0.65713 0.992 0.0
H1193 H 0.21917 0.72374 0.95287 0.0
H1194 H 0.22108 0.73541 0.02328 0.0
H1195 H 0.24855 0.68062 0.02303 0.0
H1196 H 0.20522 0.6683 0.01944 0.0
H1197 H 0.26768 0.82179 0.97523 0.0
H1198 H 0.26411 0.78154 0.95707 0.0
H1199 H 0.29409 0.76552 0.97506 0.0
C1200 C 0.06204 0.59005 1.00077 0.0
C1201 C 0.06436 0.57405 0.98499 0.0
C1202 C 0.0391 0.56665 0.00879 0.0
C1203 C 0.01801 0.52604 1.0009 0.0
C1204 C 0.02071 0.5088 0.98513 0.0
C1205 C 0.04381 0.53302 0.97737 0.0
C1206 C 0.03706 0.58611 0.02561 0.0
C1207 C 0.99886 0.46532 0.97636 0.0
C1208 C 0.97822 0.43449 0.02752 0.0
C1209 C 0.94686 0.45671 0.02571 0.0
C1210 C 1.0014 0.45621 0.01937 0.0
C1211 C 0.9932 0.50157 0.00919 0.0
C1212 C 0.96155 0.52408 0.00722 0.0
C1213 C 0.93872 0.50129 0.01547 0.0
C1214 C 0.03477 0.43081 0.02174 0.0
C1215 C 0.95194 0.5726 0.99653 0.0
H1216 H 0.0777 0.62177 0.00677 0.0
H1217 H 0.04531 0.5204 0.96517 0.0
H1218 H 0.01244 0.60277 0.02549 0.0
H1219 H 0.04071 0.55201 0.0343 0.0
H1220 H 0.05546 0.61757 0.03015 0.0
H1221 H 0.00451 0.45564 0.96429 0.0
H1222 H 1.00138 0.42818 0.98383 0.0
H1223 H 0.97302 0.47817 0.97456 0.0
H1224 H 0.98479 0.39992 0.03535 0.0
H1225 H 0.91461 0.51881 0.01402 0.0
H1226 H 0.05362 0.4604 0.02721 0.0
H1227 H 0.0401 0.41879 0.00981 0.0
H1228 H 0.03702 0.39483 0.02974 0.0
H1229 H 0.96809 0.60693 1.00111 0.0
H1230 H 0.92627 0.58484 0.99608 0.0
H1231 H 0.9551 0.56403 0.98396 0.0
C1232 C 0.28208 0.43726 0.22652 0.0
C1233 C 0.31337 0.45948 0.22794 0.0
C1234 C 0.25919 0.45956 0.23473 0.0
C1235 C 0.26759 0.50552 0.24461 0.0
C1236 C 0.2992 0.52796 0.24625 0.0
C1237 C 0.32176 0.5046 0.23793 0.0
C1238 C 0.22585 0.4342 0.23269 0.0
C1239 C 0.30903 0.57709 0.25663 0.0
C1240 C 0.19845 0.59431 0.25251 0.0
C1241 C 0.19599 0.57905 0.26833 0.0
C1242 C 0.22164 0.57077 0.24469 0.0
C1243 C 0.24291 0.53081 0.25283 0.0
C1244 C 0.24022 0.5145 0.26869 0.0
C1245 C 0.21682 0.5388 0.27625 0.0
C1246 C 0.22362 0.58917 0.22775 0.0
C1247 C 0.26229 0.47176 0.27774 0.0
H1248 H 0.27529 0.40227 0.2189 0.0
H1249 H 0.34581 0.5221 0.2391 0.0
H1250 H 0.22073 0.42325 0.24475 0.0
H1251 H 0.20692 0.46345 0.22706 0.0
H1252 H 0.22349 0.39756 0.22497 0.0
H1253 H 0.33472 0.58895 0.25695 0.0
H1254 H 0.29295 0.61133 0.25185 0.0
H1255 H 0.30593 0.56951 0.26926 0.0
H1256 H 0.18258 0.62542 0.24628 0.0
H1257 H 0.21526 0.52682 0.28849 0.0
H1258 H 0.21976 0.55458 0.21924 0.0
H1259 H 0.24827 0.60541 0.22772 0.0
H1260 H 0.20531 0.62064 0.22308 0.0
H1261 H 0.25967 0.43395 0.27059 0.0
H1262 H 0.25692 0.46326 0.28993 0.0
H1263 H 0.28809 0.48461 0.27929 0.0
C1264 C 0.69848 0.1771 0.98698 0.0
C1265 C 0.69335 0.19058 0.97047 0.0
C1266 C 0.72343 0.20186 0.99831 0.0
C1267 C 0.74274 0.24237 0.99302 0.0
C1268 C 0.73703 0.25682 0.97635 0.0
C1269 C 0.71281 0.22993 0.96523 0.0
C1270 C 0.72942 0.18419 0.01587 0.0
C1271 C 0.75616 0.30117 0.97031 0.0
C1272 C 0.78268 0.34174 0.02519 0.0
C1273 C 0.81547 0.32562 0.02814 0.0
C1274 C 0.75905 0.31592 0.01351 0.0
C1275 C 0.76802 0.27116 0.005 0.0
C1276 C 0.80098 0.25411 0.008 0.0
C1277 C 0.82445 0.28221 0.01932 0.0
C1278 C 0.72442 0.33657 0.01032 0.0
C1279 C 0.8113 0.20547 0.99954 0.0
H1280 H 0.68368 0.14598 0.99092 0.0
H1281 H 0.7087 0.24019 0.95241 0.0
H1282 H 0.75527 0.1721 0.01996 0.0
H1283 H 0.72486 0.21809 0.0237 0.0
H1284 H 0.71359 0.14997 0.01781 0.0
H1285 H 0.74817 0.30829 0.95703 0.0
H1286 H 0.75334 0.33909 0.97686 0.0
H1287 H 0.78248 0.29109 0.97289 0.0
H1288 H 0.77528 0.3747 0.03201 0.0
H1289 H 0.84962 0.26909 0.0216 0.0
H1290 H 0.70802 0.3057 0.01382 0.0
H1291 H 0.7159 0.34467 0.99713 0.0
H1292 H 0.72193 0.37402 0.01718 0.0
H1293 H 0.79699 0.16989 0.00193 0.0
H1294 H 0.83765 0.19635 0.00362 0.0
H1295 H 0.80618 0.21194 0.98619 0.0
C1296 C 0.72643 0.56671 0.77621 0.0
C1297 C 0.69473 0.54622 0.77481 0.0
C1298 C 0.74861 0.54368 0.7677 0.0
C1299 C 0.73906 0.49869 0.75755 0.0
C1300 C 0.70703 0.47795 0.75595 0.0
C1301 C 0.6852 0.50208 0.76455 0.0
C1302 C 0.7824 0.5673 0.76969 0.0
C1303 C 0.69599 0.42986 0.7453 0.0
C1304 C 0.78834 0.46564 0.72528 0.0
C1305 C 0.80876 0.42427 0.7328 0.0
C1306 C 0.76548 0.49009 0.73315 0.0
C1307 C 0.76291 0.47279 0.74893 0.0
C1308 C 0.78369 0.43151 0.75666 0.0
C1309 C 0.80635 0.40784 0.74852 0.0
C1310 C 0.74394 0.53421 0.72454 0.0
C1311 C 0.7818 0.41202 0.7735 0.0
H1312 H 0.73407 0.60098 0.78402 0.0
H1313 H 0.66082 0.48589 0.76341 0.0
H1314 H 0.80084 0.53678 0.77495 0.0
H1315 H 0.78735 0.57883 0.75764 0.0
H1316 H 0.78572 0.60326 0.7777 0.0
H1317 H 0.67017 0.41918 0.74511 0.0
H1318 H 0.6988 0.43801 0.73265 0.0
H1319 H 0.71152 0.39466 0.74973 0.0
H1320 H 0.78987 0.47856 0.71311 0.0
H1321 H 0.8219 0.37583 0.75444 0.0
H1322 H 0.74755 0.57155 0.73191 0.0
H1323 H 0.71795 0.52264 0.72317 0.0
H1324 H 0.74895 0.54304 0.71229 0.0
H1325 H 0.78667 0.44578 0.78229 0.0
H1326 H 0.7995 0.37929 0.77778 0.0
H1327 H 0.75689 0.39707 0.77359 0.0
C1328 C 0.53999 0.03654 0.97565 0.0
C1329 C 0.56054 0.07755 0.9833 0.0
C1330 C 0.51716 0.01182 0.98349 0.0
C1331 C 0.51472 0.02853 0.99934 0.0
C1332 C 0.53568 0.06935 0.00721 0.0
C1333 C 0.55834 0.09324 0.99912 0.0
C1334 C 0.49544 0.96814 0.97474 0.0
C1335 C 0.53391 0.08826 0.02412 0.0
C1336 C 0.4369 1.00055 0.01497 0.0
C1337 C 0.44614 0.95616 0.02516 0.0
C1338 C 0.45883 0.02421 0.00634 0.0
C1339 C 0.49067 1.00278 0.00786 0.0
C1340 C 0.49991 0.95748 0.01793 0.0
C1341 C 0.47764 0.9349 0.02646 0.0
C1342 C 0.44812 0.07264 0.99578 0.0
C1343 C 0.53352 0.93317 0.01983 0.0
H1344 H 0.54139 0.02421 0.96342 0.0
H1345 H 0.57398 0.12496 0.00514 0.0
H1346 H 0.49874 0.93063 0.98204 0.0
H1347 H 0.46951 0.98013 0.97332 0.0
H1348 H 0.50055 0.95944 0.9625 0.0
H1349 H 0.55185 0.1205 0.02853 0.0
H1350 H 0.50911 0.10366 0.02425 0.0
H1351 H 0.53848 0.0541 0.03278 0.0
H1352 H 0.41268 0.01732 0.0139 0.0
H1353 H 0.48505 0.90044 0.03423 0.0
H1354 H 0.45097 0.06471 0.98312 0.0
H1355 H 0.46383 0.10754 1.00031 0.0
H1356 H 0.42234 0.08368 0.99557 0.0
H1357 H 0.53842 0.92203 0.00775 0.0
H1358 H 0.53652 0.89684 0.0277 0.0
H1359 H 0.55218 0.96314 0.02524 0.0
C1360 C 0.44061 0.31735 0.2387 0.0
C1361 C 0.44383 0.32134 0.22243 0.0
C1362 C 0.46513 0.29308 0.25042 0.0
C1363 C 0.49305 0.27128 0.24565 0.0
C1364 C 0.49619 0.27476 0.22921 0.0
C1365 C 0.47173 0.30016 0.21786 0.0
C1366 C 0.46121 0.29085 0.26791 0.0
C1367 C 0.52513 0.25087 0.22353 0.0
C1368 C 0.57029 0.24281 0.27717 0.0
C1369 C 0.56644 0.1882 0.28032 0.0
C1370 C 0.54636 0.27072 0.26606 0.0
C1371 C 0.51845 0.24287 0.25768 0.0
C1372 C 0.51507 0.1873 0.26052 0.0
C1373 C 0.53896 0.16084 0.27191 0.0
C1374 C 0.5506 0.33014 0.26352 0.0
C1375 C 0.48621 0.15571 0.25151 0.0
H1376 H 0.41923 0.33404 0.24231 0.0
H1377 H 0.47428 0.30269 0.20528 0.0
H1378 H 0.46009 0.24841 0.2718 0.0
H1379 H 0.48265 0.30949 0.27593 0.0
H1380 H 0.43883 0.31182 0.26977 0.0
H1381 H 0.52394 0.25726 0.21031 0.0
H1382 H 0.54805 0.26889 0.23036 0.0
H1383 H 0.5264 0.20704 0.22601 0.0
H1384 H 0.59141 0.26408 0.28377 0.0
H1385 H 0.53628 0.11845 0.27412 0.0
H1386 H 0.52965 0.3525 0.26652 0.0
H1387 H 0.5509 0.33833 0.25056 0.0
H1388 H 0.57346 0.346 0.27113 0.0
H1389 H 0.4633 0.17256 0.25412 0.0
H1390 H 0.4876 0.11248 0.25491 0.0
H1391 H 0.48477 0.15902 0.23819 0.0
C1392 C 0.44516 0.81972 0.73757 0.0
C1393 C 0.44734 0.82384 0.72117 0.0
C1394 C 0.46987 0.79428 0.7489 0.0
C1395 C 0.49696 0.77146 0.74359 0.0
C1396 C 0.49897 0.77484 0.72699 0.0
C1397 C 0.47434 0.8014 0.71603 0.0
C1398 C 0.46712 0.79212 0.76656 0.0
C1399 C 0.52698 0.74991 0.72075 0.0
C1400 C 0.57487 0.7418 0.77451 0.0
C1401 C 0.57051 0.68757 0.77798 0.0
C1402 C 0.55107 0.76984 0.76337 0.0
C1403 C 0.5227 0.7425 0.75528 0.0
C1404 C 0.51892 0.68717 0.7583 0.0
C1405 C 0.54274 0.66059 0.76971 0.0
C1406 C 0.5558 0.82899 0.7606 0.0
C1407 C 0.48954 0.6561 0.74962 0.0
H1408 H 0.42451 0.83738 0.74162 0.0
H1409 H 0.47608 0.80406 0.70334 0.0
H1410 H 0.46604 0.7497 0.77048 0.0
H1411 H 0.48905 0.81044 0.77427 0.0
H1412 H 0.44515 0.81344 0.76882 0.0
H1413 H 0.52486 0.75602 0.70746 0.0
H1414 H 0.5504 0.7674 0.72718 0.0
H1415 H 0.52799 0.70611 0.72329 0.0
H1416 H 0.59621 0.76285 0.78096 0.0
H1417 H 0.53965 0.61848 0.77211 0.0
H1418 H 0.53561 0.85221 0.76405 0.0
H1419 H 0.55504 0.83679 0.74751 0.0
H1420 H 0.5793 0.84423 0.76774 0.0
H1421 H 0.46705 0.67318 0.75267 0.0
H1422 H 0.49091 0.6128 0.75293 0.0
H1423 H 0.48725 0.6597 0.73625 0.0
C1424 C 0.44863 0.41431 0.5042 0.0
C1425 C 0.44573 0.43192 0.51974 0.0
C1426 C 0.47126 0.43775 0.496 0.0
C1427 C 0.4915 0.48002 0.50348 0.0
C1428 C 0.48831 0.4987 0.51903 0.0
C1429 C 0.4655 0.47444 0.52698 0.0
C1430 C 0.47381 0.41677 0.47941 0.0
C1431 C 0.50927 0.54391 0.52737 0.0
C1432 C 0.57011 0.50735 0.48849 0.0
C1433 C 0.56095 0.55057 0.47781 0.0
C1434 C 0.54786 0.48425 0.49704 0.0
C1435 C 0.51575 0.50499 0.49491 0.0
C1436 C 0.50652 0.54896 0.48429 0.0
C1437 C 0.52914 0.57107 0.47587 0.0
C1438 C 0.55859 0.43726 0.50822 0.0
C1439 C 0.47261 0.57243 0.48171 0.0
H1440 H 0.43357 0.38144 0.49849 0.0
H1441 H 0.46356 0.48829 0.539 0.0
H1442 H 0.46932 0.44978 0.47034 0.0
H1443 H 0.49882 0.40154 0.47969 0.0
H1444 H 0.4562 0.38386 0.47522 0.0
H1445 H 0.50353 0.55422 0.53937 0.0
H1446 H 0.53537 0.53253 0.52922 0.0
H1447 H 0.50588 0.58032 0.51958 0.0
H1448 H 0.59457 0.49117 0.49006 0.0
H1449 H 0.52175 0.60456 0.4677 0.0
H1450 H 0.54324 0.40168 0.504 0.0
H1451 H 0.55523 0.44679 0.5207 0.0
H1452 H 0.58452 0.42647 0.50878 0.0
H1453 H 0.45441 0.54142 0.47656 0.0
H1454 H 0.46954 0.60754 0.47336 0.0
H1455 H 0.46705 0.58522 0.49353 0.0
C1456 C 0.13769 0.7794 0.34322 0.0
C1457 C 0.12236 0.73105 0.34605 0.0
C1458 C 0.13615 0.82505 0.35283 0.0
C1459 C 0.11898 0.82267 0.36571 0.0
C1460 C 0.10344 0.77416 0.3687 0.0
C1461 C 0.10527 0.72891 0.35882 0.0
C1462 C 0.15312 0.87587 0.3492 0.0
C1463 C 0.08503 0.77001 0.38237 0.0
C1464 C 0.14583 0.92598 0.399 0.0
C1465 C 0.12225 0.96648 0.39483 0.0
C1466 C 0.14431 0.87823 0.39 0.0
C1467 C 0.11866 0.87058 0.37638 0.0
C1468 C 0.09427 0.9106 0.37233 0.0
C1469 C 0.09629 0.95804 0.38164 0.0
C1470 C 0.17077 0.83662 0.39479 0.0
C1471 C 0.06661 0.90401 0.35785 0.0
H1472 H 0.15092 0.78188 0.3334 0.0
H1473 H 0.09318 0.69199 0.36108 0.0
H1474 H 0.13547 0.90962 0.34698 0.0
H1475 H 0.17231 0.88693 0.35985 0.0
H1476 H 0.16458 0.87159 0.33842 0.0
H1477 H 0.07357 0.72994 0.38285 0.0
H1478 H 0.10181 0.77755 0.39419 0.0
H1479 H 0.06573 0.80119 0.38094 0.0
H1480 H 0.16583 0.93169 0.40928 0.0
H1481 H 0.0779 0.98894 0.37836 0.0
H1482 H 0.18505 0.83288 0.38504 0.0
H1483 H 0.15986 0.79671 0.39619 0.0
H1484 H 0.18775 0.84697 0.40634 0.0
H1485 H 0.07637 0.90361 0.3465 0.0
H1486 H 0.04838 0.93686 0.35699 0.0
H1487 H 0.05412 0.86502 0.35855 0.0
C1488 C 0.11751 0.27945 0.40739 0.0
C1489 C 0.13259 0.23091 0.40452 0.0
C1490 C 0.11892 0.32494 0.3977 0.0
C1491 C 0.13568 0.3222 0.38467 0.0
C1492 C 0.15097 0.27348 0.38163 0.0
C1493 C 0.1493 0.22841 0.39161 0.0
C1494 C 0.10226 0.37599 0.4014 0.0
C1495 C 0.16893 0.26895 0.3678 0.0
C1496 C 0.10827 0.42591 0.35155 0.0
C1497 C 0.132 0.46621 0.35561 0.0
C1498 C 0.10995 0.37801 0.3605 0.0
C1499 C 0.13591 0.37003 0.37396 0.0
C1500 C 0.16045 0.40984 0.37789 0.0
C1501 C 0.15827 0.45741 0.36863 0.0
C1502 C 0.08332 0.33663 0.35584 0.0
C1503 C 0.18844 0.40293 0.39219 0.0
H1504 H 0.10457 0.28225 0.41732 0.0
H1505 H 0.16119 0.19133 0.38931 0.0
H1506 H 0.12003 0.40957 0.4035 0.0
H1507 H 0.08289 0.38713 0.39084 0.0
H1508 H 0.09108 0.37196 0.41229 0.0
H1509 H 0.18017 0.22872 0.36726 0.0
H1510 H 0.15192 0.27661 0.35606 0.0
H1511 H 0.18836 0.29989 0.36909 0.0
H1512 H 0.08803 0.43191 0.3414 0.0
H1513 H 0.17679 0.48814 0.37182 0.0
H1514 H 0.06926 0.3331 0.36568 0.0
H1515 H 0.09405 0.2966 0.35439 0.0
H1516 H 0.06618 0.34707 0.34435 0.0
H1517 H 0.17904 0.40274 0.40365 0.0
H1518 H 0.20679 0.43553 0.39291 0.0
H1519 H 0.20068 0.36377 0.3914 0.0
C1520 C 0.1265 0.27935 0.84242 0.0
C1521 C 0.11539 0.22859 0.84628 0.0
C1522 C 0.12486 0.32424 0.85228 0.0
C1523 C 0.11188 0.31871 0.8665 0.0
C1524 C 0.09996 0.26801 0.87038 0.0
C1525 C 0.10179 0.22348 0.8602 0.0
C1526 C 0.13784 0.37744 0.84763 0.0
C1527 C 0.08598 0.26058 0.88546 0.0
C1528 C 0.14436 0.42283 0.8987 0.0
C1529 C 0.11953 0.4617 0.89614 0.0
C1530 C 0.14144 0.37503 0.88967 0.0
C1531 C 0.11299 0.36557 0.8777 0.0
C1532 C 0.08732 0.40371 0.8754 0.0
C1533 C 0.09088 0.45134 0.88467 0.0
C1534 C 0.16943 0.33557 0.89252 0.0
C1535 C 0.05662 0.39511 0.86275 0.0
H1536 H 0.13684 0.28426 0.83167 0.0
H1537 H 0.09299 0.18462 0.86326 0.0
H1538 H 0.11896 0.40908 0.84695 0.0
H1539 H 0.15904 0.3899 0.85709 0.0
H1540 H 0.14563 0.37562 0.83574 0.0
H1541 H 0.07571 0.2197 0.88619 0.0
H1542 H 0.1053 0.26735 0.89644 0.0
H1543 H 0.06654 0.29065 0.88574 0.0
H1544 H 0.16648 0.42998 0.90766 0.0
H1545 H 0.07145 0.48087 0.88269 0.0
H1546 H 0.18056 0.33386 0.8816 0.0
H1547 H 0.16052 0.29461 0.89451 0.0
H1548 H 0.18866 0.34669 0.90317 0.0
H1549 H 0.0624 0.39716 0.85042 0.0
H1550 H 0.03769 0.4257 0.86356 0.0
H1551 H 0.04644 0.3546 0.8641 0.0
C1552 C 0.11705 0.77524 0.90881 0.0
C1553 C 0.13258 0.72724 0.90585 0.0
C1554 C 0.11819 0.82118 0.89926 0.0
C1555 C 0.13524 0.8195 0.88633 0.0
C1556 C 0.151 0.77133 0.88321 0.0
C1557 C 0.14949 0.72575 0.893 0.0
C1558 C 0.10095 0.87157 0.90301 0.0
C1559 C 0.16936 0.76794 0.8695 0.0
C1560 C 0.10816 0.92316 0.85312 0.0
C1561 C 0.13161 0.96385 0.85733 0.0
C1562 C 0.10972 0.87539 0.86212 0.0
C1563 C 0.13532 0.8678 0.87577 0.0
C1564 C 0.15953 0.90806 0.8799 0.0
C1565 C 0.15743 0.95559 0.87062 0.0
C1566 C 0.0834 0.83359 0.85727 0.0
C1567 C 0.18718 0.90151 0.89439 0.0
H1568 H 0.10396 0.77723 0.9187 0.0
H1569 H 0.16176 0.68912 0.89065 0.0
H1570 H 0.11843 0.90551 0.90535 0.0
H1571 H 0.08175 0.88273 0.89238 0.0
H1572 H 0.08945 0.86668 0.91376 0.0
H1573 H 0.18098 0.72805 0.8689 0.0
H1574 H 0.15252 0.77566 0.85771 0.0
H1575 H 0.18853 0.79934 0.87101 0.0
H1576 H 0.08824 0.92873 0.84279 0.0
H1577 H 0.17574 0.98658 0.87394 0.0
H1578 H 0.06928 0.82919 0.86705 0.0
H1579 H 0.09445 0.79392 0.8557 0.0
H1580 H 0.06627 0.84415 0.84578 0.0
H1581 H 0.17736 0.90036 0.90572 0.0
H1582 H 0.20518 0.93473 0.89537 0.0
H1583 H 0.19994 0.86284 0.89357 0.0
C1584 C 0.90433 0.28369 0.64252 0.0
C1585 C 0.88621 0.28106 0.65488 0.0
C1586 C 0.90671 0.23881 0.63254 0.0
C1587 C 0.89071 0.19018 0.63503 0.0
C1588 C 0.87264 0.1873 0.64755 0.0
C1589 C 0.87055 0.23253 0.65722 0.0
C1590 C 0.92609 0.24348 0.61927 0.0
C1591 C 0.85518 0.1364 0.65068 0.0
C1592 C 0.86399 0.08762 0.60152 0.0
C1593 C 0.88674 0.04606 0.606 0.0
C1594 C 0.86599 0.13571 0.6104 0.0
C1595 C 0.89131 0.14269 0.6242 0.0
C1596 C 0.91504 0.10175 0.6285 0.0
C1597 C 0.91253 0.05394 0.61932 0.0
C1598 C 0.8402 0.17823 0.60534 0.0
C1599 C 0.94235 0.10756 0.64317 0.0
H1600 H 0.91669 0.32072 0.64064 0.0
H1601 H 0.85653 0.22953 0.66672 0.0
H1602 H 0.94512 0.21185 0.62077 0.0
H1603 H 0.90986 0.23702 0.60723 0.0
H1604 H 0.93798 0.28337 0.61923 0.0
H1605 H 0.84313 0.14017 0.66128 0.0
H1606 H 0.83637 0.1261 0.63979 0.0
H1607 H 0.87263 0.10239 0.65293 0.0
H1608 H 0.84416 0.0824 0.59113 0.0
H1609 H 0.93033 0.02229 0.62283 0.0
H1610 H 0.8517 0.21791 0.60434 0.0
H1611 H 0.82512 0.18191 0.61475 0.0
H1612 H 0.82387 0.16876 0.59351 0.0
H1613 H 0.95497 0.14659 0.64278 0.0
H1614 H 0.96053 0.07465 0.64399 0.0
H1615 H 0.93218 0.10727 0.6544 0.0
C1616 C 0.8412 0.55435 0.63248 0.0
C1617 C 0.86838 0.54544 0.64501 0.0
C1618 C 0.83829 0.60198 0.62319 0.0
C1619 C 0.86309 0.64158 0.62655 0.0
C1620 C 0.88994 0.63352 0.63955 0.0
C1621 C 0.89225 0.58575 0.64858 0.0
C1622 C 0.80928 0.60907 0.60943 0.0
C1623 C 0.91698 0.67451 0.64357 0.0
C1624 C 0.88109 0.72966 0.59254 0.0
C1625 C 0.868 0.7796 0.59577 0.0
C1626 C 0.87879 0.68444 0.60218 0.0
C1627 C 0.863 0.68873 0.61553 0.0
C1628 C 0.84925 0.73863 0.6188 0.0
C1629 C 0.85189 0.78354 0.60888 0.0
C1630 C 0.89391 0.6322 0.59824 0.0
C1631 C 0.83223 0.74475 0.63293 0.0
H1632 H 0.82252 0.52371 0.6297 0.0
H1633 H 0.91318 0.57981 0.65836 0.0
H1634 H 0.79784 0.64891 0.61027 0.0
H1635 H 0.81741 0.60775 0.59763 0.0
H1636 H 0.79061 0.57734 0.60938 0.0
H1637 H 0.93484 0.66419 0.65483 0.0
H1638 H 0.93015 0.67723 0.63336 0.0
H1639 H 0.90675 0.71486 0.64511 0.0
H1640 H 0.89347 0.72563 0.58244 0.0
H1641 H 0.84147 0.82168 0.61143 0.0
H1642 H 0.87555 0.5995 0.5967 0.0
H1643 H 0.91392 0.62066 0.60846 0.0
H1644 H 0.90395 0.63489 0.58697 0.0
H1645 H 0.81292 0.71384 0.63225 0.0
H1646 H 0.82108 0.78513 0.63326 0.0
H1647 H 0.84991 0.73827 0.64453 0.0
C1648 C 0.91591 0.5519 0.12012 0.0
C1649 C 0.88978 0.5444 0.10693 0.0
C1650 C 0.91886 0.59962 0.12938 0.0
C1651 C 0.89519 0.6408 0.12533 0.0
C1652 C 0.86952 0.63417 0.11166 0.0
C1653 C 0.86715 0.58629 0.10268 0.0
C1654 C 0.9466 0.60512 0.14385 0.0
C1655 C 0.84367 0.67679 0.10689 0.0
C1656 C 0.87386 0.72953 0.15843 0.0
C1657 C 0.88831 0.77899 0.15585 0.0
C1658 C 0.87684 0.68426 0.14892 0.0
C1659 C 0.89473 0.68789 0.13635 0.0
C1660 C 0.90992 0.73722 0.13377 0.0
C1661 C 0.90656 0.78225 0.14355 0.0
C1662 C 0.8601 0.63271 0.15214 0.0
C1663 C 0.92922 0.74264 0.12048 0.0
H1664 H 0.93368 0.52008 0.12342 0.0
H1665 H 0.84711 0.58155 0.09238 0.0
H1666 H 0.95897 0.64441 0.14353 0.0
H1667 H 0.93691 0.60396 0.15523 0.0
H1668 H 0.96488 0.5725 0.14435 0.0
H1669 H 0.82697 0.66756 0.09515 0.0
H1670 H 0.82898 0.68028 0.11648 0.0
H1671 H 0.85511 0.71649 0.10585 0.0
H1672 H 0.85982 0.7259 0.1679 0.0
H1673 H 0.91805 0.81995 0.1415 0.0
H1674 H 0.87786 0.59911 0.15413 0.0
H1675 H 0.841 0.6223 0.14139 0.0
H1676 H 0.84853 0.63574 0.16292 0.0
H1677 H 0.94797 0.7106 0.12167 0.0
H1678 H 0.94143 0.78236 0.12074 0.0
H1679 H 0.9128 0.73749 0.10844 0.0
C1680 C 0.88833 0.08138 0.14531 0.0
C1681 C 0.86204 0.04549 0.1441 0.0
C1682 C 0.88557 0.12923 0.1363 0.0
C1683 C 0.85575 0.14203 0.12573 0.0
C1684 C 0.82879 0.10682 0.12473 0.0
C1685 C 0.83225 0.05893 0.13391 0.0
C1686 C 0.91506 0.16524 0.13771 0.0
C1687 C 0.79658 0.11904 0.11361 0.0
C1688 C 0.84946 0.2859 0.10931 0.0
C1689 C 0.86035 0.27926 0.09467 0.0
C1690 C 0.84646 0.24131 0.11933 0.0
C1691 C 0.85432 0.18904 0.11452 0.0
C1692 C 0.86391 0.18209 0.09943 0.0
C1693 C 0.86682 0.227 0.08978 0.0
C1694 C 0.83611 0.25034 0.13533 0.0
C1695 C 0.87247 0.1273 0.09372 0.0
H1696 H 0.91143 0.07191 0.1532 0.0
H1697 H 0.81169 0.03185 0.13299 0.0
H1698 H 0.9233 0.16599 0.12593 0.0
H1699 H 0.90873 0.20705 0.14044 0.0
H1700 H 0.93571 0.15161 0.14733 0.0
H1701 H 0.77714 0.0906 0.11538 0.0
H1702 H 0.78871 0.16057 0.11571 0.0
H1703 H 0.79934 0.11665 0.10075 0.0
H1704 H 0.84424 0.32595 0.11317 0.0
H1705 H 0.87474 0.22092 0.0784 0.0
H1706 H 0.85698 0.24233 0.1455 0.0
H1707 H 0.81636 0.22201 0.13666 0.0
H1708 H 0.82751 0.2921 0.13654 0.0
H1709 H 0.89459 0.11181 0.10201 0.0
H1710 H 0.87721 0.12822 0.08116 0.0
H1711 H 0.85246 0.09842 0.09407 0.0
C1712 C 0.6332 0.77875 0.84379 0.0
C1713 C 0.61768 0.7299 0.84592 0.0
C1714 C 0.63085 0.82357 0.85357 0.0
C1715 C 0.6127 0.81996 0.86603 0.0
C1716 C 0.59663 0.77114 0.86825 0.0
C1717 C 0.5992 0.72667 0.85813 0.0
C1718 C 0.64834 0.87471 0.85067 0.0
C1719 C 0.5772 0.76569 0.88148 0.0
C1720 C 0.64065 0.92152 0.89967 0.0
C1721 C 0.61821 0.96357 0.89531 0.0
C1722 C 0.63795 0.87332 0.89081 0.0
C1723 C 0.61232 0.86685 0.87711 0.0
C1724 C 0.58884 0.90827 0.87298 0.0
C1725 C 0.59199 0.95607 0.88217 0.0
C1726 C 0.66344 0.83026 0.89572 0.0
C1727 C 0.56128 0.90312 0.8584 0.0
H1728 H 0.64748 0.78231 0.83442 0.0
H1729 H 0.587 0.68935 0.85987 0.0
H1730 H 0.63097 0.90888 0.84871 0.0
H1731 H 0.66735 0.88424 0.86155 0.0
H1732 H 0.66016 0.8717 0.83998 0.0
H1733 H 0.56487 0.72606 0.88115 0.0
H1734 H 0.59354 0.77067 0.89355 0.0
H1735 H 0.55853 0.79785 0.88029 0.0
H1736 H 0.66076 0.92645 0.90994 0.0
H1737 H 0.57442 0.98813 0.87877 0.0
H1738 H 0.67865 0.82695 0.88635 0.0
H1739 H 0.6517 0.79064 0.89647 0.0
H1740 H 0.6797 0.83896 0.90763 0.0
H1741 H 0.5712 0.90426 0.8471 0.0
H1742 H 0.54311 0.93595 0.85786 0.0
H1743 H 0.5487 0.86398 0.85863 0.0
C1744 C 0.65077 0.22852 0.89268 0.0
C1745 C 0.63323 0.23006 0.90528 0.0
C1746 C 0.65332 0.27443 0.88317 0.0
C1747 C 0.638 0.323 0.88632 0.0
C1748 C 0.62045 0.32479 0.89907 0.0
C1749 C 0.61824 0.27852 0.90832 0.0
C1750 C 0.67217 0.27088 0.86965 0.0
C1751 C 0.60362 0.37556 0.90285 0.0
C1752 C 0.66083 0.45904 0.87072 0.0
C1753 C 0.63513 0.46742 0.85739 0.0
C1754 C 0.66273 0.41145 0.87999 0.0
C1755 C 0.63846 0.37129 0.87579 0.0
C1756 C 0.613 0.37904 0.8621 0.0
C1757 C 0.61164 0.4268 0.85312 0.0
C1758 C 0.69024 0.4047 0.89453 0.0
C1759 C 0.5866 0.33741 0.85716 0.0
H1760 H 0.66266 0.19156 0.89028 0.0
H1761 H 0.60469 0.2806 0.91803 0.0
H1762 H 0.65561 0.27842 0.85777 0.0
H1763 H 0.69133 0.3023 0.87125 0.0
H1764 H 0.68384 0.23097 0.86918 0.0
H1765 H 0.5921 0.37094 0.9136 0.0
H1766 H 0.62135 0.40916 0.9052 0.0
H1767 H 0.5845 0.38706 0.89223 0.0
H1768 H 0.67919 0.48993 0.87406 0.0
H1769 H 0.59186 0.43231 0.84274 0.0
H1770 H 0.70286 0.36587 0.89376 0.0
H1771 H 0.6803 0.40377 0.90583 0.0
H1772 H 0.70837 0.43773 0.89554 0.0
H1773 H 0.59759 0.29768 0.85559 0.0
H1774 H 0.56959 0.34811 0.84564 0.0
H1775 H 0.57234 0.33306 0.86689 0.0
C1776 C 0.59801 0.22782 0.35798 0.0
C1777 C 0.62016 0.22759 0.34743 0.0
C1778 C 0.59455 0.27344 0.36748 0.0
C1779 C 0.61358 0.31995 0.36638 0.0
C1780 C 0.63584 0.31989 0.35574 0.0
C1781 C 0.63891 0.27395 0.3465 0.0
C1782 C 0.57068 0.27185 0.37875 0.0
C1783 C 0.65671 0.36839 0.35416 0.0
C1784 C 0.59277 0.45939 0.38035 0.0
C1785 C 0.61554 0.46473 0.39501 0.0
C1786 C 0.59077 0.41154 0.37118 0.0
C1787 C 0.61185 0.36795 0.37688 0.0
C1788 C 0.63383 0.37244 0.39201 0.0
C1789 C 0.63546 0.4206 0.40083 0.0
C1790 C 0.56707 0.40844 0.35508 0.0
C1791 C 0.65667 0.32709 0.39862 0.0
H1792 H 0.58321 0.19255 0.35874 0.0
H1793 H 0.65609 0.27474 0.33842 0.0
H1794 H 0.58384 0.27721 0.39152 0.0
H1795 H 0.55306 0.30548 0.37592 0.0
H1796 H 0.55694 0.23341 0.37784 0.0
H1797 H 0.67189 0.36265 0.34485 0.0
H1798 H 0.6411 0.40431 0.35082 0.0
H1799 H 0.67308 0.37696 0.36601 0.0
H1800 H 0.57719 0.49309 0.37579 0.0
H1801 H 0.65282 0.4238 0.41226 0.0
H1802 H 0.55246 0.37101 0.35437 0.0
H1803 H 0.58073 0.40712 0.34504 0.0
H1804 H 0.55024 0.44339 0.3531 0.0
H1805 H 0.64295 0.28895 0.39857 0.0
H1806 H 0.67016 0.33503 0.41122 0.0
H1807 H 0.67466 0.32119 0.39071 0.0
C1808 C 0.62958 0.78085 0.41045 0.0
C1809 C 0.64041 0.72975 0.40668 0.0
C1810 C 0.63204 0.82577 0.40074 0.0
C1811 C 0.64561 0.82008 0.38671 0.0
C1812 C 0.65738 0.7691 0.38294 0.0
C1813 C 0.65472 0.72446 0.393 0.0
C1814 C 0.61915 0.87917 0.4053 0.0
C1815 C 0.67201 0.76148 0.36807 0.0
C1816 C 0.61365 0.92473 0.35457 0.0
C1817 C 0.63832 0.96389 0.35735 0.0
C1818 C 0.61657 0.8766 0.36345 0.0
C1819 C 0.64485 0.86698 0.37551 0.0
C1820 C 0.67038 0.90541 0.37804 0.0
C1821 C 0.66684 0.95342 0.36892 0.0
C1822 C 0.58867 0.83697 0.36036 0.0
C1823 C 0.70092 0.89671 0.39079 0.0
H1824 H 0.61871 0.78605 0.42103 0.0
H1825 H 0.66334 0.68541 0.38999 0.0
H1826 H 0.63817 0.91061 0.40608 0.0
H1827 H 0.59815 0.89178 0.39574 0.0
H1828 H 0.61106 0.87752 0.41712 0.0
H1829 H 0.68248 0.72066 0.36753 0.0
H1830 H 0.65299 0.76783 0.35694 0.0
H1831 H 0.6914 0.79171 0.36789 0.0
H1832 H 0.59167 0.93182 0.34553 0.0
H1833 H 0.68618 0.98307 0.37106 0.0
H1834 H 0.57716 0.83507 0.37116 0.0
H1835 H 0.59774 0.7961 0.35842 0.0
H1836 H 0.56968 0.8481 0.3496 0.0
H1837 H 0.69494 0.89887 0.40308 0.0
H1838 H 0.71993 0.92721 0.39004 0.0
H1839 H 0.71107 0.85613 0.3895 0.0
C1840 C 0.3789 0.22393 0.16077 0.0
C1841 C 0.38964 0.27481 0.15676 0.0
C1842 C 0.38172 0.17845 0.15132 0.0
C1843 C 0.39555 0.18341 0.13734 0.0
C1844 C 0.40707 0.23426 0.13331 0.0
C1845 C 0.40402 0.2794 0.14308 0.0
C1846 C 0.36904 0.1252 0.15611 0.0
C1847 C 0.42193 0.24115 0.11848 0.0
C1848 C 0.41864 0.05059 0.11982 0.0
C1849 C 0.39064 0.03975 0.10795 0.0
C1850 C 0.42127 0.09829 0.12908 0.0
C1851 C 0.39533 0.13598 0.1264 0.0
C1852 C 0.36746 0.12581 0.11415 0.0
C1853 C 0.36548 0.07808 0.10512 0.0
C1854 C 0.45139 0.10767 0.14204 0.0
C1855 C 0.33914 0.16462 0.11088 0.0
H1856 H 0.36792 0.21936 0.17134 0.0
H1857 H 0.41262 0.31828 0.13991 0.0
H1858 H 0.34825 0.11184 0.14655 0.0
H1859 H 0.38826 0.094 0.15714 0.0
H1860 H 0.36072 0.12745 0.16786 0.0
H1861 H 0.43191 0.28219 0.11766 0.0
H1862 H 0.44176 0.21147 0.11866 0.0
H1863 H 0.40321 0.2334 0.10733 0.0
H1864 H 0.43833 0.02157 0.12203 0.0
H1865 H 0.34386 0.07073 0.09588 0.0
H1866 H 0.44492 0.1064 0.15423 0.0
H1867 H 0.46158 0.14813 0.1406 0.0
H1868 H 0.47055 0.07709 0.14167 0.0
H1869 H 0.32766 0.16679 0.12169 0.0
H1870 H 0.32023 0.15262 0.1002 0.0
H1871 H 0.3478 0.2056 0.10873 0.0
C1872 C 0.33976 0.54895 0.13206 0.0
C1873 C 0.36543 0.54193 0.14549 0.0
C1874 C 0.33685 0.59668 0.12282 0.0
C1875 C 0.36003 0.63843 0.12717 0.0
C1876 C 0.38506 0.6324 0.14115 0.0
C1877 C 0.38748 0.58439 0.15008 0.0
C1878 C 0.30985 0.60144 0.10798 0.0
C1879 C 0.4103 0.67572 0.14627 0.0
C1880 C 0.38286 0.72645 0.0943 0.0
C1881 C 0.36741 0.7755 0.0963 0.0
C1882 C 0.3798 0.68156 0.10394 0.0
C1883 C 0.36089 0.68522 0.11608 0.0
C1884 C 0.34479 0.73418 0.11812 0.0
C1885 C 0.34818 0.77879 0.10818 0.0
C1886 C 0.39745 0.63035 0.10128 0.0
C1887 C 0.32446 0.73965 0.13098 0.0
H1888 H 0.32247 0.51661 0.12848 0.0
H1889 H 0.40715 0.57991 0.16058 0.0
H1890 H 0.29716 0.64058 0.10796 0.0
H1891 H 0.32035 0.60002 0.09685 0.0
H1892 H 0.29167 0.56858 0.1073 0.0
H1893 H 0.42614 0.66723 0.15831 0.0
H1894 H 0.42597 0.67911 0.13711 0.0
H1895 H 0.39835 0.71524 0.14687 0.0
H1896 H 0.3977 0.72281 0.08517 0.0
H1897 H 0.33597 0.8162 0.1098 0.0
H1898 H 0.38007 0.59623 0.09912 0.0
H1899 H 0.41599 0.62078 0.11235 0.0
H1900 H 0.40987 0.63329 0.09079 0.0
H1901 H 0.30589 0.7073 0.12958 0.0
H1902 H 0.31194 0.77916 0.1304 0.0
H1903 H 0.34021 0.73501 0.14322 0.0
C1904 C 0.40143 0.78747 0.6431 0.0
C1905 C 0.38498 0.78527 0.65611 0.0
C1906 C 0.40341 0.74186 0.63337 0.0
C1907 C 0.38867 0.69297 0.63675 0.0
C1908 C 0.3723 0.69051 0.64992 0.0
C1909 C 0.3706 0.73647 0.65936 0.0
C1910 C 0.42096 0.74609 0.61938 0.0
C1911 C 0.35616 0.63937 0.65397 0.0
C1912 C 0.35964 0.58917 0.60391 0.0
C1913 C 0.38326 0.54854 0.60774 0.0
C1914 C 0.3619 0.63712 0.61284 0.0
C1915 C 0.38839 0.64499 0.62603 0.0
C1916 C 0.41283 0.60488 0.62973 0.0
C1917 C 0.41004 0.55714 0.62051 0.0
C1918 C 0.33531 0.67872 0.60843 0.0
C1919 C 0.4414 0.61171 0.64375 0.0
H1920 H 0.41283 0.82471 0.64054 0.0
H1921 H 0.35788 0.73385 0.66938 0.0
H1922 H 0.44016 0.71481 0.6205 0.0
H1923 H 0.40359 0.73879 0.60773 0.0
H1924 H 0.43238 0.78614 0.61878 0.0
H1925 H 0.34567 0.64345 0.66507 0.0
H1926 H 0.33632 0.62798 0.64365 0.0
H1927 H 0.37404 0.60593 0.65586 0.0
H1928 H 0.33905 0.58349 0.59393 0.0
H1929 H 0.4285 0.52623 0.62349 0.0
H1930 H 0.34602 0.71859 0.60676 0.0
H1931 H 0.32184 0.68264 0.61849 0.0
H1932 H 0.31762 0.66823 0.59712 0.0
H1933 H 0.45358 0.65082 0.64278 0.0
H1934 H 0.45963 0.57901 0.64425 0.0
H1935 H 0.43263 0.61202 0.65538 0.0
C1936 C 0.34869 0.28777 0.60901 0.0
C1937 C 0.36804 0.28644 0.59715 0.0
C1938 C 0.34666 0.24279 0.61901 0.0
C1939 C 0.36418 0.19529 0.61701 0.0
C1940 C 0.38346 0.19367 0.60498 0.0
C1941 C 0.38527 0.23906 0.59532 0.0
C1942 C 0.32605 0.24619 0.6318 0.0
C1943 C 0.40249 0.14395 0.60235 0.0
C1944 C 0.391 0.09398 0.6509 0.0
C1945 C 0.3693 0.05118 0.64613 0.0
C1946 C 0.38848 0.1421 0.64201 0.0
C1947 C 0.36383 0.14773 0.62785 0.0
C1948 C 0.34113 0.10544 0.62326 0.0
C1949 C 0.34403 0.05775 0.6325 0.0
C1950 C 0.41308 0.18614 0.64744 0.0
C1951 C 0.31464 0.10968 0.60818 0.0
H1952 H 0.33515 0.32391 0.61051 0.0
H1953 H 0.40026 0.23704 0.58621 0.0
H1954 H 0.3077 0.21345 0.63001 0.0
H1955 H 0.34161 0.24062 0.64405 0.0
H1956 H 0.3132 0.28534 0.63153 0.0
H1957 H 0.41527 0.14847 0.59203 0.0
H1958 H 0.42089 0.13494 0.61352 0.0
H1959 H 0.38593 0.10881 0.59992 0.0
H1960 H 0.41037 0.08973 0.66155 0.0
H1961 H 0.32708 0.02506 0.62876 0.0
H1962 H 0.40054 0.22513 0.64806 0.0
H1963 H 0.42901 0.19067 0.63843 0.0
H1964 H 0.42871 0.17769 0.65953 0.0
H1965 H 0.30104 0.14791 0.60823 0.0
H1966 H 0.29714 0.07569 0.60709 0.0
H1967 H 0.32575 0.11004 0.59723 0.0
loop_
_geom_bond_atom_site_label_1
_geom_bond_atom_site_label_2
_geom_bond_distance
_geom_bond_site_symmetry_2
_ccdc_geom_bond_type
Co0 O2 2.143 . S
Co0 O8 2.074 . S
Co0 O11 2.093 . S
Co0 O24 2.097 . S
Co0 N41 2.151 . S
Co0 N49 2.214 . S
Co1 O2 2.160 . S
Co1 O7 2.058 . S
Co1 O17 2.057 . S
Co1 O32 2.037 . S
Co1 N36 2.145 . S
Co1 N57 2.257 . S
O2 Co0 2.143 . S
O2 Co1 2.160 . S
C3 O4 1.271 1_565 S
C3 O11 1.215 1_565 S
O4 C3 1.271 1_545 S
C5 O6 1.245 . S
C5 O17 1.232 . S
O6 C5 1.245 . S
O7 Co1 2.058 . S
O7 C33 1.269 . S
O8 Co0 2.074 . S
O8 C33 1.257 . S
H9 C34 0.930 . S
H10 C40 0.930 . S
O11 Co0 2.093 . S
O11 C3 1.215 1_545 S
H12 C44 0.929 . S
H13 C46 0.930 . S
H14 C47 0.930 . S
H15 C45 0.929 . S
H16 C48 0.928 . S
O17 Co1 2.057 . S
O17 C5 1.232 . S
H18 C37 0.929 . S
H19 C38 0.929 . S
H20 C50 0.931 . S
H21 C42 0.929 . S
H22 C51 0.930 . S
H23 C43 0.931 . S
O24 Co0 2.097 . S
O24 C52 1.214 . S
H25 C53 0.923 1_655 S
H26 C54 0.929 . S
H27 C55 0.930 . S
H28 C56 0.929 . S
H29 C58 0.930 . S
H30 C35 0.930 . S
H31 C39 0.930 . S
O32 Co1 2.037 . S
O32 C52 1.234 . S
C33 O7 1.269 . S
C33 O8 1.257 . S
C34 H9 0.930 . S
C34 C37 1.388 . S
C34 C39 1.418 . S
C35 H30 0.930 . S
C35 C38 1.404 . S
C35 C39 1.353 . S
N36 Co1 2.145 . S
N36 C37 1.397 . S
N36 C38 1.334 . S
C37 H18 0.929 . S
C37 C34 1.388 . S
C37 N36 1.397 . S
C38 H19 0.929 . S
C38 C35 1.404 . S
C38 N36 1.334 . S
C39 H31 0.930 . S
C39 C34 1.418 . S
C39 C35 1.353 . S
C40 H10 0.930 . S
C40 N41 1.330 1_565 S
C40 C42 1.446 . S
N41 Co0 2.151 . S
N41 C40 1.330 1_545 S
N41 C45 1.418 . S
C42 H21 0.929 . S
C42 C40 1.446 . S
C42 C43 1.332 . S
C43 H23 0.931 . S
C43 C42 1.332 . S
C43 C44 1.267 . S
C44 H12 0.929 . S
C44 C43 1.267 . S
C44 C45 1.251 1_565 S
C45 H15 0.929 . S
C45 N41 1.418 . S
C45 C44 1.251 1_545 S
C46 H13 0.930 . S
C46 C48 1.406 . S
C46 C51 1.261 . S
C47 H14 0.930 . S
C47 N49 1.325 . S
C47 C50 1.357 . S
C48 H16 0.928 . S
C48 C46 1.406 . S
C48 N49 1.261 . S
N49 Co0 2.214 . S
N49 C47 1.325 . S
N49 C48 1.261 . S
C50 H20 0.931 . S
C50 C47 1.357 . S
C50 C51 1.312 . S
C51 H22 0.930 . S
C51 C46 1.261 . S
C51 C50 1.312 . S
C52 O24 1.214 . S
C52 O32 1.234 . S
C53 H25 0.923 1_455 S
C53 C56 1.391 1_455 S
C53 C58 1.391 . S
C54 H26 0.929 . S
C54 C55 1.390 . S
C54 N57 1.391 . S
C55 H27 0.930 . S
C55 C54 1.390 . S
C55 C56 1.392 1_455 S
C56 H28 0.929 . S
C56 C53 1.391 1_655 S
C56 C55 1.392 1_655 S
N57 Co1 2.257 . S
N57 C54 1.391 . S
N57 C58 1.388 . S
C58 H29 0.930 . S
C58 C53 1.391 . S
C58 N57 1.388 . S
Co59 O61 2.143 . S
Co59 O67 2.074 . S
Co59 O70 2.093 . S
Co59 O83 2.097 . S
Co59 N100 2.151 . S
Co59 N108 2.214 . S
Co60 O61 2.160 . S
Co60 O66 2.058 . S
Co60 O76 2.057 . S
Co60 O91 2.037 . S
Co60 N95 2.145 . S
Co60 N116 2.257 . S
O61 Co59 2.143 . S
O61 Co60 2.160 . S
C62 O63 1.270 1_565 S
C62 O70 1.215 1_565 S
O63 C62 1.270 1_545 S
C64 O65 1.245 . S
C64 O76 1.232 . S
O65 C64 1.245 . S
O66 Co60 2.058 . S
O66 C92 1.269 . S
O67 Co59 2.074 . S
O67 C92 1.257 . S
H68 C93 0.930 . S
H69 C99 0.930 . S
O70 Co59 2.093 . S
O70 C62 1.215 1_545 S
H71 C103 0.929 1_655 S
H72 C105 0.930 . S
H73 C106 0.930 . S
H74 C104 0.929 . S
H75 C107 0.928 . S
O76 Co60 2.057 . S
O76 C64 1.232 . S
H77 C96 0.929 . S
H78 C97 0.929 . S
H79 C109 0.927 1_655 S
H80 C101 0.929 . S
H81 C110 0.930 . S
H82 C102 0.931 . S
O83 Co59 2.097 . S
O83 C111 1.214 . S
H84 C112 0.929 . S
H85 C113 0.929 . S
H86 C114 0.930 . S
H87 C115 0.929 . S
H88 C117 0.930 . S
H89 C94 0.930 . S
H90 C98 0.930 . S
O91 Co60 2.037 . S
O91 C111 1.234 . S
C92 O66 1.269 . S
C92 O67 1.257 . S
C93 H68 0.930 . S
C93 C96 1.388 . S
C93 C98 1.418 . S
C94 H89 0.930 . S
C94 C97 1.404 . S
C94 C98 1.353 . S
N95 Co60 2.145 . S
N95 C96 1.397 . S
N95 C97 1.334 . S
C96 H77 0.929 . S
C96 C93 1.388 . S
C96 N95 1.397 . S
C97 H78 0.929 . S
C97 C94 1.404 . S
C97 N95 1.334 . S
C98 H90 0.930 . S
C98 C93 1.418 . S
C98 C94 1.353 . S
C99 H69 0.930 . S
C99 N100 1.330 1_565 S
C99 C101 1.446 . S
N100 Co59 2.151 . S
N100 C99 1.330 1_545 S
N100 C104 1.418 . S
C101 H80 0.929 . S
C101 C99 1.446 . S
C101 C102 1.332 . S
C102 H82 0.931 . S
C102 C101 1.332 . S
C102 C103 1.267 . S
C103 H71 0.929 1_455 S
C103 C102 1.267 . S
C103 C104 1.251 1_565 S
C104 H74 0.929 . S
C104 N100 1.418 . S
C104 C103 1.251 1_545 S
C105 H72 0.930 . S
C105 C107 1.406 1_655 S
C105 C110 1.261 . S
C106 H73 0.930 . S
C106 N108 1.325 . S
C106 C109 1.357 . S
C107 H75 0.928 . S
C107 C105 1.406 1_455 S
C107 N108 1.261 . S
N108 Co59 2.214 . S
N108 C106 1.325 . S
N108 C107 1.261 . S
C109 H79 0.927 1_455 S
C109 C106 1.357 . S
C109 C110 1.312 1_455 S
C110 H81 0.930 . S
C110 C105 1.261 . S
C110 C109 1.312 1_655 S
C111 O83 1.214 . S
C111 O91 1.234 . S
C112 H84 0.929 . S
C112 C115 1.391 . S
C112 C117 1.391 . S
C113 H85 0.929 . S
C113 C114 1.390 . S
C113 N116 1.391 . S
C114 H86 0.930 . S
C114 C113 1.390 . S
C114 C115 1.392 . S
C115 H87 0.929 . S
C115 C112 1.391 . S
C115 C114 1.392 . S
N116 Co60 2.257 . S
N116 C113 1.391 . S
N116 C117 1.388 . S
C117 H88 0.930 . S
C117 C112 1.391 . S
C117 N116 1.388 . S
Co118 O120 2.143 . S
Co118 O126 2.074 . S
Co118 O129 2.093 . S
Co118 O142 2.097 . S
Co118 N159 2.151 . S
Co118 N167 2.214 . S
Co119 O120 2.160 . S
Co119 O125 2.058 . S
Co119 O135 2.057 . S
Co119 O150 2.037 . S
Co119 N154 2.145 . S
Co119 N175 2.257 . S
O120 Co118 2.143 . S
O120 Co119 2.160 . S
C121 O122 1.271 1_545 S
C121 O129 1.215 1_545 S
O122 C121 1.271 1_565 S
C123 O124 1.245 . S
C123 O135 1.232 . S
O124 C123 1.245 . S
O125 Co119 2.058 . S
O125 C151 1.269 . S
O126 Co118 2.074 . S
O126 C151 1.257 . S
H127 C152 0.930 . S
H128 C158 0.930 . S
O129 Co118 2.093 . S
O129 C121 1.215 1_565 S
H130 C162 0.929 . S
H131 C164 0.930 . S
H132 C165 0.930 . S
H133 C163 0.929 . S
H134 C166 0.928 . S
O135 Co119 2.057 . S
O135 C123 1.232 . S
H136 C155 0.929 . S
H137 C156 0.929 . S
H138 C168 0.931 . S
H139 C160 0.929 . S
H140 C169 0.930 . S
H141 C161 0.931 . S
O142 Co118 2.097 . S
O142 C170 1.214 . S
H143 C171 0.923 1_455 S
H144 C172 0.929 . S
H145 C173 0.930 . S
H146 C174 0.929 . S
H147 C176 0.930 . S
H148 C153 0.930 . S
H149 C157 0.930 . S
O150 Co119 2.037 . S
O150 C170 1.234 . S
C151 O125 1.269 . S
C151 O126 1.257 . S
C152 H127 0.930 . S
C152 C155 1.388 . S
C152 C157 1.418 . S
C153 H148 0.930 . S
C153 C156 1.404 . S
C153 C157 1.353 . S
N154 Co119 2.145 . S
N154 C155 1.397 . S
N154 C156 1.334 . S
C155 H136 0.929 . S
C155 C152 1.388 . S
C155 N154 1.397 . S
C156 H137 0.929 . S
C156 C153 1.404 . S
C156 N154 1.334 . S
C157 H149 0.930 . S
C157 C152 1.418 . S
C157 C153 1.353 . S
C158 H128 0.930 . S
C158 N159 1.330 1_545 S
C158 C160 1.446 . S
N159 Co118 2.151 . S
N159 C158 1.330 1_565 S
N159 C163 1.418 . S
C160 H139 0.929 . S
C160 C158 1.446 . S
C160 C161 1.332 . S
C161 H141 0.931 . S
C161 C160 1.332 . S
C161 C162 1.267 . S
C162 H130 0.929 . S
C162 C161 1.267 . S
C162 C163 1.251 1_545 S
C163 H133 0.929 . S
C163 N159 1.418 . S
C163 C162 1.251 1_565 S
C164 H131 0.930 . S
C164 C166 1.406 . S
C164 C169 1.261 . S
C165 H132 0.930 . S
C165 N167 1.325 . S
C165 C168 1.357 . S
C166 H134 0.928 . S
C166 C164 1.406 . S
C166 N167 1.261 . S
N167 Co118 2.214 . S
N167 C165 1.325 . S
N167 C166 1.261 . S
C168 H138 0.931 . S
C168 C165 1.357 . S
C168 C169 1.312 . S
C169 H140 0.930 . S
C169 C164 1.261 . S
C169 C168 1.312 . S
C170 O142 1.214 . S
C170 O150 1.234 . S
C171 H143 0.923 1_655 S
C171 C174 1.391 1_655 S
C171 C176 1.391 . S
C172 H144 0.929 . S
C172 C173 1.390 . S
C172 N175 1.391 . S
C173 H145 0.930 . S
C173 C172 1.390 . S
C173 C174 1.392 1_655 S
C174 H146 0.929 . S
C174 C171 1.391 1_455 S
C174 C173 1.392 1_455 S
N175 Co119 2.257 . S
N175 C172 1.391 . S
N175 C176 1.388 . S
C176 H147 0.930 . S
C176 C171 1.391 . S
C176 N175 1.388 . S
Co177 O179 2.143 . S
Co177 O185 2.074 . S
Co177 O188 2.093 . S
Co177 O201 2.097 . S
Co177 N218 2.151 . S
Co177 N226 2.214 . S
Co178 O179 2.160 . S
Co178 O184 2.058 . S
Co178 O194 2.057 . S
Co178 O209 2.037 . S
Co178 N213 2.145 . S
Co178 N234 2.257 . S
O179 Co177 2.143 . S
O179 Co178 2.160 . S
C180 O181 1.270 1_545 S
C180 O188 1.215 1_545 S
O181 C180 1.270 1_565 S
C182 O183 1.245 . S
C182 O194 1.232 . S
O183 C182 1.245 . S
O184 Co178 2.058 . S
O184 C210 1.269 . S
O185 Co177 2.074 . S
O185 C210 1.257 . S
H186 C211 0.930 . S
H187 C217 0.930 . S
O188 Co177 2.093 . S
O188 C180 1.215 1_565 S
H189 C221 0.929 1_455 S
H190 C223 0.930 . S
H191 C224 0.930 . S
H192 C222 0.929 . S
H193 C225 0.928 . S
O194 Co178 2.057 . S
O194 C182 1.232 . S
H195 C214 0.929 . S
H196 C215 0.929 . S
H197 C227 0.927 1_455 S
H198 C219 0.929 . S
H199 C228 0.930 . S
H200 C220 0.931 . S
O201 Co177 2.097 . S
O201 C229 1.214 . S
H202 C230 0.929 . S
H203 C231 0.929 . S
H204 C232 0.930 . S
H205 C233 0.929 . S
H206 C235 0.930 . S
H207 C212 0.930 . S
H208 C216 0.930 . S
O209 Co178 2.037 . S
O209 C229 1.234 . S
C210 O184 1.269 . S
C210 O185 1.257 . S
C211 H186 0.930 . S
C211 C214 1.388 . S
C211 C216 1.418 . S
C212 H207 0.930 . S
C212 C215 1.404 . S
C212 C216 1.353 . S
N213 Co178 2.145 . S
N213 C214 1.397 . S
N213 C215 1.334 . S
C214 H195 0.929 . S
C214 C211 1.388 . S
C214 N213 1.397 . S
C215 H196 0.929 . S
C215 C212 1.404 . S
C215 N213 1.334 . S
C216 H208 0.930 . S
C216 C211 1.418 . S
C216 C212 1.353 . S
C217 H187 0.930 . S
C217 N218 1.330 1_545 S
C217 C219 1.446 . S
N218 Co177 2.151 . S
N218 C217 1.330 1_565 S
N218 C222 1.418 . S
C219 H198 0.929 . S
C219 C217 1.446 . S
C219 C220 1.332 . S
C220 H200 0.931 . S
C220 C219 1.332 . S
C220 C221 1.267 . S
C221 H189 0.929 1_655 S
C221 C220 1.267 . S
C221 C222 1.251 1_545 S
C222 H192 0.929 . S
C222 N218 1.418 . S
C222 C221 1.251 1_565 S
C223 H190 0.930 . S
C223 C225 1.406 1_455 S
C223 C228 1.261 . S
C224 H191 0.930 . S
C224 N226 1.325 . S
C224 C227 1.357 . S
C225 H193 0.928 . S
C225 C223 1.406 1_655 S
C225 N226 1.261 . S
N226 Co177 2.214 . S
N226 C224 1.325 . S
N226 C225 1.261 . S
C227 H197 0.927 1_655 S
C227 C224 1.357 . S
C227 C228 1.312 1_655 S
C228 H199 0.930 . S
C228 C223 1.261 . S
C228 C227 1.312 1_455 S
C229 O201 1.214 . S
C229 O209 1.234 . S
C230 H202 0.929 . S
C230 C233 1.391 . S
C230 C235 1.391 . S
C231 H203 0.929 . S
C231 C232 1.390 . S
C231 N234 1.391 . S
C232 H204 0.930 . S
C232 C231 1.390 . S
C232 C233 1.392 . S
C233 H205 0.929 . S
C233 C230 1.391 . S
C233 C232 1.392 . S
N234 Co178 2.257 . S
N234 C231 1.391 . S
N234 C235 1.388 . S
C235 H206 0.930 . S
C235 C230 1.391 . S
C235 N234 1.388 . S
Co236 O238 2.143 . S
Co236 O244 2.074 . S
Co236 O247 2.093 . S
Co236 O260 2.097 . S
Co236 N277 2.151 . S
Co236 N285 2.214 . S
Co237 O238 2.160 . S
Co237 O243 2.058 . S
Co237 O253 2.057 . S
Co237 O268 2.037 . S
Co237 N272 2.145 . S
Co237 N293 2.257 . S
O238 Co236 2.143 . S
O238 Co237 2.160 . S
C239 O240 1.278 . S
C239 O247 1.224 . S
O240 C239 1.278 . S
C241 O242 1.245 . S
C241 O253 1.232 . S
O242 C241 1.245 . S
O243 Co237 2.058 . S
O243 C269 1.269 . S
O244 Co236 2.074 . S
O244 C269 1.257 . S
H245 C270 0.930 . S
H246 C276 0.930 . S
O247 Co236 2.093 . S
O247 C239 1.224 . S
H248 C280 0.929 . S
H249 C282 0.930 . S
H250 C283 0.930 . S
H251 C281 0.929 . S
H252 C284 0.928 . S
O253 Co237 2.057 . S
O253 C241 1.232 . S
H254 C273 0.929 . S
H255 C274 0.929 . S
H256 C286 0.931 . S
H257 C278 0.929 . S
H258 C287 0.930 . S
H259 C279 0.931 . S
O260 Co236 2.097 . S
O260 C288 1.214 . S
H261 C289 0.923 1_655 S
H262 C290 0.929 . S
H263 C291 0.930 . S
H264 C292 0.929 . S
H265 C294 0.930 . S
H266 C271 0.930 . S
H267 C275 0.930 . S
O268 Co237 2.037 . S
O268 C288 1.234 . S
C269 O243 1.269 . S
C269 O244 1.257 . S
C270 H245 0.930 . S
C270 C273 1.388 . S
C270 C275 1.418 . S
C271 H266 0.930 . S
C271 C274 1.404 . S
C271 C275 1.353 . S
N272 Co237 2.145 . S
N272 C273 1.397 . S
N272 C274 1.334 . S
C273 H254 0.929 . S
C273 C270 1.388 . S
C273 N272 1.397 . S
C274 H255 0.929 . S
C274 C271 1.404 . S
C274 N272 1.334 . S
C275 H267 0.930 . S
C275 C270 1.418 . S
C275 C271 1.353 . S
C276 H246 0.930 . S
C276 N277 1.330 . S
C276 C278 1.446 . S
N277 Co236 2.151 . S
N277 C276 1.330 . S
N277 C281 1.418 . S
C278 H257 0.929 . S
C278 C276 1.446 . S
C278 C279 1.332 . S
C279 H259 0.931 . S
C279 C278 1.332 . S
C279 C280 1.267 . S
C280 H248 0.929 . S
C280 C279 1.267 . S
C280 C281 1.251 . S
C281 H251 0.929 . S
C281 N277 1.418 . S
C281 C280 1.251 . S
C282 H249 0.930 . S
C282 C284 1.406 . S
C282 C287 1.261 . S
C283 H250 0.930 . S
C283 N285 1.325 . S
C283 C286 1.357 . S
C284 H252 0.928 . S
C284 C282 1.406 . S
C284 N285 1.261 . S
N285 Co236 2.214 . S
N285 C283 1.325 . S
N285 C284 1.261 . S
C286 H256 0.931 . S
C286 C283 1.357 . S
C286 C287 1.312 . S
C287 H258 0.930 . S
C287 C282 1.261 . S
C287 C286 1.312 . S
C288 O260 1.214 . S
C288 O268 1.234 . S
C289 H261 0.923 1_455 S
C289 C292 1.391 1_455 S
C289 C294 1.391 . S
C290 H262 0.929 . S
C290 C291 1.390 . S
C290 N293 1.391 . S
C291 H263 0.930 . S
C291 C290 1.390 . S
C291 C292 1.392 1_455 S
C292 H264 0.929 . S
C292 C289 1.391 1_655 S
C292 C291 1.392 1_655 S
N293 Co237 2.257 . S
N293 C290 1.391 . S
N293 C294 1.388 . S
C294 H265 0.930 . S
C294 C289 1.391 . S
C294 N293 1.388 . S
Co295 O297 2.143 . S
Co295 O303 2.074 . S
Co295 O306 2.093 . S
Co295 O319 2.097 . S
Co295 N336 2.151 . S
Co295 N344 2.214 . S
Co296 O297 2.160 . S
Co296 O302 2.058 . S
Co296 O312 2.057 . S
Co296 O327 2.037 . S
Co296 N331 2.145 . S
Co296 N352 2.257 . S
O297 Co295 2.143 . S
O297 Co296 2.160 . S
C298 O299 1.278 . S
C298 O306 1.224 . S
O299 C298 1.278 . S
C300 O301 1.245 . S
C300 O312 1.232 . S
O301 C300 1.245 . S
O302 Co296 2.058 . S
O302 C328 1.269 . S
O303 Co295 2.074 . S
O303 C328 1.257 . S
H304 C329 0.930 . S
H305 C335 0.930 . S
O306 Co295 2.093 . S
O306 C298 1.224 . S
H307 C339 0.929 1_655 S
H308 C341 0.930 . S
H309 C342 0.930 . S
H310 C340 0.929 . S
H311 C343 0.928 . S
O312 Co296 2.057 . S
O312 C300 1.232 . S
H313 C332 0.929 . S
H314 C333 0.929 . S
H315 C345 0.926 1_655 S
H316 C337 0.929 . S
H317 C346 0.930 . S
H318 C338 0.931 . S
O319 Co295 2.097 . S
O319 C347 1.214 . S
H320 C348 0.929 . S
H321 C349 0.929 . S
H322 C350 0.930 . S
H323 C351 0.929 . S
H324 C353 0.930 . S
H325 C330 0.930 . S
H326 C334 0.930 . S
O327 Co296 2.037 . S
O327 C347 1.234 . S
C328 O302 1.269 . S
C328 O303 1.257 . S
C329 H304 0.930 . S
C329 C332 1.388 . S
C329 C334 1.418 . S
C330 H325 0.930 . S
C330 C333 1.404 . S
C330 C334 1.353 . S
N331 Co296 2.145 . S
N331 C332 1.397 . S
N331 C333 1.334 . S
C332 H313 0.929 . S
C332 C329 1.388 . S
C332 N331 1.397 . S
C333 H314 0.929 . S
C333 C330 1.404 . S
C333 N331 1.334 . S
C334 H326 0.930 . S
C334 C329 1.418 . S
C334 C330 1.353 . S
C335 H305 0.930 . S
C335 N336 1.330 . S
C335 C337 1.446 . S
N336 Co295 2.151 . S
N336 C335 1.330 . S
N336 C340 1.418 . S
C337 H316 0.929 . S
C337 C335 1.446 . S
C337 C338 1.332 . S
C338 H318 0.931 . S
C338 C337 1.332 . S
C338 C339 1.267 . S
C339 H307 0.929 1_455 S
C339 C338 1.267 . S
C339 C340 1.251 . S
C340 H310 0.929 . S
C340 N336 1.418 . S
C340 C339 1.251 . S
C341 H308 0.930 . S
C341 C343 1.406 1_655 S
C341 C346 1.261 . S
C342 H309 0.930 . S
C342 N344 1.325 . S
C342 C345 1.357 . S
C343 H311 0.928 . S
C343 C341 1.406 1_455 S
C343 N344 1.261 . S
N344 Co295 2.214 . S
N344 C342 1.325 . S
N344 C343 1.261 . S
C345 H315 0.926 1_455 S
C345 C342 1.357 . S
C345 C346 1.312 1_455 S
C346 H317 0.930 . S
C346 C341 1.261 . S
C346 C345 1.312 1_655 S
C347 O319 1.214 . S
C347 O327 1.234 . S
C348 H320 0.929 . S
C348 C351 1.391 . S
C348 C353 1.391 . S
C349 H321 0.929 . S
C349 C350 1.390 . S
C349 N352 1.391 . S
C350 H322 0.930 . S
C350 C349 1.390 . S
C350 C351 1.392 . S
C351 H323 0.929 . S
C351 C348 1.391 . S
C351 C350 1.392 . S
N352 Co296 2.257 . S
N352 C349 1.391 . S
N352 C353 1.388 . S
C353 H324 0.930 . S
C353 C348 1.391 . S
C353 N352 1.388 . S
Co354 O356 2.143 . S
Co354 O362 2.074 . S
Co354 O365 2.093 . S
Co354 O378 2.097 . S
Co354 N395 2.151 . S
Co354 N403 2.214 . S
Co355 O356 2.160 . S
Co355 O361 2.058 . S
Co355 O371 2.057 . S
Co355 O386 2.037 . S
Co355 N390 2.145 . S
Co355 N411 2.257 . S
O356 Co354 2.143 . S
O356 Co355 2.160 . S
C357 O358 1.278 . S
C357 O365 1.224 . S
O358 C357 1.278 . S
C359 O360 1.245 . S
C359 O371 1.232 . S
O360 C359 1.245 . S
O361 Co355 2.058 . S
O361 C387 1.269 . S
O362 Co354 2.074 . S
O362 C387 1.257 . S
H363 C388 0.930 . S
H364 C394 0.930 . S
O365 Co354 2.093 . S
O365 C357 1.224 . S
H366 C398 0.929 . S
H367 C400 0.930 . S
H368 C401 0.930 . S
H369 C399 0.929 . S
H370 C402 0.928 . S
O371 Co355 2.057 . S
O371 C359 1.232 . S
H372 C391 0.929 . S
H373 C392 0.929 . S
H374 C404 0.931 . S
H375 C396 0.929 . S
H376 C405 0.930 . S
H377 C397 0.931 . S
O378 Co354 2.097 . S
O378 C406 1.214 . S
H379 C407 0.923 1_455 S
H380 C408 0.929 . S
H381 C409 0.930 . S
H382 C410 0.929 . S
H383 C412 0.930 . S
H384 C389 0.930 . S
H385 C393 0.930 . S
O386 Co355 2.037 . S
O386 C406 1.234 . S
C387 O361 1.269 . S
C387 O362 1.257 . S
C388 H363 0.930 . S
C388 C391 1.388 . S
C388 C393 1.418 . S
C389 H384 0.930 . S
C389 C392 1.404 . S
C389 C393 1.353 . S
N390 Co355 2.145 . S
N390 C391 1.397 . S
N390 C392 1.334 . S
C391 H372 0.929 . S
C391 C388 1.388 . S
C391 N390 1.397 . S
C392 H373 0.929 . S
C392 C389 1.404 . S
C392 N390 1.334 . S
C393 H385 0.930 . S
C393 C388 1.418 . S
C393 C389 1.353 . S
C394 H364 0.930 . S
C394 N395 1.330 . S
C394 C396 1.446 . S
N395 Co354 2.151 . S
N395 C394 1.330 . S
N395 C399 1.418 . S
C396 H375 0.929 . S
C396 C394 1.446 . S
C396 C397 1.332 . S
C397 H377 0.931 . S
C397 C396 1.332 . S
C397 C398 1.267 . S
C398 H366 0.929 . S
C398 C397 1.267 . S
C398 C399 1.251 . S
C399 H369 0.929 . S
C399 N395 1.418 . S
C399 C398 1.251 . S
C400 H367 0.930 . S
C400 C402 1.406 . S
C400 C405 1.261 . S
C401 H368 0.930 . S
C401 N403 1.325 . S
C401 C404 1.357 . S
C402 H370 0.928 . S
C402 C400 1.406 . S
C402 N403 1.261 . S
N403 Co354 2.214 . S
N403 C401 1.325 . S
N403 C402 1.261 . S
C404 H374 0.931 . S
C404 C401 1.357 . S
C404 C405 1.312 . S
C405 H376 0.930 . S
C405 C400 1.261 . S
C405 C404 1.312 . S
C406 O378 1.214 . S
C406 O386 1.234 . S
C407 H379 0.923 1_655 S
C407 C410 1.391 1_655 S
C407 C412 1.391 . S
C408 H380 0.929 . S
C408 C409 1.390 . S
C408 N411 1.391 . S
C409 H381 0.930 . S
C409 C408 1.390 . S
C409 C410 1.392 1_655 S
C410 H382 0.929 . S
C410 C407 1.391 1_455 S
C410 C409 1.392 1_455 S
N411 Co355 2.257 . S
N411 C408 1.391 . S
N411 C412 1.388 . S
C412 H383 0.930 . S
C412 C407 1.391 . S
C412 N411 1.388 . S
Co413 O415 2.143 . S
Co413 O421 2.074 . S
Co413 O424 2.093 . S
Co413 O437 2.097 . S
Co413 N454 2.151 . S
Co413 N462 2.214 . S
Co414 O415 2.160 . S
Co414 O420 2.058 . S
Co414 O430 2.057 . S
Co414 O445 2.037 . S
Co414 N449 2.145 . S
Co414 N470 2.257 . S
O415 Co413 2.143 . S
O415 Co414 2.160 . S
C416 O417 1.278 . S
C416 O424 1.224 . S
O417 C416 1.278 . S
C418 O419 1.245 . S
C418 O430 1.232 . S
O419 C418 1.245 . S
O420 Co414 2.058 . S
O420 C446 1.269 . S
O421 Co413 2.074 . S
O421 C446 1.257 . S
H422 C447 0.930 . S
H423 C453 0.930 . S
O424 Co413 2.093 . S
O424 C416 1.224 . S
H425 C457 0.929 1_455 S
H426 C459 0.930 . S
H427 C460 0.930 . S
H428 C458 0.929 . S
H429 C461 0.928 . S
O430 Co414 2.057 . S
O430 C418 1.232 . S
H431 C450 0.929 . S
H432 C451 0.929 . S
H433 C463 0.926 1_455 S
H434 C455 0.929 . S
H435 C464 0.930 . S
H436 C456 0.931 . S
O437 Co413 2.097 . S
O437 C465 1.214 . S
H438 C466 0.929 . S
H439 C467 0.929 . S
H440 C468 0.930 . S
H441 C469 0.929 . S
H442 C471 0.930 . S
H443 C448 0.930 . S
H444 C452 0.930 . S
O445 Co414 2.037 . S
O445 C465 1.234 . S
C446 O420 1.269 . S
C446 O421 1.257 . S
C447 H422 0.930 . S
C447 C450 1.388 . S
C447 C452 1.418 . S
C448 H443 0.930 . S
C448 C451 1.404 . S
C448 C452 1.353 . S
N449 Co414 2.145 . S
N449 C450 1.397 . S
N449 C451 1.334 . S
C450 H431 0.929 . S
C450 C447 1.388 . S
C450 N449 1.397 . S
C451 H432 0.929 . S
C451 C448 1.404 . S
C451 N449 1.334 . S
C452 H444 0.930 . S
C452 C447 1.418 . S
C452 C448 1.353 . S
C453 H423 0.930 . S
C453 N454 1.330 . S
C453 C455 1.446 . S
N454 Co413 2.151 . S
N454 C453 1.330 . S
N454 C458 1.418 . S
C455 H434 0.929 . S
C455 C453 1.446 . S
C455 C456 1.332 . S
C456 H436 0.931 . S
C456 C455 1.332 . S
C456 C457 1.267 . S
C457 H425 0.929 1_655 S
C457 C456 1.267 . S
C457 C458 1.251 . S
C458 H428 0.929 . S
C458 N454 1.418 . S
C458 C457 1.251 . S
C459 H426 0.930 . S
C459 C461 1.406 1_455 S
C459 C464 1.261 . S
C460 H427 0.930 . S
C460 N462 1.325 . S
C460 C463 1.357 . S
C461 H429 0.928 . S
C461 C459 1.406 1_655 S
C461 N462 1.261 . S
N462 Co413 2.214 . S
N462 C460 1.325 . S
N462 C461 1.261 . S
C463 H433 0.926 1_655 S
C463 C460 1.357 . S
C463 C464 1.312 1_655 S
C464 H435 0.930 . S
C464 C459 1.261 . S
C464 C463 1.312 1_455 S
C465 O437 1.214 . S
C465 O445 1.234 . S
C466 H438 0.929 . S
C466 C469 1.391 . S
C466 C471 1.391 . S
C467 H439 0.929 . S
C467 C468 1.390 . S
C467 N470 1.391 . S
C468 H440 0.930 . S
C468 C467 1.390 . S
C468 C469 1.392 . S
C469 H441 0.929 . S
C469 C466 1.391 . S
C469 C468 1.392 . S
N470 Co414 2.257 . S
N470 C467 1.391 . S
N470 C471 1.388 . S
C471 H442 0.930 . S
C471 C466 1.391 . S
C471 N470 1.388 . S
Co472 O474 2.143 . S
Co472 O480 2.074 . S
Co472 O483 2.093 . S
Co472 O496 2.097 . S
Co472 N513 2.151 . S
Co472 N521 2.214 . S
Co473 O474 2.160 . S
Co473 O479 2.058 . S
Co473 O489 2.057 . S
Co473 O504 2.037 . S
Co473 N508 2.145 . S
Co473 N529 2.257 . S
O474 Co472 2.143 . S
O474 Co473 2.160 . S
C475 O476 1.271 1_565 S
C475 O483 1.215 1_565 S
O476 C475 1.271 1_545 S
C477 O478 1.245 . S
C477 O489 1.232 . S
O478 C477 1.245 . S
O479 Co473 2.058 . S
O479 C505 1.269 . S
O480 Co472 2.074 . S
O480 C505 1.257 . S
H481 C506 0.930 . S
H482 C512 0.930 . S
O483 Co472 2.093 . S
O483 C475 1.215 1_545 S
H484 C516 0.929 . S
H485 C518 0.930 . S
H486 C519 0.930 . S
H487 C517 0.929 . S
H488 C520 0.928 . S
O489 Co473 2.057 . S
O489 C477 1.232 . S
H490 C509 0.929 . S
H491 C510 0.929 . S
H492 C522 0.931 . S
H493 C514 0.929 . S
H494 C523 0.930 . S
H495 C515 0.931 . S
O496 Co472 2.097 . S
O496 C524 1.214 . S
H497 C525 0.929 . S
H498 C526 0.929 . S
H499 C527 0.930 . S
H500 C528 0.929 . S
H501 C530 0.930 . S
H502 C507 0.930 . S
H503 C511 0.930 . S
O504 Co473 2.037 . S
O504 C524 1.234 . S
C505 O479 1.269 . S
C505 O480 1.257 . S
C506 H481 0.930 . S
C506 C509 1.388 . S
C506 C511 1.418 . S
C507 H502 0.930 . S
C507 C510 1.404 . S
C507 C511 1.353 . S
N508 Co473 2.145 . S
N508 C509 1.397 . S
N508 C510 1.334 . S
C509 H490 0.929 . S
C509 C506 1.388 . S
C509 N508 1.397 . S
C510 H491 0.929 . S
C510 C507 1.404 . S
C510 N508 1.334 . S
C511 H503 0.930 . S
C511 C506 1.418 . S
C511 C507 1.353 . S
C512 H482 0.930 . S
C512 N513 1.330 1_565 S
C512 C514 1.446 . S
N513 Co472 2.151 . S
N513 C512 1.330 1_545 S
N513 C517 1.418 . S
C514 H493 0.929 . S
C514 C512 1.446 . S
C514 C515 1.332 . S
C515 H495 0.931 . S
C515 C514 1.332 . S
C515 C516 1.267 . S
C516 H484 0.929 . S
C516 C515 1.267 . S
C516 C517 1.251 1_565 S
C517 H487 0.929 . S
C517 N513 1.418 . S
C517 C516 1.251 1_545 S
C518 H485 0.930 . S
C518 C520 1.406 . S
C518 C523 1.261 . S
C519 H486 0.930 . S
C519 N521 1.325 . S
C519 C522 1.357 . S
C520 H488 0.928 . S
C520 C518 1.406 . S
C520 N521 1.261 . S
N521 Co472 2.214 . S
N521 C519 1.325 . S
N521 C520 1.261 . S
C522 H492 0.931 . S
C522 C519 1.357 . S
C522 C523 1.312 . S
C523 H494 0.930 . S
C523 C518 1.261 . S
C523 C522 1.312 . S
C524 O496 1.214 . S
C524 O504 1.234 . S
C525 H497 0.929 . S
C525 C528 1.391 . S
C525 C530 1.391 . S
C526 H498 0.929 . S
C526 C527 1.390 . S
C526 N529 1.391 . S
C527 H499 0.930 . S
C527 C526 1.390 . S
C527 C528 1.392 . S
C528 H500 0.929 . S
C528 C525 1.391 . S
C528 C527 1.392 . S
N529 Co473 2.257 . S
N529 C526 1.391 . S
N529 C530 1.388 . S
C530 H501 0.930 . S
C530 C525 1.391 . S
C530 N529 1.388 . S
Co531 O533 2.143 . S
Co531 O539 2.074 . S
Co531 O542 2.093 . S
Co531 O555 2.097 . S
Co531 N572 2.151 . S
Co531 N580 2.214 . S
Co532 O533 2.160 . S
Co532 O538 2.058 . S
Co532 O548 2.057 . S
Co532 O563 2.037 . S
Co532 N567 2.145 . S
Co532 N588 2.257 . S
O533 Co531 2.143 . S
O533 Co532 2.160 . S
C534 O535 1.271 1_565 S
C534 O542 1.215 1_565 S
O535 C534 1.271 1_545 S
C536 O537 1.245 . S
C536 O548 1.232 . S
O537 C536 1.245 . S
O538 Co532 2.058 . S
O538 C564 1.269 . S
O539 Co531 2.074 . S
O539 C564 1.257 . S
H540 C565 0.930 . S
H541 C571 0.930 . S
O542 Co531 2.093 . S
O542 C534 1.215 1_545 S
H543 C575 0.929 . S
H544 C577 0.930 . S
H545 C578 0.930 . S
H546 C576 0.929 . S
H547 C579 0.928 . S
O548 Co532 2.057 . S
O548 C536 1.232 . S
H549 C568 0.929 . S
H550 C569 0.929 . S
H551 C581 0.931 . S
H552 C573 0.929 . S
H553 C582 0.930 . S
H554 C574 0.931 . S
O555 Co531 2.097 . S
O555 C583 1.214 . S
H556 C584 0.929 . S
H557 C585 0.929 . S
H558 C586 0.930 . S
H559 C587 0.929 . S
H560 C589 0.930 . S
H561 C566 0.930 . S
H562 C570 0.930 . S
O563 Co532 2.037 . S
O563 C583 1.234 . S
C564 O538 1.269 . S
C564 O539 1.257 . S
C565 H540 0.930 . S
C565 C568 1.388 . S
C565 C570 1.418 . S
C566 H561 0.930 . S
C566 C569 1.404 . S
C566 C570 1.353 . S
N567 Co532 2.145 . S
N567 C568 1.397 . S
N567 C569 1.334 . S
C568 H549 0.929 . S
C568 C565 1.388 . S
C568 N567 1.397 . S
C569 H550 0.929 . S
C569 C566 1.404 . S
C569 N567 1.334 . S
C570 H562 0.930 . S
C570 C565 1.418 . S
C570 C566 1.353 . S
C571 H541 0.930 . S
C571 N572 1.330 1_565 S
C571 C573 1.446 . S
N572 Co531 2.151 . S
N572 C571 1.330 1_545 S
N572 C576 1.418 . S
C573 H552 0.929 . S
C573 C571 1.446 . S
C573 C574 1.332 . S
C574 H554 0.931 . S
C574 C573 1.332 . S
C574 C575 1.267 . S
C575 H543 0.929 . S
C575 C574 1.267 . S
C575 C576 1.251 1_565 S
C576 H546 0.929 . S
C576 N572 1.418 . S
C576 C575 1.251 1_545 S
C577 H544 0.930 . S
C577 C579 1.406 . S
C577 C582 1.261 . S
C578 H545 0.930 . S
C578 N580 1.325 . S
C578 C581 1.357 . S
C579 H547 0.928 . S
C579 C577 1.406 . S
C579 N580 1.261 . S
N580 Co531 2.214 . S
N580 C578 1.325 . S
N580 C579 1.261 . S
C581 H551 0.931 . S
C581 C578 1.357 . S
C581 C582 1.312 . S
C582 H553 0.930 . S
C582 C577 1.261 . S
C582 C581 1.312 . S
C583 O555 1.214 . S
C583 O563 1.234 . S
C584 H556 0.929 . S
C584 C587 1.391 . S
C584 C589 1.391 . S
C585 H557 0.929 . S
C585 C586 1.390 . S
C585 N588 1.391 . S
C586 H558 0.930 . S
C586 C585 1.390 . S
C586 C587 1.392 . S
C587 H559 0.929 . S
C587 C584 1.391 . S
C587 C586 1.392 . S
N588 Co532 2.257 . S
N588 C585 1.391 . S
N588 C589 1.388 . S
C589 H560 0.930 . S
C589 C584 1.391 . S
C589 N588 1.388 . S
Co590 O592 2.143 . S
Co590 O598 2.074 . S
Co590 O601 2.093 . S
Co590 O614 2.097 . S
Co590 N631 2.151 . S
Co590 N639 2.214 . S
Co591 O592 2.160 . S
Co591 O597 2.058 . S
Co591 O607 2.057 . S
Co591 O622 2.037 . S
Co591 N626 2.145 . S
Co591 N647 2.257 . S
O592 Co590 2.143 . S
O592 Co591 2.160 . S
C593 O594 1.271 1_545 S
C593 O601 1.215 1_545 S
O594 C593 1.271 1_565 S
C595 O596 1.245 . S
C595 O607 1.232 . S
O596 C595 1.245 . S
O597 Co591 2.058 . S
O597 C623 1.269 . S
O598 Co590 2.074 . S
O598 C623 1.257 . S
H599 C624 0.930 . S
H600 C630 0.930 . S
O601 Co590 2.093 . S
O601 C593 1.215 1_565 S
H602 C634 0.929 . S
H603 C636 0.930 . S
H604 C637 0.930 . S
H605 C635 0.929 . S
H606 C638 0.928 . S
O607 Co591 2.057 . S
O607 C595 1.232 . S
H608 C627 0.929 . S
H609 C628 0.929 . S
H610 C640 0.931 . S
H611 C632 0.929 . S
H612 C641 0.930 . S
H613 C633 0.931 . S
O614 Co590 2.097 . S
O614 C642 1.214 . S
H615 C643 0.929 . S
H616 C644 0.929 . S
H617 C645 0.930 . S
H618 C646 0.929 . S
H619 C648 0.930 . S
H620 C625 0.930 . S
H621 C629 0.930 . S
O622 Co591 2.037 . S
O622 C642 1.234 . S
C623 O597 1.269 . S
C623 O598 1.257 . S
C624 H599 0.930 . S
C624 C627 1.388 . S
C624 C629 1.418 . S
C625 H620 0.930 . S
C625 C628 1.404 . S
C625 C629 1.353 . S
N626 Co591 2.145 . S
N626 C627 1.397 . S
N626 C628 1.334 . S
C627 H608 0.929 . S
C627 C624 1.388 . S
C627 N626 1.397 . S
C628 H609 0.929 . S
C628 C625 1.404 . S
C628 N626 1.334 . S
C629 H621 0.930 . S
C629 C624 1.418 . S
C629 C625 1.353 . S
C630 H600 0.930 . S
C630 N631 1.330 1_545 S
C630 C632 1.446 . S
N631 Co590 2.151 . S
N631 C630 1.330 1_565 S
N631 C635 1.418 . S
C632 H611 0.929 . S
C632 C630 1.446 . S
C632 C633 1.332 . S
C633 H613 0.931 . S
C633 C632 1.332 . S
C633 C634 1.267 . S
C634 H602 0.929 . S
C634 C633 1.267 . S
C634 C635 1.251 1_545 S
C635 H605 0.929 . S
C635 N631 1.418 . S
C635 C634 1.251 1_565 S
C636 H603 0.930 . S
C636 C638 1.406 . S
C636 C641 1.261 . S
C637 H604 0.930 . S
C637 N639 1.325 . S
C637 C640 1.357 . S
C638 H606 0.928 . S
C638 C636 1.406 . S
C638 N639 1.261 . S
N639 Co590 2.214 . S
N639 C637 1.325 . S
N639 C638 1.261 . S
C640 H610 0.931 . S
C640 C637 1.357 . S
C640 C641 1.312 . S
C641 H612 0.930 . S
C641 C636 1.261 . S
C641 C640 1.312 . S
C642 O614 1.214 . S
C642 O622 1.234 . S
C643 H615 0.929 . S
C643 C646 1.391 . S
C643 C648 1.391 . S
C644 H616 0.929 . S
C644 C645 1.390 . S
C644 N647 1.391 . S
C645 H617 0.930 . S
C645 C644 1.390 . S
C645 C646 1.392 . S
C646 H618 0.929 . S
C646 C643 1.391 . S
C646 C645 1.392 . S
N647 Co591 2.257 . S
N647 C644 1.391 . S
N647 C648 1.388 . S
C648 H619 0.930 . S
C648 C643 1.391 . S
C648 N647 1.388 . S
Co649 O651 2.143 . S
Co649 O657 2.074 . S
Co649 O660 2.093 . S
Co649 O673 2.097 . S
Co649 N690 2.151 . S
Co649 N698 2.214 . S
Co650 O651 2.160 . S
Co650 O656 2.058 . S
Co650 O666 2.057 . S
Co650 O681 2.037 . S
Co650 N685 2.145 . S
Co650 N706 2.257 . S
O651 Co649 2.143 . S
O651 Co650 2.160 . S
C652 O653 1.271 1_545 S
C652 O660 1.215 1_545 S
O653 C652 1.271 1_565 S
C654 O655 1.245 . S
C654 O666 1.232 . S
O655 C654 1.245 . S
O656 Co650 2.058 . S
O656 C682 1.269 . S
O657 Co649 2.074 . S
O657 C682 1.257 . S
H658 C683 0.930 . S
H659 C689 0.930 . S
O660 Co649 2.093 . S
O660 C652 1.215 1_565 S
H661 C693 0.929 . S
H662 C695 0.930 . S
H663 C696 0.930 . S
H664 C694 0.929 . S
H665 C697 0.928 . S
O666 Co650 2.057 . S
O666 C654 1.232 . S
H667 C686 0.929 . S
H668 C687 0.929 . S
H669 C699 0.931 . S
H670 C691 0.929 . S
H671 C700 0.930 . S
H672 C692 0.931 . S
O673 Co649 2.097 . S
O673 C701 1.214 . S
H674 C702 0.929 . S
H675 C703 0.929 . S
H676 C704 0.930 . S
H677 C705 0.929 . S
H678 C707 0.930 . S
H679 C684 0.930 . S
H680 C688 0.930 . S
O681 Co650 2.037 . S
O681 C701 1.234 . S
C682 O656 1.269 . S
C682 O657 1.257 . S
C683 H658 0.930 . S
C683 C686 1.388 . S
C683 C688 1.418 . S
C684 H679 0.930 . S
C684 C687 1.404 . S
C684 C688 1.353 . S
N685 Co650 2.145 . S
N685 C686 1.397 . S
N685 C687 1.334 . S
C686 H667 0.929 . S
C686 C683 1.388 . S
C686 N685 1.397 . S
C687 H668 0.929 . S
C687 C684 1.404 . S
C687 N685 1.334 . S
C688 H680 0.930 . S
C688 C683 1.418 . S
C688 C684 1.353 . S
C689 H659 0.930 . S
C689 N690 1.330 1_545 S
C689 C691 1.446 . S
N690 Co649 2.151 . S
N690 C689 1.330 1_565 S
N690 C694 1.418 . S
C691 H670 0.929 . S
C691 C689 1.446 . S
C691 C692 1.332 . S
C692 H672 0.931 . S
C692 C691 1.332 . S
C692 C693 1.267 . S
C693 H661 0.929 . S
C693 C692 1.267 . S
C693 C694 1.251 1_545 S
C694 H664 0.929 . S
C694 N690 1.418 . S
C694 C693 1.251 1_565 S
C695 H662 0.930 . S
C695 C697 1.406 . S
C695 C700 1.261 . S
C696 H663 0.930 . S
C696 N698 1.325 . S
C696 C699 1.357 . S
C697 H665 0.928 . S
C697 C695 1.406 . S
C697 N698 1.261 . S
N698 Co649 2.214 . S
N698 C696 1.325 . S
N698 C697 1.261 . S
C699 H669 0.931 . S
C699 C696 1.357 . S
C699 C700 1.312 . S
C700 H671 0.930 . S
C700 C695 1.261 . S
C700 C699 1.312 . S
C701 O673 1.214 . S
C701 O681 1.234 . S
C702 H674 0.929 . S
C702 C705 1.391 . S
C702 C707 1.391 . S
C703 H675 0.929 . S
C703 C704 1.390 . S
C703 N706 1.391 . S
C704 H676 0.930 . S
C704 C703 1.390 . S
C704 C705 1.392 . S
C705 H677 0.929 . S
C705 C702 1.391 . S
C705 C704 1.392 . S
N706 Co650 2.257 . S
N706 C703 1.391 . S
N706 C707 1.388 . S
C707 H678 0.930 . S
C707 C702 1.391 . S
C707 N706 1.388 . S
Co708 O710 2.143 . S
Co708 O716 2.074 . S
Co708 O719 2.093 . S
Co708 O732 2.097 . S
Co708 N749 2.151 . S
Co708 N757 2.214 . S
Co709 O710 2.160 . S
Co709 O715 2.058 . S
Co709 O725 2.057 . S
Co709 O740 2.037 . S
Co709 N744 2.145 . S
Co709 N765 2.257 . S
O710 Co708 2.143 . S
O710 Co709 2.160 . S
C711 O712 1.278 . S
C711 O719 1.224 . S
O712 C711 1.278 . S
C713 O714 1.245 . S
C713 O725 1.232 . S
O714 C713 1.245 . S
O715 Co709 2.058 . S
O715 C741 1.269 . S
O716 Co708 2.074 . S
O716 C741 1.257 . S
H717 C742 0.930 . S
H718 C748 0.930 . S
O719 Co708 2.093 . S
O719 C711 1.224 . S
H720 C752 0.929 . S
H721 C754 0.930 . S
H722 C755 0.930 . S
H723 C753 0.929 . S
H724 C756 0.928 . S
O725 Co709 2.057 . S
O725 C713 1.232 . S
H726 C745 0.929 . S
H727 C746 0.929 . S
H728 C758 0.931 . S
H729 C750 0.929 . S
H730 C759 0.930 . S
H731 C751 0.931 . S
O732 Co708 2.097 . S
O732 C760 1.214 . S
H733 C761 0.929 . S
H734 C762 0.929 . S
H735 C763 0.930 . S
H736 C764 0.929 . S
H737 C766 0.930 . S
H738 C743 0.930 . S
H739 C747 0.930 . S
O740 Co709 2.037 . S
O740 C760 1.234 . S
C741 O715 1.269 . S
C741 O716 1.257 . S
C742 H717 0.930 . S
C742 C745 1.388 . S
C742 C747 1.418 . S
C743 H738 0.930 . S
C743 C746 1.404 . S
C743 C747 1.353 . S
N744 Co709 2.145 . S
N744 C745 1.397 . S
N744 C746 1.334 . S
C745 H726 0.929 . S
C745 C742 1.388 . S
C745 N744 1.397 . S
C746 H727 0.929 . S
C746 C743 1.404 . S
C746 N744 1.334 . S
C747 H739 0.930 . S
C747 C742 1.418 . S
C747 C743 1.353 . S
C748 H718 0.930 . S
C748 N749 1.330 . S
C748 C750 1.446 . S
N749 Co708 2.151 . S
N749 C748 1.330 . S
N749 C753 1.418 . S
C750 H729 0.929 . S
C750 C748 1.446 . S
C750 C751 1.332 . S
C751 H731 0.931 . S
C751 C750 1.332 . S
C751 C752 1.267 . S
C752 H720 0.929 . S
C752 C751 1.267 . S
C752 C753 1.251 . S
C753 H723 0.929 . S
C753 N749 1.418 . S
C753 C752 1.251 . S
C754 H721 0.930 . S
C754 C756 1.406 . S
C754 C759 1.261 . S
C755 H722 0.930 . S
C755 N757 1.325 . S
C755 C758 1.357 . S
C756 H724 0.928 . S
C756 C754 1.406 . S
C756 N757 1.261 . S
N757 Co708 2.214 . S
N757 C755 1.325 . S
N757 C756 1.261 . S
C758 H728 0.931 . S
C758 C755 1.357 . S
C758 C759 1.312 . S
C759 H730 0.930 . S
C759 C754 1.261 . S
C759 C758 1.312 . S
C760 O732 1.214 . S
C760 O740 1.234 . S
C761 H733 0.929 . S
C761 C764 1.391 . S
C761 C766 1.391 . S
C762 H734 0.929 . S
C762 C763 1.390 . S
C762 N765 1.391 . S
C763 H735 0.930 . S
C763 C762 1.390 . S
C763 C764 1.392 . S
C764 H736 0.929 . S
C764 C761 1.391 . S
C764 C763 1.392 . S
N765 Co709 2.257 . S
N765 C762 1.391 . S
N765 C766 1.388 . S
C766 H737 0.930 . S
C766 C761 1.391 . S
C766 N765 1.388 . S
Co767 O769 2.143 . S
Co767 O775 2.074 . S
Co767 O778 2.093 . S
Co767 O791 2.097 . S
Co767 N808 2.151 . S
Co767 N816 2.214 . S
Co768 O769 2.160 . S
Co768 O774 2.058 . S
Co768 O784 2.057 . S
Co768 O799 2.037 . S
Co768 N803 2.145 . S
Co768 N824 2.257 . S
O769 Co767 2.143 . S
O769 Co768 2.160 . S
C770 O771 1.278 . S
C770 O778 1.224 . S
O771 C770 1.278 . S
C772 O773 1.245 . S
C772 O784 1.232 . S
O773 C772 1.245 . S
O774 Co768 2.058 . S
O774 C800 1.269 . S
O775 Co767 2.074 . S
O775 C800 1.257 . S
H776 C801 0.930 . S
H777 C807 0.930 . S
O778 Co767 2.093 . S
O778 C770 1.224 . S
H779 C811 0.929 . S
H780 C813 0.930 . S
H781 C814 0.930 . S
H782 C812 0.929 . S
H783 C815 0.928 . S
O784 Co768 2.057 . S
O784 C772 1.232 . S
H785 C804 0.929 . S
H786 C805 0.929 . S
H787 C817 0.931 . S
H788 C809 0.929 . S
H789 C818 0.930 . S
H790 C810 0.931 . S
O791 Co767 2.097 . S
O791 C819 1.214 . S
H792 C820 0.929 . S
H793 C821 0.929 . S
H794 C822 0.930 . S
H795 C823 0.929 . S
H796 C825 0.930 . S
H797 C802 0.930 . S
H798 C806 0.930 . S
O799 Co768 2.037 . S
O799 C819 1.234 . S
C800 O774 1.269 . S
C800 O775 1.257 . S
C801 H776 0.930 . S
C801 C804 1.388 . S
C801 C806 1.418 . S
C802 H797 0.930 . S
C802 C805 1.404 . S
C802 C806 1.353 . S
N803 Co768 2.145 . S
N803 C804 1.397 . S
N803 C805 1.334 . S
C804 H785 0.929 . S
C804 C801 1.388 . S
C804 N803 1.397 . S
C805 H786 0.929 . S
C805 C802 1.404 . S
C805 N803 1.334 . S
C806 H798 0.930 . S
C806 C801 1.418 . S
C806 C802 1.353 . S
C807 H777 0.930 . S
C807 N808 1.330 . S
C807 C809 1.446 . S
N808 Co767 2.151 . S
N808 C807 1.330 . S
N808 C812 1.418 . S
C809 H788 0.929 . S
C809 C807 1.446 . S
C809 C810 1.332 . S
C810 H790 0.931 . S
C810 C809 1.332 . S
C810 C811 1.267 . S
C811 H779 0.929 . S
C811 C810 1.267 . S
C811 C812 1.251 . S
C812 H782 0.929 . S
C812 N808 1.418 . S
C812 C811 1.251 . S
C813 H780 0.930 . S
C813 C815 1.406 . S
C813 C818 1.261 . S
C814 H781 0.930 . S
C814 N816 1.325 . S
C814 C817 1.357 . S
C815 H783 0.928 . S
C815 C813 1.406 . S
C815 N816 1.261 . S
N816 Co767 2.214 . S
N816 C814 1.325 . S
N816 C815 1.261 . S
C817 H787 0.931 . S
C817 C814 1.357 . S
C817 C818 1.312 . S
C818 H789 0.930 . S
C818 C813 1.261 . S
C818 C817 1.312 . S
C819 O791 1.214 . S
C819 O799 1.234 . S
C820 H792 0.929 . S
C820 C823 1.391 . S
C820 C825 1.391 . S
C821 H793 0.929 . S
C821 C822 1.390 . S
C821 N824 1.391 . S
C822 H794 0.930 . S
C822 C821 1.390 . S
C822 C823 1.392 . S
C823 H795 0.929 . S
C823 C820 1.391 . S
C823 C822 1.392 . S
N824 Co768 2.257 . S
N824 C821 1.391 . S
N824 C825 1.388 . S
C825 H796 0.930 . S
C825 C820 1.391 . S
C825 N824 1.388 . S
Co826 O828 2.143 . S
Co826 O834 2.074 . S
Co826 O837 2.093 . S
Co826 O850 2.097 . S
Co826 N867 2.151 . S
Co826 N875 2.214 . S
Co827 O828 2.160 . S
Co827 O833 2.058 . S
Co827 O843 2.057 . S
Co827 O858 2.037 . S
Co827 N862 2.145 . S
Co827 N883 2.257 . S
O828 Co826 2.143 . S
O828 Co827 2.160 . S
C829 O830 1.278 . S
C829 O837 1.224 . S
O830 C829 1.278 . S
C831 O832 1.245 . S
C831 O843 1.232 . S
O832 C831 1.245 . S
O833 Co827 2.058 . S
O833 C859 1.269 . S
O834 Co826 2.074 . S
O834 C859 1.257 . S
H835 C860 0.930 . S
H836 C866 0.930 . S
O837 Co826 2.093 . S
O837 C829 1.224 . S
H838 C870 0.929 . S
H839 C872 0.930 . S
H840 C873 0.930 . S
H841 C871 0.929 . S
H842 C874 0.928 . S
O843 Co827 2.057 . S
O843 C831 1.232 . S
H844 C863 0.929 . S
H845 C864 0.929 . S
H846 C876 0.931 . S
H847 C868 0.929 . S
H848 C877 0.930 . S
H849 C869 0.931 . S
O850 Co826 2.097 . S
O850 C878 1.214 . S
H851 C879 0.929 . S
H852 C880 0.929 . S
H853 C881 0.930 . S
H854 C882 0.929 . S
H855 C884 0.930 . S
H856 C861 0.930 . S
H857 C865 0.930 . S
O858 Co827 2.037 . S
O858 C878 1.234 . S
C859 O833 1.269 . S
C859 O834 1.257 . S
C860 H835 0.930 . S
C860 C863 1.388 . S
C860 C865 1.418 . S
C861 H856 0.930 . S
C861 C864 1.404 . S
C861 C865 1.353 . S
N862 Co827 2.145 . S
N862 C863 1.397 . S
N862 C864 1.334 . S
C863 H844 0.929 . S
C863 C860 1.388 . S
C863 N862 1.397 . S
C864 H845 0.929 . S
C864 C861 1.404 . S
C864 N862 1.334 . S
C865 H857 0.930 . S
C865 C860 1.418 . S
C865 C861 1.353 . S
C866 H836 0.930 . S
C866 N867 1.330 . S
C866 C868 1.446 . S
N867 Co826 2.151 . S
N867 C866 1.330 . S
N867 C871 1.418 . S
C868 H847 0.929 . S
C868 C866 1.446 . S
C868 C869 1.332 . S
C869 H849 0.931 . S
C869 C868 1.332 . S
C869 C870 1.267 . S
C870 H838 0.929 . S
C870 C869 1.267 . S
C870 C871 1.251 . S
C871 H841 0.929 . S
C871 N867 1.418 . S
C871 C870 1.251 . S
C872 H839 0.930 . S
C872 C874 1.406 . S
C872 C877 1.261 . S
C873 H840 0.930 . S
C873 N875 1.325 . S
C873 C876 1.357 . S
C874 H842 0.928 . S
C874 C872 1.406 . S
C874 N875 1.261 . S
N875 Co826 2.214 . S
N875 C873 1.325 . S
N875 C874 1.261 . S
C876 H846 0.931 . S
C876 C873 1.357 . S
C876 C877 1.312 . S
C877 H848 0.930 . S
C877 C872 1.261 . S
C877 C876 1.312 . S
C878 O850 1.214 . S
C878 O858 1.234 . S
C879 H851 0.929 . S
C879 C882 1.391 . S
C879 C884 1.391 . S
C880 H852 0.929 . S
C880 C881 1.390 . S
C880 N883 1.391 . S
C881 H853 0.930 . S
C881 C880 1.390 . S
C881 C882 1.392 . S
C882 H854 0.929 . S
C882 C879 1.391 . S
C882 C881 1.392 . S
N883 Co827 2.257 . S
N883 C880 1.391 . S
N883 C884 1.388 . S
C884 H855 0.930 . S
C884 C879 1.391 . S
C884 N883 1.388 . S
Co885 O887 2.143 . S
Co885 O893 2.074 . S
Co885 O896 2.093 . S
Co885 O909 2.097 . S
Co885 N926 2.151 . S
Co885 N934 2.214 . S
Co886 O887 2.160 . S
Co886 O892 2.058 . S
Co886 O902 2.057 . S
Co886 O917 2.037 . S
Co886 N921 2.145 . S
Co886 N942 2.257 . S
O887 Co885 2.143 . S
O887 Co886 2.160 . S
C888 O889 1.278 . S
C888 O896 1.224 . S
O889 C888 1.278 . S
C890 O891 1.245 . S
C890 O902 1.232 . S
O891 C890 1.245 . S
O892 Co886 2.058 . S
O892 C918 1.269 . S
O893 Co885 2.074 . S
O893 C918 1.257 . S
H894 C919 0.930 . S
H895 C925 0.930 . S
O896 Co885 2.093 . S
O896 C888 1.224 . S
H897 C929 0.929 . S
H898 C931 0.930 . S
H899 C932 0.930 . S
H900 C930 0.929 . S
H901 C933 0.928 . S
O902 Co886 2.057 . S
O902 C890 1.232 . S
H903 C922 0.929 . S
H904 C923 0.929 . S
H905 C935 0.931 . S
H906 C927 0.929 . S
H907 C936 0.930 . S
H908 C928 0.931 . S
O909 Co885 2.097 . S
O909 C937 1.214 . S
H910 C938 0.929 . S
H911 C939 0.929 . S
H912 C940 0.930 . S
H913 C941 0.929 . S
H914 C943 0.930 . S
H915 C920 0.930 . S
H916 C924 0.930 . S
O917 Co886 2.037 . S
O917 C937 1.234 . S
C918 O892 1.269 . S
C918 O893 1.257 . S
C919 H894 0.930 . S
C919 C922 1.388 . S
C919 C924 1.418 . S
C920 H915 0.930 . S
C920 C923 1.404 . S
C920 C924 1.353 . S
N921 Co886 2.145 . S
N921 C922 1.397 . S
N921 C923 1.334 . S
C922 H903 0.929 . S
C922 C919 1.388 . S
C922 N921 1.397 . S
C923 H904 0.929 . S
C923 C920 1.404 . S
C923 N921 1.334 . S
C924 H916 0.930 . S
C924 C919 1.418 . S
C924 C920 1.353 . S
C925 H895 0.930 . S
C925 N926 1.330 . S
C925 C927 1.446 . S
N926 Co885 2.151 . S
N926 C925 1.330 . S
N926 C930 1.418 . S
C927 H906 0.929 . S
C927 C925 1.446 . S
C927 C928 1.332 . S
C928 H908 0.931 . S
C928 C927 1.332 . S
C928 C929 1.267 . S
C929 H897 0.929 . S
C929 C928 1.267 . S
C929 C930 1.251 . S
C930 H900 0.929 . S
C930 N926 1.418 . S
C930 C929 1.251 . S
C931 H898 0.930 . S
C931 C933 1.406 . S
C931 C936 1.261 . S
C932 H899 0.930 . S
C932 N934 1.325 . S
C932 C935 1.357 . S
C933 H901 0.928 . S
C933 C931 1.406 . S
C933 N934 1.261 . S
N934 Co885 2.214 . S
N934 C932 1.325 . S
N934 C933 1.261 . S
C935 H905 0.931 . S
C935 C932 1.357 . S
C935 C936 1.312 . S
C936 H907 0.930 . S
C936 C931 1.261 . S
C936 C935 1.312 . S
C937 O909 1.214 . S
C937 O917 1.234 . S
C938 H910 0.929 . S
C938 C941 1.391 . S
C938 C943 1.391 . S
C939 H911 0.929 . S
C939 C940 1.390 . S
C939 N942 1.391 . S
C940 H912 0.930 . S
C940 C939 1.390 . S
C940 C941 1.392 . S
C941 H913 0.929 . S
C941 C938 1.391 . S
C941 C940 1.392 . S
N942 Co886 2.257 . S
N942 C939 1.391 . S
N942 C943 1.388 . S
C943 H914 0.930 . S
C943 C938 1.391 . S
C943 N942 1.388 . S
C944 C945 1.391 . S
C944 C946 1.394 . S
C944 H960 0.931 . S
C945 C944 1.391 . S
C945 C949 1.376 . S
C946 C944 1.394 . S
C946 C947 1.369 . S
C946 C950 1.531 . S
C947 C946 1.369 . S
C947 C948 1.410 . S
C947 C955 1.503 . S
C948 C947 1.410 . S
C948 C949 1.392 . S
C948 C951 1.511 . S
C949 C945 1.376 . S
C949 C948 1.392 . S
C949 H961 0.929 . S
C950 C946 1.531 . S
C950 H962 0.960 . S
C950 H963 0.962 . S
C950 H964 0.960 . S
C951 C948 1.511 . S
C951 H965 0.961 . S
C951 H966 0.961 . S
C951 H967 0.961 . S
C952 C953 1.370 . S
C952 C954 1.363 . S
C952 H968 0.931 . S
C953 C952 1.370 . S
C953 C957 1.408 . S
C954 C952 1.363 . S
C954 C955 1.370 . S
C954 C958 1.524 . S
C955 C947 1.503 . S
C955 C954 1.370 . S
C955 C956 1.403 . S
C956 C955 1.403 . S
C956 C957 1.404 . S
C956 C959 1.539 . S
C957 C953 1.408 . S
C957 C956 1.404 . S
C957 H969 0.930 . S
C958 C954 1.524 . S
C958 H970 0.956 . S
C958 H971 0.961 . S
C958 H972 0.961 . S
C959 C956 1.539 . S
C959 H973 0.958 . S
C959 H974 0.961 . S
C959 H975 0.960 . S
H960 C944 0.931 . S
H961 C949 0.929 . S
H962 C950 0.960 . S
H963 C950 0.962 . S
H964 C950 0.960 . S
H965 C951 0.961 . S
H966 C951 0.961 . S
H967 C951 0.961 . S
H968 C952 0.931 . S
H969 C957 0.930 . S
H970 C958 0.956 . S
H971 C958 0.961 . S
H972 C958 0.961 . S
H973 C959 0.958 . S
H974 C959 0.961 . S
H975 C959 0.960 . S
C976 C977 1.391 . S
C976 C978 1.394 . S
C976 H992 0.931 . S
C977 C976 1.391 . S
C977 C981 1.376 1_565 S
C978 C976 1.394 . S
C978 C979 1.369 . S
C978 C982 1.531 . S
C979 C978 1.369 . S
C979 C980 1.410 1_565 S
C979 C987 1.503 1_665 S
C980 C979 1.410 1_545 S
C980 C981 1.392 . S
C980 C983 1.511 . S
C981 C977 1.376 1_545 S
C981 C980 1.392 . S
C981 H993 0.929 . S
C982 C978 1.531 . S
C982 H994 0.960 . S
C982 H995 0.962 . S
C982 H996 0.960 . S
C983 C980 1.511 . S
C983 H997 0.961 . S
C983 H998 0.961 1_655 S
C983 H999 0.961 . S
C984 C985 1.370 . S
C984 C986 1.363 1_545 S
C984 H1000 0.930 1_545 S
C985 C984 1.370 . S
C985 C989 1.408 . S
C986 C984 1.363 1_565 S
C986 C987 1.370 1_565 S
C986 C990 1.524 . S
C987 C979 1.503 1_445 S
C987 C986 1.370 1_545 S
C987 C988 1.403 1_455 S
C988 C987 1.403 1_655 S
C988 C989 1.404 1_655 S
C988 C991 1.539 . S
C989 C985 1.408 . S
C989 C988 1.404 1_455 S
C989 H1001 0.930 . S
C990 C986 1.524 . S
C990 H1002 0.956 . S
C990 H1003 0.961 . S
C990 H1004 0.961 . S
C991 C988 1.539 . S
C991 H1005 0.958 . S
C991 H1006 0.961 . S
C991 H1007 0.960 . S
H992 C976 0.931 . S
H993 C981 0.929 . S
H994 C982 0.960 . S
H995 C982 0.962 . S
H996 C982 0.960 . S
H997 C983 0.961 . S
H998 C983 0.961 1_455 S
H999 C983 0.961 . S
H1000 C984 0.930 1_565 S
H1001 C989 0.930 . S
H1002 C990 0.956 . S
H1003 C990 0.961 . S
H1004 C990 0.961 . S
H1005 C991 0.958 . S
H1006 C991 0.961 . S
H1007 C991 0.960 . S
C1008 C1009 1.391 . S
C1008 C1010 1.394 . S
C1008 H1024 0.931 . S
C1009 C1008 1.391 . S
C1009 C1013 1.376 . S
C1010 C1008 1.394 . S
C1010 C1011 1.369 1_565 S
C1010 C1014 1.531 . S
C1011 C1010 1.369 1_545 S
C1011 C1012 1.410 . S
C1011 C1019 1.503 . S
C1012 C1011 1.410 . S
C1012 C1013 1.392 1_545 S
C1012 C1015 1.511 . S
C1013 C1009 1.376 . S
C1013 C1012 1.392 1_565 S
C1013 H1025 0.929 . S
C1014 C1010 1.531 . S
C1014 H1026 0.960 1_565 S
C1014 H1027 0.962 . S
C1014 H1028 0.960 . S
C1015 C1012 1.511 . S
C1015 H1029 0.961 . S
C1015 H1030 0.961 . S
C1015 H1031 0.961 . S
C1016 C1017 1.370 1_565 S
C1016 C1018 1.363 . S
C1016 H1032 0.931 . S
C1017 C1016 1.370 1_545 S
C1017 C1021 1.408 . S
C1018 C1016 1.363 . S
C1018 C1019 1.370 1_565 S
C1018 C1022 1.524 . S
C1019 C1011 1.503 . S
C1019 C1018 1.370 1_545 S
C1019 C1020 1.403 . S
C1020 C1019 1.403 . S
C1020 C1021 1.404 . S
C1020 C1023 1.539 . S
C1021 C1017 1.408 . S
C1021 C1020 1.404 . S
C1021 H1033 0.930 . S
C1022 C1018 1.524 . S
C1022 H1034 0.956 . S
C1022 H1035 0.961 . S
C1022 H1036 0.961 . S
C1023 C1020 1.539 . S
C1023 H1037 0.958 . S
C1023 H1038 0.961 . S
C1023 H1039 0.960 . S
H1024 C1008 0.931 . S
H1025 C1013 0.929 . S
H1026 C1014 0.960 1_545 S
H1027 C1014 0.962 . S
H1028 C1014 0.960 . S
H1029 C1015 0.961 . S
H1030 C1015 0.961 . S
H1031 C1015 0.961 . S
H1032 C1016 0.931 . S
H1033 C1021 0.930 . S
H1034 C1022 0.956 . S
H1035 C1022 0.961 . S
H1036 C1022 0.961 . S
H1037 C1023 0.958 . S
H1038 C1023 0.961 . S
H1039 C1023 0.960 . S
C1040 C1041 1.391 . S
C1040 C1042 1.394 . S
C1040 H1056 0.931 . S
C1041 C1040 1.391 . S
C1041 C1045 1.376 . S
C1042 C1040 1.394 . S
C1042 C1043 1.369 . S
C1042 C1046 1.531 . S
C1043 C1042 1.369 . S
C1043 C1044 1.410 . S
C1043 C1051 1.503 1_455 S
C1044 C1043 1.410 . S
C1044 C1045 1.392 . S
C1044 C1047 1.511 1_455 S
C1045 C1041 1.376 . S
C1045 C1044 1.392 . S
C1045 H1057 0.929 . S
C1046 C1042 1.531 . S
C1046 H1058 0.960 . S
C1046 H1059 0.962 . S
C1046 H1060 0.960 . S
C1047 C1044 1.511 1_655 S
C1047 H1061 0.958 1_655 S
C1047 H1062 0.961 . S
C1047 H1063 0.961 . S
C1048 C1049 1.370 . S
C1048 C1050 1.363 . S
C1048 H1064 0.931 . S
C1049 C1048 1.370 . S
C1049 C1053 1.408 . S
C1050 C1048 1.363 . S
C1050 C1051 1.370 . S
C1050 C1054 1.524 1_655 S
C1051 C1043 1.503 1_655 S
C1051 C1050 1.370 . S
C1051 C1052 1.403 . S
C1052 C1051 1.403 . S
C1052 C1053 1.404 . S
C1052 C1055 1.539 . S
C1053 C1049 1.408 . S
C1053 C1052 1.404 . S
C1053 H1065 0.930 . S
C1054 C1050 1.524 1_455 S
C1054 H1066 0.956 . S
C1054 H1067 0.961 . S
C1054 H1068 0.961 . S
C1055 C1052 1.539 . S
C1055 H1069 0.958 . S
C1055 H1070 0.961 . S
C1055 H1071 0.960 . S
H1056 C1040 0.931 . S
H1057 C1045 0.929 . S
H1058 C1046 0.960 . S
H1059 C1046 0.962 . S
H1060 C1046 0.960 . S
H1061 C1047 0.958 1_455 S
H1062 C1047 0.961 . S
H1063 C1047 0.961 . S
H1064 C1048 0.931 . S
H1065 C1053 0.930 . S
H1066 C1054 0.956 . S
H1067 C1054 0.961 . S
H1068 C1054 0.961 . S
H1069 C1055 0.958 . S
H1070 C1055 0.961 . S
H1071 C1055 0.960 . S
C1072 C1073 1.391 . S
C1072 C1074 1.394 . S
C1072 H1088 0.931 . S
C1073 C1072 1.391 . S
C1073 C1077 1.376 . S
C1074 C1072 1.394 . S
C1074 C1075 1.369 . S
C1074 C1078 1.531 . S
C1075 C1074 1.369 . S
C1075 C1076 1.410 . S
C1075 C1083 1.503 . S
C1076 C1075 1.410 . S
C1076 C1077 1.392 . S
C1076 C1079 1.511 . S
C1077 C1073 1.376 . S
C1077 C1076 1.392 . S
C1077 H1089 0.929 . S
C1078 C1074 1.531 . S
C1078 H1090 0.960 . S
C1078 H1091 0.962 . S
C1078 H1092 0.960 . S
C1079 C1076 1.511 . S
C1079 H1093 0.961 . S
C1079 H1094 0.961 . S
C1079 H1095 0.961 . S
C1080 C1081 1.370 . S
C1080 C1082 1.363 . S
C1080 H1096 0.931 . S
C1081 C1080 1.370 . S
C1081 C1085 1.408 . S
C1082 C1080 1.363 . S
C1082 C1083 1.370 . S
C1082 C1086 1.524 . S
C1083 C1075 1.503 . S
C1083 C1082 1.370 . S
C1083 C1084 1.403 . S
C1084 C1083 1.403 . S
C1084 C1085 1.404 . S
C1084 C1087 1.539 . S
C1085 C1081 1.408 . S
C1085 C1084 1.404 . S
C1085 H1097 0.930 . S
C1086 C1082 1.524 . S
C1086 H1098 0.956 . S
C1086 H1099 0.961 . S
C1086 H1100 0.961 . S
C1087 C1084 1.539 . S
C1087 H1101 0.958 . S
C1087 H1102 0.961 . S
C1087 H1103 0.960 . S
H1088 C1072 0.931 . S
H1089 C1077 0.929 . S
H1090 C1078 0.960 . S
H1091 C1078 0.962 . S
H1092 C1078 0.960 . S
H1093 C1079 0.961 . S
H1094 C1079 0.961 . S
H1095 C1079 0.961 . S
H1096 C1080 0.931 . S
H1097 C1085 0.930 . S
H1098 C1086 0.956 . S
H1099 C1086 0.961 . S
H1100 C1086 0.961 . S
H1101 C1087 0.958 . S
H1102 C1087 0.961 . S
H1103 C1087 0.960 . S
C1104 C1105 1.391 . S
C1104 C1106 1.394 . S
C1104 H1120 0.931 . S
C1105 C1104 1.391 . S
C1105 C1109 1.376 . S
C1106 C1104 1.394 . S
C1106 C1107 1.369 1_545 S
C1106 C1110 1.528 1_545 S
C1107 C1106 1.369 1_565 S
C1107 C1108 1.410 1_565 S
C1107 C1115 1.503 . S
C1108 C1107 1.410 1_545 S
C1108 C1109 1.392 . S
C1108 C1111 1.511 1_545 S
C1109 C1105 1.376 . S
C1109 C1108 1.392 . S
C1109 H1121 0.929 . S
C1110 C1106 1.528 1_565 S
C1110 H1122 0.976 . S
C1110 H1123 0.943 1_565 S
C1110 H1124 0.966 . S
C1111 C1108 1.511 1_565 S
C1111 H1125 0.961 1_565 S
C1111 H1126 0.961 . S
C1111 H1127 0.961 . S
C1112 C1113 1.370 1_545 S
C1112 C1114 1.363 . S
C1112 H1128 0.931 . S
C1113 C1112 1.370 1_565 S
C1113 C1117 1.408 . S
C1114 C1112 1.363 . S
C1114 C1115 1.370 1_545 S
C1114 C1118 1.524 . S
C1115 C1107 1.503 . S
C1115 C1114 1.370 1_565 S
C1115 C1116 1.403 . S
C1116 C1115 1.403 . S
C1116 C1117 1.404 . S
C1116 C1119 1.539 . S
C1117 C1113 1.408 . S
C1117 C1116 1.404 . S
C1117 H1129 0.930 . S
C1118 C1114 1.524 . S
C1118 H1130 0.956 . S
C1118 H1131 0.961 . S
C1118 H1132 0.961 . S
C1119 C1116 1.539 . S
C1119 H1133 0.958 . S
C1119 H1134 0.961 . S
C1119 H1135 0.960 . S
H1120 C1104 0.931 . S
H1121 C1109 0.929 . S
H1122 C1110 0.976 . S
H1123 C1110 0.943 1_545 S
H1124 C1110 0.966 . S
H1125 C1111 0.961 1_545 S
H1126 C1111 0.961 . S
H1127 C1111 0.961 . S
H1128 C1112 0.931 . S
H1129 C1117 0.930 . S
H1130 C1118 0.956 . S
H1131 C1118 0.961 . S
H1132 C1118 0.961 . S
H1133 C1119 0.958 . S
H1134 C1119 0.961 . S
H1135 C1119 0.960 . S
C1136 C1137 1.391 . S
C1136 C1138 1.394 . S
C1136 H1152 0.931 . S
C1137 C1136 1.391 . S
C1137 C1141 1.376 . S
C1138 C1136 1.394 . S
C1138 C1139 1.369 . S
C1138 C1142 1.531 1_655 S
C1139 C1138 1.369 . S
C1139 C1140 1.410 . S
C1139 C1147 1.503 1_655 S
C1140 C1139 1.410 . S
C1140 C1141 1.392 . S
C1140 C1143 1.511 . S
C1141 C1137 1.376 . S
C1141 C1140 1.392 . S
C1141 H1153 0.929 . S
C1142 C1138 1.531 1_455 S
C1142 H1154 0.960 . S
C1142 H1155 0.962 . S
C1142 H1156 0.960 . S
C1143 C1140 1.511 . S
C1143 H1157 0.961 . S
C1143 H1158 0.961 . S
C1143 H1159 0.961 . S
C1144 C1145 1.370 . S
C1144 C1146 1.363 . S
C1144 H1160 0.931 . S
C1145 C1144 1.370 . S
C1145 C1149 1.408 . S
C1146 C1144 1.363 . S
C1146 C1147 1.370 . S
C1146 C1150 1.524 . S
C1147 C1139 1.503 1_455 S
C1147 C1146 1.370 . S
C1147 C1148 1.403 . S
C1148 C1147 1.403 . S
C1148 C1149 1.404 . S
C1148 C1151 1.539 1_455 S
C1149 C1145 1.408 . S
C1149 C1148 1.404 . S
C1149 H1161 0.930 . S
C1150 C1146 1.524 . S
C1150 H1162 0.956 . S
C1150 H1163 0.961 . S
C1150 H1164 0.961 . S
C1151 C1148 1.539 1_655 S
C1151 H1165 0.958 . S
C1151 H1166 0.961 . S
C1151 H1167 0.960 . S
H1152 C1136 0.931 . S
H1153 C1141 0.929 . S
H1154 C1142 0.960 . S
H1155 C1142 0.962 . S
H1156 C1142 0.960 . S
H1157 C1143 0.961 . S
H1158 C1143 0.961 . S
H1159 C1143 0.961 . S
H1160 C1144 0.931 . S
H1161 C1149 0.930 . S
H1162 C1150 0.956 . S
H1163 C1150 0.961 . S
H1164 C1150 0.961 . S
H1165 C1151 0.958 . S
H1166 C1151 0.961 . S
H1167 C1151 0.960 . S
C1168 C1169 1.391 . S
C1168 C1170 1.394 . S
C1168 H1184 0.931 . S
C1169 C1168 1.391 . S
C1169 C1173 1.376 . S
C1170 C1168 1.394 . S
C1170 C1171 1.369 . S
C1170 C1174 1.531 1_554 S
C1171 C1170 1.369 . S
C1171 C1172 1.410 . S
C1171 C1179 1.503 1_554 S
C1172 C1171 1.410 . S
C1172 C1173 1.392 . S
C1172 C1175 1.511 . S
C1173 C1169 1.376 . S
C1173 C1172 1.392 . S
C1173 H1185 0.929 . S
C1174 C1170 1.531 1_556 S
C1174 H1186 0.960 . S
C1174 H1187 0.962 1_556 S
C1174 H1188 0.960 . S
C1175 C1172 1.511 . S
C1175 H1189 0.961 . S
C1175 H1190 0.961 . S
C1175 H1191 0.953 1_554 S
C1176 C1177 1.370 . S
C1176 C1178 1.363 . S
C1176 H1192 0.931 . S
C1177 C1176 1.370 . S
C1177 C1181 1.408 . S
C1178 C1176 1.363 . S
C1178 C1179 1.370 . S
C1178 C1182 1.524 1_556 S
C1179 C1171 1.503 1_556 S
C1179 C1178 1.370 . S
C1179 C1180 1.403 . S
C1180 C1179 1.403 . S
C1180 C1181 1.404 . S
C1180 C1183 1.539 . S
C1181 C1177 1.408 . S
C1181 C1180 1.404 . S
C1181 H1193 0.930 . S
C1182 C1178 1.524 1_554 S
C1182 H1194 0.956 . S
C1182 H1195 0.961 . S
C1182 H1196 0.961 . S
C1183 C1180 1.539 . S
C1183 H1197 0.958 . S
C1183 H1198 0.961 . S
C1183 H1199 0.960 . S
H1184 C1168 0.931 . S
H1185 C1173 0.929 . S
H1186 C1174 0.960 . S
H1187 C1174 0.962 1_554 S
H1188 C1174 0.960 . S
H1189 C1175 0.961 . S
H1190 C1175 0.961 . S
H1191 C1175 0.953 1_556 S
H1192 C1176 0.931 . S
H1193 C1181 0.930 . S
H1194 C1182 0.956 . S
H1195 C1182 0.961 . S
H1196 C1182 0.961 . S
H1197 C1183 0.958 . S
H1198 C1183 0.961 . S
H1199 C1183 0.960 . S
C1200 C1201 1.391 . S
C1200 C1202 1.394 1_556 S
C1200 H1216 0.931 . S
C1201 C1200 1.391 . S
C1201 C1205 1.376 . S
C1202 C1200 1.394 1_554 S
C1202 C1203 1.369 1_554 S
C1202 C1206 1.531 . S
C1203 C1202 1.369 1_556 S
C1203 C1204 1.410 1_455 S
C1203 C1211 1.503 1_456 S
C1204 C1203 1.410 1_655 S
C1204 C1205 1.392 1_655 S
C1204 C1207 1.511 . S
C1205 C1201 1.376 . S
C1205 C1204 1.392 1_455 S
C1205 H1217 0.929 . S
C1206 C1202 1.531 . S
C1206 H1218 0.960 . S
C1206 H1219 0.962 . S
C1206 H1220 0.960 . S
C1207 C1204 1.511 . S
C1207 H1221 0.961 . S
C1207 H1222 0.961 . S
C1207 H1223 0.961 . S
C1208 C1209 1.370 . S
C1208 C1210 1.363 . S
C1208 H1224 0.931 . S
C1209 C1208 1.370 . S
C1209 C1213 1.408 . S
C1210 C1208 1.363 . S
C1210 C1211 1.370 . S
C1210 C1214 1.524 1_655 S
C1211 C1203 1.503 1_654 S
C1211 C1210 1.370 . S
C1211 C1212 1.403 . S
C1212 C1211 1.403 . S
C1212 C1213 1.404 . S
C1212 C1215 1.539 . S
C1213 C1209 1.408 . S
C1213 C1212 1.404 . S
C1213 H1225 0.930 . S
C1214 C1210 1.524 1_455 S
C1214 H1226 0.956 . S
C1214 H1227 0.961 1_454 S
C1214 H1228 0.961 1_455 S
C1215 C1212 1.539 . S
C1215 H1229 0.958 . S
C1215 H1230 0.961 . S
C1215 H1231 0.960 1_554 S
H1216 C1200 0.931 . S
H1217 C1205 0.929 . S
H1218 C1206 0.960 . S
H1219 C1206 0.962 . S
H1220 C1206 0.960 . S
H1221 C1207 0.961 . S
H1222 C1207 0.961 . S
H1223 C1207 0.961 . S
H1224 C1208 0.931 . S
H1225 C1213 0.930 . S
H1226 C1214 0.956 . S
H1227 C1214 0.961 1_656 S
H1228 C1214 0.961 1_655 S
H1229 C1215 0.958 . S
H1230 C1215 0.961 . S
H1231 C1215 0.960 1_556 S
C1232 C1233 1.391 . S
C1232 C1234 1.394 . S
C1232 H1248 0.931 . S
C1233 C1232 1.391 . S
C1233 C1237 1.376 . S
C1234 C1232 1.394 . S
C1234 C1235 1.369 . S
C1234 C1238 1.531 . S
C1235 C1234 1.369 . S
C1235 C1236 1.410 . S
C1235 C1243 1.503 . S
C1236 C1235 1.410 . S
C1236 C1237 1.392 . S
C1236 C1239 1.511 . S
C1237 C1233 1.376 . S
C1237 C1236 1.392 . S
C1237 H1249 0.929 . S
C1238 C1234 1.531 . S
C1238 H1250 0.960 . S
C1238 H1251 0.962 . S
C1238 H1252 0.960 . S
C1239 C1236 1.511 . S
C1239 H1253 0.961 . S
C1239 H1254 0.961 . S
C1239 H1255 0.961 . S
C1240 C1241 1.370 . S
C1240 C1242 1.363 . S
C1240 H1256 0.931 . S
C1241 C1240 1.370 . S
C1241 C1245 1.408 . S
C1242 C1240 1.363 . S
C1242 C1243 1.370 . S
C1242 C1246 1.524 . S
C1243 C1235 1.503 . S
C1243 C1242 1.370 . S
C1243 C1244 1.403 . S
C1244 C1243 1.403 . S
C1244 C1245 1.404 . S
C1244 C1247 1.539 . S
C1245 C1241 1.408 . S
C1245 C1244 1.404 . S
C1245 H1257 0.930 . S
C1246 C1242 1.524 . S
C1246 H1258 0.956 . S
C1246 H1259 0.961 . S
C1246 H1260 0.961 . S
C1247 C1244 1.539 . S
C1247 H1261 0.958 . S
C1247 H1262 0.961 . S
C1247 H1263 0.960 . S
H1248 C1232 0.931 . S
H1249 C1237 0.929 . S
H1250 C1238 0.960 . S
H1251 C1238 0.962 . S
H1252 C1238 0.960 . S
H1253 C1239 0.961 . S
H1254 C1239 0.961 . S
H1255 C1239 0.961 . S
H1256 C1240 0.931 . S
H1257 C1245 0.930 . S
H1258 C1246 0.956 . S
H1259 C1246 0.961 . S
H1260 C1246 0.961 . S
H1261 C1247 0.958 . S
H1262 C1247 0.961 . S
H1263 C1247 0.960 . S
C1264 C1265 1.391 . S
C1264 C1266 1.394 . S
C1264 H1280 0.931 . S
C1265 C1264 1.391 . S
C1265 C1269 1.376 . S
C1266 C1264 1.394 . S
C1266 C1267 1.369 . S
C1266 C1270 1.531 1_556 S
C1267 C1266 1.369 . S
C1267 C1268 1.410 . S
C1267 C1275 1.503 1_556 S
C1268 C1267 1.410 . S
C1268 C1269 1.392 . S
C1268 C1271 1.511 . S
C1269 C1265 1.376 . S
C1269 C1268 1.392 . S
C1269 H1281 0.929 . S
C1270 C1266 1.531 1_554 S
C1270 H1282 0.960 . S
C1270 H1283 0.962 . S
C1270 H1284 0.960 . S
C1271 C1268 1.511 . S
C1271 H1285 0.961 . S
C1271 H1286 0.961 . S
C1271 H1287 0.961 . S
C1272 C1273 1.370 . S
C1272 C1274 1.363 . S
C1272 H1288 0.931 . S
C1273 C1272 1.370 . S
C1273 C1277 1.408 . S
C1274 C1272 1.363 . S
C1274 C1275 1.370 . S
C1274 C1278 1.524 . S
C1275 C1267 1.503 1_554 S
C1275 C1274 1.370 . S
C1275 C1276 1.403 . S
C1276 C1275 1.403 . S
C1276 C1277 1.404 . S
C1276 C1279 1.539 1_554 S
C1277 C1273 1.408 . S
C1277 C1276 1.404 . S
C1277 H1289 0.930 . S
C1278 C1274 1.524 . S
C1278 H1290 0.956 . S
C1278 H1291 0.961 . S
C1278 H1292 0.961 . S
C1279 C1276 1.539 1_556 S
C1279 H1293 0.958 . S
C1279 H1294 0.961 . S
C1279 H1295 0.960 . S
H1280 C1264 0.931 . S
H1281 C1269 0.929 . S
H1282 C1270 0.960 . S
H1283 C1270 0.962 . S
H1284 C1270 0.960 . S
H1285 C1271 0.961 . S
H1286 C1271 0.961 . S
H1287 C1271 0.961 . S
H1288 C1272 0.931 . S
H1289 C1277 0.930 . S
H1290 C1278 0.956 . S
H1291 C1278 0.961 . S
H1292 C1278 0.961 . S
H1293 C1279 0.958 . S
H1294 C1279 0.961 . S
H1295 C1279 0.960 . S
C1296 C1297 1.391 . S
C1296 C1298 1.394 . S
C1296 H1312 0.931 . S
C1297 C1296 1.391 . S
C1297 C1301 1.376 . S
C1298 C1296 1.394 . S
C1298 C1299 1.369 . S
C1298 C1302 1.531 . S
C1299 C1298 1.369 . S
C1299 C1300 1.410 . S
C1299 C1307 1.503 . S
C1300 C1299 1.410 . S
C1300 C1301 1.392 . S
C1300 C1303 1.511 . S
C1301 C1297 1.376 . S
C1301 C1300 1.392 . S
C1301 H1313 0.929 . S
C1302 C1298 1.531 . S
C1302 H1314 0.960 . S
C1302 H1315 0.962 . S
C1302 H1316 0.960 . S
C1303 C1300 1.511 . S
C1303 H1317 0.961 . S
C1303 H1318 0.961 . S
C1303 H1319 0.961 . S
C1304 C1305 1.370 . S
C1304 C1306 1.363 . S
C1304 H1320 0.931 . S
C1305 C1304 1.370 . S
C1305 C1309 1.408 . S
C1306 C1304 1.363 . S
C1306 C1307 1.370 . S
C1306 C1310 1.524 . S
C1307 C1299 1.503 . S
C1307 C1306 1.370 . S
C1307 C1308 1.403 . S
C1308 C1307 1.403 . S
C1308 C1309 1.404 . S
C1308 C1311 1.539 . S
C1309 C1305 1.408 . S
C1309 C1308 1.404 . S
C1309 H1321 0.930 . S
C1310 C1306 1.524 . S
C1310 H1322 0.956 . S
C1310 H1323 0.961 . S
C1310 H1324 0.961 . S
C1311 C1308 1.539 . S
C1311 H1325 0.958 . S
C1311 H1326 0.961 . S
C1311 H1327 0.960 . S
H1312 C1296 0.931 . S
H1313 C1301 0.929 . S
H1314 C1302 0.960 . S
H1315 C1302 0.962 . S
H1316 C1302 0.960 . S
H1317 C1303 0.961 . S
H1318 C1303 0.961 . S
H1319 C1303 0.961 . S
H1320 C1304 0.931 . S
H1321 C1309 0.930 . S
H1322 C1310 0.956 . S
H1323 C1310 0.961 . S
H1324 C1310 0.961 . S
H1325 C1311 0.958 . S
H1326 C1311 0.961 . S
H1327 C1311 0.960 . S
C1328 C1329 1.391 . S
C1328 C1330 1.394 1_545 S
C1328 H1344 0.931 . S
C1329 C1328 1.391 . S
C1329 C1333 1.376 . S
C1330 C1328 1.394 1_565 S
C1330 C1331 1.369 . S
C1330 C1334 1.531 . S
C1331 C1330 1.369 . S
C1331 C1332 1.410 1_566 S
C1331 C1339 1.503 1_556 S
C1332 C1331 1.410 1_544 S
C1332 C1333 1.392 1_554 S
C1332 C1335 1.511 . S
C1333 C1329 1.376 . S
C1333 C1332 1.392 1_556 S
C1333 H1345 0.929 . S
C1334 C1330 1.531 . S
C1334 H1346 0.960 . S
C1334 H1347 0.962 . S
C1334 H1348 0.960 . S
C1335 C1332 1.511 . S
C1335 H1349 0.961 . S
C1335 H1350 0.961 . S
C1335 H1351 0.961 1_545 S
C1336 C1337 1.370 1_545 S
C1336 C1338 1.363 . S
C1336 H1352 0.931 . S
C1337 C1336 1.370 1_565 S
C1337 C1341 1.408 . S
C1338 C1336 1.363 . S
C1338 C1339 1.370 1_545 S
C1338 C1342 1.548 . S
C1339 C1331 1.503 1_554 S
C1339 C1338 1.370 1_565 S
C1339 C1340 1.403 . S
C1340 C1339 1.403 . S
C1340 C1341 1.404 . S
C1340 C1343 1.539 . S
C1341 C1337 1.408 . S
C1341 C1340 1.404 . S
C1341 H1353 0.930 . S
C1342 C1338 1.548 . S
C1342 H1354 0.904 1_554 S
C1342 H1355 0.963 . S
C1342 H1356 0.989 . S
C1343 C1340 1.539 . S
C1343 H1357 0.958 . S
C1343 H1358 0.961 . S
C1343 H1359 0.960 . S
H1344 C1328 0.931 . S
H1345 C1333 0.929 . S
H1346 C1334 0.960 . S
H1347 C1334 0.962 . S
H1348 C1334 0.960 . S
H1349 C1335 0.961 . S
H1350 C1335 0.961 . S
H1351 C1335 0.961 1_565 S
H1352 C1336 0.931 . S
H1353 C1341 0.930 . S
H1354 C1342 0.904 1_556 S
H1355 C1342 0.963 . S
H1356 C1342 0.989 . S
H1357 C1343 0.958 . S
H1358 C1343 0.961 . S
H1359 C1343 0.960 . S
C1360 C1361 1.391 . S
C1360 C1362 1.394 . S
C1360 H1376 0.931 . S
C1361 C1360 1.391 . S
C1361 C1365 1.376 . S
C1362 C1360 1.394 . S
C1362 C1363 1.369 . S
C1362 C1366 1.531 . S
C1363 C1362 1.369 . S
C1363 C1364 1.410 . S
C1363 C1371 1.503 . S
C1364 C1363 1.410 . S
C1364 C1365 1.392 . S
C1364 C1367 1.511 . S
C1365 C1361 1.376 . S
C1365 C1364 1.392 . S
C1365 H1377 0.929 . S
C1366 C1362 1.531 . S
C1366 H1378 0.960 . S
C1366 H1379 0.962 . S
C1366 H1380 0.960 . S
C1367 C1364 1.511 . S
C1367 H1381 0.961 . S
C1367 H1382 0.961 . S
C1367 H1383 0.961 . S
C1368 C1369 1.370 . S
C1368 C1370 1.363 . S
C1368 H1384 0.931 . S
C1369 C1368 1.370 . S
C1369 C1373 1.408 . S
C1370 C1368 1.363 . S
C1370 C1371 1.370 . S
C1370 C1374 1.524 . S
C1371 C1363 1.503 . S
C1371 C1370 1.370 . S
C1371 C1372 1.403 . S
C1372 C1371 1.403 . S
C1372 C1373 1.404 . S
C1372 C1375 1.539 . S
C1373 C1369 1.408 . S
C1373 C1372 1.404 . S
C1373 H1385 0.930 . S
C1374 C1370 1.524 . S
C1374 H1386 0.956 . S
C1374 H1387 0.961 . S
C1374 H1388 0.961 . S
C1375 C1372 1.539 . S
C1375 H1389 0.958 . S
C1375 H1390 0.961 . S
C1375 H1391 0.960 . S
H1376 C1360 0.931 . S
H1377 C1365 0.929 . S
H1378 C1366 0.960 . S
H1379 C1366 0.962 . S
H1380 C1366 0.960 . S
H1381 C1367 0.961 . S
H1382 C1367 0.961 . S
H1383 C1367 0.961 . S
H1384 C1368 0.931 . S
H1385 C1373 0.930 . S
H1386 C1374 0.956 . S
H1387 C1374 0.961 . S
H1388 C1374 0.961 . S
H1389 C1375 0.958 . S
H1390 C1375 0.961 . S
H1391 C1375 0.960 . S
C1392 C1393 1.391 . S
C1392 C1394 1.394 . S
C1392 H1408 0.931 . S
C1393 C1392 1.391 . S
C1393 C1397 1.376 . S
C1394 C1392 1.394 . S
C1394 C1395 1.369 . S
C1394 C1398 1.531 . S
C1395 C1394 1.369 . S
C1395 C1396 1.410 . S
C1395 C1403 1.503 . S
C1396 C1395 1.410 . S
C1396 C1397 1.392 . S
C1396 C1399 1.511 . S
C1397 C1393 1.376 . S
C1397 C1396 1.392 . S
C1397 H1409 0.929 . S
C1398 C1394 1.531 . S
C1398 H1410 0.960 . S
C1398 H1411 0.962 . S
C1398 H1412 0.960 . S
C1399 C1396 1.511 . S
C1399 H1413 0.961 . S
C1399 H1414 0.961 . S
C1399 H1415 0.961 . S
C1400 C1401 1.370 . S
C1400 C1402 1.363 . S
C1400 H1416 0.931 . S
C1401 C1400 1.370 . S
C1401 C1405 1.408 . S
C1402 C1400 1.363 . S
C1402 C1403 1.370 . S
C1402 C1406 1.524 . S
C1403 C1395 1.503 . S
C1403 C1402 1.370 . S
C1403 C1404 1.403 . S
C1404 C1403 1.403 . S
C1404 C1405 1.404 . S
C1404 C1407 1.539 . S
C1405 C1401 1.408 . S
C1405 C1404 1.404 . S
C1405 H1417 0.930 . S
C1406 C1402 1.524 . S
C1406 H1418 0.956 . S
C1406 H1419 0.961 . S
C1406 H1420 0.961 . S
C1407 C1404 1.539 . S
C1407 H1421 0.958 . S
C1407 H1422 0.961 . S
C1407 H1423 0.960 . S
H1408 C1392 0.931 . S
H1409 C1397 0.929 . S
H1410 C1398 0.960 . S
H1411 C1398 0.962 . S
H1412 C1398 0.960 . S
H1413 C1399 0.961 . S
H1414 C1399 0.961 . S
H1415 C1399 0.961 . S
H1416 C1400 0.931 . S
H1417 C1405 0.930 . S
H1418 C1406 0.956 . S
H1419 C1406 0.961 . S
H1420 C1406 0.961 . S
H1421 C1407 0.958 . S
H1422 C1407 0.961 . S
H1423 C1407 0.960 . S
C1424 C1425 1.391 . S
C1424 C1426 1.394 . S
C1424 H1440 0.931 . S
C1425 C1424 1.391 . S
C1425 C1429 1.376 . S
C1426 C1424 1.394 . S
C1426 C1427 1.369 . S
C1426 C1430 1.531 . S
C1427 C1426 1.369 . S
C1427 C1428 1.410 . S
C1427 C1435 1.503 . S
C1428 C1427 1.410 . S
C1428 C1429 1.392 . S
C1428 C1431 1.511 . S
C1429 C1425 1.376 . S
C1429 C1428 1.392 . S
C1429 H1441 0.929 . S
C1430 C1426 1.531 . S
C1430 H1442 0.960 . S
C1430 H1443 0.962 . S
C1430 H1444 0.960 . S
C1431 C1428 1.511 . S
C1431 H1445 0.961 . S
C1431 H1446 0.961 . S
C1431 H1447 0.961 . S
C1432 C1433 1.370 . S
C1432 C1434 1.363 . S
C1432 H1448 0.931 . S
C1433 C1432 1.370 . S
C1433 C1437 1.408 . S
C1434 C1432 1.363 . S
C1434 C1435 1.370 . S
C1434 C1438 1.524 . S
C1435 C1427 1.503 . S
C1435 C1434 1.370 . S
C1435 C1436 1.403 . S
C1436 C1435 1.403 . S
C1436 C1437 1.404 . S
C1436 C1439 1.539 . S
C1437 C1433 1.408 . S
C1437 C1436 1.404 . S
C1437 H1449 0.930 . S
C1438 C1434 1.524 . S
C1438 H1450 0.956 . S
C1438 H1451 0.961 . S
C1438 H1452 0.961 . S
C1439 C1436 1.539 . S
C1439 H1453 0.958 . S
C1439 H1454 0.961 . S
C1439 H1455 0.960 . S
H1440 C1424 0.931 . S
H1441 C1429 0.929 . S
H1442 C1430 0.960 . S
H1443 C1430 0.962 . S
H1444 C1430 0.960 . S
H1445 C1431 0.961 . S
H1446 C1431 0.961 . S
H1447 C1431 0.961 . S
H1448 C1432 0.931 . S
H1449 C1437 0.930 . S
H1450 C1438 0.956 . S
H1451 C1438 0.961 . S
H1452 C1438 0.961 . S
H1453 C1439 0.958 . S
H1454 C1439 0.961 . S
H1455 C1439 0.960 . S
C1456 C1457 1.391 . S
C1456 C1458 1.394 . S
C1456 H1472 0.931 . S
C1457 C1456 1.391 . S
C1457 C1461 1.376 . S
C1458 C1456 1.394 . S
C1458 C1459 1.369 . S
C1458 C1462 1.531 . S
C1459 C1458 1.369 . S
C1459 C1460 1.410 . S
C1459 C1467 1.503 . S
C1460 C1459 1.410 . S
C1460 C1461 1.392 . S
C1460 C1463 1.511 . S
C1461 C1457 1.376 . S
C1461 C1460 1.392 . S
C1461 H1473 0.929 . S
C1462 C1458 1.531 . S
C1462 H1474 0.960 . S
C1462 H1475 0.962 . S
C1462 H1476 0.960 . S
C1463 C1460 1.511 . S
C1463 H1477 0.961 . S
C1463 H1478 0.961 . S
C1463 H1479 0.961 . S
C1464 C1465 1.370 . S
C1464 C1466 1.363 . S
C1464 H1480 0.931 . S
C1465 C1464 1.370 . S
C1465 C1469 1.408 . S
C1466 C1464 1.363 . S
C1466 C1467 1.370 . S
C1466 C1470 1.524 . S
C1467 C1459 1.503 . S
C1467 C1466 1.370 . S
C1467 C1468 1.403 . S
C1468 C1467 1.403 . S
C1468 C1469 1.404 . S
C1468 C1471 1.539 . S
C1469 C1465 1.408 . S
C1469 C1468 1.404 . S
C1469 H1481 0.930 . S
C1470 C1466 1.524 . S
C1470 H1482 0.956 . S
C1470 H1483 0.961 . S
C1470 H1484 0.961 . S
C1471 C1468 1.539 . S
C1471 H1485 0.958 . S
C1471 H1486 0.961 . S
C1471 H1487 0.960 . S
H1472 C1456 0.931 . S
H1473 C1461 0.929 . S
H1474 C1462 0.960 . S
H1475 C1462 0.962 . S
H1476 C1462 0.960 . S
H1477 C1463 0.961 . S
H1478 C1463 0.961 . S
H1479 C1463 0.961 . S
H1480 C1464 0.931 . S
H1481 C1469 0.930 . S
H1482 C1470 0.956 . S
H1483 C1470 0.961 . S
H1484 C1470 0.961 . S
H1485 C1471 0.958 . S
H1486 C1471 0.961 . S
H1487 C1471 0.960 . S
C1488 C1489 1.391 . S
C1488 C1490 1.394 . S
C1488 H1504 0.931 . S
C1489 C1488 1.391 . S
C1489 C1493 1.376 . S
C1490 C1488 1.394 . S
C1490 C1491 1.369 . S
C1490 C1494 1.531 . S
C1491 C1490 1.369 . S
C1491 C1492 1.410 . S
C1491 C1499 1.503 . S
C1492 C1491 1.410 . S
C1492 C1493 1.392 . S
C1492 C1495 1.511 . S
C1493 C1489 1.376 . S
C1493 C1492 1.392 . S
C1493 H1505 0.929 . S
C1494 C1490 1.531 . S
C1494 H1506 0.960 . S
C1494 H1507 0.962 . S
C1494 H1508 0.960 . S
C1495 C1492 1.511 . S
C1495 H1509 0.961 . S
C1495 H1510 0.961 . S
C1495 H1511 0.961 . S
C1496 C1497 1.370 . S
C1496 C1498 1.363 . S
C1496 H1512 0.931 . S
C1497 C1496 1.370 . S
C1497 C1501 1.408 . S
C1498 C1496 1.363 . S
C1498 C1499 1.370 . S
C1498 C1502 1.524 . S
C1499 C1491 1.503 . S
C1499 C1498 1.370 . S
C1499 C1500 1.403 . S
C1500 C1499 1.403 . S
C1500 C1501 1.404 . S
C1500 C1503 1.539 . S
C1501 C1497 1.408 . S
C1501 C1500 1.404 . S
C1501 H1513 0.930 . S
C1502 C1498 1.524 . S
C1502 H1514 0.956 . S
C1502 H1515 0.961 . S
C1502 H1516 0.961 . S
C1503 C1500 1.539 . S
C1503 H1517 0.958 . S
C1503 H1518 0.961 . S
C1503 H1519 0.960 . S
H1504 C1488 0.931 . S
H1505 C1493 0.929 . S
H1506 C1494 0.960 . S
H1507 C1494 0.962 . S
H1508 C1494 0.960 . S
H1509 C1495 0.961 . S
H1510 C1495 0.961 . S
H1511 C1495 0.961 . S
H1512 C1496 0.931 . S
H1513 C1501 0.930 . S
H1514 C1502 0.956 . S
H1515 C1502 0.961 . S
H1516 C1502 0.961 . S
H1517 C1503 0.958 . S
H1518 C1503 0.961 . S
H1519 C1503 0.960 . S
C1520 C1521 1.391 . S
C1520 C1522 1.394 . S
C1520 H1536 0.931 . S
C1521 C1520 1.391 . S
C1521 C1525 1.376 . S
C1522 C1520 1.394 . S
C1522 C1523 1.369 . S
C1522 C1526 1.531 . S
C1523 C1522 1.369 . S
C1523 C1524 1.410 . S
C1523 C1531 1.503 . S
C1524 C1523 1.410 . S
C1524 C1525 1.392 . S
C1524 C1527 1.511 . S
C1525 C1521 1.376 . S
C1525 C1524 1.392 . S
C1525 H1537 0.929 . S
C1526 C1522 1.531 . S
C1526 H1538 0.960 . S
C1526 H1539 0.962 . S
C1526 H1540 0.960 . S
C1527 C1524 1.511 . S
C1527 H1541 0.961 . S
C1527 H1542 0.961 . S
C1527 H1543 0.961 . S
C1528 C1529 1.370 . S
C1528 C1530 1.363 . S
C1528 H1544 0.931 . S
C1529 C1528 1.370 . S
C1529 C1533 1.408 . S
C1530 C1528 1.363 . S
C1530 C1531 1.370 . S
C1530 C1534 1.524 . S
C1531 C1523 1.503 . S
C1531 C1530 1.370 . S
C1531 C1532 1.403 . S
C1532 C1531 1.403 . S
C1532 C1533 1.404 . S
C1532 C1535 1.539 . S
C1533 C1529 1.408 . S
C1533 C1532 1.404 . S
C1533 H1545 0.930 . S
C1534 C1530 1.524 . S
C1534 H1546 0.956 . S
C1534 H1547 0.961 . S
C1534 H1548 0.961 . S
C1535 C1532 1.539 . S
C1535 H1549 0.958 . S
C1535 H1550 0.961 . S
C1535 H1551 0.960 . S
H1536 C1520 0.931 . S
H1537 C1525 0.929 . S
H1538 C1526 0.960 . S
H1539 C1526 0.962 . S
H1540 C1526 0.960 . S
H1541 C1527 0.961 . S
H1542 C1527 0.961 . S
H1543 C1527 0.961 . S
H1544 C1528 0.931 . S
H1545 C1533 0.930 . S
H1546 C1534 0.956 . S
H1547 C1534 0.961 . S
H1548 C1534 0.961 . S
H1549 C1535 0.958 . S
H1550 C1535 0.961 . S
H1551 C1535 0.960 . S
C1552 C1553 1.391 . S
C1552 C1554 1.394 . S
C1552 H1568 0.931 . S
C1553 C1552 1.391 . S
C1553 C1557 1.376 . S
C1554 C1552 1.394 . S
C1554 C1555 1.369 . S
C1554 C1558 1.531 . S
C1555 C1554 1.369 . S
C1555 C1556 1.410 . S
C1555 C1563 1.503 . S
C1556 C1555 1.410 . S
C1556 C1557 1.392 . S
C1556 C1559 1.511 . S
C1557 C1553 1.376 . S
C1557 C1556 1.392 . S
C1557 H1569 0.929 . S
C1558 C1554 1.531 . S
C1558 H1570 0.960 . S
C1558 H1571 0.962 . S
C1558 H1572 0.960 . S
C1559 C1556 1.511 . S
C1559 H1573 0.961 . S
C1559 H1574 0.961 . S
C1559 H1575 0.961 . S
C1560 C1561 1.370 . S
C1560 C1562 1.363 . S
C1560 H1576 0.931 . S
C1561 C1560 1.370 . S
C1561 C1565 1.408 . S
C1562 C1560 1.363 . S
C1562 C1563 1.370 . S
C1562 C1566 1.524 . S
C1563 C1555 1.503 . S
C1563 C1562 1.370 . S
C1563 C1564 1.403 . S
C1564 C1563 1.403 . S
C1564 C1565 1.404 . S
C1564 C1567 1.539 . S
C1565 C1561 1.408 . S
C1565 C1564 1.404 . S
C1565 H1577 0.930 . S
C1566 C1562 1.524 . S
C1566 H1578 0.956 . S
C1566 H1579 0.961 . S
C1566 H1580 0.961 . S
C1567 C1564 1.539 . S
C1567 H1581 0.958 . S
C1567 H1582 0.961 . S
C1567 H1583 0.960 . S
H1568 C1552 0.931 . S
H1569 C1557 0.929 . S
H1570 C1558 0.960 . S
H1571 C1558 0.962 . S
H1572 C1558 0.960 . S
H1573 C1559 0.961 . S
H1574 C1559 0.961 . S
H1575 C1559 0.961 . S
H1576 C1560 0.931 . S
H1577 C1565 0.930 . S
H1578 C1566 0.956 . S
H1579 C1566 0.961 . S
H1580 C1566 0.961 . S
H1581 C1567 0.958 . S
H1582 C1567 0.961 . S
H1583 C1567 0.960 . S
C1584 C1585 1.391 . S
C1584 C1586 1.394 . S
C1584 H1600 0.931 . S
C1585 C1584 1.391 . S
C1585 C1589 1.376 . S
C1586 C1584 1.394 . S
C1586 C1587 1.369 . S
C1586 C1590 1.531 . S
C1587 C1586 1.369 . S
C1587 C1588 1.410 . S
C1587 C1595 1.503 . S
C1588 C1587 1.410 . S
C1588 C1589 1.392 . S
C1588 C1591 1.511 . S
C1589 C1585 1.376 . S
C1589 C1588 1.392 . S
C1589 H1601 0.929 . S
C1590 C1586 1.531 . S
C1590 H1602 0.960 . S
C1590 H1603 0.962 . S
C1590 H1604 0.960 . S
C1591 C1588 1.511 . S
C1591 H1605 0.961 . S
C1591 H1606 0.961 . S
C1591 H1607 0.961 . S
C1592 C1593 1.370 . S
C1592 C1594 1.363 . S
C1592 H1608 0.931 . S
C1593 C1592 1.370 . S
C1593 C1597 1.408 . S
C1594 C1592 1.363 . S
C1594 C1595 1.370 . S
C1594 C1598 1.524 . S
C1595 C1587 1.503 . S
C1595 C1594 1.370 . S
C1595 C1596 1.403 . S
C1596 C1595 1.403 . S
C1596 C1597 1.404 . S
C1596 C1599 1.539 . S
C1597 C1593 1.408 . S
C1597 C1596 1.404 . S
C1597 H1609 0.930 . S
C1598 C1594 1.524 . S
C1598 H1610 0.956 . S
C1598 H1611 0.961 . S
C1598 H1612 0.961 . S
C1599 C1596 1.539 . S
C1599 H1613 0.958 . S
C1599 H1614 0.961 . S
C1599 H1615 0.960 . S
H1600 C1584 0.931 . S
H1601 C1589 0.929 . S
H1602 C1590 0.960 . S
H1603 C1590 0.962 . S
H1604 C1590 0.960 . S
H1605 C1591 0.961 . S
H1606 C1591 0.961 . S
H1607 C1591 0.961 . S
H1608 C1592 0.931 . S
H1609 C1597 0.930 . S
H1610 C1598 0.956 . S
H1611 C1598 0.961 . S
H1612 C1598 0.961 . S
H1613 C1599 0.958 . S
H1614 C1599 0.961 . S
H1615 C1599 0.960 . S
C1616 C1617 1.391 . S
C1616 C1618 1.394 . S
C1616 H1632 0.931 . S
C1617 C1616 1.391 . S
C1617 C1621 1.376 . S
C1618 C1616 1.394 . S
C1618 C1619 1.369 . S
C1618 C1622 1.531 . S
C1619 C1618 1.369 . S
C1619 C1620 1.410 . S
C1619 C1627 1.503 . S
C1620 C1619 1.410 . S
C1620 C1621 1.392 . S
C1620 C1623 1.511 . S
C1621 C1617 1.376 . S
C1621 C1620 1.392 . S
C1621 H1633 0.929 . S
C1622 C1618 1.531 . S
C1622 H1634 0.960 . S
C1622 H1635 0.962 . S
C1622 H1636 0.960 . S
C1623 C1620 1.511 . S
C1623 H1637 0.961 . S
C1623 H1638 0.961 . S
C1623 H1639 0.961 . S
C1624 C1625 1.370 . S
C1624 C1626 1.363 . S
C1624 H1640 0.931 . S
C1625 C1624 1.370 . S
C1625 C1629 1.408 . S
C1626 C1624 1.363 . S
C1626 C1627 1.370 . S
C1626 C1630 1.524 . S
C1627 C1619 1.503 . S
C1627 C1626 1.370 . S
C1627 C1628 1.403 . S
C1628 C1627 1.403 . S
C1628 C1629 1.404 . S
C1628 C1631 1.539 . S
C1629 C1625 1.408 . S
C1629 C1628 1.404 . S
C1629 H1641 0.930 . S
C1630 C1626 1.524 . S
C1630 H1642 0.956 . S
C1630 H1643 0.961 . S
C1630 H1644 0.961 . S
C1631 C1628 1.539 . S
C1631 H1645 0.958 . S
C1631 H1646 0.961 . S
C1631 H1647 0.960 . S
H1632 C1616 0.931 . S
H1633 C1621 0.929 . S
H1634 C1622 0.960 . S
H1635 C1622 0.962 . S
H1636 C1622 0.960 . S
H1637 C1623 0.961 . S
H1638 C1623 0.961 . S
H1639 C1623 0.961 . S
H1640 C1624 0.931 . S
H1641 C1629 0.930 . S
H1642 C1630 0.956 . S
H1643 C1630 0.961 . S
H1644 C1630 0.961 . S
H1645 C1631 0.958 . S
H1646 C1631 0.961 . S
H1647 C1631 0.960 . S
C1648 C1649 1.391 . S
C1648 C1650 1.394 . S
C1648 H1664 0.931 . S
C1649 C1648 1.391 . S
C1649 C1653 1.376 . S
C1650 C1648 1.394 . S
C1650 C1651 1.369 . S
C1650 C1654 1.531 . S
C1651 C1650 1.369 . S
C1651 C1652 1.410 . S
C1651 C1659 1.503 . S
C1652 C1651 1.410 . S
C1652 C1653 1.392 . S
C1652 C1655 1.511 . S
C1653 C1649 1.376 . S
C1653 C1652 1.392 . S
C1653 H1665 0.929 . S
C1654 C1650 1.531 . S
C1654 H1666 0.960 . S
C1654 H1667 0.962 . S
C1654 H1668 0.960 . S
C1655 C1652 1.511 . S
C1655 H1669 0.961 . S
C1655 H1670 0.961 . S
C1655 H1671 0.961 . S
C1656 C1657 1.370 . S
C1656 C1658 1.363 . S
C1656 H1672 0.931 . S
C1657 C1656 1.370 . S
C1657 C1661 1.408 . S
C1658 C1656 1.363 . S
C1658 C1659 1.370 . S
C1658 C1662 1.524 . S
C1659 C1651 1.503 . S
C1659 C1658 1.370 . S
C1659 C1660 1.403 . S
C1660 C1659 1.403 . S
C1660 C1661 1.404 . S
C1660 C1663 1.539 . S
C1661 C1657 1.408 . S
C1661 C1660 1.404 . S
C1661 H1673 0.930 . S
C1662 C1658 1.524 . S
C1662 H1674 0.956 . S
C1662 H1675 0.961 . S
C1662 H1676 0.961 . S
C1663 C1660 1.539 . S
C1663 H1677 0.958 . S
C1663 H1678 0.961 . S
C1663 H1679 0.960 . S
H1664 C1648 0.931 . S
H1665 C1653 0.929 . S
H1666 C1654 0.960 . S
H1667 C1654 0.962 . S
H1668 C1654 0.960 . S
H1669 C1655 0.961 . S
H1670 C1655 0.961 . S
H1671 C1655 0.961 . S
H1672 C1656 0.931 . S
H1673 C1661 0.930 . S
H1674 C1662 0.956 . S
H1675 C1662 0.961 . S
H1676 C1662 0.961 . S
H1677 C1663 0.958 . S
H1678 C1663 0.961 . S
H1679 C1663 0.960 . S
C1680 C1681 1.391 . S
C1680 C1682 1.394 . S
C1680 H1696 0.931 . S
C1681 C1680 1.391 . S
C1681 C1685 1.376 . S
C1682 C1680 1.394 . S
C1682 C1683 1.369 . S
C1682 C1686 1.531 . S
C1683 C1682 1.369 . S
C1683 C1684 1.410 . S
C1683 C1691 1.503 . S
C1684 C1683 1.410 . S
C1684 C1685 1.392 . S
C1684 C1687 1.511 . S
C1685 C1681 1.376 . S
C1685 C1684 1.392 . S
C1685 H1697 0.929 . S
C1686 C1682 1.531 . S
C1686 H1698 0.960 . S
C1686 H1699 0.962 . S
C1686 H1700 0.960 . S
C1687 C1684 1.511 . S
C1687 H1701 0.961 . S
C1687 H1702 0.961 . S
C1687 H1703 0.961 . S
C1688 C1689 1.370 . S
C1688 C1690 1.363 . S
C1688 H1704 0.931 . S
C1689 C1688 1.370 . S
C1689 C1693 1.408 . S
C1690 C1688 1.363 . S
C1690 C1691 1.370 . S
C1690 C1694 1.524 . S
C1691 C1683 1.503 . S
C1691 C1690 1.370 . S
C1691 C1692 1.403 . S
C1692 C1691 1.403 . S
C1692 C1693 1.404 . S
C1692 C1695 1.539 . S
C1693 C1689 1.408 . S
C1693 C1692 1.404 . S
C1693 H1705 0.930 . S
C1694 C1690 1.524 . S
C1694 H1706 0.956 . S
C1694 H1707 0.961 . S
C1694 H1708 0.961 . S
C1695 C1692 1.539 . S
C1695 H1709 0.958 . S
C1695 H1710 0.961 . S
C1695 H1711 0.960 . S
H1696 C1680 0.931 . S
H1697 C1685 0.929 . S
H1698 C1686 0.960 . S
H1699 C1686 0.962 . S
H1700 C1686 0.960 . S
H1701 C1687 0.961 . S
H1702 C1687 0.961 . S
H1703 C1687 0.961 . S
H1704 C1688 0.931 . S
H1705 C1693 0.930 . S
H1706 C1694 0.956 . S
H1707 C1694 0.961 . S
H1708 C1694 0.961 . S
H1709 C1695 0.958 . S
H1710 C1695 0.961 . S
H1711 C1695 0.960 . S
C1712 C1713 1.391 . S
C1712 C1714 1.394 . S
C1712 H1728 0.931 . S
C1713 C1712 1.391 . S
C1713 C1717 1.376 . S
C1714 C1712 1.394 . S
C1714 C1715 1.369 . S
C1714 C1718 1.531 . S
C1715 C1714 1.369 . S
C1715 C1716 1.410 . S
C1715 C1723 1.503 . S
C1716 C1715 1.410 . S
C1716 C1717 1.392 . S
C1716 C1719 1.511 . S
C1717 C1713 1.376 . S
C1717 C1716 1.392 . S
C1717 H1729 0.929 . S
C1718 C1714 1.531 . S
C1718 H1730 0.960 . S
C1718 H1731 0.962 . S
C1718 H1732 0.960 . S
C1719 C1716 1.511 . S
C1719 H1733 0.961 . S
C1719 H1734 0.961 . S
C1719 H1735 0.961 . S
C1720 C1721 1.370 . S
C1720 C1722 1.363 . S
C1720 H1736 0.931 . S
C1721 C1720 1.370 . S
C1721 C1725 1.408 . S
C1722 C1720 1.363 . S
C1722 C1723 1.370 . S
C1722 C1726 1.524 . S
C1723 C1715 1.503 . S
C1723 C1722 1.370 . S
C1723 C1724 1.403 . S
C1724 C1723 1.403 . S
C1724 C1725 1.404 . S
C1724 C1727 1.539 . S
C1725 C1721 1.408 . S
C1725 C1724 1.404 . S
C1725 H1737 0.930 . S
C1726 C1722 1.524 . S
C1726 H1738 0.956 . S
C1726 H1739 0.961 . S
C1726 H1740 0.961 . S
C1727 C1724 1.539 . S
C1727 H1741 0.958 . S
C1727 H1742 0.961 . S
C1727 H1743 0.960 . S
H1728 C1712 0.931 . S
H1729 C1717 0.929 . S
H1730 C1718 0.960 . S
H1731 C1718 0.962 . S
H1732 C1718 0.960 . S
H1733 C1719 0.961 . S
H1734 C1719 0.961 . S
H1735 C1719 0.961 . S
H1736 C1720 0.931 . S
H1737 C1725 0.930 . S
H1738 C1726 0.956 . S
H1739 C1726 0.961 . S
H1740 C1726 0.961 . S
H1741 C1727 0.958 . S
H1742 C1727 0.961 . S
H1743 C1727 0.960 . S
C1744 C1745 1.391 . S
C1744 C1746 1.394 . S
C1744 H1760 0.931 . S
C1745 C1744 1.391 . S
C1745 C1749 1.376 . S
C1746 C1744 1.394 . S
C1746 C1747 1.369 . S
C1746 C1750 1.531 . S
C1747 C1746 1.369 . S
C1747 C1748 1.410 . S
C1747 C1755 1.503 . S
C1748 C1747 1.410 . S
C1748 C1749 1.392 . S
C1748 C1751 1.511 . S
C1749 C1745 1.376 . S
C1749 C1748 1.392 . S
C1749 H1761 0.929 . S
C1750 C1746 1.531 . S
C1750 H1762 0.960 . S
C1750 H1763 0.962 . S
C1750 H1764 0.960 . S
C1751 C1748 1.511 . S
C1751 H1765 0.961 . S
C1751 H1766 0.961 . S
C1751 H1767 0.961 . S
C1752 C1753 1.370 . S
C1752 C1754 1.363 . S
C1752 H1768 0.931 . S
C1753 C1752 1.370 . S
C1753 C1757 1.408 . S
C1754 C1752 1.363 . S
C1754 C1755 1.370 . S
C1754 C1758 1.524 . S
C1755 C1747 1.503 . S
C1755 C1754 1.370 . S
C1755 C1756 1.403 . S
C1756 C1755 1.403 . S
C1756 C1757 1.404 . S
C1756 C1759 1.539 . S
C1757 C1753 1.408 . S
C1757 C1756 1.404 . S
C1757 H1769 0.930 . S
C1758 C1754 1.524 . S
C1758 H1770 0.956 . S
C1758 H1771 0.961 . S
C1758 H1772 0.961 . S
C1759 C1756 1.539 . S
C1759 H1773 0.958 . S
C1759 H1774 0.961 . S
C1759 H1775 0.960 . S
H1760 C1744 0.931 . S
H1761 C1749 0.929 . S
H1762 C1750 0.960 . S
H1763 C1750 0.962 . S
H1764 C1750 0.960 . S
H1765 C1751 0.961 . S
H1766 C1751 0.961 . S
H1767 C1751 0.961 . S
H1768 C1752 0.931 . S
H1769 C1757 0.930 . S
H1770 C1758 0.956 . S
H1771 C1758 0.961 . S
H1772 C1758 0.961 . S
H1773 C1759 0.958 . S
H1774 C1759 0.961 . S
H1775 C1759 0.960 . S
C1776 C1777 1.391 . S
C1776 C1778 1.394 . S
C1776 H1792 0.931 . S
C1777 C1776 1.391 . S
C1777 C1781 1.376 . S
C1778 C1776 1.394 . S
C1778 C1779 1.369 . S
C1778 C1782 1.531 . S
C1779 C1778 1.369 . S
C1779 C1780 1.410 . S
C1779 C1787 1.503 . S
C1780 C1779 1.410 . S
C1780 C1781 1.392 . S
C1780 C1783 1.511 . S
C1781 C1777 1.376 . S
C1781 C1780 1.392 . S
C1781 H1793 0.929 . S
C1782 C1778 1.531 . S
C1782 H1794 0.960 . S
C1782 H1795 0.962 . S
C1782 H1796 0.960 . S
C1783 C1780 1.511 . S
C1783 H1797 0.961 . S
C1783 H1798 0.961 . S
C1783 H1799 0.961 . S
C1784 C1785 1.370 . S
C1784 C1786 1.363 . S
C1784 H1800 0.931 . S
C1785 C1784 1.370 . S
C1785 C1789 1.408 . S
C1786 C1784 1.363 . S
C1786 C1787 1.370 . S
C1786 C1790 1.524 . S
C1787 C1779 1.503 . S
C1787 C1786 1.370 . S
C1787 C1788 1.403 . S
C1788 C1787 1.403 . S
C1788 C1789 1.404 . S
C1788 C1791 1.539 . S
C1789 C1785 1.408 . S
C1789 C1788 1.404 . S
C1789 H1801 0.930 . S
C1790 C1786 1.524 . S
C1790 H1802 0.956 . S
C1790 H1803 0.961 . S
C1790 H1804 0.961 . S
C1791 C1788 1.539 . S
C1791 H1805 0.958 . S
C1791 H1806 0.961 . S
C1791 H1807 0.960 . S
H1792 C1776 0.931 . S
H1793 C1781 0.929 . S
H1794 C1782 0.960 . S
H1795 C1782 0.962 . S
H1796 C1782 0.960 . S
H1797 C1783 0.961 . S
H1798 C1783 0.961 . S
H1799 C1783 0.961 . S
H1800 C1784 0.931 . S
H1801 C1789 0.930 . S
H1802 C1790 0.956 . S
H1803 C1790 0.961 . S
H1804 C1790 0.961 . S
H1805 C1791 0.958 . S
H1806 C1791 0.961 . S
H1807 C1791 0.960 . S
C1808 C1809 1.391 . S
C1808 C1810 1.394 . S
C1808 H1824 0.931 . S
C1809 C1808 1.391 . S
C1809 C1813 1.376 . S
C1810 C1808 1.394 . S
C1810 C1811 1.369 . S
C1810 C1814 1.531 . S
C1811 C1810 1.369 . S
C1811 C1812 1.410 . S
C1811 C1819 1.503 . S
C1812 C1811 1.410 . S
C1812 C1813 1.392 . S
C1812 C1815 1.511 . S
C1813 C1809 1.376 . S
C1813 C1812 1.392 . S
C1813 H1825 0.929 . S
C1814 C1810 1.531 . S
C1814 H1826 0.960 . S
C1814 H1827 0.962 . S
C1814 H1828 0.960 . S
C1815 C1812 1.511 . S
C1815 H1829 0.961 . S
C1815 H1830 0.961 . S
C1815 H1831 0.961 . S
C1816 C1817 1.370 . S
C1816 C1818 1.363 . S
C1816 H1832 0.931 . S
C1817 C1816 1.370 . S
C1817 C1821 1.408 . S
C1818 C1816 1.363 . S
C1818 C1819 1.370 . S
C1818 C1822 1.524 . S
C1819 C1811 1.503 . S
C1819 C1818 1.370 . S
C1819 C1820 1.403 . S
C1820 C1819 1.403 . S
C1820 C1821 1.404 . S
C1820 C1823 1.539 . S
C1821 C1817 1.408 . S
C1821 C1820 1.404 . S
C1821 H1833 0.930 . S
C1822 C1818 1.524 . S
C1822 H1834 0.956 . S
C1822 H1835 0.961 . S
C1822 H1836 0.961 . S
C1823 C1820 1.539 . S
C1823 H1837 0.958 . S
C1823 H1838 0.961 . S
C1823 H1839 0.960 . S
H1824 C1808 0.931 . S
H1825 C1813 0.929 . S
H1826 C1814 0.960 . S
H1827 C1814 0.962 . S
H1828 C1814 0.960 . S
H1829 C1815 0.961 . S
H1830 C1815 0.961 . S
H1831 C1815 0.961 . S
H1832 C1816 0.931 . S
H1833 C1821 0.930 . S
H1834 C1822 0.956 . S
H1835 C1822 0.961 . S
H1836 C1822 0.961 . S
H1837 C1823 0.958 . S
H1838 C1823 0.961 . S
H1839 C1823 0.960 . S
C1840 C1841 1.391 . S
C1840 C1842 1.394 . S
C1840 H1856 0.931 . S
C1841 C1840 1.391 . S
C1841 C1845 1.376 . S
C1842 C1840 1.394 . S
C1842 C1843 1.369 . S
C1842 C1846 1.531 . S
C1843 C1842 1.369 . S
C1843 C1844 1.410 . S
C1843 C1851 1.503 . S
C1844 C1843 1.410 . S
C1844 C1845 1.392 . S
C1844 C1847 1.511 . S
C1845 C1841 1.376 . S
C1845 C1844 1.392 . S
C1845 H1857 0.929 . S
C1846 C1842 1.531 . S
C1846 H1858 0.960 . S
C1846 H1859 0.962 . S
C1846 H1860 0.960 . S
C1847 C1844 1.511 . S
C1847 H1861 0.961 . S
C1847 H1862 0.961 . S
C1847 H1863 0.961 . S
C1848 C1849 1.370 . S
C1848 C1850 1.363 . S
C1848 H1864 0.931 . S
C1849 C1848 1.370 . S
C1849 C1853 1.408 . S
C1850 C1848 1.363 . S
C1850 C1851 1.370 . S
C1850 C1854 1.524 . S
C1851 C1843 1.503 . S
C1851 C1850 1.370 . S
C1851 C1852 1.403 . S
C1852 C1851 1.403 . S
C1852 C1853 1.404 . S
C1852 C1855 1.539 . S
C1853 C1849 1.408 . S
C1853 C1852 1.404 . S
C1853 H1865 0.930 . S
C1854 C1850 1.524 . S
C1854 H1866 0.956 . S
C1854 H1867 0.961 . S
C1854 H1868 0.961 . S
C1855 C1852 1.539 . S
C1855 H1869 0.958 . S
C1855 H1870 0.961 . S
C1855 H1871 0.960 . S
H1856 C1840 0.931 . S
H1857 C1845 0.929 . S
H1858 C1846 0.960 . S
H1859 C1846 0.962 . S
H1860 C1846 0.960 . S
H1861 C1847 0.961 . S
H1862 C1847 0.961 . S
H1863 C1847 0.961 . S
H1864 C1848 0.931 . S
H1865 C1853 0.930 . S
H1866 C1854 0.956 . S
H1867 C1854 0.961 . S
H1868 C1854 0.961 . S
H1869 C1855 0.958 . S
H1870 C1855 0.961 . S
H1871 C1855 0.960 . S
C1872 C1873 1.391 . S
C1872 C1874 1.394 . S
C1872 H1888 0.931 . S
C1873 C1872 1.391 . S
C1873 C1877 1.376 . S
C1874 C1872 1.394 . S
C1874 C1875 1.369 . S
C1874 C1878 1.531 . S
C1875 C1874 1.369 . S
C1875 C1876 1.410 . S
C1875 C1883 1.503 . S
C1876 C1875 1.410 . S
C1876 C1877 1.392 . S
C1876 C1879 1.511 . S
C1877 C1873 1.376 . S
C1877 C1876 1.392 . S
C1877 H1889 0.929 . S
C1878 C1874 1.531 . S
C1878 H1890 0.960 . S
C1878 H1891 0.962 . S
C1878 H1892 0.960 . S
C1879 C1876 1.511 . S
C1879 H1893 0.961 . S
C1879 H1894 0.961 . S
C1879 H1895 0.961 . S
C1880 C1881 1.370 . S
C1880 C1882 1.363 . S
C1880 H1896 0.931 . S
C1881 C1880 1.370 . S
C1881 C1885 1.408 . S
C1882 C1880 1.363 . S
C1882 C1883 1.370 . S
C1882 C1886 1.524 . S
C1883 C1875 1.503 . S
C1883 C1882 1.370 . S
C1883 C1884 1.403 . S
C1884 C1883 1.403 . S
C1884 C1885 1.404 . S
C1884 C1887 1.539 . S
C1885 C1881 1.408 . S
C1885 C1884 1.404 . S
C1885 H1897 0.930 . S
C1886 C1882 1.524 . S
C1886 H1898 0.956 . S
C1886 H1899 0.961 . S
C1886 H1900 0.961 . S
C1887 C1884 1.539 . S
C1887 H1901 0.958 . S
C1887 H1902 0.961 . S
C1887 H1903 0.960 . S
H1888 C1872 0.931 . S
H1889 C1877 0.929 . S
H1890 C1878 0.960 . S
H1891 C1878 0.962 . S
H1892 C1878 0.960 . S
H1893 C1879 0.961 . S
H1894 C1879 0.961 . S
H1895 C1879 0.961 . S
H1896 C1880 0.931 . S
H1897 C1885 0.930 . S
H1898 C1886 0.956 . S
H1899 C1886 0.961 . S
H1900 C1886 0.961 . S
H1901 C1887 0.958 . S
H1902 C1887 0.961 . S
H1903 C1887 0.960 . S
C1904 C1905 1.391 . S
C1904 C1906 1.394 . S
C1904 H1920 0.931 . S
C1905 C1904 1.391 . S
C1905 C1909 1.376 . S
C1906 C1904 1.394 . S
C1906 C1907 1.369 . S
C1906 C1910 1.531 . S
C1907 C1906 1.369 . S
C1907 C1908 1.410 . S
C1907 C1915 1.503 . S
C1908 C1907 1.410 . S
C1908 C1909 1.392 . S
C1908 C1911 1.511 . S
C1909 C1905 1.376 . S
C1909 C1908 1.392 . S
C1909 H1921 0.929 . S
C1910 C1906 1.531 . S
C1910 H1922 0.960 . S
C1910 H1923 0.962 . S
C1910 H1924 0.960 . S
C1911 C1908 1.511 . S
C1911 H1925 0.961 . S
C1911 H1926 0.961 . S
C1911 H1927 0.961 . S
C1912 C1913 1.370 . S
C1912 C1914 1.363 . S
C1912 H1928 0.931 . S
C1913 C1912 1.370 . S
C1913 C1917 1.408 . S
C1914 C1912 1.363 . S
C1914 C1915 1.370 . S
C1914 C1918 1.524 . S
C1915 C1907 1.503 . S
C1915 C1914 1.370 . S
C1915 C1916 1.403 . S
C1916 C1915 1.403 . S
C1916 C1917 1.404 . S
C1916 C1919 1.539 . S
C1917 C1913 1.408 . S
C1917 C1916 1.404 . S
C1917 H1929 0.930 . S
C1918 C1914 1.524 . S
C1918 H1930 0.956 . S
C1918 H1931 0.961 . S
C1918 H1932 0.961 . S
C1919 C1916 1.539 . S
C1919 H1933 0.958 . S
C1919 H1934 0.961 . S
C1919 H1935 0.960 . S
H1920 C1904 0.931 . S
H1921 C1909 0.929 . S
H1922 C1910 0.960 . S
H1923 C1910 0.962 . S
H1924 C1910 0.960 . S
H1925 C1911 0.961 . S
H1926 C1911 0.961 . S
H1927 C1911 0.961 . S
H1928 C1912 0.931 . S
H1929 C1917 0.930 . S
H1930 C1918 0.956 . S
H1931 C1918 0.961 . S
H1932 C1918 0.961 . S
H1933 C1919 0.958 . S
H1934 C1919 0.961 . S
H1935 C1919 0.960 . S
C1936 C1937 1.391 . S
C1936 C1938 1.394 . S
C1936 H1952 0.931 . S
C1937 C1936 1.391 . S
C1937 C1941 1.376 . S
C1938 C1936 1.394 . S
C1938 C1939 1.369 . S
C1938 C1942 1.531 . S
C1939 C1938 1.369 . S
C1939 C1940 1.410 . S
C1939 C1947 1.503 . S
C1940 C1939 1.410 . S
C1940 C1941 1.392 . S
C1940 C1943 1.511 . S
C1941 C1937 1.376 . S
C1941 C1940 1.392 . S
C1941 H1953 0.929 . S
C1942 C1938 1.531 . S
C1942 H1954 0.960 . S
C1942 H1955 0.962 . S
C1942 H1956 0.960 . S
C1943 C1940 1.511 . S
C1943 H1957 0.961 . S
C1943 H1958 0.961 . S
C1943 H1959 0.961 . S
C1944 C1945 1.370 . S
C1944 C1946 1.363 . S
C1944 H1960 0.931 . S
C1945 C1944 1.370 . S
C1945 C1949 1.408 . S
C1946 C1944 1.363 . S
C1946 C1947 1.370 . S
C1946 C1950 1.524 . S
C1947 C1939 1.503 . S
C1947 C1946 1.370 . S
C1947 C1948 1.403 . S
C1948 C1947 1.403 . S
C1948 C1949 1.404 . S
C1948 C1951 1.539 . S
C1949 C1945 1.408 . S
C1949 C1948 1.404 . S
C1949 H1961 0.930 . S
C1950 C1946 1.524 . S
C1950 H1962 0.956 . S
C1950 H1963 0.961 . S
C1950 H1964 0.961 . S
C1951 C1948 1.539 . S
C1951 H1965 0.958 . S
C1951 H1966 0.961 . S
C1951 H1967 0.960 . S
H1952 C1936 0.931 . S
H1953 C1941 0.929 . S
H1954 C1942 0.960 . S
H1955 C1942 0.962 . S
H1956 C1942 0.960 . S
H1957 C1943 0.961 . S
H1958 C1943 0.961 . S
H1959 C1943 0.961 . S
H1960 C1944 0.931 . S
H1961 C1949 0.930 . S
H1962 C1950 0.956 . S
H1963 C1950 0.961 . S
H1964 C1950 0.961 . S
H1965 C1951 0.958 . S
H1966 C1951 0.961 . S
H1967 C1951 0.960 . S
C945 C859 1.508 . S
C953 C33 1.511 . S
C977 C123 1.504 . S
C985 C5 1.508 . S
C1009 C654 1.510 . S
C1017 C64 1.506 . S
C1041 C92 1.506 . S
C1049 C446 1.512 . S
C1073 C151 1.507 . S
C1081 C741 1.512 . S
C1105 C536 1.510 . S
C1113 C182 1.506 . S
C1137 C210 1.508 . S
C1145 C328 1.511 . S
C1169 C623 1.509 . S
C1177 C269 1.511 . S
C1201 C241 1.499 . S
C1209 C359 1.511 . S
C1233 C890 1.507 . S
C1241 C300 1.507 . S
C1265 C505 1.506 . S
C1273 C387 1.512 . S
C1297 C772 1.503 . S
C1305 C418 1.509 . S
C1329 C477 1.509 . S
C1337 C595 1.507 . S
C1361 C918 1.508 . S
C1369 C564 1.511 . S
C1393 C682 1.508 . S
C1401 C800 1.511 . S
C1425 C831 1.511 . S
C1433 C713 1.506 . S
C1457 C347 1.595 . S
C1465 C3 1.604 . S
C1489 C52 1.594 . S
C1497 C298 1.592 . S
C1521 C111 1.592 . S
C1529 C239 1.592 . S
C1553 C288 1.595 . S
C1561 C62 1.607 . S
C1585 C465 1.593 . S
C1593 C121 1.611 . S
C1617 C416 1.595 . S
C1625 C170 1.596 . S
C1649 C357 1.590 . S
C1657 C229 1.596 . S
C1681 C180 1.605 . S
C1689 C406 1.598 . S
C1713 C819 1.594 . S
C1721 C475 1.603 . S
C1745 C524 1.592 . S
C1753 C770 1.582 . S
C1777 C583 1.590 . S
C1785 C711 1.589 . S
C1809 C760 1.593 . S
C1817 C534 1.611 . S
C1841 C937 1.593 . S
C1849 C593 1.600 . S
C1873 C888 1.594 . S
C1881 C642 1.596 . S
C1905 C701 1.593 . S
C1913 C829 1.592 . S
C1937 C878 1.595 . S
C1945 C652 1.604 . S
