# Generated by pormake.
# Topology umw, (4)-cn, num edge types: 1
# Building blocks:
#     Node 0, Type 0, BuildingBlock: QUQFOY_clean_sbu_1, # of connection points: 4
#     Node 1, Type 0, BuildingBlock: QUQFOY_clean_sbu_1, # of connection points: 4
#     Node 2, Type 0, BuildingBlock: QUQFOY_clean_sbu_1, # of connection points: 4
#     Node 3, Type 0, BuildingBlock: QUQFOY_clean_sbu_1, # of connection points: 4
#     Node 4, Type 0, BuildingBlock: QUQFOY_clean_sbu_1, # of connection points: 4
#     Node 5, Type 0, BuildingBlock: QUQFOY_clean_sbu_1, # of connection points: 4
#     Node 6, Type 0, BuildingBlock: QUQFOY_clean_sbu_1, # of connection points: 4
#     Node 7, Type 0, BuildingBlock: QUQFOY_clean_sbu_1, # of connection points: 4
#     Edge 8, Type (0, 0), BuildingBlock: UVAHIK_clean_linker_0, # of connection points: 2
#     Edge 9, Type (0, 0), BuildingBlock: UVAHIK_clean_linker_0, # of connection points: 2
#     Edge 10, Type (0, 0), BuildingBlock: UVAHIK_clean_linker_0, # of connection points: 2
#     Edge 11, Type (0, 0), BuildingBlock: UVAHIK_clean_linker_0, # of connection points: 2
#     Edge 12, Type (0, 0), BuildingBlock: UVAHIK_clean_linker_0, # of connection points: 2
#     Edge 13, Type (0, 0), BuildingBlock: UVAHIK_clean_linker_0, # of connection points: 2
#     Edge 14, Type (0, 0), BuildingBlock: UVAHIK_clean_linker_0, # of connection points: 2
#     Edge 15, Type (0, 0), BuildingBlock: UVAHIK_clean_linker_0, # of connection points: 2
#     Edge 16, Type (0, 0), BuildingBlock: UVAHIK_clean_linker_0, # of connection points: 2
#     Edge 17, Type (0, 0), BuildingBlock: UVAHIK_clean_linker_0, # of connection points: 2
#     Edge 18, Type (0, 0), BuildingBlock: UVAHIK_clean_linker_0, # of connection points: 2
#     Edge 19, Type (0, 0), BuildingBlock: UVAHIK_clean_linker_0, # of connection points: 2
#     Edge 20, Type (0, 0), BuildingBlock: UVAHIK_clean_linker_0, # of connection points: 2
#     Edge 21, Type (0, 0), BuildingBlock: UVAHIK_clean_linker_0, # of connection points: 2
#     Edge 22, Type (0, 0), BuildingBlock: UVAHIK_clean_linker_0, # of connection points: 2
#     Edge 23, Type (0, 0), BuildingBlock: UVAHIK_clean_linker_0, # of connection points: 2
# Relax obj value: 0.051
# Max RMSD: 0.096
# Mean RMSD: 0.096
data_MOF--net-umw--node1-QUQFOY_clean_sbu_1--edge1-UVAHIK_clean_linker_0
_symmetry_space_group_name_H-M    P1
_symmetry_Int_Tables_number       1
_symmetry_cell_setting            triclinic
loop_
_symmetry_equiv_pos_as_xyz
'x, y, z'
_cell_length_a     54.589435
_cell_length_b     54.586957
_cell_length_c     36.09886
_cell_angle_alpha  90.015487
_cell_angle_beta   90.027699
_cell_angle_gamma 90.022586
loop_
_atom_site_label
_atom_site_type_symbol
_atom_site_fract_x
_atom_site_fract_y
_atom_site_fract_z
_atom_type_partial_charge
O0 O 0.42328 0.18472 0.36563 0.0
Cd1 Cd 0.40015 0.17801 0.32182 0.0
Cd2 Cd 0.44475 0.17884 0.28613 0.0
O3 O 0.45664 0.19467 0.33479 0.0
O4 O 0.36763 0.18117 0.34621 0.0
O5 O 0.38098 0.20738 0.30414 0.0
C6 C 0.36453 0.20122 0.32809 0.0
C7 C 0.45639 0.19526 0.22907 0.0
C8 C 0.44497 0.19311 0.36513 0.0
C9 C 0.41787 0.13079 0.29103 0.0
O10 O 0.43834 0.14153 0.28665 0.0
O11 O 0.39907 0.1429 0.30076 0.0
O12 O 0.47176 0.18369 0.24977 0.0
O13 O 0.43433 0.19819 0.24131 0.0
O14 O 0.80649 0.42563 0.61471 0.0
Cd15 Cd 0.81805 0.40171 0.57434 0.0
Cd16 Cd 0.81855 0.44907 0.53697 0.0
O17 O 0.80274 0.46095 0.58554 0.0
O18 O 0.81898 0.37146 0.60507 0.0
O19 O 0.79344 0.37595 0.5583 0.0
C20 C 0.80103 0.36301 0.58593 0.0
C21 C 0.8028 0.46284 0.4805 0.0
C22 C 0.8005 0.4481 0.61464 0.0
C23 C 0.86622 0.42147 0.54546 0.0
O24 O 0.85558 0.4416 0.53801 0.0
O25 O 0.85407 0.40314 0.55708 0.0
O26 O 0.81486 0.47717 0.50224 0.0
O27 O 0.79921 0.44052 0.49112 0.0
O28 O 0.57811 0.8154 0.87063 0.0
Cd29 Cd 0.59816 0.82004 0.82302 0.0
Cd30 Cd 0.55217 0.81757 0.79412 0.0
O31 O 0.54353 0.80306 0.84529 0.0
O32 O 0.63214 0.81685 0.84225 0.0
O33 O 0.61512 0.78948 0.8051 0.0
C34 C 0.63329 0.79595 0.82586 0.0
C35 C 0.53819 0.7995 0.73948 0.0
C36 C 0.5568 0.80633 0.8738 0.0
C37 C 0.57836 0.86591 0.79129 0.0
O38 O 0.55782 0.85492 0.79117 0.0
O39 O 0.59788 0.85423 0.79881 0.0
O40 O 0.52351 0.81092 0.76147 0.0
O41 O 0.56089 0.79748 0.74922 0.0
O42 O 0.18876 0.57108 0.11101 0.0
Cd43 Cd 0.17884 0.59552 0.07034 0.0
Cd44 Cd 0.17791 0.54943 0.03206 0.0
O45 O 0.19259 0.5362 0.08066 0.0
O46 O 0.17993 0.62631 0.09987 0.0
O47 O 0.20527 0.61911 0.0536 0.0
C48 C 0.19855 0.63307 0.08063 0.0
C49 C 0.19449 0.53741 0.97525 0.0
C50 C 0.19437 0.54852 0.11038 0.0
C51 C 0.13059 0.57769 0.03981 0.0
O52 O 0.14102 0.55752 0.03204 0.0
O53 O 0.1429 0.59566 0.05234 0.0
O54 O 0.18183 0.52252 0.99527 0.0
O55 O 0.1983 0.55923 0.98796 0.0
O56 O 0.42646 0.81055 0.22868 0.0
Cd57 Cd 0.40095 0.81981 0.26816 0.0
Cd58 Cd 0.4458 0.81997 0.3098 0.0
O59 O 0.46 0.80524 0.26183 0.0
O60 O 0.37078 0.81862 0.23719 0.0
O61 O 0.37734 0.79303 0.28338 0.0
C62 C 0.36385 0.79981 0.25584 0.0
C63 C 0.45749 0.80353 0.36696 0.0
C64 C 0.44882 0.80433 0.23101 0.0
C65 C 0.41796 0.86757 0.30087 0.0
O66 O 0.43786 0.85693 0.30961 0.0
O67 O 0.40025 0.8555 0.28706 0.0
O68 O 0.47244 0.81628 0.34716 0.0
O69 O 0.4358 0.79959 0.3539 0.0
O70 O 0.17983 0.41897 0.46931 0.0
Cd71 Cd 0.17506 0.39764 0.51565 0.0
Cd72 Cd 0.17826 0.44248 0.54813 0.0
O73 O 0.19311 0.45213 0.49765 0.0
O74 O 0.17877 0.36402 0.49525 0.0
O75 O 0.20562 0.38074 0.53363 0.0
C76 C 0.19949 0.3628 0.51218 0.0
C77 C 0.19613 0.45622 0.60312 0.0
C78 C 0.18947 0.44011 0.46801 0.0
C79 C 0.12948 0.41687 0.54875 0.0
O80 O 0.1408 0.4372 0.5505 0.0
O81 O 0.14086 0.39746 0.53975 0.0
O82 O 0.18467 0.47095 0.58126 0.0
O83 O 0.19819 0.43357 0.59318 0.0
O84 O 0.57498 0.18823 0.72219 0.0
Cd85 Cd 0.59785 0.17708 0.76418 0.0
Cd86 Cd 0.55042 0.17739 0.79931 0.0
O87 O 0.53953 0.19348 0.75037 0.0
O88 O 0.62909 0.17651 0.73585 0.0
O89 O 0.62258 0.20218 0.78193 0.0
C90 C 0.63654 0.19474 0.75536 0.0
C91 C 0.53662 0.19338 0.85558 0.0
C92 C 0.55273 0.19493 0.72151 0.0
C93 C 0.57728 0.12925 0.79225 0.0
O94 O 0.55715 0.1402 0.7985 0.0
O95 O 0.59606 0.14114 0.78169 0.0
O96 O 0.52214 0.18173 0.83354 0.0
O97 O 0.55908 0.19649 0.84532 0.0
O98 O 0.81473 0.5768 0.97179 0.0
Cd99 Cd 0.82071 0.59903 0.01687 0.0
Cd100 Cd 0.81884 0.55453 0.05082 0.0
O101 O 0.8032 0.54353 0.00154 0.0
O102 O 0.81705 0.63209 0.9945 0.0
O103 O 0.79081 0.61698 0.03518 0.0
C104 C 0.79675 0.63419 0.01231 0.0
C105 C 0.80162 0.54296 0.10732 0.0
C106 C 0.80566 0.55538 0.97149 0.0
C107 C 0.86732 0.58064 0.0481 0.0
O108 O 0.85627 0.56024 0.05131 0.0
O109 O 0.85554 0.59977 0.03894 0.0
O110 O 0.81301 0.52743 0.08666 0.0
O111 O 0.7993 0.56515 0.09529 0.0
C112 C 0.48165 0.20655 0.4019 0.0
C113 C 0.45668 0.20034 0.40044 0.0
C114 C 0.49287 0.21168 0.43586 0.0
C115 C 0.48015 0.22661 0.53434 0.0
H116 H 0.5409 0.19187 0.55233 0.0
C117 C 0.51663 0.20378 0.68059 0.0
C118 C 0.54211 0.20309 0.68592 0.0
C119 C 0.5069 0.20847 0.64544 0.0
C120 C 0.5242 0.20212 0.54765 0.0
H121 H 0.4237 0.19565 0.43332 0.0
H122 H 0.4433 0.20431 0.4923 0.0
H123 H 0.5229 0.1913 0.49079 0.0
H124 H 0.57733 0.20856 0.65926 0.0
H125 H 0.56038 0.21716 0.59836 0.0
H126 H 0.4812 0.23689 0.5916 0.0
C127 C 0.45419 0.20543 0.46728 0.0
C128 C 0.51389 0.20179 0.51231 0.0
C129 C 0.44301 0.20024 0.43344 0.0
C130 C 0.5576 0.20859 0.65596 0.0
C131 C 0.54791 0.21343 0.62099 0.0
C132 C 0.49051 0.22698 0.56975 0.0
C133 C 0.47932 0.21081 0.46896 0.0
C134 C 0.49153 0.21366 0.5054 0.0
C135 C 0.52249 0.21272 0.61507 0.0
C136 C 0.51246 0.21441 0.57692 0.0
H137 H 0.49266 0.20692 0.37695 0.0
H138 H 0.51223 0.21601 0.43628 0.0
H139 H 0.46304 0.23619 0.5297 0.0
H140 H 0.50422 0.19963 0.70314 0.0
H141 H 0.48723 0.20762 0.64176 0.0
C142 C 0.78553 0.44439 0.67966 0.0
C143 C 0.79242 0.45938 0.64978 0.0
C144 C 0.78106 0.4545 0.71447 0.0
C145 C 0.77156 0.51284 0.76542 0.0
H146 H 0.80426 0.47783 0.84481 0.0
C147 C 0.80011 0.55799 0.90287 0.0
C148 C 0.79853 0.54424 0.93572 0.0
C149 C 0.79473 0.54731 0.86873 0.0
C150 C 0.79461 0.48762 0.82316 0.0
H151 H 0.79868 0.49688 0.63242 0.0
H152 H 0.79135 0.51456 0.69353 0.0
H153 H 0.80273 0.45996 0.78325 0.0
H154 H 0.78922 0.50867 0.95856 0.0
H155 H 0.77978 0.48999 0.89874 0.0
H156 H 0.76417 0.54088 0.8054 0.0
C157 C 0.78911 0.49499 0.68992 0.0
C158 C 0.79372 0.47738 0.78781 0.0
C159 C 0.79342 0.48487 0.65493 0.0
C160 C 0.79076 0.51973 0.93375 0.0
C161 C 0.78543 0.509 0.89951 0.0
C162 C 0.7725 0.52313 0.80086 0.0
C163 C 0.78357 0.47982 0.7203 0.0
C164 C 0.78248 0.48999 0.7584 0.0
C165 C 0.78767 0.52261 0.8666 0.0
C166 C 0.78436 0.51077 0.82996 0.0
H167 H 0.78424 0.42469 0.67646 0.0
H168 H 0.77626 0.44238 0.73708 0.0
H169 H 0.76249 0.52286 0.74346 0.0
H170 H 0.80594 0.57695 0.90337 0.0
H171 H 0.79694 0.55819 0.84387 0.0
C172 C 0.44877 0.79306 0.16398 0.0
C173 C 0.46195 0.7972 0.19685 0.0
C174 C 0.46099 0.78882 0.13069 0.0
C175 C 0.51853 0.80377 0.08521 0.0
H176 H 0.49482 0.7595 0.00913 0.0
C177 C 0.5635 0.80042 0.94166 0.0
C178 C 0.54752 0.80013 0.91111 0.0
C179 C 0.55474 0.79602 0.97731 0.0
C180 C 0.50157 0.77204 0.03004 0.0
H181 H 0.49834 0.799 0.22088 0.0
H182 H 0.51976 0.79163 0.16246 0.0
H183 H 0.47678 0.75823 0.07103 0.0
H184 H 0.5099 0.79426 0.89392 0.0
H185 H 0.49444 0.7871 0.95641 0.0
H186 H 0.5427 0.81819 0.04416 0.0
C187 C 0.49992 0.79187 0.16256 0.0
C188 C 0.49131 0.77125 0.06548 0.0
C189 C 0.48766 0.79597 0.19601 0.0
C190 C 0.52267 0.79462 0.91688 0.0
C191 C 0.51386 0.79036 0.95268 0.0
C192 C 0.52872 0.80462 0.04981 0.0
C193 C 0.48669 0.78872 0.12946 0.0
C194 C 0.49942 0.78739 0.09326 0.0
C195 C 0.52975 0.79139 0.98335 0.0
C196 C 0.52011 0.78902 0.02164 0.0
H197 H 0.42893 0.79374 0.16368 0.0
H198 H 0.45028 0.78671 0.10563 0.0
H199 H 0.52489 0.81672 0.10583 0.0
H200 H 0.58282 0.80429 0.93813 0.0
H201 H 0.56754 0.79648 1.00023 0.0
C202 C 0.19284 0.43701 0.39906 0.0
C203 C 0.19588 0.45082 0.43164 0.0
C204 C 0.19758 0.44738 0.36448 0.0
C205 C 0.19865 0.50691 0.31845 0.0
H206 H 0.22847 0.47086 0.23757 0.0
C207 C 0.20884 0.55094 0.17578 0.0
C208 C 0.2016 0.53655 0.14541 0.0
C209 C 0.21274 0.5403 0.21036 0.0
C210 C 0.22001 0.4811 0.25985 0.0
H211 H 0.2071 0.48613 0.45349 0.0
H212 H 0.2154 0.50424 0.39295 0.0
H213 H 0.22687 0.45264 0.2994 0.0
H214 H 0.19396 0.49953 0.12699 0.0
H215 H 0.20023 0.48091 0.18778 0.0
H216 H 0.19107 0.53503 0.27905 0.0
C217 C 0.20911 0.48544 0.39427 0.0
C218 C 0.21912 0.47069 0.29522 0.0
C219 C 0.20443 0.47504 0.42892 0.0
C220 C 0.19954 0.51107 0.1499 0.0
C221 C 0.20323 0.50041 0.1847 0.0
C222 C 0.19946 0.51726 0.28318 0.0
C223 C 0.20542 0.47181 0.36167 0.0
C224 C 0.20821 0.48342 0.32479 0.0
C225 C 0.20923 0.51503 0.21552 0.0
C226 C 0.20996 0.50441 0.25337 0.0
H227 H 0.18637 0.41827 0.40015 0.0
H228 H 0.1943 0.4365 0.33988 0.0
H229 H 0.18971 0.51699 0.34048 0.0
H230 H 0.21095 0.5706 0.17307 0.0
H231 H 0.21794 0.55198 0.23331 0.0
C232 C 0.32312 0.2085 0.35496 0.0
C233 C 0.34453 0.21794 0.33874 0.0
C234 C 0.30638 0.22412 0.37222 0.0
C235 C 0.30529 0.2784 0.42701 0.0
H236 H 0.23576 0.28211 0.4063 0.0
C237 C 0.242 0.34848 0.49957 0.0
C238 C 0.21691 0.34322 0.50238 0.0
C239 C 0.25777 0.33218 0.48156 0.0
C240 C 0.25502 0.28094 0.41314 0.0
H241 H 0.36486 0.25109 0.32668 0.0
H242 H 0.33578 0.27841 0.35787 0.0
H243 H 0.26192 0.25644 0.36781 0.0
H244 H 0.18893 0.31605 0.49157 0.0
H245 H 0.21661 0.2868 0.46261 0.0
H246 H 0.29857 0.30185 0.47326 0.0
C247 C 0.3319 0.25896 0.35669 0.0
C248 C 0.27001 0.26645 0.39068 0.0
C249 C 0.34836 0.24338 0.33858 0.0
C250 C 0.20821 0.32057 0.48956 0.0
C251 C 0.22406 0.304 0.47241 0.0
C252 C 0.29026 0.29247 0.45003 0.0
C253 C 0.31108 0.24935 0.37432 0.0
C254 C 0.29526 0.26522 0.39727 0.0
C255 C 0.24887 0.31001 0.46669 0.0
C256 C 0.26489 0.29407 0.44334 0.0
H257 H 0.31982 0.18893 0.35559 0.0
H258 H 0.29045 0.21634 0.38571 0.0
H259 H 0.32473 0.27737 0.43293 0.0
H260 H 0.24912 0.36598 0.50877 0.0
H261 H 0.27662 0.33771 0.47754 0.0
C262 C 0.76487 0.33461 0.58436 0.0
C263 C 0.78811 0.34066 0.59837 0.0
C264 C 0.75099 0.31603 0.60095 0.0
C265 C 0.74396 0.28566 0.69124 0.0
H266 H 0.70214 0.24087 0.63698 0.0
C267 C 0.66352 0.23193 0.75758 0.0
C268 C 0.65885 0.20821 0.7442 0.0
C269 C 0.68192 0.24632 0.74153 0.0
C270 C 0.71393 0.25307 0.65257 0.0
H271 H 0.8157 0.33089 0.6391 0.0
H272 H 0.79169 0.29839 0.66751 0.0
H273 H 0.72936 0.26835 0.60316 0.0
H274 H 0.67096 0.18033 0.70545 0.0
H275 H 0.70316 0.20523 0.67801 0.0
H276 H 0.72847 0.27042 0.74065 0.0
C277 C 0.78393 0.30832 0.64433 0.0
C278 C 0.72931 0.26898 0.63315 0.0
C279 C 0.79776 0.32683 0.62782 0.0
C280 C 0.67394 0.19862 0.71617 0.0
C281 C 0.69228 0.21295 0.70022 0.0
C282 C 0.7285 0.26981 0.71066 0.0
C283 C 0.76013 0.30318 0.63181 0.0
C284 C 0.74444 0.28553 0.65225 0.0
C285 C 0.69597 0.23722 0.71188 0.0
C286 C 0.71324 0.25339 0.69155 0.0
H287 H 0.75691 0.34499 0.56181 0.0
H288 H 0.73266 0.31256 0.59072 0.0
H289 H 0.75515 0.29842 0.70679 0.0
H290 H 0.65215 0.23986 0.77903 0.0
H291 H 0.68426 0.26498 0.75108 0.0
C292 C 0.75418 0.64922 0.00175 0.0
C293 C 0.77949 0.65385 0.00219 0.0
C294 C 0.73824 0.66535 0.9837 0.0
C295 C 0.72959 0.72733 0.94958 0.0
H296 H 0.69493 0.69766 0.86716 0.0
C297 C 0.67559 0.78765 0.84851 0.0
C298 C 0.65299 0.7787 0.83584 0.0
C299 C 0.69218 0.77208 0.86619 0.0
C300 C 0.70411 0.70627 0.89033 0.0
H301 H 0.80781 0.6797 0.98662 0.0
H302 H 0.77975 0.70845 0.95657 0.0
H303 H 0.71959 0.67215 0.90819 0.0
H304 H 0.63041 0.74631 0.83017 0.0
H305 H 0.65877 0.71929 0.86222 0.0
H306 H 0.7136 0.76126 0.93306 0.0
C307 C 0.77235 0.69216 0.96955 0.0
C308 C 0.71826 0.6916 0.91378 0.0
C309 C 0.78836 0.67576 0.98678 0.0
C310 C 0.64786 0.75362 0.83925 0.0
C311 C 0.6642 0.73812 0.85774 0.0
C312 C 0.71503 0.74195 0.92665 0.0
C313 C 0.74732 0.68663 0.9667 0.0
C314 C 0.7312 0.70204 0.94346 0.0
C315 C 0.68627 0.74732 0.87255 0.0
C316 C 0.7022 0.73167 0.89648 0.0
H317 H 0.74691 0.63233 0.01304 0.0
H318 H 0.71895 0.66083 0.98198 0.0
H319 H 0.73939 0.73575 0.97238 0.0
H320 H 0.68002 0.80693 0.84606 0.0
H321 H 0.70931 0.77972 0.87594 0.0
C322 C 0.2373 0.65776 0.0802 0.0
C323 C 0.21306 0.6546 0.09235 0.0
C324 C 0.25234 0.6755 0.09661 0.0
C325 C 0.2833 0.69947 0.15679 0.0
H326 H 0.26066 0.76426 0.18455 0.0
C327 C 0.33921 0.76101 0.25528 0.0
C328 C 0.34263 0.78521 0.24307 0.0
C329 C 0.32174 0.74595 0.23827 0.0
C330 C 0.26725 0.74624 0.17693 0.0
H331 H 0.18512 0.66853 0.12953 0.0
H332 H 0.21122 0.69943 0.15785 0.0
H333 H 0.23413 0.73754 0.14793 0.0
H334 H 0.32948 0.81301 0.205 0.0
H335 H 0.29906 0.78686 0.17562 0.0
H336 H 0.3165 0.70822 0.18545 0.0
C337 C 0.21868 0.68826 0.13577 0.0
C338 C 0.25203 0.7309 0.15611 0.0
C339 C 0.20374 0.67047 0.11958 0.0
C340 C 0.32732 0.79443 0.21502 0.0
C341 C 0.30981 0.77946 0.19823 0.0
C342 C 0.29846 0.71475 0.17777 0.0
C343 C 0.24334 0.69052 0.12523 0.0
C344 C 0.25989 0.70735 0.14577 0.0
C345 C 0.30726 0.75487 0.20895 0.0
C346 C 0.29062 0.73831 0.18808 0.0
H347 H 0.24502 0.64579 0.05932 0.0
H348 H 0.27118 0.67707 0.08751 0.0
H349 H 0.28976 0.6813 0.14975 0.0
H350 H 0.35074 0.75336 0.27677 0.0
H351 H 0.31994 0.72716 0.24751 0.0
C352 C 0.43718 0.90868 0.31082 0.0
C353 C 0.41611 0.89456 0.30417 0.0
C354 C 0.43601 0.93423 0.31052 0.0
C355 C 0.39771 0.98541 0.27572 0.0
H356 H 0.43999 0.02402 0.33936 0.0
C357 C 0.39374 0.09164 0.28911 0.0
C358 C 0.41647 0.10377 0.28816 0.0
C359 C 0.39266 0.06605 0.29017 0.0
C360 C 0.4282 0.01344 0.32127 0.0
H361 H 0.37704 0.89624 0.29342 0.0
H362 H 0.37484 0.94085 0.29408 0.0
H363 H 0.4393 0.97961 0.34578 0.0
H364 H 0.45587 0.09845 0.28653 0.0
H365 H 0.45391 0.05387 0.28877 0.0
H366 H 0.38635 0.01954 0.25179 0.0
C367 C 0.39244 0.93218 0.2985 0.0
C368 C 0.42782 0.98798 0.32485 0.0
C369 C 0.39366 0.90659 0.29842 0.0
C370 C 0.43805 0.08973 0.28724 0.0
C371 C 0.43697 0.0642 0.28879 0.0
C372 C 0.39787 0.01094 0.27248 0.0
C373 C 0.41368 0.94634 0.304 0.0
C374 C 0.41283 0.97358 0.30179 0.0
C375 C 0.41429 0.05213 0.29082 0.0
C376 C 0.41336 0.02515 0.29489 0.0
H377 H 0.45481 0.90004 0.3151 0.0
H378 H 0.45284 0.94444 0.31427 0.0
H379 H 0.3862 0.97494 0.25709 0.0
H380 H 0.37678 0.10192 0.28978 0.0
H381 H 0.37494 0.05717 0.29178 0.0
C382 C 0.90523 0.39723 0.54759 0.0
C383 C 0.89326 0.41986 0.54323 0.0
C384 C 0.9308 0.39604 0.54865 0.0
C385 C 0.98434 0.43324 0.57196 0.0
H386 H 0.02101 0.38498 0.51603 0.0
C387 C 0.08921 0.43816 0.55638 0.0
C388 C 0.10259 0.41622 0.55402 0.0
C389 C 0.06365 0.43779 0.55737 0.0
C390 C 0.01105 0.3983 0.53237 0.0
H391 H 0.89884 0.45892 0.53569 0.0
H392 H 0.94344 0.45679 0.53774 0.0
H393 H 0.97642 0.38582 0.51166 0.0
H394 H 0.09958 0.37661 0.55251 0.0
H395 H 0.05497 0.37592 0.55531 0.0
H396 H 0.01877 0.44558 0.59313 0.0
C397 C 0.93298 0.44002 0.54053 0.0
C398 C 0.98551 0.39884 0.52967 0.0
C399 C 0.90744 0.44119 0.53908 0.0
C400 C 0.08983 0.39385 0.55409 0.0
C401 C 0.06423 0.39347 0.55539 0.0
C402 C 0.00983 0.43256 0.57497 0.0
C403 C 0.9449 0.41748 0.54577 0.0
C404 C 0.97194 0.41648 0.54914 0.0
C405 C 0.0508 0.41545 0.55638 0.0
C406 C 0.02355 0.41524 0.55491 0.0
H407 H 0.89485 0.38045 0.55082 0.0
H408 H 0.93952 0.37843 0.55284 0.0
H409 H 0.97428 0.44676 0.5878 0.0
H410 H 0.09843 0.45574 0.55621 0.0
H411 H 0.05397 0.4551 0.55763 0.0
C412 C 0.55745 0.90642 0.78386 0.0
C413 C 0.57926 0.89278 0.78577 0.0
C414 C 0.55812 0.93197 0.7826 0.0
C415 C 0.59835 0.98413 0.80645 0.0
H416 H 0.55021 0.02132 0.751 0.0
C417 C 0.60091 0.08985 0.79075 0.0
C418 C 0.57845 0.10219 0.79465 0.0
C419 C 0.6017 0.06427 0.78988 0.0
C420 C 0.56364 0.01115 0.76686 0.0
H421 H 0.61892 0.89533 0.78623 0.0
H422 H 0.62009 0.93993 0.78308 0.0
H423 H 0.55075 0.97679 0.74617 0.0
H424 H 0.53926 0.09725 0.80163 0.0
H425 H 0.5407 0.05262 0.8 0.0
H426 H 0.61134 0.01867 0.82679 0.0
C427 C 0.60245 0.93086 0.78349 0.0
C428 C 0.56396 0.98564 0.76412 0.0
C429 C 0.60178 0.90527 0.785 0.0
C430 C 0.55687 0.08835 0.79856 0.0
C431 C 0.55765 0.06279 0.79735 0.0
C432 C 0.59815 0.00969 0.80894 0.0
C433 C 0.58061 0.94454 0.78293 0.0
C434 C 0.58117 0.97178 0.78416 0.0
C435 C 0.58003 0.0505 0.79255 0.0
C436 C 0.58064 0.02343 0.78945 0.0
H437 H 0.53977 0.89741 0.78455 0.0
H438 H 0.54093 0.94187 0.78266 0.0
H439 H 0.6116 0.97406 0.82276 0.0
H440 H 0.61788 0.09995 0.78771 0.0
H441 H 0.6192 0.05527 0.786 0.0
C442 C 0.90682 0.60416 0.05107 0.0
C443 C 0.89434 0.58161 0.0516 0.0
C444 C 0.93243 0.60485 0.05043 0.0
C445 C 0.98465 0.56843 0.01996 0.0
H446 H 0.02346 0.61039 0.08374 0.0
C447 C 0.08932 0.55861 0.03079 0.0
C448 C 0.1036 0.57967 0.03678 0.0
C449 C 0.06379 0.55995 0.0312 0.0
C450 C 0.01291 0.59887 0.06525 0.0
H451 H 0.89904 0.54213 0.0531 0.0
H452 H 0.94365 0.54341 0.05168 0.0
H453 H 0.97885 0.61073 0.08886 0.0
H454 H 0.10219 0.61886 0.04659 0.0
H455 H 0.05759 0.62133 0.0462 0.0
H456 H 0.01842 0.55682 0.99578 0.0
C457 C 0.93359 0.56052 0.05158 0.0
C458 C 0.98737 0.59899 0.06837 0.0
C459 C 0.90804 0.55982 0.05266 0.0
C460 C 0.09173 0.60225 0.04208 0.0
C461 C 0.06615 0.60364 0.04215 0.0
C462 C 0.01012 0.5685 0.01651 0.0
C463 C 0.94602 0.58301 0.04986 0.0
C464 C 0.97304 0.58354 0.04607 0.0
C465 C 0.05184 0.58243 0.03723 0.0
C466 C 0.02462 0.5835 0.03942 0.0
H467 H 0.89681 0.62129 0.05031 0.0
H468 H 0.94158 0.62244 0.04904 0.0
H469 H 0.974 0.55666 0.00193 0.0
H470 H 0.09783 0.54088 0.02687 0.0
H471 H 0.05345 0.54316 0.0279 0.0
C472 C 0.54423 0.20573 0.92154 0.0
C473 C 0.52778 0.20156 0.89229 0.0
C474 C 0.53553 0.21038 0.95735 0.0
C475 C 0.47982 0.20034 0.01429 0.0
H476 H 0.5154 0.23883 0.08682 0.0
C477 C 0.44589 0.20936 0.16482 0.0
C478 C 0.46365 0.20336 0.1915 0.0
C479 C 0.45274 0.21385 0.12807 0.0
C480 C 0.50526 0.22806 0.0668 0.0
H481 H 0.4894 0.20065 0.87699 0.0
H482 H 0.47424 0.20972 0.93883 0.0
H483 H 0.52909 0.23842 0.02237 0.0
H484 H 0.50262 0.19875 0.20106 0.0
H485 H 0.51453 0.20682 0.13716 0.0
H486 H 0.4561 0.18991 0.05874 0.0
C487 C 0.49384 0.20849 0.93468 0.0
C488 C 0.51315 0.22771 0.0299 0.0
C489 C 0.50253 0.20346 0.8991 0.0
C490 C 0.48848 0.20323 0.18112 0.0
C491 C 0.49533 0.208 0.14454 0.0
C492 C 0.4718 0.20093 0.05101 0.0
C493 C 0.51017 0.21131 0.96455 0.0
C494 C 0.50076 0.21352 0.00324 0.0
C495 C 0.4775 0.21275 0.11742 0.0
C496 C 0.48464 0.21446 0.0778 0.0
H497 H 0.5638 0.20428 0.91714 0.0
H498 H 0.54871 0.21219 0.9796 0.0
H499 H 0.47005 0.18877 0.99492 0.0
H500 H 0.42662 0.20961 0.17195 0.0
H501 H 0.43862 0.21768 0.10779 0.0
C502 C 0.79288 0.5109 0.15501 0.0
C503 C 0.79314 0.53574 0.14471 0.0
C504 C 0.78792 0.50406 0.19154 0.0
C505 C 0.79537 0.5275 0.28502 0.0
H506 H 0.75739 0.47058 0.31387 0.0
C507 C 0.79292 0.49694 0.43693 0.0
C508 C 0.79461 0.47168 0.4438 0.0
C509 C 0.78785 0.50562 0.40136 0.0
C510 C 0.76823 0.4864 0.30628 0.0
H511 H 0.78731 0.57282 0.16431 0.0
H512 H 0.77888 0.56085 0.22837 0.0
H513 H 0.75697 0.48426 0.2494 0.0
H514 H 0.79146 0.43564 0.41913 0.0
H515 H 0.7835 0.45073 0.35665 0.0
H516 H 0.80767 0.52914 0.34103 0.0
C517 C 0.78257 0.5467 0.20808 0.0
C518 C 0.76787 0.4943 0.26938 0.0
C519 C 0.78727 0.55354 0.17138 0.0
C520 C 0.79018 0.45522 0.41465 0.0
C521 C 0.7855 0.46392 0.37884 0.0
C522 C 0.79595 0.51948 0.32173 0.0
C523 C 0.78336 0.52192 0.21868 0.0
C524 C 0.78164 0.5148 0.25831 0.0
C525 C 0.7848 0.48928 0.37156 0.0
C526 C 0.7826 0.49867 0.33287 0.0
H527 H 0.79724 0.49672 0.13507 0.0
H528 H 0.78885 0.48484 0.19889 0.0
H529 H 0.80652 0.54308 0.27723 0.0
H530 H 0.79593 0.51007 0.45897 0.0
H531 H 0.78679 0.52523 0.39715 0.0
C532 C 0.50418 0.78812 0.69643 0.0
C533 C 0.52939 0.79087 0.70296 0.0
C534 C 0.49543 0.78335 0.66078 0.0
C535 C 0.51484 0.76719 0.56422 0.0
H536 H 0.45664 0.80407 0.53808 0.0
C537 C 0.4896 0.79581 0.41496 0.0
C538 C 0.46485 0.79499 0.40426 0.0
C539 C 0.49651 0.79022 0.45126 0.0
C540 C 0.47267 0.79331 0.54503 0.0
H541 H 0.56531 0.78979 0.67754 0.0
H542 H 0.55009 0.78234 0.61507 0.0
H543 H 0.47062 0.80363 0.60193 0.0
H544 H 0.42801 0.7868 0.42292 0.0
H545 H 0.44008 0.77734 0.48668 0.0
H546 H 0.51738 0.75801 0.50655 0.0
C547 C 0.537 0.78327 0.63753 0.0
C548 C 0.48071 0.79297 0.58177 0.0
C549 C 0.54578 0.78765 0.67339 0.0
C550 C 0.44722 0.7876 0.43033 0.0
C551 C 0.45411 0.7823 0.46684 0.0
C552 C 0.50692 0.76778 0.52733 0.0
C553 C 0.51164 0.78167 0.63058 0.0
C554 C 0.50208 0.78016 0.59187 0.0
C555 C 0.47879 0.78394 0.47781 0.0
C556 C 0.48591 0.7811 0.5173 0.0
H557 H 0.49111 0.79023 0.71878 0.0
H558 H 0.47585 0.78156 0.6568 0.0
H559 H 0.53111 0.75676 0.57096 0.0
H560 H 0.50365 0.80135 0.39549 0.0
H561 H 0.51563 0.79186 0.45893 0.0
C562 C 0.20212 0.50512 0.92749 0.0
C563 C 0.20299 0.52991 0.938 0.0
C564 C 0.20753 0.49811 0.89119 0.0
C565 C 0.20381 0.52181 0.79738 0.0
H566 H 0.23989 0.46315 0.77105 0.0
C567 C 0.20783 0.49016 0.64603 0.0
C568 C 0.2049 0.46496 0.63958 0.0
C569 C 0.21287 0.4989 0.6816 0.0
C570 C 0.2296 0.47948 0.77791 0.0
H571 H 0.21115 0.56669 0.91901 0.0
H572 H 0.22031 0.55443 0.85526 0.0
H573 H 0.23922 0.477 0.83542 0.0
H574 H 0.20592 0.42904 0.665 0.0
H575 H 0.21384 0.44425 0.72738 0.0
H576 H 0.19307 0.52381 0.74067 0.0
C577 C 0.21543 0.54046 0.87525 0.0
C578 C 0.22933 0.48746 0.81477 0.0
C579 C 0.2103 0.54746 0.91175 0.0
C580 C 0.2082 0.44856 0.66912 0.0
C581 C 0.21284 0.45733 0.70491 0.0
C582 C 0.20383 0.51371 0.76068 0.0
C583 C 0.21368 0.51576 0.86445 0.0
C584 C 0.21619 0.50855 0.82495 0.0
C585 C 0.21464 0.48269 0.71179 0.0
C586 C 0.21647 0.49226 0.75044 0.0
H587 H 0.19663 0.49115 0.94711 0.0
H588 H 0.20581 0.47898 0.88365 0.0
H589 H 0.19318 0.53789 0.80445 0.0
H590 H 0.20569 0.50323 0.62369 0.0
H591 H 0.21481 0.51847 0.68553 0.0
loop_
_geom_bond_atom_site_label_1
_geom_bond_atom_site_label_2
_geom_bond_distance
_geom_bond_site_symmetry_2
_ccdc_geom_bond_type
O0 Cd1 2.223 . S
O0 C8 1.315 . S
Cd1 O0 2.223 . S
Cd1 O4 2.297 . S
Cd1 O5 2.439 . S
Cd1 O11 2.240 . S
Cd2 O3 2.240 . S
Cd2 O10 2.223 . S
Cd2 O12 2.297 . S
Cd2 O13 2.439 . S
O3 Cd2 2.240 . S
O3 C8 1.279 . S
O4 Cd1 2.297 . S
O4 C6 1.247 . S
O5 Cd1 2.439 . S
O5 C6 1.208 . S
C6 O4 1.247 . S
C6 O5 1.208 . S
C7 O12 1.247 . S
C7 O13 1.208 . S
C8 O0 1.315 . S
C8 O3 1.279 . S
C9 O10 1.315 . S
C9 O11 1.279 . S
O10 Cd2 2.223 . S
O10 C9 1.315 . S
O11 Cd1 2.240 . S
O11 C9 1.279 . S
O12 Cd2 2.297 . S
O12 C7 1.247 . S
O13 Cd2 2.439 . S
O13 C7 1.208 . S
O14 Cd15 2.223 . S
O14 C22 1.315 . S
Cd15 O14 2.223 . S
Cd15 O18 2.297 . S
Cd15 O19 2.439 . S
Cd15 O25 2.240 . S
Cd16 O17 2.240 . S
Cd16 O24 2.223 . S
Cd16 O26 2.297 . S
Cd16 O27 2.439 . S
O17 Cd16 2.240 . S
O17 C22 1.279 . S
O18 Cd15 2.297 . S
O18 C20 1.247 . S
O19 Cd15 2.439 . S
O19 C20 1.208 . S
C20 O18 1.247 . S
C20 O19 1.208 . S
C21 O26 1.247 . S
C21 O27 1.208 . S
C22 O14 1.315 . S
C22 O17 1.279 . S
C23 O24 1.315 . S
C23 O25 1.279 . S
O24 Cd16 2.223 . S
O24 C23 1.315 . S
O25 Cd15 2.240 . S
O25 C23 1.279 . S
O26 Cd16 2.297 . S
O26 C21 1.247 . S
O27 Cd16 2.439 . S
O27 C21 1.208 . S
O28 Cd29 2.223 . S
O28 C36 1.315 . S
Cd29 O28 2.223 . S
Cd29 O32 2.297 . S
Cd29 O33 2.439 . S
Cd29 O39 2.240 . S
Cd30 O31 2.240 . S
Cd30 O38 2.223 . S
Cd30 O40 2.297 . S
Cd30 O41 2.439 . S
O31 Cd30 2.240 . S
O31 C36 1.279 . S
O32 Cd29 2.297 . S
O32 C34 1.247 . S
O33 Cd29 2.439 . S
O33 C34 1.208 . S
C34 O32 1.247 . S
C34 O33 1.208 . S
C35 O40 1.247 . S
C35 O41 1.208 . S
C36 O28 1.315 . S
C36 O31 1.279 . S
C37 O38 1.315 . S
C37 O39 1.279 . S
O38 Cd30 2.223 . S
O38 C37 1.315 . S
O39 Cd29 2.240 . S
O39 C37 1.279 . S
O40 Cd30 2.297 . S
O40 C35 1.247 . S
O41 Cd30 2.439 . S
O41 C35 1.208 . S
O42 Cd43 2.223 . S
O42 C50 1.315 . S
Cd43 O42 2.223 . S
Cd43 O46 2.297 . S
Cd43 O47 2.439 . S
Cd43 O53 2.240 . S
Cd44 O45 2.240 . S
Cd44 O52 2.223 . S
Cd44 O54 2.297 1_554 S
Cd44 O55 2.439 1_554 S
O45 Cd44 2.240 . S
O45 C50 1.279 . S
O46 Cd43 2.297 . S
O46 C48 1.247 . S
O47 Cd43 2.439 . S
O47 C48 1.208 . S
C48 O46 1.247 . S
C48 O47 1.208 . S
C49 O54 1.247 . S
C49 O55 1.208 . S
C50 O42 1.315 . S
C50 O45 1.279 . S
C51 O52 1.315 . S
C51 O53 1.279 . S
O52 Cd44 2.223 . S
O52 C51 1.315 . S
O53 Cd43 2.240 . S
O53 C51 1.279 . S
O54 Cd44 2.297 1_556 S
O54 C49 1.247 . S
O55 Cd44 2.439 1_556 S
O55 C49 1.208 . S
O56 Cd57 2.223 . S
O56 C64 1.315 . S
Cd57 O56 2.223 . S
Cd57 O60 2.297 . S
Cd57 O61 2.439 . S
Cd57 O67 2.240 . S
Cd58 O59 2.240 . S
Cd58 O66 2.223 . S
Cd58 O68 2.297 . S
Cd58 O69 2.439 . S
O59 Cd58 2.240 . S
O59 C64 1.279 . S
O60 Cd57 2.297 . S
O60 C62 1.247 . S
O61 Cd57 2.439 . S
O61 C62 1.208 . S
C62 O60 1.247 . S
C62 O61 1.208 . S
C63 O68 1.247 . S
C63 O69 1.208 . S
C64 O56 1.315 . S
C64 O59 1.279 . S
C65 O66 1.315 . S
C65 O67 1.279 . S
O66 Cd58 2.223 . S
O66 C65 1.315 . S
O67 Cd57 2.240 . S
O67 C65 1.279 . S
O68 Cd58 2.297 . S
O68 C63 1.247 . S
O69 Cd58 2.439 . S
O69 C63 1.208 . S
O70 Cd71 2.223 . S
O70 C78 1.315 . S
Cd71 O70 2.223 . S
Cd71 O74 2.297 . S
Cd71 O75 2.439 . S
Cd71 O81 2.240 . S
Cd72 O73 2.240 . S
Cd72 O80 2.223 . S
Cd72 O82 2.297 . S
Cd72 O83 2.439 . S
O73 Cd72 2.240 . S
O73 C78 1.279 . S
O74 Cd71 2.297 . S
O74 C76 1.247 . S
O75 Cd71 2.439 . S
O75 C76 1.208 . S
C76 O74 1.247 . S
C76 O75 1.208 . S
C77 O82 1.247 . S
C77 O83 1.208 . S
C78 O70 1.315 . S
C78 O73 1.279 . S
C79 O80 1.315 . S
C79 O81 1.279 . S
O80 Cd72 2.223 . S
O80 C79 1.315 . S
O81 Cd71 2.240 . S
O81 C79 1.279 . S
O82 Cd72 2.297 . S
O82 C77 1.247 . S
O83 Cd72 2.439 . S
O83 C77 1.208 . S
O84 Cd85 2.223 . S
O84 C92 1.315 . S
Cd85 O84 2.223 . S
Cd85 O88 2.297 . S
Cd85 O89 2.439 . S
Cd85 O95 2.240 . S
Cd86 O87 2.240 . S
Cd86 O94 2.223 . S
Cd86 O96 2.297 . S
Cd86 O97 2.439 . S
O87 Cd86 2.240 . S
O87 C92 1.279 . S
O88 Cd85 2.297 . S
O88 C90 1.247 . S
O89 Cd85 2.439 . S
O89 C90 1.208 . S
C90 O88 1.247 . S
C90 O89 1.208 . S
C91 O96 1.247 . S
C91 O97 1.208 . S
C92 O84 1.315 . S
C92 O87 1.279 . S
C93 O94 1.315 . S
C93 O95 1.279 . S
O94 Cd86 2.223 . S
O94 C93 1.315 . S
O95 Cd85 2.240 . S
O95 C93 1.279 . S
O96 Cd86 2.297 . S
O96 C91 1.247 . S
O97 Cd86 2.439 . S
O97 C91 1.208 . S
O98 Cd99 2.223 . S
O98 C106 1.315 . S
Cd99 O98 2.223 . S
Cd99 O102 2.297 . S
Cd99 O103 2.439 1_556 S
Cd99 O109 2.240 1_556 S
Cd100 O101 2.240 1_554 S
Cd100 O108 2.223 . S
Cd100 O110 2.297 . S
Cd100 O111 2.439 . S
O101 Cd100 2.240 1_556 S
O101 C106 1.279 . S
O102 Cd99 2.297 . S
O102 C104 1.247 . S
O103 Cd99 2.439 1_554 S
O103 C104 1.208 1_554 S
C104 O102 1.247 . S
C104 O103 1.208 1_556 S
C105 O110 1.247 . S
C105 O111 1.208 . S
C106 O98 1.315 . S
C106 O101 1.279 . S
C107 O108 1.315 . S
C107 O109 1.279 . S
O108 Cd100 2.223 . S
O108 C107 1.315 . S
O109 Cd99 2.240 1_554 S
O109 C107 1.279 . S
O110 Cd100 2.297 . S
O110 C105 1.247 . S
O111 Cd100 2.439 . S
O111 C105 1.208 . S
C112 C113 1.349 . S
C112 C114 1.327 . S
C112 H137 0.950 . S
C113 C112 1.349 . S
C113 C129 1.349 . S
C114 C112 1.327 . S
C114 C133 1.429 . S
C114 H138 0.950 . S
C115 C132 1.574 . S
C115 C134 1.368 . S
C115 H139 0.949 . S
H116 C120 0.949 . S
C117 C118 1.349 . S
C117 C119 1.327 . S
C117 H140 0.950 . S
C118 C117 1.349 . S
C118 C130 1.349 . S
C119 C117 1.327 . S
C119 C135 1.429 . S
C119 H141 0.950 . S
C120 H116 0.949 . S
C120 C128 1.574 . S
C120 C136 1.368 . S
H121 C129 0.950 . S
H122 C127 0.950 . S
H123 C128 0.949 . S
H124 C130 0.950 . S
H125 C131 0.950 . S
H126 C132 0.949 . S
C127 H122 0.950 . S
C127 C129 1.327 . S
C127 C133 1.429 . S
C128 C120 1.574 . S
C128 H123 0.949 . S
C128 C134 1.368 . S
C129 C113 1.349 . S
C129 H121 0.950 . S
C129 C127 1.327 . S
C130 C118 1.349 . S
C130 H124 0.950 . S
C130 C131 1.327 . S
C131 H125 0.950 . S
C131 C130 1.327 . S
C131 C135 1.429 . S
C132 C115 1.574 . S
C132 H126 0.949 . S
C132 C136 1.368 . S
C133 C114 1.429 . S
C133 C127 1.429 . S
C133 C134 1.523 . S
C134 C115 1.368 . S
C134 C128 1.368 . S
C134 C133 1.523 . S
C135 C119 1.429 . S
C135 C131 1.429 . S
C135 C136 1.523 . S
C136 C120 1.368 . S
C136 C132 1.368 . S
C136 C135 1.523 . S
H137 C112 0.950 . S
H138 C114 0.950 . S
H139 C115 0.949 . S
H140 C117 0.950 . S
H141 C119 0.950 . S
C142 C143 1.349 . S
C142 C144 1.327 . S
C142 H167 0.950 . S
C143 C142 1.349 . S
C143 C159 1.349 . S
C144 C142 1.327 . S
C144 C163 1.429 . S
C144 H168 0.950 . S
C145 C162 1.574 . S
C145 C164 1.368 . S
C145 H169 0.949 . S
H146 C150 0.949 . S
C147 C148 1.349 . S
C147 C149 1.327 . S
C147 H170 0.950 . S
C148 C147 1.349 . S
C148 C160 1.349 . S
C149 C147 1.327 . S
C149 C165 1.429 . S
C149 H171 0.950 . S
C150 H146 0.949 . S
C150 C158 1.574 . S
C150 C166 1.368 . S
H151 C159 0.950 . S
H152 C157 0.950 . S
H153 C158 0.949 . S
H154 C160 0.950 . S
H155 C161 0.950 . S
H156 C162 0.949 . S
C157 H152 0.950 . S
C157 C159 1.327 . S
C157 C163 1.429 . S
C158 C150 1.574 . S
C158 H153 0.949 . S
C158 C164 1.368 . S
C159 C143 1.349 . S
C159 H151 0.950 . S
C159 C157 1.327 . S
C160 C148 1.349 . S
C160 H154 0.950 . S
C160 C161 1.327 . S
C161 H155 0.950 . S
C161 C160 1.327 . S
C161 C165 1.429 . S
C162 C145 1.574 . S
C162 H156 0.949 . S
C162 C166 1.368 . S
C163 C144 1.429 . S
C163 C157 1.429 . S
C163 C164 1.523 . S
C164 C145 1.368 . S
C164 C158 1.368 . S
C164 C163 1.523 . S
C165 C149 1.429 . S
C165 C161 1.429 . S
C165 C166 1.523 . S
C166 C150 1.368 . S
C166 C162 1.368 . S
C166 C165 1.523 . S
H167 C142 0.950 . S
H168 C144 0.950 . S
H169 C145 0.949 . S
H170 C147 0.950 . S
H171 C149 0.950 . S
C172 C173 1.349 . S
C172 C174 1.327 . S
C172 H197 0.950 . S
C173 C172 1.349 . S
C173 C189 1.349 . S
C174 C172 1.327 . S
C174 C193 1.429 . S
C174 H198 0.950 . S
C175 C192 1.574 . S
C175 C194 1.368 . S
C175 H199 0.949 . S
H176 C180 0.949 1_556 S
C177 C178 1.349 . S
C177 C179 1.327 . S
C177 H200 0.950 . S
C178 C177 1.349 . S
C178 C190 1.349 . S
C179 C177 1.327 . S
C179 C195 1.429 . S
C179 H201 0.950 . S
C180 H176 0.949 1_554 S
C180 C188 1.574 . S
C180 C196 1.368 . S
H181 C189 0.950 . S
H182 C187 0.950 . S
H183 C188 0.949 . S
H184 C190 0.950 . S
H185 C191 0.950 . S
H186 C192 0.949 . S
C187 H182 0.950 . S
C187 C189 1.327 . S
C187 C193 1.429 . S
C188 C180 1.574 . S
C188 H183 0.949 . S
C188 C194 1.368 . S
C189 C173 1.349 . S
C189 H181 0.950 . S
C189 C187 1.327 . S
C190 C178 1.349 . S
C190 H184 0.950 . S
C190 C191 1.327 . S
C191 H185 0.950 . S
C191 C190 1.327 . S
C191 C195 1.429 . S
C192 C175 1.574 . S
C192 H186 0.949 . S
C192 C196 1.368 . S
C193 C174 1.429 . S
C193 C187 1.429 . S
C193 C194 1.523 . S
C194 C175 1.368 . S
C194 C188 1.368 . S
C194 C193 1.523 . S
C195 C179 1.429 . S
C195 C191 1.429 . S
C195 C196 1.523 1_556 S
C196 C180 1.368 . S
C196 C192 1.368 . S
C196 C195 1.523 1_554 S
H197 C172 0.950 . S
H198 C174 0.950 . S
H199 C175 0.949 . S
H200 C177 0.950 . S
H201 C179 0.950 . S
C202 C203 1.349 . S
C202 C204 1.327 . S
C202 H227 0.950 . S
C203 C202 1.349 . S
C203 C219 1.349 . S
C204 C202 1.327 . S
C204 C223 1.429 . S
C204 H228 0.950 . S
C205 C222 1.574 . S
C205 C224 1.368 . S
C205 H229 0.949 . S
H206 C210 0.949 . S
C207 C208 1.349 . S
C207 C209 1.327 . S
C207 H230 0.950 . S
C208 C207 1.349 . S
C208 C220 1.349 . S
C209 C207 1.327 . S
C209 C225 1.429 . S
C209 H231 0.950 . S
C210 H206 0.949 . S
C210 C218 1.574 . S
C210 C226 1.368 . S
H211 C219 0.950 . S
H212 C217 0.950 . S
H213 C218 0.949 . S
H214 C220 0.950 . S
H215 C221 0.950 . S
H216 C222 0.949 . S
C217 H212 0.950 . S
C217 C219 1.327 . S
C217 C223 1.429 . S
C218 C210 1.574 . S
C218 H213 0.949 . S
C218 C224 1.368 . S
C219 C203 1.349 . S
C219 H211 0.950 . S
C219 C217 1.327 . S
C220 C208 1.349 . S
C220 H214 0.950 . S
C220 C221 1.327 . S
C221 H215 0.950 . S
C221 C220 1.327 . S
C221 C225 1.429 . S
C222 C205 1.574 . S
C222 H216 0.949 . S
C222 C226 1.368 . S
C223 C204 1.429 . S
C223 C217 1.429 . S
C223 C224 1.523 . S
C224 C205 1.368 . S
C224 C218 1.368 . S
C224 C223 1.523 . S
C225 C209 1.429 . S
C225 C221 1.429 . S
C225 C226 1.523 . S
C226 C210 1.368 . S
C226 C222 1.368 . S
C226 C225 1.523 . S
H227 C202 0.950 . S
H228 C204 0.950 . S
H229 C205 0.949 . S
H230 C207 0.950 . S
H231 C209 0.950 . S
C232 C233 1.349 . S
C232 C234 1.327 . S
C232 H257 0.950 . S
C233 C232 1.349 . S
C233 C249 1.349 . S
C234 C232 1.327 . S
C234 C253 1.429 . S
C234 H258 0.950 . S
C235 C252 1.574 . S
C235 C254 1.368 . S
C235 H259 0.949 . S
H236 C240 0.949 . S
C237 C238 1.349 . S
C237 C239 1.327 . S
C237 H260 0.950 . S
C238 C237 1.349 . S
C238 C250 1.349 . S
C239 C237 1.327 . S
C239 C255 1.429 . S
C239 H261 0.950 . S
C240 H236 0.949 . S
C240 C248 1.574 . S
C240 C256 1.368 . S
H241 C249 0.950 . S
H242 C247 0.950 . S
H243 C248 0.949 . S
H244 C250 0.950 . S
H245 C251 0.950 . S
H246 C252 0.949 . S
C247 H242 0.950 . S
C247 C249 1.327 . S
C247 C253 1.429 . S
C248 C240 1.574 . S
C248 H243 0.949 . S
C248 C254 1.368 . S
C249 C233 1.349 . S
C249 H241 0.950 . S
C249 C247 1.327 . S
C250 C238 1.349 . S
C250 H244 0.950 . S
C250 C251 1.327 . S
C251 H245 0.950 . S
C251 C250 1.327 . S
C251 C255 1.429 . S
C252 C235 1.574 . S
C252 H246 0.949 . S
C252 C256 1.368 . S
C253 C234 1.429 . S
C253 C247 1.429 . S
C253 C254 1.523 . S
C254 C235 1.368 . S
C254 C248 1.368 . S
C254 C253 1.523 . S
C255 C239 1.429 . S
C255 C251 1.429 . S
C255 C256 1.523 . S
C256 C240 1.368 . S
C256 C252 1.368 . S
C256 C255 1.523 . S
H257 C232 0.950 . S
H258 C234 0.950 . S
H259 C235 0.949 . S
H260 C237 0.950 . S
H261 C239 0.950 . S
C262 C263 1.349 . S
C262 C264 1.327 . S
C262 H287 0.950 . S
C263 C262 1.349 . S
C263 C279 1.349 . S
C264 C262 1.327 . S
C264 C283 1.429 . S
C264 H288 0.950 . S
C265 C282 1.574 . S
C265 C284 1.368 . S
C265 H289 0.949 . S
H266 C270 0.949 . S
C267 C268 1.349 . S
C267 C269 1.327 . S
C267 H290 0.950 . S
C268 C267 1.349 . S
C268 C280 1.349 . S
C269 C267 1.327 . S
C269 C285 1.429 . S
C269 H291 0.950 . S
C270 H266 0.949 . S
C270 C278 1.574 . S
C270 C286 1.368 . S
H271 C279 0.950 . S
H272 C277 0.950 . S
H273 C278 0.949 . S
H274 C280 0.950 . S
H275 C281 0.950 . S
H276 C282 0.949 . S
C277 H272 0.950 . S
C277 C279 1.327 . S
C277 C283 1.429 . S
C278 C270 1.574 . S
C278 H273 0.949 . S
C278 C284 1.368 . S
C279 C263 1.349 . S
C279 H271 0.950 . S
C279 C277 1.327 . S
C280 C268 1.349 . S
C280 H274 0.950 . S
C280 C281 1.327 . S
C281 H275 0.950 . S
C281 C280 1.327 . S
C281 C285 1.429 . S
C282 C265 1.574 . S
C282 H276 0.949 . S
C282 C286 1.368 . S
C283 C264 1.429 . S
C283 C277 1.429 . S
C283 C284 1.523 . S
C284 C265 1.368 . S
C284 C278 1.368 . S
C284 C283 1.523 . S
C285 C269 1.429 . S
C285 C281 1.429 . S
C285 C286 1.523 . S
C286 C270 1.368 . S
C286 C282 1.368 . S
C286 C285 1.523 . S
H287 C262 0.950 . S
H288 C264 0.950 . S
H289 C265 0.949 . S
H290 C267 0.950 . S
H291 C269 0.950 . S
C292 C293 1.349 . S
C292 C294 1.327 . S
C292 H317 0.950 . S
C293 C292 1.349 . S
C293 C309 1.349 . S
C294 C292 1.327 . S
C294 C313 1.429 . S
C294 H318 0.950 . S
C295 C312 1.574 . S
C295 C314 1.368 . S
C295 H319 0.949 . S
H296 C300 0.949 . S
C297 C298 1.349 . S
C297 C299 1.327 . S
C297 H320 0.950 . S
C298 C297 1.349 . S
C298 C310 1.349 . S
C299 C297 1.327 . S
C299 C315 1.429 . S
C299 H321 0.950 . S
C300 H296 0.949 . S
C300 C308 1.574 . S
C300 C316 1.368 . S
H301 C309 0.954 . S
H302 C307 0.950 . S
H303 C308 0.949 . S
H304 C310 0.950 . S
H305 C311 0.950 . S
H306 C312 0.949 . S
C307 H302 0.950 . S
C307 C309 1.327 . S
C307 C313 1.429 . S
C308 C300 1.574 . S
C308 H303 0.949 . S
C308 C314 1.368 . S
C309 C293 1.349 . S
C309 H301 0.954 . S
C309 C307 1.327 . S
C310 C298 1.349 . S
C310 H304 0.950 . S
C310 C311 1.327 . S
C311 H305 0.950 . S
C311 C310 1.327 . S
C311 C315 1.429 . S
C312 C295 1.574 . S
C312 H306 0.949 . S
C312 C316 1.368 . S
C313 C294 1.429 . S
C313 C307 1.429 . S
C313 C314 1.523 . S
C314 C295 1.368 . S
C314 C308 1.368 . S
C314 C313 1.523 . S
C315 C299 1.429 . S
C315 C311 1.429 . S
C315 C316 1.523 . S
C316 C300 1.368 . S
C316 C312 1.368 . S
C316 C315 1.523 . S
H317 C292 0.950 . S
H318 C294 0.950 . S
H319 C295 0.949 . S
H320 C297 0.950 . S
H321 C299 0.950 . S
C322 C323 1.349 . S
C322 C324 1.327 . S
C322 H347 0.950 . S
C323 C322 1.349 . S
C323 C339 1.349 . S
C324 C322 1.327 . S
C324 C343 1.429 . S
C324 H348 0.950 . S
C325 C342 1.574 . S
C325 C344 1.368 . S
C325 H349 0.949 . S
H326 C330 0.949 . S
C327 C328 1.349 . S
C327 C329 1.327 . S
C327 H350 0.950 . S
C328 C327 1.349 . S
C328 C340 1.349 . S
C329 C327 1.327 . S
C329 C345 1.429 . S
C329 H351 0.950 . S
C330 H326 0.949 . S
C330 C338 1.574 . S
C330 C346 1.368 . S
H331 C339 0.950 . S
H332 C337 0.950 . S
H333 C338 0.949 . S
H334 C340 0.950 . S
H335 C341 0.950 . S
H336 C342 0.949 . S
C337 H332 0.950 . S
C337 C339 1.327 . S
C337 C343 1.429 . S
C338 C330 1.574 . S
C338 H333 0.949 . S
C338 C344 1.368 . S
C339 C323 1.349 . S
C339 H331 0.950 . S
C339 C337 1.327 . S
C340 C328 1.349 . S
C340 H334 0.950 . S
C340 C341 1.327 . S
C341 H335 0.950 . S
C341 C340 1.327 . S
C341 C345 1.429 . S
C342 C325 1.574 . S
C342 H336 0.949 . S
C342 C346 1.368 . S
C343 C324 1.429 . S
C343 C337 1.429 . S
C343 C344 1.523 . S
C344 C325 1.368 . S
C344 C338 1.368 . S
C344 C343 1.523 . S
C345 C329 1.429 . S
C345 C341 1.429 . S
C345 C346 1.523 . S
C346 C330 1.368 . S
C346 C342 1.368 . S
C346 C345 1.523 . S
H347 C322 0.950 . S
H348 C324 0.950 . S
H349 C325 0.949 . S
H350 C327 0.950 . S
H351 C329 0.950 . S
C352 C353 1.349 . S
C352 C354 1.327 . S
C352 H377 0.950 . S
C353 C352 1.349 . S
C353 C369 1.349 . S
C354 C352 1.327 . S
C354 C373 1.429 . S
C354 H378 0.950 . S
C355 C372 1.574 1_565 S
C355 C374 1.368 . S
C355 H379 0.949 . S
H356 C360 0.949 . S
C357 C358 1.349 . S
C357 C359 1.327 . S
C357 H380 0.950 . S
C358 C357 1.349 . S
C358 C370 1.349 . S
C359 C357 1.327 . S
C359 C375 1.429 . S
C359 H381 0.950 . S
C360 H356 0.949 . S
C360 C368 1.574 1_545 S
C360 C376 1.368 . S
H361 C369 0.950 . S
H362 C367 0.950 . S
H363 C368 0.949 . S
H364 C370 0.950 . S
H365 C371 0.950 . S
H366 C372 0.949 . S
C367 H362 0.950 . S
C367 C369 1.327 . S
C367 C373 1.429 . S
C368 C360 1.574 1_565 S
C368 H363 0.949 . S
C368 C374 1.368 . S
C369 C353 1.349 . S
C369 H361 0.950 . S
C369 C367 1.327 . S
C370 C358 1.349 . S
C370 H364 0.950 . S
C370 C371 1.327 . S
C371 H365 0.950 . S
C371 C370 1.327 . S
C371 C375 1.429 . S
C372 C355 1.574 1_545 S
C372 H366 0.949 . S
C372 C376 1.368 . S
C373 C354 1.429 . S
C373 C367 1.429 . S
C373 C374 1.523 . S
C374 C355 1.368 . S
C374 C368 1.368 . S
C374 C373 1.523 . S
C375 C359 1.429 . S
C375 C371 1.429 . S
C375 C376 1.523 . S
C376 C360 1.368 . S
C376 C372 1.368 . S
C376 C375 1.523 . S
H377 C352 0.950 . S
H378 C354 0.950 . S
H379 C355 0.949 . S
H380 C357 0.950 . S
H381 C359 0.950 . S
C382 C383 1.349 . S
C382 C384 1.327 . S
C382 H407 0.950 . S
C383 C382 1.349 . S
C383 C399 1.349 . S
C384 C382 1.327 . S
C384 C403 1.429 . S
C384 H408 0.950 . S
C385 C402 1.574 1_655 S
C385 C404 1.368 . S
C385 H409 0.949 . S
H386 C390 0.949 . S
C387 C388 1.349 . S
C387 C389 1.327 . S
C387 H410 0.950 . S
C388 C387 1.349 . S
C388 C400 1.349 . S
C389 C387 1.327 . S
C389 C405 1.429 . S
C389 H411 0.950 . S
C390 H386 0.949 . S
C390 C398 1.574 1_455 S
C390 C406 1.368 . S
H391 C399 0.950 . S
H392 C397 0.950 . S
H393 C398 0.949 . S
H394 C400 0.950 . S
H395 C401 0.950 . S
H396 C402 0.949 . S
C397 H392 0.950 . S
C397 C399 1.327 . S
C397 C403 1.429 . S
C398 C390 1.574 1_655 S
C398 H393 0.949 . S
C398 C404 1.368 . S
C399 C383 1.349 . S
C399 H391 0.950 . S
C399 C397 1.327 . S
C400 C388 1.349 . S
C400 H394 0.950 . S
C400 C401 1.327 . S
C401 H395 0.950 . S
C401 C400 1.327 . S
C401 C405 1.429 . S
C402 C385 1.574 1_455 S
C402 H396 0.949 . S
C402 C406 1.368 . S
C403 C384 1.429 . S
C403 C397 1.429 . S
C403 C404 1.523 . S
C404 C385 1.368 . S
C404 C398 1.368 . S
C404 C403 1.523 . S
C405 C389 1.429 . S
C405 C401 1.429 . S
C405 C406 1.523 . S
C406 C390 1.368 . S
C406 C402 1.368 . S
C406 C405 1.523 . S
H407 C382 0.950 . S
H408 C384 0.950 . S
H409 C385 0.949 . S
H410 C387 0.950 . S
H411 C389 0.950 . S
C412 C413 1.349 . S
C412 C414 1.327 . S
C412 H437 0.950 . S
C413 C412 1.349 . S
C413 C429 1.349 . S
C414 C412 1.327 . S
C414 C433 1.429 . S
C414 H438 0.950 . S
C415 C432 1.574 1_565 S
C415 C434 1.368 . S
C415 H439 0.949 . S
H416 C420 0.949 . S
C417 C418 1.349 . S
C417 C419 1.327 . S
C417 H440 0.950 . S
C418 C417 1.349 . S
C418 C430 1.349 . S
C419 C417 1.327 . S
C419 C435 1.429 . S
C419 H441 0.950 . S
C420 H416 0.949 . S
C420 C428 1.574 1_545 S
C420 C436 1.368 . S
H421 C429 0.950 . S
H422 C427 0.950 . S
H423 C428 0.949 . S
H424 C430 0.950 . S
H425 C431 0.950 . S
H426 C432 0.949 . S
C427 H422 0.950 . S
C427 C429 1.327 . S
C427 C433 1.429 . S
C428 C420 1.574 1_565 S
C428 H423 0.949 . S
C428 C434 1.368 . S
C429 C413 1.349 . S
C429 H421 0.950 . S
C429 C427 1.327 . S
C430 C418 1.349 . S
C430 H424 0.950 . S
C430 C431 1.327 . S
C431 H425 0.950 . S
C431 C430 1.327 . S
C431 C435 1.429 . S
C432 C415 1.574 1_545 S
C432 H426 0.949 . S
C432 C436 1.368 . S
C433 C414 1.429 . S
C433 C427 1.429 . S
C433 C434 1.523 . S
C434 C415 1.368 . S
C434 C428 1.368 . S
C434 C433 1.523 . S
C435 C419 1.429 . S
C435 C431 1.429 . S
C435 C436 1.523 . S
C436 C420 1.368 . S
C436 C432 1.368 . S
C436 C435 1.523 . S
H437 C412 0.950 . S
H438 C414 0.950 . S
H439 C415 0.949 . S
H440 C417 0.950 . S
H441 C419 0.950 . S
C442 C443 1.349 . S
C442 C444 1.327 . S
C442 H467 0.950 . S
C443 C442 1.349 . S
C443 C459 1.349 . S
C444 C442 1.327 . S
C444 C463 1.429 . S
C444 H468 0.950 . S
C445 C462 1.574 1_655 S
C445 C464 1.368 . S
C445 H469 0.949 . S
H446 C450 0.949 . S
C447 C448 1.349 . S
C447 C449 1.327 . S
C447 H470 0.950 . S
C448 C447 1.349 . S
C448 C460 1.349 . S
C449 C447 1.327 . S
C449 C465 1.429 . S
C449 H471 0.950 . S
C450 H446 0.949 . S
C450 C458 1.574 1_455 S
C450 C466 1.368 . S
H451 C459 0.950 1_556 S
H452 C457 0.950 . S
H453 C458 0.949 . S
H454 C460 0.950 . S
H455 C461 0.950 . S
H456 C462 0.949 . S
C457 H452 0.950 . S
C457 C459 1.327 . S
C457 C463 1.429 . S
C458 C450 1.574 1_655 S
C458 H453 0.949 . S
C458 C464 1.368 . S
C459 C443 1.349 . S
C459 H451 0.950 1_554 S
C459 C457 1.327 . S
C460 C448 1.349 . S
C460 H454 0.950 . S
C460 C461 1.327 . S
C461 H455 0.950 . S
C461 C460 1.327 . S
C461 C465 1.429 . S
C462 C445 1.574 1_455 S
C462 H456 0.949 . S
C462 C466 1.368 . S
C463 C444 1.429 . S
C463 C457 1.429 . S
C463 C464 1.523 . S
C464 C445 1.368 . S
C464 C458 1.368 . S
C464 C463 1.523 . S
C465 C449 1.429 . S
C465 C461 1.429 . S
C465 C466 1.523 . S
C466 C450 1.368 . S
C466 C462 1.368 . S
C466 C465 1.523 . S
H467 C442 0.950 . S
H468 C444 0.950 . S
H469 C445 0.949 . S
H470 C447 0.950 . S
H471 C449 0.950 . S
C472 C473 1.349 . S
C472 C474 1.327 . S
C472 H497 0.950 . S
C473 C472 1.349 . S
C473 C489 1.349 . S
C474 C472 1.327 . S
C474 C493 1.429 . S
C474 H498 0.950 . S
C475 C492 1.574 . S
C475 C494 1.368 . S
C475 H499 0.949 1_554 S
H476 C480 0.949 . S
C477 C478 1.349 . S
C477 C479 1.327 . S
C477 H500 0.950 . S
C478 C477 1.349 . S
C478 C490 1.349 . S
C479 C477 1.327 . S
C479 C495 1.429 . S
C479 H501 0.950 . S
C480 H476 0.949 . S
C480 C488 1.574 . S
C480 C496 1.368 . S
H481 C489 0.950 . S
H482 C487 0.950 . S
H483 C488 0.949 . S
H484 C490 0.950 . S
H485 C491 0.950 . S
H486 C492 0.949 . S
C487 H482 0.950 . S
C487 C489 1.327 . S
C487 C493 1.429 . S
C488 C480 1.574 . S
C488 H483 0.949 . S
C488 C494 1.368 . S
C489 C473 1.349 . S
C489 H481 0.950 . S
C489 C487 1.327 . S
C490 C478 1.349 . S
C490 H484 0.950 . S
C490 C491 1.327 . S
C491 H485 0.950 . S
C491 C490 1.327 . S
C491 C495 1.429 . S
C492 C475 1.574 . S
C492 H486 0.949 . S
C492 C496 1.368 . S
C493 C474 1.429 . S
C493 C487 1.429 . S
C493 C494 1.523 1_556 S
C494 C475 1.368 . S
C494 C488 1.368 . S
C494 C493 1.523 1_554 S
C495 C479 1.429 . S
C495 C491 1.429 . S
C495 C496 1.523 . S
C496 C480 1.368 . S
C496 C492 1.368 . S
C496 C495 1.523 . S
H497 C472 0.950 . S
H498 C474 0.950 . S
H499 C475 0.949 1_556 S
H500 C477 0.950 . S
H501 C479 0.950 . S
C502 C503 1.349 . S
C502 C504 1.327 . S
C502 H527 0.950 . S
C503 C502 1.349 . S
C503 C519 1.349 . S
C504 C502 1.327 . S
C504 C523 1.429 . S
C504 H528 0.950 . S
C505 C522 1.574 . S
C505 C524 1.368 . S
C505 H529 0.949 . S
H506 C510 0.949 . S
C507 C508 1.349 . S
C507 C509 1.327 . S
C507 H530 0.950 . S
C508 C507 1.349 . S
C508 C520 1.349 . S
C509 C507 1.327 . S
C509 C525 1.429 . S
C509 H531 0.950 . S
C510 H506 0.949 . S
C510 C518 1.574 . S
C510 C526 1.368 . S
H511 C519 0.950 . S
H512 C517 0.950 . S
H513 C518 0.949 . S
H514 C520 0.950 . S
H515 C521 0.950 . S
H516 C522 0.949 . S
C517 H512 0.950 . S
C517 C519 1.327 . S
C517 C523 1.429 . S
C518 C510 1.574 . S
C518 H513 0.949 . S
C518 C524 1.368 . S
C519 C503 1.349 . S
C519 H511 0.950 . S
C519 C517 1.327 . S
C520 C508 1.349 . S
C520 H514 0.950 . S
C520 C521 1.327 . S
C521 H515 0.950 . S
C521 C520 1.327 . S
C521 C525 1.429 . S
C522 C505 1.574 . S
C522 H516 0.949 . S
C522 C526 1.368 . S
C523 C504 1.429 . S
C523 C517 1.429 . S
C523 C524 1.523 . S
C524 C505 1.368 . S
C524 C518 1.368 . S
C524 C523 1.523 . S
C525 C509 1.429 . S
C525 C521 1.429 . S
C525 C526 1.523 . S
C526 C510 1.368 . S
C526 C522 1.368 . S
C526 C525 1.523 . S
H527 C502 0.950 . S
H528 C504 0.950 . S
H529 C505 0.949 . S
H530 C507 0.950 . S
H531 C509 0.950 . S
C532 C533 1.349 . S
C532 C534 1.327 . S
C532 H557 0.950 . S
C533 C532 1.349 . S
C533 C549 1.349 . S
C534 C532 1.327 . S
C534 C553 1.429 . S
C534 H558 0.950 . S
C535 C552 1.574 . S
C535 C554 1.368 . S
C535 H559 0.949 . S
H536 C540 0.949 . S
C537 C538 1.349 . S
C537 C539 1.327 . S
C537 H560 0.950 . S
C538 C537 1.349 . S
C538 C550 1.349 . S
C539 C537 1.327 . S
C539 C555 1.429 . S
C539 H561 0.950 . S
C540 H536 0.949 . S
C540 C548 1.574 . S
C540 C556 1.368 . S
H541 C549 0.950 . S
H542 C547 0.950 . S
H543 C548 0.949 . S
H544 C550 0.950 . S
H545 C551 0.950 . S
H546 C552 0.949 . S
C547 H542 0.950 . S
C547 C549 1.327 . S
C547 C553 1.429 . S
C548 C540 1.574 . S
C548 H543 0.949 . S
C548 C554 1.368 . S
C549 C533 1.349 . S
C549 H541 0.950 . S
C549 C547 1.327 . S
C550 C538 1.349 . S
C550 H544 0.950 . S
C550 C551 1.327 . S
C551 H545 0.950 . S
C551 C550 1.327 . S
C551 C555 1.429 . S
C552 C535 1.574 . S
C552 H546 0.949 . S
C552 C556 1.368 . S
C553 C534 1.429 . S
C553 C547 1.429 . S
C553 C554 1.523 . S
C554 C535 1.368 . S
C554 C548 1.368 . S
C554 C553 1.523 . S
C555 C539 1.429 . S
C555 C551 1.429 . S
C555 C556 1.523 . S
C556 C540 1.368 . S
C556 C552 1.368 . S
C556 C555 1.523 . S
H557 C532 0.950 . S
H558 C534 0.950 . S
H559 C535 0.949 . S
H560 C537 0.950 . S
H561 C539 0.950 . S
C562 C563 1.349 . S
C562 C564 1.327 . S
C562 H587 0.950 . S
C563 C562 1.349 . S
C563 C579 1.349 . S
C564 C562 1.327 . S
C564 C583 1.429 . S
C564 H588 0.950 . S
C565 C582 1.574 . S
C565 C584 1.368 . S
C565 H589 0.949 . S
H566 C570 0.949 . S
C567 C568 1.349 . S
C567 C569 1.327 . S
C567 H590 0.950 . S
C568 C567 1.349 . S
C568 C580 1.349 . S
C569 C567 1.327 . S
C569 C585 1.429 . S
C569 H591 0.950 . S
C570 H566 0.949 . S
C570 C578 1.574 . S
C570 C586 1.368 . S
H571 C579 0.950 . S
H572 C577 0.950 . S
H573 C578 0.949 . S
H574 C580 0.950 . S
H575 C581 0.950 . S
H576 C582 0.949 . S
C577 H572 0.950 . S
C577 C579 1.327 . S
C577 C583 1.429 . S
C578 C570 1.574 . S
C578 H573 0.949 . S
C578 C584 1.368 . S
C579 C563 1.349 . S
C579 H571 0.950 . S
C579 C577 1.327 . S
C580 C568 1.349 . S
C580 H574 0.950 . S
C580 C581 1.327 . S
C581 H575 0.950 . S
C581 C580 1.327 . S
C581 C585 1.429 . S
C582 C565 1.574 . S
C582 H576 0.949 . S
C582 C586 1.368 . S
C583 C564 1.429 . S
C583 C577 1.429 . S
C583 C584 1.523 . S
C584 C565 1.368 . S
C584 C578 1.368 . S
C584 C583 1.523 . S
C585 C569 1.429 . S
C585 C581 1.429 . S
C585 C586 1.523 . S
C586 C570 1.368 . S
C586 C582 1.368 . S
C586 C585 1.523 . S
H587 C562 0.950 . S
H588 C564 0.950 . S
H589 C565 0.949 . S
H590 C567 0.950 . S
H591 C569 0.950 . S
C113 C8 1.054 . S
C118 C92 1.054 . S
C143 C22 1.055 . S
C148 C106 1.055 . S
C173 C64 1.055 . S
C178 C36 1.055 . S
C203 C78 1.054 . S
C208 C50 1.054 . S
C233 C6 1.518 . S
C238 C76 1.518 . S
C263 C20 1.518 . S
C268 C90 1.518 . S
C293 C104 1.517 . S
C298 C34 1.517 . S
C323 C48 1.518 . S
C328 C62 1.518 . S
C353 C65 1.558 . S
C358 C9 1.558 . S
C383 C23 1.558 . S
C388 C79 1.558 . S
C413 C37 1.558 . S
C418 C93 1.558 . S
C443 C107 1.558 . S
C448 C51 1.558 . S
C473 C91 1.319 . S
C478 C7 1.319 . S
C503 C105 1.319 . S
C508 C21 1.319 . S
C533 C35 1.319 . S
C538 C63 1.319 . S
C563 C49 1.319 . S
C568 C77 1.319 . S
