# Generated by pormake.
# Topology uns, (4)-cn, num edge types: 1
# Building blocks:
#     Node 0, Type 0, BuildingBlock: NAWXER_clean_sbu_0, # of connection points: 4
#     Node 1, Type 0, BuildingBlock: NAWXER_clean_sbu_0, # of connection points: 4
#     Node 2, Type 0, BuildingBlock: NAWXER_clean_sbu_0, # of connection points: 4
#     Node 3, Type 0, BuildingBlock: NAWXER_clean_sbu_0, # of connection points: 4
#     Node 4, Type 0, BuildingBlock: NAWXER_clean_sbu_0, # of connection points: 4
#     Node 5, Type 0, BuildingBlock: NAWXER_clean_sbu_0, # of connection points: 4
#     Node 6, Type 0, BuildingBlock: NAWXER_clean_sbu_0, # of connection points: 4
#     Node 7, Type 0, BuildingBlock: NAWXER_clean_sbu_0, # of connection points: 4
#     Node 8, Type 0, BuildingBlock: NAWXER_clean_sbu_0, # of connection points: 4
#     Node 9, Type 0, BuildingBlock: NAWXER_clean_sbu_0, # of connection points: 4
#     Node 10, Type 0, BuildingBlock: NAWXER_clean_sbu_0, # of connection points: 4
#     Node 11, Type 0, BuildingBlock: NAWXER_clean_sbu_0, # of connection points: 4
#     Node 12, Type 0, BuildingBlock: NAWXER_clean_sbu_0, # of connection points: 4
#     Node 13, Type 0, BuildingBlock: NAWXER_clean_sbu_0, # of connection points: 4
#     Node 14, Type 0, BuildingBlock: NAWXER_clean_sbu_0, # of connection points: 4
#     Node 15, Type 0, BuildingBlock: NAWXER_clean_sbu_0, # of connection points: 4
#     Node 16, Type 0, BuildingBlock: NAWXER_clean_sbu_0, # of connection points: 4
#     Node 17, Type 0, BuildingBlock: NAWXER_clean_sbu_0, # of connection points: 4
#     Node 18, Type 0, BuildingBlock: NAWXER_clean_sbu_0, # of connection points: 4
#     Node 19, Type 0, BuildingBlock: NAWXER_clean_sbu_0, # of connection points: 4
#     Node 20, Type 0, BuildingBlock: NAWXER_clean_sbu_0, # of connection points: 4
#     Node 21, Type 0, BuildingBlock: NAWXER_clean_sbu_0, # of connection points: 4
#     Node 22, Type 0, BuildingBlock: NAWXER_clean_sbu_0, # of connection points: 4
#     Node 23, Type 0, BuildingBlock: NAWXER_clean_sbu_0, # of connection points: 4
#     Node 24, Type 0, BuildingBlock: NAWXER_clean_sbu_0, # of connection points: 4
#     Node 25, Type 0, BuildingBlock: NAWXER_clean_sbu_0, # of connection points: 4
#     Node 26, Type 0, BuildingBlock: NAWXER_clean_sbu_0, # of connection points: 4
#     Node 27, Type 0, BuildingBlock: NAWXER_clean_sbu_0, # of connection points: 4
#     Node 28, Type 0, BuildingBlock: NAWXER_clean_sbu_0, # of connection points: 4
#     Node 29, Type 0, BuildingBlock: NAWXER_clean_sbu_0, # of connection points: 4
#     Node 30, Type 0, BuildingBlock: NAWXER_clean_sbu_0, # of connection points: 4
#     Node 31, Type 0, BuildingBlock: NAWXER_clean_sbu_0, # of connection points: 4
#     Node 32, Type 0, BuildingBlock: NAWXER_clean_sbu_0, # of connection points: 4
#     Node 33, Type 0, BuildingBlock: NAWXER_clean_sbu_0, # of connection points: 4
#     Node 34, Type 0, BuildingBlock: NAWXER_clean_sbu_0, # of connection points: 4
#     Node 35, Type 0, BuildingBlock: NAWXER_clean_sbu_0, # of connection points: 4
#     Edge 36, Type (0, 0), BuildingBlock: KIFKEQ_clean_linker_1, # of connection points: 2
#     Edge 37, Type (0, 0), BuildingBlock: KIFKEQ_clean_linker_1, # of connection points: 2
#     Edge 38, Type (0, 0), BuildingBlock: KIFKEQ_clean_linker_1, # of connection points: 2
#     Edge 39, Type (0, 0), BuildingBlock: KIFKEQ_clean_linker_1, # of connection points: 2
#     Edge 40, Type (0, 0), BuildingBlock: KIFKEQ_clean_linker_1, # of connection points: 2
#     Edge 41, Type (0, 0), BuildingBlock: KIFKEQ_clean_linker_1, # of connection points: 2
#     Edge 42, Type (0, 0), BuildingBlock: KIFKEQ_clean_linker_1, # of connection points: 2
#     Edge 43, Type (0, 0), BuildingBlock: KIFKEQ_clean_linker_1, # of connection points: 2
#     Edge 44, Type (0, 0), BuildingBlock: KIFKEQ_clean_linker_1, # of connection points: 2
#     Edge 45, Type (0, 0), BuildingBlock: KIFKEQ_clean_linker_1, # of connection points: 2
#     Edge 46, Type (0, 0), BuildingBlock: KIFKEQ_clean_linker_1, # of connection points: 2
#     Edge 47, Type (0, 0), BuildingBlock: KIFKEQ_clean_linker_1, # of connection points: 2
#     Edge 48, Type (0, 0), BuildingBlock: KIFKEQ_clean_linker_1, # of connection points: 2
#     Edge 49, Type (0, 0), BuildingBlock: KIFKEQ_clean_linker_1, # of connection points: 2
#     Edge 50, Type (0, 0), BuildingBlock: KIFKEQ_clean_linker_1, # of connection points: 2
#     Edge 51, Type (0, 0), BuildingBlock: KIFKEQ_clean_linker_1, # of connection points: 2
#     Edge 52, Type (0, 0), BuildingBlock: KIFKEQ_clean_linker_1, # of connection points: 2
#     Edge 53, Type (0, 0), BuildingBlock: KIFKEQ_clean_linker_1, # of connection points: 2
#     Edge 54, Type (0, 0), BuildingBlock: KIFKEQ_clean_linker_1, # of connection points: 2
#     Edge 55, Type (0, 0), BuildingBlock: KIFKEQ_clean_linker_1, # of connection points: 2
#     Edge 56, Type (0, 0), BuildingBlock: KIFKEQ_clean_linker_1, # of connection points: 2
#     Edge 57, Type (0, 0), BuildingBlock: KIFKEQ_clean_linker_1, # of connection points: 2
#     Edge 58, Type (0, 0), BuildingBlock: KIFKEQ_clean_linker_1, # of connection points: 2
#     Edge 59, Type (0, 0), BuildingBlock: KIFKEQ_clean_linker_1, # of connection points: 2
#     Edge 60, Type (0, 0), BuildingBlock: KIFKEQ_clean_linker_1, # of connection points: 2
#     Edge 61, Type (0, 0), BuildingBlock: KIFKEQ_clean_linker_1, # of connection points: 2
#     Edge 62, Type (0, 0), BuildingBlock: KIFKEQ_clean_linker_1, # of connection points: 2
#     Edge 63, Type (0, 0), BuildingBlock: KIFKEQ_clean_linker_1, # of connection points: 2
#     Edge 64, Type (0, 0), BuildingBlock: KIFKEQ_clean_linker_1, # of connection points: 2
#     Edge 65, Type (0, 0), BuildingBlock: KIFKEQ_clean_linker_1, # of connection points: 2
#     Edge 66, Type (0, 0), BuildingBlock: KIFKEQ_clean_linker_1, # of connection points: 2
#     Edge 67, Type (0, 0), BuildingBlock: KIFKEQ_clean_linker_1, # of connection points: 2
#     Edge 68, Type (0, 0), BuildingBlock: KIFKEQ_clean_linker_1, # of connection points: 2
#     Edge 69, Type (0, 0), BuildingBlock: KIFKEQ_clean_linker_1, # of connection points: 2
#     Edge 70, Type (0, 0), BuildingBlock: KIFKEQ_clean_linker_1, # of connection points: 2
#     Edge 71, Type (0, 0), BuildingBlock: KIFKEQ_clean_linker_1, # of connection points: 2
#     Edge 72, Type (0, 0), BuildingBlock: KIFKEQ_clean_linker_1, # of connection points: 2
#     Edge 73, Type (0, 0), BuildingBlock: KIFKEQ_clean_linker_1, # of connection points: 2
#     Edge 74, Type (0, 0), BuildingBlock: KIFKEQ_clean_linker_1, # of connection points: 2
#     Edge 75, Type (0, 0), BuildingBlock: KIFKEQ_clean_linker_1, # of connection points: 2
#     Edge 76, Type (0, 0), BuildingBlock: KIFKEQ_clean_linker_1, # of connection points: 2
#     Edge 77, Type (0, 0), BuildingBlock: KIFKEQ_clean_linker_1, # of connection points: 2
#     Edge 78, Type (0, 0), BuildingBlock: KIFKEQ_clean_linker_1, # of connection points: 2
#     Edge 79, Type (0, 0), BuildingBlock: KIFKEQ_clean_linker_1, # of connection points: 2
#     Edge 80, Type (0, 0), BuildingBlock: KIFKEQ_clean_linker_1, # of connection points: 2
#     Edge 81, Type (0, 0), BuildingBlock: KIFKEQ_clean_linker_1, # of connection points: 2
#     Edge 82, Type (0, 0), BuildingBlock: KIFKEQ_clean_linker_1, # of connection points: 2
#     Edge 83, Type (0, 0), BuildingBlock: KIFKEQ_clean_linker_1, # of connection points: 2
#     Edge 84, Type (0, 0), BuildingBlock: KIFKEQ_clean_linker_1, # of connection points: 2
#     Edge 85, Type (0, 0), BuildingBlock: KIFKEQ_clean_linker_1, # of connection points: 2
#     Edge 86, Type (0, 0), BuildingBlock: KIFKEQ_clean_linker_1, # of connection points: 2
#     Edge 87, Type (0, 0), BuildingBlock: KIFKEQ_clean_linker_1, # of connection points: 2
#     Edge 88, Type (0, 0), BuildingBlock: KIFKEQ_clean_linker_1, # of connection points: 2
#     Edge 89, Type (0, 0), BuildingBlock: KIFKEQ_clean_linker_1, # of connection points: 2
#     Edge 90, Type (0, 0), BuildingBlock: KIFKEQ_clean_linker_1, # of connection points: 2
#     Edge 91, Type (0, 0), BuildingBlock: KIFKEQ_clean_linker_1, # of connection points: 2
#     Edge 92, Type (0, 0), BuildingBlock: KIFKEQ_clean_linker_1, # of connection points: 2
#     Edge 93, Type (0, 0), BuildingBlock: KIFKEQ_clean_linker_1, # of connection points: 2
#     Edge 94, Type (0, 0), BuildingBlock: KIFKEQ_clean_linker_1, # of connection points: 2
#     Edge 95, Type (0, 0), BuildingBlock: KIFKEQ_clean_linker_1, # of connection points: 2
#     Edge 96, Type (0, 0), BuildingBlock: KIFKEQ_clean_linker_1, # of connection points: 2
#     Edge 97, Type (0, 0), BuildingBlock: KIFKEQ_clean_linker_1, # of connection points: 2
#     Edge 98, Type (0, 0), BuildingBlock: KIFKEQ_clean_linker_1, # of connection points: 2
#     Edge 99, Type (0, 0), BuildingBlock: KIFKEQ_clean_linker_1, # of connection points: 2
#     Edge 100, Type (0, 0), BuildingBlock: KIFKEQ_clean_linker_1, # of connection points: 2
#     Edge 101, Type (0, 0), BuildingBlock: KIFKEQ_clean_linker_1, # of connection points: 2
#     Edge 102, Type (0, 0), BuildingBlock: KIFKEQ_clean_linker_1, # of connection points: 2
#     Edge 103, Type (0, 0), BuildingBlock: KIFKEQ_clean_linker_1, # of connection points: 2
#     Edge 104, Type (0, 0), BuildingBlock: KIFKEQ_clean_linker_1, # of connection points: 2
#     Edge 105, Type (0, 0), BuildingBlock: KIFKEQ_clean_linker_1, # of connection points: 2
#     Edge 106, Type (0, 0), BuildingBlock: KIFKEQ_clean_linker_1, # of connection points: 2
#     Edge 107, Type (0, 0), BuildingBlock: KIFKEQ_clean_linker_1, # of connection points: 2
# Relax obj value: 0.008
# Max RMSD: 0.156
# Mean RMSD: 0.156
data_MOF--net-uns--node1-NAWXER_clean_sbu_0--edge1-KIFKEQ_clean_linker_1
_symmetry_space_group_name_H-M    P1
_symmetry_Int_Tables_number       1
_symmetry_cell_setting            triclinic
loop_
_symmetry_equiv_pos_as_xyz
'x, y, z'
_cell_length_a     61.316961
_cell_length_b     61.29743
_cell_length_c     46.441039
_cell_angle_alpha  90.007149
_cell_angle_beta   90.019778
_cell_angle_gamma 119.99643
loop_
_atom_site_label
_atom_site_type_symbol
_atom_site_fract_x
_atom_site_fract_y
_atom_site_fract_z
_atom_type_partial_charge
C0 C 0.28168 0.18474 0.10262 0.0
C1 C 0.22039 0.19936 0.05212 0.0
O2 O 0.26071 0.18137 0.11185 0.0
Zn3 Zn 0.25074 0.19148 0.07726 0.0
O4 O 0.28859 0.19266 0.07682 0.0
Zn5 Zn 0.27413 0.20347 0.0406 0.0
O6 O 0.29938 0.2383 0.03539 0.0
O7 O 0.27788 0.23118 0.07572 0.0
O8 O 0.23954 0.20436 0.03637 0.0
O9 O 0.21919 0.19122 0.07756 0.0
O10 O 0.24422 0.16198 0.04702 0.0
O11 O 0.27141 0.17995 0.01156 0.0
C12 C 0.29526 0.24653 0.05867 0.0
C13 C 0.2536 0.16028 0.02298 0.0
C14 C 0.81291 0.02213 0.05709 0.0
C15 C 0.82897 0.09993 0.10393 0.0
O16 O 0.82298 0.03058 0.08147 0.0
Zn17 Zn 0.8224 0.06187 0.08012 0.0
O18 O 0.80739 0.03559 0.04086 0.0
Zn19 Zn 0.81042 0.07198 0.04239 0.0
O20 O 0.83433 0.09064 0.01235 0.0
O21 O 0.85217 0.0851 0.05078 0.0
O22 O 0.82141 0.09851 0.07783 0.0
O23 O 0.832 0.08238 0.11414 0.0
O24 O 0.78269 0.04973 0.078 0.0
O25 O 0.77589 0.06322 0.03672 0.0
C26 C 0.85403 0.09447 0.02561 0.0
C27 C 0.76753 0.05158 0.06041 0.0
C28 C 0.9165 0.75921 0.02544 0.0
C29 C 0.96075 0.71716 0.06115 0.0
O30 O 0.91832 0.74138 0.014 0.0
Zn31 Zn 0.9391 0.73856 0.04301 0.0
O32 O 0.92763 0.76861 0.04946 0.0
Zn33 Zn 0.95055 0.76195 0.07968 0.0
O34 O 0.98197 0.79337 0.08011 0.0
O35 O 0.97475 0.773 0.0389 0.0
O36 O 0.96286 0.73459 0.0782 0.0
O37 O 0.94846 0.71312 0.03783 0.0
O38 O 0.91383 0.72418 0.0792 0.0
O39 O 0.93046 0.75205 0.11427 0.0
C40 C 0.98896 0.79209 0.05473 0.0
C41 C 0.91283 0.7311 0.105 0.0
C42 C 0.1618 0.25022 0.47965 0.0
C43 C 0.24755 0.29139 0.44269 0.0
O44 O 0.18166 0.26815 0.49057 0.0
Zn45 Zn 0.20496 0.27065 0.46116 0.0
O46 O 0.16311 0.24053 0.4557 0.0
Zn47 Zn 0.19187 0.24659 0.42508 0.0
O48 O 0.19119 0.21476 0.42514 0.0
O49 O 0.20705 0.23668 0.46501 0.0
O50 O 0.232 0.27385 0.42584 0.0
O51 O 0.23961 0.29586 0.46598 0.0
O52 O 0.19465 0.2852 0.42467 0.0
O53 O 0.18089 0.25616 0.39071 0.0
C54 C 0.20124 0.21708 0.44971 0.0
C55 C 0.18579 0.27785 0.39926 0.0
C56 C 0.79455 0.98696 0.4492 0.0
C57 C 0.73364 0.9101 0.40008 0.0
O58 O 0.79671 0.97883 0.42484 0.0
Zn59 Zn 0.76491 0.94776 0.42537 0.0
O60 O 0.77503 0.97345 0.46473 0.0
Zn61 Zn 0.74102 0.9373 0.46147 0.0
O62 O 0.74366 0.91697 0.4914 0.0
O63 O 0.77118 0.92556 0.45658 0.0
O64 O 0.72631 0.91191 0.42539 0.0
O65 O 0.7553 0.92678 0.39142 0.0
O66 O 0.73768 0.9607 0.42566 0.0
O67 O 0.71584 0.94681 0.46596 0.0
C68 C 0.7616 0.91493 0.48072 0.0
C69 C 0.72021 0.95894 0.44247 0.0
C70 C 0.02525 0.81279 0.44366 0.0
C71 C 0.10153 0.82616 0.39575 0.0
O72 O 0.03219 0.81977 0.41794 0.0
Zn73 Zn 0.06377 0.82011 0.41992 0.0
O74 O 0.03927 0.80855 0.46055 0.0
Zn75 Zn 0.07454 0.80898 0.45776 0.0
O76 O 0.09489 0.83325 0.4865 0.0
O77 O 0.08665 0.85038 0.44937 0.0
O78 O 0.10008 0.81847 0.42177 0.0
O79 O 0.08437 0.82995 0.38589 0.0
O80 O 0.05151 0.7805 0.42282 0.0
O81 O 0.06466 0.77422 0.46454 0.0
C82 C 0.0973 0.85271 0.47389 0.0
C83 C 0.05307 0.76552 0.44091 0.0
C84 C 0.76135 0.84929 0.98206 0.0
C85 C 0.72031 0.76407 0.94323 0.0
O86 O 0.7711 0.84834 0.95801 0.0
Zn87 Zn 0.76512 0.82004 0.92669 0.0
O88 O 0.74335 0.82927 0.99259 0.0
Zn89 Zn 0.74098 0.80642 0.96261 0.0
O90 O 0.77501 0.80441 0.96622 0.0
O91 O 0.79698 0.82082 0.92653 0.0
O92 O 0.71579 0.77169 0.96673 0.0
O93 O 0.73791 0.77988 0.92664 0.0
O94 O 0.75566 0.83156 0.89269 0.0
O95 O 0.72651 0.81726 0.92649 0.0
C96 C 0.79467 0.81051 0.95091 0.0
C97 C 0.73395 0.82651 0.90125 0.0
C98 C 0.20209 0.98756 0.94746 0.0
C99 C 0.18678 0.91117 0.89778 0.0
O100 O 0.20728 0.97359 0.96327 0.0
Zn101 Zn 0.20488 0.93742 0.96009 0.0
O102 O 0.1928 0.98 0.92256 0.0
Zn103 Zn 0.19329 0.94875 0.92297 0.0
O104 O 0.16336 0.92547 0.95219 0.0
O105 O 0.18066 0.91739 0.98923 0.0
O106 O 0.18376 0.92892 0.8883 0.0
O107 O 0.19427 0.91201 0.92379 0.0
O108 O 0.2395 0.94643 0.96596 0.0
O109 O 0.23302 0.96109 0.92539 0.0
C110 C 0.16113 0.91485 0.97666 0.0
C111 C 0.24808 0.9589 0.9428 0.0
C112 C 0.09722 0.24807 0.97379 0.0
C113 C 0.05267 0.29101 0.94183 0.0
O114 O 0.08654 0.23994 0.94923 0.0
Zn115 Zn 0.06338 0.24741 0.92018 0.0
O116 O 0.09478 0.26498 0.98674 0.0
Zn117 Zn 0.07447 0.26911 0.95821 0.0
O118 O 0.03928 0.23416 0.96108 0.0
O119 O 0.03186 0.21612 0.91828 0.0
O120 O 0.06459 0.29407 0.96524 0.0
O121 O 0.05102 0.27447 0.9237 0.0
O122 O 0.08349 0.25862 0.88585 0.0
O123 O 0.10019 0.28502 0.92229 0.0
C124 C 0.02515 0.21596 0.94416 0.0
C125 C 0.10121 0.2791 0.896 0.0
C126 C 0.85346 0.76147 0.52433 0.0
C127 C 0.76696 0.71901 0.55907 0.0
O128 O 0.85172 0.7692 0.54939 0.0
Zn129 Zn 0.82225 0.76313 0.57877 0.0
O130 O 0.83368 0.7456 0.51119 0.0
Zn131 Zn 0.8098 0.74084 0.54118 0.0
O132 O 0.80731 0.77449 0.53954 0.0
O133 O 0.82327 0.79524 0.57998 0.0
O134 O 0.77519 0.71562 0.53535 0.0
O135 O 0.78229 0.73584 0.57676 0.0
O136 O 0.83223 0.75232 0.61263 0.0
O137 O 0.8199 0.72484 0.57693 0.0
C138 C 0.81311 0.7936 0.55565 0.0
C139 C 0.82805 0.73121 0.60281 0.0
C140 C 0.28217 0.0998 0.60419 0.0
C141 C 0.22078 0.02411 0.55335 0.0
O142 O 0.28909 0.09886 0.57838 0.0
Zn143 Zn 0.2746 0.07376 0.54202 0.0
O144 O 0.26117 0.0822 0.61334 0.0
Zn145 Zn 0.25116 0.06221 0.57865 0.0
O146 O 0.27822 0.04954 0.57695 0.0
O147 O 0.29979 0.06407 0.53669 0.0
O148 O 0.21959 0.03094 0.57885 0.0
O149 O 0.23993 0.03831 0.53763 0.0
O150 O 0.27194 0.09479 0.51318 0.0
O151 O 0.24464 0.08529 0.54858 0.0
C152 C 0.29559 0.05158 0.55987 0.0
C153 C 0.25407 0.09654 0.52463 0.0
C154 C 0.91249 0.18384 0.60381 0.0
C155 C 0.98896 0.19918 0.55432 0.0
O156 O 0.91421 0.19277 0.5784 0.0
Zn157 Zn 0.93933 0.20311 0.54219 0.0
O158 O 0.92916 0.17887 0.61257 0.0
Zn159 Zn 0.94994 0.18989 0.57844 0.0
O160 O 0.96292 0.23005 0.57778 0.0
O161 O 0.94886 0.2378 0.53747 0.0
O162 O 0.98098 0.18907 0.5788 0.0
O163 O 0.97537 0.20511 0.53881 0.0
O164 O 0.9187 0.17987 0.51259 0.0
O165 O 0.9274 0.1612 0.54764 0.0
C166 C 0.96109 0.24567 0.56089 0.0
C167 C 0.9166 0.15996 0.52357 0.0
C168 C 0.94802 0.51833 0.43886 0.0
C169 C 0.88658 0.53359 0.39003 0.0
O170 O 0.92744 0.51557 0.44862 0.0
Zn171 Zn 0.91704 0.52535 0.41426 0.0
O172 O 0.95449 0.52577 0.41281 0.0
Zn173 Zn 0.93954 0.53658 0.37687 0.0
O174 O 0.96507 0.57127 0.37089 0.0
O175 O 0.94451 0.56489 0.41182 0.0
O176 O 0.90532 0.53817 0.37378 0.0
O177 O 0.8857 0.52554 0.41544 0.0
O178 O 0.90972 0.49527 0.38456 0.0
O179 O 0.93533 0.51253 0.34766 0.0
C180 C 0.96158 0.5799 0.39424 0.0
C181 C 0.91805 0.49305 0.36001 0.0
C182 C 0.4798 0.35764 0.38659 0.0
C183 C 0.4937 0.43372 0.4361 0.0
O184 O 0.48833 0.36503 0.41181 0.0
Zn185 Zn 0.48788 0.39623 0.41086 0.0
O186 O 0.47456 0.3715 0.37061 0.0
Zn187 Zn 0.47524 0.40697 0.37426 0.0
O188 O 0.49862 0.42788 0.3451 0.0
O189 O 0.51697 0.4188 0.38023 0.0
O190 O 0.48506 0.4321 0.41055 0.0
O191 O 0.4985 0.41696 0.44499 0.0
O192 O 0.44788 0.38309 0.40942 0.0
O193 O 0.44038 0.39677 0.36872 0.0
C194 C 0.51841 0.42977 0.3562 0.0
C195 C 0.43234 0.3846 0.39213 0.0
C196 C 0.58366 0.09353 0.35623 0.0
C197 C 0.62818 0.05173 0.39164 0.0
O198 O 0.5855 0.07569 0.34485 0.0
Zn199 Zn 0.6062 0.07288 0.37391 0.0
O200 O 0.59473 0.10292 0.3803 0.0
Zn201 Zn 0.61765 0.09623 0.41055 0.0
O202 O 0.64898 0.1277 0.41107 0.0
O203 O 0.6418 0.1074 0.36982 0.0
O204 O 0.63021 0.06905 0.40882 0.0
O205 O 0.61572 0.0476 0.36845 0.0
O206 O 0.58091 0.05845 0.41016 0.0
O207 O 0.59767 0.08634 0.44519 0.0
C208 C 0.65598 0.12647 0.38569 0.0
C209 C 0.57999 0.0654 0.43597 0.0
C210 C 0.82845 0.58248 0.80765 0.0
C211 C 0.91528 0.62504 0.77382 0.0
O212 O 0.84806 0.59852 0.82093 0.0
Zn213 Zn 0.87217 0.60313 0.7914 0.0
O214 O 0.83047 0.57455 0.78279 0.0
Zn215 Zn 0.86044 0.58049 0.75402 0.0
O216 O 0.8596 0.54844 0.75383 0.0
O217 O 0.87456 0.5695 0.7943 0.0
O218 O 0.90017 0.60785 0.75637 0.0
O219 O 0.90678 0.62875 0.79716 0.0
O220 O 0.8615 0.61818 0.75523 0.0
O221 O 0.85118 0.59105 0.71939 0.0
C222 C 0.86912 0.55024 0.77861 0.0
C223 C 0.85412 0.61174 0.72913 0.0
C224 C 0.38738 0.29231 0.77672 0.0
C225 C 0.4281 0.24726 0.81356 0.0
O226 O 0.38293 0.27995 0.80005 0.0
Zn227 Zn 0.40789 0.27019 0.79518 0.0
O228 O 0.40481 0.29413 0.75982 0.0
Zn229 Zn 0.4318 0.28098 0.75898 0.0
O230 O 0.42201 0.26032 0.72472 0.0
O231 O 0.3931 0.24524 0.75879 0.0
O232 O 0.43775 0.25822 0.78959 0.0
O233 O 0.41026 0.24928 0.82456 0.0
O234 O 0.44215 0.30601 0.79901 0.0
O235 O 0.46376 0.31194 0.75894 0.0
C236 C 0.40035 0.24361 0.73338 0.0
C237 C 0.46172 0.31966 0.78363 0.0
C238 C 0.76376 0.18496 0.80923 0.0
C239 C 0.7201 0.09803 0.77548 0.0
O240 O 0.75993 0.16535 0.82273 0.0
Zn241 Zn 0.74081 0.1411 0.79308 0.0
O242 O 0.75411 0.18286 0.78419 0.0
Zn243 Zn 0.73037 0.15281 0.75538 0.0
O244 O 0.69914 0.15353 0.7544 0.0
O245 O 0.70452 0.13825 0.79503 0.0
O246 O 0.71815 0.11309 0.75784 0.0
O247 O 0.73195 0.10654 0.79904 0.0
O248 O 0.76688 0.15159 0.75724 0.0
O249 O 0.75045 0.16199 0.72107 0.0
C250 C 0.69093 0.14369 0.77892 0.0
C251 C 0.76803 0.15892 0.73108 0.0
C252 C 0.43026 0.18505 0.30971 0.0
C253 C 0.38775 0.09844 0.27434 0.0
O254 O 0.43878 0.18301 0.28526 0.0
Zn255 Zn 0.43238 0.15369 0.25552 0.0
O256 O 0.41315 0.16541 0.32197 0.0
Zn257 Zn 0.40924 0.14132 0.29255 0.0
O258 O 0.44305 0.13909 0.2955 0.0
O259 O 0.46423 0.15431 0.25511 0.0
O260 O 0.38388 0.1066 0.29785 0.0
O261 O 0.405 0.11381 0.25711 0.0
O262 O 0.42215 0.16412 0.22136 0.0
O263 O 0.39407 0.15143 0.25635 0.0
C264 C 0.46235 0.14463 0.27981 0.0
C265 C 0.40084 0.15975 0.23064 0.0
C266 C 0.86805 0.32157 0.27936 0.0
C267 C 0.85456 0.24577 0.22931 0.0
O268 O 0.8729 0.30741 0.29527 0.0
Zn269 Zn 0.87198 0.27203 0.29166 0.0
O270 O 0.86007 0.31462 0.25386 0.0
Zn271 Zn 0.86033 0.2832 0.25434 0.0
O272 O 0.8305 0.2599 0.28367 0.0
O273 O 0.84773 0.25131 0.32039 0.0
O274 O 0.8504 0.26283 0.21993 0.0
O275 O 0.86245 0.24709 0.2552 0.0
O276 O 0.90674 0.28177 0.29776 0.0
O277 O 0.90003 0.29563 0.25673 0.0
C278 C 0.82823 0.249 0.30796 0.0
C279 C 0.91518 0.29379 0.27431 0.0
C280 C 0.76346 0.58229 0.31178 0.0
C281 C 0.72028 0.62534 0.27575 0.0
O282 O 0.75316 0.57383 0.2872 0.0
Zn283 Zn 0.73062 0.58047 0.2571 0.0
O284 O 0.76088 0.59942 0.32391 0.0
Zn285 Zn 0.74114 0.6035 0.29417 0.0
O286 O 0.70489 0.56987 0.29663 0.0
O287 O 0.6993 0.54872 0.25627 0.0
O288 O 0.73208 0.62902 0.2994 0.0
O289 O 0.71838 0.60809 0.25848 0.0
O290 O 0.75154 0.59065 0.22319 0.0
O291 O 0.76677 0.61869 0.25826 0.0
C292 C 0.69123 0.55065 0.28078 0.0
C293 C 0.76847 0.61193 0.23259 0.0
C294 C 0.49546 0.06437 0.93525 0.0
C295 C 0.4793 0.1251 0.8864 0.0
O296 O 0.4863 0.05698 0.90996 0.0
Zn297 Zn 0.47548 0.07162 0.87394 0.0
O298 O 0.50038 0.086 0.94395 0.0
Zn299 Zn 0.48892 0.09549 0.91005 0.0
O300 O 0.44875 0.06818 0.90982 0.0
O301 O 0.44082 0.04637 0.86949 0.0
O302 O 0.48965 0.12725 0.91073 0.0
O303 O 0.47327 0.1056 0.8708 0.0
O304 O 0.49841 0.0743 0.84394 0.0
O305 O 0.51737 0.1018 0.87881 0.0
C306 C 0.43305 0.05069 0.893 0.0
C307 C 0.51839 0.09223 0.85464 0.0
C308 C 0.94812 0.43334 0.93737 0.0
C309 C 0.88581 0.35712 0.88852 0.0
O310 O 0.95497 0.43165 0.91175 0.0
Zn311 Zn 0.93954 0.40622 0.87568 0.0
O312 O 0.92673 0.4165 0.94653 0.0
Zn313 Zn 0.9166 0.39562 0.91255 0.0
O314 O 0.9437 0.38287 0.9112 0.0
O315 O 0.96426 0.39604 0.87013 0.0
O316 O 0.88529 0.36418 0.91408 0.0
O317 O 0.90448 0.37101 0.87205 0.0
O318 O 0.93707 0.427 0.8465 0.0
O319 O 0.90975 0.41806 0.88172 0.0
C320 C 0.96063 0.38431 0.89378 0.0
C321 C 0.91921 0.42895 0.8576 0.0
C322 C 0.58069 0.51823 0.93696 0.0
C323 C 0.65657 0.53197 0.88765 0.0
O324 O 0.58167 0.52569 0.91092 0.0
Zn325 Zn 0.60708 0.53592 0.87479 0.0
O326 O 0.59835 0.51514 0.94658 0.0
Zn327 Zn 0.61841 0.52469 0.91208 0.0
O328 O 0.63085 0.56423 0.90951 0.0
O329 O 0.61695 0.57082 0.86852 0.0
O330 O 0.64991 0.52499 0.91345 0.0
O331 O 0.64235 0.53622 0.87108 0.0
O332 O 0.58622 0.51201 0.84622 0.0
O333 O 0.59545 0.49454 0.88228 0.0
C334 C 0.62909 0.57937 0.89187 0.0
C335 C 0.58431 0.49249 0.85814 0.0
C336 C 0.58657 0.826 0.69301 0.0
C337 C 0.6285 0.91285 0.72676 0.0
O338 O 0.60424 0.84552 0.68117 0.0
Zn339 Zn 0.60709 0.86943 0.70962 0.0
O340 O 0.57736 0.82805 0.71704 0.0
Zn341 Zn 0.58437 0.8582 0.74675 0.0
O342 O 0.55315 0.85851 0.74777 0.0
O343 O 0.57211 0.86969 0.70551 0.0
O344 O 0.61151 0.89774 0.74431 0.0
O345 O 0.63214 0.90431 0.70345 0.0
O346 O 0.62221 0.85935 0.74596 0.0
O347 O 0.59478 0.84866 0.78139 0.0
C348 C 0.55355 0.86543 0.72192 0.0
C349 C 0.61564 0.8519 0.77198 0.0
C350 C 0.1005 0.71782 0.7254 0.0
C351 C 0.18735 0.76258 0.69158 0.0
O352 O 0.10888 0.72951 0.70176 0.0
Zn353 Zn 0.14369 0.73946 0.70796 0.0
O354 O 0.11575 0.71637 0.74321 0.0
Zn355 Zn 0.15552 0.72908 0.74566 0.0
O356 O 0.16525 0.74959 0.77972 0.0
O357 O 0.1534 0.76516 0.74402 0.0
O358 O 0.18537 0.75262 0.71643 0.0
O359 O 0.16773 0.75924 0.67852 0.0
O360 O 0.14274 0.70407 0.70536 0.0
O361 O 0.15612 0.69781 0.74688 0.0
C362 C 0.16126 0.76666 0.76999 0.0
C363 C 0.14783 0.6903 0.72161 0.0
C364 C 0.2957 0.38547 0.72645 0.0
C365 C 0.25205 0.42829 0.69121 0.0
O366 O 0.2837 0.38172 0.70294 0.0
Zn367 Zn 0.27436 0.40701 0.70857 0.0
O368 O 0.29747 0.40255 0.7439 0.0
Zn369 Zn 0.28492 0.42991 0.74576 0.0
O370 O 0.26411 0.41957 0.77971 0.0
O371 O 0.24879 0.39164 0.74453 0.0
O372 O 0.26239 0.43666 0.7158 0.0
O373 O 0.25455 0.41115 0.67897 0.0
O374 O 0.31049 0.44081 0.70616 0.0
O375 O 0.31611 0.46171 0.74673 0.0
C376 C 0.24714 0.39833 0.77026 0.0
C377 C 0.32413 0.45996 0.72212 0.0
C378 C 0.49559 0.91668 0.1424 0.0
C379 C 0.58254 0.95931 0.10922 0.0
O380 O 0.5151 0.93302 0.1556 0.0
Zn381 Zn 0.53921 0.93745 0.12636 0.0
O382 O 0.49774 0.90873 0.11759 0.0
Zn383 Zn 0.52797 0.91519 0.08871 0.0
O384 O 0.52758 0.88347 0.0878 0.0
O385 O 0.54041 0.90315 0.12938 0.0
O386 O 0.56751 0.9424 0.0915 0.0
O387 O 0.57395 0.96272 0.13264 0.0
O388 O 0.52892 0.95285 0.09019 0.0
O389 O 0.51888 0.9259 0.05422 0.0
C390 C 0.53559 0.8843 0.11322 0.0
C391 C 0.52176 0.94654 0.06401 0.0
C392 C 0.12973 0.6541 0.11375 0.0
C393 C 0.06731 0.57786 0.06509 0.0
O394 O 0.12976 0.64743 0.08789 0.0
Zn395 Zn 0.09865 0.61576 0.08956 0.0
O396 O 0.11148 0.63985 0.13053 0.0
Zn397 Zn 0.0767 0.60447 0.12736 0.0
O398 O 0.08085 0.58426 0.15603 0.0
O399 O 0.10626 0.59286 0.11885 0.0
O400 O 0.06115 0.57878 0.09131 0.0
O401 O 0.08784 0.59565 0.05518 0.0
O402 O 0.07128 0.62774 0.09265 0.0
O403 O 0.05149 0.61409 0.13404 0.0
C404 C 0.09805 0.58213 0.14336 0.0
C405 C 0.05456 0.62593 0.11057 0.0
C406 C 0.38676 0.4315 0.10845 0.0
C407 C 0.4311 0.51852 0.14201 0.0
O408 O 0.39835 0.43999 0.13213 0.0
Zn409 Zn 0.40844 0.47487 0.1256 0.0
O410 O 0.38533 0.44665 0.09051 0.0
Zn411 Zn 0.39772 0.48624 0.08784 0.0
O412 O 0.41844 0.49621 0.05389 0.0
O413 O 0.434 0.48441 0.08961 0.0
O414 O 0.42046 0.51626 0.11751 0.0
O415 O 0.4288 0.49903 0.15447 0.0
O416 O 0.37323 0.47455 0.12848 0.0
O417 O 0.36617 0.48597 0.08598 0.0
C418 C 0.43552 0.49226 0.06365 0.0
C419 C 0.35924 0.47891 0.11169 0.0
C420 C 0.06669 0.49159 0.56566 0.0
C421 C 0.12925 0.47772 0.61398 0.0
O422 O 0.06023 0.48364 0.59155 0.0
Zn423 Zn 0.07604 0.47401 0.62763 0.0
O424 O 0.0878 0.49564 0.55607 0.0
Zn425 Zn 0.09844 0.48562 0.59009 0.0
O426 O 0.07127 0.44588 0.59269 0.0
O427 O 0.05113 0.43923 0.63401 0.0
O428 O 0.12996 0.48579 0.58862 0.0
O429 O 0.11053 0.47293 0.63036 0.0
O430 O 0.08008 0.49826 0.65667 0.0
O431 O 0.10562 0.51546 0.61975 0.0
C432 C 0.05453 0.43073 0.61051 0.0
C433 C 0.0973 0.51773 0.64426 0.0
C434 C 0.53596 0.65348 0.61703 0.0
C435 C 0.51964 0.57718 0.56614 0.0
O436 O 0.54162 0.63953 0.63224 0.0
Zn437 Zn 0.53952 0.60346 0.62796 0.0
O438 O 0.52626 0.64605 0.59226 0.0
Zn439 Zn 0.52682 0.61488 0.59197 0.0
O440 O 0.49792 0.59211 0.62267 0.0
O441 O 0.51646 0.583 0.65756 0.0
O442 O 0.51609 0.59479 0.55735 0.0
O443 O 0.52804 0.57818 0.59169 0.0
O444 O 0.57417 0.61254 0.63241 0.0
O445 O 0.56671 0.62747 0.59267 0.0
C446 C 0.49663 0.58116 0.64668 0.0
C447 C 0.58219 0.62518 0.6093 0.0
C448 C 0.4315 0.91485 0.64089 0.0
C449 C 0.38634 0.95704 0.60857 0.0
O450 O 0.4215 0.90711 0.61598 0.0
Zn451 Zn 0.39787 0.91384 0.58711 0.0
O452 O 0.42805 0.93089 0.65437 0.0
Zn453 Zn 0.40809 0.93526 0.62536 0.0
O454 O 0.37309 0.90031 0.62764 0.0
O455 O 0.36649 0.88223 0.58498 0.0
O456 O 0.39773 0.95982 0.63234 0.0
O457 O 0.38519 0.9408 0.59031 0.0
O458 O 0.41841 0.92516 0.55319 0.0
O459 O 0.43394 0.95197 0.58948 0.0
C460 C 0.35933 0.88205 0.61065 0.0
C461 C 0.43549 0.94604 0.56332 0.0
C462 C 0.16074 0.39673 0.27063 0.0
C463 C 0.14779 0.45971 0.22148 0.0
O464 O 0.1536 0.39058 0.24442 0.0
Zn465 Zn 0.14361 0.4063 0.2083 0.0
O466 O 0.16383 0.41743 0.28052 0.0
Zn467 Zn 0.15499 0.42849 0.24604 0.0
O468 O 0.11539 0.40163 0.24315 0.0
O469 O 0.10874 0.38131 0.20198 0.0
O470 O 0.15572 0.46043 0.24692 0.0
O471 O 0.14281 0.44082 0.20532 0.0
O472 O 0.16774 0.41058 0.1791 0.0
O473 O 0.18516 0.4347 0.21722 0.0
C474 C 0.10024 0.38483 0.22541 0.0
C475 C 0.18728 0.42676 0.1924 0.0
C476 C 0.61545 0.7664 0.27076 0.0
C477 C 0.55372 0.69029 0.22097 0.0
O478 O 0.62199 0.76555 0.2447 0.0
Zn479 Zn 0.60698 0.74013 0.20844 0.0
O480 O 0.59469 0.74866 0.28027 0.0
Zn481 Zn 0.58427 0.72869 0.24572 0.0
O482 O 0.61153 0.71644 0.24317 0.0
O483 O 0.6323 0.7307 0.20237 0.0
O484 O 0.55278 0.69725 0.24647 0.0
O485 O 0.57259 0.7045 0.20491 0.0
O486 O 0.60306 0.76034 0.17948 0.0
O487 O 0.57728 0.75173 0.21626 0.0
C488 C 0.62862 0.71846 0.22566 0.0
C489 C 0.58575 0.76248 0.19184 0.0
C490 C 0.248 0.85296 0.27108 0.0
C491 C 0.32415 0.86551 0.22358 0.0
O492 O 0.24908 0.85971 0.24468 0.0
Zn493 Zn 0.27516 0.86954 0.20893 0.0
O494 O 0.26574 0.85036 0.28153 0.0
Zn495 Zn 0.28581 0.85895 0.24732 0.0
O496 O 0.29819 0.89834 0.2437 0.0
O497 O 0.28512 0.90442 0.20186 0.0
O498 O 0.31723 0.85889 0.24939 0.0
O499 O 0.31022 0.86974 0.20656 0.0
O500 O 0.25543 0.84511 0.18004 0.0
O501 O 0.26211 0.82821 0.21869 0.0
C502 C 0.29673 0.91324 0.22545 0.0
C503 C 0.25209 0.82575 0.19374 0.0
H504 H 0.32124 0.17899 0.08645 0.0
H505 H 0.28028 0.18053 0.16133 0.0
H506 H 0.34965 0.17255 0.11719 0.0
H507 H 0.3094 0.17526 0.19231 0.0
H508 H 0.35058 0.14123 0.23848 0.0
H509 H 0.32156 0.14643 0.2075 0.0
H510 H 0.38297 0.193 0.15006 0.0
H511 H 0.41178 0.18674 0.18051 0.0
C512 C 0.3184 0.1781 0.10954 0.0
C513 C 0.29849 0.18023 0.12146 0.0
C514 C 0.33484 0.17461 0.12722 0.0
C515 C 0.33201 0.17352 0.15734 0.0
C516 C 0.31199 0.1756 0.16922 0.0
C517 C 0.29532 0.17874 0.15148 0.0
C518 C 0.3579 0.1526 0.21924 0.0
C519 C 0.38349 0.16357 0.21193 0.0
C520 C 0.34125 0.15573 0.20152 0.0
C521 C 0.34982 0.17019 0.17621 0.0
C522 C 0.37553 0.18135 0.16907 0.0
C523 C 0.39213 0.17792 0.18662 0.0
H524 H 0.83504 0.14515 0.08638 0.0
H525 H 0.83278 0.10364 0.16254 0.0
H526 H 0.84174 0.18064 0.11624 0.0
H527 H 0.8383 0.13859 0.19254 0.0
H528 H 0.87296 0.214 0.23756 0.0
H529 H 0.86768 0.17956 0.20695 0.0
H530 H 0.82176 0.1946 0.14862 0.0
H531 H 0.8281 0.22991 0.17875 0.0
C532 C 0.83583 0.14356 0.10954 0.0
C533 C 0.83346 0.12162 0.1221 0.0
C534 C 0.83948 0.16385 0.12671 0.0
C535 C 0.84052 0.16257 0.1569 0.0
C536 C 0.83808 0.14053 0.16939 0.0
C537 C 0.83478 0.12038 0.15219 0.0
C538 C 0.86172 0.20996 0.21819 0.0
C539 C 0.85091 0.22466 0.21059 0.0
C540 C 0.85855 0.19006 0.20068 0.0
C541 C 0.84417 0.1841 0.17529 0.0
C542 C 0.83329 0.19883 0.16774 0.0
C543 C 0.83677 0.219 0.1851 0.0
H544 H 0.80033 0.66216 0.24067 0.0
H545 H 0.78464 0.601 0.18255 0.0
H546 H 0.83463 0.6912 0.20983 0.0
H547 H 0.81978 0.62983 0.15224 0.0
H548 H 0.86749 0.69163 0.08876 0.0
H549 H 0.83264 0.66321 0.11945 0.0
H550 H 0.87563 0.70335 0.19465 0.0
H551 H 0.91003 0.73248 0.16371 0.0
C552 C 0.80441 0.65486 0.22144 0.0
C553 C 0.78976 0.62927 0.21404 0.0
C554 C 0.82422 0.67151 0.20379 0.0
C555 C 0.83012 0.66296 0.17847 0.0
C556 C 0.81556 0.63725 0.17125 0.0
C557 C 0.79549 0.62065 0.18873 0.0
C558 C 0.86944 0.69444 0.11186 0.0
C559 C 0.8915 0.71432 0.12382 0.0
C560 C 0.84951 0.67799 0.12951 0.0
C561 C 0.85126 0.68079 0.15963 0.0
C562 C 0.87337 0.70079 0.17156 0.0
C563 C 0.89318 0.71746 0.15384 0.0
H564 H 0.20462 0.32825 0.40602 0.0
H565 H 0.15854 0.26626 0.34914 0.0
H566 H 0.19919 0.35687 0.37466 0.0
H567 H 0.15211 0.29476 0.31822 0.0
H568 H 0.16576 0.35667 0.25417 0.0
H569 H 0.17208 0.32806 0.28482 0.0
H570 H 0.16978 0.36842 0.36007 0.0
H571 H 0.16459 0.39762 0.32928 0.0
C572 C 0.19308 0.32067 0.38693 0.0
C573 C 0.18197 0.29496 0.3801 0.0
C574 C 0.18983 0.33709 0.36898 0.0
C575 C 0.17508 0.3282 0.34389 0.0
C576 C 0.16391 0.30241 0.3371 0.0
C577 C 0.16744 0.286 0.35492 0.0
C578 C 0.16669 0.35946 0.27727 0.0
C579 C 0.16477 0.37947 0.28929 0.0
C580 C 0.17013 0.34292 0.29489 0.0
C581 C 0.17143 0.34581 0.32502 0.0
C582 C 0.16936 0.36582 0.33698 0.0
C583 C 0.16625 0.38253 0.31933 0.0
H584 H 0.65549 0.81161 0.2548 0.0
H585 H 0.61389 0.76915 0.32941 0.0
H586 H 0.68382 0.84637 0.28578 0.0
H587 H 0.64284 0.80341 0.36056 0.0
H588 H 0.68323 0.87848 0.40687 0.0
H589 H 0.65463 0.84442 0.37545 0.0
H590 H 0.71684 0.85924 0.31937 0.0
H591 H 0.74528 0.89414 0.3503 0.0
C592 C 0.65249 0.80964 0.27786 0.0
C593 C 0.6324 0.78765 0.28964 0.0
C594 C 0.66888 0.82953 0.29568 0.0
C595 C 0.66576 0.82778 0.32577 0.0
C596 C 0.64563 0.80569 0.3375 0.0
C597 C 0.62905 0.78594 0.31964 0.0
C598 C 0.69083 0.87445 0.38785 0.0
C599 C 0.71655 0.88901 0.38109 0.0
C600 C 0.67442 0.85478 0.36987 0.0
C601 C 0.68334 0.84891 0.34483 0.0
C602 C 0.70916 0.86342 0.33818 0.0
C603 C 0.72554 0.88335 0.35602 0.0
H604 H 0.11708 0.85221 0.34503 0.0
H605 H 0.13426 0.809 0.40493 0.0
H606 H 0.15263 0.85902 0.31518 0.0
H607 H 0.16903 0.81475 0.37457 0.0
H608 H 0.24481 0.85041 0.32975 0.0
H609 H 0.20978 0.84464 0.35973 0.0
H610 H 0.16689 0.83896 0.28332 0.0
H611 H 0.20243 0.84589 0.25347 0.0
C612 C 0.12834 0.84399 0.35169 0.0
C613 C 0.12292 0.83015 0.37738 0.0
C614 C 0.14865 0.84774 0.33448 0.0
C615 C 0.1638 0.83744 0.34238 0.0
C616 C 0.15816 0.82341 0.36802 0.0
C617 C 0.13809 0.81997 0.38539 0.0
C618 C 0.22788 0.8479 0.31938 0.0
C619 C 0.2264 0.84864 0.28926 0.0
C620 C 0.20769 0.84444 0.33657 0.0
C621 C 0.18538 0.84128 0.32403 0.0
C622 C 0.18389 0.84179 0.29382 0.0
C623 C 0.20421 0.84559 0.27665 0.0
H624 H 0.61402 0.84747 0.83064 0.0
H625 H 0.65589 0.8471 0.75606 0.0
H626 H 0.64305 0.84227 0.86179 0.0
H627 H 0.68429 0.84077 0.78701 0.0
H628 H 0.74566 0.85431 0.85159 0.0
H629 H 0.71723 0.86084 0.8207 0.0
H630 H 0.65495 0.81312 0.87653 0.0
H631 H 0.68352 0.8076 0.90789 0.0
C632 C 0.62926 0.84598 0.82087 0.0
C633 C 0.63265 0.84771 0.79089 0.0
C634 C 0.64588 0.84287 0.83873 0.0
C635 C 0.66611 0.84107 0.827 0.0
C636 C 0.66928 0.84255 0.79692 0.0
C637 C 0.65285 0.84598 0.77911 0.0
C638 C 0.7259 0.8453 0.85725 0.0
C639 C 0.71688 0.83054 0.88224 0.0
C640 C 0.70953 0.84889 0.83945 0.0
C641 C 0.68369 0.83752 0.84604 0.0
C642 C 0.67475 0.82261 0.87099 0.0
C643 C 0.69114 0.81931 0.88894 0.0
H644 H 0.18025 0.86553 0.914 0.0
H645 H 0.18327 0.90863 0.83904 0.0
H646 H 0.17358 0.8306 0.88324 0.0
H647 H 0.17779 0.87417 0.80806 0.0
H648 H 0.1435 0.79903 0.76143 0.0
H649 H 0.14879 0.83337 0.79236 0.0
H650 H 0.19403 0.81749 0.85079 0.0
H651 H 0.18768 0.78237 0.82044 0.0
C652 C 0.17965 0.86759 0.8909 0.0
C653 C 0.18226 0.88983 0.87895 0.0
C654 C 0.17602 0.84761 0.8732 0.0
C655 C 0.17527 0.8495 0.84305 0.0
C656 C 0.17784 0.8718 0.83115 0.0
C657 C 0.18112 0.89166 0.84891 0.0
C658 C 0.15459 0.8029 0.78088 0.0
C659 C 0.16514 0.78796 0.78852 0.0
C660 C 0.15777 0.82272 0.79858 0.0
C661 C 0.17187 0.82833 0.82417 0.0
C662 C 0.18264 0.81349 0.83159 0.0
C663 C 0.17916 0.79343 0.81408 0.0
H664 H 0.14655 0.31825 0.91318 0.0
H665 H 0.10441 0.27898 0.83732 0.0
H666 H 0.1819 0.3468 0.88307 0.0
H667 H 0.13926 0.30819 0.80706 0.0
H668 H 0.21482 0.34823 0.7619 0.0
H669 H 0.18017 0.31939 0.79247 0.0
H670 H 0.1958 0.38066 0.85057 0.0
H671 H 0.23126 0.40929 0.8205 0.0
C672 C 0.14478 0.31583 0.89003 0.0
C673 C 0.12271 0.29631 0.87763 0.0
C674 C 0.16499 0.33234 0.87271 0.0
C675 C 0.16352 0.32993 0.84254 0.0
C676 C 0.14133 0.3104 0.8302 0.0
C677 C 0.12125 0.2937 0.84754 0.0
C678 C 0.21085 0.35556 0.78119 0.0
C679 C 0.22579 0.38106 0.78877 0.0
C680 C 0.19084 0.33902 0.79868 0.0
C681 C 0.18501 0.34762 0.82403 0.0
C682 C 0.19993 0.37322 0.8315 0.0
C683 C 0.22018 0.38971 0.81417 0.0
H684 H 0.85467 0.74176 0.65313 0.0
H685 H 0.81031 0.68111 0.59395 0.0
H686 H 0.86117 0.71291 0.68313 0.0
H687 H 0.81578 0.65198 0.62452 0.0
H688 H 0.85053 0.6111 0.67039 0.0
H689 H 0.84492 0.64021 0.63979 0.0
H690 H 0.84084 0.67916 0.71544 0.0
H691 H 0.84761 0.65076 0.74583 0.0
C692 C 0.84615 0.72221 0.64665 0.0
C693 C 0.83203 0.71374 0.62114 0.0
C694 C 0.84972 0.70558 0.66396 0.0
C695 C 0.83895 0.67999 0.65639 0.0
C696 C 0.82475 0.67159 0.63085 0.0
C697 C 0.82148 0.68828 0.61336 0.0
C698 C 0.84838 0.62587 0.68045 0.0
C699 C 0.84958 0.62867 0.71052 0.0
C700 C 0.84503 0.64252 0.66291 0.0
C701 C 0.84245 0.66217 0.67505 0.0
C702 C 0.84328 0.66465 0.70522 0.0
C703 C 0.84697 0.64822 0.7227 0.0
H704 H 0.34989 0.21225 0.74011 0.0
H705 H 0.41188 0.22754 0.68361 0.0
H706 H 0.32121 0.17814 0.7088 0.0
H707 H 0.38337 0.19258 0.65281 0.0
H708 H 0.32221 0.14494 0.58832 0.0
H709 H 0.35045 0.17974 0.61923 0.0
H710 H 0.30916 0.13704 0.69401 0.0
H711 H 0.28025 0.10269 0.66285 0.0
C712 C 0.35745 0.20814 0.72112 0.0
C713 C 0.38318 0.22261 0.71434 0.0
C714 C 0.341 0.18843 0.70321 0.0
C715 C 0.34988 0.18243 0.67823 0.0
C716 C 0.37571 0.19686 0.67157 0.0
C717 C 0.39213 0.21683 0.68932 0.0
C718 C 0.31912 0.14303 0.61137 0.0
C719 C 0.29897 0.12107 0.62314 0.0
C720 C 0.33546 0.16294 0.62916 0.0
C721 C 0.33226 0.16128 0.65923 0.0
C722 C 0.31203 0.13924 0.67096 0.0
C723 C 0.29548 0.11945 0.65311 0.0
H724 H 0.88115 0.20289 0.59666 0.0
H725 H 0.89639 0.15648 0.65377 0.0
H726 H 0.84698 0.19757 0.6277 0.0
H727 H 0.86135 0.15016 0.68435 0.0
H728 H 0.81304 0.16404 0.74794 0.0
H729 H 0.8481 0.17036 0.71758 0.0
H730 H 0.80588 0.16818 0.64197 0.0
H731 H 0.77134 0.16299 0.67247 0.0
C732 C 0.87702 0.1913 0.61573 0.0
C733 C 0.89146 0.18006 0.62273 0.0
C734 C 0.85727 0.18811 0.63349 0.0
C735 C 0.85121 0.17332 0.65855 0.0
C736 C 0.86567 0.16201 0.6655 0.0
C737 C 0.88567 0.16547 0.64787 0.0
C738 C 0.81131 0.16501 0.72483 0.0
C739 C 0.78945 0.1631 0.71261 0.0
C740 C 0.83135 0.16844 0.70737 0.0
C741 C 0.82991 0.16975 0.67724 0.0
C742 C 0.80793 0.16774 0.66508 0.0
C743 C 0.78803 0.16464 0.68256 0.0
H744 H 0.98686 0.51154 0.42213 0.0
H745 H 0.94731 0.51464 0.49755 0.0
H746 H 0.01508 0.50451 0.45254 0.0
H747 H 0.97623 0.50878 0.52815 0.0
H748 H 0.01659 0.47382 0.57409 0.0
H749 H 0.98764 0.47936 0.5433 0.0
H750 H 0.04881 0.52468 0.485 0.0
H751 H 0.07749 0.51809 0.51524 0.0
C752 C 0.9843 0.51087 0.44525 0.0
C753 C 0.96483 0.51361 0.45743 0.0
C754 C 1.00063 0.50703 0.46275 0.0
C755 C 0.99811 0.50618 0.49291 0.0
C756 C 0.97855 0.50889 0.50504 0.0
C757 C 0.962 0.51239 0.4875 0.0
C758 C 0.02386 0.48498 0.5547 0.0
C759 C 0.04933 0.49551 0.54709 0.0
C760 C 1.00726 0.48829 0.53708 0.0
C761 C 0.0158 0.50252 0.5116 0.0
C762 C 0.0414 0.51321 0.50415 0.0
C763 C 0.05792 0.5096 0.52159 0.0
H764 H 0.47472 0.46523 0.42921 0.0
H765 H 0.52116 0.44971 0.4859 0.0
H766 H 0.48001 0.49924 0.46068 0.0
H767 H 0.52749 0.48453 0.51681 0.0
H768 H 0.51423 0.53184 0.5816 0.0
H769 H 0.5074 0.49711 0.5504 0.0
H770 H 0.50872 0.54022 0.47603 0.0
H771 H 0.51438 0.57448 0.50751 0.0
C772 C 0.4863 0.46927 0.44827 0.0
C773 C 0.49751 0.45475 0.45508 0.0
C774 C 0.48948 0.48891 0.46628 0.0
C775 C 0.50422 0.49478 0.49138 0.0
C776 C 0.51561 0.48033 0.498 0.0
C777 C 0.51214 0.46044 0.48018 0.0
C778 C 0.51295 0.53384 0.55858 0.0
C779 C 0.51482 0.5559 0.54702 0.0
C780 C 0.50923 0.51398 0.54062 0.0
C781 C 0.50765 0.5158 0.51057 0.0
C782 C 0.50944 0.5379 0.49906 0.0
C783 C 0.5128 0.55764 0.51709 0.0
H784 H 0.57748 0.0666 0.49474 0.0
H785 H 0.53429 0.02646 0.41982 0.0
H786 H 0.54303 0.03765 0.52576 0.0
H787 H 0.4994 0.99829 0.45058 0.0
H788 H 0.45141 0.93575 0.51285 0.0
H789 H 0.48652 0.96471 0.48276 0.0
H790 H 0.5022 0.02546 0.54173 0.0
H791 H 0.46782 0.99614 0.57246 0.0
C792 C 0.56048 0.05178 0.4849 0.0
C793 C 0.55864 0.04875 0.45485 0.0
C794 C 0.54064 0.03522 0.50267 0.0
C795 C 0.51834 0.01546 0.49078 0.0
C796 C 0.51642 0.01285 0.46063 0.0
C797 C 0.53638 0.02915 0.44293 0.0
C798 C 0.46241 0.95528 0.51939 0.0
C799 C 0.45685 0.96364 0.54503 0.0
C800 C 0.48247 0.97199 0.50202 0.0
C801 C 0.49724 0.99757 0.50963 0.0
C802 C 0.49159 0.00587 0.53534 0.0
C803 C 0.47175 0.98907 0.55292 0.0
H804 H 0.5231 0.07618 0.98501 0.0
H805 H 0.47695 0.014 0.92838 0.0
H806 H 0.52981 0.04788 0.01589 0.0
H807 H 0.48268 0.98555 0.95973 0.0
H808 H 0.51785 0.94536 0.00537 0.0
H809 H 0.51237 0.97427 0.9744 0.0
H810 H 0.50968 0.01467 0.04941 0.0
H811 H 0.51627 0.98635 0.08025 0.0
C812 C 0.51426 0.05644 0.97927 0.0
C813 C 0.4996 0.04736 0.9542 0.0
C814 C 0.51795 0.04015 0.99707 0.0
C815 C 0.5068 0.01435 0.99037 0.0
C816 C 0.49199 0.00534 0.96534 0.0
C817 C 0.48857 0.02166 0.9474 0.0
C818 C 0.51604 0.96039 0.01523 0.0
C819 C 0.5175 0.96356 0.04525 0.0
C820 C 0.51277 0.97693 0.99748 0.0
C821 C 0.51053 0.99687 0.00933 0.0
C822 C 0.51178 0.99985 0.03944 0.0
C823 C 0.51537 0.98349 0.05717 0.0
H824 H 0.93708 0.44912 0.98765 0.0
H825 H 0.99835 0.46534 0.92956 0.0
H826 H 0.96576 0.48418 0.0182 0.0
H827 H 0.02724 0.49958 0.96062 0.0
H828 H 0.06798 0.57499 0.00641 0.0
H829 H 0.03883 0.54049 0.97567 0.0
H830 H 0.99932 0.49747 0.05106 0.0
H831 H 0.02783 0.53248 0.08165 0.0
C832 C 0.95672 0.46006 0.98152 0.0
C833 C 0.96541 0.45451 0.95613 0.0
C834 C 0.97324 0.48009 0.99914 0.0
C835 C 0.99892 0.49481 0.99197 0.0
C836 C 1.00755 0.48905 0.96662 0.0
C837 C 0.99099 0.46927 0.94884 0.0
C838 C 0.05309 0.55813 0.0164 0.0
C839 C 0.05021 0.55648 0.04645 0.0
C840 C 0.03641 0.53825 0.99877 0.0
C841 C 0.01663 0.51607 0.01079 0.0
C842 C 0.01398 0.51438 0.04094 0.0
C843 C 0.03047 0.5344 0.05853 0.0
H844 H 0.53518 0.5118 0.92034 0.0
H845 H 0.57786 0.51473 0.99569 0.0
H846 H 0.50007 0.50504 0.95079 0.0
H847 H 0.54323 0.50915 0.02636 0.0
H848 H 0.46789 0.47455 0.07236 0.0
H849 H 0.5024 0.48001 0.04167 0.0
H850 H 0.48663 0.52528 0.98314 0.0
H851 H 0.45134 0.51874 0.01325 0.0
C852 C 0.53712 0.51117 0.94346 0.0
C853 C 0.55928 0.51377 0.95561 0.0
C854 C 0.51704 0.50748 0.96099 0.0
C855 C 0.51874 0.50666 0.99114 0.0
C856 C 0.54099 0.50925 0.00324 0.0
C857 C 0.56094 0.51258 0.98567 0.0
C858 C 0.47181 0.48568 0.05293 0.0
C859 C 0.45686 0.49619 0.04521 0.0
C860 C 0.49173 0.48895 0.03538 0.0
C861 C 0.49744 0.50313 0.00985 0.0
C862 C 0.48256 0.51384 0.00231 0.0
C863 C 0.4624 0.51025 0.01968 0.0
H864 H 0.18208 0.01648 0.92947 0.0
H865 H 0.23608 0.01572 0.98871 0.0
H866 H 0.19327 0.05881 0.94648 0.0
H867 H 0.24755 0.0581 0.00492 0.0
H868 H 0.27841 0.14679 0.98452 0.0
H869 H 0.26466 0.10467 0.96521 0.0
H870 H 0.19449 0.07541 0.0112 0.0
H871 H 0.20834 0.11739 0.03125 0.0
C872 C 0.19631 0.02533 0.94603 0.0
C873 C 0.20816 0.01278 0.95783 0.0
C874 C 0.20263 0.04943 0.95572 0.0
C875 C 0.22126 0.06148 0.97685 0.0
C876 C 0.23315 0.04905 0.98856 0.0
C877 C 0.22649 0.02482 0.97935 0.0
C878 C 0.25995 0.13146 0.99029 0.0
C879 C 0.24447 0.13535 0.00946 0.0
C880 C 0.25216 0.10744 0.97929 0.0
C881 C 0.22857 0.08707 0.98676 0.0
C882 C 0.21272 0.091 0.00512 0.0
C883 C 0.22069 0.11492 0.01661 0.0
H884 H 0.01479 0.19309 0.99637 0.0
H885 H 0.98045 0.19365 0.9156 0.0
H886 H 0.97403 0.16144 0.01498 0.0
H887 H 0.93916 0.16376 0.93475 0.0
H888 H 0.86788 0.09793 0.96917 0.0
H889 H 0.90962 0.12456 0.94868 0.0
H890 H 0.93766 0.15582 0.03331 0.0
H891 H 0.89658 0.12756 0.05364 0.0
C892 C 0.99835 0.18645 0.9827 0.0
C893 C 1.00066 0.19569 0.95461 0.0
C894 C 0.97484 0.1685 0.99343 0.0
C895 C 0.95285 0.16007 0.9767 0.0
C896 C 0.95544 0.16923 0.94831 0.0
C897 C 0.97912 0.18655 0.93727 0.0
C898 C 0.88316 0.11041 0.98325 0.0
C899 C 0.87914 0.11064 0.01294 0.0
C900 C 0.90712 0.1259 0.97154 0.0
C901 C 0.92742 0.14259 0.98917 0.0
C902 C 0.92301 0.14286 0.01893 0.0
C903 C 0.89931 0.12681 0.03069 0.0
H904 H 0.87695 0.73351 0.98879 0.0
H905 H 0.91973 0.80503 0.03225 0.0
H906 H 0.84828 0.74701 0.9699 0.0
H907 H 0.89135 0.8187 0.0125 0.0
H908 H 0.84462 0.83323 0.93636 0.0
H909 H 0.87576 0.82201 0.95325 0.0
H910 H 0.81857 0.76203 0.00448 0.0
H911 H 0.78767 0.77357 0.98849 0.0
C912 C 0.88047 0.75224 0.99392 0.0
C913 C 0.90053 0.7682 0.01206 0.0
C914 C 0.86404 0.75988 0.98318 0.0
C915 C 0.86775 0.78384 0.98981 0.0
C916 C 0.88827 0.80018 0.00707 0.0
C917 C 0.90438 0.79232 0.01839 0.0
C918 C 0.83878 0.81774 0.95132 0.0
C919 C 0.81376 0.80432 0.96119 0.0
C920 C 0.85655 0.8114 0.96097 0.0
C921 C 0.84939 0.79114 0.98 0.0
C922 C 0.82442 0.77766 0.98971 0.0
C923 C 0.80684 0.78436 0.98066 0.0
H924 H 0.01623 0.17658 0.56924 0.0
H925 H 0.01896 0.23615 0.51686 0.0
H926 H 0.05869 0.18792 0.55268 0.0
H927 H 0.0615 0.24782 0.50119 0.0
H928 H 0.14825 0.27656 0.5157 0.0
H929 H 0.10621 0.26325 0.5349 0.0
H930 H 0.07757 0.1907 0.49436 0.0
H931 H 0.11942 0.20415 0.47433 0.0
C932 C 0.0259 0.19208 0.55429 0.0
C933 C 0.01429 0.20543 0.54424 0.0
C934 C 0.05008 0.19851 0.54485 0.0
C935 C 0.06321 0.21877 0.52585 0.0
C936 C 0.0517 0.2322 0.51597 0.0
C937 C 0.02736 0.22541 0.52481 0.0
C938 C 0.13306 0.25768 0.51113 0.0
C939 C 0.13707 0.2414 0.49346 0.0
C940 C 0.10907 0.25015 0.52203 0.0
C941 C 0.08885 0.22601 0.51605 0.0
C942 C 0.09298 0.20936 0.49932 0.0
C943 C 0.11684 0.2171 0.48783 0.0
H944 H 0.83563 0.84338 0.57134 0.0
H945 H 0.77576 0.78683 0.519 0.0
H946 H 0.82425 0.87464 0.55522 0.0
H947 H 0.76406 0.81778 0.50382 0.0
H948 H 0.73565 0.87588 0.51793 0.0
H949 H 0.74908 0.84747 0.5379 0.0
H950 H 0.8212 0.89043 0.49628 0.0
H951 H 0.80763 0.9185 0.47549 0.0
C952 C 0.82003 0.83763 0.55656 0.0
C953 C 0.80665 0.81273 0.54631 0.0
C954 C 0.81358 0.85547 0.54736 0.0
C955 C 0.79325 0.84843 0.52847 0.0
C956 C 0.77973 0.82353 0.51853 0.0
C957 C 0.78653 0.80592 0.5271 0.0
C958 C 0.75447 0.87945 0.51331 0.0
C959 C 0.77057 0.89934 0.49507 0.0
C960 C 0.76208 0.86319 0.52468 0.0
C961 C 0.78613 0.86692 0.5186 0.0
C962 C 0.80263 0.88735 0.50135 0.0
C963 C 0.79481 0.90328 0.48941 0.0
H964 H 0.21528 0.00643 0.49833 0.0
H965 H 0.18113 0.98619 0.58268 0.0
H966 H 0.18386 0.96532 0.48 0.0
H967 H 0.14951 0.94501 0.56416 0.0
H968 H 0.12037 0.86445 0.52668 0.0
H969 H 0.14861 0.90627 0.54628 0.0
H970 H 0.13828 0.94011 0.46975 0.0
H971 H 0.11023 0.89837 0.45 0.0
C972 C 0.20096 0.99329 0.51293 0.0
C973 C 0.20077 0.9996 0.542 0.0
C974 C 0.18286 0.96976 0.50236 0.0
C975 C 0.1642 0.95191 0.52063 0.0
C976 C 0.16379 0.95829 0.54963 0.0
C977 C 0.18182 0.98193 0.56018 0.0
C978 C 0.12398 0.8808 0.51411 0.0
C979 C 0.11313 0.87804 0.4867 0.0
C980 C 0.14005 0.90477 0.52542 0.0
C981 C 0.14576 0.92649 0.50951 0.0
C982 C 0.13449 0.92373 0.48238 0.0
C983 C 0.11831 0.89979 0.47114 0.0
H984 H 0.80748 0.89168 0.97742 0.0
H985 H 0.73507 0.86236 0.0188 0.0
H986 H 0.82095 0.93328 0.99825 0.0
H987 H 0.74839 0.90418 0.03882 0.0
H988 H 0.77564 0.9917 0.02024 0.0
H989 H 0.76381 0.949 0.00506 0.0
H990 H 0.82357 0.95196 0.05696 0.0
H991 H 0.83507 0.99463 0.07306 0.0
C992 C 0.79454 0.89409 0.99112 0.0
C993 C 0.77022 0.87381 0.99647 0.0
C994 C 0.80229 0.9178 0.00308 0.0
C995 C 0.78565 0.92175 0.02004 0.0
C996 C 0.76151 0.90146 0.02581 0.0
C997 C 0.75396 0.8776 0.01443 0.0
C998 C 0.78628 0.98328 0.02845 0.0
C999 C 0.80631 0.99649 0.04779 0.0
C1000 C 0.7794 0.95884 0.01989 0.0
C1001 C 0.79278 0.94735 0.02996 0.0
C1002 C 0.81302 0.96055 0.049 0.0
C1003 C 0.81953 0.98485 0.05818 0.0
H1004 H 0.14924 0.89133 0.02926 0.0
H1005 H 0.11561 0.90221 0.95278 0.0
H1006 H 0.1073 0.86311 0.04864 0.0
H1007 H 0.07383 0.87422 0.97228 0.0
H1008 H 1.00702 0.79751 0.99993 0.0
H1009 H 0.04843 0.82855 0.98206 0.0
H1010 H 0.06855 0.86252 0.06646 0.0
H1011 H 0.02703 0.83127 0.08452 0.0
C1012 C 0.13294 0.88788 0.01668 0.0
C1013 C 0.1358 0.89894 0.9894 0.0
C1014 C 0.10891 0.87182 0.02787 0.0
C1015 C 0.08726 0.86635 0.01192 0.0
C1016 C 0.09015 0.87781 0.98492 0.0
C1017 C 0.11412 0.89397 0.97382 0.0
C1018 C 0.02019 0.81166 0.01469 0.0
C1019 C 0.0137 0.81187 0.04367 0.0
C1020 C 0.04389 0.82955 0.00439 0.0
C1021 C 0.06177 0.848 0.02285 0.0
C1022 C 0.05525 0.84839 0.05179 0.0
C1023 C 0.03141 0.83059 0.06207 0.0
H1024 H 0.11025 0.21564 0.94927 0.0
H1025 H 0.12016 0.25888 0.02662 0.0
H1026 H 0.13821 0.20171 0.9687 0.0
H1027 H 0.14831 0.24507 0.04589 0.0
H1028 H 0.18064 0.19733 0.08152 0.0
H1029 H 0.14908 0.20705 0.06319 0.0
H1030 H 0.18373 0.22188 0.97915 0.0
H1031 H 0.21507 0.21201 0.99727 0.0
C1032 C 0.11827 0.22207 0.97048 0.0
C1033 C 0.11305 0.23848 0.98633 0.0
C1034 C 0.1344 0.21418 0.98154 0.0
C1035 C 0.14556 0.22237 0.00877 0.0
C1036 C 0.13983 0.23824 0.02495 0.0
C1037 C 0.12381 0.24627 0.01382 0.0
C1038 C 0.1814 0.20248 0.05908 0.0
C1039 C 0.20041 0.20394 0.04088 0.0
C1040 C 0.16341 0.20819 0.04864 0.0
C1041 C 0.16393 0.21526 0.01974 0.0
C1042 C 0.18264 0.21622 0.00144 0.0
C1043 C 0.2007 0.2107 0.0119 0.0
H1044 H 0.89582 0.77047 0.55235 0.0
H1045 H 0.86742 0.77201 0.4679 0.0
H1046 H 0.937 0.78355 0.53216 0.0
H1047 H 0.90927 0.78739 0.44757 0.0
H1048 H 0.98077 0.79037 0.41464 0.0
H1049 H 0.93923 0.77832 0.43352 0.0
H1050 H 0.9733 0.8148 0.51434 0.0
H1051 H 0.01432 0.82456 0.49597 0.0
C1052 C 0.89863 0.77411 0.52943 0.0
C1053 C 0.87853 0.77024 0.51165 0.0
C1054 C 0.92239 0.78192 0.51776 0.0
C1055 C 0.92693 0.78692 0.48807 0.0
C1056 C 0.90667 0.78334 0.47039 0.0
C1057 C 0.88265 0.7747 0.482 0.0
C1058 C 0.97921 0.79585 0.43638 0.0
C1059 C 1.0006 0.80824 0.45395 0.0
C1060 C 0.95538 0.7891 0.44727 0.0
C1061 C 0.9525 0.79527 0.47575 0.0
C1062 C 0.97434 0.80883 0.49271 0.0
C1063 C 0.998 0.81478 0.48212 0.0
H1064 H 0.17925 0.16721 0.43482 0.0
H1065 H 0.23786 0.22436 0.48791 0.0
H1066 H 0.19091 0.13641 0.45182 0.0
H1067 H 0.24984 0.19382 0.50401 0.0
H1068 H 0.27964 0.1363 0.48823 0.0
H1069 H 0.26575 0.16467 0.46926 0.0
H1070 H 0.19401 0.12083 0.51139 0.0
H1071 H 0.20804 0.09279 0.53121 0.0
C1072 C 0.1946 0.17317 0.45003 0.0
C1073 C 0.2076 0.19814 0.46013 0.0
C1074 C 0.20119 0.15559 0.45973 0.0
C1075 C 0.22129 0.16292 0.47905 0.0
C1076 C 0.23434 0.18784 0.48902 0.0
C1077 C 0.22738 0.20522 0.47991 0.0
C1078 C 0.26082 0.13257 0.49324 0.0
C1079 C 0.24494 0.11239 0.51127 0.0
C1080 C 0.25296 0.14881 0.48246 0.0
C1081 C 0.22887 0.14478 0.48892 0.0
C1082 C 0.21263 0.12416 0.50608 0.0
C1083 C 0.2207 0.10824 0.51745 0.0
H1084 H 0.78759 0.01728 0.48622 0.0
H1085 H 0.84443 0.01406 0.43442 0.0
H1086 H 0.81852 0.05989 0.50172 0.0
H1087 H 0.8756 0.05658 0.45082 0.0
H1088 H 0.92013 0.11749 0.52896 0.0
H1089 H 0.89164 0.07563 0.50894 0.0
H1090 H 0.84803 0.10448 0.4681 0.0
H1091 H 0.87686 0.14653 0.4873 0.0
C1092 C 0.80673 0.02559 0.47835 0.0
C1093 C 0.81363 0.01236 0.45915 0.0
C1094 C 0.82433 0.04997 0.4871 0.0
C1095 C 0.84928 0.06136 0.47734 0.0
C1096 C 0.8564 0.04807 0.45855 0.0
C1097 C 0.83861 0.02386 0.4492 0.0
C1098 C 0.90465 0.11496 0.5154 0.0
C1099 C 0.90068 0.13524 0.50969 0.0
C1100 C 0.88848 0.09109 0.50391 0.0
C1101 C 0.86775 0.08701 0.48711 0.0
C1102 C 0.86395 0.10729 0.48104 0.0
C1103 C 0.88046 0.13129 0.49193 0.0
H1104 H 0.88416 0.44741 0.38295 0.0
H1105 H 0.92968 0.48148 0.30727 0.0
H1106 H 0.86976 0.40574 0.36264 0.0
H1107 H 0.91539 0.43968 0.28711 0.0
H1108 H 0.86741 0.36002 0.24973 0.0
H1109 H 0.87741 0.40136 0.26833 0.0
H1110 H 0.88957 0.38005 0.35287 0.0
H1111 H 0.87945 0.33888 0.3345 0.0
C1112 C 0.891 0.44605 0.36191 0.0
C1113 C 0.9082 0.46781 0.34682 0.0
C1114 C 0.88283 0.42214 0.35034 0.0
C1115 C 0.89154 0.41941 0.32334 0.0
C1116 C 0.90817 0.44117 0.30785 0.0
C1117 C 0.91647 0.46511 0.3195 0.0
C1118 C 0.87202 0.36411 0.27233 0.0
C1119 C 0.87267 0.34615 0.29061 0.0
C1120 C 0.87789 0.38783 0.28293 0.0
C1121 C 0.88428 0.39397 0.31207 0.0
C1122 C 0.88443 0.37581 0.3304 0.0
C1123 C 0.87877 0.35224 0.3198 0.0
H1124 H 0.53188 0.46892 0.31904 0.0
H1125 H 0.56093 0.42639 0.36242 0.0
H1126 H 0.57384 0.49727 0.29942 0.0
H1127 H 0.60273 0.45443 0.34197 0.0
H1128 H 0.66343 0.50095 0.26505 0.0
H1129 H 0.62095 0.46991 0.28177 0.0
H1130 H 0.61901 0.52683 0.33448 0.0
H1131 H 0.66152 0.55759 0.31867 0.0
C1132 C 0.5471 0.46538 0.32398 0.0
C1133 C 0.54317 0.44551 0.34234 0.0
C1134 C 0.57104 0.4816 0.31281 0.0
C1135 C 0.59129 0.47786 0.31922 0.0
C1136 C 0.58726 0.45751 0.33667 0.0
C1137 C 0.56344 0.4416 0.34841 0.0
C1138 C 0.65393 0.50676 0.28027 0.0
C1139 C 0.66579 0.53164 0.29065 0.0
C1140 C 0.62975 0.48905 0.28981 0.0
C1141 C 0.6169 0.49617 0.30924 0.0
C1142 C 0.62862 0.52103 0.3194 0.0
C1143 C 0.65294 0.53853 0.31045 0.0
H1144 H 0.5861 0.13892 0.36408 0.0
H1145 H 0.54528 0.0685 0.31795 0.0
H1146 H 0.55802 0.1527 0.3437 0.0
H1147 H 0.51694 0.08214 0.29837 0.0
H1148 H 0.45606 0.10951 0.31968 0.0
H1149 H 0.48701 0.09821 0.33611 0.0
H1150 H 0.54297 0.15476 0.28046 0.0
H1151 H 0.51176 0.16577 0.26317 0.0
C1152 C 0.57126 0.12647 0.3495 0.0
C1153 C 0.56786 0.10262 0.34262 0.0
C1154 C 0.55534 0.13441 0.33781 0.0
C1155 C 0.5355 0.11842 0.31954 0.0
C1156 C 0.53224 0.09475 0.31237 0.0
C1157 C 0.54846 0.08702 0.32353 0.0
C1158 C 0.47496 0.11961 0.31096 0.0
C1159 C 0.48151 0.13855 0.29014 0.0
C1160 C 0.49257 0.11306 0.32029 0.0
C1161 C 0.51719 0.12565 0.30946 0.0
C1162 C 0.52401 0.14486 0.28903 0.0
C1163 C 0.50619 0.15107 0.27917 0.0
H1164 H 0.70098 0.55358 0.91669 0.0
H1165 H 0.66749 0.52116 0.83471 0.0
H1166 H 0.74242 0.56543 0.8978 0.0
H1167 H 0.70843 0.5307 0.81625 0.0
H1168 H 0.78652 0.5743 0.77918 0.0
H1169 H 0.74525 0.56148 0.79898 0.0
H1170 H 0.7719 0.55594 0.88359 0.0
H1171 H 0.81384 0.57112 0.86371 0.0
C1172 C 0.70252 0.54845 0.89477 0.0
C1173 C 0.68117 0.5366 0.87707 0.0
C1174 C 0.72631 0.55508 0.88388 0.0
C1175 C 0.7292 0.54928 0.85523 0.0
C1176 C 0.7074 0.53634 0.83805 0.0
C1177 C 0.68378 0.53053 0.84868 0.0
C1178 C 0.78343 0.57034 0.80203 0.0
C1179 C 0.80327 0.57371 0.81996 0.0
C1180 C 0.75963 0.56269 0.81347 0.0
C1181 C 0.75477 0.55735 0.84307 0.0
C1182 C 0.77475 0.56034 0.86087 0.0
C1183 C 0.79882 0.56884 0.8495 0.0
H1184 H 0.47418 0.25107 0.8083 0.0
H1185 H 0.4017 0.20717 0.8493 0.0
H1186 H 0.48758 0.22251 0.82796 0.0
H1187 H 0.41496 0.17827 0.86814 0.0
H1188 H 0.44193 0.11818 0.84956 0.0
H1189 H 0.43014 0.14912 0.83447 0.0
H1190 H 0.49061 0.2061 0.88546 0.0
H1191 H 0.50209 0.17492 0.90143 0.0
C1192 C 0.46121 0.23544 0.82165 0.0
C1193 C 0.43689 0.2313 0.82728 0.0
C1194 C 0.46891 0.21922 0.83292 0.0
C1195 C 0.45223 0.1983 0.84942 0.0
C1196 C 0.42809 0.19433 0.85543 0.0
C1197 C 0.42058 0.21089 0.84476 0.0
C1198 C 0.45276 0.13731 0.85752 0.0
C1199 C 0.47295 0.14418 0.87663 0.0
C1200 C 0.4459 0.1549 0.84903 0.0
C1201 C 0.45946 0.17982 0.85895 0.0
C1202 C 0.47992 0.18691 0.87762 0.0
C1203 C 0.48642 0.16913 0.88672 0.0
H1204 H 0.8641 0.34599 0.83558 0.0
H1205 H 0.86282 0.31284 0.91784 0.0
H1206 H 0.83253 0.30502 0.81732 0.0
H1207 H 0.83305 0.27133 0.89916 0.0
H1208 H 0.76711 0.19983 0.86526 0.0
H1209 H 0.79407 0.24183 0.88499 0.0
H1210 H 0.82621 0.26806 0.80029 0.0
H1211 H 0.79759 0.22675 0.78065 0.0
C1212 C 0.8571 0.32976 0.84965 0.0
C1213 C 0.86576 0.33248 0.87807 0.0
C1214 C 0.83919 0.30611 0.83914 0.0
C1215 C 0.83021 0.28438 0.85646 0.0
C1216 C 0.8389 0.28738 0.88512 0.0
C1217 C 0.85616 0.31121 0.8959 0.0
C1218 C 0.77987 0.21477 0.851 0.0
C1219 C 0.78023 0.21019 0.82148 0.0
C1220 C 0.79556 0.23888 0.86228 0.0
C1221 C 0.8126 0.25877 0.84441 0.0
C1222 C 0.81301 0.25377 0.81483 0.0
C1223 C 0.79674 0.22993 0.80348 0.0
H1224 H 0.46383 0.23052 0.28644 0.0
H1225 H 0.41801 0.19692 0.36205 0.0
H1226 H 0.4776 0.27228 0.30588 0.0
H1227 H 0.43178 0.23895 0.38142 0.0
H1228 H 0.48056 0.31971 0.41712 0.0
H1229 H 0.47013 0.27793 0.39963 0.0
H1230 H 0.45696 0.29756 0.31464 0.0
H1231 H 0.46745 0.33918 0.33193 0.0
C1232 C 0.45678 0.23201 0.3073 0.0
C1233 C 0.43968 0.21033 0.32262 0.0
C1234 C 0.4646 0.25598 0.31836 0.0
C1235 C 0.45565 0.25892 0.34508 0.0
C1236 C 0.43914 0.23728 0.36085 0.0
C1237 C 0.43115 0.21322 0.34968 0.0
C1238 C 0.47562 0.31516 0.39466 0.0
C1239 C 0.47485 0.33279 0.37592 0.0
C1240 C 0.46949 0.29118 0.38471 0.0
C1241 C 0.46274 0.28447 0.35577 0.0
C1242 C 0.46237 0.30226 0.33699 0.0
C1243 C 0.46827 0.32608 0.34695 0.0
H1244 H 0.69409 0.16544 0.41565 0.0
H1245 H 0.67397 0.13212 0.33084 0.0
H1246 H 0.73567 0.19664 0.39769 0.0
H1247 H 0.71543 0.16313 0.31307 0.0
H1248 H 0.78279 0.23683 0.28425 0.0
H1249 H 0.74098 0.20892 0.30369 0.0
H1250 H 0.77428 0.19693 0.37964 0.0
H1251 H 0.81627 0.22506 0.3603 0.0
C1252 C 0.69846 0.16485 0.39317 0.0
C1253 C 0.68071 0.14627 0.37468 0.0
C1254 C 0.72232 0.18263 0.38295 0.0
C1255 C 0.72882 0.18233 0.35398 0.0
C1256 C 0.7109 0.16403 0.33543 0.0
C1257 C 0.68717 0.14617 0.34567 0.0
C1258 C 0.78126 0.2284 0.30519 0.0
C1259 C 0.80291 0.2331 0.32066 0.0
C1260 C 0.75728 0.2123 0.31625 0.0
C1261 C 0.75434 0.20062 0.34312 0.0
C1262 C 0.77595 0.20581 0.35897 0.0
C1263 C 0.8 0.22182 0.34781 0.0
H1264 H 0.88019 0.5453 0.33521 0.0
H1265 H 0.84818 0.5334 0.42059 0.0
H1266 H 0.84893 0.55545 0.31767 0.0
H1267 H 0.81666 0.54347 0.40283 0.0
H1268 H 0.78751 0.59497 0.36413 0.0
H1269 H 0.81576 0.58139 0.38393 0.0
H1270 H 0.80305 0.53465 0.30913 0.0
H1271 H 0.77508 0.54826 0.28923 0.0
C1272 C 0.86638 0.54468 0.35023 0.0
C1273 C 0.8667 0.53854 0.37932 0.0
C1274 C 0.84837 0.55038 0.34011 0.0
C1275 C 0.83031 0.55022 0.35886 0.0
C1276 C 0.83048 0.54393 0.38794 0.0
C1277 C 0.84842 0.53801 0.39804 0.0
C1278 C 0.7906 0.58165 0.35202 0.0
C1279 C 0.77916 0.57284 0.32501 0.0
C1280 C 0.80667 0.57378 0.36344 0.0
C1281 C 0.81175 0.55708 0.34798 0.0
C1282 C 0.79979 0.5478 0.32135 0.0
C1283 C 0.78365 0.55553 0.31003 0.0
H1284 H 0.56092 0.13821 0.86003 0.0
H1285 H 0.5314 0.0663 0.81726 0.0
H1286 H 0.60252 0.15177 0.83918 0.0
H1287 H 0.57321 0.07971 0.79724 0.0
H1288 H 0.66098 0.10703 0.81665 0.0
H1289 H 0.6184 0.09534 0.83214 0.0
H1290 H 0.62067 0.15418 0.77913 0.0
H1291 H 0.66321 0.16555 0.76272 0.0
C1292 C 0.56328 0.1254 0.84603 0.0
C1293 C 0.54294 0.10119 0.84028 0.0
C1294 C 0.587 0.13321 0.83407 0.0
C1295 C 0.59087 0.11673 0.8167 0.0
C1296 C 0.57053 0.0927 0.81055 0.0
C1297 C 0.54668 0.0851 0.82194 0.0
C1298 C 0.65245 0.11751 0.80828 0.0
C1299 C 0.66542 0.13724 0.78851 0.0
C1300 C 0.62808 0.11072 0.81703 0.0
C1301 C 0.61643 0.12386 0.80672 0.0
C1302 C 0.6294 0.14381 0.78728 0.0
C1303 C 0.65362 0.15025 0.77793 0.0
H1304 H 0.94413 0.46652 0.81839 0.0
H1305 H 0.87405 0.42706 0.86533 0.0
H1306 H 0.93064 0.49472 0.79801 0.0
H1307 H 0.86044 0.45502 0.84417 0.0
H1308 H 0.8482 0.50085 0.76171 0.0
H1309 H 0.85886 0.46952 0.77953 0.0
H1310 H 0.91459 0.52528 0.83614 0.0
H1311 H 0.90367 0.55635 0.81916 0.0
C1312 C 0.92571 0.4636 0.82399 0.0
C1313 C 0.91017 0.44463 0.84354 0.0
C1314 C 0.91806 0.47973 0.81234 0.0
C1315 C 0.89454 0.47682 0.81953 0.0
C1316 C 0.87861 0.45741 0.83827 0.0
C1317 C 0.88645 0.44156 0.85041 0.0
C1318 C 0.86265 0.50635 0.77802 0.0
C1319 C 0.87505 0.53101 0.78911 0.0
C1320 C 0.86866 0.48846 0.78819 0.0
C1321 C 0.88752 0.49519 0.80907 0.0
C1322 C 0.9 0.51979 0.82 0.0
C1323 C 0.89366 0.53747 0.81033 0.0
H1324 H 0.54566 0.47871 0.82019 0.0
H1325 H 0.58647 0.44949 0.86701 0.0
H1326 H 0.51695 0.43646 0.80155 0.0
H1327 H 0.558 0.40732 0.84756 0.0
H1328 H 0.51129 0.34734 0.76752 0.0
H1329 H 0.54272 0.38949 0.7847 0.0
H1330 H 0.48689 0.39095 0.83978 0.0
H1331 H 0.45568 0.34873 0.82345 0.0
C1332 C 0.54875 0.46337 0.82613 0.0
C1333 C 0.56827 0.46738 0.84512 0.0
C1334 C 0.5323 0.43927 0.81552 0.0
C1335 C 0.53545 0.41888 0.82316 0.0
C1336 C 0.55539 0.4229 0.84135 0.0
C1337 C 0.57154 0.44694 0.85249 0.0
C1338 C 0.5058 0.35662 0.78341 0.0
C1339 C 0.48106 0.34474 0.79421 0.0
C1340 C 0.52375 0.38062 0.79322 0.0
C1341 C 0.51703 0.39325 0.81342 0.0
C1342 C 0.49237 0.38146 0.82415 0.0
C1343 C 0.47462 0.35732 0.81487 0.0
H1344 H 0.57052 0.68177 0.65778 0.0
H1345 H 0.51485 0.68182 0.60072 0.0
H1346 H 0.58166 0.7239 0.67466 0.0
H1347 H 0.5257 0.72387 0.6184 0.0
H1348 H 0.54153 0.78292 0.70205 0.0
H1349 H 0.5278 0.74082 0.68239 0.0
H1350 H 0.59774 0.77011 0.63592 0.0
H1351 H 0.61133 0.81231 0.65479 0.0
C1352 C 0.56049 0.69065 0.64907 0.0
C1353 C 0.5418 0.6785 0.62793 0.0
C1354 C 0.56694 0.71474 0.65866 0.0
C1355 C 0.55448 0.72689 0.64775 0.0
C1356 C 0.53548 0.7147 0.62706 0.0
C1357 C 0.52936 0.69076 0.61697 0.0
C1358 C 0.55386 0.78042 0.68741 0.0
C1359 C 0.57751 0.8009 0.67996 0.0
C1360 C 0.54595 0.75642 0.67615 0.0
C1361 C 0.56178 0.75247 0.65776 0.0
C1362 C 0.58527 0.77287 0.65006 0.0
C1363 C 0.59296 0.79695 0.66081 0.0
H1364 H 0.23024 0.79486 0.71968 0.0
H1365 H 0.20098 0.76637 0.63504 0.0
H1366 H 0.2715 0.82252 0.69937 0.0
H1367 H 0.24283 0.79234 0.61454 0.0
H1368 H 0.31475 0.86054 0.58182 0.0
H1369 H 0.2732 0.83118 0.60079 0.0
H1370 H 0.30746 0.82734 0.68084 0.0
H1371 H 0.34851 0.85851 0.66243 0.0
C1372 C 0.23287 0.79424 0.69668 0.0
C1373 C 0.2125 0.77857 0.6789 0.0
C1374 C 0.25667 0.80993 0.68493 0.0
C1375 C 0.26097 0.80977 0.65512 0.0
C1376 C 0.24044 0.7936 0.63744 0.0
C1377 C 0.21641 0.77849 0.64916 0.0
C1378 C 0.31323 0.85319 0.60339 0.0
C1379 C 0.33469 0.86178 0.62076 0.0
C1380 C 0.28939 0.83619 0.61434 0.0
C1381 C 0.28655 0.8268 0.64266 0.0
C1382 C 0.30846 0.83462 0.65936 0.0
C1383 C 0.33214 0.85226 0.64873 0.0
H1384 H 0.22776 0.41568 0.63899 0.0
H1385 H 0.24097 0.46268 0.71381 0.0
H1386 H 0.19973 0.42961 0.61936 0.0
H1387 H 0.21322 0.47663 0.69408 0.0
H1388 H 0.13606 0.46627 0.66873 0.0
H1389 H 0.16732 0.45601 0.68594 0.0
H1390 H 0.19901 0.46769 0.6005 0.0
H1391 H 0.16747 0.47787 0.58305 0.0
C1392 C 0.22489 0.42914 0.65112 0.0
C1393 C 0.23647 0.43791 0.67807 0.0
C1394 C 0.20894 0.43721 0.63979 0.0
C1395 C 0.20415 0.45408 0.65528 0.0
C1396 C 0.21627 0.46334 0.68184 0.0
C1397 C 0.23227 0.45541 0.69307 0.0
C1398 C 0.14975 0.46681 0.65358 0.0
C1399 C 0.14925 0.47289 0.6245 0.0
C1400 C 0.16777 0.46106 0.66351 0.0
C1401 C 0.18565 0.46109 0.64459 0.0
C1402 C 0.18533 0.46734 0.61552 0.0
C1403 C 0.16738 0.47332 0.6056 0.0
H1404 H 0.33456 0.85254 0.17171 0.0
H1405 H 0.36883 0.88836 0.25216 0.0
H1406 H 0.37542 0.86195 0.15314 0.0
H1407 H 0.41019 0.90005 0.23302 0.0
H1408 H 0.48185 0.90649 0.1988 0.0
H1409 H 0.44004 0.89083 0.21928 0.0
H1410 H 0.41156 0.89287 0.1345 0.0
H1411 H 0.45279 0.90624 0.11419 0.0
C1412 C 0.35101 0.86258 0.18533 0.0
C1413 C 0.34866 0.8697 0.21331 0.0
C1414 C 0.37457 0.86833 0.17461 0.0
C1415 C 0.39656 0.88224 0.19124 0.0
C1416 C 0.39392 0.88897 0.21955 0.0
C1417 C 0.37019 0.88242 0.23058 0.0
C1418 C 0.46646 0.90333 0.18468 0.0
C1419 C 0.47041 0.90743 0.15497 0.0
C1420 C 0.44246 0.89454 0.19639 0.0
C1421 C 0.42203 0.89046 0.17873 0.0
C1422 C 0.42635 0.89495 0.14892 0.0
C1423 C 0.45012 0.90291 0.13717 0.0
H1424 H 0.13649 0.46622 0.16653 0.0
H1425 H 0.14868 0.49866 0.25173 0.0
H1426 H 0.12653 0.49755 0.14875 0.0
H1427 H 0.13885 0.53029 0.23373 0.0
H1428 H 0.08663 0.55857 0.19586 0.0
H1429 H 0.10095 0.5309 0.2154 0.0
H1430 H 0.1463 0.5431 0.13949 0.0
H1431 H 0.13185 0.57054 0.11979 0.0
C1432 C 0.13725 0.48017 0.18145 0.0
C1433 C 0.14333 0.47988 0.21059 0.0
C1434 C 0.13168 0.49824 0.17119 0.0
C1435 C 0.13192 0.51642 0.18982 0.0
C1436 C 0.13831 0.51638 0.2189 0.0
C1437 C 0.14409 0.49837 0.22916 0.0
C1438 C 0.09979 0.55549 0.18342 0.0
C1439 C 0.10796 0.56665 0.15616 0.0
C1440 C 0.10811 0.53976 0.19471 0.0
C1441 C 0.12467 0.53472 0.17894 0.0
C1442 C 0.13329 0.54636 0.152 0.0
C1443 C 0.12509 0.56218 0.14078 0.0
H1444 H 0.51477 0.6521 0.25092 0.0
H1445 H 0.54767 0.67256 0.16597 0.0
H1446 H 0.48327 0.6107 0.23271 0.0
H1447 H 0.51642 0.63129 0.14798 0.0
H1448 H 0.44305 0.56408 0.11871 0.0
H1449 H 0.47077 0.60582 0.13856 0.0
H1450 H 0.48263 0.57214 0.21425 0.0
H1451 H 0.45468 0.53026 0.19454 0.0
C1452 C 0.5152 0.64785 0.22836 0.0
C1453 C 0.53376 0.66563 0.20991 0.0
C1454 C 0.49726 0.62409 0.21799 0.0
C1455 C 0.49736 0.61774 0.18891 0.0
C1456 C 0.51564 0.6357 0.17041 0.0
C1457 C 0.53366 0.65932 0.18079 0.0
C1458 C 0.4514 0.56552 0.13969 0.0
C1459 C 0.44674 0.5438 0.15496 0.0
C1460 C 0.46739 0.58946 0.15099 0.0
C1461 C 0.479 0.59228 0.1779 0.0
C1462 C 0.4738 0.57058 0.19357 0.0
C1463 C 0.45789 0.54659 0.18219 0.0
H1464 H 0.14814 0.65219 0.7524 0.0
H1465 H 0.13638 0.67213 0.66685 0.0
H1466 H 0.13785 0.61044 0.73482 0.0
H1467 H 0.12601 0.63061 0.64951 0.0
H1468 H 0.13161 0.56308 0.62125 0.0
H1469 H 0.14605 0.60491 0.64097 0.0
H1470 H 0.09967 0.5718 0.71619 0.0
H1471 H 0.08529 0.52976 0.69658 0.0
C1472 C 0.14355 0.64775 0.72985 0.0
C1473 C 0.14307 0.66549 0.71104 0.0
C1474 C 0.1375 0.62381 0.71985 0.0
C1475 C 0.13114 0.61725 0.69078 0.0
C1476 C 0.13113 0.63517 0.67194 0.0
C1477 C 0.13694 0.65895 0.68194 0.0
C1478 C 0.12459 0.56464 0.6421 0.0
C1479 C 0.10715 0.54304 0.65725 0.0
C1480 C 0.13281 0.58865 0.65333 0.0
C1481 C 0.12388 0.59167 0.68004 0.0
C1482 C 0.10704 0.57008 0.69565 0.0
C1483 C 0.09869 0.54601 0.68433 0.0
H1484 H 0.35187 0.50952 0.73833 0.0
H1485 H 0.35375 0.45337 0.68379 0.0
H1486 H 0.39432 0.54072 0.72173 0.0
H1487 H 0.39623 0.48428 0.66808 0.0
H1488 H 0.48333 0.54201 0.68376 0.0
H1489 H 0.44142 0.51361 0.70347 0.0
H1490 H 0.41242 0.55656 0.66139 0.0
H1491 H 0.45415 0.58465 0.64086 0.0
C1492 C 0.36136 0.50386 0.72293 0.0
C1493 C 0.34951 0.47907 0.71226 0.0
C1494 C 0.38552 0.52165 0.71346 0.0
C1495 C 0.39835 0.5147 0.69381 0.0
C1496 C 0.38663 0.48995 0.68335 0.0
C1497 C 0.36233 0.47237 0.69223 0.0
C1498 C 0.4681 0.54558 0.67896 0.0
C1499 C 0.47196 0.56548 0.66069 0.0
C1500 C 0.44419 0.52933 0.69018 0.0
C1501 C 0.42393 0.53308 0.68391 0.0
C1502 C 0.4279 0.55348 0.66658 0.0
C1503 C 0.45168 0.56941 0.65479 0.0
H1504 H 0.53068 0.88726 0.75036 0.0
H1505 H 0.53179 0.85408 0.66895 0.0
H1506 H 0.50087 0.89867 0.73111 0.0
H1507 H 0.50014 0.86316 0.65015 0.0
H1508 H 0.46471 0.90583 0.61232 0.0
H1509 H 0.49332 0.89322 0.63225 0.0
H1510 H 0.46188 0.88887 0.71702 0.0
H1511 H 0.43501 0.90384 0.69699 0.0
C1512 C 0.52398 0.88187 0.72849 0.0
C1513 C 0.53354 0.86992 0.71106 0.0
C1514 C 0.50667 0.88824 0.71738 0.0
C1515 C 0.49787 0.88205 0.6888 0.0
C1516 C 0.50685 0.86907 0.67188 0.0
C1517 C 0.52481 0.86353 0.68271 0.0
C1518 C 0.46402 0.90215 0.63522 0.0
C1519 C 0.44777 0.90585 0.65316 0.0
C1520 C 0.48028 0.89463 0.64675 0.0
C1521 C 0.48012 0.88977 0.67646 0.0
C1522 C 0.46324 0.89294 0.69422 0.0
C1523 C 0.44758 0.90131 0.68276 0.0
H1524 H 0.22983 0.43654 0.22072 0.0
H1525 H 0.20132 0.43736 0.13611 0.0
H1526 H 0.27114 0.44995 0.2006 0.0
H1527 H 0.24322 0.45308 0.11586 0.0
H1528 H 0.31468 0.45629 0.08287 0.0
H1529 H 0.27318 0.44415 0.10191 0.0
H1530 H 0.30743 0.48101 0.18252 0.0
H1531 H 0.34843 0.49084 0.164 0.0
C1532 C 0.23265 0.4401 0.19778 0.0
C1533 C 0.21248 0.43588 0.17992 0.0
C1534 C 0.25646 0.44809 0.18615 0.0
C1535 C 0.26097 0.45293 0.15641 0.0
C1536 C 0.24065 0.4491 0.13869 0.0
C1537 C 0.2166 0.44028 0.15027 0.0
C1538 C 0.31317 0.46185 0.1046 0.0
C1539 C 0.33461 0.47436 0.12206 0.0
C1540 C 0.28936 0.45504 0.11558 0.0
C1541 C 0.28654 0.46131 0.14404 0.0
C1542 C 0.30842 0.47498 0.16091 0.0
C1543 C 0.33207 0.48097 0.15022 0.0
H1544 H 0.54682 0.87784 0.16819 0.0
H1545 H 0.53528 0.84571 0.08288 0.0
H1546 H 0.55703 0.8467 0.18597 0.0
H1547 H 0.54539 0.81427 0.10089 0.0
H1548 H 0.59784 0.78641 0.13952 0.0
H1549 H 0.58351 0.81401 0.11972 0.0
H1550 H 0.53706 0.80098 0.19482 0.0
H1551 H 0.55147 0.77363 0.21476 0.0
C1552 C 0.54627 0.864 0.15325 0.0
C1553 C 0.54028 0.8643 0.12409 0.0
C1554 C 0.55199 0.84605 0.16351 0.0
C1555 C 0.55199 0.82801 0.14484 0.0
C1556 C 0.54573 0.82808 0.11572 0.0
C1557 C 0.5398 0.84597 0.10547 0.0
C1558 C 0.58444 0.7893 0.15173 0.0
C1559 C 0.57595 0.77795 0.17883 0.0
C1560 C 0.57612 0.80499 0.14029 0.0
C1561 C 0.55926 0.80976 0.15579 0.0
C1562 C 0.55031 0.79792 0.18254 0.0
C1563 C 0.5585 0.78216 0.1939 0.0
H1564 H 0.21915 0.78355 0.22257 0.0
H1565 H 0.2485 0.81105 0.13772 0.0
H1566 H 0.19053 0.74225 0.2028 0.0
H1567 H 0.22159 0.76915 0.11785 0.0
H1568 H 0.15232 0.69872 0.0851 0.0
H1569 H 0.18234 0.74 0.10411 0.0
H1570 H 0.18391 0.70538 0.18485 0.0
H1571 H 0.15211 0.66462 0.16632 0.0
C1572 C 0.21977 0.7805 0.19967 0.0
C1573 C 0.23591 0.8004 0.18163 0.0
C1574 C 0.2035 0.75668 0.18823 0.0
C1575 C 0.20354 0.75191 0.15852 0.0
C1576 C 0.22034 0.77193 0.14066 0.0
C1577 C 0.23601 0.79598 0.15202 0.0
C1578 C 0.15926 0.70009 0.10686 0.0
C1579 C 0.14989 0.67862 0.12433 0.0
C1580 C 0.17668 0.72378 0.11782 0.0
C1581 C 0.18575 0.72645 0.14628 0.0
C1582 C 0.17698 0.70453 0.16321 0.0
C1583 C 0.15893 0.68101 0.15254 0.0
H1584 H 0.33037 0.28527 0.02569 0.0
H1585 H 0.29393 0.269 0.10887 0.0
H1586 H 0.35407 0.32996 0.03807 0.0
H1587 H 0.31742 0.31362 0.12103 0.0
H1588 H 0.38148 0.39288 0.14305 0.0
H1589 H 0.36089 0.34807 0.13109 0.0
H1590 H 0.34434 0.36411 0.04588 0.0
H1591 H 0.36502 0.40874 0.05761 0.0
C1592 C 0.32745 0.29119 0.04661 0.0
C1593 C 0.31018 0.27358 0.06623 0.0
C1594 C 0.34094 0.3168 0.05365 0.0
C1595 C 0.33758 0.3253 0.08051 0.0
C1596 C 0.32063 0.30762 0.10029 0.0
C1597 C 0.30704 0.28207 0.09321 0.0
C1598 C 0.37354 0.38684 0.12174 0.0
C1599 C 0.37483 0.40438 0.10133 0.0
C1600 C 0.36166 0.36118 0.11494 0.0
C1601 C 0.35101 0.35258 0.08754 0.0
C1602 C 0.35263 0.37017 0.06705 0.0
C1603 C 0.36434 0.39575 0.07388 0.0
H1604 H 0.60549 0.95953 0.05885 0.0
H1605 H 0.62095 0.99349 0.14345 0.0
H1606 H 0.65013 0.98342 0.04729 0.0
H1607 H 0.66576 0.01765 0.13165 0.0
H1608 H 0.74484 0.02916 0.11105 0.0
H1609 H 0.70022 0.0085 0.12288 0.0
H1610 H 0.68433 0.02707 0.03865 0.0
H1611 H 0.72905 0.04758 0.02659 0.0
C1612 C 0.6184 0.97219 0.07496 0.0
C1613 C 0.60965 0.97452 0.10215 0.0
C1614 C 0.64398 0.98603 0.06822 0.0
C1615 C 0.66146 1.00244 0.08854 0.0
C1616 C 0.65274 1.00497 0.11564 0.0
C1617 C 0.62708 0.99122 0.12235 0.0
C1618 C 0.73188 0.02894 0.09504 0.0
C1619 C 0.7405 0.03992 0.0678 0.0
C1620 C 0.70632 0.01725 0.10193 0.0
C1621 C 0.68876 0.01614 0.0817 0.0
C1622 C 0.6974 0.0274 0.05458 0.0
C1623 C 0.72302 0.03924 0.04773 0.0
H1624 H 0.96432 0.68201 0.02815 0.0
H1625 H 0.98429 0.71823 0.11149 0.0
H1626 H 0.98523 0.65823 0.04052 0.0
H1627 H 1.00532 0.69465 0.12365 0.0
H1628 H 0.02102 0.63081 0.14532 0.0
H1629 H 0.99657 0.6512 0.13354 0.0
H1630 H 0.02911 0.66812 0.04833 0.0
H1631 H 0.05329 0.64767 0.05989 0.0
C1632 C 0.9731 0.68486 0.04911 0.0
C1633 C 0.97273 0.70211 0.06876 0.0
C1634 C 0.98515 0.67131 0.05614 0.0
C1635 C 0.99696 0.6746 0.08304 0.0
C1636 C 0.99617 0.69149 0.10288 0.0
C1637 C 0.98426 0.70514 0.0958 0.0
C1638 C 0.02286 0.63879 0.12405 0.0
C1639 C 0.03917 0.63768 0.1036 0.0
C1640 C 0.00894 0.65055 0.11735 0.0
C1641 C 0.0109 0.66125 0.08999 0.0
C1642 C 0.02694 0.6598 0.06946 0.0
C1643 C 0.04094 0.64822 0.0762 0.0
H1644 H 0.28645 0.32611 0.47572 0.0
H1645 H 0.26982 0.28998 0.3923 0.0
H1646 H 0.33108 0.3497 0.46328 0.0
H1647 H 0.31444 0.31345 0.38004 0.0
H1648 H 0.39328 0.37897 0.35822 0.0
H1649 H 0.34853 0.35744 0.37038 0.0
H1650 H 0.36542 0.34011 0.45475 0.0
H1651 H 0.41007 0.36171 0.44278 0.0
C1652 C 0.29229 0.32322 0.45473 0.0
C1653 C 0.27458 0.30611 0.43503 0.0
C1654 C 0.31787 0.33665 0.44767 0.0
C1655 C 0.32625 0.3334 0.4207 0.0
C1656 C 0.30851 0.31655 0.40087 0.0
C1657 C 0.28297 0.30299 0.40799 0.0
C1658 C 0.38745 0.37064 0.37939 0.0
C1659 C 0.40524 0.37202 0.3995 0.0
C1660 C 0.36182 0.35821 0.38629 0.0
C1661 C 0.35348 0.34709 0.41351 0.0
C1662 C 0.3713 0.34873 0.43371 0.0
C1663 C 0.39687 0.36098 0.42676 0.0
H1664 H 0.63308 0.01782 0.35771 0.0
H1665 H 0.65125 0.05223 0.44208 0.0
H1666 H 0.65424 0.99419 0.36979 0.0
H1667 H 0.67246 0.02878 0.45396 0.0
H1668 H 0.6857 0.96354 0.47534 0.0
H1669 H 0.66231 0.98474 0.46271 0.0
H1670 H 0.69815 1.0035 0.37927 0.0
H1671 H 0.72144 0.98217 0.39174 0.0
C1672 C 0.64152 0.02031 0.37883 0.0
C1673 C 0.64051 0.03694 0.39891 0.0
C1674 C 0.65374 0.00687 0.38567 0.0
C1675 C 0.66499 0.00963 0.41282 0.0
C1676 C 0.66372 0.02604 0.43298 0.0
C1677 C 0.6517 0.0396 0.42608 0.0
C1678 C 0.68853 0.97209 0.45426 0.0
C1679 C 0.7055 0.97123 0.43459 0.0
C1680 C 0.67521 0.98434 0.44709 0.0
C1681 C 0.67843 0.99583 0.42003 0.0
C1682 C 0.69509 0.99461 0.40018 0.0
C1683 C 0.70855 0.98253 0.40742 0.0
H1684 H 0.03075 0.74211 0.39049 0.0
H1685 H 0.04875 0.72742 0.47572 0.0
H1686 H 0.01027 0.69735 0.37937 0.0
H1687 H 0.0284 0.68254 0.46438 0.0
H1688 H 0.96146 0.6031 0.44434 0.0
H1689 H 0.98504 0.64787 0.45556 0.0
H1690 H 0.01981 0.66309 0.37155 0.0
H1691 H 0.99597 0.61818 0.36011 0.0
C1692 C 0.03046 0.72935 0.40683 0.0
C1693 C 0.0413 0.73835 0.43407 0.0
C1694 C 0.01887 0.70371 0.40035 0.0
C1695 C 0.01772 0.68641 0.42098 0.0
C1696 C 0.02878 0.6954 0.44813 0.0
C1697 C 0.04051 0.72111 0.45458 0.0
C1698 C 0.97419 0.61594 0.42825 0.0
C1699 C 0.97674 0.60706 0.40125 0.0
C1700 C 0.98784 0.6416 0.43479 0.0
C1701 C 1.00427 0.65902 0.41445 0.0
C1702 C 1.00708 0.65014 0.38756 0.0
C1703 C 0.99352 0.62441 0.38106 0.0
H1704 H 0.63441 0.61811 0.85739 0.0
H1705 H 0.65139 0.60208 0.94248 0.0
H1706 H 0.65527 0.66295 0.86941 0.0
H1707 H 0.67227 0.6467 0.95428 0.0
H1708 H 0.68515 0.72484 0.97542 0.0
H1709 H 0.66182 0.68034 0.96242 0.0
H1710 H 0.69894 0.69777 0.87971 0.0
H1711 H 0.72216 0.74233 0.89254 0.0
C1712 C 0.64253 0.62412 0.87864 0.0
C1713 C 0.64126 0.60652 0.89895 0.0
C1714 C 0.65457 0.64979 0.88546 0.0
C1715 C 0.66537 0.65833 0.91281 0.0
C1716 C 0.66387 0.64068 0.93316 0.0
C1717 C 0.65203 0.61511 0.9263 0.0
C1718 C 0.68828 0.71923 0.95441 0.0
C1719 C 0.70561 0.73714 0.93508 0.0
C1720 C 0.67499 0.69371 0.94702 0.0
C1721 C 0.67861 0.68556 0.92008 0.0
C1722 C 0.69558 0.70351 0.90053 0.0
C1723 C 0.709 0.72902 0.90798 0.0
H1724 H 0.28664 0.96372 0.97719 0.0
H1725 H 0.271 0.9818 0.89249 0.0
H1726 H 0.33151 0.98477 0.96549 0.0
H1727 H 0.31568 1.00287 0.88099 0.0
H1728 H 0.39404 0.01599 0.86015 0.0
H1729 H 0.34945 0.99257 0.87265 0.0
H1730 H 0.36632 0.02862 0.956 0.0
H1731 H 0.41096 0.05195 0.94366 0.0
C1732 C 0.29274 0.97211 0.95609 0.0
C1733 C 0.27523 0.9711 0.9358 0.0
C1734 C 0.31843 0.98426 0.94945 0.0
C1735 C 0.3271 0.99544 0.92231 0.0
C1736 C 0.30956 0.99418 0.90196 0.0
C1737 C 0.28395 0.98223 0.90864 0.0
C1738 C 0.38828 0.01887 0.88119 0.0
C1739 C 0.40606 0.03592 0.90086 0.0
C1740 C 0.36271 0.00552 0.88829 0.0
C1741 C 0.35438 0.00881 0.91528 0.0
C1742 C 0.37219 0.02552 0.93514 0.0
C1743 C 0.39775 0.039 0.92798 0.0
H1744 H 0.04778 0.32439 0.97688 0.0
H1745 H 0.03021 0.29189 0.89155 0.0
H1746 H 0.027 0.34857 0.96554 0.0
H1747 H 0.00936 0.31575 0.88045 0.0
H1748 H 0.99533 0.38037 0.86046 0.0
H1749 H 0.01914 0.35949 0.8726 0.0
H1750 H 0.98351 0.33992 0.95615 0.0
H1751 H 0.9599 0.36099 0.94421 0.0
C1752 C 0.03955 0.32244 0.95573 0.0
C1753 C 0.04061 0.30617 0.93516 0.0
C1754 C 0.02756 0.33618 0.94929 0.0
C1755 C 0.01657 0.33408 0.92208 0.0
C1756 C 0.01791 0.31804 0.90146 0.0
C1757 C 0.02973 0.30422 0.90793 0.0
C1758 C 0.99264 0.37171 0.88146 0.0
C1759 C 0.97561 0.37224 0.9013 0.0
C1760 C 1.00621 0.35966 0.88837 0.0
C1761 C 1.00315 0.348 0.91531 0.0
C1762 C 0.98648 0.34895 0.93534 0.0
C1763 C 0.97281 0.36087 0.92839 0.0
H1764 H 0.74444 0.71819 0.61005 0.0
H1765 H 0.72822 0.68573 0.52467 0.0
H1766 H 0.6998 0.69433 0.6219 0.0
H1767 H 0.68348 0.66168 0.53672 0.0
H1768 H 0.60446 0.64944 0.5592 0.0
H1769 H 0.64908 0.6709 0.547 0.0
H1770 H 0.66572 0.65018 0.62957 0.0
H1771 H 0.62106 0.62884 0.64196 0.0
C1772 C 0.73137 0.70589 0.59383 0.0
C1773 C 0.73989 0.70392 0.56637 0.0
C1774 C 0.70581 0.69209 0.60071 0.0
C1775 C 0.68814 0.67613 0.58025 0.0
C1776 C 0.69665 0.67402 0.55284 0.0
C1777 C 0.72227 0.6877 0.546 0.0
C1778 C 0.6176 0.64938 0.57475 0.0
C1779 C 0.6092 0.6375 0.60161 0.0
C1780 C 0.64315 0.66154 0.56766 0.0
C1781 C 0.6609 0.66224 0.58733 0.0
C1782 C 0.6525 0.65017 0.61409 0.0
C1783 C 0.62691 0.63785 0.62112 0.0
H1784 H 0.29398 0.02735 0.60984 0.0
H1785 H 0.33067 0.04793 0.52682 0.0
H1786 H 0.3172 0.00591 0.62176 0.0
H1787 H 0.3541 0.02661 0.53896 0.0
H1788 H 0.36484 0.95858 0.55776 0.0
H1789 H 0.34431 0.98273 0.54631 0.0
H1790 H 0.36041 0.01444 0.63196 0.0
H1791 H 0.38084 0.99002 0.64362 0.0
C1792 C 0.30709 0.02742 0.59416 0.0
C1793 C 0.31037 0.03927 0.5673 0.0
C1794 C 0.32053 0.01526 0.60111 0.0
C1795 C 0.33747 0.01455 0.58131 0.0
C1796 C 0.34098 0.02662 0.55456 0.0
C1797 C 0.32763 0.03892 0.54766 0.0
C1798 C 0.36408 0.97073 0.57419 0.0
C1799 C 0.37441 0.97229 0.60167 0.0
C1800 C 0.35246 0.98471 0.56752 0.0
C1801 C 0.35076 1.00052 0.5882 0.0
C1802 C 0.36123 1.00224 0.61565 0.0
C1803 C 0.37302 0.98834 0.62228 0.0
H1804 H 0.02135 0.39213 0.64521 0.0
H1805 H 0.05384 0.40785 0.55988 0.0
H1806 H 0.99742 0.34726 0.63347 0.0
H1807 H 0.03014 0.36316 0.54836 0.0
H1808 H 0.96495 0.28457 0.52815 0.0
H1809 H 0.98615 0.32921 0.54059 0.0
H1810 H 1.0064 0.31261 0.62346 0.0
H1811 H 0.98504 0.26795 0.61121 0.0
C1812 C 0.02336 0.38604 0.62396 0.0
C1813 C 0.03954 0.40357 0.60351 0.0
C1814 C 0.00975 0.36035 0.6173 0.0
C1815 C 0.01189 0.3517 0.58999 0.0
C1816 C 0.02786 0.36926 0.56947 0.0
C1817 C 0.04157 0.39488 0.57617 0.0
C1818 C 0.97383 0.29041 0.54907 0.0
C1819 C 0.97338 0.27269 0.56864 0.0
C1820 C 0.98607 0.316 0.55613 0.0
C1821 C 0.99799 0.32441 0.58298 0.0
C1822 C 0.99717 0.30666 0.60273 0.0
C1823 C 0.98507 0.28109 0.59561 0.0
H1824 H 0.93822 0.62464 0.72364 0.0
H1825 H 0.95371 0.65964 0.80766 0.0
H1826 H 0.98289 0.6484 0.71204 0.0
H1827 H 0.9985 0.68364 0.79583 0.0
H1828 H 0.07771 0.69547 0.77604 0.0
H1829 H 0.03303 0.67449 0.78764 0.0
H1830 H 0.01711 0.692 0.70286 0.0
H1831 H 0.0619 0.71285 0.69105 0.0
C1832 C 0.95113 0.6375 0.73961 0.0
C1833 C 0.94239 0.64016 0.76664 0.0
C1834 C 0.97673 0.65125 0.73285 0.0
C1835 C 0.99422 0.6679 0.753 0.0
C1836 C 0.98549 0.67077 0.77995 0.0
C1837 C 0.95983 0.65711 0.78667 0.0
C1838 C 0.06472 0.69493 0.75986 0.0
C1839 C 0.07338 0.70575 0.73255 0.0
C1840 C 0.03912 0.68305 0.76661 0.0
C1841 C 0.02154 0.68159 0.74618 0.0
C1842 C 0.03019 0.69261 0.71896 0.0
C1843 C 0.05585 0.70465 0.71224 0.0
H1844 H 0.30083 0.35183 0.69232 0.0
H1845 H 0.31819 0.38542 0.77713 0.0
H1846 H 0.32187 0.32808 0.70437 0.0
H1847 H 0.3393 0.36188 0.78897 0.0
H1848 H 0.35272 0.2966 0.80969 0.0
H1849 H 0.32932 0.31784 0.79726 0.0
H1850 H 0.36568 0.33748 0.71412 0.0
H1851 H 0.38894 0.3161 0.72636 0.0
C1852 C 0.30907 0.35411 0.71353 0.0
C1853 C 0.30787 0.37055 0.73374 0.0
C1854 C 0.32121 0.34061 0.72036 0.0
C1855 C 0.33223 0.34313 0.74761 0.0
C1856 C 0.33075 0.35932 0.76791 0.0
C1857 C 0.31878 0.37294 0.76104 0.0
C1858 C 0.35567 0.30537 0.78872 0.0
C1859 C 0.37276 0.30472 0.76906 0.0
C1860 C 0.34234 0.31763 0.78166 0.0
C1861 C 0.3457 0.32935 0.75473 0.0
C1862 C 0.36251 0.32839 0.73492 0.0
C1863 C 0.37595 0.31628 0.74203 0.0
H1864 H 0.6283 0.93573 0.77705 0.0
H1865 H 0.66275 0.95138 0.69276 0.0
H1866 H 0.65195 0.98041 0.78869 0.0
H1867 H 0.68664 0.9962 0.70463 0.0
H1868 H 0.69771 0.07515 0.72489 0.0
H1869 H 0.67716 0.0305 0.71316 0.0
H1870 H 0.69553 0.01483 0.79761 0.0
H1871 H 0.71597 0.05961 0.80956 0.0
C1872 C 0.64101 0.94868 0.76103 0.0
C1873 C 0.64355 0.93998 0.7339 0.0
C1874 C 0.65471 0.97428 0.76781 0.0
C1875 C 0.67117 0.99182 0.7476 0.0
C1876 C 0.67391 0.98314 0.72056 0.0
C1877 C 0.66031 0.95747 0.71381 0.0
C1878 C 0.69746 0.06223 0.74097 0.0
C1879 C 0.70839 0.07094 0.76823 0.0
C1880 C 0.68583 0.03665 0.73414 0.0
C1881 C 0.68472 0.01915 0.75445 0.0
C1882 C 0.69588 0.02786 0.78161 0.0
C1883 C 0.70767 0.05351 0.78841 0.0
H1884 H 0.31877 0.9365 0.27594 0.0
H1885 H 0.30152 0.95154 0.1905 0.0
H1886 H 0.3392 0.98115 0.28729 0.0
H1887 H 0.32188 0.99643 0.20209 0.0
H1888 H 0.38861 0.07599 0.22388 0.0
H1889 H 0.36516 0.03136 0.21178 0.0
H1890 H 0.32921 0.01498 0.29515 0.0
H1891 H 0.35288 0.05967 0.30747 0.0
C1892 C 0.31922 0.94931 0.25958 0.0
C1893 C 0.30857 0.94043 0.23224 0.0
C1894 C 0.33079 0.97492 0.2662 0.0
C1895 C 0.33211 0.99232 0.24563 0.0
C1896 C 0.32133 0.98348 0.21832 0.0
C1897 C 0.30959 0.95777 0.21172 0.0
C1898 C 0.37565 0.06291 0.23963 0.0
C1899 C 0.37273 0.0714 0.26673 0.0
C1900 C 0.36207 0.03734 0.23258 0.0
C1901 C 0.34536 0.01964 0.25251 0.0
C1902 C 0.34216 0.02815 0.27946 0.0
C1903 C 0.35565 0.05376 0.28646 0.0
H1904 H 0.93802 0.31675 0.22393 0.0
H1905 H 0.9536 0.29754 0.30806 0.0
H1906 H 0.98263 0.3372 0.21206 0.0
H1907 H 0.99831 0.31785 0.29597 0.0
H1908 H 0.07751 0.38476 0.27588 0.0
H1909 H 0.03287 0.36137 0.2875 0.0
H1910 H 0.01671 0.32749 0.20294 0.0
H1911 H 0.06154 0.35116 0.19109 0.0
C1912 C 0.95094 0.31679 0.23987 0.0
C1913 C 0.94225 0.30562 0.26702 0.0
C1914 C 0.97649 0.32835 0.23295 0.0
C1915 C 0.99398 0.32914 0.25307 0.0
C1916 C 0.98529 0.31776 0.28012 0.0
C1917 C 0.95968 0.30605 0.287 0.0
C1918 C 0.06449 0.37228 0.25974 0.0
C1919 C 0.0731 0.36991 0.23249 0.0
C1920 C 0.0389 0.35874 0.26651 0.0
C1921 C 0.02127 0.34258 0.24616 0.0
C1922 C 0.02985 0.33999 0.21898 0.0
C1923 C 0.05552 0.35346 0.21224 0.0
H1924 H 0.71646 0.66019 0.30898 0.0
H1925 H 0.69763 0.62507 0.225 0.0
H1926 H 0.69603 0.68438 0.29649 0.0
H1927 H 0.67706 0.64907 0.21272 0.0
H1928 H 0.6626 0.71384 0.19152 0.0
H1929 H 0.68649 0.6929 0.20348 0.0
H1930 H 0.6523 0.67477 0.28783 0.0
H1931 H 0.62867 0.69577 0.2761 0.0
C1932 C 0.70804 0.65767 0.28785 0.0
C1933 C 0.70857 0.64061 0.26805 0.0
C1934 C 0.69625 0.67145 0.28075 0.0
C1935 C 0.68491 0.66858 0.25364 0.0
C1936 C 0.68587 0.65189 0.23365 0.0
C1937 C 0.6975 0.638 0.2408 0.0
C1938 C 0.66029 0.70548 0.21265 0.0
C1939 C 0.64368 0.70641 0.23281 0.0
C1940 C 0.67387 0.69341 0.21944 0.0
C1941 C 0.67127 0.68222 0.24661 0.0
C1942 C 0.65494 0.68348 0.26686 0.0
C1943 C 0.64126 0.69537 0.26002 0.0
loop_
_geom_bond_atom_site_label_1
_geom_bond_atom_site_label_2
_geom_bond_distance
_geom_bond_site_symmetry_2
_ccdc_geom_bond_type
C0 O2 1.247 . S
C0 O4 1.258 . S
C1 O8 1.247 . S
C1 O9 1.258 . S
O2 C0 1.247 . S
O2 Zn3 2.028 . S
Zn3 O2 2.028 . S
Zn3 O7 2.035 . S
Zn3 O9 2.035 . S
Zn3 O10 2.028 . S
O4 C0 1.258 . S
O4 Zn5 2.035 . S
Zn5 O4 2.035 . S
Zn5 O6 2.028 . S
Zn5 O8 2.028 . S
Zn5 O11 2.035 . S
O6 Zn5 2.028 . S
O6 C12 1.247 . S
O7 Zn3 2.035 . S
O7 C12 1.258 . S
O8 C1 1.247 . S
O8 Zn5 2.028 . S
O9 C1 1.258 . S
O9 Zn3 2.035 . S
O10 Zn3 2.028 . S
O10 C13 1.247 . S
O11 Zn5 2.035 . S
O11 C13 1.258 . S
C12 O6 1.247 . S
C12 O7 1.258 . S
C13 O10 1.247 . S
C13 O11 1.258 . S
C14 O16 1.247 . S
C14 O18 1.258 . S
C15 O22 1.247 . S
C15 O23 1.258 . S
O16 C14 1.247 . S
O16 Zn17 2.028 . S
Zn17 O16 2.028 . S
Zn17 O21 2.035 . S
Zn17 O23 2.035 . S
Zn17 O24 2.028 . S
O18 C14 1.258 . S
O18 Zn19 2.035 . S
Zn19 O18 2.035 . S
Zn19 O20 2.028 . S
Zn19 O22 2.028 . S
Zn19 O25 2.035 . S
O20 Zn19 2.028 . S
O20 C26 1.247 . S
O21 Zn17 2.035 . S
O21 C26 1.258 . S
O22 C15 1.247 . S
O22 Zn19 2.028 . S
O23 C15 1.258 . S
O23 Zn17 2.035 . S
O24 Zn17 2.028 . S
O24 C27 1.247 . S
O25 Zn19 2.035 . S
O25 C27 1.258 . S
C26 O20 1.247 . S
C26 O21 1.258 . S
C27 O24 1.247 . S
C27 O25 1.258 . S
C28 O30 1.247 . S
C28 O32 1.258 . S
C29 O36 1.247 . S
C29 O37 1.258 . S
O30 C28 1.247 . S
O30 Zn31 2.028 . S
Zn31 O30 2.028 . S
Zn31 O35 2.035 . S
Zn31 O37 2.035 . S
Zn31 O38 2.028 . S
O32 C28 1.258 . S
O32 Zn33 2.035 . S
Zn33 O32 2.035 . S
Zn33 O34 2.028 . S
Zn33 O36 2.028 . S
Zn33 O39 2.035 . S
O34 Zn33 2.028 . S
O34 C40 1.247 . S
O35 Zn31 2.035 . S
O35 C40 1.258 . S
O36 C29 1.247 . S
O36 Zn33 2.028 . S
O37 C29 1.258 . S
O37 Zn31 2.035 . S
O38 Zn31 2.028 . S
O38 C41 1.247 . S
O39 Zn33 2.035 . S
O39 C41 1.258 . S
C40 O34 1.247 . S
C40 O35 1.258 . S
C41 O38 1.247 . S
C41 O39 1.258 . S
C42 O44 1.247 . S
C42 O46 1.258 . S
C43 O50 1.247 . S
C43 O51 1.258 . S
O44 C42 1.247 . S
O44 Zn45 2.028 . S
Zn45 O44 2.028 . S
Zn45 O49 2.035 . S
Zn45 O51 2.035 . S
Zn45 O52 2.028 . S
O46 C42 1.258 . S
O46 Zn47 2.035 . S
Zn47 O46 2.035 . S
Zn47 O48 2.028 . S
Zn47 O50 2.028 . S
Zn47 O53 2.035 . S
O48 Zn47 2.028 . S
O48 C54 1.247 . S
O49 Zn45 2.035 . S
O49 C54 1.258 . S
O50 C43 1.247 . S
O50 Zn47 2.028 . S
O51 C43 1.258 . S
O51 Zn45 2.035 . S
O52 Zn45 2.028 . S
O52 C55 1.247 . S
O53 Zn47 2.035 . S
O53 C55 1.258 . S
C54 O48 1.247 . S
C54 O49 1.258 . S
C55 O52 1.247 . S
C55 O53 1.258 . S
C56 O58 1.247 . S
C56 O60 1.258 . S
C57 O64 1.247 . S
C57 O65 1.258 . S
O58 C56 1.247 . S
O58 Zn59 2.028 . S
Zn59 O58 2.028 . S
Zn59 O63 2.035 . S
Zn59 O65 2.035 . S
Zn59 O66 2.028 . S
O60 C56 1.258 . S
O60 Zn61 2.035 . S
Zn61 O60 2.035 . S
Zn61 O62 2.028 . S
Zn61 O64 2.028 . S
Zn61 O67 2.035 . S
O62 Zn61 2.028 . S
O62 C68 1.247 . S
O63 Zn59 2.035 . S
O63 C68 1.258 . S
O64 C57 1.247 . S
O64 Zn61 2.028 . S
O65 C57 1.258 . S
O65 Zn59 2.035 . S
O66 Zn59 2.028 . S
O66 C69 1.247 . S
O67 Zn61 2.035 . S
O67 C69 1.258 . S
C68 O62 1.247 . S
C68 O63 1.258 . S
C69 O66 1.247 . S
C69 O67 1.258 . S
C70 O72 1.247 . S
C70 O74 1.258 . S
C71 O78 1.247 . S
C71 O79 1.258 . S
O72 C70 1.247 . S
O72 Zn73 2.028 . S
Zn73 O72 2.028 . S
Zn73 O77 2.035 . S
Zn73 O79 2.035 . S
Zn73 O80 2.028 . S
O74 C70 1.258 . S
O74 Zn75 2.035 . S
Zn75 O74 2.035 . S
Zn75 O76 2.028 . S
Zn75 O78 2.028 . S
Zn75 O81 2.035 . S
O76 Zn75 2.028 . S
O76 C82 1.247 . S
O77 Zn73 2.035 . S
O77 C82 1.258 . S
O78 C71 1.247 . S
O78 Zn75 2.028 . S
O79 C71 1.258 . S
O79 Zn73 2.035 . S
O80 Zn73 2.028 . S
O80 C83 1.247 . S
O81 Zn75 2.035 . S
O81 C83 1.258 . S
C82 O76 1.247 . S
C82 O77 1.258 . S
C83 O80 1.247 . S
C83 O81 1.258 . S
C84 O86 1.247 . S
C84 O88 1.258 . S
C85 O92 1.247 . S
C85 O93 1.258 . S
O86 C84 1.247 . S
O86 Zn87 2.028 . S
Zn87 O86 2.028 . S
Zn87 O91 2.035 . S
Zn87 O93 2.035 . S
Zn87 O94 2.028 . S
O88 C84 1.258 . S
O88 Zn89 2.035 . S
Zn89 O88 2.035 . S
Zn89 O90 2.028 . S
Zn89 O92 2.028 . S
Zn89 O95 2.035 . S
O90 Zn89 2.028 . S
O90 C96 1.247 . S
O91 Zn87 2.035 . S
O91 C96 1.258 . S
O92 C85 1.247 . S
O92 Zn89 2.028 . S
O93 C85 1.258 . S
O93 Zn87 2.035 . S
O94 Zn87 2.028 . S
O94 C97 1.247 . S
O95 Zn89 2.035 . S
O95 C97 1.258 . S
C96 O90 1.247 . S
C96 O91 1.258 . S
C97 O94 1.247 . S
C97 O95 1.258 . S
C98 O100 1.247 . S
C98 O102 1.258 . S
C99 O106 1.247 . S
C99 O107 1.258 . S
O100 C98 1.247 . S
O100 Zn101 2.028 . S
Zn101 O100 2.028 . S
Zn101 O105 2.035 . S
Zn101 O107 2.035 . S
Zn101 O108 2.028 . S
O102 C98 1.258 . S
O102 Zn103 2.035 . S
Zn103 O102 2.035 . S
Zn103 O104 2.028 . S
Zn103 O106 2.028 . S
Zn103 O109 2.035 . S
O104 Zn103 2.028 . S
O104 C110 1.247 . S
O105 Zn101 2.035 . S
O105 C110 1.258 . S
O106 C99 1.247 . S
O106 Zn103 2.028 . S
O107 C99 1.258 . S
O107 Zn101 2.035 . S
O108 Zn101 2.028 . S
O108 C111 1.247 . S
O109 Zn103 2.035 . S
O109 C111 1.258 . S
C110 O104 1.247 . S
C110 O105 1.258 . S
C111 O108 1.247 . S
C111 O109 1.258 . S
C112 O114 1.247 . S
C112 O116 1.258 . S
C113 O120 1.247 . S
C113 O121 1.258 . S
O114 C112 1.247 . S
O114 Zn115 2.028 . S
Zn115 O114 2.028 . S
Zn115 O119 2.035 . S
Zn115 O121 2.035 . S
Zn115 O122 2.028 . S
O116 C112 1.258 . S
O116 Zn117 2.035 . S
Zn117 O116 2.035 . S
Zn117 O118 2.028 . S
Zn117 O120 2.028 . S
Zn117 O123 2.035 . S
O118 Zn117 2.028 . S
O118 C124 1.247 . S
O119 Zn115 2.035 . S
O119 C124 1.258 . S
O120 C113 1.247 . S
O120 Zn117 2.028 . S
O121 C113 1.258 . S
O121 Zn115 2.035 . S
O122 Zn115 2.028 . S
O122 C125 1.247 . S
O123 Zn117 2.035 . S
O123 C125 1.258 . S
C124 O118 1.247 . S
C124 O119 1.258 . S
C125 O122 1.247 . S
C125 O123 1.258 . S
C126 O128 1.247 . S
C126 O130 1.258 . S
C127 O134 1.247 . S
C127 O135 1.258 . S
O128 C126 1.247 . S
O128 Zn129 2.028 . S
Zn129 O128 2.028 . S
Zn129 O133 2.035 . S
Zn129 O135 2.035 . S
Zn129 O136 2.028 . S
O130 C126 1.258 . S
O130 Zn131 2.035 . S
Zn131 O130 2.035 . S
Zn131 O132 2.028 . S
Zn131 O134 2.028 . S
Zn131 O137 2.035 . S
O132 Zn131 2.028 . S
O132 C138 1.247 . S
O133 Zn129 2.035 . S
O133 C138 1.258 . S
O134 C127 1.247 . S
O134 Zn131 2.028 . S
O135 C127 1.258 . S
O135 Zn129 2.035 . S
O136 Zn129 2.028 . S
O136 C139 1.247 . S
O137 Zn131 2.035 . S
O137 C139 1.258 . S
C138 O132 1.247 . S
C138 O133 1.258 . S
C139 O136 1.247 . S
C139 O137 1.258 . S
C140 O142 1.247 . S
C140 O144 1.258 . S
C141 O148 1.247 . S
C141 O149 1.258 . S
O142 C140 1.247 . S
O142 Zn143 2.028 . S
Zn143 O142 2.028 . S
Zn143 O147 2.035 . S
Zn143 O149 2.035 . S
Zn143 O150 2.028 . S
O144 C140 1.258 . S
O144 Zn145 2.035 . S
Zn145 O144 2.035 . S
Zn145 O146 2.028 . S
Zn145 O148 2.028 . S
Zn145 O151 2.035 . S
O146 Zn145 2.028 . S
O146 C152 1.247 . S
O147 Zn143 2.035 . S
O147 C152 1.258 . S
O148 C141 1.247 . S
O148 Zn145 2.028 . S
O149 C141 1.258 . S
O149 Zn143 2.035 . S
O150 Zn143 2.028 . S
O150 C153 1.247 . S
O151 Zn145 2.035 . S
O151 C153 1.258 . S
C152 O146 1.247 . S
C152 O147 1.258 . S
C153 O150 1.247 . S
C153 O151 1.258 . S
C154 O156 1.247 . S
C154 O158 1.258 . S
C155 O162 1.247 . S
C155 O163 1.258 . S
O156 C154 1.247 . S
O156 Zn157 2.028 . S
Zn157 O156 2.028 . S
Zn157 O161 2.035 . S
Zn157 O163 2.035 . S
Zn157 O164 2.028 . S
O158 C154 1.258 . S
O158 Zn159 2.035 . S
Zn159 O158 2.035 . S
Zn159 O160 2.028 . S
Zn159 O162 2.028 . S
Zn159 O165 2.035 . S
O160 Zn159 2.028 . S
O160 C166 1.247 . S
O161 Zn157 2.035 . S
O161 C166 1.258 . S
O162 C155 1.247 . S
O162 Zn159 2.028 . S
O163 C155 1.258 . S
O163 Zn157 2.035 . S
O164 Zn157 2.028 . S
O164 C167 1.247 . S
O165 Zn159 2.035 . S
O165 C167 1.258 . S
C166 O160 1.247 . S
C166 O161 1.258 . S
C167 O164 1.247 . S
C167 O165 1.258 . S
C168 O170 1.247 . S
C168 O172 1.258 . S
C169 O176 1.247 . S
C169 O177 1.258 . S
O170 C168 1.247 . S
O170 Zn171 2.028 . S
Zn171 O170 2.028 . S
Zn171 O175 2.035 . S
Zn171 O177 2.035 . S
Zn171 O178 2.028 . S
O172 C168 1.258 . S
O172 Zn173 2.035 . S
Zn173 O172 2.035 . S
Zn173 O174 2.028 . S
Zn173 O176 2.028 . S
Zn173 O179 2.035 . S
O174 Zn173 2.028 . S
O174 C180 1.247 . S
O175 Zn171 2.035 . S
O175 C180 1.258 . S
O176 C169 1.247 . S
O176 Zn173 2.028 . S
O177 C169 1.258 . S
O177 Zn171 2.035 . S
O178 Zn171 2.028 . S
O178 C181 1.247 . S
O179 Zn173 2.035 . S
O179 C181 1.258 . S
C180 O174 1.247 . S
C180 O175 1.258 . S
C181 O178 1.247 . S
C181 O179 1.258 . S
C182 O184 1.247 . S
C182 O186 1.258 . S
C183 O190 1.247 . S
C183 O191 1.258 . S
O184 C182 1.247 . S
O184 Zn185 2.028 . S
Zn185 O184 2.028 . S
Zn185 O189 2.035 . S
Zn185 O191 2.035 . S
Zn185 O192 2.028 . S
O186 C182 1.258 . S
O186 Zn187 2.035 . S
Zn187 O186 2.035 . S
Zn187 O188 2.028 . S
Zn187 O190 2.028 . S
Zn187 O193 2.035 . S
O188 Zn187 2.028 . S
O188 C194 1.247 . S
O189 Zn185 2.035 . S
O189 C194 1.258 . S
O190 C183 1.247 . S
O190 Zn187 2.028 . S
O191 C183 1.258 . S
O191 Zn185 2.035 . S
O192 Zn185 2.028 . S
O192 C195 1.247 . S
O193 Zn187 2.035 . S
O193 C195 1.258 . S
C194 O188 1.247 . S
C194 O189 1.258 . S
C195 O192 1.247 . S
C195 O193 1.258 . S
C196 O198 1.247 . S
C196 O200 1.258 . S
C197 O204 1.247 . S
C197 O205 1.258 . S
O198 C196 1.247 . S
O198 Zn199 2.028 . S
Zn199 O198 2.028 . S
Zn199 O203 2.035 . S
Zn199 O205 2.035 . S
Zn199 O206 2.028 . S
O200 C196 1.258 . S
O200 Zn201 2.035 . S
Zn201 O200 2.035 . S
Zn201 O202 2.028 . S
Zn201 O204 2.028 . S
Zn201 O207 2.035 . S
O202 Zn201 2.028 . S
O202 C208 1.247 . S
O203 Zn199 2.035 . S
O203 C208 1.258 . S
O204 C197 1.247 . S
O204 Zn201 2.028 . S
O205 C197 1.258 . S
O205 Zn199 2.035 . S
O206 Zn199 2.028 . S
O206 C209 1.247 . S
O207 Zn201 2.035 . S
O207 C209 1.258 . S
C208 O202 1.247 . S
C208 O203 1.258 . S
C209 O206 1.247 . S
C209 O207 1.258 . S
C210 O212 1.247 . S
C210 O214 1.258 . S
C211 O218 1.247 . S
C211 O219 1.258 . S
O212 C210 1.247 . S
O212 Zn213 2.028 . S
Zn213 O212 2.028 . S
Zn213 O217 2.035 . S
Zn213 O219 2.035 . S
Zn213 O220 2.028 . S
O214 C210 1.258 . S
O214 Zn215 2.035 . S
Zn215 O214 2.035 . S
Zn215 O216 2.028 . S
Zn215 O218 2.028 . S
Zn215 O221 2.035 . S
O216 Zn215 2.028 . S
O216 C222 1.247 . S
O217 Zn213 2.035 . S
O217 C222 1.258 . S
O218 C211 1.247 . S
O218 Zn215 2.028 . S
O219 C211 1.258 . S
O219 Zn213 2.035 . S
O220 Zn213 2.028 . S
O220 C223 1.247 . S
O221 Zn215 2.035 . S
O221 C223 1.258 . S
C222 O216 1.247 . S
C222 O217 1.258 . S
C223 O220 1.247 . S
C223 O221 1.258 . S
C224 O226 1.247 . S
C224 O228 1.258 . S
C225 O232 1.247 . S
C225 O233 1.258 . S
O226 C224 1.247 . S
O226 Zn227 2.028 . S
Zn227 O226 2.028 . S
Zn227 O231 2.035 . S
Zn227 O233 2.035 . S
Zn227 O234 2.028 . S
O228 C224 1.258 . S
O228 Zn229 2.035 . S
Zn229 O228 2.035 . S
Zn229 O230 2.028 . S
Zn229 O232 2.028 . S
Zn229 O235 2.035 . S
O230 Zn229 2.028 . S
O230 C236 1.247 . S
O231 Zn227 2.035 . S
O231 C236 1.258 . S
O232 C225 1.247 . S
O232 Zn229 2.028 . S
O233 C225 1.258 . S
O233 Zn227 2.035 . S
O234 Zn227 2.028 . S
O234 C237 1.247 . S
O235 Zn229 2.035 . S
O235 C237 1.258 . S
C236 O230 1.247 . S
C236 O231 1.258 . S
C237 O234 1.247 . S
C237 O235 1.258 . S
C238 O240 1.247 . S
C238 O242 1.258 . S
C239 O246 1.247 . S
C239 O247 1.258 . S
O240 C238 1.247 . S
O240 Zn241 2.028 . S
Zn241 O240 2.028 . S
Zn241 O245 2.035 . S
Zn241 O247 2.035 . S
Zn241 O248 2.028 . S
O242 C238 1.258 . S
O242 Zn243 2.035 . S
Zn243 O242 2.035 . S
Zn243 O244 2.028 . S
Zn243 O246 2.028 . S
Zn243 O249 2.035 . S
O244 Zn243 2.028 . S
O244 C250 1.247 . S
O245 Zn241 2.035 . S
O245 C250 1.258 . S
O246 C239 1.247 . S
O246 Zn243 2.028 . S
O247 C239 1.258 . S
O247 Zn241 2.035 . S
O248 Zn241 2.028 . S
O248 C251 1.247 . S
O249 Zn243 2.035 . S
O249 C251 1.258 . S
C250 O244 1.247 . S
C250 O245 1.258 . S
C251 O248 1.247 . S
C251 O249 1.258 . S
C252 O254 1.247 . S
C252 O256 1.258 . S
C253 O260 1.247 . S
C253 O261 1.258 . S
O254 C252 1.247 . S
O254 Zn255 2.028 . S
Zn255 O254 2.028 . S
Zn255 O259 2.035 . S
Zn255 O261 2.035 . S
Zn255 O262 2.028 . S
O256 C252 1.258 . S
O256 Zn257 2.035 . S
Zn257 O256 2.035 . S
Zn257 O258 2.028 . S
Zn257 O260 2.028 . S
Zn257 O263 2.035 . S
O258 Zn257 2.028 . S
O258 C264 1.247 . S
O259 Zn255 2.035 . S
O259 C264 1.258 . S
O260 C253 1.247 . S
O260 Zn257 2.028 . S
O261 C253 1.258 . S
O261 Zn255 2.035 . S
O262 Zn255 2.028 . S
O262 C265 1.247 . S
O263 Zn257 2.035 . S
O263 C265 1.258 . S
C264 O258 1.247 . S
C264 O259 1.258 . S
C265 O262 1.247 . S
C265 O263 1.258 . S
C266 O268 1.247 . S
C266 O270 1.258 . S
C267 O274 1.247 . S
C267 O275 1.258 . S
O268 C266 1.247 . S
O268 Zn269 2.028 . S
Zn269 O268 2.028 . S
Zn269 O273 2.035 . S
Zn269 O275 2.035 . S
Zn269 O276 2.028 . S
O270 C266 1.258 . S
O270 Zn271 2.035 . S
Zn271 O270 2.035 . S
Zn271 O272 2.028 . S
Zn271 O274 2.028 . S
Zn271 O277 2.035 . S
O272 Zn271 2.028 . S
O272 C278 1.247 . S
O273 Zn269 2.035 . S
O273 C278 1.258 . S
O274 C267 1.247 . S
O274 Zn271 2.028 . S
O275 C267 1.258 . S
O275 Zn269 2.035 . S
O276 Zn269 2.028 . S
O276 C279 1.247 . S
O277 Zn271 2.035 . S
O277 C279 1.258 . S
C278 O272 1.247 . S
C278 O273 1.258 . S
C279 O276 1.247 . S
C279 O277 1.258 . S
C280 O282 1.247 . S
C280 O284 1.258 . S
C281 O288 1.247 . S
C281 O289 1.258 . S
O282 C280 1.247 . S
O282 Zn283 2.028 . S
Zn283 O282 2.028 . S
Zn283 O287 2.035 . S
Zn283 O289 2.035 . S
Zn283 O290 2.028 . S
O284 C280 1.258 . S
O284 Zn285 2.035 . S
Zn285 O284 2.035 . S
Zn285 O286 2.028 . S
Zn285 O288 2.028 . S
Zn285 O291 2.035 . S
O286 Zn285 2.028 . S
O286 C292 1.247 . S
O287 Zn283 2.035 . S
O287 C292 1.258 . S
O288 C281 1.247 . S
O288 Zn285 2.028 . S
O289 C281 1.258 . S
O289 Zn283 2.035 . S
O290 Zn283 2.028 . S
O290 C293 1.247 . S
O291 Zn285 2.035 . S
O291 C293 1.258 . S
C292 O286 1.247 . S
C292 O287 1.258 . S
C293 O290 1.247 . S
C293 O291 1.258 . S
C294 O296 1.247 . S
C294 O298 1.258 . S
C295 O302 1.247 . S
C295 O303 1.258 . S
O296 C294 1.247 . S
O296 Zn297 2.028 . S
Zn297 O296 2.028 . S
Zn297 O301 2.035 . S
Zn297 O303 2.035 . S
Zn297 O304 2.028 . S
O298 C294 1.258 . S
O298 Zn299 2.035 . S
Zn299 O298 2.035 . S
Zn299 O300 2.028 . S
Zn299 O302 2.028 . S
Zn299 O305 2.035 . S
O300 Zn299 2.028 . S
O300 C306 1.247 . S
O301 Zn297 2.035 . S
O301 C306 1.258 . S
O302 C295 1.247 . S
O302 Zn299 2.028 . S
O303 C295 1.258 . S
O303 Zn297 2.035 . S
O304 Zn297 2.028 . S
O304 C307 1.247 . S
O305 Zn299 2.035 . S
O305 C307 1.258 . S
C306 O300 1.247 . S
C306 O301 1.258 . S
C307 O304 1.247 . S
C307 O305 1.258 . S
C308 O310 1.247 . S
C308 O312 1.258 . S
C309 O316 1.247 . S
C309 O317 1.258 . S
O310 C308 1.247 . S
O310 Zn311 2.028 . S
Zn311 O310 2.028 . S
Zn311 O315 2.035 . S
Zn311 O317 2.035 . S
Zn311 O318 2.028 . S
O312 C308 1.258 . S
O312 Zn313 2.035 . S
Zn313 O312 2.035 . S
Zn313 O314 2.028 . S
Zn313 O316 2.028 . S
Zn313 O319 2.035 . S
O314 Zn313 2.028 . S
O314 C320 1.247 . S
O315 Zn311 2.035 . S
O315 C320 1.258 . S
O316 C309 1.247 . S
O316 Zn313 2.028 . S
O317 C309 1.258 . S
O317 Zn311 2.035 . S
O318 Zn311 2.028 . S
O318 C321 1.247 . S
O319 Zn313 2.035 . S
O319 C321 1.258 . S
C320 O314 1.247 . S
C320 O315 1.258 . S
C321 O318 1.247 . S
C321 O319 1.258 . S
C322 O324 1.247 . S
C322 O326 1.258 . S
C323 O330 1.247 . S
C323 O331 1.258 . S
O324 C322 1.247 . S
O324 Zn325 2.028 . S
Zn325 O324 2.028 . S
Zn325 O329 2.035 . S
Zn325 O331 2.035 . S
Zn325 O332 2.028 . S
O326 C322 1.258 . S
O326 Zn327 2.035 . S
Zn327 O326 2.035 . S
Zn327 O328 2.028 . S
Zn327 O330 2.028 . S
Zn327 O333 2.035 . S
O328 Zn327 2.028 . S
O328 C334 1.247 . S
O329 Zn325 2.035 . S
O329 C334 1.258 . S
O330 C323 1.247 . S
O330 Zn327 2.028 . S
O331 C323 1.258 . S
O331 Zn325 2.035 . S
O332 Zn325 2.028 . S
O332 C335 1.247 . S
O333 Zn327 2.035 . S
O333 C335 1.258 . S
C334 O328 1.247 . S
C334 O329 1.258 . S
C335 O332 1.247 . S
C335 O333 1.258 . S
C336 O338 1.247 . S
C336 O340 1.258 . S
C337 O344 1.247 . S
C337 O345 1.258 . S
O338 C336 1.247 . S
O338 Zn339 2.028 . S
Zn339 O338 2.028 . S
Zn339 O343 2.035 . S
Zn339 O345 2.035 . S
Zn339 O346 2.028 . S
O340 C336 1.258 . S
O340 Zn341 2.035 . S
Zn341 O340 2.035 . S
Zn341 O342 2.028 . S
Zn341 O344 2.028 . S
Zn341 O347 2.035 . S
O342 Zn341 2.028 . S
O342 C348 1.247 . S
O343 Zn339 2.035 . S
O343 C348 1.258 . S
O344 C337 1.247 . S
O344 Zn341 2.028 . S
O345 C337 1.258 . S
O345 Zn339 2.035 . S
O346 Zn339 2.028 . S
O346 C349 1.247 . S
O347 Zn341 2.035 . S
O347 C349 1.258 . S
C348 O342 1.247 . S
C348 O343 1.258 . S
C349 O346 1.247 . S
C349 O347 1.258 . S
C350 O352 1.247 . S
C350 O354 1.258 . S
C351 O358 1.247 . S
C351 O359 1.258 . S
O352 C350 1.247 . S
O352 Zn353 2.028 . S
Zn353 O352 2.028 . S
Zn353 O357 2.035 . S
Zn353 O359 2.035 . S
Zn353 O360 2.028 . S
O354 C350 1.258 . S
O354 Zn355 2.035 . S
Zn355 O354 2.035 . S
Zn355 O356 2.028 . S
Zn355 O358 2.028 . S
Zn355 O361 2.035 . S
O356 Zn355 2.028 . S
O356 C362 1.247 . S
O357 Zn353 2.035 . S
O357 C362 1.258 . S
O358 C351 1.247 . S
O358 Zn355 2.028 . S
O359 C351 1.258 . S
O359 Zn353 2.035 . S
O360 Zn353 2.028 . S
O360 C363 1.247 . S
O361 Zn355 2.035 . S
O361 C363 1.258 . S
C362 O356 1.247 . S
C362 O357 1.258 . S
C363 O360 1.247 . S
C363 O361 1.258 . S
C364 O366 1.247 . S
C364 O368 1.258 . S
C365 O372 1.247 . S
C365 O373 1.258 . S
O366 C364 1.247 . S
O366 Zn367 2.028 . S
Zn367 O366 2.028 . S
Zn367 O371 2.035 . S
Zn367 O373 2.035 . S
Zn367 O374 2.028 . S
O368 C364 1.258 . S
O368 Zn369 2.035 . S
Zn369 O368 2.035 . S
Zn369 O370 2.028 . S
Zn369 O372 2.028 . S
Zn369 O375 2.035 . S
O370 Zn369 2.028 . S
O370 C376 1.247 . S
O371 Zn367 2.035 . S
O371 C376 1.258 . S
O372 C365 1.247 . S
O372 Zn369 2.028 . S
O373 C365 1.258 . S
O373 Zn367 2.035 . S
O374 Zn367 2.028 . S
O374 C377 1.247 . S
O375 Zn369 2.035 . S
O375 C377 1.258 . S
C376 O370 1.247 . S
C376 O371 1.258 . S
C377 O374 1.247 . S
C377 O375 1.258 . S
C378 O380 1.247 . S
C378 O382 1.258 . S
C379 O386 1.247 . S
C379 O387 1.258 . S
O380 C378 1.247 . S
O380 Zn381 2.028 . S
Zn381 O380 2.028 . S
Zn381 O385 2.035 . S
Zn381 O387 2.035 . S
Zn381 O388 2.028 . S
O382 C378 1.258 . S
O382 Zn383 2.035 . S
Zn383 O382 2.035 . S
Zn383 O384 2.028 . S
Zn383 O386 2.028 . S
Zn383 O389 2.035 . S
O384 Zn383 2.028 . S
O384 C390 1.247 . S
O385 Zn381 2.035 . S
O385 C390 1.258 . S
O386 C379 1.247 . S
O386 Zn383 2.028 . S
O387 C379 1.258 . S
O387 Zn381 2.035 . S
O388 Zn381 2.028 . S
O388 C391 1.247 . S
O389 Zn383 2.035 . S
O389 C391 1.258 . S
C390 O384 1.247 . S
C390 O385 1.258 . S
C391 O388 1.247 . S
C391 O389 1.258 . S
C392 O394 1.247 . S
C392 O396 1.258 . S
C393 O400 1.247 . S
C393 O401 1.258 . S
O394 C392 1.247 . S
O394 Zn395 2.028 . S
Zn395 O394 2.028 . S
Zn395 O399 2.035 . S
Zn395 O401 2.035 . S
Zn395 O402 2.028 . S
O396 C392 1.258 . S
O396 Zn397 2.035 . S
Zn397 O396 2.035 . S
Zn397 O398 2.028 . S
Zn397 O400 2.028 . S
Zn397 O403 2.035 . S
O398 Zn397 2.028 . S
O398 C404 1.247 . S
O399 Zn395 2.035 . S
O399 C404 1.258 . S
O400 C393 1.247 . S
O400 Zn397 2.028 . S
O401 C393 1.258 . S
O401 Zn395 2.035 . S
O402 Zn395 2.028 . S
O402 C405 1.247 . S
O403 Zn397 2.035 . S
O403 C405 1.258 . S
C404 O398 1.247 . S
C404 O399 1.258 . S
C405 O402 1.247 . S
C405 O403 1.258 . S
C406 O408 1.247 . S
C406 O410 1.258 . S
C407 O414 1.247 . S
C407 O415 1.258 . S
O408 C406 1.247 . S
O408 Zn409 2.028 . S
Zn409 O408 2.028 . S
Zn409 O413 2.035 . S
Zn409 O415 2.035 . S
Zn409 O416 2.028 . S
O410 C406 1.258 . S
O410 Zn411 2.035 . S
Zn411 O410 2.035 . S
Zn411 O412 2.028 . S
Zn411 O414 2.028 . S
Zn411 O417 2.035 . S
O412 Zn411 2.028 . S
O412 C418 1.247 . S
O413 Zn409 2.035 . S
O413 C418 1.258 . S
O414 C407 1.247 . S
O414 Zn411 2.028 . S
O415 C407 1.258 . S
O415 Zn409 2.035 . S
O416 Zn409 2.028 . S
O416 C419 1.247 . S
O417 Zn411 2.035 . S
O417 C419 1.258 . S
C418 O412 1.247 . S
C418 O413 1.258 . S
C419 O416 1.247 . S
C419 O417 1.258 . S
C420 O422 1.247 . S
C420 O424 1.258 . S
C421 O428 1.247 . S
C421 O429 1.258 . S
O422 C420 1.247 . S
O422 Zn423 2.028 . S
Zn423 O422 2.028 . S
Zn423 O427 2.035 . S
Zn423 O429 2.035 . S
Zn423 O430 2.028 . S
O424 C420 1.258 . S
O424 Zn425 2.035 . S
Zn425 O424 2.035 . S
Zn425 O426 2.028 . S
Zn425 O428 2.028 . S
Zn425 O431 2.035 . S
O426 Zn425 2.028 . S
O426 C432 1.247 . S
O427 Zn423 2.035 . S
O427 C432 1.258 . S
O428 C421 1.247 . S
O428 Zn425 2.028 . S
O429 C421 1.258 . S
O429 Zn423 2.035 . S
O430 Zn423 2.028 . S
O430 C433 1.247 . S
O431 Zn425 2.035 . S
O431 C433 1.258 . S
C432 O426 1.247 . S
C432 O427 1.258 . S
C433 O430 1.247 . S
C433 O431 1.258 . S
C434 O436 1.247 . S
C434 O438 1.258 . S
C435 O442 1.247 . S
C435 O443 1.258 . S
O436 C434 1.247 . S
O436 Zn437 2.028 . S
Zn437 O436 2.028 . S
Zn437 O441 2.035 . S
Zn437 O443 2.035 . S
Zn437 O444 2.028 . S
O438 C434 1.258 . S
O438 Zn439 2.035 . S
Zn439 O438 2.035 . S
Zn439 O440 2.028 . S
Zn439 O442 2.028 . S
Zn439 O445 2.035 . S
O440 Zn439 2.028 . S
O440 C446 1.247 . S
O441 Zn437 2.035 . S
O441 C446 1.258 . S
O442 C435 1.247 . S
O442 Zn439 2.028 . S
O443 C435 1.258 . S
O443 Zn437 2.035 . S
O444 Zn437 2.028 . S
O444 C447 1.247 . S
O445 Zn439 2.035 . S
O445 C447 1.258 . S
C446 O440 1.247 . S
C446 O441 1.258 . S
C447 O444 1.247 . S
C447 O445 1.258 . S
C448 O450 1.247 . S
C448 O452 1.258 . S
C449 O456 1.247 . S
C449 O457 1.258 . S
O450 C448 1.247 . S
O450 Zn451 2.028 . S
Zn451 O450 2.028 . S
Zn451 O455 2.035 . S
Zn451 O457 2.035 . S
Zn451 O458 2.028 . S
O452 C448 1.258 . S
O452 Zn453 2.035 . S
Zn453 O452 2.035 . S
Zn453 O454 2.028 . S
Zn453 O456 2.028 . S
Zn453 O459 2.035 . S
O454 Zn453 2.028 . S
O454 C460 1.247 . S
O455 Zn451 2.035 . S
O455 C460 1.258 . S
O456 C449 1.247 . S
O456 Zn453 2.028 . S
O457 C449 1.258 . S
O457 Zn451 2.035 . S
O458 Zn451 2.028 . S
O458 C461 1.247 . S
O459 Zn453 2.035 . S
O459 C461 1.258 . S
C460 O454 1.247 . S
C460 O455 1.258 . S
C461 O458 1.247 . S
C461 O459 1.258 . S
C462 O464 1.247 . S
C462 O466 1.258 . S
C463 O470 1.247 . S
C463 O471 1.258 . S
O464 C462 1.247 . S
O464 Zn465 2.028 . S
Zn465 O464 2.028 . S
Zn465 O469 2.035 . S
Zn465 O471 2.035 . S
Zn465 O472 2.028 . S
O466 C462 1.258 . S
O466 Zn467 2.035 . S
Zn467 O466 2.035 . S
Zn467 O468 2.028 . S
Zn467 O470 2.028 . S
Zn467 O473 2.035 . S
O468 Zn467 2.028 . S
O468 C474 1.247 . S
O469 Zn465 2.035 . S
O469 C474 1.258 . S
O470 C463 1.247 . S
O470 Zn467 2.028 . S
O471 C463 1.258 . S
O471 Zn465 2.035 . S
O472 Zn465 2.028 . S
O472 C475 1.247 . S
O473 Zn467 2.035 . S
O473 C475 1.258 . S
C474 O468 1.247 . S
C474 O469 1.258 . S
C475 O472 1.247 . S
C475 O473 1.258 . S
C476 O478 1.247 . S
C476 O480 1.258 . S
C477 O484 1.247 . S
C477 O485 1.258 . S
O478 C476 1.247 . S
O478 Zn479 2.028 . S
Zn479 O478 2.028 . S
Zn479 O483 2.035 . S
Zn479 O485 2.035 . S
Zn479 O486 2.028 . S
O480 C476 1.258 . S
O480 Zn481 2.035 . S
Zn481 O480 2.035 . S
Zn481 O482 2.028 . S
Zn481 O484 2.028 . S
Zn481 O487 2.035 . S
O482 Zn481 2.028 . S
O482 C488 1.247 . S
O483 Zn479 2.035 . S
O483 C488 1.258 . S
O484 C477 1.247 . S
O484 Zn481 2.028 . S
O485 C477 1.258 . S
O485 Zn479 2.035 . S
O486 Zn479 2.028 . S
O486 C489 1.247 . S
O487 Zn481 2.035 . S
O487 C489 1.258 . S
C488 O482 1.247 . S
C488 O483 1.258 . S
C489 O486 1.247 . S
C489 O487 1.258 . S
C490 O492 1.247 . S
C490 O494 1.258 . S
C491 O498 1.247 . S
C491 O499 1.258 . S
O492 C490 1.247 . S
O492 Zn493 2.028 . S
Zn493 O492 2.028 . S
Zn493 O497 2.035 . S
Zn493 O499 2.035 . S
Zn493 O500 2.028 . S
O494 C490 1.258 . S
O494 Zn495 2.035 . S
Zn495 O494 2.035 . S
Zn495 O496 2.028 . S
Zn495 O498 2.028 . S
Zn495 O501 2.035 . S
O496 Zn495 2.028 . S
O496 C502 1.247 . S
O497 Zn493 2.035 . S
O497 C502 1.258 . S
O498 C491 1.247 . S
O498 Zn495 2.028 . S
O499 C491 1.258 . S
O499 Zn493 2.035 . S
O500 Zn493 2.028 . S
O500 C503 1.247 . S
O501 Zn495 2.035 . S
O501 C503 1.258 . S
C502 O496 1.247 . S
C502 O497 1.258 . S
C503 O500 1.247 . S
C503 O501 1.258 . S
H504 C512 0.950 . S
H505 C517 0.950 . S
H506 C514 0.950 . S
H507 C516 0.950 . S
H508 C518 0.950 . S
H509 C520 0.950 . S
H510 C522 0.950 . S
H511 C523 0.950 . S
C512 H504 0.950 . S
C512 C513 1.386 . S
C512 C514 1.391 . S
C513 C512 1.386 . S
C513 C517 1.393 . S
C514 H506 0.950 . S
C514 C512 1.391 . S
C514 C515 1.400 . S
C515 C514 1.400 . S
C515 C516 1.398 . S
C515 C521 1.491 . S
C516 H507 0.950 . S
C516 C515 1.398 . S
C516 C517 1.391 . S
C517 H505 0.950 . S
C517 C513 1.393 . S
C517 C516 1.391 . S
C518 H508 0.950 . S
C518 C519 1.386 . S
C518 C520 1.391 . S
C519 C518 1.386 . S
C519 C523 1.393 . S
C520 H509 0.950 . S
C520 C518 1.391 . S
C520 C521 1.400 . S
C521 C515 1.491 . S
C521 C520 1.400 . S
C521 C522 1.398 . S
C522 H510 0.950 . S
C522 C521 1.398 . S
C522 C523 1.391 . S
C523 H511 0.950 . S
C523 C519 1.393 . S
C523 C522 1.391 . S
H524 C532 0.950 . S
H525 C537 0.950 . S
H526 C534 0.950 . S
H527 C536 0.950 . S
H528 C538 0.950 . S
H529 C540 0.950 . S
H530 C542 0.950 . S
H531 C543 0.950 . S
C532 H524 0.950 . S
C532 C533 1.386 . S
C532 C534 1.391 . S
C533 C532 1.386 . S
C533 C537 1.393 . S
C534 H526 0.950 . S
C534 C532 1.391 . S
C534 C535 1.400 . S
C535 C534 1.400 . S
C535 C536 1.398 . S
C535 C541 1.491 . S
C536 H527 0.950 . S
C536 C535 1.398 . S
C536 C537 1.391 . S
C537 H525 0.950 . S
C537 C533 1.393 . S
C537 C536 1.391 . S
C538 H528 0.950 . S
C538 C539 1.386 . S
C538 C540 1.391 . S
C539 C538 1.386 . S
C539 C543 1.393 . S
C540 H529 0.950 . S
C540 C538 1.391 . S
C540 C541 1.400 . S
C541 C535 1.491 . S
C541 C540 1.400 . S
C541 C542 1.398 . S
C542 H530 0.950 . S
C542 C541 1.398 . S
C542 C543 1.391 . S
C543 H531 0.950 . S
C543 C539 1.393 . S
C543 C542 1.391 . S
H544 C552 0.950 . S
H545 C557 0.950 . S
H546 C554 0.950 . S
H547 C556 0.950 . S
H548 C558 0.950 . S
H549 C560 0.950 . S
H550 C562 0.950 . S
H551 C563 0.950 . S
C552 H544 0.950 . S
C552 C553 1.386 . S
C552 C554 1.391 . S
C553 C552 1.386 . S
C553 C557 1.393 . S
C554 H546 0.950 . S
C554 C552 1.391 . S
C554 C555 1.400 . S
C555 C554 1.400 . S
C555 C556 1.398 . S
C555 C561 1.491 . S
C556 H547 0.950 . S
C556 C555 1.398 . S
C556 C557 1.391 . S
C557 H545 0.950 . S
C557 C553 1.393 . S
C557 C556 1.391 . S
C558 H548 0.950 . S
C558 C559 1.386 . S
C558 C560 1.391 . S
C559 C558 1.386 . S
C559 C563 1.393 . S
C560 H549 0.950 . S
C560 C558 1.391 . S
C560 C561 1.400 . S
C561 C555 1.491 . S
C561 C560 1.400 . S
C561 C562 1.398 . S
C562 H550 0.950 . S
C562 C561 1.398 . S
C562 C563 1.391 . S
C563 H551 0.950 . S
C563 C559 1.393 . S
C563 C562 1.391 . S
H564 C572 0.950 . S
H565 C577 0.950 . S
H566 C574 0.950 . S
H567 C576 0.950 . S
H568 C578 0.950 . S
H569 C580 0.950 . S
H570 C582 0.950 . S
H571 C583 0.950 . S
C572 H564 0.950 . S
C572 C573 1.386 . S
C572 C574 1.391 . S
C573 C572 1.386 . S
C573 C577 1.393 . S
C574 H566 0.950 . S
C574 C572 1.391 . S
C574 C575 1.400 . S
C575 C574 1.400 . S
C575 C576 1.398 . S
C575 C581 1.491 . S
C576 H567 0.950 . S
C576 C575 1.398 . S
C576 C577 1.391 . S
C577 H565 0.950 . S
C577 C573 1.393 . S
C577 C576 1.391 . S
C578 H568 0.950 . S
C578 C579 1.386 . S
C578 C580 1.391 . S
C579 C578 1.386 . S
C579 C583 1.393 . S
C580 H569 0.950 . S
C580 C578 1.391 . S
C580 C581 1.400 . S
C581 C575 1.491 . S
C581 C580 1.400 . S
C581 C582 1.398 . S
C582 H570 0.950 . S
C582 C581 1.398 . S
C582 C583 1.391 . S
C583 H571 0.950 . S
C583 C579 1.393 . S
C583 C582 1.391 . S
H584 C592 0.950 . S
H585 C597 0.950 . S
H586 C594 0.950 . S
H587 C596 0.950 . S
H588 C598 0.950 . S
H589 C600 0.950 . S
H590 C602 0.950 . S
H591 C603 0.950 . S
C592 H584 0.950 . S
C592 C593 1.386 . S
C592 C594 1.391 . S
C593 C592 1.386 . S
C593 C597 1.393 . S
C594 H586 0.950 . S
C594 C592 1.391 . S
C594 C595 1.400 . S
C595 C594 1.400 . S
C595 C596 1.398 . S
C595 C601 1.491 . S
C596 H587 0.950 . S
C596 C595 1.398 . S
C596 C597 1.391 . S
C597 H585 0.950 . S
C597 C593 1.393 . S
C597 C596 1.391 . S
C598 H588 0.950 . S
C598 C599 1.386 . S
C598 C600 1.391 . S
C599 C598 1.386 . S
C599 C603 1.393 . S
C600 H589 0.950 . S
C600 C598 1.391 . S
C600 C601 1.400 . S
C601 C595 1.491 . S
C601 C600 1.400 . S
C601 C602 1.398 . S
C602 H590 0.950 . S
C602 C601 1.398 . S
C602 C603 1.391 . S
C603 H591 0.950 . S
C603 C599 1.393 . S
C603 C602 1.391 . S
H604 C612 0.950 . S
H605 C617 0.950 . S
H606 C614 0.950 . S
H607 C616 0.950 . S
H608 C618 0.950 . S
H609 C620 0.950 . S
H610 C622 0.950 . S
H611 C623 0.950 . S
C612 H604 0.950 . S
C612 C613 1.386 . S
C612 C614 1.391 . S
C613 C612 1.386 . S
C613 C617 1.393 . S
C614 H606 0.950 . S
C614 C612 1.391 . S
C614 C615 1.400 . S
C615 C614 1.400 . S
C615 C616 1.398 . S
C615 C621 1.491 . S
C616 H607 0.950 . S
C616 C615 1.398 . S
C616 C617 1.391 . S
C617 H605 0.950 . S
C617 C613 1.393 . S
C617 C616 1.391 . S
C618 H608 0.950 . S
C618 C619 1.386 . S
C618 C620 1.391 . S
C619 C618 1.386 . S
C619 C623 1.393 . S
C620 H609 0.950 . S
C620 C618 1.391 . S
C620 C621 1.400 . S
C621 C615 1.491 . S
C621 C620 1.400 . S
C621 C622 1.398 . S
C622 H610 0.950 . S
C622 C621 1.398 . S
C622 C623 1.391 . S
C623 H611 0.950 . S
C623 C619 1.393 . S
C623 C622 1.391 . S
H624 C632 0.950 . S
H625 C637 0.950 . S
H626 C634 0.950 . S
H627 C636 0.950 . S
H628 C638 0.950 . S
H629 C640 0.950 . S
H630 C642 0.950 . S
H631 C643 0.950 . S
C632 H624 0.950 . S
C632 C633 1.386 . S
C632 C634 1.391 . S
C633 C632 1.386 . S
C633 C637 1.393 . S
C634 H626 0.950 . S
C634 C632 1.391 . S
C634 C635 1.400 . S
C635 C634 1.400 . S
C635 C636 1.398 . S
C635 C641 1.491 . S
C636 H627 0.950 . S
C636 C635 1.398 . S
C636 C637 1.391 . S
C637 H625 0.950 . S
C637 C633 1.393 . S
C637 C636 1.391 . S
C638 H628 0.950 . S
C638 C639 1.386 . S
C638 C640 1.391 . S
C639 C638 1.386 . S
C639 C643 1.393 . S
C640 H629 0.950 . S
C640 C638 1.391 . S
C640 C641 1.400 . S
C641 C635 1.491 . S
C641 C640 1.400 . S
C641 C642 1.398 . S
C642 H630 0.950 . S
C642 C641 1.398 . S
C642 C643 1.391 . S
C643 H631 0.950 . S
C643 C639 1.393 . S
C643 C642 1.391 . S
H644 C652 0.950 . S
H645 C657 0.950 . S
H646 C654 0.950 . S
H647 C656 0.950 . S
H648 C658 0.950 . S
H649 C660 0.950 . S
H650 C662 0.950 . S
H651 C663 0.950 . S
C652 H644 0.950 . S
C652 C653 1.386 . S
C652 C654 1.391 . S
C653 C652 1.386 . S
C653 C657 1.393 . S
C654 H646 0.950 . S
C654 C652 1.391 . S
C654 C655 1.400 . S
C655 C654 1.400 . S
C655 C656 1.398 . S
C655 C661 1.491 . S
C656 H647 0.950 . S
C656 C655 1.398 . S
C656 C657 1.391 . S
C657 H645 0.950 . S
C657 C653 1.393 . S
C657 C656 1.391 . S
C658 H648 0.950 . S
C658 C659 1.386 . S
C658 C660 1.391 . S
C659 C658 1.386 . S
C659 C663 1.393 . S
C660 H649 0.950 . S
C660 C658 1.391 . S
C660 C661 1.400 . S
C661 C655 1.491 . S
C661 C660 1.400 . S
C661 C662 1.398 . S
C662 H650 0.950 . S
C662 C661 1.398 . S
C662 C663 1.391 . S
C663 H651 0.950 . S
C663 C659 1.393 . S
C663 C662 1.391 . S
H664 C672 0.950 . S
H665 C677 0.950 . S
H666 C674 0.950 . S
H667 C676 0.950 . S
H668 C678 0.950 . S
H669 C680 0.950 . S
H670 C682 0.950 . S
H671 C683 0.950 . S
C672 H664 0.950 . S
C672 C673 1.386 . S
C672 C674 1.391 . S
C673 C672 1.386 . S
C673 C677 1.393 . S
C674 H666 0.950 . S
C674 C672 1.391 . S
C674 C675 1.400 . S
C675 C674 1.400 . S
C675 C676 1.398 . S
C675 C681 1.491 . S
C676 H667 0.950 . S
C676 C675 1.398 . S
C676 C677 1.391 . S
C677 H665 0.950 . S
C677 C673 1.393 . S
C677 C676 1.391 . S
C678 H668 0.950 . S
C678 C679 1.386 . S
C678 C680 1.391 . S
C679 C678 1.386 . S
C679 C683 1.393 . S
C680 H669 0.950 . S
C680 C678 1.391 . S
C680 C681 1.400 . S
C681 C675 1.491 . S
C681 C680 1.400 . S
C681 C682 1.398 . S
C682 H670 0.950 . S
C682 C681 1.398 . S
C682 C683 1.391 . S
C683 H671 0.950 . S
C683 C679 1.393 . S
C683 C682 1.391 . S
H684 C692 0.950 . S
H685 C697 0.950 . S
H686 C694 0.950 . S
H687 C696 0.950 . S
H688 C698 0.950 . S
H689 C700 0.950 . S
H690 C702 0.950 . S
H691 C703 0.950 . S
C692 H684 0.950 . S
C692 C693 1.386 . S
C692 C694 1.391 . S
C693 C692 1.386 . S
C693 C697 1.393 . S
C694 H686 0.950 . S
C694 C692 1.391 . S
C694 C695 1.400 . S
C695 C694 1.400 . S
C695 C696 1.398 . S
C695 C701 1.491 . S
C696 H687 0.950 . S
C696 C695 1.398 . S
C696 C697 1.391 . S
C697 H685 0.950 . S
C697 C693 1.393 . S
C697 C696 1.391 . S
C698 H688 0.950 . S
C698 C699 1.386 . S
C698 C700 1.391 . S
C699 C698 1.386 . S
C699 C703 1.393 . S
C700 H689 0.950 . S
C700 C698 1.391 . S
C700 C701 1.400 . S
C701 C695 1.491 . S
C701 C700 1.400 . S
C701 C702 1.398 . S
C702 H690 0.950 . S
C702 C701 1.398 . S
C702 C703 1.391 . S
C703 H691 0.950 . S
C703 C699 1.393 . S
C703 C702 1.391 . S
H704 C712 0.950 . S
H705 C717 0.950 . S
H706 C714 0.950 . S
H707 C716 0.950 . S
H708 C718 0.950 . S
H709 C720 0.950 . S
H710 C722 0.950 . S
H711 C723 0.950 . S
C712 H704 0.950 . S
C712 C713 1.386 . S
C712 C714 1.391 . S
C713 C712 1.386 . S
C713 C717 1.393 . S
C714 H706 0.950 . S
C714 C712 1.391 . S
C714 C715 1.400 . S
C715 C714 1.400 . S
C715 C716 1.398 . S
C715 C721 1.491 . S
C716 H707 0.950 . S
C716 C715 1.398 . S
C716 C717 1.391 . S
C717 H705 0.950 . S
C717 C713 1.393 . S
C717 C716 1.391 . S
C718 H708 0.950 . S
C718 C719 1.386 . S
C718 C720 1.391 . S
C719 C718 1.386 . S
C719 C723 1.393 . S
C720 H709 0.950 . S
C720 C718 1.391 . S
C720 C721 1.400 . S
C721 C715 1.491 . S
C721 C720 1.400 . S
C721 C722 1.398 . S
C722 H710 0.950 . S
C722 C721 1.398 . S
C722 C723 1.391 . S
C723 H711 0.950 . S
C723 C719 1.393 . S
C723 C722 1.391 . S
H724 C732 0.950 . S
H725 C737 0.950 . S
H726 C734 0.950 . S
H727 C736 0.950 . S
H728 C738 0.950 . S
H729 C740 0.950 . S
H730 C742 0.950 . S
H731 C743 0.950 . S
C732 H724 0.950 . S
C732 C733 1.386 . S
C732 C734 1.391 . S
C733 C732 1.386 . S
C733 C737 1.393 . S
C734 H726 0.950 . S
C734 C732 1.391 . S
C734 C735 1.400 . S
C735 C734 1.400 . S
C735 C736 1.398 . S
C735 C741 1.491 . S
C736 H727 0.950 . S
C736 C735 1.398 . S
C736 C737 1.391 . S
C737 H725 0.950 . S
C737 C733 1.393 . S
C737 C736 1.391 . S
C738 H728 0.950 . S
C738 C739 1.386 . S
C738 C740 1.391 . S
C739 C738 1.386 . S
C739 C743 1.393 . S
C740 H729 0.950 . S
C740 C738 1.391 . S
C740 C741 1.400 . S
C741 C735 1.491 . S
C741 C740 1.400 . S
C741 C742 1.398 . S
C742 H730 0.950 . S
C742 C741 1.398 . S
C742 C743 1.391 . S
C743 H731 0.950 . S
C743 C739 1.393 . S
C743 C742 1.391 . S
H744 C752 0.950 . S
H745 C757 0.950 . S
H746 C754 0.978 . S
H747 C756 0.950 . S
H748 C758 0.950 . S
H749 C760 0.978 . S
H750 C762 0.950 . S
H751 C763 0.950 . S
C752 H744 0.950 . S
C752 C753 1.386 . S
C752 C754 1.366 1_655 S
C753 C752 1.386 . S
C753 C757 1.393 . S
C754 H746 0.978 . S
C754 C752 1.366 1_455 S
C754 C755 1.398 1_455 S
C755 C754 1.398 1_655 S
C755 C756 1.398 . S
C755 C761 1.491 1_655 S
C756 H747 0.950 . S
C756 C755 1.398 . S
C756 C757 1.391 . S
C757 H745 0.950 . S
C757 C753 1.393 . S
C757 C756 1.391 . S
C758 H748 0.950 . S
C758 C759 1.386 . S
C758 C760 1.366 1_455 S
C759 C758 1.386 . S
C759 C763 1.393 . S
C760 H749 0.978 . S
C760 C758 1.366 1_655 S
C760 C761 1.398 1_655 S
C761 C755 1.491 1_455 S
C761 C760 1.398 1_455 S
C761 C762 1.398 . S
C762 H750 0.950 . S
C762 C761 1.398 . S
C762 C763 1.391 . S
C763 H751 0.950 . S
C763 C759 1.393 . S
C763 C762 1.391 . S
H764 C772 0.950 . S
H765 C777 0.950 . S
H766 C774 0.950 . S
H767 C776 0.950 . S
H768 C778 0.950 . S
H769 C780 0.950 . S
H770 C782 0.950 . S
H771 C783 0.950 . S
C772 H764 0.950 . S
C772 C773 1.386 . S
C772 C774 1.391 . S
C773 C772 1.386 . S
C773 C777 1.393 . S
C774 H766 0.950 . S
C774 C772 1.391 . S
C774 C775 1.400 . S
C775 C774 1.400 . S
C775 C776 1.398 . S
C775 C781 1.491 . S
C776 H767 0.950 . S
C776 C775 1.398 . S
C776 C777 1.391 . S
C777 H765 0.950 . S
C777 C773 1.393 . S
C777 C776 1.391 . S
C778 H768 0.950 . S
C778 C779 1.386 . S
C778 C780 1.391 . S
C779 C778 1.386 . S
C779 C783 1.393 . S
C780 H769 0.950 . S
C780 C778 1.391 . S
C780 C781 1.400 . S
C781 C775 1.491 . S
C781 C780 1.400 . S
C781 C782 1.398 . S
C782 H770 0.950 . S
C782 C781 1.398 . S
C782 C783 1.391 . S
C783 H771 0.950 . S
C783 C779 1.393 . S
C783 C782 1.391 . S
H784 C792 0.950 . S
H785 C797 0.950 . S
H786 C794 0.950 . S
H787 C796 0.950 1_565 S
H788 C798 0.950 . S
H789 C800 0.950 . S
H790 C802 0.950 1_545 S
H791 C803 0.950 . S
C792 H784 0.950 . S
C792 C793 1.386 . S
C792 C794 1.391 . S
C793 C792 1.386 . S
C793 C797 1.393 . S
C794 H786 0.950 . S
C794 C792 1.391 . S
C794 C795 1.400 . S
C795 C794 1.400 . S
C795 C796 1.398 . S
C795 C801 1.491 1_545 S
C796 H787 0.950 1_545 S
C796 C795 1.398 . S
C796 C797 1.391 . S
C797 H785 0.950 . S
C797 C793 1.393 . S
C797 C796 1.391 . S
C798 H788 0.950 . S
C798 C799 1.386 . S
C798 C800 1.391 . S
C799 C798 1.386 . S
C799 C803 1.393 . S
C800 H789 0.950 . S
C800 C798 1.391 . S
C800 C801 1.400 . S
C801 C795 1.491 1_565 S
C801 C800 1.400 . S
C801 C802 1.398 . S
C802 H790 0.950 1_565 S
C802 C801 1.398 . S
C802 C803 1.391 . S
C803 H791 0.950 . S
C803 C799 1.393 . S
C803 C802 1.391 . S
H804 C812 0.950 . S
H805 C817 0.950 . S
H806 C814 0.917 1_554 S
H807 C816 0.950 . S
H808 C818 0.950 . S
H809 C820 0.917 1_556 S
H810 C822 0.950 . S
H811 C823 0.950 . S
C812 H804 0.950 . S
C812 C813 1.386 . S
C812 C814 1.413 . S
C813 C812 1.386 . S
C813 C817 1.393 . S
C814 H806 0.917 1_556 S
C814 C812 1.413 . S
C814 C815 1.411 . S
C815 C814 1.411 . S
C815 C816 1.398 . S
C815 C821 1.491 1_546 S
C816 H807 0.950 . S
C816 C815 1.398 . S
C816 C817 1.391 . S
C817 H805 0.950 . S
C817 C813 1.393 . S
C817 C816 1.391 . S
C818 H808 0.950 . S
C818 C819 1.386 . S
C818 C820 1.413 . S
C819 C818 1.386 . S
C819 C823 1.393 . S
C820 H809 0.917 1_554 S
C820 C818 1.413 . S
C820 C821 1.411 . S
C821 C815 1.491 1_564 S
C821 C820 1.411 . S
C821 C822 1.398 . S
C822 H810 0.950 . S
C822 C821 1.398 . S
C822 C823 1.391 . S
C823 H811 0.950 . S
C823 C819 1.393 . S
C823 C822 1.391 . S
H824 C832 0.950 . S
H825 C837 0.950 . S
H826 C834 0.950 1_554 S
H827 C836 0.950 . S
H828 C838 0.950 . S
H829 C840 0.950 1_556 S
H830 C842 0.950 . S
H831 C843 0.950 . S
C832 H824 0.950 . S
C832 C833 1.386 . S
C832 C834 1.391 . S
C833 C832 1.386 . S
C833 C837 1.393 . S
C834 H826 0.950 1_556 S
C834 C832 1.391 . S
C834 C835 1.400 . S
C835 C834 1.400 . S
C835 C836 1.398 1_655 S
C835 C841 1.491 1_656 S
C836 H827 0.950 . S
C836 C835 1.398 1_455 S
C836 C837 1.391 1_455 S
C837 H825 0.950 . S
C837 C833 1.393 . S
C837 C836 1.391 1_655 S
C838 H828 0.950 . S
C838 C839 1.386 . S
C838 C840 1.391 . S
C839 C838 1.386 . S
C839 C843 1.393 . S
C840 H829 0.950 1_554 S
C840 C838 1.391 . S
C840 C841 1.400 . S
C841 C835 1.491 1_454 S
C841 C840 1.400 . S
C841 C842 1.398 1_455 S
C842 H830 0.950 . S
C842 C841 1.398 1_655 S
C842 C843 1.391 1_655 S
C843 H831 0.950 . S
C843 C839 1.393 . S
C843 C842 1.391 1_455 S
H844 C852 0.950 . S
H845 C857 0.950 . S
H846 C854 0.950 . S
H847 C856 0.950 1_554 S
H848 C858 0.950 . S
H849 C860 0.950 . S
H850 C862 0.950 1_556 S
H851 C863 0.950 . S
C852 H844 0.950 . S
C852 C853 1.386 . S
C852 C854 1.391 . S
C853 C852 1.386 . S
C853 C857 1.393 . S
C854 H846 0.950 . S
C854 C852 1.391 . S
C854 C855 1.400 . S
C855 C854 1.400 . S
C855 C856 1.398 . S
C855 C861 1.491 1_556 S
C856 H847 0.950 1_556 S
C856 C855 1.398 . S
C856 C857 1.391 . S
C857 H845 0.950 . S
C857 C853 1.393 . S
C857 C856 1.391 . S
C858 H848 0.950 . S
C858 C859 1.386 . S
C858 C860 1.391 . S
C859 C858 1.386 . S
C859 C863 1.393 . S
C860 H849 0.950 . S
C860 C858 1.391 . S
C860 C861 1.400 . S
C861 C855 1.491 1_554 S
C861 C860 1.400 . S
C861 C862 1.398 . S
C862 H850 0.950 1_554 S
C862 C861 1.398 . S
C862 C863 1.391 . S
C863 H851 0.950 . S
C863 C859 1.393 . S
C863 C862 1.391 . S
H864 C872 0.950 . S
H865 C877 0.949 . S
H866 C874 0.950 . S
H867 C876 0.950 . S
H868 C878 0.950 . S
H869 C880 0.950 . S
H870 C882 0.950 1_556 S
H871 C883 0.950 . S
C872 H864 0.950 . S
C872 C873 1.386 . S
C872 C874 1.391 . S
C873 C872 1.386 . S
C873 C877 1.393 . S
C874 H866 0.950 . S
C874 C872 1.391 . S
C874 C875 1.400 1_556 S
C875 C874 1.400 1_554 S
C875 C876 1.398 . S
C875 C881 1.491 . S
C876 H867 0.950 . S
C876 C875 1.398 . S
C876 C877 1.391 1_554 S
C877 H865 0.949 . S
C877 C873 1.393 . S
C877 C876 1.391 1_556 S
C878 H868 0.950 . S
C878 C879 1.386 . S
C878 C880 1.391 . S
C879 C878 1.386 . S
C879 C883 1.393 . S
C880 H869 0.950 . S
C880 C878 1.391 . S
C880 C881 1.400 . S
C881 C875 1.491 . S
C881 C880 1.400 . S
C881 C882 1.398 . S
C882 H870 0.950 1_554 S
C882 C881 1.398 . S
C882 C883 1.391 . S
C883 H871 0.950 . S
C883 C879 1.393 . S
C883 C882 1.391 . S
H884 C892 0.950 1_455 S
H885 C897 0.950 . S
H886 C894 0.950 . S
H887 C896 0.950 . S
H888 C898 0.950 . S
H889 C900 0.950 1_556 S
H890 C902 0.950 . S
H891 C903 0.950 . S
C892 H884 0.950 1_655 S
C892 C893 1.386 1_554 S
C892 C894 1.391 . S
C893 C892 1.386 1_556 S
C893 C897 1.393 . S
C894 H886 0.950 . S
C894 C892 1.391 . S
C894 C895 1.400 . S
C895 C894 1.400 . S
C895 C896 1.398 1_554 S
C895 C901 1.491 . S
C896 H887 0.950 . S
C896 C895 1.398 1_556 S
C896 C897 1.391 . S
C897 H885 0.950 . S
C897 C893 1.393 . S
C897 C896 1.391 . S
C898 H888 0.950 . S
C898 C899 1.386 . S
C898 C900 1.391 . S
C899 C898 1.386 . S
C899 C903 1.393 . S
C900 H889 0.950 1_554 S
C900 C898 1.391 . S
C900 C901 1.400 . S
C901 C895 1.491 . S
C901 C900 1.400 . S
C901 C902 1.398 . S
C902 H890 0.950 . S
C902 C901 1.398 . S
C902 C903 1.391 . S
C903 H891 0.950 . S
C903 C899 1.393 . S
C903 C902 1.391 . S
H904 C912 0.950 . S
H905 C917 0.950 . S
H906 C914 0.950 . S
H907 C916 0.950 . S
H908 C918 0.950 . S
H909 C920 0.950 . S
H910 C922 0.950 1_554 S
H911 C923 0.950 . S
C912 H904 0.950 . S
C912 C913 1.386 . S
C912 C914 1.391 . S
C913 C912 1.386 . S
C913 C917 1.393 . S
C914 H906 0.950 . S
C914 C912 1.391 . S
C914 C915 1.400 . S
C915 C914 1.400 . S
C915 C916 1.398 . S
C915 C921 1.502 . S
C916 H907 0.950 . S
C916 C915 1.398 . S
C916 C917 1.391 . S
C917 H905 0.950 . S
C917 C913 1.393 . S
C917 C916 1.391 . S
C918 H908 0.950 . S
C918 C919 1.386 . S
C918 C920 1.391 . S
C919 C918 1.386 . S
C919 C923 1.393 . S
C920 H909 0.950 . S
C920 C918 1.391 . S
C920 C921 1.391 1_556 S
C921 C915 1.502 . S
C921 C920 1.391 1_554 S
C921 C922 1.395 1_554 S
C922 H910 0.950 1_556 S
C922 C921 1.395 1_556 S
C922 C923 1.391 . S
C923 H911 0.950 . S
C923 C919 1.393 . S
C923 C922 1.391 . S
H924 C932 0.950 . S
H925 C937 0.950 . S
H926 C934 0.950 . S
H927 C936 0.950 . S
H928 C938 0.950 . S
H929 C940 0.950 . S
H930 C942 0.950 . S
H931 C943 0.950 . S
C932 H924 0.950 . S
C932 C933 1.386 . S
C932 C934 1.391 . S
C933 C932 1.386 . S
C933 C937 1.393 . S
C934 H926 0.950 . S
C934 C932 1.391 . S
C934 C935 1.400 . S
C935 C934 1.400 . S
C935 C936 1.398 . S
C935 C941 1.491 . S
C936 H927 0.950 . S
C936 C935 1.398 . S
C936 C937 1.391 . S
C937 H925 0.950 . S
C937 C933 1.393 . S
C937 C936 1.391 . S
C938 H928 0.950 . S
C938 C939 1.386 . S
C938 C940 1.391 . S
C939 C938 1.386 . S
C939 C943 1.393 . S
C940 H929 0.950 . S
C940 C938 1.391 . S
C940 C941 1.400 . S
C941 C935 1.491 . S
C941 C940 1.400 . S
C941 C942 1.398 . S
C942 H930 0.950 . S
C942 C941 1.398 . S
C942 C943 1.391 . S
C943 H931 0.950 . S
C943 C939 1.393 . S
C943 C942 1.391 . S
H944 C952 0.950 . S
H945 C957 0.950 . S
H946 C954 0.950 . S
H947 C956 0.950 . S
H948 C958 0.950 . S
H949 C960 0.950 . S
H950 C962 0.950 . S
H951 C963 0.950 . S
C952 H944 0.950 . S
C952 C953 1.386 . S
C952 C954 1.391 . S
C953 C952 1.386 . S
C953 C957 1.393 . S
C954 H946 0.950 . S
C954 C952 1.391 . S
C954 C955 1.400 . S
C955 C954 1.400 . S
C955 C956 1.398 . S
C955 C961 1.491 . S
C956 H947 0.950 . S
C956 C955 1.398 . S
C956 C957 1.391 . S
C957 H945 0.950 . S
C957 C953 1.393 . S
C957 C956 1.391 . S
C958 H948 0.950 . S
C958 C959 1.386 . S
C958 C960 1.391 . S
C959 C958 1.386 . S
C959 C963 1.393 . S
C960 H949 0.950 . S
C960 C958 1.391 . S
C960 C961 1.400 . S
C961 C955 1.491 . S
C961 C960 1.400 . S
C961 C962 1.398 . S
C962 H950 0.950 . S
C962 C961 1.398 . S
C962 C963 1.391 . S
C963 H951 0.950 . S
C963 C959 1.393 . S
C963 C962 1.391 . S
H964 C972 0.950 1_545 S
H965 C977 0.950 . S
H966 C974 0.950 . S
H967 C976 0.950 . S
H968 C978 0.950 . S
H969 C980 0.950 . S
H970 C982 0.950 . S
H971 C983 0.950 . S
C972 H964 0.950 1_565 S
C972 C973 1.386 . S
C972 C974 1.391 . S
C973 C972 1.386 . S
C973 C977 1.393 . S
C974 H966 0.950 . S
C974 C972 1.391 . S
C974 C975 1.400 . S
C975 C974 1.400 . S
C975 C976 1.398 . S
C975 C981 1.491 . S
C976 H967 0.950 . S
C976 C975 1.398 . S
C976 C977 1.391 . S
C977 H965 0.950 . S
C977 C973 1.393 . S
C977 C976 1.391 . S
C978 H968 0.950 . S
C978 C979 1.386 . S
C978 C980 1.391 . S
C979 C978 1.386 . S
C979 C983 1.393 . S
C980 H969 0.950 . S
C980 C978 1.391 . S
C980 C981 1.400 . S
C981 C975 1.491 . S
C981 C980 1.400 . S
C981 C982 1.398 . S
C982 H970 0.950 . S
C982 C981 1.398 . S
C982 C983 1.391 . S
C983 H971 0.950 . S
C983 C979 1.393 . S
C983 C982 1.391 . S
H984 C992 0.950 . S
H985 C997 0.950 . S
H986 C994 0.950 1_554 S
H987 C996 0.950 . S
H988 C998 0.950 . S
H989 C1000 0.950 . S
H990 C1002 0.950 . S
H991 C1003 0.950 . S
C992 H984 0.950 . S
C992 C993 1.386 . S
C992 C994 1.391 . S
C993 C992 1.386 . S
C993 C997 1.393 . S
C994 H986 0.950 1_556 S
C994 C992 1.391 . S
C994 C995 1.400 . S
C995 C994 1.400 . S
C995 C996 1.398 . S
C995 C1001 1.504 . S
C996 H987 0.950 . S
C996 C995 1.398 . S
C996 C997 1.391 . S
C997 H985 0.950 . S
C997 C993 1.393 . S
C997 C996 1.391 . S
C998 H988 0.950 . S
C998 C999 1.386 . S
C998 C1000 1.391 1_554 S
C999 C998 1.386 . S
C999 C1003 1.393 . S
C1000 H989 0.950 . S
C1000 C998 1.391 1_556 S
C1000 C1001 1.407 . S
C1001 C995 1.504 . S
C1001 C1000 1.407 . S
C1001 C1002 1.378 1_556 S
C1002 H990 0.950 . S
C1002 C1001 1.378 1_554 S
C1002 C1003 1.391 . S
C1003 H991 0.950 . S
C1003 C999 1.393 . S
C1003 C1002 1.391 . S
H1004 C1012 0.950 . S
H1005 C1017 0.950 . S
H1006 C1014 0.950 1_554 S
H1007 C1016 0.950 . S
H1008 C1018 0.950 1_656 S
H1009 C1020 0.950 . S
H1010 C1022 0.950 . S
H1011 C1023 0.950 . S
C1012 H1004 0.950 . S
C1012 C1013 1.386 . S
C1012 C1014 1.391 . S
C1013 C1012 1.386 . S
C1013 C1017 1.393 . S
C1014 H1006 0.950 1_556 S
C1014 C1012 1.391 . S
C1014 C1015 1.400 . S
C1015 C1014 1.400 . S
C1015 C1016 1.398 . S
C1015 C1021 1.491 . S
C1016 H1007 0.950 . S
C1016 C1015 1.398 . S
C1016 C1017 1.391 . S
C1017 H1005 0.950 . S
C1017 C1013 1.393 . S
C1017 C1016 1.391 . S
C1018 H1008 0.950 1_454 S
C1018 C1019 1.386 . S
C1018 C1020 1.391 1_554 S
C1019 C1018 1.386 . S
C1019 C1023 1.393 . S
C1020 H1009 0.950 . S
C1020 C1018 1.391 1_556 S
C1020 C1021 1.400 . S
C1021 C1015 1.491 . S
C1021 C1020 1.400 . S
C1021 C1022 1.398 1_556 S
C1022 H1010 0.950 . S
C1022 C1021 1.398 1_554 S
C1022 C1023 1.391 . S
C1023 H1011 0.950 . S
C1023 C1019 1.393 . S
C1023 C1022 1.391 . S
H1024 C1032 0.950 . S
H1025 C1037 0.950 . S
H1026 C1034 0.950 . S
H1027 C1036 0.950 1_554 S
H1028 C1038 0.950 . S
H1029 C1040 0.950 . S
H1030 C1042 0.950 . S
H1031 C1043 0.950 1_556 S
C1032 H1024 0.950 . S
C1032 C1033 1.386 . S
C1032 C1034 1.391 . S
C1033 C1032 1.386 . S
C1033 C1037 1.393 . S
C1034 H1026 0.950 . S
C1034 C1032 1.391 . S
C1034 C1035 1.400 . S
C1035 C1034 1.400 . S
C1035 C1036 1.398 . S
C1035 C1041 1.506 . S
C1036 H1027 0.950 1_556 S
C1036 C1035 1.398 . S
C1036 C1037 1.391 . S
C1037 H1025 0.950 . S
C1037 C1033 1.393 . S
C1037 C1036 1.391 . S
C1038 H1028 0.950 . S
C1038 C1039 1.386 . S
C1038 C1040 1.391 . S
C1039 C1038 1.386 . S
C1039 C1043 1.393 . S
C1040 H1029 0.950 . S
C1040 C1038 1.391 . S
C1040 C1041 1.376 1_554 S
C1041 C1035 1.506 . S
C1041 C1040 1.376 1_556 S
C1041 C1042 1.407 . S
C1042 H1030 0.950 . S
C1042 C1041 1.407 . S
C1042 C1043 1.391 1_556 S
C1043 H1031 0.950 1_554 S
C1043 C1039 1.393 . S
C1043 C1042 1.391 1_554 S
H1044 C1052 0.950 . S
H1045 C1057 0.950 . S
H1046 C1054 0.950 . S
H1047 C1056 0.950 . S
H1048 C1058 0.950 . S
H1049 C1060 0.950 . S
H1050 C1062 0.950 . S
H1051 C1063 0.950 . S
C1052 H1044 0.950 . S
C1052 C1053 1.386 . S
C1052 C1054 1.391 . S
C1053 C1052 1.386 . S
C1053 C1057 1.393 . S
C1054 H1046 0.950 . S
C1054 C1052 1.391 . S
C1054 C1055 1.400 . S
C1055 C1054 1.400 . S
C1055 C1056 1.398 . S
C1055 C1061 1.491 . S
C1056 H1047 0.950 . S
C1056 C1055 1.398 . S
C1056 C1057 1.391 . S
C1057 H1045 0.950 . S
C1057 C1053 1.393 . S
C1057 C1056 1.391 . S
C1058 H1048 0.950 . S
C1058 C1059 1.386 . S
C1058 C1060 1.391 . S
C1059 C1058 1.386 . S
C1059 C1063 1.393 . S
C1060 H1049 0.950 . S
C1060 C1058 1.391 . S
C1060 C1061 1.400 . S
C1061 C1055 1.491 . S
C1061 C1060 1.400 . S
C1061 C1062 1.398 . S
C1062 H1050 0.950 . S
C1062 C1061 1.398 . S
C1062 C1063 1.391 . S
C1063 H1051 0.950 . S
C1063 C1059 1.393 . S
C1063 C1062 1.391 . S
H1064 C1072 0.950 . S
H1065 C1077 0.950 . S
H1066 C1074 0.950 . S
H1067 C1076 0.950 . S
H1068 C1078 0.950 . S
H1069 C1080 0.950 . S
H1070 C1082 0.950 . S
H1071 C1083 0.950 . S
C1072 H1064 0.950 . S
C1072 C1073 1.386 . S
C1072 C1074 1.391 . S
C1073 C1072 1.386 . S
C1073 C1077 1.393 . S
C1074 H1066 0.950 . S
C1074 C1072 1.391 . S
C1074 C1075 1.400 . S
C1075 C1074 1.400 . S
C1075 C1076 1.398 . S
C1075 C1081 1.491 . S
C1076 H1067 0.950 . S
C1076 C1075 1.398 . S
C1076 C1077 1.391 . S
C1077 H1065 0.950 . S
C1077 C1073 1.393 . S
C1077 C1076 1.391 . S
C1078 H1068 0.950 . S
C1078 C1079 1.386 . S
C1078 C1080 1.391 . S
C1079 C1078 1.386 . S
C1079 C1083 1.393 . S
C1080 H1069 0.950 . S
C1080 C1078 1.391 . S
C1080 C1081 1.400 . S
C1081 C1075 1.491 . S
C1081 C1080 1.400 . S
C1081 C1082 1.398 . S
C1082 H1070 0.950 . S
C1082 C1081 1.398 . S
C1082 C1083 1.391 . S
C1083 H1071 0.950 . S
C1083 C1079 1.393 . S
C1083 C1082 1.391 . S
H1084 C1092 0.950 . S
H1085 C1097 0.950 . S
H1086 C1094 0.950 . S
H1087 C1096 0.950 . S
H1088 C1098 0.950 . S
H1089 C1100 0.950 . S
H1090 C1102 0.950 . S
H1091 C1103 0.950 . S
C1092 H1084 0.950 . S
C1092 C1093 1.386 . S
C1092 C1094 1.391 . S
C1093 C1092 1.386 . S
C1093 C1097 1.393 . S
C1094 H1086 0.950 . S
C1094 C1092 1.391 . S
C1094 C1095 1.400 . S
C1095 C1094 1.400 . S
C1095 C1096 1.398 . S
C1095 C1101 1.491 . S
C1096 H1087 0.950 . S
C1096 C1095 1.398 . S
C1096 C1097 1.391 . S
C1097 H1085 0.950 . S
C1097 C1093 1.393 . S
C1097 C1096 1.391 . S
C1098 H1088 0.950 . S
C1098 C1099 1.386 . S
C1098 C1100 1.391 . S
C1099 C1098 1.386 . S
C1099 C1103 1.393 . S
C1100 H1089 0.950 . S
C1100 C1098 1.391 . S
C1100 C1101 1.400 . S
C1101 C1095 1.491 . S
C1101 C1100 1.400 . S
C1101 C1102 1.398 . S
C1102 H1090 0.950 . S
C1102 C1101 1.398 . S
C1102 C1103 1.391 . S
C1103 H1091 0.950 . S
C1103 C1099 1.393 . S
C1103 C1102 1.391 . S
H1104 C1112 0.950 . S
H1105 C1117 0.950 . S
H1106 C1114 0.950 . S
H1107 C1116 0.950 . S
H1108 C1118 0.950 . S
H1109 C1120 0.950 . S
H1110 C1122 0.950 . S
H1111 C1123 0.950 . S
C1112 H1104 0.950 . S
C1112 C1113 1.386 . S
C1112 C1114 1.391 . S
C1113 C1112 1.386 . S
C1113 C1117 1.393 . S
C1114 H1106 0.950 . S
C1114 C1112 1.391 . S
C1114 C1115 1.400 . S
C1115 C1114 1.400 . S
C1115 C1116 1.398 . S
C1115 C1121 1.491 . S
C1116 H1107 0.950 . S
C1116 C1115 1.398 . S
C1116 C1117 1.391 . S
C1117 H1105 0.950 . S
C1117 C1113 1.393 . S
C1117 C1116 1.391 . S
C1118 H1108 0.950 . S
C1118 C1119 1.386 . S
C1118 C1120 1.391 . S
C1119 C1118 1.386 . S
C1119 C1123 1.393 . S
C1120 H1109 0.950 . S
C1120 C1118 1.391 . S
C1120 C1121 1.400 . S
C1121 C1115 1.491 . S
C1121 C1120 1.400 . S
C1121 C1122 1.398 . S
C1122 H1110 0.950 . S
C1122 C1121 1.398 . S
C1122 C1123 1.391 . S
C1123 H1111 0.950 . S
C1123 C1119 1.393 . S
C1123 C1122 1.391 . S
H1124 C1132 0.950 . S
H1125 C1137 0.950 . S
H1126 C1134 0.950 . S
H1127 C1136 0.950 . S
H1128 C1138 0.950 . S
H1129 C1140 0.950 . S
H1130 C1142 0.950 . S
H1131 C1143 0.950 . S
C1132 H1124 0.950 . S
C1132 C1133 1.386 . S
C1132 C1134 1.391 . S
C1133 C1132 1.386 . S
C1133 C1137 1.393 . S
C1134 H1126 0.950 . S
C1134 C1132 1.391 . S
C1134 C1135 1.400 . S
C1135 C1134 1.400 . S
C1135 C1136 1.398 . S
C1135 C1141 1.491 . S
C1136 H1127 0.950 . S
C1136 C1135 1.398 . S
C1136 C1137 1.391 . S
C1137 H1125 0.950 . S
C1137 C1133 1.393 . S
C1137 C1136 1.391 . S
C1138 H1128 0.950 . S
C1138 C1139 1.386 . S
C1138 C1140 1.391 . S
C1139 C1138 1.386 . S
C1139 C1143 1.393 . S
C1140 H1129 0.950 . S
C1140 C1138 1.391 . S
C1140 C1141 1.400 . S
C1141 C1135 1.491 . S
C1141 C1140 1.400 . S
C1141 C1142 1.398 . S
C1142 H1130 0.950 . S
C1142 C1141 1.398 . S
C1142 C1143 1.391 . S
C1143 H1131 0.950 . S
C1143 C1139 1.393 . S
C1143 C1142 1.391 . S
H1144 C1152 0.950 . S
H1145 C1157 0.950 . S
H1146 C1154 0.950 . S
H1147 C1156 0.950 . S
H1148 C1158 0.950 . S
H1149 C1160 0.950 . S
H1150 C1162 0.950 . S
H1151 C1163 0.950 . S
C1152 H1144 0.950 . S
C1152 C1153 1.386 . S
C1152 C1154 1.391 . S
C1153 C1152 1.386 . S
C1153 C1157 1.393 . S
C1154 H1146 0.950 . S
C1154 C1152 1.391 . S
C1154 C1155 1.400 . S
C1155 C1154 1.400 . S
C1155 C1156 1.398 . S
C1155 C1161 1.491 . S
C1156 H1147 0.950 . S
C1156 C1155 1.398 . S
C1156 C1157 1.391 . S
C1157 H1145 0.950 . S
C1157 C1153 1.393 . S
C1157 C1156 1.391 . S
C1158 H1148 0.950 . S
C1158 C1159 1.386 . S
C1158 C1160 1.391 . S
C1159 C1158 1.386 . S
C1159 C1163 1.393 . S
C1160 H1149 0.950 . S
C1160 C1158 1.391 . S
C1160 C1161 1.400 . S
C1161 C1155 1.491 . S
C1161 C1160 1.400 . S
C1161 C1162 1.398 . S
C1162 H1150 0.950 . S
C1162 C1161 1.398 . S
C1162 C1163 1.391 . S
C1163 H1151 0.950 . S
C1163 C1159 1.393 . S
C1163 C1162 1.391 . S
H1164 C1172 0.950 . S
H1165 C1177 0.950 . S
H1166 C1174 0.950 . S
H1167 C1176 0.950 . S
H1168 C1178 0.950 . S
H1169 C1180 0.950 . S
H1170 C1182 0.950 . S
H1171 C1183 0.950 . S
C1172 H1164 0.950 . S
C1172 C1173 1.386 . S
C1172 C1174 1.391 . S
C1173 C1172 1.386 . S
C1173 C1177 1.393 . S
C1174 H1166 0.950 . S
C1174 C1172 1.391 . S
C1174 C1175 1.400 . S
C1175 C1174 1.400 . S
C1175 C1176 1.398 . S
C1175 C1181 1.491 . S
C1176 H1167 0.950 . S
C1176 C1175 1.398 . S
C1176 C1177 1.391 . S
C1177 H1165 0.950 . S
C1177 C1173 1.393 . S
C1177 C1176 1.391 . S
C1178 H1168 0.950 . S
C1178 C1179 1.386 . S
C1178 C1180 1.391 . S
C1179 C1178 1.386 . S
C1179 C1183 1.393 . S
C1180 H1169 0.950 . S
C1180 C1178 1.391 . S
C1180 C1181 1.400 . S
C1181 C1175 1.491 . S
C1181 C1180 1.400 . S
C1181 C1182 1.398 . S
C1182 H1170 0.950 . S
C1182 C1181 1.398 . S
C1182 C1183 1.391 . S
C1183 H1171 0.950 . S
C1183 C1179 1.393 . S
C1183 C1182 1.391 . S
H1184 C1192 0.950 . S
H1185 C1197 0.950 . S
H1186 C1194 0.950 . S
H1187 C1196 0.950 . S
H1188 C1198 0.950 . S
H1189 C1200 0.950 . S
H1190 C1202 0.950 . S
H1191 C1203 0.950 . S
C1192 H1184 0.950 . S
C1192 C1193 1.386 . S
C1192 C1194 1.391 . S
C1193 C1192 1.386 . S
C1193 C1197 1.393 . S
C1194 H1186 0.950 . S
C1194 C1192 1.391 . S
C1194 C1195 1.400 . S
C1195 C1194 1.400 . S
C1195 C1196 1.398 . S
C1195 C1201 1.491 . S
C1196 H1187 0.950 . S
C1196 C1195 1.398 . S
C1196 C1197 1.391 . S
C1197 H1185 0.950 . S
C1197 C1193 1.393 . S
C1197 C1196 1.391 . S
C1198 H1188 0.950 . S
C1198 C1199 1.386 . S
C1198 C1200 1.391 . S
C1199 C1198 1.386 . S
C1199 C1203 1.393 . S
C1200 H1189 0.950 . S
C1200 C1198 1.391 . S
C1200 C1201 1.400 . S
C1201 C1195 1.491 . S
C1201 C1200 1.400 . S
C1201 C1202 1.398 . S
C1202 H1190 0.950 . S
C1202 C1201 1.398 . S
C1202 C1203 1.391 . S
C1203 H1191 0.950 . S
C1203 C1199 1.393 . S
C1203 C1202 1.391 . S
H1204 C1212 0.950 . S
H1205 C1217 0.950 . S
H1206 C1214 0.950 . S
H1207 C1216 0.950 . S
H1208 C1218 0.950 . S
H1209 C1220 0.950 . S
H1210 C1222 0.950 . S
H1211 C1223 0.950 . S
C1212 H1204 0.950 . S
C1212 C1213 1.386 . S
C1212 C1214 1.391 . S
C1213 C1212 1.386 . S
C1213 C1217 1.393 . S
C1214 H1206 0.950 . S
C1214 C1212 1.391 . S
C1214 C1215 1.400 . S
C1215 C1214 1.400 . S
C1215 C1216 1.398 . S
C1215 C1221 1.491 . S
C1216 H1207 0.950 . S
C1216 C1215 1.398 . S
C1216 C1217 1.391 . S
C1217 H1205 0.950 . S
C1217 C1213 1.393 . S
C1217 C1216 1.391 . S
C1218 H1208 0.950 . S
C1218 C1219 1.386 . S
C1218 C1220 1.391 . S
C1219 C1218 1.386 . S
C1219 C1223 1.393 . S
C1220 H1209 0.950 . S
C1220 C1218 1.391 . S
C1220 C1221 1.400 . S
C1221 C1215 1.491 . S
C1221 C1220 1.400 . S
C1221 C1222 1.398 . S
C1222 H1210 0.950 . S
C1222 C1221 1.398 . S
C1222 C1223 1.391 . S
C1223 H1211 0.950 . S
C1223 C1219 1.393 . S
C1223 C1222 1.391 . S
H1224 C1232 0.950 . S
H1225 C1237 0.950 . S
H1226 C1234 0.950 . S
H1227 C1236 0.950 . S
H1228 C1238 0.950 . S
H1229 C1240 0.950 . S
H1230 C1242 0.950 . S
H1231 C1243 0.950 . S
C1232 H1224 0.950 . S
C1232 C1233 1.386 . S
C1232 C1234 1.391 . S
C1233 C1232 1.386 . S
C1233 C1237 1.393 . S
C1234 H1226 0.950 . S
C1234 C1232 1.391 . S
C1234 C1235 1.400 . S
C1235 C1234 1.400 . S
C1235 C1236 1.398 . S
C1235 C1241 1.491 . S
C1236 H1227 0.950 . S
C1236 C1235 1.398 . S
C1236 C1237 1.391 . S
C1237 H1225 0.950 . S
C1237 C1233 1.393 . S
C1237 C1236 1.391 . S
C1238 H1228 0.950 . S
C1238 C1239 1.386 . S
C1238 C1240 1.391 . S
C1239 C1238 1.386 . S
C1239 C1243 1.393 . S
C1240 H1229 0.950 . S
C1240 C1238 1.391 . S
C1240 C1241 1.400 . S
C1241 C1235 1.491 . S
C1241 C1240 1.400 . S
C1241 C1242 1.398 . S
C1242 H1230 0.950 . S
C1242 C1241 1.398 . S
C1242 C1243 1.391 . S
C1243 H1231 0.950 . S
C1243 C1239 1.393 . S
C1243 C1242 1.391 . S
H1244 C1252 0.950 . S
H1245 C1257 0.950 . S
H1246 C1254 0.950 . S
H1247 C1256 0.950 . S
H1248 C1258 0.950 . S
H1249 C1260 0.950 . S
H1250 C1262 0.950 . S
H1251 C1263 0.950 . S
C1252 H1244 0.950 . S
C1252 C1253 1.386 . S
C1252 C1254 1.391 . S
C1253 C1252 1.386 . S
C1253 C1257 1.393 . S
C1254 H1246 0.950 . S
C1254 C1252 1.391 . S
C1254 C1255 1.400 . S
C1255 C1254 1.400 . S
C1255 C1256 1.398 . S
C1255 C1261 1.491 . S
C1256 H1247 0.950 . S
C1256 C1255 1.398 . S
C1256 C1257 1.391 . S
C1257 H1245 0.950 . S
C1257 C1253 1.393 . S
C1257 C1256 1.391 . S
C1258 H1248 0.950 . S
C1258 C1259 1.386 . S
C1258 C1260 1.391 . S
C1259 C1258 1.386 . S
C1259 C1263 1.393 . S
C1260 H1249 0.950 . S
C1260 C1258 1.391 . S
C1260 C1261 1.400 . S
C1261 C1255 1.491 . S
C1261 C1260 1.400 . S
C1261 C1262 1.398 . S
C1262 H1250 0.950 . S
C1262 C1261 1.398 . S
C1262 C1263 1.391 . S
C1263 H1251 0.950 . S
C1263 C1259 1.393 . S
C1263 C1262 1.391 . S
H1264 C1272 0.950 . S
H1265 C1277 0.950 . S
H1266 C1274 0.950 . S
H1267 C1276 0.950 . S
H1268 C1278 0.950 . S
H1269 C1280 0.950 . S
H1270 C1282 0.950 . S
H1271 C1283 0.950 . S
C1272 H1264 0.950 . S
C1272 C1273 1.386 . S
C1272 C1274 1.391 . S
C1273 C1272 1.386 . S
C1273 C1277 1.393 . S
C1274 H1266 0.950 . S
C1274 C1272 1.391 . S
C1274 C1275 1.400 . S
C1275 C1274 1.400 . S
C1275 C1276 1.398 . S
C1275 C1281 1.491 . S
C1276 H1267 0.950 . S
C1276 C1275 1.398 . S
C1276 C1277 1.391 . S
C1277 H1265 0.950 . S
C1277 C1273 1.393 . S
C1277 C1276 1.391 . S
C1278 H1268 0.950 . S
C1278 C1279 1.386 . S
C1278 C1280 1.391 . S
C1279 C1278 1.386 . S
C1279 C1283 1.393 . S
C1280 H1269 0.950 . S
C1280 C1278 1.391 . S
C1280 C1281 1.400 . S
C1281 C1275 1.491 . S
C1281 C1280 1.400 . S
C1281 C1282 1.398 . S
C1282 H1270 0.950 . S
C1282 C1281 1.398 . S
C1282 C1283 1.391 . S
C1283 H1271 0.950 . S
C1283 C1279 1.393 . S
C1283 C1282 1.391 . S
H1284 C1292 0.950 . S
H1285 C1297 0.950 . S
H1286 C1294 0.950 . S
H1287 C1296 0.950 . S
H1288 C1298 0.950 . S
H1289 C1300 0.950 . S
H1290 C1302 0.950 . S
H1291 C1303 0.950 . S
C1292 H1284 0.950 . S
C1292 C1293 1.386 . S
C1292 C1294 1.391 . S
C1293 C1292 1.386 . S
C1293 C1297 1.393 . S
C1294 H1286 0.950 . S
C1294 C1292 1.391 . S
C1294 C1295 1.400 . S
C1295 C1294 1.400 . S
C1295 C1296 1.398 . S
C1295 C1301 1.491 . S
C1296 H1287 0.950 . S
C1296 C1295 1.398 . S
C1296 C1297 1.391 . S
C1297 H1285 0.950 . S
C1297 C1293 1.393 . S
C1297 C1296 1.391 . S
C1298 H1288 0.950 . S
C1298 C1299 1.386 . S
C1298 C1300 1.391 . S
C1299 C1298 1.386 . S
C1299 C1303 1.393 . S
C1300 H1289 0.950 . S
C1300 C1298 1.391 . S
C1300 C1301 1.400 . S
C1301 C1295 1.491 . S
C1301 C1300 1.400 . S
C1301 C1302 1.398 . S
C1302 H1290 0.950 . S
C1302 C1301 1.398 . S
C1302 C1303 1.391 . S
C1303 H1291 0.950 . S
C1303 C1299 1.393 . S
C1303 C1302 1.391 . S
H1304 C1312 0.950 . S
H1305 C1317 0.950 . S
H1306 C1314 0.950 . S
H1307 C1316 0.950 . S
H1308 C1318 0.950 . S
H1309 C1320 0.950 . S
H1310 C1322 0.950 . S
H1311 C1323 0.950 . S
C1312 H1304 0.950 . S
C1312 C1313 1.386 . S
C1312 C1314 1.391 . S
C1313 C1312 1.386 . S
C1313 C1317 1.393 . S
C1314 H1306 0.950 . S
C1314 C1312 1.391 . S
C1314 C1315 1.400 . S
C1315 C1314 1.400 . S
C1315 C1316 1.398 . S
C1315 C1321 1.491 . S
C1316 H1307 0.950 . S
C1316 C1315 1.398 . S
C1316 C1317 1.391 . S
C1317 H1305 0.950 . S
C1317 C1313 1.393 . S
C1317 C1316 1.391 . S
C1318 H1308 0.950 . S
C1318 C1319 1.386 . S
C1318 C1320 1.391 . S
C1319 C1318 1.386 . S
C1319 C1323 1.393 . S
C1320 H1309 0.950 . S
C1320 C1318 1.391 . S
C1320 C1321 1.400 . S
C1321 C1315 1.491 . S
C1321 C1320 1.400 . S
C1321 C1322 1.398 . S
C1322 H1310 0.950 . S
C1322 C1321 1.398 . S
C1322 C1323 1.391 . S
C1323 H1311 0.950 . S
C1323 C1319 1.393 . S
C1323 C1322 1.391 . S
H1324 C1332 0.950 . S
H1325 C1337 0.950 . S
H1326 C1334 0.950 . S
H1327 C1336 0.950 . S
H1328 C1338 0.950 . S
H1329 C1340 0.950 . S
H1330 C1342 0.950 . S
H1331 C1343 0.950 . S
C1332 H1324 0.950 . S
C1332 C1333 1.386 . S
C1332 C1334 1.391 . S
C1333 C1332 1.386 . S
C1333 C1337 1.393 . S
C1334 H1326 0.950 . S
C1334 C1332 1.391 . S
C1334 C1335 1.400 . S
C1335 C1334 1.400 . S
C1335 C1336 1.398 . S
C1335 C1341 1.491 . S
C1336 H1327 0.950 . S
C1336 C1335 1.398 . S
C1336 C1337 1.391 . S
C1337 H1325 0.950 . S
C1337 C1333 1.393 . S
C1337 C1336 1.391 . S
C1338 H1328 0.950 . S
C1338 C1339 1.386 . S
C1338 C1340 1.391 . S
C1339 C1338 1.386 . S
C1339 C1343 1.393 . S
C1340 H1329 0.950 . S
C1340 C1338 1.391 . S
C1340 C1341 1.400 . S
C1341 C1335 1.491 . S
C1341 C1340 1.400 . S
C1341 C1342 1.398 . S
C1342 H1330 0.950 . S
C1342 C1341 1.398 . S
C1342 C1343 1.391 . S
C1343 H1331 0.950 . S
C1343 C1339 1.393 . S
C1343 C1342 1.391 . S
H1344 C1352 0.950 . S
H1345 C1357 0.950 . S
H1346 C1354 0.950 . S
H1347 C1356 0.950 . S
H1348 C1358 0.950 . S
H1349 C1360 0.950 . S
H1350 C1362 0.950 . S
H1351 C1363 0.950 . S
C1352 H1344 0.950 . S
C1352 C1353 1.386 . S
C1352 C1354 1.391 . S
C1353 C1352 1.386 . S
C1353 C1357 1.393 . S
C1354 H1346 0.950 . S
C1354 C1352 1.391 . S
C1354 C1355 1.400 . S
C1355 C1354 1.400 . S
C1355 C1356 1.398 . S
C1355 C1361 1.491 . S
C1356 H1347 0.950 . S
C1356 C1355 1.398 . S
C1356 C1357 1.391 . S
C1357 H1345 0.950 . S
C1357 C1353 1.393 . S
C1357 C1356 1.391 . S
C1358 H1348 0.950 . S
C1358 C1359 1.386 . S
C1358 C1360 1.391 . S
C1359 C1358 1.386 . S
C1359 C1363 1.393 . S
C1360 H1349 0.950 . S
C1360 C1358 1.391 . S
C1360 C1361 1.400 . S
C1361 C1355 1.491 . S
C1361 C1360 1.400 . S
C1361 C1362 1.398 . S
C1362 H1350 0.950 . S
C1362 C1361 1.398 . S
C1362 C1363 1.391 . S
C1363 H1351 0.950 . S
C1363 C1359 1.393 . S
C1363 C1362 1.391 . S
H1364 C1372 0.950 . S
H1365 C1377 0.950 . S
H1366 C1374 0.950 . S
H1367 C1376 0.950 . S
H1368 C1378 0.950 . S
H1369 C1380 0.950 . S
H1370 C1382 0.950 . S
H1371 C1383 0.950 . S
C1372 H1364 0.950 . S
C1372 C1373 1.386 . S
C1372 C1374 1.391 . S
C1373 C1372 1.386 . S
C1373 C1377 1.393 . S
C1374 H1366 0.950 . S
C1374 C1372 1.391 . S
C1374 C1375 1.400 . S
C1375 C1374 1.400 . S
C1375 C1376 1.398 . S
C1375 C1381 1.491 . S
C1376 H1367 0.950 . S
C1376 C1375 1.398 . S
C1376 C1377 1.391 . S
C1377 H1365 0.950 . S
C1377 C1373 1.393 . S
C1377 C1376 1.391 . S
C1378 H1368 0.950 . S
C1378 C1379 1.386 . S
C1378 C1380 1.391 . S
C1379 C1378 1.386 . S
C1379 C1383 1.393 . S
C1380 H1369 0.950 . S
C1380 C1378 1.391 . S
C1380 C1381 1.400 . S
C1381 C1375 1.491 . S
C1381 C1380 1.400 . S
C1381 C1382 1.398 . S
C1382 H1370 0.950 . S
C1382 C1381 1.398 . S
C1382 C1383 1.391 . S
C1383 H1371 0.950 . S
C1383 C1379 1.393 . S
C1383 C1382 1.391 . S
H1384 C1392 0.950 . S
H1385 C1397 0.950 . S
H1386 C1394 0.950 . S
H1387 C1396 0.950 . S
H1388 C1398 0.950 . S
H1389 C1400 0.950 . S
H1390 C1402 0.950 . S
H1391 C1403 0.950 . S
C1392 H1384 0.950 . S
C1392 C1393 1.386 . S
C1392 C1394 1.391 . S
C1393 C1392 1.386 . S
C1393 C1397 1.393 . S
C1394 H1386 0.950 . S
C1394 C1392 1.391 . S
C1394 C1395 1.400 . S
C1395 C1394 1.400 . S
C1395 C1396 1.398 . S
C1395 C1401 1.491 . S
C1396 H1387 0.950 . S
C1396 C1395 1.398 . S
C1396 C1397 1.391 . S
C1397 H1385 0.950 . S
C1397 C1393 1.393 . S
C1397 C1396 1.391 . S
C1398 H1388 0.950 . S
C1398 C1399 1.386 . S
C1398 C1400 1.391 . S
C1399 C1398 1.386 . S
C1399 C1403 1.393 . S
C1400 H1389 0.950 . S
C1400 C1398 1.391 . S
C1400 C1401 1.400 . S
C1401 C1395 1.491 . S
C1401 C1400 1.400 . S
C1401 C1402 1.398 . S
C1402 H1390 0.950 . S
C1402 C1401 1.398 . S
C1402 C1403 1.391 . S
C1403 H1391 0.950 . S
C1403 C1399 1.393 . S
C1403 C1402 1.391 . S
H1404 C1412 0.950 . S
H1405 C1417 0.950 . S
H1406 C1414 0.950 . S
H1407 C1416 0.950 . S
H1408 C1418 0.950 . S
H1409 C1420 0.950 . S
H1410 C1422 0.950 . S
H1411 C1423 0.950 . S
C1412 H1404 0.950 . S
C1412 C1413 1.386 . S
C1412 C1414 1.391 . S
C1413 C1412 1.386 . S
C1413 C1417 1.393 . S
C1414 H1406 0.950 . S
C1414 C1412 1.391 . S
C1414 C1415 1.400 . S
C1415 C1414 1.400 . S
C1415 C1416 1.398 . S
C1415 C1421 1.491 . S
C1416 H1407 0.950 . S
C1416 C1415 1.398 . S
C1416 C1417 1.391 . S
C1417 H1405 0.950 . S
C1417 C1413 1.393 . S
C1417 C1416 1.391 . S
C1418 H1408 0.950 . S
C1418 C1419 1.386 . S
C1418 C1420 1.391 . S
C1419 C1418 1.386 . S
C1419 C1423 1.393 . S
C1420 H1409 0.950 . S
C1420 C1418 1.391 . S
C1420 C1421 1.400 . S
C1421 C1415 1.491 . S
C1421 C1420 1.400 . S
C1421 C1422 1.398 . S
C1422 H1410 0.950 . S
C1422 C1421 1.398 . S
C1422 C1423 1.391 . S
C1423 H1411 0.950 . S
C1423 C1419 1.393 . S
C1423 C1422 1.391 . S
H1424 C1432 0.950 . S
H1425 C1437 0.950 . S
H1426 C1434 0.950 . S
H1427 C1436 0.950 . S
H1428 C1438 0.950 . S
H1429 C1440 0.950 . S
H1430 C1442 0.950 . S
H1431 C1443 0.950 . S
C1432 H1424 0.950 . S
C1432 C1433 1.386 . S
C1432 C1434 1.391 . S
C1433 C1432 1.386 . S
C1433 C1437 1.393 . S
C1434 H1426 0.950 . S
C1434 C1432 1.391 . S
C1434 C1435 1.400 . S
C1435 C1434 1.400 . S
C1435 C1436 1.398 . S
C1435 C1441 1.491 . S
C1436 H1427 0.950 . S
C1436 C1435 1.398 . S
C1436 C1437 1.391 . S
C1437 H1425 0.950 . S
C1437 C1433 1.393 . S
C1437 C1436 1.391 . S
C1438 H1428 0.950 . S
C1438 C1439 1.386 . S
C1438 C1440 1.391 . S
C1439 C1438 1.386 . S
C1439 C1443 1.393 . S
C1440 H1429 0.950 . S
C1440 C1438 1.391 . S
C1440 C1441 1.400 . S
C1441 C1435 1.491 . S
C1441 C1440 1.400 . S
C1441 C1442 1.398 . S
C1442 H1430 0.950 . S
C1442 C1441 1.398 . S
C1442 C1443 1.391 . S
C1443 H1431 0.950 . S
C1443 C1439 1.393 . S
C1443 C1442 1.391 . S
H1444 C1452 0.950 . S
H1445 C1457 0.950 . S
H1446 C1454 0.950 . S
H1447 C1456 0.950 . S
H1448 C1458 0.950 . S
H1449 C1460 0.950 . S
H1450 C1462 0.950 . S
H1451 C1463 0.950 . S
C1452 H1444 0.950 . S
C1452 C1453 1.386 . S
C1452 C1454 1.391 . S
C1453 C1452 1.386 . S
C1453 C1457 1.393 . S
C1454 H1446 0.950 . S
C1454 C1452 1.391 . S
C1454 C1455 1.400 . S
C1455 C1454 1.400 . S
C1455 C1456 1.398 . S
C1455 C1461 1.491 . S
C1456 H1447 0.950 . S
C1456 C1455 1.398 . S
C1456 C1457 1.391 . S
C1457 H1445 0.950 . S
C1457 C1453 1.393 . S
C1457 C1456 1.391 . S
C1458 H1448 0.950 . S
C1458 C1459 1.386 . S
C1458 C1460 1.391 . S
C1459 C1458 1.386 . S
C1459 C1463 1.393 . S
C1460 H1449 0.950 . S
C1460 C1458 1.391 . S
C1460 C1461 1.400 . S
C1461 C1455 1.491 . S
C1461 C1460 1.400 . S
C1461 C1462 1.398 . S
C1462 H1450 0.950 . S
C1462 C1461 1.398 . S
C1462 C1463 1.391 . S
C1463 H1451 0.950 . S
C1463 C1459 1.393 . S
C1463 C1462 1.391 . S
H1464 C1472 0.950 . S
H1465 C1477 0.950 . S
H1466 C1474 0.950 . S
H1467 C1476 0.950 . S
H1468 C1478 0.950 . S
H1469 C1480 0.950 . S
H1470 C1482 0.950 . S
H1471 C1483 0.950 . S
C1472 H1464 0.950 . S
C1472 C1473 1.386 . S
C1472 C1474 1.391 . S
C1473 C1472 1.386 . S
C1473 C1477 1.393 . S
C1474 H1466 0.950 . S
C1474 C1472 1.391 . S
C1474 C1475 1.400 . S
C1475 C1474 1.400 . S
C1475 C1476 1.398 . S
C1475 C1481 1.491 . S
C1476 H1467 0.950 . S
C1476 C1475 1.398 . S
C1476 C1477 1.391 . S
C1477 H1465 0.950 . S
C1477 C1473 1.393 . S
C1477 C1476 1.391 . S
C1478 H1468 0.950 . S
C1478 C1479 1.386 . S
C1478 C1480 1.391 . S
C1479 C1478 1.386 . S
C1479 C1483 1.393 . S
C1480 H1469 0.950 . S
C1480 C1478 1.391 . S
C1480 C1481 1.400 . S
C1481 C1475 1.491 . S
C1481 C1480 1.400 . S
C1481 C1482 1.398 . S
C1482 H1470 0.950 . S
C1482 C1481 1.398 . S
C1482 C1483 1.391 . S
C1483 H1471 0.950 . S
C1483 C1479 1.393 . S
C1483 C1482 1.391 . S
H1484 C1492 0.950 . S
H1485 C1497 0.950 . S
H1486 C1494 0.950 . S
H1487 C1496 0.950 . S
H1488 C1498 0.950 . S
H1489 C1500 0.950 . S
H1490 C1502 0.950 . S
H1491 C1503 0.950 . S
C1492 H1484 0.950 . S
C1492 C1493 1.386 . S
C1492 C1494 1.391 . S
C1493 C1492 1.386 . S
C1493 C1497 1.393 . S
C1494 H1486 0.950 . S
C1494 C1492 1.391 . S
C1494 C1495 1.400 . S
C1495 C1494 1.400 . S
C1495 C1496 1.398 . S
C1495 C1501 1.491 . S
C1496 H1487 0.950 . S
C1496 C1495 1.398 . S
C1496 C1497 1.391 . S
C1497 H1485 0.950 . S
C1497 C1493 1.393 . S
C1497 C1496 1.391 . S
C1498 H1488 0.950 . S
C1498 C1499 1.386 . S
C1498 C1500 1.391 . S
C1499 C1498 1.386 . S
C1499 C1503 1.393 . S
C1500 H1489 0.950 . S
C1500 C1498 1.391 . S
C1500 C1501 1.400 . S
C1501 C1495 1.491 . S
C1501 C1500 1.400 . S
C1501 C1502 1.398 . S
C1502 H1490 0.950 . S
C1502 C1501 1.398 . S
C1502 C1503 1.391 . S
C1503 H1491 0.950 . S
C1503 C1499 1.393 . S
C1503 C1502 1.391 . S
H1504 C1512 0.950 . S
H1505 C1517 0.950 . S
H1506 C1514 0.950 . S
H1507 C1516 0.950 . S
H1508 C1518 0.950 . S
H1509 C1520 0.950 . S
H1510 C1522 0.950 . S
H1511 C1523 0.950 . S
C1512 H1504 0.950 . S
C1512 C1513 1.386 . S
C1512 C1514 1.391 . S
C1513 C1512 1.386 . S
C1513 C1517 1.393 . S
C1514 H1506 0.950 . S
C1514 C1512 1.391 . S
C1514 C1515 1.400 . S
C1515 C1514 1.400 . S
C1515 C1516 1.398 . S
C1515 C1521 1.491 . S
C1516 H1507 0.950 . S
C1516 C1515 1.398 . S
C1516 C1517 1.391 . S
C1517 H1505 0.950 . S
C1517 C1513 1.393 . S
C1517 C1516 1.391 . S
C1518 H1508 0.950 . S
C1518 C1519 1.386 . S
C1518 C1520 1.391 . S
C1519 C1518 1.386 . S
C1519 C1523 1.393 . S
C1520 H1509 0.950 . S
C1520 C1518 1.391 . S
C1520 C1521 1.400 . S
C1521 C1515 1.491 . S
C1521 C1520 1.400 . S
C1521 C1522 1.398 . S
C1522 H1510 0.950 . S
C1522 C1521 1.398 . S
C1522 C1523 1.391 . S
C1523 H1511 0.950 . S
C1523 C1519 1.393 . S
C1523 C1522 1.391 . S
H1524 C1532 0.950 . S
H1525 C1537 0.950 . S
H1526 C1534 0.950 . S
H1527 C1536 0.950 . S
H1528 C1538 0.950 . S
H1529 C1540 0.950 . S
H1530 C1542 0.950 . S
H1531 C1543 0.950 . S
C1532 H1524 0.950 . S
C1532 C1533 1.386 . S
C1532 C1534 1.391 . S
C1533 C1532 1.386 . S
C1533 C1537 1.393 . S
C1534 H1526 0.950 . S
C1534 C1532 1.391 . S
C1534 C1535 1.400 . S
C1535 C1534 1.400 . S
C1535 C1536 1.398 . S
C1535 C1541 1.491 . S
C1536 H1527 0.950 . S
C1536 C1535 1.398 . S
C1536 C1537 1.391 . S
C1537 H1525 0.950 . S
C1537 C1533 1.393 . S
C1537 C1536 1.391 . S
C1538 H1528 0.950 . S
C1538 C1539 1.386 . S
C1538 C1540 1.391 . S
C1539 C1538 1.386 . S
C1539 C1543 1.393 . S
C1540 H1529 0.950 . S
C1540 C1538 1.391 . S
C1540 C1541 1.400 . S
C1541 C1535 1.491 . S
C1541 C1540 1.400 . S
C1541 C1542 1.398 . S
C1542 H1530 0.950 . S
C1542 C1541 1.398 . S
C1542 C1543 1.391 . S
C1543 H1531 0.950 . S
C1543 C1539 1.393 . S
C1543 C1542 1.391 . S
H1544 C1552 0.950 . S
H1545 C1557 0.950 . S
H1546 C1554 0.950 . S
H1547 C1556 0.950 . S
H1548 C1558 0.950 . S
H1549 C1560 0.950 . S
H1550 C1562 0.950 . S
H1551 C1563 0.950 . S
C1552 H1544 0.950 . S
C1552 C1553 1.386 . S
C1552 C1554 1.391 . S
C1553 C1552 1.386 . S
C1553 C1557 1.393 . S
C1554 H1546 0.950 . S
C1554 C1552 1.391 . S
C1554 C1555 1.400 . S
C1555 C1554 1.400 . S
C1555 C1556 1.398 . S
C1555 C1561 1.491 . S
C1556 H1547 0.950 . S
C1556 C1555 1.398 . S
C1556 C1557 1.391 . S
C1557 H1545 0.950 . S
C1557 C1553 1.393 . S
C1557 C1556 1.391 . S
C1558 H1548 0.950 . S
C1558 C1559 1.386 . S
C1558 C1560 1.391 . S
C1559 C1558 1.386 . S
C1559 C1563 1.393 . S
C1560 H1549 0.950 . S
C1560 C1558 1.391 . S
C1560 C1561 1.400 . S
C1561 C1555 1.491 . S
C1561 C1560 1.400 . S
C1561 C1562 1.398 . S
C1562 H1550 0.950 . S
C1562 C1561 1.398 . S
C1562 C1563 1.391 . S
C1563 H1551 0.950 . S
C1563 C1559 1.393 . S
C1563 C1562 1.391 . S
H1564 C1572 0.950 . S
H1565 C1577 0.950 . S
H1566 C1574 0.950 . S
H1567 C1576 0.950 . S
H1568 C1578 0.950 . S
H1569 C1580 0.950 . S
H1570 C1582 0.950 . S
H1571 C1583 0.950 . S
C1572 H1564 0.950 . S
C1572 C1573 1.386 . S
C1572 C1574 1.391 . S
C1573 C1572 1.386 . S
C1573 C1577 1.393 . S
C1574 H1566 0.950 . S
C1574 C1572 1.391 . S
C1574 C1575 1.400 . S
C1575 C1574 1.400 . S
C1575 C1576 1.398 . S
C1575 C1581 1.491 . S
C1576 H1567 0.950 . S
C1576 C1575 1.398 . S
C1576 C1577 1.391 . S
C1577 H1565 0.950 . S
C1577 C1573 1.393 . S
C1577 C1576 1.391 . S
C1578 H1568 0.950 . S
C1578 C1579 1.386 . S
C1578 C1580 1.391 . S
C1579 C1578 1.386 . S
C1579 C1583 1.393 . S
C1580 H1569 0.950 . S
C1580 C1578 1.391 . S
C1580 C1581 1.400 . S
C1581 C1575 1.491 . S
C1581 C1580 1.400 . S
C1581 C1582 1.398 . S
C1582 H1570 0.950 . S
C1582 C1581 1.398 . S
C1582 C1583 1.391 . S
C1583 H1571 0.950 . S
C1583 C1579 1.393 . S
C1583 C1582 1.391 . S
H1584 C1592 0.950 . S
H1585 C1597 0.950 . S
H1586 C1594 0.950 . S
H1587 C1596 0.950 . S
H1588 C1598 0.950 . S
H1589 C1600 0.950 . S
H1590 C1602 0.950 . S
H1591 C1603 0.950 . S
C1592 H1584 0.950 . S
C1592 C1593 1.386 . S
C1592 C1594 1.391 . S
C1593 C1592 1.386 . S
C1593 C1597 1.393 . S
C1594 H1586 0.950 . S
C1594 C1592 1.391 . S
C1594 C1595 1.400 . S
C1595 C1594 1.400 . S
C1595 C1596 1.398 . S
C1595 C1601 1.491 . S
C1596 H1587 0.950 . S
C1596 C1595 1.398 . S
C1596 C1597 1.391 . S
C1597 H1585 0.950 . S
C1597 C1593 1.393 . S
C1597 C1596 1.391 . S
C1598 H1588 0.950 . S
C1598 C1599 1.386 . S
C1598 C1600 1.391 . S
C1599 C1598 1.386 . S
C1599 C1603 1.393 . S
C1600 H1589 0.950 . S
C1600 C1598 1.391 . S
C1600 C1601 1.400 . S
C1601 C1595 1.491 . S
C1601 C1600 1.400 . S
C1601 C1602 1.398 . S
C1602 H1590 0.950 . S
C1602 C1601 1.398 . S
C1602 C1603 1.391 . S
C1603 H1591 0.950 . S
C1603 C1599 1.393 . S
C1603 C1602 1.391 . S
H1604 C1612 0.950 . S
H1605 C1617 0.950 . S
H1606 C1614 0.950 . S
H1607 C1616 0.950 . S
H1608 C1618 0.950 . S
H1609 C1620 0.950 . S
H1610 C1622 0.950 . S
H1611 C1623 0.950 . S
C1612 H1604 0.950 . S
C1612 C1613 1.386 . S
C1612 C1614 1.391 . S
C1613 C1612 1.386 . S
C1613 C1617 1.393 . S
C1614 H1606 0.950 . S
C1614 C1612 1.391 . S
C1614 C1615 1.400 . S
C1615 C1614 1.400 . S
C1615 C1616 1.398 . S
C1615 C1621 1.491 . S
C1616 H1607 0.950 . S
C1616 C1615 1.398 . S
C1616 C1617 1.391 . S
C1617 H1605 0.950 . S
C1617 C1613 1.393 . S
C1617 C1616 1.391 . S
C1618 H1608 0.950 . S
C1618 C1619 1.386 . S
C1618 C1620 1.391 1_545 S
C1619 C1618 1.386 . S
C1619 C1623 1.393 1_545 S
C1620 H1609 0.950 . S
C1620 C1618 1.391 1_565 S
C1620 C1621 1.400 . S
C1621 C1615 1.491 . S
C1621 C1620 1.400 . S
C1621 C1622 1.398 . S
C1622 H1610 0.950 . S
C1622 C1621 1.398 . S
C1622 C1623 1.391 . S
C1623 H1611 0.950 . S
C1623 C1619 1.393 1_565 S
C1623 C1622 1.391 . S
H1624 C1632 0.950 . S
H1625 C1637 0.950 . S
H1626 C1634 0.950 . S
H1627 C1636 0.950 . S
H1628 C1638 0.950 . S
H1629 C1640 0.950 . S
H1630 C1642 0.950 . S
H1631 C1643 0.950 . S
C1632 H1624 0.950 . S
C1632 C1633 1.386 . S
C1632 C1634 1.391 . S
C1633 C1632 1.386 . S
C1633 C1637 1.393 1_655 S
C1634 H1626 0.950 . S
C1634 C1632 1.391 . S
C1634 C1635 1.400 1_655 S
C1635 C1634 1.400 1_455 S
C1635 C1636 1.398 . S
C1635 C1641 1.491 . S
C1636 H1627 0.950 . S
C1636 C1635 1.398 . S
C1636 C1637 1.391 . S
C1637 H1625 0.950 . S
C1637 C1633 1.393 1_455 S
C1637 C1636 1.391 . S
C1638 H1628 0.950 . S
C1638 C1639 1.386 . S
C1638 C1640 1.391 . S
C1639 C1638 1.386 . S
C1639 C1643 1.393 . S
C1640 H1629 0.950 . S
C1640 C1638 1.391 . S
C1640 C1641 1.400 . S
C1641 C1635 1.491 . S
C1641 C1640 1.400 . S
C1641 C1642 1.398 . S
C1642 H1630 0.950 . S
C1642 C1641 1.398 . S
C1642 C1643 1.391 . S
C1643 H1631 0.950 . S
C1643 C1639 1.393 . S
C1643 C1642 1.391 . S
H1644 C1652 0.950 . S
H1645 C1657 0.950 . S
H1646 C1654 0.950 . S
H1647 C1656 0.950 . S
H1648 C1658 0.950 . S
H1649 C1660 0.950 . S
H1650 C1662 0.950 . S
H1651 C1663 0.950 . S
C1652 H1644 0.950 . S
C1652 C1653 1.386 . S
C1652 C1654 1.391 . S
C1653 C1652 1.386 . S
C1653 C1657 1.393 . S
C1654 H1646 0.950 . S
C1654 C1652 1.391 . S
C1654 C1655 1.400 . S
C1655 C1654 1.400 . S
C1655 C1656 1.398 . S
C1655 C1661 1.491 . S
C1656 H1647 0.950 . S
C1656 C1655 1.398 . S
C1656 C1657 1.391 . S
C1657 H1645 0.950 . S
C1657 C1653 1.393 . S
C1657 C1656 1.391 . S
C1658 H1648 0.950 . S
C1658 C1659 1.386 . S
C1658 C1660 1.391 . S
C1659 C1658 1.386 . S
C1659 C1663 1.393 . S
C1660 H1649 0.950 . S
C1660 C1658 1.391 . S
C1660 C1661 1.400 . S
C1661 C1655 1.491 . S
C1661 C1660 1.400 . S
C1661 C1662 1.398 . S
C1662 H1650 0.950 . S
C1662 C1661 1.398 . S
C1662 C1663 1.391 . S
C1663 H1651 0.950 . S
C1663 C1659 1.393 . S
C1663 C1662 1.391 . S
H1664 C1672 0.950 . S
H1665 C1677 0.950 . S
H1666 C1674 0.950 . S
H1667 C1676 0.991 . S
H1668 C1678 0.950 . S
H1669 C1680 0.950 . S
H1670 C1682 0.950 . S
H1671 C1683 0.950 . S
C1672 H1664 0.950 . S
C1672 C1673 1.386 . S
C1672 C1674 1.391 . S
C1673 C1672 1.386 . S
C1673 C1677 1.393 . S
C1674 H1666 0.950 . S
C1674 C1672 1.391 . S
C1674 C1675 1.400 . S
C1675 C1674 1.400 . S
C1675 C1676 1.398 . S
C1675 C1681 1.491 . S
C1676 H1667 0.991 . S
C1676 C1675 1.398 . S
C1676 C1677 1.391 . S
C1677 H1665 0.950 . S
C1677 C1673 1.393 . S
C1677 C1676 1.391 . S
C1678 H1668 0.950 . S
C1678 C1679 1.386 . S
C1678 C1680 1.391 . S
C1679 C1678 1.386 . S
C1679 C1683 1.393 1_565 S
C1680 H1669 0.950 . S
C1680 C1678 1.391 . S
C1680 C1681 1.400 1_565 S
C1681 C1675 1.491 . S
C1681 C1680 1.400 1_545 S
C1681 C1682 1.398 . S
C1682 H1670 0.950 . S
C1682 C1681 1.398 . S
C1682 C1683 1.391 . S
C1683 H1671 0.950 . S
C1683 C1679 1.393 1_545 S
C1683 C1682 1.391 . S
H1684 C1692 0.950 . S
H1685 C1697 0.950 . S
H1686 C1694 0.950 . S
H1687 C1696 0.950 . S
H1688 C1698 0.950 . S
H1689 C1700 0.950 . S
H1690 C1702 0.950 . S
H1691 C1703 0.950 . S
C1692 H1684 0.950 . S
C1692 C1693 1.386 . S
C1692 C1694 1.391 . S
C1693 C1692 1.386 . S
C1693 C1697 1.393 1_455 S
C1694 H1686 0.950 . S
C1694 C1692 1.391 . S
C1694 C1695 1.400 1_455 S
C1695 C1694 1.400 1_655 S
C1695 C1696 1.398 . S
C1695 C1701 1.491 . S
C1696 H1687 0.950 . S
C1696 C1695 1.398 . S
C1696 C1697 1.391 . S
C1697 H1685 0.950 . S
C1697 C1693 1.393 1_655 S
C1697 C1696 1.391 . S
C1698 H1688 0.950 . S
C1698 C1699 1.386 . S
C1698 C1700 1.391 . S
C1699 C1698 1.386 . S
C1699 C1703 1.393 . S
C1700 H1689 0.950 . S
C1700 C1698 1.391 . S
C1700 C1701 1.400 . S
C1701 C1695 1.491 . S
C1701 C1700 1.400 . S
C1701 C1702 1.398 . S
C1702 H1690 0.950 . S
C1702 C1701 1.398 . S
C1702 C1703 1.391 . S
C1703 H1691 0.950 . S
C1703 C1699 1.393 . S
C1703 C1702 1.391 . S
H1704 C1712 0.950 . S
H1705 C1717 0.950 . S
H1706 C1714 0.950 . S
H1707 C1716 0.950 . S
H1708 C1718 0.950 . S
H1709 C1720 0.950 . S
H1710 C1722 0.950 . S
H1711 C1723 0.950 . S
C1712 H1704 0.950 . S
C1712 C1713 1.386 . S
C1712 C1714 1.391 . S
C1713 C1712 1.386 . S
C1713 C1717 1.393 . S
C1714 H1706 0.950 . S
C1714 C1712 1.391 . S
C1714 C1715 1.400 . S
C1715 C1714 1.400 . S
C1715 C1716 1.398 . S
C1715 C1721 1.491 . S
C1716 H1707 0.950 . S
C1716 C1715 1.398 . S
C1716 C1717 1.391 . S
C1717 H1705 0.950 . S
C1717 C1713 1.393 . S
C1717 C1716 1.391 . S
C1718 H1708 0.950 . S
C1718 C1719 1.386 . S
C1718 C1720 1.391 . S
C1719 C1718 1.386 . S
C1719 C1723 1.393 . S
C1720 H1709 0.950 . S
C1720 C1718 1.391 . S
C1720 C1721 1.400 . S
C1721 C1715 1.491 . S
C1721 C1720 1.400 . S
C1721 C1722 1.398 . S
C1722 H1710 0.950 . S
C1722 C1721 1.398 . S
C1722 C1723 1.391 . S
C1723 H1711 0.950 . S
C1723 C1719 1.393 . S
C1723 C1722 1.391 . S
H1724 C1732 0.950 . S
H1725 C1737 0.950 . S
H1726 C1734 0.950 . S
H1727 C1736 0.950 . S
H1728 C1738 0.950 . S
H1729 C1740 0.950 . S
H1730 C1742 0.950 . S
H1731 C1743 0.950 . S
C1732 H1724 0.950 . S
C1732 C1733 1.386 . S
C1732 C1734 1.391 . S
C1733 C1732 1.386 . S
C1733 C1737 1.393 1_565 S
C1734 H1726 0.950 . S
C1734 C1732 1.391 . S
C1734 C1735 1.400 1_565 S
C1735 C1734 1.400 1_545 S
C1735 C1736 1.398 . S
C1735 C1741 1.491 . S
C1736 H1727 0.950 . S
C1736 C1735 1.398 . S
C1736 C1737 1.391 . S
C1737 H1725 0.950 . S
C1737 C1733 1.393 1_545 S
C1737 C1736 1.391 . S
C1738 H1728 0.950 . S
C1738 C1739 1.386 . S
C1738 C1740 1.391 . S
C1739 C1738 1.386 . S
C1739 C1743 1.393 . S
C1740 H1729 0.950 . S
C1740 C1738 1.391 . S
C1740 C1741 1.400 . S
C1741 C1735 1.491 . S
C1741 C1740 1.400 . S
C1741 C1742 1.398 . S
C1742 H1730 0.950 . S
C1742 C1741 1.398 . S
C1742 C1743 1.391 . S
C1743 H1731 0.950 . S
C1743 C1739 1.393 . S
C1743 C1742 1.391 . S
H1744 C1752 0.950 . S
H1745 C1757 0.950 . S
H1746 C1754 0.950 . S
H1747 C1756 0.950 . S
H1748 C1758 0.950 . S
H1749 C1760 0.950 . S
H1750 C1762 0.950 . S
H1751 C1763 0.950 . S
C1752 H1744 0.950 . S
C1752 C1753 1.386 . S
C1752 C1754 1.391 . S
C1753 C1752 1.386 . S
C1753 C1757 1.393 1_455 S
C1754 H1746 0.950 . S
C1754 C1752 1.391 . S
C1754 C1755 1.400 1_455 S
C1755 C1754 1.400 1_655 S
C1755 C1756 1.398 . S
C1755 C1761 1.491 . S
C1756 H1747 0.950 . S
C1756 C1755 1.398 . S
C1756 C1757 1.391 . S
C1757 H1745 0.950 . S
C1757 C1753 1.393 1_655 S
C1757 C1756 1.391 . S
C1758 H1748 0.950 . S
C1758 C1759 1.386 . S
C1758 C1760 1.391 . S
C1759 C1758 1.386 . S
C1759 C1763 1.393 . S
C1760 H1749 0.950 . S
C1760 C1758 1.391 . S
C1760 C1761 1.400 . S
C1761 C1755 1.491 . S
C1761 C1760 1.400 . S
C1761 C1762 1.398 . S
C1762 H1750 0.950 . S
C1762 C1761 1.398 . S
C1762 C1763 1.391 . S
C1763 H1751 0.950 . S
C1763 C1759 1.393 . S
C1763 C1762 1.391 . S
H1764 C1772 0.950 . S
H1765 C1777 0.950 . S
H1766 C1774 0.950 . S
H1767 C1776 0.950 . S
H1768 C1778 0.950 . S
H1769 C1780 0.950 . S
H1770 C1782 0.950 . S
H1771 C1783 0.950 . S
C1772 H1764 0.950 . S
C1772 C1773 1.386 . S
C1772 C1774 1.391 . S
C1773 C1772 1.386 . S
C1773 C1777 1.393 . S
C1774 H1766 0.950 . S
C1774 C1772 1.391 . S
C1774 C1775 1.400 . S
C1775 C1774 1.400 . S
C1775 C1776 1.398 . S
C1775 C1781 1.491 . S
C1776 H1767 0.950 . S
C1776 C1775 1.398 . S
C1776 C1777 1.391 . S
C1777 H1765 0.950 . S
C1777 C1773 1.393 . S
C1777 C1776 1.391 . S
C1778 H1768 0.950 . S
C1778 C1779 1.386 . S
C1778 C1780 1.391 . S
C1779 C1778 1.386 . S
C1779 C1783 1.393 . S
C1780 H1769 0.950 . S
C1780 C1778 1.391 . S
C1780 C1781 1.400 . S
C1781 C1775 1.491 . S
C1781 C1780 1.400 . S
C1781 C1782 1.398 . S
C1782 H1770 0.950 . S
C1782 C1781 1.398 . S
C1782 C1783 1.391 . S
C1783 H1771 0.950 . S
C1783 C1779 1.393 . S
C1783 C1782 1.391 . S
H1784 C1792 0.950 . S
H1785 C1797 0.950 . S
H1786 C1794 0.950 . S
H1787 C1796 0.950 . S
H1788 C1798 0.950 . S
H1789 C1800 0.950 . S
H1790 C1802 0.950 . S
H1791 C1803 0.950 . S
C1792 H1784 0.950 . S
C1792 C1793 1.386 . S
C1792 C1794 1.391 . S
C1793 C1792 1.386 . S
C1793 C1797 1.393 1_545 S
C1794 H1786 0.950 . S
C1794 C1792 1.391 . S
C1794 C1795 1.400 1_545 S
C1795 C1794 1.400 1_565 S
C1795 C1796 1.398 . S
C1795 C1801 1.491 . S
C1796 H1787 0.950 . S
C1796 C1795 1.398 . S
C1796 C1797 1.391 . S
C1797 H1785 0.950 . S
C1797 C1793 1.393 1_565 S
C1797 C1796 1.391 . S
C1798 H1788 0.950 . S
C1798 C1799 1.386 . S
C1798 C1800 1.391 . S
C1799 C1798 1.386 . S
C1799 C1803 1.393 . S
C1800 H1789 0.950 . S
C1800 C1798 1.391 . S
C1800 C1801 1.400 . S
C1801 C1795 1.491 . S
C1801 C1800 1.400 . S
C1801 C1802 1.398 . S
C1802 H1790 0.950 . S
C1802 C1801 1.398 . S
C1802 C1803 1.391 . S
C1803 H1791 0.950 . S
C1803 C1799 1.393 . S
C1803 C1802 1.391 . S
H1804 C1812 0.950 . S
H1805 C1817 0.950 . S
H1806 C1814 0.950 . S
H1807 C1816 0.975 . S
H1808 C1818 0.950 . S
H1809 C1820 0.950 . S
H1810 C1822 0.950 . S
H1811 C1823 0.950 . S
C1812 H1804 0.950 . S
C1812 C1813 1.386 . S
C1812 C1814 1.391 . S
C1813 C1812 1.386 . S
C1813 C1817 1.393 . S
C1814 H1806 0.950 . S
C1814 C1812 1.391 . S
C1814 C1815 1.400 . S
C1815 C1814 1.400 . S
C1815 C1816 1.398 . S
C1815 C1821 1.491 . S
C1816 H1807 0.975 . S
C1816 C1815 1.398 . S
C1816 C1817 1.391 . S
C1817 H1805 0.950 . S
C1817 C1813 1.393 . S
C1817 C1816 1.391 . S
C1818 H1808 0.950 . S
C1818 C1819 1.386 . S
C1818 C1820 1.391 . S
C1819 C1818 1.386 . S
C1819 C1823 1.393 1_655 S
C1820 H1809 0.950 . S
C1820 C1818 1.391 . S
C1820 C1821 1.400 1_655 S
C1821 C1815 1.491 . S
C1821 C1820 1.400 1_455 S
C1821 C1822 1.398 . S
C1822 H1810 0.950 . S
C1822 C1821 1.398 . S
C1822 C1823 1.391 . S
C1823 H1811 0.950 . S
C1823 C1819 1.393 1_455 S
C1823 C1822 1.391 . S
H1824 C1832 0.950 . S
H1825 C1837 0.950 . S
H1826 C1834 0.950 . S
H1827 C1836 0.950 . S
H1828 C1838 0.950 . S
H1829 C1840 0.950 . S
H1830 C1842 0.950 . S
H1831 C1843 0.950 . S
C1832 H1824 0.950 . S
C1832 C1833 1.386 . S
C1832 C1834 1.391 . S
C1833 C1832 1.386 . S
C1833 C1837 1.393 . S
C1834 H1826 0.950 . S
C1834 C1832 1.391 . S
C1834 C1835 1.400 . S
C1835 C1834 1.400 . S
C1835 C1836 1.398 . S
C1835 C1841 1.491 1_655 S
C1836 H1827 0.950 . S
C1836 C1835 1.398 . S
C1836 C1837 1.391 . S
C1837 H1825 0.950 . S
C1837 C1833 1.393 . S
C1837 C1836 1.391 . S
C1838 H1828 0.950 . S
C1838 C1839 1.386 . S
C1838 C1840 1.391 . S
C1839 C1838 1.386 . S
C1839 C1843 1.393 . S
C1840 H1829 0.950 . S
C1840 C1838 1.391 . S
C1840 C1841 1.400 . S
C1841 C1835 1.491 1_455 S
C1841 C1840 1.400 . S
C1841 C1842 1.398 . S
C1842 H1830 0.950 . S
C1842 C1841 1.398 . S
C1842 C1843 1.391 . S
C1843 H1831 0.950 . S
C1843 C1839 1.393 . S
C1843 C1842 1.391 . S
H1844 C1852 0.950 . S
H1845 C1857 0.950 . S
H1846 C1854 0.950 . S
H1847 C1856 0.950 . S
H1848 C1858 0.950 . S
H1849 C1860 0.950 . S
H1850 C1862 0.950 . S
H1851 C1863 0.950 . S
C1852 H1844 0.950 . S
C1852 C1853 1.386 . S
C1852 C1854 1.391 . S
C1853 C1852 1.386 . S
C1853 C1857 1.393 . S
C1854 H1846 0.950 . S
C1854 C1852 1.391 . S
C1854 C1855 1.400 . S
C1855 C1854 1.400 . S
C1855 C1856 1.398 . S
C1855 C1861 1.491 . S
C1856 H1847 0.950 . S
C1856 C1855 1.398 . S
C1856 C1857 1.391 . S
C1857 H1845 0.950 . S
C1857 C1853 1.393 . S
C1857 C1856 1.391 . S
C1858 H1848 0.950 . S
C1858 C1859 1.386 . S
C1858 C1860 1.391 . S
C1859 C1858 1.386 . S
C1859 C1863 1.393 . S
C1860 H1849 0.950 . S
C1860 C1858 1.391 . S
C1860 C1861 1.400 . S
C1861 C1855 1.491 . S
C1861 C1860 1.400 . S
C1861 C1862 1.398 . S
C1862 H1850 0.950 . S
C1862 C1861 1.398 . S
C1862 C1863 1.391 . S
C1863 H1851 0.950 . S
C1863 C1859 1.393 . S
C1863 C1862 1.391 . S
H1864 C1872 0.950 . S
H1865 C1877 0.950 . S
H1866 C1874 0.950 . S
H1867 C1876 0.950 . S
H1868 C1878 0.950 . S
H1869 C1880 0.950 . S
H1870 C1882 0.950 . S
H1871 C1883 0.950 . S
C1872 H1864 0.950 . S
C1872 C1873 1.386 . S
C1872 C1874 1.391 . S
C1873 C1872 1.386 . S
C1873 C1877 1.393 . S
C1874 H1866 0.950 . S
C1874 C1872 1.391 . S
C1874 C1875 1.400 . S
C1875 C1874 1.400 . S
C1875 C1876 1.398 . S
C1875 C1881 1.491 1_565 S
C1876 H1867 0.950 . S
C1876 C1875 1.398 . S
C1876 C1877 1.391 . S
C1877 H1865 0.950 . S
C1877 C1873 1.393 . S
C1877 C1876 1.391 . S
C1878 H1868 0.950 . S
C1878 C1879 1.386 . S
C1878 C1880 1.391 . S
C1879 C1878 1.386 . S
C1879 C1883 1.393 . S
C1880 H1869 0.950 . S
C1880 C1878 1.391 . S
C1880 C1881 1.400 . S
C1881 C1875 1.491 1_545 S
C1881 C1880 1.400 . S
C1881 C1882 1.398 . S
C1882 H1870 0.950 . S
C1882 C1881 1.398 . S
C1882 C1883 1.391 . S
C1883 H1871 0.950 . S
C1883 C1879 1.393 . S
C1883 C1882 1.391 . S
H1884 C1892 0.950 . S
H1885 C1897 0.950 . S
H1886 C1894 0.950 . S
H1887 C1896 0.950 . S
H1888 C1898 0.950 . S
H1889 C1900 0.950 . S
H1890 C1902 0.950 . S
H1891 C1903 0.950 . S
C1892 H1884 0.950 . S
C1892 C1893 1.386 . S
C1892 C1894 1.391 . S
C1893 C1892 1.386 . S
C1893 C1897 1.393 . S
C1894 H1886 0.950 . S
C1894 C1892 1.391 . S
C1894 C1895 1.400 . S
C1895 C1894 1.400 . S
C1895 C1896 1.398 . S
C1895 C1901 1.491 1_565 S
C1896 H1887 0.950 . S
C1896 C1895 1.398 . S
C1896 C1897 1.391 . S
C1897 H1885 0.950 . S
C1897 C1893 1.393 . S
C1897 C1896 1.391 . S
C1898 H1888 0.950 . S
C1898 C1899 1.386 . S
C1898 C1900 1.391 . S
C1899 C1898 1.386 . S
C1899 C1903 1.393 . S
C1900 H1889 0.950 . S
C1900 C1898 1.391 . S
C1900 C1901 1.400 . S
C1901 C1895 1.491 1_545 S
C1901 C1900 1.400 . S
C1901 C1902 1.398 . S
C1902 H1890 0.950 . S
C1902 C1901 1.398 . S
C1902 C1903 1.391 . S
C1903 H1891 0.950 . S
C1903 C1899 1.393 . S
C1903 C1902 1.391 . S
H1904 C1912 0.950 . S
H1905 C1917 0.950 . S
H1906 C1914 0.950 . S
H1907 C1916 0.950 . S
H1908 C1918 0.950 . S
H1909 C1920 0.950 . S
H1910 C1922 0.950 . S
H1911 C1923 0.950 . S
C1912 H1904 0.950 . S
C1912 C1913 1.386 . S
C1912 C1914 1.391 . S
C1913 C1912 1.386 . S
C1913 C1917 1.393 . S
C1914 H1906 0.950 . S
C1914 C1912 1.391 . S
C1914 C1915 1.400 . S
C1915 C1914 1.400 . S
C1915 C1916 1.398 . S
C1915 C1921 1.491 1_655 S
C1916 H1907 0.950 . S
C1916 C1915 1.398 . S
C1916 C1917 1.391 . S
C1917 H1905 0.950 . S
C1917 C1913 1.393 . S
C1917 C1916 1.391 . S
C1918 H1908 0.950 . S
C1918 C1919 1.386 . S
C1918 C1920 1.391 . S
C1919 C1918 1.386 . S
C1919 C1923 1.393 . S
C1920 H1909 0.950 . S
C1920 C1918 1.391 . S
C1920 C1921 1.400 . S
C1921 C1915 1.491 1_455 S
C1921 C1920 1.400 . S
C1921 C1922 1.398 . S
C1922 H1910 0.950 . S
C1922 C1921 1.398 . S
C1922 C1923 1.391 . S
C1923 H1911 0.950 . S
C1923 C1919 1.393 . S
C1923 C1922 1.391 . S
H1924 C1932 0.950 . S
H1925 C1937 0.950 . S
H1926 C1934 0.950 . S
H1927 C1936 0.950 . S
H1928 C1938 0.950 . S
H1929 C1940 0.950 . S
H1930 C1942 0.950 . S
H1931 C1943 0.950 . S
C1932 H1924 0.950 . S
C1932 C1933 1.386 . S
C1932 C1934 1.391 . S
C1933 C1932 1.386 . S
C1933 C1937 1.393 . S
C1934 H1926 0.950 . S
C1934 C1932 1.391 . S
C1934 C1935 1.400 . S
C1935 C1934 1.400 . S
C1935 C1936 1.398 . S
C1935 C1941 1.491 . S
C1936 H1927 0.950 . S
C1936 C1935 1.398 . S
C1936 C1937 1.391 . S
C1937 H1925 0.950 . S
C1937 C1933 1.393 . S
C1937 C1936 1.391 . S
C1938 H1928 0.950 . S
C1938 C1939 1.386 . S
C1938 C1940 1.391 . S
C1939 C1938 1.386 . S
C1939 C1943 1.393 . S
C1940 H1929 0.950 . S
C1940 C1938 1.391 . S
C1940 C1941 1.400 . S
C1941 C1935 1.491 . S
C1941 C1940 1.400 . S
C1941 C1942 1.398 . S
C1942 H1930 0.950 . S
C1942 C1941 1.398 . S
C1942 C1943 1.391 . S
C1943 H1931 0.950 . S
C1943 C1939 1.393 . S
C1943 C1942 1.391 . S
C513 C0 1.547 . S
C519 C265 1.547 . S
C533 C15 1.548 . S
C539 C267 1.547 . S
C553 C293 1.555 . S
C559 C41 1.555 . S
C573 C55 1.549 . S
C579 C462 1.549 . S
C593 C476 1.554 . S
C599 C57 1.554 . S
C613 C71 1.555 . S
C619 C490 1.555 . S
C633 C349 1.555 . S
C639 C97 1.555 . S
C653 C99 1.553 . S
C659 C362 1.553 . S
C673 C125 1.555 . S
C679 C376 1.555 . S
C693 C139 1.547 . S
C699 C223 1.548 . S
C713 C236 1.549 . S
C719 C140 1.550 . S
C733 C154 1.553 . S
C739 C251 1.553 . S
C753 C168 1.547 . S
C759 C420 1.548 . S
C773 C183 1.549 . S
C779 C435 1.548 . S
C793 C209 1.554 . S
C799 C461 1.554 . S
C813 C294 1.552 . S
C819 C391 1.552 . S
C833 C308 1.548 . S
C839 C393 1.548 . S
C853 C322 1.555 . S
C859 C418 1.555 . S
C873 C98 1.620 1_545 S
C879 C13 1.596 . S
C893 C124 1.624 1_655 S
C899 C26 1.606 . S
C913 C28 1.610 . S
C919 C96 1.623 . S
C933 C155 1.621 1_455 S
C939 C42 1.595 . S
C953 C138 1.622 . S
C959 C68 1.596 . S
C973 C141 1.623 1_565 S
C979 C82 1.598 . S
C993 C84 1.611 . S
C999 C14 1.623 1_565 S
C1013 C110 1.604 . S
C1019 C40 1.624 1_455 S
C1033 C112 1.605 . S
C1039 C1 1.620 . S
C1053 C126 1.597 . S
C1059 C70 1.619 1_655 S
C1073 C54 1.623 . S
C1079 C153 1.610 . S
C1093 C56 1.619 1_545 S
C1099 C167 1.596 . S
C1113 C181 1.599 . S
C1119 C266 1.622 . S
C1133 C194 1.609 . S
C1139 C292 1.624 . S
C1153 C196 1.596 . S
C1159 C264 1.619 . S
C1173 C323 1.619 . S
C1179 C210 1.595 . S
C1193 C225 1.597 . S
C1199 C295 1.620 . S
C1213 C309 1.624 . S
C1219 C238 1.609 . S
C1233 C252 1.601 . S
C1239 C182 1.618 . S
C1253 C208 1.623 . S
C1259 C278 1.600 . S
C1273 C169 1.621 . S
C1279 C280 1.610 . S
C1293 C307 1.610 . S
C1299 C250 1.622 . S
C1313 C321 1.595 . S
C1319 C222 1.620 . S
C1333 C335 1.598 . S
C1339 C237 1.622 . S
C1353 C434 1.621 . S
C1359 C336 1.607 . S
C1373 C351 1.604 . S
C1379 C460 1.624 . S
C1393 C365 1.605 . S
C1399 C421 1.619 . S
C1413 C491 1.624 . S
C1419 C378 1.609 . S
C1433 C463 1.624 . S
C1439 C404 1.602 . S
C1453 C477 1.619 . S
C1459 C407 1.602 . S
C1473 C363 1.623 . S
C1479 C433 1.600 . S
C1493 C377 1.623 . S
C1499 C446 1.611 . S
C1513 C348 1.624 . S
C1519 C448 1.608 . S
C1533 C475 1.597 . S
C1539 C419 1.619 . S
C1553 C390 1.621 . S
C1559 C489 1.608 . S
C1573 C503 1.595 . S
C1579 C392 1.619 . S
C1593 C12 1.729 . S
C1599 C406 1.720 . S
C1613 C379 1.726 . S
C1619 C27 1.734 . S
C1633 C29 1.727 . S
C1639 C405 1.722 . S
C1653 C43 1.730 . S
C1659 C195 1.722 . S
C1673 C197 1.736 . S
C1679 C69 1.735 . S
C1693 C83 1.722 . S
C1699 C180 1.722 . S
C1713 C334 1.729 . S
C1719 C85 1.734 . S
C1733 C111 1.730 . S
C1739 C306 1.737 . S
C1753 C113 1.733 . S
C1759 C320 1.736 . S
C1773 C127 1.731 . S
C1779 C447 1.722 . S
C1793 C152 1.737 . S
C1799 C449 1.728 . S
C1813 C432 1.722 . S
C1819 C166 1.725 . S
C1833 C211 1.731 . S
C1839 C350 1.735 . S
C1853 C364 1.728 . S
C1859 C224 1.720 . S
C1873 C337 1.721 . S
C1879 C239 1.726 . S
C1893 C502 1.722 . S
C1899 C253 1.721 . S
C1913 C279 1.734 . S
C1919 C474 1.728 . S
C1933 C281 1.720 . S
C1939 C488 1.730 . S
