# Generated by pormake.
# Topology uku, (4)-cn, num edge types: 1
# Building blocks:
#     Node 0, Type 0, BuildingBlock: CEKHIL_clean_sbu_0, # of connection points: 4
#     Node 1, Type 0, BuildingBlock: CEKHIL_clean_sbu_0, # of connection points: 4
#     Node 2, Type 0, BuildingBlock: CEKHIL_clean_sbu_0, # of connection points: 4
#     Node 3, Type 0, BuildingBlock: CEKHIL_clean_sbu_0, # of connection points: 4
#     Node 4, Type 0, BuildingBlock: CEKHIL_clean_sbu_0, # of connection points: 4
#     Node 5, Type 0, BuildingBlock: CEKHIL_clean_sbu_0, # of connection points: 4
#     Node 6, Type 0, BuildingBlock: CEKHIL_clean_sbu_0, # of connection points: 4
#     Node 7, Type 0, BuildingBlock: CEKHIL_clean_sbu_0, # of connection points: 4
#     Node 8, Type 0, BuildingBlock: CEKHIL_clean_sbu_0, # of connection points: 4
#     Node 9, Type 0, BuildingBlock: CEKHIL_clean_sbu_0, # of connection points: 4
#     Node 10, Type 0, BuildingBlock: CEKHIL_clean_sbu_0, # of connection points: 4
#     Node 11, Type 0, BuildingBlock: CEKHIL_clean_sbu_0, # of connection points: 4
#     Edge 12, Type (0, 0), BuildingBlock: UVAHIK_clean_linker_0, # of connection points: 2
#     Edge 13, Type (0, 0), BuildingBlock: UVAHIK_clean_linker_0, # of connection points: 2
#     Edge 14, Type (0, 0), BuildingBlock: UVAHIK_clean_linker_0, # of connection points: 2
#     Edge 15, Type (0, 0), BuildingBlock: UVAHIK_clean_linker_0, # of connection points: 2
#     Edge 16, Type (0, 0), BuildingBlock: UVAHIK_clean_linker_0, # of connection points: 2
#     Edge 17, Type (0, 0), BuildingBlock: UVAHIK_clean_linker_0, # of connection points: 2
#     Edge 18, Type (0, 0), BuildingBlock: UVAHIK_clean_linker_0, # of connection points: 2
#     Edge 19, Type (0, 0), BuildingBlock: UVAHIK_clean_linker_0, # of connection points: 2
#     Edge 20, Type (0, 0), BuildingBlock: UVAHIK_clean_linker_0, # of connection points: 2
#     Edge 21, Type (0, 0), BuildingBlock: UVAHIK_clean_linker_0, # of connection points: 2
#     Edge 22, Type (0, 0), BuildingBlock: UVAHIK_clean_linker_0, # of connection points: 2
#     Edge 23, Type (0, 0), BuildingBlock: UVAHIK_clean_linker_0, # of connection points: 2
#     Edge 24, Type (0, 0), BuildingBlock: UVAHIK_clean_linker_0, # of connection points: 2
#     Edge 25, Type (0, 0), BuildingBlock: UVAHIK_clean_linker_0, # of connection points: 2
#     Edge 26, Type (0, 0), BuildingBlock: UVAHIK_clean_linker_0, # of connection points: 2
#     Edge 27, Type (0, 0), BuildingBlock: UVAHIK_clean_linker_0, # of connection points: 2
#     Edge 28, Type (0, 0), BuildingBlock: UVAHIK_clean_linker_0, # of connection points: 2
#     Edge 29, Type (0, 0), BuildingBlock: UVAHIK_clean_linker_0, # of connection points: 2
#     Edge 30, Type (0, 0), BuildingBlock: UVAHIK_clean_linker_0, # of connection points: 2
#     Edge 31, Type (0, 0), BuildingBlock: UVAHIK_clean_linker_0, # of connection points: 2
#     Edge 32, Type (0, 0), BuildingBlock: UVAHIK_clean_linker_0, # of connection points: 2
#     Edge 33, Type (0, 0), BuildingBlock: UVAHIK_clean_linker_0, # of connection points: 2
#     Edge 34, Type (0, 0), BuildingBlock: UVAHIK_clean_linker_0, # of connection points: 2
#     Edge 35, Type (0, 0), BuildingBlock: UVAHIK_clean_linker_0, # of connection points: 2
# Relax obj value: 0.371
# Max RMSD: 0.261
# Mean RMSD: 0.261
data_MOF--net-uku--node1-CEKHIL_clean_sbu_0--edge1-UVAHIK_clean_linker_0
_symmetry_space_group_name_H-M    P1
_symmetry_Int_Tables_number       1
_symmetry_cell_setting            triclinic
loop_
_symmetry_equiv_pos_as_xyz
'x, y, z'
_cell_length_a     52.463793
_cell_length_b     52.554827
_cell_length_c     52.52479
_cell_angle_alpha  90.033005
_cell_angle_beta   89.886547
_cell_angle_gamma 90.291161
loop_
_atom_site_label
_atom_site_type_symbol
_atom_site_fract_x
_atom_site_fract_y
_atom_site_fract_z
_atom_type_partial_charge
Co0 Co 0.07052 0.15155 0.63458 0.0
O1 O 0.05275 0.16059 0.60417 0.0
O2 O 0.08596 0.1344 0.60619 0.0
C3 C 0.07344 0.19074 0.65132 0.0
O4 O 0.09437 0.13855 0.66155 0.0
Co5 Co 0.04754 0.15871 0.68841 0.0
O6 O 0.08324 0.15331 0.70012 0.0
C7 C 0.03162 0.11461 0.65728 0.0
C8 C 0.06871 0.14565 0.59262 0.0
C9 C 0.09879 0.14216 0.68525 0.0
O10 O 0.04752 0.12142 0.63992 0.0
O11 O 0.02758 0.12771 0.67747 0.0
O12 O 0.08945 0.18353 0.63384 0.0
O13 O 0.05485 0.1752 0.65607 0.0
Co14 Co 0.94371 0.80141 0.66193 0.0
O15 O 0.9703 0.79164 0.63857 0.0
O16 O 0.9325 0.80713 0.6278 0.0
C17 C 0.94416 0.76751 0.68795 0.0
O18 O 0.91153 0.81313 0.67952 0.0
Co19 Co 0.95424 0.8121 0.71907 0.0
O20 O 0.91654 0.81513 0.72189 0.0
C21 C 0.96898 0.85034 0.6808 0.0
C22 C 0.95473 0.79893 0.62076 0.0
C23 C 0.90273 0.81685 0.70203 0.0
O24 O 0.95791 0.83705 0.66344 0.0
O25 O 0.97153 0.84268 0.70379 0.0
O26 O 0.93264 0.7662 0.66608 0.0
O27 O 0.95782 0.78772 0.69157 0.0
Co28 Co 0.04796 0.85828 0.32728 0.0
O29 O 0.01763 0.85187 0.34705 0.0
O30 O 0.05411 0.86719 0.36211 0.0
C31 C 0.04797 0.82105 0.3061 0.0
O32 O 0.08338 0.8663 0.31421 0.0
Co33 Co 0.04859 0.86141 0.26848 0.0
O34 O 0.08624 0.85987 0.27213 0.0
C35 C 0.03055 0.90546 0.2986 0.0
C36 C 0.03099 0.8594 0.36651 0.0
C37 C 0.09644 0.86465 0.29361 0.0
O38 O 0.03639 0.89394 0.3194 0.0
O39 O 0.03253 0.89511 0.2766 0.0
O40 O 0.05696 0.8224 0.32908 0.0
O41 O 0.0374 0.8415 0.29754 0.0
Co42 Co 0.91231 0.19751 0.34795 0.0
O43 O 0.93864 0.2056 0.37167 0.0
O44 O 0.9071 0.17796 0.37844 0.0
C45 C 0.90383 0.23726 0.33541 0.0
O46 O 0.88161 0.18475 0.32835 0.0
Co47 Co 0.91971 0.20839 0.29058 0.0
O48 O 0.88315 0.19858 0.28796 0.0
C49 C 0.94515 0.16422 0.31314 0.0
C50 C 0.92827 0.18839 0.38617 0.0
C51 C 0.87171 0.18721 0.30615 0.0
O52 O 0.93358 0.16894 0.33416 0.0
O53 O 0.94348 0.17859 0.29355 0.0
O54 O 0.89359 0.22849 0.35625 0.0
O55 O 0.92056 0.22288 0.32463 0.0
Co56 Co 0.66962 0.02128 0.17049 0.0
O57 O 0.64565 -0.00659 0.17239 0.0
O58 O 0.63856 0.0308 0.15412 0.0
C59 C 0.68365 0.0219 0.21076 0.0
O60 O 0.68851 0.05457 0.16511 0.0
Co61 Co 0.72757 0.01319 0.17756 0.0
O62 O 0.72962 0.05098 0.17626 0.0
C63 C 0.70425 0.00024 0.12852 0.0
C64 C 0.6303 0.00817 0.15983 0.0
C65 C 0.71077 0.06419 0.16875 0.0
O66 O 0.68289 0.00847 0.13706 0.0
O67 O 0.72433 -0.00129 0.14223 0.0
O68 O 0.66168 0.03168 0.20506 0.0
O69 O 0.69413 0.00845 0.19294 0.0
Co70 Co 0.32977 0.94449 0.17146 0.0
O71 O 0.35705 0.96805 0.16526 0.0
O72 O 0.35804 0.92669 0.15636 0.0
C73 C 0.31987 0.95586 0.21143 0.0
O74 O 0.3055 0.91455 0.17539 0.0
Co75 Co 0.27492 0.96488 0.17961 0.0
O76 O 0.26665 0.92861 0.18664 0.0
C77 C 0.29564 0.9624 0.12787 0.0
C78 C 0.36942 0.94873 0.15611 0.0
C79 C 0.28214 0.9106 0.18184 0.0
O80 O 0.31549 0.95131 0.13673 0.0
O81 O 0.27798 0.9715 0.14198 0.0
O82 O 0.33931 0.94127 0.20703 0.0
O83 O 0.30988 0.96622 0.19147 0.0
Co84 Co 0.67548 0.95737 0.81529 0.0
O85 O 0.64955 0.98302 0.81214 0.0
O86 O 0.64493 0.94568 0.83146 0.0
C87 C 0.69051 0.95665 0.77539 0.0
O88 O 0.6965 0.92591 0.82183 0.0
Co89 Co 0.73281 0.97026 0.80927 0.0
O90 O 0.73808 0.93314 0.8142 0.0
C91 C 0.7074 0.9823 0.85742 0.0
C92 C 0.63512 0.96732 0.82489 0.0
C93 C 0.71972 0.91844 0.82043 0.0
O94 O 0.68697 0.97208 0.84862 0.0
O95 O 0.72763 0.9853 0.84409 0.0
O96 O 0.66907 0.94543 0.78098 0.0
O97 O 0.69958 0.97154 0.79288 0.0
Co98 Co 0.33041 0.02284 0.81962 0.0
O99 O 0.35629 -0.0028 0.8172 0.0
O100 O 0.36 0.03386 0.83799 0.0
C101 C 0.31846 0.02451 0.77886 0.0
O102 O 0.30897 0.05435 0.8254 0.0
Co103 Co 0.27371 0.0106 0.80928 0.0
O104 O 0.26967 0.04821 0.80962 0.0
C105 C 0.29588 -0.00455 0.85806 0.0
C106 C 0.37013 0.01244 0.83104 0.0
C107 C 0.28685 0.06262 0.81905 0.0
O108 O 0.31662 0.00671 0.8514 0.0
O109 O 0.27658 -0.00664 0.84333 0.0
O110 O 0.33927 0.03583 0.78623 0.0
O111 O 0.30811 0.00927 0.79533 0.0
Co112 Co 0.15367 0.65925 0.05429 0.0
O113 O 0.17115 0.64152 0.0276 0.0
O114 O 0.15226 0.62317 0.06072 0.0
C115 C 0.18281 0.68979 0.06167 0.0
O116 O 0.13476 0.67177 0.08575 0.0
Co117 Co 0.13574 0.71454 0.0434 0.0
O118 O 0.12509 0.7131 0.07963 0.0
C119 C 0.10629 0.67205 0.02255 0.0
C120 C 0.16511 0.62078 0.03964 0.0
C121 C 0.12533 0.69306 0.0933 0.0
O122 O 0.12052 0.65665 0.03505 0.0
O123 O 0.11063 0.69599 0.02134 0.0
O124 O 0.18581 0.66715 0.07107 0.0
O125 O 0.16468 0.69191 0.04515 0.0
Co126 Co 0.17914 0.33247 0.91998 0.0
O127 O 0.19517 0.35485 0.94402 0.0
O128 O 0.17372 0.36726 0.90986 0.0
C129 C 0.2111 0.30463 0.91499 0.0
O130 O 0.16121 0.31488 0.89052 0.0
Co131 Co 0.16745 0.2765 0.93538 0.0
O132 O 0.16001 0.27283 0.89847 0.0
C133 C 0.13454 0.31719 0.9546 0.0
C134 C 0.18661 0.37335 0.93013 0.0
C135 C 0.15662 0.29178 0.88371 0.0
O136 O 0.14635 0.33318 0.94019 0.0
O137 O 0.14153 0.29405 0.95723 0.0
O138 O 0.21162 0.32623 0.90295 0.0
O139 O 0.19355 0.30246 0.93214 0.0
Co140 Co 0.79546 0.65831 0.95198 0.0
O141 O 0.78083 0.63391 0.97515 0.0
O142 O 0.79721 0.62506 0.93716 0.0
C143 C 0.76528 0.68842 0.9536 0.0
O144 O 0.8114 0.67776 0.92262 0.0
Co145 Co 0.81313 0.71146 0.97092 0.0
O146 O 0.82101 0.71781 0.93444 0.0
C147 C 0.84485 0.66706 0.98172 0.0
C148 C 0.78636 0.61702 0.95791 0.0
C149 C 0.8199 0.70022 0.91775 0.0
O150 O 0.83019 0.6534 0.96759 0.0
O151 O 0.83996 0.69017 0.98755 0.0
O152 O 0.76189 0.66804 0.93997 0.0
O153 O 0.78468 0.68787 0.96878 0.0
Co154 Co 0.82343 0.32024 0.04412 0.0
O155 O 0.81292 0.33841 0.01414 0.0
O156 O 0.82443 0.35604 0.05083 0.0
C157 C 0.79231 0.29086 0.04539 0.0
O158 O 0.8339 0.30838 0.07923 0.0
Co159 Co 0.84072 0.26396 0.04154 0.0
O160 O 0.83852 0.26591 0.0793 0.0
C161 C 0.87555 0.30424 0.02384 0.0
C162 C 0.81618 0.35888 0.0277 0.0
C163 C 0.8372 0.28718 0.0909 0.0
O164 O 0.8601 0.32113 0.03243 0.0
O165 O 0.87035 0.28041 0.02358 0.0
O166 O 0.78818 0.31383 0.0535 0.0
O167 O 0.81363 0.28758 0.03341 0.0
C168 C 0.93871 0.15249 0.4153 0.0
C169 C 0.94285 0.17774 0.40743 0.0
C170 C 0.95631 0.14047 0.43114 0.0
C171 C 0.99021 0.12666 0.47661 0.0
H172 H 0.06091 0.14702 0.46784 0.0
C173 C 0.06351 0.16075 0.54859 0.0
C174 C 0.06586 0.14041 0.56554 0.0
C175 C 0.0555 0.15636 0.52376 0.0
C176 C 0.04139 0.14054 0.47009 0.0
H177 H 0.96751 0.21074 0.41113 0.0
H178 H -0.00241 0.19019 0.43946 0.0
H179 H 0.02988 0.15698 0.43479 0.0
H180 H 0.06314 0.09955 0.57017 0.0
H181 H 0.04759 0.09191 0.52667 0.0
H182 H 0.00156 0.11156 0.51262 0.0
C183 C 0.98138 0.17931 0.43267 0.0
C184 C 0.02359 0.1465 0.45143 0.0
C185 C 0.96394 0.19122 0.41682 0.0
C186 C 0.06163 0.11541 0.5571 0.0
C187 C 0.05281 0.11105 0.53238 0.0
C188 C 0.00811 0.12045 0.49518 0.0
C189 C 0.97821 0.15359 0.43932 0.0
C190 C -0.00241 0.14114 0.45537 0.0
C191 C 0.04897 0.13163 0.51584 0.0
C192 C 0.03345 0.12884 0.49274 0.0
H193 H 0.92271 0.14158 0.40807 0.0
H194 H 0.9533 0.1207 0.4362 0.0
H195 H 0.97033 0.12215 0.48005 0.0
H196 H 0.06663 0.18014 0.55494 0.0
H197 H 0.05229 0.17257 0.51145 0.0
C198 C -0.00394 0.84945 0.39745 0.0
C199 C 0.02145 0.85658 0.39276 0.0
C200 C 0.98804 0.84366 0.42216 0.0
C201 C 0.00745 0.84839 0.4902 0.0
H202 H 0.96174 0.79065 0.49802 0.0
C203 C 0.98846 0.80141 0.58729 0.0
C204 C 0.96254 0.8003 0.59389 0.0
C205 C -0.00428 0.80673 0.56225 0.0
C206 C 0.97449 0.80681 0.49604 0.0
H207 H 0.05818 0.86402 0.41023 0.0
H208 H 0.04448 0.85325 0.45303 0.0
H209 H 0.97352 0.80507 0.45542 0.0
H210 H 0.92391 0.80229 0.57943 0.0
H211 H 0.93666 0.811 0.53555 0.0
H212 H 0.00882 0.8496 0.53091 0.0
C213 C 0.03052 0.85262 0.43788 0.0
C214 C 0.98107 0.81525 0.47169 0.0
C215 C 0.03843 0.85871 0.41328 0.0
C216 C 0.94404 0.80313 0.57483 0.0
C217 C 0.9513 0.80803 0.54975 0.0
C218 C 0.00116 0.8397 0.51451 0.0
C219 C 0.00534 0.84459 0.44258 0.0
C220 C -0.00239 0.83618 0.46847 0.0
C221 C 0.97717 0.81056 0.54341 0.0
C222 C 0.98462 0.81887 0.51761 0.0
H223 H 0.98253 0.8478 0.38198 0.0
H224 H 0.96836 0.8381 0.42518 0.0
H225 H 0.01985 0.86483 0.48848 0.0
H226 H 0.0031 0.79938 0.60165 0.0
H227 H 0.01581 0.80839 0.55769 0.0
C228 C 0.40317 0.97529 0.13622 0.0
C229 C 0.39553 0.95188 0.14656 0.0
C230 C 0.42866 0.97969 0.13012 0.0
C231 C 0.49298 0.94954 0.12624 0.0
H232 H 0.51449 0.01624 0.14973 0.0
C233 C 0.59529 0.97561 0.15891 0.0
C234 C 0.60459 -0.0002 0.15218 0.0
C235 C 0.57038 0.96845 0.15266 0.0
C236 C 0.5088 -0.00232 0.14268 0.0
H237 H 0.4079 0.91416 0.15729 0.0
H238 H 0.45283 0.92222 0.14798 0.0
H239 H 0.46954 0.00604 0.148 0.0
H240 H 0.59564 0.03497 0.13253 0.0
H241 H 0.55225 0.0225 0.12177 0.0
H242 H 0.53278 0.94104 0.12229 0.0
C243 C 0.43915 0.937 0.14386 0.0
C244 C 0.48295 0.99183 0.14154 0.0
C245 C 0.41346 0.9324 0.14938 0.0
C246 C 0.58892 0.01631 0.13827 0.0
C247 C 0.56409 0.00919 0.13207 0.0
C248 C 0.519 0.95537 0.12764 0.0
C249 C 0.44714 0.96102 0.13496 0.0
C250 C 0.47467 0.96762 0.13356 0.0
C251 C 0.55441 0.98542 0.13965 0.0
C252 C 0.52709 0.97944 0.13611 0.0
H253 H 0.38951 0.99042 0.1334 0.0
H254 H 0.43399 -0.0019 0.1225 0.0
H255 H 0.48726 0.93082 0.11972 0.0
H256 H 0.60702 0.96244 0.1695 0.0
H257 H 0.56329 0.95009 0.15891 0.0
C258 C 0.59573 0.95874 0.84998 0.0
C259 C 0.60872 0.97358 0.83186 0.0
C260 C 0.57033 0.96371 0.85586 0.0
C261 C 0.51907 0.01156 0.84809 0.0
H262 H 0.47488 0.95229 0.85195 0.0
C263 C 0.4086 0.98513 0.82675 0.0
C264 C 0.39656 0.0062 0.83782 0.0
C265 C 0.43432 0.98053 0.8314 0.0
C266 C 0.48697 0.96903 0.85092 0.0
H267 H 0.60571 0.00564 0.80615 0.0
H268 H 0.56102 0.01387 0.81575 0.0
H269 H 0.52076 0.94667 0.84935 0.0
H270 H 0.40146 0.03816 0.86355 0.0
H271 H 0.44632 0.02983 0.87204 0.0
H272 H 0.48516 0.03386 0.84803 0.0
C273 C 0.57057 -0.00126 0.82587 0.0
C274 C 0.5133 0.96584 0.84975 0.0
C275 C 0.59611 -0.00608 0.8202 0.0
C276 C 0.41036 0.02192 0.85452 0.0
C277 C 0.43606 0.01722 0.85931 0.0
C278 C 0.49271 0.01475 0.84905 0.0
C279 C 0.55731 0.98346 0.84352 0.0
C280 C 0.52962 0.98705 0.84773 0.0
C281 C 0.44845 -0.00321 0.84737 0.0
C282 C 0.47635 -0.00651 0.84985 0.0
H283 H 0.60513 0.94313 0.85954 0.0
H284 H 0.56081 0.95191 0.86989 0.0
H285 H 0.53115 0.0283 0.84701 0.0
H286 H 0.39842 0.97268 0.81381 0.0
H287 H 0.44335 0.96482 0.82161 0.0
C288 C 0.17516 0.41938 0.92744 0.0
C289 C 0.19 0.40002 0.93817 0.0
C290 C 0.17626 0.44407 0.93727 0.0
C291 C 0.19231 0.4774 -0.00316 0.0
H292 H 0.18312 0.53775 0.95556 0.0
C293 C 0.18761 0.59397 0.00757 0.0
C294 C 0.17174 0.59567 0.02907 0.0
C295 C 0.19277 0.57039 -0.00347 0.0
C296 C 0.18604 0.52113 0.96736 0.0
H297 H 0.21881 0.39152 0.96644 0.0
H298 H 0.22124 0.4347 0.98312 0.0
H299 H 0.18825 0.49656 0.93495 0.0
H300 H 0.14913 0.57408 0.05614 0.0
H301 H 0.15772 0.53291 0.03659 0.0
H302 H 0.19045 0.50196 0.02924 0.0
C303 C 0.20819 0.43072 0.96765 0.0
C304 C 0.18867 0.49748 0.95554 0.0
C305 C 0.20691 0.40603 0.95799 0.0
C306 C 0.16152 0.57332 0.03964 0.0
C307 C 0.16656 0.54973 0.0285 0.0
C308 C 0.18982 0.50104 0.00865 0.0
C309 C 0.19239 0.44988 0.95787 0.0
C310 C 0.19152 0.4753 0.97016 0.0
C311 C 0.18205 0.54804 0.00666 0.0
C312 C 0.1863 0.52313 -0.00593 0.0
H313 H 0.16192 0.41525 0.91217 0.0
H314 H 0.16365 0.4583 0.92943 0.0
H315 H 0.19415 0.46068 0.00872 0.0
H316 H 0.19591 0.61088 -0.0009 0.0
H317 H 0.20512 0.56971 0.98 0.0
C318 C 0.77731 0.58043 0.98683 0.0
C319 C 0.78202 0.58968 0.96221 0.0
C320 C 0.77619 0.55428 0.99131 0.0
C321 C 0.79969 0.49444 0.96363 0.0
H322 H 0.75932 0.46439 0.01785 0.0
C323 C 0.80519 0.388 0.99176 0.0
C324 C 0.8097 0.38422 0.01784 0.0
C325 C 0.79854 0.41207 0.98273 0.0
C326 C 0.77062 0.47258 0.0026 0.0
H327 H 0.78756 0.57907 0.92269 0.0
H328 H 0.78483 0.53344 0.93036 0.0
H329 H 0.75193 0.50852 0.0055 0.0
H330 H 0.81052 0.40239 0.05494 0.0
H331 H 0.79868 0.44427 0.03916 0.0
H332 H 0.81844 0.45845 0.96094 0.0
C333 C 0.78279 0.54628 0.94635 0.0
C334 C 0.76649 0.49782 -0.00441 0.0
C335 C 0.78422 0.57242 0.94193 0.0
C336 C 0.80727 0.40478 0.03472 0.0
C337 C 0.80027 0.42868 0.02576 0.0
C338 C 0.80359 0.46912 0.97045 0.0
C339 C 0.77946 0.53689 0.97119 0.0
C340 C 0.78142 0.50924 0.97646 0.0
C341 C 0.79588 0.43254 -0.00029 0.0
C342 C 0.78953 0.4582 0.9904 0.0
H343 H 0.77559 0.59334 0.00282 0.0
H344 H 0.77393 0.54775 0.01074 0.0
H345 H 0.81183 0.5027 0.9491 0.0
H346 H 0.80692 0.37243 0.97836 0.0
H347 H 0.79526 0.41466 0.96254 0.0
C348 C 0.12805 0.106 0.68977 0.0
C349 C 0.12232 0.13138 0.69534 0.0
C350 C 0.15171 0.09604 0.69605 0.0
C351 C 0.20965 0.10785 0.73458 0.0
H352 H 0.23728 0.05659 0.6891 0.0
C353 C 0.30651 0.06167 0.7523 0.0
C354 C 0.30279 0.03595 0.75876 0.0
C355 C 0.28749 0.07498 0.73955 0.0
C356 C 0.22984 0.07106 0.70176 0.0
H357 H 0.13625 0.16646 0.7119 0.0
H358 H 0.17837 0.14935 0.72225 0.0
H359 H 0.19752 0.07779 0.67819 0.0
H360 H 0.27776 0.00331 0.7547 0.0
H361 H 0.2449 0.02643 0.73136 0.0
H362 H 0.24238 0.10116 0.7579 0.0
C363 C 0.16436 0.13685 0.71365 0.0
C364 C 0.20696 0.08301 0.69576 0.0
C365 C 0.14032 0.14667 0.70782 0.0
C366 C 0.28105 0.0231 0.74989 0.0
C367 C 0.26229 0.0363 0.73661 0.0
C368 C 0.23282 0.09627 0.74028 0.0
C369 C 0.17046 0.1115 0.70741 0.0
C370 C 0.19617 0.10097 0.7125 0.0
C371 C 0.2649 0.06256 0.73247 0.0
C372 C 0.24271 0.07737 0.72421 0.0
H373 H 0.11426 0.09392 0.68019 0.0
H374 H 0.15533 0.07623 0.69176 0.0
H375 H 0.20187 0.12138 0.74803 0.0
H376 H 0.32302 0.07212 0.75902 0.0
H377 H 0.28982 0.09524 0.73643 0.0
C378 C 0.70021 0.92271 0.74374 0.0
C379 C 0.70735 0.94552 0.75585 0.0
C380 C 0.71837 0.90811 0.73105 0.0
C381 C 0.76491 0.87395 0.73262 0.0
H382 H 0.81981 0.89732 0.68885 0.0
C383 C 0.86485 0.82888 0.72859 0.0
C384 C 0.8763 0.82619 0.70453 0.0
C385 C 0.8413 0.84094 0.731 0.0
C386 C 0.80441 0.89044 0.70082 0.0
H387 H 0.73827 0.97242 0.76158 0.0
H388 H 0.76996 0.94701 0.73908 0.0
H389 H 0.78356 0.92526 0.6973 0.0
H390 H 0.87133 0.83296 0.66401 0.0
H391 H 0.83045 0.85422 0.66842 0.0
H392 H 0.78625 0.83959 0.73704 0.0
C393 C 0.75041 0.9403 0.73969 0.0
C394 C 0.7838 0.90644 0.70571 0.0
C395 C 0.73228 0.95482 0.75262 0.0
C396 C 0.86313 0.83475 0.68286 0.0
C397 C 0.83977 0.84706 0.68533 0.0
C398 C 0.78566 0.85811 0.728 0.0
C399 C 0.74385 0.91626 0.72992 0.0
C400 C 0.76404 0.89845 0.72192 0.0
C401 C 0.82892 0.85074 0.70945 0.0
C402 C 0.80576 0.86636 0.71237 0.0
H403 H 0.68107 0.91511 0.74568 0.0
H404 H 0.71281 0.88979 0.72332 0.0
H405 H 0.75008 0.86747 0.74549 0.0
H406 H 0.87443 0.82241 0.74563 0.0
H407 H 0.83333 0.84366 0.74985 0.0
C408 C 0.28185 0.96576 0.23802 0.0
C409 C 0.30507 0.95295 0.23514 0.0
C410 C 0.26397 0.95731 0.25584 0.0
C411 C 0.24451 0.89595 0.27822 0.0
H412 H 0.18987 0.93411 0.30979 0.0
C413 C 0.13454 0.8816 0.31681 0.0
C414 C 0.12402 0.87047 0.29479 0.0
C415 C 0.15995 0.88957 0.31716 0.0
C416 C 0.20519 0.92308 0.30152 0.0
H417 H 0.32941 0.92373 0.25107 0.0
H418 H 0.29811 0.90896 0.28213 0.0
H419 H 0.2302 0.95541 0.29985 0.0
H420 H 0.13235 0.85774 0.25638 0.0
H421 H 0.17674 0.87159 0.25704 0.0
H422 H 0.21903 0.86402 0.2785 0.0
C423 C 0.29355 0.92521 0.27033 0.0
C424 C 0.22819 0.9353 0.29576 0.0
C425 C 0.31147 0.93374 0.25258 0.0
C426 C 0.1398 0.86636 0.27358 0.0
C427 C 0.16528 0.8741 0.27403 0.0
C428 C 0.22149 0.88381 0.28379 0.0
C429 C 0.26911 0.93593 0.27103 0.0
C430 C 0.24769 0.92208 0.28317 0.0
C431 C 0.17542 0.88628 0.29562 0.0
C432 C 0.20129 0.89752 0.29457 0.0
H433 H 0.27656 0.98086 0.22506 0.0
H434 H 0.24529 0.96598 0.25593 0.0
H435 H 0.25907 0.88529 0.26825 0.0
H436 H 0.12295 0.88499 0.33355 0.0
H437 H 0.16738 0.89878 0.33406 0.0
C438 C 0.69053 0.05495 0.24424 0.0
C439 C 0.69928 0.03332 0.23116 0.0
C440 C 0.70754 0.07023 0.25789 0.0
C441 C 0.74828 0.09766 0.28967 0.0
H442 H 0.80798 0.11025 0.24775 0.0
C443 C 0.83535 0.15927 0.31989 0.0
C444 C 0.84736 0.17389 0.30083 0.0
C445 C 0.81486 0.1433 0.31391 0.0
C446 C 0.79131 0.10712 0.25957 0.0
H447 H 0.73188 0.00891 0.22486 0.0
H448 H 0.76151 0.03544 0.24895 0.0
H449 H 0.77767 0.07748 0.23532 0.0
H450 H 0.8458 0.18474 0.26098 0.0
H451 H 0.80997 0.15699 0.25067 0.0
H452 H 0.76193 0.12782 0.31368 0.0
C453 C 0.74166 0.04096 0.24804 0.0
C454 C 0.77417 0.08802 0.2527 0.0
C455 C 0.72467 0.02569 0.23438 0.0
C456 C 0.83726 0.17352 0.27607 0.0
C457 C 0.81681 0.15752 0.27011 0.0
C458 C 0.76559 0.11677 0.29666 0.0
C459 C 0.73353 0.06405 0.25877 0.0
C460 C 0.75245 0.08309 0.26761 0.0
C461 C 0.80599 0.14161 0.28877 0.0
C462 C 0.78717 0.1218 0.28152 0.0
H463 H 0.671 0.06123 0.24228 0.0
H464 H 0.70069 0.08787 0.26601 0.0
H465 H 0.73164 0.0943 0.30147 0.0
H466 H 0.84248 0.15923 0.33923 0.0
H467 H 0.80691 0.13125 0.32868 0.0
C468 C 0.73919 0.10256 0.16461 0.0
C469 C 0.71522 0.09096 0.16113 0.0
C470 C 0.74444 0.12633 0.15384 0.0
C471 C 0.72672 0.16381 0.09883 0.0
H472 H 0.76294 0.219 0.13217 0.0
C473 C 0.76164 0.27285 0.07698 0.0
C474 C 0.7778 0.26918 0.05592 0.0
C475 C 0.75119 0.25202 0.0898 0.0
C476 C 0.75265 0.20377 0.12272 0.0
H477 H 0.67747 0.0961 0.145 0.0
H478 H 0.68683 0.13739 0.12613 0.0
H479 H 0.7501 0.18148 0.15682 0.0
H480 H 0.79459 0.24102 0.03093 0.0
H481 H 0.7756 0.2045 0.05301 0.0
H482 H 0.72996 0.18577 0.06457 0.0
C483 C 0.70156 0.12793 0.13697 0.0
C484 C 0.74547 0.18233 0.13675 0.0
C485 C 0.69621 0.10433 0.14791 0.0
C486 C 0.78216 0.24437 0.04707 0.0
C487 C 0.77133 0.22353 0.05966 0.0
C488 C 0.73427 0.18506 0.08472 0.0
C489 C 0.7259 0.13882 0.13926 0.0
C490 C 0.73249 0.16214 0.12491 0.0
C491 C 0.75633 0.2272 0.08153 0.0
C492 C 0.74734 0.20517 0.09655 0.0
H493 H 0.75421 0.09288 0.17482 0.0
H494 H 0.7634 0.13434 0.15584 0.0
H495 H 0.71697 0.14835 0.0892 0.0
H496 H 0.75799 0.29175 0.08432 0.0
H497 H 0.7395 0.25527 0.1065 0.0
C498 C 0.21667 0.70859 0.08922 0.0
C499 C 0.19546 0.71201 0.07335 0.0
C500 C 0.2269 0.72907 0.10281 0.0
C501 C 0.22494 0.79992 0.1075 0.0
H502 H 0.25159 0.7875 0.17524 0.0
C503 C 0.24529 0.88075 0.17696 0.0
C504 C 0.27175 0.88448 0.17944 0.0
C505 C 0.23569 0.85766 0.16796 0.0
C506 C 0.24414 0.79109 0.15636 0.0
H507 H 0.1687 0.73963 0.05875 0.0
H508 H 0.18558 0.77501 0.08323 0.0
H509 H 0.23572 0.75182 0.14974 0.0
H510 H 0.30858 0.86592 0.17733 0.0
H511 H 0.29149 0.82524 0.16215 0.0
H512 H 0.23253 0.83933 0.11471 0.0
C513 C 0.19494 0.75677 0.08476 0.0
C514 C 0.2353 0.77073 0.1416 0.0
C515 C 0.18509 0.7364 0.07076 0.0
C516 C 0.28813 0.86374 0.17538 0.0
C517 C 0.27842 0.84046 0.16676 0.0
C518 C 0.23323 0.82023 0.12245 0.0
C519 C 0.21582 0.75334 0.10121 0.0
C520 C 0.22561 0.77488 0.11691 0.0
C521 C 0.25229 0.83775 0.16188 0.0
C522 C 0.24288 0.81596 0.14693 0.0
H523 H 0.22516 0.68998 0.09143 0.0
H524 H 0.24338 0.72577 0.11471 0.0
H525 H 0.21826 0.80392 0.08844 0.0
H526 H 0.23209 0.89623 0.18004 0.0
H527 H 0.21543 0.8558 0.16439 0.0
C528 C 0.73506 0.71278 0.92641 0.0
C529 C 0.75371 0.71266 0.94559 0.0
C530 C 0.72872 0.73544 0.91413 0.0
C531 C 0.76028 0.79123 0.89267 0.0
H532 H 0.69381 0.82077 0.88096 0.0
C533 C 0.74808 0.88781 0.84265 0.0
C534 C 0.72538 0.89257 0.82945 0.0
C535 C 0.75128 0.86495 0.85574 0.0
C536 C 0.71248 0.81249 0.88357 0.0
H537 H 0.77816 0.73655 0.96893 0.0
H538 H 0.7677 0.77594 0.94679 0.0
H539 H 0.69766 0.7835 0.90839 0.0
H540 H 0.68912 0.87655 0.81776 0.0
H541 H 0.69525 0.83603 0.83935 0.0
H542 H 0.77518 0.81919 0.86716 0.0
C543 C 0.75818 0.75846 0.94124 0.0
C544 C 0.71463 0.79136 0.89953 0.0
C545 C 0.76413 0.73591 0.95387 0.0
C546 C 0.70671 0.8734 0.82803 0.0
C547 C 0.71013 0.85032 0.84067 0.0
C548 C 0.75811 0.81198 0.87631 0.0
C549 C 0.74115 0.75818 0.9207 0.0
C550 C 0.73858 0.7808 0.90439 0.0
C551 C 0.73204 0.84616 0.85547 0.0
C552 C 0.73421 0.82307 0.8717 0.0
H553 H 0.72651 0.69518 0.91979 0.0
H554 H 0.71544 0.73488 0.89837 0.0
H555 H 0.7789 0.78298 0.89582 0.0
H556 H 0.76267 0.90238 0.84426 0.0
H557 H 0.76829 0.86265 0.8671 0.0
C558 C 0.25684 0.09964 0.81763 0.0
C559 C 0.28089 0.08972 0.8238 0.0
C560 C 0.25067 0.12468 0.82401 0.0
C561 C 0.27788 0.18656 0.84494 0.0
H562 H 0.21274 0.19382 0.8791 0.0
C563 C 0.22182 0.25861 0.91767 0.0
C564 C 0.22433 0.282 0.905 0.0
C565 C 0.23039 0.23625 0.9063 0.0
C566 C 0.23105 0.19207 0.8697 0.0
H567 H 0.31777 0.09884 0.84028 0.0
H568 H 0.30684 0.14226 0.85166 0.0
H569 H 0.22398 0.15319 0.86006 0.0
H570 H 0.23905 0.30057 0.87111 0.0
H571 H 0.25418 0.26134 0.85124 0.0
H572 H 0.28511 0.22541 0.85529 0.0
C573 C 0.29282 0.13077 0.84176 0.0
C574 C 0.23733 0.1689 0.85846 0.0
C575 C 0.29899 0.10576 0.83541 0.0
C576 C 0.23691 0.2828 0.88136 0.0
C577 C 0.24555 0.26037 0.86997 0.0
C578 C 0.27153 0.20984 0.85613 0.0
C579 C 0.26842 0.14033 0.83663 0.0
C580 C 0.26095 0.16575 0.84627 0.0
C581 C 0.24169 0.2368 0.88203 0.0
C582 C 0.24822 0.21266 0.86902 0.0
H583 H 0.24255 0.08794 0.80838 0.0
H584 H 0.23183 0.13167 0.81944 0.0
H585 H 0.29614 0.18475 0.83547 0.0
H586 H 0.21238 0.25742 0.93599 0.0
H587 H 0.22769 0.21842 0.9163 0.0
C588 C 0.06859 0.77906 0.29714 0.0
C589 C 0.05218 0.79872 0.28963 0.0
C590 C 0.074 0.75898 0.2805 0.0
C591 C 0.05231 0.72802 0.22074 0.0
H592 H 0.12432 0.71769 0.2078 0.0
C593 C 0.09301 0.71117 0.12254 0.0
C594 C 0.11374 0.69482 0.11881 0.0
C595 C 0.08323 0.71523 0.14683 0.0
C596 C 0.10413 0.71975 0.21158 0.0
H597 H 0.02782 0.81235 0.25932 0.0
H598 H 0.03724 0.77753 0.23038 0.0
H599 H 0.11095 0.74149 0.24538 0.0
H600 H 0.14003 0.66915 0.13732 0.0
H601 H 0.12323 0.67691 0.1804 0.0
H602 H 0.04559 0.70769 0.18606 0.0
C603 C 0.04579 0.77739 0.24913 0.0
C604 C 0.09645 0.73341 0.2331 0.0
C605 C 0.04057 0.79749 0.26562 0.0
C606 C 0.12398 0.68181 0.13976 0.0
C607 C 0.11444 0.68628 0.16431 0.0
C608 C 0.05997 0.71441 0.19926 0.0
C609 C 0.06286 0.75811 0.2562 0.0
C610 C 0.07052 0.73871 0.23719 0.0
C611 C 0.09418 0.70332 0.16805 0.0
C612 C 0.08599 0.71122 0.19384 0.0
H613 H 0.07779 0.77953 0.31558 0.0
H614 H 0.08717 0.74435 0.28647 0.0
H615 H 0.03216 0.73135 0.22373 0.0
H616 H 0.08464 0.72129 0.10667 0.0
H617 H 0.06787 0.72875 0.14911 0.0
C618 C 0.10468 0.21951 0.67287 0.0
C619 C 0.07937 0.21163 0.66904 0.0
C620 C 0.11087 0.23519 0.69348 0.0
C621 C 0.11921 0.27241 0.73724 0.0
H622 H 0.08524 0.2478 0.79815 0.0
C623 C 0.14398 0.30662 0.83999 0.0
C624 C 0.14663 0.28682 0.85782 0.0
C625 C 0.13424 0.30165 0.81568 0.0
C626 C 0.09486 0.25494 0.78131 0.0
H627 H 0.04039 0.21583 0.68195 0.0
H628 H 0.05101 0.24389 0.71737 0.0
H629 H 0.0708 0.23335 0.75676 0.0
H630 H 0.14141 0.24622 0.86386 0.0
H631 H 0.12459 0.2377 0.82173 0.0
H632 H 0.14414 0.293 0.76229 0.0
C633 C 0.06621 0.23736 0.70506 0.0
C634 C 0.08636 0.24694 0.75752 0.0
C635 C 0.0601 0.22142 0.68472 0.0
C636 C 0.13952 0.26199 0.85074 0.0
C637 C 0.12971 0.2571 0.8266 0.0
C638 C 0.12774 0.28045 0.76118 0.0
C639 C 0.09178 0.24343 0.7104 0.0
C640 C 0.09877 0.25511 0.73519 0.0
C641 C 0.1268 0.27686 0.80888 0.0
C642 C 0.11605 0.2712 0.78344 0.0
H643 H 0.11992 0.21213 0.66108 0.0
H644 H 0.13077 0.23934 0.69712 0.0
H645 H 0.12901 0.27922 0.72038 0.0
H646 H 0.14937 0.32595 0.84478 0.0
H647 H 0.13216 0.31723 0.80237 0.0
C648 C 0.84927 0.72432 0.88899 0.0
C649 C 0.83085 0.7051 0.89229 0.0
C650 C 0.86197 0.727 0.86578 0.0
C651 C 0.85782 0.71632 0.79806 0.0
H652 H 0.93173 0.71673 0.80008 0.0
C653 C 0.91594 0.73395 0.70697 0.0
C654 C 0.93588 0.75167 0.70968 0.0
C655 C 0.90464 0.72292 0.72846 0.0
C656 C 0.91112 0.71682 0.79915 0.0
H657 H 0.81039 0.67442 0.8735 0.0
H658 H 0.83218 0.67973 0.83254 0.0
H659 H 0.90753 0.71 0.83921 0.0
H660 H 0.96103 0.77012 0.73679 0.0
H661 H 0.941 0.75169 0.77407 0.0
H662 H 0.86117 0.72455 0.75837 0.0
C663 C 0.83698 0.69235 0.84815 0.0
C664 C 0.89731 0.71291 0.82155 0.0
C665 C 0.82458 0.68934 0.87154 0.0
C666 C 0.94553 0.7567 0.73407 0.0
C667 C 0.93412 0.74592 0.75551 0.0
C668 C 0.87162 0.72067 0.77568 0.0
C669 C 0.85616 0.71083 0.8453 0.0
C670 C 0.87058 0.71307 0.82124 0.0
C671 C 0.91298 0.72953 0.75304 0.0
C672 C 0.89846 0.72147 0.77604 0.0
H673 H 0.8546 0.7367 0.90462 0.0
H674 H 0.87651 0.7416 0.86387 0.0
H675 H 0.83718 0.71657 0.79743 0.0
H676 H 0.90822 0.72952 0.68836 0.0
H677 H 0.8888 0.7099 0.72582 0.0
C678 C 0.86679 0.25723 0.31442 0.0
C679 C 0.8927 0.25815 0.32088 0.0
C680 C 0.85818 0.27008 0.2928 0.0
C681 C 0.84509 0.29802 0.24325 0.0
H682 H 0.89473 0.27792 0.19228 0.0
C683 C 0.83442 0.30975 0.13287 0.0
C684 C 0.84033 0.2877 0.11885 0.0
C685 C 0.83871 0.31068 0.15911 0.0
C686 C 0.88073 0.28374 0.20629 0.0
H687 H 0.92913 0.27573 0.31266 0.0
H688 H 0.91388 0.29933 0.27581 0.0
H689 H 0.90585 0.27583 0.23695 0.0
H690 H 0.8545 0.24907 0.12154 0.0
H691 H 0.86228 0.25088 0.16721 0.0
H692 H 0.81968 0.30492 0.21198 0.0
C693 C 0.90036 0.28806 0.28668 0.0
C694 C 0.88719 0.28295 0.23192 0.0
C695 C 0.90906 0.27478 0.30786 0.0
C696 C 0.84989 0.26638 0.13171 0.0
C697 C 0.85442 0.26743 0.15783 0.0
C698 C 0.83867 0.29904 0.21739 0.0
C699 C 0.8754 0.28418 0.27776 0.0
C700 C 0.86933 0.28957 0.25076 0.0
C701 C 0.84925 0.2897 0.17166 0.0
C702 C 0.85628 0.29122 0.19881 0.0
H703 H 0.85394 0.24424 0.32413 0.0
H704 H 0.83883 0.2667 0.28644 0.0
H705 H 0.83095 0.30319 0.25736 0.0
H706 H 0.82677 0.32643 0.12355 0.0
H707 H 0.8346 0.32805 0.16942 0.0
C708 C 0.02864 0.07176 0.63667 0.0
C709 C 0.01967 0.08909 0.65501 0.0
C710 C 0.02069 0.04639 0.63704 0.0
C711 C -0.00493 -0.00104 0.68225 0.0
H712 H 0.992 0.9564 0.62202 0.0
C713 C 0.96672 0.88919 0.65332 0.0
C714 C 0.97699 0.87666 0.67458 0.0
C715 C 0.9715 0.91507 0.64932 0.0
C716 C 0.99253 0.96802 0.63904 0.0
H717 H 0.9937 0.09372 0.68683 0.0
H718 H 0.9791 0.04964 0.6869 0.0
H719 H -0.00256 0.0022 0.61745 0.0
H720 H 0.00162 0.88109 0.70741 0.0
H721 H 0.01076 0.9259 0.69992 0.0
H722 H 0.98931 0.96502 0.70383 0.0
C723 C 0.99303 0.05547 0.6728 0.0
C724 C -0.00407 -0.0057 0.63643 0.0
C725 C 0.00123 0.08083 0.67263 0.0
C726 C 0.99318 0.89025 0.69101 0.0
C727 C -0.00178 0.91602 0.68683 0.0
C728 C 0.9914 0.97278 0.68485 0.0
C729 C 0.0033 0.03774 0.65555 0.0
C730 C -0.00247 0.01008 0.65803 0.0
C731 C 0.98691 0.92894 0.66632 0.0
C732 C 0.99041 0.9569 0.66331 0.0
H733 H 0.04286 0.0774 0.62276 0.0
H734 H 0.02922 0.03333 0.62358 0.0
H735 H -0.0034 0.01036 0.69936 0.0
H736 H 0.95405 0.87932 0.64034 0.0
H737 H 0.96229 0.92437 0.63345 0.0
C738 C 0.96666 0.13015 0.28746 0.0
C739 C 0.95937 0.14 0.31126 0.0
C740 C 0.97704 0.10575 0.2856 0.0
C741 C 0.00645 0.05376 0.32281 0.0
H742 H 0.97605 0.01032 0.27135 0.0
C743 C 0.01868 0.94455 0.3235 0.0
C744 C 0.0223 0.9324 0.29991 0.0
C745 C 0.01211 0.9703 0.32458 0.0
C746 C 0.98502 0.02224 0.28561 0.0
H747 H 0.9587 0.13247 0.35194 0.0
H748 H 0.97672 0.09006 0.34861 0.0
H749 H 0.96452 0.05508 0.27331 0.0
H750 H 0.02181 0.93797 0.25893 0.0
H751 H 0.01074 0.98273 0.26087 0.0
H752 H 0.02688 0.02087 0.33519 0.0
C753 C 0.97442 0.10115 0.33139 0.0
C754 C 0.97843 0.04793 0.28669 0.0
C755 C 0.96393 0.12543 0.33325 0.0
C756 C 0.019 0.94659 0.27746 0.0
C757 C 0.01255 0.9723 0.27855 0.0
C758 C 0.01313 0.02806 0.32167 0.0
C759 C 0.98052 0.0908 0.3075 0.0
C760 C 0.98894 0.06394 0.30541 0.0
C761 C 0.0091 0.98451 0.3021 0.0
C762 C 0.00236 0.01195 0.30315 0.0
H763 H 0.96348 0.14086 0.27016 0.0
H764 H 0.98192 0.09841 0.26695 0.0
H765 H 0.01506 0.06569 0.33729 0.0
H766 H 0.021 0.93424 0.34118 0.0
H767 H 0.00921 0.97901 0.34304 0.0
C768 C 0.7286 0.00147 0.89595 0.0
C769 C 0.70832 0.98765 0.88508 0.0
C770 C 0.73079 0.00347 0.92245 0.0
C771 C 0.71677 0.96878 0.97999 0.0
H772 H 0.71417 0.03319 0.01592 0.0
C773 C 0.68758 0.00542 0.08445 0.0
C774 C 0.70619 -0.0046 0.10083 0.0
C775 C 0.69067 0.00416 0.05815 0.0
C776 C 0.71522 0.01513 0.00603 0.0
H777 H 0.67414 0.96561 0.8936 0.0
H778 H 0.67839 0.96878 0.93955 0.0
H779 H 0.71484 0.03276 0.96919 0.0
H780 H 0.7421 0.97516 0.10234 0.0
H781 H 0.74693 0.97211 0.0559 0.0
H782 H 0.71688 0.95114 0.01683 0.0
C783 C 0.69246 0.97807 0.92756 0.0
C784 C 0.71569 0.0149 0.97945 0.0
C785 C 0.68997 0.97649 0.90123 0.0
C786 C 0.72746 0.98306 0.09023 0.0
C787 C 0.73027 0.98136 0.06376 0.0
C788 C 0.71683 0.96902 0.00658 0.0
C789 C 0.71305 0.99122 0.93837 0.0
C790 C 0.71584 0.99171 0.96627 0.0
C791 C 0.71216 0.99245 0.04762 0.0
C792 C 0.71543 0.99218 0.01975 0.0
H793 H 0.74303 0.01026 0.88404 0.0
H794 H 0.74674 0.01383 0.93052 0.0
H795 H 0.71694 0.95068 0.9701 0.0
H796 H 0.67099 0.01515 0.09187 0.0
H797 H 0.67632 0.01254 0.04598 0.0
C798 C 0.27867 0.98202 0.08777 0.0
C799 C 0.29252 0.9628 0.09997 0.0
C800 C 0.2765 0.98218 0.0612 0.0
C801 C 0.26599 0.97326 0.00492 0.0
H802 H 0.32579 0.95145 0.96748 0.0
C803 C 0.27109 0.97644 0.8946 0.0
C804 C 0.29407 0.98614 0.88462 0.0
C805 C 0.26917 0.97007 0.92043 0.0
C806 C 0.30894 0.95771 0.97761 0.0
H807 H 0.31354 0.92782 0.09424 0.0
H808 H 0.3089 0.92746 0.04836 0.0
H809 H 0.32544 0.94864 0.01342 0.0
H810 H 0.33325 -0.00398 0.89394 0.0
H811 H 0.32974 0.98553 0.93853 0.0
H812 H 0.25026 0.98386 0.96887 0.0
C813 C 0.30065 0.94309 0.05893 0.0
C814 C 0.30857 0.95575 0.00404 0.0
C815 C 0.30327 0.94325 0.0853 0.0
C816 C 0.31521 0.9886 0.90085 0.0
C817 C 0.31327 0.98237 0.92652 0.0
C818 C 0.26651 0.97554 0.97837 0.0
C819 C 0.28773 0.96282 0.04643 0.0
C820 C 0.28722 0.96375 0.01812 0.0
C821 C 0.2902 0.97325 0.93672 0.0
C822 C 0.28821 0.96821 0.96448 0.0
H823 H 0.2701 -0.00275 0.09868 0.0
H824 H 0.26664 -0.00216 0.05225 0.0
H825 H 0.24906 0.97921 0.01507 0.0
H826 H 0.25443 0.97429 0.88263 0.0
H827 H 0.25121 0.96282 0.92766 0.0
C828 C 0.88153 0.63788 0.97372 0.0
C829 C 0.87012 0.6569 0.98871 0.0
C830 C 0.90726 0.6319 0.9769 0.0
C831 C 0.96443 0.64451 0.97398 0.0
H832 H -0.0018 0.6369 0.03911 0.0
C833 C 0.06694 0.67741 -0.00391 0.0
C834 C 0.08192 0.66222 0.01215 0.0
C835 C 0.0419 0.6703 0.99033 0.0
C836 C 0.98904 0.63859 0.02073 0.0
H837 H 0.87617 0.68303 0.02012 0.0
H838 H 0.92093 0.67213 0.02603 0.0
H839 H 0.95165 0.63538 0.03702 0.0
H840 H 0.08285 0.62671 0.03329 0.0
H841 H 0.03901 0.61462 0.0235 0.0
H842 H 0.00178 0.64912 0.9579 0.0
C843 C 0.91003 0.66208 0.01166 0.0
C844 C 0.96245 0.63788 0.01959 0.0
C845 C 0.88444 0.66839 0.00821 0.0
C846 C 0.07186 0.63893 0.02091 0.0
C847 C 0.04671 0.63202 0.01544 0.0
C848 C 0.99102 0.64562 0.97518 0.0
C849 C 0.92189 0.64444 -0.00454 0.0
C850 C 0.9499 0.64134 -0.00372 0.0
C851 C 0.03128 0.64802 0.00074 0.0
C852 C 0.00354 0.64317 -0.00135 0.0
H853 H 0.87105 0.62872 0.95848 0.0
H854 H 0.91597 0.61812 0.96429 0.0
H855 H 0.9552 0.64747 0.9558 0.0
H856 H 0.07413 0.69539 0.98891 0.0
H857 H 0.03037 0.68305 0.97902 0.0
C858 C 0.09586 0.34492 0.95583 0.0
C859 C 0.11009 0.3249 0.96636 0.0
C860 C 0.07075 0.34912 0.96368 0.0
C861 C 0.01438 0.33404 0.96773 0.0
H862 H 0.99 0.33256 0.03749 0.0
C863 C 0.91523 0.29746 -0.00174 0.0
C864 C 0.90123 0.31244 0.01541 0.0
C865 C 0.94027 0.30405 0.99188 0.0
C866 C -0.00343 0.3333 0.01794 0.0
H867 H 0.10985 0.29501 -0.00519 0.0
H868 H 0.06619 0.30271 0.00883 0.0
H869 H 0.03587 0.33603 0.02894 0.0
H870 H 0.90239 0.34625 0.03912 0.0
H871 H 0.94655 0.35733 0.02843 0.0
H872 H 0.97524 0.32997 0.95673 0.0
C873 C 0.07439 0.31495 -0.00566 0.0
C874 C 0.02274 0.33517 0.01307 0.0
C875 C 0.09934 0.31046 0.98622 0.0
C876 C 0.91265 0.33442 0.02572 0.0
C877 C 0.93791 0.3407 0.01974 0.0
C878 C 0.98829 0.33171 0.9726 0.0
C879 C 0.05958 0.33372 0.98253 0.0
C880 C 0.03189 0.33516 0.98792 0.0
C881 C 0.95197 0.32546 0.0029 0.0
C882 C 0.9792 0.3309 -0.00226 0.0
H883 H 0.10356 0.35639 0.94049 0.0
H884 H 0.05975 0.36383 0.95441 0.0
H885 H 0.02094 0.33373 0.94817 0.0
H886 H 0.90694 0.28045 0.98998 0.0
H887 H 0.9508 0.29189 0.97899 0.0
loop_
_geom_bond_atom_site_label_1
_geom_bond_atom_site_label_2
_geom_bond_distance
_geom_bond_site_symmetry_2
_ccdc_geom_bond_type
Co0 O1 2.216 . S
Co0 O2 2.091 . S
Co0 O4 2.004 . S
Co0 O10 2.021 . S
Co0 O12 2.137 . S
Co0 O13 2.244 . S
O1 Co0 2.216 . S
O1 C8 1.247 . S
O2 Co0 2.091 . S
O2 C8 1.261 . S
C3 O12 1.247 . S
C3 O13 1.272 . S
O4 Co0 2.004 . S
O4 C9 1.259 . S
Co5 O6 2.061 . S
Co5 O11 2.052 . S
Co5 O13 2.135 . S
O6 Co5 2.061 . S
O6 C9 1.235 . S
C7 O10 1.238 . S
C7 O11 1.241 . S
C8 O1 1.247 . S
C8 O2 1.261 . S
C9 O4 1.259 . S
C9 O6 1.235 . S
O10 Co0 2.021 . S
O10 C7 1.238 . S
O11 Co5 2.052 . S
O11 C7 1.241 . S
O12 Co0 2.137 . S
O12 C3 1.247 . S
O13 Co0 2.244 . S
O13 C3 1.272 . S
O13 Co5 2.135 . S
Co14 O15 2.216 . S
Co14 O16 2.091 . S
Co14 O18 2.004 . S
Co14 O24 2.021 . S
Co14 O26 2.137 . S
Co14 O27 2.244 . S
O15 Co14 2.216 . S
O15 C22 1.247 . S
O16 Co14 2.091 . S
O16 C22 1.261 . S
C17 O26 1.247 . S
C17 O27 1.272 . S
O18 Co14 2.004 . S
O18 C23 1.259 . S
Co19 O20 2.061 . S
Co19 O25 2.052 . S
Co19 O27 2.135 . S
O20 Co19 2.061 . S
O20 C23 1.235 . S
C21 O24 1.238 . S
C21 O25 1.241 . S
C22 O15 1.247 . S
C22 O16 1.261 . S
C23 O18 1.259 . S
C23 O20 1.235 . S
O24 Co14 2.021 . S
O24 C21 1.238 . S
O25 Co19 2.052 . S
O25 C21 1.241 . S
O26 Co14 2.137 . S
O26 C17 1.247 . S
O27 Co14 2.244 . S
O27 C17 1.272 . S
O27 Co19 2.135 . S
Co28 O29 2.216 . S
Co28 O30 2.091 . S
Co28 O32 2.004 . S
Co28 O38 2.021 . S
Co28 O40 2.137 . S
Co28 O41 2.244 . S
O29 Co28 2.216 . S
O29 C36 1.247 . S
O30 Co28 2.091 . S
O30 C36 1.261 . S
C31 O40 1.247 . S
C31 O41 1.272 . S
O32 Co28 2.004 . S
O32 C37 1.259 . S
Co33 O34 2.061 . S
Co33 O39 2.052 . S
Co33 O41 2.135 . S
O34 Co33 2.061 . S
O34 C37 1.235 . S
C35 O38 1.238 . S
C35 O39 1.241 . S
C36 O29 1.247 . S
C36 O30 1.261 . S
C37 O32 1.259 . S
C37 O34 1.235 . S
O38 Co28 2.021 . S
O38 C35 1.238 . S
O39 Co33 2.052 . S
O39 C35 1.241 . S
O40 Co28 2.137 . S
O40 C31 1.247 . S
O41 Co28 2.244 . S
O41 C31 1.272 . S
O41 Co33 2.135 . S
Co42 O43 2.216 . S
Co42 O44 2.091 . S
Co42 O46 2.004 . S
Co42 O52 2.021 . S
Co42 O54 2.137 . S
Co42 O55 2.244 . S
O43 Co42 2.216 . S
O43 C50 1.247 . S
O44 Co42 2.091 . S
O44 C50 1.261 . S
C45 O54 1.247 . S
C45 O55 1.272 . S
O46 Co42 2.004 . S
O46 C51 1.259 . S
Co47 O48 2.061 . S
Co47 O53 2.052 . S
Co47 O55 2.135 . S
O48 Co47 2.061 . S
O48 C51 1.235 . S
C49 O52 1.238 . S
C49 O53 1.241 . S
C50 O43 1.247 . S
C50 O44 1.261 . S
C51 O46 1.259 . S
C51 O48 1.235 . S
O52 Co42 2.021 . S
O52 C49 1.238 . S
O53 Co47 2.052 . S
O53 C49 1.241 . S
O54 Co42 2.137 . S
O54 C45 1.247 . S
O55 Co42 2.244 . S
O55 C45 1.272 . S
O55 Co47 2.135 . S
Co56 O57 2.216 . S
Co56 O58 2.091 . S
Co56 O60 2.004 . S
Co56 O66 2.021 . S
Co56 O68 2.137 . S
Co56 O69 2.244 . S
O57 Co56 2.216 . S
O57 C64 1.247 . S
O58 Co56 2.091 . S
O58 C64 1.261 . S
C59 O68 1.247 . S
C59 O69 1.272 . S
O60 Co56 2.004 . S
O60 C65 1.259 . S
Co61 O62 2.061 . S
Co61 O67 2.052 . S
Co61 O69 2.135 . S
O62 Co61 2.061 . S
O62 C65 1.235 . S
C63 O66 1.238 . S
C63 O67 1.241 . S
C64 O57 1.247 . S
C64 O58 1.261 . S
C65 O60 1.259 . S
C65 O62 1.235 . S
O66 Co56 2.021 . S
O66 C63 1.238 . S
O67 Co61 2.052 . S
O67 C63 1.241 . S
O68 Co56 2.137 . S
O68 C59 1.247 . S
O69 Co56 2.244 . S
O69 C59 1.272 . S
O69 Co61 2.135 . S
Co70 O71 2.216 . S
Co70 O72 2.091 . S
Co70 O74 2.004 . S
Co70 O80 2.021 . S
Co70 O82 2.137 . S
Co70 O83 2.244 . S
O71 Co70 2.216 . S
O71 C78 1.247 . S
O72 Co70 2.091 . S
O72 C78 1.261 . S
C73 O82 1.247 . S
C73 O83 1.272 . S
O74 Co70 2.004 . S
O74 C79 1.259 . S
Co75 O76 2.061 . S
Co75 O81 2.052 . S
Co75 O83 2.135 . S
O76 Co75 2.061 . S
O76 C79 1.235 . S
C77 O80 1.238 . S
C77 O81 1.241 . S
C78 O71 1.247 . S
C78 O72 1.261 . S
C79 O74 1.259 . S
C79 O76 1.235 . S
O80 Co70 2.021 . S
O80 C77 1.238 . S
O81 Co75 2.052 . S
O81 C77 1.241 . S
O82 Co70 2.137 . S
O82 C73 1.247 . S
O83 Co70 2.244 . S
O83 C73 1.272 . S
O83 Co75 2.135 . S
Co84 O85 2.216 . S
Co84 O86 2.091 . S
Co84 O88 2.004 . S
Co84 O94 2.021 . S
Co84 O96 2.137 . S
Co84 O97 2.244 . S
O85 Co84 2.216 . S
O85 C92 1.247 . S
O86 Co84 2.091 . S
O86 C92 1.261 . S
C87 O96 1.247 . S
C87 O97 1.272 . S
O88 Co84 2.004 . S
O88 C93 1.259 . S
Co89 O90 2.061 . S
Co89 O95 2.052 . S
Co89 O97 2.135 . S
O90 Co89 2.061 . S
O90 C93 1.235 . S
C91 O94 1.238 . S
C91 O95 1.241 . S
C92 O85 1.247 . S
C92 O86 1.261 . S
C93 O88 1.259 . S
C93 O90 1.235 . S
O94 Co84 2.021 . S
O94 C91 1.238 . S
O95 Co89 2.052 . S
O95 C91 1.241 . S
O96 Co84 2.137 . S
O96 C87 1.247 . S
O97 Co84 2.244 . S
O97 C87 1.272 . S
O97 Co89 2.135 . S
Co98 O99 2.216 . S
Co98 O100 2.091 . S
Co98 O102 2.004 . S
Co98 O108 2.021 . S
Co98 O110 2.137 . S
Co98 O111 2.244 . S
O99 Co98 2.216 . S
O99 C106 1.247 . S
O100 Co98 2.091 . S
O100 C106 1.261 . S
C101 O110 1.247 . S
C101 O111 1.272 . S
O102 Co98 2.004 . S
O102 C107 1.259 . S
Co103 O104 2.061 . S
Co103 O109 2.052 . S
Co103 O111 2.135 . S
O104 Co103 2.061 . S
O104 C107 1.235 . S
C105 O108 1.238 . S
C105 O109 1.241 . S
C106 O99 1.247 . S
C106 O100 1.261 . S
C107 O102 1.259 . S
C107 O104 1.235 . S
O108 Co98 2.021 . S
O108 C105 1.238 . S
O109 Co103 2.052 . S
O109 C105 1.241 . S
O110 Co98 2.137 . S
O110 C101 1.247 . S
O111 Co98 2.244 . S
O111 C101 1.272 . S
O111 Co103 2.135 . S
Co112 O113 2.216 . S
Co112 O114 2.091 . S
Co112 O116 2.004 . S
Co112 O122 2.021 . S
Co112 O124 2.137 . S
Co112 O125 2.244 . S
O113 Co112 2.216 . S
O113 C120 1.247 . S
O114 Co112 2.091 . S
O114 C120 1.261 . S
C115 O124 1.247 . S
C115 O125 1.272 . S
O116 Co112 2.004 . S
O116 C121 1.259 . S
Co117 O118 2.061 . S
Co117 O123 2.052 . S
Co117 O125 2.135 . S
O118 Co117 2.061 . S
O118 C121 1.235 . S
C119 O122 1.238 . S
C119 O123 1.241 . S
C120 O113 1.247 . S
C120 O114 1.261 . S
C121 O116 1.259 . S
C121 O118 1.235 . S
O122 Co112 2.021 . S
O122 C119 1.238 . S
O123 Co117 2.052 . S
O123 C119 1.241 . S
O124 Co112 2.137 . S
O124 C115 1.247 . S
O125 Co112 2.244 . S
O125 C115 1.272 . S
O125 Co117 2.135 . S
Co126 O127 2.216 . S
Co126 O128 2.091 . S
Co126 O130 2.004 . S
Co126 O136 2.021 . S
Co126 O138 2.137 . S
Co126 O139 2.244 . S
O127 Co126 2.216 . S
O127 C134 1.247 . S
O128 Co126 2.091 . S
O128 C134 1.261 . S
C129 O138 1.247 . S
C129 O139 1.272 . S
O130 Co126 2.004 . S
O130 C135 1.259 . S
Co131 O132 2.061 . S
Co131 O137 2.052 . S
Co131 O139 2.135 . S
O132 Co131 2.061 . S
O132 C135 1.235 . S
C133 O136 1.238 . S
C133 O137 1.241 . S
C134 O127 1.247 . S
C134 O128 1.261 . S
C135 O130 1.259 . S
C135 O132 1.235 . S
O136 Co126 2.021 . S
O136 C133 1.238 . S
O137 Co131 2.052 . S
O137 C133 1.241 . S
O138 Co126 2.137 . S
O138 C129 1.247 . S
O139 Co126 2.244 . S
O139 C129 1.272 . S
O139 Co131 2.135 . S
Co140 O141 2.216 . S
Co140 O142 2.091 . S
Co140 O144 2.004 . S
Co140 O150 2.021 . S
Co140 O152 2.137 . S
Co140 O153 2.244 . S
O141 Co140 2.216 . S
O141 C148 1.247 . S
O142 Co140 2.091 . S
O142 C148 1.261 . S
C143 O152 1.247 . S
C143 O153 1.272 . S
O144 Co140 2.004 . S
O144 C149 1.259 . S
Co145 O146 2.061 . S
Co145 O151 2.052 . S
Co145 O153 2.135 . S
O146 Co145 2.061 . S
O146 C149 1.235 . S
C147 O150 1.238 . S
C147 O151 1.241 . S
C148 O141 1.247 . S
C148 O142 1.261 . S
C149 O144 1.259 . S
C149 O146 1.235 . S
O150 Co140 2.021 . S
O150 C147 1.238 . S
O151 Co145 2.052 . S
O151 C147 1.241 . S
O152 Co140 2.137 . S
O152 C143 1.247 . S
O153 Co140 2.244 . S
O153 C143 1.272 . S
O153 Co145 2.135 . S
Co154 O155 2.216 . S
Co154 O156 2.091 . S
Co154 O158 2.004 . S
Co154 O164 2.021 . S
Co154 O166 2.137 . S
Co154 O167 2.244 . S
O155 Co154 2.216 . S
O155 C162 1.247 . S
O156 Co154 2.091 . S
O156 C162 1.261 . S
C157 O166 1.247 . S
C157 O167 1.272 . S
O158 Co154 2.004 . S
O158 C163 1.259 . S
Co159 O160 2.061 . S
Co159 O165 2.052 . S
Co159 O167 2.135 . S
O160 Co159 2.061 . S
O160 C163 1.235 . S
C161 O164 1.238 . S
C161 O165 1.241 . S
C162 O155 1.247 . S
C162 O156 1.261 . S
C163 O158 1.259 . S
C163 O160 1.235 . S
O164 Co154 2.021 . S
O164 C161 1.238 . S
O165 Co159 2.052 . S
O165 C161 1.241 . S
O166 Co154 2.137 . S
O166 C157 1.247 . S
O167 Co154 2.244 . S
O167 C157 1.272 . S
O167 Co159 2.135 . S
C168 C169 1.349 . S
C168 C170 1.327 . S
C168 H193 0.950 . S
C169 C168 1.349 . S
C169 C185 1.349 . S
C170 C168 1.327 . S
C170 C189 1.429 . S
C170 H194 0.950 . S
C171 C188 1.574 . S
C171 C190 1.368 . S
C171 H195 0.949 . S
H172 C176 0.949 . S
C173 C174 1.349 . S
C173 C175 1.327 . S
C173 H196 0.950 . S
C174 C173 1.349 . S
C174 C186 1.349 . S
C175 C173 1.327 . S
C175 C191 1.429 . S
C175 H197 0.950 . S
C176 H172 0.949 . S
C176 C184 1.574 . S
C176 C192 1.368 . S
H177 C185 0.950 . S
H178 C183 0.950 . S
H179 C184 0.949 . S
H180 C186 0.950 . S
H181 C187 0.950 . S
H182 C188 0.949 . S
C183 H178 0.950 . S
C183 C185 1.327 . S
C183 C189 1.429 . S
C184 C176 1.574 . S
C184 H179 0.949 . S
C184 C190 1.368 1_455 S
C185 C169 1.349 . S
C185 H177 0.950 . S
C185 C183 1.327 . S
C186 C174 1.349 . S
C186 H180 0.950 . S
C186 C187 1.327 . S
C187 H181 0.950 . S
C187 C186 1.327 . S
C187 C191 1.429 . S
C188 C171 1.574 . S
C188 H182 0.949 . S
C188 C192 1.368 1_655 S
C189 C170 1.429 . S
C189 C183 1.429 . S
C189 C190 1.523 . S
C190 C171 1.368 . S
C190 C184 1.368 1_655 S
C190 C189 1.523 . S
C191 C175 1.429 . S
C191 C187 1.429 . S
C191 C192 1.523 . S
C192 C176 1.368 . S
C192 C188 1.368 1_455 S
C192 C191 1.523 . S
H193 C168 0.950 . S
H194 C170 0.950 . S
H195 C171 0.949 . S
H196 C173 0.950 . S
H197 C175 0.950 . S
C198 C199 1.349 . S
C198 C200 1.327 . S
C198 H223 0.950 . S
C199 C198 1.349 . S
C199 C215 1.349 . S
C200 C198 1.327 . S
C200 C219 1.429 . S
C200 H224 0.950 . S
C201 C218 1.574 . S
C201 C220 1.368 . S
C201 H225 0.949 . S
H202 C206 0.949 . S
C203 C204 1.349 . S
C203 C205 1.327 . S
C203 H226 0.950 . S
C204 C203 1.349 . S
C204 C216 1.349 . S
C205 C203 1.327 . S
C205 C221 1.429 . S
C205 H227 0.950 . S
C206 H202 0.949 . S
C206 C214 1.574 . S
C206 C222 1.368 . S
H207 C215 0.950 . S
H208 C213 0.950 . S
H209 C214 0.949 . S
H210 C216 0.950 . S
H211 C217 0.950 . S
H212 C218 0.949 . S
C213 H208 0.950 . S
C213 C215 1.327 . S
C213 C219 1.429 . S
C214 C206 1.574 . S
C214 H209 0.949 . S
C214 C220 1.368 1_655 S
C215 C199 1.349 . S
C215 H207 0.950 . S
C215 C213 1.327 . S
C216 C204 1.349 . S
C216 H210 0.950 . S
C216 C217 1.327 . S
C217 H211 0.950 . S
C217 C216 1.327 . S
C217 C221 1.429 . S
C218 C201 1.574 . S
C218 H212 0.949 . S
C218 C222 1.368 1_455 S
C219 C200 1.429 . S
C219 C213 1.429 . S
C219 C220 1.523 . S
C220 C201 1.368 . S
C220 C214 1.368 1_455 S
C220 C219 1.523 . S
C221 C205 1.429 . S
C221 C217 1.429 . S
C221 C222 1.523 . S
C222 C206 1.368 . S
C222 C218 1.368 1_655 S
C222 C221 1.523 . S
H223 C198 0.950 . S
H224 C200 0.950 . S
H225 C201 0.949 . S
H226 C203 0.950 . S
H227 C205 0.950 . S
C228 C229 1.349 . S
C228 C230 1.327 . S
C228 H253 0.950 . S
C229 C228 1.349 . S
C229 C245 1.349 . S
C230 C228 1.327 . S
C230 C249 1.429 . S
C230 H254 0.950 . S
C231 C248 1.574 . S
C231 C250 1.368 . S
C231 H255 0.949 . S
H232 C236 0.949 . S
C233 C234 1.349 . S
C233 C235 1.327 . S
C233 H256 0.950 . S
C234 C233 1.349 . S
C234 C246 1.349 . S
C235 C233 1.327 . S
C235 C251 1.429 . S
C235 H257 0.950 . S
C236 H232 0.949 . S
C236 C244 1.574 . S
C236 C252 1.368 . S
H237 C245 0.950 . S
H238 C243 0.950 . S
H239 C244 0.949 . S
H240 C246 0.950 . S
H241 C247 0.950 . S
H242 C248 0.949 . S
C243 H238 0.950 . S
C243 C245 1.327 . S
C243 C249 1.429 . S
C244 C236 1.574 . S
C244 H239 0.949 . S
C244 C250 1.368 1_545 S
C245 C229 1.349 . S
C245 H237 0.950 . S
C245 C243 1.327 . S
C246 C234 1.349 . S
C246 H240 0.950 . S
C246 C247 1.327 . S
C247 H241 0.950 . S
C247 C246 1.327 . S
C247 C251 1.429 . S
C248 C231 1.574 . S
C248 H242 0.949 . S
C248 C252 1.368 1_565 S
C249 C230 1.429 . S
C249 C243 1.429 . S
C249 C250 1.523 . S
C250 C231 1.368 . S
C250 C244 1.368 1_565 S
C250 C249 1.523 . S
C251 C235 1.429 . S
C251 C247 1.429 . S
C251 C252 1.523 . S
C252 C236 1.368 . S
C252 C248 1.368 1_545 S
C252 C251 1.523 . S
H253 C228 0.950 . S
H254 C230 0.950 . S
H255 C231 0.949 . S
H256 C233 0.950 . S
H257 C235 0.950 . S
C258 C259 1.349 . S
C258 C260 1.327 . S
C258 H283 0.950 . S
C259 C258 1.349 . S
C259 C275 1.349 . S
C260 C258 1.327 . S
C260 C279 1.429 . S
C260 H284 0.950 . S
C261 C278 1.574 . S
C261 C280 1.368 . S
C261 H285 0.949 . S
H262 C266 0.949 . S
C263 C264 1.349 . S
C263 C265 1.327 . S
C263 H286 0.950 . S
C264 C263 1.349 . S
C264 C276 1.349 . S
C265 C263 1.327 . S
C265 C281 1.429 . S
C265 H287 0.950 . S
C266 H262 0.949 . S
C266 C274 1.574 . S
C266 C282 1.368 . S
H267 C275 0.950 . S
H268 C273 0.950 . S
H269 C274 0.949 . S
H270 C276 0.950 . S
H271 C277 0.950 . S
H272 C278 0.949 . S
C273 H268 0.950 . S
C273 C275 1.327 . S
C273 C279 1.429 . S
C274 C266 1.574 . S
C274 H269 0.949 . S
C274 C280 1.368 1_545 S
C275 C259 1.349 . S
C275 H267 0.950 . S
C275 C273 1.327 . S
C276 C264 1.349 . S
C276 H270 0.950 . S
C276 C277 1.327 . S
C277 H271 0.950 . S
C277 C276 1.327 . S
C277 C281 1.429 . S
C278 C261 1.574 . S
C278 H272 0.949 . S
C278 C282 1.368 1_565 S
C279 C260 1.429 . S
C279 C273 1.429 . S
C279 C280 1.523 . S
C280 C261 1.368 . S
C280 C274 1.368 1_565 S
C280 C279 1.523 . S
C281 C265 1.429 . S
C281 C277 1.429 . S
C281 C282 1.523 . S
C282 C266 1.368 . S
C282 C278 1.368 1_545 S
C282 C281 1.523 . S
H283 C258 0.950 . S
H284 C260 0.950 . S
H285 C261 0.949 . S
H286 C263 0.950 . S
H287 C265 0.950 . S
C288 C289 1.349 . S
C288 C290 1.327 . S
C288 H313 0.950 . S
C289 C288 1.349 . S
C289 C305 1.349 . S
C290 C288 1.327 . S
C290 C309 1.429 . S
C290 H314 0.950 . S
C291 C308 1.574 . S
C291 C310 1.368 1_554 S
C291 H315 0.949 . S
H292 C296 0.949 . S
C293 C294 1.349 . S
C293 C295 1.327 . S
C293 H316 0.950 . S
C294 C293 1.349 . S
C294 C306 1.349 . S
C295 C293 1.327 . S
C295 C311 1.429 . S
C295 H317 0.950 . S
C296 H292 0.949 . S
C296 C304 1.574 . S
C296 C312 1.368 1_556 S
H297 C305 0.950 . S
H298 C303 0.950 . S
H299 C304 0.949 . S
H300 C306 0.950 . S
H301 C307 0.950 . S
H302 C308 0.949 . S
C303 H298 0.950 . S
C303 C305 1.327 . S
C303 C309 1.429 . S
C304 C296 1.574 . S
C304 H299 0.949 . S
C304 C310 1.368 . S
C305 C289 1.349 . S
C305 H297 0.950 . S
C305 C303 1.327 . S
C306 C294 1.349 . S
C306 H300 0.950 . S
C306 C307 1.327 . S
C307 H301 0.950 . S
C307 C306 1.327 . S
C307 C311 1.429 . S
C308 C291 1.574 . S
C308 H302 0.949 . S
C308 C312 1.368 . S
C309 C290 1.429 . S
C309 C303 1.429 . S
C309 C310 1.523 . S
C310 C291 1.368 1_556 S
C310 C304 1.368 . S
C310 C309 1.523 . S
C311 C295 1.429 . S
C311 C307 1.429 . S
C311 C312 1.523 . S
C312 C296 1.368 1_554 S
C312 C308 1.368 . S
C312 C311 1.523 . S
H313 C288 0.950 . S
H314 C290 0.950 . S
H315 C291 0.949 . S
H316 C293 0.950 . S
H317 C295 0.950 . S
C318 C319 1.349 . S
C318 C320 1.327 . S
C318 H343 0.950 . S
C319 C318 1.349 . S
C319 C335 1.349 . S
C320 C318 1.327 . S
C320 C339 1.429 . S
C320 H344 0.950 . S
C321 C338 1.574 . S
C321 C340 1.368 . S
C321 H345 0.949 . S
H322 C326 0.949 . S
C323 C324 1.349 . S
C323 C325 1.327 . S
C323 H346 0.950 . S
C324 C323 1.349 . S
C324 C336 1.349 . S
C325 C323 1.327 . S
C325 C341 1.429 . S
C325 H347 0.950 . S
C326 H322 0.949 . S
C326 C334 1.574 . S
C326 C342 1.368 . S
H327 C335 0.950 . S
H328 C333 0.950 . S
H329 C334 0.949 . S
H330 C336 0.950 . S
H331 C337 0.950 . S
H332 C338 0.949 . S
C333 H328 0.950 . S
C333 C335 1.327 . S
C333 C339 1.429 . S
C334 C326 1.574 . S
C334 H329 0.949 . S
C334 C340 1.368 1_554 S
C335 C319 1.349 . S
C335 H327 0.950 . S
C335 C333 1.327 . S
C336 C324 1.349 . S
C336 H330 0.950 . S
C336 C337 1.327 . S
C337 H331 0.950 . S
C337 C336 1.327 . S
C337 C341 1.429 . S
C338 C321 1.574 . S
C338 H332 0.949 . S
C338 C342 1.368 1_556 S
C339 C320 1.429 . S
C339 C333 1.429 . S
C339 C340 1.523 . S
C340 C321 1.368 . S
C340 C334 1.368 1_556 S
C340 C339 1.523 . S
C341 C325 1.429 . S
C341 C337 1.429 . S
C341 C342 1.523 . S
C342 C326 1.368 . S
C342 C338 1.368 1_554 S
C342 C341 1.523 . S
H343 C318 0.950 . S
H344 C320 0.950 . S
H345 C321 0.949 . S
H346 C323 0.950 . S
H347 C325 0.950 . S
C348 C349 1.349 . S
C348 C350 1.327 . S
C348 H373 0.950 . S
C349 C348 1.349 . S
C349 C365 1.349 . S
C350 C348 1.327 . S
C350 C369 1.429 . S
C350 H374 0.950 . S
C351 C368 1.574 . S
C351 C370 1.368 . S
C351 H375 0.949 . S
H352 C356 0.949 . S
C353 C354 1.349 . S
C353 C355 1.327 . S
C353 H376 0.950 . S
C354 C353 1.349 . S
C354 C366 1.349 . S
C355 C353 1.327 . S
C355 C371 1.429 . S
C355 H377 0.950 . S
C356 H352 0.949 . S
C356 C364 1.574 . S
C356 C372 1.368 . S
H357 C365 0.950 . S
H358 C363 0.950 . S
H359 C364 0.949 . S
H360 C366 0.950 . S
H361 C367 0.950 . S
H362 C368 0.949 . S
C363 H358 0.950 . S
C363 C365 1.327 . S
C363 C369 1.429 . S
C364 C356 1.574 . S
C364 H359 0.949 . S
C364 C370 1.368 . S
C365 C349 1.349 . S
C365 H357 0.950 . S
C365 C363 1.327 . S
C366 C354 1.349 . S
C366 H360 0.950 . S
C366 C367 1.327 . S
C367 H361 0.950 . S
C367 C366 1.327 . S
C367 C371 1.429 . S
C368 C351 1.574 . S
C368 H362 0.949 . S
C368 C372 1.368 . S
C369 C350 1.429 . S
C369 C363 1.429 . S
C369 C370 1.523 . S
C370 C351 1.368 . S
C370 C364 1.368 . S
C370 C369 1.523 . S
C371 C355 1.429 . S
C371 C367 1.429 . S
C371 C372 1.523 . S
C372 C356 1.368 . S
C372 C368 1.368 . S
C372 C371 1.523 . S
H373 C348 0.950 . S
H374 C350 0.950 . S
H375 C351 0.949 . S
H376 C353 0.950 . S
H377 C355 0.950 . S
C378 C379 1.349 . S
C378 C380 1.327 . S
C378 H403 0.950 . S
C379 C378 1.349 . S
C379 C395 1.349 . S
C380 C378 1.327 . S
C380 C399 1.429 . S
C380 H404 0.950 . S
C381 C398 1.574 . S
C381 C400 1.368 . S
C381 H405 0.949 . S
H382 C386 0.949 . S
C383 C384 1.349 . S
C383 C385 1.327 . S
C383 H406 0.950 . S
C384 C383 1.349 . S
C384 C396 1.349 . S
C385 C383 1.327 . S
C385 C401 1.429 . S
C385 H407 0.950 . S
C386 H382 0.949 . S
C386 C394 1.574 . S
C386 C402 1.368 . S
H387 C395 0.950 . S
H388 C393 0.950 . S
H389 C394 0.949 . S
H390 C396 0.950 . S
H391 C397 0.950 . S
H392 C398 0.949 . S
C393 H388 0.950 . S
C393 C395 1.327 . S
C393 C399 1.429 . S
C394 C386 1.574 . S
C394 H389 0.949 . S
C394 C400 1.368 . S
C395 C379 1.349 . S
C395 H387 0.950 . S
C395 C393 1.327 . S
C396 C384 1.349 . S
C396 H390 0.950 . S
C396 C397 1.327 . S
C397 H391 0.950 . S
C397 C396 1.327 . S
C397 C401 1.429 . S
C398 C381 1.574 . S
C398 H392 0.949 . S
C398 C402 1.368 . S
C399 C380 1.429 . S
C399 C393 1.429 . S
C399 C400 1.523 . S
C400 C381 1.368 . S
C400 C394 1.368 . S
C400 C399 1.523 . S
C401 C385 1.429 . S
C401 C397 1.429 . S
C401 C402 1.523 . S
C402 C386 1.368 . S
C402 C398 1.368 . S
C402 C401 1.523 . S
H403 C378 0.950 . S
H404 C380 0.950 . S
H405 C381 0.949 . S
H406 C383 0.950 . S
H407 C385 0.950 . S
C408 C409 1.349 . S
C408 C410 1.327 . S
C408 H433 0.950 . S
C409 C408 1.349 . S
C409 C425 1.349 . S
C410 C408 1.327 . S
C410 C429 1.429 . S
C410 H434 0.950 . S
C411 C428 1.574 . S
C411 C430 1.368 . S
C411 H435 0.949 . S
H412 C416 0.949 . S
C413 C414 1.349 . S
C413 C415 1.327 . S
C413 H436 0.950 . S
C414 C413 1.349 . S
C414 C426 1.349 . S
C415 C413 1.327 . S
C415 C431 1.429 . S
C415 H437 0.950 . S
C416 H412 0.949 . S
C416 C424 1.574 . S
C416 C432 1.368 . S
H417 C425 0.950 . S
H418 C423 0.950 . S
H419 C424 0.949 . S
H420 C426 0.950 . S
H421 C427 0.950 . S
H422 C428 0.949 . S
C423 H418 0.950 . S
C423 C425 1.327 . S
C423 C429 1.429 . S
C424 C416 1.574 . S
C424 H419 0.949 . S
C424 C430 1.368 . S
C425 C409 1.349 . S
C425 H417 0.950 . S
C425 C423 1.327 . S
C426 C414 1.349 . S
C426 H420 0.950 . S
C426 C427 1.327 . S
C427 H421 0.950 . S
C427 C426 1.327 . S
C427 C431 1.429 . S
C428 C411 1.574 . S
C428 H422 0.949 . S
C428 C432 1.368 . S
C429 C410 1.429 . S
C429 C423 1.429 . S
C429 C430 1.523 . S
C430 C411 1.368 . S
C430 C424 1.368 . S
C430 C429 1.523 . S
C431 C415 1.429 . S
C431 C427 1.429 . S
C431 C432 1.523 . S
C432 C416 1.368 . S
C432 C428 1.368 . S
C432 C431 1.523 . S
H433 C408 0.950 . S
H434 C410 0.950 . S
H435 C411 0.949 . S
H436 C413 0.950 . S
H437 C415 0.950 . S
C438 C439 1.349 . S
C438 C440 1.327 . S
C438 H463 0.950 . S
C439 C438 1.349 . S
C439 C455 1.349 . S
C440 C438 1.327 . S
C440 C459 1.429 . S
C440 H464 0.950 . S
C441 C458 1.574 . S
C441 C460 1.368 . S
C441 H465 0.949 . S
H442 C446 0.949 . S
C443 C444 1.349 . S
C443 C445 1.327 . S
C443 H466 0.950 . S
C444 C443 1.349 . S
C444 C456 1.349 . S
C445 C443 1.327 . S
C445 C461 1.429 . S
C445 H467 0.950 . S
C446 H442 0.949 . S
C446 C454 1.574 . S
C446 C462 1.368 . S
H447 C455 0.950 . S
H448 C453 0.950 . S
H449 C454 0.949 . S
H450 C456 0.950 . S
H451 C457 0.950 . S
H452 C458 0.949 . S
C453 H448 0.950 . S
C453 C455 1.327 . S
C453 C459 1.429 . S
C454 C446 1.574 . S
C454 H449 0.949 . S
C454 C460 1.368 . S
C455 C439 1.349 . S
C455 H447 0.950 . S
C455 C453 1.327 . S
C456 C444 1.349 . S
C456 H450 0.950 . S
C456 C457 1.327 . S
C457 H451 0.950 . S
C457 C456 1.327 . S
C457 C461 1.429 . S
C458 C441 1.574 . S
C458 H452 0.949 . S
C458 C462 1.368 . S
C459 C440 1.429 . S
C459 C453 1.429 . S
C459 C460 1.523 . S
C460 C441 1.368 . S
C460 C454 1.368 . S
C460 C459 1.523 . S
C461 C445 1.429 . S
C461 C457 1.429 . S
C461 C462 1.523 . S
C462 C446 1.368 . S
C462 C458 1.368 . S
C462 C461 1.523 . S
H463 C438 0.950 . S
H464 C440 0.950 . S
H465 C441 0.949 . S
H466 C443 0.950 . S
H467 C445 0.950 . S
C468 C469 1.349 . S
C468 C470 1.327 . S
C468 H493 0.950 . S
C469 C468 1.349 . S
C469 C485 1.349 . S
C470 C468 1.327 . S
C470 C489 1.429 . S
C470 H494 0.950 . S
C471 C488 1.574 . S
C471 C490 1.368 . S
C471 H495 0.949 . S
H472 C476 0.949 . S
C473 C474 1.349 . S
C473 C475 1.327 . S
C473 H496 0.950 . S
C474 C473 1.349 . S
C474 C486 1.349 . S
C475 C473 1.327 . S
C475 C491 1.429 . S
C475 H497 0.950 . S
C476 H472 0.949 . S
C476 C484 1.574 . S
C476 C492 1.368 . S
H477 C485 0.950 . S
H478 C483 0.950 . S
H479 C484 0.949 . S
H480 C486 0.950 . S
H481 C487 0.950 . S
H482 C488 0.949 . S
C483 H478 0.950 . S
C483 C485 1.327 . S
C483 C489 1.429 . S
C484 C476 1.574 . S
C484 H479 0.949 . S
C484 C490 1.368 . S
C485 C469 1.349 . S
C485 H477 0.950 . S
C485 C483 1.327 . S
C486 C474 1.349 . S
C486 H480 0.950 . S
C486 C487 1.327 . S
C487 H481 0.950 . S
C487 C486 1.327 . S
C487 C491 1.429 . S
C488 C471 1.574 . S
C488 H482 0.949 . S
C488 C492 1.368 . S
C489 C470 1.429 . S
C489 C483 1.429 . S
C489 C490 1.523 . S
C490 C471 1.368 . S
C490 C484 1.368 . S
C490 C489 1.523 . S
C491 C475 1.429 . S
C491 C487 1.429 . S
C491 C492 1.523 . S
C492 C476 1.368 . S
C492 C488 1.368 . S
C492 C491 1.523 . S
H493 C468 0.950 . S
H494 C470 0.950 . S
H495 C471 0.949 . S
H496 C473 0.950 . S
H497 C475 0.950 . S
C498 C499 1.349 . S
C498 C500 1.327 . S
C498 H523 0.950 . S
C499 C498 1.349 . S
C499 C515 1.349 . S
C500 C498 1.327 . S
C500 C519 1.429 . S
C500 H524 0.950 . S
C501 C518 1.574 . S
C501 C520 1.368 . S
C501 H525 0.949 . S
H502 C506 0.949 . S
C503 C504 1.349 . S
C503 C505 1.327 . S
C503 H526 0.950 . S
C504 C503 1.349 . S
C504 C516 1.349 . S
C505 C503 1.327 . S
C505 C521 1.429 . S
C505 H527 0.950 . S
C506 H502 0.949 . S
C506 C514 1.574 . S
C506 C522 1.368 . S
H507 C515 0.950 . S
H508 C513 0.950 . S
H509 C514 0.949 . S
H510 C516 0.950 . S
H511 C517 0.950 . S
H512 C518 0.949 . S
C513 H508 0.950 . S
C513 C515 1.327 . S
C513 C519 1.429 . S
C514 C506 1.574 . S
C514 H509 0.949 . S
C514 C520 1.368 . S
C515 C499 1.349 . S
C515 H507 0.950 . S
C515 C513 1.327 . S
C516 C504 1.349 . S
C516 H510 0.950 . S
C516 C517 1.327 . S
C517 H511 0.950 . S
C517 C516 1.327 . S
C517 C521 1.429 . S
C518 C501 1.574 . S
C518 H512 0.949 . S
C518 C522 1.368 . S
C519 C500 1.429 . S
C519 C513 1.429 . S
C519 C520 1.523 . S
C520 C501 1.368 . S
C520 C514 1.368 . S
C520 C519 1.523 . S
C521 C505 1.429 . S
C521 C517 1.429 . S
C521 C522 1.523 . S
C522 C506 1.368 . S
C522 C518 1.368 . S
C522 C521 1.523 . S
H523 C498 0.950 . S
H524 C500 0.950 . S
H525 C501 0.949 . S
H526 C503 0.950 . S
H527 C505 0.950 . S
C528 C529 1.349 . S
C528 C530 1.327 . S
C528 H553 0.950 . S
C529 C528 1.349 . S
C529 C545 1.349 . S
C530 C528 1.327 . S
C530 C549 1.429 . S
C530 H554 0.950 . S
C531 C548 1.574 . S
C531 C550 1.368 . S
C531 H555 0.949 . S
H532 C536 0.949 . S
C533 C534 1.349 . S
C533 C535 1.327 . S
C533 H556 0.950 . S
C534 C533 1.349 . S
C534 C546 1.349 . S
C535 C533 1.327 . S
C535 C551 1.429 . S
C535 H557 0.950 . S
C536 H532 0.949 . S
C536 C544 1.574 . S
C536 C552 1.368 . S
H537 C545 0.950 . S
H538 C543 0.950 . S
H539 C544 0.949 . S
H540 C546 0.950 . S
H541 C547 0.950 . S
H542 C548 0.949 . S
C543 H538 0.950 . S
C543 C545 1.327 . S
C543 C549 1.429 . S
C544 C536 1.574 . S
C544 H539 0.949 . S
C544 C550 1.368 . S
C545 C529 1.349 . S
C545 H537 0.950 . S
C545 C543 1.327 . S
C546 C534 1.349 . S
C546 H540 0.950 . S
C546 C547 1.327 . S
C547 H541 0.950 . S
C547 C546 1.327 . S
C547 C551 1.429 . S
C548 C531 1.574 . S
C548 H542 0.949 . S
C548 C552 1.368 . S
C549 C530 1.429 . S
C549 C543 1.429 . S
C549 C550 1.523 . S
C550 C531 1.368 . S
C550 C544 1.368 . S
C550 C549 1.523 . S
C551 C535 1.429 . S
C551 C547 1.429 . S
C551 C552 1.523 . S
C552 C536 1.368 . S
C552 C548 1.368 . S
C552 C551 1.523 . S
H553 C528 0.950 . S
H554 C530 0.950 . S
H555 C531 0.949 . S
H556 C533 0.950 . S
H557 C535 0.950 . S
C558 C559 1.349 . S
C558 C560 1.327 . S
C558 H583 0.950 . S
C559 C558 1.349 . S
C559 C575 1.349 . S
C560 C558 1.327 . S
C560 C579 1.429 . S
C560 H584 0.950 . S
C561 C578 1.574 . S
C561 C580 1.368 . S
C561 H585 0.949 . S
H562 C566 0.949 . S
C563 C564 1.349 . S
C563 C565 1.327 . S
C563 H586 0.950 . S
C564 C563 1.349 . S
C564 C576 1.349 . S
C565 C563 1.327 . S
C565 C581 1.429 . S
C565 H587 0.950 . S
C566 H562 0.949 . S
C566 C574 1.574 . S
C566 C582 1.368 . S
H567 C575 0.950 . S
H568 C573 0.950 . S
H569 C574 0.949 . S
H570 C576 0.950 . S
H571 C577 0.950 . S
H572 C578 0.949 . S
C573 H568 0.950 . S
C573 C575 1.327 . S
C573 C579 1.429 . S
C574 C566 1.574 . S
C574 H569 0.949 . S
C574 C580 1.368 . S
C575 C559 1.349 . S
C575 H567 0.950 . S
C575 C573 1.327 . S
C576 C564 1.349 . S
C576 H570 0.950 . S
C576 C577 1.327 . S
C577 H571 0.950 . S
C577 C576 1.327 . S
C577 C581 1.429 . S
C578 C561 1.574 . S
C578 H572 0.949 . S
C578 C582 1.368 . S
C579 C560 1.429 . S
C579 C573 1.429 . S
C579 C580 1.523 . S
C580 C561 1.368 . S
C580 C574 1.368 . S
C580 C579 1.523 . S
C581 C565 1.429 . S
C581 C577 1.429 . S
C581 C582 1.523 . S
C582 C566 1.368 . S
C582 C578 1.368 . S
C582 C581 1.523 . S
H583 C558 0.950 . S
H584 C560 0.950 . S
H585 C561 0.949 . S
H586 C563 0.950 . S
H587 C565 0.950 . S
C588 C589 1.349 . S
C588 C590 1.327 . S
C588 H613 0.950 . S
C589 C588 1.349 . S
C589 C605 1.349 . S
C590 C588 1.327 . S
C590 C609 1.429 . S
C590 H614 0.950 . S
C591 C608 1.574 . S
C591 C610 1.368 . S
C591 H615 0.949 . S
H592 C596 0.949 . S
C593 C594 1.349 . S
C593 C595 1.327 . S
C593 H616 0.950 . S
C594 C593 1.349 . S
C594 C606 1.349 . S
C595 C593 1.327 . S
C595 C611 1.429 . S
C595 H617 0.950 . S
C596 H592 0.949 . S
C596 C604 1.574 . S
C596 C612 1.368 . S
H597 C605 0.950 . S
H598 C603 0.950 . S
H599 C604 0.949 . S
H600 C606 0.950 . S
H601 C607 0.950 . S
H602 C608 0.949 . S
C603 H598 0.950 . S
C603 C605 1.327 . S
C603 C609 1.429 . S
C604 C596 1.574 . S
C604 H599 0.949 . S
C604 C610 1.368 . S
C605 C589 1.349 . S
C605 H597 0.950 . S
C605 C603 1.327 . S
C606 C594 1.349 . S
C606 H600 0.950 . S
C606 C607 1.327 . S
C607 H601 0.950 . S
C607 C606 1.327 . S
C607 C611 1.429 . S
C608 C591 1.574 . S
C608 H602 0.949 . S
C608 C612 1.368 . S
C609 C590 1.429 . S
C609 C603 1.429 . S
C609 C610 1.523 . S
C610 C591 1.368 . S
C610 C604 1.368 . S
C610 C609 1.523 . S
C611 C595 1.429 . S
C611 C607 1.429 . S
C611 C612 1.523 . S
C612 C596 1.368 . S
C612 C608 1.368 . S
C612 C611 1.523 . S
H613 C588 0.950 . S
H614 C590 0.950 . S
H615 C591 0.949 . S
H616 C593 0.950 . S
H617 C595 0.950 . S
C618 C619 1.349 . S
C618 C620 1.327 . S
C618 H643 0.950 . S
C619 C618 1.349 . S
C619 C635 1.349 . S
C620 C618 1.327 . S
C620 C639 1.429 . S
C620 H644 0.950 . S
C621 C638 1.574 . S
C621 C640 1.368 . S
C621 H645 0.949 . S
H622 C626 0.949 . S
C623 C624 1.349 . S
C623 C625 1.327 . S
C623 H646 0.950 . S
C624 C623 1.349 . S
C624 C636 1.349 . S
C625 C623 1.327 . S
C625 C641 1.429 . S
C625 H647 0.950 . S
C626 H622 0.949 . S
C626 C634 1.574 . S
C626 C642 1.368 . S
H627 C635 0.950 . S
H628 C633 0.950 . S
H629 C634 0.949 . S
H630 C636 0.950 . S
H631 C637 0.950 . S
H632 C638 0.949 . S
C633 H628 0.950 . S
C633 C635 1.327 . S
C633 C639 1.429 . S
C634 C626 1.574 . S
C634 H629 0.949 . S
C634 C640 1.368 . S
C635 C619 1.349 . S
C635 H627 0.950 . S
C635 C633 1.327 . S
C636 C624 1.349 . S
C636 H630 0.950 . S
C636 C637 1.327 . S
C637 H631 0.950 . S
C637 C636 1.327 . S
C637 C641 1.429 . S
C638 C621 1.574 . S
C638 H632 0.949 . S
C638 C642 1.368 . S
C639 C620 1.429 . S
C639 C633 1.429 . S
C639 C640 1.523 . S
C640 C621 1.368 . S
C640 C634 1.368 . S
C640 C639 1.523 . S
C641 C625 1.429 . S
C641 C637 1.429 . S
C641 C642 1.523 . S
C642 C626 1.368 . S
C642 C638 1.368 . S
C642 C641 1.523 . S
H643 C618 0.950 . S
H644 C620 0.950 . S
H645 C621 0.949 . S
H646 C623 0.950 . S
H647 C625 0.950 . S
C648 C649 1.349 . S
C648 C650 1.327 . S
C648 H673 0.950 . S
C649 C648 1.349 . S
C649 C665 1.349 . S
C650 C648 1.327 . S
C650 C669 1.429 . S
C650 H674 0.950 . S
C651 C668 1.574 . S
C651 C670 1.368 . S
C651 H675 0.949 . S
H652 C656 0.949 . S
C653 C654 1.349 . S
C653 C655 1.327 . S
C653 H676 0.950 . S
C654 C653 1.349 . S
C654 C666 1.349 . S
C655 C653 1.327 . S
C655 C671 1.429 . S
C655 H677 0.950 . S
C656 H652 0.949 . S
C656 C664 1.574 . S
C656 C672 1.368 . S
H657 C665 0.950 . S
H658 C663 0.950 . S
H659 C664 0.949 . S
H660 C666 0.950 . S
H661 C667 0.950 . S
H662 C668 0.949 . S
C663 H658 0.950 . S
C663 C665 1.327 . S
C663 C669 1.429 . S
C664 C656 1.574 . S
C664 H659 0.949 . S
C664 C670 1.368 . S
C665 C649 1.349 . S
C665 H657 0.950 . S
C665 C663 1.327 . S
C666 C654 1.349 . S
C666 H660 0.950 . S
C666 C667 1.327 . S
C667 H661 0.950 . S
C667 C666 1.327 . S
C667 C671 1.429 . S
C668 C651 1.574 . S
C668 H662 0.949 . S
C668 C672 1.368 . S
C669 C650 1.429 . S
C669 C663 1.429 . S
C669 C670 1.523 . S
C670 C651 1.368 . S
C670 C664 1.368 . S
C670 C669 1.523 . S
C671 C655 1.429 . S
C671 C667 1.429 . S
C671 C672 1.523 . S
C672 C656 1.368 . S
C672 C668 1.368 . S
C672 C671 1.523 . S
H673 C648 0.950 . S
H674 C650 0.950 . S
H675 C651 0.949 . S
H676 C653 0.950 . S
H677 C655 0.950 . S
C678 C679 1.349 . S
C678 C680 1.327 . S
C678 H703 0.950 . S
C679 C678 1.349 . S
C679 C695 1.349 . S
C680 C678 1.327 . S
C680 C699 1.429 . S
C680 H704 0.950 . S
C681 C698 1.574 . S
C681 C700 1.368 . S
C681 H705 0.949 . S
H682 C686 0.949 . S
C683 C684 1.349 . S
C683 C685 1.327 . S
C683 H706 0.950 . S
C684 C683 1.349 . S
C684 C696 1.349 . S
C685 C683 1.327 . S
C685 C701 1.429 . S
C685 H707 0.950 . S
C686 H682 0.949 . S
C686 C694 1.574 . S
C686 C702 1.368 . S
H687 C695 0.950 . S
H688 C693 0.950 . S
H689 C694 0.949 . S
H690 C696 0.950 . S
H691 C697 0.950 . S
H692 C698 0.949 . S
C693 H688 0.950 . S
C693 C695 1.327 . S
C693 C699 1.429 . S
C694 C686 1.574 . S
C694 H689 0.949 . S
C694 C700 1.368 . S
C695 C679 1.349 . S
C695 H687 0.950 . S
C695 C693 1.327 . S
C696 C684 1.349 . S
C696 H690 0.950 . S
C696 C697 1.327 . S
C697 H691 0.950 . S
C697 C696 1.327 . S
C697 C701 1.429 . S
C698 C681 1.574 . S
C698 H692 0.949 . S
C698 C702 1.368 . S
C699 C680 1.429 . S
C699 C693 1.429 . S
C699 C700 1.523 . S
C700 C681 1.368 . S
C700 C694 1.368 . S
C700 C699 1.523 . S
C701 C685 1.429 . S
C701 C697 1.429 . S
C701 C702 1.523 . S
C702 C686 1.368 . S
C702 C698 1.368 . S
C702 C701 1.523 . S
H703 C678 0.950 . S
H704 C680 0.950 . S
H705 C681 0.949 . S
H706 C683 0.950 . S
H707 C685 0.950 . S
C708 C709 1.349 . S
C708 C710 1.327 . S
C708 H733 0.950 . S
C709 C708 1.349 . S
C709 C725 1.349 . S
C710 C708 1.327 . S
C710 C729 1.429 . S
C710 H734 0.950 . S
C711 C728 1.574 1_545 S
C711 C730 1.368 1_655 S
C711 H735 0.949 . S
H712 C716 0.949 . S
C713 C714 1.349 . S
C713 C715 1.327 . S
C713 H736 0.950 . S
C714 C713 1.349 . S
C714 C726 1.349 . S
C715 C713 1.327 . S
C715 C731 1.429 . S
C715 H737 0.950 . S
C716 H712 0.949 . S
C716 C724 1.574 1_565 S
C716 C732 1.368 1_455 S
H717 C725 0.950 . S
H718 C723 0.950 . S
H719 C724 0.949 . S
H720 C726 0.950 . S
H721 C727 0.950 . S
H722 C728 0.949 . S
C723 H718 0.950 . S
C723 C725 1.327 . S
C723 C729 1.429 . S
C724 C716 1.574 1_545 S
C724 H719 0.949 . S
C724 C730 1.368 . S
C725 C709 1.349 . S
C725 H717 0.950 . S
C725 C723 1.327 . S
C726 C714 1.349 . S
C726 H720 0.950 . S
C726 C727 1.327 . S
C727 H721 0.950 . S
C727 C726 1.327 . S
C727 C731 1.429 . S
C728 C711 1.574 1_565 S
C728 H722 0.949 . S
C728 C732 1.368 . S
C729 C710 1.429 . S
C729 C723 1.429 . S
C729 C730 1.523 . S
C730 C711 1.368 1_455 S
C730 C724 1.368 . S
C730 C729 1.523 . S
C731 C715 1.429 . S
C731 C727 1.429 . S
C731 C732 1.523 . S
C732 C716 1.368 1_655 S
C732 C728 1.368 . S
C732 C731 1.523 . S
H733 C708 0.950 . S
H734 C710 0.950 . S
H735 C711 0.949 . S
H736 C713 0.950 . S
H737 C715 0.950 . S
C738 C739 1.349 . S
C738 C740 1.327 . S
C738 H763 0.950 . S
C739 C738 1.349 . S
C739 C755 1.349 . S
C740 C738 1.327 . S
C740 C759 1.429 . S
C740 H764 0.950 . S
C741 C758 1.574 1_545 S
C741 C760 1.368 . S
C741 H765 0.949 . S
H742 C746 0.949 . S
C743 C744 1.349 . S
C743 C745 1.327 . S
C743 H766 0.950 . S
C744 C743 1.349 . S
C744 C756 1.349 . S
C745 C743 1.327 . S
C745 C761 1.429 . S
C745 H767 0.950 . S
C746 H742 0.949 . S
C746 C754 1.574 1_565 S
C746 C762 1.368 . S
H747 C755 0.950 . S
H748 C753 0.950 . S
H749 C754 0.949 . S
H750 C756 0.950 . S
H751 C757 0.950 . S
H752 C758 0.949 . S
C753 H748 0.950 . S
C753 C755 1.327 . S
C753 C759 1.429 . S
C754 C746 1.574 1_545 S
C754 H749 0.949 . S
C754 C760 1.368 1_455 S
C755 C739 1.349 . S
C755 H747 0.950 . S
C755 C753 1.327 . S
C756 C744 1.349 . S
C756 H750 0.950 . S
C756 C757 1.327 . S
C757 H751 0.950 . S
C757 C756 1.327 . S
C757 C761 1.429 . S
C758 C741 1.574 1_565 S
C758 H752 0.949 . S
C758 C762 1.368 1_655 S
C759 C740 1.429 . S
C759 C753 1.429 . S
C759 C760 1.523 . S
C760 C741 1.368 . S
C760 C754 1.368 1_655 S
C760 C759 1.523 . S
C761 C745 1.429 . S
C761 C757 1.429 . S
C761 C762 1.523 . S
C762 C746 1.368 . S
C762 C758 1.368 1_455 S
C762 C761 1.523 . S
H763 C738 0.950 . S
H764 C740 0.950 . S
H765 C741 0.949 . S
H766 C743 0.950 . S
H767 C745 0.950 . S
C768 C769 1.349 . S
C768 C770 1.327 . S
C768 H793 0.950 . S
C769 C768 1.349 . S
C769 C785 1.349 . S
C770 C768 1.327 . S
C770 C789 1.429 . S
C770 H794 0.950 . S
C771 C788 1.574 1_566 S
C771 C790 1.368 . S
C771 H795 0.949 . S
H772 C776 0.949 . S
C773 C774 1.349 . S
C773 C775 1.327 . S
C773 H796 0.950 . S
C774 C773 1.349 . S
C774 C786 1.349 . S
C775 C773 1.327 . S
C775 C791 1.429 . S
C775 H797 0.950 . S
C776 H772 0.949 . S
C776 C784 1.574 1_544 S
C776 C792 1.368 . S
H777 C785 0.950 . S
H778 C783 0.950 . S
H779 C784 0.949 . S
H780 C786 0.950 . S
H781 C787 0.950 . S
H782 C788 0.949 . S
C783 H778 0.950 . S
C783 C785 1.327 . S
C783 C789 1.429 . S
C784 C776 1.574 1_566 S
C784 H779 0.949 . S
C784 C790 1.368 . S
C785 C769 1.349 . S
C785 H777 0.950 . S
C785 C783 1.327 . S
C786 C774 1.349 . S
C786 H780 0.950 . S
C786 C787 1.327 . S
C787 H781 0.950 . S
C787 C786 1.327 . S
C787 C791 1.429 . S
C788 C771 1.574 1_544 S
C788 H782 0.949 . S
C788 C792 1.368 . S
C789 C770 1.429 . S
C789 C783 1.429 . S
C789 C790 1.523 . S
C790 C771 1.368 . S
C790 C784 1.368 . S
C790 C789 1.523 . S
C791 C775 1.429 . S
C791 C787 1.429 . S
C791 C792 1.523 . S
C792 C776 1.368 . S
C792 C788 1.368 . S
C792 C791 1.523 . S
H793 C768 0.950 . S
H794 C770 0.950 . S
H795 C771 0.949 . S
H796 C773 0.950 . S
H797 C775 0.950 . S
C798 C799 1.349 . S
C798 C800 1.327 . S
C798 H823 0.950 . S
C799 C798 1.349 . S
C799 C815 1.349 . S
C800 C798 1.327 . S
C800 C819 1.429 . S
C800 H824 0.950 1_565 S
C801 C818 1.574 1_554 S
C801 C820 1.368 . S
C801 H825 0.949 . S
H802 C806 0.949 . S
C803 C804 1.349 . S
C803 C805 1.327 . S
C803 H826 0.950 . S
C804 C803 1.349 . S
C804 C816 1.349 . S
C805 C803 1.327 . S
C805 C821 1.429 . S
C805 H827 0.950 1_545 S
C806 H802 0.949 . S
C806 C814 1.574 1_556 S
C806 C822 1.368 . S
H807 C815 0.950 . S
H808 C813 0.950 . S
H809 C814 0.949 . S
H810 C816 0.950 . S
H811 C817 0.950 . S
H812 C818 0.949 . S
C813 H808 0.950 . S
C813 C815 1.327 . S
C813 C819 1.429 . S
C814 C806 1.574 1_554 S
C814 H809 0.949 . S
C814 C820 1.368 1_545 S
C815 C799 1.349 . S
C815 H807 0.950 . S
C815 C813 1.327 . S
C816 C804 1.349 . S
C816 H810 0.950 . S
C816 C817 1.327 . S
C817 H811 0.950 . S
C817 C816 1.327 . S
C817 C821 1.429 . S
C818 C801 1.574 1_556 S
C818 H812 0.949 . S
C818 C822 1.368 1_565 S
C819 C800 1.429 . S
C819 C813 1.429 . S
C819 C820 1.523 . S
C820 C801 1.368 . S
C820 C814 1.368 1_565 S
C820 C819 1.523 . S
C821 C805 1.429 . S
C821 C817 1.429 . S
C821 C822 1.523 . S
C822 C806 1.368 . S
C822 C818 1.368 1_545 S
C822 C821 1.523 . S
H823 C798 0.950 . S
H824 C800 0.950 1_545 S
H825 C801 0.949 . S
H826 C803 0.950 . S
H827 C805 0.950 1_565 S
C828 C829 1.349 . S
C828 C830 1.327 . S
C828 H853 0.950 . S
C829 C828 1.349 . S
C829 C845 1.349 . S
C830 C828 1.327 . S
C830 C849 1.429 . S
C830 H854 0.950 . S
C831 C848 1.574 1_655 S
C831 C850 1.368 1_554 S
C831 H855 0.949 . S
H832 C836 0.949 . S
C833 C834 1.349 . S
C833 C835 1.327 . S
C833 H856 0.950 . S
C834 C833 1.349 . S
C834 C846 1.349 . S
C835 C833 1.327 . S
C835 C851 1.429 . S
C835 H857 0.950 . S
C836 H832 0.949 . S
C836 C844 1.574 1_455 S
C836 C852 1.368 1_556 S
H837 C845 0.950 . S
H838 C843 0.950 . S
H839 C844 0.949 . S
H840 C846 0.950 . S
H841 C847 0.950 . S
H842 C848 0.949 . S
C843 H838 0.950 . S
C843 C845 1.327 . S
C843 C849 1.429 . S
C844 C836 1.574 1_655 S
C844 H839 0.949 . S
C844 C850 1.368 . S
C845 C829 1.349 . S
C845 H837 0.950 . S
C845 C843 1.327 . S
C846 C834 1.349 . S
C846 H840 0.950 . S
C846 C847 1.327 . S
C847 H841 0.950 . S
C847 C846 1.327 . S
C847 C851 1.429 . S
C848 C831 1.574 1_455 S
C848 H842 0.949 . S
C848 C852 1.368 . S
C849 C830 1.429 . S
C849 C843 1.429 . S
C849 C850 1.523 . S
C850 C831 1.368 1_556 S
C850 C844 1.368 . S
C850 C849 1.523 . S
C851 C835 1.429 . S
C851 C847 1.429 . S
C851 C852 1.523 . S
C852 C836 1.368 1_554 S
C852 C848 1.368 . S
C852 C851 1.523 . S
H853 C828 0.950 . S
H854 C830 0.950 . S
H855 C831 0.949 . S
H856 C833 0.950 . S
H857 C835 0.950 . S
C858 C859 1.349 . S
C858 C860 1.327 . S
C858 H883 0.950 . S
C859 C858 1.349 . S
C859 C875 1.349 . S
C860 C858 1.327 . S
C860 C879 1.429 . S
C860 H884 0.950 . S
C861 C878 1.574 1_455 S
C861 C880 1.368 1_554 S
C861 H885 0.949 . S
H862 C866 0.949 . S
C863 C864 1.349 . S
C863 C865 1.327 . S
C863 H886 0.950 . S
C864 C863 1.349 . S
C864 C876 1.349 . S
C865 C863 1.327 . S
C865 C881 1.429 . S
C865 H887 0.950 . S
C866 H862 0.949 . S
C866 C874 1.574 1_655 S
C866 C882 1.368 1_556 S
H867 C875 0.950 . S
H868 C873 0.950 . S
H869 C874 0.949 . S
H870 C876 0.950 . S
H871 C877 0.950 . S
H872 C878 0.949 . S
C873 H868 0.950 . S
C873 C875 1.327 . S
C873 C879 1.429 . S
C874 C866 1.574 1_455 S
C874 H869 0.949 . S
C874 C880 1.368 . S
C875 C859 1.349 . S
C875 H867 0.950 . S
C875 C873 1.327 . S
C876 C864 1.349 . S
C876 H870 0.950 . S
C876 C877 1.327 . S
C877 H871 0.950 . S
C877 C876 1.327 . S
C877 C881 1.429 . S
C878 C861 1.574 1_655 S
C878 H872 0.949 . S
C878 C882 1.368 . S
C879 C860 1.429 . S
C879 C873 1.429 . S
C879 C880 1.523 . S
C880 C861 1.368 1_556 S
C880 C874 1.368 . S
C880 C879 1.523 . S
C881 C865 1.429 . S
C881 C877 1.429 . S
C881 C882 1.523 . S
C882 C866 1.368 1_554 S
C882 C878 1.368 . S
C882 C881 1.523 . S
H883 C858 0.950 . S
H884 C860 0.950 . S
H885 C861 0.949 . S
H886 C863 0.950 . S
H887 C865 0.950 . S
C169 C50 0.723 . S
C174 C8 0.723 . S
C199 C36 0.723 . S
C204 C22 0.723 . S
C229 C78 0.723 . S
C234 C64 0.723 . S
C259 C92 0.723 . S
C264 C106 0.723 . S
C289 C134 0.723 . S
C294 C120 0.723 . S
C319 C148 0.723 . S
C324 C162 0.723 . S
C349 C9 0.747 . S
C354 C101 0.747 . S
C379 C87 0.747 . S
C384 C23 0.747 . S
C409 C73 0.747 . S
C414 C37 0.747 . S
C439 C59 0.747 . S
C444 C51 0.747 . S
C469 C65 0.747 . S
C474 C157 0.747 . S
C499 C115 0.747 . S
C504 C79 0.747 . S
C529 C143 0.747 . S
C534 C93 0.747 . S
C559 C107 0.747 . S
C564 C129 0.747 . S
C589 C31 0.747 . S
C594 C121 0.747 . S
C619 C3 0.747 . S
C624 C135 0.747 . S
C649 C149 0.747 . S
C654 C17 0.747 . S
C679 C45 0.747 . S
C684 C163 0.747 . S
C709 C7 1.170 . S
C714 C21 1.170 . S
C739 C49 1.170 . S
C744 C35 1.170 . S
C769 C91 1.170 . S
C774 C63 1.170 . S
C799 C77 1.170 . S
C804 C105 1.170 . S
C829 C147 1.170 . S
C834 C119 1.170 . S
C859 C133 1.170 . S
C864 C161 1.170 . S
