# Generated by pormake.
# Topology zfl, (5)-cn, num edge types: 1
# Building blocks:
#     Node 0, Type 0, BuildingBlock: XOMCOT_clean_sbu_0, # of connection points: 5
#     Node 1, Type 0, BuildingBlock: XOMCOT_clean_sbu_0, # of connection points: 5
#     Node 2, Type 0, BuildingBlock: XOMCOT_clean_sbu_0, # of connection points: 5
#     Node 3, Type 0, BuildingBlock: XOMCOT_clean_sbu_0, # of connection points: 5
#     Node 4, Type 0, BuildingBlock: XOMCOT_clean_sbu_0, # of connection points: 5
#     Node 5, Type 0, BuildingBlock: XOMCOT_clean_sbu_0, # of connection points: 5
#     Node 6, Type 0, BuildingBlock: XOMCOT_clean_sbu_0, # of connection points: 5
#     Node 7, Type 0, BuildingBlock: XOMCOT_clean_sbu_0, # of connection points: 5
#     Node 8, Type 0, BuildingBlock: XOMCOT_clean_sbu_0, # of connection points: 5
#     Node 9, Type 0, BuildingBlock: XOMCOT_clean_sbu_0, # of connection points: 5
#     Node 10, Type 0, BuildingBlock: XOMCOT_clean_sbu_0, # of connection points: 5
#     Node 11, Type 0, BuildingBlock: XOMCOT_clean_sbu_0, # of connection points: 5
#     Node 12, Type 0, BuildingBlock: XOMCOT_clean_sbu_0, # of connection points: 5
#     Node 13, Type 0, BuildingBlock: XOMCOT_clean_sbu_0, # of connection points: 5
#     Node 14, Type 0, BuildingBlock: XOMCOT_clean_sbu_0, # of connection points: 5
#     Node 15, Type 0, BuildingBlock: XOMCOT_clean_sbu_0, # of connection points: 5
#     Edge 16, Type (0, 0), BuildingBlock: ZUJKAS_clean_linker_0, # of connection points: 2
#     Edge 17, Type (0, 0), BuildingBlock: ZUJKAS_clean_linker_0, # of connection points: 2
#     Edge 18, Type (0, 0), BuildingBlock: ZUJKAS_clean_linker_0, # of connection points: 2
#     Edge 19, Type (0, 0), BuildingBlock: ZUJKAS_clean_linker_0, # of connection points: 2
#     Edge 20, Type (0, 0), BuildingBlock: ZUJKAS_clean_linker_0, # of connection points: 2
#     Edge 21, Type (0, 0), BuildingBlock: ZUJKAS_clean_linker_0, # of connection points: 2
#     Edge 22, Type (0, 0), BuildingBlock: ZUJKAS_clean_linker_0, # of connection points: 2
#     Edge 23, Type (0, 0), BuildingBlock: ZUJKAS_clean_linker_0, # of connection points: 2
#     Edge 24, Type (0, 0), BuildingBlock: ZUJKAS_clean_linker_0, # of connection points: 2
#     Edge 25, Type (0, 0), BuildingBlock: ZUJKAS_clean_linker_0, # of connection points: 2
#     Edge 26, Type (0, 0), BuildingBlock: ZUJKAS_clean_linker_0, # of connection points: 2
#     Edge 27, Type (0, 0), BuildingBlock: ZUJKAS_clean_linker_0, # of connection points: 2
#     Edge 28, Type (0, 0), BuildingBlock: ZUJKAS_clean_linker_0, # of connection points: 2
#     Edge 29, Type (0, 0), BuildingBlock: ZUJKAS_clean_linker_0, # of connection points: 2
#     Edge 30, Type (0, 0), BuildingBlock: ZUJKAS_clean_linker_0, # of connection points: 2
#     Edge 31, Type (0, 0), BuildingBlock: ZUJKAS_clean_linker_0, # of connection points: 2
#     Edge 32, Type (0, 0), BuildingBlock: ZUJKAS_clean_linker_0, # of connection points: 2
#     Edge 33, Type (0, 0), BuildingBlock: ZUJKAS_clean_linker_0, # of connection points: 2
#     Edge 34, Type (0, 0), BuildingBlock: ZUJKAS_clean_linker_0, # of connection points: 2
#     Edge 35, Type (0, 0), BuildingBlock: ZUJKAS_clean_linker_0, # of connection points: 2
#     Edge 36, Type (0, 0), BuildingBlock: ZUJKAS_clean_linker_0, # of connection points: 2
#     Edge 37, Type (0, 0), BuildingBlock: ZUJKAS_clean_linker_0, # of connection points: 2
#     Edge 38, Type (0, 0), BuildingBlock: ZUJKAS_clean_linker_0, # of connection points: 2
#     Edge 39, Type (0, 0), BuildingBlock: ZUJKAS_clean_linker_0, # of connection points: 2
#     Edge 40, Type (0, 0), BuildingBlock: ZUJKAS_clean_linker_0, # of connection points: 2
#     Edge 41, Type (0, 0), BuildingBlock: ZUJKAS_clean_linker_0, # of connection points: 2
#     Edge 42, Type (0, 0), BuildingBlock: ZUJKAS_clean_linker_0, # of connection points: 2
#     Edge 43, Type (0, 0), BuildingBlock: ZUJKAS_clean_linker_0, # of connection points: 2
#     Edge 44, Type (0, 0), BuildingBlock: ZUJKAS_clean_linker_0, # of connection points: 2
#     Edge 45, Type (0, 0), BuildingBlock: ZUJKAS_clean_linker_0, # of connection points: 2
#     Edge 46, Type (0, 0), BuildingBlock: ZUJKAS_clean_linker_0, # of connection points: 2
#     Edge 47, Type (0, 0), BuildingBlock: ZUJKAS_clean_linker_0, # of connection points: 2
#     Edge 48, Type (0, 0), BuildingBlock: ZUJKAS_clean_linker_0, # of connection points: 2
#     Edge 49, Type (0, 0), BuildingBlock: ZUJKAS_clean_linker_0, # of connection points: 2
#     Edge 50, Type (0, 0), BuildingBlock: ZUJKAS_clean_linker_0, # of connection points: 2
#     Edge 51, Type (0, 0), BuildingBlock: ZUJKAS_clean_linker_0, # of connection points: 2
#     Edge 52, Type (0, 0), BuildingBlock: ZUJKAS_clean_linker_0, # of connection points: 2
#     Edge 53, Type (0, 0), BuildingBlock: ZUJKAS_clean_linker_0, # of connection points: 2
#     Edge 54, Type (0, 0), BuildingBlock: ZUJKAS_clean_linker_0, # of connection points: 2
#     Edge 55, Type (0, 0), BuildingBlock: ZUJKAS_clean_linker_0, # of connection points: 2
# Relax obj value: 0.213
# Max RMSD: 0.258
# Mean RMSD: 0.258
data_MOF--net-zfl--node1-XOMCOT_clean_sbu_0--edge1-ZUJKAS_clean_linker_0
_symmetry_space_group_name_H-M    P1
_symmetry_Int_Tables_number       1
_symmetry_cell_setting            triclinic
loop_
_symmetry_equiv_pos_as_xyz
'x, y, z'
_cell_length_a     40.655173
_cell_length_b     40.663677
_cell_length_c     76.02528
_cell_angle_alpha  90.000571
_cell_angle_beta   90.001639
_cell_angle_gamma 90.003203
loop_
_atom_site_label
_atom_site_type_symbol
_atom_site_fract_x
_atom_site_fract_y
_atom_site_fract_z
_atom_type_partial_charge
Co0 Co 0.55417 0.11119 0.10399 0.0
C1 C 0.57716 0.04348 0.10727 0.0
C2 C 0.61526 0.07396 0.09678 0.0
C3 C 0.62491 0.04145 0.09529 0.0
N4 N 0.58534 0.07513 0.1045 0.0
N5 N 0.60056 0.02257 0.10175 0.0
H6 H 0.55321 0.03538 0.11146 0.0
H7 H 0.62786 0.09496 0.09122 0.0
C8 C 0.61441 0.1383 0.12151 0.0
O9 O 0.61658 0.11068 0.13041 0.0
N10 N 0.52201 0.14591 0.10312 0.0
C11 C 0.48957 0.14093 0.10557 0.0
C12 C 0.47323 0.16984 0.10274 0.0
C13 C 0.52513 0.17801 0.09888 0.0
N14 N 0.49545 0.19309 0.09848 0.0
C15 C 0.51824 0.07688 0.13064 0.0
C16 C 0.5377 0.11376 0.15923 0.0
C17 C 0.51733 0.0863 0.16208 0.0
C18 C 0.50673 0.06867 0.14729 0.0
C19 C 0.54784 0.1218 0.14212 0.0
N20 N 0.54 0.10205 0.12817 0.0
H21 H 0.50882 0.06305 0.11967 0.0
H22 H 0.56159 0.14416 0.14028 0.0
H23 H 0.47842 0.11762 0.1089 0.0
H24 H 0.54827 0.18981 0.09575 0.0
O25 O 0.52384 0.08288 0.09155 0.0
O26 O 0.56101 0.11451 0.07876 0.0
O27 O 0.58975 0.14337 0.11137 0.0
C28 C 0.53785 0.09263 0.07713 0.0
H29 H 0.64648 0.03236 0.08851 0.0
H30 H 0.44694 0.17358 0.10383 0.0
H31 H 0.54599 0.12896 0.17003 0.0
H32 H 0.48923 0.04873 0.14839 0.0
Co33 Co 0.39051 0.55144 0.60694 0.0
C34 C 0.45685 0.58037 0.61052 0.0
C35 C 0.42411 0.61261 0.59684 0.0
C36 C 0.45567 0.62482 0.59533 0.0
N37 N 0.42487 0.58464 0.60641 0.0
N38 N 0.47608 0.6044 0.60401 0.0
H39 H 0.46682 0.55849 0.61636 0.0
H40 H 0.40253 0.622 0.5902 0.0
C41 C 0.36165 0.61128 0.62349 0.0
O42 O 0.38945 0.61431 0.63216 0.0
N43 N 0.35719 0.51777 0.60698 0.0
C44 C 0.363 0.48602 0.61093 0.0
C45 C 0.33463 0.46842 0.60852 0.0
C46 C 0.32525 0.51921 0.60219 0.0
N47 N 0.31094 0.48917 0.60296 0.0
C48 C 0.42713 0.52098 0.63469 0.0
C49 C 0.38372 0.53368 0.66175 0.0
C50 C 0.41234 0.51561 0.66534 0.0
C51 C 0.43411 0.50937 0.65149 0.0
C52 C 0.37768 0.54497 0.64462 0.0
N53 N 0.40002 0.53986 0.63142 0.0
H54 H 0.44315 0.5134 0.62417 0.0
H55 H 0.35436 0.55655 0.64197 0.0
H56 H 0.38647 0.47621 0.61508 0.0
H57 H 0.31304 0.54143 0.59785 0.0
O58 O 0.4202 0.52133 0.59534 0.0
O59 O 0.38668 0.55568 0.58162 0.0
O60 O 0.35693 0.58615 0.61364 0.0
C61 C 0.40959 0.5334 0.58057 0.0
H62 H 0.46326 0.64578 0.58755 0.0
H63 H 0.3316 0.44232 0.61081 0.0
H64 H 0.36556 0.538 0.67191 0.0
H65 H 0.45634 0.49519 0.6535 0.0
Co66 Co 0.94968 0.39119 0.10538 0.0
C67 C 0.92126 0.45701 0.11135 0.0
C68 C 0.88735 0.42534 0.0981 0.0
C69 C 0.87505 0.45699 0.09773 0.0
N70 N 0.91642 0.42539 0.1067 0.0
N71 N 0.89653 0.47672 0.10613 0.0
H72 H 0.94388 0.46651 0.11658 0.0
H73 H 0.87716 0.4043 0.09131 0.0
C74 C 0.89168 0.36028 0.12283 0.0
O75 O 0.88963 0.38687 0.1326 0.0
N76 N 0.98338 0.35807 0.10365 0.0
C77 C 0.01558 0.36389 0.10639 0.0
C78 C 0.03283 0.33557 0.10324 0.0
C79 C 0.98131 0.32615 0.09889 0.0
N80 N 0.0114 0.31188 0.09847 0.0
C81 C 0.98265 0.42538 0.1332 0.0
C82 C 0.9714 0.3803 0.15964 0.0
C83 C 0.9893 0.4089 0.16352 0.0
C84 C 0.99502 0.4314 0.14995 0.0
C85 C 0.95943 0.3752 0.14256 0.0
N86 N 0.96355 0.39851 0.12975 0.0
H87 H 0.98953 0.44215 0.12288 0.0
H88 H 0.94786 0.35199 0.13963 0.0
H89 H 0.02586 0.38728 0.11032 0.0
H90 H 0.95855 0.31387 0.09553 0.0
O91 O 0.97861 0.42205 0.09378 0.0
O92 O 0.9431 0.38968 0.08013 0.0
O93 O 0.91562 0.35694 0.11203 0.0
C94 C 0.96528 0.41268 0.07909 0.0
H95 H 0.85321 0.46516 0.09086 0.0
H96 H 0.05916 0.33251 0.1046 0.0
H97 H 0.96754 0.36158 0.16956 0.0
H98 H 0.00913 0.45361 0.15217 0.0
Co99 Co 0.1099 0.94735 0.6061 0.0
C100 C 0.04231 0.92372 0.60087 0.0
C101 C 0.0765 0.88497 0.59593 0.0
C102 C 0.0455 0.87444 0.59095 0.0
N103 N 0.07437 0.91573 0.60265 0.0
N104 N 0.02437 0.89918 0.59401 0.0
H105 H 0.03243 0.94806 0.60269 0.0
H106 H 0.09921 0.87203 0.59335 0.0
C107 C 0.13632 0.88596 0.62226 0.0
O108 O 0.10834 0.8839 0.63086 0.0
N109 N 0.14418 0.97964 0.60888 0.0
C110 C 0.1392 0.00992 0.61555 0.0
C111 C 0.16754 0.02784 0.61379 0.0
C112 C 0.17555 0.97943 0.60306 0.0
N113 N 0.1903 0.00881 0.60587 0.0
C114 C 0.06835 0.96769 0.63476 0.0
C115 C 0.11421 0.95931 0.66118 0.0
C116 C 0.0831 0.97184 0.66548 0.0
C117 C 0.06008 0.97597 0.65199 0.0
C118 C 0.12136 0.95097 0.64373 0.0
N119 N 0.0982 0.95426 0.63078 0.0
H120 H 0.05127 0.97406 0.62458 0.0
H121 H 0.14599 0.94296 0.64055 0.0
H122 H 0.11618 0.01863 0.62094 0.0
H123 H 0.18684 0.95883 0.59637 0.0
O124 O 0.08277 0.98092 0.59549 0.0
O125 O 0.11612 0.94758 0.58088 0.0
O126 O 0.14167 0.91055 0.61213 0.0
C127 C 0.09411 0.97084 0.58042 0.0
H128 H 0.03948 0.85172 0.58427 0.0
H129 H 0.17109 0.05305 0.61794 0.0
H130 H 0.13299 0.95635 0.67116 0.0
H131 H 0.03631 0.987 0.65456 0.0
Co132 Co 0.55292 0.39218 0.89538 0.0
C133 C 0.58154 0.4587 0.8922 0.0
C134 C 0.61404 0.42587 0.90564 0.0
C135 C 0.62616 0.45746 0.90726 0.0
N136 N 0.586 0.42667 0.89612 0.0
N137 N 0.60559 0.47791 0.8987 0.0
H138 H 0.55953 0.46871 0.88653 0.0
H139 H 0.62356 0.40424 0.91216 0.0
C140 C 0.61307 0.36287 0.87939 0.0
O141 O 0.61581 0.39014 0.87022 0.0
N142 N 0.51941 0.35873 0.89513 0.0
C143 C 0.48787 0.36424 0.89059 0.0
C144 C 0.47022 0.33593 0.89312 0.0
C145 C 0.52069 0.32703 0.90036 0.0
N146 N 0.49075 0.3126 0.89931 0.0
C147 C 0.52491 0.42843 0.86668 0.0
C148 C 0.53856 0.38367 0.84039 0.0
C149 C 0.5229 0.41327 0.83599 0.0
C150 C 0.51568 0.43552 0.84946 0.0
C151 C 0.54777 0.37774 0.85787 0.0
N152 N 0.54264 0.40088 0.87066 0.0
H153 H 0.51643 0.4447 0.87688 0.0
H154 H 0.55814 0.35408 0.86109 0.0
H155 H 0.47825 0.38748 0.88599 0.0
H156 H 0.5427 0.31512 0.90523 0.0
O157 O 0.52205 0.42206 0.90629 0.0
O158 O 0.55586 0.3891 0.92077 0.0
O159 O 0.58817 0.35864 0.88946 0.0
C160 C 0.53337 0.41186 0.92131 0.0
H161 H 0.64722 0.46502 0.91497 0.0
H162 H 0.44426 0.33268 0.89049 0.0
H163 H 0.54355 0.36525 0.83046 0.0
H164 H 0.50192 0.4578 0.84682 0.0
Co165 Co 0.10957 0.55064 0.39397 0.0
C166 C 0.04334 0.57992 0.39094 0.0
C167 C 0.07678 0.61226 0.40405 0.0
C168 C 0.04533 0.62459 0.40591 0.0
N169 N 0.07552 0.58417 0.39459 0.0
N170 N 0.02449 0.60411 0.39758 0.0
H171 H 0.03301 0.55788 0.38546 0.0
H172 H 0.09863 0.6216 0.41044 0.0
C173 C 0.13981 0.61034 0.37802 0.0
O174 O 0.11282 0.61323 0.36862 0.0
N175 N 0.1426 0.5167 0.39384 0.0
C176 C 0.13671 0.48521 0.38936 0.0
C177 C 0.16494 0.46734 0.3917 0.0
C178 C 0.17443 0.51772 0.39886 0.0
N179 N 0.18862 0.48767 0.39771 0.0
C180 C 0.07318 0.52305 0.36522 0.0
C181 C 0.11854 0.53557 0.33906 0.0
C182 C 0.08882 0.52017 0.33461 0.0
C183 C 0.06625 0.51355 0.34803 0.0
C184 C 0.12434 0.54501 0.35652 0.0
N185 N 0.10096 0.54038 0.36924 0.0
H186 H 0.05664 0.51498 0.37539 0.0
H187 H 0.14809 0.55513 0.3598 0.0
H188 H 0.11331 0.47581 0.38485 0.0
H189 H 0.18667 0.53967 0.40356 0.0
O190 O 0.07917 0.52022 0.40483 0.0
O191 O 0.11242 0.55367 0.41935 0.0
O192 O 0.1436 0.58545 0.38814 0.0
C193 C 0.08928 0.53157 0.41986 0.0
H194 H 0.03812 0.64565 0.41372 0.0
H195 H 0.16791 0.44138 0.38898 0.0
H196 H 0.13718 0.54014 0.32919 0.0
H197 H 0.04383 0.50001 0.34538 0.0
Co198 Co 0.94812 0.10862 0.89452 0.0
C199 C 0.91899 0.04248 0.8909 0.0
C200 C 0.88662 0.07537 0.90439 0.0
C201 C 0.87439 0.04383 0.90596 0.0
N202 N 0.9147 0.07449 0.8949 0.0
N203 N 0.89489 0.02333 0.8974 0.0
H204 H 0.94096 0.03243 0.88518 0.0
H205 H 0.87723 0.097 0.91097 0.0
C206 C 0.88858 0.13848 0.87808 0.0
O207 O 0.88558 0.11122 0.86893 0.0
N208 N 0.982 0.14173 0.89461 0.0
C209 C 0.01372 0.13581 0.89063 0.0
C210 C 0.03143 0.16411 0.89303 0.0
C211 C 0.98068 0.17367 0.8994 0.0
N212 N 0.01078 0.18788 0.8986 0.0
C213 C 0.97804 0.07223 0.86652 0.0
C214 C 0.96511 0.1159 0.83962 0.0
C215 C 0.98264 0.08704 0.83584 0.0
C216 C 0.9891 0.06519 0.84962 0.0
C217 C 0.95444 0.12203 0.85685 0.0
N218 N 0.9595 0.0995 0.86996 0.0
H219 H 0.98571 0.05608 0.87695 0.0
H220 H 0.94324 0.14549 0.85965 0.0
H221 H 0.02342 0.11233 0.88643 0.0
H222 H 0.9585 0.18597 0.90373 0.0
O223 O 0.97813 0.07851 0.90592 0.0
O224 O 0.94406 0.11195 0.91987 0.0
O225 O 0.91352 0.14251 0.88815 0.0
C226 C 0.96619 0.08888 0.92076 0.0
H227 H 0.85336 0.03631 0.91372 0.0
H228 H 0.05753 0.16706 0.8907 0.0
H229 H 0.96069 0.13413 0.8295 0.0
H230 H 0.00296 0.04281 0.84746 0.0
Co231 Co 0.39158 0.94768 0.3943 0.0
C232 C 0.45823 0.92026 0.39062 0.0
C233 C 0.42669 0.88746 0.40475 0.0
C234 C 0.45861 0.8761 0.40606 0.0
N235 N 0.42651 0.91521 0.395 0.0
N236 N 0.47826 0.89688 0.39712 0.0
H237 H 0.46734 0.94236 0.38457 0.0
H238 H 0.40553 0.87766 0.41159 0.0
C239 C 0.36337 0.88657 0.37853 0.0
O240 O 0.39106 0.88328 0.36979 0.0
N241 N 0.35777 0.98085 0.39402 0.0
C242 C 0.36322 0.01254 0.38977 0.0
C243 C 0.33489 0.03005 0.39242 0.0
C244 C 0.32606 0.97936 0.39923 0.0
N245 N 0.31159 0.00932 0.39843 0.0
C246 C 0.42723 0.97905 0.3665 0.0
C247 C 0.38785 0.9598 0.33883 0.0
C248 C 0.41595 0.97882 0.33524 0.0
C249 C 0.43508 0.98916 0.34954 0.0
C250 C 0.38038 0.95092 0.3562 0.0
N251 N 0.40115 0.95874 0.36972 0.0
H252 H 0.442 0.98849 0.37712 0.0
H253 H 0.35751 0.93833 0.35862 0.0
H254 H 0.38649 0.02247 0.38541 0.0
H255 H 0.31419 0.95723 0.40396 0.0
O256 O 0.42078 0.97852 0.40574 0.0
O257 O 0.38783 0.94398 0.41967 0.0
O258 O 0.35852 0.91219 0.388 0.0
C259 C 0.41041 0.9666 0.42058 0.0
H260 H 0.46693 0.85545 0.41387 0.0
H261 H 0.33165 0.0561 0.39008 0.0
H262 H 0.37163 0.95177 0.32839 0.0
H263 H 0.45577 0.00558 0.34781 0.0
Co264 Co 0.44819 0.89216 0.89374 0.0
C265 C 0.41965 0.95897 0.892 0.0
C266 C 0.38818 0.92563 0.90578 0.0
C267 C 0.37636 0.95715 0.90812 0.0
N268 N 0.41539 0.92677 0.89559 0.0
N269 N 0.39627 0.97793 0.89936 0.0
H270 H 0.44119 0.96918 0.88592 0.0
H271 H 0.37914 0.90373 0.91224 0.0
C272 C 0.38666 0.86433 0.87865 0.0
O273 O 0.38352 0.89232 0.87017 0.0
N274 N 0.48147 0.85853 0.89244 0.0
C275 C 0.51252 0.8639 0.88699 0.0
C276 C 0.53037 0.83562 0.88919 0.0
C277 C 0.48069 0.82696 0.89792 0.0
N278 N 0.51048 0.81246 0.89611 0.0
C279 C 0.47461 0.92954 0.86505 0.0
C280 C 0.45954 0.88583 0.83848 0.0
C281 C 0.47554 0.91532 0.83422 0.0
C282 C 0.48335 0.93709 0.84782 0.0
C283 C 0.45084 0.8794 0.85598 0.0
N284 N 0.45689 0.90195 0.86896 0.0
H285 H 0.48363 0.94538 0.8753 0.0
H286 H 0.4403 0.85576 0.85907 0.0
H287 H 0.52176 0.88707 0.88207 0.0
H288 H 0.45924 0.81525 0.90356 0.0
O289 O 0.47994 0.92138 0.90439 0.0
O290 O 0.44687 0.88805 0.91913 0.0
O291 O 0.41238 0.85907 0.88798 0.0
C292 C 0.46939 0.91082 0.9195 0.0
H293 H 0.35602 0.9644 0.91645 0.0
H294 H 0.55607 0.83232 0.88591 0.0
H295 H 0.45403 0.86778 0.82842 0.0
H296 H 0.49733 0.95927 0.84527 0.0
Co297 Co 0.60959 0.44881 0.39597 0.0
C298 C 0.54333 0.41973 0.39228 0.0
C299 C 0.57628 0.38713 0.40556 0.0
C300 C 0.54479 0.37465 0.40692 0.0
N301 N 0.57535 0.41546 0.3963 0.0
N302 N 0.52427 0.39528 0.39848 0.0
H303 H 0.53319 0.44183 0.38677 0.0
H304 H 0.59792 0.3776 0.41209 0.0
C305 C 0.63952 0.38927 0.37968 0.0
O306 O 0.61249 0.38662 0.3703 0.0
N307 N 0.64283 0.48256 0.39611 0.0
C308 C 0.63708 0.51425 0.392 0.0
C309 C 0.66546 0.53185 0.3944 0.0
C310 C 0.67474 0.48115 0.40096 0.0
N311 N 0.68909 0.51115 0.40008 0.0
C312 C 0.5735 0.47744 0.36743 0.0
C313 C 0.61827 0.46435 0.34107 0.0
C314 C 0.58858 0.47993 0.33675 0.0
C315 C 0.56637 0.48695 0.35027 0.0
C316 C 0.62428 0.45494 0.35851 0.0
N317 N 0.6011 0.45973 0.37132 0.0
H318 H 0.55713 0.48556 0.37767 0.0
H319 H 0.64797 0.44457 0.36168 0.0
H320 H 0.61367 0.52396 0.38768 0.0
H321 H 0.68693 0.45895 0.40534 0.0
O322 O 0.57933 0.47912 0.40701 0.0
O323 O 0.61236 0.44514 0.42134 0.0
O324 O 0.64344 0.41397 0.38992 0.0
C325 C 0.58936 0.46738 0.42197 0.0
H326 H 0.53733 0.35327 0.41441 0.0
H327 H 0.66856 0.5579 0.39196 0.0
H328 H 0.63667 0.4595 0.3311 0.0
H329 H 0.54402 0.50065 0.34771 0.0
Co330 Co 0.05233 0.60902 0.89397 0.0
C331 C 0.08095 0.54231 0.89175 0.0
C332 C 0.11253 0.57535 0.90566 0.0
C333 C 0.12452 0.54379 0.90766 0.0
N334 N 0.08515 0.5744 0.89561 0.0
N335 N 0.10452 0.5232 0.89882 0.0
H336 H 0.05938 0.53222 0.88564 0.0
H337 H 0.12167 0.59711 0.91222 0.0
C338 C 0.11358 0.63683 0.87845 0.0
O339 O 0.11688 0.60873 0.8701 0.0
N340 N 0.019 0.64262 0.89286 0.0
C341 C 0.98773 0.63714 0.88781 0.0
C342 C 0.96998 0.66548 0.89003 0.0
C343 C 0.02 0.67432 0.89812 0.0
N344 N 0.99015 0.68879 0.89657 0.0
C345 C 0.02459 0.57149 0.86569 0.0
C346 C 0.03987 0.61427 0.83873 0.0
C347 C 0.02341 0.58489 0.83475 0.0
C348 C 0.01546 0.56361 0.84856 0.0
C349 C 0.04892 0.62103 0.85615 0.0
N350 N 0.0428 0.5989 0.86932 0.0
H351 H 0.01567 0.55594 0.87611 0.0
H352 H 0.05984 0.6446 0.859 0.0
H353 H 0.97829 0.61387 0.88316 0.0
H354 H 0.04169 0.68616 0.90343 0.0
O355 O 0.02097 0.57994 0.9051 0.0
O356 O 0.05452 0.61358 0.91931 0.0
O357 O 0.08789 0.64209 0.88779 0.0
C358 C 0.03198 0.59088 0.92004 0.0
H359 H 0.14506 0.53638 0.9158 0.0
H360 H 0.94416 0.66871 0.88701 0.0
H361 H 0.04553 0.63195 0.82851 0.0
H362 H 0.00117 0.54154 0.84623 0.0
Co363 Co 0.89384 0.0545 0.39578 0.0
C364 C 0.95967 0.08414 0.39189 0.0
C365 C 0.92665 0.11637 0.40538 0.0
C366 C 0.95811 0.12886 0.40685 0.0
N367 N 0.92766 0.08821 0.39597 0.0
N368 N 0.97868 0.10845 0.39827 0.0
H369 H 0.96984 0.06215 0.38625 0.0
H370 H 0.90501 0.12562 0.41202 0.0
C371 C 0.8635 0.11357 0.37918 0.0
O372 O 0.89063 0.11653 0.36992 0.0
N373 N 0.86104 0.02034 0.39603 0.0
C374 C 0.86738 0.98848 0.39261 0.0
C375 C 0.83892 0.9708 0.39452 0.0
C376 C 0.8287 0.02179 0.39995 0.0
N377 N 0.81463 0.99164 0.39918 0.0
C378 C 0.93033 0.02484 0.3677 0.0
C379 C 0.8865 0.03784 0.34087 0.0
C380 C 0.91603 0.0216 0.33689 0.0
C381 C 0.93773 0.01464 0.35068 0.0
C382 C 0.88011 0.04775 0.3582 0.0
N383 N 0.90284 0.04297 0.37124 0.0
H384 H 0.94647 0.017 0.37811 0.0
H385 H 0.85646 0.05846 0.36109 0.0
H386 H 0.89118 0.97874 0.38899 0.0
H387 H 0.81593 0.04417 0.40351 0.0
O388 O 0.92434 0.02492 0.40723 0.0
O389 O 0.89063 0.05882 0.42111 0.0
O390 O 0.85967 0.08878 0.38937 0.0
C391 C 0.91393 0.03695 0.42204 0.0
H392 H 0.96556 0.14994 0.41457 0.0
H393 H 0.8362 0.94464 0.39234 0.0
H394 H 0.86845 0.04278 0.33074 0.0
H395 H 0.95992 1.00049 0.34845 0.0
Co396 Co 0.4451 0.60654 0.10772 0.0
C397 C 0.41388 0.54171 0.11223 0.0
C398 C 0.38241 0.57521 0.09856 0.0
C399 C 0.36951 0.54395 0.09699 0.0
N400 N 0.41044 0.57374 0.10806 0.0
N401 N 0.38945 0.52308 0.10567 0.0
H402 H 0.43568 0.53118 0.11788 0.0
H403 H 0.37376 0.59691 0.09175 0.0
C404 C 0.38732 0.63861 0.12467 0.0
O405 O 0.38423 0.61186 0.13423 0.0
N406 N 0.48022 0.63834 0.107 0.0
C407 C 0.51226 0.63076 0.10888 0.0
C408 C 0.53033 0.65918 0.10852 0.0
C409 C 0.47909 0.67139 0.10557 0.0
N410 N 0.50955 0.68478 0.10653 0.0
C411 C 0.47545 0.57021 0.13557 0.0
C412 C 0.46596 0.6156 0.16207 0.0
C413 C 0.48309 0.58651 0.16586 0.0
C414 C 0.48776 0.56375 0.15229 0.0
C415 C 0.45398 0.62111 0.14503 0.0
N416 N 0.45739 0.59781 0.13216 0.0
H417 H 0.48182 0.55332 0.12522 0.0
H418 H 0.44323 0.64473 0.14215 0.0
H419 H 0.52188 0.60618 0.11061 0.0
H420 H 0.45654 0.6853 0.10427 0.0
O421 O 0.47338 0.57495 0.09618 0.0
O422 O 0.44007 0.60934 0.08238 0.0
O423 O 0.41185 0.64167 0.11422 0.0
C424 C 0.46129 0.58544 0.08141 0.0
H425 H 0.34875 0.53677 0.08894 0.0
H426 H 0.55683 0.66074 0.10955 0.0
H427 H 0.4629 0.63447 0.17199 0.0
H428 H 0.50123 0.54114 0.15447 0.0
Co429 Co 0.89089 0.44754 0.60539 0.0
C430 C 0.95692 0.41833 0.6095 0.0
C431 C 0.92414 0.38577 0.59607 0.0
C432 C 0.95567 0.37342 0.5947 0.0
N433 N 0.92495 0.41405 0.60538 0.0
N434 N 0.97609 0.39405 0.60324 0.0
H435 H 0.96695 0.44039 0.61512 0.0
H436 H 0.90258 0.3763 0.58944 0.0
C437 C 0.86088 0.38853 0.62224 0.0
O438 O 0.88799 0.38596 0.63156 0.0
N439 N 0.85785 0.48148 0.60495 0.0
C440 C 0.86398 0.51336 0.60842 0.0
C441 C 0.83556 0.53097 0.60618 0.0
C442 C 0.82567 0.47995 0.60066 0.0
N443 N 0.81151 0.51007 0.60126 0.0
C444 C 0.92702 0.47816 0.63326 0.0
C445 C 0.88292 0.46615 0.66009 0.0
C446 C 0.91184 0.4836 0.66386 0.0
C447 C 0.9339 0.48962 0.65011 0.0
C448 C 0.87699 0.45503 0.64292 0.0
N449 N 0.89975 0.4596 0.62987 0.0
H450 H 0.94335 0.48548 0.62283 0.0
H451 H 0.85352 0.44386 0.64011 0.0
H452 H 0.88763 0.52321 0.61223 0.0
H453 H 0.81311 0.45755 0.59691 0.0
O454 O 0.92119 0.47716 0.59385 0.0
O455 O 0.88779 0.44279 0.58006 0.0
O456 O 0.85692 0.41313 0.61193 0.0
C457 C 0.91091 0.46485 0.57907 0.0
H458 H 0.96326 0.35225 0.58709 0.0
H459 H 0.83272 0.55715 0.60827 0.0
H460 H 0.86452 0.46208 0.67016 0.0
H461 H 0.95635 0.5034 0.65225 0.0
Co462 Co 0.0523 0.89276 0.10652 0.0
C463 C 0.08186 0.95892 0.1089 0.0
C464 C 0.11366 0.92508 0.09569 0.0
C465 C 0.12595 0.95645 0.09344 0.0
N466 N 0.0859 0.92666 0.10542 0.0
N467 N 0.10582 0.97753 0.10184 0.0
H468 H 0.06007 0.96943 0.11458 0.0
H469 H 0.1227 0.90305 0.08935 0.0
C470 C 0.11216 0.86329 0.1227 0.0
O471 O 0.1152 0.89078 0.13164 0.0
N472 N 0.01827 0.85984 0.10713 0.0
C473 C 0.98668 0.86612 0.11127 0.0
C474 C 0.9689 0.83766 0.10969 0.0
C475 C 0.01943 0.82754 0.1031 0.0
N476 N 0.98938 0.81343 0.10451 0.0
C477 C 0.02444 0.93027 0.13475 0.0
C478 C 0.03764 0.88653 0.16159 0.0
C479 C 0.02169 0.91619 0.1656 0.0
C480 C 0.01472 0.9379 0.15183 0.0
C481 C 0.0471 0.87991 0.14422 0.0
N482 N 0.04212 0.90252 0.13114 0.0
H483 H 0.01631 0.94627 0.12435 0.0
H484 H 0.0575 0.85613 0.14131 0.0
H485 H 0.97719 0.88989 0.11511 0.0
H486 H 0.04152 0.81486 0.09897 0.0
O487 O 0.02193 0.92275 0.09532 0.0
O488 O 0.05519 0.88878 0.08116 0.0
O489 O 0.08709 0.85895 0.11276 0.0
C490 C 0.03319 0.91199 0.0804 0.0
H491 H 0.14667 0.96341 0.08531 0.0
H492 H 0.94291 0.83491 0.11242 0.0
H493 H 0.0426 0.8685 0.17173 0.0
H494 H 0.00076 0.9602 0.15409 0.0
Co495 Co 0.61033 0.05104 0.60513 0.0
C496 C 0.54383 0.07949 0.6089 0.0
C497 C 0.57648 0.11247 0.59567 0.0
C498 C 0.54491 0.12476 0.59441 0.0
N499 N 0.57578 0.08402 0.60483 0.0
N500 N 0.52457 0.10388 0.60282 0.0
H501 H 0.53392 0.05731 0.61445 0.0
H502 H 0.59804 0.12226 0.58918 0.0
C503 C 0.63937 0.1107 0.62187 0.0
O504 O 0.61215 0.11307 0.63111 0.0
N505 N 0.64395 0.01768 0.60499 0.0
C506 C 0.63869 0.9859 0.60907 0.0
C507 C 0.66769 0.96902 0.60737 0.0
C508 C 0.67609 0.01982 0.60072 0.0
N509 N 0.69125 0.99027 0.60217 0.0
C510 C 0.57421 0.02045 0.63299 0.0
C511 C 0.61788 0.03323 0.65992 0.0
C512 C 0.58915 0.01542 0.66363 0.0
C513 C 0.5673 0.00904 0.64984 0.0
C514 C 0.62386 0.04427 0.64274 0.0
N515 N 0.60132 0.03928 0.62963 0.0
H516 H 0.5581 0.01282 0.62254 0.0
H517 H 0.64722 0.05571 0.63998 0.0
H518 H 0.61523 0.97561 0.61287 0.0
H519 H 0.68806 0.04242 0.59679 0.0
O520 O 0.5807 0.0207 0.59366 0.0
O521 O 0.61364 0.05538 0.57979 0.0
O522 O 0.6437 0.08607 0.61163 0.0
C523 C 0.59091 0.0329 0.57885 0.0
H524 H 0.53728 0.14623 0.58705 0.0
H525 H 0.67095 0.9429 0.60946 0.0
H526 H 0.6361 0.03761 0.67005 0.0
H527 H 0.54501 0.99499 0.65194 0.0
H528 H 0.50362 0.02382 0.17373 0.0
H529 H 0.48298 0.00684 0.20213 0.0
H530 H 0.49054 0.10662 0.22098 0.0
H531 H 0.50755 0.12471 0.19181 0.0
H532 H 0.50841 0.00442 0.23169 0.0
H533 H 0.40172 0.08776 0.23852 0.0
H534 H 0.42454 0.0844 0.21829 0.0
H535 H 0.43915 0.11043 0.23584 0.0
C536 C 0.49994 0.04258 0.18363 0.0
C537 C 0.50668 0.07593 0.1801 0.0
C538 C 0.48854 0.03261 0.20008 0.0
C539 C 0.4844 0.05546 0.21372 0.0
C540 C 0.49234 0.08859 0.21056 0.0
H541 H 0.47795 0.989 0.32191 0.0
H542 H 0.49324 0.00846 0.29296 0.0
C543 C 0.50284 0.09882 0.19387 0.0
C544 C 0.47307 0.04397 0.23134 0.0
H545 H 0.41836 0.05913 0.26448 0.0
C546 C 0.48847 0.01628 0.23874 0.0
C547 C 0.44664 0.05889 0.24051 0.0
C548 C 0.42684 0.08676 0.23279 0.0
C549 C 0.47842 0.00323 0.25494 0.0
C550 C 0.45347 0.01942 0.26464 0.0
C551 C 0.43778 0.0469 0.2572 0.0
C552 C 0.44364 0.00854 0.28259 0.0
C553 C 0.49413 0.97162 0.26112 0.0
C554 C 0.41037 0.00362 0.28687 0.0
C555 C 0.40124 0.99393 0.30387 0.0
C556 C 0.42523 0.98858 0.31693 0.0
C557 C 0.45854 0.99338 0.31246 0.0
C558 C 0.46751 0.00388 0.29567 0.0
H559 H 0.50275 0.95657 0.24983 0.0
H560 H 0.51596 0.97747 0.2693 0.0
H561 H 0.47679 0.95656 0.26902 0.0
H562 H 0.3914 0.00733 0.27707 0.0
H563 H 0.37532 0.99121 0.30676 0.0
H564 H 0.49126 0.37285 0.8126 0.0
H565 H 0.47115 0.38713 0.78309 0.0
H566 H 0.51074 0.48489 0.78884 0.0
H567 H 0.53095 0.47084 0.81822 0.0
H568 H 0.42635 0.44458 0.77525 0.0
H569 H 0.54668 0.44773 0.74046 0.0
H570 H 0.54049 0.42519 0.76068 0.0
H571 H 0.54483 0.4691 0.76116 0.0
C572 C 0.49606 0.39721 0.80745 0.0
C573 C 0.5127 0.42074 0.81768 0.0
C574 C 0.48438 0.40538 0.79068 0.0
C575 C 0.4896 0.437 0.78383 0.0
C576 C 0.50666 0.46031 0.79388 0.0
H577 H 0.40356 0.54591 0.69728 0.0
H578 H 0.41968 0.52524 0.72634 0.0
C579 C 0.51806 0.45229 0.81067 0.0
C580 C 0.47658 0.44612 0.76633 0.0
H581 H 0.50047 0.4682 0.72496 0.0
C582 C 0.44246 0.44958 0.76419 0.0
C583 C 0.49774 0.45247 0.75199 0.0
C584 C 0.53449 0.44825 0.75354 0.0
C585 C 0.42897 0.45993 0.7481 0.0
C586 C 0.45022 0.46707 0.73389 0.0
C587 C 0.48428 0.46292 0.73594 0.0
C588 C 0.43774 0.47858 0.71666 0.0
C589 C 0.39215 0.46296 0.74634 0.0
C590 C 0.44239 0.45911 0.70166 0.0
C591 C 0.4331 0.47073 0.68512 0.0
C592 C 0.41932 0.5023 0.68319 0.0
C593 C 0.41386 0.52142 0.69833 0.0
C594 C 0.42307 0.50967 0.71493 0.0
H595 H 0.37901 0.45027 0.75721 0.0
H596 H 0.38523 0.48936 0.74663 0.0
H597 H 0.38372 0.45258 0.73361 0.0
H598 H 0.45358 0.43501 0.70274 0.0
H599 H 0.43703 0.45505 0.6738 0.0
H600 H 0.9589 0.39902 0.19531 0.0
H601 H 0.9788 0.4156 0.22447 0.0
H602 H 0.06904 0.45053 0.20132 0.0
H603 H 0.04975 0.43356 0.17226 0.0
H604 H 0.0418 0.39956 0.24332 0.0
H605 H 0.02537 0.53188 0.22682 0.0
H606 H 0.0054 0.49939 0.21463 0.0
H607 H 0.0483 0.5077 0.21126 0.0
C608 C 0.98322 0.40967 0.19647 0.0
C609 C 0.00252 0.41543 0.18143 0.0
C610 C 0.99448 0.41923 0.21312 0.0
C611 C 0.02513 0.43473 0.21495 0.0
C612 C 0.04508 0.43908 0.20011 0.0
H613 H 0.12964 0.48845 0.31141 0.0
H614 H 0.1156 0.46749 0.28206 0.0
C615 C 0.03393 0.42949 0.18352 0.0
C616 C 0.0357 0.44784 0.23221 0.0
H617 H 0.04958 0.51965 0.25428 0.0
C618 C 0.04359 0.42578 0.24575 0.0
C619 C 0.03772 0.48207 0.2353 0.0
C620 C 0.02854 0.50677 0.22132 0.0
C621 C 0.05373 0.43716 0.26235 0.0
C622 C 0.05613 0.47141 0.26536 0.0
C623 C 0.04801 0.49341 0.25184 0.0
C624 C 0.06535 0.48495 0.28276 0.0
C625 C 0.06114 0.41256 0.27666 0.0
C626 C 0.04202 0.50245 0.29259 0.0
C627 C 0.04997 0.51449 0.30925 0.0
C628 C 0.08153 0.50951 0.31635 0.0
C629 C 0.10521 0.49284 0.30624 0.0
C630 C 0.09714 0.48058 0.28957 0.0
H631 H 0.05251 0.38746 0.2732 0.0
H632 H 0.08811 0.41155 0.27884 0.0
H633 H 0.0494 0.42012 0.28922 0.0
H634 H 0.01743 0.50629 0.28748 0.0
H635 H 0.03133 0.52757 0.31665 0.0
H636 H 0.12121 0.00789 0.68808 0.0
H637 H 0.106 0.02866 0.71727 0.0
H638 H 0.01127 0.98176 0.7128 0.0
H639 H 0.02636 0.96065 0.68374 0.0
H640 H 0.04835 0.06993 0.72506 0.0
H641 H 0.04914 0.9512 0.76133 0.0
H642 H 0.07029 0.95681 0.74064 0.0
H643 H 0.02646 0.95141 0.74101 0.0
C644 C 0.09735 0.00156 0.69345 0.0
C645 C 0.07501 0.98254 0.68366 0.0
C646 C 0.08862 0.01366 0.71004 0.0
C647 C 0.0576 0.00658 0.71719 0.0
C648 C 0.03543 0.98724 0.70756 0.0
H649 H 0.95086 0.0954 0.80429 0.0
H650 H 0.96996 0.07837 0.77505 0.0
C651 C 0.04403 0.97535 0.69095 0.0
C652 C 0.048 0.02004 0.73454 0.0
H653 H 0.02769 0.99746 0.77639 0.0
C654 C 0.04392 0.05416 0.73632 0.0
C655 C 0.04246 0.99936 0.74918 0.0
C656 C 0.04753 0.96266 0.74809 0.0
C657 C 0.0339 0.06813 0.75236 0.0
C658 C 0.02768 0.04735 0.7669 0.0
C659 C 0.03226 0.01329 0.76516 0.0
C660 C 0.01704 0.06036 0.78419 0.0
C661 C 0.03043 0.10496 0.75374 0.0
C662 C 0.03725 0.05605 0.79894 0.0
C663 C 0.0265 0.06581 0.81557 0.0
C664 C 0.9951 0.07977 0.81785 0.0
C665 C 0.97525 0.08497 0.80295 0.0
C666 C 0.9861 0.07523 0.78626 0.0
H667 H 0.04259 0.11783 0.74261 0.0
H668 H 0.00393 0.11152 0.75361 0.0
H669 H 0.04111 0.11405 0.76627 0.0
H670 H 0.06124 0.04472 0.79761 0.0
H671 H 0.04269 0.06205 0.8267 0.0
H672 H 0.50587 0.87471 0.81042 0.0
H673 H 0.52685 0.88947 0.78118 0.0
H674 H 0.49007 0.98815 0.7878 0.0
H675 H 0.46882 0.97355 0.81689 0.0
H676 H 0.47612 0.95702 0.75406 0.0
H677 H 0.60812 0.95199 0.77332 0.0
H678 H 0.58344 0.91664 0.77869 0.0
H679 H 0.57534 0.95524 0.78927 0.0
C680 C 0.50189 0.89941 0.80553 0.0
C681 C 0.48583 0.92304 0.81595 0.0
C682 C 0.51416 0.90788 0.78893 0.0
C683 C 0.5104 0.94001 0.78249 0.0
C684 C 0.49342 0.96329 0.79261 0.0
H685 H 0.59767 0.04676 0.69529 0.0
H686 H 0.58031 0.02744 0.72445 0.0
C687 C 0.48139 0.95494 0.80922 0.0
C688 C 0.52419 0.94965 0.76522 0.0
H689 H 0.59643 0.96352 0.74347 0.0
C690 C 0.5024 0.95834 0.7517 0.0
C691 C 0.5585 0.95172 0.76233 0.0
C692 C 0.58285 0.94366 0.77666 0.0
C693 C 0.51404 0.96877 0.73525 0.0
C694 C 0.54833 0.97043 0.73227 0.0
C695 C 0.57016 0.96205 0.74583 0.0
C696 C 0.56172 0.9808 0.71506 0.0
C697 C 0.48964 0.97838 0.72121 0.0
C698 C 0.55788 0.9605 0.70032 0.0
C699 C 0.56794 0.97131 0.68375 0.0
C700 C 0.58192 0.00273 0.68157 0.0
C701 C 0.58709 0.02243 0.69653 0.0
C702 C 0.57708 0.0115 0.71316 0.0
H703 H 0.46442 0.98149 0.72659 0.0
H704 H 0.49723 0.00167 0.71474 0.0
H705 H 0.48886 0.95892 0.71098 0.0
H706 H 0.54652 0.93652 0.70159 0.0
H707 H 0.56434 0.95517 0.67258 0.0
H708 H 0.62893 0.51073 0.31293 0.0
H709 H 0.61415 0.53074 0.28348 0.0
H710 H 0.51594 0.49267 0.29011 0.0
H711 H 0.53056 0.47233 0.31935 0.0
H712 H 0.54686 0.47788 0.25687 0.0
H713 H 0.55139 0.61078 0.27425 0.0
H714 H 0.58703 0.58664 0.27978 0.0
H715 H 0.54868 0.57878 0.29067 0.0
C716 C 0.60432 0.50632 0.308 0.0
C717 C 0.58083 0.49012 0.31846 0.0
C718 C 0.59584 0.51803 0.29128 0.0
C719 C 0.56383 0.51358 0.28478 0.0
C720 C 0.54069 0.49657 0.29497 0.0
H721 H 0.45441 0.59766 0.19799 0.0
H722 H 0.47558 0.58171 0.227 0.0
C723 C 0.54906 0.48506 0.31167 0.0
C724 C 0.55415 0.52651 0.26732 0.0
H725 H 0.53926 0.59756 0.24468 0.0
C726 C 0.54534 0.50402 0.25415 0.0
C727 C 0.55182 0.56064 0.26396 0.0
C728 C 0.55997 0.58575 0.27791 0.0
C729 C 0.53437 0.51478 0.23763 0.0
C730 C 0.53238 0.5489 0.23419 0.0
C731 C 0.54102 0.57143 0.24738 0.0
C732 C 0.52103 0.5614 0.21695 0.0
C733 C 0.52439 0.48959 0.22406 0.0
C734 C 0.54006 0.55613 0.20186 0.0
C735 C 0.52817 0.56533 0.18535 0.0
C736 C 0.49694 0.57993 0.18362 0.0
C737 C 0.47855 0.58654 0.19889 0.0
C738 C 0.49055 0.57736 0.21544 0.0
H739 H 0.52118 0.46476 0.22991 0.0
H740 H 0.50107 0.4969 0.21754 0.0
H741 H 0.54374 0.488 0.2138 0.0
H742 H 0.56389 0.54434 0.20282 0.0
H743 H 0.54332 0.56063 0.17391 0.0
H744 H 0.99386 0.62522 0.81053 0.0
H745 H 0.97315 0.60999 0.7813 0.0
H746 H 0.00814 0.51091 0.7889 0.0
H747 H 0.02913 0.52596 0.81797 0.0
H748 H 0.02357 0.54095 0.75509 0.0
H749 H 0.89111 0.54869 0.77311 0.0
H750 H 0.91619 0.58375 0.77849 0.0
H751 H 0.92333 0.54525 0.78937 0.0
C752 C 0.99747 0.60032 0.80586 0.0
C753 C 0.01299 0.57673 0.81655 0.0
C754 C 0.98536 0.59158 0.78927 0.0
C755 C 0.98873 0.55922 0.7831 0.0
C756 C 0.00508 0.53594 0.7935 0.0
H757 H 0.90218 0.45266 0.69554 0.0
H758 H 0.91914 0.47194 0.72477 0.0
C759 C 0.01697 0.54456 0.81011 0.0
C760 C 0.9753 0.5494 0.76577 0.0
H761 H 0.90352 0.53649 0.74342 0.0
C762 C 0.99735 0.54006 0.7525 0.0
C763 C 0.94106 0.54791 0.76257 0.0
C764 C 0.9164 0.55668 0.77663 0.0
C765 C 0.98604 0.52956 0.73599 0.0
C766 C 0.95183 0.52851 0.7327 0.0
C767 C 0.92973 0.53751 0.74601 0.0
C768 C 0.9388 0.51815 0.71539 0.0
C769 C 0.01071 0.51927 0.72222 0.0
C770 C 0.94341 0.53822 0.70063 0.0
C771 C 0.93356 0.52745 0.68401 0.0
C772 C 0.91904 0.49628 0.68181 0.0
C773 C 0.91318 0.4768 0.69679 0.0
C774 C 0.92296 0.4877 0.71346 0.0
H775 H 0.03569 0.51582 0.72784 0.0
H776 H 0.0029 0.49601 0.7158 0.0
H777 H 0.01214 0.53853 0.7119 0.0
H778 H 0.95515 0.56201 0.70193 0.0
H779 H 0.93771 0.54343 0.67283 0.0
H780 H 0.99328 0.87524 0.19004 0.0
H781 H 0.97193 0.89023 0.21915 0.0
H782 H 0.00393 0.99022 0.21119 0.0
H783 H 0.0255 0.97549 0.18227 0.0
H784 H 0.00391 0.91801 0.24846 0.0
H785 H 0.90588 1.00023 0.22331 0.0
H786 H 0.92731 0.97123 0.20944 0.0
H787 H 0.94598 0.01001 0.21491 0.0
C788 C 0.99611 0.90032 0.19459 0.0
C789 C 0.01083 0.92425 0.18378 0.0
C790 C 0.9837 0.90889 0.21115 0.0
C791 C 0.98568 0.9415 0.21713 0.0
C792 C 0.00135 0.96512 0.20663 0.0
H793 H 0.97539 0.02507 0.32029 0.0
H794 H 0.9901 0.00357 0.29135 0.0
C795 C 0.01372 0.95662 0.19012 0.0
C796 C 0.97184 0.95099 0.23444 0.0
H797 H 0.91814 0.00427 0.254 0.0
C798 C 0.98493 0.93663 0.24968 0.0
C799 C 0.9467 0.97489 0.23599 0.0
C800 C 0.93037 0.98977 0.22004 0.0
C801 C 0.97454 0.94658 0.26647 0.0
C802 C 0.95078 0.97186 0.26802 0.0
C803 C 0.93665 0.98519 0.25278 0.0
C804 C 0.94128 0.98564 0.28534 0.0
C805 C 0.98918 0.93003 0.28242 0.0
C806 C 0.90864 0.9838 0.29129 0.0
C807 C 0.90009 0.99615 0.30787 0.0
C808 C 0.92407 0.01067 0.31873 0.0
C809 C 0.95649 0.01342 0.31241 0.0
C810 C 0.96496 0.0011 0.29589 0.0
H811 H 0.99951 0.90549 0.27911 0.0
H812 H 0.00948 0.94545 0.28764 0.0
H813 H 0.97053 0.92699 0.29296 0.0
H814 H 0.88994 0.97218 0.28326 0.0
H815 H 0.87497 0.99346 0.31239 0.0
H816 H 0.6647 0.14008 0.14536 0.0
H817 H 0.71109 0.17822 0.14635 0.0
H818 H 0.67275 0.22917 0.10101 0.0
H819 H 0.62567 0.1917 0.10028 0.0
H820 H 0.7584 0.18811 0.123 0.0
H821 H 0.69169 0.30541 0.13279 0.0
H822 H 0.67187 0.26596 0.13504 0.0
H823 H 0.67815 0.28365 0.1136 0.0
C824 C 0.66587 0.15966 0.13572 0.0
C825 C 0.64132 0.16292 0.12279 0.0
C826 C 0.69252 0.18142 0.13627 0.0
C827 C 0.69536 0.20691 0.12389 0.0
C828 C 0.6708 0.21029 0.11099 0.0
H829 H 0.87933 0.30955 0.09995 0.0
H830 H 0.8325 0.27172 0.10023 0.0
C831 C 0.64392 0.18872 0.11054 0.0
C832 C 0.72471 0.22894 0.12412 0.0
H833 H 0.74845 0.30953 0.12541 0.0
C834 C 0.75619 0.21467 0.12361 0.0
C835 C 0.72198 0.26361 0.12514 0.0
C836 C 0.68912 0.28057 0.12686 0.0
C837 C 0.78489 0.23399 0.12394 0.0
C838 C 0.78214 0.2687 0.12429 0.0
C839 C 0.75066 0.28296 0.12496 0.0
C840 C 0.81147 0.29077 0.12434 0.0
C841 C 0.81783 0.2169 0.12434 0.0
C842 C 0.81512 0.31455 0.1376 0.0
C843 C 0.8416 0.33652 0.13732 0.0
C844 C 0.86517 0.33519 0.12379 0.0
C845 C 0.86184 0.31102 0.11067 0.0
C846 C 0.8351 0.28924 0.11086 0.0
H847 H 0.81566 0.19132 0.12934 0.0
H848 H 0.82787 0.21565 0.11078 0.0
H849 H 0.83566 0.2304 0.13272 0.0
H850 H 0.79727 0.31631 0.14814 0.0
H851 H 0.84336 0.35481 0.14763 0.0
H852 H 0.19824 0.88214 0.60782 0.0
H853 H 0.23603 0.8352 0.6085 0.0
H854 H 0.16577 0.78002 0.63909 0.0
H855 H 0.12838 0.82692 0.63886 0.0
H856 H 0.22643 0.77225 0.65188 0.0
H857 H 0.22882 0.75204 0.57979 0.0
H858 H 0.24132 0.79271 0.58606 0.0
H859 H 0.19982 0.77941 0.59019 0.0
C860 C 0.19088 0.86004 0.61473 0.0
C861 C 0.16018 0.85831 0.62322 0.0
C862 C 0.21241 0.83309 0.61499 0.0
C863 C 0.20351 0.80373 0.62353 0.0
C864 C 0.17318 0.80227 0.63232 0.0
H865 H 0.29999 0.61325 0.60859 0.0
H866 H 0.26058 0.65891 0.60924 0.0
C867 C 0.15178 0.8292 0.63218 0.0
C868 C 0.22578 0.77459 0.62358 0.0
H869 H 0.26694 0.72105 0.59678 0.0
C870 C 0.2352 0.76102 0.63982 0.0
C871 C 0.23678 0.75946 0.60786 0.0
C872 C 0.22593 0.77141 0.58999 0.0
C873 C 0.25567 0.73322 0.64078 0.0
C874 C 0.26779 0.71893 0.62507 0.0
C875 C 0.25791 0.73212 0.60883 0.0
C876 C 0.29116 0.69068 0.6252 0.0
C877 C 0.26358 0.71908 0.65864 0.0
C878 C 0.32152 0.6933 0.63388 0.0
C879 C 0.34391 0.6672 0.63365 0.0
C880 C 0.33671 0.63795 0.62453 0.0
C881 C 0.30629 0.63534 0.6158 0.0
C882 C 0.28378 0.66147 0.61612 0.0
H883 H 0.24473 0.72601 0.66855 0.0
H884 H 0.26531 0.69184 0.65815 0.0
H885 H 0.28757 0.72896 0.66317 0.0
H886 H 0.32822 0.71581 0.64059 0.0
H887 H 0.36721 0.6703 0.64036 0.0
H888 H 0.83845 0.14274 0.85426 0.0
H889 H 0.79254 0.18146 0.85407 0.0
H890 H 0.83141 0.22855 0.90047 0.0
H891 H 0.87807 0.1905 0.90039 0.0
H892 H 0.74533 0.19005 0.8775 0.0
H893 H 0.81326 0.30737 0.87046 0.0
H894 H 0.83273 0.26793 0.86739 0.0
H895 H 0.82637 0.28399 0.8892 0.0
C896 C 0.83751 0.16161 0.8643 0.0
C897 C 0.86208 0.1636 0.87729 0.0
C898 C 0.81113 0.1837 0.86421 0.0
C899 C 0.80856 0.20827 0.87713 0.0
C900 C 0.83316 0.21041 0.89009 0.0
H901 H 0.62433 0.31086 0.90163 0.0
H902 H 0.67104 0.27284 0.90129 0.0
C903 C 0.8598 0.18851 0.89008 0.0
C904 C 0.77942 0.2306 0.87736 0.0
H905 H 0.75644 0.31145 0.87762 0.0
C906 C 0.74779 0.21661 0.87745 0.0
C907 C 0.78248 0.2653 0.87709 0.0
C908 C 0.81552 0.28206 0.87585 0.0
C909 C 0.71927 0.23621 0.87737 0.0
C910 C 0.72234 0.2709 0.87772 0.0
C911 C 0.75398 0.28489 0.87752 0.0
C912 C 0.69322 0.29325 0.87779 0.0
C913 C 0.68619 0.21946 0.87643 0.0
C914 C 0.69027 0.31788 0.86494 0.0
C915 C 0.66389 0.33996 0.86528 0.0
C916 C 0.63967 0.33788 0.87845 0.0
C917 C 0.64233 0.31292 0.89119 0.0
C918 C 0.66899 0.29103 0.89095 0.0
H919 H 0.68826 0.19418 0.87099 0.0
H920 H 0.6758 0.21747 0.88988 0.0
H921 H 0.66871 0.23364 0.86816 0.0
H922 H 0.70856 0.32018 0.85465 0.0
H923 H 0.66264 0.35885 0.85526 0.0
H924 H 0.19044 0.62166 0.40114 0.0
H925 H 0.22776 0.66899 0.40177 0.0
H926 H 0.18328 0.70635 0.3543 0.0
H927 H 0.1453 0.65985 0.35393 0.0
H928 H 0.27362 0.69162 0.38011 0.0
H929 H 0.1757 0.78553 0.38532 0.0
H930 H 0.16751 0.74218 0.38774 0.0
H931 H 0.17073 0.76027 0.36618 0.0
C932 C 0.1887 0.63991 0.3908 0.0
C933 C 0.16465 0.63712 0.37758 0.0
C934 C 0.21001 0.66701 0.3912 0.0
C935 C 0.20782 0.6918 0.37835 0.0
C936 C 0.18479 0.68823 0.36471 0.0
H937 H 0.36019 0.83548 0.35527 0.0
H938 H 0.32219 0.789 0.35547 0.0
C939 C 0.16325 0.6614 0.36442 0.0
C940 C 0.22974 0.7212 0.37909 0.0
H941 H 0.2295 0.80532 0.37845 0.0
C942 C 0.26393 0.71647 0.37985 0.0
C943 C 0.21721 0.75375 0.37913 0.0
C944 C 0.18078 0.76078 0.37974 0.0
C945 C 0.28587 0.74321 0.38018 0.0
C946 C 0.27339 0.77572 0.3792 0.0
C947 C 0.23918 0.78047 0.37892 0.0
C948 C 0.29538 0.80508 0.37852 0.0
C949 C 0.32219 0.73625 0.38194 0.0
C950 C 0.29198 0.83068 0.39083 0.0
C951 C 0.31333 0.85776 0.39052 0.0
C952 C 0.33861 0.85972 0.37793 0.0
C953 C 0.34126 0.8346 0.36528 0.0
C954 C 0.3197 0.80778 0.36548 0.0
H955 H 0.3267 0.71189 0.3881 0.0
H956 H 0.33355 0.7359 0.36867 0.0
H957 H 0.33468 0.75538 0.38995 0.0
H958 H 0.27324 0.82937 0.40093 0.0
H959 H 0.31061 0.87667 0.40045 0.0
H960 H 0.11552 0.69875 0.89305 0.0
H961 H 0.16135 0.73799 0.89243 0.0
H962 H 0.21872 0.66946 0.8619 0.0
H963 H 0.17308 0.63061 0.86213 0.0
H964 H 0.22382 0.73164 0.90518 0.0
H965 H 0.22864 0.75243 0.83325 0.0
H966 H 0.19439 0.73226 0.8438 0.0
H967 H 0.23142 0.70973 0.83898 0.0
C968 C 0.13776 0.69219 0.88604 0.0
C969 C 0.14046 0.66158 0.87753 0.0
C970 C 0.16399 0.71461 0.88574 0.0
C971 C 0.19337 0.70694 0.87688 0.0
C972 C 0.19609 0.67636 0.86845 0.0
H973 H 0.38439 0.80239 0.89327 0.0
H974 H 0.3381 0.7637 0.89295 0.0
C975 C 0.16992 0.65405 0.86867 0.0
C976 C 0.22159 0.73033 0.8769 0.0
H977 H 0.27455 0.77159 0.84983 0.0
C978 C 0.23481 0.74052 0.89308 0.0
C979 C 0.23578 0.74223 0.86112 0.0
C980 C 0.22164 0.73388 0.84331 0.0
C981 C 0.26205 0.76182 0.89391 0.0
C982 C 0.277 0.77272 0.87812 0.0
C983 C 0.26345 0.7629 0.86195 0.0
C984 C 0.30575 0.7955 0.87802 0.0
C985 C 0.27407 0.773 0.91171 0.0
C986 C 0.30352 0.82574 0.86921 0.0
C987 C 0.33002 0.84764 0.86917 0.0
C988 C 0.35951 0.83987 0.87794 0.0
C989 C 0.362 0.80926 0.88648 0.0
C990 C 0.33544 0.78722 0.88643 0.0
H991 H 0.25495 0.76977 0.92201 0.0
H992 H 0.29578 0.7581 0.91555 0.0
H993 H 0.28153 0.79927 0.91142 0.0
H994 H 0.281 0.83267 0.86255 0.0
H995 H 0.32713 0.87095 0.86245 0.0
H996 H 0.85876 0.16352 0.35529 0.0
H997 H 0.82061 0.20989 0.35552 0.0
H998 H 0.77426 0.17126 0.40218 0.0
H999 H 0.81179 0.12412 0.40171 0.0
H1000 H 0.72927 0.19438 0.3799 0.0
H1001 H 0.8269 0.28811 0.38748 0.0
H1002 H 0.83278 0.26335 0.36823 0.0
H1003 H 0.83491 0.24468 0.38968 0.0
C1004 C 0.84035 0.16476 0.36557 0.0
C1005 C 0.83851 0.14019 0.37856 0.0
C1006 C 0.81871 0.1915 0.36577 0.0
C1007 C 0.79512 0.19467 0.37916 0.0
C1008 C 0.79246 0.16959 0.39181 0.0
H1009 H 0.69095 0.3781 0.40232 0.0
H1010 H 0.72833 0.33082 0.40263 0.0
C1011 C 0.8139 0.14259 0.3915 0.0
C1012 C 0.77315 0.22401 0.37987 0.0
H1013 H 0.77339 0.30812 0.38027 0.0
C1014 C 0.73894 0.21924 0.38007 0.0
C1015 C 0.78567 0.25654 0.38047 0.0
C1016 C 0.82206 0.26353 0.38165 0.0
C1017 C 0.71698 0.24596 0.38041 0.0
C1018 C 0.7295 0.27849 0.38004 0.0
C1019 C 0.76371 0.28326 0.38029 0.0
C1020 C 0.70755 0.30785 0.37946 0.0
C1021 C 0.68059 0.23894 0.38152 0.0
C1022 C 0.68402 0.3113 0.36607 0.0
C1023 C 0.66246 0.33811 0.36595 0.0
C1024 C 0.66432 0.36247 0.37905 0.0
C1025 C 0.68884 0.35978 0.39203 0.0
C1026 C 0.71019 0.33271 0.39224 0.0
H1027 H 0.67574 0.21424 0.38722 0.0
H1028 H 0.66771 0.25763 0.38965 0.0
H1029 H 0.66991 0.23937 0.36809 0.0
H1030 H 0.68214 0.29309 0.35572 0.0
H1031 H 0.64414 0.33958 0.35564 0.0
H1032 H 0.16261 0.85984 0.14634 0.0
H1033 H 0.20903 0.82177 0.14642 0.0
H1034 H 0.16967 0.77305 0.10064 0.0
H1035 H 0.12246 0.81056 0.10079 0.0
H1036 H 0.19309 0.72923 0.12354 0.0
H1037 H 0.28684 0.82622 0.11407 0.0
H1038 H 0.26233 0.83327 0.13331 0.0
H1039 H 0.24339 0.83416 0.1119 0.0
C1040 C 0.1637 0.84095 0.13631 0.0
C1041 C 0.1389 0.83843 0.12347 0.0
C1042 C 0.19048 0.81935 0.13629 0.0
C1043 C 0.19344 0.79508 0.12324 0.0
C1044 C 0.16815 0.79177 0.11075 0.0
H1045 H 0.3765 0.68913 0.10142 0.0
H1046 H 0.32947 0.72678 0.10065 0.0
C1047 C 0.14112 0.8132 0.11087 0.0
C1048 C 0.22276 0.77304 0.12276 0.0
H1049 H 0.3069 0.77317 0.12223 0.0
C1050 C 0.21796 0.73886 0.12315 0.0
C1051 C 0.25531 0.78548 0.1219 0.0
C1052 C 0.26232 0.82177 0.12008 0.0
C1053 C 0.24466 0.71686 0.12315 0.0
C1054 C 0.27723 0.72936 0.12328 0.0
C1055 C 0.28202 0.76352 0.12242 0.0
C1056 C 0.30658 0.70741 0.12419 0.0
C1057 C 0.23761 0.68043 0.12268 0.0
C1058 C 0.31004 0.68464 0.13796 0.0
C1059 C 0.33672 0.66292 0.13833 0.0
C1060 C 0.36094 0.66387 0.12513 0.0
C1061 C 0.35831 0.68772 0.1118 0.0
C1062 C 0.33136 0.70923 0.11132 0.0
H1063 H 0.21287 0.67528 0.1171 0.0
H1064 H 0.25624 0.66707 0.11475 0.0
H1065 H 0.2381 0.67057 0.13628 0.0
H1066 H 0.2919 0.68342 0.14837 0.0
H1067 H 0.33815 0.64513 0.14891 0.0
H1068 H 0.64308 0.16062 0.64585 0.0
H1069 H 0.68065 0.20747 0.64587 0.0
H1070 H 0.72809 0.1698 0.5993 0.0
H1071 H 0.69115 0.12219 0.59952 0.0
H1072 H 0.77252 0.19312 0.62178 0.0
H1073 H 0.67411 0.28602 0.61418 0.0
H1074 H 0.66826 0.26099 0.63335 0.0
H1075 H 0.66652 0.24254 0.61183 0.0
C1076 C 0.66159 0.16218 0.63564 0.0
C1077 C 0.66392 0.13773 0.6226 0.0
C1078 C 0.6829 0.1892 0.63557 0.0
C1079 C 0.70666 0.19276 0.6223 0.0
C1080 C 0.70977 0.16782 0.60959 0.0
H1081 H 0.80942 0.37716 0.59966 0.0
H1082 H 0.77233 0.32966 0.59932 0.0
C1083 C 0.68866 0.14056 0.60975 0.0
C1084 C 0.72836 0.22233 0.62176 0.0
H1085 H 0.72737 0.30645 0.62157 0.0
C1086 C 0.76262 0.21788 0.62164 0.0
C1087 C 0.71555 0.25475 0.62122 0.0
C1088 C 0.67911 0.26142 0.61996 0.0
C1089 C 0.78433 0.24481 0.62143 0.0
C1090 C 0.77152 0.27723 0.62185 0.0
C1091 C 0.73727 0.28168 0.62153 0.0
C1092 C 0.79322 0.30679 0.62249 0.0
C1093 C 0.8208 0.23814 0.62038 0.0
C1094 C 0.81669 0.31039 0.6359 0.0
C1095 C 0.83809 0.33734 0.63604 0.0
C1096 C 0.83612 0.36169 0.62293 0.0
C1097 C 0.81162 0.35887 0.60995 0.0
C1098 C 0.79043 0.33166 0.60972 0.0
H1099 H 0.82592 0.21351 0.61467 0.0
H1100 H 0.83356 0.25697 0.6123 0.0
H1101 H 0.83138 0.23862 0.63383 0.0
H1102 H 0.81868 0.29218 0.64624 0.0
H1103 H 0.85641 0.3389 0.64635 0.0
H1104 H 0.56404 0.71269 0.12065 0.0
H1105 H 0.58101 0.76998 0.11852 0.0
H1106 H 0.49286 0.79262 0.08943 0.0
H1107 H 0.47584 0.73487 0.09117 0.0
H1108 H 0.59062 0.80767 0.08649 0.0
H1109 H 0.49539 0.85985 0.131 0.0
H1110 H 0.50568 0.81665 0.13077 0.0
H1111 H 0.48045 0.83369 0.11367 0.0
C1112 C 0.5483 0.72966 0.11364 0.0
C1113 C 0.51862 0.71904 0.10595 0.0
C1114 C 0.55802 0.76246 0.11253 0.0
C1115 C 0.53815 0.78544 0.10388 0.0
C1116 C 0.50835 0.7752 0.09633 0.0
H1117 H 0.54804 0.99389 0.087 0.0
H1118 H 0.53549 0.93514 0.08636 0.0
C1119 C 0.49861 0.74225 0.09738 0.0
C1120 C 0.54895 0.82006 0.10267 0.0
H1121 H 0.5299 0.8976 0.11628 0.0
C1122 C 0.57744 0.82742 0.093 0.0
C1123 C 0.53174 0.84554 0.11129 0.0
C1124 C 0.50175 0.83869 0.1224 0.0
C1125 C 0.58876 0.8599 0.09136 0.0
C1126 C 0.57141 0.88543 0.0999 0.0
C1127 C 0.5431 0.87794 0.10971 0.0
C1128 C 0.58132 0.92035 0.09849 0.0
C1129 C 0.61864 0.86673 0.08018 0.0
C1130 C 0.61164 0.93145 0.10514 0.0
C1131 C 0.61893 0.96514 0.10539 0.0
C1132 C 0.59575 0.98795 0.09926 0.0
C1133 C 0.56608 0.97664 0.092 0.0
C1134 C 0.55893 0.94318 0.09161 0.0
H1135 H 0.62437 0.84584 0.07127 0.0
H1136 H 0.61506 0.88924 0.07214 0.0
H1137 H 0.64021 0.87075 0.08886 0.0
H1138 H 0.62904 0.91425 0.11076 0.0
H1139 H 0.64181 0.97353 0.11114 0.0
H1140 H 0.75702 0.47314 0.60721 0.0
H1141 H 0.69967 0.49166 0.60496 0.0
H1142 H 0.73266 0.58584 0.58574 0.0
H1143 H 0.78966 0.56749 0.58787 0.0
H1144 H 0.69061 0.58991 0.61474 0.0
H1145 H 0.63899 0.50971 0.56242 0.0
H1146 H 0.66029 0.48835 0.5797 0.0
H1147 H 0.68269 0.51551 0.56543 0.0
C1148 C 0.75193 0.49748 0.60214 0.0
C1149 C 0.77781 0.51898 0.5979 0.0
C1150 C 0.71922 0.50805 0.60086 0.0
C1151 C 0.71197 0.54011 0.59514 0.0
C1152 C 0.73774 0.56106 0.59024 0.0
H1153 H 0.51488 0.61873 0.57607 0.0
H1154 H 0.5739 0.60676 0.57342 0.0
C1155 C 0.77029 0.55058 0.59154 0.0
C1156 C 0.6779 0.55293 0.59561 0.0
H1157 H 0.60082 0.54174 0.57885 0.0
C1158 C 0.67101 0.57952 0.60681 0.0
C1159 C 0.65252 0.53956 0.58511 0.0
C1160 C 0.65891 0.51189 0.57235 0.0
C1161 C 0.63918 0.59257 0.60813 0.0
C1162 C 0.61357 0.57847 0.59809 0.0
C1163 C 0.62057 0.55244 0.58655 0.0
C1164 C 0.57899 0.58912 0.60013 0.0
C1165 C 0.63317 0.62132 0.62025 0.0
C1166 C 0.56261 0.58369 0.6161 0.0
C1167 C 0.52911 0.59054 0.61762 0.0
C1168 C 0.51138 0.60296 0.60322 0.0
C1169 C 0.5281 0.60969 0.58744 0.0
C1170 C 0.56165 0.60257 0.58587 0.0
H1171 H 0.65635 0.63455 0.62342 0.0
H1172 H 0.61553 0.63898 0.61432 0.0
H1173 H 0.62245 0.61221 0.63276 0.0
H1174 H 0.57545 0.57295 0.62718 0.0
H1175 H 0.5167 0.58509 0.62988 0.0
H1176 H 0.878 0.51783 0.07984 0.0
H1177 H 0.8904 0.57684 0.07791 0.0
H1178 H 0.93251 0.57393 0.12996 0.0
H1179 H 0.91977 0.51523 0.132 0.0
H1180 H 0.89285 0.63007 0.12315 0.0
H1181 H 0.98704 0.6083 0.07134 0.0
H1182 H 0.94653 0.5927 0.0668 0.0
H1183 H 0.97009 0.57548 0.08451 0.0
C1184 C 0.88909 0.53003 0.09102 0.0
C1185 C 0.89807 0.51204 0.10606 0.0
C1186 C 0.89655 0.56356 0.08982 0.0
C1187 C 0.91295 0.57949 0.10366 0.0
C1188 C 0.92008 0.562 0.11909 0.0
H1189 H 0.02711 0.75923 0.10978 0.0
H1190 H 0.00868 0.70172 0.10836 0.0
C1191 C 0.9128 0.52856 0.12025 0.0
C1192 C 0.92406 0.614 0.10197 0.0
H1193 H 0.97842 0.66338 0.08011 0.0
C1194 C 0.91139 0.63744 0.11367 0.0
C1195 C 0.94872 0.62328 0.0898 0.0
C1196 C 0.96418 0.59866 0.07746 0.0
C1197 C 0.9226 0.67006 0.11348 0.0
C1198 C 0.94685 0.67949 0.10111 0.0
C1199 C 0.95969 0.65603 0.08947 0.0
C1200 C 0.9591 0.7137 0.10022 0.0
C1201 C 0.90892 0.69403 0.12675 0.0
C1202 C 0.93767 0.73918 0.0955 0.0
C1203 C 0.94811 0.7718 0.09627 0.0
C1204 C 0.98025 0.77961 0.10171 0.0
C1205 C 0.00227 0.75393 0.10551 0.0
C1206 C 0.99174 0.72116 0.10477 0.0
H1207 H 0.89628 0.68128 0.13777 0.0
H1208 H 0.92875 0.70976 0.13224 0.0
H1209 H 0.89076 0.71029 0.12019 0.0
H1210 H 0.9126 0.73385 0.0916 0.0
H1211 H 0.93082 0.791 0.09285 0.0
H1212 H 0.72626 0.94091 0.61692 0.0
H1213 H 0.78269 0.92508 0.61033 0.0
H1214 H 0.79049 0.00527 0.57346 0.0
H1215 H 0.73346 0.02115 0.57984 0.0
H1216 H 0.81008 0.90779 0.57653 0.0
H1217 H 0.8701 0.01668 0.60729 0.0
H1218 H 0.82797 0.00556 0.61186 0.0
H1219 H 0.83841 0.02479 0.59136 0.0
C1220 C 0.73977 0.9551 0.6073 0.0
C1221 C 0.72522 0.98222 0.59883 0.0
C1222 C 0.77209 0.94604 0.60359 0.0
C1223 C 0.79071 0.964 0.59143 0.0
C1224 C 0.77654 0.99128 0.58301 0.0
H1225 H 1.00057 0.94523 0.57227 0.0
H1226 H 0.94246 0.95882 0.56783 0.0
C1227 C 0.74404 1.00039 0.58672 0.0
C1228 C 0.82505 0.95398 0.58786 0.0
H1229 H 0.90464 0.97659 0.59503 0.0
C1230 C 0.83084 0.9229 0.58041 0.0
C1231 C 0.85194 0.9738 0.59293 0.0
C1232 C 0.84702 0.00699 0.60142 0.0
C1233 C 0.86294 0.91092 0.57809 0.0
C1234 C 0.88984 0.93031 0.5837 0.0
C1235 C 0.88399 0.96176 0.5907 0.0
C1236 C 0.92422 0.91813 0.58339 0.0
C1237 C 0.86773 0.87769 0.56966 0.0
C1238 C 0.93324 0.89005 0.59308 0.0
C1239 C 0.96646 0.88206 0.59539 0.0
C1240 C 0.99094 0.90236 0.58831 0.0
C1241 C 0.98189 0.92929 0.57781 0.0
C1242 C 0.94881 0.93707 0.57533 0.0
H1243 H 0.8465 0.87105 0.56117 0.0
H1244 H 0.89051 0.87702 0.56162 0.0
H1245 H 0.86976 0.85873 0.5801 0.0
H1246 H 0.91476 0.87549 0.59975 0.0
H1247 H 0.97311 0.86153 0.60374 0.0
H1248 H 0.58616 0.51816 0.87273 0.0
H1249 H 0.57443 0.57697 0.87514 0.0
H1250 H 0.60886 0.5763 0.9288 0.0
H1251 H 0.62033 0.5171 0.92645 0.0
H1252 H 0.54522 0.60442 0.92396 0.0
H1253 H 0.63619 0.65691 0.87745 0.0
H1254 H 0.61284 0.62348 0.86838 0.0
H1255 H 0.64017 0.61607 0.88655 0.0
C1256 C 0.59181 0.53075 0.88491 0.0
C1257 C 0.60428 0.51321 0.89937 0.0
C1258 C 0.58521 0.5643 0.88627 0.0
C1259 C 0.59101 0.581 0.9021 0.0
C1260 C 0.60442 0.56383 0.91643 0.0
H1261 H 0.56957 0.79293 0.90832 0.0
H1262 H 0.58869 0.73649 0.91218 0.0
C1263 C 0.61125 0.53017 0.91504 0.0
C1264 C 0.58084 0.61579 0.90388 0.0
H1265 H 0.59124 0.69158 0.88551 0.0
C1266 C 0.55552 0.62363 0.91572 0.0
C1267 C 0.59444 0.64074 0.89318 0.0
C1268 C 0.62263 0.63402 0.88079 0.0
C1269 C 0.5427 0.65567 0.91675 0.0
C1270 C 0.55533 0.68027 0.90548 0.0
C1271 C 0.58136 0.6726 0.89404 0.0
C1272 C 0.54215 0.71426 0.9052 0.0
C1273 C 0.51586 0.6629 0.92988 0.0
C1274 C 0.50939 0.72054 0.90032 0.0
C1275 C 0.49836 0.75293 0.89812 0.0
C1276 C 0.52008 0.77941 0.90054 0.0
C1277 C 0.55245 0.77298 0.90608 0.0
C1278 C 0.56337 0.74077 0.90836 0.0
H1279 H 0.51514 0.64423 0.94055 0.0
H1280 H 0.51919 0.6876 0.93585 0.0
H1281 H 0.49172 0.66252 0.92306 0.0
H1282 H 0.49275 0.70042 0.89751 0.0
H1283 H 0.4734 0.75721 0.89371 0.0
H1284 H 0.74379 0.47396 0.39535 0.0
H1285 H 0.80102 0.49252 0.39824 0.0
H1286 H 0.76717 0.58732 0.41613 0.0
H1287 H 0.71027 0.56895 0.41329 0.0
H1288 H 0.80997 0.59116 0.38803 0.0
H1289 H 0.86074 0.51145 0.44072 0.0
H1290 H 0.84038 0.48953 0.42332 0.0
H1291 H 0.81708 0.51661 0.43724 0.0
C1292 C 0.74866 0.49845 0.40028 0.0
C1293 C 0.7226 0.52012 0.40392 0.0
C1294 C 0.78131 0.50904 0.40195 0.0
C1295 C 0.78831 0.54128 0.40746 0.0
C1296 C 0.76231 0.56239 0.41181 0.0
H1297 H 0.98683 0.61813 0.42601 0.0
H1298 H 0.92777 0.60658 0.42919 0.0
C1299 C 0.72982 0.5519 0.4101 0.0
C1300 C 0.8224 0.55416 0.4072 0.0
H1301 H 0.89942 0.54258 0.42399 0.0
C1302 C 0.82947 0.58071 0.396 0.0
C1303 C 0.84769 0.54074 0.41775 0.0
C1304 C 0.84115 0.5132 0.43057 0.0
C1305 C 0.86137 0.59358 0.39469 0.0
C1306 C 0.88692 0.5793 0.40469 0.0
C1307 C 0.87973 0.55341 0.4163 0.0
C1308 C 0.92162 0.58945 0.40245 0.0
C1309 C 0.8675 0.6223 0.38256 0.0
C1310 C 0.93744 0.58407 0.38631 0.0
C1311 C 0.97093 0.59068 0.3845 0.0
C1312 C 0.98923 0.6028 0.39876 0.0
C1313 C 0.97313 0.60936 0.41474 0.0
C1314 C 0.93957 0.60247 0.41661 0.0
H1315 H 0.84446 0.63597 0.37966 0.0
H1316 H 0.88568 0.63961 0.38832 0.0
H1317 H 0.87755 0.61307 0.36991 0.0
H1318 H 0.92415 0.5736 0.37531 0.0
H1319 H 0.98288 0.58531 0.37209 0.0
H1320 H 0.91409 0.98263 0.87158 0.0
H1321 H 0.92604 0.92389 0.87429 0.0
H1322 H 0.8924 0.92559 0.92809 0.0
H1323 H 0.88068 0.98468 0.92542 0.0
H1324 H 0.95623 0.89761 0.92305 0.0
H1325 H 0.86432 0.84382 0.87748 0.0
H1326 H 0.88736 0.87718 0.86811 0.0
H1327 H 0.86038 0.88479 0.88641 0.0
C1328 C 0.90864 0.97026 0.88385 0.0
C1329 C 0.8963 0.98804 0.89825 0.0
C1330 C 0.91538 0.93676 0.88538 0.0
C1331 C 0.90988 0.92038 0.90134 0.0
C1332 C 0.89661 0.93781 0.91563 0.0
H1333 H 0.93152 0.70873 0.90922 0.0
H1334 H 0.91258 0.76528 0.91278 0.0
C1335 C 0.88962 0.9714 0.91405 0.0
C1336 C 0.92016 0.88566 0.9033 0.0
H1337 H 0.90936 0.80938 0.88562 0.0
C1338 C 0.94576 0.87817 0.91504 0.0
C1339 C 0.90633 0.86043 0.89289 0.0
C1340 C 0.87786 0.86681 0.88062 0.0
C1341 C 0.95862 0.84617 0.91623 0.0
C1342 C 0.94572 0.82125 0.90525 0.0
C1343 C 0.91944 0.8286 0.89392 0.0
C1344 C 0.95889 0.78726 0.90517 0.0
C1345 C 0.98578 0.8393 0.92923 0.0
C1346 C 0.99148 0.78081 0.90004 0.0
C1347 C 0.00241 0.74835 0.898 0.0
C1348 C 0.98075 0.72197 0.90084 0.0
C1349 C 0.94858 0.72859 0.90665 0.0
C1350 C 0.93776 0.76087 0.90876 0.0
H1351 H 0.98682 0.85832 0.93971 0.0
H1352 H 0.98252 0.81482 0.93547 0.0
H1353 H 0.00973 0.83937 0.92224 0.0
H1354 H 0.00803 0.80084 0.8969 0.0
H1355 H 0.0272 0.74392 0.89338 0.0
H1356 H 0.51865 0.88176 0.42435 0.0
H1357 H 0.57745 0.89495 0.42649 0.0
H1358 H 0.57593 0.93193 0.37333 0.0
H1359 H 0.51746 0.91833 0.37106 0.0
H1360 H 0.63189 0.8935 0.38156 0.0
H1361 H 0.60856 0.99191 0.43085 0.0
H1362 H 0.59306 0.95179 0.43636 0.0
H1363 H 0.57609 0.9736 0.41794 0.0
C1364 C 0.5311 0.89193 0.41301 0.0
C1365 C 0.51355 0.89919 0.39755 0.0
C1366 C 0.56452 0.89984 0.41431 0.0
C1367 C 0.58078 0.91502 0.40018 0.0
C1368 C 0.56374 0.92049 0.38443 0.0
H1369 H 0.76053 0.02889 0.39275 0.0
H1370 H 0.703 0.01053 0.39422 0.0
C1371 C 0.53042 0.91274 0.38314 0.0
C1372 C 0.6152 0.9264 0.40185 0.0
H1373 H 0.66394 0.98256 0.42281 0.0
C1374 C 0.63898 0.91282 0.39064 0.0
C1375 C 0.62412 0.95205 0.4135 0.0
C1376 C 0.59915 0.96847 0.42527 0.0
C1377 C 0.67158 0.92409 0.39083 0.0
C1378 C 0.68065 0.94932 0.40269 0.0
C1379 C 0.65686 0.96307 0.41383 0.0
C1380 C 0.71483 0.96167 0.40356 0.0
C1381 C 0.69592 0.90938 0.37806 0.0
C1382 C 0.74021 0.94067 0.40893 0.0
C1383 C 0.77284 0.95107 0.40814 0.0
C1384 C 0.78076 0.98274 0.402 0.0
C1385 C 0.75515 0.00442 0.39755 0.0
C1386 C 0.72237 0.99392 0.39832 0.0
H1387 H 0.68346 0.89589 0.36724 0.0
H1388 H 0.7118 0.92877 0.37225 0.0
H1389 H 0.71199 0.89177 0.38516 0.0
H1390 H 0.7348 0.91594 0.41337 0.0
H1391 H 0.79199 0.93409 0.41205 0.0
H1392 H 0.43296 0.29239 0.91289 0.0
H1393 H 0.41427 0.23574 0.91646 0.0
H1394 H 0.50869 0.2006 0.89867 0.0
H1395 H 0.52761 0.25759 0.89516 0.0
H1396 H 0.40923 0.19223 0.88922 0.0
H1397 H 0.49043 0.14216 0.94139 0.0
H1398 H 0.48593 0.18574 0.93747 0.0
H1399 H 0.51219 0.16141 0.92359 0.0
C1400 C 0.44986 0.27259 0.90991 0.0
C1401 C 0.48164 0.27934 0.90358 0.0
C1402 C 0.43919 0.24025 0.91203 0.0
C1403 C 0.46009 0.21396 0.90791 0.0
C1404 C 0.49234 0.22054 0.90223 0.0
H1405 H 0.41368 0.01954 0.87359 0.0
H1406 H 0.42558 0.07823 0.8766 0.0
C1407 C 0.50312 0.25304 0.9002 0.0
C1408 C 0.44697 0.17995 0.90801 0.0
H1409 H 0.45898 0.10315 0.92496 0.0
C1410 C 0.41993 0.17282 0.89716 0.0
C1411 C 0.4607 0.15478 0.91853 0.0
C1412 C 0.48872 0.16138 0.93104 0.0
C1413 C 0.40687 0.14097 0.89614 0.0
C1414 C 0.42152 0.1155 0.90605 0.0
C1415 C 0.44788 0.12277 0.91733 0.0
C1416 C 0.41128 0.08079 0.90399 0.0
C1417 C 0.3776 0.13482 0.88439 0.0
C1418 C 0.39911 0.06285 0.91836 0.0
C1419 C 0.39217 0.02928 0.91662 0.0
C1420 C 0.39781 0.01318 0.90054 0.0
C1421 C 0.40907 0.03148 0.88608 0.0
C1422 C 0.41576 0.06495 0.88778 0.0
H1423 H 0.36374 0.15783 0.88172 0.0
H1424 H 0.38626 0.12489 0.8716 0.0
H1425 H 0.36061 0.11656 0.89035 0.0
H1426 H 0.3957 0.07466 0.93101 0.0
H1427 H 0.38405 0.0156 0.92804 0.0
H1428 H 0.20922 0.4291 0.41022 0.0
H1429 H 0.26597 0.41044 0.41334 0.0
H1430 H 0.30066 0.50598 0.39713 0.0
H1431 H 0.24359 0.52484 0.39394 0.0
H1432 H 0.31015 0.4079 0.38571 0.0
H1433 H 0.3582 0.48504 0.4402 0.0
H1434 H 0.31474 0.48 0.43605 0.0
H1435 H 0.33866 0.50777 0.42284 0.0
C1436 C 0.22892 0.44623 0.40743 0.0
C1437 C 0.22199 0.47835 0.40165 0.0
C1438 C 0.26132 0.43557 0.40931 0.0
C1439 C 0.28751 0.45682 0.40554 0.0
C1440 C 0.28078 0.48934 0.40039 0.0
H1441 H 0.48401 0.41513 0.37257 0.0
H1442 H 0.42505 0.42628 0.37497 0.0
C1443 C 0.24822 0.50009 0.39856 0.0
C1444 C 0.3216 0.44395 0.40556 0.0
H1445 H 0.39771 0.45471 0.42363 0.0
C1446 C 0.32924 0.41796 0.39411 0.0
C1447 C 0.34632 0.45685 0.41667 0.0
C1448 C 0.33911 0.48376 0.42977 0.0
C1449 C 0.36121 0.40515 0.39308 0.0
C1450 C 0.38622 0.41894 0.40365 0.0
C1451 C 0.37843 0.44426 0.4155 0.0
C1452 C 0.42104 0.40891 0.40179 0.0
C1453 C 0.368 0.37706 0.38063 0.0
C1454 C 0.43822 0.39517 0.41603 0.0
C1455 C 0.47193 0.38862 0.41463 0.0
C1456 C 0.48894 0.39625 0.39906 0.0
C1457 C 0.47138 0.409 0.38468 0.0
C1458 C 0.43776 0.41527 0.38603 0.0
H1459 H 0.34512 0.3636 0.37715 0.0
H1460 H 0.3788 0.38692 0.36831 0.0
H1461 H 0.38581 0.35943 0.38644 0.0
H1462 H 0.42571 0.39027 0.42833 0.0
H1463 H 0.485 0.3793 0.42598 0.0
H1464 H 0.06857 0.2087 0.91199 0.0
H1465 H 0.08712 0.26548 0.91507 0.0
H1466 H 0.99265 0.29988 0.89698 0.0
H1467 H 0.97389 0.24276 0.89385 0.0
H1468 H 0.0915 0.30894 0.88726 0.0
H1469 H 0.011 0.35847 0.93995 0.0
H1470 H 0.01615 0.31491 0.93618 0.0
H1471 H 0.98933 0.3386 0.9223 0.0
C1472 C 0.05164 0.22835 0.90879 0.0
C1473 C 0.01988 0.22131 0.9025 0.0
C1474 C 0.06223 0.26076 0.91064 0.0
C1475 C 0.04126 0.28688 0.90632 0.0
C1476 C 0.00906 0.28007 0.90066 0.0
H1477 H 0.08642 0.48237 0.8728 0.0
H1478 H 0.07466 0.42358 0.87538 0.0
C1479 C 0.99836 0.24748 0.89886 0.0
C1480 C 0.0542 0.32094 0.90634 0.0
H1481 H 0.04252 0.39749 0.92369 0.0
C1482 C 0.08095 0.32825 0.89533 0.0
C1483 C 0.04066 0.34596 0.91703 0.0
C1484 C 0.01289 0.33914 0.92967 0.0
C1485 C 0.09395 0.36013 0.89434 0.0
C1486 C 0.07956 0.38544 0.90448 0.0
C1487 C 0.05343 0.37799 0.91589 0.0
C1488 C 0.08987 0.42016 0.9026 0.0
C1489 C 0.1229 0.36652 0.8824 0.0
C1490 C 0.10256 0.43764 0.91701 0.0
C1491 C 0.10943 0.47127 0.91551 0.0
C1492 C 0.10317 0.4879 0.89966 0.0
C1493 C 0.09147 0.47005 0.88513 0.0
C1494 C 0.08486 0.43651 0.88659 0.0
H1495 H 0.13656 0.34353 0.87939 0.0
H1496 H 0.11392 0.37695 0.8698 0.0
H1497 H 0.14015 0.38449 0.8884 0.0
H1498 H 0.10641 0.42543 0.92951 0.0
H1499 H 0.11793 0.48457 0.92698 0.0
H1500 H 0.29187 0.06646 0.41289 0.0
H1501 H 0.23538 0.08576 0.41628 0.0
H1502 H 0.19942 0.9926 0.39714 0.0
H1503 H 0.25629 0.97309 0.39373 0.0
H1504 H 0.19291 0.09161 0.388 0.0
H1505 H 0.14 0.01139 0.43989 0.0
H1506 H 0.18379 0.01576 0.43657 0.0
H1507 H 0.16006 0.9897 0.42231 0.0
C1508 C 0.27192 0.04995 0.40959 0.0
C1509 C 0.27841 0.01841 0.40285 0.0
C1510 C 0.23969 0.06096 0.4116 0.0
C1511 C 0.21323 0.04063 0.407 0.0
C1512 C 0.2195 0.00851 0.40103 0.0
H1513 H 0.01957 0.08996 0.37241 0.0
H1514 H 0.07815 0.07721 0.3753 0.0
C1515 C 0.25192 0.99739 0.39907 0.0
C1516 C 0.1795 0.05435 0.40684 0.0
H1517 H 0.10224 0.04431 0.42357 0.0
C1518 C 0.17314 0.08143 0.39589 0.0
C1519 C 0.15389 0.04126 0.41728 0.0
C1520 C 0.15971 0.01311 0.42981 0.0
C1521 C 0.14162 0.09521 0.39472 0.0
C1522 C 0.11573 0.08132 0.40462 0.0
C1523 C 0.12221 0.05485 0.41597 0.0
C1524 C 0.08133 0.09249 0.40251 0.0
C1525 C 0.13622 0.12445 0.38284 0.0
C1526 C 0.06386 0.10565 0.4168 0.0
C1527 C 0.03041 0.11315 0.41511 0.0
C1528 C 0.01395 0.10707 0.39918 0.0
C1529 C 0.03183 0.09498 0.38476 0.0
C1530 C 0.06522 0.08776 0.38641 0.0
H1531 H 0.15963 0.13748 0.37997 0.0
H1532 H 0.1257 0.11589 0.37018 0.0
H1533 H 0.11866 0.14213 0.38883 0.0
H1534 H 0.07591 0.10929 0.42936 0.0
H1535 H 0.01702 0.1219 0.42649 0.0
H1536 H 0.44299 0.21525 0.08057 0.0
H1537 H 0.42402 0.27211 0.07867 0.0
H1538 H 0.51082 0.30436 0.10637 0.0
H1539 H 0.53 0.24707 0.10824 0.0
H1540 H 0.41102 0.30837 0.10921 0.0
H1541 H 0.50094 0.37195 0.06588 0.0
H1542 H 0.49631 0.32775 0.06617 0.0
H1543 H 0.51852 0.3481 0.08344 0.0
C1544 C 0.45828 0.23454 0.08599 0.0
C1545 C 0.48777 0.22685 0.09471 0.0
C1546 C 0.44747 0.26697 0.08487 0.0
C1547 C 0.46598 0.29239 0.09238 0.0
C1548 C 0.49639 0.28509 0.10028 0.0
H1549 H 0.40435 0.48033 0.13128 0.0
H1550 H 0.41958 0.42246 0.12741 0.0
C1551 C 0.50734 0.25247 0.10134 0.0
C1552 C 0.4516 0.32574 0.09351 0.0
H1553 H 0.46259 0.40565 0.08114 0.0
C1554 C 0.42219 0.32962 0.10299 0.0
C1555 C 0.46611 0.35329 0.08527 0.0
C1556 C 0.49708 0.3502 0.07448 0.0
C1557 C 0.40722 0.36049 0.10474 0.0
C1558 C 0.42218 0.38817 0.0969 0.0
C1559 C 0.45122 0.38426 0.08712 0.0
C1560 C 0.40907 0.4217 0.09951 0.0
C1561 C 0.37551 0.36332 0.11494 0.0
C1562 C 0.39755 0.44011 0.08516 0.0
C1563 C 0.38847 0.47302 0.08743 0.0
C1564 C 0.39133 0.48798 0.10401 0.0
C1565 C 0.40165 0.46909 0.11844 0.0
C1566 C 0.41038 0.43619 0.11623 0.0
H1567 H 0.36325 0.33908 0.11653 0.0
H1568 H 0.38086 0.37322 0.12824 0.0
H1569 H 0.35824 0.38048 0.10832 0.0
H1570 H 0.39659 0.42931 0.07214 0.0
H1571 H 0.38126 0.48731 0.07605 0.0
H1572 H 0.29009 0.43158 0.58938 0.0
H1573 H 0.2333 0.413 0.58637 0.0
H1574 H 0.19893 0.5073 0.60472 0.0
H1575 H 0.25608 0.52607 0.6078 0.0
H1576 H 0.19029 0.40875 0.6146 0.0
H1577 H 0.13976 0.48854 0.56183 0.0
H1578 H 0.1834 0.48333 0.56536 0.0
H1579 H 0.16005 0.51027 0.57933 0.0
C1580 C 0.27045 0.44847 0.59264 0.0
C1581 C 0.2775 0.48016 0.59902 0.0
C1582 C 0.23803 0.43787 0.59084 0.0
C1583 C 0.21192 0.45877 0.59527 0.0
C1584 C 0.21874 0.49094 0.60096 0.0
H1585 H 0.01663 0.41312 0.62916 0.0
H1586 H 0.07537 0.42532 0.62652 0.0
C1587 C 0.25133 0.50164 0.60273 0.0
C1588 C 0.17791 0.44572 0.5954 0.0
H1589 H 0.10116 0.45669 0.57816 0.0
C1590 C 0.17085 0.41908 0.60653 0.0
C1591 C 0.15273 0.45899 0.58473 0.0
C1592 C 0.1593 0.48667 0.572 0.0
C1593 C 0.13904 0.40591 0.60764 0.0
C1594 C 0.11359 0.41998 0.59748 0.0
C1595 C 0.12078 0.44602 0.58596 0.0
C1596 C 0.07897 0.4094 0.59943 0.0
C1597 C 0.1329 0.37709 0.6197 0.0
C1598 C 0.06165 0.39612 0.58511 0.0
C1599 C 0.0281 0.38894 0.58666 0.0
C1600 C 0.01138 0.39545 0.60246 0.0
C1601 C 0.02907 0.40777 0.61689 0.0
C1602 C 0.06256 0.41467 0.6154 0.0
H1603 H 0.15602 0.36375 0.62283 0.0
H1604 H 0.12225 0.38617 0.63224 0.0
H1605 H 0.11517 0.35955 0.61374 0.0
H1606 H 0.07392 0.39208 0.57265 0.0
H1607 H 0.01487 0.38002 0.57526 0.0
H1608 H 0.06712 0.29057 0.08298 0.0
H1609 H 0.0854 0.23368 0.07999 0.0
H1610 H 0.99359 0.20002 0.10198 0.0
H1611 H 0.97514 0.25724 0.10506 0.0
H1612 H 0.09301 0.1923 0.10875 0.0
H1613 H 0.00776 0.13849 0.05949 0.0
H1614 H 0.01322 0.18233 0.06208 0.0
H1615 H 0.98785 0.15983 0.07724 0.0
C1616 C 0.05068 0.27105 0.08703 0.0
C1617 C 0.01984 0.27833 0.09445 0.0
C1618 C 0.0611 0.23857 0.08523 0.0
C1619 C 0.04085 0.21265 0.09071 0.0
C1620 C 0.0094 0.21967 0.09741 0.0
H1621 H 0.08892 0.02012 0.12721 0.0
H1622 H 0.07673 0.07867 0.12353 0.0
C1623 C 0.99888 0.25232 0.09917 0.0
C1624 C 0.05404 0.17871 0.09097 0.0
H1625 H 0.04115 0.10087 0.07564 0.0
C1626 C 0.08184 0.17236 0.10139 0.0
C1627 C 0.03964 0.15287 0.08121 0.0
C1628 C 0.01064 0.15865 0.06923 0.0
C1629 C 0.09503 0.14061 0.10275 0.0
C1630 C 0.07983 0.11452 0.09358 0.0
C1631 C 0.05267 0.12099 0.0827 0.0
C1632 C 0.09038 0.08002 0.09603 0.0
C1633 C 0.12503 0.13518 0.11407 0.0
C1634 C 0.10237 0.06152 0.08182 0.0
C1635 C 0.10959 0.0281 0.08396 0.0
C1636 C 0.10437 0.01271 0.10028 0.0
C1637 C 0.09328 0.03157 0.11456 0.0
C1638 C 0.08638 0.06492 0.11247 0.0
H1639 H 0.13873 0.15844 0.11634 0.0
H1640 H 0.11722 0.12545 0.12705 0.0
H1641 H 0.14189 0.11698 0.10797 0.0
H1642 H 0.10538 0.07276 0.069 0.0
H1643 H 0.11751 0.01393 0.07268 0.0
H1644 H 0.48481 0.12112 0.57571 0.0
H1645 H 0.42549 0.11025 0.57351 0.0
H1646 H 0.42582 0.07141 0.6263 0.0
H1647 H 0.48474 0.08261 0.6286 0.0
H1648 H 0.39723 0.04657 0.57691 0.0
H1649 H 0.34605 0.13335 0.62601 0.0
H1650 H 0.38675 0.13798 0.61681 0.0
H1651 H 0.37954 0.10913 0.63432 0.0
C1652 C 0.47195 0.11119 0.58699 0.0
C1653 C 0.48923 0.10279 0.60236 0.0
C1654 C 0.43822 0.10471 0.58567 0.0
C1655 C 0.42129 0.09022 0.59978 0.0
C1656 C 0.4383 0.08303 0.61535 0.0
H1657 H 0.24565 0.97171 0.60648 0.0
H1658 H 0.30225 0.99161 0.60257 0.0
C1659 C 0.47193 0.0893 0.61664 0.0
C1660 C 0.38642 0.08032 0.59797 0.0
H1661 H 0.31116 0.08903 0.61717 0.0
C1662 C 0.37825 0.05612 0.58554 0.0
C1663 C 0.36177 0.09296 0.60918 0.0
C1664 C 0.36883 0.12002 0.62223 0.0
C1665 C 0.34618 0.04342 0.58442 0.0
C1666 C 0.3219 0.05497 0.59621 0.0
C1667 C 0.32989 0.07995 0.60824 0.0
C1668 C 0.28797 0.04165 0.59647 0.0
C1669 C 0.33858 0.01783 0.57065 0.0
C1670 C 0.26128 0.06306 0.59425 0.0
C1671 C 0.22921 0.05182 0.59662 0.0
C1672 C 0.22311 0.01893 0.60129 0.0
C1673 C 0.24971 0.99708 0.60274 0.0
C1674 C 0.28198 0.00843 0.60047 0.0
H1675 H 0.35682 0.0183 0.55977 0.0
H1676 H 0.33941 0.99307 0.57678 0.0
H1677 H 0.31363 0.02153 0.56505 0.0
H1678 H 0.26534 0.08874 0.59112 0.0
H1679 H 0.20912 0.06907 0.59513 0.0
H1680 H 0.44498 0.90069 0.95259 0.0
H1681 H 0.45785 0.93207 0.97924 0.0
H1682 H 0.52935 0.98887 0.9504 0.0
H1683 H 0.51679 0.95759 0.92375 0.0
H1684 H 0.5502 0.96727 0.98485 0.0
H1685 H 0.42847 0.02948 0.98545 0.0
H1686 H 0.42711 0.98534 0.98429 0.0
H1687 H 0.44422 0.00837 0.96633 0.0
C1688 C 0.46375 0.91956 0.95198 0.0
C1689 C 0.47979 0.92675 0.93606 0.0
C1690 C 0.47089 0.93762 0.96717 0.0
C1691 C 0.49414 0.96312 0.96668 0.0
C1692 C 0.51118 0.9694 0.95101 0.0
H1693 H 0.56689 0.10311 0.04507 0.0
H1694 H 0.55658 0.07298 0.01765 0.0
C1695 C 0.50399 0.95147 0.93581 0.0
C1696 C 0.50015 0.98382 0.98238 0.0
H1697 H 0.46325 0.03894 0.00993 0.0
C1698 C 0.53129 0.98307 0.99032 0.0
C1699 C 0.47542 0.0045 0.98937 0.0
C1700 C 0.44198 0.00732 0.98088 0.0
C1701 C 0.53811 0.00182 0.0054 0.0
C1702 C 0.51328 0.0223 0.01249 0.0
C1703 C 0.48223 0.02326 0.00444 0.0
C1704 C 0.51859 0.0419 0.02868 0.0
C1705 C 0.57149 0.99886 0.01394 0.0
C1706 C 0.49988 0.03517 0.04375 0.0
C1707 C 0.50553 0.05244 0.05932 0.0
C1708 C 0.5299 0.07694 0.06011 0.0
C1709 C 0.54795 0.08438 0.04485 0.0
C1710 C 0.54228 0.06702 0.02924 0.0
H1711 H 0.58511 0.97687 0.00921 0.0
H1712 H 0.58632 0.02097 0.01073 0.0
H1713 H 0.56916 0.99738 0.02847 0.0
H1714 H 0.48139 0.01598 0.04356 0.0
H1715 H 0.49123 0.04607 0.07085 0.0
H1716 H 0.39717 0.55891 0.54792 0.0
H1717 H 0.4268 0.54714 0.52053 0.0
H1718 H 0.48754 0.47684 0.5479 0.0
H1719 H 0.45793 0.48813 0.57518 0.0
H1720 H 0.49464 0.55569 0.51502 0.0
H1721 H 0.45803 0.42577 0.50425 0.0
H1722 H 0.4362 0.45273 0.51909 0.0
H1723 H 0.47417 0.43387 0.52581 0.0
C1724 C 0.41648 0.54056 0.54802 0.0
C1725 C 0.4251 0.52432 0.56368 0.0
C1726 C 0.43345 0.53396 0.5324 0.0
C1727 C 0.4591 0.51085 0.53215 0.0
C1728 C 0.4674 0.49428 0.54771 0.0
H1729 H 0.60084 0.44275 0.45489 0.0
H1730 H 0.57024 0.45491 0.4819 0.0
C1731 C 0.45052 0.50088 0.56331 0.0
C1732 C 0.47843 0.5053 0.51589 0.0
H1733 H 0.50197 0.44604 0.48667 0.0
C1734 C 0.49608 0.53178 0.50873 0.0
C1735 C 0.48039 0.47404 0.5078 0.0
C1736 C 0.46097 0.44502 0.51451 0.0
C1737 C 0.51615 0.5277 0.49386 0.0
C1738 C 0.51821 0.49641 0.48581 0.0
C1739 C 0.50049 0.46995 0.49294 0.0
C1740 C 0.53805 0.49068 0.46975 0.0
C1741 C 0.53556 0.55671 0.48712 0.0
C1742 C 0.53014 0.50685 0.45401 0.0
C1743 C 0.54758 0.50003 0.43861 0.0
C1744 C 0.57317 0.47676 0.43864 0.0
C1745 C 0.5814 0.46095 0.45448 0.0
C1746 C 0.56388 0.46777 0.46989 0.0
H1747 H 0.53803 0.57625 0.49726 0.0
H1748 H 0.56053 0.54906 0.48284 0.0
H1749 H 0.52267 0.56745 0.47561 0.0
H1750 H 0.50991 0.52416 0.45354 0.0
H1751 H 0.54048 0.51244 0.42659 0.0
H1752 H 0.9387 0.40139 0.04654 0.0
H1753 H 0.9498 0.43173 0.0193 0.0
H1754 H 0.01997 0.49248 0.04674 0.0
H1755 H 0.00939 0.46215 0.07388 0.0
H1756 H 0.94133 0.49964 0.01366 0.0
H1757 H 0.07127 0.46261 0.00325 0.0
H1758 H 0.04414 0.44095 0.01806 0.0
H1759 H 0.06304 0.47891 0.02475 0.0
C1760 C 0.95681 0.42093 0.0467 0.0
C1761 C 0.97334 0.42924 0.06232 0.0
C1762 C 0.96302 0.43829 0.03116 0.0
C1763 C 0.98601 0.46407 0.03096 0.0
C1764 C 0.00264 0.47226 0.04652 0.0
H1765 H 0.05561 0.60378 0.95301 0.0
H1766 H 0.04255 0.5744 0.98027 0.0
C1767 C 0.99646 0.45495 0.06203 0.0
C1768 C 0.99169 0.48334 0.01469 0.0
H1769 H 0.05119 0.50626 0.98546 0.0
C1770 C 0.96529 0.50094 0.00741 0.0
C1771 C 0.023 0.4851 0.00664 0.0
C1772 C 0.05194 0.46566 0.01346 0.0
C1773 C 0.96951 0.52077 0.99245 0.0
C1774 C 0.00086 0.52262 0.98445 0.0
C1775 C 0.02723 0.50495 0.99171 0.0
C1776 C 0.00675 0.54206 0.96827 0.0
C1777 C 0.94058 0.5401 0.98555 0.0
C1778 C 0.9908 0.53372 0.95253 0.0
C1779 C 0.99815 0.55046 0.93697 0.0
C1780 C 0.02172 0.57577 0.93685 0.0
C1781 C 0.03719 0.58454 0.9527 0.0
C1782 C 0.02985 0.56772 0.96827 0.0
H1783 H 0.92098 0.54279 0.99564 0.0
H1784 H 0.94833 0.56496 0.98115 0.0
H1785 H 0.9299 0.52701 0.97409 0.0
H1786 H 0.97335 0.5136 0.95216 0.0
H1787 H 0.98598 0.54296 0.92494 0.0
H1788 H 0.96432 0.99379 0.42717 0.0
H1789 H 0.9945 0.98333 0.45441 0.0
H1790 H 0.93143 0.05124 0.48199 0.0
H1791 H 0.90083 0.06161 0.4548 0.0
H1792 H 0.02867 0.03023 0.47414 0.0
H1793 H 0.93129 0.97017 0.51408 0.0
H1794 H 0.9282 0.97469 0.49051 0.0
H1795 H 0.91976 0.00903 0.50469 0.0
C1796 C 0.95653 0.00615 0.43908 0.0
C1797 C 0.93007 0.02842 0.43886 0.0
C1798 C 0.97389 1.00022 0.45462 0.0
C1799 C 0.96503 0.01626 0.47025 0.0
C1800 C 0.93831 0.03814 0.47015 0.0
H1801 H 0.0449 0.01569 0.57613 0.0
H1802 H 0.01516 0.02866 0.54907 0.0
C1803 C 0.9209 0.04411 0.45459 0.0
C1804 C 0.98484 0.01128 0.48641 0.0
H1805 H 0.98083 0.9838 0.52879 0.0
C1806 C 0.01827 0.01998 0.48609 0.0
C1807 C 0.97115 0.99803 0.50197 0.0
C1808 C 0.93571 0.98715 0.50288 0.0
C1809 C 0.03832 0.01616 0.50099 0.0
C1810 C 0.02467 0.00276 0.51652 0.0
C1811 C 0.99121 0.99417 0.51686 0.0
C1812 C 0.04467 0.99696 0.53254 0.0
C1813 C 0.07375 0.02706 0.50006 0.0
C1814 C 0.07136 0.97505 0.5322 0.0
C1815 C 0.08855 0.9677 0.54765 0.0
C1816 C 0.07917 0.98196 0.56372 0.0
C1817 C 0.05292 0.00448 0.56394 0.0
C1818 C 0.03578 0.01181 0.5485 0.0
H1819 H 0.07789 0.04475 0.48914 0.0
H1820 H 0.0816 0.0387 0.51259 0.0
H1821 H 0.08962 0.0053 0.49769 0.0
H1822 H 0.07824 0.9628 0.5201 0.0
H1823 H 0.10841 0.94998 0.54709 0.0
H1824 H 0.48789 0.46043 0.92577 0.0
H1825 H 0.4743 0.48965 0.95291 0.0
H1826 H 0.54254 0.42873 0.98161 0.0
H1827 H 0.55606 0.39905 0.9545 0.0
H1828 H 0.48151 0.43846 0.99884 0.0
H1829 H 0.53595 0.55656 0.97641 0.0
H1830 H 0.50583 0.53943 0.96176 0.0
H1831 H 0.54388 0.51801 0.96543 0.0
C1832 C 0.49985 0.45305 0.93787 0.0
C1833 C 0.52316 0.42751 0.93799 0.0
C1834 C 0.49221 0.46994 0.95334 0.0
C1835 C 0.50788 0.46177 0.96919 0.0
C1836 C 0.53034 0.43555 0.96948 0.0
H1837 H 0.50412 0.53484 0.07626 0.0
H1838 H 0.51497 0.50507 0.04896 0.0
C1839 C 0.538 0.4186 0.95399 0.0
C1840 C 0.50107 0.48078 0.98542 0.0
H1841 H 0.50684 0.55755 0.0034 0.0
C1842 C 0.48712 0.46447 0.99988 0.0
C1843 C 0.50838 0.51473 0.9867 0.0
C1844 C 0.5246 0.53323 0.97182 0.0
C1845 C 0.47984 0.48132 0.01552 0.0
C1846 C 0.48729 0.51524 0.01682 0.0
C1847 C 0.50111 0.53157 0.00234 0.0
C1848 C 0.48145 0.53409 0.03322 0.0
C1849 C 0.46369 0.4628 0.03041 0.0
C1850 C 0.4599 0.56107 0.03329 0.0
C1851 C 0.45383 0.57837 0.04887 0.0
C1852 C 0.46941 0.56905 0.06461 0.0
C1853 C 0.49164 0.54257 0.06437 0.0
C1854 C 0.49769 0.52534 0.04881 0.0
H1855 H 0.45166 0.43988 0.02573 0.0
H1856 H 0.48266 0.45583 0.04022 0.0
H1857 H 0.445 0.47826 0.03713 0.0
H1858 H 0.44731 0.56836 0.02135 0.0
H1859 H 0.43654 0.59863 0.04865 0.0
H1860 H 0.03972 0.48713 0.42424 0.0
H1861 H 0.00917 0.47514 0.45118 0.0
H1862 H 0.07041 0.54315 0.47985 0.0
H1863 H 0.10142 0.55503 0.45296 0.0
H1864 H 0.05904 0.48339 0.49758 0.0
H1865 H 0.94241 0.53833 0.47339 0.0
H1866 H 0.95948 0.50732 0.45927 0.0
H1867 H 0.9814 0.54518 0.46264 0.0
C1868 C 0.04688 0.49936 0.4363 0.0
C1869 C 0.07292 0.52212 0.43647 0.0
C1870 C 0.02922 0.49266 0.45165 0.0
C1871 C 0.0371 0.50876 0.46742 0.0
C1872 C 0.06379 0.53065 0.46778 0.0
H1873 H 0.96033 0.50905 0.57383 0.0
H1874 H 0.99039 0.5198 0.5466 0.0
C1875 C 0.08152 0.53736 0.45241 0.0
C1876 C 0.01742 0.50285 0.48353 0.0
H1877 H 0.94006 0.51008 0.50066 0.0
C1878 C 0.03306 0.48932 0.4983 0.0
C1879 C 0.9835 0.51059 0.48437 0.0
C1880 C 0.9657 0.52643 0.46914 0.0
C1881 C 0.01559 0.48285 0.51384 0.0
C1882 C 0.9817 0.49067 0.51471 0.0
C1883 C 0.96602 0.50409 0.49992 0.0
C1884 C 0.96224 0.48541 0.53095 0.0
C1885 C 0.0334 0.46712 0.5291 0.0
C1886 C 0.9356 0.46345 0.53101 0.0
C1887 C 0.91816 0.4574 0.54655 0.0
C1888 C 0.927 0.47341 0.56225 0.0
C1889 C 0.95298 0.49623 0.56197 0.0
C1890 C 0.97036 0.50224 0.54646 0.0
H1891 H 0.05659 0.45503 0.52485 0.0
H1892 H 0.0398 0.48633 0.53888 0.0
H1893 H 0.01764 0.44855 0.53571 0.0
H1894 H 0.92881 0.4504 0.51913 0.0
H1895 H 0.89828 0.43967 0.54635 0.0
H1896 H 0.05695 0.89903 0.04743 0.0
H1897 H 0.04544 0.92957 0.02031 0.0
H1898 H 0.97715 0.9914 0.04842 0.0
H1899 H 0.98874 0.96134 0.07555 0.0
H1900 H 0.98578 0.941 0.00227 0.0
H1901 H 0.04115 0.05755 0.02624 0.0
H1902 H 0.04771 0.01863 0.03712 0.0
H1903 H 0.00996 0.04082 0.04037 0.0
C1904 C 0.03927 0.91895 0.04779 0.0
C1905 C 0.02386 0.92788 0.06364 0.0
C1906 C 0.03279 0.9364 0.03231 0.0
C1907 C 0.01095 0.96314 0.03245 0.0
C1908 C 0.99464 0.97131 0.04811 0.0
H1909 H 0.94167 0.1016 0.9536 0.0
H1910 H 0.95288 0.07111 0.98078 0.0
C1911 C 0.00111 0.95392 0.06357 0.0
C1912 C 0.00534 0.98266 0.01626 0.0
H1913 H 0.01274 0.05989 0.999 0.0
C1914 C 0.99179 0.96695 0.00151 0.0
C1915 C 0.0132 0.01653 0.01534 0.0
C1916 C 0.02909 0.03439 0.03054 0.0
C1917 C 0.98532 0.98435 0.98594 0.0
C1918 C 0.99318 0.01823 0.98502 0.0
C1919 C 0.00671 0.03394 0.99977 0.0
C1920 C 0.9877 0.03768 0.9688 0.0
C1921 C 0.9695 0.9665 0.97072 0.0
C1922 C 0.00426 0.02956 0.95321 0.0
C1923 C 0.99798 0.04692 0.93772 0.0
C1924 C 0.97513 0.07288 0.93755 0.0
C1925 C 0.95941 0.08174 0.95332 0.0
C1926 C 0.96573 0.06432 0.96884 0.0
H1927 H 0.95747 0.9433 0.975 0.0
H1928 H 0.95085 0.98223 0.96415 0.0
H1929 H 0.98865 0.96013 0.96089 0.0
H1930 H 0.02183 0.00954 0.95299 0.0
H1931 H 0.01059 0.03956 0.9258 0.0
H1932 H 0.39899 0.94103 0.45332 0.0
H1933 H 0.42918 0.95313 0.48049 0.0
H1934 H 0.48821 0.02435 0.45274 0.0
H1935 H 0.45805 0.01272 0.42567 0.0
H1936 H 0.4976 0.94542 0.4852 0.0
H1937 H 0.45926 0.0746 0.49688 0.0
H1938 H 0.43723 0.04743 0.48223 0.0
H1939 H 0.47467 0.06684 0.47513 0.0
C1940 C 0.41802 0.95967 0.45309 0.0
C1941 C 0.42603 0.97604 0.43739 0.0
C1942 C 0.43531 0.96645 0.46859 0.0
C1943 C 0.46068 0.98988 0.46866 0.0
C1944 C 0.46832 0.00664 0.45306 0.0
H1945 H 0.6021 0.05889 0.54618 0.0
H1946 H 0.57189 0.04697 0.519 0.0
C1947 C 0.45111 0.99986 0.43758 0.0
C1948 C 0.48046 0.99551 0.48475 0.0
H1949 H 0.5036 0.05456 0.51418 0.0
C1950 C 0.49877 0.96921 0.49162 0.0
C1951 C 0.48211 0.02665 0.493 0.0
C1952 C 0.46206 0.05546 0.48656 0.0
C1953 C 0.5191 0.97333 0.50639 0.0
C1954 C 0.52072 0.00446 0.51464 0.0
C1955 C 0.50243 0.03077 0.50776 0.0
C1956 C 0.54046 0.01007 0.53075 0.0
C1957 C 0.53916 0.94452 0.51281 0.0
C1958 C 0.53285 0.9932 0.54632 0.0
C1959 C 0.55007 0.99988 0.56181 0.0
C1960 C 0.57513 0.02372 0.56205 0.0
C1961 C 0.58308 0.04024 0.54638 0.0
C1962 C 0.56578 0.03355 0.53087 0.0
H1963 H 0.54205 0.92545 0.50246 0.0
H1964 H 0.56395 0.95256 0.51719 0.0
H1965 H 0.5265 0.93305 0.52419 0.0
H1966 H 0.51299 0.97545 0.5466 0.0
H1967 H 0.54318 0.9869 0.57369 0.0
loop_
_geom_bond_atom_site_label_1
_geom_bond_atom_site_label_2
_geom_bond_distance
_geom_bond_site_symmetry_2
_ccdc_geom_bond_type
Co0 N4 2.148 . S
Co0 N10 2.128 . S
Co0 N20 2.194 . S
Co0 O25 2.351 . S
Co0 O26 2.155 . S
Co0 O27 2.096 . S
C1 N4 1.301 . S
C1 N5 1.328 . S
C1 H6 0.930 . S
C2 C3 1.333 . S
C2 N4 1.317 . S
C2 H7 0.930 . S
C3 C2 1.333 . S
C3 N5 1.350 . S
C3 H29 0.931 . S
N4 Co0 2.148 . S
N4 C1 1.301 . S
N4 C2 1.317 . S
N5 C1 1.328 . S
N5 C3 1.350 . S
H6 C1 0.930 . S
H7 C2 0.930 . S
C8 O9 1.224 . S
C8 O27 1.247 . S
O9 C8 1.224 . S
N10 Co0 2.128 . S
N10 C11 1.355 . S
N10 C13 1.311 . S
C11 N10 1.355 . S
C11 C12 1.363 . S
C11 H23 0.929 . S
C12 C11 1.363 . S
C12 N14 1.375 . S
C12 H30 0.931 . S
C13 N10 1.311 . S
C13 N14 1.347 . S
C13 H24 0.929 . S
N14 C12 1.375 . S
N14 C13 1.347 . S
C15 C18 1.365 . S
C15 N20 1.328 . S
C15 H21 0.929 . S
C16 C17 1.362 . S
C16 C19 1.378 . S
C16 H31 0.929 . S
C17 C16 1.362 . S
C17 C18 1.366 . S
C18 C15 1.365 . S
C18 C17 1.366 . S
C18 H32 0.930 . S
C19 C16 1.378 . S
C19 N20 1.315 . S
C19 H22 0.930 . S
N20 Co0 2.194 . S
N20 C15 1.328 . S
N20 C19 1.315 . S
H21 C15 0.929 . S
H22 C19 0.930 . S
H23 C11 0.929 . S
H24 C13 0.929 . S
O25 Co0 2.351 . S
O25 C28 1.244 . S
O26 Co0 2.155 . S
O26 C28 1.240 . S
O27 Co0 2.096 . S
O27 C8 1.247 . S
C28 O25 1.244 . S
C28 O26 1.240 . S
H29 C3 0.931 . S
H30 C12 0.931 . S
H31 C16 0.929 . S
H32 C18 0.930 . S
Co33 N37 2.148 . S
Co33 N43 2.128 . S
Co33 N53 2.194 . S
Co33 O58 2.351 . S
Co33 O59 2.155 . S
Co33 O60 2.096 . S
C34 N37 1.301 . S
C34 N38 1.328 . S
C34 H39 0.930 . S
C35 C36 1.333 . S
C35 N37 1.317 . S
C35 H40 0.930 . S
C36 C35 1.333 . S
C36 N38 1.350 . S
C36 H62 0.931 . S
N37 Co33 2.148 . S
N37 C34 1.301 . S
N37 C35 1.317 . S
N38 C34 1.328 . S
N38 C36 1.350 . S
H39 C34 0.930 . S
H40 C35 0.930 . S
C41 O42 1.224 . S
C41 O60 1.247 . S
O42 C41 1.224 . S
N43 Co33 2.128 . S
N43 C44 1.355 . S
N43 C46 1.311 . S
C44 N43 1.355 . S
C44 C45 1.363 . S
C44 H56 0.929 . S
C45 C44 1.363 . S
C45 N47 1.375 . S
C45 H63 0.931 . S
C46 N43 1.311 . S
C46 N47 1.347 . S
C46 H57 0.929 . S
N47 C45 1.375 . S
N47 C46 1.347 . S
C48 C51 1.365 . S
C48 N53 1.328 . S
C48 H54 0.929 . S
C49 C50 1.362 . S
C49 C52 1.378 . S
C49 H64 0.929 . S
C50 C49 1.362 . S
C50 C51 1.366 . S
C51 C48 1.365 . S
C51 C50 1.366 . S
C51 H65 0.930 . S
C52 C49 1.378 . S
C52 N53 1.315 . S
C52 H55 0.930 . S
N53 Co33 2.194 . S
N53 C48 1.328 . S
N53 C52 1.315 . S
H54 C48 0.929 . S
H55 C52 0.930 . S
H56 C44 0.929 . S
H57 C46 0.929 . S
O58 Co33 2.351 . S
O58 C61 1.244 . S
O59 Co33 2.155 . S
O59 C61 1.240 . S
O60 Co33 2.096 . S
O60 C41 1.247 . S
C61 O58 1.244 . S
C61 O59 1.240 . S
H62 C36 0.931 . S
H63 C45 0.931 . S
H64 C49 0.929 . S
H65 C51 0.930 . S
Co66 N70 2.148 . S
Co66 N76 2.128 . S
Co66 N86 2.179 1_655 S
Co66 O91 2.351 1_655 S
Co66 O92 2.155 . S
Co66 O93 2.096 . S
C67 N70 1.301 . S
C67 N71 1.328 . S
C67 H72 0.930 . S
C68 C69 1.333 . S
C68 N70 1.317 . S
C68 H73 0.930 . S
C69 C68 1.333 . S
C69 N71 1.350 . S
C69 H95 0.931 . S
N70 Co66 2.148 . S
N70 C67 1.301 . S
N70 C68 1.317 . S
N71 C67 1.328 . S
N71 C69 1.350 . S
H72 C67 0.930 . S
H73 C68 0.930 . S
C74 O75 1.224 . S
C74 O93 1.247 . S
O75 C74 1.224 . S
N76 Co66 2.128 . S
N76 C77 1.355 1_655 S
N76 C79 1.311 . S
C77 N76 1.355 1_455 S
C77 C78 1.363 . S
C77 H89 0.929 . S
C78 C77 1.363 . S
C78 N80 1.375 . S
C78 H96 0.931 . S
C79 N76 1.311 . S
C79 N80 1.347 1_655 S
C79 H90 0.929 . S
N80 C78 1.375 . S
N80 C79 1.347 1_455 S
C81 C84 1.365 . S
C81 N86 1.357 . S
C81 H87 0.929 . S
C82 C83 1.362 . S
C82 C85 1.378 1_455 S
C82 H97 0.929 1_455 S
C83 C82 1.362 . S
C83 C84 1.366 . S
C84 C81 1.365 . S
C84 C83 1.366 . S
C84 H98 0.930 . S
C85 C82 1.378 1_655 S
C85 N86 1.303 1_655 S
C85 H88 0.930 . S
N86 Co66 2.179 1_455 S
N86 C81 1.357 . S
N86 C85 1.303 1_455 S
H87 C81 0.929 . S
H88 C85 0.930 . S
H89 C77 0.929 . S
H90 C79 0.929 . S
O91 Co66 2.351 1_455 S
O91 C94 1.244 . S
O92 Co66 2.155 . S
O92 C94 1.240 1_655 S
O93 Co66 2.096 . S
O93 C74 1.247 . S
C94 O91 1.244 . S
C94 O92 1.240 1_455 S
H95 C69 0.931 . S
H96 C78 0.931 . S
H97 C82 0.929 1_655 S
H98 C84 0.930 . S
Co99 N103 2.148 . S
Co99 N109 2.128 . S
Co99 N119 2.179 1_565 S
Co99 O124 2.351 1_565 S
Co99 O125 2.155 . S
Co99 O126 2.096 . S
C100 N103 1.301 . S
C100 N104 1.328 . S
C100 H105 0.930 . S
C101 C102 1.333 . S
C101 N103 1.317 . S
C101 H106 0.930 . S
C102 C101 1.333 . S
C102 N104 1.350 . S
C102 H128 0.931 . S
N103 Co99 2.148 . S
N103 C100 1.301 . S
N103 C101 1.317 . S
N104 C100 1.328 . S
N104 C102 1.350 . S
H105 C100 0.930 . S
H106 C101 0.930 . S
C107 O108 1.224 . S
C107 O126 1.247 . S
O108 C107 1.224 . S
N109 Co99 2.128 . S
N109 C110 1.355 1_565 S
N109 C112 1.311 . S
C110 N109 1.355 1_545 S
C110 C111 1.363 . S
C110 H122 0.929 . S
C111 C110 1.363 . S
C111 N113 1.375 . S
C111 H129 0.931 . S
C112 N109 1.311 . S
C112 N113 1.347 1_565 S
C112 H123 0.929 . S
N113 C111 1.375 . S
N113 C112 1.347 1_545 S
C114 C117 1.365 . S
C114 N119 1.357 . S
C114 H120 0.929 . S
C115 C116 1.362 . S
C115 C118 1.378 1_545 S
C115 H130 0.929 1_545 S
C116 C115 1.362 . S
C116 C117 1.366 . S
C117 C114 1.365 . S
C117 C116 1.366 . S
C117 H131 0.930 . S
C118 C115 1.378 1_565 S
C118 N119 1.303 1_565 S
C118 H121 0.930 . S
N119 Co99 2.179 1_545 S
N119 C114 1.357 . S
N119 C118 1.303 1_545 S
H120 C114 0.929 . S
H121 C118 0.930 . S
H122 C110 0.929 . S
H123 C112 0.929 . S
O124 Co99 2.351 1_545 S
O124 C127 1.244 . S
O125 Co99 2.155 . S
O125 C127 1.240 1_565 S
O126 Co99 2.096 . S
O126 C107 1.247 . S
C127 O124 1.244 . S
C127 O125 1.240 1_545 S
H128 C102 0.931 . S
H129 C111 0.931 . S
H130 C115 0.929 1_565 S
H131 C117 0.930 . S
Co132 N136 2.148 . S
Co132 N142 2.128 . S
Co132 N152 2.194 . S
Co132 O157 2.351 . S
Co132 O158 2.155 . S
Co132 O159 2.096 . S
C133 N136 1.301 . S
C133 N137 1.328 . S
C133 H138 0.930 . S
C134 C135 1.333 . S
C134 N136 1.317 . S
C134 H139 0.930 . S
C135 C134 1.333 . S
C135 N137 1.350 . S
C135 H161 0.931 . S
N136 Co132 2.148 . S
N136 C133 1.301 . S
N136 C134 1.317 . S
N137 C133 1.328 . S
N137 C135 1.350 . S
H138 C133 0.930 . S
H139 C134 0.930 . S
C140 O141 1.224 . S
C140 O159 1.247 . S
O141 C140 1.224 . S
N142 Co132 2.128 . S
N142 C143 1.355 . S
N142 C145 1.311 . S
C143 N142 1.355 . S
C143 C144 1.363 . S
C143 H155 0.929 . S
C144 C143 1.363 . S
C144 N146 1.375 . S
C144 H162 0.931 . S
C145 N142 1.311 . S
C145 N146 1.347 . S
C145 H156 0.929 . S
N146 C144 1.375 . S
N146 C145 1.347 . S
C147 C150 1.365 . S
C147 N152 1.328 . S
C147 H153 0.929 . S
C148 C149 1.362 . S
C148 C151 1.378 . S
C148 H163 0.929 . S
C149 C148 1.362 . S
C149 C150 1.366 . S
C150 C147 1.365 . S
C150 C149 1.366 . S
C150 H164 0.930 . S
C151 C148 1.378 . S
C151 N152 1.315 . S
C151 H154 0.930 . S
N152 Co132 2.194 . S
N152 C147 1.328 . S
N152 C151 1.315 . S
H153 C147 0.929 . S
H154 C151 0.930 . S
H155 C143 0.929 . S
H156 C145 0.929 . S
O157 Co132 2.351 . S
O157 C160 1.244 . S
O158 Co132 2.155 . S
O158 C160 1.240 . S
O159 Co132 2.096 . S
O159 C140 1.247 . S
C160 O157 1.244 . S
C160 O158 1.240 . S
H161 C135 0.931 . S
H162 C144 0.931 . S
H163 C148 0.929 . S
H164 C150 0.930 . S
Co165 N169 2.148 . S
Co165 N175 2.128 . S
Co165 N185 2.194 . S
Co165 O190 2.351 . S
Co165 O191 2.155 . S
Co165 O192 2.096 . S
C166 N169 1.301 . S
C166 N170 1.328 . S
C166 H171 0.930 . S
C167 C168 1.333 . S
C167 N169 1.317 . S
C167 H172 0.930 . S
C168 C167 1.333 . S
C168 N170 1.350 . S
C168 H194 0.931 . S
N169 Co165 2.148 . S
N169 C166 1.301 . S
N169 C167 1.317 . S
N170 C166 1.328 . S
N170 C168 1.350 . S
H171 C166 0.930 . S
H172 C167 0.930 . S
C173 O174 1.224 . S
C173 O192 1.247 . S
O174 C173 1.224 . S
N175 Co165 2.128 . S
N175 C176 1.355 . S
N175 C178 1.311 . S
C176 N175 1.355 . S
C176 C177 1.363 . S
C176 H188 0.929 . S
C177 C176 1.363 . S
C177 N179 1.375 . S
C177 H195 0.931 . S
C178 N175 1.311 . S
C178 N179 1.347 . S
C178 H189 0.929 . S
N179 C177 1.375 . S
N179 C178 1.347 . S
C180 C183 1.365 . S
C180 N185 1.328 . S
C180 H186 0.929 . S
C181 C182 1.362 . S
C181 C184 1.378 . S
C181 H196 0.929 . S
C182 C181 1.362 . S
C182 C183 1.366 . S
C183 C180 1.365 . S
C183 C182 1.366 . S
C183 H197 0.930 . S
C184 C181 1.378 . S
C184 N185 1.315 . S
C184 H187 0.930 . S
N185 Co165 2.194 . S
N185 C180 1.328 . S
N185 C184 1.315 . S
H186 C180 0.929 . S
H187 C184 0.930 . S
H188 C176 0.929 . S
H189 C178 0.929 . S
O190 Co165 2.351 . S
O190 C193 1.244 . S
O191 Co165 2.155 . S
O191 C193 1.240 . S
O192 Co165 2.096 . S
O192 C173 1.247 . S
C193 O190 1.244 . S
C193 O191 1.240 . S
H194 C168 0.931 . S
H195 C177 0.931 . S
H196 C181 0.929 . S
H197 C183 0.930 . S
Co198 N202 2.148 . S
Co198 N208 2.128 . S
Co198 N218 2.179 1_655 S
Co198 O223 2.351 1_655 S
Co198 O224 2.155 . S
Co198 O225 2.096 . S
C199 N202 1.301 . S
C199 N203 1.328 . S
C199 H204 0.930 . S
C200 C201 1.333 . S
C200 N202 1.317 . S
C200 H205 0.930 . S
C201 C200 1.333 . S
C201 N203 1.350 . S
C201 H227 0.931 . S
N202 Co198 2.148 . S
N202 C199 1.301 . S
N202 C200 1.317 . S
N203 C199 1.328 . S
N203 C201 1.350 . S
H204 C199 0.930 . S
H205 C200 0.930 . S
C206 O207 1.224 . S
C206 O225 1.247 . S
O207 C206 1.224 . S
N208 Co198 2.128 . S
N208 C209 1.355 1_655 S
N208 C211 1.311 . S
C209 N208 1.355 1_455 S
C209 C210 1.363 . S
C209 H221 0.929 . S
C210 C209 1.363 . S
C210 N212 1.375 . S
C210 H228 0.931 . S
C211 N208 1.311 . S
C211 N212 1.347 1_655 S
C211 H222 0.929 . S
N212 C210 1.375 . S
N212 C211 1.347 1_455 S
C213 C216 1.365 . S
C213 N218 1.357 . S
C213 H219 0.929 . S
C214 C215 1.362 . S
C214 C217 1.378 1_455 S
C214 H229 0.929 1_455 S
C215 C214 1.362 . S
C215 C216 1.366 . S
C216 C213 1.365 . S
C216 C215 1.366 . S
C216 H230 0.930 . S
C217 C214 1.378 1_655 S
C217 N218 1.303 1_655 S
C217 H220 0.930 . S
N218 Co198 2.179 1_455 S
N218 C213 1.357 . S
N218 C217 1.303 1_455 S
H219 C213 0.929 . S
H220 C217 0.930 . S
H221 C209 0.929 . S
H222 C211 0.929 . S
O223 Co198 2.351 1_455 S
O223 C226 1.244 . S
O224 Co198 2.155 . S
O224 C226 1.240 1_655 S
O225 Co198 2.096 . S
O225 C206 1.247 . S
C226 O223 1.244 . S
C226 O224 1.240 1_455 S
H227 C201 0.931 . S
H228 C210 0.931 . S
H229 C214 0.929 1_655 S
H230 C216 0.930 . S
Co231 N235 2.148 . S
Co231 N241 2.128 . S
Co231 N251 2.179 1_565 S
Co231 O256 2.351 1_565 S
Co231 O257 2.155 . S
Co231 O258 2.096 . S
C232 N235 1.301 . S
C232 N236 1.328 . S
C232 H237 0.930 . S
C233 C234 1.333 . S
C233 N235 1.317 . S
C233 H238 0.930 . S
C234 C233 1.333 . S
C234 N236 1.350 . S
C234 H260 0.931 . S
N235 Co231 2.148 . S
N235 C232 1.301 . S
N235 C233 1.317 . S
N236 C232 1.328 . S
N236 C234 1.350 . S
H237 C232 0.930 . S
H238 C233 0.930 . S
C239 O240 1.224 . S
C239 O258 1.247 . S
O240 C239 1.224 . S
N241 Co231 2.128 . S
N241 C242 1.355 1_565 S
N241 C244 1.311 . S
C242 N241 1.355 1_545 S
C242 C243 1.363 . S
C242 H254 0.929 . S
C243 C242 1.363 . S
C243 N245 1.375 . S
C243 H261 0.931 . S
C244 N241 1.311 . S
C244 N245 1.347 1_565 S
C244 H255 0.929 . S
N245 C243 1.375 . S
N245 C244 1.347 1_545 S
C246 C249 1.365 . S
C246 N251 1.357 . S
C246 H252 0.929 . S
C247 C248 1.362 . S
C247 C250 1.378 1_545 S
C247 H262 0.929 1_545 S
C248 C247 1.362 . S
C248 C249 1.366 . S
C249 C246 1.365 . S
C249 C248 1.366 . S
C249 H263 0.930 . S
C250 C247 1.378 1_565 S
C250 N251 1.303 1_565 S
C250 H253 0.930 . S
N251 Co231 2.179 1_545 S
N251 C246 1.357 . S
N251 C250 1.303 1_545 S
H252 C246 0.929 . S
H253 C250 0.930 . S
H254 C242 0.929 . S
H255 C244 0.929 . S
O256 Co231 2.351 1_545 S
O256 C259 1.244 . S
O257 Co231 2.155 . S
O257 C259 1.240 1_565 S
O258 Co231 2.096 . S
O258 C239 1.247 . S
C259 O256 1.244 . S
C259 O257 1.240 1_545 S
H260 C234 0.931 . S
H261 C243 0.931 . S
H262 C247 0.929 1_565 S
H263 C249 0.930 . S
Co264 N268 2.148 . S
Co264 N274 2.128 . S
Co264 N284 2.194 . S
Co264 O289 2.351 . S
Co264 O290 2.155 . S
Co264 O291 2.096 . S
C265 N268 1.301 . S
C265 N269 1.328 . S
C265 H270 0.930 . S
C266 C267 1.333 . S
C266 N268 1.317 . S
C266 H271 0.930 . S
C267 C266 1.333 . S
C267 N269 1.350 . S
C267 H293 0.931 . S
N268 Co264 2.148 . S
N268 C265 1.301 . S
N268 C266 1.317 . S
N269 C265 1.328 . S
N269 C267 1.350 . S
H270 C265 0.930 . S
H271 C266 0.930 . S
C272 O273 1.224 . S
C272 O291 1.247 . S
O273 C272 1.224 . S
N274 Co264 2.128 . S
N274 C275 1.355 . S
N274 C277 1.311 . S
C275 N274 1.355 . S
C275 C276 1.363 . S
C275 H287 0.929 . S
C276 C275 1.363 . S
C276 N278 1.375 . S
C276 H294 0.931 . S
C277 N274 1.311 . S
C277 N278 1.347 . S
C277 H288 0.929 . S
N278 C276 1.375 . S
N278 C277 1.347 . S
C279 C282 1.365 . S
C279 N284 1.328 . S
C279 H285 0.929 . S
C280 C281 1.362 . S
C280 C283 1.378 . S
C280 H295 0.929 . S
C281 C280 1.362 . S
C281 C282 1.366 . S
C282 C279 1.365 . S
C282 C281 1.366 . S
C282 H296 0.930 . S
C283 C280 1.378 . S
C283 N284 1.315 . S
C283 H286 0.930 . S
N284 Co264 2.194 . S
N284 C279 1.328 . S
N284 C283 1.315 . S
H285 C279 0.929 . S
H286 C283 0.930 . S
H287 C275 0.929 . S
H288 C277 0.929 . S
O289 Co264 2.351 . S
O289 C292 1.244 . S
O290 Co264 2.155 . S
O290 C292 1.240 . S
O291 Co264 2.096 . S
O291 C272 1.247 . S
C292 O289 1.244 . S
C292 O290 1.240 . S
H293 C267 0.931 . S
H294 C276 0.931 . S
H295 C280 0.929 . S
H296 C282 0.930 . S
Co297 N301 2.148 . S
Co297 N307 2.128 . S
Co297 N317 2.194 . S
Co297 O322 2.351 . S
Co297 O323 2.155 . S
Co297 O324 2.096 . S
C298 N301 1.301 . S
C298 N302 1.328 . S
C298 H303 0.930 . S
C299 C300 1.333 . S
C299 N301 1.317 . S
C299 H304 0.930 . S
C300 C299 1.333 . S
C300 N302 1.350 . S
C300 H326 0.931 . S
N301 Co297 2.148 . S
N301 C298 1.301 . S
N301 C299 1.317 . S
N302 C298 1.328 . S
N302 C300 1.350 . S
H303 C298 0.930 . S
H304 C299 0.930 . S
C305 O306 1.224 . S
C305 O324 1.247 . S
O306 C305 1.224 . S
N307 Co297 2.128 . S
N307 C308 1.355 . S
N307 C310 1.311 . S
C308 N307 1.355 . S
C308 C309 1.363 . S
C308 H320 0.929 . S
C309 C308 1.363 . S
C309 N311 1.375 . S
C309 H327 0.931 . S
C310 N307 1.311 . S
C310 N311 1.347 . S
C310 H321 0.929 . S
N311 C309 1.375 . S
N311 C310 1.347 . S
C312 C315 1.365 . S
C312 N317 1.328 . S
C312 H318 0.929 . S
C313 C314 1.362 . S
C313 C316 1.378 . S
C313 H328 0.929 . S
C314 C313 1.362 . S
C314 C315 1.366 . S
C315 C312 1.365 . S
C315 C314 1.366 . S
C315 H329 0.930 . S
C316 C313 1.378 . S
C316 N317 1.315 . S
C316 H319 0.930 . S
N317 Co297 2.194 . S
N317 C312 1.328 . S
N317 C316 1.315 . S
H318 C312 0.929 . S
H319 C316 0.930 . S
H320 C308 0.929 . S
H321 C310 0.929 . S
O322 Co297 2.351 . S
O322 C325 1.244 . S
O323 Co297 2.155 . S
O323 C325 1.240 . S
O324 Co297 2.096 . S
O324 C305 1.247 . S
C325 O322 1.244 . S
C325 O323 1.240 . S
H326 C300 0.931 . S
H327 C309 0.931 . S
H328 C313 0.929 . S
H329 C315 0.930 . S
Co330 N334 2.148 . S
Co330 N340 2.128 . S
Co330 N350 2.179 1_455 S
Co330 O355 2.351 1_455 S
Co330 O356 2.155 . S
Co330 O357 2.096 . S
C331 N334 1.301 . S
C331 N335 1.328 . S
C331 H336 0.930 . S
C332 C333 1.333 . S
C332 N334 1.317 . S
C332 H337 0.930 . S
C333 C332 1.333 . S
C333 N335 1.350 . S
C333 H359 0.931 . S
N334 Co330 2.148 . S
N334 C331 1.301 . S
N334 C332 1.317 . S
N335 C331 1.328 . S
N335 C333 1.350 . S
H336 C331 0.930 . S
H337 C332 0.930 . S
C338 O339 1.224 . S
C338 O357 1.247 . S
O339 C338 1.224 . S
N340 Co330 2.128 . S
N340 C341 1.355 1_455 S
N340 C343 1.311 . S
C341 N340 1.355 1_655 S
C341 C342 1.363 . S
C341 H353 0.929 . S
C342 C341 1.363 . S
C342 N344 1.375 . S
C342 H360 0.931 . S
C343 N340 1.311 . S
C343 N344 1.347 1_455 S
C343 H354 0.929 . S
N344 C342 1.375 . S
N344 C343 1.347 1_655 S
C345 C348 1.365 . S
C345 N350 1.357 . S
C345 H351 0.929 . S
C346 C347 1.362 . S
C346 C349 1.378 1_655 S
C346 H361 0.929 1_655 S
C347 C346 1.362 . S
C347 C348 1.366 . S
C348 C345 1.365 . S
C348 C347 1.366 . S
C348 H362 0.930 . S
C349 C346 1.378 1_455 S
C349 N350 1.303 1_455 S
C349 H352 0.930 . S
N350 Co330 2.179 1_655 S
N350 C345 1.357 . S
N350 C349 1.303 1_655 S
H351 C345 0.929 . S
H352 C349 0.930 . S
H353 C341 0.929 . S
H354 C343 0.929 . S
O355 Co330 2.351 1_655 S
O355 C358 1.244 . S
O356 Co330 2.155 . S
O356 C358 1.240 1_455 S
O357 Co330 2.096 . S
O357 C338 1.247 . S
C358 O355 1.244 . S
C358 O356 1.240 1_655 S
H359 C333 0.931 . S
H360 C342 0.931 . S
H361 C346 0.929 1_455 S
H362 C348 0.930 . S
Co363 N367 2.148 . S
Co363 N373 2.128 . S
Co363 N383 2.179 1_545 S
Co363 O388 2.351 1_545 S
Co363 O389 2.155 . S
Co363 O390 2.096 . S
C364 N367 1.301 . S
C364 N368 1.328 . S
C364 H369 0.930 . S
C365 C366 1.333 . S
C365 N367 1.317 . S
C365 H370 0.930 . S
C366 C365 1.333 . S
C366 N368 1.350 . S
C366 H392 0.931 . S
N367 Co363 2.148 . S
N367 C364 1.301 . S
N367 C365 1.317 . S
N368 C364 1.328 . S
N368 C366 1.350 . S
H369 C364 0.930 . S
H370 C365 0.930 . S
C371 O372 1.224 . S
C371 O390 1.247 . S
O372 C371 1.224 . S
N373 Co363 2.128 . S
N373 C374 1.355 1_545 S
N373 C376 1.311 . S
C374 N373 1.355 1_565 S
C374 C375 1.363 . S
C374 H386 0.929 . S
C375 C374 1.363 . S
C375 N377 1.375 . S
C375 H393 0.931 . S
C376 N373 1.311 . S
C376 N377 1.347 1_545 S
C376 H387 0.929 . S
N377 C375 1.375 . S
N377 C376 1.347 1_565 S
C378 C381 1.365 . S
C378 N383 1.357 . S
C378 H384 0.929 . S
C379 C380 1.362 . S
C379 C382 1.378 1_565 S
C379 H394 0.929 1_565 S
C380 C379 1.362 . S
C380 C381 1.366 . S
C381 C378 1.365 . S
C381 C380 1.366 . S
C381 H395 0.930 . S
C382 C379 1.378 1_545 S
C382 N383 1.303 1_545 S
C382 H385 0.930 . S
N383 Co363 2.179 1_565 S
N383 C378 1.357 . S
N383 C382 1.303 1_565 S
H384 C378 0.929 . S
H385 C382 0.930 . S
H386 C374 0.929 . S
H387 C376 0.929 . S
O388 Co363 2.351 1_565 S
O388 C391 1.244 . S
O389 Co363 2.155 . S
O389 C391 1.240 1_545 S
O390 Co363 2.096 . S
O390 C371 1.247 . S
C391 O388 1.244 . S
C391 O389 1.240 1_565 S
H392 C366 0.931 . S
H393 C375 0.931 . S
H394 C379 0.929 1_545 S
H395 C381 0.930 . S
Co396 N400 2.148 . S
Co396 N406 2.128 . S
Co396 N416 2.194 . S
Co396 O421 2.351 . S
Co396 O422 2.155 . S
Co396 O423 2.096 . S
C397 N400 1.301 . S
C397 N401 1.328 . S
C397 H402 0.930 . S
C398 C399 1.333 . S
C398 N400 1.317 . S
C398 H403 0.930 . S
C399 C398 1.333 . S
C399 N401 1.350 . S
C399 H425 0.931 . S
N400 Co396 2.148 . S
N400 C397 1.301 . S
N400 C398 1.317 . S
N401 C397 1.328 . S
N401 C399 1.350 . S
H402 C397 0.930 . S
H403 C398 0.930 . S
C404 O405 1.224 . S
C404 O423 1.247 . S
O405 C404 1.224 . S
N406 Co396 2.128 . S
N406 C407 1.355 . S
N406 C409 1.311 . S
C407 N406 1.355 . S
C407 C408 1.363 . S
C407 H419 0.929 . S
C408 C407 1.363 . S
C408 N410 1.375 . S
C408 H426 0.931 . S
C409 N406 1.311 . S
C409 N410 1.347 . S
C409 H420 0.929 . S
N410 C408 1.375 . S
N410 C409 1.347 . S
C411 C414 1.365 . S
C411 N416 1.328 . S
C411 H417 0.929 . S
C412 C413 1.362 . S
C412 C415 1.378 . S
C412 H427 0.929 . S
C413 C412 1.362 . S
C413 C414 1.366 . S
C414 C411 1.365 . S
C414 C413 1.366 . S
C414 H428 0.930 . S
C415 C412 1.378 . S
C415 N416 1.315 . S
C415 H418 0.930 . S
N416 Co396 2.194 . S
N416 C411 1.328 . S
N416 C415 1.315 . S
H417 C411 0.929 . S
H418 C415 0.930 . S
H419 C407 0.929 . S
H420 C409 0.929 . S
O421 Co396 2.351 . S
O421 C424 1.244 . S
O422 Co396 2.155 . S
O422 C424 1.240 . S
O423 Co396 2.096 . S
O423 C404 1.247 . S
C424 O421 1.244 . S
C424 O422 1.240 . S
H425 C399 0.931 . S
H426 C408 0.931 . S
H427 C412 0.929 . S
H428 C414 0.930 . S
Co429 N433 2.148 . S
Co429 N439 2.128 . S
Co429 N449 2.194 . S
Co429 O454 2.351 . S
Co429 O455 2.155 . S
Co429 O456 2.096 . S
C430 N433 1.301 . S
C430 N434 1.328 . S
C430 H435 0.930 . S
C431 C432 1.333 . S
C431 N433 1.317 . S
C431 H436 0.930 . S
C432 C431 1.333 . S
C432 N434 1.350 . S
C432 H458 0.931 . S
N433 Co429 2.148 . S
N433 C430 1.301 . S
N433 C431 1.317 . S
N434 C430 1.328 . S
N434 C432 1.350 . S
H435 C430 0.930 . S
H436 C431 0.930 . S
C437 O438 1.224 . S
C437 O456 1.247 . S
O438 C437 1.224 . S
N439 Co429 2.128 . S
N439 C440 1.355 . S
N439 C442 1.311 . S
C440 N439 1.355 . S
C440 C441 1.363 . S
C440 H452 0.929 . S
C441 C440 1.363 . S
C441 N443 1.375 . S
C441 H459 0.931 . S
C442 N439 1.311 . S
C442 N443 1.347 . S
C442 H453 0.929 . S
N443 C441 1.375 . S
N443 C442 1.347 . S
C444 C447 1.365 . S
C444 N449 1.328 . S
C444 H450 0.929 . S
C445 C446 1.362 . S
C445 C448 1.378 . S
C445 H460 0.929 . S
C446 C445 1.362 . S
C446 C447 1.366 . S
C447 C444 1.365 . S
C447 C446 1.366 . S
C447 H461 0.930 . S
C448 C445 1.378 . S
C448 N449 1.315 . S
C448 H451 0.930 . S
N449 Co429 2.194 . S
N449 C444 1.328 . S
N449 C448 1.315 . S
H450 C444 0.929 . S
H451 C448 0.930 . S
H452 C440 0.929 . S
H453 C442 0.929 . S
O454 Co429 2.351 . S
O454 C457 1.244 . S
O455 Co429 2.155 . S
O455 C457 1.240 . S
O456 Co429 2.096 . S
O456 C437 1.247 . S
C457 O454 1.244 . S
C457 O455 1.240 . S
H458 C432 0.931 . S
H459 C441 0.931 . S
H460 C445 0.929 . S
H461 C447 0.930 . S
Co462 N466 2.148 . S
Co462 N472 2.128 . S
Co462 N482 2.179 1_455 S
Co462 O487 2.351 1_455 S
Co462 O488 2.155 . S
Co462 O489 2.096 . S
C463 N466 1.301 . S
C463 N467 1.328 . S
C463 H468 0.930 . S
C464 C465 1.333 . S
C464 N466 1.317 . S
C464 H469 0.930 . S
C465 C464 1.333 . S
C465 N467 1.350 . S
C465 H491 0.931 . S
N466 Co462 2.148 . S
N466 C463 1.301 . S
N466 C464 1.317 . S
N467 C463 1.328 . S
N467 C465 1.350 . S
H468 C463 0.930 . S
H469 C464 0.930 . S
C470 O471 1.224 . S
C470 O489 1.247 . S
O471 C470 1.224 . S
N472 Co462 2.128 . S
N472 C473 1.355 1_455 S
N472 C475 1.311 . S
C473 N472 1.355 1_655 S
C473 C474 1.363 . S
C473 H485 0.929 . S
C474 C473 1.363 . S
C474 N476 1.375 . S
C474 H492 0.931 . S
C475 N472 1.311 . S
C475 N476 1.347 1_455 S
C475 H486 0.929 . S
N476 C474 1.375 . S
N476 C475 1.347 1_655 S
C477 C480 1.365 . S
C477 N482 1.357 . S
C477 H483 0.929 . S
C478 C479 1.362 . S
C478 C481 1.378 1_655 S
C478 H493 0.929 1_655 S
C479 C478 1.362 . S
C479 C480 1.366 . S
C480 C477 1.365 . S
C480 C479 1.366 . S
C480 H494 0.930 . S
C481 C478 1.378 1_455 S
C481 N482 1.303 1_455 S
C481 H484 0.930 . S
N482 Co462 2.179 1_655 S
N482 C477 1.357 . S
N482 C481 1.303 1_655 S
H483 C477 0.929 . S
H484 C481 0.930 . S
H485 C473 0.929 . S
H486 C475 0.929 . S
O487 Co462 2.351 1_655 S
O487 C490 1.244 . S
O488 Co462 2.155 . S
O488 C490 1.240 1_455 S
O489 Co462 2.096 . S
O489 C470 1.247 . S
C490 O487 1.244 . S
C490 O488 1.240 1_655 S
H491 C465 0.931 . S
H492 C474 0.931 . S
H493 C478 0.929 1_455 S
H494 C480 0.930 . S
Co495 N499 2.148 . S
Co495 N505 2.128 . S
Co495 N515 2.179 1_545 S
Co495 O520 2.351 1_545 S
Co495 O521 2.155 . S
Co495 O522 2.096 . S
C496 N499 1.301 . S
C496 N500 1.328 . S
C496 H501 0.930 . S
C497 C498 1.333 . S
C497 N499 1.317 . S
C497 H502 0.930 . S
C498 C497 1.333 . S
C498 N500 1.350 . S
C498 H524 0.931 . S
N499 Co495 2.148 . S
N499 C496 1.301 . S
N499 C497 1.317 . S
N500 C496 1.328 . S
N500 C498 1.350 . S
H501 C496 0.930 . S
H502 C497 0.930 . S
C503 O504 1.224 . S
C503 O522 1.247 . S
O504 C503 1.224 . S
N505 Co495 2.128 . S
N505 C506 1.355 1_545 S
N505 C508 1.311 . S
C506 N505 1.355 1_565 S
C506 C507 1.363 . S
C506 H518 0.929 . S
C507 C506 1.363 . S
C507 N509 1.375 . S
C507 H525 0.931 . S
C508 N505 1.311 . S
C508 N509 1.347 1_545 S
C508 H519 0.929 . S
N509 C507 1.375 . S
N509 C508 1.347 1_565 S
C510 C513 1.365 . S
C510 N515 1.357 . S
C510 H516 0.929 . S
C511 C512 1.362 . S
C511 C514 1.378 1_565 S
C511 H526 0.929 1_565 S
C512 C511 1.362 . S
C512 C513 1.366 . S
C513 C510 1.365 . S
C513 C512 1.366 . S
C513 H527 0.930 . S
C514 C511 1.378 1_545 S
C514 N515 1.303 1_545 S
C514 H517 0.930 . S
N515 Co495 2.179 1_565 S
N515 C510 1.357 . S
N515 C514 1.303 1_565 S
H516 C510 0.929 . S
H517 C514 0.930 . S
H518 C506 0.929 . S
H519 C508 0.929 . S
O520 Co495 2.351 1_565 S
O520 C523 1.244 . S
O521 Co495 2.155 . S
O521 C523 1.240 1_545 S
O522 Co495 2.096 . S
O522 C503 1.247 . S
C523 O520 1.244 . S
C523 O521 1.240 1_565 S
H524 C498 0.931 . S
H525 C507 0.931 . S
H526 C511 0.929 1_545 S
H527 C513 0.930 . S
H528 C536 0.929 . S
H529 C538 0.930 . S
H530 C540 0.930 . S
H531 C543 0.929 . S
H532 C546 0.930 . S
H533 C548 0.960 . S
H534 C548 0.960 . S
H535 C548 0.960 . S
C536 H528 0.929 . S
C536 C537 1.377 . S
C536 C538 1.384 . S
C537 C536 1.377 . S
C537 C543 1.390 . S
C538 H529 0.930 . S
C538 C536 1.384 . S
C538 C539 1.372 . S
C539 C538 1.372 . S
C539 C540 1.400 . S
C539 C544 1.490 . S
C540 H530 0.930 . S
C540 C539 1.400 . S
C540 C543 1.386 . S
H541 C557 0.930 . S
H542 C558 0.931 . S
C543 H531 0.929 . S
C543 C537 1.390 . S
C543 C540 1.386 . S
C544 C539 1.490 . S
C544 C546 1.395 . S
C544 C547 1.403 . S
H545 C551 0.930 . S
C546 H532 0.930 . S
C546 C544 1.395 . S
C546 C549 1.403 . S
C547 C544 1.403 . S
C547 C548 1.524 . S
C547 C551 1.400 . S
C548 H533 0.960 . S
C548 H534 0.960 . S
C548 H535 0.960 . S
C548 C547 1.524 . S
C549 C546 1.403 . S
C549 C550 1.392 . S
C549 C553 1.495 . S
C550 C549 1.392 . S
C550 C551 1.385 . S
C550 C552 1.478 . S
C551 H545 0.930 . S
C551 C547 1.400 . S
C551 C550 1.385 . S
C552 C550 1.478 . S
C552 C554 1.381 . S
C552 C558 1.383 . S
C553 C549 1.495 . S
C553 H559 0.959 1_545 S
C553 H560 0.961 . S
C553 H561 0.960 1_545 S
C554 C552 1.381 . S
C554 C555 1.394 . S
C554 H562 0.930 . S
C555 C554 1.394 . S
C555 C556 1.383 . S
C555 H563 0.929 . S
C556 C555 1.383 . S
C556 C557 1.377 . S
C557 H541 0.930 . S
C557 C556 1.377 . S
C557 C558 1.379 . S
C558 H542 0.931 . S
C558 C552 1.383 . S
C558 C557 1.379 . S
H559 C553 0.959 1_565 S
H560 C553 0.961 . S
H561 C553 0.960 1_565 S
H562 C554 0.930 . S
H563 C555 0.929 . S
H564 C572 0.929 . S
H565 C574 0.930 . S
H566 C576 0.930 . S
H567 C579 0.929 . S
H568 C582 0.930 . S
H569 C584 0.960 . S
H570 C584 0.960 . S
H571 C584 0.960 . S
C572 H564 0.929 . S
C572 C573 1.377 . S
C572 C574 1.384 . S
C573 C572 1.377 . S
C573 C579 1.390 . S
C574 H565 0.930 . S
C574 C572 1.384 . S
C574 C575 1.372 . S
C575 C574 1.372 . S
C575 C576 1.400 . S
C575 C580 1.490 . S
C576 H566 0.930 . S
C576 C575 1.400 . S
C576 C579 1.386 . S
H577 C593 0.930 . S
H578 C594 0.931 . S
C579 H567 0.929 . S
C579 C573 1.390 . S
C579 C576 1.386 . S
C580 C575 1.490 . S
C580 C582 1.395 . S
C580 C583 1.403 . S
H581 C587 0.930 . S
C582 H568 0.930 . S
C582 C580 1.395 . S
C582 C585 1.403 . S
C583 C580 1.403 . S
C583 C584 1.524 . S
C583 C587 1.400 . S
C584 H569 0.960 . S
C584 H570 0.960 . S
C584 H571 0.960 . S
C584 C583 1.524 . S
C585 C582 1.403 . S
C585 C586 1.392 . S
C585 C589 1.495 . S
C586 C585 1.392 . S
C586 C587 1.385 . S
C586 C588 1.478 . S
C587 H581 0.930 . S
C587 C583 1.400 . S
C587 C586 1.385 . S
C588 C586 1.478 . S
C588 C590 1.381 . S
C588 C594 1.383 . S
C589 C585 1.495 . S
C589 H595 0.959 . S
C589 H596 0.961 . S
C589 H597 0.960 . S
C590 C588 1.381 . S
C590 C591 1.394 . S
C590 H598 0.930 . S
C591 C590 1.394 . S
C591 C592 1.383 . S
C591 H599 0.929 . S
C592 C591 1.383 . S
C592 C593 1.377 . S
C593 H577 0.930 . S
C593 C592 1.377 . S
C593 C594 1.379 . S
C594 H578 0.931 . S
C594 C588 1.383 . S
C594 C593 1.379 . S
H595 C589 0.959 . S
H596 C589 0.961 . S
H597 C589 0.960 . S
H598 C590 0.930 . S
H599 C591 0.929 . S
H600 C608 0.929 . S
H601 C610 0.930 . S
H602 C612 0.930 . S
H603 C615 0.929 . S
H604 C618 0.930 . S
H605 C620 0.960 . S
H606 C620 0.960 . S
H607 C620 0.960 . S
C608 H600 0.929 . S
C608 C609 1.377 . S
C608 C610 1.384 . S
C609 C608 1.377 . S
C609 C615 1.390 . S
C610 H601 0.930 . S
C610 C608 1.384 . S
C610 C611 1.372 . S
C611 C610 1.372 . S
C611 C612 1.400 . S
C611 C616 1.490 . S
C612 H602 0.930 . S
C612 C611 1.400 . S
C612 C615 1.386 . S
H613 C629 0.930 . S
H614 C630 0.931 . S
C615 H603 0.929 . S
C615 C609 1.390 . S
C615 C612 1.386 . S
C616 C611 1.490 . S
C616 C618 1.395 . S
C616 C619 1.403 . S
H617 C623 0.930 . S
C618 H604 0.930 . S
C618 C616 1.395 . S
C618 C621 1.403 . S
C619 C616 1.403 . S
C619 C620 1.524 . S
C619 C623 1.400 . S
C620 H605 0.960 . S
C620 H606 0.960 . S
C620 H607 0.960 . S
C620 C619 1.524 . S
C621 C618 1.403 . S
C621 C622 1.392 . S
C621 C625 1.495 . S
C622 C621 1.392 . S
C622 C623 1.385 . S
C622 C624 1.478 . S
C623 H617 0.930 . S
C623 C619 1.400 . S
C623 C622 1.385 . S
C624 C622 1.478 . S
C624 C626 1.381 . S
C624 C630 1.383 . S
C625 C621 1.495 . S
C625 H631 0.959 . S
C625 H632 0.961 . S
C625 H633 0.960 . S
C626 C624 1.381 . S
C626 C627 1.394 . S
C626 H634 0.930 . S
C627 C626 1.394 . S
C627 C628 1.383 . S
C627 H635 0.929 . S
C628 C627 1.383 . S
C628 C629 1.377 . S
C629 H613 0.930 . S
C629 C628 1.377 . S
C629 C630 1.379 . S
C630 H614 0.931 . S
C630 C624 1.383 . S
C630 C629 1.379 . S
H631 C625 0.959 . S
H632 C625 0.961 . S
H633 C625 0.960 . S
H634 C626 0.930 . S
H635 C627 0.929 . S
H636 C644 0.929 . S
H637 C646 0.930 . S
H638 C648 0.930 . S
H639 C651 0.929 . S
H640 C654 0.930 . S
H641 C656 0.949 1_565 S
H642 C656 0.960 . S
H643 C656 0.960 . S
C644 H636 0.929 . S
C644 C645 1.377 . S
C644 C646 1.384 . S
C645 C644 1.377 . S
C645 C651 1.390 . S
C646 H637 0.930 . S
C646 C644 1.384 . S
C646 C647 1.372 . S
C647 C646 1.372 . S
C647 C648 1.400 . S
C647 C652 1.490 . S
C648 H638 0.930 . S
C648 C647 1.400 . S
C648 C651 1.386 . S
H649 C665 0.930 . S
H650 C666 0.931 . S
C651 H639 0.929 . S
C651 C645 1.390 . S
C651 C648 1.386 . S
C652 C647 1.490 . S
C652 C654 1.395 . S
C652 C655 1.403 . S
H653 C659 0.930 . S
C654 H640 0.930 . S
C654 C652 1.395 . S
C654 C657 1.403 . S
C655 C652 1.403 . S
C655 C656 1.524 . S
C655 C659 1.400 . S
C656 H641 0.949 1_545 S
C656 H642 0.960 . S
C656 H643 0.960 . S
C656 C655 1.524 . S
C657 C654 1.403 . S
C657 C658 1.392 . S
C657 C661 1.495 . S
C658 C657 1.392 . S
C658 C659 1.385 . S
C658 C660 1.478 . S
C659 H653 0.930 . S
C659 C655 1.400 . S
C659 C658 1.385 . S
C660 C658 1.478 . S
C660 C662 1.381 . S
C660 C666 1.383 . S
C661 C657 1.495 . S
C661 H667 0.959 . S
C661 H668 0.961 . S
C661 H669 0.960 . S
C662 C660 1.381 . S
C662 C663 1.394 . S
C662 H670 0.930 . S
C663 C662 1.394 . S
C663 C664 1.383 . S
C663 H671 0.929 . S
C664 C663 1.383 . S
C664 C665 1.377 . S
C665 H649 0.930 . S
C665 C664 1.377 . S
C665 C666 1.379 . S
C666 H650 0.931 . S
C666 C660 1.383 . S
C666 C665 1.379 . S
H667 C661 0.959 . S
H668 C661 0.961 . S
H669 C661 0.960 . S
H670 C662 0.930 . S
H671 C663 0.929 . S
H672 C680 0.929 . S
H673 C682 0.930 . S
H674 C684 0.930 . S
H675 C687 0.929 . S
H676 C690 0.930 . S
H677 C692 0.960 . S
H678 C692 0.960 . S
H679 C692 0.960 . S
C680 H672 0.929 . S
C680 C681 1.377 . S
C680 C682 1.384 . S
C681 C680 1.377 . S
C681 C687 1.390 . S
C682 H673 0.930 . S
C682 C680 1.384 . S
C682 C683 1.372 . S
C683 C682 1.372 . S
C683 C684 1.400 . S
C683 C688 1.490 . S
C684 H674 0.930 . S
C684 C683 1.400 . S
C684 C687 1.386 . S
H685 C701 0.930 . S
H686 C702 0.931 . S
C687 H675 0.929 . S
C687 C681 1.390 . S
C687 C684 1.386 . S
C688 C683 1.490 . S
C688 C690 1.395 . S
C688 C691 1.403 . S
H689 C695 0.930 . S
C690 H676 0.930 . S
C690 C688 1.395 . S
C690 C693 1.403 . S
C691 C688 1.403 . S
C691 C692 1.524 . S
C691 C695 1.400 . S
C692 H677 0.960 . S
C692 H678 0.960 . S
C692 H679 0.960 . S
C692 C691 1.524 . S
C693 C690 1.403 . S
C693 C694 1.392 . S
C693 C697 1.495 . S
C694 C693 1.392 . S
C694 C695 1.385 . S
C694 C696 1.478 . S
C695 H689 0.930 . S
C695 C691 1.400 . S
C695 C694 1.385 . S
C696 C694 1.478 . S
C696 C698 1.381 . S
C696 C702 1.383 . S
C697 C693 1.495 . S
C697 H703 0.959 . S
C697 H704 0.961 . S
C697 H705 0.960 . S
C698 C696 1.381 . S
C698 C699 1.394 . S
C698 H706 0.930 . S
C699 C698 1.394 . S
C699 C700 1.383 . S
C699 H707 0.929 . S
C700 C699 1.383 . S
C700 C701 1.377 . S
C701 H685 0.930 . S
C701 C700 1.377 . S
C701 C702 1.379 . S
C702 H686 0.931 . S
C702 C696 1.383 . S
C702 C701 1.379 . S
H703 C697 0.959 . S
H704 C697 0.961 . S
H705 C697 0.960 . S
H706 C698 0.930 . S
H707 C699 0.929 . S
H708 C716 0.929 . S
H709 C718 0.930 . S
H710 C720 0.930 . S
H711 C723 0.929 . S
H712 C726 0.930 . S
H713 C728 0.960 . S
H714 C728 0.960 . S
H715 C728 0.960 . S
C716 H708 0.929 . S
C716 C717 1.377 . S
C716 C718 1.384 . S
C717 C716 1.377 . S
C717 C723 1.390 . S
C718 H709 0.930 . S
C718 C716 1.384 . S
C718 C719 1.372 . S
C719 C718 1.372 . S
C719 C720 1.400 . S
C719 C724 1.490 . S
C720 H710 0.930 . S
C720 C719 1.400 . S
C720 C723 1.386 . S
H721 C737 0.930 . S
H722 C738 0.931 . S
C723 H711 0.929 . S
C723 C717 1.390 . S
C723 C720 1.386 . S
C724 C719 1.490 . S
C724 C726 1.395 . S
C724 C727 1.403 . S
H725 C731 0.930 . S
C726 H712 0.930 . S
C726 C724 1.395 . S
C726 C729 1.403 . S
C727 C724 1.403 . S
C727 C728 1.524 . S
C727 C731 1.400 . S
C728 H713 0.960 . S
C728 H714 0.960 . S
C728 H715 0.960 . S
C728 C727 1.524 . S
C729 C726 1.403 . S
C729 C730 1.392 . S
C729 C733 1.495 . S
C730 C729 1.392 . S
C730 C731 1.385 . S
C730 C732 1.478 . S
C731 H725 0.930 . S
C731 C727 1.400 . S
C731 C730 1.385 . S
C732 C730 1.478 . S
C732 C734 1.381 . S
C732 C738 1.383 . S
C733 C729 1.495 . S
C733 H739 0.959 . S
C733 H740 0.961 . S
C733 H741 0.960 . S
C734 C732 1.381 . S
C734 C735 1.394 . S
C734 H742 0.930 . S
C735 C734 1.394 . S
C735 C736 1.383 . S
C735 H743 0.929 . S
C736 C735 1.383 . S
C736 C737 1.377 . S
C737 H721 0.930 . S
C737 C736 1.377 . S
C737 C738 1.379 . S
C738 H722 0.931 . S
C738 C732 1.383 . S
C738 C737 1.379 . S
H739 C733 0.959 . S
H740 C733 0.961 . S
H741 C733 0.960 . S
H742 C734 0.930 . S
H743 C735 0.929 . S
H744 C752 0.929 . S
H745 C754 0.930 . S
H746 C756 0.930 . S
H747 C759 0.929 . S
H748 C762 0.930 . S
H749 C764 0.960 . S
H750 C764 0.960 . S
H751 C764 0.960 . S
C752 H744 0.929 . S
C752 C753 1.377 . S
C752 C754 1.384 . S
C753 C752 1.377 . S
C753 C759 1.390 . S
C754 H745 0.930 . S
C754 C752 1.384 . S
C754 C755 1.372 . S
C755 C754 1.372 . S
C755 C756 1.400 . S
C755 C760 1.490 . S
C756 H746 0.930 . S
C756 C755 1.400 . S
C756 C759 1.386 . S
H757 C773 0.930 . S
H758 C774 0.931 . S
C759 H747 0.929 . S
C759 C753 1.390 . S
C759 C756 1.386 . S
C760 C755 1.490 . S
C760 C762 1.395 . S
C760 C763 1.403 . S
H761 C767 0.930 . S
C762 H748 0.930 . S
C762 C760 1.395 . S
C762 C765 1.403 . S
C763 C760 1.403 . S
C763 C764 1.524 . S
C763 C767 1.400 . S
C764 H749 0.960 . S
C764 H750 0.960 . S
C764 H751 0.960 . S
C764 C763 1.524 . S
C765 C762 1.403 . S
C765 C766 1.392 . S
C765 C769 1.495 . S
C766 C765 1.392 . S
C766 C767 1.385 . S
C766 C768 1.478 . S
C767 H761 0.930 . S
C767 C763 1.400 . S
C767 C766 1.385 . S
C768 C766 1.478 . S
C768 C770 1.381 . S
C768 C774 1.383 . S
C769 C765 1.495 . S
C769 H775 0.973 . S
C769 H776 0.961 . S
C769 H777 0.960 . S
C770 C768 1.381 . S
C770 C771 1.394 . S
C770 H778 0.930 . S
C771 C770 1.394 . S
C771 C772 1.383 . S
C771 H779 0.929 . S
C772 C771 1.383 . S
C772 C773 1.377 . S
C773 H757 0.930 . S
C773 C772 1.377 . S
C773 C774 1.379 . S
C774 H758 0.931 . S
C774 C768 1.383 . S
C774 C773 1.379 . S
H775 C769 0.973 . S
H776 C769 0.961 . S
H777 C769 0.960 . S
H778 C770 0.930 . S
H779 C771 0.929 . S
H780 C788 0.929 . S
H781 C790 0.930 . S
H782 C792 0.930 . S
H783 C795 0.929 . S
H784 C798 0.930 . S
H785 C800 0.960 . S
H786 C800 0.960 . S
H787 C800 0.960 . S
C788 H780 0.929 . S
C788 C789 1.377 . S
C788 C790 1.384 . S
C789 C788 1.377 . S
C789 C795 1.390 . S
C790 H781 0.930 . S
C790 C788 1.384 . S
C790 C791 1.372 . S
C791 C790 1.372 . S
C791 C792 1.400 . S
C791 C796 1.490 . S
C792 H782 0.930 . S
C792 C791 1.400 . S
C792 C795 1.386 . S
H793 C809 0.930 . S
H794 C810 0.931 . S
C795 H783 0.929 . S
C795 C789 1.390 . S
C795 C792 1.386 . S
C796 C791 1.490 . S
C796 C798 1.395 . S
C796 C799 1.403 . S
H797 C803 0.930 . S
C798 H784 0.930 . S
C798 C796 1.395 . S
C798 C801 1.403 . S
C799 C796 1.403 . S
C799 C800 1.524 . S
C799 C803 1.400 . S
C800 H785 0.960 . S
C800 H786 0.960 . S
C800 H787 0.960 . S
C800 C799 1.524 . S
C801 C798 1.403 . S
C801 C802 1.392 . S
C801 C805 1.495 . S
C802 C801 1.392 . S
C802 C803 1.385 . S
C802 C804 1.478 . S
C803 H797 0.930 . S
C803 C799 1.400 . S
C803 C802 1.385 . S
C804 C802 1.478 . S
C804 C806 1.381 . S
C804 C810 1.383 . S
C805 C801 1.495 . S
C805 H811 0.959 . S
C805 H812 0.961 . S
C805 H813 0.960 . S
C806 C804 1.381 . S
C806 C807 1.394 . S
C806 H814 0.930 . S
C807 C806 1.394 . S
C807 C808 1.383 . S
C807 H815 0.929 . S
C808 C807 1.383 . S
C808 C809 1.377 . S
C809 H793 0.930 . S
C809 C808 1.377 . S
C809 C810 1.379 . S
C810 H794 0.931 . S
C810 C804 1.383 . S
C810 C809 1.379 . S
H811 C805 0.959 . S
H812 C805 0.961 . S
H813 C805 0.960 . S
H814 C806 0.930 . S
H815 C807 0.929 . S
H816 C824 0.929 . S
H817 C826 0.930 . S
H818 C828 0.930 . S
H819 C831 0.929 . S
H820 C834 0.930 . S
H821 C836 0.960 . S
H822 C836 0.960 . S
H823 C836 0.960 . S
C824 H816 0.929 . S
C824 C825 1.377 . S
C824 C826 1.384 . S
C825 C824 1.377 . S
C825 C831 1.390 . S
C826 H817 0.930 . S
C826 C824 1.384 . S
C826 C827 1.372 . S
C827 C826 1.372 . S
C827 C828 1.400 . S
C827 C832 1.490 . S
C828 H818 0.930 . S
C828 C827 1.400 . S
C828 C831 1.386 . S
H829 C845 0.930 . S
H830 C846 0.931 . S
C831 H819 0.929 . S
C831 C825 1.390 . S
C831 C828 1.386 . S
C832 C827 1.490 . S
C832 C834 1.395 . S
C832 C835 1.403 . S
H833 C839 0.930 . S
C834 H820 0.930 . S
C834 C832 1.395 . S
C834 C837 1.403 . S
C835 C832 1.403 . S
C835 C836 1.524 . S
C835 C839 1.400 . S
C836 H821 0.960 . S
C836 H822 0.960 . S
C836 H823 0.960 . S
C836 C835 1.524 . S
C837 C834 1.403 . S
C837 C838 1.392 . S
C837 C841 1.495 . S
C838 C837 1.392 . S
C838 C839 1.385 . S
C838 C840 1.478 . S
C839 H833 0.930 . S
C839 C835 1.400 . S
C839 C838 1.385 . S
C840 C838 1.478 . S
C840 C842 1.381 . S
C840 C846 1.383 . S
C841 C837 1.495 . S
C841 H847 0.959 . S
C841 H848 0.961 . S
C841 H849 0.960 . S
C842 C840 1.381 . S
C842 C843 1.394 . S
C842 H850 0.930 . S
C843 C842 1.394 . S
C843 C844 1.383 . S
C843 H851 0.929 . S
C844 C843 1.383 . S
C844 C845 1.377 . S
C845 H829 0.930 . S
C845 C844 1.377 . S
C845 C846 1.379 . S
C846 H830 0.931 . S
C846 C840 1.383 . S
C846 C845 1.379 . S
H847 C841 0.959 . S
H848 C841 0.961 . S
H849 C841 0.960 . S
H850 C842 0.930 . S
H851 C843 0.929 . S
H852 C860 0.929 . S
H853 C862 0.930 . S
H854 C864 0.930 . S
H855 C867 0.929 . S
H856 C870 0.930 . S
H857 C872 0.960 . S
H858 C872 0.960 . S
H859 C872 0.960 . S
C860 H852 0.929 . S
C860 C861 1.377 . S
C860 C862 1.384 . S
C861 C860 1.377 . S
C861 C867 1.390 . S
C862 H853 0.930 . S
C862 C860 1.384 . S
C862 C863 1.372 . S
C863 C862 1.372 . S
C863 C864 1.400 . S
C863 C868 1.490 . S
C864 H854 0.930 . S
C864 C863 1.400 . S
C864 C867 1.386 . S
H865 C881 0.930 . S
H866 C882 0.931 . S
C867 H855 0.929 . S
C867 C861 1.390 . S
C867 C864 1.386 . S
C868 C863 1.490 . S
C868 C870 1.395 . S
C868 C871 1.403 . S
H869 C875 0.930 . S
C870 H856 0.930 . S
C870 C868 1.395 . S
C870 C873 1.403 . S
C871 C868 1.403 . S
C871 C872 1.524 . S
C871 C875 1.400 . S
C872 H857 0.960 . S
C872 H858 0.960 . S
C872 H859 0.960 . S
C872 C871 1.524 . S
C873 C870 1.403 . S
C873 C874 1.392 . S
C873 C877 1.495 . S
C874 C873 1.392 . S
C874 C875 1.385 . S
C874 C876 1.478 . S
C875 H869 0.930 . S
C875 C871 1.400 . S
C875 C874 1.385 . S
C876 C874 1.478 . S
C876 C878 1.381 . S
C876 C882 1.383 . S
C877 C873 1.495 . S
C877 H883 0.959 . S
C877 H884 0.961 . S
C877 H885 0.960 . S
C878 C876 1.381 . S
C878 C879 1.394 . S
C878 H886 0.930 . S
C879 C878 1.394 . S
C879 C880 1.383 . S
C879 H887 0.929 . S
C880 C879 1.383 . S
C880 C881 1.377 . S
C881 H865 0.930 . S
C881 C880 1.377 . S
C881 C882 1.379 . S
C882 H866 0.931 . S
C882 C876 1.383 . S
C882 C881 1.379 . S
H883 C877 0.959 . S
H884 C877 0.961 . S
H885 C877 0.960 . S
H886 C878 0.930 . S
H887 C879 0.929 . S
H888 C896 0.929 . S
H889 C898 0.930 . S
H890 C900 0.930 . S
H891 C903 0.929 . S
H892 C906 0.930 . S
H893 C908 0.960 . S
H894 C908 0.960 . S
H895 C908 0.960 . S
C896 H888 0.929 . S
C896 C897 1.377 . S
C896 C898 1.384 . S
C897 C896 1.377 . S
C897 C903 1.390 . S
C898 H889 0.930 . S
C898 C896 1.384 . S
C898 C899 1.372 . S
C899 C898 1.372 . S
C899 C900 1.400 . S
C899 C904 1.490 . S
C900 H890 0.930 . S
C900 C899 1.400 . S
C900 C903 1.386 . S
H901 C917 0.930 . S
H902 C918 0.931 . S
C903 H891 0.929 . S
C903 C897 1.390 . S
C903 C900 1.386 . S
C904 C899 1.490 . S
C904 C906 1.395 . S
C904 C907 1.403 . S
H905 C911 0.930 . S
C906 H892 0.930 . S
C906 C904 1.395 . S
C906 C909 1.403 . S
C907 C904 1.403 . S
C907 C908 1.524 . S
C907 C911 1.400 . S
C908 H893 0.960 . S
C908 H894 0.960 . S
C908 H895 0.960 . S
C908 C907 1.524 . S
C909 C906 1.403 . S
C909 C910 1.392 . S
C909 C913 1.495 . S
C910 C909 1.392 . S
C910 C911 1.385 . S
C910 C912 1.478 . S
C911 H905 0.930 . S
C911 C907 1.400 . S
C911 C910 1.385 . S
C912 C910 1.478 . S
C912 C914 1.381 . S
C912 C918 1.383 . S
C913 C909 1.495 . S
C913 H919 0.959 . S
C913 H920 0.961 . S
C913 H921 0.960 . S
C914 C912 1.381 . S
C914 C915 1.394 . S
C914 H922 0.930 . S
C915 C914 1.394 . S
C915 C916 1.383 . S
C915 H923 0.929 . S
C916 C915 1.383 . S
C916 C917 1.377 . S
C917 H901 0.930 . S
C917 C916 1.377 . S
C917 C918 1.379 . S
C918 H902 0.931 . S
C918 C912 1.383 . S
C918 C917 1.379 . S
H919 C913 0.959 . S
H920 C913 0.961 . S
H921 C913 0.960 . S
H922 C914 0.930 . S
H923 C915 0.929 . S
H924 C932 0.929 . S
H925 C934 0.930 . S
H926 C936 0.930 . S
H927 C939 0.929 . S
H928 C942 0.930 . S
H929 C944 0.960 . S
H930 C944 0.960 . S
H931 C944 0.960 . S
C932 H924 0.929 . S
C932 C933 1.377 . S
C932 C934 1.384 . S
C933 C932 1.377 . S
C933 C939 1.390 . S
C934 H925 0.930 . S
C934 C932 1.384 . S
C934 C935 1.372 . S
C935 C934 1.372 . S
C935 C936 1.400 . S
C935 C940 1.490 . S
C936 H926 0.930 . S
C936 C935 1.400 . S
C936 C939 1.386 . S
H937 C953 0.930 . S
H938 C954 0.931 . S
C939 H927 0.929 . S
C939 C933 1.390 . S
C939 C936 1.386 . S
C940 C935 1.490 . S
C940 C942 1.395 . S
C940 C943 1.403 . S
H941 C947 0.930 . S
C942 H928 0.930 . S
C942 C940 1.395 . S
C942 C945 1.403 . S
C943 C940 1.403 . S
C943 C944 1.524 . S
C943 C947 1.400 . S
C944 H929 0.960 . S
C944 H930 0.960 . S
C944 H931 0.960 . S
C944 C943 1.524 . S
C945 C942 1.403 . S
C945 C946 1.392 . S
C945 C949 1.495 . S
C946 C945 1.392 . S
C946 C947 1.385 . S
C946 C948 1.478 . S
C947 H941 0.930 . S
C947 C943 1.400 . S
C947 C946 1.385 . S
C948 C946 1.478 . S
C948 C950 1.381 . S
C948 C954 1.383 . S
C949 C945 1.495 . S
C949 H955 0.959 . S
C949 H956 0.961 . S
C949 H957 0.960 . S
C950 C948 1.381 . S
C950 C951 1.394 . S
C950 H958 0.930 . S
C951 C950 1.394 . S
C951 C952 1.383 . S
C951 H959 0.929 . S
C952 C951 1.383 . S
C952 C953 1.377 . S
C953 H937 0.930 . S
C953 C952 1.377 . S
C953 C954 1.379 . S
C954 H938 0.931 . S
C954 C948 1.383 . S
C954 C953 1.379 . S
H955 C949 0.959 . S
H956 C949 0.961 . S
H957 C949 0.960 . S
H958 C950 0.930 . S
H959 C951 0.929 . S
H960 C968 0.929 . S
H961 C970 0.930 . S
H962 C972 0.930 . S
H963 C975 0.929 . S
H964 C978 0.930 . S
H965 C980 0.960 . S
H966 C980 0.960 . S
H967 C980 0.960 . S
C968 H960 0.929 . S
C968 C969 1.377 . S
C968 C970 1.384 . S
C969 C968 1.377 . S
C969 C975 1.390 . S
C970 H961 0.930 . S
C970 C968 1.384 . S
C970 C971 1.372 . S
C971 C970 1.372 . S
C971 C972 1.400 . S
C971 C976 1.490 . S
C972 H962 0.930 . S
C972 C971 1.400 . S
C972 C975 1.386 . S
H973 C989 0.930 . S
H974 C990 0.931 . S
C975 H963 0.929 . S
C975 C969 1.390 . S
C975 C972 1.386 . S
C976 C971 1.490 . S
C976 C978 1.395 . S
C976 C979 1.403 . S
H977 C983 0.930 . S
C978 H964 0.930 . S
C978 C976 1.395 . S
C978 C981 1.403 . S
C979 C976 1.403 . S
C979 C980 1.524 . S
C979 C983 1.400 . S
C980 H965 0.960 . S
C980 H966 0.960 . S
C980 H967 0.960 . S
C980 C979 1.524 . S
C981 C978 1.403 . S
C981 C982 1.392 . S
C981 C985 1.495 . S
C982 C981 1.392 . S
C982 C983 1.385 . S
C982 C984 1.478 . S
C983 H977 0.930 . S
C983 C979 1.400 . S
C983 C982 1.385 . S
C984 C982 1.478 . S
C984 C986 1.381 . S
C984 C990 1.383 . S
C985 C981 1.495 . S
C985 H991 0.959 . S
C985 H992 0.961 . S
C985 H993 0.960 . S
C986 C984 1.381 . S
C986 C987 1.394 . S
C986 H994 0.930 . S
C987 C986 1.394 . S
C987 C988 1.383 . S
C987 H995 0.929 . S
C988 C987 1.383 . S
C988 C989 1.377 . S
C989 H973 0.930 . S
C989 C988 1.377 . S
C989 C990 1.379 . S
C990 H974 0.931 . S
C990 C984 1.383 . S
C990 C989 1.379 . S
H991 C985 0.959 . S
H992 C985 0.961 . S
H993 C985 0.960 . S
H994 C986 0.930 . S
H995 C987 0.929 . S
H996 C1004 0.929 . S
H997 C1006 0.930 . S
H998 C1008 0.930 . S
H999 C1011 0.929 . S
H1000 C1014 0.930 . S
H1001 C1016 0.960 . S
H1002 C1016 0.960 . S
H1003 C1016 0.960 . S
C1004 H996 0.929 . S
C1004 C1005 1.377 . S
C1004 C1006 1.384 . S
C1005 C1004 1.377 . S
C1005 C1011 1.390 . S
C1006 H997 0.930 . S
C1006 C1004 1.384 . S
C1006 C1007 1.372 . S
C1007 C1006 1.372 . S
C1007 C1008 1.400 . S
C1007 C1012 1.490 . S
C1008 H998 0.930 . S
C1008 C1007 1.400 . S
C1008 C1011 1.386 . S
H1009 C1025 0.930 . S
H1010 C1026 0.931 . S
C1011 H999 0.929 . S
C1011 C1005 1.390 . S
C1011 C1008 1.386 . S
C1012 C1007 1.490 . S
C1012 C1014 1.395 . S
C1012 C1015 1.403 . S
H1013 C1019 0.930 . S
C1014 H1000 0.930 . S
C1014 C1012 1.395 . S
C1014 C1017 1.403 . S
C1015 C1012 1.403 . S
C1015 C1016 1.524 . S
C1015 C1019 1.400 . S
C1016 H1001 0.960 . S
C1016 H1002 0.960 . S
C1016 H1003 0.960 . S
C1016 C1015 1.524 . S
C1017 C1014 1.403 . S
C1017 C1018 1.392 . S
C1017 C1021 1.495 . S
C1018 C1017 1.392 . S
C1018 C1019 1.385 . S
C1018 C1020 1.478 . S
C1019 H1013 0.930 . S
C1019 C1015 1.400 . S
C1019 C1018 1.385 . S
C1020 C1018 1.478 . S
C1020 C1022 1.381 . S
C1020 C1026 1.383 . S
C1021 C1017 1.495 . S
C1021 H1027 0.959 . S
C1021 H1028 0.961 . S
C1021 H1029 0.960 . S
C1022 C1020 1.381 . S
C1022 C1023 1.394 . S
C1022 H1030 0.930 . S
C1023 C1022 1.394 . S
C1023 C1024 1.383 . S
C1023 H1031 0.929 . S
C1024 C1023 1.383 . S
C1024 C1025 1.377 . S
C1025 H1009 0.930 . S
C1025 C1024 1.377 . S
C1025 C1026 1.379 . S
C1026 H1010 0.931 . S
C1026 C1020 1.383 . S
C1026 C1025 1.379 . S
H1027 C1021 0.959 . S
H1028 C1021 0.961 . S
H1029 C1021 0.960 . S
H1030 C1022 0.930 . S
H1031 C1023 0.929 . S
H1032 C1040 0.929 . S
H1033 C1042 0.930 . S
H1034 C1044 0.930 . S
H1035 C1047 0.929 . S
H1036 C1050 0.930 . S
H1037 C1052 0.960 . S
H1038 C1052 0.960 . S
H1039 C1052 0.960 . S
C1040 H1032 0.929 . S
C1040 C1041 1.377 . S
C1040 C1042 1.384 . S
C1041 C1040 1.377 . S
C1041 C1047 1.390 . S
C1042 H1033 0.930 . S
C1042 C1040 1.384 . S
C1042 C1043 1.372 . S
C1043 C1042 1.372 . S
C1043 C1044 1.400 . S
C1043 C1048 1.490 . S
C1044 H1034 0.930 . S
C1044 C1043 1.400 . S
C1044 C1047 1.386 . S
H1045 C1061 0.930 . S
H1046 C1062 0.931 . S
C1047 H1035 0.929 . S
C1047 C1041 1.390 . S
C1047 C1044 1.386 . S
C1048 C1043 1.490 . S
C1048 C1050 1.395 . S
C1048 C1051 1.403 . S
H1049 C1055 0.930 . S
C1050 H1036 0.930 . S
C1050 C1048 1.395 . S
C1050 C1053 1.403 . S
C1051 C1048 1.403 . S
C1051 C1052 1.524 . S
C1051 C1055 1.400 . S
C1052 H1037 0.960 . S
C1052 H1038 0.960 . S
C1052 H1039 0.960 . S
C1052 C1051 1.524 . S
C1053 C1050 1.403 . S
C1053 C1054 1.392 . S
C1053 C1057 1.495 . S
C1054 C1053 1.392 . S
C1054 C1055 1.385 . S
C1054 C1056 1.478 . S
C1055 H1049 0.930 . S
C1055 C1051 1.400 . S
C1055 C1054 1.385 . S
C1056 C1054 1.478 . S
C1056 C1058 1.381 . S
C1056 C1062 1.383 . S
C1057 C1053 1.495 . S
C1057 H1063 0.959 . S
C1057 H1064 0.961 . S
C1057 H1065 0.960 . S
C1058 C1056 1.381 . S
C1058 C1059 1.394 . S
C1058 H1066 0.930 . S
C1059 C1058 1.394 . S
C1059 C1060 1.383 . S
C1059 H1067 0.929 . S
C1060 C1059 1.383 . S
C1060 C1061 1.377 . S
C1061 H1045 0.930 . S
C1061 C1060 1.377 . S
C1061 C1062 1.379 . S
C1062 H1046 0.931 . S
C1062 C1056 1.383 . S
C1062 C1061 1.379 . S
H1063 C1057 0.959 . S
H1064 C1057 0.961 . S
H1065 C1057 0.960 . S
H1066 C1058 0.930 . S
H1067 C1059 0.929 . S
H1068 C1076 0.929 . S
H1069 C1078 0.930 . S
H1070 C1080 0.930 . S
H1071 C1083 0.929 . S
H1072 C1086 0.930 . S
H1073 C1088 0.960 . S
H1074 C1088 0.960 . S
H1075 C1088 0.960 . S
C1076 H1068 0.929 . S
C1076 C1077 1.377 . S
C1076 C1078 1.384 . S
C1077 C1076 1.377 . S
C1077 C1083 1.390 . S
C1078 H1069 0.930 . S
C1078 C1076 1.384 . S
C1078 C1079 1.372 . S
C1079 C1078 1.372 . S
C1079 C1080 1.400 . S
C1079 C1084 1.490 . S
C1080 H1070 0.930 . S
C1080 C1079 1.400 . S
C1080 C1083 1.386 . S
H1081 C1097 0.930 . S
H1082 C1098 0.931 . S
C1083 H1071 0.929 . S
C1083 C1077 1.390 . S
C1083 C1080 1.386 . S
C1084 C1079 1.490 . S
C1084 C1086 1.395 . S
C1084 C1087 1.403 . S
H1085 C1091 0.930 . S
C1086 H1072 0.930 . S
C1086 C1084 1.395 . S
C1086 C1089 1.403 . S
C1087 C1084 1.403 . S
C1087 C1088 1.524 . S
C1087 C1091 1.400 . S
C1088 H1073 0.960 . S
C1088 H1074 0.960 . S
C1088 H1075 0.960 . S
C1088 C1087 1.524 . S
C1089 C1086 1.403 . S
C1089 C1090 1.392 . S
C1089 C1093 1.495 . S
C1090 C1089 1.392 . S
C1090 C1091 1.385 . S
C1090 C1092 1.478 . S
C1091 H1085 0.930 . S
C1091 C1087 1.400 . S
C1091 C1090 1.385 . S
C1092 C1090 1.478 . S
C1092 C1094 1.381 . S
C1092 C1098 1.383 . S
C1093 C1089 1.495 . S
C1093 H1099 0.959 . S
C1093 H1100 0.961 . S
C1093 H1101 0.960 . S
C1094 C1092 1.381 . S
C1094 C1095 1.394 . S
C1094 H1102 0.930 . S
C1095 C1094 1.394 . S
C1095 C1096 1.383 . S
C1095 H1103 0.929 . S
C1096 C1095 1.383 . S
C1096 C1097 1.377 . S
C1097 H1081 0.930 . S
C1097 C1096 1.377 . S
C1097 C1098 1.379 . S
C1098 H1082 0.931 . S
C1098 C1092 1.383 . S
C1098 C1097 1.379 . S
H1099 C1093 0.959 . S
H1100 C1093 0.961 . S
H1101 C1093 0.960 . S
H1102 C1094 0.930 . S
H1103 C1095 0.929 . S
H1104 C1112 0.929 . S
H1105 C1114 0.930 . S
H1106 C1116 0.930 . S
H1107 C1119 0.929 . S
H1108 C1122 0.930 . S
H1109 C1124 0.960 . S
H1110 C1124 0.960 . S
H1111 C1124 0.960 . S
C1112 H1104 0.929 . S
C1112 C1113 1.377 . S
C1112 C1114 1.384 . S
C1113 C1112 1.377 . S
C1113 C1119 1.390 . S
C1114 H1105 0.930 . S
C1114 C1112 1.384 . S
C1114 C1115 1.372 . S
C1115 C1114 1.372 . S
C1115 C1116 1.400 . S
C1115 C1120 1.490 . S
C1116 H1106 0.930 . S
C1116 C1115 1.400 . S
C1116 C1119 1.386 . S
H1117 C1133 0.930 1_545 S
H1118 C1134 0.931 . S
C1119 H1107 0.929 . S
C1119 C1113 1.390 . S
C1119 C1116 1.386 . S
C1120 C1115 1.490 . S
C1120 C1122 1.395 . S
C1120 C1123 1.403 . S
H1121 C1127 0.930 . S
C1122 H1108 0.930 . S
C1122 C1120 1.395 . S
C1122 C1125 1.403 . S
C1123 C1120 1.403 . S
C1123 C1124 1.524 . S
C1123 C1127 1.400 . S
C1124 H1109 0.960 . S
C1124 H1110 0.960 . S
C1124 H1111 0.960 . S
C1124 C1123 1.524 . S
C1125 C1122 1.403 . S
C1125 C1126 1.392 . S
C1125 C1129 1.495 . S
C1126 C1125 1.392 . S
C1126 C1127 1.385 . S
C1126 C1128 1.478 . S
C1127 H1121 0.930 . S
C1127 C1123 1.400 . S
C1127 C1126 1.385 . S
C1128 C1126 1.478 . S
C1128 C1130 1.381 . S
C1128 C1134 1.383 . S
C1129 C1125 1.495 . S
C1129 H1135 0.959 . S
C1129 H1136 0.961 . S
C1129 H1137 0.960 . S
C1130 C1128 1.381 . S
C1130 C1131 1.394 . S
C1130 H1138 0.930 . S
C1131 C1130 1.394 . S
C1131 C1132 1.383 1_565 S
C1131 H1139 0.940 . S
C1132 C1131 1.383 1_545 S
C1132 C1133 1.377 1_545 S
C1133 H1117 0.930 1_565 S
C1133 C1132 1.377 1_565 S
C1133 C1134 1.379 . S
C1134 H1118 0.931 . S
C1134 C1128 1.383 . S
C1134 C1133 1.379 . S
H1135 C1129 0.959 . S
H1136 C1129 0.961 . S
H1137 C1129 0.960 . S
H1138 C1130 0.930 . S
H1139 C1131 0.940 . S
H1140 C1148 0.929 . S
H1141 C1150 0.930 . S
H1142 C1152 0.930 . S
H1143 C1155 0.929 . S
H1144 C1158 0.930 . S
H1145 C1160 0.960 . S
H1146 C1160 0.960 . S
H1147 C1160 0.960 . S
C1148 H1140 0.929 . S
C1148 C1149 1.377 . S
C1148 C1150 1.384 . S
C1149 C1148 1.377 . S
C1149 C1155 1.390 . S
C1150 H1141 0.930 . S
C1150 C1148 1.384 . S
C1150 C1151 1.372 . S
C1151 C1150 1.372 . S
C1151 C1152 1.400 . S
C1151 C1156 1.490 . S
C1152 H1142 0.930 . S
C1152 C1151 1.400 . S
C1152 C1155 1.386 . S
H1153 C1169 0.930 . S
H1154 C1170 0.931 . S
C1155 H1143 0.929 . S
C1155 C1149 1.390 . S
C1155 C1152 1.386 . S
C1156 C1151 1.490 . S
C1156 C1158 1.395 . S
C1156 C1159 1.403 . S
H1157 C1163 0.930 . S
C1158 H1144 0.930 . S
C1158 C1156 1.395 . S
C1158 C1161 1.403 . S
C1159 C1156 1.403 . S
C1159 C1160 1.524 . S
C1159 C1163 1.400 . S
C1160 H1145 0.960 . S
C1160 H1146 0.960 . S
C1160 H1147 0.960 . S
C1160 C1159 1.524 . S
C1161 C1158 1.403 . S
C1161 C1162 1.392 . S
C1161 C1165 1.495 . S
C1162 C1161 1.392 . S
C1162 C1163 1.385 . S
C1162 C1164 1.478 . S
C1163 H1157 0.930 . S
C1163 C1159 1.400 . S
C1163 C1162 1.385 . S
C1164 C1162 1.478 . S
C1164 C1166 1.381 . S
C1164 C1170 1.383 . S
C1165 C1161 1.495 . S
C1165 H1171 0.959 . S
C1165 H1172 0.961 . S
C1165 H1173 0.960 . S
C1166 C1164 1.381 . S
C1166 C1167 1.394 . S
C1166 H1174 0.930 . S
C1167 C1166 1.394 . S
C1167 C1168 1.383 . S
C1167 H1175 0.929 . S
C1168 C1167 1.383 . S
C1168 C1169 1.377 . S
C1169 H1153 0.930 . S
C1169 C1168 1.377 . S
C1169 C1170 1.379 . S
C1170 H1154 0.931 . S
C1170 C1164 1.383 . S
C1170 C1169 1.379 . S
H1171 C1165 0.959 . S
H1172 C1165 0.961 . S
H1173 C1165 0.960 . S
H1174 C1166 0.930 . S
H1175 C1167 0.929 . S
H1176 C1184 0.929 . S
H1177 C1186 0.930 . S
H1178 C1188 0.930 1_455 S
H1179 C1191 0.924 1_455 S
H1180 C1194 0.930 . S
H1181 C1196 0.960 . S
H1182 C1196 0.960 1_655 S
H1183 C1196 0.960 . S
C1184 H1176 0.929 . S
C1184 C1185 1.377 . S
C1184 C1186 1.384 . S
C1185 C1184 1.377 . S
C1185 C1191 1.390 . S
C1186 H1177 0.930 . S
C1186 C1184 1.384 . S
C1186 C1187 1.372 . S
C1187 C1186 1.372 . S
C1187 C1188 1.400 . S
C1187 C1192 1.490 . S
C1188 H1178 0.930 1_655 S
C1188 C1187 1.400 . S
C1188 C1191 1.386 . S
H1189 C1205 0.930 . S
H1190 C1206 0.931 . S
C1191 H1179 0.924 1_655 S
C1191 C1185 1.390 . S
C1191 C1188 1.386 . S
C1192 C1187 1.490 . S
C1192 C1194 1.395 . S
C1192 C1195 1.403 . S
H1193 C1199 0.930 1_455 S
C1194 H1180 0.930 . S
C1194 C1192 1.395 . S
C1194 C1197 1.403 . S
C1195 C1192 1.403 . S
C1195 C1196 1.524 1_655 S
C1195 C1199 1.400 . S
C1196 H1181 0.960 . S
C1196 H1182 0.960 1_455 S
C1196 H1183 0.960 . S
C1196 C1195 1.524 1_455 S
C1197 C1194 1.403 . S
C1197 C1198 1.392 . S
C1197 C1201 1.495 . S
C1198 C1197 1.392 . S
C1198 C1199 1.385 . S
C1198 C1200 1.478 . S
C1199 H1193 0.930 1_655 S
C1199 C1195 1.400 . S
C1199 C1198 1.385 . S
C1200 C1198 1.478 . S
C1200 C1202 1.381 . S
C1200 C1206 1.383 1_655 S
C1201 C1197 1.495 . S
C1201 H1207 0.959 . S
C1201 H1208 0.961 . S
C1201 H1209 0.960 . S
C1202 C1200 1.381 . S
C1202 C1203 1.394 . S
C1202 H1210 0.930 . S
C1203 C1202 1.394 . S
C1203 C1204 1.383 1_655 S
C1203 H1211 0.929 . S
C1204 C1203 1.383 1_455 S
C1204 C1205 1.377 . S
C1205 H1189 0.930 . S
C1205 C1204 1.377 . S
C1205 C1206 1.379 . S
C1206 H1190 0.931 . S
C1206 C1200 1.383 1_455 S
C1206 C1205 1.379 . S
H1207 C1201 0.959 . S
H1208 C1201 0.961 . S
H1209 C1201 0.960 . S
H1210 C1202 0.930 . S
H1211 C1203 0.929 . S
H1212 C1220 0.929 . S
H1213 C1222 0.930 . S
H1214 C1224 0.930 . S
H1215 C1227 0.929 . S
H1216 C1230 0.930 . S
H1217 C1232 0.960 . S
H1218 C1232 0.960 . S
H1219 C1232 0.960 . S
C1220 H1212 0.929 . S
C1220 C1221 1.377 1_565 S
C1220 C1222 1.384 . S
C1221 C1220 1.377 1_545 S
C1221 C1227 1.390 . S
C1222 H1213 0.930 . S
C1222 C1220 1.384 . S
C1222 C1223 1.372 . S
C1223 C1222 1.372 . S
C1223 C1224 1.400 1_565 S
C1223 C1228 1.490 . S
C1224 H1214 0.930 . S
C1224 C1223 1.400 1_545 S
C1224 C1227 1.386 . S
H1225 C1241 0.930 1_455 S
H1226 C1242 0.931 . S
C1227 H1215 0.929 . S
C1227 C1221 1.390 . S
C1227 C1224 1.386 . S
C1228 C1223 1.490 . S
C1228 C1230 1.395 . S
C1228 C1231 1.403 1_565 S
H1229 C1235 0.930 1_545 S
C1230 H1216 0.930 . S
C1230 C1228 1.395 . S
C1230 C1233 1.403 . S
C1231 C1228 1.403 1_545 S
C1231 C1232 1.524 . S
C1231 C1235 1.400 1_545 S
C1232 H1217 0.960 . S
C1232 H1218 0.960 . S
C1232 H1219 0.960 . S
C1232 C1231 1.524 . S
C1233 C1230 1.403 . S
C1233 C1234 1.392 . S
C1233 C1237 1.495 . S
C1234 C1233 1.392 . S
C1234 C1235 1.385 . S
C1234 C1236 1.478 . S
C1235 H1229 0.930 1_565 S
C1235 C1231 1.400 1_565 S
C1235 C1234 1.385 . S
C1236 C1234 1.478 . S
C1236 C1238 1.381 . S
C1236 C1242 1.383 . S
C1237 C1233 1.495 . S
C1237 H1243 0.959 . S
C1237 H1244 0.961 . S
C1237 H1245 0.960 . S
C1238 C1236 1.381 . S
C1238 C1239 1.394 . S
C1238 H1246 0.930 . S
C1239 C1238 1.394 . S
C1239 C1240 1.383 1_655 S
C1239 H1247 0.929 . S
C1240 C1239 1.383 1_455 S
C1240 C1241 1.377 1_455 S
C1241 H1225 0.930 1_655 S
C1241 C1240 1.377 1_655 S
C1241 C1242 1.379 . S
C1242 H1226 0.931 . S
C1242 C1236 1.383 . S
C1242 C1241 1.379 . S
H1243 C1237 0.959 . S
H1244 C1237 0.961 . S
H1245 C1237 0.960 . S
H1246 C1238 0.930 . S
H1247 C1239 0.929 . S
H1248 C1256 0.929 . S
H1249 C1258 0.930 . S
H1250 C1260 0.930 . S
H1251 C1263 0.929 . S
H1252 C1266 0.930 . S
H1253 C1268 0.960 . S
H1254 C1268 0.960 . S
H1255 C1268 0.960 . S
C1256 H1248 0.929 . S
C1256 C1257 1.377 . S
C1256 C1258 1.384 . S
C1257 C1256 1.377 . S
C1257 C1263 1.390 . S
C1258 H1249 0.930 . S
C1258 C1256 1.384 . S
C1258 C1259 1.372 . S
C1259 C1258 1.372 . S
C1259 C1260 1.400 . S
C1259 C1264 1.490 . S
C1260 H1250 0.930 . S
C1260 C1259 1.400 . S
C1260 C1263 1.386 . S
H1261 C1277 0.930 . S
H1262 C1278 0.931 . S
C1263 H1251 0.929 . S
C1263 C1257 1.390 . S
C1263 C1260 1.386 . S
C1264 C1259 1.490 . S
C1264 C1266 1.395 . S
C1264 C1267 1.403 . S
H1265 C1271 0.930 . S
C1266 H1252 0.930 . S
C1266 C1264 1.395 . S
C1266 C1269 1.403 . S
C1267 C1264 1.403 . S
C1267 C1268 1.524 . S
C1267 C1271 1.400 . S
C1268 H1253 0.960 . S
C1268 H1254 0.960 . S
C1268 H1255 0.960 . S
C1268 C1267 1.524 . S
C1269 C1266 1.403 . S
C1269 C1270 1.392 . S
C1269 C1273 1.495 . S
C1270 C1269 1.392 . S
C1270 C1271 1.385 . S
C1270 C1272 1.478 . S
C1271 H1265 0.930 . S
C1271 C1267 1.400 . S
C1271 C1270 1.385 . S
C1272 C1270 1.478 . S
C1272 C1274 1.381 . S
C1272 C1278 1.383 . S
C1273 C1269 1.495 . S
C1273 H1279 0.959 . S
C1273 H1280 0.961 . S
C1273 H1281 0.960 . S
C1274 C1272 1.381 . S
C1274 C1275 1.394 . S
C1274 H1282 0.930 . S
C1275 C1274 1.394 . S
C1275 C1276 1.383 . S
C1275 H1283 0.929 . S
C1276 C1275 1.383 . S
C1276 C1277 1.377 . S
C1277 H1261 0.930 . S
C1277 C1276 1.377 . S
C1277 C1278 1.379 . S
C1278 H1262 0.931 . S
C1278 C1272 1.383 . S
C1278 C1277 1.379 . S
H1279 C1273 0.959 . S
H1280 C1273 0.961 . S
H1281 C1273 0.960 . S
H1282 C1274 0.930 . S
H1283 C1275 0.929 . S
H1284 C1292 0.929 . S
H1285 C1294 0.930 . S
H1286 C1296 0.930 . S
H1287 C1299 0.929 . S
H1288 C1302 0.930 . S
H1289 C1304 0.960 . S
H1290 C1304 0.960 . S
H1291 C1304 0.960 . S
C1292 H1284 0.929 . S
C1292 C1293 1.377 . S
C1292 C1294 1.384 . S
C1293 C1292 1.377 . S
C1293 C1299 1.390 . S
C1294 H1285 0.930 . S
C1294 C1292 1.384 . S
C1294 C1295 1.372 . S
C1295 C1294 1.372 . S
C1295 C1296 1.400 . S
C1295 C1300 1.490 . S
C1296 H1286 0.930 . S
C1296 C1295 1.400 . S
C1296 C1299 1.386 . S
H1297 C1313 0.930 1_455 S
H1298 C1314 0.931 . S
C1299 H1287 0.929 . S
C1299 C1293 1.390 . S
C1299 C1296 1.386 . S
C1300 C1295 1.490 . S
C1300 C1302 1.395 . S
C1300 C1303 1.403 . S
H1301 C1307 0.930 . S
C1302 H1288 0.930 . S
C1302 C1300 1.395 . S
C1302 C1305 1.403 . S
C1303 C1300 1.403 . S
C1303 C1304 1.524 . S
C1303 C1307 1.400 . S
C1304 H1289 0.960 . S
C1304 H1290 0.960 . S
C1304 H1291 0.960 . S
C1304 C1303 1.524 . S
C1305 C1302 1.403 . S
C1305 C1306 1.392 . S
C1305 C1309 1.495 . S
C1306 C1305 1.392 . S
C1306 C1307 1.385 . S
C1306 C1308 1.478 . S
C1307 H1301 0.930 . S
C1307 C1303 1.400 . S
C1307 C1306 1.385 . S
C1308 C1306 1.478 . S
C1308 C1310 1.381 . S
C1308 C1314 1.383 . S
C1309 C1305 1.495 . S
C1309 H1315 0.959 . S
C1309 H1316 0.961 . S
C1309 H1317 0.960 . S
C1310 C1308 1.381 . S
C1310 C1311 1.394 . S
C1310 H1318 0.930 . S
C1311 C1310 1.394 . S
C1311 C1312 1.383 1_655 S
C1311 H1319 0.929 1_655 S
C1312 C1311 1.383 1_455 S
C1312 C1313 1.377 1_455 S
C1313 H1297 0.930 1_655 S
C1313 C1312 1.377 1_655 S
C1313 C1314 1.379 . S
C1314 H1298 0.931 . S
C1314 C1308 1.383 . S
C1314 C1313 1.379 . S
H1315 C1309 0.959 . S
H1316 C1309 0.961 . S
H1317 C1309 0.960 . S
H1318 C1310 0.930 . S
H1319 C1311 0.929 1_455 S
H1320 C1328 0.929 1_545 S
H1321 C1330 0.930 . S
H1322 C1332 0.930 . S
H1323 C1335 0.929 1_545 S
H1324 C1338 0.930 . S
H1325 C1340 0.960 . S
H1326 C1340 0.960 . S
H1327 C1340 0.960 . S
C1328 H1320 0.929 1_565 S
C1328 C1329 1.377 1_565 S
C1328 C1330 1.384 . S
C1329 C1328 1.377 1_545 S
C1329 C1335 1.390 1_545 S
C1330 H1321 0.930 . S
C1330 C1328 1.384 . S
C1330 C1331 1.372 . S
C1331 C1330 1.372 . S
C1331 C1332 1.400 . S
C1331 C1336 1.490 . S
C1332 H1322 0.930 . S
C1332 C1331 1.400 . S
C1332 C1335 1.386 . S
H1333 C1349 0.930 . S
H1334 C1350 0.931 . S
C1335 H1323 0.929 1_565 S
C1335 C1329 1.390 1_565 S
C1335 C1332 1.386 . S
C1336 C1331 1.490 . S
C1336 C1338 1.395 1_655 S
C1336 C1339 1.403 . S
H1337 C1343 0.930 . S
C1338 H1324 0.930 . S
C1338 C1336 1.395 1_455 S
C1338 C1341 1.403 . S
C1339 C1336 1.403 . S
C1339 C1340 1.524 . S
C1339 C1343 1.400 . S
C1340 H1325 0.960 . S
C1340 H1326 0.960 . S
C1340 H1327 0.960 . S
C1340 C1339 1.524 . S
C1341 C1338 1.403 . S
C1341 C1342 1.392 1_455 S
C1341 C1345 1.495 . S
C1342 C1341 1.392 1_655 S
C1342 C1343 1.385 . S
C1342 C1344 1.478 . S
C1343 H1337 0.930 . S
C1343 C1339 1.400 . S
C1343 C1342 1.385 . S
C1344 C1342 1.478 . S
C1344 C1346 1.381 1_655 S
C1344 C1350 1.383 . S
C1345 C1341 1.495 . S
C1345 H1351 0.959 . S
C1345 H1352 0.961 . S
C1345 H1353 0.960 . S
C1346 C1344 1.381 1_455 S
C1346 C1347 1.394 . S
C1346 H1354 0.930 . S
C1347 C1346 1.394 . S
C1347 C1348 1.383 . S
C1347 H1355 0.929 . S
C1348 C1347 1.383 . S
C1348 C1349 1.377 1_455 S
C1349 H1333 0.930 . S
C1349 C1348 1.377 1_655 S
C1349 C1350 1.379 . S
C1350 H1334 0.931 . S
C1350 C1344 1.383 . S
C1350 C1349 1.379 . S
H1351 C1345 0.959 . S
H1352 C1345 0.961 . S
H1353 C1345 0.960 . S
H1354 C1346 0.930 . S
H1355 C1347 0.929 . S
H1356 C1364 0.929 . S
H1357 C1366 0.930 . S
H1358 C1368 0.930 1_545 S
H1359 C1371 0.929 . S
H1360 C1374 0.930 . S
H1361 C1376 0.960 . S
H1362 C1376 0.960 . S
H1363 C1376 0.960 . S
C1364 H1356 0.929 . S
C1364 C1365 1.377 . S
C1364 C1366 1.384 . S
C1365 C1364 1.377 . S
C1365 C1371 1.390 . S
C1366 H1357 0.930 . S
C1366 C1364 1.384 . S
C1366 C1367 1.372 . S
C1367 C1366 1.372 . S
C1367 C1368 1.400 . S
C1367 C1372 1.490 . S
C1368 H1358 0.930 1_565 S
C1368 C1367 1.400 . S
C1368 C1371 1.386 . S
H1369 C1385 0.930 . S
H1370 C1386 0.931 . S
C1371 H1359 0.929 . S
C1371 C1365 1.390 . S
C1371 C1368 1.386 . S
C1372 C1367 1.490 . S
C1372 C1374 1.395 . S
C1372 C1375 1.403 . S
H1373 C1379 0.930 . S
C1374 H1360 0.930 . S
C1374 C1372 1.395 . S
C1374 C1377 1.403 . S
C1375 C1372 1.403 . S
C1375 C1376 1.524 1_565 S
C1375 C1379 1.400 1_565 S
C1376 H1361 0.960 . S
C1376 H1362 0.960 . S
C1376 H1363 0.960 . S
C1376 C1375 1.524 1_545 S
C1377 C1374 1.403 . S
C1377 C1378 1.392 . S
C1377 C1381 1.495 . S
C1378 C1377 1.392 . S
C1378 C1379 1.385 1_565 S
C1378 C1380 1.478 . S
C1379 H1373 0.930 . S
C1379 C1375 1.400 1_545 S
C1379 C1378 1.385 1_545 S
C1380 C1378 1.478 . S
C1380 C1382 1.381 . S
C1380 C1386 1.383 1_565 S
C1381 C1377 1.495 . S
C1381 H1387 0.959 . S
C1381 H1388 0.961 . S
C1381 H1389 0.960 . S
C1382 C1380 1.381 . S
C1382 C1383 1.394 . S
C1382 H1390 0.930 . S
C1383 C1382 1.394 . S
C1383 C1384 1.362 1_565 S
C1383 H1391 0.929 . S
C1384 C1383 1.362 1_545 S
C1384 C1385 1.391 . S
C1385 H1369 0.930 . S
C1385 C1384 1.391 . S
C1385 C1386 1.379 . S
C1386 H1370 0.931 . S
C1386 C1380 1.383 1_545 S
C1386 C1385 1.379 . S
H1387 C1381 0.959 . S
H1388 C1381 0.961 . S
H1389 C1381 0.960 . S
H1390 C1382 0.930 . S
H1391 C1383 0.929 . S
H1392 C1400 0.929 . S
H1393 C1402 0.930 . S
H1394 C1404 0.930 . S
H1395 C1407 0.929 . S
H1396 C1410 0.930 . S
H1397 C1412 0.960 . S
H1398 C1412 0.960 . S
H1399 C1412 0.960 . S
C1400 H1392 0.929 . S
C1400 C1401 1.377 . S
C1400 C1402 1.384 . S
C1401 C1400 1.377 . S
C1401 C1407 1.390 . S
C1402 H1393 0.930 . S
C1402 C1400 1.384 . S
C1402 C1403 1.372 . S
C1403 C1402 1.372 . S
C1403 C1404 1.400 . S
C1403 C1408 1.490 . S
C1404 H1394 0.930 . S
C1404 C1403 1.400 . S
C1404 C1407 1.386 . S
H1405 C1421 0.930 1_565 S
H1406 C1422 0.931 . S
C1407 H1395 0.929 . S
C1407 C1401 1.390 . S
C1407 C1404 1.386 . S
C1408 C1403 1.490 . S
C1408 C1410 1.395 . S
C1408 C1411 1.403 . S
H1409 C1415 0.930 . S
C1410 H1396 0.930 . S
C1410 C1408 1.395 . S
C1410 C1413 1.403 . S
C1411 C1408 1.403 . S
C1411 C1412 1.524 . S
C1411 C1415 1.400 . S
C1412 H1397 0.960 . S
C1412 H1398 0.960 . S
C1412 H1399 0.960 . S
C1412 C1411 1.524 . S
C1413 C1410 1.403 . S
C1413 C1414 1.392 . S
C1413 C1417 1.495 . S
C1414 C1413 1.392 . S
C1414 C1415 1.385 . S
C1414 C1416 1.478 . S
C1415 H1409 0.930 . S
C1415 C1411 1.400 . S
C1415 C1414 1.385 . S
C1416 C1414 1.478 . S
C1416 C1418 1.381 . S
C1416 C1422 1.383 . S
C1417 C1413 1.495 . S
C1417 H1423 0.959 . S
C1417 H1424 0.961 . S
C1417 H1425 0.960 . S
C1418 C1416 1.381 . S
C1418 C1419 1.394 . S
C1418 H1426 0.930 . S
C1419 C1418 1.394 . S
C1419 C1420 1.383 1_545 S
C1419 H1427 0.920 1_545 S
C1420 C1419 1.383 1_565 S
C1420 C1421 1.377 1_565 S
C1421 H1405 0.930 1_545 S
C1421 C1420 1.377 1_545 S
C1421 C1422 1.379 . S
C1422 H1406 0.931 . S
C1422 C1416 1.383 . S
C1422 C1421 1.379 . S
H1423 C1417 0.959 . S
H1424 C1417 0.961 . S
H1425 C1417 0.960 . S
H1426 C1418 0.930 . S
H1427 C1419 0.920 1_565 S
H1428 C1436 0.929 . S
H1429 C1438 0.930 . S
H1430 C1440 0.930 . S
H1431 C1443 0.929 . S
H1432 C1446 0.930 . S
H1433 C1448 0.960 . S
H1434 C1448 0.960 . S
H1435 C1448 0.960 . S
C1436 H1428 0.929 . S
C1436 C1437 1.377 . S
C1436 C1438 1.384 . S
C1437 C1436 1.377 . S
C1437 C1443 1.390 . S
C1438 H1429 0.930 . S
C1438 C1436 1.384 . S
C1438 C1439 1.372 . S
C1439 C1438 1.372 . S
C1439 C1440 1.400 . S
C1439 C1444 1.490 . S
C1440 H1430 0.930 . S
C1440 C1439 1.400 . S
C1440 C1443 1.386 . S
H1441 C1457 0.930 . S
H1442 C1458 0.931 . S
C1443 H1431 0.929 . S
C1443 C1437 1.390 . S
C1443 C1440 1.386 . S
C1444 C1439 1.490 . S
C1444 C1446 1.395 . S
C1444 C1447 1.403 . S
H1445 C1451 0.930 . S
C1446 H1432 0.930 . S
C1446 C1444 1.395 . S
C1446 C1449 1.403 . S
C1447 C1444 1.403 . S
C1447 C1448 1.524 . S
C1447 C1451 1.400 . S
C1448 H1433 0.960 . S
C1448 H1434 0.960 . S
C1448 H1435 0.960 . S
C1448 C1447 1.524 . S
C1449 C1446 1.403 . S
C1449 C1450 1.392 . S
C1449 C1453 1.495 . S
C1450 C1449 1.392 . S
C1450 C1451 1.385 . S
C1450 C1452 1.478 . S
C1451 H1445 0.930 . S
C1451 C1447 1.400 . S
C1451 C1450 1.385 . S
C1452 C1450 1.478 . S
C1452 C1454 1.381 . S
C1452 C1458 1.383 . S
C1453 C1449 1.495 . S
C1453 H1459 0.959 . S
C1453 H1460 0.961 . S
C1453 H1461 0.960 . S
C1454 C1452 1.381 . S
C1454 C1455 1.394 . S
C1454 H1462 0.930 . S
C1455 C1454 1.394 . S
C1455 C1456 1.383 . S
C1455 H1463 0.929 . S
C1456 C1455 1.383 . S
C1456 C1457 1.377 . S
C1457 H1441 0.930 . S
C1457 C1456 1.377 . S
C1457 C1458 1.379 . S
C1458 H1442 0.931 . S
C1458 C1452 1.383 . S
C1458 C1457 1.379 . S
H1459 C1453 0.959 . S
H1460 C1453 0.961 . S
H1461 C1453 0.960 . S
H1462 C1454 0.930 . S
H1463 C1455 0.929 . S
H1464 C1472 0.929 . S
H1465 C1474 0.930 . S
H1466 C1476 0.930 . S
H1467 C1479 0.929 . S
H1468 C1482 0.930 . S
H1469 C1484 0.960 . S
H1470 C1484 0.960 . S
H1471 C1484 0.960 . S
C1472 H1464 0.929 . S
C1472 C1473 1.377 1_455 S
C1472 C1474 1.384 . S
C1473 C1472 1.377 1_655 S
C1473 C1479 1.390 . S
C1474 H1465 0.930 . S
C1474 C1472 1.384 . S
C1474 C1475 1.372 . S
C1475 C1474 1.372 . S
C1475 C1476 1.400 1_455 S
C1475 C1480 1.490 . S
C1476 H1466 0.930 . S
C1476 C1475 1.400 1_655 S
C1476 C1479 1.386 . S
H1477 C1493 0.930 . S
H1478 C1494 0.931 1_655 S
C1479 H1467 0.929 . S
C1479 C1473 1.390 . S
C1479 C1476 1.386 . S
C1480 C1475 1.490 . S
C1480 C1482 1.395 . S
C1480 C1483 1.403 . S
H1481 C1487 0.930 1_655 S
C1482 H1468 0.930 . S
C1482 C1480 1.395 . S
C1482 C1485 1.403 . S
C1483 C1480 1.403 . S
C1483 C1484 1.524 1_455 S
C1483 C1487 1.400 . S
C1484 H1469 0.960 . S
C1484 H1470 0.960 . S
C1484 H1471 0.960 . S
C1484 C1483 1.524 1_655 S
C1485 C1482 1.403 . S
C1485 C1486 1.392 . S
C1485 C1489 1.495 . S
C1486 C1485 1.392 . S
C1486 C1487 1.385 . S
C1486 C1488 1.478 . S
C1487 H1481 0.930 1_455 S
C1487 C1483 1.400 . S
C1487 C1486 1.385 . S
C1488 C1486 1.478 . S
C1488 C1490 1.381 . S
C1488 C1494 1.383 . S
C1489 C1485 1.495 . S
C1489 H1495 0.959 . S
C1489 H1496 0.961 . S
C1489 H1497 0.960 . S
C1490 C1488 1.381 . S
C1490 C1491 1.394 . S
C1490 H1498 0.930 . S
C1491 C1490 1.394 . S
C1491 C1492 1.383 . S
C1491 H1499 0.929 . S
C1492 C1491 1.383 . S
C1492 C1493 1.377 . S
C1493 H1477 0.930 . S
C1493 C1492 1.377 . S
C1493 C1494 1.379 . S
C1494 H1478 0.931 1_455 S
C1494 C1488 1.383 . S
C1494 C1493 1.379 . S
H1495 C1489 0.959 . S
H1496 C1489 0.961 . S
H1497 C1489 0.960 . S
H1498 C1490 0.930 . S
H1499 C1491 0.929 . S
H1500 C1508 0.929 . S
H1501 C1510 0.930 . S
H1502 C1512 0.930 . S
H1503 C1515 0.929 . S
H1504 C1518 0.930 . S
H1505 C1520 0.960 . S
H1506 C1520 0.960 . S
H1507 C1520 0.960 . S
C1508 H1500 0.929 . S
C1508 C1509 1.377 1_545 S
C1508 C1510 1.384 . S
C1509 C1508 1.377 1_565 S
C1509 C1515 1.390 . S
C1510 H1501 0.930 . S
C1510 C1508 1.384 . S
C1510 C1511 1.372 . S
C1511 C1510 1.372 . S
C1511 C1512 1.400 1_545 S
C1511 C1516 1.490 . S
C1512 H1502 0.930 . S
C1512 C1511 1.400 1_565 S
C1512 C1515 1.386 . S
H1513 C1529 0.930 1_655 S
H1514 C1530 0.931 . S
C1515 H1503 0.929 . S
C1515 C1509 1.390 . S
C1515 C1512 1.386 . S
C1516 C1511 1.490 . S
C1516 C1518 1.395 . S
C1516 C1519 1.403 1_545 S
H1517 C1523 0.930 1_565 S
C1518 H1504 0.930 . S
C1518 C1516 1.395 . S
C1518 C1521 1.403 . S
C1519 C1516 1.403 1_565 S
C1519 C1520 1.524 . S
C1519 C1523 1.400 1_565 S
C1520 H1505 0.960 . S
C1520 H1506 0.960 . S
C1520 H1507 0.960 . S
C1520 C1519 1.524 . S
C1521 C1518 1.403 . S
C1521 C1522 1.392 . S
C1521 C1525 1.495 . S
C1522 C1521 1.392 . S
C1522 C1523 1.385 . S
C1522 C1524 1.478 . S
C1523 H1517 0.930 1_545 S
C1523 C1519 1.400 1_545 S
C1523 C1522 1.385 . S
C1524 C1522 1.478 . S
C1524 C1526 1.381 . S
C1524 C1530 1.383 . S
C1525 C1521 1.495 . S
C1525 H1531 0.959 . S
C1525 H1532 0.961 . S
C1525 H1533 0.960 . S
C1526 C1524 1.381 . S
C1526 C1527 1.394 . S
C1526 H1534 0.930 . S
C1527 C1526 1.394 . S
C1527 C1528 1.383 1_455 S
C1527 H1535 0.929 1_455 S
C1528 C1527 1.383 1_655 S
C1528 C1529 1.377 1_655 S
C1529 H1513 0.930 1_455 S
C1529 C1528 1.377 1_455 S
C1529 C1530 1.379 . S
C1530 H1514 0.931 . S
C1530 C1524 1.383 . S
C1530 C1529 1.379 . S
H1531 C1525 0.959 . S
H1532 C1525 0.961 . S
H1533 C1525 0.960 . S
H1534 C1526 0.930 . S
H1535 C1527 0.929 1_655 S
H1536 C1544 0.929 . S
H1537 C1546 0.930 . S
H1538 C1548 0.930 . S
H1539 C1551 0.929 . S
H1540 C1554 0.930 . S
H1541 C1556 0.960 . S
H1542 C1556 0.960 . S
H1543 C1556 0.960 . S
C1544 H1536 0.929 . S
C1544 C1545 1.377 . S
C1544 C1546 1.384 . S
C1545 C1544 1.377 . S
C1545 C1551 1.390 . S
C1546 H1537 0.930 . S
C1546 C1544 1.384 . S
C1546 C1547 1.372 . S
C1547 C1546 1.372 . S
C1547 C1548 1.400 . S
C1547 C1552 1.490 . S
C1548 H1538 0.930 . S
C1548 C1547 1.400 . S
C1548 C1551 1.386 . S
H1549 C1565 0.930 . S
H1550 C1566 0.931 . S
C1551 H1539 0.929 . S
C1551 C1545 1.390 . S
C1551 C1548 1.386 . S
C1552 C1547 1.490 . S
C1552 C1554 1.395 . S
C1552 C1555 1.403 . S
H1553 C1559 0.930 . S
C1554 H1540 0.930 . S
C1554 C1552 1.395 . S
C1554 C1557 1.403 . S
C1555 C1552 1.403 . S
C1555 C1556 1.524 . S
C1555 C1559 1.400 . S
C1556 H1541 0.960 . S
C1556 H1542 0.960 . S
C1556 H1543 0.960 . S
C1556 C1555 1.524 . S
C1557 C1554 1.403 . S
C1557 C1558 1.392 . S
C1557 C1561 1.495 . S
C1558 C1557 1.392 . S
C1558 C1559 1.385 . S
C1558 C1560 1.478 . S
C1559 H1553 0.930 . S
C1559 C1555 1.400 . S
C1559 C1558 1.385 . S
C1560 C1558 1.478 . S
C1560 C1562 1.381 . S
C1560 C1566 1.383 . S
C1561 C1557 1.495 . S
C1561 H1567 0.959 . S
C1561 H1568 0.961 . S
C1561 H1569 0.960 . S
C1562 C1560 1.381 . S
C1562 C1563 1.394 . S
C1562 H1570 0.930 . S
C1563 C1562 1.394 . S
C1563 C1564 1.383 . S
C1563 H1571 0.929 . S
C1564 C1563 1.383 . S
C1564 C1565 1.377 . S
C1565 H1549 0.930 . S
C1565 C1564 1.377 . S
C1565 C1566 1.379 . S
C1566 H1550 0.931 . S
C1566 C1560 1.383 . S
C1566 C1565 1.379 . S
H1567 C1561 0.959 . S
H1568 C1561 0.961 . S
H1569 C1561 0.960 . S
H1570 C1562 0.930 . S
H1571 C1563 0.929 . S
H1572 C1580 0.929 . S
H1573 C1582 0.930 . S
H1574 C1584 0.930 . S
H1575 C1587 0.929 . S
H1576 C1590 0.930 . S
H1577 C1592 0.960 . S
H1578 C1592 0.960 . S
H1579 C1592 0.960 . S
C1580 H1572 0.929 . S
C1580 C1581 1.377 . S
C1580 C1582 1.384 . S
C1581 C1580 1.377 . S
C1581 C1587 1.390 . S
C1582 H1573 0.930 . S
C1582 C1580 1.384 . S
C1582 C1583 1.372 . S
C1583 C1582 1.372 . S
C1583 C1584 1.400 . S
C1583 C1588 1.490 . S
C1584 H1574 0.930 . S
C1584 C1583 1.400 . S
C1584 C1587 1.386 . S
H1585 C1601 0.930 1_655 S
H1586 C1602 0.931 . S
C1587 H1575 0.929 . S
C1587 C1581 1.390 . S
C1587 C1584 1.386 . S
C1588 C1583 1.490 . S
C1588 C1590 1.395 . S
C1588 C1591 1.403 . S
H1589 C1595 0.930 . S
C1590 H1576 0.930 . S
C1590 C1588 1.395 . S
C1590 C1593 1.403 . S
C1591 C1588 1.403 . S
C1591 C1592 1.524 . S
C1591 C1595 1.400 . S
C1592 H1577 0.960 . S
C1592 H1578 0.960 . S
C1592 H1579 0.960 . S
C1592 C1591 1.524 . S
C1593 C1590 1.403 . S
C1593 C1594 1.392 . S
C1593 C1597 1.495 . S
C1594 C1593 1.392 . S
C1594 C1595 1.385 . S
C1594 C1596 1.478 . S
C1595 H1589 0.930 . S
C1595 C1591 1.400 . S
C1595 C1594 1.385 . S
C1596 C1594 1.478 . S
C1596 C1598 1.381 . S
C1596 C1602 1.383 . S
C1597 C1593 1.495 . S
C1597 H1603 0.959 . S
C1597 H1604 0.961 . S
C1597 H1605 0.960 . S
C1598 C1596 1.381 . S
C1598 C1599 1.394 . S
C1598 H1606 0.930 . S
C1599 C1598 1.394 . S
C1599 C1600 1.383 1_455 S
C1599 H1607 0.929 1_455 S
C1600 C1599 1.383 1_655 S
C1600 C1601 1.377 1_655 S
C1601 H1585 0.930 1_455 S
C1601 C1600 1.377 1_455 S
C1601 C1602 1.379 . S
C1602 H1586 0.931 . S
C1602 C1596 1.383 . S
C1602 C1601 1.379 . S
H1603 C1597 0.959 . S
H1604 C1597 0.961 . S
H1605 C1597 0.960 . S
H1606 C1598 0.930 . S
H1607 C1599 0.929 1_655 S
H1608 C1616 0.929 . S
H1609 C1618 0.930 . S
H1610 C1620 0.930 . S
H1611 C1623 0.929 . S
H1612 C1626 0.930 . S
H1613 C1628 0.960 . S
H1614 C1628 0.960 . S
H1615 C1628 0.960 . S
C1616 H1608 0.929 . S
C1616 C1617 1.377 1_455 S
C1616 C1618 1.384 . S
C1617 C1616 1.377 1_655 S
C1617 C1623 1.390 . S
C1618 H1609 0.930 . S
C1618 C1616 1.384 . S
C1618 C1619 1.372 . S
C1619 C1618 1.372 . S
C1619 C1620 1.400 1_455 S
C1619 C1624 1.490 . S
C1620 H1610 0.930 . S
C1620 C1619 1.400 1_655 S
C1620 C1623 1.386 . S
H1621 C1637 0.930 1_565 S
H1622 C1638 0.931 . S
C1623 H1611 0.929 . S
C1623 C1617 1.390 . S
C1623 C1620 1.386 . S
C1624 C1619 1.490 . S
C1624 C1626 1.395 . S
C1624 C1627 1.403 1_455 S
H1625 C1631 0.930 1_655 S
C1626 H1612 0.930 . S
C1626 C1624 1.395 . S
C1626 C1629 1.403 . S
C1627 C1624 1.403 1_655 S
C1627 C1628 1.524 . S
C1627 C1631 1.400 1_655 S
C1628 H1613 0.960 . S
C1628 H1614 0.960 . S
C1628 H1615 0.960 . S
C1628 C1627 1.524 . S
C1629 C1626 1.403 . S
C1629 C1630 1.392 . S
C1629 C1633 1.495 . S
C1630 C1629 1.392 . S
C1630 C1631 1.385 . S
C1630 C1632 1.478 . S
C1631 H1625 0.930 1_455 S
C1631 C1627 1.400 1_455 S
C1631 C1630 1.385 . S
C1632 C1630 1.478 . S
C1632 C1634 1.381 . S
C1632 C1638 1.383 . S
C1633 C1629 1.495 . S
C1633 H1639 0.959 . S
C1633 H1640 0.961 . S
C1633 H1641 0.960 . S
C1634 C1632 1.381 . S
C1634 C1635 1.394 . S
C1634 H1642 0.930 . S
C1635 C1634 1.394 . S
C1635 C1636 1.383 1_545 S
C1635 H1643 0.929 1_545 S
C1636 C1635 1.383 1_565 S
C1636 C1637 1.377 1_565 S
C1637 H1621 0.930 1_545 S
C1637 C1636 1.377 1_545 S
C1637 C1638 1.379 . S
C1638 H1622 0.931 . S
C1638 C1632 1.383 . S
C1638 C1637 1.379 . S
H1639 C1633 0.959 . S
H1640 C1633 0.961 . S
H1641 C1633 0.960 . S
H1642 C1634 0.930 . S
H1643 C1635 0.929 1_565 S
H1644 C1652 0.929 . S
H1645 C1654 0.930 . S
H1646 C1656 0.930 . S
H1647 C1659 0.929 . S
H1648 C1662 0.930 . S
H1649 C1664 0.960 . S
H1650 C1664 0.960 . S
H1651 C1664 0.960 . S
C1652 H1644 0.929 . S
C1652 C1653 1.377 . S
C1652 C1654 1.384 . S
C1653 C1652 1.377 . S
C1653 C1659 1.390 . S
C1654 H1645 0.930 . S
C1654 C1652 1.384 . S
C1654 C1655 1.372 . S
C1655 C1654 1.372 . S
C1655 C1656 1.400 . S
C1655 C1660 1.490 . S
C1656 H1646 0.930 . S
C1656 C1655 1.400 . S
C1656 C1659 1.386 . S
H1657 C1673 0.930 . S
H1658 C1674 0.931 . S
C1659 H1647 0.929 . S
C1659 C1653 1.390 . S
C1659 C1656 1.386 . S
C1660 C1655 1.490 . S
C1660 C1662 1.395 . S
C1660 C1663 1.403 . S
H1661 C1667 0.930 . S
C1662 H1648 0.930 . S
C1662 C1660 1.395 . S
C1662 C1665 1.403 . S
C1663 C1660 1.403 . S
C1663 C1664 1.524 . S
C1663 C1667 1.400 . S
C1664 H1649 0.960 . S
C1664 H1650 0.960 . S
C1664 H1651 0.960 . S
C1664 C1663 1.524 . S
C1665 C1662 1.403 . S
C1665 C1666 1.392 . S
C1665 C1669 1.495 1_545 S
C1666 C1665 1.392 . S
C1666 C1667 1.385 . S
C1666 C1668 1.478 . S
C1667 H1661 0.930 . S
C1667 C1663 1.400 . S
C1667 C1666 1.385 . S
C1668 C1666 1.478 . S
C1668 C1670 1.381 . S
C1668 C1674 1.383 1_545 S
C1669 C1665 1.495 1_565 S
C1669 H1675 0.959 . S
C1669 H1676 0.961 . S
C1669 H1677 0.960 . S
C1670 C1668 1.381 . S
C1670 C1671 1.394 . S
C1670 H1678 0.930 . S
C1671 C1670 1.394 . S
C1671 C1672 1.383 1_545 S
C1671 H1679 0.929 . S
C1672 C1671 1.383 1_565 S
C1672 C1673 1.377 . S
C1673 H1657 0.930 . S
C1673 C1672 1.377 . S
C1673 C1674 1.379 . S
C1674 H1658 0.931 . S
C1674 C1668 1.383 1_565 S
C1674 C1673 1.379 . S
H1675 C1669 0.959 . S
H1676 C1669 0.961 . S
H1677 C1669 0.960 . S
H1678 C1670 0.930 . S
H1679 C1671 0.929 . S
H1680 C1688 0.929 . S
H1681 C1690 0.930 . S
H1682 C1692 0.930 . S
H1683 C1695 0.929 . S
H1684 C1698 0.930 . S
H1685 C1700 0.960 . S
H1686 C1700 0.960 . S
H1687 C1700 0.960 . S
C1688 H1680 0.929 . S
C1688 C1689 1.377 . S
C1688 C1690 1.384 . S
C1689 C1688 1.377 . S
C1689 C1695 1.390 . S
C1690 H1681 0.930 . S
C1690 C1688 1.384 . S
C1690 C1691 1.372 . S
C1691 C1690 1.372 . S
C1691 C1692 1.400 . S
C1691 C1696 1.490 . S
C1692 H1682 0.930 . S
C1692 C1691 1.400 . S
C1692 C1695 1.386 . S
H1693 C1709 0.930 . S
H1694 C1710 0.931 . S
C1695 H1683 0.929 . S
C1695 C1689 1.390 . S
C1695 C1692 1.386 . S
C1696 C1691 1.490 . S
C1696 C1698 1.395 . S
C1696 C1699 1.403 . S
H1697 C1703 0.930 . S
C1698 H1684 0.930 . S
C1698 C1696 1.395 . S
C1698 C1701 1.403 1_566 S
C1699 C1696 1.403 . S
C1699 C1700 1.524 . S
C1699 C1703 1.400 1_566 S
C1700 H1685 0.960 . S
C1700 H1686 0.960 . S
C1700 H1687 0.960 . S
C1700 C1699 1.524 . S
C1701 C1698 1.403 1_544 S
C1701 C1702 1.392 . S
C1701 C1705 1.495 . S
C1702 C1701 1.392 . S
C1702 C1703 1.385 . S
C1702 C1704 1.478 . S
C1703 H1697 0.930 . S
C1703 C1699 1.400 1_544 S
C1703 C1702 1.385 . S
C1704 C1702 1.478 . S
C1704 C1706 1.381 . S
C1704 C1710 1.383 . S
C1705 C1701 1.495 . S
C1705 H1711 0.959 . S
C1705 H1712 0.961 . S
C1705 H1713 0.960 . S
C1706 C1704 1.381 . S
C1706 C1707 1.394 . S
C1706 H1714 0.930 . S
C1707 C1706 1.394 . S
C1707 C1708 1.383 . S
C1707 H1715 0.929 . S
C1708 C1707 1.383 . S
C1708 C1709 1.377 . S
C1709 H1693 0.930 . S
C1709 C1708 1.377 . S
C1709 C1710 1.379 . S
C1710 H1694 0.931 . S
C1710 C1704 1.383 . S
C1710 C1709 1.379 . S
H1711 C1705 0.959 . S
H1712 C1705 0.961 . S
H1713 C1705 0.960 . S
H1714 C1706 0.930 . S
H1715 C1707 0.929 . S
H1716 C1724 0.929 . S
H1717 C1726 0.930 . S
H1718 C1728 0.930 . S
H1719 C1731 0.929 . S
H1720 C1734 0.930 . S
H1721 C1736 0.960 . S
H1722 C1736 0.960 . S
H1723 C1736 0.960 . S
C1724 H1716 0.929 . S
C1724 C1725 1.377 . S
C1724 C1726 1.384 . S
C1725 C1724 1.377 . S
C1725 C1731 1.390 . S
C1726 H1717 0.930 . S
C1726 C1724 1.384 . S
C1726 C1727 1.372 . S
C1727 C1726 1.372 . S
C1727 C1728 1.400 . S
C1727 C1732 1.490 . S
C1728 H1718 0.930 . S
C1728 C1727 1.400 . S
C1728 C1731 1.386 . S
H1729 C1745 0.930 . S
H1730 C1746 0.931 . S
C1731 H1719 0.929 . S
C1731 C1725 1.390 . S
C1731 C1728 1.386 . S
C1732 C1727 1.490 . S
C1732 C1734 1.395 . S
C1732 C1735 1.403 . S
H1733 C1739 0.930 . S
C1734 H1720 0.930 . S
C1734 C1732 1.395 . S
C1734 C1737 1.403 . S
C1735 C1732 1.403 . S
C1735 C1736 1.524 . S
C1735 C1739 1.400 . S
C1736 H1721 0.960 . S
C1736 H1722 0.960 . S
C1736 H1723 0.960 . S
C1736 C1735 1.524 . S
C1737 C1734 1.403 . S
C1737 C1738 1.392 . S
C1737 C1741 1.495 . S
C1738 C1737 1.392 . S
C1738 C1739 1.385 . S
C1738 C1740 1.478 . S
C1739 H1733 0.930 . S
C1739 C1735 1.400 . S
C1739 C1738 1.385 . S
C1740 C1738 1.478 . S
C1740 C1742 1.381 . S
C1740 C1746 1.383 . S
C1741 C1737 1.495 . S
C1741 H1747 0.959 . S
C1741 H1748 0.961 . S
C1741 H1749 0.960 . S
C1742 C1740 1.381 . S
C1742 C1743 1.394 . S
C1742 H1750 0.930 . S
C1743 C1742 1.394 . S
C1743 C1744 1.383 . S
C1743 H1751 0.929 . S
C1744 C1743 1.383 . S
C1744 C1745 1.377 . S
C1745 H1729 0.930 . S
C1745 C1744 1.377 . S
C1745 C1746 1.379 . S
C1746 H1730 0.931 . S
C1746 C1740 1.383 . S
C1746 C1745 1.379 . S
H1747 C1741 0.959 . S
H1748 C1741 0.961 . S
H1749 C1741 0.960 . S
H1750 C1742 0.930 . S
H1751 C1743 0.929 . S
H1752 C1760 0.929 . S
H1753 C1762 0.930 . S
H1754 C1764 0.930 . S
H1755 C1767 0.929 . S
H1756 C1770 0.930 . S
H1757 C1772 0.960 . S
H1758 C1772 0.960 . S
H1759 C1772 0.960 1_554 S
C1760 H1752 0.929 . S
C1760 C1761 1.377 1_655 S
C1760 C1762 1.384 . S
C1761 C1760 1.377 1_455 S
C1761 C1767 1.390 . S
C1762 H1753 0.930 . S
C1762 C1760 1.384 . S
C1762 C1763 1.372 1_655 S
C1763 C1762 1.372 1_455 S
C1763 C1764 1.400 . S
C1763 C1768 1.490 . S
C1764 H1754 0.930 . S
C1764 C1763 1.400 . S
C1764 C1767 1.386 . S
H1765 C1781 0.930 . S
H1766 C1782 0.931 . S
C1767 H1755 0.929 . S
C1767 C1761 1.390 . S
C1767 C1764 1.386 . S
C1768 C1763 1.490 . S
C1768 C1770 1.395 1_455 S
C1768 C1771 1.381 1_554 S
H1769 C1775 0.930 . S
C1770 H1756 0.930 . S
C1770 C1768 1.395 1_655 S
C1770 C1773 1.403 . S
C1771 C1768 1.381 1_556 S
C1771 C1772 1.527 . S
C1771 C1775 1.420 . S
C1772 H1757 0.960 . S
C1772 H1758 0.960 . S
C1772 H1759 0.960 1_556 S
C1772 C1771 1.527 . S
C1773 C1770 1.403 . S
C1773 C1774 1.392 1_554 S
C1773 C1777 1.495 . S
C1774 C1773 1.392 1_556 S
C1774 C1775 1.385 1_655 S
C1774 C1776 1.478 . S
C1775 H1769 0.930 . S
C1775 C1771 1.420 . S
C1775 C1774 1.385 1_455 S
C1776 C1774 1.478 . S
C1776 C1778 1.381 . S
C1776 C1782 1.383 1_655 S
C1777 C1773 1.495 . S
C1777 H1783 0.959 . S
C1777 H1784 0.961 . S
C1777 H1785 0.960 1_554 S
C1778 C1776 1.381 . S
C1778 C1779 1.394 . S
C1778 H1786 0.930 . S
C1779 C1778 1.394 . S
C1779 C1780 1.383 . S
C1779 H1787 0.929 . S
C1780 C1779 1.383 . S
C1780 C1781 1.377 1_655 S
C1781 H1765 0.930 . S
C1781 C1780 1.377 1_455 S
C1781 C1782 1.379 . S
C1782 H1766 0.931 . S
C1782 C1776 1.383 1_455 S
C1782 C1781 1.379 . S
H1783 C1777 0.959 . S
H1784 C1777 0.961 . S
H1785 C1777 0.960 1_556 S
H1786 C1778 0.930 . S
H1787 C1779 0.929 . S
H1788 C1796 0.929 . S
H1789 C1798 0.930 . S
H1790 C1800 0.930 . S
H1791 C1803 0.929 . S
H1792 C1806 0.930 . S
H1793 C1808 0.960 . S
H1794 C1808 0.960 1_565 S
H1795 C1808 0.960 . S
C1796 H1788 0.929 . S
C1796 C1797 1.377 . S
C1796 C1798 1.384 . S
C1797 C1796 1.377 . S
C1797 C1803 1.390 1_565 S
C1798 H1789 0.930 . S
C1798 C1796 1.384 . S
C1798 C1799 1.372 . S
C1799 C1798 1.372 . S
C1799 C1800 1.400 1_565 S
C1799 C1804 1.490 . S
C1800 H1790 0.930 . S
C1800 C1799 1.400 1_545 S
C1800 C1803 1.386 . S
H1801 C1817 0.930 . S
H1802 C1818 0.931 . S
C1803 H1791 0.929 . S
C1803 C1797 1.390 1_545 S
C1803 C1800 1.386 . S
C1804 C1799 1.490 . S
C1804 C1806 1.395 1_655 S
C1804 C1807 1.403 1_565 S
H1805 C1811 0.930 . S
C1806 H1792 0.930 . S
C1806 C1804 1.395 1_455 S
C1806 C1809 1.403 . S
C1807 C1804 1.403 1_545 S
C1807 C1808 1.524 . S
C1807 C1811 1.400 . S
C1808 H1793 0.960 . S
C1808 H1794 0.960 1_545 S
C1808 H1795 0.960 . S
C1808 C1807 1.524 . S
C1809 C1806 1.403 . S
C1809 C1810 1.392 1_565 S
C1809 C1813 1.495 . S
C1810 C1809 1.392 1_545 S
C1810 C1811 1.385 1_455 S
C1810 C1812 1.478 . S
C1811 H1805 0.930 . S
C1811 C1807 1.400 . S
C1811 C1810 1.385 1_655 S
C1812 C1810 1.478 . S
C1812 C1814 1.381 1_545 S
C1812 C1818 1.383 . S
C1813 C1809 1.495 . S
C1813 H1819 0.959 . S
C1813 H1820 0.961 1_565 S
C1813 H1821 0.960 . S
C1814 C1812 1.381 1_565 S
C1814 C1815 1.394 . S
C1814 H1822 0.930 . S
C1815 C1814 1.394 . S
C1815 C1816 1.383 1_565 S
C1815 H1823 0.929 . S
C1816 C1815 1.383 1_545 S
C1816 C1817 1.377 . S
C1817 H1801 0.930 . S
C1817 C1816 1.377 . S
C1817 C1818 1.379 . S
C1818 H1802 0.931 . S
C1818 C1812 1.383 . S
C1818 C1817 1.379 . S
H1819 C1813 0.959 . S
H1820 C1813 0.961 1_545 S
H1821 C1813 0.960 . S
H1822 C1814 0.930 . S
H1823 C1815 0.929 . S
H1824 C1832 0.929 . S
H1825 C1834 0.930 . S
H1826 C1836 0.930 . S
H1827 C1839 0.929 . S
H1828 C1842 0.930 . S
H1829 C1844 0.960 . S
H1830 C1844 0.960 . S
H1831 C1844 0.960 . S
C1832 H1824 0.929 . S
C1832 C1833 1.377 . S
C1832 C1834 1.384 . S
C1833 C1832 1.377 . S
C1833 C1839 1.390 . S
C1834 H1825 0.930 . S
C1834 C1832 1.384 . S
C1834 C1835 1.372 . S
C1835 C1834 1.372 . S
C1835 C1836 1.400 . S
C1835 C1840 1.490 . S
C1836 H1826 0.930 . S
C1836 C1835 1.400 . S
C1836 C1839 1.386 . S
H1837 C1853 0.930 . S
H1838 C1854 0.931 . S
C1839 H1827 0.929 . S
C1839 C1833 1.390 . S
C1839 C1836 1.386 . S
C1840 C1835 1.490 . S
C1840 C1842 1.395 1_556 S
C1840 C1843 1.403 . S
H1841 C1847 0.930 . S
C1842 H1828 0.930 . S
C1842 C1840 1.395 1_554 S
C1842 C1845 1.403 . S
C1843 C1840 1.403 . S
C1843 C1844 1.524 . S
C1843 C1847 1.369 1_556 S
C1844 H1829 0.960 . S
C1844 H1830 0.960 . S
C1844 H1831 0.960 . S
C1844 C1843 1.524 . S
C1845 C1842 1.403 . S
C1845 C1846 1.392 . S
C1845 C1849 1.495 . S
C1846 C1845 1.392 . S
C1846 C1847 1.417 . S
C1846 C1848 1.478 . S
C1847 H1841 0.930 . S
C1847 C1843 1.369 1_554 S
C1847 C1846 1.417 . S
C1848 C1846 1.478 . S
C1848 C1850 1.381 . S
C1848 C1854 1.383 . S
C1849 C1845 1.495 . S
C1849 H1855 0.959 . S
C1849 H1856 0.961 . S
C1849 H1857 0.960 . S
C1850 C1848 1.381 . S
C1850 C1851 1.394 . S
C1850 H1858 0.930 . S
C1851 C1850 1.394 . S
C1851 C1852 1.383 . S
C1851 H1859 0.929 . S
C1852 C1851 1.383 . S
C1852 C1853 1.377 . S
C1853 H1837 0.930 . S
C1853 C1852 1.377 . S
C1853 C1854 1.379 . S
C1854 H1838 0.931 . S
C1854 C1848 1.383 . S
C1854 C1853 1.379 . S
H1855 C1849 0.959 . S
H1856 C1849 0.961 . S
H1857 C1849 0.960 . S
H1858 C1850 0.930 . S
H1859 C1851 0.929 . S
H1860 C1868 0.929 . S
H1861 C1870 0.930 . S
H1862 C1872 0.930 . S
H1863 C1875 0.929 . S
H1864 C1878 0.930 . S
H1865 C1880 0.960 . S
H1866 C1880 0.960 . S
H1867 C1880 0.960 . S
C1868 H1860 0.929 . S
C1868 C1869 1.377 . S
C1868 C1870 1.384 . S
C1869 C1868 1.377 . S
C1869 C1875 1.390 . S
C1870 H1861 0.930 . S
C1870 C1868 1.384 . S
C1870 C1871 1.372 . S
C1871 C1870 1.372 . S
C1871 C1872 1.400 . S
C1871 C1876 1.490 . S
C1872 H1862 0.930 . S
C1872 C1871 1.400 . S
C1872 C1875 1.386 . S
H1873 C1889 0.930 . S
H1874 C1890 0.931 . S
C1875 H1863 0.929 . S
C1875 C1869 1.390 . S
C1875 C1872 1.386 . S
C1876 C1871 1.490 . S
C1876 C1878 1.395 . S
C1876 C1879 1.403 1_455 S
H1877 C1883 0.930 . S
C1878 H1864 0.930 . S
C1878 C1876 1.395 . S
C1878 C1881 1.403 . S
C1879 C1876 1.403 1_655 S
C1879 C1880 1.524 . S
C1879 C1883 1.400 . S
C1880 H1865 0.960 . S
C1880 H1866 0.960 . S
C1880 H1867 0.960 . S
C1880 C1879 1.524 . S
C1881 C1878 1.403 . S
C1881 C1882 1.392 1_455 S
C1881 C1885 1.495 . S
C1882 C1881 1.392 1_655 S
C1882 C1883 1.385 . S
C1882 C1884 1.478 . S
C1883 H1877 0.930 . S
C1883 C1879 1.400 . S
C1883 C1882 1.385 . S
C1884 C1882 1.478 . S
C1884 C1886 1.381 . S
C1884 C1890 1.383 . S
C1885 C1881 1.495 . S
C1885 H1891 0.959 . S
C1885 H1892 0.961 . S
C1885 H1893 0.960 . S
C1886 C1884 1.381 . S
C1886 C1887 1.394 . S
C1886 H1894 0.930 . S
C1887 C1886 1.394 . S
C1887 C1888 1.383 . S
C1887 H1895 0.929 . S
C1888 C1887 1.383 . S
C1888 C1889 1.377 . S
C1889 H1873 0.930 . S
C1889 C1888 1.377 . S
C1889 C1890 1.379 . S
C1890 H1874 0.931 . S
C1890 C1884 1.383 . S
C1890 C1889 1.379 . S
H1891 C1885 0.959 . S
H1892 C1885 0.961 . S
H1893 C1885 0.960 . S
H1894 C1886 0.930 . S
H1895 C1887 0.929 . S
H1896 C1904 0.929 . S
H1897 C1906 0.923 1_455 S
H1898 C1908 0.930 . S
H1899 C1911 0.929 . S
H1900 C1914 0.929 . S
H1901 C1916 0.960 . S
H1902 C1916 0.960 1_565 S
H1903 C1916 0.960 . S
C1904 H1896 0.929 . S
C1904 C1905 1.377 . S
C1904 C1906 1.384 . S
C1905 C1904 1.377 . S
C1905 C1911 1.390 . S
C1906 H1897 0.923 1_655 S
C1906 C1904 1.384 . S
C1906 C1907 1.372 . S
C1907 C1906 1.372 . S
C1907 C1908 1.400 . S
C1907 C1912 1.490 . S
C1908 H1898 0.930 . S
C1908 C1907 1.400 . S
C1908 C1911 1.386 . S
H1909 C1925 0.930 1_655 S
H1910 C1926 0.931 . S
C1911 H1899 0.929 . S
C1911 C1905 1.390 . S
C1911 C1908 1.386 . S
C1912 C1907 1.490 . S
C1912 C1914 1.350 1_554 S
C1912 C1915 1.403 1_665 S
H1913 C1919 0.930 . S
C1914 H1900 0.929 . S
C1914 C1912 1.350 1_556 S
C1914 C1917 1.451 . S
C1915 C1912 1.403 1_445 S
C1915 C1916 1.524 . S
C1915 C1919 1.400 1_554 S
C1916 H1901 0.960 . S
C1916 H1902 0.960 1_545 S
C1916 H1903 0.960 . S
C1916 C1915 1.524 . S
C1917 C1914 1.451 . S
C1917 C1918 1.396 1_565 S
C1917 C1921 1.495 . S
C1918 C1917 1.396 1_545 S
C1918 C1919 1.382 1_655 S
C1918 C1920 1.477 1_655 S
C1919 H1913 0.930 . S
C1919 C1915 1.400 1_556 S
C1919 C1918 1.382 1_455 S
C1920 C1918 1.477 1_455 S
C1920 C1922 1.381 . S
C1920 C1926 1.383 1_455 S
C1921 C1917 1.495 . S
C1921 H1927 0.959 . S
C1921 H1928 0.961 1_565 S
C1921 H1929 0.960 . S
C1922 C1920 1.381 . S
C1922 C1923 1.394 . S
C1922 H1930 0.930 . S
C1923 C1922 1.394 . S
C1923 C1924 1.383 . S
C1923 H1931 0.929 . S
C1924 C1923 1.383 . S
C1924 C1925 1.377 . S
C1925 H1909 0.930 1_455 S
C1925 C1924 1.377 . S
C1925 C1926 1.379 1_455 S
C1926 H1910 0.931 . S
C1926 C1920 1.383 1_655 S
C1926 C1925 1.379 1_655 S
H1927 C1921 0.959 . S
H1928 C1921 0.961 1_545 S
H1929 C1921 0.960 . S
H1930 C1922 0.930 . S
H1931 C1923 0.929 . S
H1932 C1940 0.929 . S
H1933 C1942 0.930 1_565 S
H1934 C1944 0.930 . S
H1935 C1947 0.929 . S
H1936 C1950 0.930 . S
H1937 C1952 0.960 . S
H1938 C1952 0.960 . S
H1939 C1952 0.960 . S
C1940 H1932 0.929 . S
C1940 C1941 1.377 . S
C1940 C1942 1.384 . S
C1941 C1940 1.377 . S
C1941 C1947 1.390 . S
C1942 H1933 0.930 1_545 S
C1942 C1940 1.384 . S
C1942 C1943 1.372 . S
C1943 C1942 1.372 . S
C1943 C1944 1.400 . S
C1943 C1948 1.490 . S
C1944 H1934 0.930 . S
C1944 C1943 1.400 . S
C1944 C1947 1.386 . S
H1945 C1961 0.930 . S
H1946 C1962 0.931 . S
C1947 H1935 0.929 . S
C1947 C1941 1.390 . S
C1947 C1944 1.386 . S
C1948 C1943 1.490 . S
C1948 C1950 1.395 1_545 S
C1948 C1951 1.403 . S
H1949 C1955 0.930 . S
C1950 H1936 0.930 . S
C1950 C1948 1.395 1_565 S
C1950 C1953 1.403 . S
C1951 C1948 1.403 . S
C1951 C1952 1.524 . S
C1951 C1955 1.400 . S
C1952 H1937 0.960 . S
C1952 H1938 0.960 . S
C1952 H1939 0.960 . S
C1952 C1951 1.524 . S
C1953 C1950 1.403 . S
C1953 C1954 1.392 . S
C1953 C1957 1.495 . S
C1954 C1953 1.392 . S
C1954 C1955 1.385 1_565 S
C1954 C1956 1.478 . S
C1955 H1949 0.930 . S
C1955 C1951 1.400 . S
C1955 C1954 1.385 1_545 S
C1956 C1954 1.478 . S
C1956 C1958 1.381 . S
C1956 C1962 1.383 . S
C1957 C1953 1.495 . S
C1957 H1963 0.959 . S
C1957 H1964 0.961 . S
C1957 H1965 0.960 . S
C1958 C1956 1.381 . S
C1958 C1959 1.394 . S
C1958 H1966 0.930 . S
C1959 C1958 1.394 . S
C1959 C1960 1.383 . S
C1959 H1967 0.929 . S
C1960 C1959 1.383 . S
C1960 C1961 1.377 . S
C1961 H1945 0.930 . S
C1961 C1960 1.377 . S
C1961 C1962 1.379 . S
C1962 H1946 0.931 . S
C1962 C1956 1.383 . S
C1962 C1961 1.379 . S
H1963 C1957 0.959 . S
H1964 C1957 0.961 . S
H1965 C1957 0.960 . S
H1966 C1958 0.930 . S
H1967 C1959 0.929 . S
C537 C17 1.531 . S
C556 C248 1.506 . S
C573 C149 1.525 . S
C592 C50 1.543 . S
C609 C83 1.524 . S
C628 C182 1.536 . S
C645 C116 1.528 . S
C664 C215 1.535 . S
C681 C281 1.531 . S
C700 C512 1.515 . S
C717 C314 1.531 . S
C736 C413 1.520 . S
C753 C347 1.530 . S
C772 C446 1.509 . S
C789 C479 1.531 . S
C808 C380 1.534 . S
C825 C8 2.177 . S
C844 C74 2.168 . S
C861 C107 2.177 . S
C880 C41 2.171 . S
C897 C206 2.177 . S
C916 C140 2.167 . S
C933 C173 2.179 . S
C952 C239 2.177 . S
C969 C338 2.177 . S
C988 C272 2.179 . S
C1005 C371 2.178 . S
C1024 C305 2.180 . S
C1041 C470 2.179 . S
C1060 C404 2.178 . S
C1077 C503 2.179 . S
C1096 C437 2.178 . S
C1113 N410 0.515 . S
C1132 N5 0.482 . S
C1149 N443 0.524 . S
C1168 N38 0.484 . S
C1185 N71 0.480 . S
C1204 N476 0.480 1_455 S
C1221 N509 0.512 1_545 S
C1240 N104 0.481 . S
C1257 N137 0.481 . S
C1276 N278 0.552 . S
C1293 N311 0.523 . S
C1312 N170 0.484 . S
C1329 N203 0.481 . S
C1348 N344 0.575 1_455 S
C1365 N236 0.480 . S
C1384 N377 0.454 1_545 S
C1401 N146 0.518 . S
C1420 N269 0.484 . S
C1437 N179 0.514 . S
C1456 N302 0.485 . S
C1473 N212 0.514 1_655 S
C1492 N335 0.485 . S
C1509 N245 0.525 1_565 S
C1528 N368 0.483 . S
C1545 N14 0.526 . S
C1564 N401 0.482 . S
C1581 N47 0.521 . S
C1600 N434 0.484 . S
C1617 N80 0.522 1_655 S
C1636 N467 0.483 . S
C1653 N500 0.480 . S
C1672 N113 0.562 1_565 S
C1689 C292 1.579 . S
C1708 C28 1.551 . S
C1725 C61 1.584 . S
C1744 C325 1.576 . S
C1761 C94 1.580 . S
C1780 C358 1.603 . S
C1797 C391 1.585 . S
C1816 C127 1.583 . S
C1833 C160 1.581 . S
C1852 C424 1.555 . S
C1869 C193 1.582 . S
C1888 C457 1.560 . S
C1905 C490 1.575 . S
C1924 C226 1.548 . S
C1941 C259 1.584 . S
C1960 C523 1.601 . S
