# Generated by pormake.
# Topology vbg, (5)-cn, num edge types: 1
# Building blocks:
#     Node 0, Type 0, BuildingBlock: BEQFEK_clean_sbu_0, # of connection points: 5
#     Node 1, Type 0, BuildingBlock: BEQFEK_clean_sbu_0, # of connection points: 5
#     Node 2, Type 0, BuildingBlock: BEQFEK_clean_sbu_0, # of connection points: 5
#     Node 3, Type 0, BuildingBlock: BEQFEK_clean_sbu_0, # of connection points: 5
#     Node 4, Type 0, BuildingBlock: BEQFEK_clean_sbu_0, # of connection points: 5
#     Node 5, Type 0, BuildingBlock: BEQFEK_clean_sbu_0, # of connection points: 5
#     Node 6, Type 0, BuildingBlock: BEQFEK_clean_sbu_0, # of connection points: 5
#     Node 7, Type 0, BuildingBlock: BEQFEK_clean_sbu_0, # of connection points: 5
#     Node 8, Type 0, BuildingBlock: BEQFEK_clean_sbu_0, # of connection points: 5
#     Node 9, Type 0, BuildingBlock: BEQFEK_clean_sbu_0, # of connection points: 5
#     Node 10, Type 0, BuildingBlock: BEQFEK_clean_sbu_0, # of connection points: 5
#     Node 11, Type 0, BuildingBlock: BEQFEK_clean_sbu_0, # of connection points: 5
#     Node 12, Type 0, BuildingBlock: BEQFEK_clean_sbu_0, # of connection points: 5
#     Node 13, Type 0, BuildingBlock: BEQFEK_clean_sbu_0, # of connection points: 5
#     Node 14, Type 0, BuildingBlock: BEQFEK_clean_sbu_0, # of connection points: 5
#     Node 15, Type 0, BuildingBlock: BEQFEK_clean_sbu_0, # of connection points: 5
#     Node 16, Type 0, BuildingBlock: BEQFEK_clean_sbu_0, # of connection points: 5
#     Node 17, Type 0, BuildingBlock: BEQFEK_clean_sbu_0, # of connection points: 5
#     Node 18, Type 0, BuildingBlock: BEQFEK_clean_sbu_0, # of connection points: 5
#     Node 19, Type 0, BuildingBlock: BEQFEK_clean_sbu_0, # of connection points: 5
#     Node 20, Type 0, BuildingBlock: BEQFEK_clean_sbu_0, # of connection points: 5
#     Node 21, Type 0, BuildingBlock: BEQFEK_clean_sbu_0, # of connection points: 5
#     Node 22, Type 0, BuildingBlock: BEQFEK_clean_sbu_0, # of connection points: 5
#     Node 23, Type 0, BuildingBlock: BEQFEK_clean_sbu_0, # of connection points: 5
#     Node 24, Type 0, BuildingBlock: BEQFEK_clean_sbu_0, # of connection points: 5
#     Node 25, Type 0, BuildingBlock: BEQFEK_clean_sbu_0, # of connection points: 5
#     Node 26, Type 0, BuildingBlock: BEQFEK_clean_sbu_0, # of connection points: 5
#     Node 27, Type 0, BuildingBlock: BEQFEK_clean_sbu_0, # of connection points: 5
#     Node 28, Type 0, BuildingBlock: BEQFEK_clean_sbu_0, # of connection points: 5
#     Node 29, Type 0, BuildingBlock: BEQFEK_clean_sbu_0, # of connection points: 5
#     Node 30, Type 0, BuildingBlock: BEQFEK_clean_sbu_0, # of connection points: 5
#     Node 31, Type 0, BuildingBlock: BEQFEK_clean_sbu_0, # of connection points: 5
#     Edge 32, Type (0, 0), None
#     Edge 33, Type (0, 0), None
#     Edge 34, Type (0, 0), None
#     Edge 35, Type (0, 0), None
#     Edge 36, Type (0, 0), None
#     Edge 37, Type (0, 0), None
#     Edge 38, Type (0, 0), None
#     Edge 39, Type (0, 0), None
#     Edge 40, Type (0, 0), None
#     Edge 41, Type (0, 0), None
#     Edge 42, Type (0, 0), None
#     Edge 43, Type (0, 0), None
#     Edge 44, Type (0, 0), None
#     Edge 45, Type (0, 0), None
#     Edge 46, Type (0, 0), None
#     Edge 47, Type (0, 0), None
#     Edge 48, Type (0, 0), None
#     Edge 49, Type (0, 0), None
#     Edge 50, Type (0, 0), None
#     Edge 51, Type (0, 0), None
#     Edge 52, Type (0, 0), None
#     Edge 53, Type (0, 0), None
#     Edge 54, Type (0, 0), None
#     Edge 55, Type (0, 0), None
#     Edge 56, Type (0, 0), None
#     Edge 57, Type (0, 0), None
#     Edge 58, Type (0, 0), None
#     Edge 59, Type (0, 0), None
#     Edge 60, Type (0, 0), None
#     Edge 61, Type (0, 0), None
#     Edge 62, Type (0, 0), None
#     Edge 63, Type (0, 0), None
#     Edge 64, Type (0, 0), None
#     Edge 65, Type (0, 0), None
#     Edge 66, Type (0, 0), None
#     Edge 67, Type (0, 0), None
#     Edge 68, Type (0, 0), None
#     Edge 69, Type (0, 0), None
#     Edge 70, Type (0, 0), None
#     Edge 71, Type (0, 0), None
#     Edge 72, Type (0, 0), None
#     Edge 73, Type (0, 0), None
#     Edge 74, Type (0, 0), None
#     Edge 75, Type (0, 0), None
#     Edge 76, Type (0, 0), None
#     Edge 77, Type (0, 0), None
#     Edge 78, Type (0, 0), None
#     Edge 79, Type (0, 0), None
#     Edge 80, Type (0, 0), None
#     Edge 81, Type (0, 0), None
#     Edge 82, Type (0, 0), None
#     Edge 83, Type (0, 0), None
#     Edge 84, Type (0, 0), None
#     Edge 85, Type (0, 0), None
#     Edge 86, Type (0, 0), None
#     Edge 87, Type (0, 0), None
#     Edge 88, Type (0, 0), None
#     Edge 89, Type (0, 0), None
#     Edge 90, Type (0, 0), None
#     Edge 91, Type (0, 0), None
#     Edge 92, Type (0, 0), None
#     Edge 93, Type (0, 0), None
#     Edge 94, Type (0, 0), None
#     Edge 95, Type (0, 0), None
#     Edge 96, Type (0, 0), None
#     Edge 97, Type (0, 0), None
#     Edge 98, Type (0, 0), None
#     Edge 99, Type (0, 0), None
#     Edge 100, Type (0, 0), None
#     Edge 101, Type (0, 0), None
#     Edge 102, Type (0, 0), None
#     Edge 103, Type (0, 0), None
#     Edge 104, Type (0, 0), None
#     Edge 105, Type (0, 0), None
#     Edge 106, Type (0, 0), None
#     Edge 107, Type (0, 0), None
#     Edge 108, Type (0, 0), None
#     Edge 109, Type (0, 0), None
#     Edge 110, Type (0, 0), None
#     Edge 111, Type (0, 0), None
# Relax obj value: 0.607
# Max RMSD: 0.181
# Mean RMSD: 0.181
data_MOF--net-vbg--node1-BEQFEK_clean_sbu_0--edge1-none
_symmetry_space_group_name_H-M    P1
_symmetry_Int_Tables_number       1
_symmetry_cell_setting            triclinic
loop_
_symmetry_equiv_pos_as_xyz
'x, y, z'
_cell_length_a     33.705339
_cell_length_b     22.555548
_cell_length_c     22.175163
_cell_angle_alpha  90.00038
_cell_angle_beta   90.001948
_cell_angle_gamma 90.000045
loop_
_atom_site_label
_atom_site_type_symbol
_atom_site_fract_x
_atom_site_fract_y
_atom_site_fract_z
_atom_type_partial_charge
Co0 Co 0.05677 0.22749 0.53247 0.0
Co1 Co 0.07323 0.31315 0.44124 0.0
C2 C 1.0334 0.19762 0.40127 0.0
O3 O 1.03334 0.18405 0.45704 0.0
O4 O 0.04672 0.24843 0.3876 0.0
C5 C 0.99289 0.22388 0.61365 0.0
O6 O 0.97764 0.26471 0.57842 0.0
C7 C 0.04254 0.37281 0.35383 0.0
C8 C 0.09125 0.35708 0.28946 0.0
C9 C 0.05034 0.36083 0.29433 0.0
N10 N 0.07709 0.37102 0.38393 0.0
N11 N 0.10635 0.36544 0.34479 0.0
C12 C 1.00228 0.37 0.38292 0.0
H13 H 1.00346 0.37612 0.43204 0.0
H14 H 0.98314 0.40536 0.36384 0.0
H15 H 0.98802 0.32666 0.37335 0.0
C16 C 0.0577 0.34143 0.61014 0.0
N17 N 0.05453 0.31122 0.55693 0.0
N18 N 0.04985 0.34912 0.51353 0.0
C19 C 0.0442 0.40376 0.53878 0.0
C20 C 0.04691 0.40073 0.60217 0.0
C21 C 0.08781 0.32452 0.65662 0.0
H22 H 0.09455 0.27682 0.65381 0.0
H23 H 0.07793 0.33717 0.70253 0.0
H24 H 0.11577 0.34906 0.64766 0.0
O25 O 0.11484 0.20912 0.52969 0.0
O26 O 0.1281 0.28019 0.46257 0.0
H27 H 0.06927 0.48702 0.522 0.0
H28 H 1.01612 0.48334 0.51194 0.0
C29 C 0.04457 0.45983 0.50428 0.0
H30 H 0.04903 0.45257 0.45549 0.0
H31 H 0.1357 0.35661 0.35677 0.0
O32 O 1.02291 0.19476 0.59555 0.0
C33 C 0.13958 0.23799 0.49728 0.0
Co34 Co 0.26475 0.23112 0.53247 0.0
Co35 Co 0.24829 0.14547 0.44123 0.0
C36 C 0.28811 0.26101 0.40128 0.0
O37 O 0.28817 0.27457 0.45705 0.0
O38 O 0.2748 0.21019 0.3876 0.0
C39 C 0.32862 0.23473 0.61365 0.0
O40 O 0.34388 0.19391 0.57841 0.0
C41 C 0.27898 1.08581 0.35382 0.0
C42 C 0.23028 1.10153 0.28944 0.0
C43 C 0.27118 1.09779 0.29432 0.0
N44 N 0.24444 1.08761 0.38392 0.0
N45 N 0.21517 1.09318 0.34477 0.0
C46 C 0.31924 1.08864 0.38292 0.0
H47 H 0.31807 1.08254 0.43204 0.0
H48 H 0.33838 1.05327 0.36386 0.0
H49 H 0.33351 0.13197 0.37333 0.0
C50 C 0.26381 0.11718 0.61013 0.0
N51 N 0.26699 0.14739 0.55693 0.0
N52 N 0.27166 0.1095 0.51353 0.0
C53 C 0.27732 1.05486 0.53877 0.0
C54 C 0.2746 1.05788 0.60216 0.0
C55 C 0.2337 0.1341 0.65661 0.0
H56 H 0.22698 0.1818 0.65381 0.0
H57 H 0.24359 0.12145 0.70253 0.0
H58 H 0.20574 0.10957 0.64766 0.0
O59 O 0.20667 0.24949 0.52969 0.0
O60 O 0.19341 0.17843 0.46257 0.0
H61 H 0.25224 0.97161 0.52195 0.0
H62 H 0.30539 0.97527 0.51196 0.0
C63 C 0.27695 0.99879 0.50427 0.0
H64 H 0.27252 1.00606 0.45547 0.0
H65 H 0.18582 1.102 0.35674 0.0
O66 O 0.29861 0.26385 0.59556 0.0
C67 C 0.18194 0.22062 0.49728 0.0
Co68 Co 0.05678 0.2311 0.75911 0.0
Co69 Co 0.07325 0.14545 0.85034 0.0
C70 C 1.03341 0.26098 0.8903 0.0
O71 O 1.03337 0.27455 0.83453 0.0
O72 O 0.04672 0.21016 0.90398 0.0
C73 C 0.99286 0.23471 0.67797 0.0
O74 O 0.97763 0.19378 0.71309 0.0
C75 C 0.04258 1.08577 0.93774 0.0
C76 C 0.09128 1.10154 1.00212 0.0
C77 C 0.05037 1.09777 0.99724 0.0
N78 N 0.07712 1.08758 0.90764 0.0
N79 N 0.10638 1.09318 0.94679 0.0
C80 C 1.00232 1.08856 0.90865 0.0
H81 H 1.00349 1.0824 0.85954 0.0
H82 H 0.98318 1.0532 0.92774 0.0
H83 H 0.98804 0.13189 0.91819 0.0
C84 C 0.05773 0.11716 0.68143 0.0
N85 N 0.05455 0.14737 0.73464 0.0
N86 N 0.04988 0.10947 0.77804 0.0
C87 C 0.04422 1.05483 0.75279 0.0
C88 C 0.04693 1.05786 0.6894 0.0
C89 C 0.08784 0.13407 0.63497 0.0
H90 H 0.09459 0.18177 0.63778 0.0
H91 H 0.07796 0.12144 0.58905 0.0
H92 H 0.11579 0.10952 0.64392 0.0
O93 O 0.11485 0.24949 0.76187 0.0
O94 O 0.12812 0.17844 0.829 0.0
H95 H 0.06927 0.97153 0.76951 0.0
H96 H 1.01614 0.97528 0.77968 0.0
C97 C 0.0446 0.99876 0.78728 0.0
H98 H 0.04912 1.00601 0.83607 0.0
H99 H 0.13573 1.10202 0.93482 0.0
O100 O 1.02288 0.26383 0.69605 0.0
C101 C 0.13959 0.22063 0.79429 0.0
Co102 Co 0.26475 0.22751 0.7591 0.0
Co103 Co 0.2483 0.31316 0.85033 0.0
C104 C 0.28812 0.19763 0.8903 0.0
O105 O 0.28816 0.18406 0.83453 0.0
O106 O 0.27482 0.24845 0.90397 0.0
C107 C 0.32866 0.22389 0.67796 0.0
O108 O 0.3439 0.26481 0.71308 0.0
C109 C 0.27899 0.37282 0.93775 0.0
C110 C 0.23028 0.3571 1.00211 0.0
C111 C 0.27118 0.36085 0.99725 0.0
N112 N 0.24445 0.37103 0.90764 0.0
N113 N 0.21518 0.36546 0.94678 0.0
C114 C 0.31925 0.36999 0.90866 0.0
H115 H 0.31808 0.37607 0.85954 0.0
H116 H 0.33839 0.40537 0.92772 0.0
H117 H 0.33352 0.32666 0.91827 0.0
C118 C 0.2638 0.34146 0.68143 0.0
N119 N 0.26699 0.31124 0.73463 0.0
N120 N 0.27168 0.34913 0.77803 0.0
C121 C 0.27734 0.40377 0.75279 0.0
C122 C 0.27461 0.40076 0.68941 0.0
C123 C 0.23368 0.32456 0.63497 0.0
H124 H 0.22692 0.27687 0.63779 0.0
H125 H 0.24356 0.33718 0.58904 0.0
H126 H 0.20573 0.34913 0.64392 0.0
O127 O 0.20668 0.20913 0.76186 0.0
O128 O 0.19343 0.28019 0.82899 0.0
H129 H 0.25226 0.48701 0.76963 0.0
H130 H 0.30542 0.48336 0.7796 0.0
C131 C 0.27698 0.45984 0.7873 0.0
H132 H 0.27256 0.45257 0.8361 0.0
H133 H 0.18583 0.35663 0.9348 0.0
O134 O 0.29865 0.19477 0.69604 0.0
C135 C 0.18195 0.238 0.79428 0.0
Co136 Co 1.01474 0.98111 0.50911 0.0
Co137 Co 0.99827 0.89545 0.60034 0.0
C138 C 0.03811 1.01098 0.6403 0.0
O139 O 0.03817 1.02455 0.58453 0.0
O140 O 1.02479 0.96017 0.65398 0.0
C141 C 0.07861 0.9847 0.42793 0.0
O142 O 0.09386 0.94387 0.46316 0.0
C143 C 1.02893 0.83577 0.68774 0.0
C144 C 0.98023 0.85154 0.7521 0.0
C145 C 1.02114 0.84777 0.74723 0.0
N146 N 0.99439 0.83758 0.65763 0.0
N147 N 0.96513 0.84318 0.69678 0.0
C148 C 0.06919 0.83855 0.65865 0.0
H149 H 0.06802 0.83239 0.60954 0.0
H150 H 0.08833 0.80319 0.67775 0.0
H151 H 0.08347 0.88189 0.66819 0.0
C152 C 1.01379 0.86718 0.43143 0.0
N153 N 1.01697 0.89738 0.48464 0.0
N154 N 1.02164 0.85948 0.52804 0.0
C155 C 1.02729 0.80484 0.50278 0.0
C156 C 1.02458 0.80788 0.4394 0.0
C157 C 0.98368 0.8841 0.38496 0.0
H158 H 0.97696 0.9318 0.38776 0.0
H159 H 0.99356 0.87144 0.33904 0.0
H160 H 0.95572 0.85958 0.39392 0.0
O161 O 0.95667 0.9995 0.51188 0.0
O162 O 0.9434 0.92844 0.579 0.0
H163 H 1.00224 0.72154 0.51949 0.0
H164 H 0.05537 0.72528 0.52968 0.0
C165 C 1.0269 0.74876 0.53727 0.0
H166 H 1.02239 0.75601 0.58606 0.0
H167 H 0.93578 0.85202 0.6848 0.0
O168 O 0.0486 1.01383 0.44602 0.0
C169 C 0.93193 0.97064 0.5443 0.0
Co170 Co 0.80676 0.9775 0.5091 0.0
Co171 Co 0.82321 1.06316 0.60033 0.0
C172 C 0.78339 0.94762 0.64028 0.0
O173 O 0.78334 0.93405 0.58451 0.0
O174 O 0.79671 0.99843 0.65396 0.0
C175 C 0.74289 0.9739 0.42792 0.0
O176 O 0.72763 1.01471 0.46315 0.0
C177 C 0.79252 0.12281 0.68774 0.0
C178 C 0.84122 0.10709 0.75213 0.0
C179 C 0.80031 0.11084 0.74725 0.0
N180 N 0.82706 0.12102 0.65765 0.0
N181 N 0.85632 0.11545 0.6968 0.0
C182 C 0.75226 0.11997 0.65865 0.0
H183 H 0.75343 0.12607 0.60953 0.0
H184 H 0.73312 0.15535 0.6777 0.0
H185 H 0.73799 1.07664 0.66825 0.0
C186 C 0.8077 1.09145 0.43144 0.0
N187 N 0.80452 1.06124 0.48464 0.0
N188 N 0.79984 1.09913 0.52804 0.0
C189 C 0.79418 0.15377 0.50279 0.0
C190 C 0.7969 0.15075 0.43941 0.0
C191 C 0.83781 1.07453 0.38496 0.0
H192 H 0.84454 1.02683 0.38776 0.0
H193 H 0.82792 1.08718 0.33904 0.0
H194 H 0.86576 1.09907 0.39392 0.0
O195 O 0.86483 0.95914 0.51188 0.0
O196 O 0.87809 1.0302 0.579 0.0
H197 H 0.81926 0.23701 0.51963 0.0
H198 H 0.76611 0.23336 0.52959 0.0
C199 C 0.79454 0.20983 0.5373 0.0
H200 H 0.79896 0.20257 0.5861 0.0
H201 H 0.88568 0.10663 0.68483 0.0
O202 O 0.7729 0.94478 0.446 0.0
C203 C 0.88957 0.98801 0.54429 0.0
Co204 Co 1.01474 0.9775 0.28246 0.0
Co205 Co 0.99828 1.06316 0.19123 0.0
C206 C 0.0381 0.94762 0.15126 0.0
O207 O 0.03814 0.93405 0.20703 0.0
O208 O 1.02479 0.99844 0.13758 0.0
C209 C 0.07865 0.97387 0.36361 0.0
O210 O 0.09389 1.0148 0.32849 0.0
C211 C 1.02896 0.12282 0.10384 0.0
C212 C 0.98026 0.10705 0.03947 0.0
C213 C 1.02117 0.11076 0.04435 0.0
N214 N 0.99442 0.12105 0.13393 0.0
N215 N 0.96516 0.11546 0.09479 0.0
C216 C 0.06922 0.12004 0.13294 0.0
H217 H 0.06804 0.12621 0.18205 0.0
H218 H 0.08836 0.15539 0.11384 0.0
H219 H 0.08349 1.0767 0.12341 0.0
C220 C 1.0138 1.09143 0.36014 0.0
N221 N 1.01697 1.06123 0.30693 0.0
N222 N 1.02165 1.09913 0.26354 0.0
C223 C 1.02731 0.15376 0.28879 0.0
C224 C 1.02461 0.15072 0.35218 0.0
C225 C 0.98367 1.07454 0.4066 0.0
H226 H 0.97691 1.02685 0.40378 0.0
H227 H 0.99355 1.08716 0.45252 0.0
H228 H 0.95573 1.09911 0.39764 0.0
O229 O 0.95666 0.95913 0.27969 0.0
O230 O 0.9434 1.03019 0.21257 0.0
H231 H 1.00225 0.23705 0.27207 0.0
H232 H 0.05538 0.23333 0.26192 0.0
C233 C 1.02692 0.20984 0.25431 0.0
H234 H 1.02242 0.2026 0.20552 0.0
H235 H 0.9358 0.10666 0.10676 0.0
O236 O 0.04863 0.94476 0.34552 0.0
C237 C 0.93192 0.988 0.24728 0.0
Co238 Co 0.80676 0.98112 0.28247 0.0
Co239 Co 0.82321 0.89547 0.19123 0.0
C240 C 0.78339 1.011 0.15127 0.0
O241 O 0.78335 1.02457 0.20704 0.0
O242 O 0.79669 0.96018 0.13759 0.0
C243 C 0.74285 0.98474 0.3636 0.0
O244 O 0.72761 0.94382 0.32847 0.0
C245 C 0.79252 0.83581 0.10382 0.0
C246 C 0.84123 0.85153 0.03945 0.0
C247 C 0.80033 0.84778 0.04432 0.0
N248 N 0.82707 0.8376 0.13392 0.0
N249 N 0.85633 0.84318 0.09478 0.0
C250 C 0.75226 0.83864 0.13291 0.0
H251 H 0.75344 0.83255 0.18202 0.0
H252 H 0.73313 0.80325 0.11385 0.0
H253 H 0.73799 0.88196 0.1233 0.0
C254 C 0.80771 0.86717 0.36013 0.0
N255 N 0.80453 0.89739 0.30693 0.0
N256 N 0.79984 0.8595 0.26353 0.0
C257 C 0.79418 0.80486 0.28877 0.0
C258 C 0.79691 0.80787 0.35216 0.0
C259 C 0.83783 0.88407 0.4066 0.0
H260 H 0.84459 0.93176 0.40378 0.0
H261 H 0.82795 0.87145 0.45252 0.0
H262 H 0.86578 0.8595 0.39765 0.0
O263 O 0.86483 0.9995 0.2797 0.0
O264 O 0.87809 0.92844 0.21257 0.0
H265 H 0.81926 0.72161 0.27194 0.0
H266 H 0.7661 0.72527 0.26197 0.0
C267 C 0.79454 0.74879 0.25427 0.0
H268 H 0.79896 0.75606 0.20547 0.0
H269 H 0.88568 0.85201 0.10676 0.0
O270 O 0.77287 1.01385 0.34552 0.0
C271 C 0.88957 0.97063 0.24728 0.0
Co272 Co 0.05676 0.72749 0.03246 0.0
Co273 Co 0.07323 0.81316 0.94123 0.0
C274 C 1.0334 0.69761 0.90127 0.0
O275 O 1.03334 0.68405 0.95704 0.0
O276 O 0.04672 0.74842 0.88759 0.0
C277 C 0.99289 0.72388 0.11364 0.0
O278 O 0.97763 0.76469 0.07841 0.0
C279 C 0.04254 0.87281 0.85384 0.0
C280 C 0.09125 0.85705 0.78947 0.0
C281 C 0.05034 0.86076 0.79435 0.0
N282 N 0.07709 0.87104 0.88394 0.0
N283 N 0.10635 0.86545 0.84479 0.0
C284 C 1.00228 0.87002 0.88293 0.0
H285 H 1.00346 0.87618 0.93204 0.0
H286 H 0.98315 0.90538 0.86383 0.0
H287 H 0.98802 0.82668 0.87339 0.0
C288 C 0.05769 0.84142 0.11014 0.0
N289 N 0.05452 0.81122 0.05693 0.0
N290 N 0.04985 0.84912 1.01353 0.0
C291 C 0.04419 0.90376 0.03878 0.0
C292 C 0.04688 0.90072 0.10217 0.0
C293 C 0.0878 0.82452 0.15661 0.0
H294 H 0.09454 0.77682 0.15381 0.0
H295 H 0.07792 0.83716 0.20253 0.0
H296 H 0.11576 0.84906 0.14765 0.0
O297 O 0.11484 0.70912 0.02969 0.0
O298 O 0.1281 0.78019 0.96257 0.0
H299 H 0.06928 0.98702 0.02204 0.0
H300 H 1.01614 0.98334 1.01193 0.0
C301 C 0.04459 0.95983 1.00429 0.0
H302 H 0.04907 0.95258 0.9555 0.0
H303 H 0.13571 0.85665 0.85677 0.0
O304 O 1.02291 0.69476 0.09555 0.0
C305 C 0.13958 0.73799 0.99728 0.0
Co306 Co 0.26474 0.73112 0.03247 0.0
Co307 Co 0.24829 0.64547 0.94123 0.0
C308 C 0.28811 0.76101 0.90128 0.0
O309 O 0.28817 0.77457 0.95705 0.0
O310 O 0.2748 0.71019 0.8876 0.0
C311 C 0.32862 0.73473 0.11365 0.0
O312 O 0.34388 0.69391 0.07842 0.0
C313 C 0.27898 0.58581 0.85382 0.0
C314 C 0.23028 0.60153 0.78944 0.0
C315 C 0.27118 0.59779 0.79432 0.0
N316 N 0.24444 0.5876 0.88392 0.0
N317 N 0.21518 0.59317 0.84477 0.0
C318 C 0.31924 0.58865 0.88292 0.0
H319 H 0.31807 0.58254 0.93204 0.0
H320 H 0.33838 0.55327 0.86386 0.0
H321 H 0.33351 0.63198 0.87333 0.0
C322 C 0.26381 0.61718 0.11013 0.0
N323 N 0.26699 0.64739 0.05693 0.0
N324 N 0.27166 0.6095 1.01353 0.0
C325 C 0.27732 0.55486 0.03877 0.0
C326 C 0.2746 0.55788 0.10216 0.0
C327 C 0.2337 0.6341 0.15661 0.0
H328 H 0.22697 0.6818 0.1538 0.0
H329 H 0.24358 0.62145 0.20253 0.0
H330 H 0.20574 0.60956 0.14765 0.0
O331 O 0.20667 0.74949 0.02969 0.0
O332 O 0.19341 0.67842 0.96257 0.0
H333 H 0.25224 0.47161 0.02195 0.0
H334 H 0.3054 0.47527 1.01196 0.0
C335 C 0.27696 0.49879 1.00427 0.0
H336 H 0.27253 0.50606 0.95547 0.0
H337 H 0.18582 0.602 0.85674 0.0
O338 O 0.2986 0.76385 0.09556 0.0
C339 C 0.18193 0.72062 0.99728 0.0
Co340 Co 0.05676 0.73111 0.2591 0.0
Co341 Co 0.07322 0.64547 0.35034 0.0
C342 C 1.0334 0.761 0.3903 0.0
O343 O 1.03335 0.77456 0.33453 0.0
O344 O 0.0467 0.71018 0.40398 0.0
C345 C 0.99285 0.73471 0.17796 0.0
O346 O 0.97761 0.69378 0.21308 0.0
C347 C 0.04254 0.5858 0.43774 0.0
C348 C 0.09125 0.60154 0.50212 0.0
C349 C 0.05034 0.59778 0.49724 0.0
N350 N 0.07709 0.5876 0.40764 0.0
N351 N 0.10635 0.59318 0.44679 0.0
C352 C 1.00228 0.58861 0.40865 0.0
H353 H 1.00346 0.5825 0.35954 0.0
H354 H 0.98315 0.55323 0.42772 0.0
H355 H 0.98801 0.63194 0.41824 0.0
C356 C 0.05772 0.61716 0.18144 0.0
N357 N 0.05453 0.64738 0.23464 0.0
N358 N 0.04985 0.60949 0.27804 0.0
C359 C 0.0442 0.55485 0.25279 0.0
C360 C 0.04692 0.55787 0.18941 0.0
C361 C 0.08784 0.63407 0.13497 0.0
H362 H 0.09459 0.68176 0.13778 0.0
H363 H 0.07796 0.62143 0.08905 0.0
H364 H 0.11579 0.6095 0.14393 0.0
O365 O 0.11484 0.7495 0.26187 0.0
O366 O 0.1281 0.67844 0.329 0.0
H367 H 0.06927 0.47159 0.2696 0.0
H368 H 1.01612 0.47527 0.27963 0.0
C369 C 0.04456 0.49878 0.2873 0.0
H370 H 0.04901 0.50604 0.3361 0.0
H371 H 0.1357 0.60201 0.43481 0.0
O372 O 1.02287 0.76384 0.19604 0.0
C373 C 0.13957 0.72063 0.29429 0.0
Co374 Co 0.26474 0.72751 0.2591 0.0
Co375 Co 0.24829 0.81316 0.35033 0.0
C376 C 0.28811 0.69763 0.3903 0.0
O377 O 0.28815 0.68406 0.33453 0.0
O378 O 0.27481 0.74845 0.40397 0.0
C379 C 0.32865 0.72389 0.17797 0.0
O380 O 0.34389 0.76481 0.21309 0.0
C381 C 0.27898 0.87282 0.43775 0.0
C382 C 0.23027 0.8571 0.50211 0.0
C383 C 0.27117 0.86085 0.49725 0.0
N384 N 0.24443 0.87103 0.40764 0.0
N385 N 0.21517 0.86545 0.44678 0.0
C386 C 0.31924 0.86999 0.40866 0.0
H387 H 0.31807 0.87608 0.35954 0.0
H388 H 0.33837 0.90537 0.42772 0.0
H389 H 0.33351 0.82667 0.41827 0.0
C390 C 0.26379 0.84146 0.18143 0.0
N391 N 0.26698 0.81124 0.23463 0.0
N392 N 0.27167 0.84913 0.27803 0.0
C393 C 0.27733 0.90377 0.25279 0.0
C394 C 0.2746 0.90076 0.18941 0.0
C395 C 0.23367 0.82456 0.13496 0.0
H396 H 0.22692 0.77687 0.13778 0.0
H397 H 0.24356 0.83719 0.08904 0.0
H398 H 0.20573 0.84913 0.14391 0.0
O399 O 0.20667 0.70913 0.26186 0.0
O400 O 0.19341 0.78019 0.329 0.0
H401 H 0.25225 0.98702 0.26963 0.0
H402 H 0.30541 0.98335 0.27961 0.0
C403 C 0.27697 0.95984 0.2873 0.0
H404 H 0.27254 0.95257 0.3361 0.0
H405 H 0.18582 0.85663 0.4348 0.0
O406 O 0.29863 0.69478 0.19605 0.0
C407 C 0.18193 0.738 0.29428 0.0
Co408 Co 1.01475 0.4811 1.00912 0.0
Co409 Co 0.99827 0.39543 0.10034 0.0
C410 C 0.0381 0.51098 0.14031 0.0
O411 O 0.03817 0.52454 0.08454 0.0
O412 O 1.02478 0.46016 0.15399 0.0
C413 C 0.07862 0.4847 0.92793 0.0
O414 O 0.09387 0.44387 0.96316 0.0
C415 C 1.02894 0.33577 0.18773 0.0
C416 C 0.98023 0.35155 0.25209 0.0
C417 C 1.02114 0.34783 0.24721 0.0
N418 N 0.9944 0.33754 0.15763 0.0
N419 N 0.96513 0.34314 0.19677 0.0
C420 C 0.0692 0.33853 0.15864 0.0
H421 H 0.06803 0.33233 0.10954 0.0
H422 H 0.08834 0.30319 0.17777 0.0
H423 H 0.08347 0.38188 0.16815 0.0
C424 C 1.01382 0.36717 0.93144 0.0
N425 N 1.01698 0.39737 0.98465 0.0
N426 N 1.02165 0.35947 0.02804 0.0
C427 C 1.0273 0.30483 1.00279 0.0
C428 C 1.02462 0.30788 0.9394 0.0
C429 C 0.9837 0.38408 0.88496 0.0
H430 H 0.97697 0.43178 0.88777 0.0
H431 H 0.99358 0.37143 0.83905 0.0
H432 H 0.95575 0.35954 0.89393 0.0
O433 O 0.95667 0.49948 1.01189 0.0
O434 O 0.9434 0.42841 0.079 0.0
H435 H 1.00225 0.22153 1.01945 0.0
H436 H 0.05538 0.22528 0.0297 0.0
C437 C 1.0269 0.24875 0.03726 0.0
H438 H 1.02237 0.25599 0.08605 0.0
H439 H 0.93578 0.35194 0.18479 0.0
O440 O 0.04861 0.51382 0.94603 0.0
C441 C 0.93193 0.47061 0.04429 0.0
Co442 Co 0.80676 0.4775 1.0091 0.0
Co443 Co 0.82323 0.56316 0.10033 0.0
C444 C 0.78339 0.44762 0.14029 0.0
O445 O 0.78334 0.43406 0.08451 0.0
O446 O 0.79671 0.49843 0.15396 0.0
C447 C 0.74288 0.4739 0.92792 0.0
O448 O 0.72763 0.51472 0.96316 0.0
C449 C 0.79254 0.62282 0.18774 0.0
C450 C 0.84124 0.60709 0.25212 0.0
C451 C 0.80034 0.61084 0.24724 0.0
N452 N 0.82708 0.62102 0.15764 0.0
N453 N 0.85635 0.61544 0.19679 0.0
C454 C 0.75228 0.61999 0.15865 0.0
H455 H 0.75345 0.62611 0.10953 0.0
H456 H 0.73314 0.65536 0.17771 0.0
H457 H 0.73801 0.57666 0.16823 0.0
C458 C 0.8077 0.59145 0.93143 0.0
N459 N 0.80452 0.56123 0.98463 0.0
N460 N 0.79985 0.59913 0.02803 0.0
C461 C 0.7942 0.65377 1.00279 0.0
C462 C 0.79691 0.65074 0.9394 0.0
C463 C 0.83781 0.57452 0.88495 0.0
H464 H 0.84453 0.52682 0.88776 0.0
H465 H 0.82792 0.58717 0.83904 0.0
H466 H 0.86577 0.59905 0.89391 0.0
O467 O 0.86484 0.45912 1.01187 0.0
O468 O 0.8781 0.53019 0.079 0.0
H469 H 0.81927 0.73702 1.0196 0.0
H470 H 0.76612 0.73335 0.02962 0.0
C471 C 0.79457 0.70984 0.03729 0.0
H472 H 0.79901 0.70257 0.08609 0.0
H473 H 0.8857 0.60661 0.18482 0.0
O474 O 0.7729 0.44478 0.94601 0.0
C475 C 0.88957 0.48799 0.04428 0.0
Co476 Co 1.01474 0.47749 0.78246 0.0
Co477 Co 0.99827 0.56315 0.69124 0.0
C478 C 0.03809 0.44762 0.65126 0.0
O479 O 0.03815 0.43405 0.70703 0.0
O480 O 1.02478 0.49844 0.63758 0.0
C481 C 0.07865 0.47387 0.86361 0.0
O482 O 0.09389 0.5148 0.82849 0.0
C483 C 1.02894 0.62282 0.60385 0.0
C484 C 0.98024 0.60705 0.53948 0.0
C485 C 1.02114 0.61077 0.54436 0.0
N486 N 0.9944 0.62105 0.63395 0.0
N487 N 0.96513 0.61545 0.5948 0.0
C488 C 0.0692 0.62004 0.63294 0.0
H489 H 0.06803 0.62622 0.68205 0.0
H490 H 0.08834 0.6554 0.61383 0.0
H491 H 0.08347 0.57671 0.62341 0.0
C492 C 1.0138 0.59142 0.86014 0.0
N493 N 1.01697 0.56122 0.80693 0.0
N494 N 1.02165 0.59911 0.76354 0.0
C495 C 1.0273 0.65375 0.78879 0.0
C496 C 1.02461 0.65071 0.85218 0.0
C497 C 0.98368 0.57452 0.90661 0.0
H498 H 0.97692 0.52683 0.90379 0.0
H499 H 0.99356 0.58715 0.95253 0.0
H500 H 0.95573 0.59909 0.89765 0.0
O501 O 0.95666 0.45911 0.7797 0.0
O502 O 0.9434 0.53017 0.71258 0.0
H503 H 1.00223 0.73703 0.77208 0.0
H504 H 0.05537 0.73332 0.76191 0.0
C505 C 1.0269 0.70983 0.75431 0.0
H506 H 1.0224 0.70258 0.70552 0.0
H507 H 0.93578 0.60665 0.60678 0.0
O508 O 0.04863 0.44476 0.84552 0.0
C509 C 0.93192 0.48798 0.74729 0.0
Co510 Co 0.80676 0.48111 0.78247 0.0
Co511 Co 0.82321 0.39546 0.69123 0.0
C512 C 0.78339 0.511 0.65127 0.0
O513 O 0.78335 0.52457 0.70704 0.0
O514 O 0.7967 0.46018 0.63759 0.0
C515 C 0.74285 0.48474 0.8636 0.0
O516 O 0.7276 0.44381 0.82848 0.0
C517 C 0.79252 0.3358 0.60382 0.0
C518 C 0.84123 0.35153 0.53945 0.0
C519 C 0.80032 0.34778 0.54432 0.0
N520 N 0.82706 0.33759 0.63393 0.0
N521 N 0.85633 0.34316 0.59479 0.0
C522 C 0.75226 0.33864 0.6329 0.0
H523 H 0.75343 0.33255 0.68202 0.0
H524 H 0.73312 0.30326 0.61385 0.0
H525 H 0.73799 0.38196 0.6233 0.0
C526 C 0.8077 0.36716 0.86013 0.0
N527 N 0.80452 0.39738 0.80693 0.0
N528 N 0.79983 0.35949 0.76353 0.0
C529 C 0.79417 0.30485 0.78877 0.0
C530 C 0.7969 0.30787 0.85216 0.0
C531 C 0.83783 0.38406 0.9066 0.0
H532 H 0.84458 0.43175 0.90378 0.0
H533 H 0.82794 0.37144 0.95252 0.0
H534 H 0.86577 0.35949 0.89765 0.0
O535 O 0.86483 0.49948 0.7797 0.0
O536 O 0.87808 0.42842 0.71258 0.0
H537 H 0.81924 0.22161 0.77194 0.0
H538 H 0.76609 0.22527 0.76196 0.0
C539 C 0.79453 0.24879 0.75426 0.0
H540 H 0.79895 0.25605 0.70546 0.0
H541 H 0.88568 0.35199 0.60677 0.0
O542 O 0.77287 0.51385 0.84552 0.0
C543 C 0.88957 0.47061 0.74729 0.0
Co544 Co 0.55675 0.22749 0.03247 0.0
Co545 Co 0.57322 0.31316 0.94124 0.0
C546 C 0.53339 0.19762 0.90128 0.0
O547 O 0.53333 0.18405 0.95705 0.0
O548 O 0.54671 0.24843 0.8876 0.0
C549 C 0.49288 0.22388 0.11365 0.0
O550 O 0.47762 0.2647 0.07842 0.0
C551 C 0.54253 0.37282 0.85383 0.0
C552 C 0.59124 0.35708 0.78947 0.0
C553 C 0.55033 0.36083 0.79433 0.0
N554 N 0.57708 0.37102 0.88394 0.0
N555 N 0.60634 0.36545 0.8448 0.0
C556 C 0.50227 0.37 0.88292 0.0
H557 H 0.50344 0.37613 0.93203 0.0
H558 H 0.48313 0.40536 0.86384 0.0
H559 H 0.48801 0.32666 0.87334 0.0
C560 C 0.55769 0.34143 0.11014 0.0
N561 N 0.55451 0.31122 0.05694 0.0
N562 N 0.54984 0.34912 1.01354 0.0
C563 C 0.54418 0.40376 0.03878 0.0
C564 C 0.5469 0.40073 0.10217 0.0
C565 C 0.5878 0.32451 0.15662 0.0
H566 H 0.59453 0.27682 0.15381 0.0
H567 H 0.57792 0.33716 0.20254 0.0
H568 H 0.61576 0.34905 0.14767 0.0
O569 O 0.61482 0.20912 0.02969 0.0
O570 O 0.62809 0.2802 0.96259 0.0
H571 H 0.56927 0.48701 0.02199 0.0
H572 H 0.51612 0.48334 1.01195 0.0
C573 C 0.54456 0.45983 1.00429 0.0
H574 H 0.54901 0.45257 0.95549 0.0
H575 H 0.63569 0.35662 0.85678 0.0
O576 O 0.52289 0.19476 0.09555 0.0
C577 C 0.63956 0.238 0.99729 0.0
Co578 Co 0.76474 0.23111 0.03245 0.0
Co579 Co 0.74825 0.14544 0.94123 0.0
C580 C 0.78808 0.26098 0.90125 0.0
O581 O 0.78816 0.27454 0.95702 0.0
O582 O 0.77476 0.21017 0.88758 0.0
C583 C 0.82861 0.23471 0.11364 0.0
O584 O 0.84387 0.19388 0.07841 0.0
C585 C 0.77891 1.08576 0.85384 0.0
C586 C 0.73021 1.10157 0.78948 0.0
C587 C 0.77111 1.09784 0.79436 0.0
N588 N 0.74437 1.08754 0.88394 0.0
N589 N 0.7151 1.09315 0.8448 0.0
C590 C 0.81917 1.08851 0.88294 0.0
H591 H 0.818 1.08227 0.93204 0.0
H592 H 0.83831 1.05318 0.86378 0.0
H593 H 0.83344 0.13186 0.87346 0.0
C594 C 0.76381 0.11719 0.11013 0.0
N595 N 0.76697 0.14738 0.05692 0.0
N596 N 0.77163 0.10947 1.01353 0.0
C597 C 0.77727 1.05484 0.03879 0.0
C598 C 0.7746 1.0579 0.10218 0.0
C599 C 0.7337 0.13411 0.15661 0.0
H600 H 0.72697 0.18181 0.1538 0.0
H601 H 0.74357 0.12146 0.20252 0.0
H602 H 0.70574 0.10958 0.14764 0.0
O603 O 0.70666 0.24949 0.02968 0.0
O604 O 0.69338 0.17841 0.96258 0.0
H605 H 0.75222 0.97152 0.02217 0.0
H606 H 0.80534 0.97529 1.01185 0.0
C607 C 0.77686 0.99875 1.00432 0.0
H608 H 0.77229 1.00598 0.95554 0.0
H609 H 0.68575 1.10196 0.85678 0.0
O610 O 0.7986 0.26383 0.09554 0.0
C611 C 0.68192 0.22062 0.99729 0.0
Co612 Co 0.55676 0.2311 0.2591 0.0
Co613 Co 0.57323 0.14544 0.35033 0.0
C614 C 0.5334 0.26098 0.3903 0.0
O615 O 0.53335 0.27454 0.33453 0.0
O616 O 0.54671 0.21016 0.40398 0.0
C617 C 0.49284 0.23471 0.17796 0.0
O618 O 0.47761 0.19378 0.21309 0.0
C619 C 0.54256 1.08578 0.43774 0.0
C620 C 0.59126 1.10154 0.50211 0.0
C621 C 0.55036 1.09777 0.49724 0.0
N622 N 0.5771 1.08758 0.40764 0.0
N623 N 0.60636 1.09317 0.44679 0.0
C624 C 0.5023 1.08857 0.40865 0.0
H625 H 0.50347 1.08242 0.35954 0.0
H626 H 0.48316 1.05321 0.42774 0.0
H627 H 0.48803 0.1319 0.41821 0.0
C628 C 0.55771 0.11715 0.18143 0.0
N629 N 0.55453 0.14736 0.23464 0.0
N630 N 0.54985 0.10947 0.27803 0.0
C631 C 0.54421 1.05483 0.25279 0.0
C632 C 0.54692 1.05786 0.1894 0.0
C633 C 0.58783 0.13407 0.13496 0.0
H634 H 0.59458 0.18176 0.13778 0.0
H635 H 0.57795 0.12144 0.08904 0.0
H636 H 0.61578 0.10951 0.14392 0.0
O637 O 0.61483 0.24948 0.26186 0.0
O638 O 0.6281 0.17842 0.32899 0.0
H639 H 0.56926 0.97154 0.26954 0.0
H640 H 0.51612 0.97527 0.27966 0.0
C641 C 0.54458 0.99875 0.28728 0.0
H642 H 0.54907 1.00601 0.33607 0.0
H643 H 0.63572 1.10201 0.43481 0.0
O644 O 0.52286 0.26383 0.19605 0.0
C645 C 0.63957 0.22062 0.29427 0.0
Co646 Co 0.76474 0.22751 0.25911 0.0
Co647 Co 0.74827 0.31318 0.35033 0.0
C648 C 0.78809 0.19764 0.39031 0.0
O649 O 0.78815 0.18407 0.33454 0.0
O650 O 0.77478 0.24846 0.40399 0.0
C651 C 0.82865 0.22389 0.17796 0.0
O652 O 0.84389 0.26483 0.21307 0.0
C653 C 0.77893 0.37285 0.43772 0.0
C654 C 0.73022 0.35705 0.50206 0.0
C655 C 0.77112 0.36078 0.4972 0.0
N656 N 0.74439 0.37108 0.40761 0.0
N657 N 0.71512 0.36547 0.44674 0.0
C658 C 0.81919 0.37009 0.40863 0.0
H659 H 0.81802 0.3763 0.35953 0.0
H660 H 0.83832 0.40543 0.42777 0.0
H661 H 0.83346 0.32675 0.41814 0.0
C662 C 0.7638 0.34144 0.18142 0.0
N663 N 0.76697 0.31124 0.23463 0.0
N664 N 0.77164 0.34914 0.27802 0.0
C665 C 0.7773 0.40378 0.25277 0.0
C666 C 0.77461 0.40073 0.18938 0.0
C667 C 0.73367 0.32454 0.13496 0.0
H668 H 0.72691 0.27685 0.13778 0.0
H669 H 0.74355 0.33716 0.08904 0.0
H670 H 0.70573 0.34911 0.14392 0.0
O671 O 0.70667 0.20912 0.26187 0.0
O672 O 0.6934 0.2802 0.32898 0.0
H673 H 0.75224 0.48708 0.26942 0.0
H674 H 0.80537 0.48333 0.27968 0.0
C675 C 0.7769 0.45986 0.28724 0.0
H676 H 0.77236 0.45262 0.33602 0.0
H677 H 0.68576 0.35667 0.43475 0.0
O678 O 0.79864 0.19477 0.19605 0.0
C679 C 0.68193 0.238 0.29427 0.0
Co680 Co 0.51475 0.9811 1.00911 0.0
Co681 Co 0.49827 0.89544 0.10033 0.0
C682 C 0.53811 1.01097 0.1403 0.0
O683 O 0.53817 1.02454 0.08453 0.0
O684 O 0.52479 0.96016 0.15398 0.0
C685 C 0.57862 0.9847 0.92793 0.0
O686 O 0.59388 0.94387 0.96315 0.0
C687 C 0.52894 0.83576 0.18773 0.0
C688 C 0.48023 0.85154 0.25209 0.0
C689 C 0.52114 0.84777 0.24723 0.0
N690 N 0.49439 0.83757 0.15763 0.0
N691 N 0.46513 0.84317 0.19677 0.0
C692 C 0.5692 0.83854 0.15865 0.0
H693 H 0.56802 0.83235 0.10954 0.0
H694 H 0.58833 0.80319 0.17776 0.0
H695 H 0.58347 0.88188 0.16818 0.0
C696 C 0.51381 0.86717 0.93143 0.0
N697 N 0.51698 0.89737 0.98464 0.0
N698 N 0.52165 0.85947 0.02803 0.0
C699 C 0.52729 0.80483 1.00278 0.0
C700 C 0.52459 0.80787 0.93939 0.0
C701 C 0.4837 0.8841 0.88495 0.0
H702 H 0.47697 0.9318 0.88776 0.0
H703 H 0.49358 0.87145 0.83904 0.0
H704 H 0.45574 0.85957 0.89391 0.0
O705 O 0.45668 0.99949 1.01188 0.0
O706 O 0.4434 0.92842 0.07899 0.0
H707 H 0.50224 0.72153 1.01947 0.0
H708 H 0.55537 0.72528 0.02968 0.0
C709 C 0.5269 0.74875 0.03726 0.0
H710 H 0.52238 0.756 0.08605 0.0
H711 H 0.43578 0.852 0.18478 0.0
O712 O 0.54861 1.01383 0.94602 0.0
C713 C 0.43194 0.97062 0.04428 0.0
Co714 Co 0.30676 0.97751 1.00912 0.0
Co715 Co 0.32325 1.06319 0.10034 0.0
C716 C 0.28342 0.94764 0.14031 0.0
O717 O 0.28334 0.93408 0.08454 0.0
O718 O 0.29674 0.99846 0.15399 0.0
C719 C 0.24289 0.97392 0.92793 0.0
O720 O 0.22764 1.01475 0.96315 0.0
C721 C 0.29259 0.12286 0.18772 0.0
C722 C 0.34129 0.10706 0.25209 0.0
C723 C 0.30039 0.11079 0.24721 0.0
N724 N 0.32713 0.12108 0.15763 0.0
N725 N 0.3564 0.11547 0.19677 0.0
C726 C 0.25233 0.12011 0.15863 0.0
H727 H 0.2535 0.12635 0.10953 0.0
H728 H 0.23319 0.15544 0.17778 0.0
H729 H 0.23806 1.07676 0.16811 0.0
C730 C 0.3077 1.09143 0.93143 0.0
N731 N 0.30453 1.06124 0.98465 0.0
N732 N 0.29987 1.09915 0.02804 0.0
C733 C 0.29423 0.15379 1.00278 0.0
C734 C 0.2969 0.15073 0.93939 0.0
C735 C 0.33781 1.07451 0.88496 0.0
H736 H 0.34454 1.02682 0.88777 0.0
H737 H 0.32793 1.08717 0.83904 0.0
H738 H 0.36577 1.09905 0.89393 0.0
O739 O 0.36484 0.95913 1.01189 0.0
O740 O 0.37812 1.03021 0.07899 0.0
H741 H 0.31929 0.2371 1.01941 0.0
H742 H 0.26616 0.23334 0.02971 0.0
C743 C 0.29464 0.20987 0.03725 0.0
H744 H 0.2992 0.20264 0.08603 0.0
H745 H 0.38575 0.10667 0.18479 0.0
O746 O 0.2729 0.94479 0.94602 0.0
C747 C 0.38958 0.988 0.04428 0.0
Co748 Co 0.51475 0.9775 0.78246 0.0
Co749 Co 0.49828 1.06317 0.69124 0.0
C750 C 0.5381 0.94763 0.65126 0.0
O751 O 0.53815 0.93406 0.70703 0.0
O752 O 0.52479 0.99844 0.63759 0.0
C753 C 0.57866 0.97388 0.86361 0.0
O754 O 0.5939 1.01481 0.82849 0.0
C755 C 0.52895 0.12283 0.60384 0.0
C756 C 0.48025 0.10705 0.53948 0.0
C757 C 0.52115 0.11077 0.54436 0.0
N758 N 0.49441 0.12106 0.63394 0.0
N759 N 0.46515 0.11546 0.5948 0.0
C760 C 0.56921 0.12005 0.63294 0.0
H761 H 0.56804 0.12624 0.68205 0.0
H762 H 0.58835 0.1554 0.61382 0.0
H763 H 0.58348 1.07671 0.62342 0.0
C764 C 0.5138 1.09143 0.86014 0.0
N765 N 0.51698 1.06123 0.80693 0.0
N766 N 0.52165 1.09913 0.76354 0.0
C767 C 0.52731 0.15377 0.7888 0.0
C768 C 0.52461 0.15072 0.85218 0.0
C769 C 0.48368 1.07453 0.9066 0.0
H770 H 0.47692 1.02684 0.90378 0.0
H771 H 0.49356 1.08715 0.95253 0.0
H772 H 0.45574 1.0991 0.89765 0.0
O773 O 0.45667 0.95913 0.7797 0.0
O774 O 0.4434 1.0302 0.71258 0.0
H775 H 0.50224 0.23706 0.77209 0.0
H776 H 0.55538 0.23334 0.76192 0.0
C777 C 0.52691 0.20985 0.75431 0.0
H778 H 0.5224 0.2026 0.70553 0.0
H779 H 0.43579 0.10666 0.60678 0.0
O780 O 0.54864 0.94476 0.84552 0.0
C781 C 0.43193 0.988 0.74729 0.0
Co782 Co 0.30676 0.98112 0.78246 0.0
Co783 Co 0.32324 0.89545 0.69124 0.0
C784 C 0.28342 1.01099 0.65125 0.0
O785 O 0.28335 1.02455 0.70703 0.0
O786 O 0.29672 0.96017 0.63758 0.0
C787 C 0.24285 0.98474 0.86361 0.0
O788 O 0.22761 0.9438 0.82849 0.0
C789 C 0.29257 0.83578 0.60385 0.0
C790 C 0.34128 0.85158 0.5395 0.0
C791 C 0.30038 0.84785 0.54437 0.0
N792 N 0.32711 0.83755 0.63396 0.0
N793 N 0.35638 0.84316 0.59482 0.0
C794 C 0.25231 0.83853 0.63294 0.0
H795 H 0.25348 0.83232 0.68204 0.0
H796 H 0.23318 0.80319 0.6138 0.0
H797 H 0.23804 0.88188 0.62343 0.0
C798 C 0.3077 0.86719 0.86015 0.0
N799 N 0.30453 0.89739 0.80694 0.0
N800 N 0.29986 0.85949 0.76354 0.0
C801 C 0.29421 0.80485 0.7888 0.0
C802 C 0.2969 0.8079 0.85219 0.0
C803 C 0.33783 0.88409 0.90661 0.0
H804 H 0.34459 0.93178 0.90379 0.0
H805 H 0.32795 0.87146 0.95253 0.0
H806 H 0.36577 0.85952 0.89765 0.0
O807 O 0.36484 0.9995 0.7797 0.0
O808 O 0.3781 0.92843 0.71259 0.0
H809 H 0.31926 0.72155 0.77214 0.0
H810 H 0.26614 0.72529 0.76189 0.0
C811 C 0.29461 0.74876 0.75433 0.0
H812 H 0.29914 0.756 0.70554 0.0
H813 H 0.38574 0.85196 0.60681 0.0
O814 O 0.27287 1.01386 0.84551 0.0
C815 C 0.38958 0.97063 0.7473 0.0
Co816 Co 0.55676 0.7275 0.53247 0.0
Co817 Co 0.57323 0.81317 0.44124 0.0
C818 C 0.5334 0.69762 0.40127 0.0
O819 O 0.53334 0.68406 0.45704 0.0
O820 O 0.54672 0.74843 0.3876 0.0
C821 C 0.49288 0.72388 0.61364 0.0
O822 O 0.47762 0.7647 0.5784 0.0
C823 C 0.54254 0.87281 0.35383 0.0
C824 C 0.59124 0.85706 0.28947 0.0
C825 C 0.55034 0.86077 0.29435 0.0
N826 N 0.57708 0.87105 0.38394 0.0
N827 N 0.60635 0.86547 0.34479 0.0
C828 C 0.50228 0.87001 0.38293 0.0
H829 H 0.50345 0.87618 0.43204 0.0
H830 H 0.48314 0.90537 0.36383 0.0
H831 H 0.48801 0.82668 0.37338 0.0
C832 C 0.55768 0.84143 0.61014 0.0
N833 N 0.55451 0.81123 0.55693 0.0
N834 N 0.54985 0.84912 0.51353 0.0
C835 C 0.54419 0.90376 0.53878 0.0
C836 C 0.54688 0.90072 0.60217 0.0
C837 C 0.5878 0.82452 0.65662 0.0
H838 H 0.59453 0.77682 0.6538 0.0
H839 H 0.57791 0.83716 0.70253 0.0
H840 H 0.61575 0.84907 0.64766 0.0
O841 O 0.61483 0.70913 0.52969 0.0
O842 O 0.6281 0.7802 0.46258 0.0
H843 H 0.56928 0.98702 0.52203 0.0
H844 H 0.51613 0.98335 0.51194 0.0
C845 C 0.54458 0.95984 0.50429 0.0
H846 H 0.54905 0.95258 0.4555 0.0
H847 H 0.6357 0.85667 0.35677 0.0
O848 O 0.5229 0.69476 0.59555 0.0
C849 C 0.63957 0.738 0.49728 0.0
Co850 Co 0.76474 0.73111 0.53245 0.0
Co851 Co 0.74826 0.64544 0.44123 0.0
C852 C 0.78809 0.76099 0.40125 0.0
O853 O 0.78817 0.77455 0.45703 0.0
O854 O 0.77477 0.71017 0.38758 0.0
C855 C 0.82862 0.73471 0.61364 0.0
O856 O 0.84387 0.69388 0.57842 0.0
C857 C 0.77893 0.58578 0.35384 0.0
C858 C 0.73023 0.60157 0.28948 0.0
C859 C 0.77113 0.59784 0.29436 0.0
N860 N 0.74439 0.58755 0.38394 0.0
N861 N 0.71512 0.59315 0.34479 0.0
C862 C 0.81919 0.58853 0.38294 0.0
H863 H 0.81802 0.58231 0.43204 0.0
H864 H 0.83833 0.5532 0.3638 0.0
H865 H 0.83346 0.63188 0.37344 0.0
C866 C 0.76381 0.61719 0.61013 0.0
N867 N 0.76698 0.64739 0.55692 0.0
N868 N 0.77164 0.60948 0.51353 0.0
C869 C 0.77729 0.55484 0.53879 0.0
C870 C 0.77461 0.5579 0.60217 0.0
C871 C 0.7337 0.6341 0.6566 0.0
H872 H 0.72696 0.6818 0.6538 0.0
H873 H 0.74357 0.62145 0.70252 0.0
H874 H 0.70574 0.60957 0.64763 0.0
O875 O 0.70667 0.7495 0.52967 0.0
O876 O 0.69339 0.67842 0.46257 0.0
H877 H 0.75223 0.47154 0.52213 0.0
H878 H 0.80535 0.47528 0.51188 0.0
C879 C 0.77688 0.49876 0.50431 0.0
H880 H 0.77234 0.506 0.45553 0.0
H881 H 0.68577 0.60196 0.35677 0.0
O882 O 0.79861 0.76384 0.59554 0.0
C883 C 0.68193 0.72062 0.49728 0.0
Co884 Co 0.55676 0.73111 0.7591 0.0
Co885 Co 0.57322 0.64545 0.85033 0.0
C886 C 0.5334 0.76099 0.8903 0.0
O887 O 0.53335 0.77455 0.83453 0.0
O888 O 0.54671 0.71017 0.90398 0.0
C889 C 0.49284 0.73471 0.67795 0.0
O890 O 0.47761 0.69378 0.71307 0.0
C891 C 0.54254 0.58579 0.93774 0.0
C892 C 0.59125 0.60153 1.00211 0.0
C893 C 0.55035 0.59777 0.99724 0.0
N894 N 0.57709 0.58759 0.90764 0.0
N895 N 0.60635 0.59317 0.94678 0.0
C896 C 0.50228 0.58861 0.90866 0.0
H897 H 0.50345 0.5825 0.85954 0.0
H898 H 0.48315 0.55323 0.92773 0.0
H899 H 0.48801 0.63194 0.91824 0.0
C900 C 0.55771 0.61716 0.68143 0.0
N901 N 0.55453 0.64737 0.73463 0.0
N902 N 0.54984 0.60948 0.77803 0.0
C903 C 0.54419 0.55484 0.75279 0.0
C904 C 0.54692 0.55786 0.68941 0.0
C905 C 0.58783 0.63407 0.63497 0.0
H906 H 0.59458 0.68176 0.63778 0.0
H907 H 0.57795 0.62143 0.58904 0.0
H908 H 0.61578 0.6095 0.64392 0.0
O909 O 0.61483 0.74949 0.76186 0.0
O910 O 0.62809 0.67843 0.82899 0.0
H911 H 0.56927 0.47159 0.7696 0.0
H912 H 0.51611 0.47526 0.77962 0.0
C913 C 0.54456 0.49877 0.78729 0.0
H914 H 0.549 0.50604 0.83609 0.0
H915 H 0.6357 0.602 0.9348 0.0
O916 O 0.52286 0.76383 0.69604 0.0
C917 C 0.63957 0.72062 0.79427 0.0
Co918 Co 0.76474 0.7275 0.7591 0.0
Co919 Co 0.74827 0.81317 0.85033 0.0
C920 C 0.78809 0.69763 0.89031 0.0
O921 O 0.78815 0.68407 0.83454 0.0
O922 O 0.77479 0.74845 0.90399 0.0
C923 C 0.82865 0.72389 0.67796 0.0
O924 O 0.84389 0.76482 0.71308 0.0
C925 C 0.77893 0.87285 0.93772 0.0
C926 C 0.73022 0.85704 1.00207 0.0
C927 C 0.77112 0.86078 0.9972 0.0
N928 N 0.74438 0.87107 0.90761 0.0
N929 N 0.71512 0.86546 0.94674 0.0
C930 C 0.81919 0.87009 0.90863 0.0
H931 H 0.81802 0.8763 0.85953 0.0
H932 H 0.83832 0.90544 0.92777 0.0
H933 H 0.83346 0.82675 0.91814 0.0
C934 C 0.7638 0.84143 0.68142 0.0
N935 N 0.76697 0.81123 0.73463 0.0
N936 N 0.77164 0.84914 0.77802 0.0
C937 C 0.77729 0.90377 0.75277 0.0
C938 C 0.77461 0.90072 0.68938 0.0
C939 C 0.73367 0.82453 0.63496 0.0
H940 H 0.72692 0.77684 0.63777 0.0
H941 H 0.74355 0.83716 0.58903 0.0
H942 H 0.70573 0.8491 0.64392 0.0
O943 O 0.70667 0.70912 0.76187 0.0
O944 O 0.6934 0.78019 0.82898 0.0
H945 H 0.75224 0.98708 0.76942 0.0
H946 H 0.80536 0.98333 0.77968 0.0
C947 C 0.77689 0.95986 0.78724 0.0
H948 H 0.77235 0.95262 0.83602 0.0
H949 H 0.68576 0.85666 0.93476 0.0
O950 O 0.79863 0.69477 0.69605 0.0
C951 C 0.68193 0.73799 0.79427 0.0
Co952 Co 0.51475 0.4811 0.50911 0.0
Co953 Co 0.49827 0.39543 0.60034 0.0
C954 C 0.5381 0.51097 0.64031 0.0
O955 O 0.53818 0.52453 0.58454 0.0
O956 O 0.52478 0.46016 0.65399 0.0
C957 C 0.57863 0.4847 0.42793 0.0
O958 O 0.59388 0.44387 0.46316 0.0
C959 C 0.52894 0.33577 0.68773 0.0
C960 C 0.48023 0.35155 0.75209 0.0
C961 C 0.52113 0.34783 0.74721 0.0
N962 N 0.49439 0.33754 0.65762 0.0
N963 N 0.46513 0.34314 0.69676 0.0
C964 C 0.5692 0.33853 0.65864 0.0
H965 H 0.56802 0.33232 0.60954 0.0
H966 H 0.58833 0.30319 0.67778 0.0
H967 H 0.58346 0.38187 0.66815 0.0
C968 C 0.51382 0.36717 0.43143 0.0
N969 N 0.51699 0.39737 0.48465 0.0
N970 N 0.52165 0.35946 0.52804 0.0
C971 C 0.5273 0.30483 0.50278 0.0
C972 C 0.52462 0.30788 0.4394 0.0
C973 C 0.48371 0.38409 0.38496 0.0
H974 H 0.47697 0.43179 0.38777 0.0
H975 H 0.49359 0.37144 0.33904 0.0
H976 H 0.45575 0.35955 0.39392 0.0
O977 O 0.45668 0.49948 0.51189 0.0
O978 O 0.4434 0.42841 0.57898 0.0
H979 H 0.50224 0.22153 0.51945 0.0
H980 H 0.55537 0.22527 0.52969 0.0
C981 C 0.5269 0.24874 0.53726 0.0
H982 H 0.52236 0.25598 0.58604 0.0
H983 H 0.43577 0.35194 0.68477 0.0
O984 O 0.54862 0.51382 0.44603 0.0
C985 C 0.43194 0.47061 0.54428 0.0
Co986 Co 0.30676 0.47751 0.50911 0.0
Co987 Co 0.32325 0.56319 0.60034 0.0
C988 C 0.28342 0.44764 0.64031 0.0
O989 O 0.28334 0.43408 0.58454 0.0
O990 O 0.29674 0.49846 0.65399 0.0
C991 C 0.24289 0.47392 0.42793 0.0
O992 O 0.22763 0.51475 0.46315 0.0
C993 C 0.29259 0.62286 0.68772 0.0
C994 C 0.34129 0.60706 0.75209 0.0
C995 C 0.30039 0.61079 0.74721 0.0
N996 N 0.32713 0.62108 0.65762 0.0
N997 N 0.3564 0.61547 0.69677 0.0
C998 C 0.25233 0.6201 0.65863 0.0
H999 H 0.2535 0.62633 0.60953 0.0
H1000 H 0.23319 0.65543 0.67778 0.0
H1001 H 0.23806 0.57675 0.66812 0.0
C1002 C 0.30769 0.59144 0.43143 0.0
N1003 N 0.30453 0.56124 0.48465 0.0
N1004 N 0.29987 0.59915 0.52804 0.0
C1005 C 0.29422 0.65379 0.50278 0.0
C1006 C 0.2969 0.65073 0.43939 0.0
C1007 C 0.33781 0.57452 0.38496 0.0
H1008 H 0.34454 0.52682 0.38776 0.0
H1009 H 0.32793 0.58717 0.33904 0.0
H1010 H 0.36576 0.59906 0.39392 0.0
O1011 O 0.36484 0.45913 0.51189 0.0
O1012 O 0.37812 0.53021 0.57899 0.0
H1013 H 0.31928 0.73709 0.51941 0.0
H1014 H 0.26616 0.73334 0.5297 0.0
C1015 C 0.29464 0.70987 0.53725 0.0
H1016 H 0.29919 0.70264 0.58603 0.0
H1017 H 0.38575 0.60667 0.68479 0.0
O1018 O 0.2729 0.44479 0.44602 0.0
C1019 C 0.38958 0.488 0.54428 0.0
Co1020 Co 0.51475 0.47749 0.28247 0.0
Co1021 Co 0.49828 0.56316 0.19124 0.0
C1022 C 0.53809 0.44762 0.15126 0.0
O1023 O 0.53815 0.43405 0.20704 0.0
O1024 O 0.52478 0.49844 0.13759 0.0
C1025 C 0.57866 0.47387 0.36361 0.0
O1026 O 0.5939 0.5148 0.3285 0.0
C1027 C 0.52895 0.62282 0.10385 0.0
C1028 C 0.48024 0.60705 0.03949 0.0
C1029 C 0.52115 0.61077 0.04436 0.0
N1030 N 0.49441 0.62105 0.13395 0.0
N1031 N 0.46514 0.61546 0.09481 0.0
C1032 C 0.56921 0.62004 0.13294 0.0
H1033 H 0.56804 0.62621 0.18205 0.0
H1034 H 0.58835 0.65539 0.11383 0.0
H1035 H 0.58348 0.5767 0.1234 0.0
C1036 C 0.51381 0.59143 0.36014 0.0
N1037 N 0.51699 0.56122 0.30694 0.0
N1038 N 0.52166 0.59912 0.26354 0.0
C1039 C 0.52732 0.65376 0.28879 0.0
C1040 C 0.52462 0.65072 0.35218 0.0
C1041 C 0.48369 0.57453 0.40661 0.0
H1042 H 0.47693 0.52684 0.40379 0.0
H1043 H 0.49357 0.58715 0.45253 0.0
H1044 H 0.45574 0.5991 0.39765 0.0
O1045 O 0.45667 0.45912 0.2797 0.0
O1046 O 0.44341 0.5302 0.21259 0.0
H1047 H 0.50223 0.73702 0.27207 0.0
H1048 H 0.55537 0.73333 0.26193 0.0
C1049 C 0.52692 0.70983 0.25431 0.0
H1050 H 0.52243 0.70258 0.20552 0.0
H1051 H 0.43579 0.60667 0.1068 0.0
O1052 O 0.54864 0.44476 0.34552 0.0
C1053 C 0.43193 0.488 0.2473 0.0
Co1054 Co 0.30676 0.48112 0.28246 0.0
Co1055 Co 0.32324 0.39545 0.19124 0.0
C1056 C 0.28342 0.51099 0.15126 0.0
O1057 O 0.28335 0.52455 0.20703 0.0
O1058 O 0.29672 0.46017 0.13758 0.0
C1059 C 0.24285 0.48474 0.36361 0.0
O1060 O 0.22761 0.4438 0.32849 0.0
C1061 C 0.29258 0.33578 0.10385 0.0
C1062 C 0.34129 0.35158 0.0395 0.0
C1063 C 0.30038 0.34785 0.04437 0.0
N1064 N 0.32712 0.33755 0.13396 0.0
N1065 N 0.35639 0.34316 0.09483 0.0
C1066 C 0.25232 0.33853 0.13293 0.0
H1067 H 0.25349 0.33232 0.18204 0.0
H1068 H 0.23318 0.30319 0.11379 0.0
H1069 H 0.23805 0.38188 0.12343 0.0
C1070 C 0.3077 0.36719 0.36015 0.0
N1071 N 0.30453 0.39739 0.30694 0.0
N1072 N 0.29986 0.35949 0.26354 0.0
C1073 C 0.29421 0.30485 0.2888 0.0
C1074 C 0.2969 0.3079 0.35219 0.0
C1075 C 0.33783 0.38409 0.40661 0.0
H1076 H 0.34459 0.43178 0.40379 0.0
H1077 H 0.32795 0.37147 0.45253 0.0
H1078 H 0.36577 0.35953 0.39765 0.0
O1079 O 0.36484 0.4995 0.2797 0.0
O1080 O 0.37811 0.42843 0.21259 0.0
H1081 H 0.31927 0.22155 0.27215 0.0
H1082 H 0.26614 0.22529 0.26189 0.0
C1083 C 0.29461 0.24876 0.25433 0.0
H1084 H 0.29915 0.256 0.20555 0.0
H1085 H 0.38574 0.35196 0.10682 0.0
O1086 O 0.27287 0.51385 0.34552 0.0
C1087 C 0.38958 0.47062 0.2473 0.0
loop_
_geom_bond_atom_site_label_1
_geom_bond_atom_site_label_2
_geom_bond_distance
_geom_bond_site_symmetry_2
_ccdc_geom_bond_type
Co0 O3 1.970 . S
Co0 N17 1.989 . S
Co0 O25 1.967 . S
Co0 O32 1.920 . S
Co1 O4 1.966 . S
Co1 N10 2.022 . S
Co1 N18 1.993 . S
Co1 O26 1.941 . S
C2 O3 1.258 . S
C2 O4 1.263 . S
O3 Co0 1.970 . S
O3 C2 1.258 . S
O4 Co1 1.966 . S
O4 C2 1.263 . S
C5 O6 1.235 1_455 S
C5 O32 1.289 . S
O6 C5 1.235 1_655 S
C7 C9 1.400 . S
C7 N10 1.351 . S
C7 C12 1.501 1_455 S
C8 C9 1.387 . S
C8 N11 1.341 . S
C9 C7 1.400 . S
C9 C8 1.387 . S
N10 Co1 2.022 . S
N10 C7 1.351 . S
N10 N11 1.365 . S
N11 C8 1.341 . S
N11 N10 1.365 . S
N11 H31 0.862 . S
C12 C7 1.501 1_655 S
C12 H13 0.961 . S
C12 H14 0.961 . S
C12 H15 0.960 . S
H13 C12 0.961 . S
H14 C12 0.961 . S
H15 C12 0.960 . S
C16 N17 1.342 . S
C16 C20 1.401 . S
C16 C21 1.499 . S
N17 Co0 1.989 . S
N17 C16 1.342 . S
N17 N18 1.388 . S
N18 Co1 1.993 . S
N18 N17 1.388 . S
N18 C19 1.346 . S
C19 N18 1.346 . S
C19 C20 1.396 . S
C19 C29 1.510 . S
C20 C16 1.401 . S
C20 C19 1.396 . S
C21 C16 1.499 . S
C21 H22 0.959 . S
C21 H23 0.960 1_455 S
C21 H24 0.961 . S
H22 C21 0.959 . S
H23 C21 0.960 1_655 S
H24 C21 0.961 . S
O25 Co0 1.967 . S
O25 C33 1.258 . S
O26 Co1 1.941 . S
O26 C33 1.266 . S
H27 C29 0.959 . S
H28 C29 0.961 1_655 S
C29 C19 1.510 . S
C29 H27 0.959 . S
C29 H28 0.961 1_455 S
C29 H30 0.960 . S
H30 C29 0.960 . S
H31 N11 0.862 . S
O32 Co0 1.920 . S
O32 C5 1.289 . S
C33 O25 1.258 . S
C33 O26 1.266 . S
Co34 O37 1.970 . S
Co34 N51 1.989 . S
Co34 O59 1.967 . S
Co34 O66 1.920 . S
Co35 O38 1.966 . S
Co35 N44 2.022 . S
Co35 N52 1.993 . S
Co35 O60 1.941 . S
C36 O37 1.258 . S
C36 O38 1.263 . S
O37 Co34 1.970 . S
O37 C36 1.258 . S
O38 Co35 1.966 . S
O38 C36 1.263 . S
C39 O40 1.235 . S
C39 O66 1.289 . S
O40 C39 1.235 . S
C41 C43 1.400 1_545 S
C41 N44 1.351 . S
C41 C46 1.501 . S
C42 C43 1.387 . S
C42 N45 1.341 . S
C43 C41 1.400 1_565 S
C43 C42 1.387 . S
N44 Co35 2.022 . S
N44 C41 1.351 . S
N44 N45 1.365 1_545 S
N45 C42 1.341 . S
N45 N44 1.365 1_565 S
N45 H65 0.862 . S
C46 C41 1.501 . S
C46 H47 0.961 . S
C46 H48 0.961 . S
C46 H49 0.960 . S
H47 C46 0.961 . S
H48 C46 0.961 . S
H49 C46 0.960 . S
C50 N51 1.342 . S
C50 C54 1.401 1_545 S
C50 C55 1.499 . S
N51 Co34 1.989 . S
N51 C50 1.342 . S
N51 N52 1.388 . S
N52 Co35 1.993 . S
N52 N51 1.388 . S
N52 C53 1.346 1_545 S
C53 N52 1.346 1_565 S
C53 C54 1.396 . S
C53 C63 1.510 . S
C54 C50 1.401 1_565 S
C54 C53 1.396 . S
C55 C50 1.499 . S
C55 H56 0.959 . S
C55 H57 0.960 . S
C55 H58 0.961 . S
H56 C55 0.959 . S
H57 C55 0.960 . S
H58 C55 0.961 . S
O59 Co34 1.967 . S
O59 C67 1.258 . S
O60 Co35 1.941 . S
O60 C67 1.266 . S
H61 C63 0.959 . S
H62 C63 0.961 . S
C63 C53 1.510 . S
C63 H61 0.959 . S
C63 H62 0.961 . S
C63 H64 0.960 . S
H64 C63 0.960 . S
H65 N45 0.862 . S
O66 Co34 1.920 . S
O66 C39 1.289 . S
C67 O59 1.258 . S
C67 O60 1.266 . S
Co68 O71 1.970 . S
Co68 N85 1.989 . S
Co68 O93 1.967 . S
Co68 O100 1.920 . S
Co69 O72 1.966 . S
Co69 N78 2.022 . S
Co69 N86 1.993 . S
Co69 O94 1.941 . S
C70 O71 1.258 . S
C70 O72 1.263 . S
O71 Co68 1.970 . S
O71 C70 1.258 . S
O72 Co69 1.966 . S
O72 C70 1.263 . S
C73 O74 1.235 1_455 S
C73 O100 1.289 . S
O74 C73 1.235 1_655 S
C75 C77 1.400 1_545 S
C75 N78 1.351 . S
C75 C80 1.501 1_455 S
C76 C77 1.387 . S
C76 N79 1.341 . S
C77 C75 1.400 1_565 S
C77 C76 1.387 . S
N78 Co69 2.022 . S
N78 C75 1.351 . S
N78 N79 1.365 1_545 S
N79 C76 1.341 . S
N79 N78 1.365 1_565 S
N79 H99 0.862 . S
C80 C75 1.501 1_655 S
C80 H81 0.961 . S
C80 H82 0.961 . S
C80 H83 0.960 1_556 S
H81 C80 0.961 . S
H82 C80 0.961 . S
H83 C80 0.960 1_554 S
C84 N85 1.342 . S
C84 C88 1.401 1_545 S
C84 C89 1.499 . S
N85 Co68 1.989 . S
N85 C84 1.342 . S
N85 N86 1.388 . S
N86 Co69 1.993 . S
N86 N85 1.388 . S
N86 C87 1.346 1_545 S
C87 N86 1.346 1_565 S
C87 C88 1.396 . S
C87 C97 1.510 . S
C88 C84 1.401 1_565 S
C88 C87 1.396 . S
C89 C84 1.499 . S
C89 H90 0.959 . S
C89 H91 0.960 1_455 S
C89 H92 0.961 . S
H90 C89 0.959 . S
H91 C89 0.960 1_655 S
H92 C89 0.961 . S
O93 Co68 1.967 . S
O93 C101 1.258 . S
O94 Co69 1.941 . S
O94 C101 1.266 . S
H95 C97 0.959 . S
H96 C97 0.961 1_655 S
C97 C87 1.510 . S
C97 H95 0.959 . S
C97 H96 0.961 1_455 S
C97 H98 0.960 . S
H98 C97 0.960 . S
H99 N79 0.862 . S
O100 Co68 1.920 . S
O100 C73 1.289 . S
C101 O93 1.258 . S
C101 O94 1.266 . S
Co102 O105 1.970 . S
Co102 N119 1.989 . S
Co102 O127 1.967 . S
Co102 O134 1.920 . S
Co103 O106 1.966 . S
Co103 N112 2.022 . S
Co103 N120 1.993 . S
Co103 O128 1.941 . S
C104 O105 1.258 . S
C104 O106 1.263 . S
O105 Co102 1.970 . S
O105 C104 1.258 . S
O106 Co103 1.966 . S
O106 C104 1.263 . S
C107 O108 1.235 . S
C107 O134 1.289 . S
O108 C107 1.235 . S
C109 C111 1.400 . S
C109 N112 1.351 . S
C109 C114 1.501 . S
C110 C111 1.387 . S
C110 N113 1.341 . S
C111 C109 1.400 . S
C111 C110 1.387 . S
N112 Co103 2.022 . S
N112 C109 1.351 . S
N112 N113 1.365 . S
N113 C110 1.341 . S
N113 N112 1.365 . S
N113 H133 0.862 . S
C114 C109 1.501 . S
C114 H115 0.961 . S
C114 H116 0.961 . S
C114 H117 0.960 1_556 S
H115 C114 0.961 . S
H116 C114 0.961 . S
H117 C114 0.960 1_554 S
C118 N119 1.342 . S
C118 C122 1.401 . S
C118 C123 1.499 . S
N119 Co102 1.989 . S
N119 C118 1.342 . S
N119 N120 1.388 . S
N120 Co103 1.993 . S
N120 N119 1.388 . S
N120 C121 1.346 . S
C121 N120 1.346 . S
C121 C122 1.396 . S
C121 C131 1.510 . S
C122 C118 1.401 . S
C122 C121 1.396 . S
C123 C118 1.499 . S
C123 H124 0.959 . S
C123 H125 0.960 . S
C123 H126 0.961 . S
H124 C123 0.959 . S
H125 C123 0.960 . S
H126 C123 0.961 . S
O127 Co102 1.967 . S
O127 C135 1.258 . S
O128 Co103 1.941 . S
O128 C135 1.266 . S
H129 C131 0.959 . S
H130 C131 0.961 . S
C131 C121 1.510 . S
C131 H129 0.959 . S
C131 H130 0.961 . S
C131 H132 0.960 . S
H132 C131 0.960 . S
H133 N113 0.862 . S
O134 Co102 1.920 . S
O134 C107 1.289 . S
C135 O127 1.258 . S
C135 O128 1.266 . S
Co136 O139 1.970 . S
Co136 N153 1.989 . S
Co136 O161 1.967 . S
Co136 O168 1.920 . S
Co137 O140 1.966 . S
Co137 N146 2.022 . S
Co137 N154 1.993 . S
Co137 O162 1.941 . S
C138 O139 1.258 . S
C138 O140 1.263 . S
O139 Co136 1.970 . S
O139 C138 1.258 . S
O140 Co137 1.966 . S
O140 C138 1.263 . S
C141 O142 1.235 1_655 S
C141 O168 1.289 . S
O142 C141 1.235 1_455 S
C143 C145 1.400 . S
C143 N146 1.351 . S
C143 C148 1.501 1_655 S
C144 C145 1.387 . S
C144 N147 1.341 . S
C145 C143 1.400 . S
C145 C144 1.387 . S
N146 Co137 2.022 . S
N146 C143 1.351 . S
N146 N147 1.365 . S
N147 C144 1.341 . S
N147 N146 1.365 . S
N147 H167 0.862 . S
C148 C143 1.501 1_455 S
C148 H149 0.961 . S
C148 H150 0.961 . S
C148 H151 0.960 . S
H149 C148 0.961 . S
H150 C148 0.961 . S
H151 C148 0.960 . S
C152 N153 1.342 . S
C152 C156 1.401 . S
C152 C157 1.499 . S
N153 Co136 1.989 . S
N153 C152 1.342 . S
N153 N154 1.388 . S
N154 Co137 1.993 . S
N154 N153 1.388 . S
N154 C155 1.346 . S
C155 N154 1.346 . S
C155 C156 1.396 . S
C155 C165 1.510 . S
C156 C152 1.401 . S
C156 C155 1.396 . S
C157 C152 1.499 . S
C157 H158 0.959 . S
C157 H159 0.960 1_655 S
C157 H160 0.961 . S
H158 C157 0.959 . S
H159 C157 0.960 1_455 S
H160 C157 0.961 . S
O161 Co136 1.967 . S
O161 C169 1.258 . S
O162 Co137 1.941 . S
O162 C169 1.266 . S
H163 C165 0.959 . S
H164 C165 0.961 1_455 S
C165 C155 1.510 . S
C165 H163 0.959 . S
C165 H164 0.961 1_655 S
C165 H166 0.960 . S
H166 C165 0.960 . S
H167 N147 0.862 . S
O168 Co136 1.920 . S
O168 C141 1.289 . S
C169 O161 1.258 . S
C169 O162 1.266 . S
Co170 O173 1.970 . S
Co170 N187 1.989 . S
Co170 O195 1.967 . S
Co170 O202 1.920 . S
Co171 O174 1.966 . S
Co171 N180 2.022 . S
Co171 N188 1.993 . S
Co171 O196 1.941 . S
C172 O173 1.258 . S
C172 O174 1.263 . S
O173 Co170 1.970 . S
O173 C172 1.258 . S
O174 Co171 1.966 . S
O174 C172 1.263 . S
C175 O176 1.235 . S
C175 O202 1.289 . S
O176 C175 1.235 . S
C177 C179 1.400 1_565 S
C177 N180 1.351 . S
C177 C182 1.501 . S
C178 C179 1.387 . S
C178 N181 1.341 . S
C179 C177 1.400 1_545 S
C179 C178 1.387 . S
N180 Co171 2.022 . S
N180 C177 1.351 . S
N180 N181 1.365 1_565 S
N181 C178 1.341 . S
N181 N180 1.365 1_545 S
N181 H201 0.862 . S
C182 C177 1.501 . S
C182 H183 0.961 . S
C182 H184 0.961 . S
C182 H185 0.960 . S
H183 C182 0.961 . S
H184 C182 0.961 . S
H185 C182 0.960 . S
C186 N187 1.342 . S
C186 C190 1.401 1_565 S
C186 C191 1.499 . S
N187 Co170 1.989 . S
N187 C186 1.342 . S
N187 N188 1.388 . S
N188 Co171 1.993 . S
N188 N187 1.388 . S
N188 C189 1.346 1_565 S
C189 N188 1.346 1_545 S
C189 C190 1.396 . S
C189 C199 1.510 . S
C190 C186 1.401 1_545 S
C190 C189 1.396 . S
C191 C186 1.499 . S
C191 H192 0.959 . S
C191 H193 0.960 . S
C191 H194 0.961 . S
H192 C191 0.959 . S
H193 C191 0.960 . S
H194 C191 0.961 . S
O195 Co170 1.967 . S
O195 C203 1.258 . S
O196 Co171 1.941 . S
O196 C203 1.266 . S
H197 C199 0.959 . S
H198 C199 0.961 . S
C199 C189 1.510 . S
C199 H197 0.959 . S
C199 H198 0.961 . S
C199 H200 0.960 . S
H200 C199 0.960 . S
H201 N181 0.862 . S
O202 Co170 1.920 . S
O202 C175 1.289 . S
C203 O195 1.258 . S
C203 O196 1.266 . S
Co204 O207 1.970 . S
Co204 N221 1.989 . S
Co204 O229 1.967 . S
Co204 O236 1.920 . S
Co205 O208 1.966 . S
Co205 N214 2.022 . S
Co205 N222 1.993 . S
Co205 O230 1.941 . S
C206 O207 1.258 . S
C206 O208 1.263 . S
O207 Co204 1.970 . S
O207 C206 1.258 . S
O208 Co205 1.966 . S
O208 C206 1.263 . S
C209 O210 1.235 1_655 S
C209 O236 1.289 . S
O210 C209 1.235 1_455 S
C211 C213 1.400 1_565 S
C211 N214 1.351 . S
C211 C216 1.501 1_655 S
C212 C213 1.387 . S
C212 N215 1.341 . S
C213 C211 1.400 1_545 S
C213 C212 1.387 . S
N214 Co205 2.022 . S
N214 C211 1.351 . S
N214 N215 1.365 1_565 S
N215 C212 1.341 . S
N215 N214 1.365 1_545 S
N215 H235 0.862 . S
C216 C211 1.501 1_455 S
C216 H217 0.961 . S
C216 H218 0.961 . S
C216 H219 0.960 1_554 S
H217 C216 0.961 . S
H218 C216 0.961 . S
H219 C216 0.960 1_556 S
C220 N221 1.342 . S
C220 C224 1.401 1_565 S
C220 C225 1.499 . S
N221 Co204 1.989 . S
N221 C220 1.342 . S
N221 N222 1.388 . S
N222 Co205 1.993 . S
N222 N221 1.388 . S
N222 C223 1.346 1_565 S
C223 N222 1.346 1_545 S
C223 C224 1.396 . S
C223 C233 1.510 . S
C224 C220 1.401 1_545 S
C224 C223 1.396 . S
C225 C220 1.499 . S
C225 H226 0.959 . S
C225 H227 0.960 1_655 S
C225 H228 0.961 . S
H226 C225 0.959 . S
H227 C225 0.960 1_455 S
H228 C225 0.961 . S
O229 Co204 1.967 . S
O229 C237 1.258 . S
O230 Co205 1.941 . S
O230 C237 1.266 . S
H231 C233 0.959 . S
H232 C233 0.961 1_455 S
C233 C223 1.510 . S
C233 H231 0.959 . S
C233 H232 0.961 1_655 S
C233 H234 0.960 . S
H234 C233 0.960 . S
H235 N215 0.862 . S
O236 Co204 1.920 . S
O236 C209 1.289 . S
C237 O229 1.258 . S
C237 O230 1.266 . S
Co238 O241 1.970 . S
Co238 N255 1.989 . S
Co238 O263 1.967 . S
Co238 O270 1.920 . S
Co239 O242 1.966 . S
Co239 N248 2.022 . S
Co239 N256 1.993 . S
Co239 O264 1.941 . S
C240 O241 1.258 . S
C240 O242 1.263 . S
O241 Co238 1.970 . S
O241 C240 1.258 . S
O242 Co239 1.966 . S
O242 C240 1.263 . S
C243 O244 1.235 . S
C243 O270 1.289 . S
O244 C243 1.235 . S
C245 C247 1.400 . S
C245 N248 1.351 . S
C245 C250 1.501 . S
C246 C247 1.387 . S
C246 N249 1.341 . S
C247 C245 1.400 . S
C247 C246 1.387 . S
N248 Co239 2.022 . S
N248 C245 1.351 . S
N248 N249 1.365 . S
N249 C246 1.341 . S
N249 N248 1.365 . S
N249 H269 0.862 . S
C250 C245 1.501 . S
C250 H251 0.961 . S
C250 H252 0.961 . S
C250 H253 0.960 1_554 S
H251 C250 0.961 . S
H252 C250 0.961 . S
H253 C250 0.960 1_556 S
C254 N255 1.342 . S
C254 C258 1.401 . S
C254 C259 1.499 . S
N255 Co238 1.989 . S
N255 C254 1.342 . S
N255 N256 1.388 . S
N256 Co239 1.993 . S
N256 N255 1.388 . S
N256 C257 1.346 . S
C257 N256 1.346 . S
C257 C258 1.396 . S
C257 C267 1.510 . S
C258 C254 1.401 . S
C258 C257 1.396 . S
C259 C254 1.499 . S
C259 H260 0.959 . S
C259 H261 0.960 . S
C259 H262 0.961 . S
H260 C259 0.959 . S
H261 C259 0.960 . S
H262 C259 0.961 . S
O263 Co238 1.967 . S
O263 C271 1.258 . S
O264 Co239 1.941 . S
O264 C271 1.266 . S
H265 C267 0.959 . S
H266 C267 0.961 . S
C267 C257 1.510 . S
C267 H265 0.959 . S
C267 H266 0.961 . S
C267 H268 0.960 . S
H268 C267 0.960 . S
H269 N249 0.862 . S
O270 Co238 1.920 . S
O270 C243 1.289 . S
C271 O263 1.258 . S
C271 O264 1.266 . S
Co272 O275 1.970 1_554 S
Co272 N289 1.989 . S
Co272 O297 1.967 1_554 S
Co272 O304 1.920 . S
Co273 O276 1.966 . S
Co273 N282 2.022 . S
Co273 N290 1.993 . S
Co273 O298 1.941 . S
C274 O275 1.258 . S
C274 O276 1.263 . S
O275 Co272 1.970 1_556 S
O275 C274 1.258 . S
O276 Co273 1.966 . S
O276 C274 1.263 . S
C277 O278 1.235 1_455 S
C277 O304 1.289 . S
O278 C277 1.235 1_655 S
C279 C281 1.400 . S
C279 N282 1.351 . S
C279 C284 1.501 1_455 S
C280 C281 1.387 . S
C280 N283 1.341 . S
C281 C279 1.400 . S
C281 C280 1.387 . S
N282 Co273 2.022 . S
N282 C279 1.351 . S
N282 N283 1.365 . S
N283 C280 1.341 . S
N283 N282 1.365 . S
N283 H303 0.862 . S
C284 C279 1.501 1_655 S
C284 H285 0.961 . S
C284 H286 0.961 . S
C284 H287 0.960 . S
H285 C284 0.961 . S
H286 C284 0.961 . S
H287 C284 0.960 . S
C288 N289 1.342 . S
C288 C292 1.401 . S
C288 C293 1.499 . S
N289 Co272 1.989 . S
N289 C288 1.342 . S
N289 N290 1.388 1_554 S
N290 Co273 1.993 . S
N290 N289 1.388 1_556 S
N290 C291 1.346 . S
C291 N290 1.346 . S
C291 C292 1.396 1_556 S
C291 C301 1.510 . S
C292 C288 1.401 . S
C292 C291 1.396 1_554 S
C293 C288 1.499 . S
C293 H294 0.959 . S
C293 H295 0.960 1_455 S
C293 H296 0.961 . S
H294 C293 0.959 . S
H295 C293 0.960 1_655 S
H296 C293 0.961 . S
O297 Co272 1.967 1_556 S
O297 C305 1.258 . S
O298 Co273 1.941 . S
O298 C305 1.266 . S
H299 C301 0.959 . S
H300 C301 0.961 1_655 S
C301 C291 1.510 . S
C301 H299 0.959 . S
C301 H300 0.961 1_455 S
C301 H302 0.960 . S
H302 C301 0.960 . S
H303 N283 0.862 . S
O304 Co272 1.920 . S
O304 C277 1.289 . S
C305 O297 1.258 . S
C305 O298 1.266 . S
Co306 O309 1.970 1_554 S
Co306 N323 1.989 . S
Co306 O331 1.967 1_554 S
Co306 O338 1.920 . S
Co307 O310 1.966 . S
Co307 N316 2.022 . S
Co307 N324 1.993 . S
Co307 O332 1.941 . S
C308 O309 1.258 . S
C308 O310 1.263 . S
O309 Co306 1.970 1_556 S
O309 C308 1.258 . S
O310 Co307 1.966 . S
O310 C308 1.263 . S
C311 O312 1.235 . S
C311 O338 1.289 . S
O312 C311 1.235 . S
C313 C315 1.400 . S
C313 N316 1.351 . S
C313 C318 1.501 . S
C314 C315 1.387 . S
C314 N317 1.341 . S
C315 C313 1.400 . S
C315 C314 1.387 . S
N316 Co307 2.022 . S
N316 C313 1.351 . S
N316 N317 1.365 . S
N317 C314 1.341 . S
N317 N316 1.365 . S
N317 H337 0.862 . S
C318 C313 1.501 . S
C318 H319 0.961 . S
C318 H320 0.961 . S
C318 H321 0.960 . S
H319 C318 0.961 . S
H320 C318 0.961 . S
H321 C318 0.960 . S
C322 N323 1.342 . S
C322 C326 1.401 . S
C322 C327 1.499 . S
N323 Co306 1.989 . S
N323 C322 1.342 . S
N323 N324 1.388 1_554 S
N324 Co307 1.993 . S
N324 N323 1.388 1_556 S
N324 C325 1.346 . S
C325 N324 1.346 . S
C325 C326 1.396 1_556 S
C325 C335 1.510 . S
C326 C322 1.401 . S
C326 C325 1.396 1_554 S
C327 C322 1.499 . S
C327 H328 0.959 . S
C327 H329 0.960 . S
C327 H330 0.961 . S
H328 C327 0.959 . S
H329 C327 0.960 . S
H330 C327 0.961 . S
O331 Co306 1.967 1_556 S
O331 C339 1.258 . S
O332 Co307 1.941 . S
O332 C339 1.266 . S
H333 C335 0.959 . S
H334 C335 0.961 . S
C335 C325 1.510 . S
C335 H333 0.959 . S
C335 H334 0.961 . S
C335 H336 0.960 . S
H336 C335 0.960 . S
H337 N317 0.862 . S
O338 Co306 1.920 . S
O338 C311 1.289 . S
C339 O331 1.258 . S
C339 O332 1.266 . S
Co340 O343 1.970 . S
Co340 N357 1.989 . S
Co340 O365 1.967 . S
Co340 O372 1.920 . S
Co341 O344 1.966 . S
Co341 N350 2.022 . S
Co341 N358 1.993 . S
Co341 O366 1.941 . S
C342 O343 1.258 . S
C342 O344 1.263 . S
O343 Co340 1.970 . S
O343 C342 1.258 . S
O344 Co341 1.966 . S
O344 C342 1.263 . S
C345 O346 1.235 1_455 S
C345 O372 1.289 . S
O346 C345 1.235 1_655 S
C347 C349 1.400 . S
C347 N350 1.351 . S
C347 C352 1.501 1_455 S
C348 C349 1.387 . S
C348 N351 1.341 . S
C349 C347 1.400 . S
C349 C348 1.387 . S
N350 Co341 2.022 . S
N350 C347 1.351 . S
N350 N351 1.365 . S
N351 C348 1.341 . S
N351 N350 1.365 . S
N351 H371 0.862 . S
C352 C347 1.501 1_655 S
C352 H353 0.961 . S
C352 H354 0.961 . S
C352 H355 0.960 . S
H353 C352 0.961 . S
H354 C352 0.961 . S
H355 C352 0.960 . S
C356 N357 1.342 . S
C356 C360 1.401 . S
C356 C361 1.499 . S
N357 Co340 1.989 . S
N357 C356 1.342 . S
N357 N358 1.388 . S
N358 Co341 1.993 . S
N358 N357 1.388 . S
N358 C359 1.346 . S
C359 N358 1.346 . S
C359 C360 1.396 . S
C359 C369 1.510 . S
C360 C356 1.401 . S
C360 C359 1.396 . S
C361 C356 1.499 . S
C361 H362 0.959 . S
C361 H363 0.960 1_455 S
C361 H364 0.961 . S
H362 C361 0.959 . S
H363 C361 0.960 1_655 S
H364 C361 0.961 . S
O365 Co340 1.967 . S
O365 C373 1.258 . S
O366 Co341 1.941 . S
O366 C373 1.266 . S
H367 C369 0.959 . S
H368 C369 0.961 1_655 S
C369 C359 1.510 . S
C369 H367 0.959 . S
C369 H368 0.961 1_455 S
C369 H370 0.960 . S
H370 C369 0.960 . S
H371 N351 0.862 . S
O372 Co340 1.920 . S
O372 C345 1.289 . S
C373 O365 1.258 . S
C373 O366 1.266 . S
Co374 O377 1.970 . S
Co374 N391 1.989 . S
Co374 O399 1.967 . S
Co374 O406 1.920 . S
Co375 O378 1.966 . S
Co375 N384 2.022 . S
Co375 N392 1.993 . S
Co375 O400 1.941 . S
C376 O377 1.258 . S
C376 O378 1.263 . S
O377 Co374 1.970 . S
O377 C376 1.258 . S
O378 Co375 1.966 . S
O378 C376 1.263 . S
C379 O380 1.235 . S
C379 O406 1.289 . S
O380 C379 1.235 . S
C381 C383 1.400 . S
C381 N384 1.351 . S
C381 C386 1.501 . S
C382 C383 1.387 . S
C382 N385 1.341 . S
C383 C381 1.400 . S
C383 C382 1.387 . S
N384 Co375 2.022 . S
N384 C381 1.351 . S
N384 N385 1.365 . S
N385 C382 1.341 . S
N385 N384 1.365 . S
N385 H405 0.862 . S
C386 C381 1.501 . S
C386 H387 0.961 . S
C386 H388 0.961 . S
C386 H389 0.960 . S
H387 C386 0.961 . S
H388 C386 0.961 . S
H389 C386 0.960 . S
C390 N391 1.342 . S
C390 C394 1.401 . S
C390 C395 1.499 . S
N391 Co374 1.989 . S
N391 C390 1.342 . S
N391 N392 1.388 . S
N392 Co375 1.993 . S
N392 N391 1.388 . S
N392 C393 1.346 . S
C393 N392 1.346 . S
C393 C394 1.396 . S
C393 C403 1.510 . S
C394 C390 1.401 . S
C394 C393 1.396 . S
C395 C390 1.499 . S
C395 H396 0.959 . S
C395 H397 0.960 . S
C395 H398 0.961 . S
H396 C395 0.959 . S
H397 C395 0.960 . S
H398 C395 0.961 . S
O399 Co374 1.967 . S
O399 C407 1.258 . S
O400 Co375 1.941 . S
O400 C407 1.266 . S
H401 C403 0.959 . S
H402 C403 0.961 . S
C403 C393 1.510 . S
C403 H401 0.959 . S
C403 H402 0.961 . S
C403 H404 0.960 . S
H404 C403 0.960 . S
H405 N385 0.862 . S
O406 Co374 1.920 . S
O406 C379 1.289 . S
C407 O399 1.258 . S
C407 O400 1.266 . S
Co408 O411 1.970 1_556 S
Co408 N425 1.989 . S
Co408 O433 1.967 1_556 S
Co408 O440 1.920 . S
Co409 O412 1.966 . S
Co409 N418 2.022 . S
Co409 N426 1.993 . S
Co409 O434 1.941 . S
C410 O411 1.258 . S
C410 O412 1.263 . S
O411 Co408 1.970 1_554 S
O411 C410 1.258 . S
O412 Co409 1.966 . S
O412 C410 1.263 . S
C413 O414 1.235 1_655 S
C413 O440 1.289 . S
O414 C413 1.235 1_455 S
C415 C417 1.400 . S
C415 N418 1.351 . S
C415 C420 1.501 1_655 S
C416 C417 1.387 . S
C416 N419 1.341 . S
C417 C415 1.400 . S
C417 C416 1.387 . S
N418 Co409 2.022 . S
N418 C415 1.351 . S
N418 N419 1.365 . S
N419 C416 1.341 . S
N419 N418 1.365 . S
N419 H439 0.862 . S
C420 C415 1.501 1_455 S
C420 H421 0.961 . S
C420 H422 0.961 . S
C420 H423 0.960 . S
H421 C420 0.961 . S
H422 C420 0.961 . S
H423 C420 0.960 . S
C424 N425 1.342 . S
C424 C428 1.401 . S
C424 C429 1.499 . S
N425 Co408 1.989 . S
N425 C424 1.342 . S
N425 N426 1.388 1_556 S
N426 Co409 1.993 . S
N426 N425 1.388 1_554 S
N426 C427 1.346 . S
C427 N426 1.346 . S
C427 C428 1.396 1_554 S
C427 C437 1.510 . S
C428 C424 1.401 . S
C428 C427 1.396 1_556 S
C429 C424 1.499 . S
C429 H430 0.959 . S
C429 H431 0.960 1_655 S
C429 H432 0.961 . S
H430 C429 0.959 . S
H431 C429 0.960 1_455 S
H432 C429 0.961 . S
O433 Co408 1.967 1_554 S
O433 C441 1.258 . S
O434 Co409 1.941 . S
O434 C441 1.266 . S
H435 C437 0.959 . S
H436 C437 0.961 1_455 S
C437 C427 1.510 . S
C437 H435 0.959 . S
C437 H436 0.961 1_655 S
C437 H438 0.960 . S
H438 C437 0.960 . S
H439 N419 0.862 . S
O440 Co408 1.920 . S
O440 C413 1.289 . S
C441 O433 1.258 . S
C441 O434 1.266 . S
Co442 O445 1.970 1_556 S
Co442 N459 1.989 . S
Co442 O467 1.967 1_556 S
Co442 O474 1.920 . S
Co443 O446 1.966 . S
Co443 N452 2.022 . S
Co443 N460 1.993 . S
Co443 O468 1.941 . S
C444 O445 1.258 . S
C444 O446 1.263 . S
O445 Co442 1.970 1_554 S
O445 C444 1.258 . S
O446 Co443 1.966 . S
O446 C444 1.263 . S
C447 O448 1.235 . S
C447 O474 1.289 . S
O448 C447 1.235 . S
C449 C451 1.400 . S
C449 N452 1.351 . S
C449 C454 1.501 . S
C450 C451 1.387 . S
C450 N453 1.341 . S
C451 C449 1.400 . S
C451 C450 1.387 . S
N452 Co443 2.022 . S
N452 C449 1.351 . S
N452 N453 1.365 . S
N453 C450 1.341 . S
N453 N452 1.365 . S
N453 H473 0.862 . S
C454 C449 1.501 . S
C454 H455 0.961 . S
C454 H456 0.961 . S
C454 H457 0.960 . S
H455 C454 0.961 . S
H456 C454 0.961 . S
H457 C454 0.960 . S
C458 N459 1.342 . S
C458 C462 1.401 . S
C458 C463 1.499 . S
N459 Co442 1.989 . S
N459 C458 1.342 . S
N459 N460 1.388 1_556 S
N460 Co443 1.993 . S
N460 N459 1.388 1_554 S
N460 C461 1.346 . S
C461 N460 1.346 . S
C461 C462 1.396 1_554 S
C461 C471 1.510 . S
C462 C458 1.401 . S
C462 C461 1.396 1_556 S
C463 C458 1.499 . S
C463 H464 0.959 . S
C463 H465 0.960 . S
C463 H466 0.961 . S
H464 C463 0.959 . S
H465 C463 0.960 . S
H466 C463 0.961 . S
O467 Co442 1.967 1_554 S
O467 C475 1.258 . S
O468 Co443 1.941 . S
O468 C475 1.266 . S
H469 C471 0.959 . S
H470 C471 0.961 . S
C471 C461 1.510 . S
C471 H469 0.959 . S
C471 H470 0.961 . S
C471 H472 0.960 . S
H472 C471 0.960 . S
H473 N453 0.862 . S
O474 Co442 1.920 . S
O474 C447 1.289 . S
C475 O467 1.258 . S
C475 O468 1.266 . S
Co476 O479 1.970 . S
Co476 N493 1.989 . S
Co476 O501 1.967 . S
Co476 O508 1.920 . S
Co477 O480 1.966 . S
Co477 N486 2.022 . S
Co477 N494 1.993 . S
Co477 O502 1.941 . S
C478 O479 1.258 . S
C478 O480 1.263 . S
O479 Co476 1.970 . S
O479 C478 1.258 . S
O480 Co477 1.966 . S
O480 C478 1.263 . S
C481 O482 1.235 1_655 S
C481 O508 1.289 . S
O482 C481 1.235 1_455 S
C483 C485 1.400 . S
C483 N486 1.351 . S
C483 C488 1.501 1_655 S
C484 C485 1.387 . S
C484 N487 1.341 . S
C485 C483 1.400 . S
C485 C484 1.387 . S
N486 Co477 2.022 . S
N486 C483 1.351 . S
N486 N487 1.365 . S
N487 C484 1.341 . S
N487 N486 1.365 . S
N487 H507 0.862 . S
C488 C483 1.501 1_455 S
C488 H489 0.961 . S
C488 H490 0.961 . S
C488 H491 0.960 . S
H489 C488 0.961 . S
H490 C488 0.961 . S
H491 C488 0.960 . S
C492 N493 1.342 . S
C492 C496 1.401 . S
C492 C497 1.499 . S
N493 Co476 1.989 . S
N493 C492 1.342 . S
N493 N494 1.388 . S
N494 Co477 1.993 . S
N494 N493 1.388 . S
N494 C495 1.346 . S
C495 N494 1.346 . S
C495 C496 1.396 . S
C495 C505 1.510 . S
C496 C492 1.401 . S
C496 C495 1.396 . S
C497 C492 1.499 . S
C497 H498 0.959 . S
C497 H499 0.960 1_655 S
C497 H500 0.961 . S
H498 C497 0.959 . S
H499 C497 0.960 1_455 S
H500 C497 0.961 . S
O501 Co476 1.967 . S
O501 C509 1.258 . S
O502 Co477 1.941 . S
O502 C509 1.266 . S
H503 C505 0.959 . S
H504 C505 0.961 1_455 S
C505 C495 1.510 . S
C505 H503 0.959 . S
C505 H504 0.961 1_655 S
C505 H506 0.960 . S
H506 C505 0.960 . S
H507 N487 0.862 . S
O508 Co476 1.920 . S
O508 C481 1.289 . S
C509 O501 1.258 . S
C509 O502 1.266 . S
Co510 O513 1.970 . S
Co510 N527 1.989 . S
Co510 O535 1.967 . S
Co510 O542 1.920 . S
Co511 O514 1.966 . S
Co511 N520 2.022 . S
Co511 N528 1.993 . S
Co511 O536 1.941 . S
C512 O513 1.258 . S
C512 O514 1.263 . S
O513 Co510 1.970 . S
O513 C512 1.258 . S
O514 Co511 1.966 . S
O514 C512 1.263 . S
C515 O516 1.235 . S
C515 O542 1.289 . S
O516 C515 1.235 . S
C517 C519 1.400 . S
C517 N520 1.351 . S
C517 C522 1.501 . S
C518 C519 1.387 . S
C518 N521 1.341 . S
C519 C517 1.400 . S
C519 C518 1.387 . S
N520 Co511 2.022 . S
N520 C517 1.351 . S
N520 N521 1.365 . S
N521 C518 1.341 . S
N521 N520 1.365 . S
N521 H541 0.862 . S
C522 C517 1.501 . S
C522 H523 0.961 . S
C522 H524 0.961 . S
C522 H525 0.960 . S
H523 C522 0.961 . S
H524 C522 0.961 . S
H525 C522 0.960 . S
C526 N527 1.342 . S
C526 C530 1.401 . S
C526 C531 1.499 . S
N527 Co510 1.989 . S
N527 C526 1.342 . S
N527 N528 1.388 . S
N528 Co511 1.993 . S
N528 N527 1.388 . S
N528 C529 1.346 . S
C529 N528 1.346 . S
C529 C530 1.396 . S
C529 C539 1.510 . S
C530 C526 1.401 . S
C530 C529 1.396 . S
C531 C526 1.499 . S
C531 H532 0.959 . S
C531 H533 0.960 . S
C531 H534 0.961 . S
H532 C531 0.959 . S
H533 C531 0.960 . S
H534 C531 0.961 . S
O535 Co510 1.967 . S
O535 C543 1.258 . S
O536 Co511 1.941 . S
O536 C543 1.266 . S
H537 C539 0.959 . S
H538 C539 0.961 . S
C539 C529 1.510 . S
C539 H537 0.959 . S
C539 H538 0.961 . S
C539 H540 0.960 . S
H540 C539 0.960 . S
H541 N521 0.862 . S
O542 Co510 1.920 . S
O542 C515 1.289 . S
C543 O535 1.258 . S
C543 O536 1.266 . S
Co544 O547 1.970 1_554 S
Co544 N561 1.989 . S
Co544 O569 1.967 1_554 S
Co544 O576 1.920 . S
Co545 O548 1.966 . S
Co545 N554 2.022 . S
Co545 N562 1.993 . S
Co545 O570 1.941 . S
C546 O547 1.258 . S
C546 O548 1.263 . S
O547 Co544 1.970 1_556 S
O547 C546 1.258 . S
O548 Co545 1.966 . S
O548 C546 1.263 . S
C549 O550 1.235 . S
C549 O576 1.289 . S
O550 C549 1.235 . S
C551 C553 1.400 . S
C551 N554 1.351 . S
C551 C556 1.501 . S
C552 C553 1.387 . S
C552 N555 1.341 . S
C553 C551 1.400 . S
C553 C552 1.387 . S
N554 Co545 2.022 . S
N554 C551 1.351 . S
N554 N555 1.365 . S
N555 C552 1.341 . S
N555 N554 1.365 . S
N555 H575 0.862 . S
C556 C551 1.501 . S
C556 H557 0.961 . S
C556 H558 0.961 . S
C556 H559 0.960 . S
H557 C556 0.961 . S
H558 C556 0.961 . S
H559 C556 0.960 . S
C560 N561 1.342 . S
C560 C564 1.401 . S
C560 C565 1.499 . S
N561 Co544 1.989 . S
N561 C560 1.342 . S
N561 N562 1.388 1_554 S
N562 Co545 1.993 . S
N562 N561 1.388 1_556 S
N562 C563 1.346 . S
C563 N562 1.346 . S
C563 C564 1.396 1_556 S
C563 C573 1.510 . S
C564 C560 1.401 . S
C564 C563 1.396 1_554 S
C565 C560 1.499 . S
C565 H566 0.959 . S
C565 H567 0.960 . S
C565 H568 0.961 . S
H566 C565 0.959 . S
H567 C565 0.960 . S
H568 C565 0.961 . S
O569 Co544 1.967 1_556 S
O569 C577 1.258 . S
O570 Co545 1.941 . S
O570 C577 1.266 . S
H571 C573 0.959 . S
H572 C573 0.961 . S
C573 C563 1.510 . S
C573 H571 0.959 . S
C573 H572 0.961 . S
C573 H574 0.960 . S
H574 C573 0.960 . S
H575 N555 0.862 . S
O576 Co544 1.920 . S
O576 C549 1.289 . S
C577 O569 1.258 . S
C577 O570 1.266 . S
Co578 O581 1.970 1_554 S
Co578 N595 1.989 . S
Co578 O603 1.967 1_554 S
Co578 O610 1.920 . S
Co579 O582 1.966 . S
Co579 N588 2.022 . S
Co579 N596 1.993 . S
Co579 O604 1.941 . S
C580 O581 1.258 . S
C580 O582 1.263 . S
O581 Co578 1.970 1_556 S
O581 C580 1.258 . S
O582 Co579 1.966 . S
O582 C580 1.263 . S
C583 O584 1.235 . S
C583 O610 1.289 . S
O584 C583 1.235 . S
C585 C587 1.400 1_545 S
C585 N588 1.351 . S
C585 C590 1.501 . S
C586 C587 1.387 . S
C586 N589 1.341 . S
C587 C585 1.400 1_565 S
C587 C586 1.387 . S
N588 Co579 2.022 . S
N588 C585 1.351 . S
N588 N589 1.365 1_545 S
N589 C586 1.341 . S
N589 N588 1.365 1_565 S
N589 H609 0.862 . S
C590 C585 1.501 . S
C590 H591 0.961 . S
C590 H592 0.961 . S
C590 H593 0.960 . S
H591 C590 0.961 . S
H592 C590 0.961 . S
H593 C590 0.960 . S
C594 N595 1.342 . S
C594 C598 1.401 1_545 S
C594 C599 1.499 . S
N595 Co578 1.989 . S
N595 C594 1.342 . S
N595 N596 1.388 1_554 S
N596 Co579 1.993 . S
N596 N595 1.388 1_556 S
N596 C597 1.346 1_545 S
C597 N596 1.346 1_565 S
C597 C598 1.396 1_556 S
C597 C607 1.510 . S
C598 C594 1.401 1_565 S
C598 C597 1.396 1_554 S
C599 C594 1.499 . S
C599 H600 0.959 . S
C599 H601 0.960 . S
C599 H602 0.961 . S
H600 C599 0.959 . S
H601 C599 0.960 . S
H602 C599 0.961 . S
O603 Co578 1.967 1_556 S
O603 C611 1.258 . S
O604 Co579 1.941 . S
O604 C611 1.266 . S
H605 C607 0.959 . S
H606 C607 0.961 . S
C607 C597 1.510 . S
C607 H605 0.959 . S
C607 H606 0.961 . S
C607 H608 0.960 . S
H608 C607 0.960 . S
H609 N589 0.862 . S
O610 Co578 1.920 . S
O610 C583 1.289 . S
C611 O603 1.258 . S
C611 O604 1.266 . S
Co612 O615 1.970 . S
Co612 N629 1.989 . S
Co612 O637 1.967 . S
Co612 O644 1.920 . S
Co613 O616 1.966 . S
Co613 N622 2.022 . S
Co613 N630 1.993 . S
Co613 O638 1.941 . S
C614 O615 1.258 . S
C614 O616 1.263 . S
O615 Co612 1.970 . S
O615 C614 1.258 . S
O616 Co613 1.966 . S
O616 C614 1.263 . S
C617 O618 1.235 . S
C617 O644 1.289 . S
O618 C617 1.235 . S
C619 C621 1.400 1_545 S
C619 N622 1.351 . S
C619 C624 1.501 . S
C620 C621 1.387 . S
C620 N623 1.341 . S
C621 C619 1.400 1_565 S
C621 C620 1.387 . S
N622 Co613 2.022 . S
N622 C619 1.351 . S
N622 N623 1.365 1_545 S
N623 C620 1.341 . S
N623 N622 1.365 1_565 S
N623 H643 0.862 . S
C624 C619 1.501 . S
C624 H625 0.961 . S
C624 H626 0.961 . S
C624 H627 0.960 . S
H625 C624 0.961 . S
H626 C624 0.961 . S
H627 C624 0.960 . S
C628 N629 1.342 . S
C628 C632 1.401 1_545 S
C628 C633 1.499 . S
N629 Co612 1.989 . S
N629 C628 1.342 . S
N629 N630 1.388 . S
N630 Co613 1.993 . S
N630 N629 1.388 . S
N630 C631 1.346 1_545 S
C631 N630 1.346 1_565 S
C631 C632 1.396 . S
C631 C641 1.510 . S
C632 C628 1.401 1_565 S
C632 C631 1.396 . S
C633 C628 1.499 . S
C633 H634 0.959 . S
C633 H635 0.960 . S
C633 H636 0.961 . S
H634 C633 0.959 . S
H635 C633 0.960 . S
H636 C633 0.961 . S
O637 Co612 1.967 . S
O637 C645 1.258 . S
O638 Co613 1.941 . S
O638 C645 1.266 . S
H639 C641 0.959 . S
H640 C641 0.961 . S
C641 C631 1.510 . S
C641 H639 0.959 . S
C641 H640 0.961 . S
C641 H642 0.960 . S
H642 C641 0.960 . S
H643 N623 0.862 . S
O644 Co612 1.920 . S
O644 C617 1.289 . S
C645 O637 1.258 . S
C645 O638 1.266 . S
Co646 O649 1.970 . S
Co646 N663 1.989 . S
Co646 O671 1.967 . S
Co646 O678 1.920 . S
Co647 O650 1.966 . S
Co647 N656 2.022 . S
Co647 N664 1.993 . S
Co647 O672 1.941 . S
C648 O649 1.258 . S
C648 O650 1.263 . S
O649 Co646 1.970 . S
O649 C648 1.258 . S
O650 Co647 1.966 . S
O650 C648 1.263 . S
C651 O652 1.235 . S
C651 O678 1.289 . S
O652 C651 1.235 . S
C653 C655 1.400 . S
C653 N656 1.351 . S
C653 C658 1.501 . S
C654 C655 1.387 . S
C654 N657 1.341 . S
C655 C653 1.400 . S
C655 C654 1.387 . S
N656 Co647 2.022 . S
N656 C653 1.351 . S
N656 N657 1.365 . S
N657 C654 1.341 . S
N657 N656 1.365 . S
N657 H677 0.862 . S
C658 C653 1.501 . S
C658 H659 0.961 . S
C658 H660 0.961 . S
C658 H661 0.960 . S
H659 C658 0.961 . S
H660 C658 0.961 . S
H661 C658 0.960 . S
C662 N663 1.342 . S
C662 C666 1.401 . S
C662 C667 1.499 . S
N663 Co646 1.989 . S
N663 C662 1.342 . S
N663 N664 1.388 . S
N664 Co647 1.993 . S
N664 N663 1.388 . S
N664 C665 1.346 . S
C665 N664 1.346 . S
C665 C666 1.396 . S
C665 C675 1.510 . S
C666 C662 1.401 . S
C666 C665 1.396 . S
C667 C662 1.499 . S
C667 H668 0.959 . S
C667 H669 0.960 . S
C667 H670 0.961 . S
H668 C667 0.959 . S
H669 C667 0.960 . S
H670 C667 0.961 . S
O671 Co646 1.967 . S
O671 C679 1.258 . S
O672 Co647 1.941 . S
O672 C679 1.266 . S
H673 C675 0.959 . S
H674 C675 0.961 . S
C675 C665 1.510 . S
C675 H673 0.959 . S
C675 H674 0.961 . S
C675 H676 0.960 . S
H676 C675 0.960 . S
H677 N657 0.862 . S
O678 Co646 1.920 . S
O678 C651 1.289 . S
C679 O671 1.258 . S
C679 O672 1.266 . S
Co680 O683 1.970 1_556 S
Co680 N697 1.989 . S
Co680 O705 1.967 1_556 S
Co680 O712 1.920 . S
Co681 O684 1.966 . S
Co681 N690 2.022 . S
Co681 N698 1.993 . S
Co681 O706 1.941 . S
C682 O683 1.258 . S
C682 O684 1.263 . S
O683 Co680 1.970 1_554 S
O683 C682 1.258 . S
O684 Co681 1.966 . S
O684 C682 1.263 . S
C685 O686 1.235 . S
C685 O712 1.289 . S
O686 C685 1.235 . S
C687 C689 1.400 . S
C687 N690 1.351 . S
C687 C692 1.501 . S
C688 C689 1.387 . S
C688 N691 1.341 . S
C689 C687 1.400 . S
C689 C688 1.387 . S
N690 Co681 2.022 . S
N690 C687 1.351 . S
N690 N691 1.365 . S
N691 C688 1.341 . S
N691 N690 1.365 . S
N691 H711 0.862 . S
C692 C687 1.501 . S
C692 H693 0.961 . S
C692 H694 0.961 . S
C692 H695 0.960 . S
H693 C692 0.961 . S
H694 C692 0.961 . S
H695 C692 0.960 . S
C696 N697 1.342 . S
C696 C700 1.401 . S
C696 C701 1.499 . S
N697 Co680 1.989 . S
N697 C696 1.342 . S
N697 N698 1.388 1_556 S
N698 Co681 1.993 . S
N698 N697 1.388 1_554 S
N698 C699 1.346 . S
C699 N698 1.346 . S
C699 C700 1.396 1_554 S
C699 C709 1.510 . S
C700 C696 1.401 . S
C700 C699 1.396 1_556 S
C701 C696 1.499 . S
C701 H702 0.959 . S
C701 H703 0.960 . S
C701 H704 0.961 . S
H702 C701 0.959 . S
H703 C701 0.960 . S
H704 C701 0.961 . S
O705 Co680 1.967 1_554 S
O705 C713 1.258 . S
O706 Co681 1.941 . S
O706 C713 1.266 . S
H707 C709 0.959 . S
H708 C709 0.961 . S
C709 C699 1.510 . S
C709 H707 0.959 . S
C709 H708 0.961 . S
C709 H710 0.960 . S
H710 C709 0.960 . S
H711 N691 0.862 . S
O712 Co680 1.920 . S
O712 C685 1.289 . S
C713 O705 1.258 . S
C713 O706 1.266 . S
Co714 O717 1.970 1_556 S
Co714 N731 1.989 . S
Co714 O739 1.967 1_556 S
Co714 O746 1.920 . S
Co715 O718 1.966 . S
Co715 N724 2.022 . S
Co715 N732 1.993 . S
Co715 O740 1.941 . S
C716 O717 1.258 . S
C716 O718 1.263 . S
O717 Co714 1.970 1_554 S
O717 C716 1.258 . S
O718 Co715 1.966 . S
O718 C716 1.263 . S
C719 O720 1.235 . S
C719 O746 1.289 . S
O720 C719 1.235 . S
C721 C723 1.400 1_565 S
C721 N724 1.351 . S
C721 C726 1.501 . S
C722 C723 1.387 . S
C722 N725 1.341 . S
C723 C721 1.400 1_545 S
C723 C722 1.387 . S
N724 Co715 2.022 . S
N724 C721 1.351 . S
N724 N725 1.365 1_565 S
N725 C722 1.341 . S
N725 N724 1.365 1_545 S
N725 H745 0.862 . S
C726 C721 1.501 . S
C726 H727 0.961 . S
C726 H728 0.961 . S
C726 H729 0.960 . S
H727 C726 0.961 . S
H728 C726 0.961 . S
H729 C726 0.960 . S
C730 N731 1.342 . S
C730 C734 1.401 1_565 S
C730 C735 1.499 . S
N731 Co714 1.989 . S
N731 C730 1.342 . S
N731 N732 1.388 1_556 S
N732 Co715 1.993 . S
N732 N731 1.388 1_554 S
N732 C733 1.346 1_565 S
C733 N732 1.346 1_545 S
C733 C734 1.396 1_554 S
C733 C743 1.510 . S
C734 C730 1.401 1_545 S
C734 C733 1.396 1_556 S
C735 C730 1.499 . S
C735 H736 0.959 . S
C735 H737 0.960 . S
C735 H738 0.961 . S
H736 C735 0.959 . S
H737 C735 0.960 . S
H738 C735 0.961 . S
O739 Co714 1.967 1_554 S
O739 C747 1.258 . S
O740 Co715 1.941 . S
O740 C747 1.266 . S
H741 C743 0.959 . S
H742 C743 0.961 . S
C743 C733 1.510 . S
C743 H741 0.959 . S
C743 H742 0.961 . S
C743 H744 0.960 . S
H744 C743 0.960 . S
H745 N725 0.862 . S
O746 Co714 1.920 . S
O746 C719 1.289 . S
C747 O739 1.258 . S
C747 O740 1.266 . S
Co748 O751 1.970 . S
Co748 N765 1.989 . S
Co748 O773 1.967 . S
Co748 O780 1.920 . S
Co749 O752 1.966 . S
Co749 N758 2.022 . S
Co749 N766 1.993 . S
Co749 O774 1.941 . S
C750 O751 1.258 . S
C750 O752 1.263 . S
O751 Co748 1.970 . S
O751 C750 1.258 . S
O752 Co749 1.966 . S
O752 C750 1.263 . S
C753 O754 1.235 . S
C753 O780 1.289 . S
O754 C753 1.235 . S
C755 C757 1.400 1_565 S
C755 N758 1.351 . S
C755 C760 1.501 . S
C756 C757 1.387 . S
C756 N759 1.341 . S
C757 C755 1.400 1_545 S
C757 C756 1.387 . S
N758 Co749 2.022 . S
N758 C755 1.351 . S
N758 N759 1.365 1_565 S
N759 C756 1.341 . S
N759 N758 1.365 1_545 S
N759 H779 0.862 . S
C760 C755 1.501 . S
C760 H761 0.961 . S
C760 H762 0.961 . S
C760 H763 0.960 . S
H761 C760 0.961 . S
H762 C760 0.961 . S
H763 C760 0.960 . S
C764 N765 1.342 . S
C764 C768 1.401 1_565 S
C764 C769 1.499 . S
N765 Co748 1.989 . S
N765 C764 1.342 . S
N765 N766 1.388 . S
N766 Co749 1.993 . S
N766 N765 1.388 . S
N766 C767 1.346 1_565 S
C767 N766 1.346 1_545 S
C767 C768 1.396 . S
C767 C777 1.510 . S
C768 C764 1.401 1_545 S
C768 C767 1.396 . S
C769 C764 1.499 . S
C769 H770 0.959 . S
C769 H771 0.960 . S
C769 H772 0.961 . S
H770 C769 0.959 . S
H771 C769 0.960 . S
H772 C769 0.961 . S
O773 Co748 1.967 . S
O773 C781 1.258 . S
O774 Co749 1.941 . S
O774 C781 1.266 . S
H775 C777 0.959 . S
H776 C777 0.961 . S
C777 C767 1.510 . S
C777 H775 0.959 . S
C777 H776 0.961 . S
C777 H778 0.960 . S
H778 C777 0.960 . S
H779 N759 0.862 . S
O780 Co748 1.920 . S
O780 C753 1.289 . S
C781 O773 1.258 . S
C781 O774 1.266 . S
Co782 O785 1.970 . S
Co782 N799 1.989 . S
Co782 O807 1.967 . S
Co782 O814 1.920 . S
Co783 O786 1.966 . S
Co783 N792 2.022 . S
Co783 N800 1.993 . S
Co783 O808 1.941 . S
C784 O785 1.258 . S
C784 O786 1.263 . S
O785 Co782 1.970 . S
O785 C784 1.258 . S
O786 Co783 1.966 . S
O786 C784 1.263 . S
C787 O788 1.235 . S
C787 O814 1.289 . S
O788 C787 1.235 . S
C789 C791 1.400 . S
C789 N792 1.351 . S
C789 C794 1.501 . S
C790 C791 1.387 . S
C790 N793 1.341 . S
C791 C789 1.400 . S
C791 C790 1.387 . S
N792 Co783 2.022 . S
N792 C789 1.351 . S
N792 N793 1.365 . S
N793 C790 1.341 . S
N793 N792 1.365 . S
N793 H813 0.862 . S
C794 C789 1.501 . S
C794 H795 0.961 . S
C794 H796 0.961 . S
C794 H797 0.960 . S
H795 C794 0.961 . S
H796 C794 0.961 . S
H797 C794 0.960 . S
C798 N799 1.342 . S
C798 C802 1.401 . S
C798 C803 1.499 . S
N799 Co782 1.989 . S
N799 C798 1.342 . S
N799 N800 1.388 . S
N800 Co783 1.993 . S
N800 N799 1.388 . S
N800 C801 1.346 . S
C801 N800 1.346 . S
C801 C802 1.396 . S
C801 C811 1.510 . S
C802 C798 1.401 . S
C802 C801 1.396 . S
C803 C798 1.499 . S
C803 H804 0.959 . S
C803 H805 0.960 . S
C803 H806 0.961 . S
H804 C803 0.959 . S
H805 C803 0.960 . S
H806 C803 0.961 . S
O807 Co782 1.967 . S
O807 C815 1.258 . S
O808 Co783 1.941 . S
O808 C815 1.266 . S
H809 C811 0.959 . S
H810 C811 0.961 . S
C811 C801 1.510 . S
C811 H809 0.959 . S
C811 H810 0.961 . S
C811 H812 0.960 . S
H812 C811 0.960 . S
H813 N793 0.862 . S
O814 Co782 1.920 . S
O814 C787 1.289 . S
C815 O807 1.258 . S
C815 O808 1.266 . S
Co816 O819 1.970 . S
Co816 N833 1.989 . S
Co816 O841 1.967 . S
Co816 O848 1.920 . S
Co817 O820 1.966 . S
Co817 N826 2.022 . S
Co817 N834 1.993 . S
Co817 O842 1.941 . S
C818 O819 1.258 . S
C818 O820 1.263 . S
O819 Co816 1.970 . S
O819 C818 1.258 . S
O820 Co817 1.966 . S
O820 C818 1.263 . S
C821 O822 1.235 . S
C821 O848 1.289 . S
O822 C821 1.235 . S
C823 C825 1.400 . S
C823 N826 1.351 . S
C823 C828 1.501 . S
C824 C825 1.387 . S
C824 N827 1.341 . S
C825 C823 1.400 . S
C825 C824 1.387 . S
N826 Co817 2.022 . S
N826 C823 1.351 . S
N826 N827 1.365 . S
N827 C824 1.341 . S
N827 N826 1.365 . S
N827 H847 0.862 . S
C828 C823 1.501 . S
C828 H829 0.961 . S
C828 H830 0.961 . S
C828 H831 0.960 . S
H829 C828 0.961 . S
H830 C828 0.961 . S
H831 C828 0.960 . S
C832 N833 1.342 . S
C832 C836 1.401 . S
C832 C837 1.499 . S
N833 Co816 1.989 . S
N833 C832 1.342 . S
N833 N834 1.388 . S
N834 Co817 1.993 . S
N834 N833 1.388 . S
N834 C835 1.346 . S
C835 N834 1.346 . S
C835 C836 1.396 . S
C835 C845 1.510 . S
C836 C832 1.401 . S
C836 C835 1.396 . S
C837 C832 1.499 . S
C837 H838 0.959 . S
C837 H839 0.960 . S
C837 H840 0.961 . S
H838 C837 0.959 . S
H839 C837 0.960 . S
H840 C837 0.961 . S
O841 Co816 1.967 . S
O841 C849 1.258 . S
O842 Co817 1.941 . S
O842 C849 1.266 . S
H843 C845 0.959 . S
H844 C845 0.961 . S
C845 C835 1.510 . S
C845 H843 0.959 . S
C845 H844 0.961 . S
C845 H846 0.960 . S
H846 C845 0.960 . S
H847 N827 0.862 . S
O848 Co816 1.920 . S
O848 C821 1.289 . S
C849 O841 1.258 . S
C849 O842 1.266 . S
Co850 O853 1.970 . S
Co850 N867 1.989 . S
Co850 O875 1.967 . S
Co850 O882 1.920 . S
Co851 O854 1.966 . S
Co851 N860 2.022 . S
Co851 N868 1.993 . S
Co851 O876 1.941 . S
C852 O853 1.258 . S
C852 O854 1.263 . S
O853 Co850 1.970 . S
O853 C852 1.258 . S
O854 Co851 1.966 . S
O854 C852 1.263 . S
C855 O856 1.235 . S
C855 O882 1.289 . S
O856 C855 1.235 . S
C857 C859 1.400 . S
C857 N860 1.351 . S
C857 C862 1.501 . S
C858 C859 1.387 . S
C858 N861 1.341 . S
C859 C857 1.400 . S
C859 C858 1.387 . S
N860 Co851 2.022 . S
N860 C857 1.351 . S
N860 N861 1.365 . S
N861 C858 1.341 . S
N861 N860 1.365 . S
N861 H881 0.862 . S
C862 C857 1.501 . S
C862 H863 0.961 . S
C862 H864 0.961 . S
C862 H865 0.960 . S
H863 C862 0.961 . S
H864 C862 0.961 . S
H865 C862 0.960 . S
C866 N867 1.342 . S
C866 C870 1.401 . S
C866 C871 1.499 . S
N867 Co850 1.989 . S
N867 C866 1.342 . S
N867 N868 1.388 . S
N868 Co851 1.993 . S
N868 N867 1.388 . S
N868 C869 1.346 . S
C869 N868 1.346 . S
C869 C870 1.396 . S
C869 C879 1.510 . S
C870 C866 1.401 . S
C870 C869 1.396 . S
C871 C866 1.499 . S
C871 H872 0.959 . S
C871 H873 0.960 . S
C871 H874 0.961 . S
H872 C871 0.959 . S
H873 C871 0.960 . S
H874 C871 0.961 . S
O875 Co850 1.967 . S
O875 C883 1.258 . S
O876 Co851 1.941 . S
O876 C883 1.266 . S
H877 C879 0.959 . S
H878 C879 0.961 . S
C879 C869 1.510 . S
C879 H877 0.959 . S
C879 H878 0.961 . S
C879 H880 0.960 . S
H880 C879 0.960 . S
H881 N861 0.862 . S
O882 Co850 1.920 . S
O882 C855 1.289 . S
C883 O875 1.258 . S
C883 O876 1.266 . S
Co884 O887 1.970 . S
Co884 N901 1.989 . S
Co884 O909 1.967 . S
Co884 O916 1.920 . S
Co885 O888 1.966 . S
Co885 N894 2.022 . S
Co885 N902 1.993 . S
Co885 O910 1.941 . S
C886 O887 1.258 . S
C886 O888 1.263 . S
O887 Co884 1.970 . S
O887 C886 1.258 . S
O888 Co885 1.966 . S
O888 C886 1.263 . S
C889 O890 1.235 . S
C889 O916 1.289 . S
O890 C889 1.235 . S
C891 C893 1.400 . S
C891 N894 1.351 . S
C891 C896 1.501 . S
C892 C893 1.387 . S
C892 N895 1.341 . S
C893 C891 1.400 . S
C893 C892 1.387 . S
N894 Co885 2.022 . S
N894 C891 1.351 . S
N894 N895 1.365 . S
N895 C892 1.341 . S
N895 N894 1.365 . S
N895 H915 0.862 . S
C896 C891 1.501 . S
C896 H897 0.961 . S
C896 H898 0.961 . S
C896 H899 0.960 1_556 S
H897 C896 0.961 . S
H898 C896 0.961 . S
H899 C896 0.960 1_554 S
C900 N901 1.342 . S
C900 C904 1.401 . S
C900 C905 1.499 . S
N901 Co884 1.989 . S
N901 C900 1.342 . S
N901 N902 1.388 . S
N902 Co885 1.993 . S
N902 N901 1.388 . S
N902 C903 1.346 . S
C903 N902 1.346 . S
C903 C904 1.396 . S
C903 C913 1.510 . S
C904 C900 1.401 . S
C904 C903 1.396 . S
C905 C900 1.499 . S
C905 H906 0.959 . S
C905 H907 0.960 . S
C905 H908 0.961 . S
H906 C905 0.959 . S
H907 C905 0.960 . S
H908 C905 0.961 . S
O909 Co884 1.967 . S
O909 C917 1.258 . S
O910 Co885 1.941 . S
O910 C917 1.266 . S
H911 C913 0.959 . S
H912 C913 0.961 . S
C913 C903 1.510 . S
C913 H911 0.959 . S
C913 H912 0.961 . S
C913 H914 0.960 . S
H914 C913 0.960 . S
H915 N895 0.862 . S
O916 Co884 1.920 . S
O916 C889 1.289 . S
C917 O909 1.258 . S
C917 O910 1.266 . S
Co918 O921 1.970 . S
Co918 N935 1.989 . S
Co918 O943 1.967 . S
Co918 O950 1.920 . S
Co919 O922 1.966 . S
Co919 N928 2.022 . S
Co919 N936 1.993 . S
Co919 O944 1.941 . S
C920 O921 1.258 . S
C920 O922 1.263 . S
O921 Co918 1.970 . S
O921 C920 1.258 . S
O922 Co919 1.966 . S
O922 C920 1.263 . S
C923 O924 1.235 . S
C923 O950 1.289 . S
O924 C923 1.235 . S
C925 C927 1.400 . S
C925 N928 1.351 . S
C925 C930 1.501 . S
C926 C927 1.387 . S
C926 N929 1.341 . S
C927 C925 1.400 . S
C927 C926 1.387 . S
N928 Co919 2.022 . S
N928 C925 1.351 . S
N928 N929 1.365 . S
N929 C926 1.341 . S
N929 N928 1.365 . S
N929 H949 0.862 . S
C930 C925 1.501 . S
C930 H931 0.961 . S
C930 H932 0.961 . S
C930 H933 0.960 1_556 S
H931 C930 0.961 . S
H932 C930 0.961 . S
H933 C930 0.960 1_554 S
C934 N935 1.342 . S
C934 C938 1.401 . S
C934 C939 1.499 . S
N935 Co918 1.989 . S
N935 C934 1.342 . S
N935 N936 1.388 . S
N936 Co919 1.993 . S
N936 N935 1.388 . S
N936 C937 1.346 . S
C937 N936 1.346 . S
C937 C938 1.396 . S
C937 C947 1.510 . S
C938 C934 1.401 . S
C938 C937 1.396 . S
C939 C934 1.499 . S
C939 H940 0.959 . S
C939 H941 0.960 . S
C939 H942 0.961 . S
H940 C939 0.959 . S
H941 C939 0.960 . S
H942 C939 0.961 . S
O943 Co918 1.967 . S
O943 C951 1.258 . S
O944 Co919 1.941 . S
O944 C951 1.266 . S
H945 C947 0.959 . S
H946 C947 0.961 . S
C947 C937 1.510 . S
C947 H945 0.959 . S
C947 H946 0.961 . S
C947 H948 0.960 . S
H948 C947 0.960 . S
H949 N929 0.862 . S
O950 Co918 1.920 . S
O950 C923 1.289 . S
C951 O943 1.258 . S
C951 O944 1.266 . S
Co952 O955 1.970 . S
Co952 N969 1.989 . S
Co952 O977 1.967 . S
Co952 O984 1.920 . S
Co953 O956 1.966 . S
Co953 N962 2.022 . S
Co953 N970 1.993 . S
Co953 O978 1.941 . S
C954 O955 1.258 . S
C954 O956 1.263 . S
O955 Co952 1.970 . S
O955 C954 1.258 . S
O956 Co953 1.966 . S
O956 C954 1.263 . S
C957 O958 1.235 . S
C957 O984 1.289 . S
O958 C957 1.235 . S
C959 C961 1.400 . S
C959 N962 1.351 . S
C959 C964 1.501 . S
C960 C961 1.387 . S
C960 N963 1.341 . S
C961 C959 1.400 . S
C961 C960 1.387 . S
N962 Co953 2.022 . S
N962 C959 1.351 . S
N962 N963 1.365 . S
N963 C960 1.341 . S
N963 N962 1.365 . S
N963 H983 0.862 . S
C964 C959 1.501 . S
C964 H965 0.961 . S
C964 H966 0.961 . S
C964 H967 0.960 . S
H965 C964 0.961 . S
H966 C964 0.961 . S
H967 C964 0.960 . S
C968 N969 1.342 . S
C968 C972 1.401 . S
C968 C973 1.499 . S
N969 Co952 1.989 . S
N969 C968 1.342 . S
N969 N970 1.388 . S
N970 Co953 1.993 . S
N970 N969 1.388 . S
N970 C971 1.346 . S
C971 N970 1.346 . S
C971 C972 1.396 . S
C971 C981 1.510 . S
C972 C968 1.401 . S
C972 C971 1.396 . S
C973 C968 1.499 . S
C973 H974 0.959 . S
C973 H975 0.960 . S
C973 H976 0.961 . S
H974 C973 0.959 . S
H975 C973 0.960 . S
H976 C973 0.961 . S
O977 Co952 1.967 . S
O977 C985 1.258 . S
O978 Co953 1.941 . S
O978 C985 1.266 . S
H979 C981 0.959 . S
H980 C981 0.961 . S
C981 C971 1.510 . S
C981 H979 0.959 . S
C981 H980 0.961 . S
C981 H982 0.960 . S
H982 C981 0.960 . S
H983 N963 0.862 . S
O984 Co952 1.920 . S
O984 C957 1.289 . S
C985 O977 1.258 . S
C985 O978 1.266 . S
Co986 O989 1.970 . S
Co986 N1003 1.989 . S
Co986 O1011 1.967 . S
Co986 O1018 1.920 . S
Co987 O990 1.966 . S
Co987 N996 2.022 . S
Co987 N1004 1.993 . S
Co987 O1012 1.941 . S
C988 O989 1.258 . S
C988 O990 1.263 . S
O989 Co986 1.970 . S
O989 C988 1.258 . S
O990 Co987 1.966 . S
O990 C988 1.263 . S
C991 O992 1.235 . S
C991 O1018 1.289 . S
O992 C991 1.235 . S
C993 C995 1.400 . S
C993 N996 1.351 . S
C993 C998 1.501 . S
C994 C995 1.387 . S
C994 N997 1.341 . S
C995 C993 1.400 . S
C995 C994 1.387 . S
N996 Co987 2.022 . S
N996 C993 1.351 . S
N996 N997 1.365 . S
N997 C994 1.341 . S
N997 N996 1.365 . S
N997 H1017 0.862 . S
C998 C993 1.501 . S
C998 H999 0.961 . S
C998 H1000 0.961 . S
C998 H1001 0.960 . S
H999 C998 0.961 . S
H1000 C998 0.961 . S
H1001 C998 0.960 . S
C1002 N1003 1.342 . S
C1002 C1006 1.401 . S
C1002 C1007 1.499 . S
N1003 Co986 1.989 . S
N1003 C1002 1.342 . S
N1003 N1004 1.388 . S
N1004 Co987 1.993 . S
N1004 N1003 1.388 . S
N1004 C1005 1.346 . S
C1005 N1004 1.346 . S
C1005 C1006 1.396 . S
C1005 C1015 1.510 . S
C1006 C1002 1.401 . S
C1006 C1005 1.396 . S
C1007 C1002 1.499 . S
C1007 H1008 0.959 . S
C1007 H1009 0.960 . S
C1007 H1010 0.961 . S
H1008 C1007 0.959 . S
H1009 C1007 0.960 . S
H1010 C1007 0.961 . S
O1011 Co986 1.967 . S
O1011 C1019 1.258 . S
O1012 Co987 1.941 . S
O1012 C1019 1.266 . S
H1013 C1015 0.959 . S
H1014 C1015 0.961 . S
C1015 C1005 1.510 . S
C1015 H1013 0.959 . S
C1015 H1014 0.961 . S
C1015 H1016 0.960 . S
H1016 C1015 0.960 . S
H1017 N997 0.862 . S
O1018 Co986 1.920 . S
O1018 C991 1.289 . S
C1019 O1011 1.258 . S
C1019 O1012 1.266 . S
Co1020 O1023 1.970 . S
Co1020 N1037 1.989 . S
Co1020 O1045 1.967 . S
Co1020 O1052 1.920 . S
Co1021 O1024 1.966 . S
Co1021 N1030 2.022 . S
Co1021 N1038 1.993 . S
Co1021 O1046 1.941 . S
C1022 O1023 1.258 . S
C1022 O1024 1.263 . S
O1023 Co1020 1.970 . S
O1023 C1022 1.258 . S
O1024 Co1021 1.966 . S
O1024 C1022 1.263 . S
C1025 O1026 1.235 . S
C1025 O1052 1.289 . S
O1026 C1025 1.235 . S
C1027 C1029 1.400 . S
C1027 N1030 1.351 . S
C1027 C1032 1.501 . S
C1028 C1029 1.387 . S
C1028 N1031 1.341 . S
C1029 C1027 1.400 . S
C1029 C1028 1.387 . S
N1030 Co1021 2.022 . S
N1030 C1027 1.351 . S
N1030 N1031 1.365 . S
N1031 C1028 1.341 . S
N1031 N1030 1.365 . S
N1031 H1051 0.862 . S
C1032 C1027 1.501 . S
C1032 H1033 0.961 . S
C1032 H1034 0.961 . S
C1032 H1035 0.960 1_554 S
H1033 C1032 0.961 . S
H1034 C1032 0.961 . S
H1035 C1032 0.960 1_556 S
C1036 N1037 1.342 . S
C1036 C1040 1.401 . S
C1036 C1041 1.499 . S
N1037 Co1020 1.989 . S
N1037 C1036 1.342 . S
N1037 N1038 1.388 . S
N1038 Co1021 1.993 . S
N1038 N1037 1.388 . S
N1038 C1039 1.346 . S
C1039 N1038 1.346 . S
C1039 C1040 1.396 . S
C1039 C1049 1.510 . S
C1040 C1036 1.401 . S
C1040 C1039 1.396 . S
C1041 C1036 1.499 . S
C1041 H1042 0.959 . S
C1041 H1043 0.960 . S
C1041 H1044 0.961 . S
H1042 C1041 0.959 . S
H1043 C1041 0.960 . S
H1044 C1041 0.961 . S
O1045 Co1020 1.967 . S
O1045 C1053 1.258 . S
O1046 Co1021 1.941 . S
O1046 C1053 1.266 . S
H1047 C1049 0.959 . S
H1048 C1049 0.961 . S
C1049 C1039 1.510 . S
C1049 H1047 0.959 . S
C1049 H1048 0.961 . S
C1049 H1050 0.960 . S
H1050 C1049 0.960 . S
H1051 N1031 0.862 . S
O1052 Co1020 1.920 . S
O1052 C1025 1.289 . S
C1053 O1045 1.258 . S
C1053 O1046 1.266 . S
Co1054 O1057 1.970 . S
Co1054 N1071 1.989 . S
Co1054 O1079 1.967 . S
Co1054 O1086 1.920 . S
Co1055 O1058 1.966 . S
Co1055 N1064 2.022 . S
Co1055 N1072 1.993 . S
Co1055 O1080 1.941 . S
C1056 O1057 1.258 . S
C1056 O1058 1.263 . S
O1057 Co1054 1.970 . S
O1057 C1056 1.258 . S
O1058 Co1055 1.966 . S
O1058 C1056 1.263 . S
C1059 O1060 1.235 . S
C1059 O1086 1.289 . S
O1060 C1059 1.235 . S
C1061 C1063 1.400 . S
C1061 N1064 1.351 . S
C1061 C1066 1.501 . S
C1062 C1063 1.387 . S
C1062 N1065 1.341 . S
C1063 C1061 1.400 . S
C1063 C1062 1.387 . S
N1064 Co1055 2.022 . S
N1064 C1061 1.351 . S
N1064 N1065 1.365 . S
N1065 C1062 1.341 . S
N1065 N1064 1.365 . S
N1065 H1085 0.862 . S
C1066 C1061 1.501 . S
C1066 H1067 0.961 . S
C1066 H1068 0.961 . S
C1066 H1069 0.960 1_554 S
H1067 C1066 0.961 . S
H1068 C1066 0.961 . S
H1069 C1066 0.960 1_556 S
C1070 N1071 1.342 . S
C1070 C1074 1.401 . S
C1070 C1075 1.499 . S
N1071 Co1054 1.989 . S
N1071 C1070 1.342 . S
N1071 N1072 1.388 . S
N1072 Co1055 1.993 . S
N1072 N1071 1.388 . S
N1072 C1073 1.346 . S
C1073 N1072 1.346 . S
C1073 C1074 1.396 . S
C1073 C1083 1.510 . S
C1074 C1070 1.401 . S
C1074 C1073 1.396 . S
C1075 C1070 1.499 . S
C1075 H1076 0.959 . S
C1075 H1077 0.960 . S
C1075 H1078 0.961 . S
H1076 C1075 0.959 . S
H1077 C1075 0.960 . S
H1078 C1075 0.961 . S
O1079 Co1054 1.967 . S
O1079 C1087 1.258 . S
O1080 Co1055 1.941 . S
O1080 C1087 1.266 . S
H1081 C1083 0.959 . S
H1082 C1083 0.961 . S
C1083 C1073 1.510 . S
C1083 H1081 0.959 . S
C1083 H1082 0.961 . S
C1083 H1084 0.960 . S
H1084 C1083 0.960 . S
H1085 N1065 0.862 . S
O1086 Co1054 1.920 . S
O1086 C1059 1.289 . S
C1087 O1079 1.258 . S
C1087 O1080 1.266 . S
C417 C9 1.525 1_655 S
C723 C43 1.525 1_545 S
C213 C77 1.525 1_644 S
C1063 C111 1.525 1_554 S
C281 C145 1.525 1_455 S
C587 C179 1.525 1_565 S
C247 C927 1.525 1_554 S
C315 C995 1.525 . S
C485 C349 1.525 1_655 S
C383 C791 1.525 . S
C859 C451 1.525 . S
C519 C655 1.525 . S
C961 C553 1.525 . S
C757 C621 1.525 1_545 S
C689 C825 1.525 . S
C1029 C893 1.525 1_554 S
C5 C73 2.373 . S
C39 C107 2.373 . S
C209 C141 2.373 . S
C243 C175 2.373 . S
C277 C345 2.373 . S
C379 C311 2.373 . S
C481 C413 2.373 . S
C515 C447 2.373 . S
C549 C617 2.373 . S
C651 C583 2.373 . S
C753 C685 2.373 . S
C787 C719 2.373 . S
C821 C889 2.373 . S
C923 C855 2.373 . S
C957 C1025 2.373 . S
C1059 C991 2.373 . S
C33 C67 1.529 . S
C135 C101 1.529 . S
C203 C169 1.529 . S
C237 C271 1.529 . S
C305 C339 1.529 . S
C373 C407 1.529 . S
C475 C441 1.529 . S
C543 C509 1.529 . S
C577 C611 1.529 . S
C679 C645 1.529 . S
C747 C713 1.529 . S
C815 C781 1.529 . S
C883 C849 1.529 . S
C951 C917 1.529 . S
C985 C1019 1.529 . S
C1087 C1053 1.529 . S
C2 C224 3.404 1_455 S
C1074 C36 3.404 . S
C428 C70 3.404 1_655 S
C104 C734 3.404 . S
C88 C138 3.404 1_455 S
C938 C172 3.404 . S
C292 C206 3.404 1_455 S
C598 C240 3.404 . S
C496 C274 3.404 1_655 S
C802 C308 3.404 . S
C156 C342 3.404 1_655 S
C1006 C376 3.404 . S
C410 C360 3.404 1_655 S
C666 C444 3.404 . S
C20 C478 3.404 1_455 S
C870 C512 3.404 . S
C768 C546 3.404 . S
C580 C530 3.404 . S
C972 C614 3.404 . S
C648 C190 3.404 . S
C632 C682 3.404 . S
C716 C394 3.404 . S
C750 C836 3.404 . S
C784 C54 3.404 . S
C818 C1040 3.404 . S
C852 C258 3.404 . S
C886 C700 3.404 . S
C920 C462 3.404 . S
C954 C904 3.404 . S
C122 C988 3.404 . S
C1022 C564 3.404 . S
C326 C1056 3.404 . S
