# Generated by pormake.
# Topology una, (4)-cn, num edge types: 1
# Building blocks:
#     Node 0, Type 0, BuildingBlock: GALJAG_clean_sbu_0, # of connection points: 4
#     Node 1, Type 0, BuildingBlock: GALJAG_clean_sbu_0, # of connection points: 4
#     Node 2, Type 0, BuildingBlock: GALJAG_clean_sbu_0, # of connection points: 4
#     Node 3, Type 0, BuildingBlock: GALJAG_clean_sbu_0, # of connection points: 4
#     Node 4, Type 0, BuildingBlock: GALJAG_clean_sbu_0, # of connection points: 4
#     Node 5, Type 0, BuildingBlock: GALJAG_clean_sbu_0, # of connection points: 4
#     Node 6, Type 0, BuildingBlock: GALJAG_clean_sbu_0, # of connection points: 4
#     Node 7, Type 0, BuildingBlock: GALJAG_clean_sbu_0, # of connection points: 4
#     Node 8, Type 0, BuildingBlock: GALJAG_clean_sbu_0, # of connection points: 4
#     Node 9, Type 0, BuildingBlock: GALJAG_clean_sbu_0, # of connection points: 4
#     Node 10, Type 0, BuildingBlock: GALJAG_clean_sbu_0, # of connection points: 4
#     Node 11, Type 0, BuildingBlock: GALJAG_clean_sbu_0, # of connection points: 4
#     Edge 12, Type (0, 0), BuildingBlock: XIVTED_clean_linker_0, # of connection points: 2
#     Edge 13, Type (0, 0), BuildingBlock: XIVTED_clean_linker_0, # of connection points: 2
#     Edge 14, Type (0, 0), BuildingBlock: XIVTED_clean_linker_0, # of connection points: 2
#     Edge 15, Type (0, 0), BuildingBlock: XIVTED_clean_linker_0, # of connection points: 2
#     Edge 16, Type (0, 0), BuildingBlock: XIVTED_clean_linker_0, # of connection points: 2
#     Edge 17, Type (0, 0), BuildingBlock: XIVTED_clean_linker_0, # of connection points: 2
#     Edge 18, Type (0, 0), BuildingBlock: XIVTED_clean_linker_0, # of connection points: 2
#     Edge 19, Type (0, 0), BuildingBlock: XIVTED_clean_linker_0, # of connection points: 2
#     Edge 20, Type (0, 0), BuildingBlock: XIVTED_clean_linker_0, # of connection points: 2
#     Edge 21, Type (0, 0), BuildingBlock: XIVTED_clean_linker_0, # of connection points: 2
#     Edge 22, Type (0, 0), BuildingBlock: XIVTED_clean_linker_0, # of connection points: 2
#     Edge 23, Type (0, 0), BuildingBlock: XIVTED_clean_linker_0, # of connection points: 2
#     Edge 24, Type (0, 0), BuildingBlock: XIVTED_clean_linker_0, # of connection points: 2
#     Edge 25, Type (0, 0), BuildingBlock: XIVTED_clean_linker_0, # of connection points: 2
#     Edge 26, Type (0, 0), BuildingBlock: XIVTED_clean_linker_0, # of connection points: 2
#     Edge 27, Type (0, 0), BuildingBlock: XIVTED_clean_linker_0, # of connection points: 2
#     Edge 28, Type (0, 0), BuildingBlock: XIVTED_clean_linker_0, # of connection points: 2
#     Edge 29, Type (0, 0), BuildingBlock: XIVTED_clean_linker_0, # of connection points: 2
#     Edge 30, Type (0, 0), BuildingBlock: XIVTED_clean_linker_0, # of connection points: 2
#     Edge 31, Type (0, 0), BuildingBlock: XIVTED_clean_linker_0, # of connection points: 2
#     Edge 32, Type (0, 0), BuildingBlock: XIVTED_clean_linker_0, # of connection points: 2
#     Edge 33, Type (0, 0), BuildingBlock: XIVTED_clean_linker_0, # of connection points: 2
#     Edge 34, Type (0, 0), BuildingBlock: XIVTED_clean_linker_0, # of connection points: 2
#     Edge 35, Type (0, 0), BuildingBlock: XIVTED_clean_linker_0, # of connection points: 2
# Relax obj value: 0.044
# Max RMSD: 0.038
# Mean RMSD: 0.038
data_MOF--net-una--node1-GALJAG_clean_sbu_0--edge1-XIVTED_clean_linker_0
_symmetry_space_group_name_H-M    P1
_symmetry_Int_Tables_number       1
_symmetry_cell_setting            triclinic
loop_
_symmetry_equiv_pos_as_xyz
'x, y, z'
_cell_length_a     61.237586
_cell_length_b     61.181739
_cell_length_c     20.167136
_cell_angle_alpha  89.930972
_cell_angle_beta   90.123408
_cell_angle_gamma 120.05455
loop_
_atom_site_label
_atom_site_type_symbol
_atom_site_fract_x
_atom_site_fract_y
_atom_site_fract_z
_atom_type_partial_charge
In0 In 0.1206 0.43677 0.0646 0.0
O1 O 0.08011 0.4026 0.06956 0.0
O2 O 0.09494 0.41983 0.9763 0.0
C3 C 0.14527 0.43283 0.17092 0.0
C4 C 0.11145 0.47469 0.08888 0.0
C5 C 0.15591 0.441 0.97888 0.0
O6 O 0.12731 0.41352 0.14383 0.0
O7 O 0.1495 0.45356 0.14659 0.0
O8 O 0.15354 0.45969 0.99462 0.0
O9 O 0.14037 0.42039 0.0059 0.0
C10 C 0.07654 0.4028 0.00775 0.0
O11 O 0.12265 0.47377 0.03743 0.0
O12 O 0.10456 0.45628 0.12816 0.0
In13 In 0.68738 0.12763 0.22553 0.0
O14 O 0.68009 0.08684 0.2212 0.0
O15 O 0.68059 0.10506 0.13114 0.0
C16 C 0.7165 0.14306 0.33572 0.0
C17 C 0.643 0.12415 0.25815 0.0
C18 C 0.7155 0.16621 0.14289 0.0
O19 O 0.72053 0.13183 0.28894 0.0
O20 O 0.69683 0.14455 0.32879 0.0
O21 O 0.69184 0.15301 0.13732 0.0
O22 O 0.72486 0.15977 0.18936 0.0
C23 C 0.6779 0.08541 0.15877 0.0
O24 O 0.66193 0.1443 0.23861 0.0
O25 O 0.64629 0.10538 0.26162 0.0
In26 In 0.55634 0.68928 0.37578 0.0
O27 O 0.58868 0.68054 0.38366 0.0
O28 O 0.5752 0.68229 0.28801 0.0
C29 C 0.56341 0.71986 0.47967 0.0
C30 C 0.51735 0.64312 0.40611 0.0
C31 C 0.55099 0.71996 0.29037 0.0
O32 O 0.58133 0.7177 0.45582 0.0
O33 O 0.5422 0.70576 0.45327 0.0
O34 O 0.5337 0.6974 0.29951 0.0
O35 O 0.57099 0.72665 0.32287 0.0
C36 C 0.5903 0.67853 0.32178 0.0
O37 O 0.51915 0.65373 0.35113 0.0
O38 O 0.53529 0.6557 0.44582 0.0
In39 In 0.86844 0.55561 0.56615 0.0
O40 O 0.85482 0.51393 0.55482 0.0
O41 O 0.88837 0.53586 0.61112 0.0
C42 C 0.83367 0.55335 0.48083 0.0
C43 C 0.91262 0.58649 0.50531 0.0
C44 C 0.84864 0.56347 0.6775 0.0
O45 O 0.83648 0.5346 0.49188 0.0
O46 O 0.84852 0.57313 0.51224 0.0
O47 O 0.86383 0.58148 0.6411 0.0
O48 O 0.84501 0.54217 0.66006 0.0
C49 C 0.87245 0.51439 0.58854 0.0
O50 O 0.9099 0.58741 0.56723 0.0
O51 O 0.89328 0.57011 0.47517 0.0
In52 In 0.31326 0.86899 0.72637 0.0
O53 O 0.34723 0.86468 0.70392 0.0
O54 O 0.34812 0.88398 0.79261 0.0
C55 C 0.28178 0.83614 0.63622 0.0
C56 C 0.32641 0.914 0.6705 0.0
C57 C 0.28274 0.84388 0.82912 0.0
O58 O 0.30198 0.83673 0.65294 0.0
O59 O 0.27777 0.85216 0.66461 0.0
O60 O 0.2837 0.86349 0.80531 0.0
O61 O 0.29796 0.83816 0.80345 0.0
C62 C 0.35928 0.87608 0.75545 0.0
O63 O 0.3218 0.91023 0.73194 0.0
O64 O 0.32434 0.89533 0.63889 0.0
In65 In 0.43742 0.31099 0.88323 0.0
O66 O 0.4045 0.3189 0.89425 0.0
O67 O 0.42085 0.32227 0.79914 0.0
C68 C 0.43276 0.27871 0.9809 0.0
C69 C 0.47622 0.357 0.91443 0.0
C70 C 0.43903 0.2814 0.78804 0.0
O71 O 0.4141 0.28062 0.96162 0.0
O72 O 0.45338 0.29387 0.95359 0.0
O73 O 0.45856 0.30134 0.80671 0.0
O74 O 0.41888 0.27669 0.81699 0.0
C75 C 0.40454 0.32388 0.83327 0.0
O76 O 0.47504 0.34602 0.8605 0.0
O77 O 0.45775 0.34478 0.95291 0.0
In78 In 0.56314 0.87763 0.87655 0.0
O79 O 0.52719 0.87716 0.91026 0.0
O80 O 0.5395 0.88818 0.81121 0.0
C81 C 0.54748 0.84237 0.97271 0.0
C82 C 0.60209 0.92369 0.91031 0.0
C83 C 0.57452 0.85551 0.77644 0.0
O84 O 0.54263 0.83672 0.91227 0.0
O85 O 0.5594 0.86574 0.98465 0.0
O86 O 0.58874 0.86475 0.82628 0.0
O87 O 0.5557 0.85861 0.77628 0.0
C88 C 0.52318 0.88409 0.85483 0.0
O89 O 0.59829 0.90352 0.93723 0.0
O90 O 0.58716 0.92058 0.86344 0.0
In91 In 0.681 0.55499 0.05969 0.0
O92 O 0.64566 0.5177 0.08313 0.0
O93 O 0.64732 0.53461 0.98963 0.0
C94 C 0.71046 0.55365 0.15605 0.0
C95 C 0.66899 0.58877 0.10734 0.0
C96 C 0.7132 0.55897 0.96296 0.0
O97 O 0.6907 0.53399 0.13708 0.0
O98 O 0.71503 0.57375 0.12685 0.0
O99 O 0.71125 0.57775 0.9808 0.0
O100 O 0.69811 0.53852 0.99124 0.0
C101 C 0.63488 0.51636 0.02867 0.0
O102 O 0.67461 0.58886 0.04691 0.0
O103 O 0.6693 0.57179 0.14192 0.0
In104 In 0.12356 0.68234 0.22242 0.0
O105 O 0.08256 0.67425 0.21422 0.0
O106 O 0.09749 0.67406 0.30935 0.0
C107 C 0.1488 0.7118 0.118 0.0
C108 C 0.11467 0.63534 0.19761 0.0
C109 C 0.15778 0.71325 0.31093 0.0
O110 O 0.13034 0.7125 0.14376 0.0
O111 O 0.1533 0.69553 0.14267 0.0
O112 O 0.15597 0.69245 0.29469 0.0
O113 O 0.14227 0.71813 0.28289 0.0
C114 C 0.07885 0.67128 0.27611 0.0
O115 O 0.12565 0.64734 0.24959 0.0
O116 O 0.10808 0.64702 0.15806 0.0
In117 In 0.43996 0.12496 0.37847 0.0
O118 O 0.4815 0.13848 0.39276 0.0
O119 O 0.46024 0.10568 0.33332 0.0
C120 C 0.44154 0.15941 0.4636 0.0
C121 C 0.40954 0.08046 0.43884 0.0
C122 C 0.43195 0.14477 0.26696 0.0
O123 O 0.46074 0.15756 0.45106 0.0
O124 O 0.42168 0.1438 0.43368 0.0
O125 O 0.41401 0.12956 0.30346 0.0
O126 O 0.45326 0.14843 0.28438 0.0
C127 C 0.48142 0.12129 0.35801 0.0
O128 O 0.40876 0.08319 0.37683 0.0
O129 O 0.42549 0.09995 0.46927 0.0
In130 In 0.31318 0.44621 0.5632 0.0
O131 O 0.34771 0.4843 0.58561 0.0
O132 O 0.3473 0.46641 0.49478 0.0
C133 C 0.28226 0.44645 0.65654 0.0
C134 C 0.32602 0.41351 0.61479 0.0
C135 C 0.28183 0.4414 0.46292 0.0
O136 O 0.30204 0.46642 0.63937 0.0
O137 O 0.2784 0.42666 0.627 0.0
O138 O 0.2838 0.42285 0.48291 0.0
O139 O 0.29642 0.46205 0.49116 0.0
C140 C 0.35905 0.48526 0.53254 0.0
O141 O 0.31994 0.4125 0.55434 0.0
O142 O 0.32583 0.43093 0.64752 0.0
In143 In 0.86867 0.30877 0.71567 0.0
O144 O 0.85151 0.33416 0.70807 0.0
O145 O 0.89002 0.35029 0.6819 0.0
C146 C 0.8323 0.28535 0.80716 0.0
C147 C 0.91256 0.31652 0.76885 0.0
C148 C 0.85196 0.27671 0.61123 0.0
O149 O 0.85234 0.30583 0.81914 0.0
O150 O 0.83067 0.27685 0.74937 0.0
O151 O 0.86158 0.27268 0.66186 0.0
O152 O 0.85266 0.29766 0.61155 0.0
C153 C 0.87125 0.35337 0.68816 0.0
O154 O 0.91048 0.32017 0.70805 0.0
O155 O 0.89247 0.30832 0.80157 0.0
H156 H 0.1486 0.39166 0.21282 0.0
H157 H 0.27673 0.47953 0.41117 0.0
H158 H 0.18166 0.47199 0.24101 0.0
H159 H 0.24207 0.39835 0.40892 0.0
H160 H 0.24226 0.47629 0.34415 0.0
H161 H 0.18192 0.3926 0.28334 0.0
C162 C 0.16259 0.40938 0.23468 0.0
C163 C 0.16242 0.4318 0.22092 0.0
C164 C 0.24209 0.4591 0.35798 0.0
C165 C 0.20066 0.43309 0.3002 0.0
C166 C 0.26192 0.46097 0.39602 0.0
C167 C 0.26228 0.43917 0.41576 0.0
C168 C 0.22228 0.43524 0.3392 0.0
C169 C 0.24254 0.41563 0.39455 0.0
C170 C 0.18168 0.40994 0.27445 0.0
C171 C 0.18109 0.45427 0.25 0.0
N172 N 0.22323 0.41425 0.35749 0.0
N173 N 0.19947 0.45434 0.28776 0.0
H174 H 0.84757 0.22993 0.59473 0.0
H175 H 0.71503 0.17567 0.42431 0.0
H176 H 0.81912 0.27728 0.5217 0.0
H177 H 0.7623 0.14604 0.35964 0.0
H178 H 0.7502 0.2076 0.48913 0.0
H179 H 0.8146 0.1944 0.53022 0.0
C180 C 0.83475 0.23298 0.56428 0.0
C181 C 0.83605 0.25658 0.56361 0.0
C182 C 0.75274 0.19388 0.46136 0.0
C183 C 0.7981 0.21611 0.49267 0.0
C184 C 0.73263 0.17549 0.42486 0.0
C185 C 0.7358 0.15829 0.38598 0.0
C186 C 0.7761 0.1949 0.46006 0.0
C187 C 0.75912 0.15904 0.38878 0.0
C188 C 0.81596 0.21273 0.52795 0.0
C189 C 0.81887 0.25948 0.52372 0.0
N190 N 0.77854 0.1772 0.4251 0.0
N191 N 0.80035 0.23938 0.49088 0.0
H192 H 0.60658 0.75301 0.54829 0.0
H193 H 0.54584 0.83492 0.66669 0.0
H194 H 0.52857 0.73194 0.51984 0.0
H195 H 0.60846 0.83828 0.77427 0.0
H196 H 0.54493 0.80247 0.59531 0.0
H197 H 0.6122 0.78837 0.61897 0.0
C198 C 0.59063 0.75566 0.55739 0.0
C199 C 0.56707 0.73952 0.52817 0.0
C200 C 0.55899 0.81038 0.63427 0.0
C201 C 0.57354 0.78 0.60681 0.0
C202 C 0.55965 0.82906 0.67479 0.0
C203 C 0.57709 0.83915 0.72695 0.0
C204 C 0.57596 0.80167 0.6455 0.0
C205 C 0.59465 0.83091 0.73468 0.0
C206 C 0.59388 0.77582 0.59741 0.0
C207 C 0.54706 0.74384 0.54129 0.0
N208 N 0.59357 0.81246 0.69453 0.0
N209 N 0.55083 0.76374 0.57901 0.0
H210 H 0.84353 0.60469 0.70597 0.0
H211 H 0.72014 0.52064 0.92255 0.0
H212 H 0.81697 0.52751 0.76395 0.0
H213 H 0.75215 0.60124 0.90367 0.0
H214 H 0.75512 0.52342 0.85929 0.0
H215 H 0.81099 0.60496 0.77666 0.0
C216 C 0.83121 0.58801 0.73457 0.0
C217 C 0.83285 0.56599 0.72885 0.0
C218 C 0.7546 0.54057 0.86876 0.0
C219 C 0.79541 0.566 0.80829 0.0
C220 C 0.73447 0.53897 0.90457 0.0
C221 C 0.73319 0.56075 0.91844 0.0
C222 C 0.77374 0.56415 0.84608 0.0
C223 C 0.75238 0.58397 0.89385 0.0
C224 C 0.81255 0.58811 0.77445 0.0
C225 C 0.81631 0.54485 0.76653 0.0
N226 N 0.77194 0.58509 0.85877 0.0
N227 N 0.7982 0.54532 0.80402 0.0
H228 H 0.24139 0.84557 0.87692 0.0
H229 H 0.18636 0.71038 0.05083 0.0
H230 H 0.2798 0.80275 0.88872 0.0
H231 H 0.15112 0.75577 0.07506 0.0
H232 H 0.21873 0.74337 0.98258 0.0
H233 H 0.20703 0.81311 0.94482 0.0
C234 C 0.24276 0.82957 0.89453 0.0
C235 C 0.26345 0.82682 0.87708 0.0
C236 C 0.20392 0.74621 0.00245 0.0
C237 C 0.22421 0.78958 0.95321 0.0
C238 C 0.18528 0.72724 0.04116 0.0
C239 C 0.16605 0.73036 0.0689 0.0
C240 C 0.20351 0.76866 0.99118 0.0
C241 C 0.16561 0.75261 0.05445 0.0
C242 C 0.22311 0.811 0.93282 0.0
C243 C 0.26421 0.80565 0.90071 0.0
N244 N 0.1842 0.77105 0.01678 0.0
N245 N 0.24486 0.78786 0.93708 0.0
H246 H 0.46742 0.17554 0.17832 0.0
H247 H 0.39026 0.23996 0.04003 0.0
H248 H 0.39101 0.15053 0.23971 0.0
H249 H 0.47071 0.27128 0.02217 0.0
H250 H 0.38798 0.20468 0.10472 0.0
H251 H 0.46627 0.20722 0.10775 0.0
C252 C 0.45022 0.17647 0.17617 0.0
C253 C 0.42934 0.16047 0.21525 0.0
C254 C 0.40609 0.21938 0.08674 0.0
C255 C 0.42803 0.1972 0.13526 0.0
C256 C 0.40742 0.23955 0.05024 0.0
C257 C 0.43072 0.25861 0.02577 0.0
C258 C 0.42817 0.21825 0.09805 0.0
C259 C 0.45234 0.25707 0.03998 0.0
C260 C 0.44963 0.19474 0.13621 0.0
C261 C 0.40753 0.16251 0.21027 0.0
N262 N 0.45051 0.23725 0.07475 0.0
N263 N 0.40749 0.18075 0.17141 0.0
H264 H 0.11534 0.5109 0.00291 0.0
H265 H 0.11819 0.60272 0.2835 0.0
H266 H 0.10019 0.48804 0.20792 0.0
H267 H 0.10246 0.61047 0.07889 0.0
H268 H 0.11404 0.56174 0.25718 0.0
H269 H 0.11296 0.54867 0.02947 0.0
C270 C 0.11134 0.51377 0.05344 0.0
C271 C 0.10804 0.49642 0.1034 0.0
C272 C 0.11128 0.57232 0.2182 0.0
C273 C 0.10564 0.53966 0.13421 0.0
C274 C 0.11375 0.59572 0.23311 0.0
C275 C 0.11076 0.60999 0.18319 0.0
C276 C 0.10626 0.56338 0.15269 0.0
C277 C 0.10491 0.60003 0.1188 0.0
C278 C 0.10991 0.53526 0.0685 0.0
C279 C 0.10283 0.50097 0.16798 0.0
N280 N 0.10313 0.57744 0.10519 0.0
N281 N 0.10209 0.52234 0.18175 0.0
H282 H 0.63562 0.16367 0.28183 0.0
H283 H 0.48593 0.08273 0.30276 0.0
H284 H 0.59605 0.08226 0.27386 0.0
H285 H 0.52973 0.15753 0.38541 0.0
H286 H 0.52525 0.08241 0.28094 0.0
H287 H 0.59606 0.16218 0.30847 0.0
C288 C 0.61857 0.14545 0.28574 0.0
C289 C 0.61908 0.12305 0.27568 0.0
C290 C 0.52616 0.09879 0.30415 0.0
C291 C 0.57366 0.12121 0.30563 0.0
C292 C 0.5038 0.09903 0.31637 0.0
C293 C 0.50463 0.12022 0.3458 0.0
C294 C 0.54942 0.12005 0.32052 0.0
C295 C 0.52823 0.14081 0.36267 0.0
C296 C 0.59601 0.14462 0.30118 0.0
C297 C 0.59643 0.09996 0.2815 0.0
N298 N 0.54967 0.14029 0.34932 0.0
N299 N 0.57452 0.09962 0.29564 0.0
H300 H 0.39166 0.52331 0.614 0.0
H301 H 0.48093 0.60898 0.32316 0.0
H302 H 0.38251 0.49714 0.41178 0.0
H303 H 0.50382 0.62121 0.52856 0.0
H304 H 0.44345 0.56912 0.35393 0.0
H305 H 0.43159 0.56064 0.58339 0.0
C306 C 0.39812 0.52539 0.56319 0.0
C307 C 0.38376 0.50718 0.51526 0.0
C308 C 0.45677 0.58044 0.39216 0.0
C309 C 0.42924 0.54991 0.47981 0.0
C310 C 0.4781 0.6032 0.37469 0.0
C311 C 0.49542 0.61841 0.42346 0.0
C312 C 0.45254 0.57306 0.45901 0.0
C313 C 0.49092 0.61002 0.48944 0.0
C314 C 0.42094 0.54664 0.54583 0.0
C315 C 0.39303 0.51075 0.45023 0.0
N316 N 0.46978 0.58801 0.50541 0.0
N317 N 0.41509 0.53184 0.43422 0.0
H318 H 0.91199 0.51043 0.63925 0.0
H319 H 0.83132 0.36085 0.67428 0.0
H320 H 0.83543 0.46579 0.56866 0.0
H321 H 0.91268 0.40025 0.66764 0.0
H322 H 0.83229 0.40035 0.64916 0.0
H323 H 0.91257 0.47127 0.6627 0.0
C324 C 0.89534 0.49242 0.6287 0.0
C325 C 0.87362 0.49129 0.60203 0.0
C326 C 0.84994 0.40037 0.65301 0.0
C327 C 0.87407 0.44672 0.62928 0.0
C328 C 0.84941 0.37786 0.66758 0.0
C329 C 0.87196 0.37731 0.67287 0.0
C330 C 0.8732 0.42262 0.64457 0.0
C331 C 0.89487 0.3999 0.66368 0.0
C332 C 0.89572 0.47015 0.64185 0.0
C333 C 0.85259 0.46751 0.58908 0.0
N334 N 0.89493 0.42175 0.6503 0.0
N335 N 0.85328 0.44618 0.60327 0.0
H336 H 0.3848 0.8905 0.87354 0.0
H337 H 0.50633 0.88954 0.73425 0.0
H338 H 0.39067 0.86936 0.67314 0.0
H339 H 0.48825 0.88232 0.94272 0.0
H340 H 0.4672 0.88952 0.71013 0.0
H341 H 0.42591 0.8946 0.89886 0.0
C342 C 0.39481 0.88686 0.83484 0.0
C343 C 0.38433 0.87949 0.77124 0.0
C344 C 0.47184 0.88804 0.76117 0.0
C345 C 0.43124 0.88434 0.79962 0.0
C346 C 0.49421 0.88817 0.77501 0.0
C347 C 0.50045 0.88581 0.84057 0.0
C348 C 0.45572 0.88584 0.8133 0.0
C349 C 0.48405 0.88405 0.89146 0.0
C350 C 0.41817 0.88912 0.84937 0.0
C351 C 0.39803 0.87496 0.72292 0.0
N352 N 0.46239 0.88411 0.87677 0.0
N353 N 0.42081 0.87752 0.73805 0.0
H354 H 0.48838 0.38015 0.03568 0.0
H355 H 0.6122 0.50365 0.9068 0.0
H356 H 0.51344 0.39034 0.83236 0.0
H357 H 0.60117 0.47957 0.11119 0.0
H358 H 0.57205 0.46594 0.87846 0.0
H359 H 0.52588 0.42049 0.06392 0.0
C360 C 0.50168 0.39097 0.99694 0.0
C361 C 0.49794 0.38186 0.9317 0.0
C362 C 0.5784 0.469 0.92953 0.0
C363 C 0.54063 0.42795 0.96347 0.0
C364 C 0.60123 0.49052 0.94574 0.0
C365 C 0.61005 0.4946 0.01134 0.0
C366 C 0.56419 0.45166 0.97943 0.0
C367 C 0.59512 0.47702 0.05992 0.0
C368 C 0.52308 0.41391 0.01311 0.0
C369 C 0.51573 0.39661 0.88338 0.0
N370 N 0.57289 0.4563 0.043 0.0
N371 N 0.53632 0.41895 0.90022 0.0
H372 H 0.24173 0.40519 0.70872 0.0
H373 H 0.19377 0.48342 0.91968 0.0
H374 H 0.28241 0.48663 0.71715 0.0
H375 H 0.16209 0.4027 0.93316 0.0
H376 H 0.22565 0.48546 0.84254 0.0
H377 H 0.21153 0.40429 0.78842 0.0
C378 C 0.24433 0.42291 0.72755 0.0
C379 C 0.26455 0.44602 0.70638 0.0
C380 C 0.21174 0.46734 0.86258 0.0
C381 C 0.22996 0.44517 0.79751 0.0
C382 C 0.19354 0.46616 0.90636 0.0
C383 C 0.17529 0.44285 0.93257 0.0
C384 C 0.21148 0.44502 0.84483 0.0
C385 C 0.17582 0.42106 0.91402 0.0
C386 C 0.22709 0.4224 0.77315 0.0
C387 C 0.26705 0.46842 0.7324 0.0
N388 N 0.19357 0.42267 0.87115 0.0
N389 N 0.24984 0.46745 0.77655 0.0
H390 H 0.76447 0.20283 0.16021 0.0
H391 H 0.78422 0.24708 0.78728 0.0
H392 H 0.70232 0.17675 0.02254 0.0
H393 H 0.83661 0.29168 0.9415 0.0
H394 H 0.75385 0.22088 0.87208 0.0
H395 H 0.79146 0.23534 0.0807 0.0
C396 C 0.75649 0.20408 0.11334 0.0
C397 C 0.73125 0.18701 0.09746 0.0
C398 C 0.77185 0.2366 0.88738 0.0
C399 C 0.76197 0.22392 0.00635 0.0
C400 C 0.7892 0.25148 0.83908 0.0
C401 C 0.81297 0.27138 0.85766 0.0
C402 C 0.77856 0.2414 0.95457 0.0
C403 C 0.81847 0.27644 0.92528 0.0
C404 C 0.77184 0.22271 0.0682 0.0
C405 C 0.72174 0.18953 0.03643 0.0
N406 N 0.8015 0.26127 0.97145 0.0
N407 N 0.73723 0.20747 0.99256 0.0
H408 H 0.57988 0.77106 0.28848 0.0
H409 H 0.52072 0.79086 0.96117 0.0
H410 H 0.51519 0.70904 0.19438 0.0
H411 H 0.5636 0.85077 0.10096 0.0
H412 H 0.51854 0.76015 0.04296 0.0
H413 H 0.57523 0.80046 0.2162 0.0
C414 C 0.5647 0.76365 0.25244 0.0
C415 C 0.54799 0.73762 0.24694 0.0
C416 C 0.52808 0.77999 0.05595 0.0
C417 C 0.54256 0.77112 0.16405 0.0
C418 C 0.52933 0.7975 0.00941 0.0
C419 C 0.54254 0.82338 0.02425 0.0
C420 C 0.54049 0.78856 0.11707 0.0
C421 C 0.55333 0.831 0.0874 0.0
C422 C 0.56193 0.78044 0.21157 0.0
C423 C 0.52849 0.72901 0.19993 0.0
N424 N 0.55237 0.81369 0.13118 0.0
N425 N 0.52645 0.74575 0.15963 0.0
H426 H 0.79703 0.51239 0.41397 0.0
H427 H 0.75018 0.59407 0.21425 0.0
H428 H 0.82695 0.59229 0.44327 0.0
H429 H 0.70948 0.51256 0.21341 0.0
H430 H 0.77949 0.59361 0.29531 0.0
H431 H 0.76573 0.51181 0.33696 0.0
C432 C 0.79699 0.52978 0.40417 0.0
C433 C 0.81459 0.55244 0.43473 0.0
C434 C 0.7641 0.5758 0.27773 0.0
C435 C 0.77905 0.55192 0.34711 0.0
C436 C 0.74738 0.57606 0.23138 0.0
C437 C 0.72745 0.55331 0.20716 0.0
C438 C 0.761 0.55263 0.29962 0.0
C439 C 0.72463 0.53051 0.23104 0.0
C440 C 0.77911 0.52942 0.36048 0.0
C441 C 0.81372 0.57442 0.42064 0.0
N442 N 0.74136 0.53073 0.27583 0.0
N443 N 0.7963 0.57363 0.37763 0.0
H444 H 0.19601 0.70966 0.37151 0.0
H445 H 0.23978 0.83458 0.58645 0.0
H446 H 0.16207 0.75666 0.35912 0.0
H447 H 0.28311 0.79666 0.57589 0.0
H448 H 0.20981 0.80442 0.50735 0.0
H449 H 0.22694 0.73963 0.45082 0.0
C450 C 0.19507 0.72625 0.38556 0.0
C451 C 0.1765 0.73073 0.35891 0.0
C452 C 0.22588 0.80267 0.52209 0.0
C453 C 0.21157 0.76487 0.44913 0.0
C454 C 0.24299 0.81988 0.56735 0.0
C455 C 0.26393 0.81809 0.5876 0.0
C456 C 0.22963 0.7834 0.49707 0.0
C457 C 0.26719 0.79869 0.56132 0.0
C458 C 0.21272 0.74334 0.43058 0.0
C459 C 0.17609 0.75249 0.37849 0.0
N460 N 0.25013 0.78199 0.51738 0.0
N461 N 0.19333 0.7687 0.4225 0.0
H462 H 0.39891 0.24062 0.7321 0.0
H463 H 0.48237 0.19744 0.52752 0.0
H464 H 0.4803 0.28344 0.7294 0.0
H465 H 0.40181 0.16417 0.50433 0.0
H466 H 0.4823 0.2283 0.60473 0.0
H467 H 0.39982 0.21152 0.65132 0.0
C468 C 0.41699 0.24392 0.71428 0.0
C469 C 0.43957 0.26441 0.73739 0.0
C470 C 0.46468 0.21429 0.58253 0.0
C471 C 0.44079 0.23112 0.64521 0.0
C472 C 0.4647 0.19666 0.5387 0.0
C473 C 0.44205 0.17825 0.50977 0.0
C474 C 0.44182 0.21329 0.59768 0.0
C475 C 0.41969 0.17806 0.52565 0.0
C476 C 0.41751 0.22733 0.66809 0.0
C477 C 0.46247 0.26785 0.71265 0.0
N478 N 0.42013 0.19526 0.56873 0.0
N479 N 0.46251 0.25126 0.66801 0.0
H480 H 0.03086 0.36846 0.06266 0.0
H481 H 0.95951 0.33854 0.71245 0.0
H482 H 0.0679 0.3977 0.87503 0.0
H483 H 0.92106 0.31146 0.8994 0.0
H484 H -9e-05 0.35555 0.77036 0.0
H485 H 0.99088 0.34289 0.00322 0.0
C486 C 0.03062 0.3693 0.00903 0.0
C487 C 0.05263 0.3854 0.97377 0.0
C488 C 0.98264 0.34566 0.79869 0.0
C489 C 0.00717 0.35637 0.90557 0.0
C490 C 0.95957 0.33588 0.76555 0.0
C491 C 0.93693 0.32381 0.80125 0.0
C492 C 0.98305 0.34344 0.86808 0.0
C493 C 0.9381 0.32083 0.87001 0.0
C494 C 0.00783 0.35475 0.97511 0.0
C495 C 0.05131 0.38574 0.90429 0.0
N496 N 0.96078 0.3308 0.90129 0.0
N497 N 0.02898 0.37161 0.87259 0.0
H498 H 0.61435 0.97007 0.8606 0.0
H499 H 0.67121 0.04005 0.20406 0.0
H500 H 0.62882 0.93428 0.02598 0.0
H501 H 0.66995 0.07845 0.02573 0.0
H502 H 0.65764 0.0015 0.13889 0.0
H503 H 0.63711 0.01056 0.91827 0.0
C504 C 0.6227 0.97082 0.90856 0.0
C505 C 0.61955 0.94878 0.93873 0.0
C506 C 0.66058 0.01845 0.11397 0.0
C507 C 0.64518 0.99494 0.00573 0.0
C508 C 0.66826 0.04041 0.15119 0.0
C509 C 0.67149 0.06239 0.12037 0.0
C510 C 0.65591 0.01847 0.04564 0.0
C511 C 0.66752 0.06187 0.05165 0.0
C512 C 0.63563 0.99393 0.94162 0.0
C513 C 0.63075 0.95083 0.00099 0.0
N514 N 0.65973 0.04023 0.01678 0.0
N515 N 0.64276 0.97344 0.03286 0.0
H516 H 0.65681 0.62108 0.04363 0.0
H517 H 0.61996 0.66277 0.38318 0.0
H518 H 0.66526 0.59672 0.23809 0.0
H519 H 0.59833 0.67577 0.18982 0.0
H520 H 0.64345 0.64494 0.32999 0.0
H521 H 0.64181 0.64745 0.0957 0.0
C522 C 0.65575 0.62149 0.09718 0.0
C523 C 0.66199 0.60651 0.1366 0.0
C524 C 0.63374 0.65189 0.29918 0.0
C525 C 0.64502 0.63652 0.19632 0.0
C526 C 0.62041 0.66214 0.32955 0.0
C527 C 0.60697 0.67048 0.29087 0.0
C528 C 0.63364 0.65003 0.22965 0.0
C529 C 0.60825 0.66931 0.22152 0.0
C530 C 0.64715 0.63646 0.12686 0.0
C531 C 0.66035 0.60775 0.20577 0.0
N532 N 0.62118 0.65908 0.19311 0.0
N533 N 0.65193 0.62237 0.23336 0.0
H534 H 0.07017 0.67285 0.40749 0.0
H535 H 0.92079 0.59016 0.37193 0.0
H536 H 0.03204 0.65201 0.21839 0.0
H537 H 0.95896 0.61939 0.55855 0.0
H538 H 0.96095 0.61459 0.31425 0.0
H539 H 0.02952 0.65571 0.46282 0.0
C540 C 0.05319 0.66484 0.37753 0.0
C541 C 0.05443 0.66363 0.30826 0.0
C542 C 0.96055 0.61585 0.36774 0.0
C543 C 0.0077 0.64368 0.37149 0.0
C544 C 0.93764 0.60185 0.40078 0.0
C545 C 0.9366 0.60259 0.47023 0.0
C546 C 0.98268 0.63055 0.40442 0.0
C547 C 0.95895 0.61819 0.505 0.0
C548 C 0.02997 0.65507 0.40921 0.0
C549 C 0.03189 0.65325 0.27191 0.0
N550 N 0.98112 0.63139 0.47175 0.0
N551 N 0.00938 0.64338 0.30405 0.0
H552 H 0.40491 0.07233 0.57225 0.0
H553 H 0.32818 0.92259 0.53801 0.0
H554 H 0.37857 0.03365 0.38512 0.0
H555 H 0.34335 0.96079 0.72654 0.0
H556 H 0.34515 0.96309 0.4816 0.0
H557 H 0.38133 0.03197 0.62989 0.0
C558 C 0.39402 0.05533 0.54327 0.0
C559 C 0.39384 0.05629 0.47372 0.0
C560 C 0.3446 0.96268 0.53527 0.0
C561 C 0.36689 0.00999 0.53949 0.0
C562 C 0.33495 0.93955 0.56759 0.0
C563 C 0.33455 0.93838 0.63711 0.0
C564 C 0.35425 0.98495 0.57264 0.0
C565 C 0.34338 0.9609 0.67286 0.0
C566 C 0.38052 0.0323 0.57628 0.0
C567 C 0.37929 0.03373 0.43876 0.0
N568 N 0.35314 0.98334 0.64018 0.0
N569 N 0.36658 0.01146 0.47202 0.0
H570 H 0.33648 0.37953 0.55449 0.0
H571 H 0.37566 0.3405 0.89572 0.0
H572 H 0.33189 0.40812 0.74632 0.0
H573 H 0.39591 0.32644 0.70213 0.0
H574 H 0.35233 0.35874 0.8424 0.0
H575 H 0.35138 0.35344 0.6087 0.0
C576 C 0.33841 0.38014 0.60796 0.0
C577 C 0.33325 0.39619 0.64591 0.0
C578 C 0.36172 0.35144 0.81168 0.0
C579 C 0.3501 0.36646 0.70816 0.0
C580 C 0.37492 0.34096 0.84209 0.0
C581 C 0.38794 0.33224 0.80326 0.0
C582 C 0.36145 0.353 0.74208 0.0
C583 C 0.38636 0.33324 0.73394 0.0
C584 C 0.34693 0.36531 0.63887 0.0
C585 C 0.33595 0.39622 0.71509 0.0
N586 N 0.3735 0.34356 0.70558 0.0
N587 N 0.34429 0.38169 0.74395 0.0
loop_
_geom_bond_atom_site_label_1
_geom_bond_atom_site_label_2
_geom_bond_distance
_geom_bond_site_symmetry_2
_ccdc_geom_bond_type
In0 O1 2.294 . S
In0 O2 2.326 1_554 S
In0 O6 2.266 . S
In0 O7 2.326 . S
In0 O8 2.266 1_554 S
In0 O9 2.326 . S
In0 O11 2.294 . S
In0 O12 2.326 . S
O1 In0 2.294 . S
O1 C10 1.240 . S
O2 In0 2.326 1_556 S
O2 C10 1.252 1_556 S
C3 O6 1.252 . S
C3 O7 1.260 . S
C4 O11 1.240 . S
C4 O12 1.252 . S
C5 O8 1.252 . S
C5 O9 1.260 1_556 S
O6 In0 2.266 . S
O6 C3 1.252 . S
O7 In0 2.326 . S
O7 C3 1.260 . S
O8 In0 2.266 1_556 S
O8 C5 1.252 . S
O9 In0 2.326 . S
O9 C5 1.260 1_554 S
C10 O1 1.240 . S
C10 O2 1.252 1_554 S
O11 In0 2.294 . S
O11 C4 1.240 . S
O12 In0 2.326 . S
O12 C4 1.252 . S
In13 O14 2.294 . S
In13 O15 2.326 . S
In13 O19 2.266 . S
In13 O20 2.326 . S
In13 O21 2.266 . S
In13 O22 2.326 . S
In13 O24 2.294 . S
In13 O25 2.326 . S
O14 In13 2.294 . S
O14 C23 1.240 . S
O15 In13 2.326 . S
O15 C23 1.252 . S
C16 O19 1.252 . S
C16 O20 1.260 . S
C17 O24 1.240 . S
C17 O25 1.252 . S
C18 O21 1.252 . S
C18 O22 1.260 . S
O19 In13 2.266 . S
O19 C16 1.252 . S
O20 In13 2.326 . S
O20 C16 1.260 . S
O21 In13 2.266 . S
O21 C18 1.252 . S
O22 In13 2.326 . S
O22 C18 1.260 . S
C23 O14 1.240 . S
C23 O15 1.252 . S
O24 In13 2.294 . S
O24 C17 1.240 . S
O25 In13 2.326 . S
O25 C17 1.252 . S
In26 O27 2.294 . S
In26 O28 2.326 . S
In26 O32 2.266 . S
In26 O33 2.326 . S
In26 O34 2.266 . S
In26 O35 2.326 . S
In26 O37 2.294 . S
In26 O38 2.326 . S
O27 In26 2.294 . S
O27 C36 1.240 . S
O28 In26 2.326 . S
O28 C36 1.252 . S
C29 O32 1.252 . S
C29 O33 1.260 . S
C30 O37 1.240 . S
C30 O38 1.252 . S
C31 O34 1.252 . S
C31 O35 1.260 . S
O32 In26 2.266 . S
O32 C29 1.252 . S
O33 In26 2.326 . S
O33 C29 1.260 . S
O34 In26 2.266 . S
O34 C31 1.252 . S
O35 In26 2.326 . S
O35 C31 1.260 . S
C36 O27 1.240 . S
C36 O28 1.252 . S
O37 In26 2.294 . S
O37 C30 1.240 . S
O38 In26 2.326 . S
O38 C30 1.252 . S
In39 O40 2.294 . S
In39 O41 2.326 . S
In39 O45 2.266 . S
In39 O46 2.326 . S
In39 O47 2.266 . S
In39 O48 2.326 . S
In39 O50 2.294 . S
In39 O51 2.326 . S
O40 In39 2.294 . S
O40 C49 1.240 . S
O41 In39 2.326 . S
O41 C49 1.252 . S
C42 O45 1.252 . S
C42 O46 1.260 . S
C43 O50 1.240 . S
C43 O51 1.252 . S
C44 O47 1.252 . S
C44 O48 1.260 . S
O45 In39 2.266 . S
O45 C42 1.252 . S
O46 In39 2.326 . S
O46 C42 1.260 . S
O47 In39 2.266 . S
O47 C44 1.252 . S
O48 In39 2.326 . S
O48 C44 1.260 . S
C49 O40 1.240 . S
C49 O41 1.252 . S
O50 In39 2.294 . S
O50 C43 1.240 . S
O51 In39 2.326 . S
O51 C43 1.252 . S
In52 O53 2.294 . S
In52 O54 2.326 . S
In52 O58 2.266 . S
In52 O59 2.326 . S
In52 O60 2.266 . S
In52 O61 2.326 . S
In52 O63 2.294 . S
In52 O64 2.326 . S
O53 In52 2.294 . S
O53 C62 1.240 . S
O54 In52 2.326 . S
O54 C62 1.252 . S
C55 O58 1.252 . S
C55 O59 1.260 . S
C56 O63 1.240 . S
C56 O64 1.252 . S
C57 O60 1.252 . S
C57 O61 1.260 . S
O58 In52 2.266 . S
O58 C55 1.252 . S
O59 In52 2.326 . S
O59 C55 1.260 . S
O60 In52 2.266 . S
O60 C57 1.252 . S
O61 In52 2.326 . S
O61 C57 1.260 . S
C62 O53 1.240 . S
C62 O54 1.252 . S
O63 In52 2.294 . S
O63 C56 1.240 . S
O64 In52 2.326 . S
O64 C56 1.252 . S
In65 O66 2.294 . S
In65 O67 2.326 . S
In65 O71 2.266 . S
In65 O72 2.326 . S
In65 O73 2.266 . S
In65 O74 2.326 . S
In65 O76 2.294 . S
In65 O77 2.326 . S
O66 In65 2.294 . S
O66 C75 1.240 . S
O67 In65 2.326 . S
O67 C75 1.252 . S
C68 O71 1.252 . S
C68 O72 1.260 . S
C69 O76 1.240 . S
C69 O77 1.252 . S
C70 O73 1.252 . S
C70 O74 1.260 . S
O71 In65 2.266 . S
O71 C68 1.252 . S
O72 In65 2.326 . S
O72 C68 1.260 . S
O73 In65 2.266 . S
O73 C70 1.252 . S
O74 In65 2.326 . S
O74 C70 1.260 . S
C75 O66 1.240 . S
C75 O67 1.252 . S
O76 In65 2.294 . S
O76 C69 1.240 . S
O77 In65 2.326 . S
O77 C69 1.252 . S
In78 O79 2.294 . S
In78 O80 2.326 . S
In78 O84 2.266 . S
In78 O85 2.326 . S
In78 O86 2.266 . S
In78 O87 2.326 . S
In78 O89 2.294 . S
In78 O90 2.326 . S
O79 In78 2.294 . S
O79 C88 1.240 . S
O80 In78 2.326 . S
O80 C88 1.252 . S
C81 O84 1.252 . S
C81 O85 1.260 . S
C82 O89 1.240 . S
C82 O90 1.252 . S
C83 O86 1.252 . S
C83 O87 1.260 . S
O84 In78 2.266 . S
O84 C81 1.252 . S
O85 In78 2.326 . S
O85 C81 1.260 . S
O86 In78 2.266 . S
O86 C83 1.252 . S
O87 In78 2.326 . S
O87 C83 1.260 . S
C88 O79 1.240 . S
C88 O80 1.252 . S
O89 In78 2.294 . S
O89 C82 1.240 . S
O90 In78 2.326 . S
O90 C82 1.252 . S
In91 O92 2.294 . S
In91 O93 2.326 1_554 S
In91 O97 2.266 . S
In91 O98 2.326 . S
In91 O99 2.266 1_554 S
In91 O100 2.326 1_554 S
In91 O102 2.294 . S
In91 O103 2.326 . S
O92 In91 2.294 . S
O92 C101 1.240 . S
O93 In91 2.326 1_556 S
O93 C101 1.252 1_556 S
C94 O97 1.252 . S
C94 O98 1.260 . S
C95 O102 1.240 . S
C95 O103 1.252 . S
C96 O99 1.252 . S
C96 O100 1.260 . S
O97 In91 2.266 . S
O97 C94 1.252 . S
O98 In91 2.326 . S
O98 C94 1.260 . S
O99 In91 2.266 1_556 S
O99 C96 1.252 . S
O100 In91 2.326 1_556 S
O100 C96 1.260 . S
C101 O92 1.240 . S
C101 O93 1.252 1_554 S
O102 In91 2.294 . S
O102 C95 1.240 . S
O103 In91 2.326 . S
O103 C95 1.252 . S
In104 O105 2.294 . S
In104 O106 2.326 . S
In104 O110 2.266 . S
In104 O111 2.326 . S
In104 O112 2.266 . S
In104 O113 2.326 . S
In104 O115 2.294 . S
In104 O116 2.326 . S
O105 In104 2.294 . S
O105 C114 1.240 . S
O106 In104 2.326 . S
O106 C114 1.252 . S
C107 O110 1.252 . S
C107 O111 1.260 . S
C108 O115 1.240 . S
C108 O116 1.252 . S
C109 O112 1.252 . S
C109 O113 1.260 . S
O110 In104 2.266 . S
O110 C107 1.252 . S
O111 In104 2.326 . S
O111 C107 1.260 . S
O112 In104 2.266 . S
O112 C109 1.252 . S
O113 In104 2.326 . S
O113 C109 1.260 . S
C114 O105 1.240 . S
C114 O106 1.252 . S
O115 In104 2.294 . S
O115 C108 1.240 . S
O116 In104 2.326 . S
O116 C108 1.252 . S
In117 O118 2.294 . S
In117 O119 2.326 . S
In117 O123 2.266 . S
In117 O124 2.326 . S
In117 O125 2.266 . S
In117 O126 2.326 . S
In117 O128 2.294 . S
In117 O129 2.326 . S
O118 In117 2.294 . S
O118 C127 1.240 . S
O119 In117 2.326 . S
O119 C127 1.252 . S
C120 O123 1.252 . S
C120 O124 1.260 . S
C121 O128 1.240 . S
C121 O129 1.252 . S
C122 O125 1.252 . S
C122 O126 1.260 . S
O123 In117 2.266 . S
O123 C120 1.252 . S
O124 In117 2.326 . S
O124 C120 1.260 . S
O125 In117 2.266 . S
O125 C122 1.252 . S
O126 In117 2.326 . S
O126 C122 1.260 . S
C127 O118 1.240 . S
C127 O119 1.252 . S
O128 In117 2.294 . S
O128 C121 1.240 . S
O129 In117 2.326 . S
O129 C121 1.252 . S
In130 O131 2.294 . S
In130 O132 2.326 . S
In130 O136 2.266 . S
In130 O137 2.326 . S
In130 O138 2.266 . S
In130 O139 2.326 . S
In130 O141 2.294 . S
In130 O142 2.326 . S
O131 In130 2.294 . S
O131 C140 1.240 . S
O132 In130 2.326 . S
O132 C140 1.252 . S
C133 O136 1.252 . S
C133 O137 1.260 . S
C134 O141 1.240 . S
C134 O142 1.252 . S
C135 O138 1.252 . S
C135 O139 1.260 . S
O136 In130 2.266 . S
O136 C133 1.252 . S
O137 In130 2.326 . S
O137 C133 1.260 . S
O138 In130 2.266 . S
O138 C135 1.252 . S
O139 In130 2.326 . S
O139 C135 1.260 . S
C140 O131 1.240 . S
C140 O132 1.252 . S
O141 In130 2.294 . S
O141 C134 1.240 . S
O142 In130 2.326 . S
O142 C134 1.252 . S
In143 O144 2.294 . S
In143 O145 2.326 . S
In143 O149 2.266 . S
In143 O150 2.326 . S
In143 O151 2.266 . S
In143 O152 2.326 . S
In143 O154 2.294 . S
In143 O155 2.326 . S
O144 In143 2.294 . S
O144 C153 1.240 . S
O145 In143 2.326 . S
O145 C153 1.252 . S
C146 O149 1.252 . S
C146 O150 1.260 . S
C147 O154 1.240 . S
C147 O155 1.252 . S
C148 O151 1.252 . S
C148 O152 1.260 . S
O149 In143 2.266 . S
O149 C146 1.252 . S
O150 In143 2.326 . S
O150 C146 1.260 . S
O151 In143 2.266 . S
O151 C148 1.252 . S
O152 In143 2.326 . S
O152 C148 1.260 . S
C153 O144 1.240 . S
C153 O145 1.252 . S
O154 In143 2.294 . S
O154 C147 1.240 . S
O155 In143 2.326 . S
O155 C147 1.252 . S
H156 C162 0.930 . S
H157 C166 0.930 . S
H158 C171 0.929 . S
H159 C169 0.929 . S
H160 C164 0.929 . S
H161 C170 0.929 . S
C162 H156 0.930 . S
C162 C163 1.367 . S
C162 C170 1.378 . S
C163 C162 1.367 . S
C163 C171 1.433 . S
C164 H160 0.929 . S
C164 C166 1.378 . S
C164 C168 1.350 . S
C165 C168 1.463 . S
C165 C170 1.350 . S
C165 N173 1.427 . S
C166 H157 0.930 . S
C166 C164 1.378 . S
C166 C167 1.367 . S
C167 C166 1.367 . S
C167 C169 1.433 . S
C168 C164 1.350 . S
C168 C165 1.463 . S
C168 N172 1.427 . S
C169 H159 0.929 . S
C169 C167 1.433 . S
C169 N172 1.384 . S
C170 H161 0.929 . S
C170 C162 1.378 . S
C170 C165 1.350 . S
C171 H158 0.929 . S
C171 C163 1.433 . S
C171 N173 1.384 . S
N172 C168 1.427 . S
N172 C169 1.384 . S
N173 C165 1.427 . S
N173 C171 1.384 . S
H174 C180 0.930 . S
H175 C184 0.930 . S
H176 C189 0.929 . S
H177 C187 0.929 . S
H178 C182 0.929 . S
H179 C188 0.929 . S
C180 H174 0.930 . S
C180 C181 1.367 . S
C180 C188 1.378 . S
C181 C180 1.367 . S
C181 C189 1.433 . S
C182 H178 0.929 . S
C182 C184 1.378 . S
C182 C186 1.350 . S
C183 C186 1.463 . S
C183 C188 1.350 . S
C183 N191 1.427 . S
C184 H175 0.930 . S
C184 C182 1.378 . S
C184 C185 1.367 . S
C185 C184 1.367 . S
C185 C187 1.433 . S
C186 C182 1.350 . S
C186 C183 1.463 . S
C186 N190 1.427 . S
C187 H177 0.929 . S
C187 C185 1.433 . S
C187 N190 1.384 . S
C188 H179 0.929 . S
C188 C180 1.378 . S
C188 C183 1.350 . S
C189 H176 0.929 . S
C189 C181 1.433 . S
C189 N191 1.384 . S
N190 C186 1.427 . S
N190 C187 1.384 . S
N191 C183 1.427 . S
N191 C189 1.384 . S
H192 C198 0.930 . S
H193 C202 0.930 . S
H194 C207 0.929 . S
H195 C205 0.929 . S
H196 C200 0.929 . S
H197 C206 0.929 . S
C198 H192 0.930 . S
C198 C199 1.367 . S
C198 C206 1.378 . S
C199 C198 1.367 . S
C199 C207 1.433 . S
C200 H196 0.929 . S
C200 C202 1.378 . S
C200 C204 1.350 . S
C201 C204 1.463 . S
C201 C206 1.350 . S
C201 N209 1.427 . S
C202 H193 0.930 . S
C202 C200 1.378 . S
C202 C203 1.367 . S
C203 C202 1.367 . S
C203 C205 1.433 . S
C204 C200 1.350 . S
C204 C201 1.463 . S
C204 N208 1.427 . S
C205 H195 0.929 . S
C205 C203 1.433 . S
C205 N208 1.384 . S
C206 H197 0.929 . S
C206 C198 1.378 . S
C206 C201 1.350 . S
C207 H194 0.929 . S
C207 C199 1.433 . S
C207 N209 1.384 . S
N208 C204 1.427 . S
N208 C205 1.384 . S
N209 C201 1.427 . S
N209 C207 1.384 . S
H210 C216 0.930 . S
H211 C220 0.930 . S
H212 C225 0.929 . S
H213 C223 0.929 . S
H214 C218 0.929 . S
H215 C224 0.929 . S
C216 H210 0.930 . S
C216 C217 1.367 . S
C216 C224 1.378 . S
C217 C216 1.367 . S
C217 C225 1.433 . S
C218 H214 0.929 . S
C218 C220 1.378 . S
C218 C222 1.350 . S
C219 C222 1.463 . S
C219 C224 1.350 . S
C219 N227 1.427 . S
C220 H211 0.930 . S
C220 C218 1.378 . S
C220 C221 1.367 . S
C221 C220 1.367 . S
C221 C223 1.433 . S
C222 C218 1.350 . S
C222 C219 1.463 . S
C222 N226 1.427 . S
C223 H213 0.929 . S
C223 C221 1.433 . S
C223 N226 1.384 . S
C224 H215 0.929 . S
C224 C216 1.378 . S
C224 C219 1.350 . S
C225 H212 0.929 . S
C225 C217 1.433 . S
C225 N227 1.384 . S
N226 C222 1.427 . S
N226 C223 1.384 . S
N227 C219 1.427 . S
N227 C225 1.384 . S
H228 C234 0.930 . S
H229 C238 0.930 . S
H230 C243 0.929 . S
H231 C241 0.929 . S
H232 C236 0.929 1_556 S
H233 C242 0.929 . S
C234 H228 0.930 . S
C234 C235 1.367 . S
C234 C242 1.378 . S
C235 C234 1.367 . S
C235 C243 1.433 . S
C236 H232 0.929 1_554 S
C236 C238 1.378 . S
C236 C240 1.350 1_554 S
C237 C240 1.463 . S
C237 C242 1.350 . S
C237 N245 1.427 . S
C238 H229 0.930 . S
C238 C236 1.378 . S
C238 C239 1.367 . S
C239 C238 1.367 . S
C239 C241 1.433 . S
C240 C236 1.350 1_556 S
C240 C237 1.463 . S
C240 N244 1.427 1_556 S
C241 H231 0.929 . S
C241 C239 1.433 . S
C241 N244 1.384 . S
C242 H233 0.929 . S
C242 C234 1.378 . S
C242 C237 1.350 . S
C243 H230 0.929 . S
C243 C235 1.433 . S
C243 N245 1.384 . S
N244 C240 1.427 1_554 S
N244 C241 1.384 . S
N245 C237 1.427 . S
N245 C243 1.384 . S
H246 C252 0.930 . S
H247 C256 0.930 . S
H248 C261 0.929 . S
H249 C259 0.929 . S
H250 C254 0.929 . S
H251 C260 0.929 . S
C252 H246 0.930 . S
C252 C253 1.367 . S
C252 C260 1.378 . S
C253 C252 1.367 . S
C253 C261 1.433 . S
C254 H250 0.929 . S
C254 C256 1.378 . S
C254 C258 1.350 . S
C255 C258 1.463 . S
C255 C260 1.350 . S
C255 N263 1.427 . S
C256 H247 0.930 . S
C256 C254 1.378 . S
C256 C257 1.367 . S
C257 C256 1.367 . S
C257 C259 1.433 . S
C258 C254 1.350 . S
C258 C255 1.463 . S
C258 N262 1.427 . S
C259 H249 0.929 . S
C259 C257 1.433 . S
C259 N262 1.384 . S
C260 H251 0.929 . S
C260 C252 1.378 . S
C260 C255 1.350 . S
C261 H248 0.929 . S
C261 C253 1.433 . S
C261 N263 1.384 . S
N262 C258 1.427 . S
N262 C259 1.384 . S
N263 C255 1.427 . S
N263 C261 1.384 . S
H264 C270 0.930 . S
H265 C274 0.930 . S
H266 C279 0.929 . S
H267 C277 0.929 . S
H268 C272 0.929 . S
H269 C278 0.929 . S
C270 H264 0.930 . S
C270 C271 1.367 . S
C270 C278 1.378 . S
C271 C270 1.367 . S
C271 C279 1.433 . S
C272 H268 0.929 . S
C272 C274 1.378 . S
C272 C276 1.350 . S
C273 C276 1.463 . S
C273 C278 1.350 . S
C273 N281 1.427 . S
C274 H265 0.930 . S
C274 C272 1.378 . S
C274 C275 1.367 . S
C275 C274 1.367 . S
C275 C277 1.433 . S
C276 C272 1.350 . S
C276 C273 1.463 . S
C276 N280 1.427 . S
C277 H267 0.929 . S
C277 C275 1.433 . S
C277 N280 1.384 . S
C278 H269 0.929 . S
C278 C270 1.378 . S
C278 C273 1.350 . S
C279 H266 0.929 . S
C279 C271 1.433 . S
C279 N281 1.384 . S
N280 C276 1.427 . S
N280 C277 1.384 . S
N281 C273 1.427 . S
N281 C279 1.384 . S
H282 C288 0.930 . S
H283 C292 0.930 . S
H284 C297 0.929 . S
H285 C295 0.929 . S
H286 C290 0.929 . S
H287 C296 0.929 . S
C288 H282 0.930 . S
C288 C289 1.367 . S
C288 C296 1.378 . S
C289 C288 1.367 . S
C289 C297 1.433 . S
C290 H286 0.929 . S
C290 C292 1.378 . S
C290 C294 1.350 . S
C291 C294 1.463 . S
C291 C296 1.350 . S
C291 N299 1.427 . S
C292 H283 0.930 . S
C292 C290 1.378 . S
C292 C293 1.367 . S
C293 C292 1.367 . S
C293 C295 1.433 . S
C294 C290 1.350 . S
C294 C291 1.463 . S
C294 N298 1.427 . S
C295 H285 0.929 . S
C295 C293 1.433 . S
C295 N298 1.384 . S
C296 H287 0.929 . S
C296 C288 1.378 . S
C296 C291 1.350 . S
C297 H284 0.929 . S
C297 C289 1.433 . S
C297 N299 1.384 . S
N298 C294 1.427 . S
N298 C295 1.384 . S
N299 C291 1.427 . S
N299 C297 1.384 . S
H300 C306 0.930 . S
H301 C310 0.930 . S
H302 C315 0.929 . S
H303 C313 0.929 . S
H304 C308 0.929 . S
H305 C314 0.929 . S
C306 H300 0.930 . S
C306 C307 1.367 . S
C306 C314 1.378 . S
C307 C306 1.367 . S
C307 C315 1.433 . S
C308 H304 0.929 . S
C308 C310 1.378 . S
C308 C312 1.350 . S
C309 C312 1.463 . S
C309 C314 1.350 . S
C309 N317 1.427 . S
C310 H301 0.930 . S
C310 C308 1.378 . S
C310 C311 1.367 . S
C311 C310 1.367 . S
C311 C313 1.433 . S
C312 C308 1.350 . S
C312 C309 1.463 . S
C312 N316 1.427 . S
C313 H303 0.929 . S
C313 C311 1.433 . S
C313 N316 1.384 . S
C314 H305 0.929 . S
C314 C306 1.378 . S
C314 C309 1.350 . S
C315 H302 0.929 . S
C315 C307 1.433 . S
C315 N317 1.384 . S
N316 C312 1.427 . S
N316 C313 1.384 . S
N317 C309 1.427 . S
N317 C315 1.384 . S
H318 C324 0.930 . S
H319 C328 0.930 . S
H320 C333 0.929 . S
H321 C331 0.929 . S
H322 C326 0.929 . S
H323 C332 0.929 . S
C324 H318 0.930 . S
C324 C325 1.367 . S
C324 C332 1.378 . S
C325 C324 1.367 . S
C325 C333 1.433 . S
C326 H322 0.929 . S
C326 C328 1.378 . S
C326 C330 1.350 . S
C327 C330 1.463 . S
C327 C332 1.350 . S
C327 N335 1.427 . S
C328 H319 0.930 . S
C328 C326 1.378 . S
C328 C329 1.367 . S
C329 C328 1.367 . S
C329 C331 1.433 . S
C330 C326 1.350 . S
C330 C327 1.463 . S
C330 N334 1.427 . S
C331 H321 0.929 . S
C331 C329 1.433 . S
C331 N334 1.384 . S
C332 H323 0.929 . S
C332 C324 1.378 . S
C332 C327 1.350 . S
C333 H320 0.929 . S
C333 C325 1.433 . S
C333 N335 1.384 . S
N334 C330 1.427 . S
N334 C331 1.384 . S
N335 C327 1.427 . S
N335 C333 1.384 . S
H336 C342 0.930 . S
H337 C346 0.930 . S
H338 C351 0.929 . S
H339 C349 0.929 . S
H340 C344 0.929 . S
H341 C350 0.929 . S
C342 H336 0.930 . S
C342 C343 1.367 . S
C342 C350 1.378 . S
C343 C342 1.367 . S
C343 C351 1.433 . S
C344 H340 0.929 . S
C344 C346 1.378 . S
C344 C348 1.350 . S
C345 C348 1.463 . S
C345 C350 1.350 . S
C345 N353 1.427 . S
C346 H337 0.930 . S
C346 C344 1.378 . S
C346 C347 1.367 . S
C347 C346 1.367 . S
C347 C349 1.433 . S
C348 C344 1.350 . S
C348 C345 1.463 . S
C348 N352 1.427 . S
C349 H339 0.929 . S
C349 C347 1.433 . S
C349 N352 1.384 . S
C350 H341 0.929 . S
C350 C342 1.378 . S
C350 C345 1.350 . S
C351 H338 0.929 . S
C351 C343 1.433 . S
C351 N353 1.384 . S
N352 C348 1.427 . S
N352 C349 1.384 . S
N353 C345 1.427 . S
N353 C351 1.384 . S
H354 C360 0.930 . S
H355 C364 0.930 . S
H356 C369 0.929 . S
H357 C367 0.929 . S
H358 C362 0.929 . S
H359 C368 0.929 . S
C360 H354 0.930 . S
C360 C361 1.367 1_554 S
C360 C368 1.378 . S
C361 C360 1.367 1_556 S
C361 C369 1.433 . S
C362 H358 0.929 . S
C362 C364 1.378 . S
C362 C366 1.350 . S
C363 C366 1.463 . S
C363 C368 1.350 1_556 S
C363 N371 1.427 . S
C364 H355 0.930 . S
C364 C362 1.378 . S
C364 C365 1.367 1_556 S
C365 C364 1.367 1_554 S
C365 C367 1.433 . S
C366 C362 1.350 . S
C366 C363 1.463 . S
C366 N370 1.427 1_556 S
C367 H357 0.929 . S
C367 C365 1.433 . S
C367 N370 1.384 . S
C368 H359 0.929 . S
C368 C360 1.378 . S
C368 C363 1.350 1_554 S
C369 H356 0.929 . S
C369 C361 1.433 . S
C369 N371 1.384 . S
N370 C366 1.427 1_554 S
N370 C367 1.384 . S
N371 C363 1.427 . S
N371 C369 1.384 . S
H372 C378 0.930 . S
H373 C382 0.930 . S
H374 C387 0.929 . S
H375 C385 0.929 . S
H376 C380 0.929 . S
H377 C386 0.929 . S
C378 H372 0.930 . S
C378 C379 1.367 . S
C378 C386 1.378 . S
C379 C378 1.367 . S
C379 C387 1.433 . S
C380 H376 0.929 . S
C380 C382 1.378 . S
C380 C384 1.350 . S
C381 C384 1.463 . S
C381 C386 1.350 . S
C381 N389 1.427 . S
C382 H373 0.930 . S
C382 C380 1.378 . S
C382 C383 1.367 . S
C383 C382 1.367 . S
C383 C385 1.433 . S
C384 C380 1.350 . S
C384 C381 1.463 . S
C384 N388 1.427 . S
C385 H375 0.929 . S
C385 C383 1.433 . S
C385 N388 1.384 . S
C386 H377 0.929 . S
C386 C378 1.378 . S
C386 C381 1.350 . S
C387 H374 0.929 . S
C387 C379 1.433 . S
C387 N389 1.384 . S
N388 C384 1.427 . S
N388 C385 1.384 . S
N389 C381 1.427 . S
N389 C387 1.384 . S
H390 C396 0.930 . S
H391 C400 0.930 . S
H392 C405 0.929 . S
H393 C403 0.929 . S
H394 C398 0.929 . S
H395 C404 0.929 . S
C396 H390 0.930 . S
C396 C397 1.367 . S
C396 C404 1.378 . S
C397 C396 1.367 . S
C397 C405 1.433 . S
C398 H394 0.929 . S
C398 C400 1.378 . S
C398 C402 1.350 . S
C399 C402 1.460 1_554 S
C399 C404 1.353 . S
C399 N407 1.426 1_554 S
C400 H391 0.930 . S
C400 C398 1.378 . S
C400 C401 1.367 . S
C401 C400 1.367 . S
C401 C403 1.433 . S
C402 C398 1.350 . S
C402 C399 1.460 1_556 S
C402 N406 1.427 . S
C403 H393 0.929 . S
C403 C401 1.433 . S
C403 N406 1.384 . S
C404 H395 0.929 . S
C404 C396 1.378 . S
C404 C399 1.353 . S
C405 H392 0.929 . S
C405 C397 1.433 . S
C405 N407 1.384 1_554 S
N406 C402 1.427 . S
N406 C403 1.384 . S
N407 C399 1.426 1_556 S
N407 C405 1.384 1_556 S
H408 C414 0.930 . S
H409 C418 0.930 1_556 S
H410 C423 0.929 . S
H411 C421 0.929 . S
H412 C416 0.929 . S
H413 C422 0.929 . S
C414 H408 0.930 . S
C414 C415 1.367 . S
C414 C422 1.378 . S
C415 C414 1.367 . S
C415 C423 1.433 . S
C416 H412 0.929 . S
C416 C418 1.378 . S
C416 C420 1.350 . S
C417 C420 1.463 . S
C417 C422 1.350 . S
C417 N425 1.427 . S
C418 H409 0.930 1_554 S
C418 C416 1.378 . S
C418 C419 1.367 . S
C419 C418 1.367 . S
C419 C421 1.433 . S
C420 C416 1.350 . S
C420 C417 1.463 . S
C420 N424 1.427 . S
C421 H411 0.929 . S
C421 C419 1.433 . S
C421 N424 1.384 . S
C422 H413 0.929 . S
C422 C414 1.378 . S
C422 C417 1.350 . S
C423 H410 0.929 . S
C423 C415 1.433 . S
C423 N425 1.384 . S
N424 C420 1.427 . S
N424 C421 1.384 . S
N425 C417 1.427 . S
N425 C423 1.384 . S
H426 C432 0.930 . S
H427 C436 0.930 . S
H428 C441 0.929 . S
H429 C439 0.929 . S
H430 C434 0.929 . S
H431 C440 0.929 . S
C432 H426 0.930 . S
C432 C433 1.367 . S
C432 C440 1.378 . S
C433 C432 1.367 . S
C433 C441 1.433 . S
C434 H430 0.929 . S
C434 C436 1.378 . S
C434 C438 1.350 . S
C435 C438 1.463 . S
C435 C440 1.350 . S
C435 N443 1.427 . S
C436 H427 0.930 . S
C436 C434 1.378 . S
C436 C437 1.367 . S
C437 C436 1.367 . S
C437 C439 1.433 . S
C438 C434 1.350 . S
C438 C435 1.463 . S
C438 N442 1.427 . S
C439 H429 0.929 . S
C439 C437 1.433 . S
C439 N442 1.384 . S
C440 H431 0.929 . S
C440 C432 1.378 . S
C440 C435 1.350 . S
C441 H428 0.929 . S
C441 C433 1.433 . S
C441 N443 1.384 . S
N442 C438 1.427 . S
N442 C439 1.384 . S
N443 C435 1.427 . S
N443 C441 1.384 . S
H444 C450 0.930 . S
H445 C454 0.930 . S
H446 C459 0.929 . S
H447 C457 0.929 . S
H448 C452 0.929 . S
H449 C458 0.929 . S
C450 H444 0.930 . S
C450 C451 1.367 . S
C450 C458 1.378 . S
C451 C450 1.367 . S
C451 C459 1.433 . S
C452 H448 0.929 . S
C452 C454 1.378 . S
C452 C456 1.350 . S
C453 C456 1.463 . S
C453 C458 1.350 . S
C453 N461 1.427 . S
C454 H445 0.930 . S
C454 C452 1.378 . S
C454 C455 1.367 . S
C455 C454 1.367 . S
C455 C457 1.433 . S
C456 C452 1.350 . S
C456 C453 1.463 . S
C456 N460 1.427 . S
C457 H447 0.929 . S
C457 C455 1.433 . S
C457 N460 1.384 . S
C458 H449 0.929 . S
C458 C450 1.378 . S
C458 C453 1.350 . S
C459 H446 0.929 . S
C459 C451 1.433 . S
C459 N461 1.384 . S
N460 C456 1.427 . S
N460 C457 1.384 . S
N461 C453 1.427 . S
N461 C459 1.384 . S
H462 C468 0.930 . S
H463 C472 0.930 . S
H464 C477 0.929 . S
H465 C475 0.929 . S
H466 C470 0.929 . S
H467 C476 0.929 . S
C468 H462 0.930 . S
C468 C469 1.367 . S
C468 C476 1.378 . S
C469 C468 1.367 . S
C469 C477 1.433 . S
C470 H466 0.929 . S
C470 C472 1.378 . S
C470 C474 1.350 . S
C471 C474 1.463 . S
C471 C476 1.350 . S
C471 N479 1.427 . S
C472 H463 0.930 . S
C472 C470 1.378 . S
C472 C473 1.367 . S
C473 C472 1.367 . S
C473 C475 1.433 . S
C474 C470 1.350 . S
C474 C471 1.463 . S
C474 N478 1.427 . S
C475 H465 0.929 . S
C475 C473 1.433 . S
C475 N478 1.384 . S
C476 H467 0.929 . S
C476 C468 1.378 . S
C476 C471 1.350 . S
C477 H464 0.929 . S
C477 C469 1.433 . S
C477 N479 1.384 . S
N478 C474 1.427 . S
N478 C475 1.384 . S
N479 C471 1.427 . S
N479 C477 1.384 . S
H480 C486 0.930 1_554 S
H481 C490 0.930 . S
H482 C495 0.929 . S
H483 C493 0.929 . S
H484 C488 0.929 . S
H485 C494 0.929 . S
C486 H480 0.930 1_556 S
C486 C487 1.367 . S
C486 C494 1.378 . S
C487 C486 1.367 . S
C487 C495 1.433 . S
C488 H484 0.929 . S
C488 C490 1.378 . S
C488 C492 1.350 . S
C489 C492 1.463 1_455 S
C489 C494 1.350 . S
C489 N497 1.427 . S
C490 H481 0.930 . S
C490 C488 1.378 . S
C490 C491 1.367 . S
C491 C490 1.367 . S
C491 C493 1.433 . S
C492 C488 1.350 . S
C492 C489 1.463 1_655 S
C492 N496 1.427 . S
C493 H483 0.929 . S
C493 C491 1.433 . S
C493 N496 1.384 . S
C494 H485 0.929 . S
C494 C486 1.378 . S
C494 C489 1.350 . S
C495 H482 0.929 . S
C495 C487 1.433 . S
C495 N497 1.384 . S
N496 C492 1.427 . S
N496 C493 1.384 . S
N497 C489 1.427 . S
N497 C495 1.384 . S
H498 C504 0.930 . S
H499 C508 0.930 . S
H500 C513 0.929 . S
H501 C511 0.929 . S
H502 C506 0.929 . S
H503 C512 0.928 1_556 S
C504 H498 0.930 . S
C504 C505 1.367 . S
C504 C512 1.377 1_556 S
C505 C504 1.367 . S
C505 C513 1.433 1_556 S
C506 H502 0.929 . S
C506 C508 1.378 . S
C506 C510 1.350 . S
C507 C510 1.463 1_565 S
C507 C512 1.351 . S
C507 N515 1.427 . S
C508 H499 0.930 . S
C508 C506 1.378 . S
C508 C509 1.367 . S
C509 C508 1.367 . S
C509 C511 1.433 . S
C510 C506 1.350 . S
C510 C507 1.463 1_545 S
C510 N514 1.427 . S
C511 H501 0.929 . S
C511 C509 1.433 . S
C511 N514 1.384 . S
C512 H503 0.928 1_554 S
C512 C504 1.377 1_554 S
C512 C507 1.351 . S
C513 H500 0.929 . S
C513 C505 1.433 1_554 S
C513 N515 1.384 . S
N514 C510 1.427 . S
N514 C511 1.384 . S
N515 C507 1.427 . S
N515 C513 1.384 . S
H516 C522 0.930 . S
H517 C526 0.930 . S
H518 C531 0.929 . S
H519 C529 0.929 . S
H520 C524 0.929 . S
H521 C530 0.929 . S
C522 H516 0.930 . S
C522 C523 1.367 . S
C522 C530 1.378 . S
C523 C522 1.367 . S
C523 C531 1.433 . S
C524 H520 0.929 . S
C524 C526 1.378 . S
C524 C528 1.350 . S
C525 C528 1.463 . S
C525 C530 1.350 . S
C525 N533 1.427 . S
C526 H517 0.930 . S
C526 C524 1.378 . S
C526 C527 1.367 . S
C527 C526 1.367 . S
C527 C529 1.433 . S
C528 C524 1.350 . S
C528 C525 1.463 . S
C528 N532 1.427 . S
C529 H519 0.929 . S
C529 C527 1.433 . S
C529 N532 1.384 . S
C530 H521 0.929 . S
C530 C522 1.378 . S
C530 C525 1.350 . S
C531 H518 0.929 . S
C531 C523 1.433 . S
C531 N533 1.384 . S
N532 C528 1.427 . S
N532 C529 1.384 . S
N533 C525 1.427 . S
N533 C531 1.384 . S
H534 C540 0.930 . S
H535 C544 0.930 . S
H536 C549 0.929 . S
H537 C547 0.929 . S
H538 C542 0.929 . S
H539 C548 0.929 . S
C540 H534 0.930 . S
C540 C541 1.367 . S
C540 C548 1.378 . S
C541 C540 1.367 . S
C541 C549 1.433 . S
C542 H538 0.929 . S
C542 C544 1.378 . S
C542 C546 1.350 . S
C543 C546 1.463 1_455 S
C543 C548 1.350 . S
C543 N551 1.427 . S
C544 H535 0.930 . S
C544 C542 1.378 . S
C544 C545 1.367 . S
C545 C544 1.367 . S
C545 C547 1.433 . S
C546 C542 1.350 . S
C546 C543 1.463 1_655 S
C546 N550 1.427 . S
C547 H537 0.929 . S
C547 C545 1.433 . S
C547 N550 1.384 . S
C548 H539 0.929 . S
C548 C540 1.378 . S
C548 C543 1.350 . S
C549 H536 0.929 . S
C549 C541 1.433 . S
C549 N551 1.384 . S
N550 C546 1.427 . S
N550 C547 1.384 . S
N551 C543 1.427 . S
N551 C549 1.384 . S
H552 C558 0.930 . S
H553 C562 0.930 . S
H554 C567 0.929 . S
H555 C565 0.929 . S
H556 C560 0.929 . S
H557 C566 0.929 . S
C558 H552 0.930 . S
C558 C559 1.367 . S
C558 C566 1.378 . S
C559 C558 1.367 . S
C559 C567 1.433 . S
C560 H556 0.929 . S
C560 C562 1.378 . S
C560 C564 1.350 . S
C561 C564 1.463 1_545 S
C561 C566 1.350 . S
C561 N569 1.427 . S
C562 H553 0.930 . S
C562 C560 1.378 . S
C562 C563 1.367 . S
C563 C562 1.367 . S
C563 C565 1.433 . S
C564 C560 1.350 . S
C564 C561 1.463 1_565 S
C564 N568 1.427 . S
C565 H555 0.929 . S
C565 C563 1.433 . S
C565 N568 1.384 . S
C566 H557 0.929 . S
C566 C558 1.378 . S
C566 C561 1.350 . S
C567 H554 0.929 . S
C567 C559 1.433 . S
C567 N569 1.384 . S
N568 C564 1.427 . S
N568 C565 1.384 . S
N569 C561 1.427 . S
N569 C567 1.384 . S
H570 C576 0.930 . S
H571 C580 0.930 . S
H572 C585 0.929 . S
H573 C583 0.929 . S
H574 C578 0.929 . S
H575 C584 0.929 . S
C576 H570 0.930 . S
C576 C577 1.367 . S
C576 C584 1.378 . S
C577 C576 1.367 . S
C577 C585 1.433 . S
C578 H574 0.929 . S
C578 C580 1.378 . S
C578 C582 1.350 . S
C579 C582 1.463 . S
C579 C584 1.350 . S
C579 N587 1.427 . S
C580 H571 0.930 . S
C580 C578 1.378 . S
C580 C581 1.367 . S
C581 C580 1.367 . S
C581 C583 1.433 . S
C582 C578 1.350 . S
C582 C579 1.463 . S
C582 N586 1.427 . S
C583 H573 0.929 . S
C583 C581 1.433 . S
C583 N586 1.384 . S
C584 H575 0.929 . S
C584 C576 1.378 . S
C584 C579 1.350 . S
C585 H572 0.929 . S
C585 C577 1.433 . S
C585 N587 1.384 . S
N586 C582 1.427 . S
N586 C583 1.384 . S
N587 C579 1.427 . S
N587 C585 1.384 . S
C163 C3 1.498 . S
C167 C135 1.496 . S
C181 C148 1.503 . S
C185 C16 1.499 . S
C199 C29 1.503 . S
C203 C83 1.499 . S
C217 C44 1.500 . S
C221 C96 1.496 . S
C235 C57 1.502 . S
C239 C107 1.498 . S
C253 C122 1.498 . S
C257 C68 1.502 1_554 S
C271 C4 1.747 . S
C275 C108 1.746 . S
C289 C17 1.746 . S
C293 C127 1.748 . S
C307 C140 1.746 . S
C311 C30 1.746 . S
C325 C49 1.748 . S
C329 C153 1.746 . S
C343 C62 1.749 . S
C347 C88 1.748 . S
C361 C69 1.749 . S
C365 C101 1.749 . S
C379 C133 1.477 . S
C383 C5 1.475 . S
C397 C18 1.476 . S
C401 C146 1.475 . S
C415 C31 1.476 . S
C419 C81 1.475 1_554 S
C433 C42 1.475 . S
C437 C94 1.477 . S
C451 C109 1.476 . S
C455 C55 1.477 . S
C469 C70 1.476 . S
C473 C120 1.475 . S
C487 C10 1.409 1_556 S
C491 C147 1.407 . S
C505 C82 1.406 . S
C509 C23 1.408 . S
C523 C95 1.409 . S
C527 C36 1.409 . S
C541 C114 1.403 . S
C545 C43 1.403 . S
C559 C121 1.404 . S
C563 C56 1.403 . S
C577 C134 1.408 . S
C581 C75 1.406 . S
