# Generated by pormake.
# Topology rac, (4)-cn, num edge types: 1
# Building blocks:
#     Node 0, Type 0, BuildingBlock: CEKHIL_clean_sbu_0, # of connection points: 4
#     Node 1, Type 0, BuildingBlock: CEKHIL_clean_sbu_0, # of connection points: 4
#     Node 2, Type 0, BuildingBlock: CEKHIL_clean_sbu_0, # of connection points: 4
#     Node 3, Type 0, BuildingBlock: CEKHIL_clean_sbu_0, # of connection points: 4
#     Node 4, Type 0, BuildingBlock: CEKHIL_clean_sbu_0, # of connection points: 4
#     Node 5, Type 0, BuildingBlock: CEKHIL_clean_sbu_0, # of connection points: 4
#     Node 6, Type 0, BuildingBlock: CEKHIL_clean_sbu_0, # of connection points: 4
#     Node 7, Type 0, BuildingBlock: CEKHIL_clean_sbu_0, # of connection points: 4
#     Edge 8, Type (0, 0), BuildingBlock: CIFDUS_clean_linker_0, # of connection points: 2
#     Edge 9, Type (0, 0), BuildingBlock: CIFDUS_clean_linker_0, # of connection points: 2
#     Edge 10, Type (0, 0), BuildingBlock: CIFDUS_clean_linker_0, # of connection points: 2
#     Edge 11, Type (0, 0), BuildingBlock: CIFDUS_clean_linker_0, # of connection points: 2
#     Edge 12, Type (0, 0), BuildingBlock: CIFDUS_clean_linker_0, # of connection points: 2
#     Edge 13, Type (0, 0), BuildingBlock: CIFDUS_clean_linker_0, # of connection points: 2
#     Edge 14, Type (0, 0), BuildingBlock: CIFDUS_clean_linker_0, # of connection points: 2
#     Edge 15, Type (0, 0), BuildingBlock: CIFDUS_clean_linker_0, # of connection points: 2
#     Edge 16, Type (0, 0), BuildingBlock: CIFDUS_clean_linker_0, # of connection points: 2
#     Edge 17, Type (0, 0), BuildingBlock: CIFDUS_clean_linker_0, # of connection points: 2
#     Edge 18, Type (0, 0), BuildingBlock: CIFDUS_clean_linker_0, # of connection points: 2
#     Edge 19, Type (0, 0), BuildingBlock: CIFDUS_clean_linker_0, # of connection points: 2
#     Edge 20, Type (0, 0), BuildingBlock: CIFDUS_clean_linker_0, # of connection points: 2
#     Edge 21, Type (0, 0), BuildingBlock: CIFDUS_clean_linker_0, # of connection points: 2
#     Edge 22, Type (0, 0), BuildingBlock: CIFDUS_clean_linker_0, # of connection points: 2
#     Edge 23, Type (0, 0), BuildingBlock: CIFDUS_clean_linker_0, # of connection points: 2
# Relax obj value: 0.225
# Max RMSD: 0.071
# Mean RMSD: 0.071
data_MOF--net-rac--node1-CEKHIL_clean_sbu_0--edge1-CIFDUS_clean_linker_0
_symmetry_space_group_name_H-M    P1
_symmetry_Int_Tables_number       1
_symmetry_cell_setting            triclinic
loop_
_symmetry_equiv_pos_as_xyz
'x, y, z'
_cell_length_a     36.201818
_cell_length_b     18.639317
_cell_length_c     31.303978
_cell_angle_alpha  89.985896
_cell_angle_beta   90.01287
_cell_angle_gamma 89.992961
loop_
_atom_site_label
_atom_site_type_symbol
_atom_site_fract_x
_atom_site_fract_y
_atom_site_fract_z
_atom_type_partial_charge
Co0 Co 0.36804 0.3018 0.04888 0.0
O1 O 0.39503 0.39093 0.05068 0.0
O2 O 0.41021 0.30091 0.009 0.0
C3 C 0.36519 0.29058 0.12068 0.0
O4 O 0.3436 0.20142 0.04108 0.0
Co5 Co 0.289 0.30769 0.09063 0.0
O6 O 0.28941 0.20505 0.0774 0.0
C7 C 0.3 0.34659 -0.00069 0.0
C8 C 0.41742 0.36582 0.02244 0.0
C9 C 0.31273 0.17261 0.05389 0.0
O10 O 0.33516 0.33988 0.00244 0.0
O11 O 0.27775 0.33846 0.03075 0.0
O12 O 0.39414 0.26899 0.09999 0.0
O13 O 0.34087 0.3239 0.09814 0.0
Co14 Co 0.1443 0.68481 0.04956 0.0
O15 O 0.11449 0.59928 0.0508 0.0
O16 O 0.10217 0.69148 0.0096 0.0
C17 C 0.14719 0.69349 0.12164 0.0
O18 O 0.172 0.78204 0.04233 0.0
Co19 Co 0.22245 0.66956 0.09158 0.0
O20 O 0.22517 0.77273 0.08011 0.0
C21 C 0.21086 0.63434 -0.00019 0.0
C22 C 0.09303 0.6272 0.02256 0.0
C23 C 0.2033 0.80776 0.05603 0.0
O24 O 0.17585 0.64341 0.00296 0.0
O25 O 0.23321 0.64021 0.03134 0.0
O26 O 0.11954 0.72059 0.10081 0.0
O27 O 0.17025 0.65732 0.0989 0.0
Co28 Co 0.38128 0.21694 0.44188 0.0
O29 O 0.41235 0.13413 0.43447 0.0
O30 O 0.41903 0.21086 0.48717 0.0
C31 C 0.38376 0.24941 0.37234 0.0
O32 O 0.35106 0.30887 0.45674 0.0
Co33 Co 0.30666 0.20902 0.39096 0.0
O34 O 0.29938 0.30456 0.4158 0.0
C35 C 0.31373 0.14002 0.47569 0.0
C36 C 0.42981 0.15144 0.46877 0.0
C37 C 0.31934 0.33445 0.44418 0.0
O38 O 0.34743 0.1596 0.47879 0.0
O39 O 0.29355 0.15148 0.4428 0.0
O40 O 0.40953 0.26922 0.39865 0.0
O41 O 0.35966 0.20594 0.38802 0.0
Co42 Co 0.12955 0.78691 0.44207 0.0
O43 O 0.09742 0.86784 0.43403 0.0
O44 O 0.08817 0.78572 0.48317 0.0
C45 C 0.13316 0.76179 0.37161 0.0
O46 O 0.16039 0.69557 0.45685 0.0
Co47 Co 0.20733 0.80419 0.40001 0.0
O48 O 0.21455 0.70627 0.42109 0.0
C49 C 0.19189 0.86766 0.48474 0.0
C50 C 0.07767 0.84606 0.46562 0.0
C51 C 0.19314 0.6725 0.44631 0.0
O52 O 0.15888 0.84349 0.48438 0.0
O53 O 0.21447 0.86096 0.45354 0.0
O54 O 0.10603 0.73708 0.39431 0.0
O55 O 0.15481 0.8058 0.39099 0.0
Co56 Co 0.62809 0.71355 0.94458 0.0
O57 O 0.59539 0.63305 0.93763 0.0
O58 O 0.58774 0.71494 0.98717 0.0
C59 C 0.62945 0.73982 0.87425 0.0
O60 O 0.65962 0.80455 0.95818 0.0
Co61 Co 0.70431 0.69638 0.89876 0.0
O62 O 0.71183 0.79509 0.91865 0.0
C63 C 0.69248 0.63499 0.9849 0.0
C64 C 0.57639 0.65509 0.96975 0.0
C65 C 0.6916 0.82846 0.94533 0.0
O66 O 0.65889 0.6563 0.98537 0.0
O67 O 0.71421 0.64308 0.95301 0.0
O68 O 0.60338 0.76515 0.89833 0.0
O69 O 0.65151 0.69491 0.89235 0.0
Co70 Co 0.87491 0.29592 0.94548 0.0
O71 O 0.90668 0.37836 0.9398 0.0
O72 O 0.91766 0.28988 0.98437 0.0
C73 C 0.86931 0.2791 0.87426 0.0
O74 O 0.84515 0.20199 0.95745 0.0
Co75 Co 0.79545 0.3147 0.90678 0.0
O76 O 0.79009 0.214 0.92365 0.0
C77 C 0.81304 0.36981 0.99336 0.0
C78 C 0.92783 0.35199 0.96893 0.0
C79 C 0.81248 0.17847 0.94681 0.0
O80 O 0.84628 0.34674 0.99117 0.0
O81 O 0.7898 0.36558 0.96261 0.0
O82 O 0.89736 0.25283 0.89479 0.0
O83 O 0.84769 0.3193 0.89649 0.0
Co84 Co 0.62879 0.78542 0.55185 0.0
O85 O 0.59476 0.86274 0.56163 0.0
O86 O 0.58812 0.78436 0.50982 0.0
C87 C 0.63266 0.75454 0.62129 0.0
O88 O 0.66183 0.69813 0.53519 0.0
Co89 Co 0.70575 0.80656 0.59562 0.0
O90 O 0.71497 0.71019 0.57282 0.0
C91 C 0.68955 0.87524 0.51263 0.0
C92 C 0.57622 0.84259 0.52869 0.0
C93 C 0.6947 0.67651 0.5463 0.0
O94 O 0.6572 0.848 0.51174 0.0
O95 O 0.712 0.86823 0.54394 0.0
O96 O 0.60629 0.72887 0.59772 0.0
O97 O 0.65314 0.8024 0.60354 0.0
Co98 Co 0.88159 0.21894 0.55164 0.0
O99 O 0.91137 0.13409 0.55808 0.0
O100 O 0.91941 0.21253 0.50651 0.0
C101 C 0.88473 0.24822 0.6217 0.0
O102 O 0.853 0.31313 0.53756 0.0
Co103 Co 0.80693 0.21546 0.60259 0.0
O104 O 0.8009 0.3113 0.57778 0.0
C105 C 0.81266 0.14807 0.5171 0.0
C106 C 0.92939 0.15205 0.52427 0.0
C107 C 0.82156 0.34028 0.54976 0.0
O108 O 0.84678 0.16497 0.51408 0.0
O109 O 0.79282 0.16039 0.55016 0.0
O110 O 0.91069 0.2677 0.59557 0.0
O111 O 0.85976 0.20728 0.60545 0.0
H112 H 0.24376 0.13368 0.03227 0.0
H113 H 0.35371 0.04793 0.04703 0.0
H114 H 0.32855 0.92558 0.04296 0.0
H115 H 0.27477 0.84528 0.04596 0.0
H116 H 0.16438 0.93141 0.0363 0.0
H117 H 0.19035 0.05233 0.02717 0.0
C118 C 0.26239 0.08814 0.03386 0.0
C119 C 0.30064 0.0998 0.04053 0.0
C120 C 0.24751 0.01856 0.03304 0.0
C121 C 0.32438 0.04051 0.04179 0.0
C122 C 0.30985 0.9707 0.03995 0.0
C123 C 0.25622 0.89039 0.04153 0.0
C124 C 0.21747 0.87946 0.04279 0.0
C125 C 0.27137 0.95939 0.03733 0.0
C126 C 0.19409 0.93821 0.03576 0.0
C127 C 0.20902 0.00729 0.03079 0.0
H128 H 0.26411 0.64927 0.46826 0.0
H129 H 0.15877 0.54208 0.45991 0.0
H130 H 0.19 0.42565 0.46732 0.0
H131 H 0.24759 0.3556 0.46276 0.0
H132 H 0.35307 0.46308 0.46441 0.0
H133 H 0.32147 0.57873 0.47389 0.0
C134 C 0.24782 0.60043 0.46902 0.0
C135 C 0.20906 0.60429 0.46295 0.0
C136 C 0.26615 0.53403 0.47158 0.0
C137 C 0.1884 0.54078 0.46462 0.0
C138 C 0.2064 0.47425 0.46837 0.0
C139 C 0.26378 0.40425 0.46619 0.0
C140 C 0.30275 0.40087 0.46235 0.0
C141 C 0.24531 0.47034 0.46988 0.0
C142 C 0.32327 0.46404 0.46741 0.0
C143 C 0.30508 0.53016 0.47231 0.0
H144 H 0.76391 0.85617 0.9586 0.0
H145 H 0.6565 0.95571 0.96583 0.0
H146 H 0.68614 0.07348 0.97436 0.0
H147 H 0.742 0.14836 0.96828 0.0
H148 H 0.84915 0.04921 0.95601 0.0
H149 H 0.8202 0.9303 0.96168 0.0
C150 C 0.74686 0.90352 0.96277 0.0
C151 C 0.70785 0.89718 0.96094 0.0
C152 C 0.76415 0.97085 0.96635 0.0
C153 C 0.68635 0.95884 0.96716 0.0
C154 C 0.7034 0.02619 0.97161 0.0
C155 C 0.75921 0.10071 0.96764 0.0
C156 C 0.79781 0.1077 0.96115 0.0
C157 C 0.74218 0.03293 0.96954 0.0
C158 C 0.81962 0.04556 0.96108 0.0
C159 C 0.80292 0.97763 0.96386 0.0
H160 H 0.76686 0.65536 0.52884 0.0
H161 H 0.66164 0.5468 0.52721 0.0
H162 H 0.69357 0.43131 0.51895 0.0
H163 H 0.75107 0.36142 0.52597 0.0
H164 H 0.85603 0.46983 0.53426 0.0
H165 H 0.82462 0.58577 0.52529 0.0
C166 C 0.75079 0.60651 0.52575 0.0
C167 C 0.71178 0.60961 0.5293 0.0
C168 C 0.76943 0.54051 0.52267 0.0
C169 C 0.69147 0.5461 0.52454 0.0
C170 C 0.70984 0.48006 0.52029 0.0
C171 C 0.76722 0.41042 0.52467 0.0
C172 C 0.80591 0.40715 0.53118 0.0
C173 C 0.74875 0.47657 0.52133 0.0
C174 C 0.82645 0.47075 0.52907 0.0
C175 C 0.80834 0.537 0.52449 0.0
H176 H 0.41974 0.30199 0.17836 0.0
H177 H 0.30291 0.26262 0.1665 0.0
H178 H 0.29792 0.24756 0.24415 0.0
H179 H 0.32752 0.24301 0.31514 0.0
H180 H 0.44352 0.29246 0.32677 0.0
H181 H 0.44813 0.30742 0.24947 0.0
C182 C 0.39325 0.28995 0.19292 0.0
C183 C 0.36182 0.28232 0.16714 0.0
C184 C 0.39047 0.28383 0.23741 0.0
C185 C 0.32744 0.26835 0.18603 0.0
C186 C 0.32461 0.25981 0.23029 0.0
C187 C 0.35368 0.25763 0.30068 0.0
C188 C 0.38518 0.26616 0.32641 0.0
C189 C 0.35601 0.26718 0.25627 0.0
C190 C 0.41887 0.28582 0.30754 0.0
C191 C 0.42159 0.29394 0.26335 0.0
H192 H 0.17126 0.67007 0.32107 0.0
H193 H 0.0942 0.84604 0.31885 0.0
H194 H 0.09251 0.84246 0.24067 0.0
H195 H 0.11192 0.78736 0.17325 0.0
H196 H 0.18959 0.61191 0.17472 0.0
H197 H 0.19208 0.61663 0.25278 0.0
C198 C 0.15416 0.70728 0.30317 0.0
C199 C 0.1326 0.75776 0.325 0.0
C200 C 0.15343 0.70486 0.25831 0.0
C201 C 0.11063 0.80634 0.30216 0.0
C202 C 0.10974 0.80437 0.25765 0.0
C203 C 0.1295 0.7504 0.19069 0.0
C204 C 0.15052 0.69943 0.16842 0.0
C205 C 0.13086 0.7536 0.23541 0.0
C206 C 0.17336 0.65205 0.19127 0.0
C207 C 0.17469 0.65451 0.23587 0.0
H208 H 0.64667 0.64729 0.81119 0.0
H209 H 0.61496 0.86652 0.83511 0.0
H210 H 0.61529 0.89137 0.75824 0.0
H211 H 0.62294 0.84938 0.68426 0.0
H212 H 0.64721 0.62701 0.65981 0.0
H213 H 0.65151 0.6039 0.73696 0.0
C214 C 0.64022 0.70058 0.7994 0.0
C215 C 0.63128 0.75543 0.82836 0.0
C216 C 0.63895 0.71343 0.75527 0.0
C217 C 0.62208 0.82385 0.8131 0.0
C218 C 0.62223 0.83794 0.7693 0.0
C219 C 0.62929 0.79604 0.69608 0.0
C220 C 0.63509 0.7399 0.66709 0.0
C221 C 0.63036 0.78301 0.74014 0.0
C222 C 0.64271 0.67067 0.68206 0.0
C223 C 0.64521 0.65767 0.72596 0.0
H224 H 0.82852 0.25556 0.67884 0.0
H225 H 0.94718 0.26575 0.66811 0.0
H226 H 0.95286 0.27182 0.74576 0.0
H227 H 0.92421 0.27176 0.8167 0.0
H228 H 0.8056 0.27342 0.82805 0.0
H229 H 0.79955 0.26482 0.75015 0.0
C230 C 0.85552 0.25974 0.69364 0.0
C231 C 0.88739 0.26007 0.66804 0.0
C232 C 0.85854 0.26461 0.73829 0.0
C233 C 0.92227 0.26605 0.68729 0.0
C234 C 0.92555 0.26897 0.73165 0.0
C235 C 0.89708 0.26969 0.80203 0.0
C236 C 0.86538 0.27189 0.82774 0.0
C237 C 0.89391 0.26761 0.75743 0.0
C238 C 0.83032 0.27111 0.80861 0.0
C239 C 0.8269 0.26639 0.7642 0.0
H240 H 0.43841 0.49666 0.05268 0.0
H241 H 0.46804 0.33692 0.95895 0.0
H242 H 0.51922 0.41302 0.93479 0.0
H243 H 0.55515 0.52457 0.94007 0.0
H244 H 0.52643 0.68391 0.03441 0.0
H245 H 0.47505 0.60799 0.05861 0.0
C246 C 0.456 0.47822 0.02689 0.0
C247 C 0.44915 0.41076 0.00755 0.0
C248 C 0.48545 0.52229 0.01332 0.0
C249 C 0.4725 0.38817 0.9744 0.0
C250 C 0.50177 0.43185 0.96058 0.0
C251 C 0.53769 0.54317 0.96593 0.0
C252 C 0.54471 0.61055 0.98525 0.0
C253 C 0.50843 0.499 0.97975 0.0
C254 C 0.52175 0.63283 0.01886 0.0
C255 C 0.49237 0.58925 0.03267 0.0
H256 H 0.07096 0.49522 0.04918 0.0
H257 H 0.04132 0.66432 0.96141 0.0
H258 H 0.98816 0.5933 0.93719 0.0
H259 H 0.9502 0.48354 0.94123 0.0
H260 H 0.97979 0.31511 0.0295 0.0
H261 H 0.03312 0.38582 0.05325 0.0
C262 C 0.05296 0.51691 0.02468 0.0
C263 C 0.06032 0.5855 0.00714 0.0
C264 C 0.02249 0.47575 0.01104 0.0
C265 C 0.03647 0.6121 0.97551 0.0
C266 C 0.00606 0.57134 0.96167 0.0
C267 C 0.96829 0.46193 0.96566 0.0
C268 C 0.96085 0.39355 0.98351 0.0
C269 C 0.99882 0.50313 0.97923 0.0
C270 C 0.98472 0.36711 0.01515 0.0
C271 C 0.01522 0.40769 0.02874 0.0
H272 H 0.55152 0.96643 0.56429 0.0
H273 H 0.53301 0.8266 0.45649 0.0
H274 H 0.48665 0.91077 0.42872 0.0
H275 H 0.45254 0.02484 0.43447 0.0
H276 H 0.47166 0.16496 0.542 0.0
H277 H 0.51717 0.07976 0.57033 0.0
C278 C 0.53726 0.95375 0.53478 0.0
C279 C 0.54579 0.88961 0.51259 0.0
C280 C 0.51106 0.00285 0.51883 0.0
C281 C 0.52696 0.87491 0.47439 0.0
C282 C 0.50057 0.92334 0.45843 0.0
C283 C 0.46668 0.03717 0.46411 0.0
C284 C 0.45867 0.10188 0.48599 0.0
C285 C 0.49263 0.98768 0.48024 0.0
C286 C 0.47729 0.11618 0.52437 0.0
C287 C 0.50324 0.06723 0.54061 0.0
H288 H 0.95029 0.0229 0.55679 0.0
H289 H 0.9736 0.16909 0.45327 0.0
H290 H 0.02027 0.08559 0.42575 0.0
H291 H 0.0546 0.97226 0.43154 0.0
H292 H 0.03183 0.82616 0.53525 0.0
H293 H 0.98427 0.90857 0.56211 0.0
C294 C 0.96557 0.03687 0.52819 0.0
C295 C 0.95842 0.10281 0.50721 0.0
C296 C 0.99224 0.98841 0.51254 0.0
C297 C 0.97851 0.11926 0.47015 0.0
C298 C 0.00515 0.07133 0.4544 0.0
C299 C 0.03919 0.95789 0.45997 0.0
C300 C 0.04688 0.89253 0.48131 0.0
C301 C 0.01223 0.00586 0.47535 0.0
C302 C 0.0265 0.87553 0.51807 0.0
C303 C 0.9994 0.92291 0.53349 0.0
H304 H 0.18273 0.52736 0.95215 0.0
H305 H 0.27433 0.67364 0.95944 0.0
H306 H 0.3164 0.5804 0.9353 0.0
H307 H 0.32768 0.45402 0.95155 0.0
H308 H 0.23611 0.30768 0.95948 0.0
H309 H 0.1939 0.40103 0.93567 0.0
C310 C 0.21148 0.53976 0.94558 0.0
C311 C 0.22628 0.60458 0.96029 0.0
C312 C 0.23587 0.48386 0.93576 0.0
C313 C 0.26296 0.62219 0.95008 0.0
C314 C 0.28712 0.56848 0.93683 0.0
C315 C 0.29888 0.44161 0.94524 0.0
C316 C 0.28416 0.37676 0.96007 0.0
C317 C 0.27444 0.49753 0.93562 0.0
C318 C 0.24742 0.35917 0.95011 0.0
C319 C 0.22319 0.41292 0.93704 0.0
H320 H 0.24628 0.15082 0.51074 0.0
H321 H 0.34712 0.02847 0.51574 0.0
H322 H 0.31332 0.92407 0.54171 0.0
H323 H 0.25475 0.8614 0.53013 0.0
H324 H 0.15425 0.98206 0.51555 0.0
H325 H 0.18741 0.09343 0.52916 0.0
C326 C 0.26089 0.10222 0.51971 0.0
C327 C 0.29835 0.09497 0.50943 0.0
C328 C 0.24099 0.0418 0.53247 0.0
C329 C 0.31786 0.03373 0.52237 0.0
C330 C 0.29849 0.97395 0.53692 0.0
C331 C 0.23994 0.91186 0.53278 0.0
C332 C 0.20307 0.91532 0.51939 0.0
C333 C 0.25977 0.97561 0.53726 0.0
C334 C 0.18316 0.97927 0.52442 0.0
C335 C 0.20228 0.04308 0.53144 0.0
H336 H 0.75783 0.64859 0.02449 0.0
H337 H 0.65775 0.52387 0.02404 0.0
H338 H 0.69146 0.41948 0.05026 0.0
H339 H 0.75057 0.35848 0.03928 0.0
H340 H 0.85049 0.48173 0.02791 0.0
H341 H 0.81666 0.5916 0.04335 0.0
C342 C 0.74325 0.5995 0.03254 0.0
C343 C 0.70617 0.59172 0.0205 0.0
C344 C 0.76329 0.53892 0.04486 0.0
C345 C 0.68671 0.52971 0.03209 0.0
C346 C 0.7061 0.46986 0.04666 0.0
C347 C 0.76511 0.40903 0.04308 0.0
C348 C 0.80204 0.41383 0.02989 0.0
C349 C 0.74481 0.47219 0.04815 0.0
C350 C 0.82156 0.47783 0.03651 0.0
C351 C 0.80203 0.5409 0.04452 0.0
H352 H 0.75152 0.87065 0.466 0.0
H353 H 0.65188 0.99206 0.48548 0.0
H354 H 0.6847 0.1032 0.46995 0.0
H355 H 0.74436 0.16047 0.48437 0.0
H356 H 0.84464 0.03715 0.47482 0.0
H357 H 0.80965 0.93283 0.45104 0.0
C358 C 0.73673 0.92124 0.46406 0.0
C359 C 0.7003 0.92492 0.47889 0.0
C360 C 0.75644 0.9848 0.45822 0.0
C361 C 0.68043 0.98913 0.4752 0.0
C362 C 0.69937 0.05274 0.46698 0.0
C363 C 0.75852 0.11168 0.47485 0.0
C364 C 0.79631 0.10416 0.4834 0.0
C365 C 0.73799 0.05117 0.46368 0.0
C366 C 0.81518 0.04269 0.46961 0.0
C367 C 0.79513 0.98289 0.45639 0.0
loop_
_geom_bond_atom_site_label_1
_geom_bond_atom_site_label_2
_geom_bond_distance
_geom_bond_site_symmetry_2
_ccdc_geom_bond_type
Co0 O1 2.216 . S
Co0 O2 2.091 1_554 S
Co0 O4 2.004 . S
Co0 O10 2.021 . S
Co0 O12 2.137 . S
Co0 O13 2.244 . S
O1 Co0 2.216 . S
O1 C8 1.247 . S
O2 Co0 2.091 1_556 S
O2 C8 1.261 1_556 S
C3 O12 1.247 . S
C3 O13 1.272 . S
O4 Co0 2.004 . S
O4 C9 1.259 . S
Co5 O6 2.061 . S
Co5 O11 2.052 . S
Co5 O13 2.135 . S
O6 Co5 2.061 . S
O6 C9 1.235 . S
C7 O10 1.238 . S
C7 O11 1.241 . S
C8 O1 1.247 . S
C8 O2 1.261 1_554 S
C9 O4 1.259 . S
C9 O6 1.235 . S
O10 Co0 2.021 . S
O10 C7 1.238 . S
O11 Co5 2.052 . S
O11 C7 1.241 . S
O12 Co0 2.137 . S
O12 C3 1.247 . S
O13 Co0 2.244 . S
O13 C3 1.272 . S
O13 Co5 2.135 . S
Co14 O15 2.216 . S
Co14 O16 2.091 1_554 S
Co14 O18 2.004 . S
Co14 O24 2.021 . S
Co14 O26 2.137 . S
Co14 O27 2.244 . S
O15 Co14 2.216 . S
O15 C22 1.247 . S
O16 Co14 2.091 1_556 S
O16 C22 1.261 1_556 S
C17 O26 1.247 . S
C17 O27 1.272 . S
O18 Co14 2.004 . S
O18 C23 1.259 . S
Co19 O20 2.061 . S
Co19 O25 2.052 . S
Co19 O27 2.135 . S
O20 Co19 2.061 . S
O20 C23 1.235 . S
C21 O24 1.238 . S
C21 O25 1.241 . S
C22 O15 1.247 . S
C22 O16 1.261 1_554 S
C23 O18 1.259 . S
C23 O20 1.235 . S
O24 Co14 2.021 . S
O24 C21 1.238 . S
O25 Co19 2.052 . S
O25 C21 1.241 . S
O26 Co14 2.137 . S
O26 C17 1.247 . S
O27 Co14 2.244 . S
O27 C17 1.272 . S
O27 Co19 2.135 . S
Co28 O29 2.216 . S
Co28 O30 2.091 . S
Co28 O32 2.004 . S
Co28 O38 2.021 . S
Co28 O40 2.137 . S
Co28 O41 2.244 . S
O29 Co28 2.216 . S
O29 C36 1.247 . S
O30 Co28 2.091 . S
O30 C36 1.261 . S
C31 O40 1.247 . S
C31 O41 1.272 . S
O32 Co28 2.004 . S
O32 C37 1.259 . S
Co33 O34 2.061 . S
Co33 O39 2.052 . S
Co33 O41 2.135 . S
O34 Co33 2.061 . S
O34 C37 1.235 . S
C35 O38 1.238 . S
C35 O39 1.241 . S
C36 O29 1.247 . S
C36 O30 1.261 . S
C37 O32 1.259 . S
C37 O34 1.235 . S
O38 Co28 2.021 . S
O38 C35 1.238 . S
O39 Co33 2.052 . S
O39 C35 1.241 . S
O40 Co28 2.137 . S
O40 C31 1.247 . S
O41 Co28 2.244 . S
O41 C31 1.272 . S
O41 Co33 2.135 . S
Co42 O43 2.216 . S
Co42 O44 2.091 . S
Co42 O46 2.004 . S
Co42 O52 2.021 . S
Co42 O54 2.137 . S
Co42 O55 2.244 . S
O43 Co42 2.216 . S
O43 C50 1.247 . S
O44 Co42 2.091 . S
O44 C50 1.261 . S
C45 O54 1.247 . S
C45 O55 1.272 . S
O46 Co42 2.004 . S
O46 C51 1.259 . S
Co47 O48 2.061 . S
Co47 O53 2.052 . S
Co47 O55 2.135 . S
O48 Co47 2.061 . S
O48 C51 1.235 . S
C49 O52 1.238 . S
C49 O53 1.241 . S
C50 O43 1.247 . S
C50 O44 1.261 . S
C51 O46 1.259 . S
C51 O48 1.235 . S
O52 Co42 2.021 . S
O52 C49 1.238 . S
O53 Co47 2.052 . S
O53 C49 1.241 . S
O54 Co42 2.137 . S
O54 C45 1.247 . S
O55 Co42 2.244 . S
O55 C45 1.272 . S
O55 Co47 2.135 . S
Co56 O57 2.216 . S
Co56 O58 2.091 1_556 S
Co56 O60 2.004 . S
Co56 O66 2.021 . S
Co56 O68 2.137 . S
Co56 O69 2.244 . S
O57 Co56 2.216 . S
O57 C64 1.247 . S
O58 Co56 2.091 1_554 S
O58 C64 1.261 1_554 S
C59 O68 1.247 . S
C59 O69 1.272 . S
O60 Co56 2.004 . S
O60 C65 1.259 . S
Co61 O62 2.061 . S
Co61 O67 2.052 . S
Co61 O69 2.135 . S
O62 Co61 2.061 . S
O62 C65 1.235 . S
C63 O66 1.238 . S
C63 O67 1.241 . S
C64 O57 1.247 . S
C64 O58 1.261 1_556 S
C65 O60 1.259 . S
C65 O62 1.235 . S
O66 Co56 2.021 . S
O66 C63 1.238 . S
O67 Co61 2.052 . S
O67 C63 1.241 . S
O68 Co56 2.137 . S
O68 C59 1.247 . S
O69 Co56 2.244 . S
O69 C59 1.272 . S
O69 Co61 2.135 . S
Co70 O71 2.216 . S
Co70 O72 2.091 1_556 S
Co70 O74 2.004 . S
Co70 O80 2.021 . S
Co70 O82 2.137 . S
Co70 O83 2.244 . S
O71 Co70 2.216 . S
O71 C78 1.247 . S
O72 Co70 2.091 1_554 S
O72 C78 1.261 1_554 S
C73 O82 1.247 . S
C73 O83 1.272 . S
O74 Co70 2.004 . S
O74 C79 1.259 . S
Co75 O76 2.061 . S
Co75 O81 2.052 . S
Co75 O83 2.135 . S
O76 Co75 2.061 . S
O76 C79 1.235 . S
C77 O80 1.238 . S
C77 O81 1.241 . S
C78 O71 1.247 . S
C78 O72 1.261 1_556 S
C79 O74 1.259 . S
C79 O76 1.235 . S
O80 Co70 2.021 . S
O80 C77 1.238 . S
O81 Co75 2.052 . S
O81 C77 1.241 . S
O82 Co70 2.137 . S
O82 C73 1.247 . S
O83 Co70 2.244 . S
O83 C73 1.272 . S
O83 Co75 2.135 . S
Co84 O85 2.216 . S
Co84 O86 2.091 . S
Co84 O88 2.004 . S
Co84 O94 2.021 . S
Co84 O96 2.137 . S
Co84 O97 2.244 . S
O85 Co84 2.216 . S
O85 C92 1.247 . S
O86 Co84 2.091 . S
O86 C92 1.261 . S
C87 O96 1.247 . S
C87 O97 1.272 . S
O88 Co84 2.004 . S
O88 C93 1.259 . S
Co89 O90 2.061 . S
Co89 O95 2.052 . S
Co89 O97 2.135 . S
O90 Co89 2.061 . S
O90 C93 1.235 . S
C91 O94 1.238 . S
C91 O95 1.241 . S
C92 O85 1.247 . S
C92 O86 1.261 . S
C93 O88 1.259 . S
C93 O90 1.235 . S
O94 Co84 2.021 . S
O94 C91 1.238 . S
O95 Co89 2.052 . S
O95 C91 1.241 . S
O96 Co84 2.137 . S
O96 C87 1.247 . S
O97 Co84 2.244 . S
O97 C87 1.272 . S
O97 Co89 2.135 . S
Co98 O99 2.216 . S
Co98 O100 2.091 . S
Co98 O102 2.004 . S
Co98 O108 2.021 . S
Co98 O110 2.137 . S
Co98 O111 2.244 . S
O99 Co98 2.216 . S
O99 C106 1.247 . S
O100 Co98 2.091 . S
O100 C106 1.261 . S
C101 O110 1.247 . S
C101 O111 1.272 . S
O102 Co98 2.004 . S
O102 C107 1.259 . S
Co103 O104 2.061 . S
Co103 O109 2.052 . S
Co103 O111 2.135 . S
O104 Co103 2.061 . S
O104 C107 1.235 . S
C105 O108 1.238 . S
C105 O109 1.241 . S
C106 O99 1.247 . S
C106 O100 1.261 . S
C107 O102 1.259 . S
C107 O104 1.235 . S
O108 Co98 2.021 . S
O108 C105 1.238 . S
O109 Co103 2.052 . S
O109 C105 1.241 . S
O110 Co98 2.137 . S
O110 C101 1.247 . S
O111 Co98 2.244 . S
O111 C101 1.272 . S
O111 Co103 2.135 . S
H112 C118 0.930 . S
H113 C121 0.930 . S
H114 C122 0.930 . S
H115 C123 0.930 . S
H116 C126 0.930 . S
H117 C127 0.930 . S
C118 H112 0.930 . S
C118 C119 1.355 1_556 S
C118 C120 1.415 . S
C119 C118 1.355 1_554 S
C119 C121 1.419 . S
C120 C118 1.415 . S
C120 C125 1.425 1_546 S
C120 C127 1.409 . S
C121 H113 0.930 . S
C121 C119 1.419 . S
C121 C122 1.362 1_545 S
C122 H114 0.930 . S
C122 C121 1.362 1_565 S
C122 C125 1.409 . S
C123 H115 0.930 . S
C123 C124 1.355 . S
C123 C125 1.415 . S
C124 C123 1.355 . S
C124 C126 1.419 1_554 S
C125 C120 1.425 1_564 S
C125 C122 1.409 . S
C125 C123 1.415 . S
C126 H116 0.930 . S
C126 C124 1.419 1_556 S
C126 C127 1.362 1_565 S
C127 H117 0.930 . S
C127 C120 1.409 . S
C127 C126 1.362 1_545 S
H128 C134 0.930 . S
H129 C137 0.930 . S
H130 C138 0.930 . S
H131 C139 0.930 . S
H132 C142 0.930 . S
H133 C143 0.930 . S
C134 H128 0.930 . S
C134 C135 1.355 . S
C134 C136 1.415 . S
C135 C134 1.355 . S
C135 C137 1.419 . S
C136 C134 1.415 . S
C136 C141 1.425 . S
C136 C143 1.409 . S
C137 H129 0.930 . S
C137 C135 1.419 . S
C137 C138 1.362 . S
C138 H130 0.930 . S
C138 C137 1.362 . S
C138 C141 1.409 . S
C139 H131 0.930 . S
C139 C140 1.355 . S
C139 C141 1.415 . S
C140 C139 1.355 . S
C140 C142 1.419 . S
C141 C136 1.425 . S
C141 C138 1.409 . S
C141 C139 1.415 . S
C142 H132 0.930 . S
C142 C140 1.419 . S
C142 C143 1.362 . S
C143 H133 0.930 . S
C143 C136 1.409 . S
C143 C142 1.362 . S
H144 C150 0.930 . S
H145 C153 0.930 . S
H146 C154 0.930 . S
H147 C155 0.917 1_554 S
H148 C158 0.930 . S
H149 C159 0.930 . S
C150 H144 0.930 . S
C150 C151 1.355 . S
C150 C152 1.415 . S
C151 C150 1.355 . S
C151 C153 1.419 1_556 S
C152 C150 1.415 . S
C152 C157 1.425 1_565 S
C152 C159 1.409 . S
C153 H145 0.930 . S
C153 C151 1.419 1_554 S
C153 C154 1.362 1_565 S
C154 H146 0.930 . S
C154 C153 1.362 1_545 S
C154 C157 1.409 1_554 S
C155 H147 0.917 1_556 S
C155 C156 1.366 . S
C155 C157 1.417 . S
C156 C155 1.366 . S
C156 C158 1.419 . S
C157 C152 1.425 1_545 S
C157 C154 1.409 1_556 S
C157 C155 1.417 . S
C158 H148 0.930 . S
C158 C156 1.419 . S
C158 C159 1.362 1_545 S
C159 H149 0.930 . S
C159 C152 1.409 . S
C159 C158 1.362 1_565 S
H160 C166 0.930 . S
H161 C169 0.930 . S
H162 C170 0.930 . S
H163 C171 0.930 . S
H164 C174 0.930 . S
H165 C175 0.930 . S
C166 H160 0.930 . S
C166 C167 1.355 . S
C166 C168 1.415 . S
C167 C166 1.355 . S
C167 C169 1.419 . S
C168 C166 1.415 . S
C168 C173 1.425 . S
C168 C175 1.409 . S
C169 H161 0.930 . S
C169 C167 1.419 . S
C169 C170 1.362 . S
C170 H162 0.930 . S
C170 C169 1.362 . S
C170 C173 1.409 . S
C171 H163 0.930 . S
C171 C172 1.355 . S
C171 C173 1.415 . S
C172 C171 1.355 . S
C172 C174 1.419 . S
C173 C168 1.425 . S
C173 C170 1.409 . S
C173 C171 1.415 . S
C174 H164 0.930 . S
C174 C172 1.419 . S
C174 C175 1.362 . S
C175 H165 0.930 . S
C175 C168 1.409 . S
C175 C174 1.362 . S
H176 C182 0.930 . S
H177 C185 0.930 . S
H178 C186 0.930 . S
H179 C187 0.930 . S
H180 C190 0.930 . S
H181 C191 0.930 . S
C182 H176 0.930 . S
C182 C183 1.355 . S
C182 C184 1.415 . S
C183 C182 1.355 . S
C183 C185 1.419 . S
C184 C182 1.415 . S
C184 C189 1.425 . S
C184 C191 1.409 . S
C185 H177 0.930 . S
C185 C183 1.419 . S
C185 C186 1.362 . S
C186 H178 0.930 . S
C186 C185 1.362 . S
C186 C189 1.409 . S
C187 H179 0.930 . S
C187 C188 1.355 . S
C187 C189 1.415 . S
C188 C187 1.355 . S
C188 C190 1.419 . S
C189 C184 1.425 . S
C189 C186 1.409 . S
C189 C187 1.415 . S
C190 H180 0.930 . S
C190 C188 1.419 . S
C190 C191 1.362 . S
C191 H181 0.930 . S
C191 C184 1.409 . S
C191 C190 1.362 . S
H192 C198 0.930 . S
H193 C201 0.930 . S
H194 C202 0.930 . S
H195 C203 0.930 . S
H196 C206 0.930 . S
H197 C207 0.930 . S
C198 H192 0.930 . S
C198 C199 1.355 . S
C198 C200 1.415 . S
C199 C198 1.355 . S
C199 C201 1.419 . S
C200 C198 1.415 . S
C200 C205 1.425 . S
C200 C207 1.409 . S
C201 H193 0.930 . S
C201 C199 1.419 . S
C201 C202 1.362 . S
C202 H194 0.930 . S
C202 C201 1.362 . S
C202 C205 1.409 . S
C203 H195 0.930 . S
C203 C204 1.355 . S
C203 C205 1.415 . S
C204 C203 1.355 . S
C204 C206 1.419 . S
C205 C200 1.425 . S
C205 C202 1.409 . S
C205 C203 1.415 . S
C206 H196 0.930 . S
C206 C204 1.419 . S
C206 C207 1.362 . S
C207 H197 0.930 . S
C207 C200 1.409 . S
C207 C206 1.362 . S
H208 C214 0.930 . S
H209 C217 0.930 . S
H210 C218 0.930 . S
H211 C219 0.930 . S
H212 C222 0.930 . S
H213 C223 0.930 . S
C214 H208 0.930 . S
C214 C215 1.355 . S
C214 C216 1.415 . S
C215 C214 1.355 . S
C215 C217 1.419 . S
C216 C214 1.415 . S
C216 C221 1.425 . S
C216 C223 1.409 . S
C217 H209 0.930 . S
C217 C215 1.419 . S
C217 C218 1.362 . S
C218 H210 0.930 . S
C218 C217 1.362 . S
C218 C221 1.409 . S
C219 H211 0.930 . S
C219 C220 1.355 . S
C219 C221 1.415 . S
C220 C219 1.355 . S
C220 C222 1.419 . S
C221 C216 1.425 . S
C221 C218 1.409 . S
C221 C219 1.415 . S
C222 H212 0.930 . S
C222 C220 1.419 . S
C222 C223 1.362 . S
C223 H213 0.930 . S
C223 C216 1.409 . S
C223 C222 1.362 . S
H224 C230 0.930 . S
H225 C233 0.930 . S
H226 C234 0.930 . S
H227 C235 0.930 . S
H228 C238 0.930 . S
H229 C239 0.930 . S
C230 H224 0.930 . S
C230 C231 1.355 . S
C230 C232 1.415 . S
C231 C230 1.355 . S
C231 C233 1.419 . S
C232 C230 1.415 . S
C232 C237 1.425 . S
C232 C239 1.409 . S
C233 H225 0.930 . S
C233 C231 1.419 . S
C233 C234 1.362 . S
C234 H226 0.930 . S
C234 C233 1.362 . S
C234 C237 1.409 . S
C235 H227 0.930 . S
C235 C236 1.355 . S
C235 C237 1.415 . S
C236 C235 1.355 . S
C236 C238 1.419 . S
C237 C232 1.425 . S
C237 C234 1.409 . S
C237 C235 1.415 . S
C238 H228 0.930 . S
C238 C236 1.419 . S
C238 C239 1.362 . S
C239 H229 0.930 . S
C239 C232 1.409 . S
C239 C238 1.362 . S
H240 C246 0.930 . S
H241 C249 0.930 . S
H242 C250 0.930 . S
H243 C251 0.930 . S
H244 C254 0.930 . S
H245 C255 0.930 . S
C246 H240 0.930 . S
C246 C247 1.352 1_554 S
C246 C248 1.415 . S
C247 C246 1.352 1_556 S
C247 C249 1.423 . S
C248 C246 1.415 . S
C248 C253 1.425 1_554 S
C248 C255 1.409 . S
C249 H241 0.930 . S
C249 C247 1.423 . S
C249 C250 1.362 . S
C250 H242 0.930 . S
C250 C249 1.362 . S
C250 C253 1.409 . S
C251 H243 0.930 . S
C251 C252 1.352 1_556 S
C251 C253 1.415 . S
C252 C251 1.352 1_554 S
C252 C254 1.423 . S
C253 C248 1.425 1_556 S
C253 C250 1.409 . S
C253 C251 1.415 . S
C254 H244 0.930 . S
C254 C252 1.423 . S
C254 C255 1.362 . S
C255 H245 0.930 . S
C255 C248 1.409 . S
C255 C254 1.362 . S
H256 C262 0.930 . S
H257 C265 0.930 . S
H258 C266 0.929 . S
H259 C267 0.930 . S
H260 C270 0.930 . S
H261 C271 0.929 . S
C262 H256 0.930 . S
C262 C263 1.355 1_554 S
C262 C264 1.415 . S
C263 C262 1.355 1_556 S
C263 C265 1.419 . S
C264 C262 1.415 . S
C264 C269 1.425 1_454 S
C264 C271 1.408 . S
C265 H257 0.930 . S
C265 C263 1.419 . S
C265 C266 1.364 1_455 S
C266 H258 0.929 . S
C266 C265 1.364 1_655 S
C266 C269 1.408 . S
C267 H259 0.930 . S
C267 C268 1.355 1_556 S
C267 C269 1.415 . S
C268 C267 1.355 1_554 S
C268 C270 1.419 . S
C269 C264 1.425 1_656 S
C269 C266 1.408 . S
C269 C267 1.415 . S
C270 H260 0.930 . S
C270 C268 1.419 . S
C270 C271 1.364 1_655 S
C271 H261 0.929 . S
C271 C264 1.408 . S
C271 C270 1.364 1_455 S
H272 C278 0.930 . S
H273 C281 0.930 . S
H274 C282 0.930 1_545 S
H275 C283 0.930 . S
H276 C286 0.930 . S
H277 C287 0.930 1_565 S
C278 H272 0.930 . S
C278 C279 1.355 . S
C278 C280 1.415 . S
C279 C278 1.355 . S
C279 C281 1.419 . S
C280 C278 1.415 . S
C280 C285 1.425 1_565 S
C280 C287 1.409 1_565 S
C281 H273 0.930 . S
C281 C279 1.419 . S
C281 C282 1.362 . S
C282 H274 0.930 1_565 S
C282 C281 1.362 . S
C282 C285 1.409 1_565 S
C283 H275 0.930 . S
C283 C284 1.355 . S
C283 C285 1.415 . S
C284 C283 1.355 . S
C284 C286 1.419 . S
C285 C280 1.425 1_545 S
C285 C282 1.409 1_545 S
C285 C283 1.415 . S
C286 H276 0.930 . S
C286 C284 1.419 . S
C286 C287 1.362 . S
C287 H277 0.930 1_545 S
C287 C280 1.409 1_545 S
C287 C286 1.362 . S
H288 C294 0.930 . S
H289 C297 0.930 . S
H290 C298 0.930 . S
H291 C299 0.930 . S
H292 C302 0.930 . S
H293 C303 0.930 . S
C294 H288 0.930 . S
C294 C295 1.355 . S
C294 C296 1.415 1_655 S
C295 C294 1.355 . S
C295 C297 1.419 . S
C296 C294 1.415 1_455 S
C296 C301 1.425 1_445 S
C296 C303 1.409 . S
C297 H289 0.930 . S
C297 C295 1.419 . S
C297 C298 1.362 1_545 S
C298 H290 0.930 . S
C298 C297 1.362 1_565 S
C298 C301 1.409 . S
C299 H291 0.930 . S
C299 C300 1.355 . S
C299 C301 1.415 1_455 S
C300 C299 1.355 . S
C300 C302 1.419 . S
C301 C296 1.425 1_665 S
C301 C298 1.409 . S
C301 C299 1.415 1_655 S
C302 H292 0.930 . S
C302 C300 1.419 . S
C302 C303 1.362 1_565 S
C303 H293 0.930 . S
C303 C296 1.409 . S
C303 C302 1.362 1_545 S
H304 C310 0.930 . S
H305 C313 0.930 . S
H306 C314 0.930 . S
H307 C315 0.930 . S
H308 C318 0.930 . S
H309 C319 0.930 . S
C310 H304 0.930 . S
C310 C311 1.355 1_556 S
C310 C312 1.415 . S
C311 C310 1.355 1_554 S
C311 C313 1.419 . S
C312 C310 1.415 . S
C312 C317 1.425 1_556 S
C312 C319 1.409 . S
C313 H305 0.930 . S
C313 C311 1.419 . S
C313 C314 1.362 . S
C314 H306 0.930 . S
C314 C313 1.362 . S
C314 C317 1.409 . S
C315 H307 0.930 . S
C315 C316 1.355 . S
C315 C317 1.415 . S
C316 C315 1.355 . S
C316 C318 1.419 1_554 S
C317 C312 1.425 1_554 S
C317 C314 1.409 . S
C317 C315 1.415 . S
C318 H308 0.930 . S
C318 C316 1.419 1_556 S
C318 C319 1.362 . S
C319 H309 0.930 . S
C319 C312 1.409 . S
C319 C318 1.362 . S
H320 C326 0.930 . S
H321 C329 0.930 . S
H322 C330 0.930 . S
H323 C331 0.930 . S
H324 C334 0.930 . S
H325 C335 0.930 . S
C326 H320 0.930 . S
C326 C327 1.355 . S
C326 C328 1.415 . S
C327 C326 1.355 . S
C327 C329 1.419 . S
C328 C326 1.415 . S
C328 C333 1.425 1_545 S
C328 C335 1.409 . S
C329 H321 0.930 . S
C329 C327 1.419 . S
C329 C330 1.362 1_545 S
C330 H322 0.930 . S
C330 C329 1.362 1_565 S
C330 C333 1.409 . S
C331 H323 0.930 . S
C331 C332 1.355 . S
C331 C333 1.415 . S
C332 C331 1.355 . S
C332 C334 1.419 . S
C333 C328 1.425 1_565 S
C333 C330 1.409 . S
C333 C331 1.415 . S
C334 H324 0.930 . S
C334 C332 1.419 . S
C334 C335 1.362 1_565 S
C335 H325 0.930 . S
C335 C328 1.409 . S
C335 C334 1.362 1_545 S
H336 C342 0.930 . S
H337 C345 0.930 . S
H338 C346 0.930 . S
H339 C347 0.930 . S
H340 C350 0.930 . S
H341 C351 0.930 . S
C342 H336 0.930 . S
C342 C343 1.355 . S
C342 C344 1.415 . S
C343 C342 1.355 . S
C343 C345 1.419 . S
C344 C342 1.415 . S
C344 C349 1.425 . S
C344 C351 1.409 . S
C345 H337 0.930 . S
C345 C343 1.419 . S
C345 C346 1.362 . S
C346 H338 0.930 . S
C346 C345 1.362 . S
C346 C349 1.409 . S
C347 H339 0.930 . S
C347 C348 1.355 . S
C347 C349 1.415 . S
C348 C347 1.355 . S
C348 C350 1.419 . S
C349 C344 1.425 . S
C349 C346 1.409 . S
C349 C347 1.415 . S
C350 H340 0.930 . S
C350 C348 1.419 . S
C350 C351 1.362 . S
C351 H341 0.930 . S
C351 C344 1.409 . S
C351 C350 1.362 . S
H352 C358 0.930 . S
H353 C361 0.930 . S
H354 C362 0.930 . S
H355 C363 0.930 . S
H356 C366 0.930 . S
H357 C367 0.930 . S
C358 H352 0.930 . S
C358 C359 1.355 . S
C358 C360 1.415 . S
C359 C358 1.355 . S
C359 C361 1.419 . S
C360 C358 1.415 . S
C360 C365 1.425 1_565 S
C360 C367 1.409 . S
C361 H353 0.930 . S
C361 C359 1.419 . S
C361 C362 1.362 1_565 S
C362 H354 0.930 . S
C362 C361 1.362 1_545 S
C362 C365 1.409 . S
C363 H355 0.930 . S
C363 C364 1.355 . S
C363 C365 1.415 . S
C364 C363 1.355 . S
C364 C366 1.419 . S
C365 C360 1.425 1_545 S
C365 C362 1.409 . S
C365 C363 1.415 . S
C366 H356 0.930 . S
C366 C364 1.419 . S
C366 C367 1.362 1_545 S
C367 H357 0.930 . S
C367 C360 1.409 . S
C367 C366 1.362 1_565 S
C119 C9 1.511 . S
C124 C23 1.569 . S
C135 C51 1.541 . S
C140 C37 1.576 . S
C151 C65 1.576 . S
C156 C79 1.528 . S
C167 C93 1.569 . S
C172 C107 1.511 . S
C183 C3 1.663 . S
C188 C31 1.672 . S
C199 C45 1.637 . S
C204 C17 1.640 . S
C215 C59 1.670 . S
C220 C87 1.669 . S
C231 C101 1.644 . S
C236 C73 1.636 . S
C247 C8 1.502 1_556 S
C252 C64 1.502 1_554 S
C263 C22 1.495 1_556 S
C268 C78 1.495 1_554 S
C279 C92 1.492 . S
C284 C36 1.492 . S
C295 C106 1.482 . S
C300 C50 1.482 . S
C311 C21 0.994 . S
C316 C7 1.077 . S
C327 C35 1.102 . S
C332 C49 1.048 . S
C343 C63 1.065 . S
C348 C77 1.092 . S
C359 C91 1.006 . S
C364 C105 1.106 . S
