# Generated by pormake.
# Topology wnr, (7)-cn, num edge types: 1
# Building blocks:
#     Node 0, Type 0, BuildingBlock: NUHQUE_clean_sbu_2, # of connection points: 7
#     Node 1, Type 0, BuildingBlock: NUHQUE_clean_sbu_2, # of connection points: 7
#     Node 2, Type 0, BuildingBlock: NUHQUE_clean_sbu_2, # of connection points: 7
#     Node 3, Type 0, BuildingBlock: NUHQUE_clean_sbu_2, # of connection points: 7
#     Node 4, Type 0, BuildingBlock: NUHQUE_clean_sbu_2, # of connection points: 7
#     Node 5, Type 0, BuildingBlock: NUHQUE_clean_sbu_2, # of connection points: 7
#     Edge 6, Type (0, 0), BuildingBlock: EYOCIG_clean_linker_4, # of connection points: 2
#     Edge 7, Type (0, 0), BuildingBlock: EYOCIG_clean_linker_4, # of connection points: 2
#     Edge 8, Type (0, 0), BuildingBlock: EYOCIG_clean_linker_4, # of connection points: 2
#     Edge 9, Type (0, 0), BuildingBlock: EYOCIG_clean_linker_4, # of connection points: 2
#     Edge 10, Type (0, 0), BuildingBlock: EYOCIG_clean_linker_4, # of connection points: 2
#     Edge 11, Type (0, 0), BuildingBlock: EYOCIG_clean_linker_4, # of connection points: 2
#     Edge 12, Type (0, 0), BuildingBlock: EYOCIG_clean_linker_4, # of connection points: 2
#     Edge 13, Type (0, 0), BuildingBlock: EYOCIG_clean_linker_4, # of connection points: 2
#     Edge 14, Type (0, 0), BuildingBlock: EYOCIG_clean_linker_4, # of connection points: 2
#     Edge 15, Type (0, 0), BuildingBlock: EYOCIG_clean_linker_4, # of connection points: 2
#     Edge 16, Type (0, 0), BuildingBlock: EYOCIG_clean_linker_4, # of connection points: 2
#     Edge 17, Type (0, 0), BuildingBlock: EYOCIG_clean_linker_4, # of connection points: 2
#     Edge 18, Type (0, 0), BuildingBlock: EYOCIG_clean_linker_4, # of connection points: 2
#     Edge 19, Type (0, 0), BuildingBlock: EYOCIG_clean_linker_4, # of connection points: 2
#     Edge 20, Type (0, 0), BuildingBlock: EYOCIG_clean_linker_4, # of connection points: 2
#     Edge 21, Type (0, 0), BuildingBlock: EYOCIG_clean_linker_4, # of connection points: 2
#     Edge 22, Type (0, 0), BuildingBlock: EYOCIG_clean_linker_4, # of connection points: 2
#     Edge 23, Type (0, 0), BuildingBlock: EYOCIG_clean_linker_4, # of connection points: 2
#     Edge 24, Type (0, 0), BuildingBlock: EYOCIG_clean_linker_4, # of connection points: 2
#     Edge 25, Type (0, 0), BuildingBlock: EYOCIG_clean_linker_4, # of connection points: 2
#     Edge 26, Type (0, 0), BuildingBlock: EYOCIG_clean_linker_4, # of connection points: 2
# Relax obj value: 0.192
# Max RMSD: 0.215
# Mean RMSD: 0.215
data_MOF--net-wnr--node1-NUHQUE_clean_sbu_2--edge1-EYOCIG_clean_linker_4
_symmetry_space_group_name_H-M    P1
_symmetry_Int_Tables_number       1
_symmetry_cell_setting            triclinic
loop_
_symmetry_equiv_pos_as_xyz
'x, y, z'
_cell_length_a     36.536467
_cell_length_b     36.504319
_cell_length_c     15.279452
_cell_angle_alpha  89.90368
_cell_angle_beta   90.055687
_cell_angle_gamma 119.93712
loop_
_atom_site_label
_atom_site_type_symbol
_atom_site_fract_x
_atom_site_fract_y
_atom_site_fract_z
_atom_type_partial_charge
O0 O 0.32373 0.5147 0.84711 0.0
Tb1 Tb 0.3428 0.51646 0.98169 0.0
Eu2 Eu 0.29614 0.45686 0.17212 0.0
C3 C 0.30738 0.47992 0.80107 0.0
O4 O 0.29615 0.44365 0.83927 0.0
C5 C 0.35849 0.44274 0.05098 0.0
O6 O 0.29546 0.45594 0.31979 0.0
C7 C 0.22206 0.40613 0.10478 0.0
C8 C 0.32188 0.48956 0.36503 0.0
O9 O 0.3505 0.52377 0.32507 0.0
C10 C 0.29545 0.53775 0.11911 0.0
C11 C 0.1778 0.3976 0.09746 0.0
C12 C 0.15681 0.38651 0.01555 0.0
C13 C 0.11341 0.37344 0.00992 0.0
C14 C 0.09132 0.37186 0.08559 0.0
C15 C 0.11157 0.38251 0.16662 0.0
C16 C 0.15471 0.39579 0.1728 0.0
O17 O 0.3497 0.46027 0.98486 0.0
O18 O 0.34721 0.44361 0.1321 0.0
O19 O 0.39343 0.56517 0.9057 0.0
O20 O 0.39909 0.56852 0.04493 0.0
C21 C 0.4168 0.58656 0.97083 0.0
O22 O 0.31184 0.52392 0.17654 0.0
O23 O 0.29458 0.52849 0.03602 0.0
O24 O 0.23459 0.40017 0.18171 0.0
O25 O 0.25181 0.43875 0.06211 0.0
H26 H 0.17377 0.38667 0.95726 0.0
H27 H 0.05769 0.36076 0.08189 0.0
H28 H 0.16972 0.40295 0.23659 0.0
O29 O 0.56077 0.81837 0.51404 0.0
Tb30 Tb 0.55961 0.83588 0.64864 0.0
Eu31 Eu 0.61911 0.84858 0.83905 0.0
C32 C 0.59508 0.83743 0.46671 0.0
O33 O 0.63139 0.8632 0.50361 0.0
C34 C 0.63324 0.92522 0.71774 0.0
O35 O 0.61928 0.84898 0.9867 0.0
C36 C 0.67024 0.82541 0.77284 0.0
C37 C 0.58542 0.84199 0.03078 0.0
O38 O 0.55155 0.83658 0.98956 0.0
C39 C 0.53891 0.7669 0.78537 0.0
C40 C 0.67845 0.78947 0.76458 0.0
C41 C 0.68963 0.77996 0.68238 0.0
C42 C 0.70216 0.7492 0.67587 0.0
C43 C 0.70309 0.72786 0.75093 0.0
C44 C 0.69239 0.7371 0.83224 0.0
C45 C 0.6797 0.76743 0.8393 0.0
O46 O 0.61568 0.89897 0.65169 0.0
O47 O 0.63244 0.91298 0.79886 0.0
O48 O 0.5111 0.83834 0.57285 0.0
O49 O 0.50717 0.83939 0.71215 0.0
C50 C 0.48938 0.83965 0.63807 0.0
O51 O 0.55229 0.79692 0.84296 0.0
O52 O 0.54815 0.77561 0.70233 0.0
O53 O 0.67541 0.84299 0.85051 0.0
O54 O 0.63827 0.82341 0.72902 0.0
H55 H 0.68992 0.79735 0.62457 0.0
H56 H 0.71376 0.70497 0.74658 0.0
H57 H 0.67252 0.77499 0.90333 0.0
O58 O 0.25736 0.75193 0.18113 0.0
Tb59 Tb 0.24015 0.73331 0.31594 0.0
Eu60 Eu 0.2275 0.78003 0.50603 0.0
C61 C 0.23815 0.76712 0.13385 0.0
O62 O 0.21247 0.77777 0.17089 0.0
C63 C 0.15079 0.71754 0.38549 0.0
O64 O 0.22704 0.77977 0.65366 0.0
C65 C 0.25048 0.85433 0.4396 0.0
C66 C 0.23394 0.7528 0.69795 0.0
O67 O 0.23944 0.72437 0.65695 0.0
C68 C 0.30916 0.78147 0.45222 0.0
C69 C 0.2862 0.89856 0.43155 0.0
C70 C 0.2958 0.91939 0.34937 0.0
C71 C 0.32619 0.96276 0.34307 0.0
C72 C 0.34704 0.985 0.41836 0.0
C73 C 0.33772 0.96493 0.49964 0.0
C74 C 0.30782 0.92181 0.50646 0.0
O75 O 0.17693 0.726 0.31929 0.0
O76 O 0.16313 0.72903 0.46645 0.0
O77 O 0.23784 0.68243 0.24029 0.0
O78 O 0.2372 0.67755 0.37962 0.0
C79 C 0.23691 0.65952 0.30559 0.0
O80 O 0.27923 0.76487 0.51002 0.0
O81 O 0.30037 0.78209 0.36923 0.0
O82 O 0.23271 0.84177 0.51711 0.0
O83 O 0.25279 0.82449 0.39599 0.0
H84 H 0.27874 0.90231 0.29139 0.0
H85 H 0.36962 1.01862 0.41416 0.0
H86 H 0.3002 0.90695 0.57046 0.0
O87 O 0.53394 0.30555 0.16145 0.0
Tb88 Tb 0.53567 0.32435 0.02662 0.0
Eu89 Eu 0.47625 0.27749 0.83633 0.0
C90 C 0.49939 0.28997 0.20809 0.0
O91 O 0.46312 0.27902 0.1704 0.0
C92 C 0.46205 0.34 0.95668 0.0
O93 O 0.47567 0.27752 0.6887 0.0
C94 C 0.42507 0.20333 0.90322 0.0
C95 C 0.50937 0.30433 0.6441 0.0
O96 O 0.54341 0.33273 0.68478 0.0
C97 C 0.55678 0.27637 0.89015 0.0
C98 C 0.4165 0.15905 0.91124 0.0
C99 C 0.40523 0.13817 0.99335 0.0
C100 C 0.3922 0.09475 0.99956 0.0
C101 C 0.39081 0.07253 0.92426 0.0
C102 C 0.40161 0.09266 0.84303 0.0
C103 C 0.41487 0.13581 0.8363 0.0
O104 O 0.47958 0.33135 0.02298 0.0
O105 O 0.46303 0.32866 0.8757 0.0
O106 O 0.58414 0.37498 0.10288 0.0
O107 O 0.58813 0.38053 0.96366 0.0
C108 C 0.60589 0.39826 0.03789 0.0
O109 O 0.54308 0.29263 0.83214 0.0
O110 O 0.54749 0.2758 0.97316 0.0
O111 O 0.41968 0.21588 0.82577 0.0
O112 O 0.45735 0.23311 0.94654 0.0
H113 H 0.40525 0.15525 0.05133 0.0
H114 H 0.37974 0.03888 0.92838 0.0
H115 H 0.42215 0.15072 0.77236 0.0
O116 O 0.77163 0.2387 0.82684 0.0
Tb117 Tb 0.75243 0.22116 0.69244 0.0
Eu118 Eu 0.79939 0.20814 0.50245 0.0
C119 C 0.78762 0.22003 0.87351 0.0
O120 O 0.79843 0.19456 0.83603 0.0
C121 C 0.73636 0.13167 0.6231 0.0
O122 O 0.80007 0.20809 0.35474 0.0
C123 C 0.87324 0.23086 0.57041 0.0
C124 C 0.77378 0.21563 0.30962 0.0
O125 O 0.74533 0.22139 0.34975 0.0
C126 C 0.80068 0.29003 0.55524 0.0
C127 C 0.91742 0.26664 0.57834 0.0
C128 C 0.93813 0.27648 0.66059 0.0
C129 C 0.9814 0.30708 0.66688 0.0
C130 C 1.00366 0.32791 0.59152 0.0
C131 C 0.98372 0.31831 0.51016 0.0
C132 C 0.9407 0.28819 0.50333 0.0
O133 O 0.74515 0.1579 0.68924 0.0
O134 O 0.74789 0.14395 0.54207 0.0
O135 O 0.70182 0.21892 0.76896 0.0
O136 O 0.69642 0.21796 0.62974 0.0
C137 C 0.67865 0.21778 0.70406 0.0
O138 O 0.78443 0.26003 0.49757 0.0
O139 O 0.80101 0.28139 0.63844 0.0
O140 O 0.86089 0.2128 0.49315 0.0
O141 O 0.84336 0.23348 0.61308 0.0
H142 H 0.92103 0.25946 0.71865 0.0
H143 H 1.0372 0.35066 0.59574 0.0
H144 H 0.92594 0.28038 0.4393 0.0
O145 O 0.83877 0.54236 0.49532 0.0
Tb146 Tb 0.85527 0.54081 0.36009 0.0
Eu147 Eu 0.86779 0.60049 0.17012 0.0
C148 C 0.85712 0.57712 0.5414 0.0
O149 O 0.88153 0.6135 0.50308 0.0
C150 C 0.94455 0.61473 0.29116 0.0
O151 O 0.86877 0.60135 0.02246 0.0
C152 C 0.84428 0.65138 0.23629 0.0
C153 C 0.86165 0.56761 0.9777 0.0
O154 O 0.85558 0.53331 0.01826 0.0
C155 C 0.78629 0.52001 0.22371 0.0
C156 C 0.80824 0.65941 0.24439 0.0
C157 C 0.79868 0.67068 0.32644 0.0
C158 C 0.76792 0.6832 0.3327 0.0
C159 C 0.74664 0.68405 0.25753 0.0
C160 C 0.75592 0.67325 0.17636 0.0
C161 C 0.78623 0.66054 0.16957 0.0
O162 O 0.91841 0.59672 0.35723 0.0
O163 O 0.93226 0.61417 0.2102 0.0
O164 O 0.85663 0.49147 0.4351 0.0
O165 O 0.85934 0.48881 0.2958 0.0
C166 C 0.85867 0.47032 0.36957 0.0
O167 O 0.81627 0.53355 0.16597 0.0
O168 O 0.79501 0.52933 0.30671 0.0
O169 O 0.86192 0.65666 0.15866 0.0
O170 O 0.84242 0.61944 0.28016 0.0
H171 H 0.81605 0.67106 0.38431 0.0
H172 H 0.72377 0.69474 0.26167 0.0
H173 H 0.79383 0.65331 0.10564 0.0
C174 C 0.06353 0.34527 0.87077 0.0
C175 C 0.0894 0.35875 0.9293 0.0
C176 C 1.03095 0.32888 0.80656 0.0
C177 C 1.00517 0.31638 0.74784 0.0
C178 C 0.74665 0.71162 0.47201 0.0
C179 C 0.75892 0.6981 0.41338 0.0
C180 C 0.73041 0.72792 0.53629 0.0
C181 C 0.71695 0.74022 0.59501 0.0
C182 C 0.34759 1.01244 0.20343 0.0
C183 C 0.33529 0.98662 0.26217 0.0
C184 C 0.36389 0.04503 0.13909 0.0
C185 C 0.37742 0.07087 0.0804 0.0
C186 C 0.2617 0.57725 0.19686 0.0
C187 C 0.27552 0.55994 0.15201 0.0
C188 C 0.24955 0.59937 0.25424 0.0
C189 C 0.24303 0.62427 0.29256 0.0
C190 C 0.47767 0.65899 0.91975 0.0
C191 C 0.45251 0.62761 0.95789 0.0
C192 C 0.4999 0.69341 0.86262 0.0
C193 C 0.51704 0.72467 0.81798 0.0
C194 C 0.41691 0.82785 0.5866 0.0
C195 C 0.44823 0.83405 0.62497 0.0
C196 C 0.3826 0.81578 0.52926 0.0
C197 C 0.35139 0.80176 0.4846 0.0
C198 C 0.59631 0.24239 0.81343 0.0
C199 C 0.57899 0.25631 0.85795 0.0
C200 C 0.61844 0.23019 0.75616 0.0
C201 C 0.64335 0.22374 0.71766 0.0
C202 C 0.8347 0.36341 0.47763 0.0
C203 C 0.82076 0.33225 0.52256 0.0
C204 C 0.84685 0.39771 0.4201 0.0
C205 C 0.85323 0.42915 0.38185 0.0
C206 C 0.67842 0.45869 0.08959 0.0
C207 C 0.64706 0.43371 0.05125 0.0
C208 C 0.71282 0.48084 0.14673 0.0
C209 C 0.74407 0.49803 0.19125 0.0
C210 C 1.03309 0.35286 0.37316 0.0
C211 C 1.00917 0.33629 0.43334 0.0
C212 C 0.06251 0.36762 0.30412 0.0
C213 C 0.08636 0.37504 0.2438 0.0
C214 C 0.72072 0.68705 0.03898 0.0
C215 C 0.73755 0.68019 0.09947 0.0
C216 C 0.70617 0.70169 0.96938 0.0
C217 C 0.69933 0.7186 0.90897 0.0
C218 C 0.387 0.04348 0.70588 0.0
C219 C 0.39427 0.06732 0.76615 0.0
C220 C 0.37232 1.01415 0.63672 0.0
C221 C 0.35574 0.9903 0.57648 0.0
C222 C 0.39771 0.40049 0.01441 0.0
C223 C 0.37978 0.41964 0.03228 0.0
C224 C 0.41946 0.37893 0.99267 0.0
C225 C 0.43877 0.36114 0.97504 0.0
C226 C 0.6754 1.00675 0.68114 0.0
C227 C 0.65628 0.96964 0.69895 0.0
C228 C 0.69703 0.05011 0.65943 0.0
C229 C 0.715 0.08724 0.64174 0.0
C230 C 1.026 0.65701 0.32759 0.0
C231 C 0.98894 0.63786 0.30977 0.0
C232 C 0.06931 0.67858 0.34934 0.0
C233 C 0.10639 0.69639 0.36702 0.0
C234 C 0.31534 0.48867 0.53706 0.0
C235 C 0.31861 0.48942 0.45854 0.0
C236 C 0.31128 0.48612 0.62896 0.0
C237 C 0.30941 0.48306 0.70752 0.0
C238 C 0.58774 0.83477 0.29482 0.0
C239 C 0.59119 0.83605 0.3733 0.0
C240 C 0.58519 0.83625 0.20292 0.0
C241 C 0.58486 0.83879 0.12435 0.0
C242 C 0.23916 0.75812 0.87012 0.0
C243 C 0.23686 0.7553 0.79154 0.0
C244 C 0.24051 0.76218 0.96198 0.0
C245 C 0.23934 0.76449 0.04045 0.0
C246 C 0.50885 0.2988 0.47194 0.0
C247 C 0.50952 0.30168 0.55051 0.0
C248 C 0.50617 0.29474 0.38007 0.0
C249 C 0.50288 0.29249 0.30156 0.0
C250 C 0.78008 0.22145 0.13753 0.0
C251 C 0.77694 0.21885 0.21607 0.0
C252 C 0.78396 0.22287 0.04559 0.0
C253 C 0.78568 0.22148 0.96703 0.0
C254 C 0.85542 0.57093 0.71352 0.0
C255 C 0.85633 0.57399 0.63495 0.0
C256 C 0.85685 0.5684 0.80547 0.0
C257 C 0.85897 0.56767 0.88408 0.0
loop_
_geom_bond_atom_site_label_1
_geom_bond_atom_site_label_2
_geom_bond_distance
_geom_bond_site_symmetry_2
_ccdc_geom_bond_type
O0 Tb1 2.292 . S
O0 C3 1.255 . S
Tb1 O0 2.292 . S
Tb1 O17 2.326 1_556 S
Tb1 O19 2.500 . S
Tb1 O20 2.473 1_556 S
Tb1 O23 2.324 1_556 S
Eu2 O6 2.292 . S
Eu2 C7 2.852 . S
Eu2 O18 2.324 . S
Eu2 O22 2.326 . S
Eu2 O24 2.500 . S
Eu2 O25 2.473 . S
C3 O0 1.255 . S
C3 O4 1.247 . S
O4 C3 1.247 . S
C5 O17 1.242 . S
C5 O18 1.258 . S
O6 Eu2 2.292 . S
O6 C8 1.255 . S
C7 Eu2 2.852 . S
C7 C11 1.503 . S
C7 O24 1.273 . S
C7 O25 1.257 . S
C8 O6 1.255 . S
C8 O9 1.247 . S
O9 C8 1.247 . S
C10 O22 1.242 . S
C10 O23 1.258 . S
C11 C7 1.503 . S
C11 C12 1.379 . S
C11 C16 1.392 . S
C12 C11 1.379 . S
C12 C13 1.404 . S
C12 H26 0.929 . S
C13 C12 1.404 . S
C13 C14 1.389 . S
C14 C13 1.389 . S
C14 C15 1.399 . S
C14 H27 0.931 . S
C15 C14 1.399 . S
C15 C16 1.390 . S
C16 C11 1.392 . S
C16 C15 1.390 . S
C16 H28 0.929 . S
O17 Tb1 2.326 1_554 S
O17 C5 1.242 . S
O18 Eu2 2.324 . S
O18 C5 1.258 . S
O19 Tb1 2.500 . S
O19 C21 1.273 . S
O20 Tb1 2.473 1_554 S
O20 C21 1.257 1_554 S
C21 O19 1.273 . S
C21 O20 1.257 1_556 S
O22 Eu2 2.326 . S
O22 C10 1.242 . S
O23 Tb1 2.324 1_554 S
O23 C10 1.258 . S
O24 Eu2 2.500 . S
O24 C7 1.273 . S
O25 Eu2 2.473 . S
O25 C7 1.257 . S
H26 C12 0.929 . S
H27 C14 0.931 . S
H28 C16 0.929 . S
O29 Tb30 2.292 . S
O29 C32 1.255 . S
Tb30 O29 2.292 . S
Tb30 O46 2.326 . S
Tb30 O48 2.500 . S
Tb30 O49 2.473 . S
Tb30 O52 2.324 . S
Eu31 O35 2.292 1_556 S
Eu31 C36 2.852 . S
Eu31 O47 2.324 . S
Eu31 O51 2.326 . S
Eu31 O53 2.500 . S
Eu31 O54 2.473 . S
C32 O29 1.255 . S
C32 O33 1.247 . S
O33 C32 1.247 . S
C34 O46 1.242 . S
C34 O47 1.258 . S
O35 Eu31 2.292 1_554 S
O35 C37 1.255 . S
C36 Eu31 2.852 . S
C36 C40 1.503 . S
C36 O53 1.273 . S
C36 O54 1.257 . S
C37 O35 1.255 . S
C37 O38 1.247 . S
O38 C37 1.247 . S
C39 O51 1.242 . S
C39 O52 1.258 . S
C40 C36 1.503 . S
C40 C41 1.379 . S
C40 C45 1.392 . S
C41 C40 1.379 . S
C41 C42 1.404 . S
C41 H55 0.929 . S
C42 C41 1.404 . S
C42 C43 1.389 . S
C43 C42 1.389 . S
C43 C44 1.399 . S
C43 H56 0.931 . S
C44 C43 1.399 . S
C44 C45 1.390 . S
C45 C40 1.392 . S
C45 C44 1.390 . S
C45 H57 0.929 . S
O46 Tb30 2.326 . S
O46 C34 1.242 . S
O47 Eu31 2.324 . S
O47 C34 1.258 . S
O48 Tb30 2.500 . S
O48 C50 1.273 . S
O49 Tb30 2.473 . S
O49 C50 1.257 . S
C50 O48 1.273 . S
C50 O49 1.257 . S
O51 Eu31 2.326 . S
O51 C39 1.242 . S
O52 Tb30 2.324 . S
O52 C39 1.258 . S
O53 Eu31 2.500 . S
O53 C36 1.273 . S
O54 Eu31 2.473 . S
O54 C36 1.257 . S
H55 C41 0.929 . S
H56 C43 0.931 . S
H57 C45 0.929 . S
O58 Tb59 2.292 . S
O58 C61 1.255 . S
Tb59 O58 2.292 . S
Tb59 O75 2.326 . S
Tb59 O77 2.500 . S
Tb59 O78 2.473 . S
Tb59 O81 2.324 . S
Eu60 O64 2.292 . S
Eu60 C65 2.852 . S
Eu60 O76 2.324 . S
Eu60 O80 2.326 . S
Eu60 O82 2.500 . S
Eu60 O83 2.473 . S
C61 O58 1.255 . S
C61 O62 1.247 . S
O62 C61 1.247 . S
C63 O75 1.242 . S
C63 O76 1.258 . S
O64 Eu60 2.292 . S
O64 C66 1.255 . S
C65 Eu60 2.852 . S
C65 C69 1.503 . S
C65 O82 1.273 . S
C65 O83 1.257 . S
C66 O64 1.255 . S
C66 O67 1.247 . S
O67 C66 1.247 . S
C68 O80 1.242 . S
C68 O81 1.258 . S
C69 C65 1.503 . S
C69 C70 1.379 . S
C69 C74 1.392 . S
C70 C69 1.379 . S
C70 C71 1.404 . S
C70 H84 0.929 . S
C71 C70 1.404 . S
C71 C72 1.389 . S
C72 C71 1.389 . S
C72 C73 1.399 . S
C72 H85 0.931 . S
C73 C72 1.399 . S
C73 C74 1.390 . S
C74 C69 1.392 . S
C74 C73 1.390 . S
C74 H86 0.929 . S
O75 Tb59 2.326 . S
O75 C63 1.242 . S
O76 Eu60 2.324 . S
O76 C63 1.258 . S
O77 Tb59 2.500 . S
O77 C79 1.273 . S
O78 Tb59 2.473 . S
O78 C79 1.257 . S
C79 O77 1.273 . S
C79 O78 1.257 . S
O80 Eu60 2.326 . S
O80 C68 1.242 . S
O81 Tb59 2.324 . S
O81 C68 1.258 . S
O82 Eu60 2.500 . S
O82 C65 1.273 . S
O83 Eu60 2.473 . S
O83 C65 1.257 . S
H84 C70 0.929 . S
H85 C72 0.931 . S
H86 C74 0.929 . S
O87 Tb88 2.292 . S
O87 C90 1.255 . S
Tb88 O87 2.292 . S
Tb88 O104 2.326 1_554 S
Tb88 O106 2.500 . S
Tb88 O107 2.473 1_554 S
Tb88 O110 2.324 1_554 S
Eu89 O93 2.292 . S
Eu89 C94 2.852 . S
Eu89 O105 2.324 . S
Eu89 O109 2.326 . S
Eu89 O111 2.500 . S
Eu89 O112 2.473 . S
C90 O87 1.255 . S
C90 O91 1.247 . S
O91 C90 1.247 . S
C92 O104 1.242 . S
C92 O105 1.258 . S
O93 Eu89 2.292 . S
O93 C95 1.255 . S
C94 Eu89 2.852 . S
C94 C98 1.503 . S
C94 O111 1.273 . S
C94 O112 1.257 . S
C95 O93 1.255 . S
C95 O96 1.247 . S
O96 C95 1.247 . S
C97 O109 1.242 . S
C97 O110 1.258 . S
C98 C94 1.503 . S
C98 C99 1.379 . S
C98 C103 1.392 . S
C99 C98 1.379 . S
C99 C100 1.404 . S
C99 H113 0.929 . S
C100 C99 1.404 . S
C100 C101 1.389 . S
C101 C100 1.389 . S
C101 C102 1.399 . S
C101 H114 0.931 . S
C102 C101 1.399 . S
C102 C103 1.390 . S
C103 C98 1.392 . S
C103 C102 1.390 . S
C103 H115 0.929 . S
O104 Tb88 2.326 1_556 S
O104 C92 1.242 . S
O105 Eu89 2.324 . S
O105 C92 1.258 . S
O106 Tb88 2.500 . S
O106 C108 1.273 . S
O107 Tb88 2.473 1_556 S
O107 C108 1.257 1_556 S
C108 O106 1.273 . S
C108 O107 1.257 1_554 S
O109 Eu89 2.326 . S
O109 C97 1.242 . S
O110 Tb88 2.324 1_556 S
O110 C97 1.258 . S
O111 Eu89 2.500 . S
O111 C94 1.273 . S
O112 Eu89 2.473 . S
O112 C94 1.257 . S
H113 C99 0.929 . S
H114 C101 0.931 . S
H115 C103 0.929 . S
O116 Tb117 2.292 . S
O116 C119 1.255 . S
Tb117 O116 2.292 . S
Tb117 O133 2.326 . S
Tb117 O135 2.500 . S
Tb117 O136 2.473 . S
Tb117 O139 2.324 . S
Eu118 O122 2.292 . S
Eu118 C123 2.852 . S
Eu118 O134 2.324 . S
Eu118 O138 2.326 . S
Eu118 O140 2.500 . S
Eu118 O141 2.473 . S
C119 O116 1.255 . S
C119 O120 1.247 . S
O120 C119 1.247 . S
C121 O133 1.242 . S
C121 O134 1.258 . S
O122 Eu118 2.292 . S
O122 C124 1.255 . S
C123 Eu118 2.852 . S
C123 C127 1.503 . S
C123 O140 1.273 . S
C123 O141 1.257 . S
C124 O122 1.255 . S
C124 O125 1.247 . S
O125 C124 1.247 . S
C126 O138 1.242 . S
C126 O139 1.258 . S
C127 C123 1.503 . S
C127 C128 1.379 . S
C127 C132 1.392 . S
C128 C127 1.379 . S
C128 C129 1.404 . S
C128 H142 0.929 . S
C129 C128 1.404 . S
C129 C130 1.389 . S
C130 C129 1.389 . S
C130 C131 1.399 . S
C130 H143 0.931 . S
C131 C130 1.399 . S
C131 C132 1.390 . S
C132 C127 1.392 . S
C132 C131 1.390 . S
C132 H144 0.929 . S
O133 Tb117 2.326 . S
O133 C121 1.242 . S
O134 Eu118 2.324 . S
O134 C121 1.258 . S
O135 Tb117 2.500 . S
O135 C137 1.273 . S
O136 Tb117 2.473 . S
O136 C137 1.257 . S
C137 O135 1.273 . S
C137 O136 1.257 . S
O138 Eu118 2.326 . S
O138 C126 1.242 . S
O139 Tb117 2.324 . S
O139 C126 1.258 . S
O140 Eu118 2.500 . S
O140 C123 1.273 . S
O141 Eu118 2.473 . S
O141 C123 1.257 . S
H142 C128 0.929 . S
H143 C130 0.931 . S
H144 C132 0.929 . S
O145 Tb146 2.292 . S
O145 C148 1.255 . S
Tb146 O145 2.292 . S
Tb146 O162 2.326 . S
Tb146 O164 2.500 . S
Tb146 O165 2.473 . S
Tb146 O168 2.324 . S
Eu147 O151 2.292 1_554 S
Eu147 C152 2.852 . S
Eu147 O163 2.324 . S
Eu147 O167 2.326 . S
Eu147 O169 2.500 . S
Eu147 O170 2.473 . S
C148 O145 1.255 . S
C148 O149 1.247 . S
O149 C148 1.247 . S
C150 O162 1.242 . S
C150 O163 1.258 . S
O151 Eu147 2.292 1_556 S
O151 C153 1.255 . S
C152 Eu147 2.852 . S
C152 C156 1.503 . S
C152 O169 1.273 . S
C152 O170 1.257 . S
C153 O151 1.255 . S
C153 O154 1.247 . S
O154 C153 1.247 . S
C155 O167 1.242 . S
C155 O168 1.258 . S
C156 C152 1.503 . S
C156 C157 1.379 . S
C156 C161 1.392 . S
C157 C156 1.379 . S
C157 C158 1.404 . S
C157 H171 0.929 . S
C158 C157 1.404 . S
C158 C159 1.389 . S
C159 C158 1.389 . S
C159 C160 1.399 . S
C159 H172 0.931 . S
C160 C159 1.399 . S
C160 C161 1.390 . S
C161 C156 1.392 . S
C161 C160 1.390 . S
C161 H173 0.929 . S
O162 Tb146 2.326 . S
O162 C150 1.242 . S
O163 Eu147 2.324 . S
O163 C150 1.258 . S
O164 Tb146 2.500 . S
O164 C166 1.273 . S
O165 Tb146 2.473 . S
O165 C166 1.257 . S
C166 O164 1.273 . S
C166 O165 1.257 . S
O167 Eu147 2.326 . S
O167 C155 1.242 . S
O168 Tb146 2.324 . S
O168 C155 1.258 . S
O169 Eu147 2.500 . S
O169 C152 1.273 . S
O170 Eu147 2.473 . S
O170 C152 1.257 . S
H171 C157 0.929 . S
H172 C159 0.931 . S
H173 C161 0.929 . S
C174 C175 1.170 . S
C174 C176 1.380 1_455 S
C175 C174 1.170 . S
C176 C174 1.380 1_655 S
C176 C177 1.170 . S
C177 C176 1.170 . S
C178 C179 1.170 . S
C178 C180 1.380 . S
C179 C178 1.170 . S
C180 C178 1.380 . S
C180 C181 1.170 . S
C181 C180 1.170 . S
C182 C183 1.170 . S
C182 C184 1.380 1_565 S
C183 C182 1.170 . S
C184 C182 1.380 1_545 S
C184 C185 1.170 . S
C185 C184 1.170 . S
C186 C187 1.170 . S
C186 C188 1.380 . S
C187 C186 1.170 . S
C188 C186 1.380 . S
C188 C189 1.170 . S
C189 C188 1.170 . S
C190 C191 1.170 . S
C190 C192 1.380 . S
C191 C190 1.170 . S
C192 C190 1.380 . S
C192 C193 1.170 . S
C193 C192 1.170 . S
C194 C195 1.170 . S
C194 C196 1.380 . S
C195 C194 1.170 . S
C196 C194 1.380 . S
C196 C197 1.170 . S
C197 C196 1.170 . S
C198 C199 1.170 . S
C198 C200 1.380 . S
C199 C198 1.170 . S
C200 C198 1.380 . S
C200 C201 1.170 . S
C201 C200 1.170 . S
C202 C203 1.170 . S
C202 C204 1.380 . S
C203 C202 1.170 . S
C204 C202 1.380 . S
C204 C205 1.170 . S
C205 C204 1.170 . S
C206 C207 1.170 . S
C206 C208 1.380 . S
C207 C206 1.170 . S
C208 C206 1.380 . S
C208 C209 1.170 . S
C209 C208 1.170 . S
C210 C211 1.170 . S
C210 C212 1.380 1_655 S
C211 C210 1.170 . S
C212 C210 1.380 1_455 S
C212 C213 1.170 . S
C213 C212 1.170 . S
C214 C215 1.170 . S
C214 C216 1.380 1_554 S
C215 C214 1.170 . S
C216 C214 1.380 1_556 S
C216 C217 1.170 . S
C217 C216 1.170 . S
C218 C219 1.170 . S
C218 C220 1.380 1_545 S
C219 C218 1.170 . S
C220 C218 1.380 1_565 S
C220 C221 1.170 . S
C221 C220 1.170 . S
C222 C223 1.170 . S
C222 C224 1.380 . S
C223 C222 1.170 . S
C224 C222 1.380 . S
C224 C225 1.170 1_556 S
C225 C224 1.170 1_554 S
C226 C227 1.170 . S
C226 C228 1.380 1_565 S
C227 C226 1.170 . S
C228 C226 1.380 1_545 S
C228 C229 1.170 . S
C229 C228 1.170 . S
C230 C231 1.170 . S
C230 C232 1.380 1_655 S
C231 C230 1.170 . S
C232 C230 1.380 1_455 S
C232 C233 1.170 . S
C233 C232 1.170 . S
C234 C235 1.170 . S
C234 C236 1.380 . S
C235 C234 1.170 . S
C236 C234 1.380 . S
C236 C237 1.170 . S
C237 C236 1.170 . S
C238 C239 1.170 . S
C238 C240 1.380 . S
C239 C238 1.170 . S
C240 C238 1.380 . S
C240 C241 1.170 . S
C241 C240 1.170 . S
C242 C243 1.170 . S
C242 C244 1.380 . S
C243 C242 1.170 . S
C244 C242 1.380 . S
C244 C245 1.170 1_556 S
C245 C244 1.170 1_554 S
C246 C247 1.170 . S
C246 C248 1.380 . S
C247 C246 1.170 . S
C248 C246 1.380 . S
C248 C249 1.170 . S
C249 C248 1.170 . S
C250 C251 1.170 . S
C250 C252 1.380 . S
C251 C250 1.170 . S
C252 C250 1.380 . S
C252 C253 1.170 1_554 S
C253 C252 1.170 1_556 S
C254 C255 1.170 . S
C254 C256 1.380 . S
C255 C254 1.170 . S
C256 C254 1.380 . S
C256 C257 1.170 . S
C257 C256 1.170 . S
C175 C13 2.347 1_556 S
C177 C129 2.371 . S
C179 C158 2.358 . S
C181 C42 2.366 . S
C183 C71 2.347 . S
C185 C100 2.363 1_554 S
C187 C10 2.074 . S
C189 C79 1.660 . S
C191 C21 1.682 . S
C193 C39 2.075 . S
C195 C50 1.678 . S
C197 C68 2.074 . S
C199 C97 2.074 . S
C201 C137 1.660 . S
C203 C126 2.083 . S
C205 C166 1.717 . S
C207 C108 1.682 . S
C209 C155 2.075 . S
C211 C131 1.391 . S
C213 C15 1.390 . S
C215 C160 1.411 . S
C217 C44 1.411 . S
C219 C102 1.395 . S
C221 C73 1.390 . S
C223 C5 2.596 1_556 S
C225 C92 2.574 1_554 S
C227 C34 2.596 . S
C229 C121 2.569 . S
C231 C150 2.593 . S
C233 C63 2.580 . S
C235 C8 1.206 . S
C237 C3 1.195 . S
C239 C32 1.214 . S
C241 C37 1.216 . S
C243 C66 1.200 . S
C245 C61 1.228 . S
C247 C95 1.188 . S
C249 C90 1.233 . S
C251 C124 1.212 . S
C253 C119 1.191 . S
C255 C148 1.225 . S
C257 C153 1.183 . S
