# Generated by pormake.
# Topology wio, (6)-cn, num edge types: 1
# Building blocks:
#     Node 0, Type 0, BuildingBlock: KUMBUR_clean_sbu_1, # of connection points: 6
#     Node 1, Type 0, BuildingBlock: KUMBUR_clean_sbu_1, # of connection points: 6
#     Node 2, Type 0, BuildingBlock: KUMBUR_clean_sbu_1, # of connection points: 6
#     Node 3, Type 0, BuildingBlock: KUMBUR_clean_sbu_1, # of connection points: 6
#     Node 4, Type 0, BuildingBlock: KUMBUR_clean_sbu_1, # of connection points: 6
#     Node 5, Type 0, BuildingBlock: KUMBUR_clean_sbu_1, # of connection points: 6
#     Node 6, Type 0, BuildingBlock: KUMBUR_clean_sbu_1, # of connection points: 6
#     Node 7, Type 0, BuildingBlock: KUMBUR_clean_sbu_1, # of connection points: 6
#     Node 8, Type 0, BuildingBlock: KUMBUR_clean_sbu_1, # of connection points: 6
#     Node 9, Type 0, BuildingBlock: KUMBUR_clean_sbu_1, # of connection points: 6
#     Node 10, Type 0, BuildingBlock: KUMBUR_clean_sbu_1, # of connection points: 6
#     Node 11, Type 0, BuildingBlock: KUMBUR_clean_sbu_1, # of connection points: 6
#     Node 12, Type 0, BuildingBlock: KUMBUR_clean_sbu_1, # of connection points: 6
#     Node 13, Type 0, BuildingBlock: KUMBUR_clean_sbu_1, # of connection points: 6
#     Node 14, Type 0, BuildingBlock: KUMBUR_clean_sbu_1, # of connection points: 6
#     Node 15, Type 0, BuildingBlock: KUMBUR_clean_sbu_1, # of connection points: 6
#     Node 16, Type 0, BuildingBlock: KUMBUR_clean_sbu_1, # of connection points: 6
#     Node 17, Type 0, BuildingBlock: KUMBUR_clean_sbu_1, # of connection points: 6
#     Node 18, Type 0, BuildingBlock: KUMBUR_clean_sbu_1, # of connection points: 6
#     Node 19, Type 0, BuildingBlock: KUMBUR_clean_sbu_1, # of connection points: 6
#     Node 20, Type 0, BuildingBlock: KUMBUR_clean_sbu_1, # of connection points: 6
#     Node 21, Type 0, BuildingBlock: KUMBUR_clean_sbu_1, # of connection points: 6
#     Node 22, Type 0, BuildingBlock: KUMBUR_clean_sbu_1, # of connection points: 6
#     Node 23, Type 0, BuildingBlock: KUMBUR_clean_sbu_1, # of connection points: 6
#     Node 24, Type 0, BuildingBlock: KUMBUR_clean_sbu_1, # of connection points: 6
#     Node 25, Type 0, BuildingBlock: KUMBUR_clean_sbu_1, # of connection points: 6
#     Node 26, Type 0, BuildingBlock: KUMBUR_clean_sbu_1, # of connection points: 6
#     Node 27, Type 0, BuildingBlock: KUMBUR_clean_sbu_1, # of connection points: 6
#     Node 28, Type 0, BuildingBlock: KUMBUR_clean_sbu_1, # of connection points: 6
#     Node 29, Type 0, BuildingBlock: KUMBUR_clean_sbu_1, # of connection points: 6
#     Node 30, Type 0, BuildingBlock: KUMBUR_clean_sbu_1, # of connection points: 6
#     Node 31, Type 0, BuildingBlock: KUMBUR_clean_sbu_1, # of connection points: 6
#     Edge 32, Type (0, 0), None
#     Edge 33, Type (0, 0), None
#     Edge 34, Type (0, 0), None
#     Edge 35, Type (0, 0), None
#     Edge 36, Type (0, 0), None
#     Edge 37, Type (0, 0), None
#     Edge 38, Type (0, 0), None
#     Edge 39, Type (0, 0), None
#     Edge 40, Type (0, 0), None
#     Edge 41, Type (0, 0), None
#     Edge 42, Type (0, 0), None
#     Edge 43, Type (0, 0), None
#     Edge 44, Type (0, 0), None
#     Edge 45, Type (0, 0), None
#     Edge 46, Type (0, 0), None
#     Edge 47, Type (0, 0), None
#     Edge 48, Type (0, 0), None
#     Edge 49, Type (0, 0), None
#     Edge 50, Type (0, 0), None
#     Edge 51, Type (0, 0), None
#     Edge 52, Type (0, 0), None
#     Edge 53, Type (0, 0), None
#     Edge 54, Type (0, 0), None
#     Edge 55, Type (0, 0), None
#     Edge 56, Type (0, 0), None
#     Edge 57, Type (0, 0), None
#     Edge 58, Type (0, 0), None
#     Edge 59, Type (0, 0), None
#     Edge 60, Type (0, 0), None
#     Edge 61, Type (0, 0), None
#     Edge 62, Type (0, 0), None
#     Edge 63, Type (0, 0), None
#     Edge 64, Type (0, 0), None
#     Edge 65, Type (0, 0), None
#     Edge 66, Type (0, 0), None
#     Edge 67, Type (0, 0), None
#     Edge 68, Type (0, 0), None
#     Edge 69, Type (0, 0), None
#     Edge 70, Type (0, 0), None
#     Edge 71, Type (0, 0), None
#     Edge 72, Type (0, 0), None
#     Edge 73, Type (0, 0), None
#     Edge 74, Type (0, 0), None
#     Edge 75, Type (0, 0), None
#     Edge 76, Type (0, 0), None
#     Edge 77, Type (0, 0), None
#     Edge 78, Type (0, 0), None
#     Edge 79, Type (0, 0), None
#     Edge 80, Type (0, 0), None
#     Edge 81, Type (0, 0), None
#     Edge 82, Type (0, 0), None
#     Edge 83, Type (0, 0), None
#     Edge 84, Type (0, 0), None
#     Edge 85, Type (0, 0), None
#     Edge 86, Type (0, 0), None
#     Edge 87, Type (0, 0), None
#     Edge 88, Type (0, 0), None
#     Edge 89, Type (0, 0), None
#     Edge 90, Type (0, 0), None
#     Edge 91, Type (0, 0), None
#     Edge 92, Type (0, 0), None
#     Edge 93, Type (0, 0), None
#     Edge 94, Type (0, 0), None
#     Edge 95, Type (0, 0), None
#     Edge 96, Type (0, 0), None
#     Edge 97, Type (0, 0), None
#     Edge 98, Type (0, 0), None
#     Edge 99, Type (0, 0), None
#     Edge 100, Type (0, 0), None
#     Edge 101, Type (0, 0), None
#     Edge 102, Type (0, 0), None
#     Edge 103, Type (0, 0), None
#     Edge 104, Type (0, 0), None
#     Edge 105, Type (0, 0), None
#     Edge 106, Type (0, 0), None
#     Edge 107, Type (0, 0), None
#     Edge 108, Type (0, 0), None
#     Edge 109, Type (0, 0), None
#     Edge 110, Type (0, 0), None
#     Edge 111, Type (0, 0), None
#     Edge 112, Type (0, 0), None
#     Edge 113, Type (0, 0), None
#     Edge 114, Type (0, 0), None
#     Edge 115, Type (0, 0), None
#     Edge 116, Type (0, 0), None
#     Edge 117, Type (0, 0), None
#     Edge 118, Type (0, 0), None
#     Edge 119, Type (0, 0), None
#     Edge 120, Type (0, 0), None
#     Edge 121, Type (0, 0), None
#     Edge 122, Type (0, 0), None
#     Edge 123, Type (0, 0), None
#     Edge 124, Type (0, 0), None
#     Edge 125, Type (0, 0), None
#     Edge 126, Type (0, 0), None
#     Edge 127, Type (0, 0), None
# Relax obj value: 0.208
# Max RMSD: 0.263
# Mean RMSD: 0.263
data_MOF--net-wio--node1-KUMBUR_clean_sbu_1--edge1-none
_symmetry_space_group_name_H-M    P1
_symmetry_Int_Tables_number       1
_symmetry_cell_setting            triclinic
loop_
_symmetry_equiv_pos_as_xyz
'x, y, z'
_cell_length_a     35.07638
_cell_length_b     35.089496
_cell_length_c     26.16126
_cell_angle_alpha  90.012384
_cell_angle_beta   90.013002
_cell_angle_gamma 89.985828
loop_
_atom_site_label
_atom_site_type_symbol
_atom_site_fract_x
_atom_site_fract_y
_atom_site_fract_z
_atom_type_partial_charge
Tb0 Tb 0.06607 0.08401 0.34532 0.0
C1 C 0.24483 0.09695 0.44962 0.0
N2 N 0.21449 0.11486 0.42854 0.0
C3 C 0.22681 0.17127 0.481 0.0
C4 C 0.27071 0.12077 0.49754 0.0
C5 C 0.21091 0.15301 0.43823 0.0
C6 C 0.25552 0.15551 0.51079 0.0
C7 C 0.30039 0.02958 0.43313 0.0
C8 C 0.2569 0.05509 0.42052 0.0
C9 C 0.34087 0.06634 0.5039 0.0
C10 C 0.31503 0.10836 0.52408 0.0
Tb11 Tb 0.18412 0.08442 0.35953 0.0
N12 N 0.2295 0.04043 0.39116 0.0
C13 C 0.29738 -0.00712 0.40974 0.0
C14 C 0.22797 0.00187 0.39183 0.0
C15 C 0.26093 0.97885 0.39808 0.0
H16 H 0.19525 0.17118 0.41277 0.0
H17 H 0.25836 0.94866 0.39149 0.0
H18 H 0.05373 0.00088 0.28128 0.0
H19 H 0.01844 0.22392 0.31753 0.0
H20 H 0.20145 -0.01189 0.38475 0.0
H21 H 0.32007 0.97204 0.40799 0.0
H22 H 0.06519 0.17759 0.34458 0.0
H23 H 0.21777 0.19996 0.48942 0.0
H24 H 0.33565 0.05193 0.48495 0.0
H25 H 0.33998 0.09167 0.53003 0.0
H26 H 0.0162 0.97971 0.20774 0.0
H27 H 0.26838 0.17234 0.54079 0.0
H28 H 0.96754 0.20491 0.25812 0.0
N29 N 0.03571 0.05888 0.27604 0.0
C30 C 0.01362 0.08418 0.2506 0.0
C31 C 0.01545 0.00929 0.2192 0.0
C32 C -0.01024 0.07271 0.21019 0.0
C33 C 0.03686 0.02159 0.26117 0.0
C34 C -0.00835 0.0349 0.19365 0.0
N35 N 0.04101 0.13232 0.30109 0.0
C36 C 0.04423 0.16907 0.3169 0.0
C37 C -0.01076 0.14833 0.24539 0.0
C38 C 0.01506 0.12189 0.2654 0.0
C39 C -0.01057 0.18494 0.26652 0.0
C40 C 0.01772 0.19572 0.30108 0.0
H41 H 0.97434 0.025 0.16203 0.0
H42 H 0.94528 0.09085 0.15806 0.0
H43 H 0.94293 0.15617 0.191 0.0
O44 O 0.02814 0.10933 0.39812 0.0
O45 O 0.09696 0.09954 0.27125 0.0
O46 O 0.15912 0.07376 0.27783 0.0
O47 O 0.0247 0.04956 0.3826 0.0
O48 O 0.08728 0.12912 0.39931 0.0
O49 O 0.14836 0.13798 0.37185 0.0
O50 O 0.23794 0.08485 0.32841 0.0
O51 O 0.1623 0.06508 0.43211 0.0
O52 O 0.11813 0.07599 0.37863 0.0
O53 O 0.20017 0.13498 0.3215 0.0
O54 O 0.15838 0.02757 0.33439 0.0
O55 O 0.09107 0.02527 0.34794 0.0
C56 C 0.1295 0.08718 0.24904 0.0
C57 C 0.96961 0.07959 0.42176 0.0
C58 C 0.91472 0.08832 0.48196 0.0
C59 C 0.89128 0.07711 0.44078 0.0
C60 C 0.94426 0.07005 0.38284 0.0
C61 C 0.9056 0.06833 0.39274 0.0
C62 C 0.95484 0.0894 0.47163 0.0
C63 C 0.12063 0.14641 0.405 0.0
C64 C 0.01123 0.0777 0.41011 0.0
C65 C 0.96458 0.09922 0.18841 0.0
C66 C 0.96347 0.13668 0.20711 0.0
C67 C 0.1263 0.06495 0.42435 0.0
C68 C 0.26181 0.13679 0.28356 0.0
C69 C 0.30448 0.11942 0.21661 0.0
C70 C 0.33262 0.14269 0.23949 0.0
C71 C 0.28836 0.16222 0.3041 0.0
C72 C 0.26877 0.11731 0.23851 0.0
C73 C 0.32401 0.16517 0.28175 0.0
C74 C 0.12505 0.00857 0.34018 0.0
C75 C 0.23454 0.12095 0.31733 0.0
H76 H 0.86151 0.07279 0.44489 0.0
H77 H 0.95456 0.06271 0.34506 0.0
H78 H 0.88635 0.05845 0.36367 0.0
H79 H 0.97429 0.0972 0.50194 0.0
H80 H 0.36168 0.14328 0.22706 0.0
H81 H 0.28294 0.17665 0.34001 0.0
H82 H 0.24792 0.09707 0.22406 0.0
H83 H 0.34578 0.18271 0.29924 0.0
Tb84 Tb 0.13849 0.81564 0.60115 0.0
C85 C 0.12329 -0.00568 0.70324 0.0
N86 N 0.10465 0.96578 0.6786 0.0
C87 C 0.04637 0.97961 0.72627 0.0
C88 C 0.09818 0.0203 0.74967 0.0
C89 C 0.06585 0.96388 0.68443 0.0
C90 C 0.06217 0.00643 0.75912 0.0
C91 C 0.19098 0.05041 0.68923 0.0
C92 C 0.16642 0.00648 0.67598 0.0
C93 C 0.15173 0.09085 0.75795 0.0
C94 C 0.10957 0.06477 0.77619 0.0
Tb95 Tb 0.13944 0.93532 0.61345 0.0
N96 N 0.18318 0.97842 0.64987 0.0
C97 C 0.22876 0.04724 0.66884 0.0
C98 C 0.22175 0.97721 0.6544 0.0
C99 C 0.24399 0.0106 0.66108 0.0
H100 H 0.04853 0.94915 0.65682 0.0
H101 H 0.27459 0.00801 0.65811 0.0
H102 H 0.22185 0.79718 0.54276 0.0
H103 H -0.004 0.77413 0.56639 0.0
H104 H 0.23655 0.95081 0.64967 0.0
H105 H 0.24926 0.07025 0.66749 0.0
H106 H 0.04388 0.8168 0.59819 0.0
H107 H 0.01706 0.97158 0.73192 0.0
H108 H 0.16656 0.08576 0.73995 0.0
H109 H 0.12578 0.08987 0.78353 0.0
H110 H 0.24292 0.7591 0.46972 0.0
H111 H 0.04443 0.0195 0.78801 0.0
H112 H 0.01375 0.72328 0.50615 0.0
N113 N 0.16328 0.78213 0.53459 0.0
C114 C 0.13754 0.76093 0.5085 0.0
C115 C 0.21311 0.75945 0.48006 0.0
C116 C 0.14876 0.73681 0.46824 0.0
C117 C 0.20092 0.78133 0.52155 0.0
C118 C 0.18701 0.73695 0.45329 0.0
N119 N 0.08956 0.79059 0.55722 0.0
C120 C 0.05248 0.79573 0.57085 0.0
C121 C 0.07223 0.74059 0.49918 0.0
C122 C 0.09958 0.76425 0.52172 0.0
C123 C 0.03488 0.74325 0.51731 0.0
C124 C 0.02475 0.77151 0.55213 0.0
H125 H 0.19676 0.71946 0.42178 0.0
H126 H 0.12953 0.69422 0.414 0.0
H127 H 0.06294 0.69606 0.44276 0.0
O128 O 0.11327 0.77772 0.65409 0.0
O129 O 0.12799 0.84172 0.52272 0.0
O130 O 0.13435 0.90836 0.53215 0.0
O131 O 0.1734 0.77645 0.64187 0.0
O132 O 0.09175 0.84057 0.64953 0.0
O133 O 0.08452 0.90154 0.61963 0.0
O134 O 0.14752 0.96577 0.54475 0.0
O135 O 0.16097 0.91246 0.685 0.0
O136 O 0.14582 0.86801 0.63403 0.0
O137 O 0.1118 -0.01369 0.60567 0.0
O138 O 0.19772 0.90974 0.59938 0.0
O139 O 0.1975 0.84157 0.60173 0.0
C140 C 0.13001 0.87684 0.50221 0.0
C141 C 0.14442 0.72031 0.67926 0.0
C142 C 0.13646 0.6649 0.73863 0.0
C143 C 0.14762 0.64173 0.69717 0.0
C144 C 0.15421 0.6953 0.63997 0.0
C145 C 0.15609 0.65649 0.64919 0.0
C146 C 0.1349 0.70505 0.72888 0.0
C147 C 0.07449 0.87422 0.65272 0.0
C148 C 0.14511 0.76209 0.6681 0.0
C149 C 0.12145 0.71352 0.44448 0.0
C150 C 0.08337 0.71473 0.46081 0.0
C151 C 0.15681 0.8764 0.67983 0.0
C152 C 0.09337 0.00429 0.52596 0.0
C153 C 0.09894 0.05028 0.46062 0.0
C154 C 0.07225 0.07349 0.4862 0.0
C155 C 0.06227 0.02411 0.54757 0.0
C156 C 0.10634 0.01399 0.47808 0.0
C157 C 0.05173 0.05904 0.52727 0.0
C158 C 0.21531 0.87563 0.59939 0.0
C159 C 0.12312 -0.00848 0.55985 0.0
H160 H 0.15199 0.61187 0.70134 0.0
H161 H 0.16134 0.70594 0.60228 0.0
H162 H 0.16559 0.63751 0.61946 0.0
H163 H 0.12684 0.72411 0.75949 0.0
H164 H 0.06814 0.10302 0.47709 0.0
H165 H 0.05028 0.01585 0.5841 0.0
H166 H 0.1293 -0.0024 0.46076 0.0
H167 H 0.03087 0.07653 0.54672 0.0
Tb168 Tb 0.40441 0.88691 0.845 0.0
C169 C 0.22562 0.87215 0.94971 0.0
N170 N 0.25641 0.85488 0.92901 0.0
C171 C 0.24496 0.79842 0.98161 0.0
C172 C 0.20017 0.84811 0.99778 0.0
C173 C 0.26056 0.81682 0.93877 0.0
C174 C 0.21595 0.81372 1.01128 0.0
C175 C 0.16952 0.93906 0.93373 0.0
C176 C 0.21315 0.91387 0.92077 0.0
C177 C 0.12947 0.90171 1.00459 0.0
C178 C 0.1558 0.85996 1.0245 0.0
Tb179 Tb 0.28682 0.88606 0.86066 0.0
N180 N 0.24106 0.92937 0.89309 0.0
C181 C 0.17344 0.97655 0.91288 0.0
C182 C 0.24331 0.96778 0.89781 0.0
C183 C 0.21052 -0.00916 0.90558 0.0
H184 H 0.2764 0.79886 0.91327 0.0
H185 H 0.21383 0.02126 0.90381 0.0
H186 H 0.4146 0.96967 0.77923 0.0
H187 H 0.45661 0.74836 0.82037 0.0
H188 H 0.27024 0.98158 0.89288 0.0
H189 H 0.15093 -0.0024 0.91151 0.0
H190 H 0.40828 0.79339 0.84608 0.0
H191 H 0.25455 0.76999 0.99023 0.0
H192 H 0.13444 0.91621 0.9858 0.0
H193 H 0.1306 0.87624 1.03058 0.0
H194 H 0.45195 -0.00892 0.70578 0.0
H195 H 0.20339 0.79681 1.04145 0.0
H196 H 0.50668 0.76807 0.75965 0.0
N197 N 0.43412 0.91209 0.77516 0.0
C198 C 0.45691 0.88716 0.75017 0.0
C199 C 0.4531 0.96158 0.71741 0.0
C200 C 0.48046 0.89884 0.70956 0.0
C201 C 0.43198 0.94917 0.75956 0.0
C202 C 0.47743 0.93632 0.69216 0.0
N203 N 0.43091 0.83888 0.80153 0.0
C204 C 0.42897 0.80226 0.81824 0.0
C205 C 0.48341 0.82385 0.74653 0.0
C206 C 0.45662 0.84966 0.76576 0.0
C207 C 0.48433 0.78751 0.76831 0.0
C208 C 0.45643 0.77632 0.8032 0.0
H209 H 0.49449 0.94634 0.66036 0.0
H210 H 0.52584 0.88157 0.65828 0.0
H211 H 0.53045 0.81684 0.69317 0.0
O212 O 0.44122 0.86189 0.89929 0.0
O213 O 0.37319 0.86974 0.77211 0.0
O214 O 0.31182 0.89703 0.77896 0.0
O215 O 0.44611 0.92127 0.88171 0.0
O216 O 0.38387 0.84157 0.89907 0.0
O217 O 0.32279 0.83249 0.87178 0.0
O218 O 0.23337 0.88534 0.82828 0.0
O219 O 0.30928 0.90455 0.93339 0.0
O220 O 0.35249 0.89469 0.87819 0.0
O221 O 0.27157 0.83528 0.82267 0.0
O222 O 0.31148 0.94389 0.83719 0.0
O223 O 0.37911 0.94582 0.84766 0.0
C224 C 0.34088 0.88261 0.74998 0.0
C225 C 0.5005 0.89033 0.92115 0.0
C226 C 0.55566 0.87969 0.98022 0.0
C227 C 0.57891 0.89131 0.93911 0.0
C228 C 0.52566 0.90014 0.88221 0.0
C229 C 0.56436 0.90135 0.89172 0.0
C230 C 0.51544 0.87949 0.97051 0.0
C231 C 0.35072 0.8239 0.90454 0.0
C232 C 0.45892 0.8933 0.91013 0.0
C233 C 0.50666 0.87293 0.68862 0.0
C234 C 0.50903 0.83583 0.70832 0.0
C235 C 0.34511 0.90493 0.92445 0.0
C236 C 0.20983 0.8322 0.78515 0.0
C237 C 0.16601 0.84874 0.71942 0.0
C238 C 0.13844 0.82521 0.74305 0.0
C239 C 0.18386 0.8067 0.80684 0.0
C240 C 0.20209 0.85103 0.73996 0.0
C241 C 0.14795 0.80305 0.78531 0.0
C242 C 0.34497 0.96281 0.84173 0.0
C243 C 0.23722 0.84918 0.81766 0.0
H244 H 0.60877 0.89491 0.94266 0.0
H245 H 0.51518 0.90824 0.84482 0.0
H246 H 0.58347 0.91187 0.863 0.0
H247 H 0.49606 0.87172 1.00093 0.0
H248 H 0.10925 0.82421 0.73113 0.0
H249 H 0.18996 0.79274 0.84288 0.0
H250 H 0.22255 0.87132 0.72462 0.0
H251 H 0.12666 0.78533 0.80348 0.0
Tb252 Tb 0.33209 0.15251 0.09724 0.0
C253 C 0.34584 0.97388 0.19783 0.0
N254 N 0.36471 0.00208 0.17301 0.0
C255 C 0.42261 -0.01142 0.22143 0.0
C256 C 0.3702 0.94901 0.24592 0.0
C257 C 0.40348 0.00368 0.17885 0.0
C258 C 0.40629 0.96276 0.25526 0.0
C259 C 0.27791 0.91781 0.18497 0.0
C260 C 0.30285 0.96126 0.17016 0.0
C261 C 0.31582 0.87934 0.25648 0.0
C262 C 0.35801 0.90549 0.27436 0.0
Tb263 Tb 0.32964 0.0331 0.10908 0.0
N264 N 0.28601 -0.01077 0.14399 0.0
C265 C 0.24034 0.92068 0.16395 0.0
C266 C 0.2475 -0.00939 0.14942 0.0
C267 C 0.22518 0.95728 0.15607 0.0
H268 H 0.42099 0.01817 0.15121 0.0
H269 H 0.1946 0.9599 0.15348 0.0
H270 H 0.24884 0.16843 1.03579 0.0
H271 H 0.47383 0.1988 1.06602 0.0
H272 H 0.23275 0.01705 0.1452 0.0
H273 H 0.21985 0.89765 0.16282 0.0
H274 H 0.42656 0.1551 0.09799 0.0
H275 H 0.4519 -0.00336 0.22731 0.0
H276 H 0.30123 0.88418 0.2377 0.0
H277 H 0.34132 0.88086 0.28252 0.0
H278 H 0.22799 0.20571 0.96203 0.0
H279 H 0.42364 0.95032 0.28508 0.0
H280 H 0.45541 0.24815 1.00401 0.0
N281 N 0.30726 0.18486 1.02939 0.0
C282 C 0.33283 0.20651 1.00364 0.0
C283 C 0.25769 0.20587 0.97302 0.0
C284 C 0.3216 0.22997 0.96265 0.0
C285 C 0.26981 0.18458 1.01513 0.0
C286 C 0.28365 0.22868 0.94658 0.0
N287 N 0.3809 0.17893 1.05442 0.0
C288 C 0.41788 0.17536 1.06955 0.0
C289 C 0.39763 0.2289 0.99602 0.0
C290 C 0.37066 0.20452 1.01807 0.0
C291 C 0.43474 0.22769 1.01524 0.0
C292 C 0.44517 0.20023 1.05104 0.0
H293 H 0.27392 0.24571 0.9146 0.0
H294 H 0.3404 0.27275 0.90846 0.0
H295 H 0.40647 0.27333 0.9394 0.0
O296 O 0.3573 0.18969 0.1512 0.0
O297 O 0.34522 0.12554 1.01984 0.0
O298 O 0.33159 0.05995 1.02771 0.0
O299 O 0.29749 0.19238 0.13736 0.0
O300 O 0.37859 0.12731 0.14556 0.0
O301 O 0.38491 0.06622 0.11601 0.0
O302 O 0.32496 0.00677 1.03693 0.0
O303 O 0.30823 0.05589 0.18089 0.0
O304 O 0.32394 0.1004 0.13055 0.0
O305 O 0.35447 0.98056 0.09989 0.0
O306 O 0.27152 0.0589 0.09666 0.0
O307 O 0.27269 0.12705 0.09771 0.0
C308 C 0.33922 0.09108 0.99849 0.0
C309 C 0.32726 0.24784 0.17571 0.0
C310 C 0.33609 0.30348 0.23475 0.0
C311 C 0.32583 0.32659 0.19284 0.0
C312 C 0.31846 0.27287 0.13607 0.0
C313 C 0.31734 0.31173 0.14495 0.0
C314 C 0.33667 0.26319 0.22543 0.0
C315 C 0.39528 0.09344 0.14904 0.0
C316 C 0.32567 0.20603 0.16453 0.0
C317 C 0.34857 0.25392 0.93942 0.0
C318 C 0.38634 0.25408 0.95696 0.0
C319 C 0.31288 0.09195 0.17631 0.0
C320 C 0.37927 0.9682 1.02108 0.0
C321 C 0.37319 0.91994 0.95944 0.0
C322 C 0.3987 0.89686 0.98733 0.0
C323 C 0.40946 0.94852 1.04516 0.0
C324 C 0.3679 0.9575 0.97294 0.0
C325 C 0.41925 0.91243 1.02776 0.0
C326 C 0.25441 0.09318 0.09594 0.0
C327 C 0.34721 0.97925 1.05216 0.0
H328 H 0.32198 0.35652 0.19656 0.0
H329 H 0.31145 0.26221 0.09835 0.0
H330 H 0.30842 0.33071 0.11499 0.0
H331 H 0.34389 0.24412 0.25639 0.0
H332 H 0.40214 0.86691 0.97988 0.0
H333 H 0.42077 0.95796 1.08156 0.0
H334 H 0.34613 0.97413 0.95343 0.0
H335 H 0.43941 0.8952 1.0489 0.0
Tb336 Tb 0.06576 0.8883 0.34111 0.0
C337 C 0.24452 0.87287 0.24278 0.0
N338 N 0.2163 0.85409 0.26763 0.0
C339 C 0.22969 0.79614 0.21933 0.0
C340 C 0.26898 0.8486 0.1942 0.0
C341 C 0.21464 0.81533 0.26191 0.0
C342 C 0.25524 0.81248 0.18509 0.0
C343 C 0.30102 0.94041 0.25567 0.0
C344 C 0.25752 0.91564 0.27067 0.0
C345 C 0.3389 0.90269 0.18331 0.0
C346 C 0.31237 0.86073 0.1653 0.0
Tb347 Tb 0.18513 0.88949 0.33099 0.0
N348 N 0.22961 0.9327 0.29667 0.0
C349 C 0.29844 0.9779 0.27698 0.0
C350 C 0.22847 0.9712 0.29105 0.0
C351 C 0.26194 -0.00668 0.28471 0.0
H352 H 0.20009 0.79789 0.28957 0.0
H353 H 0.2595 0.02391 0.2874 0.0
H354 H 0.05224 0.97195 0.40256 0.0
H355 H 0.01593 0.74807 0.37215 0.0
H356 H 0.2021 -0.0139 0.29479 0.0
H357 H 0.32163 -0.00179 0.27828 0.0
H358 H 0.06111 0.79414 0.3407 0.0
H359 H 0.22168 0.76683 0.21372 0.0
H360 H 0.3343 0.9172 0.20227 0.0
H361 H 0.33699 0.87739 0.15698 0.0
H362 H 0.01537 -0.00617 0.47601 0.0
H363 H 0.2676 0.79509 0.1552 0.0
H364 H 0.9669 0.76764 0.43385 0.0
N365 N 0.034 0.91409 0.40875 0.0
C366 C 0.01157 0.88917 0.43439 0.0
C367 C 0.01452 0.96415 0.46522 0.0
C368 C -0.01155 0.90105 0.47535 0.0
C369 C 0.03542 0.95147 0.42309 0.0
C370 C -0.00897 0.93884 0.4917 0.0
N371 N 0.03824 0.84032 0.38411 0.0
C372 C 0.04092 0.8033 0.36899 0.0
C373 C -0.01268 0.82508 0.4418 0.0
C374 C 0.01262 0.8513 0.42005 0.0
C375 C -0.01223 0.7879 0.42267 0.0
C376 C 0.01518 0.77672 0.38718 0.0
H377 H 0.97438 0.94899 0.5238 0.0
H378 H 0.9447 0.88364 0.52895 0.0
H379 H 0.94184 0.81803 0.4976 0.0
O380 O 0.02933 0.86307 0.28658 0.0
O381 O 0.09132 0.87659 0.4197 0.0
O382 O 0.1575 0.88644 0.41176 0.0
O383 O 0.0255 0.92271 0.30129 0.0
O384 O 0.09094 0.84118 0.29342 0.0
O385 O 0.15188 0.83438 0.32334 0.0
O386 O 0.21052 0.89464 0.40363 0.0
O387 O 0.16308 0.9109 0.2587 0.0
O388 O 0.11822 0.8955 0.30858 0.0
O389 O 0.23757 0.86453 0.34159 0.0
O390 O 0.1596 0.94797 0.3423 0.0
O391 O 0.09149 0.94744 0.33876 0.0
C392 C 0.12597 0.8809 0.44109 0.0
C393 C 0.97071 0.89177 0.26294 0.0
C394 C 0.91536 0.88047 0.20445 0.0
C395 C 0.8919 0.8888 0.2467 0.0
C396 C 0.94551 0.89891 0.30297 0.0
C397 C 0.90659 0.89779 0.2945 0.0
C398 C 0.95563 0.88215 0.21325 0.0
C399 C 0.12476 0.82426 0.29003 0.0
C400 C 0.01242 0.89447 0.27374 0.0
C401 C 0.96347 0.8749 0.49821 0.0
C402 C 0.96212 0.83725 0.48044 0.0
C403 C 0.12698 0.90632 0.26282 0.0
C404 C 0.24861 0.84034 0.42154 0.0
C405 C 0.29903 0.84868 0.47963 0.0
C406 C 0.32158 0.82307 0.45125 0.0
C407 C 0.26768 0.80956 0.39804 0.0
C408 C 0.26084 0.85294 0.4685 0.0
C409 C 0.30483 0.80124 0.41287 0.0
C410 C 0.12548 0.96543 0.34118 0.0
C411 C 0.23811 0.8721 0.3894 0.0
H412 H 0.8617 0.89027 0.24365 0.0
H413 H 0.95597 0.90606 0.34076 0.0
H414 H 0.88733 0.90498 0.32483 0.0
H415 H 0.97487 0.87641 0.18192 0.0
H416 H 0.35183 0.82031 0.45711 0.0
H417 H 0.25697 0.79705 0.363 0.0
H418 H 0.24453 0.87486 0.48817 0.0
H419 H 0.32162 0.78099 0.3913 0.0
Tb420 Tb 0.33441 0.81657 0.59254 0.0
C421 C 0.34626 -0.00507 0.48843 0.0
N422 N 0.3643 0.96483 0.50985 0.0
C423 C 0.42068 0.97706 0.45729 0.0
C424 C 0.36954 0.01977 0.4391 0.0
C425 C 0.40253 0.9616 0.50043 0.0
C426 C 0.40437 0.00463 0.42617 0.0
C427 C 0.2798 0.05164 0.50537 0.0
C428 C 0.30495 0.00792 0.51842 0.0
C429 C 0.31592 0.09044 0.43236 0.0
C430 C 0.35722 0.06375 0.4117 0.0
Tb431 Tb 0.33402 0.93453 0.57887 0.0
N432 N 0.2905 0.98115 0.54906 0.0
C433 C 0.24394 0.05023 0.5312 0.0
C434 C 0.25198 0.98123 0.55246 0.0
C435 C 0.2298 0.01481 0.54709 0.0
H436 H 0.42083 0.94649 0.52635 0.0
H437 H 0.20005 0.01355 0.55719 0.0
H438 H 0.25203 0.80352 0.65766 0.0
H439 H 0.47641 0.77332 0.62328 0.0
H440 H 0.23765 0.95543 0.56181 0.0
H441 H 0.22363 0.0734 0.53291 0.0
H442 H 0.42824 0.81675 0.59195 0.0
H443 H 0.44955 0.96843 0.44937 0.0
H444 H 0.30181 0.08578 0.45188 0.0
H445 H 0.34069 0.08874 0.40525 0.0
H446 H 0.23226 0.76789 0.73341 0.0
H447 H 0.421 0.01707 0.39564 0.0
H448 H 0.45869 0.72353 0.68473 0.0
N449 N 0.31034 0.78641 0.66256 0.0
C450 C 0.33621 0.76527 0.68844 0.0
C451 C 0.26172 0.76719 0.72142 0.0
C452 C 0.32553 0.74249 0.73029 0.0
C453 C 0.27321 0.78749 0.67812 0.0
C454 C 0.28792 0.74445 0.74761 0.0
N455 N 0.38351 0.79232 0.63624 0.0
C456 C 0.42024 0.79631 0.62054 0.0
C457 C 0.401 0.74277 0.69466 0.0
C458 C 0.37379 0.76706 0.67313 0.0
C459 C 0.43784 0.744 0.67438 0.0
C460 C 0.44787 0.77165 0.63861 0.0
H461 H 0.27865 0.728 0.78039 0.0
H462 H 0.34487 0.69991 0.78441 0.0
H463 H 0.41012 0.69817 0.75115 0.0
O464 O 0.35933 0.78012 0.53766 0.0
O465 O 0.35083 0.8477 0.66607 0.0
O466 O 0.32342 0.90908 0.66023 0.0
O467 O 0.30051 0.77369 0.55705 0.0
O468 O 0.37889 0.83808 0.53794 0.0
O469 O 0.38786 0.89902 0.56629 0.0
O470 O 0.33445 -0.01201 0.61084 0.0
O471 O 0.31426 0.91254 0.50628 0.0
O472 O 0.32591 0.86874 0.55996 0.0
O473 O 0.38456 0.9498 0.61757 0.0
O474 O 0.2773 0.90876 0.60403 0.0
O475 O 0.27536 0.84138 0.59108 0.0
C476 C 0.33784 0.87981 0.68869 0.0
C477 C 0.33217 0.71998 0.51621 0.0
C478 C 0.34247 0.66508 0.45632 0.0
C479 C 0.33598 0.64129 0.49867 0.0
C480 C 0.32724 0.69435 0.55634 0.0
C481 C 0.32891 0.65553 0.54722 0.0
C482 C 0.34038 0.70534 0.46571 0.0
C483 C 0.39643 0.87137 0.53302 0.0
C484 C 0.32822 0.76159 0.52764 0.0
C485 C 0.35267 0.71845 0.75297 0.0
C486 C 0.39008 0.71773 0.73412 0.0
C487 C 0.31472 0.87659 0.51426 0.0
C488 C 0.38688 0.01166 0.65507 0.0
C489 C 0.36923 0.05631 0.71943 0.0
C490 C 0.39314 0.08353 0.69557 0.0
C491 C 0.41268 0.03734 0.63346 0.0
C492 C 0.36716 0.02004 0.69946 0.0
C493 C 0.41585 0.07352 0.65408 0.0
C494 C 0.25849 0.8753 0.59907 0.0
C495 C 0.37043 0.98408 0.62246 0.0
H496 H 0.33448 0.6111 0.49504 0.0
H497 H 0.32129 0.70436 0.59472 0.0
H498 H 0.32366 0.63586 0.57763 0.0
H499 H 0.3447 0.72489 0.43432 0.0
H500 H 0.39417 0.11289 0.70641 0.0
H501 H 0.42725 0.03079 0.59798 0.0
H502 H 0.34672 -0.00026 0.71478 0.0
H503 H 0.43375 0.09461 0.63579 0.0
Tb504 Tb 0.40371 0.08308 0.83866 0.0
C505 C 0.22328 0.09711 0.7455 0.0
N506 N 0.25343 0.11493 0.76648 0.0
C507 C 0.24021 0.17196 0.71603 0.0
C508 C 0.19936 0.11981 0.69508 0.0
C509 C 0.25593 0.15341 0.75872 0.0
C510 C 0.21381 0.1552 0.6834 0.0
C511 C 0.16713 0.02998 0.76056 0.0
C512 C 0.2102 0.05571 0.77535 0.0
C513 C 0.12993 0.06513 0.68554 0.0
C514 C 0.15641 0.10665 0.66587 0.0
Tb515 Tb 0.28602 0.08221 0.8308 0.0
N516 N 0.23832 0.03979 0.80215 0.0
C517 C 0.16996 -0.00687 0.78355 0.0
C518 C 0.23978 0.00124 0.79851 0.0
C519 C 0.20661 0.97851 0.79261 0.0
H520 H 0.27145 0.17127 0.78485 0.0
H521 H 0.20941 0.94805 0.79659 0.0
H522 H 0.41792 -0.0005 0.89935 0.0
H523 H 0.45361 0.22312 0.86885 0.0
H524 H 0.26644 -0.013 0.80314 0.0
H525 H 0.14706 0.97252 0.78524 0.0
H526 H 0.40826 0.17701 0.83776 0.0
H527 H 0.24846 0.20105 0.70887 0.0
H528 H 0.13446 0.05117 0.70544 0.0
H529 H 0.13191 0.08965 0.65817 0.0
H530 H 0.45438 0.9777 0.97301 0.0
H531 H 0.20159 0.17178 0.65263 0.0
H532 H 0.50253 0.20364 0.93097 0.0
N533 N 0.43471 0.05763 0.90707 0.0
C534 C 0.45664 0.08267 0.93328 0.0
C535 C 0.45474 0.00749 0.96291 0.0
C536 C 0.47973 0.07086 0.97434 0.0
C537 C 0.43394 0.02013 0.92071 0.0
C538 C 0.47755 0.03295 0.9902 0.0
N539 N 0.43079 0.13113 0.88195 0.0
C540 C 0.42832 0.16803 0.86634 0.0
C541 C 0.48123 0.14663 0.94021 0.0
C542 C 0.45586 0.12039 0.91862 0.0
C543 C 0.48132 0.18356 0.92025 0.0
C544 C 0.45412 0.19461 0.88436 0.0
H545 H 0.49421 0.0228 1.02232 0.0
H546 H 0.52331 0.08838 1.02817 0.0
H547 H 0.52643 0.15395 0.99633 0.0
O548 O 0.44006 0.10787 0.78345 0.0
O549 O 0.37434 0.09993 0.9137 0.0
O550 O 0.31433 0.07022 0.90959 0.0
O551 O 0.44434 0.04851 0.80018 0.0
O552 O 0.38079 0.12943 0.7883 0.0
O553 O 0.3205 0.13623 0.81885 0.0
O554 O 0.23403 0.08118 0.86876 0.0
O555 O 0.30583 0.0647 0.75535 0.0
O556 O 0.3514 0.07427 0.80641 0.0
O557 O 0.27281 0.13129 0.87242 0.0
O558 O 0.31161 0.02456 0.85025 0.0
O559 O 0.37857 0.02383 0.83545 0.0
C560 C 0.34251 0.08715 0.93726 0.0
C561 C 0.4989 0.07861 0.76057 0.0
C562 C 0.55413 0.08664 0.70087 0.0
C563 C 0.5775 0.07724 0.74294 0.0
C564 C 0.52415 0.07104 0.80048 0.0
C565 C 0.56298 0.07003 0.79138 0.0
C566 C 0.51392 0.08715 0.71047 0.0
C567 C 0.34689 0.14584 0.78459 0.0
C568 C 0.45718 0.07631 0.77166 0.0
C569 C 0.5046 0.09708 0.99733 0.0
C570 C 0.50615 0.13465 0.97926 0.0
C571 C 0.34218 0.06532 0.76018 0.0
C572 C 0.21233 0.13637 0.91216 0.0
C573 C 0.16458 0.12007 0.97275 0.0
C574 C 0.13886 0.14451 0.94715 0.0
C575 C 0.18807 0.16241 0.88807 0.0
C576 C 0.20177 0.11778 0.95642 0.0
C577 C 0.15118 0.16687 0.90633 0.0
C578 C 0.34487 0.00618 0.84272 0.0
C579 C 0.23938 0.11659 0.88208 0.0
H580 H 0.60737 0.07309 0.73908 0.0
H581 H 0.51373 0.06476 0.83856 0.0
H582 H 0.58223 0.06216 0.82163 0.0
H583 H 0.49465 0.09351 0.67939 0.0
H584 H 0.10914 0.1461 0.9566 0.0
H585 H 0.19626 0.17608 0.85258 0.0
H586 H 0.22095 0.09703 0.97362 0.0
H587 H 0.13133 0.18527 0.88648 0.0
Tb588 Tb 0.13542 0.15235 1.09079 0.0
C589 C 0.12326 0.97307 0.98938 0.0
N590 N 0.10521 0.00326 1.01036 0.0
C591 C 0.04879 -0.00946 0.95822 0.0
C592 C 0.10031 0.94821 0.93995 0.0
C593 C 0.06692 0.00623 1.00123 0.0
C594 C 0.06534 0.96311 0.92706 0.0
C595 C 0.19038 0.9171 1.00585 0.0
C596 C 0.16473 0.96047 1.01924 0.0
C597 C 0.15446 0.87808 0.93286 0.0
C598 C 0.11295 0.9044 0.91246 0.0
Tb599 Tb 0.13577 0.03437 1.07827 0.0
N600 N 0.1795 -0.01207 1.04844 0.0
C601 C 0.22683 0.91966 1.03 0.0
C602 C 0.2181 -0.01091 1.0482 0.0
C603 C 0.24091 0.95591 1.04254 0.0
H604 H 0.04873 0.02158 1.02703 0.0
H605 H 0.27106 0.95824 1.0498 0.0
H606 H 0.21875 0.16388 0.15455 0.0
H607 H -0.00431 0.20315 0.12031 0.0
H608 H 0.23209 0.01548 1.05532 0.0
H609 H 0.24754 0.89685 1.03167 0.0
H610 H 0.04162 0.15743 1.08923 0.0
H611 H 0.01987 -0.00092 0.95021 0.0
H612 H 0.16859 0.88287 0.95232 0.0
H613 H 0.1296 0.87949 0.90585 0.0
H614 H 0.24037 0.20007 0.22885 0.0
H615 H 0.04883 0.95064 0.89646 0.0
H616 H 0.01537 0.25134 0.18348 0.0
N617 N 0.16084 0.18221 0.16041 0.0
C618 C 0.13583 0.20429 0.18646 0.0
C619 C 0.21071 0.20102 0.21779 0.0
C620 C 0.14756 0.22703 0.22793 0.0
C621 C 0.19815 0.18049 0.1752 0.0
C622 C 0.18532 0.22435 0.24443 0.0
N623 N 0.08739 0.17918 0.1343 0.0
C624 C 0.05055 0.17719 0.11821 0.0
C625 C 0.07202 0.22941 0.19289 0.0
C626 C 0.09816 0.20392 0.17135 0.0
C627 C 0.03523 0.23 0.17255 0.0
C628 C 0.02411 0.20319 0.13618 0.0
H629 H 0.1954 0.24087 0.27672 0.0
H630 H 0.13001 0.27043 0.28202 0.0
H631 H 0.06459 0.2743 0.24933 0.0
O632 O 0.11092 0.18947 1.03638 0.0
O633 O 0.1195 0.12175 0.16487 0.0
O634 O 0.14678 0.06029 0.15934 0.0
O635 O 0.1704 0.19311 1.05347 0.0
O636 O 0.0894 0.1305 1.03889 0.0
O637 O 0.08174 0.06947 1.0671 0.0
O638 O 0.1349 0.98104 0.11086 0.0
O639 O 0.15377 0.05607 1.0043 0.0
O640 O 0.14368 0.10038 1.0574 0.0
O641 O 0.08526 0.01967 0.11742 0.0
O642 O 0.19244 0.06042 0.10233 0.0
O643 O 0.19431 0.12746 1.0875 0.0
C644 C 0.13237 0.08966 0.18767 0.0
C645 C 0.14062 0.24819 1.01496 0.0
C646 C 0.13176 0.30394 0.95674 0.0
C647 C 0.14209 0.32688 0.99876 0.0
C648 C 0.14938 0.27291 1.05494 0.0
C649 C 0.15066 0.31177 1.04642 0.0
C650 C 0.13124 0.2637 0.96551 0.0
C651 C 0.07237 0.09696 1.03416 0.0
C652 C 0.14266 0.20647 1.02519 0.0
C653 C 0.12138 0.25201 0.25082 0.0
C654 C 0.08393 0.254 0.23231 0.0
C655 C 0.15329 0.09219 1.01109 0.0
C656 C 0.08245 0.95826 0.15608 0.0
C657 C 0.09966 0.91508 0.22245 0.0
C658 C 0.07627 0.88718 0.19923 0.0
C659 C 0.05689 0.93198 0.13519 0.0
C660 C 0.10184 0.95093 0.20108 0.0
C661 C 0.05379 0.89619 0.15709 0.0
C662 C 0.21124 0.09369 0.09595 0.0
C663 C 0.09897 -0.01475 0.12251 0.0
H664 H 0.14571 0.35686 0.99554 0.0
H665 H 0.15639 0.26201 1.09252 0.0
H666 H 0.15995 0.33054 1.07631 0.0
H667 H 0.12412 0.24477 0.93433 0.0
H668 H 0.07559 0.85806 0.21136 0.0
H669 H 0.04254 0.93769 0.09929 0.0
H670 H 0.12221 0.97156 0.21578 0.0
H671 H 0.03618 0.87461 0.13932 0.0
Tb672 Tb 0.78642 0.88684 0.82833 0.0
C673 C 0.95668 0.88752 0.93481 0.0
N674 N 0.93431 0.9125 0.90917 0.0
C675 C 0.9538 0.96244 0.96593 0.0
C676 C 0.97999 0.89931 0.97566 0.0
C677 C 0.93272 0.94981 0.92385 0.0
C678 C 0.97751 0.9371 0.99208 0.0
C679 C 0.98188 0.82371 0.94074 0.0
C680 C 0.95605 0.84982 0.91986 0.0
C681 C 0.007 0.83564 0.97956 0.0
C682 C 0.00527 0.87313 0.99803 0.0
Tb683 Tb 0.90395 0.88708 0.84003 0.0
N684 N 0.93073 0.83901 0.88354 0.0
C685 C 0.98228 0.78693 0.92026 0.0
C686 C 0.92842 0.80214 0.86771 0.0
C687 C 0.95484 0.77578 0.88477 0.0
H688 H 0.91576 0.97028 0.90348 0.0
H689 H 0.95462 0.7474 0.86883 0.0
H690 H 0.77385 0.79849 0.77918 0.0
H691 H 0.71201 0.02137 0.78795 0.0
H692 H 0.90807 0.79311 0.83953 0.0
H693 H 0.00391 0.76709 0.93032 0.0
H694 H 0.76852 0.98159 0.79639 0.0
H695 H 0.95289 -0.0079 0.97702 0.0
H696 H 0.02747 0.81626 0.99617 0.0
H697 H 0.02411 0.88178 1.02875 0.0
H698 H 0.75154 0.76952 0.70237 0.0
H699 H -0.00558 0.94724 1.02397 0.0
H700 H 0.64896 -0.00254 0.7809 0.0
N701 N 0.75445 0.85466 0.76269 0.0
C702 C 0.72388 0.87215 0.74219 0.0
C703 C 0.74239 0.79816 0.71063 0.0
C704 C 0.69966 0.84929 0.69212 0.0
C705 C 0.75791 0.81642 0.75366 0.0
C706 C 0.71484 0.81444 0.67932 0.0
N707 N 0.73931 0.92945 0.79833 0.0
C708 C 0.74151 0.96782 0.7928 0.0
C709 C 0.66782 0.93925 0.75763 0.0
C710 C 0.71096 0.91353 0.77198 0.0
C711 C 0.67157 0.97653 0.77923 0.0
C712 C 0.70864 -0.0091 0.7861 0.0
H713 H 0.70266 0.79792 0.64844 0.0
H714 H 0.63157 0.87889 0.6564 0.0
H715 H 0.63445 0.91774 0.7031 0.0
O716 O 0.73411 0.88646 0.86454 0.0
O717 O 0.80742 0.90497 0.75396 0.0
O718 O 0.85206 0.8954 0.80657 0.0
O719 O 0.77334 0.83669 0.86831 0.0
O720 O 0.81122 0.9443 0.85029 0.0
O721 O 0.87838 0.94604 0.83681 0.0
O722 O 0.94102 0.86252 0.78553 0.0
O723 O 0.8735 0.87092 0.91445 0.0
O724 O 0.81263 0.89904 0.90862 0.0
O725 O 0.94479 0.92195 0.80246 0.0
O726 O 0.88239 0.84079 0.78815 0.0
O727 O 0.82164 0.83318 0.81664 0.0
C728 C 0.84363 0.90463 0.76019 0.0
C729 C 0.71229 0.8316 0.907 0.0
C730 C 0.66578 0.84768 0.96935 0.0
C731 C 0.63945 0.82373 0.94389 0.0
C732 C 0.68751 0.80594 0.88322 0.0
C733 C 0.65089 0.80172 0.90231 0.0
C734 C 0.70265 0.84996 0.95181 0.0
C735 C 0.84436 0.96311 0.8438 0.0
C736 C 0.73936 0.85071 0.8764 0.0
C737 C 0.65632 0.86212 0.66354 0.0
C738 C 0.62983 0.90367 0.68345 0.0
C739 C 0.84127 0.88366 0.93716 0.0
C740 C -0.00022 0.89211 0.76324 0.0
C741 C 0.05522 0.88329 0.70413 0.0
C742 C 0.07843 0.8939 0.74579 0.0
C743 C 0.02486 0.90108 0.80278 0.0
C744 C 0.015 0.88253 0.7136 0.0
C745 C 0.06369 0.90244 0.79371 0.0
C746 C 0.84874 0.82402 0.7831 0.0
C747 C 0.95803 0.8942 0.7741 0.0
H748 H 0.60984 0.82229 0.95371 0.0
H749 H 0.69505 0.79249 0.84732 0.0
H750 H 0.63054 0.78381 0.88257 0.0
H751 H 0.72229 0.87039 0.96875 0.0
H752 H 0.10831 0.89802 0.74188 0.0
H753 H 0.01424 0.90818 0.84048 0.0
H754 H -0.00415 0.87517 0.68277 0.0
H755 H 0.08272 0.91172 0.82343 0.0
Tb756 Tb 0.8327 0.03519 0.57931 0.0
C757 C 0.83265 0.20547 0.68601 0.0
N758 N 0.80751 0.18392 0.6594 0.0
C759 C 0.75736 0.20362 0.71579 0.0
C760 C 0.82087 0.2285 0.72716 0.0
C761 C 0.77002 0.18287 0.67342 0.0
C762 C 0.78283 0.22666 0.74275 0.0
C763 C 0.89707 0.22869 0.69451 0.0
C764 C 0.87055 0.20406 0.67201 0.0
C765 C 0.88518 0.25361 0.73358 0.0
C766 C 0.84736 0.25274 0.75085 0.0
Tb767 Tb 0.83323 0.1532 0.59069 0.0
N768 N 0.88127 0.17894 0.63539 0.0
C769 C 0.93428 0.22804 0.67556 0.0
C770 C 0.91833 0.17571 0.62067 0.0
C771 C 0.94526 0.2008 0.63967 0.0
H772 H 0.7494 0.16658 0.65235 0.0
H773 H 0.97402 0.1997 0.62503 0.0
H774 H 0.92056 0.02212 0.52925 0.0
H775 H 0.69908 0.95592 0.5546 0.0
H776 H 0.92719 0.15552 0.59218 0.0
H777 H 0.95464 0.24871 0.6872 0.0
H778 H 0.73689 0.01408 0.55864 0.0
H779 H 0.72761 0.20296 0.7265 0.0
H780 H 0.90483 0.27327 0.7513 0.0
H781 H 0.83875 0.27135 0.78186 0.0
H782 H 0.949 0.00064 0.4516 0.0
H783 H 0.77268 0.24342 0.77477 0.0
H784 H 0.72335 0.89529 0.53456 0.0
N785 N 0.86405 0.00379 0.51251 0.0
C786 C 0.84616 0.97362 0.49151 0.0
C787 C 0.92025 -0.00825 0.45981 0.0
C788 C 0.86856 0.94994 0.4406 0.0
C789 C 0.90233 0.00681 0.50341 0.0
C790 C 0.90347 0.965 0.4278 0.0
N791 N 0.78995 -0.01247 0.55086 0.0
C792 C 0.75132 -0.01206 0.5513 0.0
C793 C 0.77961 0.91692 0.50744 0.0
C794 C 0.80517 0.96016 0.52196 0.0
C795 C 0.74359 0.91851 0.53273 0.0
C796 C 0.72909 0.95435 0.54622 0.0
H797 H 0.91971 0.95312 0.39646 0.0
H798 H 0.83861 0.88225 0.40423 0.0
H799 H 0.80051 0.88451 0.45211 0.0
O800 O 0.83351 0.98253 0.61394 0.0
O801 O 0.81406 0.05635 0.50521 0.0
O802 O 0.82459 0.10129 0.55708 0.0
O803 O 0.88308 0.02185 0.61919 0.0
O804 O 0.77596 0.06105 0.60239 0.0
O805 O 0.77425 0.12807 0.58753 0.0
O806 O 0.85858 0.19066 0.53711 0.0
O807 O 0.84837 0.12251 0.6657 0.0
O808 O 0.82105 0.06114 0.65991 0.0
O809 O 0.79886 0.19396 0.55195 0.0
O810 O 0.87944 0.13114 0.53918 0.0
O811 O 0.88656 0.07012 0.56718 0.0
C812 C 0.81482 0.09262 0.51095 0.0
C813 C 0.88746 0.9604 0.65731 0.0
C814 C 0.87126 0.91472 0.72076 0.0
C815 C 0.89564 0.88825 0.69624 0.0
C816 C 0.91355 0.93551 0.63463 0.0
C817 C 0.91787 0.89923 0.65468 0.0
C818 C 0.86858 0.95121 0.70194 0.0
C819 C 0.75724 0.09425 0.59582 0.0
C820 C 0.8693 -0.0124 0.62589 0.0
C821 C 0.85549 0.90689 0.41155 0.0
C822 C 0.81435 0.88008 0.4319 0.0
C823 C 0.83589 0.0901 0.68843 0.0
C824 C 0.82859 0.24907 0.51246 0.0
C825 C 0.8366 0.30439 0.45251 0.0
C826 C 0.82574 0.32764 0.49396 0.0
C827 C 0.81924 0.27434 0.55156 0.0
C828 C 0.8379 0.26416 0.4625 0.0
C829 C 0.81724 0.31305 0.54193 0.0
C830 C 0.89585 0.09734 0.53384 0.0
C831 C 0.82696 0.2073 0.5243 0.0
H832 H 0.89724 0.85879 0.70661 0.0
H833 H 0.92742 0.9427 0.5989 0.0
H834 H 0.93612 0.87875 0.63574 0.0
H835 H 0.84783 0.97092 0.718 0.0
H836 H 0.82133 0.35747 0.48972 0.0
H837 H 0.81231 0.26388 0.58938 0.0
H838 H 0.84555 0.24494 0.4319 0.0
H839 H 0.80738 0.33212 0.57117 0.0
Tb840 Tb 0.68367 0.0831 0.32757 0.0
C841 C 0.51278 0.08259 0.43315 0.0
N842 N 0.53436 0.05752 0.40646 0.0
C843 C 0.51452 0.0072 0.46233 0.0
C844 C 0.48982 0.07071 0.4743 0.0
C845 C 0.5352 0.01996 0.42002 0.0
C846 C 0.49166 0.03263 0.48964 0.0
C847 C 0.48953 0.14697 0.44196 0.0
C848 C 0.51409 0.1205 0.41923 0.0
C849 C 0.46483 0.13502 0.48125 0.0
C850 C 0.4657 0.09715 0.49828 0.0
Tb851 Tb 0.56526 0.08332 0.33809 0.0
N852 N 0.53909 0.13128 0.38248 0.0
C853 C 0.49006 0.1842 0.42303 0.0
C854 C 0.5422 0.16833 0.36777 0.0
C855 C 0.51716 0.19522 0.38701 0.0
H856 H 0.55131 -0.0006 0.3986 0.0
H857 H 0.51816 0.22399 0.37242 0.0
H858 H 0.69656 0.17087 0.27868 0.0
H859 H 0.76297 0.94951 0.30356 0.0
H860 H 0.56226 0.17722 0.33915 0.0
H861 H 0.46931 0.20451 0.43458 0.0
H862 H 0.70489 -0.01287 0.30802 0.0
H863 H 0.5152 0.97742 0.47278 0.0
H864 H 0.44536 0.15462 0.49939 0.0
H865 H 0.44719 0.08849 0.52936 0.0
H866 H 0.7185 0.20037 0.20218 0.0
H867 H 0.47503 0.02241 0.52173 0.0
H868 H 0.82313 0.97333 0.28083 0.0
N869 N 0.71518 0.11466 0.26083 0.0
C870 C 0.74532 0.09686 0.23925 0.0
C871 C 0.72757 0.17163 0.20991 0.0
C872 C 0.77033 0.12072 0.19067 0.0
C873 C 0.71215 0.15303 0.25266 0.0
C874 C 0.7552 0.1557 0.17854 0.0
N875 N 0.7308 0.04011 0.29763 0.0
C876 C 0.73078 0.00155 0.29963 0.0
C877 C 0.80165 0.0299 0.25457 0.0
C878 C 0.75802 0.05509 0.26816 0.0
C879 C 0.79999 -0.00632 0.27937 0.0
C880 C 0.76438 0.97939 0.2943 0.0
H881 H 0.76747 0.17261 0.14828 0.0
H882 H 0.83923 0.09205 0.15611 0.0
H883 H 0.83594 0.05248 0.20165 0.0
O884 O 0.73648 0.08262 0.36197 0.0
O885 O 0.66262 0.06463 0.25348 0.0
O886 O 0.61746 0.075 0.30518 0.0
O887 O 0.69845 0.13308 0.36752 0.0
O888 O 0.65781 0.0263 0.35033 0.0
O889 O 0.5908 0.02454 0.33509 0.0
O890 O 0.52751 0.10804 0.2844 0.0
O891 O 0.59496 0.09867 0.41341 0.0
O892 O 0.657 0.07256 0.4084 0.0
O893 O 0.52516 0.04826 0.29947 0.0
O894 O 0.58755 0.12956 0.28676 0.0
O895 O 0.64837 0.13684 0.31579 0.0
C896 C 0.62635 0.06531 0.2591 0.0
C897 C 0.75992 0.1357 0.40615 0.0
C898 C 0.80486 0.11997 0.47103 0.0
C899 C 0.83139 0.14466 0.44727 0.0
C900 C 0.78492 0.16202 0.38424 0.0
C901 C 0.82085 0.16666 0.40529 0.0
C902 C 0.76877 0.11662 0.45082 0.0
C903 C 0.62465 0.00757 0.34329 0.0
C904 C 0.7323 0.1184 0.37438 0.0
C905 C 0.8143 0.10858 0.16306 0.0
C906 C 0.84071 0.06685 0.18255 0.0
C907 C 0.62733 0.0867 0.43651 0.0
C908 C 0.46955 0.07708 0.26056 0.0
C909 C 0.41437 0.08424 0.20058 0.0
C910 C 0.3911 0.07301 0.24192 0.0
C911 C 0.44441 0.06741 0.29976 0.0
C912 C 0.45446 0.0862 0.2107 0.0
C913 C 0.40566 0.06506 0.29018 0.0
C914 C 0.62135 0.14614 0.28207 0.0
C915 C 0.5113 0.07612 0.27191 0.0
H916 H 0.86066 0.14657 0.45844 0.0
H917 H 0.77806 0.176 0.34846 0.0
H918 H 0.84144 0.18507 0.3869 0.0
H919 H 0.74906 0.09563 0.46625 0.0
H920 H 0.36133 0.0682 0.23752 0.0
H921 H 0.45493 0.06063 0.33763 0.0
H922 H 0.47365 0.09417 0.18019 0.0
H923 H 0.38661 0.0556 0.31988 0.0
Tb924 Tb 0.63739 0.93242 1.07659 0.0
C925 C 0.63865 0.76219 0.18265 0.0
N926 N 0.66375 0.78368 0.15591 0.0
C927 C 0.7141 0.76375 0.2117 0.0
C928 C 0.65051 0.73924 0.22381 0.0
C929 C 0.70133 0.78445 0.1694 0.0
C930 C 0.68864 0.74098 0.23907 0.0
C931 C 0.57407 0.7395 0.19195 0.0
C932 C 0.60071 0.76369 0.16887 0.0
C933 C 0.586 0.71471 0.23116 0.0
C934 C 0.62398 0.71528 0.24792 0.0
Tb935 Tb 0.63797 0.81472 1.08765 0.0
N936 N 0.59001 0.78873 0.13217 0.0
C937 C 0.53668 0.74059 0.17355 0.0
C938 C 0.5529 0.79231 0.11786 0.0
C939 C 0.5258 0.76775 0.13752 0.0
H940 H 0.7219 0.80049 0.14791 0.0
H941 H 0.49697 0.76922 0.12324 0.0
H942 H 0.54852 0.94471 1.02983 0.0
H943 H 0.77176 0.0071 1.03577 0.0
H944 H 0.54402 0.8125 1.08942 0.0
H945 H 0.51603 0.72037 0.18563 0.0
H946 H 0.73256 0.95037 1.04471 0.0
H947 H 0.74391 0.76432 0.22204 0.0
H948 H 0.5663 0.69542 0.24943 0.0
H949 H 0.63263 0.69674 0.27895 0.0
H950 H 0.51799 0.96721 0.95444 0.0
H951 H 0.69887 0.72435 0.27115 0.0
H952 H 0.74739 0.06969 1.02561 0.0
N953 N 0.60436 0.96405 1.01127 0.0
C954 C 0.62165 -0.00557 0.9898 0.0
C955 C 0.54671 0.97648 0.96168 0.0
C956 C 0.59719 0.01955 0.94186 0.0
C957 C 0.56592 0.96079 1.00381 0.0
C958 C 0.56208 0.00446 0.9303 0.0
N959 N 0.67996 0.97883 1.04443 0.0
C960 C 0.71844 0.97712 1.03999 0.0
C961 C 0.68897 0.05042 1.00376 0.0
C962 C 0.66386 0.00693 1.01776 0.0
C963 C 0.72657 0.04696 1.02458 0.0
C964 C 0.74122 0.01014 1.03292 0.0
H965 H 0.54473 0.01699 0.90051 0.0
H966 H 0.62525 0.08856 0.90702 0.0
H967 H 0.66555 0.08506 0.95143 0.0
O968 O 0.63913 0.9848 0.11261 0.0
O969 O 0.6557 0.91149 1.00233 0.0
O970 O 0.64624 0.8668 1.05493 0.0
O971 O 0.5877 0.948 0.11619 0.0
O972 O 0.69509 0.90784 0.09837 0.0
O973 O 0.69686 0.8407 1.08497 0.0
O974 O 0.61327 0.77791 1.033 0.0
O975 O 0.62103 0.84432 0.16215 0.0
O976 O 0.64815 0.90568 0.15716 0.0
O977 O 0.67279 0.77402 1.04979 0.0
O978 O 0.59161 0.83632 1.03593 0.0
O979 O 0.58393 0.89672 1.06574 0.0
C980 C 0.65538 0.8753 1.00857 0.0
C981 C 0.5851 0.00932 0.15459 0.0
C982 C 0.59921 0.0548 0.21927 0.0
C983 C 0.57435 0.08083 0.19486 0.0
C984 C 0.55879 0.03383 0.13157 0.0
C985 C 0.55308 0.06972 0.15239 0.0
C986 C 0.6033 0.01867 0.19965 0.0
C987 C 0.71397 0.87473 1.09183 0.0
C988 C 0.60319 0.98127 0.12436 0.0
C989 C 0.60893 0.06355 0.91423 0.0
C990 C 0.65092 0.08988 0.93286 0.0
C991 C 0.63307 0.87656 0.18524 0.0
C992 C 0.64296 0.71937 1.01019 0.0
C993 C 0.63511 0.6645 0.95019 0.0
C994 C 0.64451 0.64089 0.99196 0.0
C995 C 0.65068 0.69401 1.0499 0.0
C996 C 0.63443 0.70459 0.96006 0.0
C997 C 0.65183 0.65522 1.04048 0.0
C998 C 0.57471 0.86997 1.03168 0.0
C999 C 0.64499 0.76098 1.02138 0.0
H1000 H 0.57188 0.11011 0.20591 0.0
H1001 H 0.54546 0.02655 0.09548 0.0
H1002 H 0.53442 0.08986 0.13351 0.0
H1003 H 0.62429 -0.00068 0.21593 0.0
H1004 H 0.64864 0.61102 0.98766 0.0
H1005 H 0.65693 0.70435 1.08802 0.0
H1006 H 0.62787 0.72396 0.92918 0.0
H1007 H 0.66 0.63589 1.07044 0.0
Tb1008 Tb 0.78396 0.08163 0.85912 0.0
C1009 C 0.95458 0.084 0.75266 0.0
N1010 N 0.93216 0.05873 0.77763 0.0
C1011 C 0.95223 0.00942 0.72029 0.0
C1012 C 0.97824 0.07266 0.71197 0.0
C1013 C 0.93082 0.02156 0.76229 0.0
C1014 C 0.97596 0.03507 0.6948 0.0
C1015 C 0.97988 0.14779 0.74858 0.0
C1016 C 0.95374 0.12151 0.76828 0.0
C1017 C 0.0055 0.1362 0.71014 0.0
C1018 C 0.00382 0.099 0.69071 0.0
Tb1019 Tb 0.90167 0.08339 0.84714 0.0
N1020 N 0.92804 0.13191 0.8043 0.0
C1021 C 0.98008 0.18427 0.76996 0.0
C1022 C 0.92544 0.16862 0.82068 0.0
C1023 C 0.95212 0.1951 0.8049 0.0
H1024 H 0.91388 0.00079 0.7821 0.0
H1025 H 0.9517 0.22326 0.82153 0.0
H1026 H 0.77031 0.17017 0.90631 0.0
H1027 H 0.70817 0.9471 0.89487 0.0
H1028 H 0.90469 0.17737 0.8485 0.0
H1029 H 0.00192 0.20415 0.76103 0.0
H1030 H 0.76519 -0.01393 0.88629 0.0
H1031 H 0.95172 0.97984 0.70894 0.0
H1032 H 0.02639 0.15556 0.69458 0.0
H1033 H 0.02301 0.09064 0.66023 0.0
H1034 H 0.74797 0.2002 0.9823 0.0
H1035 H -0.00685 0.02529 0.66297 0.0
H1036 H 0.64617 0.97126 0.90872 0.0
N1037 N 0.7524 0.11385 0.92515 0.0
C1038 C 0.7224 0.09607 0.94683 0.0
C1039 C 0.73946 0.17117 0.97526 0.0
C1040 C 0.69798 0.11958 0.99616 0.0
C1041 C 0.75493 0.15238 0.93263 0.0
C1042 C 0.7127 0.15487 1.00766 0.0
N1043 N 0.73714 0.03879 0.88973 0.0
C1044 C 0.73862 0.00023 0.89246 0.0
C1045 C 0.66621 0.02896 0.93237 0.0
C1046 C 0.7095 0.05436 0.91785 0.0
C1047 C 0.669 -0.00803 0.90979 0.0
C1048 C 0.70552 0.97749 0.8993 0.0
H1049 H 0.70048 0.17177 1.03806 0.0
H1050 H 0.62969 0.09064 1.03223 0.0
H1051 H 0.63262 0.05132 0.98618 0.0
O1052 O 0.731 0.08255 0.82485 0.0
O1053 O 0.8055 0.06331 0.93317 0.0
O1054 O 0.85003 0.07382 0.88077 0.0
O1055 O 0.77066 0.13169 0.81868 0.0
O1056 O 0.80999 0.02444 0.83737 0.0
O1057 O 0.87735 0.02409 0.84988 0.0
O1058 O 0.93841 0.10807 0.90194 0.0
O1059 O 0.87092 0.09969 0.77294 0.0
O1060 O 0.8103 0.07078 0.77828 0.0
O1061 O 0.94287 0.04879 0.8844 0.0
O1062 O 0.87958 0.12914 0.89914 0.0
O1063 O 0.81876 0.13543 0.87078 0.0
C1064 C 0.84172 0.06428 0.92709 0.0
C1065 C 0.70922 0.13644 0.78072 0.0
C1066 C 0.6652 0.12096 0.71485 0.0
C1067 C 0.6379 0.14462 0.73884 0.0
C1068 C 0.68353 0.16194 0.80302 0.0
C1069 C 0.64767 0.16627 0.7815 0.0
C1070 C 0.70129 0.11826 0.73516 0.0
C1071 C 0.84373 0.00634 0.84308 0.0
C1072 C 0.73621 0.11828 0.81263 0.0
C1073 C 0.65448 0.10723 1.0246 0.0
C1074 C 0.62799 0.0656 1.00545 0.0
C1075 C 0.83885 0.08679 0.74996 0.0
C1076 C -0.00255 0.07896 0.92389 0.0
C1077 C 0.05298 0.08824 0.98273 0.0
C1078 C 0.07611 0.07811 0.94084 0.0
C1079 C 0.02246 0.07041 0.88417 0.0
C1080 C 0.01271 0.08842 0.97357 0.0
C1081 C 0.06127 0.06942 0.8931 0.0
C1082 C 0.84554 0.14491 0.90454 0.0
C1083 C 0.95575 0.0765 0.9131 0.0
H1084 H 0.60869 0.14592 0.72694 0.0
H1085 H 0.68973 0.1753 0.83944 0.0
H1086 H 0.62654 0.18398 0.80008 0.0
H1087 H 0.72152 0.09784 0.7195 0.0
H1088 H 0.10609 0.07465 0.94419 0.0
H1089 H 0.01185 0.06326 0.84647 0.0
H1090 H -0.0064 0.09532 1.00461 0.0
H1091 H 0.08027 0.06021 0.86348 0.0
Tb1092 Tb 0.63845 0.03354 0.6105 0.0
C1093 C 0.63603 0.20622 0.50193 0.0
N1094 N 0.66144 0.18389 0.5269 0.0
C1095 C 0.71047 0.20329 0.4687 0.0
C1096 C 0.64716 0.22944 0.46068 0.0
C1097 C 0.69853 0.1823 0.51119 0.0
C1098 C 0.68471 0.22699 0.44326 0.0
C1099 C 0.57186 0.23062 0.4968 0.0
C1100 C 0.59844 0.20515 0.51745 0.0
C1101 C 0.58316 0.25572 0.45766 0.0
C1102 C 0.62051 0.25437 0.43863 0.0
Tb1103 Tb 0.63694 0.15276 0.59596 0.0
N1104 N 0.58812 0.17958 0.55375 0.0
C1105 C 0.53524 0.23061 0.51768 0.0
C1106 C 0.55137 0.17701 0.57008 0.0
C1107 C 0.52466 0.20314 0.55338 0.0
H1108 H 0.71932 0.16526 0.53091 0.0
H1109 H 0.49645 0.20263 0.56985 0.0
H1110 H 0.54822 0.02057 0.65744 0.0
H1111 H 0.77412 0.96205 0.65728 0.0
H1112 H 0.54257 0.15678 0.59845 0.0
H1113 H 0.51511 0.252 0.50784 0.0
H1114 H 0.73545 0.01891 0.64794 0.0
H1115 H 0.73992 0.20231 0.45674 0.0
H1116 H 0.56332 0.27578 0.44111 0.0
H1117 H 0.62864 0.27309 0.40754 0.0
H1118 H 0.51805 -0.00125 0.73394 0.0
H1119 H 0.69432 0.24382 0.411 0.0
H1120 H 0.74939 0.89942 0.66441 0.0
N1121 N 0.60462 0.00349 0.67713 0.0
C1122 C 0.62328 0.97458 0.70088 0.0
C1123 C 0.5472 -0.00953 0.72717 0.0
C1124 C 0.59884 0.94887 0.74809 0.0
C1125 C 0.56599 0.00598 0.68463 0.0
C1126 C 0.5633 0.96328 0.7591 0.0
N1127 N 0.6825 -0.00946 0.64669 0.0
C1128 C 0.72098 -0.00772 0.65221 0.0
C1129 C 0.69087 0.91856 0.68599 0.0
C1130 C 0.66597 0.96233 0.67273 0.0
C1131 C 0.72866 0.92222 0.66588 0.0
C1132 C 0.74356 0.95911 0.65923 0.0
H1133 H 0.54607 0.95049 0.78867 0.0
H1134 H 0.62675 0.87934 0.78152 0.0
H1135 H 0.66711 0.88342 0.73726 0.0
O1136 O 0.64557 0.00111 0.54332 0.0
O1137 O 0.65963 0.05693 0.68183 0.0
O1138 O 0.64455 0.10082 0.62992 0.0
O1139 O 0.60828 0.98385 0.60418 0.0
O1140 O 0.6967 0.05936 0.59608 0.0
O1141 O 0.69611 0.12756 0.59769 0.0
O1142 O 0.61216 0.18982 0.65011 0.0
O1143 O 0.62463 0.12524 0.51878 0.0
O1144 O 0.63674 0.05935 0.52797 0.0
O1145 O 0.67173 0.19335 0.63453 0.0
O1146 O 0.59049 0.1285 0.64516 0.0
O1147 O 0.58334 0.0673 0.6164 0.0
C1148 C 0.65556 0.09295 0.67589 0.0
C1149 C 0.58987 0.96458 0.52508 0.0
C1150 C 0.59739 0.9199 0.45861 0.0
C1151 C 0.57275 0.89468 0.48445 0.0
C1152 C 0.56018 0.94282 0.54677 0.0
C1153 C 0.55181 0.90738 0.52619 0.0
C1154 C 0.60229 0.95655 0.47636 0.0
C1155 C 0.7141 0.09361 0.59563 0.0
C1156 C 0.61987 0.97686 0.55896 0.0
C1157 C 0.6105 0.90447 0.77455 0.0
C1158 C 0.65244 0.87835 0.75561 0.0
C1159 C 0.63031 0.09053 0.49799 0.0
C1160 C 0.64139 0.24825 0.67354 0.0
C1161 C 0.6317 0.30352 0.73273 0.0
C1162 C 0.64049 0.3269 0.69054 0.0
C1163 C 0.64869 0.27345 0.63359 0.0
C1164 C 0.63228 0.26328 0.72347 0.0
C1165 C 0.64869 0.31229 0.64247 0.0
C1166 C 0.57325 0.09496 0.64903 0.0
C1167 C 0.64375 0.2066 0.66243 0.0
H1168 H 0.57047 0.86503 0.4747 0.0
H1169 H 0.54837 0.94984 0.58388 0.0
H1170 H 0.53261 0.88831 0.54598 0.0
H1171 H 0.62376 0.97465 0.45876 0.0
H1172 H 0.64386 0.35687 0.69417 0.0
H1173 H 0.65546 0.26299 0.59569 0.0
H1174 H 0.62623 0.24402 0.75465 0.0
H1175 H 0.65669 0.33151 0.61247 0.0
Tb1176 Tb 0.68516 0.88853 0.35918 0.0
C1177 C 0.5131 0.8857 0.24914 0.0
N1178 N 0.53548 0.91132 0.27355 0.0
C1179 C 0.51652 0.95956 0.214 0.0
C1180 C 0.48981 0.89642 0.20779 0.0
C1181 C 0.53737 0.94814 0.2569 0.0
C1182 C 0.49258 0.93364 0.18928 0.0
C1183 C 0.48856 0.82159 0.24565 0.0
C1184 C 0.51427 0.84828 0.26529 0.0
C1185 C 0.46297 0.83269 0.20688 0.0
C1186 C 0.46447 0.86972 0.18683 0.0
Tb1187 Tb 0.56595 0.88744 0.34345 0.0
N1188 N 0.54022 0.83829 0.30128 0.0
C1189 C 0.48891 0.78517 0.26727 0.0
C1190 C 0.54323 0.80172 0.318 0.0
C1191 C 0.51691 0.77488 0.30241 0.0
H1192 H 0.55455 0.96908 0.27613 0.0
H1193 H 0.51764 0.74686 0.31939 0.0
H1194 H 0.6977 0.79829 0.40578 0.0
H1195 H 0.75587 0.02416 0.40617 0.0
H1196 H 0.56391 0.79328 0.34601 0.0
H1197 H 0.46753 0.76486 0.25843 0.0
H1198 H 0.6991 -0.0145 0.39643 0.0
H1199 H 0.51764 -0.01119 0.20129 0.0
H1200 H 0.44234 0.81308 0.19131 0.0
H1201 H 0.44549 0.8776 0.15588 0.0
H1202 H 0.7205 0.76722 0.48091 0.0
H1203 H 0.47578 0.94288 0.1568 0.0
H1204 H 0.81838 -0.00045 0.41426 0.0
N1205 N 0.7149 0.85449 0.42613 0.0
C1206 C 0.74364 0.87312 0.45048 0.0
C1207 C 0.72847 0.79653 0.47491 0.0
C1208 C 0.77013 0.84797 0.49649 0.0
C1209 C 0.71245 0.81582 0.43309 0.0
C1210 C 0.75607 0.81218 0.50668 0.0
N1211 N 0.72741 0.93257 0.39656 0.0
C1212 C 0.72569 0.97107 0.40123 0.0
C1213 C 0.79925 0.94101 0.43587 0.0
C1214 C 0.75543 0.9162 0.42314 0.0
C1215 C 0.79561 0.97878 0.41569 0.0
C1216 C 0.75879 -0.00636 0.40842 0.0
H1217 H 0.76941 0.7945 0.53541 0.0
H1218 H 0.83986 0.87594 0.52933 0.0
H1219 H 0.8353 0.9168 0.48604 0.0
O1220 O 0.71736 0.89595 0.29194 0.0
O1221 O 0.66155 0.91097 0.42915 0.0
O1222 O 0.61802 0.89492 0.37689 0.0
O1223 O 0.73549 0.85929 0.35314 0.0
O1224 O 0.65943 0.94685 0.34356 0.0
O1225 O 0.59112 0.94664 0.3447 0.0
O1226 O 0.52866 0.86251 0.39726 0.0
O1227 O 0.59391 0.87427 0.26686 0.0
O1228 O 0.65978 0.8863 0.27664 0.0
O1229 O 0.52416 0.92187 0.38063 0.0
O1230 O 0.58994 0.84188 0.39461 0.0
O1231 O 0.65101 0.83369 0.36563 0.0
C1232 C 0.62563 0.907 0.42238 0.0
C1233 C 0.75472 0.84094 0.27381 0.0
C1234 C 0.80147 0.84872 0.20995 0.0
C1235 C 0.82551 0.8232 0.23632 0.0
C1236 C 0.77537 0.81056 0.29575 0.0
C1237 C 0.81127 0.80193 0.27685 0.0
C1238 C 0.76445 0.85407 0.226 0.0
C1239 C 0.6252 0.96443 0.34271 0.0
C1240 C 0.74206 0.87074 0.3077 0.0
C1241 C 0.81482 0.85954 0.52249 0.0
C1242 C 0.84058 0.90195 0.50393 0.0
C1243 C 0.62877 0.8798 0.24647 0.0
C1244 C 0.4696 0.891 0.42091 0.0
C1245 C 0.41504 0.87986 0.48111 0.0
C1246 C 0.39094 0.88802 0.43956 0.0
C1247 C 0.44369 0.89823 0.38174 0.0
C1248 C 0.45524 0.88144 0.4711 0.0
C1249 C 0.4049 0.89722 0.3915 0.0
C1250 C 0.62333 0.82426 0.39861 0.0
C1251 C 0.51123 0.8939 0.40887 0.0
H1252 H 0.85533 0.8203 0.22787 0.0
H1253 H 0.767 0.79821 0.33203 0.0
H1254 H 0.8294 0.78204 0.29703 0.0
H1255 H 0.74723 0.87612 0.20805 0.0
H1256 H 0.36076 0.88931 0.44354 0.0
H1257 H 0.45352 0.90541 0.34369 0.0
H1258 H 0.47496 0.87559 0.50184 0.0
H1259 H 0.38508 0.90482 0.36215 0.0
Tb1260 Tb 0.83328 0.93457 0.10855 0.0
C1261 C 0.83483 0.76444 0.99929 0.0
N1262 N 0.80926 0.78592 1.02522 0.0
C1263 C 0.75966 0.76479 0.96898 0.0
C1264 C 0.82358 0.7407 0.95862 0.0
C1265 C 0.77183 0.78627 1.01095 0.0
C1266 C 0.7856 0.74185 0.94264 0.0
C1267 C 0.89938 0.74126 0.99299 0.0
C1268 C 0.87256 0.7663 1.0139 0.0
C1269 C 0.88806 0.71577 0.95427 0.0
C1270 C 0.85045 0.71629 0.93606 0.0
Tb1271 Tb 0.83409 0.81675 0.09433 0.0
N1272 N 0.8827 0.79196 1.0501 0.0
C1273 C 0.93617 0.74196 1.0135 0.0
C1274 C 0.91952 0.79559 1.06562 0.0
C1275 C 0.94664 0.76995 1.04861 0.0
H1276 H 0.7509 0.80245 1.03164 0.0
H1277 H 0.97505 0.77112 1.06444 0.0
H1278 H 0.9209 0.94687 0.15866 0.0
H1279 H 0.69857 0.01079 0.14106 0.0
H1280 H 0.92791 0.81634 1.09363 0.0
H1281 H 0.95651 0.72067 1.00405 0.0
H1282 H 0.73719 0.95364 0.13287 0.0
H1283 H 0.72993 0.76476 0.95818 0.0
H1284 H 0.90794 0.6959 0.93749 0.0
H1285 H 0.84227 0.69717 0.90542 0.0
H1286 H 0.95088 0.96954 0.23442 0.0
H1287 H 0.77583 0.72453 0.91094 0.0
H1288 H 0.72246 0.07209 0.15796 0.0
N1289 N 0.86463 0.96537 0.17642 0.0
C1290 C 0.84687 -0.00449 0.19808 0.0
C1291 C 0.92182 0.97799 0.22728 0.0
C1292 C 0.87082 0.02066 0.24655 0.0
C1293 C 0.90301 0.96218 0.18487 0.0
C1294 C 0.90594 0.00573 0.25856 0.0
N1295 N 0.79004 0.98091 0.13977 0.0
C1296 C 0.75143 0.97992 0.14018 0.0
C1297 C 0.77977 0.05162 0.18281 0.0
C1298 C 0.80507 0.00813 0.16918 0.0
C1299 C 0.74313 0.04923 0.1592 0.0
C1300 C 0.72881 0.01306 0.14691 0.0
H1301 H 0.92299 0.01836 0.28851 0.0
H1302 H 0.84193 0.08945 0.28113 0.0
H1303 H 0.8023 0.08601 0.23566 0.0
O1304 O 0.83401 -0.0121 1.07591 0.0
O1305 O 0.81525 0.91246 0.18173 0.0
O1306 O 0.82541 0.86868 0.12746 0.0
O1307 O 0.88354 0.94884 1.06891 0.0
O1308 O 0.77573 0.90894 1.08612 0.0
O1309 O 0.77485 0.84137 0.0969 0.0
O1310 O 0.85965 0.78009 0.14841 0.0
O1311 O 0.85063 0.84801 1.02087 0.0
O1312 O 0.82247 0.90899 1.02724 0.0
O1313 O 0.8003 0.77464 0.13138 0.0
O1314 O 0.8793 0.83827 0.14783 0.0
O1315 O 0.88721 0.89929 0.11982 0.0
C1316 C 0.81526 0.87652 0.17365 0.0
C1317 C 0.88691 0.01038 1.0311 0.0
C1318 C 0.86947 0.05506 0.96686 0.0
C1319 C 0.89332 0.08226 0.99089 0.0
C1320 C 0.91282 0.03592 1.05279 0.0
C1321 C 0.91612 0.07211 1.03226 0.0
C1322 C 0.86748 0.01873 0.98653 0.0
C1323 C 0.75733 0.87522 1.09095 0.0
C1324 C 0.86983 0.98324 1.06371 0.0
C1325 C 0.85857 0.0646 0.27416 0.0
C1326 C 0.81669 0.09086 0.25471 0.0
C1327 C 0.83796 0.88037 0.99852 0.0
C1328 C 0.83167 0.72075 0.17159 0.0
C1329 C 0.84106 0.6659 0.23172 0.0
C1330 C 0.83292 0.64226 0.18969 0.0
C1331 C 0.82539 0.6952 0.13178 0.0
C1332 C 0.84024 0.70612 0.22199 0.0
C1333 C 0.82568 0.65648 0.14124 0.0
C1334 C 0.89628 0.8718 0.1529 0.0
C1335 C 0.82841 0.76227 0.15988 0.0
H1336 H 0.89417 0.11168 0.98039 0.0
H1337 H 0.92722 0.02932 1.08837 0.0
H1338 H 0.93401 0.09314 1.0507 0.0
H1339 H 0.84697 -0.00151 0.97118 0.0
H1340 H 0.82995 0.61231 0.19333 0.0
H1341 H 0.81918 0.70523 1.09348 0.0
H1342 H 0.84574 0.72564 0.25306 0.0
H1343 H 0.81886 0.63697 0.11128 0.0
Tb1344 Tb 0.56772 0.5832 0.84522 0.0
C1345 C 0.74503 0.59382 0.9504 0.0
N1346 N 0.71698 0.61329 0.92603 0.0
C1347 C 0.73045 0.67006 0.97706 0.0
C1348 C 0.76931 0.61688 1.00016 0.0
C1349 C 0.71561 0.65195 0.9335 0.0
C1350 C 0.75546 0.65268 1.01099 0.0
C1351 C 0.80275 0.52788 0.93339 0.0
C1352 C 0.75866 0.55227 0.9201 0.0
C1353 C 0.84048 0.56422 1.00698 0.0
C1354 C 0.8132 0.60486 1.02764 0.0
Tb1355 Tb 0.68726 0.58056 0.85854 0.0
N1356 N 0.73168 0.53641 0.89108 0.0
C1357 C 0.80203 0.49197 0.90781 0.0
C1358 C 0.73246 0.49777 0.8893 0.0
C1359 C 0.76675 0.47662 0.89388 0.0
H1360 H 0.70195 0.67016 0.90591 0.0
H1361 H 0.76644 0.44687 0.88418 0.0
H1362 H 0.55384 0.50159 0.77904 0.0
H1363 H 0.52258 0.72521 0.81906 0.0
H1364 H 0.70704 0.48235 0.881 0.0
H1365 H 0.82577 0.47237 0.90544 0.0
H1366 H 0.56677 0.67766 0.84784 0.0
H1367 H 0.72303 0.69944 0.9836 0.0
H1368 H 0.83605 0.55021 0.98725 0.0
H1369 H 0.83829 0.58856 1.03488 0.0
H1370 H 0.51725 0.48253 0.70373 0.0
H1371 H 0.7678 0.6693 1.04167 0.0
H1372 H 0.47262 0.70808 0.75739 0.0
N1373 N 0.53628 0.5598 0.7758 0.0
C1374 C 0.51457 0.58585 0.75105 0.0
C1375 C 0.51651 0.5118 0.7164 0.0
C1376 C 0.49136 0.57554 0.70941 0.0
C1377 C 0.53732 0.52287 0.75946 0.0
C1378 C 0.49331 0.53817 0.69126 0.0
N1379 N 0.54237 0.63281 0.80331 0.0
C1380 C 0.54621 0.66946 0.81957 0.0
C1381 C 0.49195 0.65063 0.74626 0.0
C1382 C 0.51653 0.6233 0.76693 0.0
C1383 C 0.49323 0.68723 0.76714 0.0
C1384 C 0.52106 0.69699 0.80275 0.0
H1385 H 0.47659 0.52922 0.65855 0.0
H1386 H 0.4483 0.59536 0.65624 0.0
H1387 H 0.44694 0.66037 0.69056 0.0
O1388 O 0.53082 0.60832 0.89945 0.0
O1389 O 0.59523 0.59638 0.7683 0.0
O1390 O 0.66095 0.58306 0.7767 0.0
O1391 O 0.52625 0.549 0.8833 0.0
O1392 O 0.59292 0.62875 0.89471 0.0
O1393 O 0.65411 0.63581 0.8656 0.0
O1394 O 0.71684 0.57605 0.78903 0.0
O1395 O 0.6639 0.55814 0.92949 0.0
O1396 O 0.61972 0.57464 0.8789 0.0
O1397 O 0.73845 0.60859 0.85248 0.0
O1398 O 0.66099 0.52291 0.84316 0.0
O1399 O 0.59271 0.52384 0.84523 0.0
C1400 C 0.62979 0.59043 0.74724 0.0
C1401 C 0.47157 0.58008 0.92272 0.0
C1402 C 0.41629 0.59144 0.98184 0.0
C1403 C 0.3927 0.5833 0.9397 0.0
C1404 C 0.44609 0.57307 0.88294 0.0
C1405 C 0.40719 0.57435 0.89178 0.0
C1406 C 0.45662 0.58964 0.97265 0.0
C1407 C 0.62657 0.64575 0.89841 0.0
C1408 C 0.51336 0.57704 0.91142 0.0
C1409 C 0.46709 0.60286 0.68756 0.0
C1410 C 0.46657 0.6401 0.707 0.0
C1411 C 0.62784 0.56284 0.92442 0.0
C1412 C 0.75619 0.62982 0.77349 0.0
C1413 C 0.80328 0.62189 0.71023 0.0
C1414 C 0.82749 0.64694 0.73717 0.0
C1415 C 0.7773 0.65932 0.79675 0.0
C1416 C 0.76599 0.61735 0.72538 0.0
C1417 C 0.81331 0.66792 0.77809 0.0
C1418 C 0.62663 0.50581 0.84208 0.0
C1419 C 0.74307 0.59928 0.80569 0.0
H1420 H 0.36249 0.58202 0.94294 0.0
H1421 H 0.4563 0.5659 0.84503 0.0
H1422 H 0.38772 0.56737 0.86161 0.0
H1423 H 0.47599 0.59526 1.00386 0.0
H1424 H 0.85732 0.64982 0.72874 0.0
H1425 H 0.76893 0.6711 0.83336 0.0
H1426 H 0.74845 0.59597 0.70653 0.0
H1427 H 0.83154 0.68756 0.79858 0.0
Tb1428 Tb 0.63696 0.31592 0.09394 0.0
C1429 C 0.62354 0.49465 0.19692 0.0
N1430 N 0.60577 0.46444 0.17538 0.0
C1431 C 0.54891 0.47674 0.22712 0.0
C1432 C 0.59976 0.5197 0.24568 0.0
C1433 C 0.56748 0.46109 0.18439 0.0
C1434 C 0.56485 0.50457 0.2582 0.0
C1435 C 0.69011 0.55122 0.18078 0.0
C1436 C 0.66504 0.50755 0.16749 0.0
C1437 C 0.65356 0.59023 0.25304 0.0
C1438 C 0.61198 0.56374 0.27311 0.0
Tb1439 Tb 0.63662 0.43399 0.10672 0.0
N1440 N 0.67977 0.48078 0.13705 0.0
C1441 C 0.7261 0.54977 0.15547 0.0
C1442 C 0.71836 0.4807 0.13514 0.0
C1443 C 0.74047 0.51422 0.14094 0.0
H1444 H 0.54945 0.44588 0.15825 0.0
H1445 H 0.77036 0.51288 0.13243 0.0
H1446 H 0.71977 0.30429 1.02972 0.0
H1447 H 0.49677 0.26697 1.06541 0.0
H1448 H 0.73293 0.45489 0.12666 0.0
H1449 H 0.74639 0.57294 0.15373 0.0
H1450 H 0.54297 0.31349 1.09375 0.0
H1451 H 0.51992 0.46818 0.23458 0.0
H1452 H 0.66786 0.58541 0.23369 0.0
H1453 H 0.62857 0.58866 0.27966 0.0
H1454 H 0.74118 0.26692 0.9562 0.0
H1455 H 0.54794 0.51714 0.28839 0.0
H1456 H 0.51615 0.21657 1.00552 0.0
N1457 N 0.66202 0.28556 1.02472 0.0
C1458 C 0.6369 0.26309 0.99949 0.0
C1459 C 0.71161 0.26601 0.96755 0.0
C1460 C 0.64849 0.23954 0.95885 0.0
C1461 C 0.69923 0.28719 1.00965 0.0
C1462 C 0.68617 0.24207 0.94193 0.0
N1463 N 0.58861 0.28983 1.05031 0.0
C1464 C 0.55175 0.29272 1.06599 0.0
C1465 C 0.57296 0.23812 0.99425 0.0
C1466 C 0.59923 0.26403 1.01453 0.0
C1467 C 0.53617 0.23823 1.01482 0.0
C1468 C 0.52518 0.2663 1.04952 0.0
H1469 H 0.69614 0.22504 0.9101 0.0
H1470 H 0.63077 0.19487 0.90674 0.0
H1471 H 0.56546 0.19179 0.93989 0.0
O1472 O 0.61155 0.27872 0.14746 0.0
O1473 O 0.6206 0.34587 1.01972 0.0
O1474 O 0.64695 0.40779 1.02534 0.0
O1475 O 0.67124 0.2746 0.13164 0.0
O1476 O 0.59135 0.33757 0.14661 0.0
O1477 O 0.58282 0.39851 0.11825 0.0
O1478 O 0.63552 0.4875 1.07445 0.0
O1479 O 0.65429 0.41248 0.18034 0.0
O1480 O 0.6448 0.36819 0.12658 0.0
O1481 O 0.58608 0.44856 1.06775 0.0
O1482 O 0.69469 0.40863 1.08553 0.0
O1483 O 0.69601 0.34116 0.09748 0.0
C1484 C 0.6328 0.37818 0.99698 0.0
C1485 C 0.64061 0.21994 0.17073 0.0
C1486 C 0.63073 0.165 0.23038 0.0
C1487 C 0.64191 0.14158 0.18918 0.0
C1488 C 0.6502 0.19465 0.1318 0.0
C1489 C 0.6514 0.15597 0.14146 0.0
C1490 C 0.63025 0.20514 0.22034 0.0
C1491 C 0.57396 0.37092 0.15133 0.0
C1492 C 0.64304 0.26151 0.15935 0.0
C1493 C 0.62224 0.21402 0.93718 0.0
C1494 C 0.58481 0.21249 0.95595 0.0
C1495 C 0.65473 0.37648 0.17275 0.0
C1496 C 0.5827 0.50996 1.02948 0.0
C1497 C 0.59992 0.55361 0.9638 0.0
C1498 C 0.57629 0.58124 0.98715 0.0
C1499 C 0.55699 0.53599 1.05059 0.0
C1500 C 0.60202 0.51757 0.98456 0.0
C1501 C 0.55374 0.57188 1.02905 0.0
C1502 C 0.71339 0.37515 1.09171 0.0
C1503 C 0.59956 0.48306 1.06285 0.0
H1504 H 0.64573 0.11175 0.193 0.0
H1505 H 0.65799 0.205 0.09422 0.0
H1506 H 0.66145 0.13676 0.11249 0.0
H1507 H 0.62251 0.22457 0.2507 0.0
H1508 H 0.57561 0.61046 0.97548 0.0
H1509 H 0.5427 0.53005 1.08645 0.0
H1510 H 0.6225 0.49709 0.96972 0.0
H1511 H 0.53609 0.59331 1.04709 0.0
Tb1512 Tb 0.90377 0.38816 0.34939 0.0
C1513 C 0.72539 0.37445 0.45149 0.0
N1514 N 0.75388 0.35544 0.42732 0.0
C1515 C 0.73975 0.29776 0.47613 0.0
C1516 C 0.69949 0.35013 0.49866 0.0
C1517 C 0.75561 0.3167 0.43393 0.0
C1518 C 0.71318 0.31415 0.50882 0.0
C1519 C 0.66956 0.44222 0.43628 0.0
C1520 C 0.71332 0.41728 0.4233 0.0
C1521 C 0.62917 0.40405 0.50599 0.0
C1522 C 0.65515 0.36205 0.52511 0.0
Tb1523 Tb 0.78459 0.38955 0.3618 0.0
N1524 N 0.74148 0.43372 0.39708 0.0
C1525 C 0.67284 0.47974 0.41517 0.0
C1526 C 0.74284 0.47229 0.40122 0.0
C1527 C 0.70953 0.49472 0.40736 0.0
H1528 H 0.77023 0.29901 0.40665 0.0
H1529 H 0.71225 0.52526 0.40416 0.0
H1530 H 0.9164 0.47083 0.28504 0.0
H1531 H 0.95161 0.24703 0.31898 0.0
H1532 H 0.76932 0.48692 0.39675 0.0
H1533 H 0.64992 0.50033 0.41347 0.0
H1534 H 0.90726 0.29377 0.35031 0.0
H1535 H 0.74755 0.26843 0.48231 0.0
H1536 H 0.63428 0.41862 0.48759 0.0
H1537 H 0.63014 0.37847 0.53217 0.0
H1538 H 0.95258 0.49158 0.21029 0.0
H1539 H 0.70008 0.29686 0.53817 0.0
H1540 H 0.00091 0.26572 0.25699 0.0
N1541 N 0.93542 0.41307 0.28099 0.0
C1542 C 0.95779 0.3878 0.25583 0.0
C1543 C 0.95425 0.46223 0.22264 0.0
C1544 C 0.98084 0.3991 0.2145 0.0
C1545 C 0.93359 0.45017 0.26535 0.0
C1546 C 0.97812 0.43665 0.19715 0.0
N1547 N 0.93077 0.3396 0.30682 0.0
C1548 C 0.92757 0.30265 0.32206 0.0
C1549 C 0.98129 0.32338 0.24899 0.0
C1550 C 0.95645 0.35007 0.2707 0.0
C1551 C 0.98034 0.28628 0.26825 0.0
C1552 C 0.95284 0.27562 0.30386 0.0
H1553 H -0.00539 0.44629 0.16462 0.0
H1554 H 0.02419 0.38076 0.16079 0.0
H1555 H 0.02627 0.31508 0.1929 0.0
O1556 O 0.93978 0.36325 0.40454 0.0
O1557 O 0.87732 0.37631 0.27158 0.0
O1558 O 0.81111 0.38635 0.28024 0.0
O1559 O 0.94474 0.42255 0.38797 0.0
O1560 O 0.87903 0.34138 0.39793 0.0
O1561 O 0.81794 0.33417 0.36829 0.0
O1562 O 0.75427 0.3968 0.29288 0.0
O1563 O 0.80731 0.4108 0.43354 0.0
O1564 O 0.85141 0.39544 0.38217 0.0
O1565 O 0.73369 0.36159 0.35421 0.0
O1566 O 0.81043 0.44778 0.34774 0.0
O1567 O 0.87854 0.44744 0.35127 0.0
C1568 C 0.84254 0.38082 0.25064 0.0
C1569 C -0.001 0.39094 0.42666 0.0
C1570 C 0.05423 0.37875 0.48489 0.0
C1571 C 0.07771 0.38533 0.4421 0.0
C1572 C 0.02415 0.39615 0.386 0.0
C1573 C 0.06306 0.39355 0.394 0.0
C1574 C 0.01403 0.38177 0.47648 0.0
C1575 C 0.84549 0.32389 0.40103 0.0
C1576 C 0.95736 0.39452 0.41627 0.0
C1577 C 0.00553 0.37249 0.19189 0.0
C1578 C 0.00649 0.3349 0.21005 0.0
C1579 C 0.8433 0.40626 0.42812 0.0
C1580 C 0.71513 0.34308 0.27466 0.0
C1581 C 0.66901 0.34921 0.20948 0.0
C1582 C 0.64556 0.32278 0.23511 0.0
C1583 C 0.69491 0.31236 0.29649 0.0
C1584 C 0.70543 0.35616 0.22681 0.0
C1585 C 0.65983 0.30219 0.27624 0.0
C1586 C 0.84457 0.46536 0.34819 0.0
C1587 C 0.72839 0.3727 0.30833 0.0
H1588 H 0.10792 0.38592 0.44483 0.0
H1589 H 0.01369 0.40274 0.34803 0.0
H1590 H 0.08238 0.39868 0.36289 0.0
H1591 H -0.00521 0.37737 0.5082 0.0
H1592 H 0.61601 0.31884 0.22584 0.0
H1593 H 0.70309 0.30037 0.33305 0.0
H1594 H 0.72207 0.37886 0.20936 0.0
H1595 H 0.64214 0.28154 0.29575 0.0
Tb1596 Tb 0.8344 0.65406 0.59493 0.0
C1597 C 0.84816 0.47413 0.69484 0.0
N1598 N 0.86579 0.50483 0.67473 0.0
C1599 C 0.92224 0.49216 0.7271 0.0
C1600 C 0.8711 0.4491 0.74423 0.0
C1601 C 0.90396 0.50836 0.68448 0.0
C1602 C 0.90596 0.46408 0.75754 0.0
C1603 C 0.78108 0.41829 0.67777 0.0
C1604 C 0.80679 0.46162 0.66469 0.0
C1605 C 0.81662 0.3791 0.75091 0.0
C1606 C 0.85823 0.4053 0.77164 0.0
Tb1607 Tb 0.83442 0.53654 0.60773 0.0
N1608 N 0.79128 0.48989 0.63771 0.0
C1609 C 0.74397 0.42217 0.65575 0.0
C1610 C 0.75281 0.49208 0.64221 0.0
C1611 C 0.72969 0.45922 0.64873 0.0
H1612 H 0.92213 0.52412 0.65914 0.0
H1613 H 0.69926 0.46248 0.64623 0.0
H1614 H 0.75165 0.66395 0.5289 0.0
H1615 H 0.97316 0.70669 0.56972 0.0
H1616 H 0.73895 0.51901 0.63779 0.0
H1617 H 0.72301 0.39961 0.65357 0.0
H1618 H 0.92807 0.65869 0.5965 0.0
H1619 H 0.95115 0.50069 0.7352 0.0
H1620 H 0.80254 0.384 0.73139 0.0
H1621 H 0.84143 0.38048 0.77795 0.0
H1622 H 0.73009 0.70123 0.45557 0.0
H1623 H 0.92252 0.45128 0.78795 0.0
H1624 H 0.9532 0.75637 0.50896 0.0
N1625 N 0.80915 0.68377 0.5251 0.0
C1626 C 0.83401 0.70664 0.50016 0.0
C1627 C 0.75958 0.70255 0.46727 0.0
C1628 C 0.82226 0.73003 0.45939 0.0
C1629 C 0.77208 0.68147 0.50939 0.0
C1630 C 0.78475 0.72693 0.44203 0.0
N1631 N 0.88241 0.681 0.55182 0.0
C1632 C 0.91909 0.67917 0.56846 0.0
C1633 C 0.89731 0.73317 0.49624 0.0
C1634 C 0.87154 0.7065 0.51581 0.0
C1635 C 0.93374 0.73415 0.51784 0.0
C1636 C 0.94505 0.70645 0.55289 0.0
H1637 H 0.77469 0.7439 0.41015 0.0
H1638 H 0.83945 0.77509 0.40765 0.0
H1639 H 0.90421 0.77974 0.44212 0.0
O1640 O 0.85926 0.69107 0.64922 0.0
O1641 O 0.8505 0.62321 0.52112 0.0
O1642 O 0.82201 0.5625 0.52732 0.0
O1643 O 0.79976 0.6952 0.63232 0.0
O1644 O 0.88021 0.63248 0.64783 0.0
O1645 O 0.88854 0.57148 0.6198 0.0
O1646 O 0.83527 0.48382 0.57297 0.0
O1647 O 0.81679 0.55803 0.68156 0.0
O1648 O 0.82659 0.60192 0.62747 0.0
O1649 O 0.88477 0.52308 0.56777 0.0
O1650 O 0.77652 0.56205 0.58628 0.0
O1651 O 0.77523 0.62946 0.5982 0.0
C1652 C 0.83707 0.59123 0.49864 0.0
C1653 C 0.82998 0.7499 0.67182 0.0
C1654 C 0.8395 0.80502 0.73137 0.0
C1655 C 0.82815 0.82829 0.69008 0.0
C1656 C 0.82047 0.7751 0.63272 0.0
C1657 C 0.81905 0.8138 0.64225 0.0
C1658 C 0.84015 0.76485 0.72145 0.0
C1659 C 0.89758 0.59907 0.65279 0.0
C1660 C 0.82767 0.70828 0.66058 0.0
C1661 C 0.84813 0.7561 0.43819 0.0
C1662 C 0.88526 0.75852 0.45773 0.0
C1663 C 0.81679 0.59401 0.67373 0.0
C1664 C 0.88932 0.46152 0.52967 0.0
C1665 C 0.87133 0.41592 0.46695 0.0
C1666 C 0.89409 0.3885 0.49212 0.0
C1667 C 0.91415 0.4356 0.55294 0.0
C1668 C 0.87047 0.4528 0.48483 0.0
C1669 C 0.9167 0.39886 0.53364 0.0
C1670 C 0.75788 0.59561 0.59171 0.0
C1671 C 0.8711 0.48878 0.56119 0.0
H1672 H 0.82417 0.8581 0.69378 0.0
H1673 H 0.8129 0.76468 0.59508 0.0
H1674 H 0.80923 0.83295 0.61302 0.0
H1675 H 0.84786 0.74551 0.75193 0.0
H1676 H 0.89428 0.35896 0.48155 0.0
H1677 H 0.92806 0.4424 0.58879 0.0
H1678 H 0.85068 0.47324 0.46827 0.0
H1679 H 0.93386 0.37771 0.5531 0.0
Tb1680 Tb 0.5663 0.38693 0.83762 0.0
C1681 C 0.74562 0.37298 0.73311 0.0
N1682 N 0.71585 0.3545 0.75504 0.0
C1683 C 0.72906 0.29771 0.70342 0.0
C1684 C 0.77144 0.34924 0.68525 0.0
C1685 C 0.71268 0.31612 0.74566 0.0
C1686 C 0.7569 0.31404 0.67282 0.0
C1687 C 0.80178 0.44013 0.75008 0.0
C1688 C 0.75788 0.41511 0.76251 0.0
C1689 C 0.84201 0.40288 0.6795 0.0
C1690 C 0.8159 0.36128 0.65921 0.0
Tb1691 Tb 0.68592 0.38704 0.82314 0.0
N1692 N 0.72958 0.43128 0.78885 0.0
C1693 C 0.79887 0.47713 0.77252 0.0
C1694 C 0.72874 0.46994 0.78674 0.0
C1695 C 0.7624 0.49208 0.78159 0.0
H1696 H 0.69768 0.29809 0.7721 0.0
H1697 H 0.76049 0.52233 0.78754 0.0
H1698 H 0.55229 0.46984 0.90055 0.0
H1699 H 0.52084 0.24525 0.86994 0.0
H1700 H 0.70247 0.48474 0.79273 0.0
H1701 H 0.82196 0.49749 0.77499 0.0
H1702 H 0.56452 0.29243 0.83793 0.0
H1703 H 0.72094 0.26864 0.69581 0.0
H1704 H 0.83688 0.41728 0.69835 0.0
H1705 H 0.84105 0.37764 0.65299 0.0
H1706 H 0.51603 0.4906 0.97536 0.0
H1707 H 0.77 0.29716 0.64312 0.0
H1708 H 0.47118 0.26385 0.93166 0.0
N1709 N 0.53469 0.41173 0.90607 0.0
C1710 C 0.51301 0.38625 0.93187 0.0
C1711 C 0.51502 0.46109 0.96361 0.0
C1712 C 0.48991 0.39749 0.9732 0.0
C1713 C 0.53576 0.44902 0.92096 0.0
C1714 C 0.49182 0.43529 0.98977 0.0
N1715 N 0.54048 0.33817 0.88106 0.0
C1716 C 0.54416 0.30117 0.86619 0.0
C1717 C 0.49051 0.32156 0.93955 0.0
C1718 C 0.5149 0.34846 0.91741 0.0
C1719 C 0.49171 0.28445 0.92039 0.0
C1720 C 0.51928 0.27393 0.88476 0.0
H1721 H 0.47519 0.44498 1.02215 0.0
H1722 H 0.44721 0.3788 1.0276 0.0
H1723 H 0.44613 0.31282 0.99631 0.0
O1724 O 0.52815 0.36213 0.78462 0.0
O1725 O 0.59405 0.37615 0.91508 0.0
O1726 O 0.66043 0.38585 0.90567 0.0
O1727 O 0.52644 0.42208 0.79832 0.0
O1728 O 0.59021 0.34052 0.78802 0.0
O1729 O 0.65128 0.3324 0.81729 0.0
O1730 O 0.72233 0.39527 0.88616 0.0
O1731 O 0.66278 0.40879 0.75207 0.0
O1732 O 0.61854 0.39397 0.80387 0.0
O1733 O 0.73215 0.35207 0.82945 0.0
O1734 O 0.66014 0.44478 0.84078 0.0
O1735 O 0.59197 0.4457 0.83639 0.0
C1736 C 0.62899 0.38098 0.93565 0.0
C1737 C 0.47044 0.39304 0.76012 0.0
C1738 C 0.41515 0.38474 0.70043 0.0
C1739 C 0.39189 0.39611 0.74177 0.0
C1740 C 0.4453 0.40273 0.79931 0.0
C1741 C 0.40649 0.40454 0.78992 0.0
C1742 C 0.4553 0.38331 0.71045 0.0
C1743 C 0.62352 0.32274 0.78448 0.0
C1744 C 0.51222 0.394 0.77148 0.0
C1745 C 0.46585 0.37062 0.99643 0.0
C1746 C 0.46542 0.3329 0.9787 0.0
C1747 C 0.62666 0.40536 0.75818 0.0
C1748 C 0.75886 0.33995 0.90648 0.0
C1749 C 0.80213 0.34638 0.97523 0.0
C1750 C 0.82636 0.31952 0.95162 0.0
C1751 C 0.78016 0.30944 0.88617 0.0
C1752 C 0.76683 0.35391 0.95454 0.0
C1753 C 0.81408 0.29914 0.90927 0.0
C1754 C 0.62619 0.4628 0.84073 0.0
C1755 C 0.74396 0.36722 0.87087 0.0
H1756 H 0.36209 0.40063 0.73752 0.0
H1757 H 0.45585 0.40983 0.83705 0.0
H1758 H 0.38738 0.41382 0.81975 0.0
H1759 H 0.4745 0.37521 0.68 0.0
H1760 H 0.85543 0.31528 0.96279 0.0
H1761 H 0.77377 0.29747 0.84895 0.0
H1762 H 0.74963 0.37683 0.97042 0.0
H1763 H 0.83269 0.27869 0.89099 0.0
Tb1764 Tb 0.83217 0.31419 1.09244 0.0
C1765 C 0.84832 0.49352 0.98922 0.0
N1766 N 0.86566 0.46227 1.00827 0.0
C1767 C 0.92179 0.47479 0.95488 0.0
C1768 C 0.87197 0.52001 0.94172 0.0
C1769 C 0.90352 0.45783 0.99696 0.0
C1770 C 0.90636 0.50475 0.9271 0.0
C1771 C 0.77981 0.54778 1.00552 0.0
C1772 C 0.80603 0.50475 1.01814 0.0
C1773 C 0.81642 0.58919 0.93541 0.0
C1774 C 0.85898 0.56421 0.91552 0.0
Tb1775 Tb 0.83456 0.43197 1.07694 0.0
N1776 N 0.7903 0.47563 1.04295 0.0
C1777 C 0.74182 0.542 1.02428 0.0
C1778 C 0.75223 0.47203 1.03497 0.0
C1779 C 0.72829 0.50424 1.02777 0.0
H1780 H 0.92167 0.44141 1.02147 0.0
H1781 H 0.69784 0.49976 1.02774 0.0
H1782 H 0.74923 0.3015 0.15508 0.0
H1783 H 0.9734 0.27029 0.12542 0.0
H1784 H 0.7393 0.44444 1.03714 0.0
H1785 H 0.72018 0.56393 1.02623 0.0
H1786 H 0.9265 0.31534 0.09645 0.0
H1787 H 0.95032 0.46569 0.94559 0.0
H1788 H 0.802 0.58361 0.95396 0.0
H1789 H 0.84215 0.5891 0.90976 0.0
H1790 H 0.72791 0.26442 0.22911 0.0
H1791 H 0.92299 0.51812 0.89725 0.0
H1792 H 0.95473 0.21886 0.18412 0.0
N1793 N 0.80704 0.28331 0.16092 0.0
C1794 C 0.83234 0.26126 0.18648 0.0
C1795 C 0.75749 0.2636 0.21784 0.0
C1796 C 0.82089 0.23777 0.22719 0.0
C1797 C 0.76977 0.28462 0.17557 0.0
C1798 C 0.78309 0.23994 0.24375 0.0
N1799 N 0.88062 0.28947 0.13712 0.0
C1800 C 0.91768 0.2939 0.12316 0.0
C1801 C 0.89695 0.23829 0.19365 0.0
C1802 C 0.87018 0.26319 0.17236 0.0
C1803 C 0.9341 0.23978 0.17438 0.0
C1804 C 0.94479 0.2684 0.14034 0.0
H1805 H 0.7732 0.22303 0.27573 0.0
H1806 H 0.83917 0.19395 0.28022 0.0
H1807 H 0.90501 0.19261 0.24886 0.0
O1808 O 0.85752 0.27544 1.04104 0.0
O1809 O 0.84575 0.34267 0.16849 0.0
O1810 O 0.82997 0.40804 0.16021 0.0
O1811 O 0.79729 0.27362 1.05426 0.0
O1812 O 0.87863 0.33507 1.04048 0.0
O1813 O 0.88808 0.3959 1.06831 0.0
O1814 O 0.82969 0.48323 0.11536 0.0
O1815 O 0.81599 0.40998 1.00401 0.0
O1816 O 0.82547 0.36619 1.05856 0.0
O1817 O 0.88548 0.45638 0.10243 0.0
O1818 O 0.77628 0.40776 0.09942 0.0
O1819 O 0.77356 0.3403 1.08846 0.0
C1820 C 0.83865 0.37701 0.18955 0.0
C1821 C 0.82686 0.21798 1.01634 0.0
C1822 C 0.83596 0.16329 0.95639 0.0
C1823 C 0.82397 0.13985 0.99721 0.0
C1824 C 0.81636 0.19281 1.05493 0.0
C1825 C 0.81436 0.1542 1.04494 0.0
C1826 C 0.83733 0.20325 0.96686 0.0
C1827 C 0.8967 0.36803 1.03549 0.0
C1828 C 0.82568 0.25944 1.0279 0.0
C1829 C 0.84754 0.21304 0.24966 0.0
C1830 C 0.88528 0.2125 0.23186 0.0
C1831 C 0.81536 0.37406 1.0123 0.0
C1832 C 0.88363 0.5118 0.15229 0.0
C1833 C 0.87165 0.55386 0.22178 0.0
C1834 C 0.89872 0.57926 0.2008 0.0
C1835 C 0.91302 0.53496 0.13422 0.0
C1836 C 0.86489 0.51956 0.19764 0.0
C1837 C 0.92063 0.5689 0.15883 0.0
C1838 C 0.7569 0.37468 1.0937 0.0
C1839 C 0.86677 0.48645 0.11678 0.0
H1840 H 0.81984 0.1101 0.99322 0.0
H1841 H 0.80867 0.20328 1.09246 0.0
H1842 H 0.80369 0.13505 1.07361 0.0
H1843 H 0.84597 0.22258 0.93689 0.0
H1844 H 0.90212 0.60799 0.21339 0.0
H1845 H 0.92738 0.52864 0.09853 0.0
H1846 H 0.842 0.50108 0.2107 0.0
H1847 H 0.94102 0.58861 0.14268 0.0
Tb1848 Tb 0.90395 0.58451 0.34218 0.0
C1849 C 0.72484 0.5965 0.23675 0.0
N1850 N 0.75525 0.61426 0.2578 0.0
C1851 C 0.74334 0.67061 0.20504 0.0
C1852 C 0.69931 0.62033 0.18842 0.0
C1853 C 0.75889 0.6524 0.24808 0.0
C1854 C 0.71474 0.65491 0.17504 0.0
C1855 C 0.66891 0.52933 0.2528 0.0
C1856 C 0.71247 0.5547 0.26588 0.0
C1857 C 0.62907 0.56607 0.18124 0.0
C1858 C 0.65517 0.60798 0.16133 0.0
Tb1859 Tb 0.78571 0.58387 0.32677 0.0
N1860 N 0.73948 0.54023 0.29621 0.0
C1861 C 0.67079 0.49324 0.27795 0.0
C1862 C 0.73979 0.50171 0.299 0.0
C1863 C 0.7064 0.4793 0.29344 0.0
H1864 H 0.77433 0.67057 0.27375 0.0
H1865 H 0.70789 0.44955 0.30322 0.0
H1866 H 0.91863 0.50107 0.4042 0.0
H1867 H 0.94787 0.72562 0.37441 0.0
H1868 H 0.76573 0.48755 0.30826 0.0
H1869 H 0.6478 0.47274 0.27954 0.0
H1870 H 0.90283 0.67845 0.34507 0.0
H1871 H 0.75261 0.69919 0.19652 0.0
H1872 H 0.63405 0.55171 0.20027 0.0
H1873 H 0.6302 0.59139 0.15502 0.0
H1874 H 0.95616 0.48 0.47779 0.0
H1875 H 0.70217 0.67164 0.1447 0.0
H1876 H -0.00124 0.70698 0.43418 0.0
N1877 N 0.93469 0.55949 0.41131 0.0
C1878 C 0.95598 0.58505 0.43757 0.0
C1879 C 0.95617 0.50974 0.46705 0.0
C1880 C 0.97988 0.57373 0.47804 0.0
C1881 C 0.93464 0.52198 0.42516 0.0
C1882 C 0.97906 0.53564 0.49353 0.0
N1883 N 0.92789 0.63304 0.38752 0.0
C1884 C 0.9238 0.66997 0.37273 0.0
C1885 C 0.97851 0.64976 0.44479 0.0
C1886 C 0.95372 0.62286 0.42352 0.0
C1887 C 0.97749 0.68664 0.42472 0.0
C1888 C 0.9493 0.69714 0.38992 0.0
H1889 H -0.00354 0.52579 0.5251 0.0
H1890 H 0.02322 0.59248 0.53155 0.0
H1891 H 0.02363 0.65853 0.50054 0.0
O1892 O 0.94269 0.61053 0.29104 0.0
O1893 O 0.87253 0.60047 0.4154 0.0
O1894 O 0.81079 0.57375 0.40862 0.0
O1895 O 0.94538 0.55046 0.30433 0.0
O1896 O 0.8824 0.63015 0.28975 0.0
O1897 O 0.82094 0.63765 0.31598 0.0
O1898 O 0.73208 0.58471 0.35842 0.0
O1899 O 0.80812 0.56501 0.25385 0.0
O1900 O 0.85249 0.57547 0.30694 0.0
O1901 O 0.77044 0.63467 0.36458 0.0
O1902 O 0.81151 0.5274 0.35215 0.0
O1903 O 0.87893 0.52553 0.33997 0.0
C1904 C 0.84 0.5881 0.43742 0.0
C1905 C 0.00109 0.58051 0.26701 0.0
C1906 C 0.05627 0.58909 0.20731 0.0
C1907 C 0.07942 0.57674 0.24828 0.0
C1908 C 0.02614 0.56994 0.30582 0.0
C1909 C 0.06484 0.56772 0.29616 0.0
C1910 C 0.01622 0.59092 0.21761 0.0
C1911 C 0.84886 0.64685 0.28366 0.0
C1912 C 0.95937 0.57898 0.2781 0.0
C1913 C 0.00402 0.60069 0.50101 0.0
C1914 C 0.0041 0.63846 0.48339 0.0
C1915 C 0.84425 0.56483 0.26096 0.0
C1916 C 0.70883 0.63756 0.40221 0.0
C1917 C 0.66502 0.62192 0.46842 0.0
C1918 C 0.63809 0.6465 0.44512 0.0
C1919 C 0.68355 0.66394 0.38105 0.0
C1920 C 0.70076 0.61847 0.44716 0.0
C1921 C 0.64793 0.66847 0.40289 0.0
C1922 C 0.84497 0.50861 0.3475 0.0
C1923 C 0.73607 0.62079 0.36942 0.0
H1924 H 0.10915 0.57204 0.24421 0.0
H1925 H 0.01556 0.5623 0.34334 0.0
H1926 H 0.08386 0.55741 0.32538 0.0
H1927 H -0.00289 0.5998 0.18753 0.0
H1928 H 0.60891 0.64833 0.45658 0.0
H1929 H 0.68989 0.67803 0.34517 0.0
H1930 H 0.72074 0.59751 0.46204 0.0
H1931 H 0.62701 0.68675 0.38491 0.0
Tb1932 Tb 0.63812 0.6556 0.58838 0.0
C1933 C 0.62322 0.47543 0.49219 0.0
N1934 N 0.60574 0.50603 0.51257 0.0
C1935 C 0.54932 0.49399 0.46043 0.0
C1936 C 0.6003 0.45113 0.44221 0.0
C1937 C 0.56748 0.50932 0.50364 0.0
C1938 C 0.56556 0.46642 0.42915 0.0
C1939 C 0.69015 0.4192 0.50803 0.0
C1940 C 0.66458 0.46247 0.52211 0.0
C1941 C 0.65454 0.38123 0.43395 0.0
C1942 C 0.61308 0.40774 0.41383 0.0
Tb1943 Tb 0.63797 0.53793 0.57811 0.0
N1944 N 0.68062 0.49082 0.54834 0.0
C1945 C 0.72744 0.42283 0.52967 0.0
C1946 C 0.71905 0.49281 0.54307 0.0
C1947 C 0.742 0.45982 0.53645 0.0
H1948 H 0.54948 0.52511 0.52925 0.0
H1949 H 0.77252 0.46301 0.5387 0.0
H1950 H 0.72215 0.66801 0.64946 0.0
H1951 H 0.49856 0.70616 0.62094 0.0
H1952 H 0.73302 0.5197 0.54699 0.0
H1953 H 0.74825 0.4001 0.53152 0.0
H1954 H 0.54435 0.66113 0.58804 0.0
H1955 H 0.52081 0.50335 0.45201 0.0
H1956 H 0.6686 0.3859 0.45363 0.0
H1957 H 0.62979 0.38293 0.40687 0.0
H1958 H 0.74448 0.70334 0.72394 0.0
H1959 H 0.54909 0.4543 0.39816 0.0
H1960 H 0.51852 0.75386 0.68453 0.0
N1961 N 0.6642 0.68555 0.65737 0.0
C1962 C 0.63943 0.7074 0.68418 0.0
C1963 C 0.71466 0.70416 0.71378 0.0
C1964 C 0.65156 0.72977 0.72579 0.0
C1965 C 0.70171 0.68407 0.67109 0.0
C1966 C 0.68947 0.72694 0.74156 0.0
N1967 N 0.59053 0.68264 0.63258 0.0
C1968 C 0.55354 0.68069 0.61713 0.0
C1969 C 0.57563 0.73236 0.6922 0.0
C1970 C 0.60162 0.70714 0.66974 0.0
C1971 C 0.53854 0.73288 0.67274 0.0
C1972 C 0.52717 0.70633 0.63614 0.0
H1973 H 0.69985 0.74307 0.77402 0.0
H1974 H 0.63459 0.77282 0.78067 0.0
H1975 H 0.56896 0.77698 0.74927 0.0
O1976 O 0.61329 0.69211 0.53355 0.0
O1977 O 0.62102 0.62578 0.66281 0.0
O1978 O 0.6494 0.56506 0.65801 0.0
O1979 O 0.67255 0.69701 0.55096 0.0
O1980 O 0.59147 0.63359 0.53745 0.0
O1981 O 0.58418 0.57299 0.56648 0.0
O1982 O 0.63874 0.4858 0.615 0.0
O1983 O 0.65594 0.55843 0.50334 0.0
O1984 O 0.64657 0.60357 0.55517 0.0
O1985 O 0.58788 0.52348 0.6175 0.0
O1986 O 0.69566 0.56282 0.59937 0.0
O1987 O 0.69715 0.62982 0.58489 0.0
C1988 C 0.63365 0.59378 0.68601 0.0
C1989 C 0.64178 0.75123 0.51083 0.0
C1990 C 0.63175 0.80587 0.45075 0.0
C1991 C 0.64 0.82983 0.4926 0.0
C1992 C 0.64872 0.77691 0.55044 0.0
C1993 C 0.64813 0.81574 0.54105 0.0
C1994 C 0.63272 0.76574 0.46066 0.0
C1995 C 0.57477 0.59989 0.53276 0.0
C1996 C 0.64473 0.7096 0.52221 0.0
C1997 C 0.62563 0.75458 0.74947 0.0
C1998 C 0.588 0.7567 0.73169 0.0
C1999 C 0.65569 0.59472 0.50886 0.0
C2000 C 0.58386 0.46235 0.65629 0.0
C2001 C 0.59871 0.41637 0.7199 0.0
C2002 C 0.57439 0.39014 0.69509 0.0
C2003 C 0.55808 0.43757 0.63265 0.0
C2004 C 0.60186 0.45291 0.70144 0.0
C2005 C 0.55295 0.40133 0.65279 0.0
C2006 C 0.71444 0.59593 0.59231 0.0
C2007 C 0.60274 0.48996 0.62611 0.0
H2008 H 0.64226 0.85989 0.48862 0.0
H2009 H 0.6554 0.76686 0.58858 0.0
H2010 H 0.65513 0.83541 0.57118 0.0
H2011 H 0.62701 0.74616 0.42973 0.0
H2012 H 0.57246 0.36077 0.70624 0.0
H2013 H 0.54492 0.44487 0.59647 0.0
H2014 H 0.62253 0.4724 0.71816 0.0
H2015 H 0.53474 0.38104 0.63344 0.0
Tb2016 Tb 0.28416 0.38866 0.32504 0.0
C2017 C 0.45762 0.38739 0.43106 0.0
N2018 N 0.43627 0.41265 0.40435 0.0
C2019 C 0.4575 0.46301 0.45902 0.0
C2020 C 0.48094 0.39916 0.4719 0.0
C2021 C 0.43648 0.45035 0.41703 0.0
C2022 C 0.47972 0.43734 0.48685 0.0
C2023 C 0.47961 0.32268 0.44069 0.0
C2024 C 0.45541 0.34939 0.41775 0.0
C2025 C 0.50485 0.33453 0.47944 0.0
C2026 C 0.50474 0.37252 0.496 0.0
Tb2027 Tb 0.4036 0.38711 0.33749 0.0
N2028 N 0.42976 0.33875 0.38164 0.0
C2029 C 0.47812 0.28526 0.42264 0.0
C2030 C 0.42597 0.30159 0.36758 0.0
C2031 C 0.45058 0.27441 0.38713 0.0
H2032 H 0.42089 0.47107 0.39519 0.0
H2033 H 0.44888 0.24548 0.37321 0.0
H2034 H 0.2701 0.29825 0.27993 0.0
H2035 H 0.21398 0.52498 0.27942 0.0
H2036 H 0.40565 0.29264 0.33934 0.0
H2037 H 0.4984 0.26462 0.43462 0.0
H2038 H 0.27052 0.48583 0.28737 0.0
H2039 H 0.45748 0.49289 0.46879 0.0
H2040 H 0.52416 0.31477 0.49756 0.0
H2041 H 0.52357 0.38111 0.52678 0.0
H2042 H 0.24646 0.26731 0.20509 0.0
H2043 H 0.49644 0.44743 0.51893 0.0
H2044 H 0.15107 0.50074 0.27196 0.0
N2045 N 0.25327 0.35456 0.25949 0.0
C2046 C 0.22455 0.37348 0.23563 0.0
C2047 C 0.23873 0.29667 0.21122 0.0
C2048 C 0.19788 0.3488 0.1895 0.0
C2049 C 0.2552 0.31583 0.25281 0.0
C2050 C 0.21142 0.31276 0.17938 0.0
N2051 N 0.24178 0.43308 0.28865 0.0
C2052 C 0.24375 0.47157 0.2834 0.0
C2053 C 0.16958 0.44199 0.25042 0.0
C2054 C 0.2132 0.41671 0.26315 0.0
C2055 C 0.1737 0.47982 0.27032 0.0
C2056 C 0.21074 0.49442 0.27696 0.0
H2057 H 0.19787 0.29526 0.15066 0.0
H2058 H 0.12845 0.37747 0.15668 0.0
H2059 H 0.13351 0.41816 0.20022 0.0
O2060 O 0.25242 0.39739 0.39257 0.0
O2061 O 0.30692 0.40959 0.2532 0.0
O2062 O 0.35125 0.39461 0.3045 0.0
O2063 O 0.2338 0.3599 0.33257 0.0
O2064 O 0.30998 0.4468 0.33958 0.0
O2065 O 0.37806 0.44631 0.33567 0.0
O2066 O 0.44025 0.36162 0.2835 0.0
O2067 O 0.37732 0.37608 0.41564 0.0
O2068 O 0.31086 0.38442 0.40661 0.0
O2069 O 0.444 0.42137 0.29785 0.0
O2070 O 0.3788 0.34019 0.28929 0.0
O2071 O 0.31767 0.33342 0.31899 0.0
C2072 C 0.34296 0.4054 0.25858 0.0
C2073 C 0.21432 0.3431 0.4122 0.0
C2074 C 0.16914 0.34838 0.47876 0.0
C2075 C 0.14599 0.32123 0.45401 0.0
C2076 C 0.19453 0.31174 0.39129 0.0
C2077 C 0.16004 0.30087 0.41257 0.0
C2078 C 0.20497 0.35641 0.46007 0.0
C2079 C 0.34412 0.46432 0.33873 0.0
C2080 C 0.22737 0.37224 0.37761 0.0
C2081 C 0.15336 0.36087 0.1636 0.0
C2082 C 0.12804 0.40341 0.18226 0.0
C2083 C 0.34237 0.37944 0.4364 0.0
C2084 C 0.499 0.39025 0.26065 0.0
C2085 C 0.55465 0.37935 0.20276 0.0
C2086 C 0.57787 0.38691 0.24557 0.0
C2087 C 0.5239 0.39646 0.30135 0.0
C2088 C 0.51437 0.38123 0.21099 0.0
C2089 C 0.56289 0.39501 0.29354 0.0
C2090 C 0.34509 0.32306 0.28612 0.0
C2091 C 0.45726 0.393 0.27072 0.0
H2092 H 0.1166 0.31689 0.46382 0.0
H2093 H 0.20236 0.29969 0.35462 0.0
H2094 H 0.14246 0.27993 0.39346 0.0
H2095 H 0.22122 0.37973 0.47672 0.0
H2096 H 0.60807 0.38841 0.24291 0.0
H2097 H 0.51317 0.40306 0.33918 0.0
H2098 H 0.49532 0.37605 0.17926 0.0
H2099 H 0.58198 0.40109 0.32466 0.0
Tb2100 Tb 0.33441 0.53671 1.07812 0.0
C2101 C 0.33449 0.70553 0.18843 0.0
N2102 N 0.30922 0.68367 0.16257 0.0
C2103 C 0.25995 0.70207 0.22096 0.0
C2104 C 0.32311 0.72822 0.23006 0.0
C2105 C 0.27208 0.6818 0.17796 0.0
C2106 C 0.28555 0.72539 0.24726 0.0
C2107 C 0.39854 0.73004 0.19434 0.0
C2108 C 0.3721 0.70473 0.17318 0.0
C2109 C 0.38679 0.75504 0.23348 0.0
C2110 C 0.34947 0.75322 0.25245 0.0
Tb2111 Tb 0.33416 0.65417 1.09253 0.0
N2112 N 0.38255 0.67959 0.13649 0.0
C2113 C 0.43538 0.72986 0.17393 0.0
C2114 C 0.41937 0.67668 0.12071 0.0
C2115 C 0.4462 0.70236 0.13835 0.0
H2116 H 0.25133 0.6652 0.15758 0.0
H2117 H 0.47472 0.70159 0.12283 0.0
H2118 H 0.42208 0.52522 1.02695 0.0
H2119 H 0.19895 0.46432 1.0351 0.0
H2120 H 0.42796 0.65638 1.09223 0.0
H2121 H 0.45568 0.75096 0.18409 0.0
H2122 H 0.23885 0.52053 1.04586 0.0
H2123 H 0.23044 0.70096 0.23256 0.0
H2124 H 0.40604 0.77552 0.25011 0.0
H2125 H 0.34108 0.77178 0.28361 0.0
H2126 H 0.45158 0.50239 0.95101 0.0
H2127 H 0.2758 0.74174 0.2799 0.0
H2128 H 0.22245 0.40131 1.02754 0.0
N2129 N 0.36593 0.50577 1.01048 0.0
C2130 C 0.3484 0.47524 0.98954 0.0
C2131 C 0.42279 0.49344 0.95891 0.0
C2132 C 0.37237 0.44964 0.94155 0.0
C2133 C 0.40415 0.50946 1.0013 0.0
C2134 C 0.40719 0.46486 0.92874 0.0
N2135 N 0.29101 0.49114 1.04569 0.0
C2136 C 0.25259 0.49356 1.04094 0.0
C2137 C 0.28112 0.41958 1.00539 0.0
C2138 C 0.30652 0.46305 1.01838 0.0
C2139 C 0.24358 0.42374 1.02609 0.0
C2140 C 0.22939 0.46087 1.03322 0.0
H2141 H 0.42421 0.45202 0.89888 0.0
H2142 H 0.34379 0.38035 0.90846 0.0
H2143 H 0.30386 0.38434 0.95333 0.0
O2144 O 0.33446 0.48352 0.1115 0.0
O2145 O 0.31622 0.55872 1.00491 0.0
O2146 O 0.32618 0.60213 1.05972 0.0
O2147 O 0.38474 0.52154 0.11724 0.0
O2148 O 0.2766 0.56185 0.1011 0.0
O2149 O 0.27505 0.62934 1.08961 0.0
O2150 O 0.35906 0.69067 1.03785 0.0
O2151 O 0.35068 0.623 0.16591 0.0
O2152 O 0.32279 0.56201 0.15931 0.0
O2153 O 0.30007 0.69671 1.05679 0.0
O2154 O 0.37951 0.63319 1.03854 0.0
O2155 O 0.38829 0.57224 1.0666 0.0
C2156 C 0.31611 0.59459 1.01347 0.0
C2157 C 0.3877 0.45971 0.1549 0.0
C2158 C 0.37074 0.415 0.21935 0.0
C2159 C 0.39415 0.38763 0.19518 0.0
C2160 C 0.41309 0.43387 0.13262 0.0
C2161 C 0.41648 0.39762 0.15326 0.0
C2162 C 0.36875 0.45138 0.19981 0.0
C2163 C 0.25784 0.5954 0.09612 0.0
C2164 C 0.37046 0.48744 0.12303 0.0
C2165 C 0.36028 0.40537 0.91476 0.0
C2166 C 0.31835 0.3793 0.93458 0.0
C2167 C 0.33747 0.59089 0.18821 0.0
C2168 C 0.33157 0.75049 1.01631 0.0
C2169 C 0.34268 0.80518 0.95657 0.0
C2170 C 0.33485 0.82903 0.99855 0.0
C2171 C 0.32507 0.77615 1.05602 0.0
C2172 C 0.34087 0.76499 0.96616 0.0
C2173 C 0.32641 0.81492 1.04676 0.0
C2174 C 0.39711 0.59991 1.03356 0.0
C2175 C 0.32784 0.70895 1.02762 0.0
H2176 H 0.39491 0.3583 0.20665 0.0
H2177 H 0.42711 0.44035 0.09674 0.0
H2178 H 0.43416 0.37649 0.13463 0.0
H2179 H 0.34851 0.47171 0.21561 0.0
H2180 H 0.33331 0.85915 0.99508 0.0
H2181 H 0.31811 0.76617 0.0941 0.0
H2182 H 0.34613 0.74535 0.9351 0.0
H2183 H 0.31977 0.83465 1.07671 0.0
Tb2184 Tb 0.18717 0.58 0.83018 0.0
C2185 C 0.01301 0.58349 0.93412 0.0
N2186 N 0.03509 0.55788 0.90911 0.0
C2187 C 0.01307 0.50839 0.96489 0.0
C2188 C -0.01137 0.57228 0.97413 0.0
C2189 C 0.03525 0.52049 0.92357 0.0
C2190 C -0.01049 0.53432 0.99021 0.0
C2191 C -0.00949 0.6483 0.94074 0.0
C2192 C 0.01539 0.6213 0.91982 0.0
C2193 C 0.96441 0.63703 0.97874 0.0
C2194 C 0.96418 0.59928 0.99635 0.0
Tb2195 Tb 0.06784 0.58267 0.8416 0.0
N2196 N 0.04182 0.63148 0.88456 0.0
C2197 C -0.00784 0.68534 0.92126 0.0
C2198 C 0.04597 0.66843 0.86972 0.0
C2199 C 0.02059 0.69572 0.88685 0.0
H2200 H 0.052 0.49955 0.9037 0.0
H2201 H 0.02239 0.72428 0.8717 0.0
H2202 H 0.20255 0.67131 0.7886 0.0
H2203 H 0.2604 0.44496 0.78583 0.0
H2204 H 0.06706 0.67704 0.84237 0.0
H2205 H 0.97134 0.70605 0.93107 0.0
H2206 H 0.2032 0.48308 0.79444 0.0
H2207 H 0.01329 0.47877 0.97622 0.0
H2208 H 0.94473 0.65711 0.99551 0.0
H2209 H 0.94464 0.59116 1.02653 0.0
H2210 H 0.22434 0.70241 0.71287 0.0
H2211 H 0.97174 0.52462 1.02146 0.0
H2212 H 0.3226 0.47018 0.77619 0.0
N2213 N 0.21817 0.61503 0.76626 0.0
C2214 C 0.24617 0.59603 0.74118 0.0
C2215 C 0.23208 0.67302 0.71831 0.0
C2216 C 0.27089 0.62029 0.69287 0.0
C2217 C 0.21687 0.65383 0.76075 0.0
C2218 C 0.25747 0.65655 0.68396 0.0
N2219 N 0.23098 0.53633 0.79523 0.0
C2220 C 0.22963 0.49782 0.78999 0.0
C2221 C 0.30232 0.52815 0.75396 0.0
C2222 C 0.2589 0.55313 0.76893 0.0
C2223 C 0.29954 0.49065 0.77512 0.0
C2224 C 0.26297 0.47551 0.78321 0.0
H2225 H 0.27 0.67391 0.65418 0.0
H2226 H 0.33879 0.59115 0.65577 0.0
H2227 H 0.33573 0.5513 0.70096 0.0
O2228 O 0.21351 0.57528 0.90232 0.0
O2229 O 0.16457 0.55855 0.75821 0.0
O2230 O 0.12 0.57434 0.80842 0.0
O2231 O 0.2398 0.60473 0.83938 0.0
O2232 O 0.16116 0.52196 0.84276 0.0
O2233 O 0.09298 0.52325 0.84105 0.0
O2234 O 0.03131 0.60824 0.78724 0.0
O2235 O 0.09465 0.5959 0.91913 0.0
O2236 O 0.16027 0.5822 0.91147 0.0
O2237 O 0.02721 0.54865 0.80181 0.0
O2238 O 0.09316 0.62897 0.79311 0.0
O2239 O 0.15413 0.6353 0.82316 0.0
C2240 C 0.1285 0.56324 0.76268 0.0
C2241 C 0.25195 0.62967 0.9183 0.0
C2242 C 0.30108 0.62261 0.9785 0.0
C2243 C 0.32412 0.64789 0.95028 0.0
C2244 C 0.27159 0.65982 0.89415 0.0
C2245 C 0.3082 0.66884 0.91046 0.0
C2246 C 0.26319 0.61804 0.96609 0.0
C2247 C 0.12681 0.50493 0.8432 0.0
C2248 C 0.24101 0.59757 0.88716 0.0
C2249 C 0.31428 0.60797 0.66416 0.0
C2250 C 0.34051 0.56584 0.68206 0.0
C2251 C 0.1291 0.58993 0.9406 0.0
C2252 C 0.97238 0.57965 0.76326 0.0
C2253 C 0.91688 0.59041 0.70444 0.0
C2254 C 0.8935 0.58165 0.74667 0.0
C2255 C 0.94713 0.57235 0.80321 0.0
C2256 C 0.95722 0.58913 0.71345 0.0
C2257 C 0.9082 0.57303 0.79463 0.0
C2258 C 0.12704 0.64567 0.78995 0.0
C2259 C 0.0142 0.57695 0.77432 0.0
H2260 H 0.35422 0.65091 0.95713 0.0
H2261 H 0.26172 0.67147 0.85816 0.0
H2262 H 0.32539 0.68878 0.88894 0.0
H2263 H 0.24652 0.59644 0.98586 0.0
H2264 H 0.86334 0.57968 0.7435 0.0
H2265 H 0.95759 0.56539 0.84105 0.0
H2266 H 0.97645 0.59506 0.6822 0.0
H2267 H 0.88893 0.56583 0.82511 0.0
Tb2268 Tb 0.13561 0.4337 0.58031 0.0
C2269 C 0.13619 0.26398 0.69058 0.0
N2270 N 0.16135 0.2859 0.6646 0.0
C2271 C 0.21113 0.26663 0.72176 0.0
C2272 C 0.14784 0.24082 0.7316 0.0
C2273 C 0.19867 0.2874 0.67932 0.0
C2274 C 0.18565 0.24319 0.74807 0.0
C2275 C 0.0721 0.23958 0.69697 0.0
C2276 C 0.09844 0.26501 0.67585 0.0
C2277 C 0.08398 0.21434 0.7357 0.0
C2278 C 0.12152 0.2158 0.75408 0.0
Tb2279 Tb 0.13598 0.31553 0.59493 0.0
N2280 N 0.0878 0.29034 0.63948 0.0
C2281 C 0.0352 0.23972 0.67675 0.0
C2282 C 0.05093 0.29322 0.62389 0.0
C2283 C 0.02424 0.26731 0.64135 0.0
H2284 H 0.21928 0.30405 0.65874 0.0
H2285 H -0.00425 0.26799 0.62572 0.0
H2286 H 0.04918 0.44525 0.52741 0.0
H2287 H 0.27214 0.50595 0.5464 0.0
H2288 H 0.04226 0.31356 0.59549 0.0
H2289 H 0.01506 0.21844 0.6869 0.0
H2290 H 0.23198 0.44954 0.55313 0.0
H2291 H 0.24076 0.2675 0.73294 0.0
H2292 H 0.06461 0.19394 0.75235 0.0
H2293 H 0.13009 0.19694 0.7848 0.0
H2294 H 0.01987 0.46881 0.45155 0.0
H2295 H 0.19566 0.22644 0.78016 0.0
H2296 H 0.24941 0.56805 0.53137 0.0
N2297 N 0.10541 0.46429 0.5113 0.0
C2298 C 0.12345 0.49456 0.49028 0.0
C2299 C 0.04875 0.47739 0.45961 0.0
C2300 C 0.09952 0.521 0.44303 0.0
C2301 C 0.06723 0.4609 0.50181 0.0
C2302 C 0.06452 0.50624 0.43008 0.0
N2303 N 0.18003 0.4784 0.54813 0.0
C2304 C 0.21855 0.47629 0.54669 0.0
C2305 C 0.19142 0.54929 0.50674 0.0
C2306 C 0.16556 0.50602 0.51905 0.0
C2307 C 0.22827 0.54564 0.52956 0.0
C2308 C 0.24195 0.50895 0.54038 0.0
H2309 H 0.04757 0.51949 0.40052 0.0
H2310 H 0.12906 0.59021 0.41117 0.0
H2311 H 0.16908 0.58524 0.45571 0.0
O2312 O 0.13518 0.48756 0.61137 0.0
O2313 O 0.15385 0.41159 0.50731 0.0
O2314 O 0.14396 0.36748 0.56118 0.0
O2315 O 0.08502 0.44988 0.61824 0.0
O2316 O 0.1924 0.4078 0.60543 0.0
O2317 O 0.19476 0.34057 0.59137 0.0
O2318 O 0.11052 0.27786 0.54205 0.0
O2319 O 0.12022 0.34677 0.66871 0.0
O2320 O 0.14639 0.40874 0.66195 0.0
O2321 O 0.17012 0.27338 0.55825 0.0
O2322 O 0.09061 0.33705 0.54162 0.0
O2323 O 0.08194 0.39805 0.56956 0.0
C2324 C 0.15454 0.37564 0.51526 0.0
C2325 C 0.08317 0.51148 0.65633 0.0
C2326 C 0.10101 0.55465 0.72249 0.0
C2327 C 0.07785 0.58273 0.6993 0.0
C2328 C 0.05774 0.53797 0.63562 0.0
C2329 C 0.05511 0.57385 0.65738 0.0
C2330 C 0.10282 0.51872 0.70118 0.0
C2331 C 0.21146 0.37455 0.59919 0.0
C2332 C 0.09909 0.48418 0.62257 0.0
C2333 C 0.11215 0.56542 0.41698 0.0
C2334 C 0.15458 0.59071 0.43703 0.0
C2335 C 0.13258 0.37936 0.69081 0.0
C2336 C 0.13923 0.2189 0.51819 0.0
C2337 C 0.12889 0.16463 0.45737 0.0
C2338 C 0.13733 0.14047 0.49885 0.0
C2339 C 0.14662 0.19296 0.55725 0.0
C2340 C 0.12988 0.20473 0.46785 0.0
C2341 C 0.14599 0.15424 0.54724 0.0
C2342 C 0.07322 0.37039 0.53655 0.0
C2343 C 0.14195 0.26043 0.53035 0.0
H2344 H 0.07754 0.6119 0.71129 0.0
H2345 H 0.04316 0.53234 0.59987 0.0
H2346 H 0.03765 0.59557 0.63964 0.0
H2347 H 0.12304 0.49791 0.71581 0.0
H2348 H 0.13919 0.11041 0.49481 0.0
H2349 H 0.1536 0.20271 0.59542 0.0
H2350 H 0.12376 0.22454 0.43734 0.0
H2351 H 0.15334 0.13435 0.57677 0.0
Tb2352 Tb 0.28594 0.58356 0.3602 0.0
C2353 C 0.45702 0.58372 0.25058 0.0
N2354 N 0.43487 0.5583 0.27572 0.0
C2355 C 0.45566 0.50889 0.21893 0.0
C2356 C 0.4812 0.5724 0.21044 0.0
C2357 C 0.43396 0.52103 0.26071 0.0
C2358 C 0.47956 0.5346 0.19378 0.0
C2359 C 0.48133 0.64788 0.24598 0.0
C2360 C 0.4554 0.62136 0.26554 0.0
C2361 C 0.50734 0.63647 0.20793 0.0
C2362 C 0.50646 0.59904 0.18906 0.0
Tb2363 Tb 0.40404 0.58318 0.34485 0.0
N2364 N 0.42924 0.63164 0.301 0.0
C2365 C 0.48107 0.68438 0.26735 0.0
C2366 C 0.42604 0.66832 0.31714 0.0
C2367 C 0.45271 0.69497 0.3019 0.0
H2368 H 0.41707 0.50022 0.28058 0.0
H2369 H 0.45199 0.72301 0.31883 0.0
H2370 H 0.27525 0.66957 0.41534 0.0
H2371 H 0.20551 0.45017 0.37998 0.0
H2372 H 0.40497 0.67676 0.34468 0.0
H2373 H 0.50303 0.70428 0.25898 0.0
H2374 H 0.26402 0.48716 0.37559 0.0
H2375 H 0.455 0.47934 0.20728 0.0
H2376 H 0.52787 0.65619 0.19225 0.0
H2377 H 0.52597 0.59079 0.1589 0.0
H2378 H 0.25526 0.697 0.49425 0.0
H2379 H 0.49711 0.52482 0.16234 0.0
H2380 H 0.14618 0.47393 0.4062 0.0
N2381 N 0.25648 0.61307 0.43056 0.0
C2382 C 0.22619 0.59525 0.45179 0.0
C2383 C 0.24584 0.66858 0.48527 0.0
C2384 C 0.2019 0.61829 0.50184 0.0
C2385 C 0.26044 0.65102 0.44117 0.0
C2386 C 0.21788 0.65247 0.51588 0.0
N2387 N 0.23902 0.5401 0.38986 0.0
C2388 C 0.23845 0.50166 0.38552 0.0
C2389 C 0.16871 0.52955 0.43444 0.0
C2390 C 0.21261 0.5544 0.42126 0.0
C2391 C 0.16955 0.494 0.40788 0.0
C2392 C 0.20467 0.47977 0.39087 0.0
H2393 H 0.20597 0.66879 0.5471 0.0
H2394 H 0.13274 0.58999 0.53585 0.0
H2395 H 0.13511 0.55144 0.48866 0.0
O2396 O 0.23209 0.58493 0.32942 0.0
O2397 O 0.30866 0.56438 0.43263 0.0
O2398 O 0.35199 0.5752 0.37792 0.0
O2399 O 0.27067 0.6346 0.32283 0.0
O2400 O 0.31119 0.52659 0.33496 0.0
O2401 O 0.37875 0.52431 0.34627 0.0
O2402 O 0.44082 0.60864 0.39898 0.0
O2403 O 0.37287 0.60009 0.27175 0.0
O2404 O 0.311 0.57361 0.27822 0.0
O2405 O 0.44599 0.54924 0.38192 0.0
O2406 O 0.38301 0.62808 0.3991 0.0
O2407 O 0.32164 0.63738 0.37214 0.0
C2408 C 0.34453 0.56439 0.42391 0.0
C2409 C 0.20902 0.63744 0.2852 0.0
C2410 C 0.165 0.62076 0.21954 0.0
C2411 C 0.1379 0.64513 0.24289 0.0
C2412 C 0.18356 0.66377 0.30611 0.0
C2413 C 0.14775 0.66762 0.28462 0.0
C2414 C 0.20092 0.61787 0.24055 0.0
C2415 C 0.34464 0.5076 0.33911 0.0
C2416 C 0.23614 0.62101 0.31852 0.0
C2417 C 0.15793 0.60623 0.52947 0.0
C2418 C 0.1307 0.56544 0.50845 0.0
C2419 C 0.34037 0.58773 0.24951 0.0
C2420 C 0.50033 0.58043 0.42147 0.0
C2421 C 0.55552 0.59045 0.48109 0.0
C2422 C 0.57878 0.57925 0.43972 0.0
C2423 C 0.52563 0.57137 0.3823 0.0
C2424 C 0.51525 0.59071 0.47119 0.0
C2425 C 0.56434 0.57029 0.39182 0.0
C2426 C 0.34993 0.64595 0.40446 0.0
C2427 C 0.45869 0.57737 0.41015 0.0
H2428 H 0.10866 0.64658 0.23173 0.0
H2429 H 0.1899 0.67826 0.3417 0.0
H2430 H 0.12673 0.68585 0.3025 0.0
H2431 H 0.22106 0.59703 0.22577 0.0
H2432 H 0.60856 0.57513 0.44348 0.0
H2433 H 0.51531 0.56374 0.34461 0.0
H2434 H 0.49581 0.59811 0.50171 0.0
H2435 H 0.58356 0.56074 0.36255 0.0
Tb2436 Tb 0.13807 0.53725 0.10873 0.0
C2437 C 0.1386 0.70793 1.00523 0.0
N2438 N 0.16362 0.68626 1.03189 0.0
C2439 C 0.21414 0.70674 0.97687 0.0
C2440 C 0.1506 0.73115 0.96441 0.0
C2441 C 0.20127 0.68583 1.01886 0.0
C2442 C 0.18873 0.72942 0.94929 0.0
C2443 C 0.07436 0.73164 0.99682 0.0
C2444 C 0.10071 0.70672 1.01912 0.0
C2445 C 0.08645 0.75665 0.95798 0.0
C2446 C 0.12429 0.75563 0.94081 0.0
Tb2447 Tb 0.13772 0.65503 0.09988 0.0
N2448 N 0.08985 0.68159 1.05563 0.0
C2449 C 0.03715 0.73122 1.01582 0.0
C2450 C 0.0528 0.67868 1.07049 0.0
C2451 C 0.02604 0.70402 1.05166 0.0
H2452 H 0.22188 0.67001 1.04056 0.0
H2453 H -0.00268 0.70317 1.06648 0.0
H2454 H 0.04896 0.52373 0.1558 0.0
H2455 H 0.27144 0.45886 0.14144 0.0
H2456 H 0.04382 0.65854 0.09897 0.0
H2457 H 0.01691 0.75206 1.0043 0.0
H2458 H 0.23326 0.51645 0.13506 0.0
H2459 H 0.24403 0.7065 0.96707 0.0
H2460 H 0.06699 0.77656 0.94041 0.0
H2461 H 0.13308 0.77441 0.91012 0.0
H2462 H 0.01943 0.50146 0.23223 0.0
H2463 H 0.19905 0.74623 0.91745 0.0
H2464 H 0.24617 0.39695 0.15345 0.0
N2465 N 0.1053 0.50524 0.17364 0.0
C2466 C 0.12294 0.47501 0.1947 0.0
C2467 C 0.04842 0.49288 0.22487 0.0
C2468 C 0.10027 0.45151 0.24548 0.0
C2469 C 0.06688 0.50817 0.18182 0.0
C2470 C 0.0651 0.46642 0.2575 0.0
N2471 N 0.18006 0.48914 0.13729 0.0
C2472 C 0.21867 0.49002 0.14016 0.0
C2473 C 0.18915 0.41785 0.17882 0.0
C2474 C 0.16394 0.46129 0.16434 0.0
C2475 C 0.22589 0.42015 0.15537 0.0
C2476 C 0.24097 0.45654 0.14595 0.0
H2477 H 0.04855 0.45442 0.28849 0.0
H2478 H 0.1297 0.38367 0.28209 0.0
H2479 H 0.16783 0.38547 0.23423 0.0
O2480 O 0.13879 0.48527 1.07079 0.0
O2481 O 0.15648 0.55738 0.18364 0.0
O2482 O 0.14659 0.60287 0.13258 0.0
O2483 O 0.08873 0.52416 1.06748 0.0
O2484 O 0.19585 0.56233 1.08873 0.0
O2485 O 0.19691 0.62943 0.10248 0.0
O2486 O 0.11255 0.69189 0.15429 0.0
O2487 O 0.12051 0.62542 1.02516 0.0
O2488 O 0.14986 0.56524 1.02964 0.0
O2489 O 0.17219 0.6955 0.13878 0.0
O2490 O 0.09137 0.63271 0.15083 0.0
O2491 O 0.08437 0.57211 0.12154 0.0
C2492 C 0.15589 0.59372 0.17874 0.0
C2493 C 0.08351 0.46373 1.02746 0.0
C2494 C 0.10007 0.41573 0.96723 0.0
C2495 C 0.07584 0.39002 0.99316 0.0
C2496 C 0.05753 0.43948 1.05167 0.0
C2497 C 0.05339 0.40244 1.03385 0.0
C2498 C 0.10218 0.45301 0.98328 0.0
C2499 C 0.21441 0.59558 0.09546 0.0
C2500 C 0.10332 0.4907 1.05769 0.0
C2501 C 0.11297 0.40837 0.27458 0.0
C2502 C 0.15394 0.3812 0.25432 0.0
C2503 C 0.13305 0.59341 1.00182 0.0
C2504 C 0.14236 0.7504 0.17814 0.0
C2505 C 0.13426 0.80537 0.23833 0.0
C2506 C 0.14574 0.82875 0.19719 0.0
C2507 C 0.15188 0.77571 0.13909 0.0
C2508 C 0.13273 0.7653 0.22797 0.0
C2509 C 0.15389 0.81442 0.14886 0.0
C2510 C 0.07518 0.5988 0.15565 0.0
C2511 C 0.14417 0.70869 0.16666 0.0
H2512 H 0.07451 0.36024 0.98404 0.0
H2513 H 0.04381 0.44775 1.0871 0.0
H2514 H 0.03518 0.38259 1.05398 0.0
H2515 H 0.12286 0.47217 0.96594 0.0
H2516 H 0.15058 0.85845 0.20168 0.0
H2517 H 0.15892 0.76537 0.10122 0.0
H2518 H 0.12478 0.746 0.25832 0.0
H2519 H 0.16325 0.83364 0.11925 0.0
Tb2520 Tb 0.18554 0.3864 0.86116 0.0
C2521 C 0.01441 0.38579 0.75461 0.0
N2522 N 0.03662 0.41105 0.77999 0.0
C2523 C 0.01671 0.46057 0.7228 0.0
C2524 C -0.00921 0.39724 0.7139 0.0
C2525 C 0.03798 0.44829 0.76491 0.0
C2526 C -0.00709 0.43499 0.69719 0.0
C2527 C -0.01013 0.32172 0.74917 0.0
C2528 C 0.01555 0.34814 0.76965 0.0
C2529 C 0.96443 0.33327 0.71053 0.0
C2530 C 0.96568 0.37074 0.69187 0.0
Tb2531 Tb 0.06734 0.38604 0.84916 0.0
N2532 N 0.0412 0.33768 0.80572 0.0
C2533 C -0.01009 0.28506 0.76993 0.0
C2534 C 0.04398 0.3009 0.82172 0.0
C2535 C 0.01767 0.27428 0.8052 0.0
H2536 H 0.05497 0.46895 0.78491 0.0
H2537 H 0.01825 0.24604 0.82153 0.0
H2538 H 0.19811 0.29925 0.91196 0.0
H2539 H 0.26246 0.52121 0.88953 0.0
H2540 H 0.06456 0.29216 0.84974 0.0
H2541 H 0.96832 0.26506 0.76031 0.0
H2542 H 0.20495 0.4826 0.88405 0.0
H2543 H 0.0177 0.49011 0.71113 0.0
H2544 H 0.94411 0.31358 0.69421 0.0
H2545 H 0.94663 0.37911 0.66123 0.0
H2546 H 0.22021 0.27044 0.98906 0.0
H2547 H 0.97584 0.44484 0.66531 0.0
H2548 H 0.32379 0.4973 0.9076 0.0
N2549 N 0.21664 0.3556 0.92879 0.0
C2550 C 0.24693 0.37349 0.94974 0.0
C2551 C 0.22907 0.29919 0.98089 0.0
C2552 C 0.27166 0.35044 0.9992 0.0
C2553 C 0.21356 0.31734 0.9378 0.0
C2554 C 0.25658 0.31557 1.01208 0.0
N2555 N 0.23222 0.42987 0.891 0.0
C2556 C 0.23129 0.46846 0.89119 0.0
C2557 C 0.30327 0.44027 0.93331 0.0
C2558 C 0.25975 0.41487 0.91988 0.0
C2559 C 0.30085 0.47675 0.90926 0.0
C2560 C 0.26463 0.49106 0.89679 0.0
H2561 H 0.26893 0.29901 1.04273 0.0
H2562 H 0.34048 0.37939 1.03343 0.0
H2563 H 0.33732 0.41831 0.98688 0.0
O2564 O 0.23867 0.38602 0.82793 0.0
O2565 O 0.16399 0.40469 0.9352 0.0
O2566 O 0.11939 0.39476 0.88242 0.0
O2567 O 0.20066 0.33588 0.82229 0.0
O2568 O 0.15946 0.44301 0.83711 0.0
O2569 O 0.09233 0.44497 0.85191 0.0
O2570 O 0.03191 0.36101 0.90491 0.0
O2571 O 0.0979 0.36971 0.7751 0.0
O2572 O 0.15933 0.39715 0.78029 0.0
O2573 O 0.02496 0.41977 0.88585 0.0
O2574 O 0.08935 0.34039 0.9012 0.0
O2575 O 0.15018 0.33265 0.87224 0.0
C2576 C 0.1278 0.40435 0.92868 0.0
C2577 C 0.26209 0.33343 0.78343 0.0
C2578 C 0.30518 0.34991 0.71662 0.0
C2579 C 0.33295 0.3263 0.73972 0.0
C2580 C 0.28824 0.30774 0.80436 0.0
C2581 C 0.32388 0.30406 0.78206 0.0
C2582 C 0.26945 0.35255 0.73827 0.0
C2583 C 0.12616 0.46182 0.8433 0.0
C2584 C 0.23485 0.35001 0.81664 0.0
C2585 C 0.31551 0.36286 1.02673 0.0
C2586 C 0.34205 0.40418 1.00635 0.0
C2587 C 0.13 0.38247 0.75215 0.0
C2588 C 0.97157 0.38728 0.92542 0.0
C2589 C 0.91613 0.37567 0.98371 0.0
C2590 C 0.89288 0.38246 0.94071 0.0
C2591 C 0.94652 0.39199 0.88454 0.0
C2592 C 0.95643 0.37838 0.97535 0.0
C2593 C 0.90761 0.38981 0.89245 0.0
C2594 C 0.12291 0.32343 0.90558 0.0
C2595 C 0.01318 0.39192 0.91521 0.0
H2596 H 0.36204 0.3253 0.72738 0.0
H2597 H 0.28252 0.29358 0.84037 0.0
H2598 H 0.34532 0.28617 0.79967 0.0
H2599 H 0.2489 0.373 0.72353 0.0
H2600 H 0.86277 0.38427 0.9434 0.0
H2601 H 0.95703 0.39829 0.84652 0.0
H2602 H 0.97562 0.37426 1.00721 0.0
H2603 H 0.88836 0.39496 0.8612 0.0
Tb2604 Tb 0.33041 0.43511 0.60777 0.0
C2605 C 0.33258 0.26109 0.5053 0.0
N2606 N 0.30724 0.28364 0.53006 0.0
C2607 C 0.25794 0.2635 0.47276 0.0
C2608 C 0.32128 0.23737 0.46465 0.0
C2609 C 0.27005 0.28495 0.51474 0.0
C2610 C 0.28359 0.2395 0.44761 0.0
C2611 C 0.39709 0.23772 0.49897 0.0
C2612 C 0.37035 0.26284 0.51998 0.0
C2613 C 0.38561 0.21199 0.46063 0.0
C2614 C 0.34797 0.21254 0.44253 0.0
Tb2615 Tb 0.33214 0.31599 0.59782 0.0
N2616 N 0.38078 0.28914 0.55532 0.0
C2617 C 0.43413 0.23891 0.51848 0.0
C2618 C 0.41777 0.29281 0.57025 0.0
C2619 C 0.44478 0.26715 0.55309 0.0
H2620 H 0.24936 0.30222 0.5343 0.0
H2621 H 0.47332 0.26866 0.56837 0.0
H2622 H 0.42218 0.45064 0.64848 0.0
H2623 H 0.19594 0.50982 0.65085 0.0
H2624 H 0.42664 0.31374 0.59769 0.0
H2625 H 0.45459 0.21791 0.50832 0.0
H2626 H 0.23363 0.45236 0.64358 0.0
H2627 H 0.22846 0.26447 0.46092 0.0
H2628 H 0.4055 0.19212 0.44382 0.0
H2629 H 0.33973 0.19341 0.41192 0.0
H2630 H 0.4533 0.47198 0.72432 0.0
H2631 H 0.27385 0.22236 0.41574 0.0
H2632 H 0.22166 0.5718 0.66076 0.0
N2633 N 0.36593 0.46653 0.67084 0.0
C2634 C 0.3471 0.49461 0.69596 0.0
C2635 C 0.42399 0.48002 0.71882 0.0
C2636 C 0.37152 0.51918 0.74433 0.0
C2637 C 0.40473 0.46505 0.67627 0.0
C2638 C 0.40771 0.50551 0.7532 0.0
N2639 N 0.28714 0.47964 0.64223 0.0
C2640 C 0.24861 0.47864 0.64756 0.0
C2641 C 0.27943 0.55107 0.68332 0.0
C2642 C 0.30417 0.50752 0.66836 0.0
C2643 C 0.24194 0.54859 0.66197 0.0
C2644 C 0.22653 0.51217 0.65379 0.0
H2645 H 0.42518 0.51788 0.783 0.0
H2646 H 0.3428 0.58723 0.78159 0.0
H2647 H 0.30286 0.58449 0.73646 0.0
O2648 O 0.32637 0.45913 0.53421 0.0
O2649 O 0.30926 0.41319 0.68022 0.0
O2650 O 0.32486 0.36836 0.63044 0.0
O2651 O 0.35383 0.4882 0.59678 0.0
O2652 O 0.27195 0.40932 0.59738 0.0
O2653 O 0.27279 0.34121 0.59973 0.0
O2654 O 0.35742 0.27877 0.65146 0.0
O2655 O 0.34326 0.34123 0.51908 0.0
O2656 O 0.3328 0.4073 0.52687 0.0
O2657 O 0.2974 0.27666 0.63837 0.0
O2658 O 0.37899 0.34141 0.64578 0.0
O2659 O 0.38581 0.4023 0.61569 0.0
C2660 C 0.31398 0.37713 0.67618 0.0
C2661 C 0.3796 0.49886 0.51769 0.0
C2662 C 0.37261 0.54864 0.45835 0.0
C2663 C 0.39836 0.57112 0.48665 0.0
C2664 C 0.40998 0.51805 0.54199 0.0
C2665 C 0.41935 0.55466 0.52607 0.0
C2666 C 0.36772 0.5107 0.47022 0.0
C2667 C 0.25463 0.37513 0.59796 0.0
C2668 C 0.3475 0.48771 0.54868 0.0
C2669 C 0.35947 0.56264 0.77316 0.0
C2670 C 0.31743 0.58912 0.75529 0.0
C2671 C 0.3385 0.37572 0.49759 0.0
C2672 C 0.32713 0.221 0.67544 0.0
C2673 C 0.3367 0.16525 0.73359 0.0
C2674 C 0.32478 0.14244 0.69205 0.0
C2675 C 0.31706 0.19634 0.63593 0.0
C2676 C 0.33762 0.20546 0.7245 0.0
C2677 C 0.31551 0.15751 0.64455 0.0
C2678 C 0.39601 0.37518 0.64893 0.0
C2679 C 0.32572 0.26272 0.665 0.0
H2680 H 0.40179 0.60119 0.48 0.0
H2681 H 0.42168 0.50775 0.57773 0.0
H2682 H 0.43971 0.57143 0.54752 0.0
H2683 H 0.34583 0.49445 0.45037 0.0
H2684 H 0.32069 0.11259 0.69535 0.0
H2685 H 0.30939 0.20729 0.5986 0.0
H2686 H 0.3459 0.22437 0.7552 0.0
H2687 H 0.30568 0.13875 0.61474 0.0
loop_
_geom_bond_atom_site_label_1
_geom_bond_atom_site_label_2
_geom_bond_distance
_geom_bond_site_symmetry_2
_ccdc_geom_bond_type
Tb0 N29 2.617 . S
Tb0 N35 2.572 . S
Tb0 O44 2.465 . S
Tb0 O45 2.387 . S
Tb0 O47 2.428 . S
Tb0 O48 2.308 . S
Tb0 O52 2.349 . S
Tb0 O55 2.393 . S
Tb0 C64 2.802 . S
C1 N2 1.379 . S
C1 C4 1.416 . S
C1 C8 1.424 . S
N2 C1 1.379 . S
N2 C5 1.334 . S
N2 Tb11 2.617 . S
C3 C5 1.390 . S
C3 C6 1.339 . S
C3 H23 0.930 . S
C4 C1 1.416 . S
C4 C6 1.416 . S
C4 C10 1.448 . S
C5 N2 1.334 . S
C5 C3 1.390 . S
C5 H16 0.930 . S
C6 C3 1.339 . S
C6 C4 1.416 . S
C6 H27 0.930 . S
C7 C8 1.413 . S
C7 C9 1.427 . S
C7 C13 1.434 . S
C8 C1 1.424 . S
C8 C7 1.413 . S
C8 N12 1.361 . S
C9 C7 1.427 . S
C9 C10 1.328 . S
C9 H24 0.929 . S
C10 C4 1.448 . S
C10 C9 1.328 . S
C10 H25 0.930 . S
Tb11 N2 2.617 . S
Tb11 N12 2.572 . S
Tb11 O46 2.349 . S
Tb11 O49 2.393 . S
Tb11 O50 2.465 . S
Tb11 O51 2.387 . S
Tb11 O53 2.428 . S
Tb11 O54 2.308 . S
Tb11 C75 2.802 . S
N12 C8 1.361 . S
N12 Tb11 2.572 . S
N12 C14 1.340 . S
C13 C7 1.434 . S
C13 C15 1.328 1_545 S
C13 H21 0.917 1_545 S
C14 N12 1.340 . S
C14 C15 1.407 1_545 S
C14 H20 0.930 . S
C15 C13 1.328 1_565 S
C15 C14 1.407 1_565 S
C15 H17 0.929 . S
H16 C5 0.930 . S
H17 C15 0.929 . S
H18 C33 0.930 . S
H19 C40 0.929 . S
H20 C14 0.930 . S
H21 C13 0.917 1_565 S
H22 C36 0.930 . S
H23 C3 0.930 . S
H24 C9 0.929 . S
H25 C10 0.930 . S
H26 C31 0.930 1_565 S
H27 C6 0.930 . S
H28 C39 0.931 . S
N29 Tb0 2.617 . S
N29 C30 1.379 1_455 S
N29 C33 1.334 . S
C30 N29 1.379 1_655 S
C30 C32 1.416 . S
C30 C38 1.424 . S
C31 H26 0.930 1_545 S
C31 C33 1.390 1_655 S
C31 C34 1.339 . S
C32 C30 1.416 . S
C32 C34 1.416 . S
C32 C65 1.448 . S
C33 H18 0.930 . S
C33 N29 1.334 . S
C33 C31 1.390 1_455 S
C34 C31 1.339 . S
C34 C32 1.416 . S
C34 H41 0.930 . S
N35 Tb0 2.572 . S
N35 C36 1.340 . S
N35 C38 1.361 1_455 S
C36 H22 0.930 . S
C36 N35 1.340 . S
C36 C40 1.407 . S
C37 C38 1.413 . S
C37 C39 1.416 . S
C37 C66 1.427 . S
C38 C30 1.424 . S
C38 N35 1.361 1_655 S
C38 C37 1.413 . S
C39 H28 0.931 . S
C39 C37 1.416 . S
C39 C40 1.332 1_655 S
C40 H19 0.929 . S
C40 C36 1.407 . S
C40 C39 1.332 1_455 S
H41 C34 0.930 . S
H42 C65 0.930 . S
H43 C66 0.929 . S
O44 Tb0 2.465 . S
O44 C64 1.264 . S
O45 Tb0 2.387 . S
O45 C56 1.264 . S
O46 Tb11 2.349 . S
O46 C56 1.243 . S
O47 Tb0 2.428 . S
O47 C64 1.256 . S
O48 Tb0 2.308 . S
O48 C63 1.266 . S
O49 Tb11 2.393 . S
O49 C63 1.248 . S
O50 Tb11 2.465 . S
O50 C75 1.264 . S
O51 Tb11 2.387 . S
O51 C67 1.264 . S
O52 Tb0 2.349 . S
O52 C67 1.243 . S
O53 Tb11 2.428 . S
O53 C75 1.256 . S
O54 Tb11 2.308 . S
O54 C74 1.266 . S
O55 Tb0 2.393 . S
O55 C74 1.248 . S
C56 O45 1.264 . S
C56 O46 1.243 . S
C57 C60 1.399 . S
C57 C62 1.383 . S
C57 C64 1.496 1_655 S
C58 C59 1.399 . S
C58 C62 1.389 . S
C59 C58 1.399 . S
C59 C61 1.380 . S
C59 H76 0.929 . S
C60 C57 1.399 . S
C60 C61 1.392 . S
C60 H77 0.929 . S
C61 C59 1.380 . S
C61 C60 1.392 . S
C61 H78 0.929 . S
C62 C57 1.383 . S
C62 C58 1.389 . S
C62 H79 0.931 . S
C63 O48 1.266 . S
C63 O49 1.248 . S
C64 Tb0 2.802 . S
C64 O44 1.264 . S
C64 O47 1.256 . S
C64 C57 1.496 1_455 S
C65 C32 1.448 . S
C65 H42 0.930 . S
C65 C66 1.328 . S
C66 C37 1.427 . S
C66 H43 0.929 . S
C66 C65 1.328 . S
C67 O51 1.264 . S
C67 O52 1.243 . S
C68 C71 1.399 . S
C68 C72 1.383 . S
C68 C75 1.496 . S
C69 C70 1.399 . S
C69 C72 1.389 . S
C70 C69 1.399 . S
C70 C73 1.380 . S
C70 H80 0.929 . S
C71 C68 1.399 . S
C71 C73 1.392 . S
C71 H81 0.929 . S
C72 C68 1.383 . S
C72 C69 1.389 . S
C72 H82 0.931 . S
C73 C70 1.380 . S
C73 C71 1.392 . S
C73 H83 0.929 . S
C74 O54 1.266 . S
C74 O55 1.248 . S
C75 Tb11 2.802 . S
C75 O50 1.264 . S
C75 O53 1.256 . S
C75 C68 1.496 . S
H76 C59 0.929 . S
H77 C60 0.929 . S
H78 C61 0.929 . S
H79 C62 0.931 . S
H80 C70 0.929 . S
H81 C71 0.929 . S
H82 C72 0.931 . S
H83 C73 0.929 . S
Tb84 N113 2.617 . S
Tb84 N119 2.572 . S
Tb84 O128 2.465 . S
Tb84 O129 2.387 . S
Tb84 O131 2.428 . S
Tb84 O132 2.308 . S
Tb84 O136 2.349 . S
Tb84 O139 2.393 . S
Tb84 C148 2.802 . S
C85 N86 1.379 1_545 S
C85 C88 1.416 . S
C85 C92 1.424 . S
N86 C85 1.379 1_565 S
N86 C89 1.334 . S
N86 Tb95 2.617 . S
C87 C89 1.390 1_545 S
C87 C90 1.339 . S
C87 H107 0.930 . S
C88 C85 1.416 . S
C88 C90 1.416 . S
C88 C94 1.448 . S
C89 N86 1.334 . S
C89 C87 1.390 1_565 S
C89 H100 0.930 . S
C90 C87 1.339 . S
C90 C88 1.416 . S
C90 H111 0.930 . S
C91 C92 1.413 . S
C91 C93 1.427 . S
C91 C97 1.416 . S
C92 C85 1.424 . S
C92 C91 1.413 . S
C92 N96 1.361 1_545 S
C93 C91 1.427 . S
C93 C94 1.328 . S
C93 H108 0.929 . S
C94 C88 1.448 . S
C94 C93 1.328 . S
C94 H109 0.930 . S
Tb95 N86 2.617 . S
Tb95 N96 2.572 . S
Tb95 O130 2.349 . S
Tb95 O133 2.393 . S
Tb95 O134 2.465 . S
Tb95 O135 2.387 . S
Tb95 O137 2.428 . S
Tb95 O138 2.308 . S
Tb95 C159 2.802 1_565 S
N96 C92 1.361 1_565 S
N96 Tb95 2.572 . S
N96 C98 1.340 . S
C97 C91 1.416 . S
C97 C99 1.332 . S
C97 H105 0.931 . S
C98 N96 1.340 . S
C98 C99 1.407 1_565 S
C98 H104 0.930 . S
C99 C97 1.332 . S
C99 C98 1.407 1_545 S
C99 H101 0.929 . S
H100 C89 0.930 . S
H101 C99 0.929 . S
H102 C117 0.930 . S
H103 C124 0.929 . S
H104 C98 0.930 . S
H105 C97 0.931 . S
H106 C120 0.930 . S
H107 C87 0.930 . S
H108 C93 0.929 . S
H109 C94 0.930 . S
H110 C115 0.930 . S
H111 C90 0.930 . S
H112 C123 0.931 . S
N113 Tb84 2.617 . S
N113 C114 1.379 . S
N113 C117 1.334 . S
C114 N113 1.379 . S
C114 C116 1.416 . S
C114 C122 1.424 . S
C115 H110 0.930 . S
C115 C117 1.390 . S
C115 C118 1.339 . S
C116 C114 1.416 . S
C116 C118 1.416 . S
C116 C149 1.448 . S
C117 H102 0.930 . S
C117 N113 1.334 . S
C117 C115 1.390 . S
C118 C115 1.339 . S
C118 C116 1.416 . S
C118 H125 0.930 . S
N119 Tb84 2.572 . S
N119 C120 1.340 . S
N119 C122 1.361 . S
C120 H106 0.930 . S
C120 N119 1.340 . S
C120 C124 1.407 . S
C121 C122 1.413 . S
C121 C123 1.416 . S
C121 C150 1.427 . S
C122 C114 1.424 . S
C122 N119 1.361 . S
C122 C121 1.413 . S
C123 H112 0.931 . S
C123 C121 1.416 . S
C123 C124 1.332 . S
C124 H103 0.929 . S
C124 C120 1.407 . S
C124 C123 1.332 . S
H125 C118 0.930 . S
H126 C149 0.930 . S
H127 C150 0.929 . S
O128 Tb84 2.465 . S
O128 C148 1.264 . S
O129 Tb84 2.387 . S
O129 C140 1.264 . S
O130 Tb95 2.349 . S
O130 C140 1.243 . S
O131 Tb84 2.428 . S
O131 C148 1.256 . S
O132 Tb84 2.308 . S
O132 C147 1.266 . S
O133 Tb95 2.393 . S
O133 C147 1.248 . S
O134 Tb95 2.465 . S
O134 C159 1.264 1_565 S
O135 Tb95 2.387 . S
O135 C151 1.264 . S
O136 Tb84 2.349 . S
O136 C151 1.243 . S
O137 Tb95 2.428 . S
O137 C159 1.256 1_565 S
O138 Tb95 2.308 . S
O138 C158 1.266 . S
O139 Tb84 2.393 . S
O139 C158 1.248 . S
C140 O129 1.264 . S
C140 O130 1.243 . S
C141 C144 1.399 . S
C141 C146 1.383 . S
C141 C148 1.496 . S
C142 C143 1.399 . S
C142 C146 1.389 . S
C143 C142 1.399 . S
C143 C145 1.380 . S
C143 H160 0.929 . S
C144 C141 1.399 . S
C144 C145 1.392 . S
C144 H161 0.929 . S
C145 C143 1.380 . S
C145 C144 1.392 . S
C145 H162 0.929 . S
C146 C141 1.383 . S
C146 C142 1.389 . S
C146 H163 0.931 . S
C147 O132 1.266 . S
C147 O133 1.248 . S
C148 Tb84 2.802 . S
C148 O128 1.264 . S
C148 O131 1.256 . S
C148 C141 1.496 . S
C149 C116 1.448 . S
C149 H126 0.930 . S
C149 C150 1.328 . S
C150 C121 1.427 . S
C150 H127 0.929 . S
C150 C149 1.328 . S
C151 O135 1.264 . S
C151 O136 1.243 . S
C152 C155 1.399 . S
C152 C156 1.383 . S
C152 C159 1.496 . S
C153 C154 1.399 . S
C153 C156 1.389 . S
C154 C153 1.399 . S
C154 C157 1.380 . S
C154 H164 0.929 . S
C155 C152 1.399 . S
C155 C157 1.392 . S
C155 H165 0.929 . S
C156 C152 1.383 . S
C156 C153 1.389 . S
C156 H166 0.931 . S
C157 C154 1.380 . S
C157 C155 1.392 . S
C157 H167 0.929 . S
C158 O138 1.266 . S
C158 O139 1.248 . S
C159 Tb95 2.802 1_545 S
C159 O134 1.264 1_545 S
C159 O137 1.256 1_545 S
C159 C152 1.496 . S
H160 C143 0.929 . S
H161 C144 0.929 . S
H162 C145 0.929 . S
H163 C146 0.931 . S
H164 C154 0.929 . S
H165 C155 0.929 . S
H166 C156 0.931 . S
H167 C157 0.929 . S
Tb168 N197 2.617 . S
Tb168 N203 2.572 . S
Tb168 O212 2.465 . S
Tb168 O213 2.387 . S
Tb168 O215 2.428 . S
Tb168 O216 2.308 . S
Tb168 O220 2.349 . S
Tb168 O223 2.393 . S
Tb168 C232 2.802 . S
C169 N170 1.379 . S
C169 C172 1.416 . S
C169 C176 1.424 . S
N170 C169 1.379 . S
N170 C173 1.334 . S
N170 Tb179 2.617 . S
C171 C173 1.390 . S
C171 C174 1.339 . S
C171 H191 0.930 . S
C172 C169 1.416 . S
C172 C174 1.416 . S
C172 C178 1.448 . S
C173 N170 1.334 . S
C173 C171 1.390 . S
C173 H184 0.930 . S
C174 C171 1.339 . S
C174 C172 1.416 . S
C174 H195 0.930 . S
C175 C176 1.413 . S
C175 C177 1.427 . S
C175 C181 1.434 . S
C176 C169 1.424 . S
C176 C175 1.413 . S
C176 N180 1.361 . S
C177 C175 1.427 . S
C177 C178 1.328 . S
C177 H192 0.929 . S
C178 C172 1.448 . S
C178 C177 1.328 . S
C178 H193 0.930 . S
Tb179 N170 2.617 . S
Tb179 N180 2.572 . S
Tb179 O214 2.349 . S
Tb179 O217 2.393 . S
Tb179 O218 2.465 . S
Tb179 O219 2.387 . S
Tb179 O221 2.428 . S
Tb179 O222 2.308 . S
Tb179 C243 2.802 . S
N180 C176 1.361 . S
N180 Tb179 2.572 . S
N180 C182 1.340 . S
C181 C175 1.434 . S
C181 C183 1.328 1_565 S
C181 H189 0.917 1_565 S
C182 N180 1.340 . S
C182 C183 1.407 1_565 S
C182 H188 0.930 . S
C183 C181 1.328 1_545 S
C183 C182 1.407 1_545 S
C183 H185 0.929 . S
H184 C173 0.930 . S
H185 C183 0.929 . S
H186 C201 0.930 . S
H187 C208 0.929 . S
H188 C182 0.930 . S
H189 C181 0.917 1_545 S
H190 C204 0.930 . S
H191 C171 0.930 . S
H192 C177 0.929 . S
H193 C178 0.930 . S
H194 C199 0.930 1_545 S
H195 C174 0.930 . S
H196 C207 0.931 . S
N197 Tb168 2.617 . S
N197 C198 1.379 . S
N197 C201 1.334 . S
C198 N197 1.379 . S
C198 C200 1.416 . S
C198 C206 1.424 . S
C199 H194 0.930 1_565 S
C199 C201 1.390 . S
C199 C202 1.339 . S
C200 C198 1.416 . S
C200 C202 1.416 . S
C200 C233 1.448 . S
C201 H186 0.930 . S
C201 N197 1.334 . S
C201 C199 1.390 . S
C202 C199 1.339 . S
C202 C200 1.416 . S
C202 H209 0.930 . S
N203 Tb168 2.572 . S
N203 C204 1.340 . S
N203 C206 1.361 . S
C204 H190 0.930 . S
C204 N203 1.340 . S
C204 C208 1.407 . S
C205 C206 1.413 . S
C205 C207 1.416 . S
C205 C234 1.427 . S
C206 C198 1.424 . S
C206 N203 1.361 . S
C206 C205 1.413 . S
C207 H196 0.931 . S
C207 C205 1.416 . S
C207 C208 1.332 . S
C208 H187 0.929 . S
C208 C204 1.407 . S
C208 C207 1.332 . S
H209 C202 0.930 . S
H210 C233 0.930 . S
H211 C234 0.929 . S
O212 Tb168 2.465 . S
O212 C232 1.264 . S
O213 Tb168 2.387 . S
O213 C224 1.264 . S
O214 Tb179 2.349 . S
O214 C224 1.243 . S
O215 Tb168 2.428 . S
O215 C232 1.256 . S
O216 Tb168 2.308 . S
O216 C231 1.266 . S
O217 Tb179 2.393 . S
O217 C231 1.248 . S
O218 Tb179 2.465 . S
O218 C243 1.264 . S
O219 Tb179 2.387 . S
O219 C235 1.264 . S
O220 Tb168 2.349 . S
O220 C235 1.243 . S
O221 Tb179 2.428 . S
O221 C243 1.256 . S
O222 Tb179 2.308 . S
O222 C242 1.266 . S
O223 Tb168 2.393 . S
O223 C242 1.248 . S
C224 O213 1.264 . S
C224 O214 1.243 . S
C225 C228 1.399 . S
C225 C230 1.383 . S
C225 C232 1.496 . S
C226 C227 1.399 . S
C226 C230 1.389 . S
C227 C226 1.399 . S
C227 C229 1.380 . S
C227 H244 0.929 . S
C228 C225 1.399 . S
C228 C229 1.392 . S
C228 H245 0.929 . S
C229 C227 1.380 . S
C229 C228 1.392 . S
C229 H246 0.929 . S
C230 C225 1.383 . S
C230 C226 1.389 . S
C230 H247 0.931 . S
C231 O216 1.266 . S
C231 O217 1.248 . S
C232 Tb168 2.802 . S
C232 O212 1.264 . S
C232 O215 1.256 . S
C232 C225 1.496 . S
C233 C200 1.448 . S
C233 H210 0.930 . S
C233 C234 1.328 . S
C234 C205 1.427 . S
C234 H211 0.929 . S
C234 C233 1.328 . S
C235 O219 1.264 . S
C235 O220 1.243 . S
C236 C239 1.399 . S
C236 C240 1.383 . S
C236 C243 1.496 . S
C237 C238 1.399 . S
C237 C240 1.389 . S
C238 C237 1.399 . S
C238 C241 1.380 . S
C238 H248 0.929 . S
C239 C236 1.399 . S
C239 C241 1.392 . S
C239 H249 0.929 . S
C240 C236 1.383 . S
C240 C237 1.389 . S
C240 H250 0.931 . S
C241 C238 1.380 . S
C241 C239 1.392 . S
C241 H251 0.929 . S
C242 O222 1.266 . S
C242 O223 1.248 . S
C243 Tb179 2.802 . S
C243 O218 1.264 . S
C243 O221 1.256 . S
C243 C236 1.496 . S
H244 C227 0.929 . S
H245 C228 0.929 . S
H246 C229 0.929 . S
H247 C230 0.931 . S
H248 C238 0.929 . S
H249 C239 0.929 . S
H250 C240 0.931 . S
H251 C241 0.929 . S
Tb252 N281 2.617 1_554 S
Tb252 N287 2.572 1_554 S
Tb252 O296 2.465 . S
Tb252 O297 2.387 1_554 S
Tb252 O299 2.428 . S
Tb252 O300 2.308 . S
Tb252 O304 2.349 . S
Tb252 O307 2.393 1_554 S
Tb252 C316 2.802 . S
C253 N254 1.379 1_565 S
C253 C256 1.416 . S
C253 C260 1.424 . S
N254 C253 1.379 1_545 S
N254 C257 1.334 . S
N254 Tb263 2.617 . S
C255 C257 1.390 1_565 S
C255 C258 1.339 . S
C255 H275 0.930 . S
C256 C253 1.416 . S
C256 C258 1.416 . S
C256 C262 1.448 . S
C257 N254 1.334 . S
C257 C255 1.390 1_545 S
C257 H268 0.930 . S
C258 C255 1.339 . S
C258 C256 1.416 . S
C258 H279 0.930 . S
C259 C260 1.413 . S
C259 C261 1.427 . S
C259 C265 1.416 . S
C260 C253 1.424 . S
C260 C259 1.413 . S
C260 N264 1.361 1_565 S
C261 C259 1.427 . S
C261 C262 1.328 . S
C261 H276 0.929 . S
C262 C256 1.448 . S
C262 C261 1.328 . S
C262 H277 0.930 . S
Tb263 N254 2.617 . S
Tb263 N264 2.572 . S
Tb263 O298 2.349 1_554 S
Tb263 O301 2.393 . S
Tb263 O302 2.465 1_554 S
Tb263 O303 2.387 . S
Tb263 O305 2.428 1_554 S
Tb263 O306 2.308 1_554 S
Tb263 C327 2.802 1_544 S
N264 C260 1.361 1_545 S
N264 Tb263 2.572 . S
N264 C266 1.340 . S
C265 C259 1.416 . S
C265 C267 1.332 . S
C265 H273 0.931 . S
C266 N264 1.340 . S
C266 C267 1.407 1_545 S
C266 H272 0.930 . S
C267 C265 1.332 . S
C267 C266 1.407 1_565 S
C267 H269 0.929 . S
H268 C257 0.930 . S
H269 C267 0.929 . S
H270 C285 0.930 . S
H271 C292 0.929 . S
H272 C266 0.930 . S
H273 C265 0.931 . S
H274 C288 0.930 1_554 S
H275 C255 0.930 . S
H276 C261 0.929 . S
H277 C262 0.930 . S
H278 C283 0.930 . S
H279 C258 0.930 . S
H280 C291 0.931 . S
N281 Tb252 2.617 1_556 S
N281 C282 1.379 . S
N281 C285 1.334 . S
C282 N281 1.379 . S
C282 C284 1.416 . S
C282 C290 1.424 . S
C283 H278 0.930 . S
C283 C285 1.390 . S
C283 C286 1.339 . S
C284 C282 1.416 . S
C284 C286 1.416 . S
C284 C317 1.448 . S
C285 H270 0.930 . S
C285 N281 1.334 . S
C285 C283 1.390 . S
C286 C283 1.339 . S
C286 C284 1.416 . S
C286 H293 0.930 . S
N287 Tb252 2.572 1_556 S
N287 C288 1.340 . S
N287 C290 1.361 . S
C288 H274 0.930 1_556 S
C288 N287 1.340 . S
C288 C292 1.407 . S
C289 C290 1.413 . S
C289 C291 1.416 . S
C289 C318 1.427 . S
C290 C282 1.424 . S
C290 N287 1.361 . S
C290 C289 1.413 . S
C291 H280 0.931 . S
C291 C289 1.416 . S
C291 C292 1.332 . S
C292 H271 0.929 . S
C292 C288 1.407 . S
C292 C291 1.332 . S
H293 C286 0.930 . S
H294 C317 0.930 . S
H295 C318 0.929 . S
O296 Tb252 2.465 . S
O296 C316 1.264 . S
O297 Tb252 2.387 1_556 S
O297 C308 1.264 . S
O298 Tb263 2.349 1_556 S
O298 C308 1.243 . S
O299 Tb252 2.428 . S
O299 C316 1.256 . S
O300 Tb252 2.308 . S
O300 C315 1.266 . S
O301 Tb263 2.393 . S
O301 C315 1.248 . S
O302 Tb263 2.465 1_556 S
O302 C327 1.264 1_545 S
O303 Tb263 2.387 . S
O303 C319 1.264 . S
O304 Tb252 2.349 . S
O304 C319 1.243 . S
O305 Tb263 2.428 1_556 S
O305 C327 1.256 1_545 S
O306 Tb263 2.308 1_556 S
O306 C326 1.266 . S
O307 Tb252 2.393 1_556 S
O307 C326 1.248 . S
C308 O297 1.264 . S
C308 O298 1.243 . S
C309 C312 1.399 . S
C309 C314 1.383 . S
C309 C316 1.496 . S
C310 C311 1.399 . S
C310 C314 1.389 . S
C311 C310 1.399 . S
C311 C313 1.380 . S
C311 H328 0.929 . S
C312 C309 1.399 . S
C312 C313 1.392 . S
C312 H329 0.929 . S
C313 C311 1.380 . S
C313 C312 1.392 . S
C313 H330 0.929 . S
C314 C309 1.383 . S
C314 C310 1.389 . S
C314 H331 0.931 . S
C315 O300 1.266 . S
C315 O301 1.248 . S
C316 Tb252 2.802 . S
C316 O296 1.264 . S
C316 O299 1.256 . S
C316 C309 1.496 . S
C317 C284 1.448 . S
C317 H294 0.930 . S
C317 C318 1.328 . S
C318 C289 1.427 . S
C318 H295 0.929 . S
C318 C317 1.328 . S
C319 O303 1.264 . S
C319 O304 1.243 . S
C320 C323 1.399 . S
C320 C324 1.383 . S
C320 C327 1.496 . S
C321 C322 1.399 . S
C321 C324 1.389 . S
C322 C321 1.399 . S
C322 C325 1.380 . S
C322 H332 0.929 . S
C323 C320 1.399 . S
C323 C325 1.392 . S
C323 H333 0.929 . S
C324 C320 1.383 . S
C324 C321 1.389 . S
C324 H334 0.931 . S
C325 C322 1.380 . S
C325 C323 1.392 . S
C325 H335 0.929 . S
C326 O306 1.266 . S
C326 O307 1.248 . S
C327 Tb263 2.802 1_566 S
C327 O302 1.264 1_565 S
C327 O305 1.256 1_565 S
C327 C320 1.496 . S
H328 C311 0.929 . S
H329 C312 0.929 . S
H330 C313 0.929 . S
H331 C314 0.931 . S
H332 C322 0.929 . S
H333 C323 0.929 . S
H334 C324 0.931 . S
H335 C325 0.929 . S
Tb336 N365 2.617 . S
Tb336 N371 2.572 . S
Tb336 O380 2.465 . S
Tb336 O381 2.387 . S
Tb336 O383 2.428 . S
Tb336 O384 2.308 . S
Tb336 O388 2.349 . S
Tb336 O391 2.393 . S
Tb336 C400 2.802 . S
C337 N338 1.379 . S
C337 C340 1.416 . S
C337 C344 1.424 . S
N338 C337 1.379 . S
N338 C341 1.334 . S
N338 Tb347 2.617 . S
C339 C341 1.390 . S
C339 C342 1.339 . S
C339 H359 0.930 . S
C340 C337 1.416 . S
C340 C342 1.416 . S
C340 C346 1.448 . S
C341 N338 1.334 . S
C341 C339 1.390 . S
C341 H352 0.930 . S
C342 C339 1.339 . S
C342 C340 1.416 . S
C342 H363 0.930 . S
C343 C344 1.413 . S
C343 C345 1.427 . S
C343 C349 1.434 . S
C344 C337 1.424 . S
C344 C343 1.413 . S
C344 N348 1.361 . S
C345 C343 1.427 . S
C345 C346 1.328 . S
C345 H360 0.929 . S
C346 C340 1.448 . S
C346 C345 1.328 . S
C346 H361 0.930 . S
Tb347 N338 2.617 . S
Tb347 N348 2.572 . S
Tb347 O382 2.349 . S
Tb347 O385 2.393 . S
Tb347 O386 2.465 . S
Tb347 O387 2.387 . S
Tb347 O389 2.428 . S
Tb347 O390 2.308 . S
Tb347 C411 2.802 . S
N348 C344 1.361 . S
N348 Tb347 2.572 . S
N348 C350 1.340 . S
C349 C343 1.434 . S
C349 C351 1.328 1_565 S
C349 H357 0.917 1_565 S
C350 N348 1.340 . S
C350 C351 1.407 1_565 S
C350 H356 0.930 . S
C351 C349 1.328 1_545 S
C351 C350 1.407 1_545 S
C351 H353 0.929 . S
H352 C341 0.930 . S
H353 C351 0.929 . S
H354 C369 0.930 . S
H355 C376 0.929 . S
H356 C350 0.930 . S
H357 C349 0.917 1_545 S
H358 C372 0.930 . S
H359 C339 0.930 . S
H360 C345 0.929 . S
H361 C346 0.930 . S
H362 C367 0.930 1_545 S
H363 C342 0.930 . S
H364 C375 0.931 . S
N365 Tb336 2.617 . S
N365 C366 1.379 1_455 S
N365 C369 1.334 . S
C366 N365 1.379 1_655 S
C366 C368 1.416 . S
C366 C374 1.424 . S
C367 H362 0.930 1_565 S
C367 C369 1.390 1_655 S
C367 C370 1.339 . S
C368 C366 1.416 . S
C368 C370 1.416 . S
C368 C401 1.448 . S
C369 H354 0.930 . S
C369 N365 1.334 . S
C369 C367 1.390 1_455 S
C370 C367 1.339 . S
C370 C368 1.416 . S
C370 H377 0.930 . S
N371 Tb336 2.572 . S
N371 C372 1.340 . S
N371 C374 1.361 1_455 S
C372 H358 0.930 . S
C372 N371 1.340 . S
C372 C376 1.407 . S
C373 C374 1.413 . S
C373 C375 1.416 . S
C373 C402 1.427 . S
C374 C366 1.424 . S
C374 N371 1.361 1_655 S
C374 C373 1.413 . S
C375 H364 0.931 . S
C375 C373 1.416 . S
C375 C376 1.332 1_655 S
C376 H355 0.929 . S
C376 C372 1.407 . S
C376 C375 1.332 1_455 S
H377 C370 0.930 . S
H378 C401 0.930 . S
H379 C402 0.929 . S
O380 Tb336 2.465 . S
O380 C400 1.264 . S
O381 Tb336 2.387 . S
O381 C392 1.264 . S
O382 Tb347 2.349 . S
O382 C392 1.243 . S
O383 Tb336 2.428 . S
O383 C400 1.256 . S
O384 Tb336 2.308 . S
O384 C399 1.266 . S
O385 Tb347 2.393 . S
O385 C399 1.248 . S
O386 Tb347 2.465 . S
O386 C411 1.264 . S
O387 Tb347 2.387 . S
O387 C403 1.264 . S
O388 Tb336 2.349 . S
O388 C403 1.243 . S
O389 Tb347 2.428 . S
O389 C411 1.256 . S
O390 Tb347 2.308 . S
O390 C410 1.266 . S
O391 Tb336 2.393 . S
O391 C410 1.248 . S
C392 O381 1.264 . S
C392 O382 1.243 . S
C393 C396 1.399 . S
C393 C398 1.383 . S
C393 C400 1.496 1_655 S
C394 C395 1.399 . S
C394 C398 1.389 . S
C395 C394 1.399 . S
C395 C397 1.380 . S
C395 H412 0.929 . S
C396 C393 1.399 . S
C396 C397 1.392 . S
C396 H413 0.929 . S
C397 C395 1.380 . S
C397 C396 1.392 . S
C397 H414 0.929 . S
C398 C393 1.383 . S
C398 C394 1.389 . S
C398 H415 0.931 . S
C399 O384 1.266 . S
C399 O385 1.248 . S
C400 Tb336 2.802 . S
C400 O380 1.264 . S
C400 O383 1.256 . S
C400 C393 1.496 1_455 S
C401 C368 1.448 . S
C401 H378 0.930 . S
C401 C402 1.328 . S
C402 C373 1.427 . S
C402 H379 0.929 . S
C402 C401 1.328 . S
C403 O387 1.264 . S
C403 O388 1.243 . S
C404 C407 1.399 . S
C404 C408 1.383 . S
C404 C411 1.496 . S
C405 C406 1.399 . S
C405 C408 1.389 . S
C406 C405 1.399 . S
C406 C409 1.380 . S
C406 H416 0.929 . S
C407 C404 1.399 . S
C407 C409 1.392 . S
C407 H417 0.929 . S
C408 C404 1.383 . S
C408 C405 1.389 . S
C408 H418 0.931 . S
C409 C406 1.380 . S
C409 C407 1.392 . S
C409 H419 0.929 . S
C410 O390 1.266 . S
C410 O391 1.248 . S
C411 Tb347 2.802 . S
C411 O386 1.264 . S
C411 O389 1.256 . S
C411 C404 1.496 . S
H412 C395 0.929 . S
H413 C396 0.929 . S
H414 C397 0.929 . S
H415 C398 0.931 . S
H416 C406 0.929 . S
H417 C407 0.929 . S
H418 C408 0.931 . S
H419 C409 0.929 . S
Tb420 N449 2.617 . S
Tb420 N455 2.572 . S
Tb420 O464 2.465 . S
Tb420 O465 2.387 . S
Tb420 O467 2.428 . S
Tb420 O468 2.308 . S
Tb420 O472 2.349 . S
Tb420 O475 2.393 . S
Tb420 C484 2.802 . S
C421 N422 1.379 1_545 S
C421 C424 1.416 . S
C421 C428 1.424 . S
N422 C421 1.379 1_565 S
N422 C425 1.334 . S
N422 Tb431 2.617 . S
C423 C425 1.390 1_545 S
C423 C426 1.339 . S
C423 H443 0.930 . S
C424 C421 1.416 . S
C424 C426 1.416 . S
C424 C430 1.448 . S
C425 N422 1.334 . S
C425 C423 1.390 1_565 S
C425 H436 0.930 . S
C426 C423 1.339 . S
C426 C424 1.416 . S
C426 H447 0.930 . S
C427 C428 1.413 . S
C427 C429 1.427 . S
C427 C433 1.416 . S
C428 C421 1.424 . S
C428 C427 1.413 . S
C428 N432 1.361 1_545 S
C429 C427 1.427 . S
C429 C430 1.328 . S
C429 H444 0.929 . S
C430 C424 1.448 . S
C430 C429 1.328 . S
C430 H445 0.930 . S
Tb431 N422 2.617 . S
Tb431 N432 2.572 . S
Tb431 O466 2.349 . S
Tb431 O469 2.393 . S
Tb431 O470 2.465 . S
Tb431 O471 2.387 . S
Tb431 O473 2.428 . S
Tb431 O474 2.308 . S
Tb431 C495 2.802 1_565 S
N432 C428 1.361 1_565 S
N432 Tb431 2.572 . S
N432 C434 1.340 . S
C433 C427 1.416 . S
C433 C435 1.332 . S
C433 H441 0.931 . S
C434 N432 1.340 . S
C434 C435 1.407 1_565 S
C434 H440 0.930 . S
C435 C433 1.332 . S
C435 C434 1.407 1_545 S
C435 H437 0.929 . S
H436 C425 0.930 . S
H437 C435 0.929 . S
H438 C453 0.930 . S
H439 C460 0.929 . S
H440 C434 0.930 . S
H441 C433 0.931 . S
H442 C456 0.930 . S
H443 C423 0.930 . S
H444 C429 0.929 . S
H445 C430 0.930 . S
H446 C451 0.930 . S
H447 C426 0.930 . S
H448 C459 0.931 . S
N449 Tb420 2.617 . S
N449 C450 1.379 . S
N449 C453 1.334 . S
C450 N449 1.379 . S
C450 C452 1.416 . S
C450 C458 1.424 . S
C451 H446 0.930 . S
C451 C453 1.390 . S
C451 C454 1.339 . S
C452 C450 1.416 . S
C452 C454 1.416 . S
C452 C485 1.448 . S
C453 H438 0.930 . S
C453 N449 1.334 . S
C453 C451 1.390 . S
C454 C451 1.339 . S
C454 C452 1.416 . S
C454 H461 0.930 . S
N455 Tb420 2.572 . S
N455 C456 1.340 . S
N455 C458 1.361 . S
C456 H442 0.930 . S
C456 N455 1.340 . S
C456 C460 1.407 . S
C457 C458 1.413 . S
C457 C459 1.416 . S
C457 C486 1.427 . S
C458 C450 1.424 . S
C458 N455 1.361 . S
C458 C457 1.413 . S
C459 H448 0.931 . S
C459 C457 1.416 . S
C459 C460 1.332 . S
C460 H439 0.929 . S
C460 C456 1.407 . S
C460 C459 1.332 . S
H461 C454 0.930 . S
H462 C485 0.930 . S
H463 C486 0.929 . S
O464 Tb420 2.465 . S
O464 C484 1.264 . S
O465 Tb420 2.387 . S
O465 C476 1.264 . S
O466 Tb431 2.349 . S
O466 C476 1.243 . S
O467 Tb420 2.428 . S
O467 C484 1.256 . S
O468 Tb420 2.308 . S
O468 C483 1.266 . S
O469 Tb431 2.393 . S
O469 C483 1.248 . S
O470 Tb431 2.465 . S
O470 C495 1.264 1_565 S
O471 Tb431 2.387 . S
O471 C487 1.264 . S
O472 Tb420 2.349 . S
O472 C487 1.243 . S
O473 Tb431 2.428 . S
O473 C495 1.256 1_565 S
O474 Tb431 2.308 . S
O474 C494 1.266 . S
O475 Tb420 2.393 . S
O475 C494 1.248 . S
C476 O465 1.264 . S
C476 O466 1.243 . S
C477 C480 1.399 . S
C477 C482 1.383 . S
C477 C484 1.496 . S
C478 C479 1.399 . S
C478 C482 1.389 . S
C479 C478 1.399 . S
C479 C481 1.380 . S
C479 H496 0.929 . S
C480 C477 1.399 . S
C480 C481 1.392 . S
C480 H497 0.929 . S
C481 C479 1.380 . S
C481 C480 1.392 . S
C481 H498 0.929 . S
C482 C477 1.383 . S
C482 C478 1.389 . S
C482 H499 0.931 . S
C483 O468 1.266 . S
C483 O469 1.248 . S
C484 Tb420 2.802 . S
C484 O464 1.264 . S
C484 O467 1.256 . S
C484 C477 1.496 . S
C485 C452 1.448 . S
C485 H462 0.930 . S
C485 C486 1.328 . S
C486 C457 1.427 . S
C486 H463 0.929 . S
C486 C485 1.328 . S
C487 O471 1.264 . S
C487 O472 1.243 . S
C488 C491 1.399 . S
C488 C492 1.383 . S
C488 C495 1.496 . S
C489 C490 1.399 . S
C489 C492 1.389 . S
C490 C489 1.399 . S
C490 C493 1.380 . S
C490 H500 0.929 . S
C491 C488 1.399 . S
C491 C493 1.392 . S
C491 H501 0.929 . S
C492 C488 1.383 . S
C492 C489 1.389 . S
C492 H502 0.931 . S
C493 C490 1.380 . S
C493 C491 1.392 . S
C493 H503 0.929 . S
C494 O474 1.266 . S
C494 O475 1.248 . S
C495 Tb431 2.802 1_545 S
C495 O470 1.264 1_545 S
C495 O473 1.256 1_545 S
C495 C488 1.496 . S
H496 C479 0.929 . S
H497 C480 0.929 . S
H498 C481 0.929 . S
H499 C482 0.931 . S
H500 C490 0.929 . S
H501 C491 0.929 . S
H502 C492 0.931 . S
H503 C493 0.929 . S
Tb504 N533 2.617 . S
Tb504 N539 2.572 . S
Tb504 O548 2.465 . S
Tb504 O549 2.387 . S
Tb504 O551 2.428 . S
Tb504 O552 2.308 . S
Tb504 O556 2.349 . S
Tb504 O559 2.393 . S
Tb504 C568 2.802 . S
C505 N506 1.379 . S
C505 C508 1.416 . S
C505 C512 1.424 . S
N506 C505 1.379 . S
N506 C509 1.334 . S
N506 Tb515 2.617 . S
C507 C509 1.390 . S
C507 C510 1.339 . S
C507 H527 0.930 . S
C508 C505 1.416 . S
C508 C510 1.416 . S
C508 C514 1.448 . S
C509 N506 1.334 . S
C509 C507 1.390 . S
C509 H520 0.930 . S
C510 C507 1.339 . S
C510 C508 1.416 . S
C510 H531 0.930 . S
C511 C512 1.413 . S
C511 C513 1.427 . S
C511 C517 1.434 . S
C512 C505 1.424 . S
C512 C511 1.413 . S
C512 N516 1.361 . S
C513 C511 1.427 . S
C513 C514 1.328 . S
C513 H528 0.929 . S
C514 C508 1.448 . S
C514 C513 1.328 . S
C514 H529 0.930 . S
Tb515 N506 2.617 . S
Tb515 N516 2.572 . S
Tb515 O550 2.349 . S
Tb515 O553 2.393 . S
Tb515 O554 2.465 . S
Tb515 O555 2.387 . S
Tb515 O557 2.428 . S
Tb515 O558 2.308 . S
Tb515 C579 2.802 . S
N516 C512 1.361 . S
N516 Tb515 2.572 . S
N516 C518 1.340 . S
C517 C511 1.434 . S
C517 C519 1.328 1_545 S
C517 H525 0.917 1_545 S
C518 N516 1.340 . S
C518 C519 1.407 1_545 S
C518 H524 0.930 . S
C519 C517 1.328 1_565 S
C519 C518 1.407 1_565 S
C519 H521 0.929 . S
H520 C509 0.930 . S
H521 C519 0.929 . S
H522 C537 0.930 . S
H523 C544 0.929 . S
H524 C518 0.930 . S
H525 C517 0.917 1_565 S
H526 C540 0.930 . S
H527 C507 0.930 . S
H528 C513 0.929 . S
H529 C514 0.930 . S
H530 C535 0.930 1_565 S
H531 C510 0.930 . S
H532 C543 0.931 . S
N533 Tb504 2.617 . S
N533 C534 1.379 . S
N533 C537 1.334 . S
C534 N533 1.379 . S
C534 C536 1.416 . S
C534 C542 1.424 . S
C535 H530 0.930 1_545 S
C535 C537 1.390 . S
C535 C538 1.339 . S
C536 C534 1.416 . S
C536 C538 1.416 . S
C536 C569 1.448 . S
C537 H522 0.930 . S
C537 N533 1.334 . S
C537 C535 1.390 . S
C538 C535 1.339 . S
C538 C536 1.416 . S
C538 H545 0.930 . S
N539 Tb504 2.572 . S
N539 C540 1.340 . S
N539 C542 1.361 . S
C540 H526 0.930 . S
C540 N539 1.340 . S
C540 C544 1.407 . S
C541 C542 1.413 . S
C541 C543 1.416 . S
C541 C570 1.427 . S
C542 C534 1.424 . S
C542 N539 1.361 . S
C542 C541 1.413 . S
C543 H532 0.931 . S
C543 C541 1.416 . S
C543 C544 1.332 . S
C544 H523 0.929 . S
C544 C540 1.407 . S
C544 C543 1.332 . S
H545 C538 0.930 . S
H546 C569 0.930 . S
H547 C570 0.929 . S
O548 Tb504 2.465 . S
O548 C568 1.264 . S
O549 Tb504 2.387 . S
O549 C560 1.264 . S
O550 Tb515 2.349 . S
O550 C560 1.243 . S
O551 Tb504 2.428 . S
O551 C568 1.256 . S
O552 Tb504 2.308 . S
O552 C567 1.266 . S
O553 Tb515 2.393 . S
O553 C567 1.248 . S
O554 Tb515 2.465 . S
O554 C579 1.264 . S
O555 Tb515 2.387 . S
O555 C571 1.264 . S
O556 Tb504 2.349 . S
O556 C571 1.243 . S
O557 Tb515 2.428 . S
O557 C579 1.256 . S
O558 Tb515 2.308 . S
O558 C578 1.266 . S
O559 Tb504 2.393 . S
O559 C578 1.248 . S
C560 O549 1.264 . S
C560 O550 1.243 . S
C561 C564 1.399 . S
C561 C566 1.383 . S
C561 C568 1.496 . S
C562 C563 1.399 . S
C562 C566 1.389 . S
C563 C562 1.399 . S
C563 C565 1.380 . S
C563 H580 0.929 . S
C564 C561 1.399 . S
C564 C565 1.392 . S
C564 H581 0.929 . S
C565 C563 1.380 . S
C565 C564 1.392 . S
C565 H582 0.929 . S
C566 C561 1.383 . S
C566 C562 1.389 . S
C566 H583 0.931 . S
C567 O552 1.266 . S
C567 O553 1.248 . S
C568 Tb504 2.802 . S
C568 O548 1.264 . S
C568 O551 1.256 . S
C568 C561 1.496 . S
C569 C536 1.448 . S
C569 H546 0.930 . S
C569 C570 1.328 . S
C570 C541 1.427 . S
C570 H547 0.929 . S
C570 C569 1.328 . S
C571 O555 1.264 . S
C571 O556 1.243 . S
C572 C575 1.399 . S
C572 C576 1.383 . S
C572 C579 1.496 . S
C573 C574 1.399 . S
C573 C576 1.389 . S
C574 C573 1.399 . S
C574 C577 1.380 . S
C574 H584 0.929 . S
C575 C572 1.399 . S
C575 C577 1.392 . S
C575 H585 0.929 . S
C576 C572 1.383 . S
C576 C573 1.389 . S
C576 H586 0.931 . S
C577 C574 1.380 . S
C577 C575 1.392 . S
C577 H587 0.929 . S
C578 O558 1.266 . S
C578 O559 1.248 . S
C579 Tb515 2.802 . S
C579 O554 1.264 . S
C579 O557 1.256 . S
C579 C572 1.496 . S
H580 C563 0.929 . S
H581 C564 0.929 . S
H582 C565 0.929 . S
H583 C566 0.931 . S
H584 C574 0.929 . S
H585 C575 0.929 . S
H586 C576 0.931 . S
H587 C577 0.929 . S
Tb588 N617 2.617 1_556 S
Tb588 N623 2.572 1_556 S
Tb588 O632 2.465 . S
Tb588 O633 2.387 1_556 S
Tb588 O635 2.428 . S
Tb588 O636 2.308 . S
Tb588 O640 2.349 . S
Tb588 O643 2.393 1_556 S
Tb588 C652 2.802 . S
C589 N590 1.379 1_565 S
C589 C592 1.416 . S
C589 C596 1.424 . S
N590 C589 1.379 1_545 S
N590 C593 1.334 . S
N590 Tb599 2.617 . S
C591 C593 1.390 1_565 S
C591 C594 1.339 . S
C591 H611 0.930 . S
C592 C589 1.416 . S
C592 C594 1.416 . S
C592 C598 1.448 . S
C593 N590 1.334 . S
C593 C591 1.390 1_545 S
C593 H604 0.930 . S
C594 C591 1.339 . S
C594 C592 1.416 . S
C594 H615 0.930 . S
C595 C596 1.413 . S
C595 C597 1.427 . S
C595 C601 1.416 . S
C596 C589 1.424 . S
C596 C595 1.413 . S
C596 N600 1.361 1_565 S
C597 C595 1.427 . S
C597 C598 1.328 . S
C597 H612 0.929 . S
C598 C592 1.448 . S
C598 C597 1.328 . S
C598 H613 0.930 . S
Tb599 N590 2.617 . S
Tb599 N600 2.572 . S
Tb599 O634 2.349 1_556 S
Tb599 O637 2.393 . S
Tb599 O638 2.465 1_556 S
Tb599 O639 2.387 . S
Tb599 O641 2.428 1_556 S
Tb599 O642 2.308 1_556 S
Tb599 C663 2.802 1_546 S
N600 C596 1.361 1_545 S
N600 Tb599 2.572 . S
N600 C602 1.340 . S
C601 C595 1.416 . S
C601 C603 1.332 . S
C601 H609 0.931 . S
C602 N600 1.340 . S
C602 C603 1.407 1_545 S
C602 H608 0.930 . S
C603 C601 1.332 . S
C603 C602 1.407 1_565 S
C603 H605 0.929 . S
H604 C593 0.930 . S
H605 C603 0.929 . S
H606 C621 0.930 . S
H607 C628 0.929 . S
H608 C602 0.930 . S
H609 C601 0.931 . S
H610 C624 0.930 1_556 S
H611 C591 0.930 . S
H612 C597 0.929 . S
H613 C598 0.930 . S
H614 C619 0.930 . S
H615 C594 0.930 . S
H616 C627 0.931 . S
N617 Tb588 2.617 1_554 S
N617 C618 1.379 . S
N617 C621 1.334 . S
C618 N617 1.379 . S
C618 C620 1.416 . S
C618 C626 1.424 . S
C619 H614 0.930 . S
C619 C621 1.390 . S
C619 C622 1.339 . S
C620 C618 1.416 . S
C620 C622 1.416 . S
C620 C653 1.448 . S
C621 H606 0.930 . S
C621 N617 1.334 . S
C621 C619 1.390 . S
C622 C619 1.339 . S
C622 C620 1.416 . S
C622 H629 0.930 . S
N623 Tb588 2.572 1_554 S
N623 C624 1.340 . S
N623 C626 1.361 . S
C624 H610 0.930 1_554 S
C624 N623 1.340 . S
C624 C628 1.407 . S
C625 C626 1.413 . S
C625 C627 1.416 . S
C625 C654 1.427 . S
C626 C618 1.424 . S
C626 N623 1.361 . S
C626 C625 1.413 . S
C627 H616 0.931 . S
C627 C625 1.416 . S
C627 C628 1.332 . S
C628 H607 0.929 . S
C628 C624 1.407 . S
C628 C627 1.332 . S
H629 C622 0.930 . S
H630 C653 0.930 . S
H631 C654 0.929 . S
O632 Tb588 2.465 . S
O632 C652 1.264 . S
O633 Tb588 2.387 1_554 S
O633 C644 1.264 . S
O634 Tb599 2.349 1_554 S
O634 C644 1.243 . S
O635 Tb588 2.428 . S
O635 C652 1.256 . S
O636 Tb588 2.308 . S
O636 C651 1.266 . S
O637 Tb599 2.393 . S
O637 C651 1.248 . S
O638 Tb599 2.465 1_554 S
O638 C663 1.264 1_545 S
O639 Tb599 2.387 . S
O639 C655 1.264 . S
O640 Tb588 2.349 . S
O640 C655 1.243 . S
O641 Tb599 2.428 1_554 S
O641 C663 1.256 1_545 S
O642 Tb599 2.308 1_554 S
O642 C662 1.266 . S
O643 Tb588 2.393 1_554 S
O643 C662 1.248 . S
C644 O633 1.264 . S
C644 O634 1.243 . S
C645 C648 1.399 . S
C645 C650 1.383 . S
C645 C652 1.496 . S
C646 C647 1.399 . S
C646 C650 1.389 . S
C647 C646 1.399 . S
C647 C649 1.380 . S
C647 H664 0.929 . S
C648 C645 1.399 . S
C648 C649 1.392 . S
C648 H665 0.929 . S
C649 C647 1.380 . S
C649 C648 1.392 . S
C649 H666 0.929 . S
C650 C645 1.383 . S
C650 C646 1.389 . S
C650 H667 0.931 . S
C651 O636 1.266 . S
C651 O637 1.248 . S
C652 Tb588 2.802 . S
C652 O632 1.264 . S
C652 O635 1.256 . S
C652 C645 1.496 . S
C653 C620 1.448 . S
C653 H630 0.930 . S
C653 C654 1.328 . S
C654 C625 1.427 . S
C654 H631 0.929 . S
C654 C653 1.328 . S
C655 O639 1.264 . S
C655 O640 1.243 . S
C656 C659 1.399 . S
C656 C660 1.383 . S
C656 C663 1.496 . S
C657 C658 1.399 . S
C657 C660 1.389 . S
C658 C657 1.399 . S
C658 C661 1.380 . S
C658 H668 0.929 . S
C659 C656 1.399 . S
C659 C661 1.392 . S
C659 H669 0.929 . S
C660 C656 1.383 . S
C660 C657 1.389 . S
C660 H670 0.931 . S
C661 C658 1.380 . S
C661 C659 1.392 . S
C661 H671 0.929 . S
C662 O642 1.266 . S
C662 O643 1.248 . S
C663 Tb599 2.802 1_564 S
C663 O638 1.264 1_565 S
C663 O641 1.256 1_565 S
C663 C656 1.496 . S
H664 C647 0.929 . S
H665 C648 0.929 . S
H666 C649 0.929 . S
H667 C650 0.931 . S
H668 C658 0.929 . S
H669 C659 0.929 . S
H670 C660 0.931 . S
H671 C661 0.929 . S
Tb672 N701 2.617 . S
Tb672 N707 2.572 . S
Tb672 O716 2.465 . S
Tb672 O717 2.387 . S
Tb672 O719 2.428 . S
Tb672 O720 2.308 . S
Tb672 O724 2.349 . S
Tb672 O727 2.393 . S
Tb672 C736 2.802 . S
C673 N674 1.379 1_455 S
C673 C676 1.416 . S
C673 C680 1.424 . S
N674 C673 1.379 1_655 S
N674 C677 1.334 . S
N674 Tb683 2.617 . S
C675 C677 1.390 1_455 S
C675 C678 1.339 . S
C675 H695 0.930 1_565 S
C676 C673 1.416 . S
C676 C678 1.416 . S
C676 C682 1.448 . S
C677 N674 1.334 . S
C677 C675 1.390 1_655 S
C677 H688 0.930 . S
C678 C675 1.339 . S
C678 C676 1.416 . S
C678 H699 0.930 . S
C679 C680 1.413 . S
C679 C681 1.427 . S
C679 C685 1.416 . S
C680 C673 1.424 . S
C680 C679 1.413 . S
C680 N684 1.361 1_455 S
C681 C679 1.427 . S
C681 C682 1.328 . S
C681 H696 0.929 . S
C682 C676 1.448 . S
C682 C681 1.328 . S
C682 H697 0.930 . S
Tb683 N674 2.617 . S
Tb683 N684 2.572 . S
Tb683 O718 2.349 . S
Tb683 O721 2.393 . S
Tb683 O722 2.465 . S
Tb683 O723 2.387 . S
Tb683 O725 2.428 . S
Tb683 O726 2.308 . S
Tb683 C747 2.802 . S
N684 C680 1.361 1_655 S
N684 Tb683 2.572 . S
N684 C686 1.340 . S
C685 C679 1.416 . S
C685 C687 1.332 1_455 S
C685 H693 0.931 . S
C686 N684 1.340 . S
C686 C687 1.407 . S
C686 H692 0.930 . S
C687 C685 1.332 1_655 S
C687 C686 1.407 . S
C687 H689 0.929 . S
H688 C677 0.930 . S
H689 C687 0.929 . S
H690 C705 0.930 . S
H691 C712 0.929 . S
H692 C686 0.930 . S
H693 C685 0.931 . S
H694 C708 0.930 . S
H695 C675 0.930 1_545 S
H696 C681 0.929 . S
H697 C682 0.930 . S
H698 C703 0.930 . S
H699 C678 0.930 . S
H700 C711 0.917 1_545 S
N701 Tb672 2.617 . S
N701 C702 1.379 . S
N701 C705 1.334 . S
C702 N701 1.379 . S
C702 C704 1.416 . S
C702 C710 1.424 . S
C703 H698 0.930 . S
C703 C705 1.390 . S
C703 C706 1.339 . S
C704 C702 1.416 . S
C704 C706 1.416 . S
C704 C737 1.448 . S
C705 H690 0.930 . S
C705 N701 1.334 . S
C705 C703 1.390 . S
C706 C703 1.339 . S
C706 C704 1.416 . S
C706 H713 0.930 . S
N707 Tb672 2.572 . S
N707 C708 1.340 . S
N707 C710 1.361 . S
C708 H694 0.930 . S
C708 N707 1.340 . S
C708 C712 1.407 1_565 S
C709 C710 1.413 . S
C709 C711 1.434 . S
C709 C738 1.427 . S
C710 C702 1.424 . S
C710 N707 1.361 . S
C710 C709 1.413 . S
C711 H700 0.917 1_565 S
C711 C709 1.434 . S
C711 C712 1.328 1_565 S
C712 H691 0.929 . S
C712 C708 1.407 1_545 S
C712 C711 1.328 1_545 S
H713 C706 0.930 . S
H714 C737 0.930 . S
H715 C738 0.929 . S
O716 Tb672 2.465 . S
O716 C736 1.264 . S
O717 Tb672 2.387 . S
O717 C728 1.264 . S
O718 Tb683 2.349 . S
O718 C728 1.243 . S
O719 Tb672 2.428 . S
O719 C736 1.256 . S
O720 Tb672 2.308 . S
O720 C735 1.266 . S
O721 Tb683 2.393 . S
O721 C735 1.248 . S
O722 Tb683 2.465 . S
O722 C747 1.264 . S
O723 Tb683 2.387 . S
O723 C739 1.264 . S
O724 Tb672 2.349 . S
O724 C739 1.243 . S
O725 Tb683 2.428 . S
O725 C747 1.256 . S
O726 Tb683 2.308 . S
O726 C746 1.266 . S
O727 Tb672 2.393 . S
O727 C746 1.248 . S
C728 O717 1.264 . S
C728 O718 1.243 . S
C729 C732 1.399 . S
C729 C734 1.383 . S
C729 C736 1.496 . S
C730 C731 1.399 . S
C730 C734 1.389 . S
C731 C730 1.399 . S
C731 C733 1.380 . S
C731 H748 0.929 . S
C732 C729 1.399 . S
C732 C733 1.392 . S
C732 H749 0.929 . S
C733 C731 1.380 . S
C733 C732 1.392 . S
C733 H750 0.929 . S
C734 C729 1.383 . S
C734 C730 1.389 . S
C734 H751 0.931 . S
C735 O720 1.266 . S
C735 O721 1.248 . S
C736 Tb672 2.802 . S
C736 O716 1.264 . S
C736 O719 1.256 . S
C736 C729 1.496 . S
C737 C704 1.448 . S
C737 H714 0.930 . S
C737 C738 1.328 . S
C738 C709 1.427 . S
C738 H715 0.929 . S
C738 C737 1.328 . S
C739 O723 1.264 . S
C739 O724 1.243 . S
C740 C743 1.399 . S
C740 C744 1.383 . S
C740 C747 1.496 1_455 S
C741 C742 1.399 . S
C741 C744 1.389 . S
C742 C741 1.399 . S
C742 C745 1.380 . S
C742 H752 0.929 . S
C743 C740 1.399 . S
C743 C745 1.392 . S
C743 H753 0.929 . S
C744 C740 1.383 . S
C744 C741 1.389 . S
C744 H754 0.931 . S
C745 C742 1.380 . S
C745 C743 1.392 . S
C745 H755 0.929 . S
C746 O726 1.266 . S
C746 O727 1.248 . S
C747 Tb683 2.802 . S
C747 O722 1.264 . S
C747 O725 1.256 . S
C747 C740 1.496 1_655 S
H748 C731 0.929 . S
H749 C732 0.929 . S
H750 C733 0.929 . S
H751 C734 0.931 . S
H752 C742 0.929 . S
H753 C743 0.929 . S
H754 C744 0.931 . S
H755 C745 0.929 . S
Tb756 N785 2.617 . S
Tb756 N791 2.572 . S
Tb756 O800 2.465 . S
Tb756 O801 2.387 . S
Tb756 O803 2.428 . S
Tb756 O804 2.308 . S
Tb756 O808 2.349 . S
Tb756 O811 2.393 . S
Tb756 C820 2.802 1_545 S
C757 N758 1.379 . S
C757 C760 1.416 . S
C757 C764 1.424 . S
N758 C757 1.379 . S
N758 C761 1.334 . S
N758 Tb767 2.617 . S
C759 C761 1.390 . S
C759 C762 1.339 . S
C759 H779 0.930 . S
C760 C757 1.416 . S
C760 C762 1.416 . S
C760 C766 1.448 . S
C761 N758 1.334 . S
C761 C759 1.390 . S
C761 H772 0.930 . S
C762 C759 1.339 . S
C762 C760 1.416 . S
C762 H783 0.930 . S
C763 C764 1.413 . S
C763 C765 1.427 . S
C763 C769 1.416 . S
C764 C757 1.424 . S
C764 C763 1.413 . S
C764 N768 1.361 . S
C765 C763 1.427 . S
C765 C766 1.328 . S
C765 H780 0.929 . S
C766 C760 1.448 . S
C766 C765 1.328 . S
C766 H781 0.930 . S
Tb767 N758 2.617 . S
Tb767 N768 2.572 . S
Tb767 O802 2.349 . S
Tb767 O805 2.393 . S
Tb767 O806 2.465 . S
Tb767 O807 2.387 . S
Tb767 O809 2.428 . S
Tb767 O810 2.308 . S
Tb767 C831 2.802 . S
N768 C764 1.361 . S
N768 Tb767 2.572 . S
N768 C770 1.340 . S
C769 C763 1.416 . S
C769 C771 1.332 . S
C769 H777 0.931 . S
C770 N768 1.340 . S
C770 C771 1.407 . S
C770 H776 0.930 . S
C771 C769 1.332 . S
C771 C770 1.407 . S
C771 H773 0.929 . S
H772 C761 0.930 . S
H773 C771 0.929 . S
H774 C789 0.930 . S
H775 C796 0.929 . S
H776 C770 0.930 . S
H777 C769 0.931 . S
H778 C792 0.930 . S
H779 C759 0.930 . S
H780 C765 0.929 . S
H781 C766 0.930 . S
H782 C787 0.930 . S
H783 C762 0.930 . S
H784 C795 0.931 . S
N785 Tb756 2.617 . S
N785 C786 1.379 1_545 S
N785 C789 1.334 . S
C786 N785 1.379 1_565 S
C786 C788 1.416 . S
C786 C794 1.424 . S
C787 H782 0.930 . S
C787 C789 1.390 1_565 S
C787 C790 1.339 . S
C788 C786 1.416 . S
C788 C790 1.416 . S
C788 C821 1.448 . S
C789 H774 0.930 . S
C789 N785 1.334 . S
C789 C787 1.390 1_545 S
C790 C787 1.339 . S
C790 C788 1.416 . S
C790 H797 0.930 . S
N791 Tb756 2.572 . S
N791 C792 1.340 . S
N791 C794 1.361 1_545 S
C792 H778 0.930 . S
C792 N791 1.340 . S
C792 C796 1.407 1_545 S
C793 C794 1.413 . S
C793 C795 1.416 . S
C793 C822 1.427 . S
C794 C786 1.424 . S
C794 N791 1.361 1_565 S
C794 C793 1.413 . S
C795 H784 0.931 . S
C795 C793 1.416 . S
C795 C796 1.332 . S
C796 H775 0.929 . S
C796 C792 1.407 1_565 S
C796 C795 1.332 . S
H797 C790 0.930 . S
H798 C821 0.930 . S
H799 C822 0.929 . S
O800 Tb756 2.465 . S
O800 C820 1.264 1_545 S
O801 Tb756 2.387 . S
O801 C812 1.264 . S
O802 Tb767 2.349 . S
O802 C812 1.243 . S
O803 Tb756 2.428 . S
O803 C820 1.256 1_545 S
O804 Tb756 2.308 . S
O804 C819 1.266 . S
O805 Tb767 2.393 . S
O805 C819 1.248 . S
O806 Tb767 2.465 . S
O806 C831 1.264 . S
O807 Tb767 2.387 . S
O807 C823 1.264 . S
O808 Tb756 2.349 . S
O808 C823 1.243 . S
O809 Tb767 2.428 . S
O809 C831 1.256 . S
O810 Tb767 2.308 . S
O810 C830 1.266 . S
O811 Tb756 2.393 . S
O811 C830 1.248 . S
C812 O801 1.264 . S
C812 O802 1.243 . S
C813 C816 1.399 . S
C813 C818 1.383 . S
C813 C820 1.496 . S
C814 C815 1.399 . S
C814 C818 1.389 . S
C815 C814 1.399 . S
C815 C817 1.380 . S
C815 H832 0.929 . S
C816 C813 1.399 . S
C816 C817 1.392 . S
C816 H833 0.929 . S
C817 C815 1.380 . S
C817 C816 1.392 . S
C817 H834 0.929 . S
C818 C813 1.383 . S
C818 C814 1.389 . S
C818 H835 0.931 . S
C819 O804 1.266 . S
C819 O805 1.248 . S
C820 Tb756 2.802 1_565 S
C820 O800 1.264 1_565 S
C820 O803 1.256 1_565 S
C820 C813 1.496 . S
C821 C788 1.448 . S
C821 H798 0.930 . S
C821 C822 1.328 . S
C822 C793 1.427 . S
C822 H799 0.929 . S
C822 C821 1.328 . S
C823 O807 1.264 . S
C823 O808 1.243 . S
C824 C827 1.399 . S
C824 C828 1.383 . S
C824 C831 1.496 . S
C825 C826 1.399 . S
C825 C828 1.389 . S
C826 C825 1.399 . S
C826 C829 1.380 . S
C826 H836 0.929 . S
C827 C824 1.399 . S
C827 C829 1.392 . S
C827 H837 0.929 . S
C828 C824 1.383 . S
C828 C825 1.389 . S
C828 H838 0.931 . S
C829 C826 1.380 . S
C829 C827 1.392 . S
C829 H839 0.929 . S
C830 O810 1.266 . S
C830 O811 1.248 . S
C831 Tb767 2.802 . S
C831 O806 1.264 . S
C831 O809 1.256 . S
C831 C824 1.496 . S
H832 C815 0.929 . S
H833 C816 0.929 . S
H834 C817 0.929 . S
H835 C818 0.931 . S
H836 C826 0.929 . S
H837 C827 0.929 . S
H838 C828 0.931 . S
H839 C829 0.929 . S
Tb840 N869 2.617 . S
Tb840 N875 2.572 . S
Tb840 O884 2.465 . S
Tb840 O885 2.387 . S
Tb840 O887 2.428 . S
Tb840 O888 2.308 . S
Tb840 O892 2.349 . S
Tb840 O895 2.393 . S
Tb840 C904 2.802 . S
C841 N842 1.379 . S
C841 C844 1.416 . S
C841 C848 1.424 . S
N842 C841 1.379 . S
N842 C845 1.334 . S
N842 Tb851 2.617 . S
C843 C845 1.390 . S
C843 C846 1.339 . S
C843 H863 0.930 1_545 S
C844 C841 1.416 . S
C844 C846 1.416 . S
C844 C850 1.448 . S
C845 N842 1.334 . S
C845 C843 1.390 . S
C845 H856 0.930 . S
C846 C843 1.339 . S
C846 C844 1.416 . S
C846 H867 0.930 . S
C847 C848 1.413 . S
C847 C849 1.427 . S
C847 C853 1.416 . S
C848 C841 1.424 . S
C848 C847 1.413 . S
C848 N852 1.361 . S
C849 C847 1.427 . S
C849 C850 1.328 . S
C849 H864 0.929 . S
C850 C844 1.448 . S
C850 C849 1.328 . S
C850 H865 0.930 . S
Tb851 N842 2.617 . S
Tb851 N852 2.572 . S
Tb851 O886 2.349 . S
Tb851 O889 2.393 . S
Tb851 O890 2.465 . S
Tb851 O891 2.387 . S
Tb851 O893 2.428 . S
Tb851 O894 2.308 . S
Tb851 C915 2.802 . S
N852 C848 1.361 . S
N852 Tb851 2.572 . S
N852 C854 1.340 . S
C853 C847 1.416 . S
C853 C855 1.332 . S
C853 H861 0.931 . S
C854 N852 1.340 . S
C854 C855 1.407 . S
C854 H860 0.930 . S
C855 C853 1.332 . S
C855 C854 1.407 . S
C855 H857 0.929 . S
H856 C845 0.930 . S
H857 C855 0.929 . S
H858 C873 0.930 . S
H859 C880 0.929 . S
H860 C854 0.930 . S
H861 C853 0.931 . S
H862 C876 0.930 . S
H863 C843 0.930 1_565 S
H864 C849 0.929 . S
H865 C850 0.930 . S
H866 C871 0.930 . S
H867 C846 0.930 . S
H868 C879 0.917 1_565 S
N869 Tb840 2.617 . S
N869 C870 1.379 . S
N869 C873 1.334 . S
C870 N869 1.379 . S
C870 C872 1.416 . S
C870 C878 1.424 . S
C871 H866 0.930 . S
C871 C873 1.390 . S
C871 C874 1.339 . S
C872 C870 1.416 . S
C872 C874 1.416 . S
C872 C905 1.448 . S
C873 H858 0.930 . S
C873 N869 1.334 . S
C873 C871 1.390 . S
C874 C871 1.339 . S
C874 C872 1.416 . S
C874 H881 0.930 . S
N875 Tb840 2.572 . S
N875 C876 1.340 . S
N875 C878 1.361 . S
C876 H862 0.930 . S
C876 N875 1.340 . S
C876 C880 1.407 1_545 S
C877 C878 1.413 . S
C877 C879 1.434 . S
C877 C906 1.427 . S
C878 C870 1.424 . S
C878 N875 1.361 . S
C878 C877 1.413 . S
C879 H868 0.917 1_545 S
C879 C877 1.434 . S
C879 C880 1.328 1_545 S
C880 H859 0.929 . S
C880 C876 1.407 1_565 S
C880 C879 1.328 1_565 S
H881 C874 0.930 . S
H882 C905 0.930 . S
H883 C906 0.929 . S
O884 Tb840 2.465 . S
O884 C904 1.264 . S
O885 Tb840 2.387 . S
O885 C896 1.264 . S
O886 Tb851 2.349 . S
O886 C896 1.243 . S
O887 Tb840 2.428 . S
O887 C904 1.256 . S
O888 Tb840 2.308 . S
O888 C903 1.266 . S
O889 Tb851 2.393 . S
O889 C903 1.248 . S
O890 Tb851 2.465 . S
O890 C915 1.264 . S
O891 Tb851 2.387 . S
O891 C907 1.264 . S
O892 Tb840 2.349 . S
O892 C907 1.243 . S
O893 Tb851 2.428 . S
O893 C915 1.256 . S
O894 Tb851 2.308 . S
O894 C914 1.266 . S
O895 Tb840 2.393 . S
O895 C914 1.248 . S
C896 O885 1.264 . S
C896 O886 1.243 . S
C897 C900 1.399 . S
C897 C902 1.383 . S
C897 C904 1.496 . S
C898 C899 1.399 . S
C898 C902 1.389 . S
C899 C898 1.399 . S
C899 C901 1.380 . S
C899 H916 0.929 . S
C900 C897 1.399 . S
C900 C901 1.392 . S
C900 H917 0.929 . S
C901 C899 1.380 . S
C901 C900 1.392 . S
C901 H918 0.929 . S
C902 C897 1.383 . S
C902 C898 1.389 . S
C902 H919 0.931 . S
C903 O888 1.266 . S
C903 O889 1.248 . S
C904 Tb840 2.802 . S
C904 O884 1.264 . S
C904 O887 1.256 . S
C904 C897 1.496 . S
C905 C872 1.448 . S
C905 H882 0.930 . S
C905 C906 1.328 . S
C906 C877 1.427 . S
C906 H883 0.929 . S
C906 C905 1.328 . S
C907 O891 1.264 . S
C907 O892 1.243 . S
C908 C911 1.399 . S
C908 C912 1.383 . S
C908 C915 1.496 . S
C909 C910 1.399 . S
C909 C912 1.389 . S
C910 C909 1.399 . S
C910 C913 1.380 . S
C910 H920 0.929 . S
C911 C908 1.399 . S
C911 C913 1.392 . S
C911 H921 0.929 . S
C912 C908 1.383 . S
C912 C909 1.389 . S
C912 H922 0.931 . S
C913 C910 1.380 . S
C913 C911 1.392 . S
C913 H923 0.929 . S
C914 O894 1.266 . S
C914 O895 1.248 . S
C915 Tb851 2.802 . S
C915 O890 1.264 . S
C915 O893 1.256 . S
C915 C908 1.496 . S
H916 C899 0.929 . S
H917 C900 0.929 . S
H918 C901 0.929 . S
H919 C902 0.931 . S
H920 C910 0.929 . S
H921 C911 0.929 . S
H922 C912 0.931 . S
H923 C913 0.929 . S
Tb924 N953 2.617 . S
Tb924 N959 2.572 . S
Tb924 O968 2.465 1_556 S
Tb924 O969 2.387 . S
Tb924 O971 2.428 1_556 S
Tb924 O972 2.308 1_556 S
Tb924 O976 2.349 1_556 S
Tb924 O979 2.393 . S
Tb924 C988 2.802 1_566 S
C925 N926 1.379 . S
C925 C928 1.416 . S
C925 C932 1.424 . S
N926 C925 1.379 . S
N926 C929 1.334 . S
N926 Tb935 2.617 1_554 S
C927 C929 1.390 . S
C927 C930 1.339 . S
C927 H947 0.930 . S
C928 C925 1.416 . S
C928 C930 1.416 . S
C928 C934 1.448 . S
C929 N926 1.334 . S
C929 C927 1.390 . S
C929 H940 0.930 . S
C930 C927 1.339 . S
C930 C928 1.416 . S
C930 H951 0.930 . S
C931 C932 1.413 . S
C931 C933 1.427 . S
C931 C937 1.416 . S
C932 C925 1.424 . S
C932 C931 1.413 . S
C932 N936 1.361 . S
C933 C931 1.427 . S
C933 C934 1.328 . S
C933 H948 0.929 . S
C934 C928 1.448 . S
C934 C933 1.328 . S
C934 H949 0.930 . S
Tb935 N926 2.617 1_556 S
Tb935 N936 2.572 1_556 S
Tb935 O970 2.349 . S
Tb935 O973 2.393 1_556 S
Tb935 O974 2.465 . S
Tb935 O975 2.387 1_556 S
Tb935 O977 2.428 . S
Tb935 O978 2.308 . S
Tb935 C999 2.802 . S
N936 C932 1.361 . S
N936 Tb935 2.572 1_554 S
N936 C938 1.340 . S
C937 C931 1.416 . S
C937 C939 1.332 . S
C937 H945 0.931 . S
C938 N936 1.340 . S
C938 C939 1.407 . S
C938 H944 0.930 1_554 S
C939 C937 1.332 . S
C939 C938 1.407 . S
C939 H941 0.929 . S
H940 C929 0.930 . S
H941 C939 0.929 . S
H942 C957 0.930 . S
H943 C964 0.929 . S
H944 C938 0.930 1_556 S
H945 C937 0.931 . S
H946 C960 0.930 . S
H947 C927 0.930 . S
H948 C933 0.929 . S
H949 C934 0.930 . S
H950 C955 0.930 . S
H951 C930 0.930 . S
H952 C963 0.931 . S
N953 Tb924 2.617 . S
N953 C954 1.379 1_565 S
N953 C957 1.334 . S
C954 N953 1.379 1_545 S
C954 C956 1.416 . S
C954 C962 1.424 . S
C955 H950 0.930 . S
C955 C957 1.390 1_545 S
C955 C958 1.339 . S
C956 C954 1.416 . S
C956 C958 1.416 . S
C956 C989 1.448 . S
C957 H942 0.930 . S
C957 N953 1.334 . S
C957 C955 1.390 1_565 S
C958 C955 1.339 . S
C958 C956 1.416 . S
C958 H965 0.930 . S
N959 Tb924 2.572 . S
N959 C960 1.340 . S
N959 C962 1.361 1_565 S
C960 H946 0.930 . S
C960 N959 1.340 . S
C960 C964 1.407 1_565 S
C961 C962 1.413 . S
C961 C963 1.416 . S
C961 C990 1.427 . S
C962 C954 1.424 . S
C962 N959 1.361 1_545 S
C962 C961 1.413 . S
C963 H952 0.931 . S
C963 C961 1.416 . S
C963 C964 1.332 . S
C964 H943 0.929 . S
C964 C960 1.407 1_545 S
C964 C963 1.332 . S
H965 C958 0.930 . S
H966 C989 0.930 . S
H967 C990 0.929 . S
O968 Tb924 2.465 1_554 S
O968 C988 1.264 1_565 S
O969 Tb924 2.387 . S
O969 C980 1.264 . S
O970 Tb935 2.349 . S
O970 C980 1.243 . S
O971 Tb924 2.428 1_554 S
O971 C988 1.256 1_565 S
O972 Tb924 2.308 1_554 S
O972 C987 1.266 . S
O973 Tb935 2.393 1_554 S
O973 C987 1.248 . S
O974 Tb935 2.465 . S
O974 C999 1.264 . S
O975 Tb935 2.387 1_554 S
O975 C991 1.264 . S
O976 Tb924 2.349 1_554 S
O976 C991 1.243 . S
O977 Tb935 2.428 . S
O977 C999 1.256 . S
O978 Tb935 2.308 . S
O978 C998 1.266 . S
O979 Tb924 2.393 . S
O979 C998 1.248 . S
C980 O969 1.264 . S
C980 O970 1.243 . S
C981 C984 1.399 . S
C981 C986 1.383 . S
C981 C988 1.496 . S
C982 C983 1.399 . S
C982 C986 1.389 . S
C983 C982 1.399 . S
C983 C985 1.380 . S
C983 H1000 0.929 . S
C984 C981 1.399 . S
C984 C985 1.392 . S
C984 H1001 0.929 . S
C985 C983 1.380 . S
C985 C984 1.392 . S
C985 H1002 0.929 . S
C986 C981 1.383 . S
C986 C982 1.389 . S
C986 H1003 0.931 . S
C987 O972 1.266 . S
C987 O973 1.248 . S
C988 Tb924 2.802 1_544 S
C988 O968 1.264 1_545 S
C988 O971 1.256 1_545 S
C988 C981 1.496 . S
C989 C956 1.448 . S
C989 H966 0.930 . S
C989 C990 1.328 . S
C990 C961 1.427 . S
C990 H967 0.929 . S
C990 C989 1.328 . S
C991 O975 1.264 . S
C991 O976 1.243 . S
C992 C995 1.399 . S
C992 C996 1.383 . S
C992 C999 1.496 . S
C993 C994 1.399 . S
C993 C996 1.389 . S
C994 C993 1.399 . S
C994 C997 1.380 . S
C994 H1004 0.929 . S
C995 C992 1.399 . S
C995 C997 1.392 . S
C995 H1005 0.929 . S
C996 C992 1.383 . S
C996 C993 1.389 . S
C996 H1006 0.931 . S
C997 C994 1.380 . S
C997 C995 1.392 . S
C997 H1007 0.929 . S
C998 O978 1.266 . S
C998 O979 1.248 . S
C999 Tb935 2.802 . S
C999 O974 1.264 . S
C999 O977 1.256 . S
C999 C992 1.496 . S
H1000 C983 0.929 . S
H1001 C984 0.929 . S
H1002 C985 0.929 . S
H1003 C986 0.931 . S
H1004 C994 0.929 . S
H1005 C995 0.929 . S
H1006 C996 0.931 . S
H1007 C997 0.929 . S
Tb1008 N1037 2.617 . S
Tb1008 N1043 2.572 . S
Tb1008 O1052 2.465 . S
Tb1008 O1053 2.387 . S
Tb1008 O1055 2.428 . S
Tb1008 O1056 2.308 . S
Tb1008 O1060 2.349 . S
Tb1008 O1063 2.393 . S
Tb1008 C1072 2.802 . S
C1009 N1010 1.379 1_455 S
C1009 C1012 1.416 . S
C1009 C1016 1.424 . S
N1010 C1009 1.379 1_655 S
N1010 C1013 1.334 . S
N1010 Tb1019 2.617 . S
C1011 C1013 1.390 1_455 S
C1011 C1014 1.339 . S
C1011 H1031 0.930 1_545 S
C1012 C1009 1.416 . S
C1012 C1014 1.416 . S
C1012 C1018 1.448 . S
C1013 N1010 1.334 . S
C1013 C1011 1.390 1_655 S
C1013 H1024 0.930 . S
C1014 C1011 1.339 . S
C1014 C1012 1.416 . S
C1014 H1035 0.930 . S
C1015 C1016 1.413 . S
C1015 C1017 1.427 . S
C1015 C1021 1.416 . S
C1016 C1009 1.424 . S
C1016 C1015 1.413 . S
C1016 N1020 1.361 1_455 S
C1017 C1015 1.427 . S
C1017 C1018 1.328 . S
C1017 H1032 0.929 . S
C1018 C1012 1.448 . S
C1018 C1017 1.328 . S
C1018 H1033 0.930 . S
Tb1019 N1010 2.617 . S
Tb1019 N1020 2.572 . S
Tb1019 O1054 2.349 . S
Tb1019 O1057 2.393 . S
Tb1019 O1058 2.465 . S
Tb1019 O1059 2.387 . S
Tb1019 O1061 2.428 . S
Tb1019 O1062 2.308 . S
Tb1019 C1083 2.802 . S
N1020 C1016 1.361 1_655 S
N1020 Tb1019 2.572 . S
N1020 C1022 1.340 . S
C1021 C1015 1.416 . S
C1021 C1023 1.332 1_455 S
C1021 H1029 0.931 . S
C1022 N1020 1.340 . S
C1022 C1023 1.407 . S
C1022 H1028 0.930 . S
C1023 C1021 1.332 1_655 S
C1023 C1022 1.407 . S
C1023 H1025 0.929 . S
H1024 C1013 0.930 . S
H1025 C1023 0.929 . S
H1026 C1041 0.930 . S
H1027 C1048 0.929 . S
H1028 C1022 0.930 . S
H1029 C1021 0.931 . S
H1030 C1044 0.930 . S
H1031 C1011 0.930 1_565 S
H1032 C1017 0.929 . S
H1033 C1018 0.930 . S
H1034 C1039 0.930 . S
H1035 C1014 0.930 . S
H1036 C1047 0.917 1_565 S
N1037 Tb1008 2.617 . S
N1037 C1038 1.379 . S
N1037 C1041 1.334 . S
C1038 N1037 1.379 . S
C1038 C1040 1.416 . S
C1038 C1046 1.424 . S
C1039 H1034 0.930 . S
C1039 C1041 1.390 . S
C1039 C1042 1.339 . S
C1040 C1038 1.416 . S
C1040 C1042 1.416 . S
C1040 C1073 1.448 . S
C1041 H1026 0.930 . S
C1041 N1037 1.334 . S
C1041 C1039 1.390 . S
C1042 C1039 1.339 . S
C1042 C1040 1.416 . S
C1042 H1049 0.930 . S
N1043 Tb1008 2.572 . S
N1043 C1044 1.340 . S
N1043 C1046 1.361 . S
C1044 H1030 0.930 . S
C1044 N1043 1.340 . S
C1044 C1048 1.407 1_545 S
C1045 C1046 1.413 . S
C1045 C1047 1.434 . S
C1045 C1074 1.427 . S
C1046 C1038 1.424 . S
C1046 N1043 1.361 . S
C1046 C1045 1.413 . S
C1047 H1036 0.917 1_545 S
C1047 C1045 1.434 . S
C1047 C1048 1.328 1_545 S
C1048 H1027 0.929 . S
C1048 C1044 1.407 1_565 S
C1048 C1047 1.328 1_565 S
H1049 C1042 0.930 . S
H1050 C1073 0.930 . S
H1051 C1074 0.929 . S
O1052 Tb1008 2.465 . S
O1052 C1072 1.264 . S
O1053 Tb1008 2.387 . S
O1053 C1064 1.264 . S
O1054 Tb1019 2.349 . S
O1054 C1064 1.243 . S
O1055 Tb1008 2.428 . S
O1055 C1072 1.256 . S
O1056 Tb1008 2.308 . S
O1056 C1071 1.266 . S
O1057 Tb1019 2.393 . S
O1057 C1071 1.248 . S
O1058 Tb1019 2.465 . S
O1058 C1083 1.264 . S
O1059 Tb1019 2.387 . S
O1059 C1075 1.264 . S
O1060 Tb1008 2.349 . S
O1060 C1075 1.243 . S
O1061 Tb1019 2.428 . S
O1061 C1083 1.256 . S
O1062 Tb1019 2.308 . S
O1062 C1082 1.266 . S
O1063 Tb1008 2.393 . S
O1063 C1082 1.248 . S
C1064 O1053 1.264 . S
C1064 O1054 1.243 . S
C1065 C1068 1.399 . S
C1065 C1070 1.383 . S
C1065 C1072 1.496 . S
C1066 C1067 1.399 . S
C1066 C1070 1.389 . S
C1067 C1066 1.399 . S
C1067 C1069 1.380 . S
C1067 H1084 0.929 . S
C1068 C1065 1.399 . S
C1068 C1069 1.392 . S
C1068 H1085 0.929 . S
C1069 C1067 1.380 . S
C1069 C1068 1.392 . S
C1069 H1086 0.929 . S
C1070 C1065 1.383 . S
C1070 C1066 1.389 . S
C1070 H1087 0.931 . S
C1071 O1056 1.266 . S
C1071 O1057 1.248 . S
C1072 Tb1008 2.802 . S
C1072 O1052 1.264 . S
C1072 O1055 1.256 . S
C1072 C1065 1.496 . S
C1073 C1040 1.448 . S
C1073 H1050 0.930 . S
C1073 C1074 1.328 . S
C1074 C1045 1.427 . S
C1074 H1051 0.929 . S
C1074 C1073 1.328 . S
C1075 O1059 1.264 . S
C1075 O1060 1.243 . S
C1076 C1079 1.399 . S
C1076 C1080 1.383 . S
C1076 C1083 1.496 1_455 S
C1077 C1078 1.399 . S
C1077 C1080 1.389 . S
C1078 C1077 1.399 . S
C1078 C1081 1.380 . S
C1078 H1088 0.929 . S
C1079 C1076 1.399 . S
C1079 C1081 1.392 . S
C1079 H1089 0.929 . S
C1080 C1076 1.383 . S
C1080 C1077 1.389 . S
C1080 H1090 0.931 . S
C1081 C1078 1.380 . S
C1081 C1079 1.392 . S
C1081 H1091 0.929 . S
C1082 O1062 1.266 . S
C1082 O1063 1.248 . S
C1083 Tb1019 2.802 . S
C1083 O1058 1.264 . S
C1083 O1061 1.256 . S
C1083 C1076 1.496 1_655 S
H1084 C1067 0.929 . S
H1085 C1068 0.929 . S
H1086 C1069 0.929 . S
H1087 C1070 0.931 . S
H1088 C1078 0.929 . S
H1089 C1079 0.929 . S
H1090 C1080 0.931 . S
H1091 C1081 0.929 . S
Tb1092 N1121 2.617 . S
Tb1092 N1127 2.572 . S
Tb1092 O1136 2.465 . S
Tb1092 O1137 2.387 . S
Tb1092 O1139 2.428 . S
Tb1092 O1140 2.308 . S
Tb1092 O1144 2.349 . S
Tb1092 O1147 2.393 . S
Tb1092 C1156 2.802 1_545 S
C1093 N1094 1.379 . S
C1093 C1096 1.416 . S
C1093 C1100 1.424 . S
N1094 C1093 1.379 . S
N1094 C1097 1.334 . S
N1094 Tb1103 2.617 . S
C1095 C1097 1.390 . S
C1095 C1098 1.339 . S
C1095 H1115 0.930 . S
C1096 C1093 1.416 . S
C1096 C1098 1.416 . S
C1096 C1102 1.448 . S
C1097 N1094 1.334 . S
C1097 C1095 1.390 . S
C1097 H1108 0.930 . S
C1098 C1095 1.339 . S
C1098 C1096 1.416 . S
C1098 H1119 0.930 . S
C1099 C1100 1.413 . S
C1099 C1101 1.427 . S
C1099 C1105 1.416 . S
C1100 C1093 1.424 . S
C1100 C1099 1.413 . S
C1100 N1104 1.361 . S
C1101 C1099 1.427 . S
C1101 C1102 1.328 . S
C1101 H1116 0.929 . S
C1102 C1096 1.448 . S
C1102 C1101 1.328 . S
C1102 H1117 0.930 . S
Tb1103 N1094 2.617 . S
Tb1103 N1104 2.572 . S
Tb1103 O1138 2.349 . S
Tb1103 O1141 2.393 . S
Tb1103 O1142 2.465 . S
Tb1103 O1143 2.387 . S
Tb1103 O1145 2.428 . S
Tb1103 O1146 2.308 . S
Tb1103 C1167 2.802 . S
N1104 C1100 1.361 . S
N1104 Tb1103 2.572 . S
N1104 C1106 1.340 . S
C1105 C1099 1.416 . S
C1105 C1107 1.332 . S
C1105 H1113 0.931 . S
C1106 N1104 1.340 . S
C1106 C1107 1.407 . S
C1106 H1112 0.930 . S
C1107 C1105 1.332 . S
C1107 C1106 1.407 . S
C1107 H1109 0.929 . S
H1108 C1097 0.930 . S
H1109 C1107 0.929 . S
H1110 C1125 0.930 . S
H1111 C1132 0.929 . S
H1112 C1106 0.930 . S
H1113 C1105 0.931 . S
H1114 C1128 0.930 . S
H1115 C1095 0.930 . S
H1116 C1101 0.929 . S
H1117 C1102 0.930 . S
H1118 C1123 0.930 . S
H1119 C1098 0.930 . S
H1120 C1131 0.931 . S
N1121 Tb1092 2.617 . S
N1121 C1122 1.379 1_545 S
N1121 C1125 1.334 . S
C1122 N1121 1.379 1_565 S
C1122 C1124 1.416 . S
C1122 C1130 1.424 . S
C1123 H1118 0.930 . S
C1123 C1125 1.390 1_565 S
C1123 C1126 1.339 . S
C1124 C1122 1.416 . S
C1124 C1126 1.416 . S
C1124 C1157 1.448 . S
C1125 H1110 0.930 . S
C1125 N1121 1.334 . S
C1125 C1123 1.390 1_545 S
C1126 C1123 1.339 . S
C1126 C1124 1.416 . S
C1126 H1133 0.930 . S
N1127 Tb1092 2.572 . S
N1127 C1128 1.340 . S
N1127 C1130 1.361 1_545 S
C1128 H1114 0.930 . S
C1128 N1127 1.340 . S
C1128 C1132 1.407 1_545 S
C1129 C1130 1.413 . S
C1129 C1131 1.416 . S
C1129 C1158 1.427 . S
C1130 C1122 1.424 . S
C1130 N1127 1.361 1_565 S
C1130 C1129 1.413 . S
C1131 H1120 0.931 . S
C1131 C1129 1.416 . S
C1131 C1132 1.332 . S
C1132 H1111 0.929 . S
C1132 C1128 1.407 1_565 S
C1132 C1131 1.332 . S
H1133 C1126 0.930 . S
H1134 C1157 0.930 . S
H1135 C1158 0.929 . S
O1136 Tb1092 2.465 . S
O1136 C1156 1.264 1_545 S
O1137 Tb1092 2.387 . S
O1137 C1148 1.264 . S
O1138 Tb1103 2.349 . S
O1138 C1148 1.243 . S
O1139 Tb1092 2.428 . S
O1139 C1156 1.256 1_545 S
O1140 Tb1092 2.308 . S
O1140 C1155 1.266 . S
O1141 Tb1103 2.393 . S
O1141 C1155 1.248 . S
O1142 Tb1103 2.465 . S
O1142 C1167 1.264 . S
O1143 Tb1103 2.387 . S
O1143 C1159 1.264 . S
O1144 Tb1092 2.349 . S
O1144 C1159 1.243 . S
O1145 Tb1103 2.428 . S
O1145 C1167 1.256 . S
O1146 Tb1103 2.308 . S
O1146 C1166 1.266 . S
O1147 Tb1092 2.393 . S
O1147 C1166 1.248 . S
C1148 O1137 1.264 . S
C1148 O1138 1.243 . S
C1149 C1152 1.399 . S
C1149 C1154 1.383 . S
C1149 C1156 1.496 . S
C1150 C1151 1.399 . S
C1150 C1154 1.389 . S
C1151 C1150 1.399 . S
C1151 C1153 1.380 . S
C1151 H1168 0.929 . S
C1152 C1149 1.399 . S
C1152 C1153 1.392 . S
C1152 H1169 0.929 . S
C1153 C1151 1.380 . S
C1153 C1152 1.392 . S
C1153 H1170 0.929 . S
C1154 C1149 1.383 . S
C1154 C1150 1.389 . S
C1154 H1171 0.931 . S
C1155 O1140 1.266 . S
C1155 O1141 1.248 . S
C1156 Tb1092 2.802 1_565 S
C1156 O1136 1.264 1_565 S
C1156 O1139 1.256 1_565 S
C1156 C1149 1.496 . S
C1157 C1124 1.448 . S
C1157 H1134 0.930 . S
C1157 C1158 1.328 . S
C1158 C1129 1.427 . S
C1158 H1135 0.929 . S
C1158 C1157 1.328 . S
C1159 O1143 1.264 . S
C1159 O1144 1.243 . S
C1160 C1163 1.399 . S
C1160 C1164 1.383 . S
C1160 C1167 1.496 . S
C1161 C1162 1.399 . S
C1161 C1164 1.389 . S
C1162 C1161 1.399 . S
C1162 C1165 1.380 . S
C1162 H1172 0.929 . S
C1163 C1160 1.399 . S
C1163 C1165 1.392 . S
C1163 H1173 0.929 . S
C1164 C1160 1.383 . S
C1164 C1161 1.389 . S
C1164 H1174 0.931 . S
C1165 C1162 1.380 . S
C1165 C1163 1.392 . S
C1165 H1175 0.929 . S
C1166 O1146 1.266 . S
C1166 O1147 1.248 . S
C1167 Tb1103 2.802 . S
C1167 O1142 1.264 . S
C1167 O1145 1.256 . S
C1167 C1160 1.496 . S
H1168 C1151 0.929 . S
H1169 C1152 0.929 . S
H1170 C1153 0.929 . S
H1171 C1154 0.931 . S
H1172 C1162 0.929 . S
H1173 C1163 0.929 . S
H1174 C1164 0.931 . S
H1175 C1165 0.929 . S
Tb1176 N1205 2.617 . S
Tb1176 N1211 2.572 . S
Tb1176 O1220 2.465 . S
Tb1176 O1221 2.387 . S
Tb1176 O1223 2.428 . S
Tb1176 O1224 2.308 . S
Tb1176 O1228 2.349 . S
Tb1176 O1231 2.393 . S
Tb1176 C1240 2.802 . S
C1177 N1178 1.379 . S
C1177 C1180 1.416 . S
C1177 C1184 1.424 . S
N1178 C1177 1.379 . S
N1178 C1181 1.334 . S
N1178 Tb1187 2.617 . S
C1179 C1181 1.390 . S
C1179 C1182 1.339 . S
C1179 H1199 0.930 1_565 S
C1180 C1177 1.416 . S
C1180 C1182 1.416 . S
C1180 C1186 1.448 . S
C1181 N1178 1.334 . S
C1181 C1179 1.390 . S
C1181 H1192 0.930 . S
C1182 C1179 1.339 . S
C1182 C1180 1.416 . S
C1182 H1203 0.930 . S
C1183 C1184 1.413 . S
C1183 C1185 1.427 . S
C1183 C1189 1.416 . S
C1184 C1177 1.424 . S
C1184 C1183 1.413 . S
C1184 N1188 1.361 . S
C1185 C1183 1.427 . S
C1185 C1186 1.328 . S
C1185 H1200 0.929 . S
C1186 C1180 1.448 . S
C1186 C1185 1.328 . S
C1186 H1201 0.930 . S
Tb1187 N1178 2.617 . S
Tb1187 N1188 2.572 . S
Tb1187 O1222 2.349 . S
Tb1187 O1225 2.393 . S
Tb1187 O1226 2.465 . S
Tb1187 O1227 2.387 . S
Tb1187 O1229 2.428 . S
Tb1187 O1230 2.308 . S
Tb1187 C1251 2.802 . S
N1188 C1184 1.361 . S
N1188 Tb1187 2.572 . S
N1188 C1190 1.340 . S
C1189 C1183 1.416 . S
C1189 C1191 1.332 . S
C1189 H1197 0.931 . S
C1190 N1188 1.340 . S
C1190 C1191 1.407 . S
C1190 H1196 0.930 . S
C1191 C1189 1.332 . S
C1191 C1190 1.407 . S
C1191 H1193 0.929 . S
H1192 C1181 0.930 . S
H1193 C1191 0.929 . S
H1194 C1209 0.930 . S
H1195 C1216 0.929 . S
H1196 C1190 0.930 . S
H1197 C1189 0.931 . S
H1198 C1212 0.930 . S
H1199 C1179 0.930 1_545 S
H1200 C1185 0.929 . S
H1201 C1186 0.930 . S
H1202 C1207 0.930 . S
H1203 C1182 0.930 . S
H1204 C1215 0.917 1_545 S
N1205 Tb1176 2.617 . S
N1205 C1206 1.379 . S
N1205 C1209 1.334 . S
C1206 N1205 1.379 . S
C1206 C1208 1.416 . S
C1206 C1214 1.424 . S
C1207 H1202 0.930 . S
C1207 C1209 1.390 . S
C1207 C1210 1.339 . S
C1208 C1206 1.416 . S
C1208 C1210 1.416 . S
C1208 C1241 1.448 . S
C1209 H1194 0.930 . S
C1209 N1205 1.334 . S
C1209 C1207 1.390 . S
C1210 C1207 1.339 . S
C1210 C1208 1.416 . S
C1210 H1217 0.930 . S
N1211 Tb1176 2.572 . S
N1211 C1212 1.340 . S
N1211 C1214 1.361 . S
C1212 H1198 0.930 . S
C1212 N1211 1.340 . S
C1212 C1216 1.407 1_565 S
C1213 C1214 1.413 . S
C1213 C1215 1.434 . S
C1213 C1242 1.427 . S
C1214 C1206 1.424 . S
C1214 N1211 1.361 . S
C1214 C1213 1.413 . S
C1215 H1204 0.917 1_565 S
C1215 C1213 1.434 . S
C1215 C1216 1.328 1_565 S
C1216 H1195 0.929 . S
C1216 C1212 1.407 1_545 S
C1216 C1215 1.328 1_545 S
H1217 C1210 0.930 . S
H1218 C1241 0.930 . S
H1219 C1242 0.929 . S
O1220 Tb1176 2.465 . S
O1220 C1240 1.264 . S
O1221 Tb1176 2.387 . S
O1221 C1232 1.264 . S
O1222 Tb1187 2.349 . S
O1222 C1232 1.243 . S
O1223 Tb1176 2.428 . S
O1223 C1240 1.256 . S
O1224 Tb1176 2.308 . S
O1224 C1239 1.266 . S
O1225 Tb1187 2.393 . S
O1225 C1239 1.248 . S
O1226 Tb1187 2.465 . S
O1226 C1251 1.264 . S
O1227 Tb1187 2.387 . S
O1227 C1243 1.264 . S
O1228 Tb1176 2.349 . S
O1228 C1243 1.243 . S
O1229 Tb1187 2.428 . S
O1229 C1251 1.256 . S
O1230 Tb1187 2.308 . S
O1230 C1250 1.266 . S
O1231 Tb1176 2.393 . S
O1231 C1250 1.248 . S
C1232 O1221 1.264 . S
C1232 O1222 1.243 . S
C1233 C1236 1.399 . S
C1233 C1238 1.383 . S
C1233 C1240 1.496 . S
C1234 C1235 1.399 . S
C1234 C1238 1.389 . S
C1235 C1234 1.399 . S
C1235 C1237 1.380 . S
C1235 H1252 0.929 . S
C1236 C1233 1.399 . S
C1236 C1237 1.392 . S
C1236 H1253 0.929 . S
C1237 C1235 1.380 . S
C1237 C1236 1.392 . S
C1237 H1254 0.929 . S
C1238 C1233 1.383 . S
C1238 C1234 1.389 . S
C1238 H1255 0.931 . S
C1239 O1224 1.266 . S
C1239 O1225 1.248 . S
C1240 Tb1176 2.802 . S
C1240 O1220 1.264 . S
C1240 O1223 1.256 . S
C1240 C1233 1.496 . S
C1241 C1208 1.448 . S
C1241 H1218 0.930 . S
C1241 C1242 1.328 . S
C1242 C1213 1.427 . S
C1242 H1219 0.929 . S
C1242 C1241 1.328 . S
C1243 O1227 1.264 . S
C1243 O1228 1.243 . S
C1244 C1247 1.399 . S
C1244 C1248 1.383 . S
C1244 C1251 1.496 . S
C1245 C1246 1.399 . S
C1245 C1248 1.389 . S
C1246 C1245 1.399 . S
C1246 C1249 1.380 . S
C1246 H1256 0.929 . S
C1247 C1244 1.399 . S
C1247 C1249 1.392 . S
C1247 H1257 0.929 . S
C1248 C1244 1.383 . S
C1248 C1245 1.389 . S
C1248 H1258 0.931 . S
C1249 C1246 1.380 . S
C1249 C1247 1.392 . S
C1249 H1259 0.929 . S
C1250 O1230 1.266 . S
C1250 O1231 1.248 . S
C1251 Tb1187 2.802 . S
C1251 O1226 1.264 . S
C1251 O1229 1.256 . S
C1251 C1244 1.496 . S
H1252 C1235 0.929 . S
H1253 C1236 0.929 . S
H1254 C1237 0.929 . S
H1255 C1238 0.931 . S
H1256 C1246 0.929 . S
H1257 C1247 0.929 . S
H1258 C1248 0.931 . S
H1259 C1249 0.929 . S
Tb1260 N1289 2.617 . S
Tb1260 N1295 2.572 . S
Tb1260 O1304 2.465 1_554 S
Tb1260 O1305 2.387 . S
Tb1260 O1307 2.428 1_554 S
Tb1260 O1308 2.308 1_554 S
Tb1260 O1312 2.349 1_554 S
Tb1260 O1315 2.393 . S
Tb1260 C1324 2.802 1_564 S
C1261 N1262 1.379 . S
C1261 C1264 1.416 . S
C1261 C1268 1.424 . S
N1262 C1261 1.379 . S
N1262 C1265 1.334 . S
N1262 Tb1271 2.617 1_556 S
C1263 C1265 1.390 . S
C1263 C1266 1.339 . S
C1263 H1283 0.930 . S
C1264 C1261 1.416 . S
C1264 C1266 1.416 . S
C1264 C1270 1.448 . S
C1265 N1262 1.334 . S
C1265 C1263 1.390 . S
C1265 H1276 0.930 . S
C1266 C1263 1.339 . S
C1266 C1264 1.416 . S
C1266 H1287 0.930 . S
C1267 C1268 1.413 . S
C1267 C1269 1.427 . S
C1267 C1273 1.416 . S
C1268 C1261 1.424 . S
C1268 C1267 1.413 . S
C1268 N1272 1.361 . S
C1269 C1267 1.427 . S
C1269 C1270 1.328 . S
C1269 H1284 0.929 . S
C1270 C1264 1.448 . S
C1270 C1269 1.328 . S
C1270 H1285 0.930 . S
Tb1271 N1262 2.617 1_554 S
Tb1271 N1272 2.572 1_554 S
Tb1271 O1306 2.349 . S
Tb1271 O1309 2.393 1_554 S
Tb1271 O1310 2.465 . S
Tb1271 O1311 2.387 1_554 S
Tb1271 O1313 2.428 . S
Tb1271 O1314 2.308 . S
Tb1271 C1335 2.802 . S
N1272 C1268 1.361 . S
N1272 Tb1271 2.572 1_556 S
N1272 C1274 1.340 . S
C1273 C1267 1.416 . S
C1273 C1275 1.332 . S
C1273 H1281 0.931 . S
C1274 N1272 1.340 . S
C1274 C1275 1.407 . S
C1274 H1280 0.930 1_556 S
C1275 C1273 1.332 . S
C1275 C1274 1.407 . S
C1275 H1277 0.929 . S
H1276 C1265 0.930 . S
H1277 C1275 0.929 . S
H1278 C1293 0.930 . S
H1279 C1300 0.929 . S
H1280 C1274 0.930 1_554 S
H1281 C1273 0.931 . S
H1282 C1296 0.930 . S
H1283 C1263 0.930 . S
H1284 C1269 0.929 . S
H1285 C1270 0.930 . S
H1286 C1291 0.930 . S
H1287 C1266 0.930 . S
H1288 C1299 0.931 . S
N1289 Tb1260 2.617 . S
N1289 C1290 1.379 1_565 S
N1289 C1293 1.334 . S
C1290 N1289 1.379 1_545 S
C1290 C1292 1.416 . S
C1290 C1298 1.424 . S
C1291 H1286 0.930 . S
C1291 C1293 1.390 1_545 S
C1291 C1294 1.339 . S
C1292 C1290 1.416 . S
C1292 C1294 1.416 . S
C1292 C1325 1.448 . S
C1293 H1278 0.930 . S
C1293 N1289 1.334 . S
C1293 C1291 1.390 1_565 S
C1294 C1291 1.339 . S
C1294 C1292 1.416 . S
C1294 H1301 0.930 . S
N1295 Tb1260 2.572 . S
N1295 C1296 1.340 . S
N1295 C1298 1.361 1_565 S
C1296 H1282 0.930 . S
C1296 N1295 1.340 . S
C1296 C1300 1.407 1_565 S
C1297 C1298 1.413 . S
C1297 C1299 1.416 . S
C1297 C1326 1.427 . S
C1298 C1290 1.424 . S
C1298 N1295 1.361 1_545 S
C1298 C1297 1.413 . S
C1299 H1288 0.931 . S
C1299 C1297 1.416 . S
C1299 C1300 1.332 . S
C1300 H1279 0.929 . S
C1300 C1296 1.407 1_545 S
C1300 C1299 1.332 . S
H1301 C1294 0.930 . S
H1302 C1325 0.930 . S
H1303 C1326 0.929 . S
O1304 Tb1260 2.465 1_556 S
O1304 C1324 1.264 1_565 S
O1305 Tb1260 2.387 . S
O1305 C1316 1.264 . S
O1306 Tb1271 2.349 . S
O1306 C1316 1.243 . S
O1307 Tb1260 2.428 1_556 S
O1307 C1324 1.256 1_565 S
O1308 Tb1260 2.308 1_556 S
O1308 C1323 1.266 . S
O1309 Tb1271 2.393 1_556 S
O1309 C1323 1.248 . S
O1310 Tb1271 2.465 . S
O1310 C1335 1.264 . S
O1311 Tb1271 2.387 1_556 S
O1311 C1327 1.264 . S
O1312 Tb1260 2.349 1_556 S
O1312 C1327 1.243 . S
O1313 Tb1271 2.428 . S
O1313 C1335 1.256 . S
O1314 Tb1271 2.308 . S
O1314 C1334 1.266 . S
O1315 Tb1260 2.393 . S
O1315 C1334 1.248 . S
C1316 O1305 1.264 . S
C1316 O1306 1.243 . S
C1317 C1320 1.399 . S
C1317 C1322 1.383 . S
C1317 C1324 1.496 . S
C1318 C1319 1.399 . S
C1318 C1322 1.389 . S
C1319 C1318 1.399 . S
C1319 C1321 1.380 . S
C1319 H1336 0.929 . S
C1320 C1317 1.399 . S
C1320 C1321 1.392 . S
C1320 H1337 0.929 . S
C1321 C1319 1.380 . S
C1321 C1320 1.392 . S
C1321 H1338 0.929 . S
C1322 C1317 1.383 . S
C1322 C1318 1.389 . S
C1322 H1339 0.931 . S
C1323 O1308 1.266 . S
C1323 O1309 1.248 . S
C1324 Tb1260 2.802 1_546 S
C1324 O1304 1.264 1_545 S
C1324 O1307 1.256 1_545 S
C1324 C1317 1.496 . S
C1325 C1292 1.448 . S
C1325 H1302 0.930 . S
C1325 C1326 1.328 . S
C1326 C1297 1.427 . S
C1326 H1303 0.929 . S
C1326 C1325 1.328 . S
C1327 O1311 1.264 . S
C1327 O1312 1.243 . S
C1328 C1331 1.399 . S
C1328 C1332 1.383 . S
C1328 C1335 1.496 . S
C1329 C1330 1.399 . S
C1329 C1332 1.389 . S
C1330 C1329 1.399 . S
C1330 C1333 1.380 . S
C1330 H1340 0.929 . S
C1331 C1328 1.399 . S
C1331 C1333 1.392 . S
C1331 H1341 0.929 . S
C1332 C1328 1.383 . S
C1332 C1329 1.389 . S
C1332 H1342 0.931 . S
C1333 C1330 1.380 . S
C1333 C1331 1.392 . S
C1333 H1343 0.929 . S
C1334 O1314 1.266 . S
C1334 O1315 1.248 . S
C1335 Tb1271 2.802 . S
C1335 O1310 1.264 . S
C1335 O1313 1.256 . S
C1335 C1328 1.496 . S
H1336 C1319 0.929 . S
H1337 C1320 0.929 . S
H1338 C1321 0.929 . S
H1339 C1322 0.931 . S
H1340 C1330 0.929 . S
H1341 C1331 0.929 . S
H1342 C1332 0.931 . S
H1343 C1333 0.929 . S
Tb1344 N1373 2.617 . S
Tb1344 N1379 2.572 . S
Tb1344 O1388 2.465 . S
Tb1344 O1389 2.387 . S
Tb1344 O1391 2.428 . S
Tb1344 O1392 2.308 . S
Tb1344 O1396 2.349 . S
Tb1344 O1399 2.393 . S
Tb1344 C1408 2.802 . S
C1345 N1346 1.379 . S
C1345 C1348 1.416 . S
C1345 C1352 1.424 . S
N1346 C1345 1.379 . S
N1346 C1349 1.334 . S
N1346 Tb1355 2.617 . S
C1347 C1349 1.390 . S
C1347 C1350 1.339 . S
C1347 H1367 0.930 . S
C1348 C1345 1.416 . S
C1348 C1350 1.416 . S
C1348 C1354 1.448 . S
C1349 N1346 1.334 . S
C1349 C1347 1.390 . S
C1349 H1360 0.930 . S
C1350 C1347 1.339 . S
C1350 C1348 1.416 . S
C1350 H1371 0.930 . S
C1351 C1352 1.413 . S
C1351 C1353 1.427 . S
C1351 C1357 1.416 . S
C1352 C1345 1.424 . S
C1352 C1351 1.413 . S
C1352 N1356 1.361 . S
C1353 C1351 1.427 . S
C1353 C1354 1.328 . S
C1353 H1368 0.929 . S
C1354 C1348 1.448 . S
C1354 C1353 1.328 . S
C1354 H1369 0.930 . S
Tb1355 N1346 2.617 . S
Tb1355 N1356 2.572 . S
Tb1355 O1390 2.349 . S
Tb1355 O1393 2.393 . S
Tb1355 O1394 2.465 . S
Tb1355 O1395 2.387 . S
Tb1355 O1397 2.428 . S
Tb1355 O1398 2.308 . S
Tb1355 C1419 2.802 . S
N1356 C1352 1.361 . S
N1356 Tb1355 2.572 . S
N1356 C1358 1.340 . S
C1357 C1351 1.416 . S
C1357 C1359 1.332 . S
C1357 H1365 0.931 . S
C1358 N1356 1.340 . S
C1358 C1359 1.407 . S
C1358 H1364 0.930 . S
C1359 C1357 1.332 . S
C1359 C1358 1.407 . S
C1359 H1361 0.929 . S
H1360 C1349 0.930 . S
H1361 C1359 0.929 . S
H1362 C1377 0.930 . S
H1363 C1384 0.929 . S
H1364 C1358 0.930 . S
H1365 C1357 0.931 . S
H1366 C1380 0.930 . S
H1367 C1347 0.930 . S
H1368 C1353 0.929 . S
H1369 C1354 0.930 . S
H1370 C1375 0.930 . S
H1371 C1350 0.930 . S
H1372 C1383 0.931 . S
N1373 Tb1344 2.617 . S
N1373 C1374 1.379 . S
N1373 C1377 1.334 . S
C1374 N1373 1.379 . S
C1374 C1376 1.416 . S
C1374 C1382 1.424 . S
C1375 H1370 0.930 . S
C1375 C1377 1.390 . S
C1375 C1378 1.339 . S
C1376 C1374 1.416 . S
C1376 C1378 1.416 . S
C1376 C1409 1.448 . S
C1377 H1362 0.930 . S
C1377 N1373 1.334 . S
C1377 C1375 1.390 . S
C1378 C1375 1.339 . S
C1378 C1376 1.416 . S
C1378 H1385 0.930 . S
N1379 Tb1344 2.572 . S
N1379 C1380 1.340 . S
N1379 C1382 1.361 . S
C1380 H1366 0.930 . S
C1380 N1379 1.340 . S
C1380 C1384 1.407 . S
C1381 C1382 1.413 . S
C1381 C1383 1.416 . S
C1381 C1410 1.427 . S
C1382 C1374 1.424 . S
C1382 N1379 1.361 . S
C1382 C1381 1.413 . S
C1383 H1372 0.931 . S
C1383 C1381 1.416 . S
C1383 C1384 1.332 . S
C1384 H1363 0.929 . S
C1384 C1380 1.407 . S
C1384 C1383 1.332 . S
H1385 C1378 0.930 . S
H1386 C1409 0.930 . S
H1387 C1410 0.929 . S
O1388 Tb1344 2.465 . S
O1388 C1408 1.264 . S
O1389 Tb1344 2.387 . S
O1389 C1400 1.264 . S
O1390 Tb1355 2.349 . S
O1390 C1400 1.243 . S
O1391 Tb1344 2.428 . S
O1391 C1408 1.256 . S
O1392 Tb1344 2.308 . S
O1392 C1407 1.266 . S
O1393 Tb1355 2.393 . S
O1393 C1407 1.248 . S
O1394 Tb1355 2.465 . S
O1394 C1419 1.264 . S
O1395 Tb1355 2.387 . S
O1395 C1411 1.264 . S
O1396 Tb1344 2.349 . S
O1396 C1411 1.243 . S
O1397 Tb1355 2.428 . S
O1397 C1419 1.256 . S
O1398 Tb1355 2.308 . S
O1398 C1418 1.266 . S
O1399 Tb1344 2.393 . S
O1399 C1418 1.248 . S
C1400 O1389 1.264 . S
C1400 O1390 1.243 . S
C1401 C1404 1.399 . S
C1401 C1406 1.383 . S
C1401 C1408 1.496 . S
C1402 C1403 1.399 . S
C1402 C1406 1.389 . S
C1403 C1402 1.399 . S
C1403 C1405 1.380 . S
C1403 H1420 0.929 . S
C1404 C1401 1.399 . S
C1404 C1405 1.392 . S
C1404 H1421 0.929 . S
C1405 C1403 1.380 . S
C1405 C1404 1.392 . S
C1405 H1422 0.929 . S
C1406 C1401 1.383 . S
C1406 C1402 1.389 . S
C1406 H1423 0.931 . S
C1407 O1392 1.266 . S
C1407 O1393 1.248 . S
C1408 Tb1344 2.802 . S
C1408 O1388 1.264 . S
C1408 O1391 1.256 . S
C1408 C1401 1.496 . S
C1409 C1376 1.448 . S
C1409 H1386 0.930 . S
C1409 C1410 1.328 . S
C1410 C1381 1.427 . S
C1410 H1387 0.929 . S
C1410 C1409 1.328 . S
C1411 O1395 1.264 . S
C1411 O1396 1.243 . S
C1412 C1415 1.399 . S
C1412 C1416 1.383 . S
C1412 C1419 1.496 . S
C1413 C1414 1.399 . S
C1413 C1416 1.389 . S
C1414 C1413 1.399 . S
C1414 C1417 1.380 . S
C1414 H1424 0.929 . S
C1415 C1412 1.399 . S
C1415 C1417 1.392 . S
C1415 H1425 0.929 . S
C1416 C1412 1.383 . S
C1416 C1413 1.389 . S
C1416 H1426 0.931 . S
C1417 C1414 1.380 . S
C1417 C1415 1.392 . S
C1417 H1427 0.929 . S
C1418 O1398 1.266 . S
C1418 O1399 1.248 . S
C1419 Tb1355 2.802 . S
C1419 O1394 1.264 . S
C1419 O1397 1.256 . S
C1419 C1412 1.496 . S
H1420 C1403 0.929 . S
H1421 C1404 0.929 . S
H1422 C1405 0.929 . S
H1423 C1406 0.931 . S
H1424 C1414 0.929 . S
H1425 C1415 0.929 . S
H1426 C1416 0.931 . S
H1427 C1417 0.929 . S
Tb1428 N1457 2.617 1_554 S
Tb1428 N1463 2.572 1_554 S
Tb1428 O1472 2.465 . S
Tb1428 O1473 2.387 1_554 S
Tb1428 O1475 2.428 . S
Tb1428 O1476 2.308 . S
Tb1428 O1480 2.349 . S
Tb1428 O1483 2.393 1_554 S
Tb1428 C1492 2.802 . S
C1429 N1430 1.379 . S
C1429 C1432 1.416 . S
C1429 C1436 1.424 . S
N1430 C1429 1.379 . S
N1430 C1433 1.334 . S
N1430 Tb1439 2.617 . S
C1431 C1433 1.390 . S
C1431 C1434 1.339 . S
C1431 H1451 0.930 . S
C1432 C1429 1.416 . S
C1432 C1434 1.416 . S
C1432 C1438 1.448 . S
C1433 N1430 1.334 . S
C1433 C1431 1.390 . S
C1433 H1444 0.930 . S
C1434 C1431 1.339 . S
C1434 C1432 1.416 . S
C1434 H1455 0.930 . S
C1435 C1436 1.413 . S
C1435 C1437 1.427 . S
C1435 C1441 1.416 . S
C1436 C1429 1.424 . S
C1436 C1435 1.413 . S
C1436 N1440 1.361 . S
C1437 C1435 1.427 . S
C1437 C1438 1.328 . S
C1437 H1452 0.929 . S
C1438 C1432 1.448 . S
C1438 C1437 1.328 . S
C1438 H1453 0.930 . S
Tb1439 N1430 2.617 . S
Tb1439 N1440 2.572 . S
Tb1439 O1474 2.349 1_554 S
Tb1439 O1477 2.393 . S
Tb1439 O1478 2.465 1_554 S
Tb1439 O1479 2.387 . S
Tb1439 O1481 2.428 1_554 S
Tb1439 O1482 2.308 1_554 S
Tb1439 C1503 2.802 1_554 S
N1440 C1436 1.361 . S
N1440 Tb1439 2.572 . S
N1440 C1442 1.340 . S
C1441 C1435 1.416 . S
C1441 C1443 1.332 . S
C1441 H1449 0.931 . S
C1442 N1440 1.340 . S
C1442 C1443 1.407 . S
C1442 H1448 0.930 . S
C1443 C1441 1.332 . S
C1443 C1442 1.407 . S
C1443 H1445 0.929 . S
H1444 C1433 0.930 . S
H1445 C1443 0.929 . S
H1446 C1461 0.930 . S
H1447 C1468 0.929 . S
H1448 C1442 0.930 . S
H1449 C1441 0.931 . S
H1450 C1464 0.930 1_554 S
H1451 C1431 0.930 . S
H1452 C1437 0.929 . S
H1453 C1438 0.930 . S
H1454 C1459 0.930 . S
H1455 C1434 0.930 . S
H1456 C1467 0.931 . S
N1457 Tb1428 2.617 1_556 S
N1457 C1458 1.379 . S
N1457 C1461 1.334 . S
C1458 N1457 1.379 . S
C1458 C1460 1.416 . S
C1458 C1466 1.424 . S
C1459 H1454 0.930 . S
C1459 C1461 1.390 . S
C1459 C1462 1.339 . S
C1460 C1458 1.416 . S
C1460 C1462 1.416 . S
C1460 C1493 1.448 . S
C1461 H1446 0.930 . S
C1461 N1457 1.334 . S
C1461 C1459 1.390 . S
C1462 C1459 1.339 . S
C1462 C1460 1.416 . S
C1462 H1469 0.930 . S
N1463 Tb1428 2.572 1_556 S
N1463 C1464 1.340 . S
N1463 C1466 1.361 . S
C1464 H1450 0.930 1_556 S
C1464 N1463 1.340 . S
C1464 C1468 1.407 . S
C1465 C1466 1.413 . S
C1465 C1467 1.416 . S
C1465 C1494 1.427 . S
C1466 C1458 1.424 . S
C1466 N1463 1.361 . S
C1466 C1465 1.413 . S
C1467 H1456 0.931 . S
C1467 C1465 1.416 . S
C1467 C1468 1.332 . S
C1468 H1447 0.929 . S
C1468 C1464 1.407 . S
C1468 C1467 1.332 . S
H1469 C1462 0.930 . S
H1470 C1493 0.930 . S
H1471 C1494 0.929 . S
O1472 Tb1428 2.465 . S
O1472 C1492 1.264 . S
O1473 Tb1428 2.387 1_556 S
O1473 C1484 1.264 . S
O1474 Tb1439 2.349 1_556 S
O1474 C1484 1.243 . S
O1475 Tb1428 2.428 . S
O1475 C1492 1.256 . S
O1476 Tb1428 2.308 . S
O1476 C1491 1.266 . S
O1477 Tb1439 2.393 . S
O1477 C1491 1.248 . S
O1478 Tb1439 2.465 1_556 S
O1478 C1503 1.264 . S
O1479 Tb1439 2.387 . S
O1479 C1495 1.264 . S
O1480 Tb1428 2.349 . S
O1480 C1495 1.243 . S
O1481 Tb1439 2.428 1_556 S
O1481 C1503 1.256 . S
O1482 Tb1439 2.308 1_556 S
O1482 C1502 1.266 . S
O1483 Tb1428 2.393 1_556 S
O1483 C1502 1.248 . S
C1484 O1473 1.264 . S
C1484 O1474 1.243 . S
C1485 C1488 1.399 . S
C1485 C1490 1.383 . S
C1485 C1492 1.496 . S
C1486 C1487 1.399 . S
C1486 C1490 1.389 . S
C1487 C1486 1.399 . S
C1487 C1489 1.380 . S
C1487 H1504 0.929 . S
C1488 C1485 1.399 . S
C1488 C1489 1.392 . S
C1488 H1505 0.929 . S
C1489 C1487 1.380 . S
C1489 C1488 1.392 . S
C1489 H1506 0.929 . S
C1490 C1485 1.383 . S
C1490 C1486 1.389 . S
C1490 H1507 0.931 . S
C1491 O1476 1.266 . S
C1491 O1477 1.248 . S
C1492 Tb1428 2.802 . S
C1492 O1472 1.264 . S
C1492 O1475 1.256 . S
C1492 C1485 1.496 . S
C1493 C1460 1.448 . S
C1493 H1470 0.930 . S
C1493 C1494 1.328 . S
C1494 C1465 1.427 . S
C1494 H1471 0.929 . S
C1494 C1493 1.328 . S
C1495 O1479 1.264 . S
C1495 O1480 1.243 . S
C1496 C1499 1.399 . S
C1496 C1500 1.383 . S
C1496 C1503 1.496 . S
C1497 C1498 1.399 . S
C1497 C1500 1.389 . S
C1498 C1497 1.399 . S
C1498 C1501 1.380 . S
C1498 H1508 0.929 . S
C1499 C1496 1.399 . S
C1499 C1501 1.392 . S
C1499 H1509 0.929 . S
C1500 C1496 1.383 . S
C1500 C1497 1.389 . S
C1500 H1510 0.931 . S
C1501 C1498 1.380 . S
C1501 C1499 1.392 . S
C1501 H1511 0.929 . S
C1502 O1482 1.266 . S
C1502 O1483 1.248 . S
C1503 Tb1439 2.802 1_556 S
C1503 O1478 1.264 . S
C1503 O1481 1.256 . S
C1503 C1496 1.496 . S
H1504 C1487 0.929 . S
H1505 C1488 0.929 . S
H1506 C1489 0.929 . S
H1507 C1490 0.931 . S
H1508 C1498 0.929 . S
H1509 C1499 0.929 . S
H1510 C1500 0.931 . S
H1511 C1501 0.929 . S
Tb1512 N1541 2.617 . S
Tb1512 N1547 2.572 . S
Tb1512 O1556 2.465 . S
Tb1512 O1557 2.387 . S
Tb1512 O1559 2.428 . S
Tb1512 O1560 2.308 . S
Tb1512 O1564 2.349 . S
Tb1512 O1567 2.393 . S
Tb1512 C1576 2.802 . S
C1513 N1514 1.379 . S
C1513 C1516 1.416 . S
C1513 C1520 1.424 . S
N1514 C1513 1.379 . S
N1514 C1517 1.334 . S
N1514 Tb1523 2.617 . S
C1515 C1517 1.390 . S
C1515 C1518 1.339 . S
C1515 H1535 0.930 . S
C1516 C1513 1.416 . S
C1516 C1518 1.416 . S
C1516 C1522 1.448 . S
C1517 N1514 1.334 . S
C1517 C1515 1.390 . S
C1517 H1528 0.930 . S
C1518 C1515 1.339 . S
C1518 C1516 1.416 . S
C1518 H1539 0.930 . S
C1519 C1520 1.413 . S
C1519 C1521 1.427 . S
C1519 C1525 1.416 . S
C1520 C1513 1.424 . S
C1520 C1519 1.413 . S
C1520 N1524 1.361 . S
C1521 C1519 1.427 . S
C1521 C1522 1.328 . S
C1521 H1536 0.929 . S
C1522 C1516 1.448 . S
C1522 C1521 1.328 . S
C1522 H1537 0.930 . S
Tb1523 N1514 2.617 . S
Tb1523 N1524 2.572 . S
Tb1523 O1558 2.349 . S
Tb1523 O1561 2.393 . S
Tb1523 O1562 2.465 . S
Tb1523 O1563 2.387 . S
Tb1523 O1565 2.428 . S
Tb1523 O1566 2.308 . S
Tb1523 C1587 2.802 . S
N1524 C1520 1.361 . S
N1524 Tb1523 2.572 . S
N1524 C1526 1.340 . S
C1525 C1519 1.416 . S
C1525 C1527 1.332 . S
C1525 H1533 0.931 . S
C1526 N1524 1.340 . S
C1526 C1527 1.407 . S
C1526 H1532 0.930 . S
C1527 C1525 1.332 . S
C1527 C1526 1.407 . S
C1527 H1529 0.929 . S
H1528 C1517 0.930 . S
H1529 C1527 0.929 . S
H1530 C1545 0.930 . S
H1531 C1552 0.929 . S
H1532 C1526 0.930 . S
H1533 C1525 0.931 . S
H1534 C1548 0.930 . S
H1535 C1515 0.930 . S
H1536 C1521 0.929 . S
H1537 C1522 0.930 . S
H1538 C1543 0.930 . S
H1539 C1518 0.930 . S
H1540 C1551 0.931 . S
N1541 Tb1512 2.617 . S
N1541 C1542 1.379 1_655 S
N1541 C1545 1.334 . S
C1542 N1541 1.379 1_455 S
C1542 C1544 1.416 . S
C1542 C1550 1.424 . S
C1543 H1538 0.930 . S
C1543 C1545 1.390 1_455 S
C1543 C1546 1.339 . S
C1544 C1542 1.416 . S
C1544 C1546 1.416 . S
C1544 C1577 1.448 . S
C1545 H1530 0.930 . S
C1545 N1541 1.334 . S
C1545 C1543 1.390 1_655 S
C1546 C1543 1.339 . S
C1546 C1544 1.416 . S
C1546 H1553 0.930 . S
N1547 Tb1512 2.572 . S
N1547 C1548 1.340 . S
N1547 C1550 1.361 1_655 S
C1548 H1534 0.930 . S
C1548 N1547 1.340 . S
C1548 C1552 1.407 . S
C1549 C1550 1.413 . S
C1549 C1551 1.416 . S
C1549 C1578 1.427 . S
C1550 C1542 1.424 . S
C1550 N1547 1.361 1_455 S
C1550 C1549 1.413 . S
C1551 H1540 0.931 . S
C1551 C1549 1.416 . S
C1551 C1552 1.332 1_455 S
C1552 H1531 0.929 . S
C1552 C1548 1.407 . S
C1552 C1551 1.332 1_655 S
H1553 C1546 0.930 . S
H1554 C1577 0.930 . S
H1555 C1578 0.929 . S
O1556 Tb1512 2.465 . S
O1556 C1576 1.264 . S
O1557 Tb1512 2.387 . S
O1557 C1568 1.264 . S
O1558 Tb1523 2.349 . S
O1558 C1568 1.243 . S
O1559 Tb1512 2.428 . S
O1559 C1576 1.256 . S
O1560 Tb1512 2.308 . S
O1560 C1575 1.266 . S
O1561 Tb1523 2.393 . S
O1561 C1575 1.248 . S
O1562 Tb1523 2.465 . S
O1562 C1587 1.264 . S
O1563 Tb1523 2.387 . S
O1563 C1579 1.264 . S
O1564 Tb1512 2.349 . S
O1564 C1579 1.243 . S
O1565 Tb1523 2.428 . S
O1565 C1587 1.256 . S
O1566 Tb1523 2.308 . S
O1566 C1586 1.266 . S
O1567 Tb1512 2.393 . S
O1567 C1586 1.248 . S
C1568 O1557 1.264 . S
C1568 O1558 1.243 . S
C1569 C1572 1.399 . S
C1569 C1574 1.383 . S
C1569 C1576 1.496 1_455 S
C1570 C1571 1.399 . S
C1570 C1574 1.389 . S
C1571 C1570 1.399 . S
C1571 C1573 1.380 . S
C1571 H1588 0.929 . S
C1572 C1569 1.399 . S
C1572 C1573 1.392 . S
C1572 H1589 0.929 . S
C1573 C1571 1.380 . S
C1573 C1572 1.392 . S
C1573 H1590 0.929 . S
C1574 C1569 1.383 . S
C1574 C1570 1.389 . S
C1574 H1591 0.931 . S
C1575 O1560 1.266 . S
C1575 O1561 1.248 . S
C1576 Tb1512 2.802 . S
C1576 O1556 1.264 . S
C1576 O1559 1.256 . S
C1576 C1569 1.496 1_655 S
C1577 C1544 1.448 . S
C1577 H1554 0.930 . S
C1577 C1578 1.328 . S
C1578 C1549 1.427 . S
C1578 H1555 0.929 . S
C1578 C1577 1.328 . S
C1579 O1563 1.264 . S
C1579 O1564 1.243 . S
C1580 C1583 1.399 . S
C1580 C1584 1.383 . S
C1580 C1587 1.496 . S
C1581 C1582 1.399 . S
C1581 C1584 1.389 . S
C1582 C1581 1.399 . S
C1582 C1585 1.380 . S
C1582 H1592 0.929 . S
C1583 C1580 1.399 . S
C1583 C1585 1.392 . S
C1583 H1593 0.929 . S
C1584 C1580 1.383 . S
C1584 C1581 1.389 . S
C1584 H1594 0.931 . S
C1585 C1582 1.380 . S
C1585 C1583 1.392 . S
C1585 H1595 0.929 . S
C1586 O1566 1.266 . S
C1586 O1567 1.248 . S
C1587 Tb1523 2.802 . S
C1587 O1562 1.264 . S
C1587 O1565 1.256 . S
C1587 C1580 1.496 . S
H1588 C1571 0.929 . S
H1589 C1572 0.929 . S
H1590 C1573 0.929 . S
H1591 C1574 0.931 . S
H1592 C1582 0.929 . S
H1593 C1583 0.929 . S
H1594 C1584 0.931 . S
H1595 C1585 0.929 . S
Tb1596 N1625 2.617 . S
Tb1596 N1631 2.572 . S
Tb1596 O1640 2.465 . S
Tb1596 O1641 2.387 . S
Tb1596 O1643 2.428 . S
Tb1596 O1644 2.308 . S
Tb1596 O1648 2.349 . S
Tb1596 O1651 2.393 . S
Tb1596 C1660 2.802 . S
C1597 N1598 1.379 . S
C1597 C1600 1.416 . S
C1597 C1604 1.424 . S
N1598 C1597 1.379 . S
N1598 C1601 1.334 . S
N1598 Tb1607 2.617 . S
C1599 C1601 1.390 . S
C1599 C1602 1.339 . S
C1599 H1619 0.930 . S
C1600 C1597 1.416 . S
C1600 C1602 1.416 . S
C1600 C1606 1.448 . S
C1601 N1598 1.334 . S
C1601 C1599 1.390 . S
C1601 H1612 0.930 . S
C1602 C1599 1.339 . S
C1602 C1600 1.416 . S
C1602 H1623 0.930 . S
C1603 C1604 1.413 . S
C1603 C1605 1.427 . S
C1603 C1609 1.416 . S
C1604 C1597 1.424 . S
C1604 C1603 1.413 . S
C1604 N1608 1.361 . S
C1605 C1603 1.427 . S
C1605 C1606 1.328 . S
C1605 H1620 0.929 . S
C1606 C1600 1.448 . S
C1606 C1605 1.328 . S
C1606 H1621 0.930 . S
Tb1607 N1598 2.617 . S
Tb1607 N1608 2.572 . S
Tb1607 O1642 2.349 . S
Tb1607 O1645 2.393 . S
Tb1607 O1646 2.465 . S
Tb1607 O1647 2.387 . S
Tb1607 O1649 2.428 . S
Tb1607 O1650 2.308 . S
Tb1607 C1671 2.802 . S
N1608 C1604 1.361 . S
N1608 Tb1607 2.572 . S
N1608 C1610 1.340 . S
C1609 C1603 1.416 . S
C1609 C1611 1.332 . S
C1609 H1617 0.931 . S
C1610 N1608 1.340 . S
C1610 C1611 1.407 . S
C1610 H1616 0.930 . S
C1611 C1609 1.332 . S
C1611 C1610 1.407 . S
C1611 H1613 0.929 . S
H1612 C1601 0.930 . S
H1613 C1611 0.929 . S
H1614 C1629 0.930 . S
H1615 C1636 0.929 . S
H1616 C1610 0.930 . S
H1617 C1609 0.931 . S
H1618 C1632 0.930 . S
H1619 C1599 0.930 . S
H1620 C1605 0.929 . S
H1621 C1606 0.930 . S
H1622 C1627 0.930 . S
H1623 C1602 0.930 . S
H1624 C1635 0.931 . S
N1625 Tb1596 2.617 . S
N1625 C1626 1.379 . S
N1625 C1629 1.334 . S
C1626 N1625 1.379 . S
C1626 C1628 1.416 . S
C1626 C1634 1.424 . S
C1627 H1622 0.930 . S
C1627 C1629 1.390 . S
C1627 C1630 1.339 . S
C1628 C1626 1.416 . S
C1628 C1630 1.416 . S
C1628 C1661 1.448 . S
C1629 H1614 0.930 . S
C1629 N1625 1.334 . S
C1629 C1627 1.390 . S
C1630 C1627 1.339 . S
C1630 C1628 1.416 . S
C1630 H1637 0.930 . S
N1631 Tb1596 2.572 . S
N1631 C1632 1.340 . S
N1631 C1634 1.361 . S
C1632 H1618 0.930 . S
C1632 N1631 1.340 . S
C1632 C1636 1.407 . S
C1633 C1634 1.413 . S
C1633 C1635 1.416 . S
C1633 C1662 1.427 . S
C1634 C1626 1.424 . S
C1634 N1631 1.361 . S
C1634 C1633 1.413 . S
C1635 H1624 0.931 . S
C1635 C1633 1.416 . S
C1635 C1636 1.332 . S
C1636 H1615 0.929 . S
C1636 C1632 1.407 . S
C1636 C1635 1.332 . S
H1637 C1630 0.930 . S
H1638 C1661 0.930 . S
H1639 C1662 0.929 . S
O1640 Tb1596 2.465 . S
O1640 C1660 1.264 . S
O1641 Tb1596 2.387 . S
O1641 C1652 1.264 . S
O1642 Tb1607 2.349 . S
O1642 C1652 1.243 . S
O1643 Tb1596 2.428 . S
O1643 C1660 1.256 . S
O1644 Tb1596 2.308 . S
O1644 C1659 1.266 . S
O1645 Tb1607 2.393 . S
O1645 C1659 1.248 . S
O1646 Tb1607 2.465 . S
O1646 C1671 1.264 . S
O1647 Tb1607 2.387 . S
O1647 C1663 1.264 . S
O1648 Tb1596 2.349 . S
O1648 C1663 1.243 . S
O1649 Tb1607 2.428 . S
O1649 C1671 1.256 . S
O1650 Tb1607 2.308 . S
O1650 C1670 1.266 . S
O1651 Tb1596 2.393 . S
O1651 C1670 1.248 . S
C1652 O1641 1.264 . S
C1652 O1642 1.243 . S
C1653 C1656 1.399 . S
C1653 C1658 1.383 . S
C1653 C1660 1.496 . S
C1654 C1655 1.399 . S
C1654 C1658 1.389 . S
C1655 C1654 1.399 . S
C1655 C1657 1.380 . S
C1655 H1672 0.929 . S
C1656 C1653 1.399 . S
C1656 C1657 1.392 . S
C1656 H1673 0.929 . S
C1657 C1655 1.380 . S
C1657 C1656 1.392 . S
C1657 H1674 0.929 . S
C1658 C1653 1.383 . S
C1658 C1654 1.389 . S
C1658 H1675 0.931 . S
C1659 O1644 1.266 . S
C1659 O1645 1.248 . S
C1660 Tb1596 2.802 . S
C1660 O1640 1.264 . S
C1660 O1643 1.256 . S
C1660 C1653 1.496 . S
C1661 C1628 1.448 . S
C1661 H1638 0.930 . S
C1661 C1662 1.328 . S
C1662 C1633 1.427 . S
C1662 H1639 0.929 . S
C1662 C1661 1.328 . S
C1663 O1647 1.264 . S
C1663 O1648 1.243 . S
C1664 C1667 1.399 . S
C1664 C1668 1.383 . S
C1664 C1671 1.496 . S
C1665 C1666 1.399 . S
C1665 C1668 1.389 . S
C1666 C1665 1.399 . S
C1666 C1669 1.380 . S
C1666 H1676 0.929 . S
C1667 C1664 1.399 . S
C1667 C1669 1.392 . S
C1667 H1677 0.929 . S
C1668 C1664 1.383 . S
C1668 C1665 1.389 . S
C1668 H1678 0.931 . S
C1669 C1666 1.380 . S
C1669 C1667 1.392 . S
C1669 H1679 0.929 . S
C1670 O1650 1.266 . S
C1670 O1651 1.248 . S
C1671 Tb1607 2.802 . S
C1671 O1646 1.264 . S
C1671 O1649 1.256 . S
C1671 C1664 1.496 . S
H1672 C1655 0.929 . S
H1673 C1656 0.929 . S
H1674 C1657 0.929 . S
H1675 C1658 0.931 . S
H1676 C1666 0.929 . S
H1677 C1667 0.929 . S
H1678 C1668 0.931 . S
H1679 C1669 0.929 . S
Tb1680 N1709 2.617 . S
Tb1680 N1715 2.572 . S
Tb1680 O1724 2.465 . S
Tb1680 O1725 2.387 . S
Tb1680 O1727 2.428 . S
Tb1680 O1728 2.308 . S
Tb1680 O1732 2.349 . S
Tb1680 O1735 2.393 . S
Tb1680 C1744 2.802 . S
C1681 N1682 1.379 . S
C1681 C1684 1.416 . S
C1681 C1688 1.424 . S
N1682 C1681 1.379 . S
N1682 C1685 1.334 . S
N1682 Tb1691 2.617 . S
C1683 C1685 1.390 . S
C1683 C1686 1.339 . S
C1683 H1703 0.930 . S
C1684 C1681 1.416 . S
C1684 C1686 1.416 . S
C1684 C1690 1.448 . S
C1685 N1682 1.334 . S
C1685 C1683 1.390 . S
C1685 H1696 0.930 . S
C1686 C1683 1.339 . S
C1686 C1684 1.416 . S
C1686 H1707 0.930 . S
C1687 C1688 1.413 . S
C1687 C1689 1.427 . S
C1687 C1693 1.416 . S
C1688 C1681 1.424 . S
C1688 C1687 1.413 . S
C1688 N1692 1.361 . S
C1689 C1687 1.427 . S
C1689 C1690 1.328 . S
C1689 H1704 0.929 . S
C1690 C1684 1.448 . S
C1690 C1689 1.328 . S
C1690 H1705 0.930 . S
Tb1691 N1682 2.617 . S
Tb1691 N1692 2.572 . S
Tb1691 O1726 2.349 . S
Tb1691 O1729 2.393 . S
Tb1691 O1730 2.465 . S
Tb1691 O1731 2.387 . S
Tb1691 O1733 2.428 . S
Tb1691 O1734 2.308 . S
Tb1691 C1755 2.802 . S
N1692 C1688 1.361 . S
N1692 Tb1691 2.572 . S
N1692 C1694 1.340 . S
C1693 C1687 1.416 . S
C1693 C1695 1.332 . S
C1693 H1701 0.931 . S
C1694 N1692 1.340 . S
C1694 C1695 1.407 . S
C1694 H1700 0.930 . S
C1695 C1693 1.332 . S
C1695 C1694 1.407 . S
C1695 H1697 0.929 . S
H1696 C1685 0.930 . S
H1697 C1695 0.929 . S
H1698 C1713 0.930 . S
H1699 C1720 0.929 . S
H1700 C1694 0.930 . S
H1701 C1693 0.931 . S
H1702 C1716 0.930 . S
H1703 C1683 0.930 . S
H1704 C1689 0.929 . S
H1705 C1690 0.930 . S
H1706 C1711 0.930 . S
H1707 C1686 0.930 . S
H1708 C1719 0.931 . S
N1709 Tb1680 2.617 . S
N1709 C1710 1.379 . S
N1709 C1713 1.334 . S
C1710 N1709 1.379 . S
C1710 C1712 1.416 . S
C1710 C1718 1.424 . S
C1711 H1706 0.930 . S
C1711 C1713 1.390 . S
C1711 C1714 1.339 . S
C1712 C1710 1.416 . S
C1712 C1714 1.416 . S
C1712 C1745 1.448 . S
C1713 H1698 0.930 . S
C1713 N1709 1.334 . S
C1713 C1711 1.390 . S
C1714 C1711 1.339 . S
C1714 C1712 1.416 . S
C1714 H1721 0.930 . S
N1715 Tb1680 2.572 . S
N1715 C1716 1.340 . S
N1715 C1718 1.361 . S
C1716 H1702 0.930 . S
C1716 N1715 1.340 . S
C1716 C1720 1.407 . S
C1717 C1718 1.413 . S
C1717 C1719 1.416 . S
C1717 C1746 1.427 . S
C1718 C1710 1.424 . S
C1718 N1715 1.361 . S
C1718 C1717 1.413 . S
C1719 H1708 0.931 . S
C1719 C1717 1.416 . S
C1719 C1720 1.332 . S
C1720 H1699 0.929 . S
C1720 C1716 1.407 . S
C1720 C1719 1.332 . S
H1721 C1714 0.930 . S
H1722 C1745 0.930 . S
H1723 C1746 0.929 . S
O1724 Tb1680 2.465 . S
O1724 C1744 1.264 . S
O1725 Tb1680 2.387 . S
O1725 C1736 1.264 . S
O1726 Tb1691 2.349 . S
O1726 C1736 1.243 . S
O1727 Tb1680 2.428 . S
O1727 C1744 1.256 . S
O1728 Tb1680 2.308 . S
O1728 C1743 1.266 . S
O1729 Tb1691 2.393 . S
O1729 C1743 1.248 . S
O1730 Tb1691 2.465 . S
O1730 C1755 1.264 . S
O1731 Tb1691 2.387 . S
O1731 C1747 1.264 . S
O1732 Tb1680 2.349 . S
O1732 C1747 1.243 . S
O1733 Tb1691 2.428 . S
O1733 C1755 1.256 . S
O1734 Tb1691 2.308 . S
O1734 C1754 1.266 . S
O1735 Tb1680 2.393 . S
O1735 C1754 1.248 . S
C1736 O1725 1.264 . S
C1736 O1726 1.243 . S
C1737 C1740 1.399 . S
C1737 C1742 1.383 . S
C1737 C1744 1.496 . S
C1738 C1739 1.399 . S
C1738 C1742 1.389 . S
C1739 C1738 1.399 . S
C1739 C1741 1.380 . S
C1739 H1756 0.929 . S
C1740 C1737 1.399 . S
C1740 C1741 1.392 . S
C1740 H1757 0.929 . S
C1741 C1739 1.380 . S
C1741 C1740 1.392 . S
C1741 H1758 0.929 . S
C1742 C1737 1.383 . S
C1742 C1738 1.389 . S
C1742 H1759 0.931 . S
C1743 O1728 1.266 . S
C1743 O1729 1.248 . S
C1744 Tb1680 2.802 . S
C1744 O1724 1.264 . S
C1744 O1727 1.256 . S
C1744 C1737 1.496 . S
C1745 C1712 1.448 . S
C1745 H1722 0.930 . S
C1745 C1746 1.328 . S
C1746 C1717 1.427 . S
C1746 H1723 0.929 . S
C1746 C1745 1.328 . S
C1747 O1731 1.264 . S
C1747 O1732 1.243 . S
C1748 C1751 1.399 . S
C1748 C1752 1.383 . S
C1748 C1755 1.496 . S
C1749 C1750 1.399 . S
C1749 C1752 1.389 . S
C1750 C1749 1.399 . S
C1750 C1753 1.380 . S
C1750 H1760 0.929 . S
C1751 C1748 1.399 . S
C1751 C1753 1.392 . S
C1751 H1761 0.929 . S
C1752 C1748 1.383 . S
C1752 C1749 1.389 . S
C1752 H1762 0.931 . S
C1753 C1750 1.380 . S
C1753 C1751 1.392 . S
C1753 H1763 0.929 . S
C1754 O1734 1.266 . S
C1754 O1735 1.248 . S
C1755 Tb1691 2.802 . S
C1755 O1730 1.264 . S
C1755 O1733 1.256 . S
C1755 C1748 1.496 . S
H1756 C1739 0.929 . S
H1757 C1740 0.929 . S
H1758 C1741 0.929 . S
H1759 C1742 0.931 . S
H1760 C1750 0.929 . S
H1761 C1751 0.929 . S
H1762 C1752 0.931 . S
H1763 C1753 0.929 . S
Tb1764 N1793 2.617 1_556 S
Tb1764 N1799 2.572 1_556 S
Tb1764 O1808 2.465 . S
Tb1764 O1809 2.387 1_556 S
Tb1764 O1811 2.428 . S
Tb1764 O1812 2.308 . S
Tb1764 O1816 2.349 . S
Tb1764 O1819 2.393 1_556 S
Tb1764 C1828 2.802 . S
C1765 N1766 1.379 . S
C1765 C1768 1.416 . S
C1765 C1772 1.424 . S
N1766 C1765 1.379 . S
N1766 C1769 1.334 . S
N1766 Tb1775 2.617 . S
C1767 C1769 1.390 . S
C1767 C1770 1.339 . S
C1767 H1787 0.930 . S
C1768 C1765 1.416 . S
C1768 C1770 1.416 . S
C1768 C1774 1.448 . S
C1769 N1766 1.334 . S
C1769 C1767 1.390 . S
C1769 H1780 0.930 . S
C1770 C1767 1.339 . S
C1770 C1768 1.416 . S
C1770 H1791 0.930 . S
C1771 C1772 1.413 . S
C1771 C1773 1.427 . S
C1771 C1777 1.416 . S
C1772 C1765 1.424 . S
C1772 C1771 1.413 . S
C1772 N1776 1.361 . S
C1773 C1771 1.427 . S
C1773 C1774 1.328 . S
C1773 H1788 0.929 . S
C1774 C1768 1.448 . S
C1774 C1773 1.328 . S
C1774 H1789 0.930 . S
Tb1775 N1766 2.617 . S
Tb1775 N1776 2.572 . S
Tb1775 O1810 2.349 1_556 S
Tb1775 O1813 2.393 . S
Tb1775 O1814 2.465 1_556 S
Tb1775 O1815 2.387 . S
Tb1775 O1817 2.428 1_556 S
Tb1775 O1818 2.308 1_556 S
Tb1775 C1839 2.802 1_556 S
N1776 C1772 1.361 . S
N1776 Tb1775 2.572 . S
N1776 C1778 1.340 . S
C1777 C1771 1.416 . S
C1777 C1779 1.332 . S
C1777 H1785 0.931 . S
C1778 N1776 1.340 . S
C1778 C1779 1.407 . S
C1778 H1784 0.930 . S
C1779 C1777 1.332 . S
C1779 C1778 1.407 . S
C1779 H1781 0.929 . S
H1780 C1769 0.930 . S
H1781 C1779 0.929 . S
H1782 C1797 0.930 . S
H1783 C1804 0.929 . S
H1784 C1778 0.930 . S
H1785 C1777 0.931 . S
H1786 C1800 0.930 1_556 S
H1787 C1767 0.930 . S
H1788 C1773 0.929 . S
H1789 C1774 0.930 . S
H1790 C1795 0.930 . S
H1791 C1770 0.930 . S
H1792 C1803 0.931 . S
N1793 Tb1764 2.617 1_554 S
N1793 C1794 1.379 . S
N1793 C1797 1.334 . S
C1794 N1793 1.379 . S
C1794 C1796 1.416 . S
C1794 C1802 1.424 . S
C1795 H1790 0.930 . S
C1795 C1797 1.390 . S
C1795 C1798 1.339 . S
C1796 C1794 1.416 . S
C1796 C1798 1.416 . S
C1796 C1829 1.448 . S
C1797 H1782 0.930 . S
C1797 N1793 1.334 . S
C1797 C1795 1.390 . S
C1798 C1795 1.339 . S
C1798 C1796 1.416 . S
C1798 H1805 0.930 . S
N1799 Tb1764 2.572 1_554 S
N1799 C1800 1.340 . S
N1799 C1802 1.361 . S
C1800 H1786 0.930 1_554 S
C1800 N1799 1.340 . S
C1800 C1804 1.407 . S
C1801 C1802 1.413 . S
C1801 C1803 1.416 . S
C1801 C1830 1.427 . S
C1802 C1794 1.424 . S
C1802 N1799 1.361 . S
C1802 C1801 1.413 . S
C1803 H1792 0.931 . S
C1803 C1801 1.416 . S
C1803 C1804 1.332 . S
C1804 H1783 0.929 . S
C1804 C1800 1.407 . S
C1804 C1803 1.332 . S
H1805 C1798 0.930 . S
H1806 C1829 0.930 . S
H1807 C1830 0.929 . S
O1808 Tb1764 2.465 . S
O1808 C1828 1.264 . S
O1809 Tb1764 2.387 1_554 S
O1809 C1820 1.264 . S
O1810 Tb1775 2.349 1_554 S
O1810 C1820 1.243 . S
O1811 Tb1764 2.428 . S
O1811 C1828 1.256 . S
O1812 Tb1764 2.308 . S
O1812 C1827 1.266 . S
O1813 Tb1775 2.393 . S
O1813 C1827 1.248 . S
O1814 Tb1775 2.465 1_554 S
O1814 C1839 1.264 . S
O1815 Tb1775 2.387 . S
O1815 C1831 1.264 . S
O1816 Tb1764 2.349 . S
O1816 C1831 1.243 . S
O1817 Tb1775 2.428 1_554 S
O1817 C1839 1.256 . S
O1818 Tb1775 2.308 1_554 S
O1818 C1838 1.266 . S
O1819 Tb1764 2.393 1_554 S
O1819 C1838 1.248 . S
C1820 O1809 1.264 . S
C1820 O1810 1.243 . S
C1821 C1824 1.399 . S
C1821 C1826 1.383 . S
C1821 C1828 1.496 . S
C1822 C1823 1.399 . S
C1822 C1826 1.389 . S
C1823 C1822 1.399 . S
C1823 C1825 1.380 . S
C1823 H1840 0.929 . S
C1824 C1821 1.399 . S
C1824 C1825 1.392 . S
C1824 H1841 0.929 . S
C1825 C1823 1.380 . S
C1825 C1824 1.392 . S
C1825 H1842 0.929 . S
C1826 C1821 1.383 . S
C1826 C1822 1.389 . S
C1826 H1843 0.931 . S
C1827 O1812 1.266 . S
C1827 O1813 1.248 . S
C1828 Tb1764 2.802 . S
C1828 O1808 1.264 . S
C1828 O1811 1.256 . S
C1828 C1821 1.496 . S
C1829 C1796 1.448 . S
C1829 H1806 0.930 . S
C1829 C1830 1.328 . S
C1830 C1801 1.427 . S
C1830 H1807 0.929 . S
C1830 C1829 1.328 . S
C1831 O1815 1.264 . S
C1831 O1816 1.243 . S
C1832 C1835 1.399 . S
C1832 C1836 1.383 . S
C1832 C1839 1.496 . S
C1833 C1834 1.399 . S
C1833 C1836 1.389 . S
C1834 C1833 1.399 . S
C1834 C1837 1.380 . S
C1834 H1844 0.929 . S
C1835 C1832 1.399 . S
C1835 C1837 1.392 . S
C1835 H1845 0.929 . S
C1836 C1832 1.383 . S
C1836 C1833 1.389 . S
C1836 H1846 0.931 . S
C1837 C1834 1.380 . S
C1837 C1835 1.392 . S
C1837 H1847 0.929 . S
C1838 O1818 1.266 . S
C1838 O1819 1.248 . S
C1839 Tb1775 2.802 1_554 S
C1839 O1814 1.264 . S
C1839 O1817 1.256 . S
C1839 C1832 1.496 . S
H1840 C1823 0.929 . S
H1841 C1824 0.929 . S
H1842 C1825 0.929 . S
H1843 C1826 0.931 . S
H1844 C1834 0.929 . S
H1845 C1835 0.929 . S
H1846 C1836 0.931 . S
H1847 C1837 0.929 . S
Tb1848 N1877 2.617 . S
Tb1848 N1883 2.572 . S
Tb1848 O1892 2.465 . S
Tb1848 O1893 2.387 . S
Tb1848 O1895 2.428 . S
Tb1848 O1896 2.308 . S
Tb1848 O1900 2.349 . S
Tb1848 O1903 2.393 . S
Tb1848 C1912 2.802 . S
C1849 N1850 1.379 . S
C1849 C1852 1.416 . S
C1849 C1856 1.424 . S
N1850 C1849 1.379 . S
N1850 C1853 1.334 . S
N1850 Tb1859 2.617 . S
C1851 C1853 1.390 . S
C1851 C1854 1.339 . S
C1851 H1871 0.930 . S
C1852 C1849 1.416 . S
C1852 C1854 1.416 . S
C1852 C1858 1.448 . S
C1853 N1850 1.334 . S
C1853 C1851 1.390 . S
C1853 H1864 0.930 . S
C1854 C1851 1.339 . S
C1854 C1852 1.416 . S
C1854 H1875 0.930 . S
C1855 C1856 1.413 . S
C1855 C1857 1.427 . S
C1855 C1861 1.416 . S
C1856 C1849 1.424 . S
C1856 C1855 1.413 . S
C1856 N1860 1.361 . S
C1857 C1855 1.427 . S
C1857 C1858 1.328 . S
C1857 H1872 0.929 . S
C1858 C1852 1.448 . S
C1858 C1857 1.328 . S
C1858 H1873 0.930 . S
Tb1859 N1850 2.617 . S
Tb1859 N1860 2.572 . S
Tb1859 O1894 2.349 . S
Tb1859 O1897 2.393 . S
Tb1859 O1898 2.465 . S
Tb1859 O1899 2.387 . S
Tb1859 O1901 2.428 . S
Tb1859 O1902 2.308 . S
Tb1859 C1923 2.802 . S
N1860 C1856 1.361 . S
N1860 Tb1859 2.572 . S
N1860 C1862 1.340 . S
C1861 C1855 1.416 . S
C1861 C1863 1.332 . S
C1861 H1869 0.931 . S
C1862 N1860 1.340 . S
C1862 C1863 1.407 . S
C1862 H1868 0.930 . S
C1863 C1861 1.332 . S
C1863 C1862 1.407 . S
C1863 H1865 0.929 . S
H1864 C1853 0.930 . S
H1865 C1863 0.929 . S
H1866 C1881 0.930 . S
H1867 C1888 0.929 . S
H1868 C1862 0.930 . S
H1869 C1861 0.931 . S
H1870 C1884 0.930 . S
H1871 C1851 0.930 . S
H1872 C1857 0.929 . S
H1873 C1858 0.930 . S
H1874 C1879 0.930 . S
H1875 C1854 0.930 . S
H1876 C1887 0.931 . S
N1877 Tb1848 2.617 . S
N1877 C1878 1.379 1_655 S
N1877 C1881 1.334 . S
C1878 N1877 1.379 1_455 S
C1878 C1880 1.416 . S
C1878 C1886 1.424 . S
C1879 H1874 0.930 . S
C1879 C1881 1.390 1_455 S
C1879 C1882 1.339 . S
C1880 C1878 1.416 . S
C1880 C1882 1.416 . S
C1880 C1913 1.448 . S
C1881 H1866 0.930 . S
C1881 N1877 1.334 . S
C1881 C1879 1.390 1_655 S
C1882 C1879 1.339 . S
C1882 C1880 1.416 . S
C1882 H1889 0.930 . S
N1883 Tb1848 2.572 . S
N1883 C1884 1.340 . S
N1883 C1886 1.361 1_655 S
C1884 H1870 0.930 . S
C1884 N1883 1.340 . S
C1884 C1888 1.407 . S
C1885 C1886 1.413 . S
C1885 C1887 1.416 . S
C1885 C1914 1.427 . S
C1886 C1878 1.424 . S
C1886 N1883 1.361 1_455 S
C1886 C1885 1.413 . S
C1887 H1876 0.931 . S
C1887 C1885 1.416 . S
C1887 C1888 1.332 1_455 S
C1888 H1867 0.929 . S
C1888 C1884 1.407 . S
C1888 C1887 1.332 1_655 S
H1889 C1882 0.930 . S
H1890 C1913 0.930 . S
H1891 C1914 0.929 . S
O1892 Tb1848 2.465 . S
O1892 C1912 1.264 . S
O1893 Tb1848 2.387 . S
O1893 C1904 1.264 . S
O1894 Tb1859 2.349 . S
O1894 C1904 1.243 . S
O1895 Tb1848 2.428 . S
O1895 C1912 1.256 . S
O1896 Tb1848 2.308 . S
O1896 C1911 1.266 . S
O1897 Tb1859 2.393 . S
O1897 C1911 1.248 . S
O1898 Tb1859 2.465 . S
O1898 C1923 1.264 . S
O1899 Tb1859 2.387 . S
O1899 C1915 1.264 . S
O1900 Tb1848 2.349 . S
O1900 C1915 1.243 . S
O1901 Tb1859 2.428 . S
O1901 C1923 1.256 . S
O1902 Tb1859 2.308 . S
O1902 C1922 1.266 . S
O1903 Tb1848 2.393 . S
O1903 C1922 1.248 . S
C1904 O1893 1.264 . S
C1904 O1894 1.243 . S
C1905 C1908 1.399 . S
C1905 C1910 1.383 . S
C1905 C1912 1.496 1_455 S
C1906 C1907 1.399 . S
C1906 C1910 1.389 . S
C1907 C1906 1.399 . S
C1907 C1909 1.380 . S
C1907 H1924 0.929 . S
C1908 C1905 1.399 . S
C1908 C1909 1.392 . S
C1908 H1925 0.929 . S
C1909 C1907 1.380 . S
C1909 C1908 1.392 . S
C1909 H1926 0.929 . S
C1910 C1905 1.383 . S
C1910 C1906 1.389 . S
C1910 H1927 0.931 . S
C1911 O1896 1.266 . S
C1911 O1897 1.248 . S
C1912 Tb1848 2.802 . S
C1912 O1892 1.264 . S
C1912 O1895 1.256 . S
C1912 C1905 1.496 1_655 S
C1913 C1880 1.448 . S
C1913 H1890 0.930 . S
C1913 C1914 1.328 . S
C1914 C1885 1.427 . S
C1914 H1891 0.929 . S
C1914 C1913 1.328 . S
C1915 O1899 1.264 . S
C1915 O1900 1.243 . S
C1916 C1919 1.399 . S
C1916 C1920 1.383 . S
C1916 C1923 1.496 . S
C1917 C1918 1.399 . S
C1917 C1920 1.389 . S
C1918 C1917 1.399 . S
C1918 C1921 1.380 . S
C1918 H1928 0.929 . S
C1919 C1916 1.399 . S
C1919 C1921 1.392 . S
C1919 H1929 0.929 . S
C1920 C1916 1.383 . S
C1920 C1917 1.389 . S
C1920 H1930 0.931 . S
C1921 C1918 1.380 . S
C1921 C1919 1.392 . S
C1921 H1931 0.929 . S
C1922 O1902 1.266 . S
C1922 O1903 1.248 . S
C1923 Tb1859 2.802 . S
C1923 O1898 1.264 . S
C1923 O1901 1.256 . S
C1923 C1916 1.496 . S
H1924 C1907 0.929 . S
H1925 C1908 0.929 . S
H1926 C1909 0.929 . S
H1927 C1910 0.931 . S
H1928 C1918 0.929 . S
H1929 C1919 0.929 . S
H1930 C1920 0.931 . S
H1931 C1921 0.929 . S
Tb1932 N1961 2.617 . S
Tb1932 N1967 2.572 . S
Tb1932 O1976 2.465 . S
Tb1932 O1977 2.387 . S
Tb1932 O1979 2.428 . S
Tb1932 O1980 2.308 . S
Tb1932 O1984 2.349 . S
Tb1932 O1987 2.393 . S
Tb1932 C1996 2.802 . S
C1933 N1934 1.379 . S
C1933 C1936 1.416 . S
C1933 C1940 1.424 . S
N1934 C1933 1.379 . S
N1934 C1937 1.334 . S
N1934 Tb1943 2.617 . S
C1935 C1937 1.390 . S
C1935 C1938 1.339 . S
C1935 H1955 0.930 . S
C1936 C1933 1.416 . S
C1936 C1938 1.416 . S
C1936 C1942 1.448 . S
C1937 N1934 1.334 . S
C1937 C1935 1.390 . S
C1937 H1948 0.930 . S
C1938 C1935 1.339 . S
C1938 C1936 1.416 . S
C1938 H1959 0.930 . S
C1939 C1940 1.413 . S
C1939 C1941 1.427 . S
C1939 C1945 1.416 . S
C1940 C1933 1.424 . S
C1940 C1939 1.413 . S
C1940 N1944 1.361 . S
C1941 C1939 1.427 . S
C1941 C1942 1.328 . S
C1941 H1956 0.929 . S
C1942 C1936 1.448 . S
C1942 C1941 1.328 . S
C1942 H1957 0.930 . S
Tb1943 N1934 2.617 . S
Tb1943 N1944 2.572 . S
Tb1943 O1978 2.349 . S
Tb1943 O1981 2.393 . S
Tb1943 O1982 2.465 . S
Tb1943 O1983 2.387 . S
Tb1943 O1985 2.428 . S
Tb1943 O1986 2.308 . S
Tb1943 C2007 2.802 . S
N1944 C1940 1.361 . S
N1944 Tb1943 2.572 . S
N1944 C1946 1.340 . S
C1945 C1939 1.416 . S
C1945 C1947 1.332 . S
C1945 H1953 0.931 . S
C1946 N1944 1.340 . S
C1946 C1947 1.407 . S
C1946 H1952 0.930 . S
C1947 C1945 1.332 . S
C1947 C1946 1.407 . S
C1947 H1949 0.929 . S
H1948 C1937 0.930 . S
H1949 C1947 0.929 . S
H1950 C1965 0.930 . S
H1951 C1972 0.929 . S
H1952 C1946 0.930 . S
H1953 C1945 0.931 . S
H1954 C1968 0.930 . S
H1955 C1935 0.930 . S
H1956 C1941 0.929 . S
H1957 C1942 0.930 . S
H1958 C1963 0.930 . S
H1959 C1938 0.930 . S
H1960 C1971 0.931 . S
N1961 Tb1932 2.617 . S
N1961 C1962 1.379 . S
N1961 C1965 1.334 . S
C1962 N1961 1.379 . S
C1962 C1964 1.416 . S
C1962 C1970 1.424 . S
C1963 H1958 0.930 . S
C1963 C1965 1.390 . S
C1963 C1966 1.339 . S
C1964 C1962 1.416 . S
C1964 C1966 1.416 . S
C1964 C1997 1.448 . S
C1965 H1950 0.930 . S
C1965 N1961 1.334 . S
C1965 C1963 1.390 . S
C1966 C1963 1.339 . S
C1966 C1964 1.416 . S
C1966 H1973 0.930 . S
N1967 Tb1932 2.572 . S
N1967 C1968 1.340 . S
N1967 C1970 1.361 . S
C1968 H1954 0.930 . S
C1968 N1967 1.340 . S
C1968 C1972 1.407 . S
C1969 C1970 1.413 . S
C1969 C1971 1.416 . S
C1969 C1998 1.427 . S
C1970 C1962 1.424 . S
C1970 N1967 1.361 . S
C1970 C1969 1.413 . S
C1971 H1960 0.931 . S
C1971 C1969 1.416 . S
C1971 C1972 1.332 . S
C1972 H1951 0.929 . S
C1972 C1968 1.407 . S
C1972 C1971 1.332 . S
H1973 C1966 0.930 . S
H1974 C1997 0.930 . S
H1975 C1998 0.929 . S
O1976 Tb1932 2.465 . S
O1976 C1996 1.264 . S
O1977 Tb1932 2.387 . S
O1977 C1988 1.264 . S
O1978 Tb1943 2.349 . S
O1978 C1988 1.243 . S
O1979 Tb1932 2.428 . S
O1979 C1996 1.256 . S
O1980 Tb1932 2.308 . S
O1980 C1995 1.266 . S
O1981 Tb1943 2.393 . S
O1981 C1995 1.248 . S
O1982 Tb1943 2.465 . S
O1982 C2007 1.264 . S
O1983 Tb1943 2.387 . S
O1983 C1999 1.264 . S
O1984 Tb1932 2.349 . S
O1984 C1999 1.243 . S
O1985 Tb1943 2.428 . S
O1985 C2007 1.256 . S
O1986 Tb1943 2.308 . S
O1986 C2006 1.266 . S
O1987 Tb1932 2.393 . S
O1987 C2006 1.248 . S
C1988 O1977 1.264 . S
C1988 O1978 1.243 . S
C1989 C1992 1.399 . S
C1989 C1994 1.383 . S
C1989 C1996 1.496 . S
C1990 C1991 1.399 . S
C1990 C1994 1.389 . S
C1991 C1990 1.399 . S
C1991 C1993 1.380 . S
C1991 H2008 0.929 . S
C1992 C1989 1.399 . S
C1992 C1993 1.392 . S
C1992 H2009 0.929 . S
C1993 C1991 1.380 . S
C1993 C1992 1.392 . S
C1993 H2010 0.929 . S
C1994 C1989 1.383 . S
C1994 C1990 1.389 . S
C1994 H2011 0.931 . S
C1995 O1980 1.266 . S
C1995 O1981 1.248 . S
C1996 Tb1932 2.802 . S
C1996 O1976 1.264 . S
C1996 O1979 1.256 . S
C1996 C1989 1.496 . S
C1997 C1964 1.448 . S
C1997 H1974 0.930 . S
C1997 C1998 1.328 . S
C1998 C1969 1.427 . S
C1998 H1975 0.929 . S
C1998 C1997 1.328 . S
C1999 O1983 1.264 . S
C1999 O1984 1.243 . S
C2000 C2003 1.399 . S
C2000 C2004 1.383 . S
C2000 C2007 1.496 . S
C2001 C2002 1.399 . S
C2001 C2004 1.389 . S
C2002 C2001 1.399 . S
C2002 C2005 1.380 . S
C2002 H2012 0.929 . S
C2003 C2000 1.399 . S
C2003 C2005 1.392 . S
C2003 H2013 0.929 . S
C2004 C2000 1.383 . S
C2004 C2001 1.389 . S
C2004 H2014 0.931 . S
C2005 C2002 1.380 . S
C2005 C2003 1.392 . S
C2005 H2015 0.929 . S
C2006 O1986 1.266 . S
C2006 O1987 1.248 . S
C2007 Tb1943 2.802 . S
C2007 O1982 1.264 . S
C2007 O1985 1.256 . S
C2007 C2000 1.496 . S
H2008 C1991 0.929 . S
H2009 C1992 0.929 . S
H2010 C1993 0.929 . S
H2011 C1994 0.931 . S
H2012 C2002 0.929 . S
H2013 C2003 0.929 . S
H2014 C2004 0.931 . S
H2015 C2005 0.929 . S
Tb2016 N2045 2.617 . S
Tb2016 N2051 2.572 . S
Tb2016 O2060 2.465 . S
Tb2016 O2061 2.387 . S
Tb2016 O2063 2.428 . S
Tb2016 O2064 2.308 . S
Tb2016 O2068 2.349 . S
Tb2016 O2071 2.393 . S
Tb2016 C2080 2.802 . S
C2017 N2018 1.379 . S
C2017 C2020 1.416 . S
C2017 C2024 1.424 . S
N2018 C2017 1.379 . S
N2018 C2021 1.334 . S
N2018 Tb2027 2.617 . S
C2019 C2021 1.390 . S
C2019 C2022 1.339 . S
C2019 H2039 0.930 . S
C2020 C2017 1.416 . S
C2020 C2022 1.416 . S
C2020 C2026 1.448 . S
C2021 N2018 1.334 . S
C2021 C2019 1.390 . S
C2021 H2032 0.930 . S
C2022 C2019 1.339 . S
C2022 C2020 1.416 . S
C2022 H2043 0.930 . S
C2023 C2024 1.413 . S
C2023 C2025 1.427 . S
C2023 C2029 1.416 . S
C2024 C2017 1.424 . S
C2024 C2023 1.413 . S
C2024 N2028 1.361 . S
C2025 C2023 1.427 . S
C2025 C2026 1.328 . S
C2025 H2040 0.929 . S
C2026 C2020 1.448 . S
C2026 C2025 1.328 . S
C2026 H2041 0.930 . S
Tb2027 N2018 2.617 . S
Tb2027 N2028 2.572 . S
Tb2027 O2062 2.349 . S
Tb2027 O2065 2.393 . S
Tb2027 O2066 2.465 . S
Tb2027 O2067 2.387 . S
Tb2027 O2069 2.428 . S
Tb2027 O2070 2.308 . S
Tb2027 C2091 2.802 . S
N2028 C2024 1.361 . S
N2028 Tb2027 2.572 . S
N2028 C2030 1.340 . S
C2029 C2023 1.416 . S
C2029 C2031 1.332 . S
C2029 H2037 0.931 . S
C2030 N2028 1.340 . S
C2030 C2031 1.407 . S
C2030 H2036 0.930 . S
C2031 C2029 1.332 . S
C2031 C2030 1.407 . S
C2031 H2033 0.929 . S
H2032 C2021 0.930 . S
H2033 C2031 0.929 . S
H2034 C2049 0.930 . S
H2035 C2056 0.929 . S
H2036 C2030 0.930 . S
H2037 C2029 0.931 . S
H2038 C2052 0.930 . S
H2039 C2019 0.930 . S
H2040 C2025 0.929 . S
H2041 C2026 0.930 . S
H2042 C2047 0.930 . S
H2043 C2022 0.930 . S
H2044 C2055 0.931 . S
N2045 Tb2016 2.617 . S
N2045 C2046 1.379 . S
N2045 C2049 1.334 . S
C2046 N2045 1.379 . S
C2046 C2048 1.416 . S
C2046 C2054 1.424 . S
C2047 H2042 0.930 . S
C2047 C2049 1.390 . S
C2047 C2050 1.339 . S
C2048 C2046 1.416 . S
C2048 C2050 1.416 . S
C2048 C2081 1.448 . S
C2049 H2034 0.930 . S
C2049 N2045 1.334 . S
C2049 C2047 1.390 . S
C2050 C2047 1.339 . S
C2050 C2048 1.416 . S
C2050 H2057 0.930 . S
N2051 Tb2016 2.572 . S
N2051 C2052 1.340 . S
N2051 C2054 1.361 . S
C2052 H2038 0.930 . S
C2052 N2051 1.340 . S
C2052 C2056 1.407 . S
C2053 C2054 1.413 . S
C2053 C2055 1.416 . S
C2053 C2082 1.427 . S
C2054 C2046 1.424 . S
C2054 N2051 1.361 . S
C2054 C2053 1.413 . S
C2055 H2044 0.931 . S
C2055 C2053 1.416 . S
C2055 C2056 1.332 . S
C2056 H2035 0.929 . S
C2056 C2052 1.407 . S
C2056 C2055 1.332 . S
H2057 C2050 0.930 . S
H2058 C2081 0.930 . S
H2059 C2082 0.929 . S
O2060 Tb2016 2.465 . S
O2060 C2080 1.264 . S
O2061 Tb2016 2.387 . S
O2061 C2072 1.264 . S
O2062 Tb2027 2.349 . S
O2062 C2072 1.243 . S
O2063 Tb2016 2.428 . S
O2063 C2080 1.256 . S
O2064 Tb2016 2.308 . S
O2064 C2079 1.266 . S
O2065 Tb2027 2.393 . S
O2065 C2079 1.248 . S
O2066 Tb2027 2.465 . S
O2066 C2091 1.264 . S
O2067 Tb2027 2.387 . S
O2067 C2083 1.264 . S
O2068 Tb2016 2.349 . S
O2068 C2083 1.243 . S
O2069 Tb2027 2.428 . S
O2069 C2091 1.256 . S
O2070 Tb2027 2.308 . S
O2070 C2090 1.266 . S
O2071 Tb2016 2.393 . S
O2071 C2090 1.248 . S
C2072 O2061 1.264 . S
C2072 O2062 1.243 . S
C2073 C2076 1.399 . S
C2073 C2078 1.383 . S
C2073 C2080 1.496 . S
C2074 C2075 1.399 . S
C2074 C2078 1.389 . S
C2075 C2074 1.399 . S
C2075 C2077 1.380 . S
C2075 H2092 0.929 . S
C2076 C2073 1.399 . S
C2076 C2077 1.392 . S
C2076 H2093 0.929 . S
C2077 C2075 1.380 . S
C2077 C2076 1.392 . S
C2077 H2094 0.929 . S
C2078 C2073 1.383 . S
C2078 C2074 1.389 . S
C2078 H2095 0.931 . S
C2079 O2064 1.266 . S
C2079 O2065 1.248 . S
C2080 Tb2016 2.802 . S
C2080 O2060 1.264 . S
C2080 O2063 1.256 . S
C2080 C2073 1.496 . S
C2081 C2048 1.448 . S
C2081 H2058 0.930 . S
C2081 C2082 1.328 . S
C2082 C2053 1.427 . S
C2082 H2059 0.929 . S
C2082 C2081 1.328 . S
C2083 O2067 1.264 . S
C2083 O2068 1.243 . S
C2084 C2087 1.399 . S
C2084 C2088 1.383 . S
C2084 C2091 1.496 . S
C2085 C2086 1.399 . S
C2085 C2088 1.389 . S
C2086 C2085 1.399 . S
C2086 C2089 1.380 . S
C2086 H2096 0.929 . S
C2087 C2084 1.399 . S
C2087 C2089 1.392 . S
C2087 H2097 0.929 . S
C2088 C2084 1.383 . S
C2088 C2085 1.389 . S
C2088 H2098 0.931 . S
C2089 C2086 1.380 . S
C2089 C2087 1.392 . S
C2089 H2099 0.929 . S
C2090 O2070 1.266 . S
C2090 O2071 1.248 . S
C2091 Tb2027 2.802 . S
C2091 O2066 1.264 . S
C2091 O2069 1.256 . S
C2091 C2084 1.496 . S
H2092 C2075 0.929 . S
H2093 C2076 0.929 . S
H2094 C2077 0.929 . S
H2095 C2078 0.931 . S
H2096 C2086 0.929 . S
H2097 C2087 0.929 . S
H2098 C2088 0.931 . S
H2099 C2089 0.929 . S
Tb2100 N2129 2.617 . S
Tb2100 N2135 2.572 . S
Tb2100 O2144 2.465 1_556 S
Tb2100 O2145 2.387 . S
Tb2100 O2147 2.428 1_556 S
Tb2100 O2148 2.308 1_556 S
Tb2100 O2152 2.349 1_556 S
Tb2100 O2155 2.393 . S
Tb2100 C2164 2.802 1_556 S
C2101 N2102 1.379 . S
C2101 C2104 1.416 . S
C2101 C2108 1.424 . S
N2102 C2101 1.379 . S
N2102 C2105 1.334 . S
N2102 Tb2111 2.617 1_554 S
C2103 C2105 1.390 . S
C2103 C2106 1.339 . S
C2103 H2123 0.930 . S
C2104 C2101 1.416 . S
C2104 C2106 1.416 . S
C2104 C2110 1.448 . S
C2105 N2102 1.334 . S
C2105 C2103 1.390 . S
C2105 H2116 0.930 . S
C2106 C2103 1.339 . S
C2106 C2104 1.416 . S
C2106 H2127 0.930 . S
C2107 C2108 1.413 . S
C2107 C2109 1.427 . S
C2107 C2113 1.416 . S
C2108 C2101 1.424 . S
C2108 C2107 1.413 . S
C2108 N2112 1.361 . S
C2109 C2107 1.427 . S
C2109 C2110 1.328 . S
C2109 H2124 0.929 . S
C2110 C2104 1.448 . S
C2110 C2109 1.328 . S
C2110 H2125 0.930 . S
Tb2111 N2102 2.617 1_556 S
Tb2111 N2112 2.572 1_556 S
Tb2111 O2146 2.349 . S
Tb2111 O2149 2.393 1_556 S
Tb2111 O2150 2.465 . S
Tb2111 O2151 2.387 1_556 S
Tb2111 O2153 2.428 . S
Tb2111 O2154 2.308 . S
Tb2111 C2175 2.802 . S
N2112 C2108 1.361 . S
N2112 Tb2111 2.572 1_554 S
N2112 C2114 1.340 . S
C2113 C2107 1.416 . S
C2113 C2115 1.332 . S
C2113 H2121 0.931 . S
C2114 N2112 1.340 . S
C2114 C2115 1.407 . S
C2114 H2120 0.930 1_554 S
C2115 C2113 1.332 . S
C2115 C2114 1.407 . S
C2115 H2117 0.929 . S
H2116 C2105 0.930 . S
H2117 C2115 0.929 . S
H2118 C2133 0.930 . S
H2119 C2140 0.929 . S
H2120 C2114 0.930 1_556 S
H2121 C2113 0.931 . S
H2122 C2136 0.930 . S
H2123 C2103 0.930 . S
H2124 C2109 0.929 . S
H2125 C2110 0.930 . S
H2126 C2131 0.930 . S
H2127 C2106 0.930 . S
H2128 C2139 0.931 . S
N2129 Tb2100 2.617 . S
N2129 C2130 1.379 . S
N2129 C2133 1.334 . S
C2130 N2129 1.379 . S
C2130 C2132 1.416 . S
C2130 C2138 1.424 . S
C2131 H2126 0.930 . S
C2131 C2133 1.390 . S
C2131 C2134 1.339 . S
C2132 C2130 1.416 . S
C2132 C2134 1.416 . S
C2132 C2165 1.448 . S
C2133 H2118 0.930 . S
C2133 N2129 1.334 . S
C2133 C2131 1.390 . S
C2134 C2131 1.339 . S
C2134 C2132 1.416 . S
C2134 H2141 0.930 . S
N2135 Tb2100 2.572 . S
N2135 C2136 1.340 . S
N2135 C2138 1.361 . S
C2136 H2122 0.930 . S
C2136 N2135 1.340 . S
C2136 C2140 1.407 . S
C2137 C2138 1.413 . S
C2137 C2139 1.416 . S
C2137 C2166 1.427 . S
C2138 C2130 1.424 . S
C2138 N2135 1.361 . S
C2138 C2137 1.413 . S
C2139 H2128 0.931 . S
C2139 C2137 1.416 . S
C2139 C2140 1.332 . S
C2140 H2119 0.929 . S
C2140 C2136 1.407 . S
C2140 C2139 1.332 . S
H2141 C2134 0.930 . S
H2142 C2165 0.930 . S
H2143 C2166 0.929 . S
O2144 Tb2100 2.465 1_554 S
O2144 C2164 1.264 . S
O2145 Tb2100 2.387 . S
O2145 C2156 1.264 . S
O2146 Tb2111 2.349 . S
O2146 C2156 1.243 . S
O2147 Tb2100 2.428 1_554 S
O2147 C2164 1.256 . S
O2148 Tb2100 2.308 1_554 S
O2148 C2163 1.266 . S
O2149 Tb2111 2.393 1_554 S
O2149 C2163 1.248 . S
O2150 Tb2111 2.465 . S
O2150 C2175 1.264 . S
O2151 Tb2111 2.387 1_554 S
O2151 C2167 1.264 . S
O2152 Tb2100 2.349 1_554 S
O2152 C2167 1.243 . S
O2153 Tb2111 2.428 . S
O2153 C2175 1.256 . S
O2154 Tb2111 2.308 . S
O2154 C2174 1.266 . S
O2155 Tb2100 2.393 . S
O2155 C2174 1.248 . S
C2156 O2145 1.264 . S
C2156 O2146 1.243 . S
C2157 C2160 1.399 . S
C2157 C2162 1.383 . S
C2157 C2164 1.496 . S
C2158 C2159 1.399 . S
C2158 C2162 1.389 . S
C2159 C2158 1.399 . S
C2159 C2161 1.380 . S
C2159 H2176 0.929 . S
C2160 C2157 1.399 . S
C2160 C2161 1.392 . S
C2160 H2177 0.929 . S
C2161 C2159 1.380 . S
C2161 C2160 1.392 . S
C2161 H2178 0.929 . S
C2162 C2157 1.383 . S
C2162 C2158 1.389 . S
C2162 H2179 0.931 . S
C2163 O2148 1.266 . S
C2163 O2149 1.248 . S
C2164 Tb2100 2.802 1_554 S
C2164 O2144 1.264 . S
C2164 O2147 1.256 . S
C2164 C2157 1.496 . S
C2165 C2132 1.448 . S
C2165 H2142 0.930 . S
C2165 C2166 1.328 . S
C2166 C2137 1.427 . S
C2166 H2143 0.929 . S
C2166 C2165 1.328 . S
C2167 O2151 1.264 . S
C2167 O2152 1.243 . S
C2168 C2171 1.399 . S
C2168 C2172 1.383 . S
C2168 C2175 1.496 . S
C2169 C2170 1.399 . S
C2169 C2172 1.389 . S
C2170 C2169 1.399 . S
C2170 C2173 1.380 . S
C2170 H2180 0.929 . S
C2171 C2168 1.399 . S
C2171 C2173 1.392 . S
C2171 H2181 0.929 . S
C2172 C2168 1.383 . S
C2172 C2169 1.389 . S
C2172 H2182 0.931 . S
C2173 C2170 1.380 . S
C2173 C2171 1.392 . S
C2173 H2183 0.929 . S
C2174 O2154 1.266 . S
C2174 O2155 1.248 . S
C2175 Tb2111 2.802 . S
C2175 O2150 1.264 . S
C2175 O2153 1.256 . S
C2175 C2168 1.496 . S
H2176 C2159 0.929 . S
H2177 C2160 0.929 . S
H2178 C2161 0.929 . S
H2179 C2162 0.931 . S
H2180 C2170 0.929 . S
H2181 C2171 0.929 . S
H2182 C2172 0.931 . S
H2183 C2173 0.929 . S
Tb2184 N2213 2.617 . S
Tb2184 N2219 2.572 . S
Tb2184 O2228 2.465 . S
Tb2184 O2229 2.387 . S
Tb2184 O2231 2.428 . S
Tb2184 O2232 2.308 . S
Tb2184 O2236 2.349 . S
Tb2184 O2239 2.393 . S
Tb2184 C2248 2.802 . S
C2185 N2186 1.379 1_655 S
C2185 C2188 1.416 . S
C2185 C2192 1.424 . S
N2186 C2185 1.379 1_455 S
N2186 C2189 1.334 . S
N2186 Tb2195 2.617 . S
C2187 C2189 1.390 1_655 S
C2187 C2190 1.339 . S
C2187 H2207 0.930 . S
C2188 C2185 1.416 . S
C2188 C2190 1.416 . S
C2188 C2194 1.448 . S
C2189 N2186 1.334 . S
C2189 C2187 1.390 1_455 S
C2189 H2200 0.930 . S
C2190 C2187 1.339 . S
C2190 C2188 1.416 . S
C2190 H2211 0.930 . S
C2191 C2192 1.413 . S
C2191 C2193 1.427 . S
C2191 C2197 1.416 . S
C2192 C2185 1.424 . S
C2192 C2191 1.413 . S
C2192 N2196 1.361 1_655 S
C2193 C2191 1.427 . S
C2193 C2194 1.328 . S
C2193 H2208 0.929 . S
C2194 C2188 1.448 . S
C2194 C2193 1.328 . S
C2194 H2209 0.930 . S
Tb2195 N2186 2.617 . S
Tb2195 N2196 2.572 . S
Tb2195 O2230 2.349 . S
Tb2195 O2233 2.393 . S
Tb2195 O2234 2.465 . S
Tb2195 O2235 2.387 . S
Tb2195 O2237 2.428 . S
Tb2195 O2238 2.308 . S
Tb2195 C2259 2.802 . S
N2196 C2192 1.361 1_455 S
N2196 Tb2195 2.572 . S
N2196 C2198 1.340 . S
C2197 C2191 1.416 . S
C2197 C2199 1.332 1_655 S
C2197 H2205 0.931 . S
C2198 N2196 1.340 . S
C2198 C2199 1.407 . S
C2198 H2204 0.930 . S
C2199 C2197 1.332 1_455 S
C2199 C2198 1.407 . S
C2199 H2201 0.929 . S
H2200 C2189 0.930 . S
H2201 C2199 0.929 . S
H2202 C2217 0.930 . S
H2203 C2224 0.929 . S
H2204 C2198 0.930 . S
H2205 C2197 0.931 . S
H2206 C2220 0.930 . S
H2207 C2187 0.930 . S
H2208 C2193 0.929 . S
H2209 C2194 0.930 . S
H2210 C2215 0.930 . S
H2211 C2190 0.930 . S
H2212 C2223 0.931 . S
N2213 Tb2184 2.617 . S
N2213 C2214 1.379 . S
N2213 C2217 1.334 . S
C2214 N2213 1.379 . S
C2214 C2216 1.416 . S
C2214 C2222 1.424 . S
C2215 H2210 0.930 . S
C2215 C2217 1.390 . S
C2215 C2218 1.339 . S
C2216 C2214 1.416 . S
C2216 C2218 1.416 . S
C2216 C2249 1.448 . S
C2217 H2202 0.930 . S
C2217 N2213 1.334 . S
C2217 C2215 1.390 . S
C2218 C2215 1.339 . S
C2218 C2216 1.416 . S
C2218 H2225 0.930 . S
N2219 Tb2184 2.572 . S
N2219 C2220 1.340 . S
N2219 C2222 1.361 . S
C2220 H2206 0.930 . S
C2220 N2219 1.340 . S
C2220 C2224 1.407 . S
C2221 C2222 1.413 . S
C2221 C2223 1.416 . S
C2221 C2250 1.427 . S
C2222 C2214 1.424 . S
C2222 N2219 1.361 . S
C2222 C2221 1.413 . S
C2223 H2212 0.931 . S
C2223 C2221 1.416 . S
C2223 C2224 1.332 . S
C2224 H2203 0.929 . S
C2224 C2220 1.407 . S
C2224 C2223 1.332 . S
H2225 C2218 0.930 . S
H2226 C2249 0.930 . S
H2227 C2250 0.929 . S
O2228 Tb2184 2.465 . S
O2228 C2248 1.264 . S
O2229 Tb2184 2.387 . S
O2229 C2240 1.264 . S
O2230 Tb2195 2.349 . S
O2230 C2240 1.243 . S
O2231 Tb2184 2.428 . S
O2231 C2248 1.256 . S
O2232 Tb2184 2.308 . S
O2232 C2247 1.266 . S
O2233 Tb2195 2.393 . S
O2233 C2247 1.248 . S
O2234 Tb2195 2.465 . S
O2234 C2259 1.264 . S
O2235 Tb2195 2.387 . S
O2235 C2251 1.264 . S
O2236 Tb2184 2.349 . S
O2236 C2251 1.243 . S
O2237 Tb2195 2.428 . S
O2237 C2259 1.256 . S
O2238 Tb2195 2.308 . S
O2238 C2258 1.266 . S
O2239 Tb2184 2.393 . S
O2239 C2258 1.248 . S
C2240 O2229 1.264 . S
C2240 O2230 1.243 . S
C2241 C2244 1.399 . S
C2241 C2246 1.383 . S
C2241 C2248 1.496 . S
C2242 C2243 1.399 . S
C2242 C2246 1.389 . S
C2243 C2242 1.399 . S
C2243 C2245 1.380 . S
C2243 H2260 0.929 . S
C2244 C2241 1.399 . S
C2244 C2245 1.392 . S
C2244 H2261 0.929 . S
C2245 C2243 1.380 . S
C2245 C2244 1.392 . S
C2245 H2262 0.929 . S
C2246 C2241 1.383 . S
C2246 C2242 1.389 . S
C2246 H2263 0.931 . S
C2247 O2232 1.266 . S
C2247 O2233 1.248 . S
C2248 Tb2184 2.802 . S
C2248 O2228 1.264 . S
C2248 O2231 1.256 . S
C2248 C2241 1.496 . S
C2249 C2216 1.448 . S
C2249 H2226 0.930 . S
C2249 C2250 1.328 . S
C2250 C2221 1.427 . S
C2250 H2227 0.929 . S
C2250 C2249 1.328 . S
C2251 O2235 1.264 . S
C2251 O2236 1.243 . S
C2252 C2255 1.399 . S
C2252 C2256 1.383 . S
C2252 C2259 1.496 1_655 S
C2253 C2254 1.399 . S
C2253 C2256 1.389 . S
C2254 C2253 1.399 . S
C2254 C2257 1.380 . S
C2254 H2264 0.929 . S
C2255 C2252 1.399 . S
C2255 C2257 1.392 . S
C2255 H2265 0.929 . S
C2256 C2252 1.383 . S
C2256 C2253 1.389 . S
C2256 H2266 0.931 . S
C2257 C2254 1.380 . S
C2257 C2255 1.392 . S
C2257 H2267 0.929 . S
C2258 O2238 1.266 . S
C2258 O2239 1.248 . S
C2259 Tb2195 2.802 . S
C2259 O2234 1.264 . S
C2259 O2237 1.256 . S
C2259 C2252 1.496 1_455 S
H2260 C2243 0.929 . S
H2261 C2244 0.929 . S
H2262 C2245 0.929 . S
H2263 C2246 0.931 . S
H2264 C2254 0.929 . S
H2265 C2255 0.929 . S
H2266 C2256 0.931 . S
H2267 C2257 0.929 . S
Tb2268 N2297 2.617 . S
Tb2268 N2303 2.572 . S
Tb2268 O2312 2.465 . S
Tb2268 O2313 2.387 . S
Tb2268 O2315 2.428 . S
Tb2268 O2316 2.308 . S
Tb2268 O2320 2.349 . S
Tb2268 O2323 2.393 . S
Tb2268 C2332 2.802 . S
C2269 N2270 1.379 . S
C2269 C2272 1.416 . S
C2269 C2276 1.424 . S
N2270 C2269 1.379 . S
N2270 C2273 1.334 . S
N2270 Tb2279 2.617 . S
C2271 C2273 1.390 . S
C2271 C2274 1.339 . S
C2271 H2291 0.930 . S
C2272 C2269 1.416 . S
C2272 C2274 1.416 . S
C2272 C2278 1.448 . S
C2273 N2270 1.334 . S
C2273 C2271 1.390 . S
C2273 H2284 0.930 . S
C2274 C2271 1.339 . S
C2274 C2272 1.416 . S
C2274 H2295 0.930 . S
C2275 C2276 1.413 . S
C2275 C2277 1.427 . S
C2275 C2281 1.416 . S
C2276 C2269 1.424 . S
C2276 C2275 1.413 . S
C2276 N2280 1.361 . S
C2277 C2275 1.427 . S
C2277 C2278 1.328 . S
C2277 H2292 0.929 . S
C2278 C2272 1.448 . S
C2278 C2277 1.328 . S
C2278 H2293 0.930 . S
Tb2279 N2270 2.617 . S
Tb2279 N2280 2.572 . S
Tb2279 O2314 2.349 . S
Tb2279 O2317 2.393 . S
Tb2279 O2318 2.465 . S
Tb2279 O2319 2.387 . S
Tb2279 O2321 2.428 . S
Tb2279 O2322 2.308 . S
Tb2279 C2343 2.802 . S
N2280 C2276 1.361 . S
N2280 Tb2279 2.572 . S
N2280 C2282 1.340 . S
C2281 C2275 1.416 . S
C2281 C2283 1.332 . S
C2281 H2289 0.931 . S
C2282 N2280 1.340 . S
C2282 C2283 1.407 . S
C2282 H2288 0.930 . S
C2283 C2281 1.332 . S
C2283 C2282 1.407 . S
C2283 H2285 0.929 . S
H2284 C2273 0.930 . S
H2285 C2283 0.929 . S
H2286 C2301 0.930 . S
H2287 C2308 0.929 . S
H2288 C2282 0.930 . S
H2289 C2281 0.931 . S
H2290 C2304 0.930 . S
H2291 C2271 0.930 . S
H2292 C2277 0.929 . S
H2293 C2278 0.930 . S
H2294 C2299 0.930 . S
H2295 C2274 0.930 . S
H2296 C2307 0.931 . S
N2297 Tb2268 2.617 . S
N2297 C2298 1.379 . S
N2297 C2301 1.334 . S
C2298 N2297 1.379 . S
C2298 C2300 1.416 . S
C2298 C2306 1.424 . S
C2299 H2294 0.930 . S
C2299 C2301 1.390 . S
C2299 C2302 1.339 . S
C2300 C2298 1.416 . S
C2300 C2302 1.416 . S
C2300 C2333 1.448 . S
C2301 H2286 0.930 . S
C2301 N2297 1.334 . S
C2301 C2299 1.390 . S
C2302 C2299 1.339 . S
C2302 C2300 1.416 . S
C2302 H2309 0.930 . S
N2303 Tb2268 2.572 . S
N2303 C2304 1.340 . S
N2303 C2306 1.361 . S
C2304 H2290 0.930 . S
C2304 N2303 1.340 . S
C2304 C2308 1.407 . S
C2305 C2306 1.413 . S
C2305 C2307 1.416 . S
C2305 C2334 1.427 . S
C2306 C2298 1.424 . S
C2306 N2303 1.361 . S
C2306 C2305 1.413 . S
C2307 H2296 0.931 . S
C2307 C2305 1.416 . S
C2307 C2308 1.332 . S
C2308 H2287 0.929 . S
C2308 C2304 1.407 . S
C2308 C2307 1.332 . S
H2309 C2302 0.930 . S
H2310 C2333 0.930 . S
H2311 C2334 0.929 . S
O2312 Tb2268 2.465 . S
O2312 C2332 1.264 . S
O2313 Tb2268 2.387 . S
O2313 C2324 1.264 . S
O2314 Tb2279 2.349 . S
O2314 C2324 1.243 . S
O2315 Tb2268 2.428 . S
O2315 C2332 1.256 . S
O2316 Tb2268 2.308 . S
O2316 C2331 1.266 . S
O2317 Tb2279 2.393 . S
O2317 C2331 1.248 . S
O2318 Tb2279 2.465 . S
O2318 C2343 1.264 . S
O2319 Tb2279 2.387 . S
O2319 C2335 1.264 . S
O2320 Tb2268 2.349 . S
O2320 C2335 1.243 . S
O2321 Tb2279 2.428 . S
O2321 C2343 1.256 . S
O2322 Tb2279 2.308 . S
O2322 C2342 1.266 . S
O2323 Tb2268 2.393 . S
O2323 C2342 1.248 . S
C2324 O2313 1.264 . S
C2324 O2314 1.243 . S
C2325 C2328 1.399 . S
C2325 C2330 1.383 . S
C2325 C2332 1.496 . S
C2326 C2327 1.399 . S
C2326 C2330 1.389 . S
C2327 C2326 1.399 . S
C2327 C2329 1.380 . S
C2327 H2344 0.929 . S
C2328 C2325 1.399 . S
C2328 C2329 1.392 . S
C2328 H2345 0.929 . S
C2329 C2327 1.380 . S
C2329 C2328 1.392 . S
C2329 H2346 0.929 . S
C2330 C2325 1.383 . S
C2330 C2326 1.389 . S
C2330 H2347 0.931 . S
C2331 O2316 1.266 . S
C2331 O2317 1.248 . S
C2332 Tb2268 2.802 . S
C2332 O2312 1.264 . S
C2332 O2315 1.256 . S
C2332 C2325 1.496 . S
C2333 C2300 1.448 . S
C2333 H2310 0.930 . S
C2333 C2334 1.328 . S
C2334 C2305 1.427 . S
C2334 H2311 0.929 . S
C2334 C2333 1.328 . S
C2335 O2319 1.264 . S
C2335 O2320 1.243 . S
C2336 C2339 1.399 . S
C2336 C2340 1.383 . S
C2336 C2343 1.496 . S
C2337 C2338 1.399 . S
C2337 C2340 1.389 . S
C2338 C2337 1.399 . S
C2338 C2341 1.380 . S
C2338 H2348 0.929 . S
C2339 C2336 1.399 . S
C2339 C2341 1.392 . S
C2339 H2349 0.929 . S
C2340 C2336 1.383 . S
C2340 C2337 1.389 . S
C2340 H2350 0.931 . S
C2341 C2338 1.380 . S
C2341 C2339 1.392 . S
C2341 H2351 0.929 . S
C2342 O2322 1.266 . S
C2342 O2323 1.248 . S
C2343 Tb2279 2.802 . S
C2343 O2318 1.264 . S
C2343 O2321 1.256 . S
C2343 C2336 1.496 . S
H2344 C2327 0.929 . S
H2345 C2328 0.929 . S
H2346 C2329 0.929 . S
H2347 C2330 0.931 . S
H2348 C2338 0.929 . S
H2349 C2339 0.929 . S
H2350 C2340 0.931 . S
H2351 C2341 0.929 . S
Tb2352 N2381 2.617 . S
Tb2352 N2387 2.572 . S
Tb2352 O2396 2.465 . S
Tb2352 O2397 2.387 . S
Tb2352 O2399 2.428 . S
Tb2352 O2400 2.308 . S
Tb2352 O2404 2.349 . S
Tb2352 O2407 2.393 . S
Tb2352 C2416 2.802 . S
C2353 N2354 1.379 . S
C2353 C2356 1.416 . S
C2353 C2360 1.424 . S
N2354 C2353 1.379 . S
N2354 C2357 1.334 . S
N2354 Tb2363 2.617 . S
C2355 C2357 1.390 . S
C2355 C2358 1.339 . S
C2355 H2375 0.930 . S
C2356 C2353 1.416 . S
C2356 C2358 1.416 . S
C2356 C2362 1.448 . S
C2357 N2354 1.334 . S
C2357 C2355 1.390 . S
C2357 H2368 0.930 . S
C2358 C2355 1.339 . S
C2358 C2356 1.416 . S
C2358 H2379 0.930 . S
C2359 C2360 1.413 . S
C2359 C2361 1.427 . S
C2359 C2365 1.416 . S
C2360 C2353 1.424 . S
C2360 C2359 1.413 . S
C2360 N2364 1.361 . S
C2361 C2359 1.427 . S
C2361 C2362 1.328 . S
C2361 H2376 0.929 . S
C2362 C2356 1.448 . S
C2362 C2361 1.328 . S
C2362 H2377 0.930 . S
Tb2363 N2354 2.617 . S
Tb2363 N2364 2.572 . S
Tb2363 O2398 2.349 . S
Tb2363 O2401 2.393 . S
Tb2363 O2402 2.465 . S
Tb2363 O2403 2.387 . S
Tb2363 O2405 2.428 . S
Tb2363 O2406 2.308 . S
Tb2363 C2427 2.802 . S
N2364 C2360 1.361 . S
N2364 Tb2363 2.572 . S
N2364 C2366 1.340 . S
C2365 C2359 1.416 . S
C2365 C2367 1.332 . S
C2365 H2373 0.931 . S
C2366 N2364 1.340 . S
C2366 C2367 1.407 . S
C2366 H2372 0.930 . S
C2367 C2365 1.332 . S
C2367 C2366 1.407 . S
C2367 H2369 0.929 . S
H2368 C2357 0.930 . S
H2369 C2367 0.929 . S
H2370 C2385 0.930 . S
H2371 C2392 0.929 . S
H2372 C2366 0.930 . S
H2373 C2365 0.931 . S
H2374 C2388 0.930 . S
H2375 C2355 0.930 . S
H2376 C2361 0.929 . S
H2377 C2362 0.930 . S
H2378 C2383 0.930 . S
H2379 C2358 0.930 . S
H2380 C2391 0.931 . S
N2381 Tb2352 2.617 . S
N2381 C2382 1.379 . S
N2381 C2385 1.334 . S
C2382 N2381 1.379 . S
C2382 C2384 1.416 . S
C2382 C2390 1.424 . S
C2383 H2378 0.930 . S
C2383 C2385 1.390 . S
C2383 C2386 1.339 . S
C2384 C2382 1.416 . S
C2384 C2386 1.416 . S
C2384 C2417 1.448 . S
C2385 H2370 0.930 . S
C2385 N2381 1.334 . S
C2385 C2383 1.390 . S
C2386 C2383 1.339 . S
C2386 C2384 1.416 . S
C2386 H2393 0.930 . S
N2387 Tb2352 2.572 . S
N2387 C2388 1.340 . S
N2387 C2390 1.361 . S
C2388 H2374 0.930 . S
C2388 N2387 1.340 . S
C2388 C2392 1.407 . S
C2389 C2390 1.413 . S
C2389 C2391 1.416 . S
C2389 C2418 1.427 . S
C2390 C2382 1.424 . S
C2390 N2387 1.361 . S
C2390 C2389 1.413 . S
C2391 H2380 0.931 . S
C2391 C2389 1.416 . S
C2391 C2392 1.332 . S
C2392 H2371 0.929 . S
C2392 C2388 1.407 . S
C2392 C2391 1.332 . S
H2393 C2386 0.930 . S
H2394 C2417 0.930 . S
H2395 C2418 0.929 . S
O2396 Tb2352 2.465 . S
O2396 C2416 1.264 . S
O2397 Tb2352 2.387 . S
O2397 C2408 1.264 . S
O2398 Tb2363 2.349 . S
O2398 C2408 1.243 . S
O2399 Tb2352 2.428 . S
O2399 C2416 1.256 . S
O2400 Tb2352 2.308 . S
O2400 C2415 1.266 . S
O2401 Tb2363 2.393 . S
O2401 C2415 1.248 . S
O2402 Tb2363 2.465 . S
O2402 C2427 1.264 . S
O2403 Tb2363 2.387 . S
O2403 C2419 1.264 . S
O2404 Tb2352 2.349 . S
O2404 C2419 1.243 . S
O2405 Tb2363 2.428 . S
O2405 C2427 1.256 . S
O2406 Tb2363 2.308 . S
O2406 C2426 1.266 . S
O2407 Tb2352 2.393 . S
O2407 C2426 1.248 . S
C2408 O2397 1.264 . S
C2408 O2398 1.243 . S
C2409 C2412 1.399 . S
C2409 C2414 1.383 . S
C2409 C2416 1.496 . S
C2410 C2411 1.399 . S
C2410 C2414 1.389 . S
C2411 C2410 1.399 . S
C2411 C2413 1.380 . S
C2411 H2428 0.929 . S
C2412 C2409 1.399 . S
C2412 C2413 1.392 . S
C2412 H2429 0.929 . S
C2413 C2411 1.380 . S
C2413 C2412 1.392 . S
C2413 H2430 0.929 . S
C2414 C2409 1.383 . S
C2414 C2410 1.389 . S
C2414 H2431 0.931 . S
C2415 O2400 1.266 . S
C2415 O2401 1.248 . S
C2416 Tb2352 2.802 . S
C2416 O2396 1.264 . S
C2416 O2399 1.256 . S
C2416 C2409 1.496 . S
C2417 C2384 1.448 . S
C2417 H2394 0.930 . S
C2417 C2418 1.328 . S
C2418 C2389 1.427 . S
C2418 H2395 0.929 . S
C2418 C2417 1.328 . S
C2419 O2403 1.264 . S
C2419 O2404 1.243 . S
C2420 C2423 1.399 . S
C2420 C2424 1.383 . S
C2420 C2427 1.496 . S
C2421 C2422 1.399 . S
C2421 C2424 1.389 . S
C2422 C2421 1.399 . S
C2422 C2425 1.380 . S
C2422 H2432 0.929 . S
C2423 C2420 1.399 . S
C2423 C2425 1.392 . S
C2423 H2433 0.929 . S
C2424 C2420 1.383 . S
C2424 C2421 1.389 . S
C2424 H2434 0.931 . S
C2425 C2422 1.380 . S
C2425 C2423 1.392 . S
C2425 H2435 0.929 . S
C2426 O2406 1.266 . S
C2426 O2407 1.248 . S
C2427 Tb2363 2.802 . S
C2427 O2402 1.264 . S
C2427 O2405 1.256 . S
C2427 C2420 1.496 . S
H2428 C2411 0.929 . S
H2429 C2412 0.929 . S
H2430 C2413 0.929 . S
H2431 C2414 0.931 . S
H2432 C2422 0.929 . S
H2433 C2423 0.929 . S
H2434 C2424 0.931 . S
H2435 C2425 0.929 . S
Tb2436 N2465 2.617 . S
Tb2436 N2471 2.572 . S
Tb2436 O2480 2.465 1_554 S
Tb2436 O2481 2.387 . S
Tb2436 O2483 2.428 1_554 S
Tb2436 O2484 2.308 1_554 S
Tb2436 O2488 2.349 1_554 S
Tb2436 O2491 2.393 . S
Tb2436 C2500 2.802 1_554 S
C2437 N2438 1.379 . S
C2437 C2440 1.416 . S
C2437 C2444 1.424 . S
N2438 C2437 1.379 . S
N2438 C2441 1.334 . S
N2438 Tb2447 2.617 1_556 S
C2439 C2441 1.390 . S
C2439 C2442 1.339 . S
C2439 H2459 0.930 . S
C2440 C2437 1.416 . S
C2440 C2442 1.416 . S
C2440 C2446 1.448 . S
C2441 N2438 1.334 . S
C2441 C2439 1.390 . S
C2441 H2452 0.930 . S
C2442 C2439 1.339 . S
C2442 C2440 1.416 . S
C2442 H2463 0.930 . S
C2443 C2444 1.413 . S
C2443 C2445 1.427 . S
C2443 C2449 1.416 . S
C2444 C2437 1.424 . S
C2444 C2443 1.413 . S
C2444 N2448 1.361 . S
C2445 C2443 1.427 . S
C2445 C2446 1.328 . S
C2445 H2460 0.929 . S
C2446 C2440 1.448 . S
C2446 C2445 1.328 . S
C2446 H2461 0.930 . S
Tb2447 N2438 2.617 1_554 S
Tb2447 N2448 2.572 1_554 S
Tb2447 O2482 2.349 . S
Tb2447 O2485 2.393 1_554 S
Tb2447 O2486 2.465 . S
Tb2447 O2487 2.387 1_554 S
Tb2447 O2489 2.428 . S
Tb2447 O2490 2.308 . S
Tb2447 C2511 2.802 . S
N2448 C2444 1.361 . S
N2448 Tb2447 2.572 1_556 S
N2448 C2450 1.340 . S
C2449 C2443 1.416 . S
C2449 C2451 1.332 . S
C2449 H2457 0.931 . S
C2450 N2448 1.340 . S
C2450 C2451 1.407 . S
C2450 H2456 0.930 1_556 S
C2451 C2449 1.332 . S
C2451 C2450 1.407 . S
C2451 H2453 0.929 . S
H2452 C2441 0.930 . S
H2453 C2451 0.929 . S
H2454 C2469 0.930 . S
H2455 C2476 0.929 . S
H2456 C2450 0.930 1_554 S
H2457 C2449 0.931 . S
H2458 C2472 0.930 . S
H2459 C2439 0.930 . S
H2460 C2445 0.929 . S
H2461 C2446 0.930 . S
H2462 C2467 0.930 . S
H2463 C2442 0.930 . S
H2464 C2475 0.931 . S
N2465 Tb2436 2.617 . S
N2465 C2466 1.379 . S
N2465 C2469 1.334 . S
C2466 N2465 1.379 . S
C2466 C2468 1.416 . S
C2466 C2474 1.424 . S
C2467 H2462 0.930 . S
C2467 C2469 1.390 . S
C2467 C2470 1.339 . S
C2468 C2466 1.416 . S
C2468 C2470 1.416 . S
C2468 C2501 1.448 . S
C2469 H2454 0.930 . S
C2469 N2465 1.334 . S
C2469 C2467 1.390 . S
C2470 C2467 1.339 . S
C2470 C2468 1.416 . S
C2470 H2477 0.930 . S
N2471 Tb2436 2.572 . S
N2471 C2472 1.340 . S
N2471 C2474 1.361 . S
C2472 H2458 0.930 . S
C2472 N2471 1.340 . S
C2472 C2476 1.407 . S
C2473 C2474 1.413 . S
C2473 C2475 1.416 . S
C2473 C2502 1.427 . S
C2474 C2466 1.424 . S
C2474 N2471 1.361 . S
C2474 C2473 1.413 . S
C2475 H2464 0.931 . S
C2475 C2473 1.416 . S
C2475 C2476 1.332 . S
C2476 H2455 0.929 . S
C2476 C2472 1.407 . S
C2476 C2475 1.332 . S
H2477 C2470 0.930 . S
H2478 C2501 0.930 . S
H2479 C2502 0.929 . S
O2480 Tb2436 2.465 1_556 S
O2480 C2500 1.264 . S
O2481 Tb2436 2.387 . S
O2481 C2492 1.264 . S
O2482 Tb2447 2.349 . S
O2482 C2492 1.243 . S
O2483 Tb2436 2.428 1_556 S
O2483 C2500 1.256 . S
O2484 Tb2436 2.308 1_556 S
O2484 C2499 1.266 . S
O2485 Tb2447 2.393 1_556 S
O2485 C2499 1.248 . S
O2486 Tb2447 2.465 . S
O2486 C2511 1.264 . S
O2487 Tb2447 2.387 1_556 S
O2487 C2503 1.264 . S
O2488 Tb2436 2.349 1_556 S
O2488 C2503 1.243 . S
O2489 Tb2447 2.428 . S
O2489 C2511 1.256 . S
O2490 Tb2447 2.308 . S
O2490 C2510 1.266 . S
O2491 Tb2436 2.393 . S
O2491 C2510 1.248 . S
C2492 O2481 1.264 . S
C2492 O2482 1.243 . S
C2493 C2496 1.399 . S
C2493 C2498 1.383 . S
C2493 C2500 1.496 . S
C2494 C2495 1.399 . S
C2494 C2498 1.389 . S
C2495 C2494 1.399 . S
C2495 C2497 1.380 . S
C2495 H2512 0.929 . S
C2496 C2493 1.399 . S
C2496 C2497 1.392 . S
C2496 H2513 0.929 . S
C2497 C2495 1.380 . S
C2497 C2496 1.392 . S
C2497 H2514 0.929 . S
C2498 C2493 1.383 . S
C2498 C2494 1.389 . S
C2498 H2515 0.931 . S
C2499 O2484 1.266 . S
C2499 O2485 1.248 . S
C2500 Tb2436 2.802 1_556 S
C2500 O2480 1.264 . S
C2500 O2483 1.256 . S
C2500 C2493 1.496 . S
C2501 C2468 1.448 . S
C2501 H2478 0.930 . S
C2501 C2502 1.328 . S
C2502 C2473 1.427 . S
C2502 H2479 0.929 . S
C2502 C2501 1.328 . S
C2503 O2487 1.264 . S
C2503 O2488 1.243 . S
C2504 C2507 1.399 . S
C2504 C2508 1.383 . S
C2504 C2511 1.496 . S
C2505 C2506 1.399 . S
C2505 C2508 1.389 . S
C2506 C2505 1.399 . S
C2506 C2509 1.380 . S
C2506 H2516 0.929 . S
C2507 C2504 1.399 . S
C2507 C2509 1.392 . S
C2507 H2517 0.929 . S
C2508 C2504 1.383 . S
C2508 C2505 1.389 . S
C2508 H2518 0.931 . S
C2509 C2506 1.380 . S
C2509 C2507 1.392 . S
C2509 H2519 0.929 . S
C2510 O2490 1.266 . S
C2510 O2491 1.248 . S
C2511 Tb2447 2.802 . S
C2511 O2486 1.264 . S
C2511 O2489 1.256 . S
C2511 C2504 1.496 . S
H2512 C2495 0.929 . S
H2513 C2496 0.929 . S
H2514 C2497 0.929 . S
H2515 C2498 0.931 . S
H2516 C2506 0.929 . S
H2517 C2507 0.929 . S
H2518 C2508 0.931 . S
H2519 C2509 0.929 . S
Tb2520 N2549 2.617 . S
Tb2520 N2555 2.572 . S
Tb2520 O2564 2.465 . S
Tb2520 O2565 2.387 . S
Tb2520 O2567 2.428 . S
Tb2520 O2568 2.308 . S
Tb2520 O2572 2.349 . S
Tb2520 O2575 2.393 . S
Tb2520 C2584 2.802 . S
C2521 N2522 1.379 1_655 S
C2521 C2524 1.416 . S
C2521 C2528 1.424 . S
N2522 C2521 1.379 1_455 S
N2522 C2525 1.334 . S
N2522 Tb2531 2.617 . S
C2523 C2525 1.390 1_655 S
C2523 C2526 1.339 . S
C2523 H2543 0.930 . S
C2524 C2521 1.416 . S
C2524 C2526 1.416 . S
C2524 C2530 1.448 . S
C2525 N2522 1.334 . S
C2525 C2523 1.390 1_455 S
C2525 H2536 0.930 . S
C2526 C2523 1.339 . S
C2526 C2524 1.416 . S
C2526 H2547 0.930 . S
C2527 C2528 1.413 . S
C2527 C2529 1.427 . S
C2527 C2533 1.416 . S
C2528 C2521 1.424 . S
C2528 C2527 1.413 . S
C2528 N2532 1.361 1_655 S
C2529 C2527 1.427 . S
C2529 C2530 1.328 . S
C2529 H2544 0.929 . S
C2530 C2524 1.448 . S
C2530 C2529 1.328 . S
C2530 H2545 0.930 . S
Tb2531 N2522 2.617 . S
Tb2531 N2532 2.572 . S
Tb2531 O2566 2.349 . S
Tb2531 O2569 2.393 . S
Tb2531 O2570 2.465 . S
Tb2531 O2571 2.387 . S
Tb2531 O2573 2.428 . S
Tb2531 O2574 2.308 . S
Tb2531 C2595 2.802 . S
N2532 C2528 1.361 1_455 S
N2532 Tb2531 2.572 . S
N2532 C2534 1.340 . S
C2533 C2527 1.416 . S
C2533 C2535 1.332 1_655 S
C2533 H2541 0.931 . S
C2534 N2532 1.340 . S
C2534 C2535 1.407 . S
C2534 H2540 0.930 . S
C2535 C2533 1.332 1_455 S
C2535 C2534 1.407 . S
C2535 H2537 0.929 . S
H2536 C2525 0.930 . S
H2537 C2535 0.929 . S
H2538 C2553 0.930 . S
H2539 C2560 0.929 . S
H2540 C2534 0.930 . S
H2541 C2533 0.931 . S
H2542 C2556 0.930 . S
H2543 C2523 0.930 . S
H2544 C2529 0.929 . S
H2545 C2530 0.930 . S
H2546 C2551 0.930 . S
H2547 C2526 0.930 . S
H2548 C2559 0.931 . S
N2549 Tb2520 2.617 . S
N2549 C2550 1.379 . S
N2549 C2553 1.334 . S
C2550 N2549 1.379 . S
C2550 C2552 1.416 . S
C2550 C2558 1.424 . S
C2551 H2546 0.930 . S
C2551 C2553 1.390 . S
C2551 C2554 1.339 . S
C2552 C2550 1.416 . S
C2552 C2554 1.416 . S
C2552 C2585 1.448 . S
C2553 H2538 0.930 . S
C2553 N2549 1.334 . S
C2553 C2551 1.390 . S
C2554 C2551 1.339 . S
C2554 C2552 1.416 . S
C2554 H2561 0.930 . S
N2555 Tb2520 2.572 . S
N2555 C2556 1.340 . S
N2555 C2558 1.361 . S
C2556 H2542 0.930 . S
C2556 N2555 1.340 . S
C2556 C2560 1.407 . S
C2557 C2558 1.413 . S
C2557 C2559 1.416 . S
C2557 C2586 1.427 . S
C2558 C2550 1.424 . S
C2558 N2555 1.361 . S
C2558 C2557 1.413 . S
C2559 H2548 0.931 . S
C2559 C2557 1.416 . S
C2559 C2560 1.332 . S
C2560 H2539 0.929 . S
C2560 C2556 1.407 . S
C2560 C2559 1.332 . S
H2561 C2554 0.930 . S
H2562 C2585 0.930 . S
H2563 C2586 0.929 . S
O2564 Tb2520 2.465 . S
O2564 C2584 1.264 . S
O2565 Tb2520 2.387 . S
O2565 C2576 1.264 . S
O2566 Tb2531 2.349 . S
O2566 C2576 1.243 . S
O2567 Tb2520 2.428 . S
O2567 C2584 1.256 . S
O2568 Tb2520 2.308 . S
O2568 C2583 1.266 . S
O2569 Tb2531 2.393 . S
O2569 C2583 1.248 . S
O2570 Tb2531 2.465 . S
O2570 C2595 1.264 . S
O2571 Tb2531 2.387 . S
O2571 C2587 1.264 . S
O2572 Tb2520 2.349 . S
O2572 C2587 1.243 . S
O2573 Tb2531 2.428 . S
O2573 C2595 1.256 . S
O2574 Tb2531 2.308 . S
O2574 C2594 1.266 . S
O2575 Tb2520 2.393 . S
O2575 C2594 1.248 . S
C2576 O2565 1.264 . S
C2576 O2566 1.243 . S
C2577 C2580 1.399 . S
C2577 C2582 1.383 . S
C2577 C2584 1.496 . S
C2578 C2579 1.399 . S
C2578 C2582 1.389 . S
C2579 C2578 1.399 . S
C2579 C2581 1.380 . S
C2579 H2596 0.929 . S
C2580 C2577 1.399 . S
C2580 C2581 1.392 . S
C2580 H2597 0.929 . S
C2581 C2579 1.380 . S
C2581 C2580 1.392 . S
C2581 H2598 0.929 . S
C2582 C2577 1.383 . S
C2582 C2578 1.389 . S
C2582 H2599 0.931 . S
C2583 O2568 1.266 . S
C2583 O2569 1.248 . S
C2584 Tb2520 2.802 . S
C2584 O2564 1.264 . S
C2584 O2567 1.256 . S
C2584 C2577 1.496 . S
C2585 C2552 1.448 . S
C2585 H2562 0.930 . S
C2585 C2586 1.328 . S
C2586 C2557 1.427 . S
C2586 H2563 0.929 . S
C2586 C2585 1.328 . S
C2587 O2571 1.264 . S
C2587 O2572 1.243 . S
C2588 C2591 1.399 . S
C2588 C2592 1.383 . S
C2588 C2595 1.496 1_655 S
C2589 C2590 1.399 . S
C2589 C2592 1.389 . S
C2590 C2589 1.399 . S
C2590 C2593 1.380 . S
C2590 H2600 0.929 . S
C2591 C2588 1.399 . S
C2591 C2593 1.392 . S
C2591 H2601 0.929 . S
C2592 C2588 1.383 . S
C2592 C2589 1.389 . S
C2592 H2602 0.931 . S
C2593 C2590 1.380 . S
C2593 C2591 1.392 . S
C2593 H2603 0.929 . S
C2594 O2574 1.266 . S
C2594 O2575 1.248 . S
C2595 Tb2531 2.802 . S
C2595 O2570 1.264 . S
C2595 O2573 1.256 . S
C2595 C2588 1.496 1_455 S
H2596 C2579 0.929 . S
H2597 C2580 0.929 . S
H2598 C2581 0.929 . S
H2599 C2582 0.931 . S
H2600 C2590 0.929 . S
H2601 C2591 0.929 . S
H2602 C2592 0.931 . S
H2603 C2593 0.929 . S
Tb2604 N2633 2.617 . S
Tb2604 N2639 2.572 . S
Tb2604 O2648 2.465 . S
Tb2604 O2649 2.387 . S
Tb2604 O2651 2.428 . S
Tb2604 O2652 2.308 . S
Tb2604 O2656 2.349 . S
Tb2604 O2659 2.393 . S
Tb2604 C2668 2.802 . S
C2605 N2606 1.379 . S
C2605 C2608 1.416 . S
C2605 C2612 1.424 . S
N2606 C2605 1.379 . S
N2606 C2609 1.334 . S
N2606 Tb2615 2.617 . S
C2607 C2609 1.390 . S
C2607 C2610 1.339 . S
C2607 H2627 0.930 . S
C2608 C2605 1.416 . S
C2608 C2610 1.416 . S
C2608 C2614 1.448 . S
C2609 N2606 1.334 . S
C2609 C2607 1.390 . S
C2609 H2620 0.930 . S
C2610 C2607 1.339 . S
C2610 C2608 1.416 . S
C2610 H2631 0.930 . S
C2611 C2612 1.413 . S
C2611 C2613 1.427 . S
C2611 C2617 1.416 . S
C2612 C2605 1.424 . S
C2612 C2611 1.413 . S
C2612 N2616 1.361 . S
C2613 C2611 1.427 . S
C2613 C2614 1.328 . S
C2613 H2628 0.929 . S
C2614 C2608 1.448 . S
C2614 C2613 1.328 . S
C2614 H2629 0.930 . S
Tb2615 N2606 2.617 . S
Tb2615 N2616 2.572 . S
Tb2615 O2650 2.349 . S
Tb2615 O2653 2.393 . S
Tb2615 O2654 2.465 . S
Tb2615 O2655 2.387 . S
Tb2615 O2657 2.428 . S
Tb2615 O2658 2.308 . S
Tb2615 C2679 2.802 . S
N2616 C2612 1.361 . S
N2616 Tb2615 2.572 . S
N2616 C2618 1.340 . S
C2617 C2611 1.416 . S
C2617 C2619 1.332 . S
C2617 H2625 0.931 . S
C2618 N2616 1.340 . S
C2618 C2619 1.407 . S
C2618 H2624 0.930 . S
C2619 C2617 1.332 . S
C2619 C2618 1.407 . S
C2619 H2621 0.929 . S
H2620 C2609 0.930 . S
H2621 C2619 0.929 . S
H2622 C2637 0.930 . S
H2623 C2644 0.929 . S
H2624 C2618 0.930 . S
H2625 C2617 0.931 . S
H2626 C2640 0.930 . S
H2627 C2607 0.930 . S
H2628 C2613 0.929 . S
H2629 C2614 0.930 . S
H2630 C2635 0.930 . S
H2631 C2610 0.930 . S
H2632 C2643 0.931 . S
N2633 Tb2604 2.617 . S
N2633 C2634 1.379 . S
N2633 C2637 1.334 . S
C2634 N2633 1.379 . S
C2634 C2636 1.416 . S
C2634 C2642 1.424 . S
C2635 H2630 0.930 . S
C2635 C2637 1.390 . S
C2635 C2638 1.339 . S
C2636 C2634 1.416 . S
C2636 C2638 1.416 . S
C2636 C2669 1.448 . S
C2637 H2622 0.930 . S
C2637 N2633 1.334 . S
C2637 C2635 1.390 . S
C2638 C2635 1.339 . S
C2638 C2636 1.416 . S
C2638 H2645 0.930 . S
N2639 Tb2604 2.572 . S
N2639 C2640 1.340 . S
N2639 C2642 1.361 . S
C2640 H2626 0.930 . S
C2640 N2639 1.340 . S
C2640 C2644 1.407 . S
C2641 C2642 1.413 . S
C2641 C2643 1.416 . S
C2641 C2670 1.427 . S
C2642 C2634 1.424 . S
C2642 N2639 1.361 . S
C2642 C2641 1.413 . S
C2643 H2632 0.931 . S
C2643 C2641 1.416 . S
C2643 C2644 1.332 . S
C2644 H2623 0.929 . S
C2644 C2640 1.407 . S
C2644 C2643 1.332 . S
H2645 C2638 0.930 . S
H2646 C2669 0.930 . S
H2647 C2670 0.929 . S
O2648 Tb2604 2.465 . S
O2648 C2668 1.264 . S
O2649 Tb2604 2.387 . S
O2649 C2660 1.264 . S
O2650 Tb2615 2.349 . S
O2650 C2660 1.243 . S
O2651 Tb2604 2.428 . S
O2651 C2668 1.256 . S
O2652 Tb2604 2.308 . S
O2652 C2667 1.266 . S
O2653 Tb2615 2.393 . S
O2653 C2667 1.248 . S
O2654 Tb2615 2.465 . S
O2654 C2679 1.264 . S
O2655 Tb2615 2.387 . S
O2655 C2671 1.264 . S
O2656 Tb2604 2.349 . S
O2656 C2671 1.243 . S
O2657 Tb2615 2.428 . S
O2657 C2679 1.256 . S
O2658 Tb2615 2.308 . S
O2658 C2678 1.266 . S
O2659 Tb2604 2.393 . S
O2659 C2678 1.248 . S
C2660 O2649 1.264 . S
C2660 O2650 1.243 . S
C2661 C2664 1.399 . S
C2661 C2666 1.383 . S
C2661 C2668 1.496 . S
C2662 C2663 1.399 . S
C2662 C2666 1.389 . S
C2663 C2662 1.399 . S
C2663 C2665 1.380 . S
C2663 H2680 0.929 . S
C2664 C2661 1.399 . S
C2664 C2665 1.392 . S
C2664 H2681 0.929 . S
C2665 C2663 1.380 . S
C2665 C2664 1.392 . S
C2665 H2682 0.929 . S
C2666 C2661 1.383 . S
C2666 C2662 1.389 . S
C2666 H2683 0.931 . S
C2667 O2652 1.266 . S
C2667 O2653 1.248 . S
C2668 Tb2604 2.802 . S
C2668 O2648 1.264 . S
C2668 O2651 1.256 . S
C2668 C2661 1.496 . S
C2669 C2636 1.448 . S
C2669 H2646 0.930 . S
C2669 C2670 1.328 . S
C2670 C2641 1.427 . S
C2670 H2647 0.929 . S
C2670 C2669 1.328 . S
C2671 O2655 1.264 . S
C2671 O2656 1.243 . S
C2672 C2675 1.399 . S
C2672 C2676 1.383 . S
C2672 C2679 1.496 . S
C2673 C2674 1.399 . S
C2673 C2676 1.389 . S
C2674 C2673 1.399 . S
C2674 C2677 1.380 . S
C2674 H2684 0.929 . S
C2675 C2672 1.399 . S
C2675 C2677 1.392 . S
C2675 H2685 0.929 . S
C2676 C2672 1.383 . S
C2676 C2673 1.389 . S
C2676 H2686 0.931 . S
C2677 C2674 1.380 . S
C2677 C2675 1.392 . S
C2677 H2687 0.929 . S
C2678 O2658 1.266 . S
C2678 O2659 1.248 . S
C2679 Tb2615 2.802 . S
C2679 O2654 1.264 . S
C2679 O2657 1.256 . S
C2679 C2672 1.496 . S
H2680 C2663 0.929 . S
H2681 C2664 0.929 . S
H2682 C2665 0.929 . S
H2683 C2666 0.931 . S
H2684 C2674 0.929 . S
H2685 C2675 0.929 . S
H2686 C2676 0.931 . S
H2687 C2677 0.929 . S
C69 C319 0.917 . S
C67 C153 0.918 . S
C237 C151 0.917 . S
C235 C321 0.918 . S
C487 C405 0.917 . S
C489 C571 0.918 . S
C655 C573 0.917 . S
C403 C657 0.918 . S
C730 C980 0.917 . S
C814 C728 0.917 . S
C898 C812 0.917 . S
C982 C896 0.918 . S
C1066 C1148 0.917 . S
C1150 C1232 0.917 . S
C1316 C1234 0.917 . S
C1064 C1318 0.918 . S
C1413 C1663 0.917 . S
C1411 C1497 0.918 . S
C1495 C1581 0.917 . S
C1665 C1579 0.918 . S
C1749 C1831 0.917 . S
C1915 C1833 0.918 . S
C1917 C1999 0.917 . S
C1747 C2001 0.918 . S
C2324 C2074 0.917 . S
C2072 C2158 0.918 . S
C2242 C2156 0.917 . S
C2240 C2326 0.917 . S
C2492 C2410 0.917 . S
C2576 C2494 0.918 . S
C2660 C2578 0.917 . S
C2662 C2408 0.917 . S
C2337 C63 1.530 . S
C147 C741 1.530 . S
C231 C2169 1.530 . S
C315 C909 1.530 . S
C399 C2505 1.530 . S
C1245 C483 1.530 . S
C2673 C567 1.530 . S
C651 C1077 1.530 . S
C746 C1654 1.530 . S
C58 C830 1.531 . S
C1486 C914 1.530 . S
C226 C998 1.531 . S
C1822 C1082 1.530 . S
C562 C1166 1.531 . S
C1250 C1990 1.530 . S
C1334 C394 1.531 . S
C1407 C993 1.530 . S
C1491 C2085 1.530 . S
C1575 C825 1.530 . S
C1659 C2253 1.530 . S
C1743 C1161 1.530 . S
C1827 C2589 1.530 . S
C1329 C1911 1.530 . S
C1995 C2421 1.530 . S
C310 C2090 1.530 . S
C1402 C2174 1.531 . S
C142 C2258 1.530 . S
C1570 C2342 1.531 . S
C478 C2426 1.530 . S
C2510 C1906 1.531 . S
C2594 C646 1.530 . S
C1738 C2678 1.531 . S
C74 C410 2.770 1_545 S
C158 C494 2.770 . S
C242 C578 2.770 1_565 S
C662 C326 2.770 1_554 S
C1071 C735 2.770 1_545 S
C1155 C819 2.771 . S
C903 C1239 2.770 1_545 S
C987 C1323 2.770 1_554 S
C1418 C1754 2.770 . S
C1838 C1502 2.770 1_554 S
C1922 C1586 2.770 . S
C2006 C1670 2.770 . S
C2415 C2079 2.770 . S
C2163 C2499 2.770 1_554 S
C2583 C2247 2.770 . S
C2331 C2667 2.771 . S
C644 C56 3.328 . S
C140 C392 3.328 . S
C224 C476 3.328 . S
C560 C308 3.328 . S
C739 C1327 3.328 . S
C1075 C823 3.328 . S
C1159 C907 3.328 . S
C991 C1243 3.328 . S
C1400 C1988 3.328 . S
C1736 C1484 3.328 . S
C1820 C1568 3.328 . S
C1904 C1652 3.328 . S
C2083 C2671 3.328 . S
C2419 C2167 3.328 . S
C2251 C2503 3.328 . S
C2587 C2335 3.328 . S
