# Generated by pormake.
# Topology dei, (4)-cn, num edge types: 1
# Building blocks:
#     Node 0, Type 0, BuildingBlock: ICAMEG_clean_sbu_1, # of connection points: 4
#     Node 1, Type 0, BuildingBlock: ICAMEG_clean_sbu_1, # of connection points: 4
#     Node 2, Type 0, BuildingBlock: ICAMEG_clean_sbu_1, # of connection points: 4
#     Node 3, Type 0, BuildingBlock: ICAMEG_clean_sbu_1, # of connection points: 4
#     Node 4, Type 0, BuildingBlock: ICAMEG_clean_sbu_1, # of connection points: 4
#     Node 5, Type 0, BuildingBlock: ICAMEG_clean_sbu_1, # of connection points: 4
#     Node 6, Type 0, BuildingBlock: ICAMEG_clean_sbu_1, # of connection points: 4
#     Node 7, Type 0, BuildingBlock: ICAMEG_clean_sbu_1, # of connection points: 4
#     Node 8, Type 0, BuildingBlock: ICAMEG_clean_sbu_1, # of connection points: 4
#     Node 9, Type 0, BuildingBlock: ICAMEG_clean_sbu_1, # of connection points: 4
#     Node 10, Type 0, BuildingBlock: ICAMEG_clean_sbu_1, # of connection points: 4
#     Node 11, Type 0, BuildingBlock: ICAMEG_clean_sbu_1, # of connection points: 4
#     Node 12, Type 0, BuildingBlock: ICAMEG_clean_sbu_1, # of connection points: 4
#     Node 13, Type 0, BuildingBlock: ICAMEG_clean_sbu_1, # of connection points: 4
#     Node 14, Type 0, BuildingBlock: ICAMEG_clean_sbu_1, # of connection points: 4
#     Node 15, Type 0, BuildingBlock: ICAMEG_clean_sbu_1, # of connection points: 4
#     Node 16, Type 0, BuildingBlock: ICAMEG_clean_sbu_1, # of connection points: 4
#     Node 17, Type 0, BuildingBlock: ICAMEG_clean_sbu_1, # of connection points: 4
#     Node 18, Type 0, BuildingBlock: ICAMEG_clean_sbu_1, # of connection points: 4
#     Node 19, Type 0, BuildingBlock: ICAMEG_clean_sbu_1, # of connection points: 4
#     Node 20, Type 0, BuildingBlock: ICAMEG_clean_sbu_1, # of connection points: 4
#     Node 21, Type 0, BuildingBlock: ICAMEG_clean_sbu_1, # of connection points: 4
#     Node 22, Type 0, BuildingBlock: ICAMEG_clean_sbu_1, # of connection points: 4
#     Node 23, Type 0, BuildingBlock: ICAMEG_clean_sbu_1, # of connection points: 4
#     Node 24, Type 0, BuildingBlock: ICAMEG_clean_sbu_1, # of connection points: 4
#     Node 25, Type 0, BuildingBlock: ICAMEG_clean_sbu_1, # of connection points: 4
#     Node 26, Type 0, BuildingBlock: ICAMEG_clean_sbu_1, # of connection points: 4
#     Node 27, Type 0, BuildingBlock: ICAMEG_clean_sbu_1, # of connection points: 4
#     Node 28, Type 0, BuildingBlock: ICAMEG_clean_sbu_1, # of connection points: 4
#     Node 29, Type 0, BuildingBlock: ICAMEG_clean_sbu_1, # of connection points: 4
#     Node 30, Type 0, BuildingBlock: ICAMEG_clean_sbu_1, # of connection points: 4
#     Node 31, Type 0, BuildingBlock: ICAMEG_clean_sbu_1, # of connection points: 4
#     Edge 32, Type (0, 0), BuildingBlock: XIVTED_clean_linker_0, # of connection points: 2
#     Edge 33, Type (0, 0), BuildingBlock: XIVTED_clean_linker_0, # of connection points: 2
#     Edge 34, Type (0, 0), BuildingBlock: XIVTED_clean_linker_0, # of connection points: 2
#     Edge 35, Type (0, 0), BuildingBlock: XIVTED_clean_linker_0, # of connection points: 2
#     Edge 36, Type (0, 0), BuildingBlock: XIVTED_clean_linker_0, # of connection points: 2
#     Edge 37, Type (0, 0), BuildingBlock: XIVTED_clean_linker_0, # of connection points: 2
#     Edge 38, Type (0, 0), BuildingBlock: XIVTED_clean_linker_0, # of connection points: 2
#     Edge 39, Type (0, 0), BuildingBlock: XIVTED_clean_linker_0, # of connection points: 2
#     Edge 40, Type (0, 0), BuildingBlock: XIVTED_clean_linker_0, # of connection points: 2
#     Edge 41, Type (0, 0), BuildingBlock: XIVTED_clean_linker_0, # of connection points: 2
#     Edge 42, Type (0, 0), BuildingBlock: XIVTED_clean_linker_0, # of connection points: 2
#     Edge 43, Type (0, 0), BuildingBlock: XIVTED_clean_linker_0, # of connection points: 2
#     Edge 44, Type (0, 0), BuildingBlock: XIVTED_clean_linker_0, # of connection points: 2
#     Edge 45, Type (0, 0), BuildingBlock: XIVTED_clean_linker_0, # of connection points: 2
#     Edge 46, Type (0, 0), BuildingBlock: XIVTED_clean_linker_0, # of connection points: 2
#     Edge 47, Type (0, 0), BuildingBlock: XIVTED_clean_linker_0, # of connection points: 2
#     Edge 48, Type (0, 0), BuildingBlock: XIVTED_clean_linker_0, # of connection points: 2
#     Edge 49, Type (0, 0), BuildingBlock: XIVTED_clean_linker_0, # of connection points: 2
#     Edge 50, Type (0, 0), BuildingBlock: XIVTED_clean_linker_0, # of connection points: 2
#     Edge 51, Type (0, 0), BuildingBlock: XIVTED_clean_linker_0, # of connection points: 2
#     Edge 52, Type (0, 0), BuildingBlock: XIVTED_clean_linker_0, # of connection points: 2
#     Edge 53, Type (0, 0), BuildingBlock: XIVTED_clean_linker_0, # of connection points: 2
#     Edge 54, Type (0, 0), BuildingBlock: XIVTED_clean_linker_0, # of connection points: 2
#     Edge 55, Type (0, 0), BuildingBlock: XIVTED_clean_linker_0, # of connection points: 2
#     Edge 56, Type (0, 0), BuildingBlock: XIVTED_clean_linker_0, # of connection points: 2
#     Edge 57, Type (0, 0), BuildingBlock: XIVTED_clean_linker_0, # of connection points: 2
#     Edge 58, Type (0, 0), BuildingBlock: XIVTED_clean_linker_0, # of connection points: 2
#     Edge 59, Type (0, 0), BuildingBlock: XIVTED_clean_linker_0, # of connection points: 2
#     Edge 60, Type (0, 0), BuildingBlock: XIVTED_clean_linker_0, # of connection points: 2
#     Edge 61, Type (0, 0), BuildingBlock: XIVTED_clean_linker_0, # of connection points: 2
#     Edge 62, Type (0, 0), BuildingBlock: XIVTED_clean_linker_0, # of connection points: 2
#     Edge 63, Type (0, 0), BuildingBlock: XIVTED_clean_linker_0, # of connection points: 2
#     Edge 64, Type (0, 0), BuildingBlock: XIVTED_clean_linker_0, # of connection points: 2
#     Edge 65, Type (0, 0), BuildingBlock: XIVTED_clean_linker_0, # of connection points: 2
#     Edge 66, Type (0, 0), BuildingBlock: XIVTED_clean_linker_0, # of connection points: 2
#     Edge 67, Type (0, 0), BuildingBlock: XIVTED_clean_linker_0, # of connection points: 2
#     Edge 68, Type (0, 0), BuildingBlock: XIVTED_clean_linker_0, # of connection points: 2
#     Edge 69, Type (0, 0), BuildingBlock: XIVTED_clean_linker_0, # of connection points: 2
#     Edge 70, Type (0, 0), BuildingBlock: XIVTED_clean_linker_0, # of connection points: 2
#     Edge 71, Type (0, 0), BuildingBlock: XIVTED_clean_linker_0, # of connection points: 2
#     Edge 72, Type (0, 0), BuildingBlock: XIVTED_clean_linker_0, # of connection points: 2
#     Edge 73, Type (0, 0), BuildingBlock: XIVTED_clean_linker_0, # of connection points: 2
#     Edge 74, Type (0, 0), BuildingBlock: XIVTED_clean_linker_0, # of connection points: 2
#     Edge 75, Type (0, 0), BuildingBlock: XIVTED_clean_linker_0, # of connection points: 2
#     Edge 76, Type (0, 0), BuildingBlock: XIVTED_clean_linker_0, # of connection points: 2
#     Edge 77, Type (0, 0), BuildingBlock: XIVTED_clean_linker_0, # of connection points: 2
#     Edge 78, Type (0, 0), BuildingBlock: XIVTED_clean_linker_0, # of connection points: 2
#     Edge 79, Type (0, 0), BuildingBlock: XIVTED_clean_linker_0, # of connection points: 2
#     Edge 80, Type (0, 0), BuildingBlock: XIVTED_clean_linker_0, # of connection points: 2
#     Edge 81, Type (0, 0), BuildingBlock: XIVTED_clean_linker_0, # of connection points: 2
#     Edge 82, Type (0, 0), BuildingBlock: XIVTED_clean_linker_0, # of connection points: 2
#     Edge 83, Type (0, 0), BuildingBlock: XIVTED_clean_linker_0, # of connection points: 2
#     Edge 84, Type (0, 0), BuildingBlock: XIVTED_clean_linker_0, # of connection points: 2
#     Edge 85, Type (0, 0), BuildingBlock: XIVTED_clean_linker_0, # of connection points: 2
#     Edge 86, Type (0, 0), BuildingBlock: XIVTED_clean_linker_0, # of connection points: 2
#     Edge 87, Type (0, 0), BuildingBlock: XIVTED_clean_linker_0, # of connection points: 2
#     Edge 88, Type (0, 0), BuildingBlock: XIVTED_clean_linker_0, # of connection points: 2
#     Edge 89, Type (0, 0), BuildingBlock: XIVTED_clean_linker_0, # of connection points: 2
#     Edge 90, Type (0, 0), BuildingBlock: XIVTED_clean_linker_0, # of connection points: 2
#     Edge 91, Type (0, 0), BuildingBlock: XIVTED_clean_linker_0, # of connection points: 2
#     Edge 92, Type (0, 0), BuildingBlock: XIVTED_clean_linker_0, # of connection points: 2
#     Edge 93, Type (0, 0), BuildingBlock: XIVTED_clean_linker_0, # of connection points: 2
#     Edge 94, Type (0, 0), BuildingBlock: XIVTED_clean_linker_0, # of connection points: 2
#     Edge 95, Type (0, 0), BuildingBlock: XIVTED_clean_linker_0, # of connection points: 2
# Relax obj value: 0.300
# Max RMSD: 0.139
# Mean RMSD: 0.138
data_MOF--net-dei--node1-ICAMEG_clean_sbu_1--edge1-XIVTED_clean_linker_0
_symmetry_space_group_name_H-M    P1
_symmetry_Int_Tables_number       1
_symmetry_cell_setting            triclinic
loop_
_symmetry_equiv_pos_as_xyz
'x, y, z'
_cell_length_a     62.007541
_cell_length_b     62.092271
_cell_length_c     83.119668
_cell_angle_alpha  89.985941
_cell_angle_beta   89.992891
_cell_angle_gamma 90.001329
loop_
_atom_site_label
_atom_site_type_symbol
_atom_site_fract_x
_atom_site_fract_y
_atom_site_fract_z
_atom_type_partial_charge
Co0 Co 0.08417 0.64126 0.04059 0.0
Co1 Co 0.11756 0.62977 0.00844 0.0
O2 O 0.10684 0.62413 0.03035 0.0
C3 C 0.11643 0.63165 0.06714 0.0
O4 O 0.12941 0.62115 0.05747 0.0
C5 C 0.10454 0.58414 0.00882 0.0
O6 O 0.08711 0.59077 0.01626 0.0
O7 O 0.08778 0.63 -0.00046 0.0
O8 O 0.06865 0.6444 0.01974 0.0
H9 H 0.11977 0.66751 0.955 0.0
H10 H 0.0949 0.59798 0.05415 0.0
O11 O 0.09871 0.63955 0.0621 0.0
H12 H 0.01761 0.59477 0.04074 0.0
H13 H 0.03119 0.66043 0.08428 0.0
H14 H 0.06095 0.68123 0.0315 0.0
H15 H 0.03846 0.62788 0.03574 0.0
H16 H 0.05979 0.63872 0.07153 0.0
O17 O 0.11882 0.5977 0.00438 0.0
H18 H 0.10653 0.66067 0.98253 0.0
H19 H 0.15137 0.60949 0.98797 0.0
H20 H 0.03223 0.70328 0.04375 0.0
H21 H 0.0746 0.56475 0.05955 0.0
H22 H 0.01711 0.69287 0.07031 0.0
H23 H 0.03564 0.56293 0.05277 0.0
O24 O 0.10067 0.66778 0.03619 0.0
H25 H 0.17941 0.5986 0.03983 0.0
H26 H 0.1555 0.6591 0.0058 0.0
H27 H 0.19255 0.6589 0.01654 0.0
H28 H 0.20476 0.62845 0.03365 0.0
H29 H 0.14239 0.59958 0.02902 0.0
H30 H 0.16498 0.61564 0.96045 0.0
H31 H 0.1492 0.64489 0.94379 0.0
O32 O 0.11626 0.6621 0.0121 0.0
C33 C 0.07067 0.6383 0.00522 0.0
C34 C 0.12683 0.65477 0.96216 0.0
C35 C 0.15218 0.62563 0.96521 0.0
N36 N 0.1283 0.63483 0.98687 0.0
C37 C 0.11944 0.65087 0.97776 0.0
C38 C 0.14438 0.6222 0.98076 0.0
C39 C 0.14333 0.64205 0.95587 0.0
C40 C 0.07792 0.59757 0.05146 0.0
N41 N 0.0679 0.61508 0.04488 0.0
C42 C 0.06651 0.57858 0.05441 0.0
C43 C 0.04468 0.57754 0.05056 0.0
C44 C 0.03456 0.5954 0.04378 0.0
C45 C 0.04649 0.6141 0.04096 0.0
C46 C 0.03761 0.66509 0.07268 0.0
C47 C 0.05439 0.67655 0.04303 0.0
C48 C 0.05385 0.6529 0.06542 0.0
N49 N 0.06188 0.65857 0.0507 0.0
C50 C 0.03817 0.68913 0.04992 0.0
C51 C 0.02971 0.68329 0.06483 0.0
C52 C 0.11091 0.6744 0.02384 0.0
C53 C 0.17429 0.61195 0.03239 0.0
C54 C 0.16059 0.64591 0.01338 0.0
C55 C 0.18165 0.64583 0.01935 0.0
C56 C 0.18849 0.62872 0.02893 0.0
N57 N 0.14675 0.62941 0.01684 0.0
C58 C 0.15336 0.61256 0.02619 0.0
Co59 Co 0.62858 0.86773 0.25802 0.0
Co60 Co 0.61765 0.83369 0.28991 0.0
O61 O 0.63458 0.85654 0.27974 0.0
C62 C 0.67408 0.85431 0.25773 0.0
O63 O 0.66738 0.83675 0.26494 0.0
C64 C 0.62762 0.86548 0.31668 0.0
O65 O 0.63802 0.87858 0.30704 0.0
O66 O 0.59095 0.85013 0.28585 0.0
O67 O 0.59632 0.86657 0.26204 0.0
H68 H 0.55578 0.78152 0.29308 0.0
H69 H 0.65942 0.89188 0.27853 0.0
O70 O 0.66059 0.86883 0.25363 0.0
H71 H 0.60013 0.94264 0.26737 0.0
H72 H 0.64214 0.91604 0.21045 0.0
H73 H 0.597 0.85756 0.23234 0.0
H74 H 0.59943 0.90587 0.25619 0.0
H75 H 0.64875 0.90178 0.23772 0.0
O76 O 0.61959 0.84788 0.31154 0.0
H77 H 0.57763 0.81043 0.28088 0.0
H78 H 0.62065 0.8089 0.32064 0.0
H79 H 0.5897 0.87146 0.20506 0.0
H80 H 0.66091 0.9286 0.28977 0.0
H81 H 0.61237 0.90091 0.19396 0.0
H82 H 0.63106 0.95424 0.28425 0.0
O83 O 0.62789 0.83822 0.24873 0.0
H84 H 0.69457 0.82415 0.30814 0.0
H85 H 0.63115 0.78817 0.28457 0.0
H86 H 0.66448 0.76744 0.28908 0.0
H87 H 0.69646 0.78537 0.30101 0.0
H88 H 0.66115 0.84437 0.30319 0.0
H89 H 0.59914 0.78011 0.33332 0.0
H90 H 0.56653 0.76614 0.31948 0.0
O91 O 0.6143 0.81853 0.26896 0.0
C92 C 0.58417 0.86079 0.27376 0.0
C93 C 0.57 0.78742 0.29921 0.0
C94 C 0.59432 0.78665 0.3218 0.0
N95 N 0.60053 0.8112 0.29995 0.0
C96 C 0.58247 0.80375 0.29234 0.0
C97 C 0.6064 0.803 0.31458 0.0
C98 C 0.57603 0.77881 0.31402 0.0
C99 C 0.64645 0.90298 0.27598 0.0
N100 N 0.62933 0.89669 0.26677 0.0
C101 C 0.64734 0.92374 0.28242 0.0
C102 C 0.63058 0.93811 0.27934 0.0
C103 C 0.6132 0.9316 0.26989 0.0
C104 C 0.61284 0.91071 0.26367 0.0
C105 C 0.63212 0.90324 0.21517 0.0
C106 C 0.60683 0.87048 0.22762 0.0
C107 C 0.63582 0.89507 0.23059 0.0
N108 N 0.62315 0.87898 0.23664 0.0
C109 C 0.60267 0.87824 0.21216 0.0
C110 C 0.61541 0.89475 0.20592 0.0
C111 C 0.61989 0.82095 0.25436 0.0
C112 C 0.68068 0.8161 0.30306 0.0
C113 C 0.64498 0.79617 0.28975 0.0
C114 C 0.66381 0.78429 0.2923 0.0
C115 C 0.68175 0.79436 0.29901 0.0
N116 N 0.64397 0.81748 0.29386 0.0
C117 C 0.66157 0.82746 0.30036 0.0
Co118 Co 0.40785 0.36125 0.53962 0.0
Co119 Co 0.37996 0.37897 0.50664 0.0
O120 O 0.38857 0.38209 0.52934 0.0
C121 C 0.37668 0.37497 0.56605 0.0
O122 O 0.36616 0.38845 0.55676 0.0
C123 C 0.39431 0.42418 0.5099 0.0
O124 O 0.41059 0.4167 0.51827 0.0
O125 O 0.41071 0.37829 0.49993 0.0
O126 O 0.42396 0.35663 0.51905 0.0
H127 H 0.3829 0.34669 0.45127 0.0
H128 H 0.40356 0.4052 0.55407 0.0
O129 O 0.3927 0.36423 0.5608 0.0
H130 H 0.48097 0.39624 0.54269 0.0
H131 H 0.45406 0.33147 0.58425 0.0
H132 H 0.42491 0.31853 0.52992 0.0
H133 H 0.45533 0.36718 0.53642 0.0
H134 H 0.43059 0.35839 0.57124 0.0
O135 O 0.38026 0.41129 0.50416 0.0
H136 H 0.39303 0.35031 0.47984 0.0
H137 H 0.34929 0.40243 0.48529 0.0
H138 H 0.44844 0.29127 0.54245 0.0
H139 H 0.42868 0.43442 0.56087 0.0
H140 H 0.46322 0.29767 0.56981 0.0
H141 H 0.46775 0.43013 0.5551 0.0
O142 O 0.38754 0.33802 0.534 0.0
H143 H 0.31634 0.40922 0.53647 0.0
H144 H 0.34116 0.35204 0.4997 0.0
H145 H 0.30312 0.35276 0.50833 0.0
H146 H 0.29047 0.38153 0.52682 0.0
H147 H 0.3543 0.40777 0.52764 0.0
H148 H 0.33881 0.39951 0.45674 0.0
H149 H 0.3556 0.37141 0.43954 0.0
O150 O 0.37945 0.34628 0.50844 0.0
C151 C 0.42545 0.36621 0.50555 0.0
C152 C 0.37542 0.35895 0.45865 0.0
C153 C 0.35069 0.38861 0.46172 0.0
N154 N 0.37162 0.37643 0.48424 0.0
C155 C 0.38104 0.36103 0.47485 0.0
C156 C 0.35672 0.39022 0.47786 0.0
C157 C 0.36011 0.37284 0.45208 0.0
C158 C 0.4205 0.4029 0.55185 0.0
N159 N 0.42787 0.38426 0.54508 0.0
C160 C 0.43468 0.41965 0.55559 0.0
C161 C 0.45658 0.41727 0.5523 0.0
C162 C 0.46401 0.39828 0.54533 0.0
C163 C 0.44936 0.38188 0.54177 0.0
C164 C 0.44777 0.32852 0.57231 0.0
C165 C 0.43136 0.3215 0.54179 0.0
C166 C 0.43443 0.34368 0.56489 0.0
N167 N 0.42653 0.34013 0.54976 0.0
C168 C 0.44463 0.30597 0.54884 0.0
C169 C 0.4529 0.30956 0.5642 0.0
C170 C 0.38014 0.333 0.52023 0.0
C171 C 0.32165 0.3966 0.5284 0.0
C172 C 0.33583 0.36452 0.50785 0.0
C173 C 0.31424 0.36489 0.51264 0.0
C174 C 0.30715 0.38105 0.523 0.0
N175 N 0.34995 0.37982 0.51321 0.0
C176 C 0.34311 0.39572 0.52334 0.0
Co177 Co 0.88158 0.13506 0.75899 0.0
Co178 Co 0.89404 0.17076 0.78957 0.0
O179 O 0.87678 0.14749 0.78042 0.0
C180 C 0.83698 0.15113 0.75849 0.0
O181 O 0.84551 0.1691 0.76381 0.0
C182 C 0.88722 0.13918 0.81687 0.0
O183 O 0.87847 0.1248 0.80736 0.0
O184 O 0.92073 0.1545 0.78493 0.0
O185 O 0.91404 0.13529 0.76244 0.0
H186 H 0.9554 0.22369 0.78993 0.0
H187 H 0.85034 0.1131 0.7806 0.0
O188 O 0.84922 0.13507 0.75545 0.0
H189 H 0.90753 0.05972 0.77016 0.0
H190 H 0.86421 0.08489 0.71326 0.0
H191 H 0.91273 0.14233 0.73246 0.0
H192 H 0.90931 0.09588 0.75798 0.0
H193 H 0.85917 0.10097 0.74015 0.0
O194 O 0.89339 0.15738 0.81151 0.0
H195 H 0.93331 0.19409 0.77896 0.0
H196 H 0.89218 0.19672 0.81979 0.0
H197 H 0.91848 0.12659 0.70555 0.0
H198 H 0.84774 0.07699 0.79279 0.0
H199 H 0.8941 0.09765 0.69579 0.0
H200 H 0.87654 0.05004 0.78766 0.0
O201 O 0.88323 0.16402 0.74864 0.0
H202 H 0.81781 0.17868 0.80938 0.0
H203 H 0.87918 0.21588 0.78385 0.0
H204 H 0.84528 0.23562 0.78859 0.0
H205 H 0.81434 0.21709 0.80145 0.0
H206 H 0.85182 0.15944 0.80429 0.0
H207 H 0.91395 0.22621 0.83126 0.0
H208 H 0.94574 0.23994 0.81627 0.0
O209 O 0.89603 0.18521 0.7683 0.0
C210 C 0.92682 0.14237 0.7734 0.0
C211 C 0.94154 0.21788 0.79656 0.0
C212 C 0.91829 0.21928 0.81976 0.0
N213 N 0.91135 0.19382 0.79864 0.0
C214 C 0.92894 0.20116 0.79039 0.0
C215 C 0.90606 0.20254 0.81322 0.0
C216 C 0.93612 0.22699 0.81133 0.0
C217 C 0.86284 0.1014 0.77817 0.0
N218 N 0.87999 0.10664 0.76863 0.0
C219 C 0.86132 0.08101 0.78518 0.0
C220 C 0.8775 0.06591 0.78232 0.0
C221 C 0.89492 0.07134 0.77252 0.0
C222 C 0.8959 0.0919 0.76574 0.0
C223 C 0.87496 0.09746 0.71739 0.0
C224 C 0.90215 0.12965 0.72833 0.0
C225 C 0.87216 0.10665 0.73258 0.0
N226 N 0.88575 0.12245 0.7379 0.0
C227 C 0.90544 0.12084 0.71307 0.0
C228 C 0.89174 0.10462 0.7076 0.0
C229 C 0.89077 0.1818 0.75375 0.0
C230 C 0.83125 0.18701 0.80387 0.0
C231 C 0.86581 0.20766 0.78951 0.0
C232 C 0.84666 0.21896 0.79216 0.0
C233 C 0.82929 0.20853 0.79939 0.0
N234 N 0.86766 0.18657 0.79402 0.0
C235 C 0.85065 0.17623 0.80107 0.0
Co236 Co 0.08342 0.36723 0.95906 0.0
Co237 Co 0.11761 0.37971 0.99051 0.0
O238 O 0.10628 0.38474 0.96868 0.0
C239 C 0.11477 0.37618 0.93173 0.0
O240 O 0.12814 0.38693 0.94094 0.0
C241 C 0.10447 0.42532 0.98972 0.0
O242 O 0.0869 0.41855 0.98255 0.0
O243 O 0.08808 0.37957 -0.00011 0.0
O244 O 0.06854 0.36453 0.98018 0.0
H245 H 0.12149 0.3433 0.04441 0.0
H246 H 0.09357 0.41011 0.94465 0.0
O247 O 0.09726 0.36844 0.93728 0.0
H248 H 0.01678 0.4136 0.95949 0.0
H249 H 0.02954 0.34649 0.9164 0.0
H250 H 0.06069 0.32736 0.96909 0.0
H251 H 0.03781 0.38061 0.96452 0.0
H252 H 0.05811 0.36888 0.9285 0.0
O253 O 0.11886 0.41186 0.99413 0.0
H254 H 0.10743 0.34942 0.01702 0.0
H255 H 0.15192 0.40061 0.01016 0.0
H256 H 0.032 0.30465 0.95748 0.0
H257 H 0.07305 0.44317 0.93915 0.0
H258 H 0.01628 0.31416 0.93093 0.0
H259 H 0.03433 0.44513 0.94665 0.0
O260 O 0.10022 0.34092 0.96356 0.0
H261 H 0.17834 0.41025 0.95757 0.0
H262 H 0.15579 0.35065 0.993 0.0
H263 H 0.1925 0.3507 0.98161 0.0
H264 H 0.20401 0.38069 0.96379 0.0
H265 H 0.14167 0.40942 0.96905 0.0
H266 H 0.16634 0.39518 0.03753 0.0
H267 H 0.15116 0.36629 0.05483 0.0
O268 O 0.11639 0.3473 0.98733 0.0
C269 C 0.07089 0.371 0.99458 0.0
C270 C 0.12829 0.35589 0.03697 0.0
C271 C 0.15344 0.38503 0.03312 0.0
N272 N 0.12898 0.37523 0.01197 0.0
C273 C 0.12044 0.35939 0.02144 0.0
C274 C 0.14519 0.38806 0.01765 0.0
C275 C 0.14492 0.36881 0.04281 0.0
C276 C 0.07669 0.41056 0.94764 0.0
N277 N 0.06691 0.39321 0.95465 0.0
C278 C 0.06515 0.42946 0.94463 0.0
C279 C 0.04346 0.43058 0.94889 0.0
C280 C 0.0336 0.41289 0.9561 0.0
C281 C 0.04564 0.39426 0.95895 0.0
C282 C 0.03626 0.3422 0.92798 0.0
C283 C 0.05382 0.33169 0.95758 0.0
C284 C 0.05247 0.35478 0.93488 0.0
N285 N 0.06093 0.34955 0.94956 0.0
C286 C 0.03762 0.31873 0.95105 0.0
C287 C 0.0288 0.32407 0.93615 0.0
C288 C 0.11085 0.3347 0.97583 0.0
C289 C 0.17352 0.3971 0.96533 0.0
C290 C 0.16059 0.36365 0.98513 0.0
C291 C 0.18144 0.36365 0.97878 0.0
C292 C 0.1879 0.3805 0.9688 0.0
N293 N 0.14655 0.37998 0.98164 0.0
C294 C 0.15279 0.39658 0.97191 0.0
Co295 Co 0.87853 0.87159 0.24163 0.0
Co296 Co 0.89524 0.84355 0.20852 0.0
O297 O 0.87464 0.86278 0.21906 0.0
C298 C 0.83329 0.85718 0.23906 0.0
O299 O 0.84073 0.84076 0.23084 0.0
C300 C 0.88024 0.87435 0.18231 0.0
O301 O 0.86717 0.88485 0.19193 0.0
O302 O 0.91845 0.86414 0.21349 0.0
O303 O 0.91122 0.87206 0.23925 0.0
H304 H 0.96556 0.80364 0.20454 0.0
H305 H 0.84901 0.89712 0.22107 0.0
O306 O 0.84624 0.87131 0.24461 0.0
H307 H 0.90476 0.94829 0.23916 0.0
H308 H 0.85946 0.91306 0.29168 0.0
H309 H 0.90807 0.85878 0.26799 0.0
H310 H 0.90574 0.91036 0.24791 0.0
H311 H 0.85566 0.90236 0.26324 0.0
O312 O 0.89128 0.85839 0.18731 0.0
H313 H 0.93851 0.82702 0.21746 0.0
H314 H 0.89716 0.82048 0.17701 0.0
H315 H 0.91255 0.86913 0.29645 0.0
H316 H 0.84729 0.93496 0.21214 0.0
H317 H 0.88813 0.89646 0.30847 0.0
H318 H 0.87535 0.96083 0.22116 0.0
O319 O 0.87942 0.84094 0.24845 0.0
H320 H 0.82148 0.82169 0.18886 0.0
H321 H 0.88989 0.79614 0.21224 0.0
H322 H 0.86085 0.77015 0.20677 0.0
H323 H 0.82636 0.78282 0.19489 0.0
H324 H 0.85071 0.84718 0.19487 0.0
H325 H 0.92385 0.79713 0.16361 0.0
H326 H 0.9583 0.78849 0.17742 0.0
O327 O 0.9008 0.82779 0.22912 0.0
C328 C 0.92402 0.87149 0.22715 0.0
C329 C 0.95058 0.80722 0.19842 0.0
C330 C 0.92718 0.80359 0.17544 0.0
N331 N 0.91618 0.82497 0.19808 0.0
C332 C 0.93517 0.82041 0.2057 0.0
C333 C 0.91214 0.81686 0.18308 0.0
C334 C 0.9465 0.79875 0.1832 0.0
C335 C 0.86122 0.90829 0.2251 0.0
N336 N 0.87749 0.90151 0.23495 0.0
C337 C 0.86019 0.9297 0.21998 0.0
C338 C 0.87595 0.9442 0.22503 0.0
C339 C 0.89247 0.93717 0.23512 0.0
C340 C 0.89299 0.91564 0.23998 0.0
C341 C 0.87023 0.90117 0.28657 0.0
C342 C 0.89748 0.87079 0.27311 0.0
C343 C 0.86813 0.89502 0.27049 0.0
N344 N 0.88176 0.8801 0.26394 0.0
C345 C 0.90005 0.87654 0.28925 0.0
C346 C 0.88632 0.89185 0.29599 0.0
C347 C 0.89149 0.82628 0.24273 0.0
C348 C 0.8365 0.81593 0.19391 0.0
C349 C 0.87493 0.80187 0.20714 0.0
C350 C 0.85855 0.78702 0.20402 0.0
C351 C 0.83921 0.79414 0.19734 0.0
N352 N 0.87221 0.82325 0.20369 0.0
C353 C 0.85325 0.83032 0.1972 0.0
Co354 Co 0.41061 0.64458 0.46011 0.0
Co355 Co 0.38103 0.62875 0.49287 0.0
O356 O 0.39041 0.62468 0.47044 0.0
C357 C 0.37965 0.63106 0.43354 0.0
O358 O 0.36833 0.6185 0.44301 0.0
C359 C 0.39511 0.58341 0.49078 0.0
O360 O 0.41186 0.59065 0.48281 0.0
O361 O 0.41149 0.62925 0.50027 0.0
O362 O 0.4262 0.64945 0.48085 0.0
H363 H 0.38221 0.66302 0.54761 0.0
H364 H 0.40539 0.60039 0.4463 0.0
O365 O 0.39602 0.64131 0.43874 0.0
H366 H 0.48261 0.6072 0.45915 0.0
H367 H 0.45922 0.6713 0.41581 0.0
H368 H 0.42861 0.68712 0.46928 0.0
H369 H 0.45774 0.63727 0.46435 0.0
H370 H 0.43443 0.64562 0.42888 0.0
O371 O 0.38084 0.59649 0.49596 0.0
H372 H 0.3934 0.65824 0.51934 0.0
H373 H 0.34928 0.60642 0.51401 0.0
H374 H 0.45344 0.71316 0.45669 0.0
H375 H 0.42978 0.57015 0.44055 0.0
H376 H 0.46897 0.7053 0.42977 0.0
H377 H 0.46875 0.57335 0.44706 0.0
O378 O 0.39086 0.66858 0.46493 0.0
H379 H 0.31806 0.59814 0.46248 0.0
H380 H 0.34241 0.65652 0.49836 0.0
H381 H 0.30469 0.65597 0.48898 0.0
H382 H 0.29228 0.62659 0.47094 0.0
H383 H 0.3557 0.59944 0.47203 0.0
H384 H 0.33773 0.61051 0.54226 0.0
H385 H 0.35418 0.63904 0.55923 0.0
O386 O 0.38107 0.66138 0.49037 0.0
C387 C 0.42681 0.64057 0.49465 0.0
C388 C 0.37487 0.65058 0.54031 0.0
C389 C 0.34993 0.62109 0.53732 0.0
N390 N 0.37187 0.6322 0.51502 0.0
C391 C 0.3811 0.64784 0.52429 0.0
C392 C 0.35656 0.61882 0.52135 0.0
C393 C 0.35916 0.6371 0.54683 0.0
C394 C 0.42232 0.60219 0.44883 0.0
N395 N 0.43006 0.6208 0.45544 0.0
C396 C 0.43607 0.58488 0.44569 0.0
C397 C 0.45791 0.58665 0.44939 0.0
C398 C 0.4657 0.60563 0.45618 0.0
C399 C 0.45148 0.6226 0.45914 0.0
C400 C 0.4526 0.67488 0.42756 0.0
C401 C 0.43537 0.68352 0.4576 0.0
C402 C 0.43853 0.66042 0.43501 0.0
N403 N 0.43023 0.66477 0.4499 0.0
C404 C 0.44939 0.69836 0.45051 0.0
C405 C 0.45807 0.69395 0.4354 0.0
C406 C 0.3828 0.67423 0.47836 0.0
C407 C 0.32327 0.61102 0.47034 0.0
C408 C 0.33719 0.64378 0.4904 0.0
C409 C 0.31578 0.6435 0.48519 0.0
C410 C 0.30882 0.627 0.47508 0.0
N411 N 0.35127 0.62806 0.48568 0.0
C412 C 0.34455 0.61181 0.47581 0.0
Co413 Co 0.63147 0.13657 0.74031 0.0
Co414 Co 0.62219 0.17389 0.71067 0.0
O415 O 0.63883 0.1506 0.72005 0.0
C416 C 0.67556 0.15278 0.74463 0.0
O417 O 0.66718 0.1713 0.74033 0.0
C418 C 0.62801 0.1436 0.68328 0.0
O419 O 0.62218 0.12764 0.6927 0.0
O420 O 0.59576 0.15597 0.71162 0.0
O421 O 0.59952 0.13719 0.73471 0.0
H422 H 0.55837 0.22333 0.70572 0.0
H423 H 0.66445 0.1171 0.71888 0.0
O424 O 0.66336 0.13624 0.7458 0.0
H425 H 0.60729 0.06231 0.7241 0.0
H426 H 0.64365 0.08283 0.78468 0.0
H427 H 0.59726 0.1417 0.76495 0.0
H428 H 0.60433 0.09708 0.73828 0.0
H429 H 0.65174 0.10105 0.75898 0.0
O430 O 0.62873 0.16277 0.68867 0.0
H431 H 0.57983 0.19399 0.71772 0.0
H432 H 0.62892 0.20332 0.68276 0.0
H433 H 0.58844 0.1238 0.79063 0.0
H434 H 0.66816 0.08248 0.7046 0.0
H435 H 0.61174 0.09414 0.80065 0.0
H436 H 0.63941 0.05482 0.70714 0.0
O437 O 0.62838 0.16476 0.75169 0.0
H438 H 0.7007 0.18666 0.69942 0.0
H439 H 0.63421 0.21815 0.72195 0.0
H440 H 0.66844 0.2382 0.72388 0.0
H441 H 0.70184 0.22275 0.71227 0.0
H442 H 0.66653 0.16647 0.69867 0.0
H443 H 0.60793 0.23272 0.67034 0.0
H444 H 0.57235 0.24281 0.68181 0.0
O445 O 0.61504 0.18588 0.73219 0.0
C446 C 0.5882 0.14397 0.72278 0.0
C447 C 0.57385 0.21907 0.70061 0.0
C448 C 0.60166 0.22432 0.68075 0.0
N449 N 0.60565 0.19703 0.701 0.0
C450 C 0.58609 0.20249 0.70737 0.0
C451 C 0.61345 0.20764 0.68782 0.0
C452 C 0.58172 0.23001 0.68721 0.0
C453 C 0.65197 0.10507 0.72016 0.0
N454 N 0.63425 0.10906 0.72946 0.0
C455 C 0.65412 0.08553 0.71199 0.0
C456 C 0.63797 0.07003 0.7134 0.0
C457 C 0.61993 0.07423 0.72291 0.0
C458 C 0.61832 0.09396 0.73088 0.0
C459 C 0.63336 0.0957 0.78043 0.0
C460 C 0.60738 0.12871 0.76919 0.0
C461 C 0.63789 0.10611 0.76591 0.0
N462 N 0.62488 0.12229 0.76044 0.0
C463 C 0.60235 0.11868 0.78376 0.0
C464 C 0.61544 0.10205 0.78938 0.0
C465 C 0.61956 0.18209 0.74683 0.0
C466 C 0.68617 0.19373 0.70434 0.0
C467 C 0.64872 0.21115 0.717 0.0
C468 C 0.668 0.22271 0.71799 0.0
C469 C 0.6868 0.21395 0.71156 0.0
N470 N 0.64829 0.19116 0.71012 0.0
C471 C 0.66669 0.18246 0.70379 0.0
Co472 Co 0.91538 0.35872 0.96293 0.0
Co473 Co 0.87886 0.37509 0.991 0.0
O474 O 0.89327 0.37893 0.97019 0.0
C475 C 0.8879 0.36461 0.93394 0.0
O476 O 0.87072 0.36287 0.94307 0.0
C477 C 0.89305 0.42044 0.99015 0.0
O478 O 0.91144 0.41302 0.98469 0.0
O479 O 0.90728 0.37498 0.00205 0.0
O480 O 0.92507 0.35286 0.9855 0.0
H481 H 0.86769 0.3414 0.0453 0.0
H482 H 0.9148 0.40215 0.94802 0.0
O483 O 0.90667 0.36366 0.94009 0.0
H484 H 0.98622 0.39564 0.97368 0.0
H485 H 0.97472 0.33247 0.92645 0.0
H486 H 0.92978 0.31549 0.97373 0.0
H487 H 0.96042 0.36558 0.97462 0.0
H488 H 0.9471 0.35811 0.9359 0.0
O489 O 0.87781 0.40745 0.99369 0.0
H490 H 0.88511 0.34594 0.01882 0.0
H491 H 0.84273 0.39755 0.00768 0.0
H492 H 0.95722 0.28942 0.96471 0.0
H493 H 0.94045 0.43246 0.94633 0.0
H494 H 0.97995 0.29785 0.94093 0.0
H495 H 0.97639 0.42939 0.95933 0.0
O496 O 0.89425 0.33511 0.9646 0.0
H497 H 0.8242 0.40436 0.95214 0.0
H498 H 0.83943 0.34751 0.99199 0.0
H499 H 0.80451 0.34763 0.97778 0.0
H500 H 0.7967 0.37624 0.95772 0.0
H501 H 0.859 0.40349 0.96651 0.0
H502 H 0.82496 0.39371 0.0341 0.0
H503 H 0.83738 0.36541 0.05308 0.0
O504 O 0.87954 0.34234 0.9887 0.0
C505 C 0.92329 0.363 0.99874 0.0
C506 C 0.86208 0.35374 0.03711 0.0
C507 C 0.83812 0.38312 0.03083 0.0
N508 N 0.86481 0.37185 0.01169 0.0
C509 C 0.87184 0.35634 0.02209 0.0
C510 C 0.84826 0.38525 0.01591 0.0
C511 C 0.84509 0.36723 0.04148 0.0
C512 C 0.93055 0.40057 0.95347 0.0
N513 N 0.93603 0.38214 0.96146 0.0
C514 C 0.94495 0.41783 0.95256 0.0
C515 C 0.9651 0.41611 0.95989 0.0
C516 C 0.97063 0.39721 0.96793 0.0
C517 C 0.95586 0.38027 0.96854 0.0
C518 C 0.96492 0.32861 0.93683 0.0
C519 C 0.93961 0.3193 0.96338 0.0
C520 C 0.94921 0.34304 0.94222 0.0
N521 N 0.93691 0.33837 0.95542 0.0
C522 C 0.95512 0.30446 0.95832 0.0
C523 C 0.96786 0.3092 0.94497 0.0
C524 C 0.88347 0.32948 0.97696 0.0
C525 C 0.82739 0.39184 0.96088 0.0
C526 C 0.83619 0.35995 0.98322 0.0
C527 C 0.81636 0.35998 0.97525 0.0
C528 C 0.81198 0.37604 0.964 0.0
N529 N 0.85121 0.37552 0.9801 0.0
C530 C 0.84703 0.39132 0.9691 0.0
Co531 Co 0.39261 0.17289 0.70831 0.0
Co532 Co 0.3825 0.13621 0.73833 0.0
O533 O 0.37602 0.14954 0.71765 0.0
C534 C 0.38844 0.14152 0.68131 0.0
O535 O 0.39404 0.12575 0.69098 0.0
C536 C 0.33823 0.15235 0.74112 0.0
O537 O 0.34681 0.17068 0.73658 0.0
O538 O 0.38495 0.16474 0.74932 0.0
O539 O 0.39803 0.18597 0.72977 0.0
H540 H 0.42335 0.12516 0.78987 0.0
H541 H 0.34914 0.16336 0.69552 0.0
O542 O 0.38762 0.16081 0.68642 0.0
H543 H 0.3444 0.23733 0.71648 0.0
H544 H 0.40776 0.2305 0.66718 0.0
H545 H 0.43387 0.19455 0.71637 0.0
H546 H 0.37891 0.21756 0.71743 0.0
H547 H 0.38696 0.20087 0.67944 0.0
O548 O 0.35038 0.13591 0.74304 0.0
H549 H 0.4156 0.14223 0.76368 0.0
H550 H 0.36153 0.1012 0.75711 0.0
H551 H 0.45511 0.2242 0.70455 0.0
H552 H 0.31463 0.18288 0.69394 0.0
H553 H 0.44209 0.24234 0.67975 0.0
H554 H 0.3121 0.22015 0.70459 0.0
O555 O 0.41943 0.15574 0.71054 0.0
H556 H 0.34765 0.08084 0.70269 0.0
H557 H 0.40989 0.09682 0.73764 0.0
H558 H 0.40771 0.06161 0.724 0.0
H559 H 0.37639 0.05342 0.70641 0.0
H560 H 0.35057 0.11591 0.71644 0.0
H561 H 0.36856 0.0838 0.78329 0.0
H562 H 0.39972 0.09572 0.79983 0.0
O563 O 0.41464 0.13685 0.73349 0.0
C564 C 0.39324 0.18229 0.74439 0.0
C565 C 0.40976 0.11977 0.78275 0.0
C566 C 0.37899 0.09658 0.77907 0.0
N567 N 0.38825 0.12258 0.75885 0.0
C568 C 0.40534 0.12933 0.7679 0.0
C569 C 0.37506 0.10652 0.76428 0.0
C570 C 0.39648 0.10327 0.78834 0.0
C571 C 0.34833 0.17974 0.69986 0.0
N572 N 0.36612 0.18936 0.70642 0.0
C573 C 0.32868 0.19065 0.69904 0.0
C574 C 0.32726 0.21153 0.70504 0.0
C575 C 0.34544 0.22123 0.7117 0.0
C576 C 0.36488 0.20989 0.71226 0.0
C577 C 0.4136 0.22271 0.67798 0.0
C578 C 0.42805 0.20244 0.70562 0.0
C579 C 0.40192 0.20589 0.68496 0.0
N580 N 0.40913 0.19608 0.69866 0.0
C581 C 0.44017 0.21919 0.69897 0.0
C582 C 0.43285 0.22937 0.68506 0.0
C583 C 0.42651 0.14379 0.72191 0.0
C584 C 0.36135 0.0842 0.71037 0.0
C585 C 0.39625 0.0934 0.72996 0.0
C586 C 0.39508 0.07342 0.7223 0.0
C587 C 0.37749 0.06883 0.71244 0.0
N588 N 0.38033 0.10836 0.7279 0.0
C589 C 0.36304 0.10399 0.71824 0.0
Co590 Co 0.59472 0.64075 0.45985 0.0
Co591 Co 0.62407 0.62545 0.4929 0.0
O592 O 0.6147 0.62102 0.47053 0.0
C593 C 0.62594 0.62637 0.43374 0.0
O594 O 0.63684 0.61375 0.44343 0.0
C595 C 0.60909 0.58047 0.49122 0.0
O596 O 0.59236 0.58808 0.48342 0.0
O597 O 0.59363 0.62671 0.50032 0.0
O598 O 0.57891 0.64609 0.48042 0.0
H599 H 0.62353 0.66105 0.54718 0.0
H600 H 0.59993 0.59617 0.44665 0.0
O601 O 0.60962 0.63696 0.43864 0.0
H602 H 0.52259 0.60357 0.45889 0.0
H603 H 0.54678 0.66664 0.41489 0.0
H604 H 0.57668 0.6835 0.4684 0.0
H605 H 0.54752 0.63368 0.46387 0.0
H606 H 0.57134 0.64119 0.42844 0.0
O607 O 0.62368 0.59325 0.49632 0.0
H608 H 0.61226 0.65581 0.51898 0.0
H609 H 0.65534 0.60301 0.51436 0.0
H610 H 0.55206 0.70932 0.45533 0.0
H611 H 0.5755 0.56591 0.44112 0.0
H612 H 0.5369 0.70093 0.42839 0.0
H613 H 0.53647 0.56941 0.44732 0.0
O614 O 0.61445 0.66481 0.46452 0.0
H615 H 0.68664 0.59301 0.46309 0.0
H616 H 0.66311 0.65274 0.49801 0.0
H617 H 0.70084 0.65134 0.48871 0.0
H618 H 0.71284 0.62128 0.47115 0.0
H619 H 0.64899 0.59516 0.47254 0.0
H620 H 0.66696 0.60754 0.54255 0.0
H621 H 0.65108 0.6368 0.55913 0.0
O622 O 0.62456 0.65801 0.48996 0.0
C623 C 0.5784 0.63794 0.49447 0.0
C624 C 0.63063 0.64829 0.54006 0.0
C625 C 0.65498 0.61824 0.53746 0.0
N626 N 0.63327 0.62925 0.51501 0.0
C627 C 0.62435 0.64529 0.52407 0.0
C628 C 0.64831 0.61572 0.52152 0.0
C629 C 0.64607 0.63466 0.54676 0.0
C630 C 0.58298 0.59812 0.44903 0.0
N631 N 0.57524 0.61691 0.45533 0.0
C632 C 0.5692 0.58079 0.44602 0.0
C633 C 0.54733 0.58273 0.44955 0.0
C634 C 0.53953 0.60188 0.45604 0.0
C635 C 0.55378 0.61887 0.45888 0.0
C636 C 0.55324 0.67045 0.42665 0.0
C637 C 0.57007 0.67968 0.45671 0.0
C638 C 0.56719 0.65613 0.43436 0.0
N639 N 0.57529 0.66076 0.44927 0.0
C640 C 0.55618 0.69439 0.44935 0.0
C641 C 0.5477 0.68969 0.43423 0.0
C642 C 0.62271 0.67067 0.47784 0.0
C643 C 0.68161 0.60619 0.47074 0.0
C644 C 0.66814 0.63971 0.49026 0.0
C645 C 0.68956 0.63895 0.48509 0.0
C646 C 0.69629 0.62206 0.47525 0.0
N647 N 0.65383 0.62409 0.48576 0.0
C648 C 0.66032 0.60746 0.47615 0.0
Co649 Co 0.11356 0.83823 0.21059 0.0
Co650 Co 0.12913 0.86874 0.24307 0.0
O651 O 0.13316 0.85878 0.22079 0.0
C652 C 0.12674 0.8693 0.18406 0.0
O653 O 0.13965 0.8803 0.19347 0.0
C654 C 0.17426 0.85423 0.24091 0.0
O655 O 0.16672 0.83725 0.2334 0.0
O656 O 0.12822 0.83855 0.25101 0.0
O657 O 0.10929 0.82259 0.23137 0.0
H658 H 0.09471 0.86949 0.29778 0.0
H659 H 0.15787 0.84438 0.19692 0.0
O660 O 0.11634 0.85299 0.18922 0.0
H661 H 0.15195 0.76686 0.20842 0.0
H662 H 0.08745 0.78899 0.16651 0.0
H663 H 0.07157 0.81919 0.22008 0.0
H664 H 0.1217 0.79124 0.21443 0.0
H665 H 0.11257 0.81461 0.17928 0.0
O666 O 0.16139 0.86868 0.24607 0.0
H667 H 0.0994 0.85748 0.26971 0.0
H668 H 0.15186 0.90072 0.26373 0.0
H669 H 0.04611 0.79348 0.20781 0.0
H670 H 0.18835 0.82057 0.19065 0.0
H671 H 0.05403 0.77812 0.18086 0.0
H672 H 0.18558 0.78142 0.19645 0.0
O673 O 0.08911 0.85742 0.21553 0.0
H674 H 0.1606 0.93063 0.21195 0.0
H675 H 0.10164 0.90767 0.24789 0.0
H676 H 0.1026 0.9451 0.23801 0.0
H677 H 0.13227 0.95681 0.21993 0.0
H678 H 0.15889 0.89328 0.22197 0.0
H679 H 0.14787 0.91308 0.29179 0.0
H680 H 0.11906 0.89749 0.30899 0.0
O681 O 0.09655 0.86896 0.24054 0.0
C682 C 0.11739 0.82284 0.24545 0.0
C683 C 0.10727 0.87646 0.29039 0.0
C684 C 0.13713 0.9009 0.28703 0.0
N685 N 0.12576 0.87853 0.26507 0.0
C686 C 0.10996 0.86977 0.27447 0.0
C687 C 0.13934 0.89382 0.27117 0.0
C688 C 0.12096 0.89216 0.29668 0.0
C689 C 0.15624 0.82741 0.1992 0.0
N690 N 0.13774 0.81929 0.20575 0.0
C691 C 0.17371 0.81397 0.19576 0.0
C692 C 0.17218 0.79204 0.19907 0.0
C693 C 0.15334 0.78386 0.20583 0.0
C694 C 0.13625 0.79779 0.20919 0.0
C695 C 0.08385 0.79551 0.17828 0.0
C696 C 0.07517 0.81252 0.20838 0.0
C697 C 0.09798 0.81007 0.18556 0.0
N698 N 0.09365 0.81822 0.2005 0.0
C699 C 0.06067 0.79801 0.20147 0.0
C700 C 0.06511 0.78942 0.18634 0.0
C701 C 0.08362 0.86641 0.22867 0.0
C702 C 0.14758 0.92572 0.21981 0.0
C703 C 0.1145 0.91257 0.2399 0.0
C704 C 0.11501 0.93382 0.23441 0.0
C705 C 0.13167 0.9404 0.22429 0.0
N706 N 0.13015 0.89826 0.23544 0.0
C707 C 0.14656 0.9046 0.22556 0.0
Co708 Co 0.91329 0.63996 0.03524 0.0
Co709 Co 0.87814 0.62511 0.00587 0.0
O710 O 0.89195 0.61991 0.0267 0.0
C711 C 0.88523 0.6307 0.06344 0.0
O712 O 0.8682 0.63444 0.05448 0.0
C713 C 0.89308 0.58003 0.00516 0.0
O714 O 0.9113 0.58744 0.01093 0.0
O715 O 0.90694 0.6266 0.99539 0.0
O716 O 0.92341 0.64806 0.01316 0.0
H717 H 0.86809 0.66269 0.95289 0.0
H718 H 0.91355 0.59519 0.04788 0.0
O719 O 0.9041 0.63246 0.05756 0.0
H720 H 0.98558 0.60615 0.02408 0.0
H721 H 0.97079 0.66427 0.07403 0.0
H722 H 0.92709 0.68434 0.02678 0.0
H723 H 0.95883 0.63542 0.02403 0.0
H724 H 0.94397 0.63899 0.06292 0.0
O725 O 0.87769 0.59298 0.0019 0.0
H726 H 0.88475 0.65643 0.97944 0.0
H727 H 0.84296 0.60337 0.98762 0.0
H728 H 0.95374 0.71008 0.03749 0.0
H729 H 0.94013 0.56565 0.04867 0.0
H730 H 0.97588 0.70007 0.06124 0.0
H731 H 0.97641 0.57098 0.03662 0.0
O732 O 0.89159 0.66319 0.03432 0.0
H733 H 0.82284 0.59234 0.04263 0.0
H734 H 0.83829 0.65207 0.00525 0.0
H735 H 0.80296 0.65041 0.01883 0.0
H736 H 0.79504 0.62036 0.03765 0.0
H737 H 0.85804 0.59473 0.0289 0.0
H738 H 0.82596 0.60892 0.9611 0.0
H739 H 0.83846 0.63882 0.94357 0.0
O740 O 0.87824 0.65762 0.00956 0.0
C741 C 0.9224 0.63887 -0.00051 0.0
C742 C 0.86245 0.64965 0.96044 0.0
C743 C 0.83882 0.61945 0.96504 0.0
N744 N 0.8647 0.62968 0.9851 0.0
C745 C 0.87178 0.64608 0.9755 0.0
C746 C 0.84854 0.61636 0.98002 0.0
C747 C 0.84584 0.63624 0.95521 0.0
C748 C 0.92941 0.59775 0.04284 0.0
N749 N 0.93456 0.617 0.03587 0.0
C750 C 0.94436 0.58091 0.04323 0.0
C751 C 0.96469 0.5839 0.03644 0.0
C752 C 0.96986 0.60361 0.02941 0.0
C753 C 0.95455 0.62009 0.0293 0.0
C754 C 0.96125 0.66881 0.06366 0.0
C755 C 0.93665 0.67985 0.03712 0.0
C756 C 0.94599 0.65458 0.05734 0.0
N757 N 0.93406 0.66011 0.04414 0.0
C758 C 0.95171 0.69451 0.04314 0.0
C759 C 0.96411 0.68889 0.05648 0.0
C760 C 0.88145 0.66967 0.02189 0.0
C761 C 0.82608 0.60548 0.03442 0.0
C762 C 0.83499 0.63898 0.01347 0.0
C763 C 0.81494 0.6381 0.02109 0.0
C764 C 0.8105 0.62122 0.03164 0.0
N765 N 0.85017 0.62345 0.01624 0.0
C766 C 0.84594 0.60687 0.02657 0.0
Co767 Co 0.12117 0.17385 0.78374 0.0
Co768 Co 0.1321 0.13553 0.75512 0.0
O769 O 0.1384 0.15029 0.77533 0.0
C770 C 0.1254 0.14464 0.81188 0.0
O771 O 0.12104 0.12825 0.80244 0.0
C772 C 0.17641 0.15152 0.75189 0.0
O773 O 0.16787 0.17017 0.75567 0.0
O774 O 0.12964 0.16333 0.74311 0.0
O775 O 0.11517 0.18498 0.76179 0.0
H776 H 0.09174 0.12103 0.70384 0.0
H777 H 0.16482 0.16724 0.79728 0.0
O778 O 0.12637 0.16363 0.80618 0.0
H779 H 0.16774 0.23796 0.77049 0.0
H780 H 0.10441 0.2342 0.82222 0.0
H781 H 0.07908 0.19329 0.77502 0.0
H782 H 0.13356 0.21772 0.77183 0.0
H783 H 0.12627 0.20453 0.81108 0.0
O784 O 0.16421 0.13501 0.75055 0.0
H785 H 0.09921 0.13979 0.72941 0.0
H786 H 0.15331 0.09939 0.73775 0.0
H787 H 0.05674 0.22286 0.78574 0.0
H788 H 0.1989 0.18764 0.79712 0.0
H789 H 0.06931 0.24339 0.80958 0.0
H790 H 0.20055 0.2232 0.78349 0.0
O791 O 0.09496 0.15572 0.78241 0.0
H792 H 0.16693 0.08271 0.79287 0.0
H793 H 0.10489 0.09607 0.75713 0.0
H794 H 0.10713 0.0618 0.77205 0.0
H795 H 0.13835 0.05493 0.79006 0.0
H796 H 0.16395 0.11683 0.77784 0.0
H797 H 0.14657 0.08029 0.71219 0.0
H798 H 0.11553 0.09104 0.69509 0.0
O799 O 0.09988 0.13624 0.75977 0.0
C800 C 0.1205 0.18077 0.74738 0.0
C801 C 0.10527 0.11615 0.71122 0.0
C802 C 0.13607 0.0933 0.71589 0.0
N803 N 0.12657 0.12056 0.73509 0.0
C804 C 0.10954 0.12667 0.72572 0.0
C805 C 0.13984 0.1042 0.73032 0.0
C806 C 0.11864 0.09934 0.7063 0.0
C807 C 0.16519 0.183 0.79179 0.0
N808 N 0.14713 0.19131 0.7847 0.0
C809 C 0.18461 0.19439 0.79159 0.0
C810 C 0.18554 0.21432 0.78393 0.0
C811 C 0.16707 0.22268 0.77671 0.0
C812 C 0.14782 0.21102 0.77738 0.0
C813 C 0.09874 0.22531 0.81185 0.0
C814 C 0.08473 0.20226 0.78534 0.0
C815 C 0.11104 0.20848 0.8055 0.0
N816 N 0.104 0.19725 0.79238 0.0
C817 C 0.072 0.21896 0.79136 0.0
C818 C 0.07908 0.23052 0.80472 0.0
C819 C 0.08802 0.14324 0.77133 0.0
C820 C 0.15328 0.08549 0.78503 0.0
C821 C 0.11848 0.09323 0.76498 0.0
C822 C 0.11969 0.07377 0.77337 0.0
C823 C 0.13722 0.06992 0.78346 0.0
N824 N 0.13431 0.10839 0.76656 0.0
C825 C 0.15155 0.10474 0.77644 0.0
Co826 Co 0.59479 0.35847 0.53904 0.0
Co827 Co 0.62341 0.37604 0.50643 0.0
O828 O 0.61422 0.37931 0.52897 0.0
C829 C 0.62508 0.37295 0.56575 0.0
O830 O 0.63566 0.38633 0.55642 0.0
C831 C 0.60887 0.42114 0.5095 0.0
O832 O 0.59228 0.41346 0.51742 0.0
O833 O 0.59282 0.37537 0.49936 0.0
O834 O 0.57934 0.35345 0.51821 0.0
H835 H 0.6218 0.34348 0.45112 0.0
H836 H 0.59816 0.40266 0.55328 0.0
O837 O 0.6093 0.36191 0.56044 0.0
H838 H 0.52125 0.39273 0.54054 0.0
H839 H 0.54757 0.32881 0.58313 0.0
H840 H 0.57834 0.31551 0.52934 0.0
H841 H 0.54738 0.36386 0.53499 0.0
H842 H 0.57119 0.35577 0.57031 0.0
O843 O 0.62317 0.40838 0.50393 0.0
H844 H 0.61099 0.34724 0.47955 0.0
H845 H 0.65454 0.39943 0.48542 0.0
H846 H 0.55468 0.2882 0.54167 0.0
H847 H 0.57251 0.43169 0.55941 0.0
H848 H 0.53908 0.29478 0.56876 0.0
H849 H 0.53369 0.42692 0.55295 0.0
O850 O 0.61548 0.3354 0.53392 0.0
H851 H 0.68638 0.40641 0.53695 0.0
H852 H 0.66234 0.34904 0.50007 0.0
H853 H 0.70017 0.34977 0.50918 0.0
H854 H 0.71243 0.37864 0.52773 0.0
H855 H 0.64863 0.40495 0.52765 0.0
H856 H 0.6657 0.39637 0.45701 0.0
H857 H 0.64935 0.36817 0.43969 0.0
O858 O 0.62388 0.34332 0.50834 0.0
C859 C 0.578 0.36324 0.50479 0.0
C860 C 0.6291 0.35579 0.45857 0.0
C861 C 0.65372 0.38549 0.46187 0.0
N862 N 0.63227 0.3734 0.48416 0.0
C863 C 0.62309 0.35795 0.47468 0.0
C864 C 0.64731 0.38717 0.47793 0.0
C865 C 0.64454 0.36966 0.45215 0.0
C866 C 0.58132 0.40015 0.55078 0.0
N867 N 0.57437 0.38135 0.544 0.0
C868 C 0.56684 0.4168 0.55413 0.0
C869 C 0.54508 0.41414 0.55046 0.0
C870 C 0.53809 0.39498 0.54349 0.0
C871 C 0.55302 0.37869 0.54032 0.0
C872 C 0.55422 0.32578 0.57131 0.0
C873 C 0.57154 0.31855 0.54109 0.0
C874 C 0.56765 0.34096 0.564 0.0
N875 N 0.576 0.33731 0.54902 0.0
C876 C 0.55819 0.303 0.54803 0.0
C877 C 0.54946 0.30669 0.56324 0.0
C878 C 0.62312 0.33021 0.52025 0.0
C879 C 0.68123 0.39375 0.52887 0.0
C880 C 0.66749 0.36156 0.50824 0.0
C881 C 0.68897 0.36194 0.51331 0.0
C882 C 0.69584 0.37815 0.5237 0.0
N883 N 0.65326 0.3769 0.51338 0.0
C884 C 0.65989 0.39287 0.52354 0.0
Co885 Co 0.38935 0.83199 0.28849 0.0
Co886 Co 0.37925 0.86626 0.25702 0.0
O887 O 0.37244 0.85463 0.27833 0.0
C888 C 0.38456 0.86424 0.31496 0.0
O889 O 0.39022 0.87983 0.30514 0.0
C890 C 0.33394 0.85277 0.25568 0.0
O891 O 0.34068 0.8348 0.26225 0.0
O892 O 0.38018 0.83684 0.24745 0.0
O893 O 0.39552 0.818 0.2674 0.0
H894 H 0.41995 0.8711 0.20488 0.0
H895 H 0.34555 0.84063 0.30112 0.0
O896 O 0.38373 0.84487 0.31004 0.0
H897 H 0.34362 0.76537 0.28257 0.0
H898 H 0.40543 0.77672 0.33123 0.0
H899 H 0.43128 0.81107 0.28132 0.0
H900 H 0.37708 0.78661 0.28034 0.0
H901 H 0.38403 0.80518 0.31806 0.0
O902 O 0.34738 0.86761 0.25216 0.0
H903 H 0.41169 0.8566 0.23184 0.0
H904 H 0.35984 0.90078 0.2368 0.0
H905 H 0.45312 0.78256 0.29404 0.0
H906 H 0.31206 0.81963 0.30402 0.0
H907 H 0.44023 0.76522 0.3192 0.0
H908 H 0.31093 0.78171 0.29457 0.0
O909 O 0.41566 0.84972 0.28612 0.0
H910 H 0.34709 0.92553 0.29045 0.0
H911 H 0.4081 0.90464 0.25574 0.0
H912 H 0.40741 0.94091 0.26783 0.0
H913 H 0.37671 0.95157 0.28531 0.0
H914 H 0.34852 0.88937 0.27822 0.0
H915 H 0.3674 0.91564 0.20984 0.0
H916 H 0.3977 0.90084 0.19372 0.0
O917 O 0.41137 0.8649 0.2617 0.0
C918 C 0.38947 0.82008 0.25286 0.0
C919 C 0.40674 0.87774 0.21181 0.0
C920 C 0.37723 0.90271 0.21458 0.0
N921 N 0.38543 0.87797 0.23591 0.0
C922 C 0.40204 0.86964 0.22709 0.0
C923 C 0.37299 0.89421 0.22982 0.0
C924 C 0.39424 0.8944 0.20555 0.0
C925 C 0.34534 0.82401 0.29727 0.0
N926 N 0.36333 0.81485 0.29065 0.0
C927 C 0.32626 0.81225 0.29883 0.0
C928 C 0.32562 0.791 0.2935 0.0
C929 C 0.344 0.7818 0.28675 0.0
C930 C 0.36284 0.79398 0.28544 0.0
C931 C 0.41122 0.78416 0.32027 0.0
C932 C 0.42551 0.80353 0.29223 0.0
C933 C 0.39919 0.80033 0.31278 0.0
N934 N 0.40632 0.80969 0.29888 0.0
C935 C 0.43797 0.78742 0.29939 0.0
C936 C 0.43073 0.77769 0.3135 0.0
C937 C 0.42296 0.85992 0.27394 0.0
C938 C 0.36052 0.9211 0.28282 0.0
C939 C 0.39473 0.90914 0.26337 0.0
C940 C 0.3944 0.92971 0.27016 0.0
C941 C 0.37716 0.93569 0.27995 0.0
N942 N 0.37831 0.89495 0.26622 0.0
C943 C 0.36138 0.90068 0.27582 0.0
Co944 Co 0.59667 0.14181 0.53904 0.0
Co945 Co 0.62426 0.12532 0.50553 0.0
O946 O 0.6158 0.12144 0.52818 0.0
C947 C 0.62835 0.12702 0.56474 0.0
O948 O 0.63836 0.11361 0.5551 0.0
C949 C 0.60935 0.08034 0.50824 0.0
O950 O 0.59303 0.08803 0.51646 0.0
O951 O 0.5935 0.12662 0.49891 0.0
O952 O 0.58021 0.1471 0.51873 0.0
H953 H 0.62141 0.15954 0.45079 0.0
H954 H 0.60123 0.09727 0.55253 0.0
O955 O 0.6123 0.13811 0.55996 0.0
H956 H 0.52362 0.10668 0.54223 0.0
H957 H 0.55126 0.16988 0.58473 0.0
H958 H 0.57939 0.18482 0.53037 0.0
H959 H 0.54915 0.13595 0.53623 0.0
H960 H 0.57454 0.14349 0.57094 0.0
O961 O 0.62359 0.09306 0.50254 0.0
H962 H 0.61141 0.15508 0.47933 0.0
H963 H 0.65448 0.10221 0.48363 0.0
H964 H 0.55604 0.21158 0.54367 0.0
H965 H 0.57623 0.06784 0.55902 0.0
H966 H 0.54179 0.20417 0.57105 0.0
H967 H 0.53706 0.07235 0.5538 0.0
O968 O 0.61683 0.16526 0.5337 0.0
H969 H 0.68785 0.09331 0.53438 0.0
H970 H 0.66325 0.15216 0.49902 0.0
H971 H 0.70134 0.15076 0.50744 0.0
H972 H 0.71389 0.12114 0.52522 0.0
H973 H 0.64984 0.09545 0.52579 0.0
H974 H 0.66483 0.10598 0.45511 0.0
H975 H 0.6483 0.13487 0.43851 0.0
O976 O 0.62509 0.15795 0.50798 0.0
C977 C 0.57878 0.13839 0.5049 0.0
C978 C 0.62878 0.14694 0.45792 0.0
C979 C 0.65312 0.11686 0.46033 0.0
N980 N 0.6325 0.12854 0.48316 0.0
C981 C 0.62323 0.14438 0.47409 0.0
C982 C 0.64718 0.11478 0.47647 0.0
C983 C 0.64385 0.13307 0.45103 0.0
C984 C 0.58426 0.09967 0.55057 0.0
N985 N 0.57677 0.11856 0.54425 0.0
C986 C 0.57014 0.08279 0.55412 0.0
C987 C 0.54818 0.0853 0.55114 0.0
C988 C 0.54063 0.10455 0.54463 0.0
C989 C 0.55522 0.12106 0.54122 0.0
C990 C 0.55733 0.17327 0.57278 0.0
C991 C 0.57315 0.18141 0.54224 0.0
C992 C 0.57055 0.1584 0.56493 0.0
N993 N 0.57816 0.16251 0.54979 0.0
C994 C 0.55999 0.19666 0.54973 0.0
C995 C 0.55201 0.1925 0.5651 0.0
C996 C 0.62434 0.17076 0.52005 0.0
C997 C 0.68259 0.1063 0.52663 0.0
C998 C 0.66853 0.13932 0.50687 0.0
C999 C 0.69015 0.13856 0.51154 0.0
C1000 C 0.69718 0.12193 0.5215 0.0
N1001 N 0.6543 0.12394 0.51197 0.0
C1002 C 0.66109 0.10757 0.5217 0.0
Co1003 Co 0.12708 0.37138 0.75507 0.0
Co1004 Co 0.10829 0.33684 0.78355 0.0
O1005 O 0.13007 0.35701 0.77589 0.0
C1006 C 0.17125 0.35356 0.75492 0.0
O1007 O 0.16216 0.33521 0.75885 0.0
C1008 C 0.11661 0.36462 0.81204 0.0
O1009 O 0.11515 0.38164 0.80272 0.0
O1010 O 0.0863 0.35963 0.78165 0.0
O1011 O 0.09433 0.37293 0.75727 0.0
H1012 H 0.03575 0.3007 0.78293 0.0
H1013 H 0.15685 0.38957 0.77943 0.0
O1014 O 0.15952 0.37019 0.75262 0.0
H1015 H 0.10472 0.44748 0.76777 0.0
H1016 H 0.14962 0.42329 0.7117 0.0
H1017 H 0.09762 0.36687 0.7272 0.0
H1018 H 0.10222 0.41252 0.75381 0.0
H1019 H 0.15211 0.40558 0.73822 0.0
O1020 O 0.11434 0.34581 0.80618 0.0
H1021 H 0.06407 0.32521 0.773 0.0
H1022 H 0.10524 0.30667 0.81143 0.0
H1023 H 0.09442 0.38427 0.70061 0.0
H1024 H 0.16008 0.42436 0.79354 0.0
H1025 H 0.12055 0.4127 0.69272 0.0
H1026 H 0.13385 0.45359 0.78777 0.0
O1027 O 0.12476 0.3429 0.74425 0.0
H1028 H 0.18041 0.30687 0.79968 0.0
H1029 H 0.11092 0.29084 0.77345 0.0
H1030 H 0.13831 0.26242 0.77554 0.0
H1031 H 0.17348 0.2703 0.78879 0.0
H1032 H 0.15239 0.33494 0.79729 0.0
H1033 H 0.07727 0.28216 0.82188 0.0
H1034 H 0.04227 0.27895 0.80754 0.0
O1035 O 0.10163 0.32688 0.76112 0.0
C1036 C 0.08127 0.37023 0.76908 0.0
C1037 C 0.05096 0.30191 0.78926 0.0
C1038 C 0.07424 0.29153 0.81113 0.0
N1039 N 0.08634 0.3173 0.79157 0.0
C1040 C 0.06708 0.31573 0.78367 0.0
C1041 C 0.09 0.30549 0.80518 0.0
C1042 C 0.05461 0.28974 0.80308 0.0
C1043 C 0.1455 0.40228 0.77675 0.0
N1044 N 0.12942 0.39904 0.76578 0.0
C1045 C 0.14736 0.42192 0.78482 0.0
C1046 C 0.13261 0.4383 0.78159 0.0
C1047 C 0.11625 0.43487 0.77038 0.0
C1048 C 0.11488 0.41502 0.76256 0.0
C1049 C 0.13811 0.41095 0.71501 0.0
C1050 C 0.10896 0.37933 0.72388 0.0
C1051 C 0.13947 0.40085 0.73 0.0
N1052 N 0.1249 0.38536 0.73429 0.0
C1053 C 0.10711 0.38908 0.7088 0.0
C1054 C 0.12179 0.40501 0.70437 0.0
C1055 C 0.11191 0.32765 0.74785 0.0
C1056 C 0.16519 0.30322 0.79392 0.0
C1057 C 0.12617 0.29448 0.77913 0.0
C1058 C 0.14165 0.27827 0.78032 0.0
C1059 C 0.1613 0.2827 0.78776 0.0
N1060 N 0.13006 0.31454 0.78526 0.0
C1061 C 0.14926 0.31902 0.79257 0.0
Co1062 Co 0.91487 0.85914 0.03437 0.0
Co1063 Co 0.8784 0.87456 0.00609 0.0
O1064 O 0.89351 0.87942 0.02635 0.0
C1065 C 0.88817 0.86886 0.06314 0.0
O1066 O 0.87081 0.86538 0.05448 0.0
C1067 C 0.89588 0.91851 0.00366 0.0
O1068 O 0.91439 0.90949 0.00726 0.0
O1069 O 0.90644 0.87183 0.99459 0.0
O1070 O 0.92382 0.85069 0.01208 0.0
H1071 H 0.86348 0.83726 0.95366 0.0
H1072 H 0.91586 0.90413 0.04632 0.0
O1073 O 0.90681 0.86692 0.05689 0.0
H1074 H 0.98605 0.8927 0.01977 0.0
H1075 H 0.97378 0.83445 0.07177 0.0
H1076 H 0.92752 0.81445 0.02589 0.0
H1077 H 0.95994 0.86307 0.02204 0.0
H1078 H 0.94698 0.86008 0.06108 0.0
O1079 O 0.87904 0.90679 0.00225 0.0
H1080 H 0.88204 0.84289 0.97958 0.0
H1081 H 0.84314 0.89772 0.98901 0.0
H1082 H 0.95414 0.78836 0.03617 0.0
H1083 H 0.94192 0.93409 0.04491 0.0
H1084 H 0.97753 0.79831 0.05925 0.0
H1085 H 0.97713 0.92863 0.03132 0.0
O1086 O 0.89283 0.8362 0.0341 0.0
H1087 H 0.82649 0.90963 0.04441 0.0
H1088 H 0.83768 0.84899 0.00702 0.0
H1089 H 0.80327 0.85199 0.02174 0.0
H1090 H 0.79749 0.88251 0.04057 0.0
H1091 H 0.86073 0.90589 0.02956 0.0
H1092 H 0.82426 0.89282 0.96313 0.0
H1093 H 0.83435 0.86234 0.94529 0.0
O1094 O 0.87765 0.84208 0.00992 0.0
C1095 C 0.92221 0.85975 0.99838 0.0
C1096 C 0.85888 0.85055 0.96135 0.0
C1097 C 0.83689 0.88176 0.96665 0.0
N1098 N 0.86353 0.87048 0.98583 0.0
C1099 C 0.86929 0.85377 0.97605 0.0
C1100 C 0.84766 0.88448 0.98127 0.0
C1101 C 0.84256 0.86465 0.95665 0.0
C1102 C 0.93139 0.90147 0.04076 0.0
N1103 N 0.93632 0.88189 0.03423 0.0
C1104 C 0.94601 0.91854 0.03989 0.0
C1105 C 0.96578 0.91545 0.03225 0.0
C1106 C 0.97079 0.89535 0.02578 0.0
C1107 C 0.95586 0.87863 0.02701 0.0
C1108 C 0.96369 0.82993 0.0617 0.0
C1109 C 0.93766 0.81892 0.03592 0.0
C1110 C 0.94845 0.84435 0.05561 0.0
N1111 N 0.93578 0.83882 0.0428 0.0
C1112 C 0.95269 0.80407 0.0417 0.0
C1113 C 0.9658 0.80966 0.05466 0.0
C1114 C 0.88162 0.82996 0.02211 0.0
C1115 C 0.82879 0.89629 0.03621 0.0
C1116 C 0.83532 0.86227 0.01524 0.0
C1117 C 0.81578 0.86392 0.02351 0.0
C1118 C 0.81254 0.88105 0.03406 0.0
N1119 N 0.85117 0.8773 0.01739 0.0
C1120 C 0.84811 0.89414 0.02772 0.0
Co1121 Co 0.37926 0.62925 0.25726 0.0
Co1122 Co 0.39518 0.66585 0.28526 0.0
O1123 O 0.37457 0.64473 0.27738 0.0
C1124 C 0.33559 0.64745 0.25455 0.0
O1125 O 0.34494 0.66583 0.25797 0.0
C1126 C 0.38502 0.63971 0.3142 0.0
O1127 O 0.38809 0.62226 0.30558 0.0
O1128 O 0.41782 0.6435 0.28522 0.0
O1129 O 0.41174 0.62803 0.26116 0.0
H1130 H 0.46657 0.70419 0.28679 0.0
H1131 H 0.34746 0.61251 0.2808 0.0
O1132 O 0.34703 0.6304 0.25335 0.0
H1133 H 0.40051 0.55413 0.27365 0.0
H1134 H 0.36021 0.57482 0.21475 0.0
H1135 H 0.41116 0.6319 0.23079 0.0
H1136 H 0.40417 0.5882 0.25863 0.0
H1137 H 0.35552 0.59418 0.24044 0.0
O1138 O 0.38724 0.65824 0.30786 0.0
H1139 H 0.44017 0.67768 0.27678 0.0
H1140 H 0.39458 0.6984 0.31164 0.0
H1141 H 0.41658 0.61284 0.20505 0.0
H1142 H 0.34306 0.57863 0.29594 0.0
H1143 H 0.39098 0.58408 0.19689 0.0
H1144 H 0.36975 0.54916 0.29244 0.0
O1145 O 0.38257 0.65701 0.24549 0.0
H1146 H 0.32048 0.69414 0.29533 0.0
H1147 H 0.39192 0.7106 0.27236 0.0
H1148 H 0.36256 0.73687 0.26949 0.0
H1149 H 0.32643 0.7288 0.28113 0.0
H1150 H 0.35015 0.66779 0.29724 0.0
H1151 H 0.42051 0.72512 0.32204 0.0
H1152 H 0.45678 0.72818 0.30954 0.0
O1153 O 0.40387 0.67431 0.26292 0.0
C1154 C 0.42392 0.63203 0.27332 0.0
C1155 C 0.4508 0.70304 0.29231 0.0
C1156 C 0.42496 0.71476 0.31211 0.0
N1157 N 0.41581 0.68658 0.29355 0.0
C1158 C 0.43578 0.68807 0.28668 0.0
C1159 C 0.41037 0.69957 0.30619 0.0
C1160 C 0.4453 0.71649 0.30508 0.0
C1161 C 0.35902 0.59969 0.2791 0.0
N1162 N 0.37599 0.60229 0.2688 0.0
C1163 C 0.3565 0.58057 0.28775 0.0
C1164 C 0.3715 0.56406 0.2858 0.0
C1165 C 0.38877 0.56684 0.27527 0.0
C1166 C 0.39079 0.58619 0.26683 0.0
C1167 C 0.3715 0.5873 0.21818 0.0
C1168 C 0.40005 0.6193 0.22736 0.0
C1169 C 0.3689 0.59834 0.2327 0.0
N1170 N 0.38317 0.61401 0.23714 0.0
C1171 C 0.40315 0.60861 0.21275 0.0
C1172 C 0.38877 0.59249 0.20817 0.0
C1173 C 0.39502 0.67252 0.24916 0.0
C1174 C 0.33613 0.69789 0.29028 0.0
C1175 C 0.37627 0.70685 0.27735 0.0
C1176 C 0.3597 0.7219 0.2758 0.0
C1177 C 0.33948 0.71734 0.2823 0.0
N1178 N 0.37273 0.6876 0.28488 0.0
C1179 C 0.35303 0.6831 0.29145 0.0
Co1180 Co 0.58855 0.85924 0.46468 0.0
Co1181 Co 0.62318 0.87544 0.49393 0.0
O1182 O 0.60953 0.87992 0.47292 0.0
C1183 C 0.61621 0.8681 0.43615 0.0
O1184 O 0.63341 0.86567 0.44519 0.0
C1185 C 0.6079 0.92042 0.49397 0.0
O1186 O 0.58982 0.91282 0.48809 0.0
O1187 O 0.59426 0.87409 0.50422 0.0
O1188 O 0.57867 0.85145 0.4869 0.0
H1189 H 0.63284 0.8395 0.54758 0.0
H1190 H 0.58732 0.90361 0.45135 0.0
O1191 O 0.59746 0.8662 0.4422 0.0
H1192 H 0.51594 0.89213 0.47607 0.0
H1193 H 0.53153 0.83268 0.42635 0.0
H1194 H 0.57589 0.81472 0.47372 0.0
H1195 H 0.54296 0.86316 0.47592 0.0
H1196 H 0.55759 0.85893 0.43718 0.0
O1197 O 0.62333 0.90763 0.49743 0.0
H1198 H 0.61647 0.84485 0.52082 0.0
H1199 H 0.65798 0.89797 0.51205 0.0
H1200 H 0.54998 0.78803 0.46331 0.0
H1201 H 0.56032 0.93278 0.45052 0.0
H1202 H 0.5275 0.79698 0.43949 0.0
H1203 H 0.52438 0.92721 0.46308 0.0
O1204 O 0.61078 0.83658 0.46589 0.0
H1205 H 0.67863 0.90764 0.45702 0.0
H1206 H 0.66328 0.84887 0.49526 0.0
H1207 H 0.69876 0.85046 0.4819 0.0
H1208 H 0.70663 0.88004 0.46264 0.0
H1209 H 0.64329 0.90531 0.47055 0.0
H1210 H 0.67468 0.89333 0.53878 0.0
H1211 H 0.66217 0.86386 0.55671 0.0
O1212 O 0.62343 0.84284 0.49076 0.0
C1213 C 0.57901 0.86148 0.50025 0.0
C1214 C 0.63848 0.85235 0.53986 0.0
C1215 C 0.66195 0.88258 0.53492 0.0
N1216 N 0.6364 0.87157 0.51485 0.0
C1217 C 0.62932 0.85541 0.52468 0.0
C1218 C 0.6524 0.88516 0.51982 0.0
C1219 C 0.65492 0.86604 0.54498 0.0
C1220 C 0.57158 0.90093 0.45655 0.0
N1221 N 0.56681 0.88174 0.46377 0.0
C1222 C 0.5564 0.91755 0.45615 0.0
C1223 C 0.53625 0.91443 0.46322 0.0
C1224 C 0.53148 0.89477 0.47048 0.0
C1225 C 0.54696 0.87847 0.47051 0.0
C1226 C 0.54121 0.8286 0.43675 0.0
C1227 C 0.56618 0.81875 0.46336 0.0
C1228 C 0.55604 0.84338 0.44291 0.0
N1229 N 0.56819 0.83842 0.45613 0.0
C1230 C 0.55154 0.80356 0.4575 0.0
C1231 C 0.53895 0.80858 0.44413 0.0
C1232 C 0.62085 0.83057 0.47848 0.0
C1233 C 0.67541 0.89471 0.46542 0.0
C1234 C 0.66655 0.86174 0.48685 0.0
C1235 C 0.68669 0.86259 0.47935 0.0
C1236 C 0.69111 0.8792 0.46856 0.0
N1237 N 0.65126 0.87704 0.48372 0.0
C1238 C 0.65546 0.89335 0.47316 0.0
Co1239 Co 0.3768 0.37347 0.74273 0.0
Co1240 Co 0.39342 0.33903 0.71354 0.0
O1241 O 0.37227 0.35911 0.72214 0.0
C1242 C 0.33328 0.35458 0.74507 0.0
O1243 O 0.34274 0.33643 0.74112 0.0
C1244 C 0.38235 0.36631 0.68535 0.0
O1245 O 0.38522 0.38342 0.69438 0.0
O1246 O 0.41537 0.36206 0.71413 0.0
O1247 O 0.40926 0.37546 0.73884 0.0
H1248 H 0.46602 0.30322 0.71048 0.0
H1249 H 0.34471 0.39108 0.7198 0.0
O1250 O 0.3446 0.37165 0.74667 0.0
H1251 H 0.3968 0.44985 0.72887 0.0
H1252 H 0.35713 0.42504 0.78706 0.0
H1253 H 0.40881 0.36969 0.76905 0.0
H1254 H 0.40103 0.41498 0.74274 0.0
H1255 H 0.35263 0.40717 0.76075 0.0
O1256 O 0.38499 0.34755 0.69121 0.0
H1257 H 0.43883 0.32818 0.72147 0.0
H1258 H 0.39359 0.30788 0.68622 0.0
H1259 H 0.41405 0.38727 0.79539 0.0
H1260 H 0.33975 0.42576 0.7058 0.0
H1261 H 0.38809 0.41517 0.80453 0.0
H1262 H 0.36595 0.45542 0.71027 0.0
O1263 O 0.38058 0.34506 0.75352 0.0
H1264 H 0.31949 0.30896 0.70318 0.0
H1265 H 0.39176 0.29358 0.72506 0.0
H1266 H 0.36331 0.26632 0.72747 0.0
H1267 H 0.32675 0.27379 0.71631 0.0
H1268 H 0.34829 0.33633 0.70182 0.0
H1269 H 0.42031 0.28267 0.67486 0.0
H1270 H 0.45682 0.28023 0.68703 0.0
O1271 O 0.40258 0.32967 0.73559 0.0
C1272 C 0.42139 0.37268 0.72647 0.0
C1273 C 0.45015 0.30412 0.70509 0.0
C1274 C 0.42451 0.29262 0.68508 0.0
N1275 N 0.4146 0.31941 0.70455 0.0
C1276 C 0.43468 0.31822 0.71127 0.0
C1277 C 0.40946 0.30695 0.69155 0.0
C1278 C 0.44498 0.29123 0.69193 0.0
C1279 C 0.35607 0.40398 0.72192 0.0
N1280 N 0.37308 0.40105 0.73212 0.0
C1281 C 0.35322 0.42355 0.71391 0.0
C1282 C 0.36795 0.44017 0.7164 0.0
C1283 C 0.38527 0.43705 0.72683 0.0
C1284 C 0.38762 0.41726 0.73461 0.0
C1285 C 0.36858 0.41294 0.78319 0.0
C1286 C 0.39754 0.38191 0.77292 0.0
C1287 C 0.36608 0.40274 0.76833 0.0
N1288 N 0.38056 0.38755 0.76334 0.0
C1289 C 0.40055 0.39176 0.78786 0.0
C1290 C 0.38596 0.4074 0.79299 0.0
C1291 C 0.39348 0.33015 0.74933 0.0
C1292 C 0.33532 0.30545 0.70799 0.0
C1293 C 0.37592 0.29709 0.72032 0.0
C1294 C 0.35986 0.28147 0.72158 0.0
C1295 C 0.33941 0.28571 0.71537 0.0
N1296 N 0.37166 0.3166 0.7134 0.0
C1297 C 0.35173 0.32082 0.70714 0.0
Co1298 Co 0.91943 0.14103 0.96638 0.0
Co1299 Co 0.88084 0.12435 0.99285 0.0
O1300 O 0.89746 0.12047 0.97307 0.0
C1301 C 0.89406 0.13352 0.93672 0.0
O1302 O 0.87643 0.13544 0.94535 0.0
C1303 C 0.89824 0.08034 0.99475 0.0
O1304 O 0.91691 0.0895 0.99184 0.0
O1305 O 0.90794 0.12668 0.00561 0.0
O1306 O 0.9272 0.14782 0.98917 0.0
H1307 H 0.86185 0.15923 0.0455 0.0
H1308 H 0.92069 0.09686 0.95284 0.0
O1309 O 0.9125 0.13505 0.94334 0.0
H1310 H 0.99006 0.10618 0.98102 0.0
H1311 H 0.98087 0.16748 0.93197 0.0
H1312 H 0.93201 0.18493 0.97694 0.0
H1313 H 0.96379 0.13587 0.97983 0.0
H1314 H 0.95302 0.14158 0.94066 0.0
O1315 O 0.88134 0.09201 0.99594 0.0
H1316 H 0.88236 0.15482 0.02027 0.0
H1317 H 0.84445 0.10035 0.00786 0.0
H1318 H 0.95963 0.21127 0.96866 0.0
H1319 H 0.94681 0.06687 0.95336 0.0
H1320 H 0.98434 0.20258 0.94607 0.0
H1321 H 0.98171 0.07138 0.96764 0.0
O1322 O 0.89764 0.16418 0.96674 0.0
H1323 H 0.83192 0.09069 0.95174 0.0
H1324 H 0.84017 0.14989 0.99081 0.0
H1325 H 0.80692 0.14741 0.97464 0.0
H1326 H 0.80262 0.11762 0.95497 0.0
H1327 H 0.86502 0.09391 0.96803 0.0
H1328 H 0.82363 0.10404 0.03302 0.0
H1329 H 0.83225 0.13371 0.052 0.0
O1330 O 0.88018 0.15698 0.98986 0.0
C1331 C 0.92398 0.13883 0.00273 0.0
C1332 C 0.85789 0.14628 0.0373 0.0
C1333 C 0.83646 0.11528 0.0303 0.0
N1334 N 0.86446 0.12747 0.01256 0.0
C1335 C 0.8694 0.14375 0.02298 0.0
C1336 C 0.84833 0.11325 0.0161 0.0
C1337 C 0.8413 0.13194 0.04095 0.0
C1338 C 0.936 0.09905 0.95884 0.0
N1339 N 0.94068 0.11808 0.9663 0.0
C1340 C 0.95067 0.08197 0.95918 0.0
C1341 C 0.97022 0.08449 0.96723 0.0
C1342 C 0.97493 0.104 0.97473 0.0
C1343 C 0.95993 0.12074 0.97407 0.0
C1344 C 0.9702 0.17145 0.94184 0.0
C1345 C 0.9427 0.18101 0.9671 0.0
C1346 C 0.95436 0.15687 0.94679 0.0
N1347 N 0.94099 0.16167 0.95937 0.0
C1348 C 0.9583 0.19601 0.96246 0.0
C1349 C 0.97216 0.19113 0.94977 0.0
C1350 C 0.88522 0.16969 0.97825 0.0
C1351 C 0.83358 0.10371 0.96031 0.0
C1352 C 0.83847 0.13693 0.98222 0.0
C1353 C 0.81957 0.13558 0.97313 0.0
C1354 C 0.81716 0.11885 0.9621 0.0
N1355 N 0.8545 0.12202 0.98039 0.0
C1356 C 0.85225 0.10556 0.96962 0.0
Co1357 Co 0.12945 0.63022 0.24391 0.0
Co1358 Co 0.11214 0.66576 0.21567 0.0
O1359 O 0.13338 0.64508 0.22338 0.0
C1360 C 0.17358 0.6478 0.24523 0.0
O1361 O 0.16457 0.66627 0.24153 0.0
C1362 C 0.12143 0.63925 0.18676 0.0
O1363 O 0.11931 0.6219 0.19565 0.0
O1364 O 0.08994 0.64301 0.21644 0.0
O1365 O 0.0968 0.62904 0.24085 0.0
H1366 H 0.04 0.70275 0.2152 0.0
H1367 H 0.16 0.61245 0.21991 0.0
O1368 O 0.16179 0.6311 0.24706 0.0
H1369 H 0.10703 0.55466 0.22964 0.0
H1370 H 0.14982 0.57709 0.28703 0.0
H1371 H 0.09879 0.63416 0.27109 0.0
H1372 H 0.10425 0.58927 0.24403 0.0
H1373 H 0.15356 0.59546 0.26084 0.0
O1374 O 0.11928 0.65785 0.193 0.0
H1375 H 0.0673 0.67704 0.22502 0.0
H1376 H 0.11106 0.69766 0.18884 0.0
H1377 H 0.09434 0.6161 0.29733 0.0
H1378 H 0.16352 0.57799 0.20537 0.0
H1379 H 0.11998 0.58734 0.30544 0.0
H1380 H 0.13686 0.54883 0.21017 0.0
O1381 O 0.12693 0.65846 0.25513 0.0
H1382 H 0.18559 0.69564 0.20308 0.0
H1383 H 0.11489 0.71102 0.22765 0.0
H1384 H 0.14343 0.73851 0.22868 0.0
H1385 H 0.17907 0.73102 0.21616 0.0
H1386 H 0.15676 0.66823 0.20288 0.0
H1387 H 0.08421 0.72357 0.1786 0.0
H1388 H 0.04842 0.72632 0.19187 0.0
O1389 O 0.10418 0.67453 0.23809 0.0
C1390 C 0.0843 0.63212 0.22874 0.0
C1391 C 0.05556 0.70175 0.20935 0.0
C1392 C 0.08036 0.71341 0.18879 0.0
N1393 N 0.09082 0.68593 0.20758 0.0
C1394 C 0.0711 0.68723 0.21486 0.0
C1395 C 0.09548 0.69867 0.19461 0.0
C1396 C 0.06029 0.71495 0.19625 0.0
C1397 C 0.14846 0.59976 0.22217 0.0
N1398 N 0.13199 0.60284 0.23284 0.0
C1399 C 0.15048 0.58032 0.21385 0.0
C1400 C 0.1355 0.56397 0.21654 0.0
C1401 C 0.11875 0.56724 0.22744 0.0
C1402 C 0.11722 0.5869 0.23553 0.0
C1403 C 0.13852 0.58957 0.28362 0.0
C1404 C 0.10992 0.62156 0.2745 0.0
C1405 C 0.14058 0.60005 0.26883 0.0
N1406 N 0.12629 0.61572 0.26441 0.0
C1407 C 0.10736 0.61144 0.28939 0.0
C1408 C 0.12177 0.59532 0.29394 0.0
C1409 C 0.11406 0.67365 0.2515 0.0
C1410 C 0.17011 0.69914 0.2085 0.0
C1411 C 0.1304 0.7075 0.22235 0.0
C1412 C 0.14648 0.72321 0.22287 0.0
C1413 C 0.16646 0.71897 0.21587 0.0
N1414 N 0.13418 0.68797 0.21528 0.0
C1415 C 0.15369 0.68373 0.20833 0.0
Co1416 Co 0.41368 0.86373 0.46035 0.0
Co1417 Co 0.38343 0.87931 0.49297 0.0
O1418 O 0.39342 0.88345 0.4707 0.0
C1419 C 0.38288 0.87786 0.43389 0.0
O1420 O 0.37216 0.89096 0.44333 0.0
C1421 C 0.39881 0.92409 0.4911 0.0
O1422 O 0.41575 0.9162 0.48373 0.0
O1423 O 0.41364 0.87786 0.50087 0.0
O1424 O 0.4293 0.85895 0.48109 0.0
H1425 H 0.3822 0.84437 0.54749 0.0
H1426 H 0.4082 0.90834 0.44712 0.0
O1427 O 0.39892 0.86702 0.43902 0.0
H1428 H 0.48575 0.90099 0.45839 0.0
H1429 H 0.46246 0.83746 0.416 0.0
H1430 H 0.43212 0.82138 0.46952 0.0
H1431 H 0.46087 0.87106 0.46416 0.0
H1432 H 0.43728 0.8628 0.42901 0.0
O1433 O 0.38399 0.91152 0.49613 0.0
H1434 H 0.39429 0.84918 0.51943 0.0
H1435 H 0.35177 0.90225 0.51378 0.0
H1436 H 0.45738 0.79569 0.45699 0.0
H1437 H 0.43251 0.93847 0.44106 0.0
H1438 H 0.4728 0.80371 0.43007 0.0
H1439 H 0.47167 0.93498 0.44675 0.0
O1440 O 0.3941 0.83954 0.46513 0.0
H1441 H 0.32189 0.91189 0.46205 0.0
H1442 H 0.34408 0.85234 0.49764 0.0
H1443 H 0.30662 0.85389 0.48777 0.0
H1444 H 0.2953 0.88386 0.46987 0.0
H1445 H 0.35926 0.90959 0.47207 0.0
H1446 H 0.33934 0.89815 0.54181 0.0
H1447 H 0.35453 0.86898 0.55885 0.0
O1448 O 0.38278 0.84676 0.49025 0.0
C1449 C 0.42919 0.86687 0.49521 0.0
C1450 C 0.37541 0.8571 0.54017 0.0
C1451 C 0.35137 0.8873 0.53699 0.0
N1452 N 0.3736 0.87585 0.51495 0.0
C1453 C 0.38214 0.85985 0.52426 0.0
C1454 C 0.3585 0.88957 0.52114 0.0
C1455 C 0.3599 0.87092 0.54654 0.0
C1456 C 0.42517 0.90638 0.44932 0.0
N1457 N 0.43302 0.88766 0.45568 0.0
C1458 C 0.43889 0.92366 0.44602 0.0
C1459 C 0.46084 0.92173 0.44926 0.0
C1460 C 0.46874 0.90268 0.45584 0.0
C1461 C 0.45453 0.88578 0.45907 0.0
C1462 C 0.4559 0.83382 0.42776 0.0
C1463 C 0.43882 0.82503 0.45782 0.0
C1464 C 0.44159 0.84808 0.43517 0.0
N1465 N 0.4334 0.84369 0.45009 0.0
C1466 C 0.45308 0.8104 0.45078 0.0
C1467 C 0.4617 0.81489 0.43566 0.0
C1468 C 0.38515 0.83397 0.47828 0.0
C1469 C 0.32663 0.89875 0.46984 0.0
C1470 C 0.33935 0.86533 0.48974 0.0
C1471 C 0.31808 0.86618 0.48425 0.0
C1472 C 0.31172 0.88301 0.47422 0.0
N1473 N 0.35389 0.88081 0.48537 0.0
C1474 C 0.34776 0.89739 0.47558 0.0
Co1475 Co 0.89481 0.65595 0.20813 0.0
Co1476 Co 0.87885 0.62823 0.24167 0.0
O1477 O 0.87468 0.63662 0.21906 0.0
C1478 C 0.87982 0.62435 0.18248 0.0
O1479 O 0.86666 0.61421 0.19224 0.0
C1480 C 0.83359 0.64253 0.23913 0.0
O1481 O 0.84108 0.65894 0.23093 0.0
O1482 O 0.8797 0.65899 0.24823 0.0
O1483 O 0.90021 0.67236 0.22844 0.0
H1484 H 0.91351 0.63167 0.29624 0.0
H1485 H 0.85005 0.65117 0.19492 0.0
O1486 O 0.89093 0.64041 0.18719 0.0
H1487 H 0.85914 0.72869 0.20537 0.0
H1488 H 0.92207 0.70161 0.16231 0.0
H1489 H 0.93781 0.67359 0.21657 0.0
H1490 H 0.88867 0.70334 0.21107 0.0
H1491 H 0.89598 0.67812 0.17624 0.0
O1492 O 0.84653 0.62844 0.24479 0.0
H1493 H 0.90866 0.64154 0.26771 0.0
H1494 H 0.85631 0.59778 0.26371 0.0
H1495 H 0.96427 0.69714 0.20313 0.0
H1496 H 0.82035 0.67598 0.1887 0.0
H1497 H 0.95646 0.71135 0.1758 0.0
H1498 H 0.8247 0.71511 0.194 0.0
O1499 O 0.91851 0.636 0.21329 0.0
H1500 H 0.84753 0.56421 0.21304 0.0
H1501 H 0.90633 0.58971 0.24813 0.0
H1502 H 0.90542 0.55163 0.23977 0.0
H1503 H 0.87583 0.53863 0.22212 0.0
H1504 H 0.84918 0.60221 0.22157 0.0
H1505 H 0.86046 0.58755 0.29223 0.0
H1506 H 0.88929 0.60449 0.30867 0.0
O1507 O 0.91154 0.62786 0.23907 0.0
C1508 C 0.8913 0.67382 0.2422 0.0
C1509 C 0.90094 0.62412 0.28918 0.0
C1510 C 0.87114 0.59938 0.28694 0.0
N1511 N 0.88235 0.6201 0.26403 0.0
C1512 C 0.89816 0.6296 0.27302 0.0
C1513 C 0.86884 0.60526 0.27081 0.0
C1514 C 0.88733 0.60888 0.29616 0.0
C1515 C 0.85238 0.66812 0.19691 0.0
N1516 N 0.87133 0.67568 0.20311 0.0
C1517 C 0.83535 0.68214 0.19352 0.0
C1518 C 0.83777 0.70407 0.19654 0.0
C1519 C 0.85707 0.71169 0.20293 0.0
C1520 C 0.87374 0.69721 0.20617 0.0
C1521 C 0.92563 0.69556 0.17424 0.0
C1522 C 0.93423 0.67979 0.20472 0.0
C1523 C 0.91094 0.68222 0.18217 0.0
N1524 N 0.91527 0.67464 0.19728 0.0
C1525 C 0.94931 0.69308 0.19715 0.0
C1526 C 0.94492 0.70103 0.18181 0.0
C1527 C 0.9243 0.62872 0.22693 0.0
C1528 C 0.86051 0.56967 0.22073 0.0
C1529 C 0.8935 0.58424 0.24034 0.0
C1530 C 0.89302 0.56262 0.2357 0.0
C1531 C 0.8764 0.55534 0.22581 0.0
N1532 N 0.87786 0.5982 0.23528 0.0
C1533 C 0.8615 0.59117 0.22562 0.0
Co1534 Co 0.08362 0.14223 0.9578 0.0
Co1535 Co 0.11632 0.12915 0.98994 0.0
O1536 O 0.10561 0.1242 0.96795 0.0
C1537 C 0.11549 0.13157 0.93119 0.0
O1538 O 0.12788 0.1202 0.94075 0.0
C1539 C 0.10235 0.08384 0.98889 0.0
O1540 O 0.08498 0.09105 0.98168 0.0
O1541 O 0.08647 0.12993 0.99872 0.0
O1542 O 0.06815 0.14569 0.97867 0.0
H1543 H 0.119 0.16559 0.04387 0.0
H1544 H 0.0928 0.09862 0.94417 0.0
O1545 O 0.09818 0.14026 0.9363 0.0
H1546 H 0.01519 0.09865 0.95665 0.0
H1547 H 0.03176 0.16405 0.91406 0.0
H1548 H 0.06192 0.18296 0.9671 0.0
H1549 H 0.03737 0.13067 0.96226 0.0
H1550 H 0.05933 0.14103 0.92677 0.0
O1551 O 0.11687 0.09699 0.99357 0.0
H1552 H 0.1058 0.15969 0.01622 0.0
H1553 H 0.14954 0.10767 0.01027 0.0
H1554 H 0.03419 0.2063 0.95489 0.0
H1555 H 0.07119 0.06637 0.93832 0.0
H1556 H 0.01894 0.19689 0.92817 0.0
H1557 H 0.03204 0.06618 0.94462 0.0
O1558 O 0.10113 0.16802 0.96239 0.0
H1559 H 0.17764 0.09737 0.9583 0.0
H1560 H 0.15491 0.15753 0.9931 0.0
H1561 H 0.192 0.15678 0.98244 0.0
H1562 H 0.20361 0.1265 0.96494 0.0
H1563 H 0.1406 0.09891 0.96905 0.0
H1564 H 0.16309 0.11287 0.03791 0.0
H1565 H 0.14785 0.14207 0.05488 0.0
O1566 O 0.11579 0.1616 0.98669 0.0
C1567 C 0.06977 0.13913 0.99313 0.0
C1568 C 0.12582 0.15286 0.03657 0.0
C1569 C 0.15055 0.12325 0.03323 0.0
N1570 N 0.12702 0.13348 0.01161 0.0
C1571 C 0.11846 0.14949 0.02089 0.0
C1572 C 0.14278 0.12036 0.01761 0.0
C1573 C 0.14199 0.13964 0.04275 0.0
C1574 C 0.07577 0.09891 0.94669 0.0
N1575 N 0.06639 0.11675 0.95329 0.0
C1576 C 0.06361 0.08047 0.94347 0.0
C1577 C 0.04167 0.08034 0.94706 0.0
C1578 C 0.03221 0.09853 0.95386 0.0
C1579 C 0.04489 0.11664 0.957 0.0
C1580 C 0.03826 0.1683 0.92572 0.0
C1581 C 0.05524 0.17867 0.95552 0.0
C1582 C 0.05392 0.15536 0.93296 0.0
N1583 N 0.06206 0.16051 0.94776 0.0
C1584 C 0.0396 0.19199 0.94865 0.0
C1585 C 0.03106 0.18671 0.93365 0.0
C1586 C 0.11122 0.17416 0.97493 0.0
C1587 C 0.17278 0.11065 0.96591 0.0
C1588 C 0.15975 0.14441 0.98536 0.0
C1589 C 0.18082 0.14402 0.97943 0.0
C1590 C 0.18733 0.12701 0.96963 0.0
N1591 N 0.14555 0.12833 0.98163 0.0
C1592 C 0.15184 0.11157 0.97208 0.0
Co1593 Co 0.60971 0.3384 0.71343 0.0
Co1594 Co 0.62631 0.37315 0.74249 0.0
O1595 O 0.63065 0.35887 0.72182 0.0
C1596 C 0.61941 0.3662 0.68516 0.0
O1597 O 0.61639 0.38329 0.69419 0.0
C1598 C 0.67033 0.35527 0.74423 0.0
O1599 O 0.66133 0.33694 0.74015 0.0
O1600 O 0.62338 0.34466 0.75328 0.0
O1601 O 0.60161 0.32842 0.73557 0.0
H1602 H 0.59005 0.38605 0.79566 0.0
H1603 H 0.65463 0.33715 0.7012 0.0
O1604 O 0.61725 0.34741 0.69106 0.0
H1605 H 0.64094 0.26495 0.72367 0.0
H1606 H 0.58265 0.28266 0.67434 0.0
H1607 H 0.56498 0.32605 0.72225 0.0
H1608 H 0.6126 0.29257 0.72399 0.0
H1609 H 0.6092 0.30806 0.6856 0.0
O1610 O 0.65859 0.37201 0.74605 0.0
H1611 H 0.59504 0.36862 0.76925 0.0
H1612 H 0.65016 0.40736 0.76021 0.0
H1613 H 0.53801 0.30068 0.71147 0.0
H1614 H 0.68349 0.30981 0.7004 0.0
H1615 H 0.5468 0.27872 0.68737 0.0
H1616 H 0.67682 0.27345 0.71173 0.0
O1617 O 0.58722 0.36084 0.71454 0.0
H1618 H 0.66144 0.42621 0.70512 0.0
H1619 H 0.60126 0.41418 0.74287 0.0
H1620 H 0.60448 0.44914 0.72897 0.0
H1621 H 0.63477 0.45534 0.70997 0.0
H1622 H 0.65749 0.39142 0.71915 0.0
H1623 H 0.64589 0.4251 0.78659 0.0
H1624 H 0.6156 0.41452 0.80448 0.0
O1625 O 0.59376 0.37453 0.73907 0.0
C1626 C 0.6109 0.32932 0.74923 0.0
C1627 C 0.60327 0.39086 0.78795 0.0
C1628 C 0.63463 0.41275 0.78287 0.0
N1629 N 0.62275 0.38712 0.76316 0.0
C1630 C 0.60613 0.38109 0.77297 0.0
C1631 C 0.63699 0.40263 0.76797 0.0
C1632 C 0.61762 0.40681 0.7929 0.0
C1633 C 0.65154 0.32127 0.706 0.0
N1634 N 0.63196 0.31647 0.71262 0.0
C1635 C 0.66796 0.30589 0.70558 0.0
C1636 C 0.66421 0.28549 0.71197 0.0
C1637 C 0.64416 0.2807 0.71867 0.0
C1638 C 0.62814 0.29647 0.71888 0.0
C1639 C 0.57864 0.2921 0.68487 0.0
C1640 C 0.56896 0.31651 0.71178 0.0
C1641 C 0.59359 0.30657 0.69127 0.0
N1642 N 0.5887 0.31844 0.70463 0.0
C1643 C 0.5536 0.30219 0.70572 0.0
C1644 C 0.55853 0.2899 0.69218 0.0
C1645 C 0.58136 0.37147 0.72691 0.0
C1646 C 0.6482 0.42372 0.71341 0.0
C1647 C 0.61443 0.41672 0.73456 0.0
C1648 C 0.61621 0.43657 0.72677 0.0
C1649 C 0.63322 0.44005 0.71612 0.0
N1650 N 0.62922 0.4008 0.73186 0.0
C1651 C 0.64593 0.40409 0.72143 0.0
Co1652 Co 0.40974 0.14631 0.53577 0.0
Co1653 Co 0.38153 0.12854 0.50317 0.0
O1654 O 0.3911 0.12494 0.52557 0.0
C1655 C 0.38101 0.12906 0.56251 0.0
O1656 O 0.37148 0.11492 0.55319 0.0
C1657 C 0.39748 0.08396 0.50568 0.0
O1658 O 0.4141 0.09213 0.51329 0.0
O1659 O 0.41203 0.13026 0.49601 0.0
O1660 O 0.42447 0.15278 0.51484 0.0
H1661 H 0.38167 0.16239 0.44827 0.0
H1662 H 0.40915 0.10133 0.54907 0.0
O1663 O 0.3958 0.14142 0.55722 0.0
H1664 H 0.48508 0.11622 0.53581 0.0
H1665 H 0.45611 0.17695 0.57996 0.0
H1666 H 0.42386 0.19033 0.52666 0.0
H1667 H 0.45725 0.14374 0.5312 0.0
H1668 H 0.4337 0.14922 0.56686 0.0
O1669 O 0.38266 0.09629 0.50033 0.0
H1670 H 0.39284 0.15831 0.4766 0.0
H1671 H 0.35091 0.10473 0.48203 0.0
H1672 H 0.44627 0.21843 0.53929 0.0
H1673 H 0.43653 0.07363 0.5543 0.0
H1674 H 0.4626 0.21181 0.56612 0.0
H1675 H 0.47488 0.08088 0.54758 0.0
O1676 O 0.38777 0.1684 0.53132 0.0
H1677 H 0.31979 0.0958 0.53375 0.0
H1678 H 0.34176 0.15449 0.49728 0.0
H1679 H 0.30406 0.1525 0.5066 0.0
H1680 H 0.29285 0.12296 0.52494 0.0
H1681 H 0.35738 0.09852 0.52423 0.0
H1682 H 0.3394 0.1081 0.45372 0.0
H1683 H 0.35475 0.13716 0.43666 0.0
O1684 O 0.38014 0.16122 0.50551 0.0
C1685 C 0.42636 0.14293 0.50148 0.0
C1686 C 0.3748 0.14971 0.4556 0.0
C1687 C 0.3511 0.11922 0.45865 0.0
N1688 N 0.37238 0.13143 0.48098 0.0
C1689 C 0.38102 0.14737 0.47165 0.0
C1690 C 0.35771 0.11737 0.47466 0.0
C1691 C 0.35972 0.13554 0.44909 0.0
C1692 C 0.42575 0.10494 0.54648 0.0
N1693 N 0.43146 0.12438 0.54006 0.0
C1694 C 0.44123 0.08903 0.54931 0.0
C1695 C 0.46272 0.09308 0.54549 0.0
C1696 C 0.46846 0.11288 0.53889 0.0
C1697 C 0.45256 0.1284 0.53625 0.0
C1698 C 0.44913 0.18001 0.56825 0.0
C1699 C 0.43099 0.18728 0.53831 0.0
C1700 C 0.43638 0.16439 0.56078 0.0
N1701 N 0.42761 0.16808 0.54594 0.0
C1702 C 0.44363 0.20328 0.54541 0.0
C1703 C 0.45277 0.19956 0.56048 0.0
C1704 C 0.38012 0.17384 0.51772 0.0
C1705 C 0.32448 0.10875 0.52576 0.0
C1706 C 0.33706 0.14169 0.50536 0.0
C1707 C 0.31566 0.14059 0.51054 0.0
C1708 C 0.30937 0.124 0.52082 0.0
N1709 N 0.35178 0.12668 0.51027 0.0
C1710 C 0.34573 0.11035 0.52032 0.0
Co1711 Co 0.6139 0.66399 0.28625 0.0
Co1712 Co 0.6289 0.62864 0.25707 0.0
O1713 O 0.634 0.64258 0.27786 0.0
C1714 C 0.62287 0.63616 0.31461 0.0
O1715 O 0.61932 0.6191 0.30565 0.0
C1716 C 0.67397 0.64372 0.25629 0.0
O1717 O 0.66646 0.66193 0.26196 0.0
O1718 O 0.62746 0.65732 0.24648 0.0
O1719 O 0.60592 0.67395 0.26411 0.0
H1720 H 0.59152 0.61822 0.20405 0.0
H1721 H 0.65866 0.66425 0.29902 0.0
O1722 O 0.62122 0.65496 0.30864 0.0
H1723 H 0.64801 0.73597 0.27478 0.0
H1724 H 0.58941 0.72178 0.32468 0.0
H1725 H 0.5695 0.67769 0.27763 0.0
H1726 H 0.6186 0.70939 0.27488 0.0
H1727 H 0.61479 0.69491 0.31375 0.0
O1728 O 0.66109 0.62824 0.25315 0.0
H1729 H 0.59765 0.63503 0.23055 0.0
H1730 H 0.6508 0.59343 0.239 0.0
H1731 H 0.54366 0.70436 0.28817 0.0
H1732 H 0.68835 0.69068 0.29967 0.0
H1733 H 0.55358 0.72668 0.31183 0.0
H1734 H 0.68319 0.72679 0.28738 0.0
O1735 O 0.59063 0.64234 0.28536 0.0
H1736 H 0.66167 0.5737 0.29408 0.0
H1737 H 0.60196 0.58881 0.25655 0.0
H1738 H 0.60362 0.55361 0.27026 0.0
H1739 H 0.63367 0.54586 0.28915 0.0
H1740 H 0.65927 0.60876 0.28022 0.0
H1741 H 0.64539 0.57628 0.21253 0.0
H1742 H 0.6155 0.58861 0.19489 0.0
O1743 O 0.59635 0.62872 0.2607 0.0
C1744 C 0.6153 0.6729 0.2505 0.0
C1745 C 0.60455 0.61265 0.21165 0.0
C1746 C 0.6348 0.58913 0.2164 0.0
N1747 N 0.62443 0.61508 0.23635 0.0
C1748 C 0.60805 0.62207 0.22668 0.0
C1749 C 0.63782 0.59893 0.23135 0.0
C1750 C 0.61803 0.59606 0.20651 0.0
C1751 C 0.65617 0.68005 0.29389 0.0
N1752 N 0.63693 0.6852 0.28686 0.0
C1753 C 0.67309 0.6949 0.2942 0.0
C1754 C 0.6702 0.71515 0.28727 0.0
C1755 C 0.65049 0.72032 0.2802 0.0
C1756 C 0.63392 0.7051 0.28018 0.0
C1757 C 0.5849 0.71215 0.31436 0.0
C1758 C 0.57396 0.68733 0.28793 0.0
C1759 C 0.59919 0.69687 0.30814 0.0
N1760 N 0.5937 0.68482 0.29499 0.0
C1761 C 0.55924 0.7024 0.29385 0.0
C1762 C 0.56481 0.71491 0.30714 0.0
C1763 C 0.58423 0.63203 0.27299 0.0
C1764 C 0.64853 0.57686 0.28584 0.0
C1765 C 0.61504 0.58558 0.2648 0.0
C1766 C 0.61592 0.5656 0.2725 0.0
C1767 C 0.6328 0.56126 0.28309 0.0
N1768 N 0.63056 0.60078 0.26754 0.0
C1769 C 0.64714 0.59665 0.27792 0.0
Co1770 Co 0.08093 0.86865 0.03806 0.0
Co1771 Co 0.11601 0.87942 0.00716 0.0
O1772 O 0.10379 0.88581 0.02837 0.0
C1773 C 0.11264 0.8728 0.06492 0.0
O1774 O 0.1284 0.86761 0.0551 0.0
C1775 C 0.10241 0.92472 0.00607 0.0
O1776 O 0.0843 0.91785 0.01239 0.0
O1777 O 0.08682 0.87849 0.99715 0.0
O1778 O 0.06747 0.86285 0.01672 0.0
H1779 H 0.12241 0.83963 0.95476 0.0
H1780 H 0.08904 0.91215 0.05134 0.0
O1781 O 0.09331 0.87383 0.05985 0.0
H1782 H 0.0144 0.91434 0.03122 0.0
H1783 H 0.02477 0.85152 0.07996 0.0
H1784 H 0.06033 0.82683 0.03019 0.0
H1785 H 0.03572 0.88094 0.02927 0.0
H1786 H 0.05333 0.87336 0.06728 0.0
O1787 O 0.11735 0.91137 0.00259 0.0
H1788 H 0.10714 0.84739 0.98156 0.0
H1789 H 0.15102 0.89927 0.98762 0.0
H1790 H 0.03175 0.80456 0.04242 0.0
H1791 H 0.0679 0.94555 0.05407 0.0
H1792 H 0.01385 0.81684 0.06752 0.0
H1793 H 0.0303 0.94682 0.04382 0.0
O1794 O 0.09882 0.84248 0.03566 0.0
H1795 H 0.17433 0.91125 0.04174 0.0
H1796 H 0.15461 0.85079 0.0062 0.0
H1797 H 0.19058 0.85144 0.01885 0.0
H1798 H 0.20066 0.88186 0.03674 0.0
H1799 H 0.13846 0.90987 0.02895 0.0
H1800 H 0.16665 0.89221 0.96082 0.0
H1801 H 0.15238 0.86214 0.94424 0.0
O1802 O 0.11469 0.84723 0.01153 0.0
C1803 C 0.06994 0.86906 0.00226 0.0
C1804 C 0.12881 0.85273 0.9619 0.0
C1805 C 0.15362 0.88226 0.96529 0.0
N1806 N 0.12831 0.87364 0.98617 0.0
C1807 C 0.12028 0.85716 0.97709 0.0
C1808 C 0.14468 0.88622 0.98043 0.0
C1809 C 0.14561 0.86538 0.95599 0.0
C1810 C 0.07254 0.91241 0.04717 0.0
N1811 N 0.06362 0.89454 0.04024 0.0
C1812 C 0.06071 0.93143 0.04863 0.0
C1813 C 0.03964 0.93215 0.04286 0.0
C1814 C 0.03067 0.91389 0.03579 0.0
C1815 C 0.04291 0.89508 0.03462 0.0
C1816 C 0.03248 0.84599 0.06902 0.0
C1817 C 0.05252 0.83235 0.04107 0.0
C1818 C 0.04869 0.85827 0.06181 0.0
N1819 N 0.05842 0.85144 0.04796 0.0
C1820 C 0.03638 0.81965 0.04795 0.0
C1821 C 0.02632 0.82655 0.06203 0.0
C1822 C 0.1094 0.83542 0.02359 0.0
C1823 C 0.17015 0.89795 0.03393 0.0
C1824 C 0.15885 0.86405 0.01401 0.0
C1825 C 0.17926 0.86435 0.02111 0.0
C1826 C 0.18491 0.88143 0.03114 0.0
N1827 N 0.14449 0.88033 0.01678 0.0
C1828 C 0.1499 0.89712 0.02661 0.0
Co1829 Co 0.89487 0.33784 0.784 0.0
Co1830 Co 0.87609 0.37274 0.75556 0.0
O1831 O 0.8732 0.35837 0.77647 0.0
C1832 C 0.88143 0.3628 0.81356 0.0
O1833 O 0.87259 0.37804 0.80486 0.0
C1834 C 0.83218 0.35453 0.75538 0.0
O1835 O 0.84157 0.33638 0.75942 0.0
O1836 O 0.87844 0.34437 0.74459 0.0
O1837 O 0.90125 0.32816 0.76152 0.0
H1838 H 0.90897 0.3859 0.7012 0.0
H1839 H 0.85097 0.33615 0.79821 0.0
O1840 O 0.89004 0.3464 0.80697 0.0
H1841 H 0.86246 0.2649 0.7735 0.0
H1842 H 0.92524 0.28091 0.8208 0.0
H1843 H 0.939 0.32626 0.77318 0.0
H1844 H 0.89117 0.29221 0.77303 0.0
H1845 H 0.89773 0.3066 0.81125 0.0
O1846 O 0.84365 0.37134 0.75304 0.0
H1847 H 0.90574 0.36847 0.72777 0.0
H1848 H 0.85094 0.40679 0.73866 0.0
H1849 H 0.96692 0.30079 0.78232 0.0
H1850 H 0.82199 0.309 0.79945 0.0
H1851 H 0.96011 0.27784 0.80626 0.0
H1852 H 0.82753 0.27315 0.78689 0.0
O1853 O 0.91697 0.3605 0.78212 0.0
H1854 H 0.84174 0.42655 0.79277 0.0
H1855 H 0.90136 0.41363 0.75472 0.0
H1856 H 0.89848 0.44882 0.76828 0.0
H1857 H 0.86846 0.45549 0.78742 0.0
H1858 H 0.84542 0.39147 0.77913 0.0
H1859 H 0.85345 0.42454 0.71215 0.0
H1860 H 0.88269 0.41416 0.69325 0.0
O1861 O 0.90887 0.37431 0.75786 0.0
C1862 C 0.89132 0.32918 0.74815 0.0
C1863 C 0.89621 0.39062 0.70935 0.0
C1864 C 0.86503 0.41228 0.71549 0.0
N1865 N 0.8783 0.38675 0.73479 0.0
C1866 C 0.89434 0.38085 0.72443 0.0
C1867 C 0.86366 0.40215 0.73047 0.0
C1868 C 0.88144 0.40645 0.70489 0.0
C1869 C 0.85369 0.32043 0.79305 0.0
N1870 N 0.87279 0.31579 0.78563 0.0
C1871 C 0.83716 0.30517 0.79367 0.0
C1872 C 0.84027 0.28506 0.7866 0.0
C1873 C 0.85983 0.28041 0.77911 0.0
C1874 C 0.87602 0.29601 0.7788 0.0
C1875 C 0.92839 0.29081 0.81034 0.0
C1876 C 0.93588 0.31633 0.7836 0.0
C1877 C 0.91289 0.30541 0.80488 0.0
N1878 N 0.91667 0.31782 0.79159 0.0
C1879 C 0.95177 0.30194 0.78873 0.0
C1880 C 0.94794 0.28908 0.80217 0.0
C1881 C 0.92194 0.37135 0.76965 0.0
C1882 C 0.8549 0.42384 0.78445 0.0
C1883 C 0.88839 0.4163 0.76317 0.0
C1884 C 0.88677 0.43631 0.77074 0.0
C1885 C 0.86991 0.44006 0.78146 0.0
N1886 N 0.87364 0.40045 0.7662 0.0
C1887 C 0.85702 0.40403 0.77665 0.0
H1888 H 0.12807 0.60288 0.16832 0.0
H1889 H 0.10525 0.66438 0.08689 0.0
H1890 H 0.12232 0.67207 0.16502 0.0
H1891 H 0.13801 0.60309 0.0867 0.0
H1892 H 0.10975 0.6663 0.11596 0.0
H1893 H 0.13045 0.60118 0.1388 0.0
C1894 C 0.12747 0.61769 0.16144 0.0
C1895 C 0.12474 0.63762 0.16916 0.0
C1896 C 0.11619 0.65251 0.10959 0.0
C1897 C 0.12731 0.63574 0.13558 0.0
C1898 C 0.11358 0.65139 0.093 0.0
C1899 C 0.12128 0.63355 0.08443 0.0
C1900 C 0.12617 0.63544 0.11779 0.0
C1901 C 0.13197 0.61717 0.09291 0.0
C1902 C 0.12892 0.6167 0.14463 0.0
C1903 C 0.12421 0.65631 0.15965 0.0
N1904 N 0.13385 0.61834 0.10923 0.0
N1905 N 0.12523 0.65487 0.1434 0.0
H1906 H 0.58354 0.87052 0.41434 0.0
H1907 H 0.6564 0.88686 0.33619 0.0
H1908 H 0.65298 0.87395 0.41784 0.0
H1909 H 0.59506 0.85408 0.33658 0.0
H1910 H 0.6541 0.89061 0.3657 0.0
H1911 H 0.58634 0.87344 0.38529 0.0
C1912 C 0.59943 0.87202 0.40904 0.0
C1913 C 0.6181 0.87166 0.41859 0.0
C1914 C 0.64113 0.88278 0.35923 0.0
C1915 C 0.62131 0.87513 0.38514 0.0
C1916 C 0.64235 0.88078 0.34246 0.0
C1917 C 0.62591 0.87009 0.33402 0.0
C1918 C 0.62313 0.87447 0.3674 0.0
C1919 C 0.60813 0.86231 0.34265 0.0
C1920 C 0.60097 0.87366 0.39241 0.0
C1921 C 0.63818 0.87391 0.41092 0.0
N1922 N 0.6072 0.8647 0.35884 0.0
N1923 N 0.63929 0.87547 0.39458 0.0
H1924 H 0.37669 0.40333 0.66744 0.0
H1925 H 0.38061 0.33962 0.58477 0.0
H1926 H 0.37598 0.33396 0.66371 0.0
H1927 H 0.36257 0.40664 0.58671 0.0
H1928 H 0.37816 0.33768 0.61395 0.0
H1929 H 0.37084 0.40564 0.63824 0.0
C1930 C 0.37515 0.38861 0.66054 0.0
C1931 C 0.37713 0.36842 0.66803 0.0
C1932 C 0.37442 0.35279 0.60806 0.0
C1933 C 0.37048 0.37097 0.63475 0.0
C1934 C 0.37582 0.35389 0.59139 0.0
C1935 C 0.3718 0.37332 0.58337 0.0
C1936 C 0.36941 0.37139 0.61691 0.0
C1937 C 0.36565 0.39132 0.59249 0.0
C1938 C 0.37174 0.38995 0.6439 0.0
C1939 C 0.37484 0.34989 0.6585 0.0
N1940 N 0.36497 0.39003 0.60886 0.0
N1941 N 0.37185 0.35163 0.64239 0.0
H1942 H 0.8586 0.12425 0.91797 0.0
H1943 H 0.91745 0.15539 0.83699 0.0
H1944 H 0.92692 0.13728 0.91516 0.0
H1945 H 0.86137 0.11428 0.83632 0.0
H1946 H 0.9194 0.15139 0.86612 0.0
H1947 H 0.85732 0.12267 0.88841 0.0
C1948 C 0.87331 0.12666 0.91117 0.0
C1949 C 0.89286 0.13106 0.91904 0.0
C1950 C 0.90676 0.14306 0.85962 0.0
C1951 C 0.89144 0.12945 0.88544 0.0
C1952 C 0.90561 0.14539 0.843 0.0
C1953 C 0.88923 0.13513 0.83428 0.0
C1954 C 0.89115 0.13076 0.86767 0.0
C1955 C 0.87432 0.12233 0.84265 0.0
C1956 C 0.87258 0.12565 0.89435 0.0
C1957 C 0.91147 0.13391 0.90965 0.0
N1958 N 0.87544 0.12071 0.85898 0.0
N1959 N 0.91023 0.1333 0.89337 0.0
H1960 H 0.10222 0.34315 0.91275 0.0
H1961 H 0.12452 0.40145 0.8297 0.0
H1962 H 0.13608 0.40381 0.91122 0.0
H1963 H 0.11597 0.33271 0.83451 0.0
H1964 H 0.12738 0.40417 0.85916 0.0
H1965 H 0.10546 0.34033 0.88365 0.0
C1966 C 0.11052 0.35582 0.90625 0.0
C1967 C 0.1189 0.37373 0.91436 0.0
C1968 C 0.12509 0.38852 0.85367 0.0
C1969 C 0.12238 0.3708 0.88094 0.0
C1970 C 0.12336 0.38696 0.8369 0.0
C1971 C 0.11977 0.36686 0.82961 0.0
C1972 C 0.12292 0.36989 0.86313 0.0
C1973 C 0.11855 0.34859 0.83953 0.0
C1974 C 0.11241 0.35418 0.88964 0.0
C1975 C 0.12953 0.38967 0.90537 0.0
N1976 N 0.1199 0.35059 0.85573 0.0
N1977 N 0.13073 0.38799 0.88904 0.0
H1978 H 0.92117 0.87678 0.08394 0.0
H1979 H 0.84776 0.88902 0.16256 0.0
H1980 H 0.85165 0.87322 0.08188 0.0
H1981 H 0.91469 0.87008 0.16266 0.0
H1982 H 0.84909 0.89145 0.13297 0.0
H1983 H 0.91901 0.88275 0.11277 0.0
C1984 C 0.90539 0.87734 0.08952 0.0
C1985 C 0.88656 0.87413 0.08047 0.0
C1986 C 0.8635 0.88705 0.13955 0.0
C1987 C 0.88403 0.88105 0.11366 0.0
C1988 C 0.8628 0.88583 0.15638 0.0
C1989 C 0.88113 0.87926 0.16498 0.0
C1990 C 0.88276 0.88201 0.13145 0.0
C1991 C 0.90016 0.87507 0.15645 0.0
C1992 C 0.9042 0.88076 0.10603 0.0
C1993 C 0.86659 0.87536 0.08843 0.0
N1994 N 0.90046 0.87648 0.14019 0.0
N1995 N 0.86584 0.87858 0.10464 0.0
H1996 H 0.36311 0.59975 0.41357 0.0
H1997 H 0.37942 0.67289 0.33525 0.0
H1998 H 0.38643 0.6652 0.41399 0.0
H1999 H 0.37894 0.6034 0.33284 0.0
H2000 H 0.37376 0.6708 0.36413 0.0
H2001 H 0.36085 0.60147 0.38398 0.0
C2002 C 0.36733 0.61457 0.40746 0.0
C2003 C 0.37505 0.63233 0.41616 0.0
C2004 C 0.37479 0.65598 0.3573 0.0
C2005 C 0.37249 0.63442 0.38262 0.0
C2006 C 0.37802 0.65714 0.34076 0.0
C2007 C 0.37999 0.63827 0.33159 0.0
C2008 C 0.37341 0.63582 0.36484 0.0
C2009 C 0.37776 0.61836 0.33947 0.0
C2010 C 0.36621 0.61548 0.39063 0.0
C2011 C 0.38053 0.65109 0.40771 0.0
N2012 N 0.37472 0.61763 0.3557 0.0
N2013 N 0.37917 0.65162 0.39145 0.0
H2014 H 0.64049 0.17349 0.6612 0.0
H2015 H 0.64085 0.09457 0.58525 0.0
H2016 H 0.62665 0.10561 0.66599 0.0
H2017 H 0.62812 0.16278 0.58316 0.0
H2018 H 0.6446 0.09742 0.61474 0.0
H2019 H 0.6453 0.16858 0.63245 0.0
C2020 C 0.63856 0.15748 0.65624 0.0
C2021 C 0.63277 0.13998 0.66604 0.0
C2022 C 0.64129 0.11175 0.60773 0.0
C2023 C 0.63838 0.1343 0.63293 0.0
C2024 C 0.63934 0.11017 0.59097 0.0
C2025 C 0.63415 0.12848 0.58187 0.0
C2026 C 0.63843 0.13184 0.61522 0.0
C2027 C 0.63205 0.14828 0.58978 0.0
C2028 C 0.64133 0.15471 0.63978 0.0
C2029 C 0.63085 0.11958 0.65886 0.0
N2030 N 0.63419 0.14942 0.60598 0.0
N2031 N 0.63349 0.11729 0.64267 0.0
H2032 H 0.90982 0.34348 0.83371 0.0
H2033 H 0.8517 0.37326 0.91569 0.0
H2034 H 0.85434 0.38547 0.83372 0.0
H2035 H 0.91982 0.35971 0.9118 0.0
H2036 H 0.84951 0.37433 0.8861 0.0
H2037 H 0.91079 0.34523 0.86294 0.0
C2038 C 0.89779 0.35307 0.83989 0.0
C2039 C 0.88199 0.36438 0.83128 0.0
C2040 C 0.8649 0.37129 0.89183 0.0
C2041 C 0.88293 0.3663 0.86485 0.0
C2042 C 0.86615 0.37058 0.90866 0.0
C2043 C 0.88595 0.36631 0.91624 0.0
C2044 C 0.88348 0.36728 0.88264 0.0
C2045 C 0.9042 0.36305 0.90654 0.0
C2046 C 0.89842 0.35413 0.85658 0.0
C2047 C 0.86687 0.37663 0.83994 0.0
N2048 N 0.90247 0.36341 0.8903 0.0
N2049 N 0.86758 0.37714 0.85633 0.0
H2050 H 0.39151 0.10361 0.66394 0.0
H2051 H 0.37861 0.16467 0.58092 0.0
H2052 H 0.37331 0.17051 0.65959 0.0
H2053 H 0.37388 0.09548 0.58341 0.0
H2054 H 0.3767 0.16645 0.61012 0.0
H2055 H 0.38526 0.09922 0.63486 0.0
C2056 C 0.38607 0.11729 0.65694 0.0
C2057 C 0.38331 0.13755 0.66418 0.0
C2058 C 0.37575 0.15084 0.60436 0.0
C2059 C 0.37617 0.13264 0.63113 0.0
C2060 C 0.37682 0.14985 0.58768 0.0
C2061 C 0.37633 0.12992 0.57984 0.0
C2062 C 0.37471 0.13171 0.61335 0.0
C2063 C 0.3741 0.11116 0.5891 0.0
C2064 C 0.38244 0.11475 0.6404 0.0
C2065 C 0.37605 0.15467 0.65456 0.0
N2066 N 0.37372 0.11246 0.60548 0.0
N2067 N 0.37296 0.15186 0.63858 0.0
H2068 H 0.64105 0.59415 0.41398 0.0
H2069 H 0.63147 0.66849 0.33577 0.0
H2070 H 0.62163 0.66085 0.4142 0.0
H2071 H 0.62589 0.59924 0.33305 0.0
H2072 H 0.63675 0.66573 0.36463 0.0
H2073 H 0.64405 0.59577 0.3844 0.0
C2074 C 0.63787 0.6092 0.40783 0.0
C2075 C 0.63103 0.62739 0.41645 0.0
C2076 C 0.63447 0.6511 0.35773 0.0
C2077 C 0.63445 0.62935 0.38297 0.0
C2078 C 0.63144 0.65264 0.34121 0.0
C2079 C 0.62784 0.63407 0.33196 0.0
C2080 C 0.63399 0.63086 0.36519 0.0
C2081 C 0.62835 0.61398 0.33975 0.0
C2082 C 0.6394 0.61006 0.39101 0.0
C2083 C 0.62684 0.64644 0.40797 0.0
N2084 N 0.6312 0.61289 0.35599 0.0
N2085 N 0.6286 0.64691 0.39173 0.0
H2086 H 0.09113 0.86614 0.16555 0.0
H2087 H 0.15097 0.8703 0.0819 0.0
H2088 H 0.15846 0.88329 0.16342 0.0
H2089 H 0.08301 0.88356 0.08766 0.0
H2090 H 0.15532 0.87324 0.11129 0.0
H2091 H 0.08868 0.87036 0.13647 0.0
C2092 C 0.10536 0.87105 0.15892 0.0
C2093 C 0.12499 0.87446 0.16682 0.0
C2094 C 0.13956 0.87574 0.10599 0.0
C2095 C 0.12247 0.87886 0.13347 0.0
C2096 C 0.13704 0.87399 0.08927 0.0
C2097 C 0.11654 0.87634 0.0823 0.0
C2098 C 0.12139 0.87959 0.11569 0.0
C2099 C 0.09908 0.88127 0.09243 0.0
C2100 C 0.10397 0.87348 0.14233 0.0
C2101 C 0.14299 0.88073 0.1577 0.0
N2102 N 0.10188 0.88246 0.10856 0.0
N2103 N 0.1414 0.88243 0.14139 0.0
H2104 H 0.84828 0.62828 0.08194 0.0
H2105 H 0.9148 0.62524 0.1632 0.0
H2106 H 0.9174 0.6203 0.08431 0.0
H2107 H 0.84644 0.61258 0.16258 0.0
H2108 H 0.91553 0.62264 0.134 0.0
H2109 H 0.84635 0.62191 0.1111 0.0
C2110 C 0.86299 0.62503 0.08853 0.0
C2111 C 0.88306 0.62518 0.08069 0.0
C2112 C 0.90037 0.62008 0.14018 0.0
C2113 C 0.88096 0.61791 0.11389 0.0
C2114 C 0.89998 0.62155 0.15686 0.0
C2115 C 0.88055 0.61909 0.16523 0.0
C2116 C 0.88108 0.61664 0.13171 0.0
C2117 C 0.86177 0.61439 0.15649 0.0
C2118 C 0.86186 0.62132 0.10514 0.0
C2119 C 0.90158 0.62069 0.08981 0.0
N2120 N 0.86241 0.61368 0.14011 0.0
N2121 N 0.90008 0.61747 0.10589 0.0
H2122 H 0.12742 0.1068 0.82929 0.0
H2123 H 0.10622 0.16546 0.91198 0.0
H2124 H 0.12829 0.17599 0.83466 0.0
H2125 H 0.1358 0.10258 0.91123 0.0
H2126 H 0.11154 0.16826 0.88302 0.0
H2127 H 0.12822 0.1033 0.85879 0.0
C2128 C 0.12793 0.1212 0.83662 0.0
C2129 C 0.12757 0.14171 0.82948 0.0
C2130 C 0.11708 0.15392 0.88917 0.0
C2131 C 0.12832 0.13781 0.86301 0.0
C2132 C 0.114 0.15229 0.90569 0.0
C2133 C 0.12062 0.13378 0.91396 0.0
C2134 C 0.12643 0.13671 0.88073 0.0
C2135 C 0.13062 0.11718 0.90525 0.0
C2136 C 0.12848 0.11919 0.85341 0.0
C2137 C 0.1284 0.15984 0.83956 0.0
N2138 N 0.13298 0.11889 0.88899 0.0
N2139 N 0.12847 0.15745 0.85576 0.0
H2140 H 0.62096 0.33805 0.5849 0.0
H2141 H 0.6237 0.40316 0.66691 0.0
H2142 H 0.63869 0.40519 0.58608 0.0
H2143 H 0.62676 0.33379 0.6638 0.0
H2144 H 0.62934 0.40516 0.63766 0.0
H2145 H 0.62324 0.33677 0.6141 0.0
C2146 C 0.62563 0.35248 0.59136 0.0
C2147 C 0.62964 0.37175 0.58312 0.0
C2148 C 0.62899 0.38956 0.64348 0.0
C2149 C 0.63184 0.37058 0.61667 0.0
C2150 C 0.6257 0.38839 0.66014 0.0
C2151 C 0.62443 0.36827 0.66781 0.0
C2152 C 0.63085 0.37046 0.6345 0.0
C2153 C 0.62731 0.34967 0.65845 0.0
C2154 C 0.62693 0.35176 0.60804 0.0
C2155 C 0.63562 0.38999 0.59204 0.0
N2156 N 0.63016 0.35123 0.64233 0.0
N2157 N 0.63622 0.38907 0.60842 0.0
H2158 H 0.38806 0.90236 0.33207 0.0
H2159 H 0.38366 0.84213 0.41548 0.0
H2160 H 0.37037 0.8354 0.33716 0.0
H2161 H 0.37174 0.91047 0.41313 0.0
H2162 H 0.38038 0.84003 0.38632 0.0
H2163 H 0.38346 0.90684 0.36132 0.0
C2164 C 0.38305 0.8887 0.33926 0.0
C2165 C 0.37999 0.86839 0.33217 0.0
C2166 C 0.37816 0.85548 0.39214 0.0
C2167 C 0.37482 0.87339 0.3654 0.0
C2168 C 0.38004 0.85666 0.40877 0.0
C2169 C 0.37785 0.87646 0.41664 0.0
C2170 C 0.37461 0.87435 0.3832 0.0
C2171 C 0.37329 0.89487 0.40743 0.0
C2172 C 0.38036 0.89129 0.3559 0.0
C2173 C 0.37332 0.85128 0.34205 0.0
N2174 N 0.37216 0.89345 0.39108 0.0
N2175 N 0.37123 0.85413 0.35812 0.0
H2176 H 0.05112 0.60707 0.98721 0.0
H2177 H 0.94398 0.67532 0.99182 0.0
H2178 H 0.04621 0.67376 0.001 0.0
H2179 H 0.94527 0.60648 0.98548 0.0
H2180 H 0.98207 0.67695 0.98464 0.0
H2181 H 0.01394 0.6086 0.97694 0.0
C2182 C 0.04245 0.62221 0.9875 0.0
C2183 C 0.05145 0.64028 0.99505 0.0
C2184 C 0.97395 0.66151 0.98433 0.0
C2185 C 0.00924 0.64214 0.98356 0.0
C2186 C 0.95216 0.66064 0.98827 0.0
C2187 C 0.94167 0.64073 0.98934 0.0
C2188 C 0.98544 0.64226 0.98195 0.0
C2189 C 0.9529 0.62214 0.98473 0.0
C2190 C 0.02125 0.62307 0.98175 0.0
C2191 C 0.03964 0.65946 0.99537 0.0
N2192 N 0.97443 0.62325 0.98169 0.0
N2193 N 0.01905 0.65982 0.98991 0.0
H2194 H 0.64808 0.69323 0.23478 0.0
H2195 H 0.58293 0.80028 0.24718 0.0
H2196 H 0.57993 0.69721 0.24445 0.0
H2197 H 0.65151 0.79825 0.23918 0.0
H2198 H 0.57994 0.7635 0.23712 0.0
H2199 H 0.64803 0.73144 0.22735 0.0
C2200 C 0.63293 0.70192 0.2346 0.0
C2201 C 0.61402 0.69227 0.24039 0.0
C2202 C 0.59562 0.77118 0.23712 0.0
C2203 C 0.61389 0.73585 0.23233 0.0
C2204 C 0.59726 0.79221 0.24277 0.0
C2205 C 0.61746 0.80208 0.24398 0.0
C2206 C 0.61446 0.75971 0.23321 0.0
C2207 C 0.63564 0.79106 0.23831 0.0
C2208 C 0.63293 0.72378 0.23054 0.0
C2209 C 0.59487 0.70421 0.24019 0.0
N2210 N 0.6338 0.77018 0.23353 0.0
N2211 N 0.59537 0.72548 0.23654 0.0
H2212 H 0.44825 0.39727 0.48945 0.0
H2213 H 0.55379 0.32736 0.50088 0.0
H2214 H 0.44984 0.33025 0.50295 0.0
H2215 H 0.55497 0.39525 0.49012 0.0
H2216 H 0.51573 0.32623 0.49368 0.0
H2217 H 0.48657 0.39504 0.48207 0.0
C2218 C 0.4565 0.38193 0.49032 0.0
C2219 C 0.44609 0.36397 0.49699 0.0
C2220 C 0.52432 0.34134 0.49253 0.0
C2221 C 0.48967 0.36134 0.48881 0.0
C2222 C 0.54608 0.34193 0.49657 0.0
C2223 C 0.55735 0.36146 0.49621 0.0
C2224 C 0.51358 0.36055 0.48856 0.0
C2225 C 0.54674 0.37988 0.49053 0.0
C2226 C 0.47837 0.38068 0.48623 0.0
C2227 C 0.45743 0.34452 0.49804 0.0
N2228 N 0.52523 0.37911 0.48729 0.0
N2229 N 0.47866 0.3438 0.49421 0.0
H2230 H 0.92755 0.30752 0.73985 0.0
H2231 H 0.85852 0.20124 0.73679 0.0
H2232 H 0.85847 0.30659 0.73439 0.0
H2233 H 0.92642 0.2051 0.74729 0.0
H2234 H 0.8597 0.23831 0.72644 0.0
H2235 H 0.92886 0.26958 0.73237 0.0
C2236 C 0.91273 0.29946 0.73644 0.0
C2237 C 0.89287 0.31002 0.73785 0.0
C2238 C 0.87449 0.23079 0.73049 0.0
C2239 C 0.89405 0.26638 0.73011 0.0
C2240 C 0.87384 0.20961 0.73625 0.0
C2241 C 0.8924 0.20034 0.7429 0.0
C2242 C 0.89385 0.24255 0.73147 0.0
C2243 C 0.91178 0.21184 0.74228 0.0
C2244 C 0.91342 0.27774 0.73232 0.0
C2245 C 0.8741 0.29893 0.73341 0.0
N2246 N 0.91195 0.23245 0.73689 0.0
N2247 N 0.87506 0.27746 0.73018 0.0
H2248 H 0.94671 0.32831 0.00792 0.0
H2249 H 0.04929 0.40284 0.01048 0.0
H2250 H 0.94388 0.39741 0.01199 0.0
H2251 H 0.04911 0.33457 0.00135 0.0
H2252 H 0.01208 0.40011 0.02052 0.0
H2253 H 0.98457 0.32929 0.0158 0.0
C2254 C 0.95392 0.34363 0.01111 0.0
C2255 C 0.94235 0.36282 0.0092 0.0
C2256 C 0.02044 0.38561 0.01684 0.0
C2257 C 0.98589 0.36425 0.01737 0.0
C2258 C 0.04167 0.38717 0.01123 0.0
C2259 C 0.05201 0.3689 0.00505 0.0
C2260 C 0.00971 0.36566 0.01618 0.0
C2261 C 0.04151 0.34901 0.00597 0.0
C2262 C 0.97559 0.34424 0.01546 0.0
C2263 C 0.95235 0.38228 0.01337 0.0
N2264 N 0.02083 0.34795 0.0112 0.0
N2265 N 0.97381 0.38258 0.01681 0.0
H2266 H 0.92799 0.80287 0.24603 0.0
H2267 H 0.86071 0.69598 0.25927 0.0
H2268 H 0.86034 0.8026 0.2579 0.0
H2269 H 0.92685 0.69906 0.24346 0.0
H2270 H 0.86252 0.7343 0.26653 0.0
H2271 H 0.93016 0.7649 0.2532 0.0
C2272 C 0.91371 0.79486 0.25058 0.0
C2273 C 0.89393 0.80569 0.25125 0.0
C2274 C 0.87679 0.72643 0.26188 0.0
C2275 C 0.89601 0.76202 0.25889 0.0
C2276 C 0.8758 0.70456 0.25786 0.0
C2277 C 0.89358 0.69455 0.25059 0.0
C2278 C 0.89573 0.73814 0.25865 0.0
C2279 C 0.9127 0.70632 0.24884 0.0
C2280 C 0.91489 0.77315 0.2546 0.0
C2281 C 0.87588 0.7947 0.25724 0.0
N2282 N 0.91318 0.72754 0.25264 0.0
N2283 N 0.87721 0.77325 0.26047 0.0
H2284 H 0.44824 0.60914 0.5113 0.0
H2285 H 0.55593 0.6748 0.49851 0.0
H2286 H 0.45216 0.67586 0.49728 0.0
H2287 H 0.55468 0.60711 0.50988 0.0
H2288 H 0.51817 0.67762 0.50635 0.0
H2289 H 0.48657 0.61016 0.51876 0.0
C2290 C 0.45699 0.62419 0.51037 0.0
C2291 C 0.44725 0.64238 0.5035 0.0
C2292 C 0.52617 0.6622 0.50751 0.0
C2293 C 0.49085 0.64363 0.51175 0.0
C2294 C 0.54776 0.66065 0.50312 0.0
C2295 C 0.55822 0.64068 0.50346 0.0
C2296 C 0.51477 0.64349 0.5118 0.0
C2297 C 0.54705 0.6228 0.50949 0.0
C2298 C 0.47887 0.62474 0.5145 0.0
C2299 C 0.45923 0.66143 0.50236 0.0
N2300 N 0.52569 0.62448 0.51306 0.0
N2301 N 0.48046 0.66147 0.50621 0.0
H2302 H 0.64964 0.20385 0.7643 0.0
H2303 H 0.57523 0.30513 0.75479 0.0
H2304 H 0.5819 0.20219 0.75302 0.0
H2305 H 0.64309 0.30884 0.76558 0.0
H2306 H 0.57518 0.2675 0.76315 0.0
H2307 H 0.64558 0.24117 0.77351 0.0
C2308 C 0.63372 0.21103 0.76453 0.0
C2309 C 0.61605 0.2001 0.75794 0.0
C2310 C 0.59002 0.27661 0.76413 0.0
C2311 C 0.61136 0.24275 0.76791 0.0
C2312 C 0.58997 0.29816 0.75947 0.0
C2313 C 0.60923 0.30995 0.75936 0.0
C2314 C 0.6096 0.26661 0.76824 0.0
C2315 C 0.62791 0.30022 0.76549 0.0
C2316 C 0.63143 0.23241 0.7696 0.0
C2317 C 0.59587 0.21018 0.75807 0.0
N2318 N 0.62779 0.27889 0.76926 0.0
N2319 N 0.59413 0.23106 0.76269 0.0
H2320 H 0.36214 0.30854 0.76582 0.0
H2321 H 0.43005 0.20355 0.75127 0.0
H2322 H 0.42986 0.30679 0.75425 0.0
H2323 H 0.36185 0.20338 0.76103 0.0
H2324 H 0.43232 0.24037 0.76137 0.0
H2325 H 0.36374 0.27027 0.77294 0.0
C2326 C 0.37756 0.30034 0.7655 0.0
C2327 C 0.39586 0.31068 0.75928 0.0
C2328 C 0.41692 0.23217 0.76178 0.0
C2329 C 0.39774 0.26696 0.76702 0.0
C2330 C 0.4157 0.21108 0.75615 0.0
C2331 C 0.39577 0.20057 0.7554 0.0
C2332 C 0.39791 0.24306 0.76615 0.0
C2333 C 0.37754 0.21101 0.76158 0.0
C2334 C 0.37843 0.27843 0.76939 0.0
C2335 C 0.41536 0.29929 0.75887 0.0
N2336 N 0.37893 0.23195 0.76634 0.0
N2337 N 0.41569 0.27796 0.76237 0.0
H2338 H 0.14702 0.69515 0.26613 0.0
H2339 H 0.08078 0.79993 0.24968 0.0
H2340 H 0.07834 0.69703 0.25839 0.0
H2341 H 0.14814 0.80082 0.26237 0.0
H2342 H 0.07803 0.76327 0.2599 0.0
H2343 H 0.14646 0.73373 0.27223 0.0
C2344 C 0.13167 0.70347 0.2665 0.0
C2345 C 0.11273 0.69307 0.26156 0.0
C2346 C 0.09336 0.77153 0.26083 0.0
C2347 C 0.11201 0.73713 0.26805 0.0
C2348 C 0.09488 0.79248 0.25501 0.0
C2349 C 0.11473 0.80319 0.25509 0.0
C2350 C 0.11201 0.76093 0.26629 0.0
C2351 C 0.13255 0.79297 0.26212 0.0
C2352 C 0.13138 0.72557 0.26979 0.0
C2353 C 0.09332 0.7046 0.262 0.0
N2354 N 0.13091 0.77214 0.26709 0.0
N2355 N 0.09352 0.7261 0.26481 0.0
H2356 H 0.15189 0.20305 0.73174 0.0
H2357 H 0.07668 0.30302 0.74167 0.0
H2358 H 0.0832 0.20002 0.73891 0.0
H2359 H 0.1447 0.30786 0.73164 0.0
H2360 H 0.07713 0.26584 0.7323 0.0
H2361 H 0.14829 0.2407 0.72329 0.0
C2362 C 0.13593 0.21001 0.73069 0.0
C2363 C 0.11779 0.19858 0.73598 0.0
C2364 C 0.09191 0.27511 0.73171 0.0
C2365 C 0.11357 0.24166 0.72698 0.0
C2366 C 0.09159 0.2964 0.73699 0.0
C2367 C 0.11072 0.30837 0.73757 0.0
C2368 C 0.11164 0.26551 0.72747 0.0
C2369 C 0.12961 0.2991 0.73139 0.0
C2370 C 0.13387 0.23159 0.72608 0.0
C2371 C 0.09753 0.2084 0.73485 0.0
N2372 N 0.12974 0.27798 0.727 0.0
N2373 N 0.096 0.2295 0.73078 0.0
H2374 H 0.4312 0.6951 0.24211 0.0
H2375 H 0.35914 0.79906 0.23493 0.0
H2376 H 0.36271 0.69361 0.23346 0.0
H2377 H 0.42621 0.79757 0.24837 0.0
H2378 H 0.36227 0.76183 0.22515 0.0
H2379 H 0.43185 0.73296 0.23436 0.0
C2380 C 0.41643 0.70259 0.23793 0.0
C2381 C 0.39685 0.69138 0.23856 0.0
C2382 C 0.37648 0.7699 0.22973 0.0
C2383 C 0.3972 0.73496 0.2305 0.0
C2384 C 0.37472 0.79116 0.23519 0.0
C2385 C 0.39243 0.80116 0.24251 0.0
C2386 C 0.3961 0.75879 0.23166 0.0
C2387 C 0.41218 0.79025 0.24286 0.0
C2388 C 0.41673 0.72428 0.23367 0.0
C2389 C 0.37814 0.70177 0.23313 0.0
N2390 N 0.41341 0.76957 0.23774 0.0
N2391 N 0.37863 0.72323 0.22978 0.0
H2392 H 0.45077 0.17892 0.49866 0.0
H2393 H 0.55631 0.10882 0.48707 0.0
H2394 H 0.44963 0.11149 0.48636 0.0
H2395 H 0.55444 0.17453 0.50376 0.0
H2396 H 0.5183 0.11192 0.47898 0.0
H2397 H 0.48909 0.1801 0.49225 0.0
C2398 C 0.45855 0.16449 0.49416 0.0
C2399 C 0.4472 0.14504 0.49318 0.0
C2400 C 0.52639 0.12582 0.48403 0.0
C2401 C 0.49122 0.14599 0.48643 0.0
C2402 C 0.54808 0.12409 0.48854 0.0
C2403 C 0.55829 0.14136 0.49627 0.0
C2404 C 0.51509 0.14499 0.48724 0.0
C2405 C 0.54698 0.16074 0.49804 0.0
C2406 C 0.48045 0.16511 0.49058 0.0
C2407 C 0.45791 0.1268 0.48726 0.0
N2408 N 0.52594 0.16194 0.49375 0.0
N2409 N 0.47953 0.12757 0.48447 0.0
H2410 H 0.94128 0.89259 0.98184 0.0
H2411 H 0.05085 0.83138 0.99473 0.0
H2412 H 0.94766 0.82503 0.9927 0.0
H2413 H 0.04623 0.89977 0.98689 0.0
H2414 H 0.01411 0.82707 0.98472 0.0
H2415 H 0.97952 0.89368 0.97447 0.0
C2416 C 0.95049 0.87776 0.98194 0.0
C2417 C 0.94147 0.85874 0.98807 0.0
C2418 C 0.02123 0.843 0.98472 0.0
C2419 C 0.98515 0.85993 0.98003 0.0
C2420 C 0.04226 0.8454 0.99033 0.0
C2421 C 0.0514 0.86592 0.99158 0.0
C2422 C 0.00903 0.86138 0.98088 0.0
C2423 C 0.03966 0.88366 0.98596 0.0
C2424 C 0.97239 0.87844 0.97791 0.0
C2425 C 0.95413 0.84006 0.98817 0.0
N2426 N 0.01881 0.88106 0.9812 0.0
N2427 N 0.97542 0.84121 0.98454 0.0
H2428 H 0.45143 0.82989 0.49942 0.0
H2429 H 0.55778 0.89451 0.51501 0.0
H2430 H 0.45195 0.89722 0.51192 0.0
H2431 H 0.55468 0.82616 0.50633 0.0
H2432 H 0.51921 0.89439 0.52142 0.0
H2433 H 0.4883 0.82657 0.50922 0.0
C2434 C 0.45924 0.84386 0.50463 0.0
C2435 C 0.44887 0.86387 0.50477 0.0
C2436 C 0.52711 0.87928 0.51868 0.0
C2437 C 0.49135 0.86051 0.51545 0.0
C2438 C 0.54919 0.87932 0.5152 0.0
C2439 C 0.55924 0.86035 0.50997 0.0
C2440 C 0.51522 0.86014 0.51683 0.0
C2441 C 0.54738 0.84115 0.51016 0.0
C2442 C 0.48031 0.84202 0.5102 0.0
C2443 C 0.45953 0.88152 0.51164 0.0
N2444 N 0.52591 0.84161 0.5132 0.0
N2445 N 0.48047 0.87957 0.51635 0.0
H2446 H 0.0448 0.17455 0.99521 0.0
H2447 H 0.94184 0.17463 0.01581 0.0
H2448 H 0.0511 0.11004 0.0137 0.0
H2449 H 0.94825 0.10566 0.01373 0.0
H2450 H 0.98002 0.17751 0.0226 0.0
H2451 H 0.00915 0.17694 0.00688 0.0
C2452 C 0.0388 0.16109 0.00221 0.0
C2453 C 0.05071 0.14203 0.00342 0.0
C2454 C 0.97312 0.16167 0.02086 0.0
C2455 C 0.00962 0.1445 0.01702 0.0
C2456 C 0.95119 0.16004 0.01741 0.0
C2457 C 0.9421 0.13992 0.014 0.0
C2458 C 0.9861 0.14312 0.02007 0.0
C2459 C 0.95479 0.12148 0.01621 0.0
C2460 C 0.01841 0.1625 0.00909 0.0
C2461 C 0.04231 0.12503 0.01256 0.0
N2462 N 0.97639 0.12354 0.01856 0.0
N2463 N 0.02196 0.12644 0.01867 0.0
H2464 H 0.12209 0.44536 0.01595 0.0
H2465 H 0.12102 0.56427 0.98209 0.0
H2466 H 0.09342 0.45817 0.96967 0.0
H2467 H 0.09464 0.55121 0.02908 0.0
H2468 H 0.1231 0.52514 0.97711 0.0
H2469 H 0.12424 0.4845 0.02081 0.0
C2470 C 0.11654 0.45642 0.00676 0.0
C2471 C 0.10744 0.44864 0.99245 0.0
C2472 C 0.11708 0.53096 0.98854 0.0
C2473 C 0.11043 0.49301 0.99771 0.0
C2474 C 0.11597 0.55316 0.9914 0.0
C2475 C 0.10752 0.56086 0.00596 0.0
C2476 C 0.11043 0.51651 0.00056 0.0
C2477 C 0.10108 0.54585 0.01765 0.0
C2478 C 0.11771 0.47863 0.00955 0.0
C2479 C 0.10038 0.46359 0.98091 0.0
N2480 N 0.10282 0.52436 0.01476 0.0
N2481 N 0.10217 0.4851 0.98373 0.0
H2482 H 0.8126 0.8723 0.26584 0.0
H2483 H 0.694 0.87181 0.23136 0.0
H2484 H 0.8008 0.84652 0.21847 0.0
H2485 H 0.70702 0.84338 0.27769 0.0
H2486 H 0.7332 0.8742 0.22649 0.0
H2487 H 0.77336 0.87338 0.27053 0.0
C2488 C 0.80174 0.86712 0.25639 0.0
C2489 C 0.80984 0.85917 0.2418 0.0
C2490 C 0.72734 0.86762 0.23775 0.0
C2491 C 0.76533 0.86096 0.24691 0.0
C2492 C 0.70511 0.86633 0.24055 0.0
C2493 C 0.69739 0.85726 0.25489 0.0
C2494 C 0.74179 0.86051 0.24962 0.0
C2495 C 0.71239 0.85031 0.26642 0.0
C2496 C 0.77948 0.86768 0.25909 0.0
C2497 C 0.79514 0.85258 0.22994 0.0
N2498 N 0.73391 0.85224 0.26361 0.0
N2499 N 0.77354 0.85378 0.23269 0.0
H2500 H 0.37935 0.44473 0.48301 0.0
H2501 H 0.37907 0.56309 0.51746 0.0
H2502 H 0.40515 0.45681 0.53033 0.0
H2503 H 0.40636 0.55066 0.47066 0.0
H2504 H 0.37765 0.52395 0.52239 0.0
H2505 H 0.37826 0.48387 0.47817 0.0
C2506 C 0.38456 0.45563 0.49242 0.0
C2507 C 0.39246 0.44761 0.50705 0.0
C2508 C 0.38379 0.5299 0.51103 0.0
C2509 C 0.3907 0.49206 0.50176 0.0
C2510 C 0.38453 0.55211 0.50818 0.0
C2511 C 0.39295 0.56002 0.49367 0.0
C2512 C 0.39083 0.51561 0.49905 0.0
C2513 C 0.39991 0.54516 0.48205 0.0
C2514 C 0.38401 0.47785 0.48962 0.0
C2515 C 0.3991 0.46239 0.51884 0.0
N2516 N 0.3985 0.52363 0.48491 0.0
N2517 N 0.39789 0.48395 0.51601 0.0
H2518 H 0.8116 0.11575 0.7511 0.0
H2519 H 0.70359 0.18622 0.74729 0.0
H2520 H 0.80798 0.18381 0.76133 0.0
H2521 H 0.70161 0.11673 0.748 0.0
H2522 H 0.74243 0.18493 0.75065 0.0
H2523 H 0.77205 0.11504 0.74819 0.0
C2524 C 0.80255 0.13052 0.75269 0.0
C2525 C 0.8132 0.14989 0.7564 0.0
C2526 C 0.7336 0.1699 0.75016 0.0
C2527 C 0.76809 0.14918 0.75308 0.0
C2528 C 0.71131 0.17061 0.74822 0.0
C2529 C 0.6992 0.15154 0.74742 0.0
C2530 C 0.74418 0.14996 0.75118 0.0
C2531 C 0.71028 0.13184 0.74866 0.0
C2532 C 0.78 0.13008 0.75109 0.0
C2533 C 0.80061 0.16849 0.75842 0.0
N2534 N 0.73219 0.13154 0.75041 0.0
N2535 N 0.77887 0.16766 0.75668 0.0
H2536 H 0.90505 0.54876 0.02617 0.0
H2537 H 0.90562 0.45155 0.96915 0.0
H2538 H 0.87516 0.55805 0.97986 0.0
H2539 H 0.87431 0.44265 0.01498 0.0
H2540 H 0.90265 0.4908 0.9726 0.0
H2541 H 0.90201 0.50955 0.02255 0.0
C2542 C 0.89781 0.5425 0.01527 0.0
C2543 C 0.8903 0.55654 0.00329 0.0
C2544 C 0.8963 0.48019 0.9818 0.0
C2545 C 0.88737 0.512 0.99895 0.0
C2546 C 0.89805 0.4579 0.9799 0.0
C2547 C 0.89014 0.44395 0.9918 0.0
C2548 C 0.88731 0.48853 0.99596 0.0
C2549 C 0.88048 0.45293 0.00551 0.0
C2550 C 0.896 0.52023 0.01327 0.0
C2551 C 0.88102 0.54769 0.98939 0.0
N2552 N 0.87971 0.47472 0.00739 0.0
N2553 N 0.88019 0.5259 0.98744 0.0
H2554 H 0.20207 0.1153 0.74805 0.0
H2555 H 0.30994 0.18573 0.7408 0.0
H2556 H 0.20511 0.18461 0.75145 0.0
H2557 H 0.31215 0.11658 0.74596 0.0
H2558 H 0.27102 0.18458 0.74315 0.0
H2559 H 0.24171 0.11438 0.74574 0.0
C2560 C 0.211 0.13028 0.74823 0.0
C2561 C 0.20018 0.15006 0.74989 0.0
C2562 C 0.2799 0.16959 0.74385 0.0
C2563 C 0.24537 0.14911 0.74729 0.0
C2564 C 0.30225 0.17023 0.7425 0.0
C2565 C 0.31446 0.15122 0.74324 0.0
C2566 C 0.26934 0.14977 0.74589 0.0
C2567 C 0.3034 0.13165 0.74542 0.0
C2568 C 0.2336 0.12973 0.74698 0.0
C2569 C 0.21261 0.16896 0.75016 0.0
N2570 N 0.28141 0.1314 0.74661 0.0
N2571 N 0.23439 0.16798 0.74885 0.0
H2572 H 0.59772 0.45287 0.53055 0.0
H2573 H 0.59786 0.54868 0.47033 0.0
H2574 H 0.62439 0.44277 0.48323 0.0
H2575 H 0.62455 0.55896 0.5176 0.0
H2576 H 0.6 0.50958 0.47474 0.0
H2577 H 0.60001 0.492 0.52625 0.0
C2578 C 0.60406 0.45892 0.51927 0.0
C2579 C 0.6109 0.44465 0.50721 0.0
C2580 C 0.60547 0.52045 0.48408 0.0
C2581 C 0.61301 0.48912 0.50214 0.0
C2582 C 0.60417 0.54267 0.48163 0.0
C2583 C 0.61106 0.55698 0.49363 0.0
C2584 C 0.61301 0.51253 0.49884 0.0
C2585 C 0.61918 0.54841 0.50804 0.0
C2586 C 0.60545 0.48116 0.51688 0.0
C2587 C 0.61905 0.45328 0.49283 0.0
N2588 N 0.61959 0.52669 0.51037 0.0
N2589 N 0.61954 0.475 0.49057 0.0
H2590 H 0.19587 0.87114 0.26666 0.0
H2591 H 0.31308 0.86945 0.22942 0.0
H2592 H 0.20594 0.84285 0.21988 0.0
H2593 H 0.30193 0.84322 0.27671 0.0
H2594 H 0.27367 0.8718 0.22543 0.0
H2595 H 0.23527 0.87301 0.27032 0.0
C2596 C 0.20638 0.86557 0.25711 0.0
C2597 C 0.19777 0.85666 0.24301 0.0
C2598 C 0.27999 0.86574 0.23671 0.0
C2599 C 0.24242 0.85937 0.24691 0.0
C2600 C 0.30233 0.86448 0.239 0.0
C2601 C 0.3106 0.85599 0.25336 0.0
C2602 C 0.26605 0.85919 0.24909 0.0
C2603 C 0.29609 0.84967 0.26543 0.0
C2604 C 0.22874 0.8666 0.25922 0.0
C2605 C 0.21202 0.84962 0.23099 0.0
N2606 N 0.27448 0.85155 0.26308 0.0
N2607 N 0.23371 0.85127 0.23315 0.0
H2608 H 0.62324 0.05862 0.48152 0.0
H2609 H 0.62784 0.94207 0.51853 0.0
H2610 H 0.59987 0.04874 0.52983 0.0
H2611 H 0.5935 0.95204 0.47404 0.0
H2612 H 0.62971 0.98148 0.52218 0.0
H2613 H 0.62441 0.01923 0.47777 0.0
C2614 C 0.6186 0.04815 0.49136 0.0
C2615 C 0.61131 0.05683 0.50596 0.0
C2616 C 0.62195 0.97491 0.51159 0.0
C2617 C 0.61326 0.01218 0.50191 0.0
C2618 C 0.62094 0.95256 0.50947 0.0
C2619 C 0.61039 0.94391 0.49602 0.0
C2620 C 0.61305 0.98855 0.49987 0.0
C2621 C 0.60162 0.95814 0.48463 0.0
C2622 C 0.61922 0.02581 0.4892 0.0
C2623 C 0.60541 0.04262 0.51835 0.0
N2624 N 0.60332 0.9798 0.48673 0.0
N2625 N 0.60669 0.02095 0.51611 0.0
H2626 H 0.19694 0.38935 0.75026 0.0
H2627 H 0.3059 0.32024 0.74572 0.0
H2628 H 0.20011 0.32039 0.75638 0.0
H2629 H 0.30623 0.38963 0.74879 0.0
H2630 H 0.26681 0.32052 0.74817 0.0
H2631 H 0.23648 0.39032 0.74824 0.0
C2632 C 0.2059 0.37443 0.75114 0.0
C2633 C 0.19512 0.35475 0.75346 0.0
C2634 C 0.27536 0.33573 0.74837 0.0
C2635 C 0.24033 0.35576 0.75114 0.0
C2636 C 0.29777 0.33559 0.74696 0.0
C2637 C 0.30947 0.35495 0.74709 0.0
C2638 C 0.26432 0.35538 0.74981 0.0
C2639 C 0.2979 0.37431 0.7487 0.0
C2640 C 0.22847 0.37501 0.75004 0.0
C2641 C 0.20762 0.33595 0.75458 0.0
N2642 N 0.27595 0.37405 0.74994 0.0
N2643 N 0.22946 0.33693 0.75337 0.0
H2644 H 0.86015 0.94474 -0.0002 0.0
H2645 H 0.93181 0.05205 0.99449 0.0
H2646 H 0.92957 0.94665 0.00349 0.0
H2647 H 0.86238 0.05414 0.998 0.0
H2648 H 0.93051 0.01304 0.99629 0.0
H2649 H 0.85985 0.98429 0.99763 0.0
C2650 C 0.8753 0.95342 8e-05 0.0
C2651 C 0.89491 0.9423 0.0018 0.0
C2652 C 0.9155 0.02194 0.99671 0.0
C2653 C 0.89467 0.98744 -0.00065 0.0
C2654 C 0.91623 0.04432 0.99568 0.0
C2655 C 0.89717 0.0565 0.99616 0.0
C2656 C 0.89556 0.01139 0.99816 0.0
C2657 C 0.87748 0.04542 0.99766 0.0
C2658 C 0.8751 0.97598 0.9989 0.0
C2659 C 0.91403 0.95442 0.00218 0.0
N2660 N 0.87717 0.02346 0.99858 0.0
N2661 N 0.9134 0.9762 0.00094 0.0
H2662 H 0.308 0.68156 0.25378 0.0
H2663 H 0.1993 0.61194 0.24966 0.0
H2664 H 0.30871 0.61212 0.25135 0.0
H2665 H 0.20233 0.68101 0.24423 0.0
H2666 H 0.23887 0.61104 0.25165 0.0
H2667 H 0.26894 0.68103 0.2516 0.0
C2668 C 0.29996 0.66614 0.25274 0.0
C2669 C 0.31176 0.64684 0.2527 0.0
C2670 C 0.23081 0.62635 0.25002 0.0
C2671 C 0.2666 0.64612 0.25029 0.0
C2672 C 0.20824 0.6269 0.24894 0.0
C2673 C 0.19742 0.64659 0.24681 0.0
C2674 C 0.24262 0.64565 0.24907 0.0
C2675 C 0.20987 0.66544 0.24588 0.0
C2676 C 0.27755 0.66586 0.25149 0.0
C2677 C 0.30029 0.62739 0.25136 0.0
N2678 N 0.23169 0.66449 0.24704 0.0
N2679 N 0.27832 0.62751 0.25025 0.0
H2680 H 0.40916 0.05323 0.52732 0.0
H2681 H 0.41037 0.95501 0.46961 0.0
H2682 H 0.38215 0.06121 0.47988 0.0
H2683 H 0.3827 0.94656 0.51678 0.0
H2684 H 0.40786 0.99427 0.47303 0.0
H2685 H 0.40728 0.01393 0.5239 0.0
C2686 C 0.40285 0.04667 0.51619 0.0
C2687 C 0.3958 0.06037 0.50384 0.0
C2688 C 0.40226 0.98376 0.48257 0.0
C2689 C 0.39413 0.01574 0.49978 0.0
C2690 C 0.40379 0.96146 0.48068 0.0
C2691 C 0.39673 0.94764 0.49295 0.0
C2692 C 0.39434 0.99223 0.49703 0.0
C2693 C 0.38823 0.95674 0.50704 0.0
C2694 C 0.40169 0.02435 0.51431 0.0
C2695 C 0.38767 0.05113 0.48969 0.0
N2696 N 0.38761 0.97854 0.50883 0.0
N2697 N 0.3874 0.02932 0.4879 0.0
H2698 H 0.70557 0.65772 0.27635 0.0
H2699 H 0.80194 0.6514 0.21746 0.0
H2700 H 0.69571 0.62418 0.23154 0.0
H2701 H 0.81186 0.62886 0.26596 0.0
H2702 H 0.76273 0.64903 0.22164 0.0
H2703 H 0.74477 0.65486 0.27241 0.0
C2704 C 0.7117 0.64973 0.2657 0.0
C2705 C 0.69749 0.64114 0.25425 0.0
C2706 C 0.77355 0.64449 0.23129 0.0
C2707 C 0.74204 0.63838 0.24952 0.0
C2708 C 0.79583 0.64593 0.22897 0.0
C2709 C 0.81006 0.6403 0.2414 0.0
C2710 C 0.76551 0.63812 0.24632 0.0
C2711 C 0.80137 0.63325 0.25608 0.0
C2712 C 0.73397 0.64803 0.26352 0.0
C2713 C 0.7062 0.6309 0.24067 0.0
N2714 N 0.77959 0.63273 0.25825 0.0
N2715 N 0.72798 0.63015 0.23851 0.0
H2716 H 0.09286 0.95639 0.02736 0.0
H2717 H 0.09142 0.05214 0.96786 0.0
H2718 H 0.11872 0.94604 0.97985 0.0
H2719 H 0.11945 0.06234 0.01471 0.0
H2720 H 0.09461 0.01305 0.97187 0.0
H2721 H 0.09585 0.99546 0.02322 0.0
C2722 C 0.09924 0.9624 0.01609 0.0
C2723 C 0.10558 0.94809 0.00391 0.0
C2724 C 0.1002 0.0239 0.98118 0.0
C2725 C 0.10846 0.99252 0.999 0.0
C2726 C 0.09827 0.04612 0.97897 0.0
C2727 C 0.10516 0.06039 0.991 0.0
C2728 C 0.10836 0.01594 0.99574 0.0
C2729 C 0.11402 0.05181 0.00515 0.0
C2730 C 0.10103 0.9846 0.01379 0.0
C2731 C 0.11378 0.95661 0.98953 0.0
N2732 N 0.115 0.03007 0.00728 0.0
N2733 N 0.11461 0.97835 0.98733 0.0
H2734 H 0.80416 0.32072 0.75676 0.0
H2735 H 0.69629 0.39099 0.74845 0.0
H2736 H 0.80565 0.38972 0.75048 0.0
H2737 H 0.69871 0.32171 0.74462 0.0
H2738 H 0.73579 0.39155 0.7512 0.0
H2739 H 0.76506 0.32148 0.75437 0.0
C2740 C 0.79628 0.33608 0.75486 0.0
C2741 C 0.80831 0.35518 0.75376 0.0
C2742 C 0.72762 0.37626 0.74976 0.0
C2743 C 0.76317 0.35617 0.75108 0.0
C2744 C 0.70508 0.37592 0.74825 0.0
C2745 C 0.69411 0.35627 0.74632 0.0
C2746 C 0.73923 0.35681 0.74948 0.0
C2747 C 0.70638 0.33725 0.74607 0.0
C2748 C 0.77387 0.3365 0.75347 0.0
C2749 C 0.79706 0.37458 0.75133 0.0
N2750 N 0.72817 0.33801 0.74766 0.0
N2751 N 0.77511 0.3746 0.75011 0.0
H2752 H 0.11085 0.80814 0.04922 0.0
H2753 H 0.12051 0.6998 0.99734 0.0
H2754 H 0.1193 0.80918 0.99768 0.0
H2755 H 0.11184 0.70272 0.04882 0.0
H2756 H 0.12382 0.73935 0.99685 0.0
H2757 H 0.11502 0.76929 0.04897 0.0
C2758 C 0.11373 0.8002 0.03781 0.0
C2759 C 0.11452 0.81203 0.02343 0.0
C2760 C 0.12141 0.73123 0.00824 0.0
C2761 C 0.11912 0.76703 0.02302 0.0
C2762 C 0.1196 0.70866 0.00854 0.0
C2763 C 0.11566 0.69787 0.02312 0.0
C2764 C 0.11937 0.743 0.02264 0.0
C2765 C 0.11458 0.71024 0.03725 0.0
C2766 C 0.11612 0.77791 0.03767 0.0
C2767 C 0.11855 0.80073 0.00906 0.0
N2768 N 0.1163 0.732 0.03662 0.0
N2769 N 0.12045 0.77882 0.00918 0.0
H2770 H 0.55864 0.8717 0.24764 0.0
H2771 H 0.45032 0.86065 0.29959 0.0
H2772 H 0.55595 0.86048 0.29886 0.0
H2773 H 0.44927 0.87023 0.24816 0.0
H2774 H 0.48924 0.86466 0.29935 0.0
H2775 H 0.51907 0.87516 0.24737 0.0
C2776 C 0.54981 0.87025 0.25884 0.0
C2777 C 0.56068 0.86556 0.27327 0.0
C2778 C 0.4806 0.86604 0.28808 0.0
C2779 C 0.51552 0.86946 0.27303 0.0
C2780 C 0.45826 0.86374 0.28821 0.0
C2781 C 0.44642 0.86488 0.27385 0.0
C2782 C 0.49148 0.86932 0.27346 0.0
C2783 C 0.45773 0.86918 0.25952 0.0
C2784 C 0.52723 0.87215 0.25866 0.0
C2785 C 0.54837 0.86382 0.2874 0.0
N2786 N 0.47967 0.871 0.25965 0.0
N2787 N 0.52658 0.86565 0.28688 0.0
H2788 H 0.36307 0.19938 0.54089 0.0
H2789 H 0.37989 0.30925 0.4921 0.0
H2790 H 0.3821 0.20026 0.491 0.0
H2791 H 0.36681 0.30448 0.54296 0.0
H2792 H 0.37494 0.27001 0.48976 0.0
H2793 H 0.35802 0.23818 0.54002 0.0
C2794 C 0.3659 0.20776 0.52965 0.0
C2795 C 0.37321 0.19658 0.51604 0.0
C2796 C 0.37287 0.27766 0.50137 0.0
C2797 C 0.36789 0.2414 0.51502 0.0
C2798 C 0.37557 0.30005 0.50269 0.0
C2799 C 0.37397 0.31014 0.51778 0.0
C2800 C 0.36834 0.26541 0.51521 0.0
C2801 C 0.36847 0.29741 0.53111 0.0
C2802 C 0.36308 0.22999 0.52916 0.0
C2803 C 0.37643 0.20828 0.50176 0.0
N2804 N 0.366 0.27581 0.52952 0.0
N2805 N 0.37408 0.23015 0.50168 0.0
H2806 H 0.95161 0.12948 0.74731 0.0
H2807 H 0.06124 0.14417 0.79726 0.0
H2808 H 0.95571 0.14399 0.798 0.0
H2809 H 0.0613 0.13046 0.74636 0.0
H2810 H 0.02233 0.14003 0.79766 0.0
H2811 H 0.9912 0.12582 0.74658 0.0
C2812 C 0.96074 0.13159 0.75831 0.0
C2813 C 0.95026 0.13728 0.7727 0.0
C2814 C 0.03073 0.13776 0.78637 0.0
C2815 C 0.99545 0.13317 0.77194 0.0
C2816 C 0.05307 0.14011 0.78614 0.0
C2817 C 0.06464 0.13786 0.77172 0.0
C2818 C 0.01955 0.13331 0.77205 0.0
C2819 C 0.05305 0.13236 0.75776 0.0
C2820 C 0.98334 0.12959 0.75787 0.0
C2821 C 0.96298 0.13987 0.78656 0.0
N2822 N 0.0311 0.13052 0.75822 0.0
N2823 N 0.98474 0.13791 0.78579 0.0
H2824 H 0.11759 0.20148 0.94989 0.0
H2825 H 0.11933 0.30951 0.00263 0.0
H2826 H 0.1172 0.19995 0.00179 0.0
H2827 H 0.11401 0.30656 0.95091 0.0
H2828 H 0.12353 0.27002 0.00321 0.0
H2829 H 0.12168 0.2403 0.9507 0.0
C2830 C 0.11853 0.20933 0.96151 0.0
C2831 C 0.11679 0.1974 0.97579 0.0
C2832 C 0.12166 0.27812 0.99176 0.0
C2833 C 0.12121 0.24236 0.97684 0.0
C2834 C 0.11936 0.30064 0.99141 0.0
C2835 C 0.11609 0.31137 0.97671 0.0
C2836 C 0.12089 0.26638 0.97729 0.0
C2837 C 0.1162 0.29905 0.96256 0.0
C2838 C 0.12085 0.2316 0.96198 0.0
C2839 C 0.11843 0.20852 0.99048 0.0
N2840 N 0.11844 0.27735 0.96323 0.0
N2841 N 0.12027 0.23046 0.99064 0.0
H2842 H 0.95125 0.8858 0.20394 0.0
H2843 H 0.05869 0.87011 0.25612 0.0
H2844 H 0.94938 0.87018 0.25449 0.0
H2845 H 0.05621 0.87729 0.20452 0.0
H2846 H 0.01942 0.87618 0.25722 0.0
H2847 H 0.9902 0.88943 0.20554 0.0
C2848 C 0.95905 0.88339 0.21546 0.0
C2849 C 0.94704 0.87743 0.22906 0.0
C2850 C 0.02759 0.87668 0.24571 0.0
C2851 C 0.99201 0.88119 0.23095 0.0
C2852 C 0.04998 0.87333 0.24508 0.0
C2853 C 0.0607 0.87296 0.23019 0.0
C2854 C 0.01601 0.87993 0.23135 0.0
C2855 C 0.04862 0.87714 0.21626 0.0
C2856 C 0.98136 0.88541 0.21637 0.0
C2857 C 0.95804 0.87476 0.24371 0.0
N2858 N 0.02702 0.88032 0.21719 0.0
N2859 N 0.98 0.87634 0.24423 0.0
H2860 H 0.38112 0.6991 0.50596 0.0
H2861 H 0.37279 0.80735 0.45411 0.0
H2862 H 0.37176 0.70214 0.45458 0.0
H2863 H 0.38307 0.80826 0.50542 0.0
H2864 H 0.36736 0.76866 0.45527 0.0
H2865 H 0.37712 0.73855 0.50723 0.0
C2866 C 0.37782 0.70798 0.49502 0.0
C2867 C 0.37701 0.69731 0.48011 0.0
C2868 C 0.3706 0.77721 0.46636 0.0
C2869 C 0.37252 0.74229 0.48147 0.0
C2870 C 0.37369 0.79939 0.46569 0.0
C2871 C 0.37861 0.81106 0.47966 0.0
C2872 C 0.37274 0.76631 0.48109 0.0
C2873 C 0.37932 0.79986 0.49436 0.0
C2874 C 0.37565 0.73049 0.49574 0.0
C2875 C 0.3728 0.70964 0.46631 0.0
N2876 N 0.37675 0.77802 0.49467 0.0
N2877 N 0.37088 0.73135 0.46732 0.0
H2878 H 0.45197 0.12799 0.74664 0.0
H2879 H 0.5611 0.14823 0.69709 0.0
H2880 H 0.45513 0.14923 0.69724 0.0
H2881 H 0.56134 0.1291 0.74702 0.0
H2882 H 0.5221 0.14473 0.69666 0.0
H2883 H 0.49151 0.12453 0.74676 0.0
C2884 C 0.46088 0.13165 0.73577 0.0
C2885 C 0.4501 0.13908 0.72195 0.0
C2886 C 0.53059 0.14113 0.70773 0.0
C2887 C 0.49535 0.13521 0.72204 0.0
C2888 C 0.55298 0.14311 0.70798 0.0
C2889 C 0.56466 0.13913 0.72215 0.0
C2890 C 0.51946 0.13526 0.72178 0.0
C2891 C 0.55306 0.13236 0.73581 0.0
C2892 C 0.48347 0.12976 0.73588 0.0
C2893 C 0.4626 0.14364 0.70825 0.0
N2894 N 0.53108 0.13085 0.73534 0.0
N2895 N 0.48441 0.14174 0.70869 0.0
H2896 H 0.87526 0.30483 0.00403 0.0
H2897 H 0.87877 0.19595 0.95259 0.0
H2898 H 0.87812 0.30131 0.95224 0.0
H2899 H 0.87641 0.19569 0.00445 0.0
H2900 H 0.87338 0.23471 0.95273 0.0
H2901 H 0.87079 0.26542 0.00497 0.0
C2902 C 0.87454 0.29586 0.99287 0.0
C2903 C 0.8773 0.3064 0.97804 0.0
C2904 C 0.8738 0.22628 0.96413 0.0
C2905 C 0.8723 0.26142 0.97903 0.0
C2906 C 0.87684 0.20406 0.96405 0.0
C2907 C 0.87822 0.19254 0.97853 0.0
C2908 C 0.87242 0.23737 0.97883 0.0
C2909 C 0.87542 0.20394 0.993 0.0
C2910 C 0.87211 0.27336 0.99342 0.0
C2911 C 0.87634 0.29393 0.96397 0.0
N2912 N 0.87297 0.22581 0.9928 0.0
N2913 N 0.87409 0.27222 0.96483 0.0
H2914 H 0.63003 0.80403 0.4534 0.0
H2915 H 0.62647 0.6956 0.50531 0.0
H2916 H 0.62607 0.80462 0.50521 0.0
H2917 H 0.63192 0.69862 0.4536 0.0
H2918 H 0.63065 0.73502 0.5064 0.0
H2919 H 0.63527 0.76526 0.45406 0.0
C2920 C 0.63051 0.796 0.46497 0.0
C2921 C 0.62742 0.80761 0.47926 0.0
C2922 C 0.63122 0.72696 0.49485 0.0
C2923 C 0.63308 0.76279 0.48014 0.0
C2924 C 0.62894 0.70446 0.49423 0.0
C2925 C 0.6286 0.69378 0.47932 0.0
C2926 C 0.63326 0.73876 0.48047 0.0
C2927 C 0.63178 0.70611 0.46536 0.0
C2928 C 0.63348 0.77377 0.46535 0.0
C2929 C 0.62839 0.79629 0.4939 0.0
N2930 N 0.6338 0.72783 0.46628 0.0
N2931 N 0.63082 0.77444 0.49396 0.0
H2932 H 0.87192 0.69499 0.99543 0.0
H2933 H 0.87677 0.80314 0.04777 0.0
H2934 H 0.87784 0.6975 0.04713 0.0
H2935 H 0.87255 0.80394 0.99596 0.0
H2936 H 0.87218 0.76427 0.04745 0.0
H2937 H 0.86739 0.73436 0.99507 0.0
C2938 C 0.87191 0.70372 0.00671 0.0
C2939 C 0.87548 0.69287 0.02133 0.0
C2940 C 0.87203 0.77286 0.03612 0.0
C2941 C 0.8704 0.73788 0.02097 0.0
C2942 C 0.87462 0.79515 0.03629 0.0
C2943 C 0.87524 0.80688 0.02186 0.0
C2944 C 0.87027 0.76192 0.02138 0.0
C2945 C 0.87217 0.79557 0.00738 0.0
C2946 C 0.86942 0.72621 0.00648 0.0
C2947 C 0.87538 0.70509 0.03555 0.0
N2948 N 0.87011 0.77366 0.00749 0.0
N2949 N 0.87306 0.72682 0.03499 0.0
H2950 H 0.62331 0.30565 0.49249 0.0
H2951 H 0.63983 0.19733 0.54322 0.0
H2952 H 0.63686 0.30248 0.54334 0.0
H2953 H 0.62272 0.19653 0.49293 0.0
H2954 H 0.64448 0.23612 0.54182 0.0
H2955 H 0.62831 0.26634 0.49082 0.0
C2956 C 0.62775 0.29678 0.50322 0.0
C2957 C 0.62946 0.30734 0.51812 0.0
C2958 C 0.63991 0.22757 0.53099 0.0
C2959 C 0.63512 0.26254 0.5163 0.0
C2960 C 0.6373 0.20533 0.53179 0.0
C2961 C 0.63068 0.19367 0.51822 0.0
C2962 C 0.63558 0.23852 0.51655 0.0
C2963 C 0.62784 0.20492 0.50369 0.0
C2964 C 0.63048 0.27435 0.50227 0.0
C2965 C 0.63512 0.29504 0.53164 0.0
N2966 N 0.62999 0.22681 0.50329 0.0
N2967 N 0.63758 0.2734 0.53041 0.0
H2968 H 0.94847 0.38261 0.7942 0.0
H2969 H 0.05655 0.37639 0.74179 0.0
H2970 H 0.94744 0.37578 0.74258 0.0
H2971 H 0.05388 0.37982 0.79358 0.0
H2972 H 0.01723 0.38198 0.74086 0.0
H2973 H 0.98731 0.38782 0.7932 0.0
C2974 C 0.95643 0.38252 0.78259 0.0
C2975 C 0.94469 0.37858 0.76847 0.0
C2976 C 0.02535 0.38183 0.7524 0.0
C2977 C 0.98958 0.3841 0.76723 0.0
C2978 C 0.0478 0.37878 0.75292 0.0
C2979 C 0.0585 0.37744 0.7678 0.0
C2980 C 0.01364 0.3837 0.76684 0.0
C2981 C 0.04632 0.38049 0.78185 0.0
C2982 C 0.97868 0.38544 0.78202 0.0
C2983 C 0.95587 0.37881 0.75375 0.0
N2984 N 0.02465 0.3833 0.78101 0.0
N2985 N 0.97778 0.38116 0.75352 0.0
H2986 H 0.4507 0.62696 0.29899 0.0
H2987 H 0.55892 0.62228 0.24657 0.0
H2988 H 0.44989 0.62278 0.24718 0.0
H2989 H 0.55645 0.6283 0.29826 0.0
H2990 H 0.51953 0.61753 0.24625 0.0
H2991 H 0.48961 0.62227 0.29866 0.0
C2992 C 0.45869 0.62477 0.28752 0.0
C2993 C 0.44696 0.62545 0.27309 0.0
C2994 C 0.52769 0.61963 0.25766 0.0
C2995 C 0.49195 0.62039 0.27258 0.0
C2996 C 0.55019 0.62224 0.25786 0.0
C2997 C 0.56105 0.62591 0.27246 0.0
C2998 C 0.51602 0.62059 0.27216 0.0
C2999 C 0.54884 0.62577 0.28669 0.0
C3000 C 0.48101 0.62214 0.28733 0.0
C3001 C 0.45827 0.62235 0.2586 0.0
N3002 N 0.5271 0.62333 0.28616 0.0
N3003 N 0.4802 0.62026 0.25869 0.0
H3004 H 0.44809 0.37989 0.70102 0.0
H3005 H 0.55628 0.38057 0.75356 0.0
H3006 H 0.44733 0.38018 0.75292 0.0
H3007 H 0.55378 0.37721 0.70175 0.0
H3008 H 0.51695 0.38586 0.75402 0.0
H3009 H 0.48701 0.38462 0.70152 0.0
C3010 C 0.45609 0.38124 0.71257 0.0
C3011 C 0.44438 0.37944 0.72695 0.0
C3012 C 0.5251 0.38425 0.74256 0.0
C3013 C 0.48937 0.38452 0.72764 0.0
C3014 C 0.54757 0.38135 0.74229 0.0
C3015 C 0.55837 0.37823 0.7276 0.0
C3016 C 0.51343 0.38416 0.72804 0.0
C3017 C 0.54619 0.37929 0.71337 0.0
C3018 C 0.47841 0.38389 0.71285 0.0
C3019 C 0.4557 0.38149 0.74153 0.0
N3020 N 0.52448 0.382 0.71397 0.0
N3021 N 0.47762 0.38362 0.74152 0.0
H3022 H 0.949 0.62652 0.25466 0.0
H3023 H 0.05815 0.62231 0.20358 0.0
H3024 H 0.95263 0.61834 0.20317 0.0
H3025 H 0.05821 0.62664 0.25536 0.0
H3026 H 0.01935 0.61668 0.20406 0.0
H3027 H 0.98848 0.62262 0.25611 0.0
C3028 C 0.958 0.62352 0.24372 0.0
C3029 C 0.94746 0.62301 0.22875 0.0
C3030 C 0.02776 0.61861 0.21538 0.0
C3031 C 0.99254 0.61867 0.2303 0.0
C3032 C 0.04999 0.62179 0.2151 0.0
C3033 C 0.06145 0.62509 0.22944 0.0
C3034 C 0.01661 0.61904 0.23011 0.0
C3035 C 0.05 0.62412 0.24402 0.0
C3036 C 0.98054 0.62139 0.24454 0.0
C3037 C 0.95999 0.61915 0.21497 0.0
N3038 N 0.02813 0.62151 0.24398 0.0
N3039 N 0.98174 0.61732 0.21608 0.0
loop_
_geom_bond_atom_site_label_1
_geom_bond_atom_site_label_2
_geom_bond_distance
_geom_bond_site_symmetry_2
_ccdc_geom_bond_type
Co0 O2 2.143 . S
Co0 O8 2.074 . S
Co0 O11 2.093 . S
Co0 O24 2.097 . S
Co0 N41 2.151 . S
Co0 N49 2.214 . S
Co1 O2 2.160 . S
Co1 O7 2.058 . S
Co1 O17 2.057 . S
Co1 O32 2.037 . S
Co1 N36 2.145 1_554 S
Co1 N57 2.257 . S
O2 Co0 2.143 . S
O2 Co1 2.160 . S
C3 O4 1.278 . S
C3 O11 1.224 . S
O4 C3 1.278 . S
C5 O6 1.245 . S
C5 O17 1.230 . S
O6 C5 1.245 . S
O7 Co1 2.058 . S
O7 C33 1.269 . S
O8 Co0 2.074 . S
O8 C33 1.257 . S
H9 C34 0.930 . S
H10 C40 0.930 . S
O11 Co0 2.093 . S
O11 C3 1.224 . S
H12 C44 0.929 . S
H13 C46 0.930 . S
H14 C47 0.930 . S
H15 C45 0.929 . S
H16 C48 0.928 . S
O17 Co1 2.057 . S
O17 C5 1.230 . S
H18 C37 0.929 . S
H19 C38 0.929 . S
H20 C50 0.931 . S
H21 C42 0.929 . S
H22 C51 0.930 . S
H23 C43 0.931 . S
O24 Co0 2.097 . S
O24 C52 1.214 . S
H25 C53 0.929 . S
H26 C54 0.938 . S
H27 C55 0.930 1_556 S
H28 C56 0.929 . S
H29 C58 0.930 . S
H30 C35 0.930 . S
H31 C39 0.930 . S
O32 Co1 2.037 . S
O32 C52 1.234 . S
C33 O7 1.269 . S
C33 O8 1.257 . S
C34 H9 0.930 . S
C34 C37 1.388 . S
C34 C39 1.418 . S
C35 H30 0.930 . S
C35 C38 1.404 . S
C35 C39 1.353 . S
N36 Co1 2.145 1_556 S
N36 C37 1.397 . S
N36 C38 1.334 . S
C37 H18 0.929 . S
C37 C34 1.388 . S
C37 N36 1.397 . S
C38 H19 0.929 . S
C38 C35 1.404 . S
C38 N36 1.334 . S
C39 H31 0.930 . S
C39 C34 1.418 . S
C39 C35 1.353 . S
C40 H10 0.930 . S
C40 N41 1.330 . S
C40 C42 1.446 . S
N41 Co0 2.151 . S
N41 C40 1.330 . S
N41 C45 1.418 . S
C42 H21 0.929 . S
C42 C40 1.446 . S
C42 C43 1.332 . S
C43 H23 0.931 . S
C43 C42 1.332 . S
C43 C44 1.267 . S
C44 H12 0.929 . S
C44 C43 1.267 . S
C44 C45 1.251 . S
C45 H15 0.929 . S
C45 N41 1.418 . S
C45 C44 1.251 . S
C46 H13 0.930 . S
C46 C48 1.406 . S
C46 C51 1.261 . S
C47 H14 0.930 . S
C47 N49 1.325 . S
C47 C50 1.357 . S
C48 H16 0.928 . S
C48 C46 1.406 . S
C48 N49 1.261 . S
N49 Co0 2.214 . S
N49 C47 1.325 . S
N49 C48 1.261 . S
C50 H20 0.931 . S
C50 C47 1.357 . S
C50 C51 1.312 . S
C51 H22 0.930 . S
C51 C46 1.261 . S
C51 C50 1.312 . S
C52 O24 1.214 . S
C52 O32 1.234 . S
C53 H25 0.929 . S
C53 C56 1.391 . S
C53 C58 1.391 . S
C54 H26 0.938 . S
C54 C55 1.388 1_556 S
C54 N57 1.385 1_556 S
C55 H27 0.930 1_554 S
C55 C54 1.388 1_554 S
C55 C56 1.392 . S
C56 H28 0.929 . S
C56 C53 1.391 . S
C56 C55 1.392 . S
N57 Co1 2.257 . S
N57 C54 1.385 1_554 S
N57 C58 1.388 . S
C58 H29 0.930 . S
C58 C53 1.391 . S
C58 N57 1.388 . S
Co59 O61 2.143 . S
Co59 O67 2.074 . S
Co59 O70 2.093 . S
Co59 O83 2.097 . S
Co59 N100 2.151 . S
Co59 N108 2.214 . S
Co60 O61 2.160 . S
Co60 O66 2.058 . S
Co60 O76 2.057 . S
Co60 O91 2.037 . S
Co60 N95 2.145 . S
Co60 N116 2.257 . S
O61 Co59 2.143 . S
O61 Co60 2.160 . S
C62 O63 1.278 . S
C62 O70 1.224 . S
O63 C62 1.278 . S
C64 O65 1.245 . S
C64 O76 1.232 . S
O65 C64 1.245 . S
O66 Co60 2.058 . S
O66 C92 1.269 . S
O67 Co59 2.074 . S
O67 C92 1.257 . S
H68 C93 0.930 . S
H69 C99 0.930 . S
O70 Co59 2.093 . S
O70 C62 1.224 . S
H71 C103 0.929 . S
H72 C105 0.930 . S
H73 C106 0.930 . S
H74 C104 0.929 . S
H75 C107 0.928 . S
O76 Co60 2.057 . S
O76 C64 1.232 . S
H77 C96 0.929 . S
H78 C97 0.929 . S
H79 C109 0.931 . S
H80 C101 0.929 . S
H81 C110 0.930 . S
H82 C102 0.931 . S
O83 Co59 2.097 . S
O83 C111 1.214 . S
H84 C112 0.929 . S
H85 C113 0.929 . S
H86 C114 0.930 . S
H87 C115 0.929 . S
H88 C117 0.930 . S
H89 C94 0.930 . S
H90 C98 0.930 . S
O91 Co60 2.037 . S
O91 C111 1.234 . S
C92 O66 1.269 . S
C92 O67 1.257 . S
C93 H68 0.930 . S
C93 C96 1.388 . S
C93 C98 1.418 . S
C94 H89 0.930 . S
C94 C97 1.404 . S
C94 C98 1.353 . S
N95 Co60 2.145 . S
N95 C96 1.397 . S
N95 C97 1.334 . S
C96 H77 0.929 . S
C96 C93 1.388 . S
C96 N95 1.397 . S
C97 H78 0.929 . S
C97 C94 1.404 . S
C97 N95 1.334 . S
C98 H90 0.930 . S
C98 C93 1.418 . S
C98 C94 1.353 . S
C99 H69 0.930 . S
C99 N100 1.330 . S
C99 C101 1.446 . S
N100 Co59 2.151 . S
N100 C99 1.330 . S
N100 C104 1.418 . S
C101 H80 0.929 . S
C101 C99 1.446 . S
C101 C102 1.332 . S
C102 H82 0.931 . S
C102 C101 1.332 . S
C102 C103 1.267 . S
C103 H71 0.929 . S
C103 C102 1.267 . S
C103 C104 1.251 . S
C104 H74 0.929 . S
C104 N100 1.418 . S
C104 C103 1.251 . S
C105 H72 0.930 . S
C105 C107 1.406 . S
C105 C110 1.261 . S
C106 H73 0.930 . S
C106 N108 1.325 . S
C106 C109 1.357 . S
C107 H75 0.928 . S
C107 C105 1.406 . S
C107 N108 1.261 . S
N108 Co59 2.214 . S
N108 C106 1.325 . S
N108 C107 1.261 . S
C109 H79 0.931 . S
C109 C106 1.357 . S
C109 C110 1.312 . S
C110 H81 0.930 . S
C110 C105 1.261 . S
C110 C109 1.312 . S
C111 O83 1.214 . S
C111 O91 1.234 . S
C112 H84 0.929 . S
C112 C115 1.391 . S
C112 C117 1.391 . S
C113 H85 0.929 . S
C113 C114 1.390 . S
C113 N116 1.391 . S
C114 H86 0.930 . S
C114 C113 1.390 . S
C114 C115 1.392 . S
C115 H87 0.929 . S
C115 C112 1.391 . S
C115 C114 1.392 . S
N116 Co60 2.257 . S
N116 C113 1.391 . S
N116 C117 1.388 . S
C117 H88 0.930 . S
C117 C112 1.391 . S
C117 N116 1.388 . S
Co118 O120 2.143 . S
Co118 O126 2.074 . S
Co118 O129 2.093 . S
Co118 O142 2.097 . S
Co118 N159 2.151 . S
Co118 N167 2.214 . S
Co119 O120 2.160 . S
Co119 O125 2.058 . S
Co119 O135 2.057 . S
Co119 O150 2.037 . S
Co119 N154 2.145 . S
Co119 N175 2.257 . S
O120 Co118 2.143 . S
O120 Co119 2.160 . S
C121 O122 1.278 . S
C121 O129 1.224 . S
O122 C121 1.278 . S
C123 O124 1.245 . S
C123 O135 1.232 . S
O124 C123 1.245 . S
O125 Co119 2.058 . S
O125 C151 1.269 . S
O126 Co118 2.074 . S
O126 C151 1.257 . S
H127 C152 0.930 . S
H128 C158 0.930 . S
O129 Co118 2.093 . S
O129 C121 1.224 . S
H130 C162 0.929 . S
H131 C164 0.930 . S
H132 C165 0.930 . S
H133 C163 0.929 . S
H134 C166 0.928 . S
O135 Co119 2.057 . S
O135 C123 1.232 . S
H136 C155 0.929 . S
H137 C156 0.929 . S
H138 C168 0.931 . S
H139 C160 0.929 . S
H140 C169 0.930 . S
H141 C161 0.931 . S
O142 Co118 2.097 . S
O142 C170 1.214 . S
H143 C171 0.929 . S
H144 C172 0.929 . S
H145 C173 0.930 . S
H146 C174 0.929 . S
H147 C176 0.930 . S
H148 C153 0.930 . S
H149 C157 0.930 . S
O150 Co119 2.037 . S
O150 C170 1.234 . S
C151 O125 1.269 . S
C151 O126 1.257 . S
C152 H127 0.930 . S
C152 C155 1.388 . S
C152 C157 1.418 . S
C153 H148 0.930 . S
C153 C156 1.404 . S
C153 C157 1.353 . S
N154 Co119 2.145 . S
N154 C155 1.397 . S
N154 C156 1.334 . S
C155 H136 0.929 . S
C155 C152 1.388 . S
C155 N154 1.397 . S
C156 H137 0.929 . S
C156 C153 1.404 . S
C156 N154 1.334 . S
C157 H149 0.930 . S
C157 C152 1.418 . S
C157 C153 1.353 . S
C158 H128 0.930 . S
C158 N159 1.330 . S
C158 C160 1.446 . S
N159 Co118 2.151 . S
N159 C158 1.330 . S
N159 C163 1.418 . S
C160 H139 0.929 . S
C160 C158 1.446 . S
C160 C161 1.332 . S
C161 H141 0.931 . S
C161 C160 1.332 . S
C161 C162 1.267 . S
C162 H130 0.929 . S
C162 C161 1.267 . S
C162 C163 1.251 . S
C163 H133 0.929 . S
C163 N159 1.418 . S
C163 C162 1.251 . S
C164 H131 0.930 . S
C164 C166 1.406 . S
C164 C169 1.261 . S
C165 H132 0.930 . S
C165 N167 1.325 . S
C165 C168 1.357 . S
C166 H134 0.928 . S
C166 C164 1.406 . S
C166 N167 1.261 . S
N167 Co118 2.214 . S
N167 C165 1.325 . S
N167 C166 1.261 . S
C168 H138 0.931 . S
C168 C165 1.357 . S
C168 C169 1.312 . S
C169 H140 0.930 . S
C169 C164 1.261 . S
C169 C168 1.312 . S
C170 O142 1.214 . S
C170 O150 1.234 . S
C171 H143 0.929 . S
C171 C174 1.391 . S
C171 C176 1.391 . S
C172 H144 0.929 . S
C172 C173 1.390 . S
C172 N175 1.391 . S
C173 H145 0.930 . S
C173 C172 1.390 . S
C173 C174 1.392 . S
C174 H146 0.929 . S
C174 C171 1.391 . S
C174 C173 1.392 . S
N175 Co119 2.257 . S
N175 C172 1.391 . S
N175 C176 1.388 . S
C176 H147 0.930 . S
C176 C171 1.391 . S
C176 N175 1.388 . S
Co177 O179 2.143 . S
Co177 O185 2.074 . S
Co177 O188 2.093 . S
Co177 O201 2.097 . S
Co177 N218 2.151 . S
Co177 N226 2.214 . S
Co178 O179 2.160 . S
Co178 O184 2.058 . S
Co178 O194 2.057 . S
Co178 O209 2.037 . S
Co178 N213 2.145 . S
Co178 N234 2.257 . S
O179 Co177 2.143 . S
O179 Co178 2.160 . S
C180 O181 1.278 . S
C180 O188 1.224 . S
O181 C180 1.278 . S
C182 O183 1.245 . S
C182 O194 1.232 . S
O183 C182 1.245 . S
O184 Co178 2.058 . S
O184 C210 1.269 . S
O185 Co177 2.074 . S
O185 C210 1.257 . S
H186 C211 0.930 . S
H187 C217 0.930 . S
O188 Co177 2.093 . S
O188 C180 1.224 . S
H189 C221 0.929 . S
H190 C223 0.930 . S
H191 C224 0.930 . S
H192 C222 0.929 . S
H193 C225 0.928 . S
O194 Co178 2.057 . S
O194 C182 1.232 . S
H195 C214 0.929 . S
H196 C215 0.929 . S
H197 C227 0.931 . S
H198 C219 0.929 . S
H199 C228 0.930 . S
H200 C220 0.931 . S
O201 Co177 2.097 . S
O201 C229 1.214 . S
H202 C230 0.929 . S
H203 C231 0.929 . S
H204 C232 0.930 . S
H205 C233 0.929 . S
H206 C235 0.930 . S
H207 C212 0.930 . S
H208 C216 0.930 . S
O209 Co178 2.037 . S
O209 C229 1.234 . S
C210 O184 1.269 . S
C210 O185 1.257 . S
C211 H186 0.930 . S
C211 C214 1.388 . S
C211 C216 1.418 . S
C212 H207 0.930 . S
C212 C215 1.404 . S
C212 C216 1.353 . S
N213 Co178 2.145 . S
N213 C214 1.397 . S
N213 C215 1.334 . S
C214 H195 0.929 . S
C214 C211 1.388 . S
C214 N213 1.397 . S
C215 H196 0.929 . S
C215 C212 1.404 . S
C215 N213 1.334 . S
C216 H208 0.930 . S
C216 C211 1.418 . S
C216 C212 1.353 . S
C217 H187 0.930 . S
C217 N218 1.330 . S
C217 C219 1.446 . S
N218 Co177 2.151 . S
N218 C217 1.330 . S
N218 C222 1.418 . S
C219 H198 0.929 . S
C219 C217 1.446 . S
C219 C220 1.332 . S
C220 H200 0.931 . S
C220 C219 1.332 . S
C220 C221 1.267 . S
C221 H189 0.929 . S
C221 C220 1.267 . S
C221 C222 1.251 . S
C222 H192 0.929 . S
C222 N218 1.418 . S
C222 C221 1.251 . S
C223 H190 0.930 . S
C223 C225 1.406 . S
C223 C228 1.261 . S
C224 H191 0.930 . S
C224 N226 1.325 . S
C224 C227 1.357 . S
C225 H193 0.928 . S
C225 C223 1.406 . S
C225 N226 1.261 . S
N226 Co177 2.214 . S
N226 C224 1.325 . S
N226 C225 1.261 . S
C227 H197 0.931 . S
C227 C224 1.357 . S
C227 C228 1.312 . S
C228 H199 0.930 . S
C228 C223 1.261 . S
C228 C227 1.312 . S
C229 O201 1.214 . S
C229 O209 1.234 . S
C230 H202 0.929 . S
C230 C233 1.391 . S
C230 C235 1.391 . S
C231 H203 0.929 . S
C231 C232 1.390 . S
C231 N234 1.391 . S
C232 H204 0.930 . S
C232 C231 1.390 . S
C232 C233 1.392 . S
C233 H205 0.929 . S
C233 C230 1.391 . S
C233 C232 1.392 . S
N234 Co178 2.257 . S
N234 C231 1.391 . S
N234 C235 1.388 . S
C235 H206 0.930 . S
C235 C230 1.391 . S
C235 N234 1.388 . S
Co236 O238 2.143 . S
Co236 O244 2.074 . S
Co236 O247 2.093 . S
Co236 O260 2.097 . S
Co236 N277 2.151 . S
Co236 N285 2.214 . S
Co237 O238 2.160 . S
Co237 O243 2.058 . S
Co237 O253 2.057 . S
Co237 O268 2.037 . S
Co237 N272 2.145 1_556 S
Co237 N293 2.257 . S
O238 Co236 2.143 . S
O238 Co237 2.160 . S
C239 O240 1.278 . S
C239 O247 1.224 . S
O240 C239 1.278 . S
C241 O242 1.245 . S
C241 O253 1.230 . S
O242 C241 1.245 . S
O243 Co237 2.058 . S
O243 C269 1.269 . S
O244 Co236 2.074 . S
O244 C269 1.257 . S
H245 C270 0.930 . S
H246 C276 0.930 . S
O247 Co236 2.093 . S
O247 C239 1.224 . S
H248 C280 0.929 . S
H249 C282 0.930 . S
H250 C283 0.930 . S
H251 C281 0.929 . S
H252 C284 0.928 . S
O253 Co237 2.057 . S
O253 C241 1.230 . S
H254 C273 0.929 . S
H255 C274 0.929 . S
H256 C286 0.931 . S
H257 C278 0.929 . S
H258 C287 0.930 . S
H259 C279 0.931 . S
O260 Co236 2.097 . S
O260 C288 1.214 . S
H261 C289 0.929 . S
H262 C290 0.938 . S
H263 C291 0.930 1_554 S
H264 C292 0.929 . S
H265 C294 0.930 . S
H266 C271 0.930 . S
H267 C275 0.930 . S
O268 Co237 2.037 . S
O268 C288 1.234 . S
C269 O243 1.269 . S
C269 O244 1.257 . S
C270 H245 0.930 . S
C270 C273 1.388 . S
C270 C275 1.418 . S
C271 H266 0.930 . S
C271 C274 1.404 . S
C271 C275 1.353 . S
N272 Co237 2.145 1_554 S
N272 C273 1.397 . S
N272 C274 1.334 . S
C273 H254 0.929 . S
C273 C270 1.388 . S
C273 N272 1.397 . S
C274 H255 0.929 . S
C274 C271 1.404 . S
C274 N272 1.334 . S
C275 H267 0.930 . S
C275 C270 1.418 . S
C275 C271 1.353 . S
C276 H246 0.930 . S
C276 N277 1.330 . S
C276 C278 1.446 . S
N277 Co236 2.151 . S
N277 C276 1.330 . S
N277 C281 1.418 . S
C278 H257 0.929 . S
C278 C276 1.446 . S
C278 C279 1.332 . S
C279 H259 0.931 . S
C279 C278 1.332 . S
C279 C280 1.267 . S
C280 H248 0.929 . S
C280 C279 1.267 . S
C280 C281 1.251 . S
C281 H251 0.929 . S
C281 N277 1.418 . S
C281 C280 1.251 . S
C282 H249 0.930 . S
C282 C284 1.406 . S
C282 C287 1.261 . S
C283 H250 0.930 . S
C283 N285 1.325 . S
C283 C286 1.357 . S
C284 H252 0.928 . S
C284 C282 1.406 . S
C284 N285 1.261 . S
N285 Co236 2.214 . S
N285 C283 1.325 . S
N285 C284 1.261 . S
C286 H256 0.931 . S
C286 C283 1.357 . S
C286 C287 1.312 . S
C287 H258 0.930 . S
C287 C282 1.261 . S
C287 C286 1.312 . S
C288 O260 1.214 . S
C288 O268 1.234 . S
C289 H261 0.929 . S
C289 C292 1.391 . S
C289 C294 1.391 . S
C290 H262 0.938 . S
C290 C291 1.388 1_554 S
C290 N293 1.385 1_554 S
C291 H263 0.930 1_556 S
C291 C290 1.388 1_556 S
C291 C292 1.392 . S
C292 H264 0.929 . S
C292 C289 1.391 . S
C292 C291 1.392 . S
N293 Co237 2.257 . S
N293 C290 1.385 1_556 S
N293 C294 1.388 . S
C294 H265 0.930 . S
C294 C289 1.391 . S
C294 N293 1.388 . S
Co295 O297 2.143 . S
Co295 O303 2.074 . S
Co295 O306 2.093 . S
Co295 O319 2.097 . S
Co295 N336 2.151 . S
Co295 N344 2.214 . S
Co296 O297 2.160 . S
Co296 O302 2.058 . S
Co296 O312 2.057 . S
Co296 O327 2.037 . S
Co296 N331 2.145 . S
Co296 N352 2.257 . S
O297 Co295 2.143 . S
O297 Co296 2.160 . S
C298 O299 1.278 . S
C298 O306 1.224 . S
O299 C298 1.278 . S
C300 O301 1.245 . S
C300 O312 1.232 . S
O301 C300 1.245 . S
O302 Co296 2.058 . S
O302 C328 1.269 . S
O303 Co295 2.074 . S
O303 C328 1.257 . S
H304 C329 0.930 . S
H305 C335 0.930 . S
O306 Co295 2.093 . S
O306 C298 1.224 . S
H307 C339 0.929 . S
H308 C341 0.930 . S
H309 C342 0.930 . S
H310 C340 0.929 . S
H311 C343 0.928 . S
O312 Co296 2.057 . S
O312 C300 1.232 . S
H313 C332 0.929 . S
H314 C333 0.929 . S
H315 C345 0.931 . S
H316 C337 0.929 . S
H317 C346 0.930 . S
H318 C338 0.931 . S
O319 Co295 2.097 . S
O319 C347 1.214 . S
H320 C348 0.929 . S
H321 C349 0.929 . S
H322 C350 0.930 . S
H323 C351 0.929 . S
H324 C353 0.930 . S
H325 C330 0.930 . S
H326 C334 0.930 . S
O327 Co296 2.037 . S
O327 C347 1.234 . S
C328 O302 1.269 . S
C328 O303 1.257 . S
C329 H304 0.930 . S
C329 C332 1.388 . S
C329 C334 1.418 . S
C330 H325 0.930 . S
C330 C333 1.404 . S
C330 C334 1.353 . S
N331 Co296 2.145 . S
N331 C332 1.397 . S
N331 C333 1.334 . S
C332 H313 0.929 . S
C332 C329 1.388 . S
C332 N331 1.397 . S
C333 H314 0.929 . S
C333 C330 1.404 . S
C333 N331 1.334 . S
C334 H326 0.930 . S
C334 C329 1.418 . S
C334 C330 1.353 . S
C335 H305 0.930 . S
C335 N336 1.330 . S
C335 C337 1.446 . S
N336 Co295 2.151 . S
N336 C335 1.330 . S
N336 C340 1.418 . S
C337 H316 0.929 . S
C337 C335 1.446 . S
C337 C338 1.332 . S
C338 H318 0.931 . S
C338 C337 1.332 . S
C338 C339 1.267 . S
C339 H307 0.929 . S
C339 C338 1.267 . S
C339 C340 1.251 . S
C340 H310 0.929 . S
C340 N336 1.418 . S
C340 C339 1.251 . S
C341 H308 0.930 . S
C341 C343 1.406 . S
C341 C346 1.261 . S
C342 H309 0.930 . S
C342 N344 1.325 . S
C342 C345 1.357 . S
C343 H311 0.928 . S
C343 C341 1.406 . S
C343 N344 1.261 . S
N344 Co295 2.214 . S
N344 C342 1.325 . S
N344 C343 1.261 . S
C345 H315 0.931 . S
C345 C342 1.357 . S
C345 C346 1.312 . S
C346 H317 0.930 . S
C346 C341 1.261 . S
C346 C345 1.312 . S
C347 O319 1.214 . S
C347 O327 1.234 . S
C348 H320 0.929 . S
C348 C351 1.391 . S
C348 C353 1.391 . S
C349 H321 0.929 . S
C349 C350 1.390 . S
C349 N352 1.391 . S
C350 H322 0.930 . S
C350 C349 1.390 . S
C350 C351 1.392 . S
C351 H323 0.929 . S
C351 C348 1.391 . S
C351 C350 1.392 . S
N352 Co296 2.257 . S
N352 C349 1.391 . S
N352 C353 1.388 . S
C353 H324 0.930 . S
C353 C348 1.391 . S
C353 N352 1.388 . S
Co354 O356 2.143 . S
Co354 O362 2.074 . S
Co354 O365 2.093 . S
Co354 O378 2.097 . S
Co354 N395 2.151 . S
Co354 N403 2.214 . S
Co355 O356 2.160 . S
Co355 O361 2.058 . S
Co355 O371 2.057 . S
Co355 O386 2.037 . S
Co355 N390 2.145 . S
Co355 N411 2.257 . S
O356 Co354 2.143 . S
O356 Co355 2.160 . S
C357 O358 1.278 . S
C357 O365 1.224 . S
O358 C357 1.278 . S
C359 O360 1.245 . S
C359 O371 1.232 . S
O360 C359 1.245 . S
O361 Co355 2.058 . S
O361 C387 1.269 . S
O362 Co354 2.074 . S
O362 C387 1.257 . S
H363 C388 0.930 . S
H364 C394 0.930 . S
O365 Co354 2.093 . S
O365 C357 1.224 . S
H366 C398 0.929 . S
H367 C400 0.930 . S
H368 C401 0.930 . S
H369 C399 0.929 . S
H370 C402 0.928 . S
O371 Co355 2.057 . S
O371 C359 1.232 . S
H372 C391 0.929 . S
H373 C392 0.929 . S
H374 C404 0.931 . S
H375 C396 0.929 . S
H376 C405 0.930 . S
H377 C397 0.931 . S
O378 Co354 2.097 . S
O378 C406 1.214 . S
H379 C407 0.929 . S
H380 C408 0.929 . S
H381 C409 0.930 . S
H382 C410 0.929 . S
H383 C412 0.930 . S
H384 C389 0.930 . S
H385 C393 0.930 . S
O386 Co355 2.037 . S
O386 C406 1.234 . S
C387 O361 1.269 . S
C387 O362 1.257 . S
C388 H363 0.930 . S
C388 C391 1.388 . S
C388 C393 1.418 . S
C389 H384 0.930 . S
C389 C392 1.404 . S
C389 C393 1.353 . S
N390 Co355 2.145 . S
N390 C391 1.397 . S
N390 C392 1.334 . S
C391 H372 0.929 . S
C391 C388 1.388 . S
C391 N390 1.397 . S
C392 H373 0.929 . S
C392 C389 1.404 . S
C392 N390 1.334 . S
C393 H385 0.930 . S
C393 C388 1.418 . S
C393 C389 1.353 . S
C394 H364 0.930 . S
C394 N395 1.330 . S
C394 C396 1.446 . S
N395 Co354 2.151 . S
N395 C394 1.330 . S
N395 C399 1.418 . S
C396 H375 0.929 . S
C396 C394 1.446 . S
C396 C397 1.332 . S
C397 H377 0.931 . S
C397 C396 1.332 . S
C397 C398 1.267 . S
C398 H366 0.929 . S
C398 C397 1.267 . S
C398 C399 1.251 . S
C399 H369 0.929 . S
C399 N395 1.418 . S
C399 C398 1.251 . S
C400 H367 0.930 . S
C400 C402 1.406 . S
C400 C405 1.261 . S
C401 H368 0.930 . S
C401 N403 1.325 . S
C401 C404 1.357 . S
C402 H370 0.928 . S
C402 C400 1.406 . S
C402 N403 1.261 . S
N403 Co354 2.214 . S
N403 C401 1.325 . S
N403 C402 1.261 . S
C404 H374 0.931 . S
C404 C401 1.357 . S
C404 C405 1.312 . S
C405 H376 0.930 . S
C405 C400 1.261 . S
C405 C404 1.312 . S
C406 O378 1.214 . S
C406 O386 1.234 . S
C407 H379 0.929 . S
C407 C410 1.391 . S
C407 C412 1.391 . S
C408 H380 0.929 . S
C408 C409 1.390 . S
C408 N411 1.391 . S
C409 H381 0.930 . S
C409 C408 1.390 . S
C409 C410 1.392 . S
C410 H382 0.929 . S
C410 C407 1.391 . S
C410 C409 1.392 . S
N411 Co355 2.257 . S
N411 C408 1.391 . S
N411 C412 1.388 . S
C412 H383 0.930 . S
C412 C407 1.391 . S
C412 N411 1.388 . S
Co413 O415 2.143 . S
Co413 O421 2.074 . S
Co413 O424 2.093 . S
Co413 O437 2.097 . S
Co413 N454 2.151 . S
Co413 N462 2.214 . S
Co414 O415 2.160 . S
Co414 O420 2.058 . S
Co414 O430 2.057 . S
Co414 O445 2.037 . S
Co414 N449 2.145 . S
Co414 N470 2.257 . S
O415 Co413 2.143 . S
O415 Co414 2.160 . S
C416 O417 1.278 . S
C416 O424 1.224 . S
O417 C416 1.278 . S
C418 O419 1.245 . S
C418 O430 1.232 . S
O419 C418 1.245 . S
O420 Co414 2.058 . S
O420 C446 1.269 . S
O421 Co413 2.074 . S
O421 C446 1.257 . S
H422 C447 0.930 . S
H423 C453 0.930 . S
O424 Co413 2.093 . S
O424 C416 1.224 . S
H425 C457 0.929 . S
H426 C459 0.930 . S
H427 C460 0.930 . S
H428 C458 0.929 . S
H429 C461 0.928 . S
O430 Co414 2.057 . S
O430 C418 1.232 . S
H431 C450 0.929 . S
H432 C451 0.929 . S
H433 C463 0.931 . S
H434 C455 0.929 . S
H435 C464 0.930 . S
H436 C456 0.931 . S
O437 Co413 2.097 . S
O437 C465 1.214 . S
H438 C466 0.929 . S
H439 C467 0.929 . S
H440 C468 0.930 . S
H441 C469 0.929 . S
H442 C471 0.930 . S
H443 C448 0.930 . S
H444 C452 0.930 . S
O445 Co414 2.037 . S
O445 C465 1.234 . S
C446 O420 1.269 . S
C446 O421 1.257 . S
C447 H422 0.930 . S
C447 C450 1.388 . S
C447 C452 1.418 . S
C448 H443 0.930 . S
C448 C451 1.404 . S
C448 C452 1.353 . S
N449 Co414 2.145 . S
N449 C450 1.397 . S
N449 C451 1.334 . S
C450 H431 0.929 . S
C450 C447 1.388 . S
C450 N449 1.397 . S
C451 H432 0.929 . S
C451 C448 1.404 . S
C451 N449 1.334 . S
C452 H444 0.930 . S
C452 C447 1.418 . S
C452 C448 1.353 . S
C453 H423 0.930 . S
C453 N454 1.330 . S
C453 C455 1.446 . S
N454 Co413 2.151 . S
N454 C453 1.330 . S
N454 C458 1.418 . S
C455 H434 0.929 . S
C455 C453 1.446 . S
C455 C456 1.332 . S
C456 H436 0.931 . S
C456 C455 1.332 . S
C456 C457 1.267 . S
C457 H425 0.929 . S
C457 C456 1.267 . S
C457 C458 1.251 . S
C458 H428 0.929 . S
C458 N454 1.418 . S
C458 C457 1.251 . S
C459 H426 0.930 . S
C459 C461 1.406 . S
C459 C464 1.261 . S
C460 H427 0.930 . S
C460 N462 1.325 . S
C460 C463 1.357 . S
C461 H429 0.928 . S
C461 C459 1.406 . S
C461 N462 1.261 . S
N462 Co413 2.214 . S
N462 C460 1.325 . S
N462 C461 1.261 . S
C463 H433 0.931 . S
C463 C460 1.357 . S
C463 C464 1.312 . S
C464 H435 0.930 . S
C464 C459 1.261 . S
C464 C463 1.312 . S
C465 O437 1.214 . S
C465 O445 1.234 . S
C466 H438 0.929 . S
C466 C469 1.391 . S
C466 C471 1.391 . S
C467 H439 0.929 . S
C467 C468 1.390 . S
C467 N470 1.391 . S
C468 H440 0.930 . S
C468 C467 1.390 . S
C468 C469 1.392 . S
C469 H441 0.929 . S
C469 C466 1.391 . S
C469 C468 1.392 . S
N470 Co414 2.257 . S
N470 C467 1.391 . S
N470 C471 1.388 . S
C471 H442 0.930 . S
C471 C466 1.391 . S
C471 N470 1.388 . S
Co472 O474 2.143 . S
Co472 O480 2.074 . S
Co472 O483 2.093 . S
Co472 O496 2.097 . S
Co472 N513 2.151 . S
Co472 N521 2.214 . S
Co473 O474 2.160 . S
Co473 O479 2.058 . S
Co473 O489 2.058 . S
Co473 O504 2.037 . S
Co473 N508 2.145 1_556 S
Co473 N529 2.257 . S
O474 Co472 2.143 . S
O474 Co473 2.160 . S
C475 O476 1.278 . S
C475 O483 1.224 . S
O476 C475 1.278 . S
C477 O478 1.245 . S
C477 O489 1.235 . S
O478 C477 1.245 . S
O479 Co473 2.058 . S
O479 C505 1.269 . S
O480 Co472 2.074 . S
O480 C505 1.257 . S
H481 C506 0.930 . S
H482 C512 0.930 . S
O483 Co472 2.093 . S
O483 C475 1.224 . S
H484 C516 0.929 . S
H485 C518 0.930 . S
H486 C519 0.930 . S
H487 C517 0.929 . S
H488 C520 0.928 . S
O489 Co473 2.058 . S
O489 C477 1.235 . S
H490 C509 0.929 . S
H491 C510 0.929 . S
H492 C522 0.931 . S
H493 C514 0.929 . S
H494 C523 0.930 . S
H495 C515 0.931 . S
O496 Co472 2.097 . S
O496 C524 1.214 . S
H497 C525 0.929 . S
H498 C526 0.932 . S
H499 C527 0.930 1_554 S
H500 C528 0.929 . S
H501 C530 0.930 . S
H502 C507 0.930 . S
H503 C511 0.930 . S
O504 Co473 2.037 . S
O504 C524 1.234 . S
C505 O479 1.269 . S
C505 O480 1.257 . S
C506 H481 0.930 . S
C506 C509 1.388 . S
C506 C511 1.418 . S
C507 H502 0.930 . S
C507 C510 1.404 . S
C507 C511 1.353 . S
N508 Co473 2.145 1_554 S
N508 C509 1.397 . S
N508 C510 1.334 . S
C509 H490 0.929 . S
C509 C506 1.388 . S
C509 N508 1.397 . S
C510 H491 0.929 . S
C510 C507 1.404 . S
C510 N508 1.334 . S
C511 H503 0.930 . S
C511 C506 1.418 . S
C511 C507 1.353 . S
C512 H482 0.930 . S
C512 N513 1.330 . S
C512 C514 1.446 . S
N513 Co472 2.151 . S
N513 C512 1.330 . S
N513 C517 1.418 . S
C514 H493 0.929 . S
C514 C512 1.446 . S
C514 C515 1.332 . S
C515 H495 0.931 . S
C515 C514 1.332 . S
C515 C516 1.267 . S
C516 H484 0.929 . S
C516 C515 1.267 . S
C516 C517 1.251 . S
C517 H487 0.929 . S
C517 N513 1.418 . S
C517 C516 1.251 . S
C518 H485 0.930 . S
C518 C520 1.406 . S
C518 C523 1.261 . S
C519 H486 0.930 . S
C519 N521 1.325 . S
C519 C522 1.357 . S
C520 H488 0.928 . S
C520 C518 1.406 . S
C520 N521 1.261 . S
N521 Co472 2.214 . S
N521 C519 1.325 . S
N521 C520 1.261 . S
C522 H492 0.931 . S
C522 C519 1.357 . S
C522 C523 1.312 . S
C523 H494 0.930 . S
C523 C518 1.261 . S
C523 C522 1.312 . S
C524 O496 1.214 . S
C524 O504 1.234 . S
C525 H497 0.929 . S
C525 C528 1.391 . S
C525 C530 1.391 . S
C526 H498 0.932 . S
C526 C527 1.389 1_554 S
C526 N529 1.389 1_554 S
C527 H499 0.930 1_556 S
C527 C526 1.389 1_556 S
C527 C528 1.392 . S
C528 H500 0.929 . S
C528 C525 1.391 . S
C528 C527 1.392 . S
N529 Co473 2.257 . S
N529 C526 1.389 1_556 S
N529 C530 1.388 . S
C530 H501 0.930 . S
C530 C525 1.391 . S
C530 N529 1.388 . S
Co531 O533 2.143 . S
Co531 O539 2.074 . S
Co531 O542 2.093 . S
Co531 O555 2.097 . S
Co531 N572 2.151 . S
Co531 N580 2.214 . S
Co532 O533 2.160 . S
Co532 O538 2.058 . S
Co532 O548 2.057 . S
Co532 O563 2.037 . S
Co532 N567 2.145 . S
Co532 N588 2.257 . S
O533 Co531 2.143 . S
O533 Co532 2.160 . S
C534 O535 1.278 . S
C534 O542 1.224 . S
O535 C534 1.278 . S
C536 O537 1.245 . S
C536 O548 1.232 . S
O537 C536 1.245 . S
O538 Co532 2.058 . S
O538 C564 1.269 . S
O539 Co531 2.074 . S
O539 C564 1.257 . S
H540 C565 0.930 . S
H541 C571 0.930 . S
O542 Co531 2.093 . S
O542 C534 1.224 . S
H543 C575 0.929 . S
H544 C577 0.930 . S
H545 C578 0.930 . S
H546 C576 0.929 . S
H547 C579 0.928 . S
O548 Co532 2.057 . S
O548 C536 1.232 . S
H549 C568 0.929 . S
H550 C569 0.929 . S
H551 C581 0.931 . S
H552 C573 0.929 . S
H553 C582 0.930 . S
H554 C574 0.931 . S
O555 Co531 2.097 . S
O555 C583 1.214 . S
H556 C584 0.929 . S
H557 C585 0.929 . S
H558 C586 0.930 . S
H559 C587 0.929 . S
H560 C589 0.930 . S
H561 C566 0.930 . S
H562 C570 0.930 . S
O563 Co532 2.037 . S
O563 C583 1.234 . S
C564 O538 1.269 . S
C564 O539 1.257 . S
C565 H540 0.930 . S
C565 C568 1.388 . S
C565 C570 1.418 . S
C566 H561 0.930 . S
C566 C569 1.404 . S
C566 C570 1.353 . S
N567 Co532 2.145 . S
N567 C568 1.397 . S
N567 C569 1.334 . S
C568 H549 0.929 . S
C568 C565 1.388 . S
C568 N567 1.397 . S
C569 H550 0.929 . S
C569 C566 1.404 . S
C569 N567 1.334 . S
C570 H562 0.930 . S
C570 C565 1.418 . S
C570 C566 1.353 . S
C571 H541 0.930 . S
C571 N572 1.330 . S
C571 C573 1.446 . S
N572 Co531 2.151 . S
N572 C571 1.330 . S
N572 C576 1.418 . S
C573 H552 0.929 . S
C573 C571 1.446 . S
C573 C574 1.332 . S
C574 H554 0.931 . S
C574 C573 1.332 . S
C574 C575 1.267 . S
C575 H543 0.929 . S
C575 C574 1.267 . S
C575 C576 1.251 . S
C576 H546 0.929 . S
C576 N572 1.418 . S
C576 C575 1.251 . S
C577 H544 0.930 . S
C577 C579 1.406 . S
C577 C582 1.261 . S
C578 H545 0.930 . S
C578 N580 1.325 . S
C578 C581 1.357 . S
C579 H547 0.928 . S
C579 C577 1.406 . S
C579 N580 1.261 . S
N580 Co531 2.214 . S
N580 C578 1.325 . S
N580 C579 1.261 . S
C581 H551 0.931 . S
C581 C578 1.357 . S
C581 C582 1.312 . S
C582 H553 0.930 . S
C582 C577 1.261 . S
C582 C581 1.312 . S
C583 O555 1.214 . S
C583 O563 1.234 . S
C584 H556 0.929 . S
C584 C587 1.391 . S
C584 C589 1.391 . S
C585 H557 0.929 . S
C585 C586 1.390 . S
C585 N588 1.391 . S
C586 H558 0.930 . S
C586 C585 1.390 . S
C586 C587 1.392 . S
C587 H559 0.929 . S
C587 C584 1.391 . S
C587 C586 1.392 . S
N588 Co532 2.257 . S
N588 C585 1.391 . S
N588 C589 1.388 . S
C589 H560 0.930 . S
C589 C584 1.391 . S
C589 N588 1.388 . S
Co590 O592 2.143 . S
Co590 O598 2.074 . S
Co590 O601 2.093 . S
Co590 O614 2.097 . S
Co590 N631 2.151 . S
Co590 N639 2.214 . S
Co591 O592 2.160 . S
Co591 O597 2.058 . S
Co591 O607 2.057 . S
Co591 O622 2.037 . S
Co591 N626 2.145 . S
Co591 N647 2.257 . S
O592 Co590 2.143 . S
O592 Co591 2.160 . S
C593 O594 1.278 . S
C593 O601 1.224 . S
O594 C593 1.278 . S
C595 O596 1.245 . S
C595 O607 1.232 . S
O596 C595 1.245 . S
O597 Co591 2.058 . S
O597 C623 1.269 . S
O598 Co590 2.074 . S
O598 C623 1.257 . S
H599 C624 0.930 . S
H600 C630 0.930 . S
O601 Co590 2.093 . S
O601 C593 1.224 . S
H602 C634 0.929 . S
H603 C636 0.930 . S
H604 C637 0.930 . S
H605 C635 0.929 . S
H606 C638 0.928 . S
O607 Co591 2.057 . S
O607 C595 1.232 . S
H608 C627 0.929 . S
H609 C628 0.929 . S
H610 C640 0.931 . S
H611 C632 0.929 . S
H612 C641 0.930 . S
H613 C633 0.931 . S
O614 Co590 2.097 . S
O614 C642 1.214 . S
H615 C643 0.929 . S
H616 C644 0.929 . S
H617 C645 0.930 . S
H618 C646 0.929 . S
H619 C648 0.930 . S
H620 C625 0.930 . S
H621 C629 0.930 . S
O622 Co591 2.037 . S
O622 C642 1.234 . S
C623 O597 1.269 . S
C623 O598 1.257 . S
C624 H599 0.930 . S
C624 C627 1.388 . S
C624 C629 1.418 . S
C625 H620 0.930 . S
C625 C628 1.404 . S
C625 C629 1.353 . S
N626 Co591 2.145 . S
N626 C627 1.397 . S
N626 C628 1.334 . S
C627 H608 0.929 . S
C627 C624 1.388 . S
C627 N626 1.397 . S
C628 H609 0.929 . S
C628 C625 1.404 . S
C628 N626 1.334 . S
C629 H621 0.930 . S
C629 C624 1.418 . S
C629 C625 1.353 . S
C630 H600 0.930 . S
C630 N631 1.330 . S
C630 C632 1.446 . S
N631 Co590 2.151 . S
N631 C630 1.330 . S
N631 C635 1.418 . S
C632 H611 0.929 . S
C632 C630 1.446 . S
C632 C633 1.332 . S
C633 H613 0.931 . S
C633 C632 1.332 . S
C633 C634 1.267 . S
C634 H602 0.929 . S
C634 C633 1.267 . S
C634 C635 1.251 . S
C635 H605 0.929 . S
C635 N631 1.418 . S
C635 C634 1.251 . S
C636 H603 0.930 . S
C636 C638 1.406 . S
C636 C641 1.261 . S
C637 H604 0.930 . S
C637 N639 1.325 . S
C637 C640 1.357 . S
C638 H606 0.928 . S
C638 C636 1.406 . S
C638 N639 1.261 . S
N639 Co590 2.214 . S
N639 C637 1.325 . S
N639 C638 1.261 . S
C640 H610 0.931 . S
C640 C637 1.357 . S
C640 C641 1.312 . S
C641 H612 0.930 . S
C641 C636 1.261 . S
C641 C640 1.312 . S
C642 O614 1.214 . S
C642 O622 1.234 . S
C643 H615 0.929 . S
C643 C646 1.391 . S
C643 C648 1.391 . S
C644 H616 0.929 . S
C644 C645 1.390 . S
C644 N647 1.391 . S
C645 H617 0.930 . S
C645 C644 1.390 . S
C645 C646 1.392 . S
C646 H618 0.929 . S
C646 C643 1.391 . S
C646 C645 1.392 . S
N647 Co591 2.257 . S
N647 C644 1.391 . S
N647 C648 1.388 . S
C648 H619 0.930 . S
C648 C643 1.391 . S
C648 N647 1.388 . S
Co649 O651 2.143 . S
Co649 O657 2.074 . S
Co649 O660 2.093 . S
Co649 O673 2.097 . S
Co649 N690 2.151 . S
Co649 N698 2.214 . S
Co650 O651 2.160 . S
Co650 O656 2.058 . S
Co650 O666 2.057 . S
Co650 O681 2.037 . S
Co650 N685 2.145 . S
Co650 N706 2.257 . S
O651 Co649 2.143 . S
O651 Co650 2.160 . S
C652 O653 1.278 . S
C652 O660 1.224 . S
O653 C652 1.278 . S
C654 O655 1.245 . S
C654 O666 1.232 . S
O655 C654 1.245 . S
O656 Co650 2.058 . S
O656 C682 1.269 . S
O657 Co649 2.074 . S
O657 C682 1.257 . S
H658 C683 0.930 . S
H659 C689 0.930 . S
O660 Co649 2.093 . S
O660 C652 1.224 . S
H661 C693 0.929 . S
H662 C695 0.930 . S
H663 C696 0.930 . S
H664 C694 0.929 . S
H665 C697 0.928 . S
O666 Co650 2.057 . S
O666 C654 1.232 . S
H667 C686 0.929 . S
H668 C687 0.929 . S
H669 C699 0.931 . S
H670 C691 0.929 . S
H671 C700 0.930 . S
H672 C692 0.931 . S
O673 Co649 2.097 . S
O673 C701 1.214 . S
H674 C702 0.929 . S
H675 C703 0.929 . S
H676 C704 0.930 . S
H677 C705 0.929 . S
H678 C707 0.930 . S
H679 C684 0.930 . S
H680 C688 0.930 . S
O681 Co650 2.037 . S
O681 C701 1.234 . S
C682 O656 1.269 . S
C682 O657 1.257 . S
C683 H658 0.930 . S
C683 C686 1.388 . S
C683 C688 1.418 . S
C684 H679 0.930 . S
C684 C687 1.404 . S
C684 C688 1.353 . S
N685 Co650 2.145 . S
N685 C686 1.397 . S
N685 C687 1.334 . S
C686 H667 0.929 . S
C686 C683 1.388 . S
C686 N685 1.397 . S
C687 H668 0.929 . S
C687 C684 1.404 . S
C687 N685 1.334 . S
C688 H680 0.930 . S
C688 C683 1.418 . S
C688 C684 1.353 . S
C689 H659 0.930 . S
C689 N690 1.330 . S
C689 C691 1.446 . S
N690 Co649 2.151 . S
N690 C689 1.330 . S
N690 C694 1.418 . S
C691 H670 0.929 . S
C691 C689 1.446 . S
C691 C692 1.332 . S
C692 H672 0.931 . S
C692 C691 1.332 . S
C692 C693 1.267 . S
C693 H661 0.929 . S
C693 C692 1.267 . S
C693 C694 1.251 . S
C694 H664 0.929 . S
C694 N690 1.418 . S
C694 C693 1.251 . S
C695 H662 0.930 . S
C695 C697 1.406 . S
C695 C700 1.261 . S
C696 H663 0.930 . S
C696 N698 1.325 . S
C696 C699 1.357 . S
C697 H665 0.928 . S
C697 C695 1.406 . S
C697 N698 1.261 . S
N698 Co649 2.214 . S
N698 C696 1.325 . S
N698 C697 1.261 . S
C699 H669 0.931 . S
C699 C696 1.357 . S
C699 C700 1.312 . S
C700 H671 0.930 . S
C700 C695 1.261 . S
C700 C699 1.312 . S
C701 O673 1.214 . S
C701 O681 1.234 . S
C702 H674 0.929 . S
C702 C705 1.391 . S
C702 C707 1.391 . S
C703 H675 0.929 . S
C703 C704 1.390 . S
C703 N706 1.391 . S
C704 H676 0.930 . S
C704 C703 1.390 . S
C704 C705 1.392 . S
C705 H677 0.929 . S
C705 C702 1.391 . S
C705 C704 1.392 . S
N706 Co650 2.257 . S
N706 C703 1.391 . S
N706 C707 1.388 . S
C707 H678 0.930 . S
C707 C702 1.391 . S
C707 N706 1.388 . S
Co708 O710 2.143 . S
Co708 O716 2.074 . S
Co708 O719 2.093 . S
Co708 O732 2.097 . S
Co708 N749 2.151 . S
Co708 N757 2.214 . S
Co709 O710 2.160 . S
Co709 O715 2.058 . S
Co709 O725 2.058 . S
Co709 O740 2.037 . S
Co709 N744 2.145 1_554 S
Co709 N765 2.257 . S
O710 Co708 2.143 . S
O710 Co709 2.160 . S
C711 O712 1.278 . S
C711 O719 1.224 . S
O712 C711 1.278 . S
C713 O714 1.245 . S
C713 O725 1.235 . S
O714 C713 1.245 . S
O715 Co709 2.058 . S
O715 C741 1.269 . S
O716 Co708 2.074 . S
O716 C741 1.257 . S
H717 C742 0.930 . S
H718 C748 0.930 . S
O719 Co708 2.093 . S
O719 C711 1.224 . S
H720 C752 0.929 . S
H721 C754 0.930 . S
H722 C755 0.930 . S
H723 C753 0.929 . S
H724 C756 0.928 . S
O725 Co709 2.058 . S
O725 C713 1.235 . S
H726 C745 0.929 . S
H727 C746 0.929 . S
H728 C758 0.931 . S
H729 C750 0.929 . S
H730 C759 0.930 . S
H731 C751 0.931 . S
O732 Co708 2.097 . S
O732 C760 1.214 . S
H733 C761 0.929 . S
H734 C762 0.932 . S
H735 C763 0.930 1_556 S
H736 C764 0.929 . S
H737 C766 0.930 . S
H738 C743 0.930 . S
H739 C747 0.930 . S
O740 Co709 2.037 . S
O740 C760 1.234 . S
C741 O715 1.269 . S
C741 O716 1.257 . S
C742 H717 0.930 . S
C742 C745 1.388 . S
C742 C747 1.418 . S
C743 H738 0.930 . S
C743 C746 1.404 . S
C743 C747 1.353 . S
N744 Co709 2.145 1_556 S
N744 C745 1.397 . S
N744 C746 1.334 . S
C745 H726 0.929 . S
C745 C742 1.388 . S
C745 N744 1.397 . S
C746 H727 0.929 . S
C746 C743 1.404 . S
C746 N744 1.334 . S
C747 H739 0.930 . S
C747 C742 1.418 . S
C747 C743 1.353 . S
C748 H718 0.930 . S
C748 N749 1.330 . S
C748 C750 1.446 . S
N749 Co708 2.151 . S
N749 C748 1.330 . S
N749 C753 1.418 . S
C750 H729 0.929 . S
C750 C748 1.446 . S
C750 C751 1.332 . S
C751 H731 0.931 . S
C751 C750 1.332 . S
C751 C752 1.267 . S
C752 H720 0.929 . S
C752 C751 1.267 . S
C752 C753 1.251 . S
C753 H723 0.929 . S
C753 N749 1.418 . S
C753 C752 1.251 . S
C754 H721 0.930 . S
C754 C756 1.406 . S
C754 C759 1.261 . S
C755 H722 0.930 . S
C755 N757 1.325 . S
C755 C758 1.357 . S
C756 H724 0.928 . S
C756 C754 1.406 . S
C756 N757 1.261 . S
N757 Co708 2.214 . S
N757 C755 1.325 . S
N757 C756 1.261 . S
C758 H728 0.931 . S
C758 C755 1.357 . S
C758 C759 1.312 . S
C759 H730 0.930 . S
C759 C754 1.261 . S
C759 C758 1.312 . S
C760 O732 1.214 . S
C760 O740 1.234 . S
C761 H733 0.929 . S
C761 C764 1.391 . S
C761 C766 1.391 . S
C762 H734 0.932 . S
C762 C763 1.389 1_556 S
C762 N765 1.389 1_556 S
C763 H735 0.930 1_554 S
C763 C762 1.389 1_554 S
C763 C764 1.392 . S
C764 H736 0.929 . S
C764 C761 1.391 . S
C764 C763 1.392 . S
N765 Co709 2.257 . S
N765 C762 1.389 1_554 S
N765 C766 1.388 . S
C766 H737 0.930 . S
C766 C761 1.391 . S
C766 N765 1.388 . S
Co767 O769 2.143 . S
Co767 O775 2.074 . S
Co767 O778 2.093 . S
Co767 O791 2.097 . S
Co767 N808 2.151 . S
Co767 N816 2.214 . S
Co768 O769 2.160 . S
Co768 O774 2.058 . S
Co768 O784 2.057 . S
Co768 O799 2.037 . S
Co768 N803 2.145 . S
Co768 N824 2.257 . S
O769 Co767 2.143 . S
O769 Co768 2.160 . S
C770 O771 1.278 . S
C770 O778 1.224 . S
O771 C770 1.278 . S
C772 O773 1.245 . S
C772 O784 1.232 . S
O773 C772 1.245 . S
O774 Co768 2.058 . S
O774 C800 1.269 . S
O775 Co767 2.074 . S
O775 C800 1.257 . S
H776 C801 0.930 . S
H777 C807 0.930 . S
O778 Co767 2.093 . S
O778 C770 1.224 . S
H779 C811 0.929 . S
H780 C813 0.930 . S
H781 C814 0.930 . S
H782 C812 0.929 . S
H783 C815 0.928 . S
O784 Co768 2.057 . S
O784 C772 1.232 . S
H785 C804 0.929 . S
H786 C805 0.929 . S
H787 C817 0.931 . S
H788 C809 0.929 . S
H789 C818 0.930 . S
H790 C810 0.931 . S
O791 Co767 2.097 . S
O791 C819 1.214 . S
H792 C820 0.929 . S
H793 C821 0.929 . S
H794 C822 0.930 . S
H795 C823 0.929 . S
H796 C825 0.930 . S
H797 C802 0.930 . S
H798 C806 0.930 . S
O799 Co768 2.037 . S
O799 C819 1.234 . S
C800 O774 1.269 . S
C800 O775 1.257 . S
C801 H776 0.930 . S
C801 C804 1.388 . S
C801 C806 1.418 . S
C802 H797 0.930 . S
C802 C805 1.404 . S
C802 C806 1.353 . S
N803 Co768 2.145 . S
N803 C804 1.397 . S
N803 C805 1.334 . S
C804 H785 0.929 . S
C804 C801 1.388 . S
C804 N803 1.397 . S
C805 H786 0.929 . S
C805 C802 1.404 . S
C805 N803 1.334 . S
C806 H798 0.930 . S
C806 C801 1.418 . S
C806 C802 1.353 . S
C807 H777 0.930 . S
C807 N808 1.330 . S
C807 C809 1.446 . S
N808 Co767 2.151 . S
N808 C807 1.330 . S
N808 C812 1.418 . S
C809 H788 0.929 . S
C809 C807 1.446 . S
C809 C810 1.332 . S
C810 H790 0.931 . S
C810 C809 1.332 . S
C810 C811 1.267 . S
C811 H779 0.929 . S
C811 C810 1.267 . S
C811 C812 1.251 . S
C812 H782 0.929 . S
C812 N808 1.418 . S
C812 C811 1.251 . S
C813 H780 0.930 . S
C813 C815 1.406 . S
C813 C818 1.261 . S
C814 H781 0.930 . S
C814 N816 1.325 . S
C814 C817 1.357 . S
C815 H783 0.928 . S
C815 C813 1.406 . S
C815 N816 1.261 . S
N816 Co767 2.214 . S
N816 C814 1.325 . S
N816 C815 1.261 . S
C817 H787 0.931 . S
C817 C814 1.357 . S
C817 C818 1.312 . S
C818 H789 0.930 . S
C818 C813 1.261 . S
C818 C817 1.312 . S
C819 O791 1.214 . S
C819 O799 1.234 . S
C820 H792 0.929 . S
C820 C823 1.391 . S
C820 C825 1.391 . S
C821 H793 0.929 . S
C821 C822 1.390 . S
C821 N824 1.391 . S
C822 H794 0.930 . S
C822 C821 1.390 . S
C822 C823 1.392 . S
C823 H795 0.929 . S
C823 C820 1.391 . S
C823 C822 1.392 . S
N824 Co768 2.257 . S
N824 C821 1.391 . S
N824 C825 1.388 . S
C825 H796 0.930 . S
C825 C820 1.391 . S
C825 N824 1.388 . S
Co826 O828 2.143 . S
Co826 O834 2.074 . S
Co826 O837 2.093 . S
Co826 O850 2.097 . S
Co826 N867 2.151 . S
Co826 N875 2.214 . S
Co827 O828 2.160 . S
Co827 O833 2.058 . S
Co827 O843 2.057 . S
Co827 O858 2.037 . S
Co827 N862 2.145 . S
Co827 N883 2.257 . S
O828 Co826 2.143 . S
O828 Co827 2.160 . S
C829 O830 1.278 . S
C829 O837 1.224 . S
O830 C829 1.278 . S
C831 O832 1.245 . S
C831 O843 1.232 . S
O832 C831 1.245 . S
O833 Co827 2.058 . S
O833 C859 1.269 . S
O834 Co826 2.074 . S
O834 C859 1.257 . S
H835 C860 0.930 . S
H836 C866 0.930 . S
O837 Co826 2.093 . S
O837 C829 1.224 . S
H838 C870 0.929 . S
H839 C872 0.930 . S
H840 C873 0.930 . S
H841 C871 0.929 . S
H842 C874 0.928 . S
O843 Co827 2.057 . S
O843 C831 1.232 . S
H844 C863 0.929 . S
H845 C864 0.929 . S
H846 C876 0.931 . S
H847 C868 0.929 . S
H848 C877 0.930 . S
H849 C869 0.931 . S
O850 Co826 2.097 . S
O850 C878 1.214 . S
H851 C879 0.929 . S
H852 C880 0.929 . S
H853 C881 0.930 . S
H854 C882 0.929 . S
H855 C884 0.930 . S
H856 C861 0.930 . S
H857 C865 0.930 . S
O858 Co827 2.037 . S
O858 C878 1.234 . S
C859 O833 1.269 . S
C859 O834 1.257 . S
C860 H835 0.930 . S
C860 C863 1.388 . S
C860 C865 1.418 . S
C861 H856 0.930 . S
C861 C864 1.404 . S
C861 C865 1.353 . S
N862 Co827 2.145 . S
N862 C863 1.397 . S
N862 C864 1.334 . S
C863 H844 0.929 . S
C863 C860 1.388 . S
C863 N862 1.397 . S
C864 H845 0.929 . S
C864 C861 1.404 . S
C864 N862 1.334 . S
C865 H857 0.930 . S
C865 C860 1.418 . S
C865 C861 1.353 . S
C866 H836 0.930 . S
C866 N867 1.330 . S
C866 C868 1.446 . S
N867 Co826 2.151 . S
N867 C866 1.330 . S
N867 C871 1.418 . S
C868 H847 0.929 . S
C868 C866 1.446 . S
C868 C869 1.332 . S
C869 H849 0.931 . S
C869 C868 1.332 . S
C869 C870 1.267 . S
C870 H838 0.929 . S
C870 C869 1.267 . S
C870 C871 1.251 . S
C871 H841 0.929 . S
C871 N867 1.418 . S
C871 C870 1.251 . S
C872 H839 0.930 . S
C872 C874 1.406 . S
C872 C877 1.261 . S
C873 H840 0.930 . S
C873 N875 1.325 . S
C873 C876 1.357 . S
C874 H842 0.928 . S
C874 C872 1.406 . S
C874 N875 1.261 . S
N875 Co826 2.214 . S
N875 C873 1.325 . S
N875 C874 1.261 . S
C876 H846 0.931 . S
C876 C873 1.357 . S
C876 C877 1.312 . S
C877 H848 0.930 . S
C877 C872 1.261 . S
C877 C876 1.312 . S
C878 O850 1.214 . S
C878 O858 1.234 . S
C879 H851 0.929 . S
C879 C882 1.391 . S
C879 C884 1.391 . S
C880 H852 0.929 . S
C880 C881 1.390 . S
C880 N883 1.391 . S
C881 H853 0.930 . S
C881 C880 1.390 . S
C881 C882 1.392 . S
C882 H854 0.929 . S
C882 C879 1.391 . S
C882 C881 1.392 . S
N883 Co827 2.257 . S
N883 C880 1.391 . S
N883 C884 1.388 . S
C884 H855 0.930 . S
C884 C879 1.391 . S
C884 N883 1.388 . S
Co885 O887 2.143 . S
Co885 O893 2.074 . S
Co885 O896 2.093 . S
Co885 O909 2.097 . S
Co885 N926 2.151 . S
Co885 N934 2.214 . S
Co886 O887 2.160 . S
Co886 O892 2.058 . S
Co886 O902 2.057 . S
Co886 O917 2.037 . S
Co886 N921 2.145 . S
Co886 N942 2.257 . S
O887 Co885 2.143 . S
O887 Co886 2.160 . S
C888 O889 1.278 . S
C888 O896 1.224 . S
O889 C888 1.278 . S
C890 O891 1.245 . S
C890 O902 1.232 . S
O891 C890 1.245 . S
O892 Co886 2.058 . S
O892 C918 1.269 . S
O893 Co885 2.074 . S
O893 C918 1.257 . S
H894 C919 0.930 . S
H895 C925 0.930 . S
O896 Co885 2.093 . S
O896 C888 1.224 . S
H897 C929 0.929 . S
H898 C931 0.930 . S
H899 C932 0.930 . S
H900 C930 0.929 . S
H901 C933 0.928 . S
O902 Co886 2.057 . S
O902 C890 1.232 . S
H903 C922 0.929 . S
H904 C923 0.929 . S
H905 C935 0.931 . S
H906 C927 0.929 . S
H907 C936 0.930 . S
H908 C928 0.931 . S
O909 Co885 2.097 . S
O909 C937 1.214 . S
H910 C938 0.929 . S
H911 C939 0.929 . S
H912 C940 0.930 . S
H913 C941 0.929 . S
H914 C943 0.930 . S
H915 C920 0.930 . S
H916 C924 0.930 . S
O917 Co886 2.037 . S
O917 C937 1.234 . S
C918 O892 1.269 . S
C918 O893 1.257 . S
C919 H894 0.930 . S
C919 C922 1.388 . S
C919 C924 1.418 . S
C920 H915 0.930 . S
C920 C923 1.404 . S
C920 C924 1.353 . S
N921 Co886 2.145 . S
N921 C922 1.397 . S
N921 C923 1.334 . S
C922 H903 0.929 . S
C922 C919 1.388 . S
C922 N921 1.397 . S
C923 H904 0.929 . S
C923 C920 1.404 . S
C923 N921 1.334 . S
C924 H916 0.930 . S
C924 C919 1.418 . S
C924 C920 1.353 . S
C925 H895 0.930 . S
C925 N926 1.330 . S
C925 C927 1.446 . S
N926 Co885 2.151 . S
N926 C925 1.330 . S
N926 C930 1.418 . S
C927 H906 0.929 . S
C927 C925 1.446 . S
C927 C928 1.332 . S
C928 H908 0.931 . S
C928 C927 1.332 . S
C928 C929 1.267 . S
C929 H897 0.929 . S
C929 C928 1.267 . S
C929 C930 1.251 . S
C930 H900 0.929 . S
C930 N926 1.418 . S
C930 C929 1.251 . S
C931 H898 0.930 . S
C931 C933 1.406 . S
C931 C936 1.261 . S
C932 H899 0.930 . S
C932 N934 1.325 . S
C932 C935 1.357 . S
C933 H901 0.928 . S
C933 C931 1.406 . S
C933 N934 1.261 . S
N934 Co885 2.214 . S
N934 C932 1.325 . S
N934 C933 1.261 . S
C935 H905 0.931 . S
C935 C932 1.357 . S
C935 C936 1.312 . S
C936 H907 0.930 . S
C936 C931 1.261 . S
C936 C935 1.312 . S
C937 O909 1.214 . S
C937 O917 1.234 . S
C938 H910 0.929 . S
C938 C941 1.391 . S
C938 C943 1.391 . S
C939 H911 0.929 . S
C939 C940 1.390 . S
C939 N942 1.391 . S
C940 H912 0.930 . S
C940 C939 1.390 . S
C940 C941 1.392 . S
C941 H913 0.929 . S
C941 C938 1.391 . S
C941 C940 1.392 . S
N942 Co886 2.257 . S
N942 C939 1.391 . S
N942 C943 1.388 . S
C943 H914 0.930 . S
C943 C938 1.391 . S
C943 N942 1.388 . S
Co944 O946 2.143 . S
Co944 O952 2.074 . S
Co944 O955 2.093 . S
Co944 O968 2.097 . S
Co944 N985 2.151 . S
Co944 N993 2.214 . S
Co945 O946 2.160 . S
Co945 O951 2.058 . S
Co945 O961 2.057 . S
Co945 O976 2.037 . S
Co945 N980 2.145 . S
Co945 N1001 2.257 . S
O946 Co944 2.143 . S
O946 Co945 2.160 . S
C947 O948 1.278 . S
C947 O955 1.224 . S
O948 C947 1.278 . S
C949 O950 1.245 . S
C949 O961 1.232 . S
O950 C949 1.245 . S
O951 Co945 2.058 . S
O951 C977 1.269 . S
O952 Co944 2.074 . S
O952 C977 1.257 . S
H953 C978 0.930 . S
H954 C984 0.930 . S
O955 Co944 2.093 . S
O955 C947 1.224 . S
H956 C988 0.929 . S
H957 C990 0.930 . S
H958 C991 0.930 . S
H959 C989 0.929 . S
H960 C992 0.928 . S
O961 Co945 2.057 . S
O961 C949 1.232 . S
H962 C981 0.929 . S
H963 C982 0.929 . S
H964 C994 0.931 . S
H965 C986 0.929 . S
H966 C995 0.930 . S
H967 C987 0.931 . S
O968 Co944 2.097 . S
O968 C996 1.214 . S
H969 C997 0.929 . S
H970 C998 0.929 . S
H971 C999 0.930 . S
H972 C1000 0.929 . S
H973 C1002 0.930 . S
H974 C979 0.930 . S
H975 C983 0.930 . S
O976 Co945 2.037 . S
O976 C996 1.234 . S
C977 O951 1.269 . S
C977 O952 1.257 . S
C978 H953 0.930 . S
C978 C981 1.388 . S
C978 C983 1.418 . S
C979 H974 0.930 . S
C979 C982 1.404 . S
C979 C983 1.353 . S
N980 Co945 2.145 . S
N980 C981 1.397 . S
N980 C982 1.334 . S
C981 H962 0.929 . S
C981 C978 1.388 . S
C981 N980 1.397 . S
C982 H963 0.929 . S
C982 C979 1.404 . S
C982 N980 1.334 . S
C983 H975 0.930 . S
C983 C978 1.418 . S
C983 C979 1.353 . S
C984 H954 0.930 . S
C984 N985 1.330 . S
C984 C986 1.446 . S
N985 Co944 2.151 . S
N985 C984 1.330 . S
N985 C989 1.418 . S
C986 H965 0.929 . S
C986 C984 1.446 . S
C986 C987 1.332 . S
C987 H967 0.931 . S
C987 C986 1.332 . S
C987 C988 1.267 . S
C988 H956 0.929 . S
C988 C987 1.267 . S
C988 C989 1.251 . S
C989 H959 0.929 . S
C989 N985 1.418 . S
C989 C988 1.251 . S
C990 H957 0.930 . S
C990 C992 1.406 . S
C990 C995 1.261 . S
C991 H958 0.930 . S
C991 N993 1.325 . S
C991 C994 1.357 . S
C992 H960 0.928 . S
C992 C990 1.406 . S
C992 N993 1.261 . S
N993 Co944 2.214 . S
N993 C991 1.325 . S
N993 C992 1.261 . S
C994 H964 0.931 . S
C994 C991 1.357 . S
C994 C995 1.312 . S
C995 H966 0.930 . S
C995 C990 1.261 . S
C995 C994 1.312 . S
C996 O968 1.214 . S
C996 O976 1.234 . S
C997 H969 0.929 . S
C997 C1000 1.391 . S
C997 C1002 1.391 . S
C998 H970 0.929 . S
C998 C999 1.390 . S
C998 N1001 1.391 . S
C999 H971 0.930 . S
C999 C998 1.390 . S
C999 C1000 1.392 . S
C1000 H972 0.929 . S
C1000 C997 1.391 . S
C1000 C999 1.392 . S
N1001 Co945 2.257 . S
N1001 C998 1.391 . S
N1001 C1002 1.388 . S
C1002 H973 0.930 . S
C1002 C997 1.391 . S
C1002 N1001 1.388 . S
Co1003 O1005 2.143 . S
Co1003 O1011 2.074 . S
Co1003 O1014 2.093 . S
Co1003 O1027 2.097 . S
Co1003 N1044 2.151 . S
Co1003 N1052 2.214 . S
Co1004 O1005 2.160 . S
Co1004 O1010 2.058 . S
Co1004 O1020 2.057 . S
Co1004 O1035 2.037 . S
Co1004 N1039 2.145 . S
Co1004 N1060 2.257 . S
O1005 Co1003 2.143 . S
O1005 Co1004 2.160 . S
C1006 O1007 1.278 . S
C1006 O1014 1.224 . S
O1007 C1006 1.278 . S
C1008 O1009 1.245 . S
C1008 O1020 1.232 . S
O1009 C1008 1.245 . S
O1010 Co1004 2.058 . S
O1010 C1036 1.269 . S
O1011 Co1003 2.074 . S
O1011 C1036 1.257 . S
H1012 C1037 0.930 . S
H1013 C1043 0.930 . S
O1014 Co1003 2.093 . S
O1014 C1006 1.224 . S
H1015 C1047 0.929 . S
H1016 C1049 0.930 . S
H1017 C1050 0.930 . S
H1018 C1048 0.929 . S
H1019 C1051 0.928 . S
O1020 Co1004 2.057 . S
O1020 C1008 1.232 . S
H1021 C1040 0.929 . S
H1022 C1041 0.929 . S
H1023 C1053 0.931 . S
H1024 C1045 0.929 . S
H1025 C1054 0.930 . S
H1026 C1046 0.931 . S
O1027 Co1003 2.097 . S
O1027 C1055 1.214 . S
H1028 C1056 0.929 . S
H1029 C1057 0.929 . S
H1030 C1058 0.930 . S
H1031 C1059 0.929 . S
H1032 C1061 0.930 . S
H1033 C1038 0.930 . S
H1034 C1042 0.930 . S
O1035 Co1004 2.037 . S
O1035 C1055 1.234 . S
C1036 O1010 1.269 . S
C1036 O1011 1.257 . S
C1037 H1012 0.930 . S
C1037 C1040 1.388 . S
C1037 C1042 1.418 . S
C1038 H1033 0.930 . S
C1038 C1041 1.404 . S
C1038 C1042 1.353 . S
N1039 Co1004 2.145 . S
N1039 C1040 1.397 . S
N1039 C1041 1.334 . S
C1040 H1021 0.929 . S
C1040 C1037 1.388 . S
C1040 N1039 1.397 . S
C1041 H1022 0.929 . S
C1041 C1038 1.404 . S
C1041 N1039 1.334 . S
C1042 H1034 0.930 . S
C1042 C1037 1.418 . S
C1042 C1038 1.353 . S
C1043 H1013 0.930 . S
C1043 N1044 1.330 . S
C1043 C1045 1.446 . S
N1044 Co1003 2.151 . S
N1044 C1043 1.330 . S
N1044 C1048 1.418 . S
C1045 H1024 0.929 . S
C1045 C1043 1.446 . S
C1045 C1046 1.332 . S
C1046 H1026 0.931 . S
C1046 C1045 1.332 . S
C1046 C1047 1.267 . S
C1047 H1015 0.929 . S
C1047 C1046 1.267 . S
C1047 C1048 1.251 . S
C1048 H1018 0.929 . S
C1048 N1044 1.418 . S
C1048 C1047 1.251 . S
C1049 H1016 0.930 . S
C1049 C1051 1.406 . S
C1049 C1054 1.261 . S
C1050 H1017 0.930 . S
C1050 N1052 1.325 . S
C1050 C1053 1.357 . S
C1051 H1019 0.928 . S
C1051 C1049 1.406 . S
C1051 N1052 1.261 . S
N1052 Co1003 2.214 . S
N1052 C1050 1.325 . S
N1052 C1051 1.261 . S
C1053 H1023 0.931 . S
C1053 C1050 1.357 . S
C1053 C1054 1.312 . S
C1054 H1025 0.930 . S
C1054 C1049 1.261 . S
C1054 C1053 1.312 . S
C1055 O1027 1.214 . S
C1055 O1035 1.234 . S
C1056 H1028 0.929 . S
C1056 C1059 1.391 . S
C1056 C1061 1.391 . S
C1057 H1029 0.929 . S
C1057 C1058 1.390 . S
C1057 N1060 1.391 . S
C1058 H1030 0.930 . S
C1058 C1057 1.390 . S
C1058 C1059 1.392 . S
C1059 H1031 0.929 . S
C1059 C1056 1.391 . S
C1059 C1058 1.392 . S
N1060 Co1004 2.257 . S
N1060 C1057 1.391 . S
N1060 C1061 1.388 . S
C1061 H1032 0.930 . S
C1061 C1056 1.391 . S
C1061 N1060 1.388 . S
Co1062 O1064 2.143 . S
Co1062 O1070 2.074 . S
Co1062 O1073 2.093 . S
Co1062 O1086 2.097 . S
Co1062 N1103 2.151 . S
Co1062 N1111 2.214 . S
Co1063 O1064 2.160 . S
Co1063 O1069 2.058 . S
Co1063 O1079 2.057 . S
Co1063 O1094 2.037 . S
Co1063 N1098 2.145 1_554 S
Co1063 N1119 2.257 . S
O1064 Co1062 2.143 . S
O1064 Co1063 2.160 . S
C1065 O1066 1.278 . S
C1065 O1073 1.224 . S
O1066 C1065 1.278 . S
C1067 O1068 1.245 . S
C1067 O1079 1.230 . S
O1068 C1067 1.245 . S
O1069 Co1063 2.058 . S
O1069 C1095 1.269 . S
O1070 Co1062 2.074 . S
O1070 C1095 1.257 . S
H1071 C1096 0.930 . S
H1072 C1102 0.930 . S
O1073 Co1062 2.093 . S
O1073 C1065 1.224 . S
H1074 C1106 0.929 . S
H1075 C1108 0.930 . S
H1076 C1109 0.930 . S
H1077 C1107 0.929 . S
H1078 C1110 0.928 . S
O1079 Co1063 2.057 . S
O1079 C1067 1.230 . S
H1080 C1099 0.929 . S
H1081 C1100 0.929 . S
H1082 C1112 0.931 . S
H1083 C1104 0.929 . S
H1084 C1113 0.930 . S
H1085 C1105 0.931 . S
O1086 Co1062 2.097 . S
O1086 C1114 1.214 . S
H1087 C1115 0.929 . S
H1088 C1116 0.938 . S
H1089 C1117 0.930 1_556 S
H1090 C1118 0.929 . S
H1091 C1120 0.930 . S
H1092 C1097 0.930 . S
H1093 C1101 0.930 . S
O1094 Co1063 2.037 . S
O1094 C1114 1.234 . S
C1095 O1069 1.269 . S
C1095 O1070 1.257 . S
C1096 H1071 0.930 . S
C1096 C1099 1.388 . S
C1096 C1101 1.418 . S
C1097 H1092 0.930 . S
C1097 C1100 1.404 . S
C1097 C1101 1.353 . S
N1098 Co1063 2.145 1_556 S
N1098 C1099 1.397 . S
N1098 C1100 1.334 . S
C1099 H1080 0.929 . S
C1099 C1096 1.388 . S
C1099 N1098 1.397 . S
C1100 H1081 0.929 . S
C1100 C1097 1.404 . S
C1100 N1098 1.334 . S
C1101 H1093 0.930 . S
C1101 C1096 1.418 . S
C1101 C1097 1.353 . S
C1102 H1072 0.930 . S
C1102 N1103 1.330 . S
C1102 C1104 1.446 . S
N1103 Co1062 2.151 . S
N1103 C1102 1.330 . S
N1103 C1107 1.418 . S
C1104 H1083 0.929 . S
C1104 C1102 1.446 . S
C1104 C1105 1.332 . S
C1105 H1085 0.931 . S
C1105 C1104 1.332 . S
C1105 C1106 1.267 . S
C1106 H1074 0.929 . S
C1106 C1105 1.267 . S
C1106 C1107 1.251 . S
C1107 H1077 0.929 . S
C1107 N1103 1.418 . S
C1107 C1106 1.251 . S
C1108 H1075 0.930 . S
C1108 C1110 1.406 . S
C1108 C1113 1.261 . S
C1109 H1076 0.930 . S
C1109 N1111 1.325 . S
C1109 C1112 1.357 . S
C1110 H1078 0.928 . S
C1110 C1108 1.406 . S
C1110 N1111 1.261 . S
N1111 Co1062 2.214 . S
N1111 C1109 1.325 . S
N1111 C1110 1.261 . S
C1112 H1082 0.931 . S
C1112 C1109 1.357 . S
C1112 C1113 1.312 . S
C1113 H1084 0.930 . S
C1113 C1108 1.261 . S
C1113 C1112 1.312 . S
C1114 O1086 1.214 . S
C1114 O1094 1.234 . S
C1115 H1087 0.929 . S
C1115 C1118 1.391 . S
C1115 C1120 1.391 . S
C1116 H1088 0.938 . S
C1116 C1117 1.388 1_556 S
C1116 N1119 1.385 1_556 S
C1117 H1089 0.930 1_554 S
C1117 C1116 1.388 1_554 S
C1117 C1118 1.392 . S
C1118 H1090 0.929 . S
C1118 C1115 1.391 . S
C1118 C1117 1.392 . S
N1119 Co1063 2.257 . S
N1119 C1116 1.385 1_554 S
N1119 C1120 1.388 . S
C1120 H1091 0.930 . S
C1120 C1115 1.391 . S
C1120 N1119 1.388 . S
Co1121 O1123 2.143 . S
Co1121 O1129 2.074 . S
Co1121 O1132 2.093 . S
Co1121 O1145 2.097 . S
Co1121 N1162 2.151 . S
Co1121 N1170 2.214 . S
Co1122 O1123 2.160 . S
Co1122 O1128 2.058 . S
Co1122 O1138 2.057 . S
Co1122 O1153 2.037 . S
Co1122 N1157 2.145 . S
Co1122 N1178 2.257 . S
O1123 Co1121 2.143 . S
O1123 Co1122 2.160 . S
C1124 O1125 1.278 . S
C1124 O1132 1.224 . S
O1125 C1124 1.278 . S
C1126 O1127 1.245 . S
C1126 O1138 1.232 . S
O1127 C1126 1.245 . S
O1128 Co1122 2.058 . S
O1128 C1154 1.269 . S
O1129 Co1121 2.074 . S
O1129 C1154 1.257 . S
H1130 C1155 0.930 . S
H1131 C1161 0.930 . S
O1132 Co1121 2.093 . S
O1132 C1124 1.224 . S
H1133 C1165 0.929 . S
H1134 C1167 0.930 . S
H1135 C1168 0.930 . S
H1136 C1166 0.929 . S
H1137 C1169 0.928 . S
O1138 Co1122 2.057 . S
O1138 C1126 1.232 . S
H1139 C1158 0.929 . S
H1140 C1159 0.929 . S
H1141 C1171 0.931 . S
H1142 C1163 0.929 . S
H1143 C1172 0.930 . S
H1144 C1164 0.931 . S
O1145 Co1121 2.097 . S
O1145 C1173 1.214 . S
H1146 C1174 0.929 . S
H1147 C1175 0.929 . S
H1148 C1176 0.930 . S
H1149 C1177 0.929 . S
H1150 C1179 0.930 . S
H1151 C1156 0.930 . S
H1152 C1160 0.930 . S
O1153 Co1122 2.037 . S
O1153 C1173 1.234 . S
C1154 O1128 1.269 . S
C1154 O1129 1.257 . S
C1155 H1130 0.930 . S
C1155 C1158 1.388 . S
C1155 C1160 1.418 . S
C1156 H1151 0.930 . S
C1156 C1159 1.404 . S
C1156 C1160 1.353 . S
N1157 Co1122 2.145 . S
N1157 C1158 1.397 . S
N1157 C1159 1.334 . S
C1158 H1139 0.929 . S
C1158 C1155 1.388 . S
C1158 N1157 1.397 . S
C1159 H1140 0.929 . S
C1159 C1156 1.404 . S
C1159 N1157 1.334 . S
C1160 H1152 0.930 . S
C1160 C1155 1.418 . S
C1160 C1156 1.353 . S
C1161 H1131 0.930 . S
C1161 N1162 1.330 . S
C1161 C1163 1.446 . S
N1162 Co1121 2.151 . S
N1162 C1161 1.330 . S
N1162 C1166 1.418 . S
C1163 H1142 0.929 . S
C1163 C1161 1.446 . S
C1163 C1164 1.332 . S
C1164 H1144 0.931 . S
C1164 C1163 1.332 . S
C1164 C1165 1.267 . S
C1165 H1133 0.929 . S
C1165 C1164 1.267 . S
C1165 C1166 1.251 . S
C1166 H1136 0.929 . S
C1166 N1162 1.418 . S
C1166 C1165 1.251 . S
C1167 H1134 0.930 . S
C1167 C1169 1.406 . S
C1167 C1172 1.261 . S
C1168 H1135 0.930 . S
C1168 N1170 1.325 . S
C1168 C1171 1.357 . S
C1169 H1137 0.928 . S
C1169 C1167 1.406 . S
C1169 N1170 1.261 . S
N1170 Co1121 2.214 . S
N1170 C1168 1.325 . S
N1170 C1169 1.261 . S
C1171 H1141 0.931 . S
C1171 C1168 1.357 . S
C1171 C1172 1.312 . S
C1172 H1143 0.930 . S
C1172 C1167 1.261 . S
C1172 C1171 1.312 . S
C1173 O1145 1.214 . S
C1173 O1153 1.234 . S
C1174 H1146 0.929 . S
C1174 C1177 1.391 . S
C1174 C1179 1.391 . S
C1175 H1147 0.929 . S
C1175 C1176 1.390 . S
C1175 N1178 1.391 . S
C1176 H1148 0.930 . S
C1176 C1175 1.390 . S
C1176 C1177 1.392 . S
C1177 H1149 0.929 . S
C1177 C1174 1.391 . S
C1177 C1176 1.392 . S
N1178 Co1122 2.257 . S
N1178 C1175 1.391 . S
N1178 C1179 1.388 . S
C1179 H1150 0.930 . S
C1179 C1174 1.391 . S
C1179 N1178 1.388 . S
Co1180 O1182 2.143 . S
Co1180 O1188 2.074 . S
Co1180 O1191 2.093 . S
Co1180 O1204 2.097 . S
Co1180 N1221 2.151 . S
Co1180 N1229 2.214 . S
Co1181 O1182 2.160 . S
Co1181 O1187 2.058 . S
Co1181 O1197 2.057 . S
Co1181 O1212 2.037 . S
Co1181 N1216 2.145 . S
Co1181 N1237 2.257 . S
O1182 Co1180 2.143 . S
O1182 Co1181 2.160 . S
C1183 O1184 1.278 . S
C1183 O1191 1.224 . S
O1184 C1183 1.278 . S
C1185 O1186 1.245 . S
C1185 O1197 1.232 . S
O1186 C1185 1.245 . S
O1187 Co1181 2.058 . S
O1187 C1213 1.269 . S
O1188 Co1180 2.074 . S
O1188 C1213 1.257 . S
H1189 C1214 0.930 . S
H1190 C1220 0.930 . S
O1191 Co1180 2.093 . S
O1191 C1183 1.224 . S
H1192 C1224 0.929 . S
H1193 C1226 0.930 . S
H1194 C1227 0.930 . S
H1195 C1225 0.929 . S
H1196 C1228 0.928 . S
O1197 Co1181 2.057 . S
O1197 C1185 1.232 . S
H1198 C1217 0.929 . S
H1199 C1218 0.929 . S
H1200 C1230 0.931 . S
H1201 C1222 0.929 . S
H1202 C1231 0.930 . S
H1203 C1223 0.931 . S
O1204 Co1180 2.097 . S
O1204 C1232 1.214 . S
H1205 C1233 0.929 . S
H1206 C1234 0.929 . S
H1207 C1235 0.930 . S
H1208 C1236 0.929 . S
H1209 C1238 0.930 . S
H1210 C1215 0.930 . S
H1211 C1219 0.930 . S
O1212 Co1181 2.037 . S
O1212 C1232 1.234 . S
C1213 O1187 1.269 . S
C1213 O1188 1.257 . S
C1214 H1189 0.930 . S
C1214 C1217 1.388 . S
C1214 C1219 1.418 . S
C1215 H1210 0.930 . S
C1215 C1218 1.404 . S
C1215 C1219 1.353 . S
N1216 Co1181 2.145 . S
N1216 C1217 1.397 . S
N1216 C1218 1.334 . S
C1217 H1198 0.929 . S
C1217 C1214 1.388 . S
C1217 N1216 1.397 . S
C1218 H1199 0.929 . S
C1218 C1215 1.404 . S
C1218 N1216 1.334 . S
C1219 H1211 0.930 . S
C1219 C1214 1.418 . S
C1219 C1215 1.353 . S
C1220 H1190 0.930 . S
C1220 N1221 1.330 . S
C1220 C1222 1.446 . S
N1221 Co1180 2.151 . S
N1221 C1220 1.330 . S
N1221 C1225 1.418 . S
C1222 H1201 0.929 . S
C1222 C1220 1.446 . S
C1222 C1223 1.332 . S
C1223 H1203 0.931 . S
C1223 C1222 1.332 . S
C1223 C1224 1.267 . S
C1224 H1192 0.929 . S
C1224 C1223 1.267 . S
C1224 C1225 1.251 . S
C1225 H1195 0.929 . S
C1225 N1221 1.418 . S
C1225 C1224 1.251 . S
C1226 H1193 0.930 . S
C1226 C1228 1.406 . S
C1226 C1231 1.261 . S
C1227 H1194 0.930 . S
C1227 N1229 1.325 . S
C1227 C1230 1.357 . S
C1228 H1196 0.928 . S
C1228 C1226 1.406 . S
C1228 N1229 1.261 . S
N1229 Co1180 2.214 . S
N1229 C1227 1.325 . S
N1229 C1228 1.261 . S
C1230 H1200 0.931 . S
C1230 C1227 1.357 . S
C1230 C1231 1.312 . S
C1231 H1202 0.930 . S
C1231 C1226 1.261 . S
C1231 C1230 1.312 . S
C1232 O1204 1.214 . S
C1232 O1212 1.234 . S
C1233 H1205 0.929 . S
C1233 C1236 1.391 . S
C1233 C1238 1.391 . S
C1234 H1206 0.929 . S
C1234 C1235 1.390 . S
C1234 N1237 1.391 . S
C1235 H1207 0.930 . S
C1235 C1234 1.390 . S
C1235 C1236 1.392 . S
C1236 H1208 0.929 . S
C1236 C1233 1.391 . S
C1236 C1235 1.392 . S
N1237 Co1181 2.257 . S
N1237 C1234 1.391 . S
N1237 C1238 1.388 . S
C1238 H1209 0.930 . S
C1238 C1233 1.391 . S
C1238 N1237 1.388 . S
Co1239 O1241 2.143 . S
Co1239 O1247 2.074 . S
Co1239 O1250 2.093 . S
Co1239 O1263 2.097 . S
Co1239 N1280 2.151 . S
Co1239 N1288 2.214 . S
Co1240 O1241 2.160 . S
Co1240 O1246 2.058 . S
Co1240 O1256 2.057 . S
Co1240 O1271 2.037 . S
Co1240 N1275 2.145 . S
Co1240 N1296 2.257 . S
O1241 Co1239 2.143 . S
O1241 Co1240 2.160 . S
C1242 O1243 1.278 . S
C1242 O1250 1.224 . S
O1243 C1242 1.278 . S
C1244 O1245 1.245 . S
C1244 O1256 1.232 . S
O1245 C1244 1.245 . S
O1246 Co1240 2.058 . S
O1246 C1272 1.269 . S
O1247 Co1239 2.074 . S
O1247 C1272 1.257 . S
H1248 C1273 0.930 . S
H1249 C1279 0.930 . S
O1250 Co1239 2.093 . S
O1250 C1242 1.224 . S
H1251 C1283 0.929 . S
H1252 C1285 0.930 . S
H1253 C1286 0.930 . S
H1254 C1284 0.929 . S
H1255 C1287 0.928 . S
O1256 Co1240 2.057 . S
O1256 C1244 1.232 . S
H1257 C1276 0.929 . S
H1258 C1277 0.929 . S
H1259 C1289 0.931 . S
H1260 C1281 0.929 . S
H1261 C1290 0.930 . S
H1262 C1282 0.931 . S
O1263 Co1239 2.097 . S
O1263 C1291 1.214 . S
H1264 C1292 0.929 . S
H1265 C1293 0.929 . S
H1266 C1294 0.930 . S
H1267 C1295 0.929 . S
H1268 C1297 0.930 . S
H1269 C1274 0.930 . S
H1270 C1278 0.930 . S
O1271 Co1240 2.037 . S
O1271 C1291 1.234 . S
C1272 O1246 1.269 . S
C1272 O1247 1.257 . S
C1273 H1248 0.930 . S
C1273 C1276 1.388 . S
C1273 C1278 1.418 . S
C1274 H1269 0.930 . S
C1274 C1277 1.404 . S
C1274 C1278 1.353 . S
N1275 Co1240 2.145 . S
N1275 C1276 1.397 . S
N1275 C1277 1.334 . S
C1276 H1257 0.929 . S
C1276 C1273 1.388 . S
C1276 N1275 1.397 . S
C1277 H1258 0.929 . S
C1277 C1274 1.404 . S
C1277 N1275 1.334 . S
C1278 H1270 0.930 . S
C1278 C1273 1.418 . S
C1278 C1274 1.353 . S
C1279 H1249 0.930 . S
C1279 N1280 1.330 . S
C1279 C1281 1.446 . S
N1280 Co1239 2.151 . S
N1280 C1279 1.330 . S
N1280 C1284 1.418 . S
C1281 H1260 0.929 . S
C1281 C1279 1.446 . S
C1281 C1282 1.332 . S
C1282 H1262 0.931 . S
C1282 C1281 1.332 . S
C1282 C1283 1.267 . S
C1283 H1251 0.929 . S
C1283 C1282 1.267 . S
C1283 C1284 1.251 . S
C1284 H1254 0.929 . S
C1284 N1280 1.418 . S
C1284 C1283 1.251 . S
C1285 H1252 0.930 . S
C1285 C1287 1.406 . S
C1285 C1290 1.261 . S
C1286 H1253 0.930 . S
C1286 N1288 1.325 . S
C1286 C1289 1.357 . S
C1287 H1255 0.928 . S
C1287 C1285 1.406 . S
C1287 N1288 1.261 . S
N1288 Co1239 2.214 . S
N1288 C1286 1.325 . S
N1288 C1287 1.261 . S
C1289 H1259 0.931 . S
C1289 C1286 1.357 . S
C1289 C1290 1.312 . S
C1290 H1261 0.930 . S
C1290 C1285 1.261 . S
C1290 C1289 1.312 . S
C1291 O1263 1.214 . S
C1291 O1271 1.234 . S
C1292 H1264 0.929 . S
C1292 C1295 1.391 . S
C1292 C1297 1.391 . S
C1293 H1265 0.929 . S
C1293 C1294 1.390 . S
C1293 N1296 1.391 . S
C1294 H1266 0.930 . S
C1294 C1293 1.390 . S
C1294 C1295 1.392 . S
C1295 H1267 0.929 . S
C1295 C1292 1.391 . S
C1295 C1294 1.392 . S
N1296 Co1240 2.257 . S
N1296 C1293 1.391 . S
N1296 C1297 1.388 . S
C1297 H1268 0.930 . S
C1297 C1292 1.391 . S
C1297 N1296 1.388 . S
Co1298 O1300 2.143 . S
Co1298 O1306 2.074 . S
Co1298 O1309 2.093 . S
Co1298 O1322 2.097 . S
Co1298 N1339 2.151 . S
Co1298 N1347 2.214 . S
Co1299 O1300 2.160 . S
Co1299 O1305 2.058 . S
Co1299 O1315 2.057 . S
Co1299 O1330 2.037 . S
Co1299 N1334 2.145 1_556 S
Co1299 N1355 2.257 . S
O1300 Co1298 2.143 . S
O1300 Co1299 2.160 . S
C1301 O1302 1.278 . S
C1301 O1309 1.224 . S
O1302 C1301 1.278 . S
C1303 O1304 1.245 . S
C1303 O1315 1.230 . S
O1304 C1303 1.245 . S
O1305 Co1299 2.058 . S
O1305 C1331 1.269 . S
O1306 Co1298 2.074 . S
O1306 C1331 1.257 . S
H1307 C1332 0.930 . S
H1308 C1338 0.930 . S
O1309 Co1298 2.093 . S
O1309 C1301 1.224 . S
H1310 C1342 0.929 . S
H1311 C1344 0.930 . S
H1312 C1345 0.930 . S
H1313 C1343 0.929 . S
H1314 C1346 0.928 . S
O1315 Co1299 2.057 . S
O1315 C1303 1.230 . S
H1316 C1335 0.929 . S
H1317 C1336 0.929 . S
H1318 C1348 0.931 . S
H1319 C1340 0.929 . S
H1320 C1349 0.930 . S
H1321 C1341 0.931 . S
O1322 Co1298 2.097 . S
O1322 C1350 1.214 . S
H1323 C1351 0.929 . S
H1324 C1352 0.938 . S
H1325 C1353 0.930 1_554 S
H1326 C1354 0.929 . S
H1327 C1356 0.930 . S
H1328 C1333 0.930 . S
H1329 C1337 0.930 . S
O1330 Co1299 2.037 . S
O1330 C1350 1.234 . S
C1331 O1305 1.269 . S
C1331 O1306 1.257 . S
C1332 H1307 0.930 . S
C1332 C1335 1.388 . S
C1332 C1337 1.418 . S
C1333 H1328 0.930 . S
C1333 C1336 1.404 . S
C1333 C1337 1.353 . S
N1334 Co1299 2.145 1_554 S
N1334 C1335 1.397 . S
N1334 C1336 1.334 . S
C1335 H1316 0.929 . S
C1335 C1332 1.388 . S
C1335 N1334 1.397 . S
C1336 H1317 0.929 . S
C1336 C1333 1.404 . S
C1336 N1334 1.334 . S
C1337 H1329 0.930 . S
C1337 C1332 1.418 . S
C1337 C1333 1.353 . S
C1338 H1308 0.930 . S
C1338 N1339 1.330 . S
C1338 C1340 1.446 . S
N1339 Co1298 2.151 . S
N1339 C1338 1.330 . S
N1339 C1343 1.418 . S
C1340 H1319 0.929 . S
C1340 C1338 1.446 . S
C1340 C1341 1.332 . S
C1341 H1321 0.931 . S
C1341 C1340 1.332 . S
C1341 C1342 1.267 . S
C1342 H1310 0.929 . S
C1342 C1341 1.267 . S
C1342 C1343 1.251 . S
C1343 H1313 0.929 . S
C1343 N1339 1.418 . S
C1343 C1342 1.251 . S
C1344 H1311 0.930 . S
C1344 C1346 1.406 . S
C1344 C1349 1.261 . S
C1345 H1312 0.930 . S
C1345 N1347 1.325 . S
C1345 C1348 1.357 . S
C1346 H1314 0.928 . S
C1346 C1344 1.406 . S
C1346 N1347 1.261 . S
N1347 Co1298 2.214 . S
N1347 C1345 1.325 . S
N1347 C1346 1.261 . S
C1348 H1318 0.931 . S
C1348 C1345 1.357 . S
C1348 C1349 1.312 . S
C1349 H1320 0.930 . S
C1349 C1344 1.261 . S
C1349 C1348 1.312 . S
C1350 O1322 1.214 . S
C1350 O1330 1.234 . S
C1351 H1323 0.929 . S
C1351 C1354 1.391 . S
C1351 C1356 1.391 . S
C1352 H1324 0.938 . S
C1352 C1353 1.388 1_554 S
C1352 N1355 1.385 1_554 S
C1353 H1325 0.930 1_556 S
C1353 C1352 1.388 1_556 S
C1353 C1354 1.392 . S
C1354 H1326 0.929 . S
C1354 C1351 1.391 . S
C1354 C1353 1.392 . S
N1355 Co1299 2.257 . S
N1355 C1352 1.385 1_556 S
N1355 C1356 1.388 . S
C1356 H1327 0.930 . S
C1356 C1351 1.391 . S
C1356 N1355 1.388 . S
Co1357 O1359 2.143 . S
Co1357 O1365 2.074 . S
Co1357 O1368 2.093 . S
Co1357 O1381 2.097 . S
Co1357 N1398 2.151 . S
Co1357 N1406 2.214 . S
Co1358 O1359 2.160 . S
Co1358 O1364 2.058 . S
Co1358 O1374 2.057 . S
Co1358 O1389 2.037 . S
Co1358 N1393 2.145 . S
Co1358 N1414 2.257 . S
O1359 Co1357 2.143 . S
O1359 Co1358 2.160 . S
C1360 O1361 1.278 . S
C1360 O1368 1.224 . S
O1361 C1360 1.278 . S
C1362 O1363 1.245 . S
C1362 O1374 1.232 . S
O1363 C1362 1.245 . S
O1364 Co1358 2.058 . S
O1364 C1390 1.269 . S
O1365 Co1357 2.074 . S
O1365 C1390 1.257 . S
H1366 C1391 0.930 . S
H1367 C1397 0.930 . S
O1368 Co1357 2.093 . S
O1368 C1360 1.224 . S
H1369 C1401 0.929 . S
H1370 C1403 0.930 . S
H1371 C1404 0.930 . S
H1372 C1402 0.929 . S
H1373 C1405 0.928 . S
O1374 Co1358 2.057 . S
O1374 C1362 1.232 . S
H1375 C1394 0.929 . S
H1376 C1395 0.929 . S
H1377 C1407 0.931 . S
H1378 C1399 0.929 . S
H1379 C1408 0.930 . S
H1380 C1400 0.931 . S
O1381 Co1357 2.097 . S
O1381 C1409 1.214 . S
H1382 C1410 0.929 . S
H1383 C1411 0.929 . S
H1384 C1412 0.930 . S
H1385 C1413 0.929 . S
H1386 C1415 0.930 . S
H1387 C1392 0.930 . S
H1388 C1396 0.930 . S
O1389 Co1358 2.037 . S
O1389 C1409 1.234 . S
C1390 O1364 1.269 . S
C1390 O1365 1.257 . S
C1391 H1366 0.930 . S
C1391 C1394 1.388 . S
C1391 C1396 1.418 . S
C1392 H1387 0.930 . S
C1392 C1395 1.404 . S
C1392 C1396 1.353 . S
N1393 Co1358 2.145 . S
N1393 C1394 1.397 . S
N1393 C1395 1.334 . S
C1394 H1375 0.929 . S
C1394 C1391 1.388 . S
C1394 N1393 1.397 . S
C1395 H1376 0.929 . S
C1395 C1392 1.404 . S
C1395 N1393 1.334 . S
C1396 H1388 0.930 . S
C1396 C1391 1.418 . S
C1396 C1392 1.353 . S
C1397 H1367 0.930 . S
C1397 N1398 1.330 . S
C1397 C1399 1.446 . S
N1398 Co1357 2.151 . S
N1398 C1397 1.330 . S
N1398 C1402 1.418 . S
C1399 H1378 0.929 . S
C1399 C1397 1.446 . S
C1399 C1400 1.332 . S
C1400 H1380 0.931 . S
C1400 C1399 1.332 . S
C1400 C1401 1.267 . S
C1401 H1369 0.929 . S
C1401 C1400 1.267 . S
C1401 C1402 1.251 . S
C1402 H1372 0.929 . S
C1402 N1398 1.418 . S
C1402 C1401 1.251 . S
C1403 H1370 0.930 . S
C1403 C1405 1.406 . S
C1403 C1408 1.261 . S
C1404 H1371 0.930 . S
C1404 N1406 1.325 . S
C1404 C1407 1.357 . S
C1405 H1373 0.928 . S
C1405 C1403 1.406 . S
C1405 N1406 1.261 . S
N1406 Co1357 2.214 . S
N1406 C1404 1.325 . S
N1406 C1405 1.261 . S
C1407 H1377 0.931 . S
C1407 C1404 1.357 . S
C1407 C1408 1.312 . S
C1408 H1379 0.930 . S
C1408 C1403 1.261 . S
C1408 C1407 1.312 . S
C1409 O1381 1.214 . S
C1409 O1389 1.234 . S
C1410 H1382 0.929 . S
C1410 C1413 1.391 . S
C1410 C1415 1.391 . S
C1411 H1383 0.929 . S
C1411 C1412 1.390 . S
C1411 N1414 1.391 . S
C1412 H1384 0.930 . S
C1412 C1411 1.390 . S
C1412 C1413 1.392 . S
C1413 H1385 0.929 . S
C1413 C1410 1.391 . S
C1413 C1412 1.392 . S
N1414 Co1358 2.257 . S
N1414 C1411 1.391 . S
N1414 C1415 1.388 . S
C1415 H1386 0.930 . S
C1415 C1410 1.391 . S
C1415 N1414 1.388 . S
Co1416 O1418 2.143 . S
Co1416 O1424 2.074 . S
Co1416 O1427 2.093 . S
Co1416 O1440 2.097 . S
Co1416 N1457 2.151 . S
Co1416 N1465 2.214 . S
Co1417 O1418 2.160 . S
Co1417 O1423 2.058 . S
Co1417 O1433 2.057 . S
Co1417 O1448 2.037 . S
Co1417 N1452 2.145 . S
Co1417 N1473 2.257 . S
O1418 Co1416 2.143 . S
O1418 Co1417 2.160 . S
C1419 O1420 1.278 . S
C1419 O1427 1.224 . S
O1420 C1419 1.278 . S
C1421 O1422 1.245 . S
C1421 O1433 1.232 . S
O1422 C1421 1.245 . S
O1423 Co1417 2.058 . S
O1423 C1449 1.269 . S
O1424 Co1416 2.074 . S
O1424 C1449 1.257 . S
H1425 C1450 0.930 . S
H1426 C1456 0.930 . S
O1427 Co1416 2.093 . S
O1427 C1419 1.224 . S
H1428 C1460 0.929 . S
H1429 C1462 0.930 . S
H1430 C1463 0.930 . S
H1431 C1461 0.929 . S
H1432 C1464 0.928 . S
O1433 Co1417 2.057 . S
O1433 C1421 1.232 . S
H1434 C1453 0.929 . S
H1435 C1454 0.929 . S
H1436 C1466 0.931 . S
H1437 C1458 0.929 . S
H1438 C1467 0.930 . S
H1439 C1459 0.931 . S
O1440 Co1416 2.097 . S
O1440 C1468 1.214 . S
H1441 C1469 0.929 . S
H1442 C1470 0.929 . S
H1443 C1471 0.930 . S
H1444 C1472 0.929 . S
H1445 C1474 0.930 . S
H1446 C1451 0.930 . S
H1447 C1455 0.930 . S
O1448 Co1417 2.037 . S
O1448 C1468 1.234 . S
C1449 O1423 1.269 . S
C1449 O1424 1.257 . S
C1450 H1425 0.930 . S
C1450 C1453 1.388 . S
C1450 C1455 1.418 . S
C1451 H1446 0.930 . S
C1451 C1454 1.404 . S
C1451 C1455 1.353 . S
N1452 Co1417 2.145 . S
N1452 C1453 1.397 . S
N1452 C1454 1.334 . S
C1453 H1434 0.929 . S
C1453 C1450 1.388 . S
C1453 N1452 1.397 . S
C1454 H1435 0.929 . S
C1454 C1451 1.404 . S
C1454 N1452 1.334 . S
C1455 H1447 0.930 . S
C1455 C1450 1.418 . S
C1455 C1451 1.353 . S
C1456 H1426 0.930 . S
C1456 N1457 1.330 . S
C1456 C1458 1.446 . S
N1457 Co1416 2.151 . S
N1457 C1456 1.330 . S
N1457 C1461 1.418 . S
C1458 H1437 0.929 . S
C1458 C1456 1.446 . S
C1458 C1459 1.332 . S
C1459 H1439 0.931 . S
C1459 C1458 1.332 . S
C1459 C1460 1.267 . S
C1460 H1428 0.929 . S
C1460 C1459 1.267 . S
C1460 C1461 1.251 . S
C1461 H1431 0.929 . S
C1461 N1457 1.418 . S
C1461 C1460 1.251 . S
C1462 H1429 0.930 . S
C1462 C1464 1.406 . S
C1462 C1467 1.261 . S
C1463 H1430 0.930 . S
C1463 N1465 1.325 . S
C1463 C1466 1.357 . S
C1464 H1432 0.928 . S
C1464 C1462 1.406 . S
C1464 N1465 1.261 . S
N1465 Co1416 2.214 . S
N1465 C1463 1.325 . S
N1465 C1464 1.261 . S
C1466 H1436 0.931 . S
C1466 C1463 1.357 . S
C1466 C1467 1.312 . S
C1467 H1438 0.930 . S
C1467 C1462 1.261 . S
C1467 C1466 1.312 . S
C1468 O1440 1.214 . S
C1468 O1448 1.234 . S
C1469 H1441 0.929 . S
C1469 C1472 1.391 . S
C1469 C1474 1.391 . S
C1470 H1442 0.929 . S
C1470 C1471 1.390 . S
C1470 N1473 1.391 . S
C1471 H1443 0.930 . S
C1471 C1470 1.390 . S
C1471 C1472 1.392 . S
C1472 H1444 0.929 . S
C1472 C1469 1.391 . S
C1472 C1471 1.392 . S
N1473 Co1417 2.257 . S
N1473 C1470 1.391 . S
N1473 C1474 1.388 . S
C1474 H1445 0.930 . S
C1474 C1469 1.391 . S
C1474 N1473 1.388 . S
Co1475 O1477 2.143 . S
Co1475 O1483 2.074 . S
Co1475 O1486 2.093 . S
Co1475 O1499 2.097 . S
Co1475 N1516 2.151 . S
Co1475 N1524 2.214 . S
Co1476 O1477 2.160 . S
Co1476 O1482 2.058 . S
Co1476 O1492 2.057 . S
Co1476 O1507 2.037 . S
Co1476 N1511 2.145 . S
Co1476 N1532 2.257 . S
O1477 Co1475 2.143 . S
O1477 Co1476 2.160 . S
C1478 O1479 1.278 . S
C1478 O1486 1.224 . S
O1479 C1478 1.278 . S
C1480 O1481 1.245 . S
C1480 O1492 1.232 . S
O1481 C1480 1.245 . S
O1482 Co1476 2.058 . S
O1482 C1508 1.269 . S
O1483 Co1475 2.074 . S
O1483 C1508 1.257 . S
H1484 C1509 0.930 . S
H1485 C1515 0.930 . S
O1486 Co1475 2.093 . S
O1486 C1478 1.224 . S
H1487 C1519 0.929 . S
H1488 C1521 0.930 . S
H1489 C1522 0.930 . S
H1490 C1520 0.929 . S
H1491 C1523 0.928 . S
O1492 Co1476 2.057 . S
O1492 C1480 1.232 . S
H1493 C1512 0.929 . S
H1494 C1513 0.929 . S
H1495 C1525 0.931 . S
H1496 C1517 0.929 . S
H1497 C1526 0.930 . S
H1498 C1518 0.931 . S
O1499 Co1475 2.097 . S
O1499 C1527 1.214 . S
H1500 C1528 0.929 . S
H1501 C1529 0.929 . S
H1502 C1530 0.930 . S
H1503 C1531 0.929 . S
H1504 C1533 0.930 . S
H1505 C1510 0.930 . S
H1506 C1514 0.930 . S
O1507 Co1476 2.037 . S
O1507 C1527 1.234 . S
C1508 O1482 1.269 . S
C1508 O1483 1.257 . S
C1509 H1484 0.930 . S
C1509 C1512 1.388 . S
C1509 C1514 1.418 . S
C1510 H1505 0.930 . S
C1510 C1513 1.404 . S
C1510 C1514 1.353 . S
N1511 Co1476 2.145 . S
N1511 C1512 1.397 . S
N1511 C1513 1.334 . S
C1512 H1493 0.929 . S
C1512 C1509 1.388 . S
C1512 N1511 1.397 . S
C1513 H1494 0.929 . S
C1513 C1510 1.404 . S
C1513 N1511 1.334 . S
C1514 H1506 0.930 . S
C1514 C1509 1.418 . S
C1514 C1510 1.353 . S
C1515 H1485 0.930 . S
C1515 N1516 1.330 . S
C1515 C1517 1.446 . S
N1516 Co1475 2.151 . S
N1516 C1515 1.330 . S
N1516 C1520 1.418 . S
C1517 H1496 0.929 . S
C1517 C1515 1.446 . S
C1517 C1518 1.332 . S
C1518 H1498 0.931 . S
C1518 C1517 1.332 . S
C1518 C1519 1.267 . S
C1519 H1487 0.929 . S
C1519 C1518 1.267 . S
C1519 C1520 1.251 . S
C1520 H1490 0.929 . S
C1520 N1516 1.418 . S
C1520 C1519 1.251 . S
C1521 H1488 0.930 . S
C1521 C1523 1.406 . S
C1521 C1526 1.261 . S
C1522 H1489 0.930 . S
C1522 N1524 1.325 . S
C1522 C1525 1.357 . S
C1523 H1491 0.928 . S
C1523 C1521 1.406 . S
C1523 N1524 1.261 . S
N1524 Co1475 2.214 . S
N1524 C1522 1.325 . S
N1524 C1523 1.261 . S
C1525 H1495 0.931 . S
C1525 C1522 1.357 . S
C1525 C1526 1.312 . S
C1526 H1497 0.930 . S
C1526 C1521 1.261 . S
C1526 C1525 1.312 . S
C1527 O1499 1.214 . S
C1527 O1507 1.234 . S
C1528 H1500 0.929 . S
C1528 C1531 1.391 . S
C1528 C1533 1.391 . S
C1529 H1501 0.929 . S
C1529 C1530 1.390 . S
C1529 N1532 1.391 . S
C1530 H1502 0.930 . S
C1530 C1529 1.390 . S
C1530 C1531 1.392 . S
C1531 H1503 0.929 . S
C1531 C1528 1.391 . S
C1531 C1530 1.392 . S
N1532 Co1476 2.257 . S
N1532 C1529 1.391 . S
N1532 C1533 1.388 . S
C1533 H1504 0.930 . S
C1533 C1528 1.391 . S
C1533 N1532 1.388 . S
Co1534 O1536 2.143 . S
Co1534 O1542 2.074 . S
Co1534 O1545 2.093 . S
Co1534 O1558 2.097 . S
Co1534 N1575 2.151 . S
Co1534 N1583 2.214 . S
Co1535 O1536 2.160 . S
Co1535 O1541 2.058 . S
Co1535 O1551 2.058 . S
Co1535 O1566 2.037 . S
Co1535 N1570 2.145 1_556 S
Co1535 N1591 2.257 . S
O1536 Co1534 2.143 . S
O1536 Co1535 2.160 . S
C1537 O1538 1.278 . S
C1537 O1545 1.224 . S
O1538 C1537 1.278 . S
C1539 O1540 1.245 . S
C1539 O1551 1.235 . S
O1540 C1539 1.245 . S
O1541 Co1535 2.058 . S
O1541 C1567 1.269 . S
O1542 Co1534 2.074 . S
O1542 C1567 1.257 . S
H1543 C1568 0.930 . S
H1544 C1574 0.930 . S
O1545 Co1534 2.093 . S
O1545 C1537 1.224 . S
H1546 C1578 0.929 . S
H1547 C1580 0.930 . S
H1548 C1581 0.930 . S
H1549 C1579 0.929 . S
H1550 C1582 0.928 . S
O1551 Co1535 2.058 . S
O1551 C1539 1.235 . S
H1552 C1571 0.929 . S
H1553 C1572 0.929 . S
H1554 C1584 0.931 . S
H1555 C1576 0.929 . S
H1556 C1585 0.930 . S
H1557 C1577 0.931 . S
O1558 Co1534 2.097 . S
O1558 C1586 1.214 . S
H1559 C1587 0.929 . S
H1560 C1588 0.932 . S
H1561 C1589 0.930 1_554 S
H1562 C1590 0.929 . S
H1563 C1592 0.930 . S
H1564 C1569 0.930 . S
H1565 C1573 0.930 . S
O1566 Co1535 2.037 . S
O1566 C1586 1.234 . S
C1567 O1541 1.269 . S
C1567 O1542 1.257 . S
C1568 H1543 0.930 . S
C1568 C1571 1.388 . S
C1568 C1573 1.418 . S
C1569 H1564 0.930 . S
C1569 C1572 1.404 . S
C1569 C1573 1.353 . S
N1570 Co1535 2.145 1_554 S
N1570 C1571 1.397 . S
N1570 C1572 1.334 . S
C1571 H1552 0.929 . S
C1571 C1568 1.388 . S
C1571 N1570 1.397 . S
C1572 H1553 0.929 . S
C1572 C1569 1.404 . S
C1572 N1570 1.334 . S
C1573 H1565 0.930 . S
C1573 C1568 1.418 . S
C1573 C1569 1.353 . S
C1574 H1544 0.930 . S
C1574 N1575 1.330 . S
C1574 C1576 1.446 . S
N1575 Co1534 2.151 . S
N1575 C1574 1.330 . S
N1575 C1579 1.418 . S
C1576 H1555 0.929 . S
C1576 C1574 1.446 . S
C1576 C1577 1.332 . S
C1577 H1557 0.931 . S
C1577 C1576 1.332 . S
C1577 C1578 1.267 . S
C1578 H1546 0.929 . S
C1578 C1577 1.267 . S
C1578 C1579 1.251 . S
C1579 H1549 0.929 . S
C1579 N1575 1.418 . S
C1579 C1578 1.251 . S
C1580 H1547 0.930 . S
C1580 C1582 1.406 . S
C1580 C1585 1.261 . S
C1581 H1548 0.930 . S
C1581 N1583 1.325 . S
C1581 C1584 1.357 . S
C1582 H1550 0.928 . S
C1582 C1580 1.406 . S
C1582 N1583 1.261 . S
N1583 Co1534 2.214 . S
N1583 C1581 1.325 . S
N1583 C1582 1.261 . S
C1584 H1554 0.931 . S
C1584 C1581 1.357 . S
C1584 C1585 1.312 . S
C1585 H1556 0.930 . S
C1585 C1580 1.261 . S
C1585 C1584 1.312 . S
C1586 O1558 1.214 . S
C1586 O1566 1.234 . S
C1587 H1559 0.929 . S
C1587 C1590 1.391 . S
C1587 C1592 1.391 . S
C1588 H1560 0.932 . S
C1588 C1589 1.389 1_554 S
C1588 N1591 1.389 1_554 S
C1589 H1561 0.930 1_556 S
C1589 C1588 1.389 1_556 S
C1589 C1590 1.392 . S
C1590 H1562 0.929 . S
C1590 C1587 1.391 . S
C1590 C1589 1.392 . S
N1591 Co1535 2.257 . S
N1591 C1588 1.389 1_556 S
N1591 C1592 1.388 . S
C1592 H1563 0.930 . S
C1592 C1587 1.391 . S
C1592 N1591 1.388 . S
Co1593 O1595 2.143 . S
Co1593 O1601 2.074 . S
Co1593 O1604 2.093 . S
Co1593 O1617 2.097 . S
Co1593 N1634 2.151 . S
Co1593 N1642 2.214 . S
Co1594 O1595 2.160 . S
Co1594 O1600 2.058 . S
Co1594 O1610 2.057 . S
Co1594 O1625 2.037 . S
Co1594 N1629 2.145 . S
Co1594 N1650 2.257 . S
O1595 Co1593 2.143 . S
O1595 Co1594 2.160 . S
C1596 O1597 1.278 . S
C1596 O1604 1.224 . S
O1597 C1596 1.278 . S
C1598 O1599 1.245 . S
C1598 O1610 1.232 . S
O1599 C1598 1.245 . S
O1600 Co1594 2.058 . S
O1600 C1626 1.269 . S
O1601 Co1593 2.074 . S
O1601 C1626 1.257 . S
H1602 C1627 0.930 . S
H1603 C1633 0.930 . S
O1604 Co1593 2.093 . S
O1604 C1596 1.224 . S
H1605 C1637 0.929 . S
H1606 C1639 0.930 . S
H1607 C1640 0.930 . S
H1608 C1638 0.929 . S
H1609 C1641 0.928 . S
O1610 Co1594 2.057 . S
O1610 C1598 1.232 . S
H1611 C1630 0.929 . S
H1612 C1631 0.929 . S
H1613 C1643 0.931 . S
H1614 C1635 0.929 . S
H1615 C1644 0.930 . S
H1616 C1636 0.931 . S
O1617 Co1593 2.097 . S
O1617 C1645 1.214 . S
H1618 C1646 0.929 . S
H1619 C1647 0.929 . S
H1620 C1648 0.930 . S
H1621 C1649 0.929 . S
H1622 C1651 0.930 . S
H1623 C1628 0.930 . S
H1624 C1632 0.930 . S
O1625 Co1594 2.037 . S
O1625 C1645 1.234 . S
C1626 O1600 1.269 . S
C1626 O1601 1.257 . S
C1627 H1602 0.930 . S
C1627 C1630 1.388 . S
C1627 C1632 1.418 . S
C1628 H1623 0.930 . S
C1628 C1631 1.404 . S
C1628 C1632 1.353 . S
N1629 Co1594 2.145 . S
N1629 C1630 1.397 . S
N1629 C1631 1.334 . S
C1630 H1611 0.929 . S
C1630 C1627 1.388 . S
C1630 N1629 1.397 . S
C1631 H1612 0.929 . S
C1631 C1628 1.404 . S
C1631 N1629 1.334 . S
C1632 H1624 0.930 . S
C1632 C1627 1.418 . S
C1632 C1628 1.353 . S
C1633 H1603 0.930 . S
C1633 N1634 1.330 . S
C1633 C1635 1.446 . S
N1634 Co1593 2.151 . S
N1634 C1633 1.330 . S
N1634 C1638 1.418 . S
C1635 H1614 0.929 . S
C1635 C1633 1.446 . S
C1635 C1636 1.332 . S
C1636 H1616 0.931 . S
C1636 C1635 1.332 . S
C1636 C1637 1.267 . S
C1637 H1605 0.929 . S
C1637 C1636 1.267 . S
C1637 C1638 1.251 . S
C1638 H1608 0.929 . S
C1638 N1634 1.418 . S
C1638 C1637 1.251 . S
C1639 H1606 0.930 . S
C1639 C1641 1.406 . S
C1639 C1644 1.261 . S
C1640 H1607 0.930 . S
C1640 N1642 1.325 . S
C1640 C1643 1.357 . S
C1641 H1609 0.928 . S
C1641 C1639 1.406 . S
C1641 N1642 1.261 . S
N1642 Co1593 2.214 . S
N1642 C1640 1.325 . S
N1642 C1641 1.261 . S
C1643 H1613 0.931 . S
C1643 C1640 1.357 . S
C1643 C1644 1.312 . S
C1644 H1615 0.930 . S
C1644 C1639 1.261 . S
C1644 C1643 1.312 . S
C1645 O1617 1.214 . S
C1645 O1625 1.234 . S
C1646 H1618 0.929 . S
C1646 C1649 1.391 . S
C1646 C1651 1.391 . S
C1647 H1619 0.929 . S
C1647 C1648 1.390 . S
C1647 N1650 1.391 . S
C1648 H1620 0.930 . S
C1648 C1647 1.390 . S
C1648 C1649 1.392 . S
C1649 H1621 0.929 . S
C1649 C1646 1.391 . S
C1649 C1648 1.392 . S
N1650 Co1594 2.257 . S
N1650 C1647 1.391 . S
N1650 C1651 1.388 . S
C1651 H1622 0.930 . S
C1651 C1646 1.391 . S
C1651 N1650 1.388 . S
Co1652 O1654 2.143 . S
Co1652 O1660 2.074 . S
Co1652 O1663 2.093 . S
Co1652 O1676 2.097 . S
Co1652 N1693 2.151 . S
Co1652 N1701 2.214 . S
Co1653 O1654 2.160 . S
Co1653 O1659 2.058 . S
Co1653 O1669 2.057 . S
Co1653 O1684 2.037 . S
Co1653 N1688 2.145 . S
Co1653 N1709 2.257 . S
O1654 Co1652 2.143 . S
O1654 Co1653 2.160 . S
C1655 O1656 1.278 . S
C1655 O1663 1.224 . S
O1656 C1655 1.278 . S
C1657 O1658 1.245 . S
C1657 O1669 1.232 . S
O1658 C1657 1.245 . S
O1659 Co1653 2.058 . S
O1659 C1685 1.269 . S
O1660 Co1652 2.074 . S
O1660 C1685 1.257 . S
H1661 C1686 0.930 . S
H1662 C1692 0.930 . S
O1663 Co1652 2.093 . S
O1663 C1655 1.224 . S
H1664 C1696 0.929 . S
H1665 C1698 0.930 . S
H1666 C1699 0.930 . S
H1667 C1697 0.929 . S
H1668 C1700 0.928 . S
O1669 Co1653 2.057 . S
O1669 C1657 1.232 . S
H1670 C1689 0.929 . S
H1671 C1690 0.929 . S
H1672 C1702 0.931 . S
H1673 C1694 0.929 . S
H1674 C1703 0.930 . S
H1675 C1695 0.931 . S
O1676 Co1652 2.097 . S
O1676 C1704 1.214 . S
H1677 C1705 0.929 . S
H1678 C1706 0.929 . S
H1679 C1707 0.930 . S
H1680 C1708 0.929 . S
H1681 C1710 0.930 . S
H1682 C1687 0.930 . S
H1683 C1691 0.930 . S
O1684 Co1653 2.037 . S
O1684 C1704 1.234 . S
C1685 O1659 1.269 . S
C1685 O1660 1.257 . S
C1686 H1661 0.930 . S
C1686 C1689 1.388 . S
C1686 C1691 1.418 . S
C1687 H1682 0.930 . S
C1687 C1690 1.404 . S
C1687 C1691 1.353 . S
N1688 Co1653 2.145 . S
N1688 C1689 1.397 . S
N1688 C1690 1.334 . S
C1689 H1670 0.929 . S
C1689 C1686 1.388 . S
C1689 N1688 1.397 . S
C1690 H1671 0.929 . S
C1690 C1687 1.404 . S
C1690 N1688 1.334 . S
C1691 H1683 0.930 . S
C1691 C1686 1.418 . S
C1691 C1687 1.353 . S
C1692 H1662 0.930 . S
C1692 N1693 1.330 . S
C1692 C1694 1.446 . S
N1693 Co1652 2.151 . S
N1693 C1692 1.330 . S
N1693 C1697 1.418 . S
C1694 H1673 0.929 . S
C1694 C1692 1.446 . S
C1694 C1695 1.332 . S
C1695 H1675 0.931 . S
C1695 C1694 1.332 . S
C1695 C1696 1.267 . S
C1696 H1664 0.929 . S
C1696 C1695 1.267 . S
C1696 C1697 1.251 . S
C1697 H1667 0.929 . S
C1697 N1693 1.418 . S
C1697 C1696 1.251 . S
C1698 H1665 0.930 . S
C1698 C1700 1.406 . S
C1698 C1703 1.261 . S
C1699 H1666 0.930 . S
C1699 N1701 1.325 . S
C1699 C1702 1.357 . S
C1700 H1668 0.928 . S
C1700 C1698 1.406 . S
C1700 N1701 1.261 . S
N1701 Co1652 2.214 . S
N1701 C1699 1.325 . S
N1701 C1700 1.261 . S
C1702 H1672 0.931 . S
C1702 C1699 1.357 . S
C1702 C1703 1.312 . S
C1703 H1674 0.930 . S
C1703 C1698 1.261 . S
C1703 C1702 1.312 . S
C1704 O1676 1.214 . S
C1704 O1684 1.234 . S
C1705 H1677 0.929 . S
C1705 C1708 1.391 . S
C1705 C1710 1.391 . S
C1706 H1678 0.929 . S
C1706 C1707 1.390 . S
C1706 N1709 1.391 . S
C1707 H1679 0.930 . S
C1707 C1706 1.390 . S
C1707 C1708 1.392 . S
C1708 H1680 0.929 . S
C1708 C1705 1.391 . S
C1708 C1707 1.392 . S
N1709 Co1653 2.257 . S
N1709 C1706 1.391 . S
N1709 C1710 1.388 . S
C1710 H1681 0.930 . S
C1710 C1705 1.391 . S
C1710 N1709 1.388 . S
Co1711 O1713 2.143 . S
Co1711 O1719 2.074 . S
Co1711 O1722 2.093 . S
Co1711 O1735 2.097 . S
Co1711 N1752 2.151 . S
Co1711 N1760 2.214 . S
Co1712 O1713 2.160 . S
Co1712 O1718 2.058 . S
Co1712 O1728 2.057 . S
Co1712 O1743 2.037 . S
Co1712 N1747 2.145 . S
Co1712 N1768 2.257 . S
O1713 Co1711 2.143 . S
O1713 Co1712 2.160 . S
C1714 O1715 1.278 . S
C1714 O1722 1.224 . S
O1715 C1714 1.278 . S
C1716 O1717 1.245 . S
C1716 O1728 1.232 . S
O1717 C1716 1.245 . S
O1718 Co1712 2.058 . S
O1718 C1744 1.269 . S
O1719 Co1711 2.074 . S
O1719 C1744 1.257 . S
H1720 C1745 0.930 . S
H1721 C1751 0.930 . S
O1722 Co1711 2.093 . S
O1722 C1714 1.224 . S
H1723 C1755 0.929 . S
H1724 C1757 0.930 . S
H1725 C1758 0.930 . S
H1726 C1756 0.929 . S
H1727 C1759 0.928 . S
O1728 Co1712 2.057 . S
O1728 C1716 1.232 . S
H1729 C1748 0.929 . S
H1730 C1749 0.929 . S
H1731 C1761 0.931 . S
H1732 C1753 0.929 . S
H1733 C1762 0.930 . S
H1734 C1754 0.931 . S
O1735 Co1711 2.097 . S
O1735 C1763 1.214 . S
H1736 C1764 0.929 . S
H1737 C1765 0.929 . S
H1738 C1766 0.930 . S
H1739 C1767 0.929 . S
H1740 C1769 0.930 . S
H1741 C1746 0.930 . S
H1742 C1750 0.930 . S
O1743 Co1712 2.037 . S
O1743 C1763 1.234 . S
C1744 O1718 1.269 . S
C1744 O1719 1.257 . S
C1745 H1720 0.930 . S
C1745 C1748 1.388 . S
C1745 C1750 1.418 . S
C1746 H1741 0.930 . S
C1746 C1749 1.404 . S
C1746 C1750 1.353 . S
N1747 Co1712 2.145 . S
N1747 C1748 1.397 . S
N1747 C1749 1.334 . S
C1748 H1729 0.929 . S
C1748 C1745 1.388 . S
C1748 N1747 1.397 . S
C1749 H1730 0.929 . S
C1749 C1746 1.404 . S
C1749 N1747 1.334 . S
C1750 H1742 0.930 . S
C1750 C1745 1.418 . S
C1750 C1746 1.353 . S
C1751 H1721 0.930 . S
C1751 N1752 1.330 . S
C1751 C1753 1.446 . S
N1752 Co1711 2.151 . S
N1752 C1751 1.330 . S
N1752 C1756 1.418 . S
C1753 H1732 0.929 . S
C1753 C1751 1.446 . S
C1753 C1754 1.332 . S
C1754 H1734 0.931 . S
C1754 C1753 1.332 . S
C1754 C1755 1.267 . S
C1755 H1723 0.929 . S
C1755 C1754 1.267 . S
C1755 C1756 1.251 . S
C1756 H1726 0.929 . S
C1756 N1752 1.418 . S
C1756 C1755 1.251 . S
C1757 H1724 0.930 . S
C1757 C1759 1.406 . S
C1757 C1762 1.261 . S
C1758 H1725 0.930 . S
C1758 N1760 1.325 . S
C1758 C1761 1.357 . S
C1759 H1727 0.928 . S
C1759 C1757 1.406 . S
C1759 N1760 1.261 . S
N1760 Co1711 2.214 . S
N1760 C1758 1.325 . S
N1760 C1759 1.261 . S
C1761 H1731 0.931 . S
C1761 C1758 1.357 . S
C1761 C1762 1.312 . S
C1762 H1733 0.930 . S
C1762 C1757 1.261 . S
C1762 C1761 1.312 . S
C1763 O1735 1.214 . S
C1763 O1743 1.234 . S
C1764 H1736 0.929 . S
C1764 C1767 1.391 . S
C1764 C1769 1.391 . S
C1765 H1737 0.929 . S
C1765 C1766 1.390 . S
C1765 N1768 1.391 . S
C1766 H1738 0.930 . S
C1766 C1765 1.390 . S
C1766 C1767 1.392 . S
C1767 H1739 0.929 . S
C1767 C1764 1.391 . S
C1767 C1766 1.392 . S
N1768 Co1712 2.257 . S
N1768 C1765 1.391 . S
N1768 C1769 1.388 . S
C1769 H1740 0.930 . S
C1769 C1764 1.391 . S
C1769 N1768 1.388 . S
Co1770 O1772 2.143 . S
Co1770 O1778 2.074 . S
Co1770 O1781 2.093 . S
Co1770 O1794 2.097 . S
Co1770 N1811 2.151 . S
Co1770 N1819 2.214 . S
Co1771 O1772 2.160 . S
Co1771 O1777 2.058 . S
Co1771 O1787 2.058 . S
Co1771 O1802 2.037 . S
Co1771 N1806 2.145 1_554 S
Co1771 N1827 2.257 . S
O1772 Co1770 2.143 . S
O1772 Co1771 2.160 . S
C1773 O1774 1.278 . S
C1773 O1781 1.224 . S
O1774 C1773 1.278 . S
C1775 O1776 1.245 . S
C1775 O1787 1.235 . S
O1776 C1775 1.245 . S
O1777 Co1771 2.058 . S
O1777 C1803 1.269 . S
O1778 Co1770 2.074 . S
O1778 C1803 1.257 . S
H1779 C1804 0.930 . S
H1780 C1810 0.930 . S
O1781 Co1770 2.093 . S
O1781 C1773 1.224 . S
H1782 C1814 0.929 . S
H1783 C1816 0.930 . S
H1784 C1817 0.930 . S
H1785 C1815 0.929 . S
H1786 C1818 0.928 . S
O1787 Co1771 2.058 . S
O1787 C1775 1.235 . S
H1788 C1807 0.929 . S
H1789 C1808 0.929 . S
H1790 C1820 0.931 . S
H1791 C1812 0.929 . S
H1792 C1821 0.930 . S
H1793 C1813 0.931 . S
O1794 Co1770 2.097 . S
O1794 C1822 1.214 . S
H1795 C1823 0.929 . S
H1796 C1824 0.932 . S
H1797 C1825 0.930 1_556 S
H1798 C1826 0.929 . S
H1799 C1828 0.930 . S
H1800 C1805 0.930 . S
H1801 C1809 0.930 . S
O1802 Co1771 2.037 . S
O1802 C1822 1.234 . S
C1803 O1777 1.269 . S
C1803 O1778 1.257 . S
C1804 H1779 0.930 . S
C1804 C1807 1.388 . S
C1804 C1809 1.418 . S
C1805 H1800 0.930 . S
C1805 C1808 1.404 . S
C1805 C1809 1.353 . S
N1806 Co1771 2.145 1_556 S
N1806 C1807 1.397 . S
N1806 C1808 1.334 . S
C1807 H1788 0.929 . S
C1807 C1804 1.388 . S
C1807 N1806 1.397 . S
C1808 H1789 0.929 . S
C1808 C1805 1.404 . S
C1808 N1806 1.334 . S
C1809 H1801 0.930 . S
C1809 C1804 1.418 . S
C1809 C1805 1.353 . S
C1810 H1780 0.930 . S
C1810 N1811 1.330 . S
C1810 C1812 1.446 . S
N1811 Co1770 2.151 . S
N1811 C1810 1.330 . S
N1811 C1815 1.418 . S
C1812 H1791 0.929 . S
C1812 C1810 1.446 . S
C1812 C1813 1.332 . S
C1813 H1793 0.931 . S
C1813 C1812 1.332 . S
C1813 C1814 1.267 . S
C1814 H1782 0.929 . S
C1814 C1813 1.267 . S
C1814 C1815 1.251 . S
C1815 H1785 0.929 . S
C1815 N1811 1.418 . S
C1815 C1814 1.251 . S
C1816 H1783 0.930 . S
C1816 C1818 1.406 . S
C1816 C1821 1.261 . S
C1817 H1784 0.930 . S
C1817 N1819 1.325 . S
C1817 C1820 1.357 . S
C1818 H1786 0.928 . S
C1818 C1816 1.406 . S
C1818 N1819 1.261 . S
N1819 Co1770 2.214 . S
N1819 C1817 1.325 . S
N1819 C1818 1.261 . S
C1820 H1790 0.931 . S
C1820 C1817 1.357 . S
C1820 C1821 1.312 . S
C1821 H1792 0.930 . S
C1821 C1816 1.261 . S
C1821 C1820 1.312 . S
C1822 O1794 1.214 . S
C1822 O1802 1.234 . S
C1823 H1795 0.929 . S
C1823 C1826 1.391 . S
C1823 C1828 1.391 . S
C1824 H1796 0.932 . S
C1824 C1825 1.389 1_556 S
C1824 N1827 1.389 1_556 S
C1825 H1797 0.930 1_554 S
C1825 C1824 1.389 1_554 S
C1825 C1826 1.392 . S
C1826 H1798 0.929 . S
C1826 C1823 1.391 . S
C1826 C1825 1.392 . S
N1827 Co1771 2.257 . S
N1827 C1824 1.389 1_554 S
N1827 C1828 1.388 . S
C1828 H1799 0.930 . S
C1828 C1823 1.391 . S
C1828 N1827 1.388 . S
Co1829 O1831 2.143 . S
Co1829 O1837 2.074 . S
Co1829 O1840 2.093 . S
Co1829 O1853 2.097 . S
Co1829 N1870 2.151 . S
Co1829 N1878 2.214 . S
Co1830 O1831 2.160 . S
Co1830 O1836 2.058 . S
Co1830 O1846 2.057 . S
Co1830 O1861 2.037 . S
Co1830 N1865 2.145 . S
Co1830 N1886 2.257 . S
O1831 Co1829 2.143 . S
O1831 Co1830 2.160 . S
C1832 O1833 1.278 . S
C1832 O1840 1.224 . S
O1833 C1832 1.278 . S
C1834 O1835 1.245 . S
C1834 O1846 1.232 . S
O1835 C1834 1.245 . S
O1836 Co1830 2.058 . S
O1836 C1862 1.269 . S
O1837 Co1829 2.074 . S
O1837 C1862 1.257 . S
H1838 C1863 0.930 . S
H1839 C1869 0.930 . S
O1840 Co1829 2.093 . S
O1840 C1832 1.224 . S
H1841 C1873 0.929 . S
H1842 C1875 0.930 . S
H1843 C1876 0.930 . S
H1844 C1874 0.929 . S
H1845 C1877 0.928 . S
O1846 Co1830 2.057 . S
O1846 C1834 1.232 . S
H1847 C1866 0.929 . S
H1848 C1867 0.929 . S
H1849 C1879 0.931 . S
H1850 C1871 0.929 . S
H1851 C1880 0.930 . S
H1852 C1872 0.931 . S
O1853 Co1829 2.097 . S
O1853 C1881 1.214 . S
H1854 C1882 0.929 . S
H1855 C1883 0.929 . S
H1856 C1884 0.930 . S
H1857 C1885 0.929 . S
H1858 C1887 0.930 . S
H1859 C1864 0.930 . S
H1860 C1868 0.930 . S
O1861 Co1830 2.037 . S
O1861 C1881 1.234 . S
C1862 O1836 1.269 . S
C1862 O1837 1.257 . S
C1863 H1838 0.930 . S
C1863 C1866 1.388 . S
C1863 C1868 1.418 . S
C1864 H1859 0.930 . S
C1864 C1867 1.404 . S
C1864 C1868 1.353 . S
N1865 Co1830 2.145 . S
N1865 C1866 1.397 . S
N1865 C1867 1.334 . S
C1866 H1847 0.929 . S
C1866 C1863 1.388 . S
C1866 N1865 1.397 . S
C1867 H1848 0.929 . S
C1867 C1864 1.404 . S
C1867 N1865 1.334 . S
C1868 H1860 0.930 . S
C1868 C1863 1.418 . S
C1868 C1864 1.353 . S
C1869 H1839 0.930 . S
C1869 N1870 1.330 . S
C1869 C1871 1.446 . S
N1870 Co1829 2.151 . S
N1870 C1869 1.330 . S
N1870 C1874 1.418 . S
C1871 H1850 0.929 . S
C1871 C1869 1.446 . S
C1871 C1872 1.332 . S
C1872 H1852 0.931 . S
C1872 C1871 1.332 . S
C1872 C1873 1.267 . S
C1873 H1841 0.929 . S
C1873 C1872 1.267 . S
C1873 C1874 1.251 . S
C1874 H1844 0.929 . S
C1874 N1870 1.418 . S
C1874 C1873 1.251 . S
C1875 H1842 0.930 . S
C1875 C1877 1.406 . S
C1875 C1880 1.261 . S
C1876 H1843 0.930 . S
C1876 N1878 1.325 . S
C1876 C1879 1.357 . S
C1877 H1845 0.928 . S
C1877 C1875 1.406 . S
C1877 N1878 1.261 . S
N1878 Co1829 2.214 . S
N1878 C1876 1.325 . S
N1878 C1877 1.261 . S
C1879 H1849 0.931 . S
C1879 C1876 1.357 . S
C1879 C1880 1.312 . S
C1880 H1851 0.930 . S
C1880 C1875 1.261 . S
C1880 C1879 1.312 . S
C1881 O1853 1.214 . S
C1881 O1861 1.234 . S
C1882 H1854 0.929 . S
C1882 C1885 1.391 . S
C1882 C1887 1.391 . S
C1883 H1855 0.929 . S
C1883 C1884 1.390 . S
C1883 N1886 1.391 . S
C1884 H1856 0.930 . S
C1884 C1883 1.390 . S
C1884 C1885 1.392 . S
C1885 H1857 0.929 . S
C1885 C1882 1.391 . S
C1885 C1884 1.392 . S
N1886 Co1830 2.257 . S
N1886 C1883 1.391 . S
N1886 C1887 1.388 . S
C1887 H1858 0.930 . S
C1887 C1882 1.391 . S
C1887 N1886 1.388 . S
H1888 C1894 0.930 . S
H1889 C1898 0.930 . S
H1890 C1903 0.929 . S
H1891 C1901 0.929 . S
H1892 C1896 0.929 . S
H1893 C1902 0.929 . S
C1894 H1888 0.930 . S
C1894 C1895 1.367 . S
C1894 C1902 1.378 . S
C1895 C1894 1.367 . S
C1895 C1903 1.433 . S
C1896 H1892 0.929 . S
C1896 C1898 1.378 . S
C1896 C1900 1.350 . S
C1897 C1900 1.463 . S
C1897 C1902 1.350 . S
C1897 N1905 1.427 . S
C1898 H1889 0.930 . S
C1898 C1896 1.378 . S
C1898 C1899 1.367 . S
C1899 C1898 1.367 . S
C1899 C1901 1.433 . S
C1900 C1896 1.350 . S
C1900 C1897 1.463 . S
C1900 N1904 1.427 . S
C1901 H1891 0.929 . S
C1901 C1899 1.433 . S
C1901 N1904 1.384 . S
C1902 H1893 0.929 . S
C1902 C1894 1.378 . S
C1902 C1897 1.350 . S
C1903 H1890 0.929 . S
C1903 C1895 1.433 . S
C1903 N1905 1.384 . S
N1904 C1900 1.427 . S
N1904 C1901 1.384 . S
N1905 C1897 1.427 . S
N1905 C1903 1.384 . S
H1906 C1912 0.930 . S
H1907 C1916 0.930 . S
H1908 C1921 0.929 . S
H1909 C1919 0.929 . S
H1910 C1914 0.929 . S
H1911 C1920 0.929 . S
C1912 H1906 0.930 . S
C1912 C1913 1.367 . S
C1912 C1920 1.378 . S
C1913 C1912 1.367 . S
C1913 C1921 1.433 . S
C1914 H1910 0.929 . S
C1914 C1916 1.378 . S
C1914 C1918 1.350 . S
C1915 C1918 1.463 . S
C1915 C1920 1.350 . S
C1915 N1923 1.427 . S
C1916 H1907 0.930 . S
C1916 C1914 1.378 . S
C1916 C1917 1.367 . S
C1917 C1916 1.367 . S
C1917 C1919 1.433 . S
C1918 C1914 1.350 . S
C1918 C1915 1.463 . S
C1918 N1922 1.427 . S
C1919 H1909 0.929 . S
C1919 C1917 1.433 . S
C1919 N1922 1.384 . S
C1920 H1911 0.929 . S
C1920 C1912 1.378 . S
C1920 C1915 1.350 . S
C1921 H1908 0.929 . S
C1921 C1913 1.433 . S
C1921 N1923 1.384 . S
N1922 C1918 1.427 . S
N1922 C1919 1.384 . S
N1923 C1915 1.427 . S
N1923 C1921 1.384 . S
H1924 C1930 0.930 . S
H1925 C1934 0.930 . S
H1926 C1939 0.929 . S
H1927 C1937 0.929 . S
H1928 C1932 0.929 . S
H1929 C1938 0.929 . S
C1930 H1924 0.930 . S
C1930 C1931 1.367 . S
C1930 C1938 1.378 . S
C1931 C1930 1.367 . S
C1931 C1939 1.433 . S
C1932 H1928 0.929 . S
C1932 C1934 1.378 . S
C1932 C1936 1.350 . S
C1933 C1936 1.463 . S
C1933 C1938 1.350 . S
C1933 N1941 1.427 . S
C1934 H1925 0.930 . S
C1934 C1932 1.378 . S
C1934 C1935 1.367 . S
C1935 C1934 1.367 . S
C1935 C1937 1.433 . S
C1936 C1932 1.350 . S
C1936 C1933 1.463 . S
C1936 N1940 1.427 . S
C1937 H1927 0.929 . S
C1937 C1935 1.433 . S
C1937 N1940 1.384 . S
C1938 H1929 0.929 . S
C1938 C1930 1.378 . S
C1938 C1933 1.350 . S
C1939 H1926 0.929 . S
C1939 C1931 1.433 . S
C1939 N1941 1.384 . S
N1940 C1936 1.427 . S
N1940 C1937 1.384 . S
N1941 C1933 1.427 . S
N1941 C1939 1.384 . S
H1942 C1948 0.930 . S
H1943 C1952 0.930 . S
H1944 C1957 0.929 . S
H1945 C1955 0.929 . S
H1946 C1950 0.929 . S
H1947 C1956 0.929 . S
C1948 H1942 0.930 . S
C1948 C1949 1.367 . S
C1948 C1956 1.378 . S
C1949 C1948 1.367 . S
C1949 C1957 1.433 . S
C1950 H1946 0.929 . S
C1950 C1952 1.378 . S
C1950 C1954 1.350 . S
C1951 C1954 1.463 . S
C1951 C1956 1.350 . S
C1951 N1959 1.427 . S
C1952 H1943 0.930 . S
C1952 C1950 1.378 . S
C1952 C1953 1.367 . S
C1953 C1952 1.367 . S
C1953 C1955 1.433 . S
C1954 C1950 1.350 . S
C1954 C1951 1.463 . S
C1954 N1958 1.427 . S
C1955 H1945 0.929 . S
C1955 C1953 1.433 . S
C1955 N1958 1.384 . S
C1956 H1947 0.929 . S
C1956 C1948 1.378 . S
C1956 C1951 1.350 . S
C1957 H1944 0.929 . S
C1957 C1949 1.433 . S
C1957 N1959 1.384 . S
N1958 C1954 1.427 . S
N1958 C1955 1.384 . S
N1959 C1951 1.427 . S
N1959 C1957 1.384 . S
H1960 C1966 0.930 . S
H1961 C1970 0.930 . S
H1962 C1975 0.929 . S
H1963 C1973 0.929 . S
H1964 C1968 0.929 . S
H1965 C1974 0.929 . S
C1966 H1960 0.930 . S
C1966 C1967 1.367 . S
C1966 C1974 1.378 . S
C1967 C1966 1.367 . S
C1967 C1975 1.433 . S
C1968 H1964 0.929 . S
C1968 C1970 1.378 . S
C1968 C1972 1.350 . S
C1969 C1972 1.463 . S
C1969 C1974 1.350 . S
C1969 N1977 1.427 . S
C1970 H1961 0.930 . S
C1970 C1968 1.378 . S
C1970 C1971 1.367 . S
C1971 C1970 1.367 . S
C1971 C1973 1.433 . S
C1972 C1968 1.350 . S
C1972 C1969 1.463 . S
C1972 N1976 1.427 . S
C1973 H1963 0.929 . S
C1973 C1971 1.433 . S
C1973 N1976 1.384 . S
C1974 H1965 0.929 . S
C1974 C1966 1.378 . S
C1974 C1969 1.350 . S
C1975 H1962 0.929 . S
C1975 C1967 1.433 . S
C1975 N1977 1.384 . S
N1976 C1972 1.427 . S
N1976 C1973 1.384 . S
N1977 C1969 1.427 . S
N1977 C1975 1.384 . S
H1978 C1984 0.930 . S
H1979 C1988 0.930 . S
H1980 C1993 0.929 . S
H1981 C1991 0.929 . S
H1982 C1986 0.929 . S
H1983 C1992 0.929 . S
C1984 H1978 0.930 . S
C1984 C1985 1.367 . S
C1984 C1992 1.378 . S
C1985 C1984 1.367 . S
C1985 C1993 1.433 . S
C1986 H1982 0.929 . S
C1986 C1988 1.378 . S
C1986 C1990 1.350 . S
C1987 C1990 1.463 . S
C1987 C1992 1.350 . S
C1987 N1995 1.427 . S
C1988 H1979 0.930 . S
C1988 C1986 1.378 . S
C1988 C1989 1.367 . S
C1989 C1988 1.367 . S
C1989 C1991 1.433 . S
C1990 C1986 1.350 . S
C1990 C1987 1.463 . S
C1990 N1994 1.427 . S
C1991 H1981 0.929 . S
C1991 C1989 1.433 . S
C1991 N1994 1.384 . S
C1992 H1983 0.929 . S
C1992 C1984 1.378 . S
C1992 C1987 1.350 . S
C1993 H1980 0.929 . S
C1993 C1985 1.433 . S
C1993 N1995 1.384 . S
N1994 C1990 1.427 . S
N1994 C1991 1.384 . S
N1995 C1987 1.427 . S
N1995 C1993 1.384 . S
H1996 C2002 0.930 . S
H1997 C2006 0.930 . S
H1998 C2011 0.929 . S
H1999 C2009 0.929 . S
H2000 C2004 0.929 . S
H2001 C2010 0.929 . S
C2002 H1996 0.930 . S
C2002 C2003 1.367 . S
C2002 C2010 1.378 . S
C2003 C2002 1.367 . S
C2003 C2011 1.433 . S
C2004 H2000 0.929 . S
C2004 C2006 1.378 . S
C2004 C2008 1.350 . S
C2005 C2008 1.463 . S
C2005 C2010 1.350 . S
C2005 N2013 1.427 . S
C2006 H1997 0.930 . S
C2006 C2004 1.378 . S
C2006 C2007 1.367 . S
C2007 C2006 1.367 . S
C2007 C2009 1.433 . S
C2008 C2004 1.350 . S
C2008 C2005 1.463 . S
C2008 N2012 1.427 . S
C2009 H1999 0.929 . S
C2009 C2007 1.433 . S
C2009 N2012 1.384 . S
C2010 H2001 0.929 . S
C2010 C2002 1.378 . S
C2010 C2005 1.350 . S
C2011 H1998 0.929 . S
C2011 C2003 1.433 . S
C2011 N2013 1.384 . S
N2012 C2008 1.427 . S
N2012 C2009 1.384 . S
N2013 C2005 1.427 . S
N2013 C2011 1.384 . S
H2014 C2020 0.930 . S
H2015 C2024 0.930 . S
H2016 C2029 0.929 . S
H2017 C2027 0.929 . S
H2018 C2022 0.929 . S
H2019 C2028 0.929 . S
C2020 H2014 0.930 . S
C2020 C2021 1.367 . S
C2020 C2028 1.378 . S
C2021 C2020 1.367 . S
C2021 C2029 1.433 . S
C2022 H2018 0.929 . S
C2022 C2024 1.378 . S
C2022 C2026 1.350 . S
C2023 C2026 1.463 . S
C2023 C2028 1.350 . S
C2023 N2031 1.427 . S
C2024 H2015 0.930 . S
C2024 C2022 1.378 . S
C2024 C2025 1.367 . S
C2025 C2024 1.367 . S
C2025 C2027 1.433 . S
C2026 C2022 1.350 . S
C2026 C2023 1.463 . S
C2026 N2030 1.427 . S
C2027 H2017 0.929 . S
C2027 C2025 1.433 . S
C2027 N2030 1.384 . S
C2028 H2019 0.929 . S
C2028 C2020 1.378 . S
C2028 C2023 1.350 . S
C2029 H2016 0.929 . S
C2029 C2021 1.433 . S
C2029 N2031 1.384 . S
N2030 C2026 1.427 . S
N2030 C2027 1.384 . S
N2031 C2023 1.427 . S
N2031 C2029 1.384 . S
H2032 C2038 0.930 . S
H2033 C2042 0.930 . S
H2034 C2047 0.929 . S
H2035 C2045 0.929 . S
H2036 C2040 0.929 . S
H2037 C2046 0.929 . S
C2038 H2032 0.930 . S
C2038 C2039 1.367 . S
C2038 C2046 1.378 . S
C2039 C2038 1.367 . S
C2039 C2047 1.433 . S
C2040 H2036 0.929 . S
C2040 C2042 1.378 . S
C2040 C2044 1.350 . S
C2041 C2044 1.463 . S
C2041 C2046 1.350 . S
C2041 N2049 1.427 . S
C2042 H2033 0.930 . S
C2042 C2040 1.378 . S
C2042 C2043 1.367 . S
C2043 C2042 1.367 . S
C2043 C2045 1.433 . S
C2044 C2040 1.350 . S
C2044 C2041 1.463 . S
C2044 N2048 1.427 . S
C2045 H2035 0.929 . S
C2045 C2043 1.433 . S
C2045 N2048 1.384 . S
C2046 H2037 0.929 . S
C2046 C2038 1.378 . S
C2046 C2041 1.350 . S
C2047 H2034 0.929 . S
C2047 C2039 1.433 . S
C2047 N2049 1.384 . S
N2048 C2044 1.427 . S
N2048 C2045 1.384 . S
N2049 C2041 1.427 . S
N2049 C2047 1.384 . S
H2050 C2056 0.930 . S
H2051 C2060 0.930 . S
H2052 C2065 0.929 . S
H2053 C2063 0.929 . S
H2054 C2058 0.929 . S
H2055 C2064 0.929 . S
C2056 H2050 0.930 . S
C2056 C2057 1.367 . S
C2056 C2064 1.378 . S
C2057 C2056 1.367 . S
C2057 C2065 1.433 . S
C2058 H2054 0.929 . S
C2058 C2060 1.378 . S
C2058 C2062 1.350 . S
C2059 C2062 1.463 . S
C2059 C2064 1.350 . S
C2059 N2067 1.427 . S
C2060 H2051 0.930 . S
C2060 C2058 1.378 . S
C2060 C2061 1.367 . S
C2061 C2060 1.367 . S
C2061 C2063 1.433 . S
C2062 C2058 1.350 . S
C2062 C2059 1.463 . S
C2062 N2066 1.427 . S
C2063 H2053 0.929 . S
C2063 C2061 1.433 . S
C2063 N2066 1.384 . S
C2064 H2055 0.929 . S
C2064 C2056 1.378 . S
C2064 C2059 1.350 . S
C2065 H2052 0.929 . S
C2065 C2057 1.433 . S
C2065 N2067 1.384 . S
N2066 C2062 1.427 . S
N2066 C2063 1.384 . S
N2067 C2059 1.427 . S
N2067 C2065 1.384 . S
H2068 C2074 0.930 . S
H2069 C2078 0.930 . S
H2070 C2083 0.929 . S
H2071 C2081 0.929 . S
H2072 C2076 0.929 . S
H2073 C2082 0.929 . S
C2074 H2068 0.930 . S
C2074 C2075 1.367 . S
C2074 C2082 1.378 . S
C2075 C2074 1.367 . S
C2075 C2083 1.433 . S
C2076 H2072 0.929 . S
C2076 C2078 1.378 . S
C2076 C2080 1.350 . S
C2077 C2080 1.463 . S
C2077 C2082 1.350 . S
C2077 N2085 1.427 . S
C2078 H2069 0.930 . S
C2078 C2076 1.378 . S
C2078 C2079 1.367 . S
C2079 C2078 1.367 . S
C2079 C2081 1.433 . S
C2080 C2076 1.350 . S
C2080 C2077 1.463 . S
C2080 N2084 1.427 . S
C2081 H2071 0.929 . S
C2081 C2079 1.433 . S
C2081 N2084 1.384 . S
C2082 H2073 0.929 . S
C2082 C2074 1.378 . S
C2082 C2077 1.350 . S
C2083 H2070 0.929 . S
C2083 C2075 1.433 . S
C2083 N2085 1.384 . S
N2084 C2080 1.427 . S
N2084 C2081 1.384 . S
N2085 C2077 1.427 . S
N2085 C2083 1.384 . S
H2086 C2092 0.930 . S
H2087 C2096 0.930 . S
H2088 C2101 0.929 . S
H2089 C2099 0.929 . S
H2090 C2094 0.929 . S
H2091 C2100 0.929 . S
C2092 H2086 0.930 . S
C2092 C2093 1.367 . S
C2092 C2100 1.378 . S
C2093 C2092 1.367 . S
C2093 C2101 1.433 . S
C2094 H2090 0.929 . S
C2094 C2096 1.378 . S
C2094 C2098 1.350 . S
C2095 C2098 1.463 . S
C2095 C2100 1.350 . S
C2095 N2103 1.427 . S
C2096 H2087 0.930 . S
C2096 C2094 1.378 . S
C2096 C2097 1.367 . S
C2097 C2096 1.367 . S
C2097 C2099 1.433 . S
C2098 C2094 1.350 . S
C2098 C2095 1.463 . S
C2098 N2102 1.427 . S
C2099 H2089 0.929 . S
C2099 C2097 1.433 . S
C2099 N2102 1.384 . S
C2100 H2091 0.929 . S
C2100 C2092 1.378 . S
C2100 C2095 1.350 . S
C2101 H2088 0.929 . S
C2101 C2093 1.433 . S
C2101 N2103 1.384 . S
N2102 C2098 1.427 . S
N2102 C2099 1.384 . S
N2103 C2095 1.427 . S
N2103 C2101 1.384 . S
H2104 C2110 0.930 . S
H2105 C2114 0.930 . S
H2106 C2119 0.929 . S
H2107 C2117 0.929 . S
H2108 C2112 0.929 . S
H2109 C2118 0.929 . S
C2110 H2104 0.930 . S
C2110 C2111 1.367 . S
C2110 C2118 1.378 . S
C2111 C2110 1.367 . S
C2111 C2119 1.433 . S
C2112 H2108 0.929 . S
C2112 C2114 1.378 . S
C2112 C2116 1.350 . S
C2113 C2116 1.463 . S
C2113 C2118 1.350 . S
C2113 N2121 1.427 . S
C2114 H2105 0.930 . S
C2114 C2112 1.378 . S
C2114 C2115 1.367 . S
C2115 C2114 1.367 . S
C2115 C2117 1.433 . S
C2116 C2112 1.350 . S
C2116 C2113 1.463 . S
C2116 N2120 1.427 . S
C2117 H2107 0.929 . S
C2117 C2115 1.433 . S
C2117 N2120 1.384 . S
C2118 H2109 0.929 . S
C2118 C2110 1.378 . S
C2118 C2113 1.350 . S
C2119 H2106 0.929 . S
C2119 C2111 1.433 . S
C2119 N2121 1.384 . S
N2120 C2116 1.427 . S
N2120 C2117 1.384 . S
N2121 C2113 1.427 . S
N2121 C2119 1.384 . S
H2122 C2128 0.930 . S
H2123 C2132 0.930 . S
H2124 C2137 0.929 . S
H2125 C2135 0.929 . S
H2126 C2130 0.929 . S
H2127 C2136 0.929 . S
C2128 H2122 0.930 . S
C2128 C2129 1.367 . S
C2128 C2136 1.378 . S
C2129 C2128 1.367 . S
C2129 C2137 1.433 . S
C2130 H2126 0.929 . S
C2130 C2132 1.378 . S
C2130 C2134 1.350 . S
C2131 C2134 1.463 . S
C2131 C2136 1.350 . S
C2131 N2139 1.427 . S
C2132 H2123 0.930 . S
C2132 C2130 1.378 . S
C2132 C2133 1.367 . S
C2133 C2132 1.367 . S
C2133 C2135 1.433 . S
C2134 C2130 1.350 . S
C2134 C2131 1.463 . S
C2134 N2138 1.427 . S
C2135 H2125 0.929 . S
C2135 C2133 1.433 . S
C2135 N2138 1.384 . S
C2136 H2127 0.929 . S
C2136 C2128 1.378 . S
C2136 C2131 1.350 . S
C2137 H2124 0.929 . S
C2137 C2129 1.433 . S
C2137 N2139 1.384 . S
N2138 C2134 1.427 . S
N2138 C2135 1.384 . S
N2139 C2131 1.427 . S
N2139 C2137 1.384 . S
H2140 C2146 0.930 . S
H2141 C2150 0.930 . S
H2142 C2155 0.929 . S
H2143 C2153 0.929 . S
H2144 C2148 0.929 . S
H2145 C2154 0.929 . S
C2146 H2140 0.930 . S
C2146 C2147 1.367 . S
C2146 C2154 1.378 . S
C2147 C2146 1.367 . S
C2147 C2155 1.433 . S
C2148 H2144 0.929 . S
C2148 C2150 1.378 . S
C2148 C2152 1.350 . S
C2149 C2152 1.463 . S
C2149 C2154 1.350 . S
C2149 N2157 1.427 . S
C2150 H2141 0.930 . S
C2150 C2148 1.378 . S
C2150 C2151 1.367 . S
C2151 C2150 1.367 . S
C2151 C2153 1.433 . S
C2152 C2148 1.350 . S
C2152 C2149 1.463 . S
C2152 N2156 1.427 . S
C2153 H2143 0.929 . S
C2153 C2151 1.433 . S
C2153 N2156 1.384 . S
C2154 H2145 0.929 . S
C2154 C2146 1.378 . S
C2154 C2149 1.350 . S
C2155 H2142 0.929 . S
C2155 C2147 1.433 . S
C2155 N2157 1.384 . S
N2156 C2152 1.427 . S
N2156 C2153 1.384 . S
N2157 C2149 1.427 . S
N2157 C2155 1.384 . S
H2158 C2164 0.930 . S
H2159 C2168 0.930 . S
H2160 C2173 0.929 . S
H2161 C2171 0.929 . S
H2162 C2166 0.929 . S
H2163 C2172 0.929 . S
C2164 H2158 0.930 . S
C2164 C2165 1.367 . S
C2164 C2172 1.378 . S
C2165 C2164 1.367 . S
C2165 C2173 1.433 . S
C2166 H2162 0.929 . S
C2166 C2168 1.378 . S
C2166 C2170 1.350 . S
C2167 C2170 1.463 . S
C2167 C2172 1.350 . S
C2167 N2175 1.427 . S
C2168 H2159 0.930 . S
C2168 C2166 1.378 . S
C2168 C2169 1.367 . S
C2169 C2168 1.367 . S
C2169 C2171 1.433 . S
C2170 C2166 1.350 . S
C2170 C2167 1.463 . S
C2170 N2174 1.427 . S
C2171 H2161 0.929 . S
C2171 C2169 1.433 . S
C2171 N2174 1.384 . S
C2172 H2163 0.929 . S
C2172 C2164 1.378 . S
C2172 C2167 1.350 . S
C2173 H2160 0.929 . S
C2173 C2165 1.433 . S
C2173 N2175 1.384 . S
N2174 C2170 1.427 . S
N2174 C2171 1.384 . S
N2175 C2167 1.427 . S
N2175 C2173 1.384 . S
H2176 C2182 0.930 . S
H2177 C2186 0.930 . S
H2178 C2191 0.929 . S
H2179 C2189 0.929 . S
H2180 C2184 0.929 . S
H2181 C2190 0.929 . S
C2182 H2176 0.930 . S
C2182 C2183 1.367 . S
C2182 C2190 1.378 . S
C2183 C2182 1.367 . S
C2183 C2191 1.433 1_554 S
C2184 H2180 0.929 . S
C2184 C2186 1.378 . S
C2184 C2188 1.350 1_556 S
C2185 C2188 1.463 1_455 S
C2185 C2190 1.350 . S
C2185 N2193 1.427 1_554 S
C2186 H2177 0.930 . S
C2186 C2184 1.378 . S
C2186 C2187 1.367 1_556 S
C2187 C2186 1.367 1_554 S
C2187 C2189 1.433 . S
C2188 C2184 1.350 1_554 S
C2188 C2185 1.463 1_655 S
C2188 N2192 1.427 . S
C2189 H2179 0.929 . S
C2189 C2187 1.433 . S
C2189 N2192 1.384 . S
C2190 H2181 0.929 . S
C2190 C2182 1.378 . S
C2190 C2185 1.350 . S
C2191 H2178 0.929 . S
C2191 C2183 1.433 1_556 S
C2191 N2193 1.384 . S
N2192 C2188 1.427 . S
N2192 C2189 1.384 . S
N2193 C2185 1.427 1_556 S
N2193 C2191 1.384 . S
H2194 C2200 0.930 . S
H2195 C2204 0.930 . S
H2196 C2209 0.929 . S
H2197 C2207 0.929 . S
H2198 C2202 0.929 . S
H2199 C2208 0.929 . S
C2200 H2194 0.930 . S
C2200 C2201 1.367 . S
C2200 C2208 1.378 . S
C2201 C2200 1.367 . S
C2201 C2209 1.433 . S
C2202 H2198 0.929 . S
C2202 C2204 1.378 . S
C2202 C2206 1.350 . S
C2203 C2206 1.463 . S
C2203 C2208 1.350 . S
C2203 N2211 1.427 . S
C2204 H2195 0.930 . S
C2204 C2202 1.378 . S
C2204 C2205 1.367 . S
C2205 C2204 1.367 . S
C2205 C2207 1.433 . S
C2206 C2202 1.350 . S
C2206 C2203 1.463 . S
C2206 N2210 1.427 . S
C2207 H2197 0.929 . S
C2207 C2205 1.433 . S
C2207 N2210 1.384 . S
C2208 H2199 0.929 . S
C2208 C2200 1.378 . S
C2208 C2203 1.350 . S
C2209 H2196 0.929 . S
C2209 C2201 1.433 . S
C2209 N2211 1.384 . S
N2210 C2206 1.427 . S
N2210 C2207 1.384 . S
N2211 C2203 1.427 . S
N2211 C2209 1.384 . S
H2212 C2218 0.930 . S
H2213 C2222 0.930 . S
H2214 C2227 0.929 . S
H2215 C2225 0.929 . S
H2216 C2220 0.929 . S
H2217 C2226 0.929 . S
C2218 H2212 0.930 . S
C2218 C2219 1.367 . S
C2218 C2226 1.378 . S
C2219 C2218 1.367 . S
C2219 C2227 1.433 . S
C2220 H2216 0.929 . S
C2220 C2222 1.378 . S
C2220 C2224 1.350 . S
C2221 C2224 1.463 . S
C2221 C2226 1.350 . S
C2221 N2229 1.427 . S
C2222 H2213 0.930 . S
C2222 C2220 1.378 . S
C2222 C2223 1.367 . S
C2223 C2222 1.367 . S
C2223 C2225 1.433 . S
C2224 C2220 1.350 . S
C2224 C2221 1.463 . S
C2224 N2228 1.427 . S
C2225 H2215 0.929 . S
C2225 C2223 1.433 . S
C2225 N2228 1.384 . S
C2226 H2217 0.929 . S
C2226 C2218 1.378 . S
C2226 C2221 1.350 . S
C2227 H2214 0.929 . S
C2227 C2219 1.433 . S
C2227 N2229 1.384 . S
N2228 C2224 1.427 . S
N2228 C2225 1.384 . S
N2229 C2221 1.427 . S
N2229 C2227 1.384 . S
H2230 C2236 0.930 . S
H2231 C2240 0.930 . S
H2232 C2245 0.929 . S
H2233 C2243 0.929 . S
H2234 C2238 0.929 . S
H2235 C2244 0.929 . S
C2236 H2230 0.930 . S
C2236 C2237 1.367 . S
C2236 C2244 1.378 . S
C2237 C2236 1.367 . S
C2237 C2245 1.433 . S
C2238 H2234 0.929 . S
C2238 C2240 1.378 . S
C2238 C2242 1.350 . S
C2239 C2242 1.463 . S
C2239 C2244 1.350 . S
C2239 N2247 1.427 . S
C2240 H2231 0.930 . S
C2240 C2238 1.378 . S
C2240 C2241 1.367 . S
C2241 C2240 1.367 . S
C2241 C2243 1.433 . S
C2242 C2238 1.350 . S
C2242 C2239 1.463 . S
C2242 N2246 1.427 . S
C2243 H2233 0.929 . S
C2243 C2241 1.433 . S
C2243 N2246 1.384 . S
C2244 H2235 0.929 . S
C2244 C2236 1.378 . S
C2244 C2239 1.350 . S
C2245 H2232 0.929 . S
C2245 C2237 1.433 . S
C2245 N2247 1.384 . S
N2246 C2242 1.427 . S
N2246 C2243 1.384 . S
N2247 C2239 1.427 . S
N2247 C2245 1.384 . S
H2248 C2254 0.930 . S
H2249 C2258 0.930 . S
H2250 C2263 0.929 . S
H2251 C2261 0.929 . S
H2252 C2256 0.929 . S
H2253 C2262 0.929 . S
C2254 H2248 0.930 . S
C2254 C2255 1.367 . S
C2254 C2262 1.378 . S
C2255 C2254 1.367 . S
C2255 C2263 1.433 . S
C2256 H2252 0.929 . S
C2256 C2258 1.378 . S
C2256 C2260 1.350 . S
C2257 C2260 1.463 1_655 S
C2257 C2262 1.350 . S
C2257 N2265 1.427 . S
C2258 H2249 0.930 . S
C2258 C2256 1.378 . S
C2258 C2259 1.367 . S
C2259 C2258 1.367 . S
C2259 C2261 1.433 . S
C2260 C2256 1.350 . S
C2260 C2257 1.463 1_455 S
C2260 N2264 1.427 . S
C2261 H2251 0.929 . S
C2261 C2259 1.433 . S
C2261 N2264 1.384 . S
C2262 H2253 0.929 . S
C2262 C2254 1.378 . S
C2262 C2257 1.350 . S
C2263 H2250 0.929 . S
C2263 C2255 1.433 . S
C2263 N2265 1.384 . S
N2264 C2260 1.427 . S
N2264 C2261 1.384 . S
N2265 C2257 1.427 . S
N2265 C2263 1.384 . S
H2266 C2272 0.930 . S
H2267 C2276 0.930 . S
H2268 C2281 0.929 . S
H2269 C2279 0.929 . S
H2270 C2274 0.929 . S
H2271 C2280 0.929 . S
C2272 H2266 0.930 . S
C2272 C2273 1.367 . S
C2272 C2280 1.378 . S
C2273 C2272 1.367 . S
C2273 C2281 1.433 . S
C2274 H2270 0.929 . S
C2274 C2276 1.378 . S
C2274 C2278 1.350 . S
C2275 C2278 1.463 . S
C2275 C2280 1.350 . S
C2275 N2283 1.427 . S
C2276 H2267 0.930 . S
C2276 C2274 1.378 . S
C2276 C2277 1.367 . S
C2277 C2276 1.367 . S
C2277 C2279 1.433 . S
C2278 C2274 1.350 . S
C2278 C2275 1.463 . S
C2278 N2282 1.427 . S
C2279 H2269 0.929 . S
C2279 C2277 1.433 . S
C2279 N2282 1.384 . S
C2280 H2271 0.929 . S
C2280 C2272 1.378 . S
C2280 C2275 1.350 . S
C2281 H2268 0.929 . S
C2281 C2273 1.433 . S
C2281 N2283 1.384 . S
N2282 C2278 1.427 . S
N2282 C2279 1.384 . S
N2283 C2275 1.427 . S
N2283 C2281 1.384 . S
H2284 C2290 0.930 . S
H2285 C2294 0.930 . S
H2286 C2299 0.929 . S
H2287 C2297 0.929 . S
H2288 C2292 0.929 . S
H2289 C2298 0.929 . S
C2290 H2284 0.930 . S
C2290 C2291 1.367 . S
C2290 C2298 1.378 . S
C2291 C2290 1.367 . S
C2291 C2299 1.433 . S
C2292 H2288 0.929 . S
C2292 C2294 1.378 . S
C2292 C2296 1.350 . S
C2293 C2296 1.463 . S
C2293 C2298 1.350 . S
C2293 N2301 1.427 . S
C2294 H2285 0.930 . S
C2294 C2292 1.378 . S
C2294 C2295 1.367 . S
C2295 C2294 1.367 . S
C2295 C2297 1.433 . S
C2296 C2292 1.350 . S
C2296 C2293 1.463 . S
C2296 N2300 1.427 . S
C2297 H2287 0.929 . S
C2297 C2295 1.433 . S
C2297 N2300 1.384 . S
C2298 H2289 0.929 . S
C2298 C2290 1.378 . S
C2298 C2293 1.350 . S
C2299 H2286 0.929 . S
C2299 C2291 1.433 . S
C2299 N2301 1.384 . S
N2300 C2296 1.427 . S
N2300 C2297 1.384 . S
N2301 C2293 1.427 . S
N2301 C2299 1.384 . S
H2302 C2308 0.930 . S
H2303 C2312 0.930 . S
H2304 C2317 0.929 . S
H2305 C2315 0.929 . S
H2306 C2310 0.929 . S
H2307 C2316 0.929 . S
C2308 H2302 0.930 . S
C2308 C2309 1.367 . S
C2308 C2316 1.378 . S
C2309 C2308 1.367 . S
C2309 C2317 1.433 . S
C2310 H2306 0.929 . S
C2310 C2312 1.378 . S
C2310 C2314 1.350 . S
C2311 C2314 1.463 . S
C2311 C2316 1.350 . S
C2311 N2319 1.427 . S
C2312 H2303 0.930 . S
C2312 C2310 1.378 . S
C2312 C2313 1.367 . S
C2313 C2312 1.367 . S
C2313 C2315 1.433 . S
C2314 C2310 1.350 . S
C2314 C2311 1.463 . S
C2314 N2318 1.427 . S
C2315 H2305 0.929 . S
C2315 C2313 1.433 . S
C2315 N2318 1.384 . S
C2316 H2307 0.929 . S
C2316 C2308 1.378 . S
C2316 C2311 1.350 . S
C2317 H2304 0.929 . S
C2317 C2309 1.433 . S
C2317 N2319 1.384 . S
N2318 C2314 1.427 . S
N2318 C2315 1.384 . S
N2319 C2311 1.427 . S
N2319 C2317 1.384 . S
H2320 C2326 0.930 . S
H2321 C2330 0.930 . S
H2322 C2335 0.929 . S
H2323 C2333 0.929 . S
H2324 C2328 0.929 . S
H2325 C2334 0.929 . S
C2326 H2320 0.930 . S
C2326 C2327 1.367 . S
C2326 C2334 1.378 . S
C2327 C2326 1.367 . S
C2327 C2335 1.433 . S
C2328 H2324 0.929 . S
C2328 C2330 1.378 . S
C2328 C2332 1.350 . S
C2329 C2332 1.463 . S
C2329 C2334 1.350 . S
C2329 N2337 1.427 . S
C2330 H2321 0.930 . S
C2330 C2328 1.378 . S
C2330 C2331 1.367 . S
C2331 C2330 1.367 . S
C2331 C2333 1.433 . S
C2332 C2328 1.350 . S
C2332 C2329 1.463 . S
C2332 N2336 1.427 . S
C2333 H2323 0.929 . S
C2333 C2331 1.433 . S
C2333 N2336 1.384 . S
C2334 H2325 0.929 . S
C2334 C2326 1.378 . S
C2334 C2329 1.350 . S
C2335 H2322 0.929 . S
C2335 C2327 1.433 . S
C2335 N2337 1.384 . S
N2336 C2332 1.427 . S
N2336 C2333 1.384 . S
N2337 C2329 1.427 . S
N2337 C2335 1.384 . S
H2338 C2344 0.930 . S
H2339 C2348 0.930 . S
H2340 C2353 0.929 . S
H2341 C2351 0.929 . S
H2342 C2346 0.929 . S
H2343 C2352 0.929 . S
C2344 H2338 0.930 . S
C2344 C2345 1.367 . S
C2344 C2352 1.378 . S
C2345 C2344 1.367 . S
C2345 C2353 1.433 . S
C2346 H2342 0.929 . S
C2346 C2348 1.378 . S
C2346 C2350 1.350 . S
C2347 C2350 1.463 . S
C2347 C2352 1.350 . S
C2347 N2355 1.427 . S
C2348 H2339 0.930 . S
C2348 C2346 1.378 . S
C2348 C2349 1.367 . S
C2349 C2348 1.367 . S
C2349 C2351 1.433 . S
C2350 C2346 1.350 . S
C2350 C2347 1.463 . S
C2350 N2354 1.427 . S
C2351 H2341 0.929 . S
C2351 C2349 1.433 . S
C2351 N2354 1.384 . S
C2352 H2343 0.929 . S
C2352 C2344 1.378 . S
C2352 C2347 1.350 . S
C2353 H2340 0.929 . S
C2353 C2345 1.433 . S
C2353 N2355 1.384 . S
N2354 C2350 1.427 . S
N2354 C2351 1.384 . S
N2355 C2347 1.427 . S
N2355 C2353 1.384 . S
H2356 C2362 0.930 . S
H2357 C2366 0.930 . S
H2358 C2371 0.929 . S
H2359 C2369 0.929 . S
H2360 C2364 0.929 . S
H2361 C2370 0.929 . S
C2362 H2356 0.930 . S
C2362 C2363 1.367 . S
C2362 C2370 1.378 . S
C2363 C2362 1.367 . S
C2363 C2371 1.433 . S
C2364 H2360 0.929 . S
C2364 C2366 1.378 . S
C2364 C2368 1.350 . S
C2365 C2368 1.463 . S
C2365 C2370 1.350 . S
C2365 N2373 1.427 . S
C2366 H2357 0.930 . S
C2366 C2364 1.378 . S
C2366 C2367 1.367 . S
C2367 C2366 1.367 . S
C2367 C2369 1.433 . S
C2368 C2364 1.350 . S
C2368 C2365 1.463 . S
C2368 N2372 1.427 . S
C2369 H2359 0.929 . S
C2369 C2367 1.433 . S
C2369 N2372 1.384 . S
C2370 H2361 0.929 . S
C2370 C2362 1.378 . S
C2370 C2365 1.350 . S
C2371 H2358 0.929 . S
C2371 C2363 1.433 . S
C2371 N2373 1.384 . S
N2372 C2368 1.427 . S
N2372 C2369 1.384 . S
N2373 C2365 1.427 . S
N2373 C2371 1.384 . S
H2374 C2380 0.930 . S
H2375 C2384 0.930 . S
H2376 C2389 0.929 . S
H2377 C2387 0.929 . S
H2378 C2382 0.929 . S
H2379 C2388 0.929 . S
C2380 H2374 0.930 . S
C2380 C2381 1.367 . S
C2380 C2388 1.378 . S
C2381 C2380 1.367 . S
C2381 C2389 1.433 . S
C2382 H2378 0.929 . S
C2382 C2384 1.378 . S
C2382 C2386 1.350 . S
C2383 C2386 1.463 . S
C2383 C2388 1.350 . S
C2383 N2391 1.427 . S
C2384 H2375 0.930 . S
C2384 C2382 1.378 . S
C2384 C2385 1.367 . S
C2385 C2384 1.367 . S
C2385 C2387 1.433 . S
C2386 C2382 1.350 . S
C2386 C2383 1.463 . S
C2386 N2390 1.427 . S
C2387 H2377 0.929 . S
C2387 C2385 1.433 . S
C2387 N2390 1.384 . S
C2388 H2379 0.929 . S
C2388 C2380 1.378 . S
C2388 C2383 1.350 . S
C2389 H2376 0.929 . S
C2389 C2381 1.433 . S
C2389 N2391 1.384 . S
N2390 C2386 1.427 . S
N2390 C2387 1.384 . S
N2391 C2383 1.427 . S
N2391 C2389 1.384 . S
H2392 C2398 0.930 . S
H2393 C2402 0.930 . S
H2394 C2407 0.929 . S
H2395 C2405 0.929 . S
H2396 C2400 0.929 . S
H2397 C2406 0.929 . S
C2398 H2392 0.930 . S
C2398 C2399 1.367 . S
C2398 C2406 1.378 . S
C2399 C2398 1.367 . S
C2399 C2407 1.433 . S
C2400 H2396 0.929 . S
C2400 C2402 1.378 . S
C2400 C2404 1.350 . S
C2401 C2404 1.463 . S
C2401 C2406 1.350 . S
C2401 N2409 1.427 . S
C2402 H2393 0.930 . S
C2402 C2400 1.378 . S
C2402 C2403 1.367 . S
C2403 C2402 1.367 . S
C2403 C2405 1.433 . S
C2404 C2400 1.350 . S
C2404 C2401 1.463 . S
C2404 N2408 1.427 . S
C2405 H2395 0.929 . S
C2405 C2403 1.433 . S
C2405 N2408 1.384 . S
C2406 H2397 0.929 . S
C2406 C2398 1.378 . S
C2406 C2401 1.350 . S
C2407 H2394 0.929 . S
C2407 C2399 1.433 . S
C2407 N2409 1.384 . S
N2408 C2404 1.427 . S
N2408 C2405 1.384 . S
N2409 C2401 1.427 . S
N2409 C2407 1.384 . S
H2410 C2416 0.930 . S
H2411 C2420 0.930 . S
H2412 C2425 0.929 . S
H2413 C2423 0.929 . S
H2414 C2418 0.929 . S
H2415 C2424 0.929 . S
C2416 H2410 0.930 . S
C2416 C2417 1.367 . S
C2416 C2424 1.378 . S
C2417 C2416 1.367 . S
C2417 C2425 1.433 1_554 S
C2418 H2414 0.929 . S
C2418 C2420 1.378 . S
C2418 C2422 1.350 1_556 S
C2419 C2422 1.463 1_655 S
C2419 C2424 1.350 . S
C2419 N2427 1.427 1_554 S
C2420 H2411 0.930 . S
C2420 C2418 1.378 . S
C2420 C2421 1.367 1_556 S
C2421 C2420 1.367 1_554 S
C2421 C2423 1.433 . S
C2422 C2418 1.350 1_554 S
C2422 C2419 1.463 1_455 S
C2422 N2426 1.427 . S
C2423 H2413 0.929 . S
C2423 C2421 1.433 . S
C2423 N2426 1.384 . S
C2424 H2415 0.929 . S
C2424 C2416 1.378 . S
C2424 C2419 1.350 . S
C2425 H2412 0.929 . S
C2425 C2417 1.433 1_556 S
C2425 N2427 1.384 . S
N2426 C2422 1.427 . S
N2426 C2423 1.384 . S
N2427 C2419 1.427 1_556 S
N2427 C2425 1.384 . S
H2428 C2434 0.930 . S
H2429 C2438 0.930 . S
H2430 C2443 0.929 . S
H2431 C2441 0.929 . S
H2432 C2436 0.929 . S
H2433 C2442 0.929 . S
C2434 H2428 0.930 . S
C2434 C2435 1.367 . S
C2434 C2442 1.378 . S
C2435 C2434 1.367 . S
C2435 C2443 1.433 . S
C2436 H2432 0.929 . S
C2436 C2438 1.378 . S
C2436 C2440 1.350 . S
C2437 C2440 1.463 . S
C2437 C2442 1.350 . S
C2437 N2445 1.427 . S
C2438 H2429 0.930 . S
C2438 C2436 1.378 . S
C2438 C2439 1.367 . S
C2439 C2438 1.367 . S
C2439 C2441 1.433 . S
C2440 C2436 1.350 . S
C2440 C2437 1.463 . S
C2440 N2444 1.427 . S
C2441 H2431 0.929 . S
C2441 C2439 1.433 . S
C2441 N2444 1.384 . S
C2442 H2433 0.929 . S
C2442 C2434 1.378 . S
C2442 C2437 1.350 . S
C2443 H2430 0.929 . S
C2443 C2435 1.433 . S
C2443 N2445 1.384 . S
N2444 C2440 1.427 . S
N2444 C2441 1.384 . S
N2445 C2437 1.427 . S
N2445 C2443 1.384 . S
H2446 C2452 0.930 . S
H2447 C2456 0.930 . S
H2448 C2461 0.929 . S
H2449 C2459 0.929 . S
H2450 C2454 0.929 . S
H2451 C2460 0.929 . S
C2452 H2446 0.930 . S
C2452 C2453 1.367 . S
C2452 C2460 1.378 . S
C2453 C2452 1.367 . S
C2453 C2461 1.433 1_556 S
C2454 H2450 0.929 . S
C2454 C2456 1.378 . S
C2454 C2458 1.350 1_554 S
C2455 C2458 1.463 1_455 S
C2455 C2460 1.350 . S
C2455 N2463 1.427 1_556 S
C2456 H2447 0.930 . S
C2456 C2454 1.378 . S
C2456 C2457 1.367 1_554 S
C2457 C2456 1.367 1_556 S
C2457 C2459 1.433 . S
C2458 C2454 1.350 1_556 S
C2458 C2455 1.463 1_655 S
C2458 N2462 1.427 . S
C2459 H2449 0.929 . S
C2459 C2457 1.433 . S
C2459 N2462 1.384 . S
C2460 H2451 0.929 . S
C2460 C2452 1.378 . S
C2460 C2455 1.350 . S
C2461 H2448 0.929 . S
C2461 C2453 1.433 1_554 S
C2461 N2463 1.384 . S
N2462 C2458 1.427 . S
N2462 C2459 1.384 . S
N2463 C2455 1.427 1_554 S
N2463 C2461 1.384 . S
H2464 C2470 0.930 . S
H2465 C2474 0.930 . S
H2466 C2479 0.929 . S
H2467 C2477 0.929 . S
H2468 C2472 0.929 . S
H2469 C2478 0.929 . S
C2470 H2464 0.930 . S
C2470 C2471 1.367 1_554 S
C2470 C2478 1.378 . S
C2471 C2470 1.367 1_556 S
C2471 C2479 1.433 . S
C2472 H2468 0.929 . S
C2472 C2474 1.378 . S
C2472 C2476 1.318 1_556 S
C2473 C2476 1.459 1_556 S
C2473 C2478 1.318 1_556 S
C2473 N2481 1.465 . S
C2474 H2465 0.930 . S
C2474 C2472 1.378 . S
C2474 C2475 1.367 1_556 S
C2475 C2474 1.367 1_554 S
C2475 C2477 1.433 . S
C2476 C2472 1.318 1_554 S
C2476 C2473 1.459 1_554 S
C2476 N2480 1.465 . S
C2477 H2467 0.929 . S
C2477 C2475 1.433 . S
C2477 N2480 1.384 . S
C2478 H2469 0.929 . S
C2478 C2470 1.378 . S
C2478 C2473 1.318 1_554 S
C2479 H2466 0.929 . S
C2479 C2471 1.433 . S
C2479 N2481 1.384 . S
N2480 C2476 1.465 . S
N2480 C2477 1.384 . S
N2481 C2473 1.465 . S
N2481 C2479 1.384 . S
H2482 C2488 0.930 . S
H2483 C2492 0.930 . S
H2484 C2497 0.929 . S
H2485 C2495 0.929 . S
H2486 C2490 0.929 . S
H2487 C2496 0.929 . S
C2488 H2482 0.930 . S
C2488 C2489 1.367 . S
C2488 C2496 1.378 . S
C2489 C2488 1.367 . S
C2489 C2497 1.433 . S
C2490 H2486 0.929 . S
C2490 C2492 1.378 . S
C2490 C2494 1.350 . S
C2491 C2494 1.463 . S
C2491 C2496 1.350 . S
C2491 N2499 1.427 . S
C2492 H2483 0.930 . S
C2492 C2490 1.378 . S
C2492 C2493 1.367 . S
C2493 C2492 1.367 . S
C2493 C2495 1.433 . S
C2494 C2490 1.350 . S
C2494 C2491 1.463 . S
C2494 N2498 1.427 . S
C2495 H2485 0.929 . S
C2495 C2493 1.433 . S
C2495 N2498 1.384 . S
C2496 H2487 0.929 . S
C2496 C2488 1.378 . S
C2496 C2491 1.350 . S
C2497 H2484 0.929 . S
C2497 C2489 1.433 . S
C2497 N2499 1.384 . S
N2498 C2494 1.427 . S
N2498 C2495 1.384 . S
N2499 C2491 1.427 . S
N2499 C2497 1.384 . S
H2500 C2506 0.930 . S
H2501 C2510 0.930 . S
H2502 C2515 0.929 . S
H2503 C2513 0.929 . S
H2504 C2508 0.929 . S
H2505 C2514 0.929 . S
C2506 H2500 0.930 . S
C2506 C2507 1.367 . S
C2506 C2514 1.378 . S
C2507 C2506 1.367 . S
C2507 C2515 1.433 . S
C2508 H2504 0.929 . S
C2508 C2510 1.378 . S
C2508 C2512 1.350 . S
C2509 C2512 1.463 . S
C2509 C2514 1.350 . S
C2509 N2517 1.427 . S
C2510 H2501 0.930 . S
C2510 C2508 1.378 . S
C2510 C2511 1.367 . S
C2511 C2510 1.367 . S
C2511 C2513 1.433 . S
C2512 C2508 1.350 . S
C2512 C2509 1.463 . S
C2512 N2516 1.427 . S
C2513 H2503 0.929 . S
C2513 C2511 1.433 . S
C2513 N2516 1.384 . S
C2514 H2505 0.929 . S
C2514 C2506 1.378 . S
C2514 C2509 1.350 . S
C2515 H2502 0.929 . S
C2515 C2507 1.433 . S
C2515 N2517 1.384 . S
N2516 C2512 1.427 . S
N2516 C2513 1.384 . S
N2517 C2509 1.427 . S
N2517 C2515 1.384 . S
H2518 C2524 0.930 . S
H2519 C2528 0.930 . S
H2520 C2533 0.929 . S
H2521 C2531 0.929 . S
H2522 C2526 0.929 . S
H2523 C2532 0.929 . S
C2524 H2518 0.930 . S
C2524 C2525 1.367 . S
C2524 C2532 1.378 . S
C2525 C2524 1.367 . S
C2525 C2533 1.433 . S
C2526 H2522 0.929 . S
C2526 C2528 1.378 . S
C2526 C2530 1.350 . S
C2527 C2530 1.463 . S
C2527 C2532 1.350 . S
C2527 N2535 1.427 . S
C2528 H2519 0.930 . S
C2528 C2526 1.378 . S
C2528 C2529 1.367 . S
C2529 C2528 1.367 . S
C2529 C2531 1.433 . S
C2530 C2526 1.350 . S
C2530 C2527 1.463 . S
C2530 N2534 1.427 . S
C2531 H2521 0.929 . S
C2531 C2529 1.433 . S
C2531 N2534 1.384 . S
C2532 H2523 0.929 . S
C2532 C2524 1.378 . S
C2532 C2527 1.350 . S
C2533 H2520 0.929 . S
C2533 C2525 1.433 . S
C2533 N2535 1.384 . S
N2534 C2530 1.427 . S
N2534 C2531 1.384 . S
N2535 C2527 1.427 . S
N2535 C2533 1.384 . S
H2536 C2542 0.930 . S
H2537 C2546 0.930 . S
H2538 C2551 0.929 . S
H2539 C2549 0.929 . S
H2540 C2544 0.929 . S
H2541 C2550 0.929 . S
C2542 H2536 0.930 . S
C2542 C2543 1.367 . S
C2542 C2550 1.378 . S
C2543 C2542 1.367 . S
C2543 C2551 1.433 1_554 S
C2544 H2540 0.929 . S
C2544 C2546 1.378 . S
C2544 C2548 1.350 . S
C2545 C2548 1.463 1_554 S
C2545 C2550 1.350 . S
C2545 N2553 1.427 1_554 S
C2546 H2537 0.930 . S
C2546 C2544 1.378 . S
C2546 C2547 1.367 . S
C2547 C2546 1.367 . S
C2547 C2549 1.433 1_556 S
C2548 C2544 1.350 . S
C2548 C2545 1.463 1_556 S
C2548 N2552 1.427 1_556 S
C2549 H2539 0.929 . S
C2549 C2547 1.433 1_554 S
C2549 N2552 1.384 . S
C2550 H2541 0.929 . S
C2550 C2542 1.378 . S
C2550 C2545 1.350 . S
C2551 H2538 0.929 . S
C2551 C2543 1.433 1_556 S
C2551 N2553 1.384 . S
N2552 C2548 1.427 1_554 S
N2552 C2549 1.384 . S
N2553 C2545 1.427 1_556 S
N2553 C2551 1.384 . S
H2554 C2560 0.930 . S
H2555 C2564 0.930 . S
H2556 C2569 0.929 . S
H2557 C2567 0.929 . S
H2558 C2562 0.929 . S
H2559 C2568 0.929 . S
C2560 H2554 0.930 . S
C2560 C2561 1.367 . S
C2560 C2568 1.378 . S
C2561 C2560 1.367 . S
C2561 C2569 1.433 . S
C2562 H2558 0.929 . S
C2562 C2564 1.378 . S
C2562 C2566 1.350 . S
C2563 C2566 1.463 . S
C2563 C2568 1.350 . S
C2563 N2571 1.427 . S
C2564 H2555 0.930 . S
C2564 C2562 1.378 . S
C2564 C2565 1.367 . S
C2565 C2564 1.367 . S
C2565 C2567 1.433 . S
C2566 C2562 1.350 . S
C2566 C2563 1.463 . S
C2566 N2570 1.427 . S
C2567 H2557 0.929 . S
C2567 C2565 1.433 . S
C2567 N2570 1.384 . S
C2568 H2559 0.929 . S
C2568 C2560 1.378 . S
C2568 C2563 1.350 . S
C2569 H2556 0.929 . S
C2569 C2561 1.433 . S
C2569 N2571 1.384 . S
N2570 C2566 1.427 . S
N2570 C2567 1.384 . S
N2571 C2563 1.427 . S
N2571 C2569 1.384 . S
H2572 C2578 0.930 . S
H2573 C2582 0.930 . S
H2574 C2587 0.929 . S
H2575 C2585 0.929 . S
H2576 C2580 0.929 . S
H2577 C2586 0.929 . S
C2578 H2572 0.930 . S
C2578 C2579 1.367 . S
C2578 C2586 1.378 . S
C2579 C2578 1.367 . S
C2579 C2587 1.433 . S
C2580 H2576 0.929 . S
C2580 C2582 1.378 . S
C2580 C2584 1.350 . S
C2581 C2584 1.463 . S
C2581 C2586 1.350 . S
C2581 N2589 1.427 . S
C2582 H2573 0.930 . S
C2582 C2580 1.378 . S
C2582 C2583 1.367 . S
C2583 C2582 1.367 . S
C2583 C2585 1.433 . S
C2584 C2580 1.350 . S
C2584 C2581 1.463 . S
C2584 N2588 1.427 . S
C2585 H2575 0.929 . S
C2585 C2583 1.433 . S
C2585 N2588 1.384 . S
C2586 H2577 0.929 . S
C2586 C2578 1.378 . S
C2586 C2581 1.350 . S
C2587 H2574 0.929 . S
C2587 C2579 1.433 . S
C2587 N2589 1.384 . S
N2588 C2584 1.427 . S
N2588 C2585 1.384 . S
N2589 C2581 1.427 . S
N2589 C2587 1.384 . S
H2590 C2596 0.930 . S
H2591 C2600 0.930 . S
H2592 C2605 0.929 . S
H2593 C2603 0.929 . S
H2594 C2598 0.929 . S
H2595 C2604 0.929 . S
C2596 H2590 0.930 . S
C2596 C2597 1.367 . S
C2596 C2604 1.378 . S
C2597 C2596 1.367 . S
C2597 C2605 1.433 . S
C2598 H2594 0.929 . S
C2598 C2600 1.378 . S
C2598 C2602 1.350 . S
C2599 C2602 1.463 . S
C2599 C2604 1.350 . S
C2599 N2607 1.427 . S
C2600 H2591 0.930 . S
C2600 C2598 1.378 . S
C2600 C2601 1.367 . S
C2601 C2600 1.367 . S
C2601 C2603 1.433 . S
C2602 C2598 1.350 . S
C2602 C2599 1.463 . S
C2602 N2606 1.427 . S
C2603 H2593 0.929 . S
C2603 C2601 1.433 . S
C2603 N2606 1.384 . S
C2604 H2595 0.929 . S
C2604 C2596 1.378 . S
C2604 C2599 1.350 . S
C2605 H2592 0.929 . S
C2605 C2597 1.433 . S
C2605 N2607 1.384 . S
N2606 C2602 1.427 . S
N2606 C2603 1.384 . S
N2607 C2599 1.427 . S
N2607 C2605 1.384 . S
H2608 C2614 0.930 . S
H2609 C2618 0.930 . S
H2610 C2623 0.929 . S
H2611 C2621 0.929 . S
H2612 C2616 0.929 . S
H2613 C2622 0.929 . S
C2614 H2608 0.930 . S
C2614 C2615 1.367 . S
C2614 C2622 1.378 . S
C2615 C2614 1.367 . S
C2615 C2623 1.433 . S
C2616 H2612 0.929 . S
C2616 C2618 1.378 . S
C2616 C2620 1.350 . S
C2617 C2620 1.463 1_545 S
C2617 C2622 1.350 . S
C2617 N2625 1.427 . S
C2618 H2609 0.930 . S
C2618 C2616 1.378 . S
C2618 C2619 1.367 . S
C2619 C2618 1.367 . S
C2619 C2621 1.433 . S
C2620 C2616 1.350 . S
C2620 C2617 1.463 1_565 S
C2620 N2624 1.427 . S
C2621 H2611 0.929 . S
C2621 C2619 1.433 . S
C2621 N2624 1.384 . S
C2622 H2613 0.929 . S
C2622 C2614 1.378 . S
C2622 C2617 1.350 . S
C2623 H2610 0.929 . S
C2623 C2615 1.433 . S
C2623 N2625 1.384 . S
N2624 C2620 1.427 . S
N2624 C2621 1.384 . S
N2625 C2617 1.427 . S
N2625 C2623 1.384 . S
H2626 C2632 0.930 . S
H2627 C2636 0.930 . S
H2628 C2641 0.929 . S
H2629 C2639 0.929 . S
H2630 C2634 0.929 . S
H2631 C2640 0.929 . S
C2632 H2626 0.930 . S
C2632 C2633 1.367 . S
C2632 C2640 1.378 . S
C2633 C2632 1.367 . S
C2633 C2641 1.433 . S
C2634 H2630 0.929 . S
C2634 C2636 1.378 . S
C2634 C2638 1.350 . S
C2635 C2638 1.463 . S
C2635 C2640 1.350 . S
C2635 N2643 1.427 . S
C2636 H2627 0.930 . S
C2636 C2634 1.378 . S
C2636 C2637 1.367 . S
C2637 C2636 1.367 . S
C2637 C2639 1.433 . S
C2638 C2634 1.350 . S
C2638 C2635 1.463 . S
C2638 N2642 1.427 . S
C2639 H2629 0.929 . S
C2639 C2637 1.433 . S
C2639 N2642 1.384 . S
C2640 H2631 0.929 . S
C2640 C2632 1.378 . S
C2640 C2635 1.350 . S
C2641 H2628 0.929 . S
C2641 C2633 1.433 . S
C2641 N2643 1.384 . S
N2642 C2638 1.427 . S
N2642 C2639 1.384 . S
N2643 C2635 1.427 . S
N2643 C2641 1.384 . S
H2644 C2650 0.930 . S
H2645 C2654 0.930 . S
H2646 C2659 0.929 . S
H2647 C2657 0.929 . S
H2648 C2652 0.929 . S
H2649 C2658 0.929 . S
C2650 H2644 0.930 . S
C2650 C2651 1.367 . S
C2650 C2658 1.378 . S
C2651 C2650 1.367 . S
C2651 C2659 1.433 . S
C2652 H2648 0.929 . S
C2652 C2654 1.378 . S
C2652 C2656 1.350 . S
C2653 C2656 1.463 1_564 S
C2653 C2658 1.350 . S
C2653 N2661 1.428 . S
C2654 H2645 0.930 . S
C2654 C2652 1.378 . S
C2654 C2655 1.367 . S
C2655 C2654 1.367 . S
C2655 C2657 1.433 . S
C2656 C2652 1.350 . S
C2656 C2653 1.463 1_546 S
C2656 N2660 1.428 . S
C2657 H2647 0.929 . S
C2657 C2655 1.433 . S
C2657 N2660 1.384 . S
C2658 H2649 0.929 . S
C2658 C2650 1.378 . S
C2658 C2653 1.350 . S
C2659 H2646 0.929 . S
C2659 C2651 1.433 . S
C2659 N2661 1.384 . S
N2660 C2656 1.428 . S
N2660 C2657 1.384 . S
N2661 C2653 1.428 . S
N2661 C2659 1.384 . S
H2662 C2668 0.930 . S
H2663 C2672 0.930 . S
H2664 C2677 0.929 . S
H2665 C2675 0.929 . S
H2666 C2670 0.929 . S
H2667 C2676 0.929 . S
C2668 H2662 0.930 . S
C2668 C2669 1.367 . S
C2668 C2676 1.378 . S
C2669 C2668 1.367 . S
C2669 C2677 1.433 . S
C2670 H2666 0.929 . S
C2670 C2672 1.378 . S
C2670 C2674 1.350 . S
C2671 C2674 1.463 . S
C2671 C2676 1.350 . S
C2671 N2679 1.427 . S
C2672 H2663 0.930 . S
C2672 C2670 1.378 . S
C2672 C2673 1.367 . S
C2673 C2672 1.367 . S
C2673 C2675 1.433 . S
C2674 C2670 1.350 . S
C2674 C2671 1.463 . S
C2674 N2678 1.427 . S
C2675 H2665 0.929 . S
C2675 C2673 1.433 . S
C2675 N2678 1.384 . S
C2676 H2667 0.929 . S
C2676 C2668 1.378 . S
C2676 C2671 1.350 . S
C2677 H2664 0.929 . S
C2677 C2669 1.433 . S
C2677 N2679 1.384 . S
N2678 C2674 1.427 . S
N2678 C2675 1.384 . S
N2679 C2671 1.427 . S
N2679 C2677 1.384 . S
H2680 C2686 0.930 . S
H2681 C2690 0.930 . S
H2682 C2695 0.929 . S
H2683 C2693 0.929 . S
H2684 C2688 0.929 . S
H2685 C2694 0.929 . S
C2686 H2680 0.930 . S
C2686 C2687 1.367 . S
C2686 C2694 1.378 . S
C2687 C2686 1.367 . S
C2687 C2695 1.433 . S
C2688 H2684 0.929 . S
C2688 C2690 1.378 . S
C2688 C2692 1.350 . S
C2689 C2692 1.463 1_545 S
C2689 C2694 1.350 . S
C2689 N2697 1.427 . S
C2690 H2681 0.930 . S
C2690 C2688 1.378 . S
C2690 C2691 1.367 . S
C2691 C2690 1.367 . S
C2691 C2693 1.433 . S
C2692 C2688 1.350 . S
C2692 C2689 1.463 1_565 S
C2692 N2696 1.427 . S
C2693 H2683 0.929 . S
C2693 C2691 1.433 . S
C2693 N2696 1.384 . S
C2694 H2685 0.929 . S
C2694 C2686 1.378 . S
C2694 C2689 1.350 . S
C2695 H2682 0.929 . S
C2695 C2687 1.433 . S
C2695 N2697 1.384 . S
N2696 C2692 1.427 . S
N2696 C2693 1.384 . S
N2697 C2689 1.427 . S
N2697 C2695 1.384 . S
H2698 C2704 0.930 . S
H2699 C2708 0.930 . S
H2700 C2713 0.929 . S
H2701 C2711 0.929 . S
H2702 C2706 0.929 . S
H2703 C2712 0.929 . S
C2704 H2698 0.930 . S
C2704 C2705 1.367 . S
C2704 C2712 1.378 . S
C2705 C2704 1.367 . S
C2705 C2713 1.433 . S
C2706 H2702 0.929 . S
C2706 C2708 1.378 . S
C2706 C2710 1.350 . S
C2707 C2710 1.463 . S
C2707 C2712 1.350 . S
C2707 N2715 1.427 . S
C2708 H2699 0.930 . S
C2708 C2706 1.378 . S
C2708 C2709 1.367 . S
C2709 C2708 1.367 . S
C2709 C2711 1.433 . S
C2710 C2706 1.350 . S
C2710 C2707 1.463 . S
C2710 N2714 1.427 . S
C2711 H2701 0.929 . S
C2711 C2709 1.433 . S
C2711 N2714 1.384 . S
C2712 H2703 0.929 . S
C2712 C2704 1.378 . S
C2712 C2707 1.350 . S
C2713 H2700 0.929 . S
C2713 C2705 1.433 . S
C2713 N2715 1.384 . S
N2714 C2710 1.427 . S
N2714 C2711 1.384 . S
N2715 C2707 1.427 . S
N2715 C2713 1.384 . S
H2716 C2722 0.930 . S
H2717 C2726 0.930 . S
H2718 C2731 0.929 . S
H2719 C2729 0.929 . S
H2720 C2724 0.929 . S
H2721 C2730 0.929 . S
C2722 H2716 0.930 . S
C2722 C2723 1.367 . S
C2722 C2730 1.378 . S
C2723 C2722 1.367 . S
C2723 C2731 1.433 1_554 S
C2724 H2720 0.929 . S
C2724 C2726 1.378 . S
C2724 C2728 1.350 . S
C2725 C2728 1.463 1_564 S
C2725 C2730 1.350 . S
C2725 N2733 1.427 1_554 S
C2726 H2717 0.930 . S
C2726 C2724 1.378 . S
C2726 C2727 1.367 . S
C2727 C2726 1.367 . S
C2727 C2729 1.433 1_556 S
C2728 C2724 1.350 . S
C2728 C2725 1.463 1_546 S
C2728 N2732 1.427 1_556 S
C2729 H2719 0.929 . S
C2729 C2727 1.433 1_554 S
C2729 N2732 1.384 . S
C2730 H2721 0.929 . S
C2730 C2722 1.378 . S
C2730 C2725 1.350 . S
C2731 H2718 0.929 . S
C2731 C2723 1.433 1_556 S
C2731 N2733 1.384 . S
N2732 C2728 1.427 1_554 S
N2732 C2729 1.384 . S
N2733 C2725 1.427 1_556 S
N2733 C2731 1.384 . S
H2734 C2740 0.930 . S
H2735 C2744 0.930 . S
H2736 C2749 0.929 . S
H2737 C2747 0.929 . S
H2738 C2742 0.929 . S
H2739 C2748 0.929 . S
C2740 H2734 0.930 . S
C2740 C2741 1.367 . S
C2740 C2748 1.378 . S
C2741 C2740 1.367 . S
C2741 C2749 1.433 . S
C2742 H2738 0.929 . S
C2742 C2744 1.378 . S
C2742 C2746 1.350 . S
C2743 C2746 1.463 . S
C2743 C2748 1.350 . S
C2743 N2751 1.427 . S
C2744 H2735 0.930 . S
C2744 C2742 1.378 . S
C2744 C2745 1.367 . S
C2745 C2744 1.367 . S
C2745 C2747 1.433 . S
C2746 C2742 1.350 . S
C2746 C2743 1.463 . S
C2746 N2750 1.427 . S
C2747 H2737 0.929 . S
C2747 C2745 1.433 . S
C2747 N2750 1.384 . S
C2748 H2739 0.929 . S
C2748 C2740 1.378 . S
C2748 C2743 1.350 . S
C2749 H2736 0.929 . S
C2749 C2741 1.433 . S
C2749 N2751 1.384 . S
N2750 C2746 1.427 . S
N2750 C2747 1.384 . S
N2751 C2743 1.427 . S
N2751 C2749 1.384 . S
H2752 C2758 0.930 . S
H2753 C2762 0.930 1_556 S
H2754 C2767 0.929 1_556 S
H2755 C2765 0.929 . S
H2756 C2760 0.929 1_556 S
H2757 C2766 0.929 . S
C2758 H2752 0.930 . S
C2758 C2759 1.367 . S
C2758 C2766 1.378 . S
C2759 C2758 1.367 . S
C2759 C2767 1.433 . S
C2760 H2756 0.929 1_554 S
C2760 C2762 1.378 . S
C2760 C2764 1.350 . S
C2761 C2764 1.463 . S
C2761 C2766 1.350 . S
C2761 N2769 1.427 . S
C2762 H2753 0.930 1_554 S
C2762 C2760 1.378 . S
C2762 C2763 1.367 . S
C2763 C2762 1.367 . S
C2763 C2765 1.433 . S
C2764 C2760 1.350 . S
C2764 C2761 1.463 . S
C2764 N2768 1.427 . S
C2765 H2755 0.929 . S
C2765 C2763 1.433 . S
C2765 N2768 1.384 . S
C2766 H2757 0.929 . S
C2766 C2758 1.378 . S
C2766 C2761 1.350 . S
C2767 H2754 0.929 1_554 S
C2767 C2759 1.433 . S
C2767 N2769 1.384 . S
N2768 C2764 1.427 . S
N2768 C2765 1.384 . S
N2769 C2761 1.427 . S
N2769 C2767 1.384 . S
H2770 C2776 0.930 . S
H2771 C2780 0.930 . S
H2772 C2785 0.929 . S
H2773 C2783 0.929 . S
H2774 C2778 0.929 . S
H2775 C2784 0.929 . S
C2776 H2770 0.930 . S
C2776 C2777 1.367 . S
C2776 C2784 1.378 . S
C2777 C2776 1.367 . S
C2777 C2785 1.433 . S
C2778 H2774 0.929 . S
C2778 C2780 1.378 . S
C2778 C2782 1.350 . S
C2779 C2782 1.463 . S
C2779 C2784 1.350 . S
C2779 N2787 1.427 . S
C2780 H2771 0.930 . S
C2780 C2778 1.378 . S
C2780 C2781 1.367 . S
C2781 C2780 1.367 . S
C2781 C2783 1.433 . S
C2782 C2778 1.350 . S
C2782 C2779 1.463 . S
C2782 N2786 1.427 . S
C2783 H2773 0.929 . S
C2783 C2781 1.433 . S
C2783 N2786 1.384 . S
C2784 H2775 0.929 . S
C2784 C2776 1.378 . S
C2784 C2779 1.350 . S
C2785 H2772 0.929 . S
C2785 C2777 1.433 . S
C2785 N2787 1.384 . S
N2786 C2782 1.427 . S
N2786 C2783 1.384 . S
N2787 C2779 1.427 . S
N2787 C2785 1.384 . S
H2788 C2794 0.930 . S
H2789 C2798 0.930 . S
H2790 C2803 0.929 . S
H2791 C2801 0.929 . S
H2792 C2796 0.929 . S
H2793 C2802 0.929 . S
C2794 H2788 0.930 . S
C2794 C2795 1.367 . S
C2794 C2802 1.378 . S
C2795 C2794 1.367 . S
C2795 C2803 1.433 . S
C2796 H2792 0.929 . S
C2796 C2798 1.378 . S
C2796 C2800 1.350 . S
C2797 C2800 1.463 . S
C2797 C2802 1.350 . S
C2797 N2805 1.427 . S
C2798 H2789 0.930 . S
C2798 C2796 1.378 . S
C2798 C2799 1.367 . S
C2799 C2798 1.367 . S
C2799 C2801 1.433 . S
C2800 C2796 1.350 . S
C2800 C2797 1.463 . S
C2800 N2804 1.427 . S
C2801 H2791 0.929 . S
C2801 C2799 1.433 . S
C2801 N2804 1.384 . S
C2802 H2793 0.929 . S
C2802 C2794 1.378 . S
C2802 C2797 1.350 . S
C2803 H2790 0.929 . S
C2803 C2795 1.433 . S
C2803 N2805 1.384 . S
N2804 C2800 1.427 . S
N2804 C2801 1.384 . S
N2805 C2797 1.427 . S
N2805 C2803 1.384 . S
H2806 C2812 0.930 . S
H2807 C2816 0.930 . S
H2808 C2821 0.929 . S
H2809 C2819 0.929 . S
H2810 C2814 0.929 . S
H2811 C2820 0.929 . S
C2812 H2806 0.930 . S
C2812 C2813 1.367 . S
C2812 C2820 1.378 . S
C2813 C2812 1.367 . S
C2813 C2821 1.433 . S
C2814 H2810 0.929 . S
C2814 C2816 1.378 . S
C2814 C2818 1.350 . S
C2815 C2818 1.463 1_655 S
C2815 C2820 1.350 . S
C2815 N2823 1.427 . S
C2816 H2807 0.930 . S
C2816 C2814 1.378 . S
C2816 C2817 1.367 . S
C2817 C2816 1.367 . S
C2817 C2819 1.433 . S
C2818 C2814 1.350 . S
C2818 C2815 1.463 1_455 S
C2818 N2822 1.427 . S
C2819 H2809 0.929 . S
C2819 C2817 1.433 . S
C2819 N2822 1.384 . S
C2820 H2811 0.929 . S
C2820 C2812 1.378 . S
C2820 C2815 1.350 . S
C2821 H2808 0.929 . S
C2821 C2813 1.433 . S
C2821 N2823 1.384 . S
N2822 C2818 1.427 . S
N2822 C2819 1.384 . S
N2823 C2815 1.427 . S
N2823 C2821 1.384 . S
H2824 C2830 0.930 . S
H2825 C2834 0.930 1_554 S
H2826 C2839 0.929 1_554 S
H2827 C2837 0.929 . S
H2828 C2832 0.929 1_554 S
H2829 C2838 0.929 . S
C2830 H2824 0.930 . S
C2830 C2831 1.367 . S
C2830 C2838 1.378 . S
C2831 C2830 1.367 . S
C2831 C2839 1.433 . S
C2832 H2828 0.929 1_556 S
C2832 C2834 1.378 . S
C2832 C2836 1.350 . S
C2833 C2836 1.463 . S
C2833 C2838 1.350 . S
C2833 N2841 1.427 . S
C2834 H2825 0.930 1_556 S
C2834 C2832 1.378 . S
C2834 C2835 1.367 . S
C2835 C2834 1.367 . S
C2835 C2837 1.433 . S
C2836 C2832 1.350 . S
C2836 C2833 1.463 . S
C2836 N2840 1.427 . S
C2837 H2827 0.929 . S
C2837 C2835 1.433 . S
C2837 N2840 1.384 . S
C2838 H2829 0.929 . S
C2838 C2830 1.378 . S
C2838 C2833 1.350 . S
C2839 H2826 0.929 1_556 S
C2839 C2831 1.433 . S
C2839 N2841 1.384 . S
N2840 C2836 1.427 . S
N2840 C2837 1.384 . S
N2841 C2833 1.427 . S
N2841 C2839 1.384 . S
H2842 C2848 0.930 . S
H2843 C2852 0.930 . S
H2844 C2857 0.929 . S
H2845 C2855 0.929 . S
H2846 C2850 0.929 . S
H2847 C2856 0.929 . S
C2848 H2842 0.930 . S
C2848 C2849 1.367 . S
C2848 C2856 1.378 . S
C2849 C2848 1.367 . S
C2849 C2857 1.433 . S
C2850 H2846 0.929 . S
C2850 C2852 1.378 . S
C2850 C2854 1.350 . S
C2851 C2854 1.463 1_655 S
C2851 C2856 1.350 . S
C2851 N2859 1.427 . S
C2852 H2843 0.930 . S
C2852 C2850 1.378 . S
C2852 C2853 1.367 . S
C2853 C2852 1.367 . S
C2853 C2855 1.433 . S
C2854 C2850 1.350 . S
C2854 C2851 1.463 1_455 S
C2854 N2858 1.427 . S
C2855 H2845 0.929 . S
C2855 C2853 1.433 . S
C2855 N2858 1.384 . S
C2856 H2847 0.929 . S
C2856 C2848 1.378 . S
C2856 C2851 1.350 . S
C2857 H2844 0.929 . S
C2857 C2849 1.433 . S
C2857 N2859 1.384 . S
N2858 C2854 1.427 . S
N2858 C2855 1.384 . S
N2859 C2851 1.427 . S
N2859 C2857 1.384 . S
H2860 C2866 0.930 . S
H2861 C2870 0.930 . S
H2862 C2875 0.929 . S
H2863 C2873 0.929 . S
H2864 C2868 0.929 . S
H2865 C2874 0.929 . S
C2866 H2860 0.930 . S
C2866 C2867 1.367 . S
C2866 C2874 1.378 . S
C2867 C2866 1.367 . S
C2867 C2875 1.433 . S
C2868 H2864 0.929 . S
C2868 C2870 1.378 . S
C2868 C2872 1.350 . S
C2869 C2872 1.463 . S
C2869 C2874 1.350 . S
C2869 N2877 1.427 . S
C2870 H2861 0.930 . S
C2870 C2868 1.378 . S
C2870 C2871 1.367 . S
C2871 C2870 1.367 . S
C2871 C2873 1.433 . S
C2872 C2868 1.350 . S
C2872 C2869 1.463 . S
C2872 N2876 1.427 . S
C2873 H2863 0.929 . S
C2873 C2871 1.433 . S
C2873 N2876 1.384 . S
C2874 H2865 0.929 . S
C2874 C2866 1.378 . S
C2874 C2869 1.350 . S
C2875 H2862 0.929 . S
C2875 C2867 1.433 . S
C2875 N2877 1.384 . S
N2876 C2872 1.427 . S
N2876 C2873 1.384 . S
N2877 C2869 1.427 . S
N2877 C2875 1.384 . S
H2878 C2884 0.930 . S
H2879 C2888 0.930 . S
H2880 C2893 0.929 . S
H2881 C2891 0.929 . S
H2882 C2886 0.929 . S
H2883 C2892 0.929 . S
C2884 H2878 0.930 . S
C2884 C2885 1.367 . S
C2884 C2892 1.378 . S
C2885 C2884 1.367 . S
C2885 C2893 1.433 . S
C2886 H2882 0.929 . S
C2886 C2888 1.378 . S
C2886 C2890 1.350 . S
C2887 C2890 1.463 . S
C2887 C2892 1.350 . S
C2887 N2895 1.427 . S
C2888 H2879 0.930 . S
C2888 C2886 1.378 . S
C2888 C2889 1.367 . S
C2889 C2888 1.367 . S
C2889 C2891 1.433 . S
C2890 C2886 1.350 . S
C2890 C2887 1.463 . S
C2890 N2894 1.427 . S
C2891 H2881 0.929 . S
C2891 C2889 1.433 . S
C2891 N2894 1.384 . S
C2892 H2883 0.929 . S
C2892 C2884 1.378 . S
C2892 C2887 1.350 . S
C2893 H2880 0.929 . S
C2893 C2885 1.433 . S
C2893 N2895 1.384 . S
N2894 C2890 1.427 . S
N2894 C2891 1.384 . S
N2895 C2887 1.427 . S
N2895 C2893 1.384 . S
H2896 C2902 0.930 1_554 S
H2897 C2906 0.930 . S
H2898 C2911 0.929 . S
H2899 C2909 0.929 1_554 S
H2900 C2904 0.929 . S
H2901 C2910 0.929 1_554 S
C2902 H2896 0.930 1_556 S
C2902 C2903 1.367 . S
C2902 C2910 1.378 . S
C2903 C2902 1.367 . S
C2903 C2911 1.433 . S
C2904 H2900 0.929 . S
C2904 C2906 1.378 . S
C2904 C2908 1.350 . S
C2905 C2908 1.463 . S
C2905 C2910 1.350 . S
C2905 N2913 1.427 . S
C2906 H2897 0.930 . S
C2906 C2904 1.378 . S
C2906 C2907 1.367 . S
C2907 C2906 1.367 . S
C2907 C2909 1.433 . S
C2908 C2904 1.350 . S
C2908 C2905 1.463 . S
C2908 N2912 1.427 . S
C2909 H2899 0.929 1_556 S
C2909 C2907 1.433 . S
C2909 N2912 1.384 . S
C2910 H2901 0.929 1_556 S
C2910 C2902 1.378 . S
C2910 C2905 1.350 . S
C2911 H2898 0.929 . S
C2911 C2903 1.433 . S
C2911 N2913 1.384 . S
N2912 C2908 1.427 . S
N2912 C2909 1.384 . S
N2913 C2905 1.427 . S
N2913 C2911 1.384 . S
H2914 C2920 0.930 . S
H2915 C2924 0.930 . S
H2916 C2929 0.929 . S
H2917 C2927 0.929 . S
H2918 C2922 0.929 . S
H2919 C2928 0.929 . S
C2920 H2914 0.930 . S
C2920 C2921 1.367 . S
C2920 C2928 1.378 . S
C2921 C2920 1.367 . S
C2921 C2929 1.433 . S
C2922 H2918 0.929 . S
C2922 C2924 1.378 . S
C2922 C2926 1.350 . S
C2923 C2926 1.463 . S
C2923 C2928 1.350 . S
C2923 N2931 1.427 . S
C2924 H2915 0.930 . S
C2924 C2922 1.378 . S
C2924 C2925 1.367 . S
C2925 C2924 1.367 . S
C2925 C2927 1.433 . S
C2926 C2922 1.350 . S
C2926 C2923 1.463 . S
C2926 N2930 1.427 . S
C2927 H2917 0.929 . S
C2927 C2925 1.433 . S
C2927 N2930 1.384 . S
C2928 H2919 0.929 . S
C2928 C2920 1.378 . S
C2928 C2923 1.350 . S
C2929 H2916 0.929 . S
C2929 C2921 1.433 . S
C2929 N2931 1.384 . S
N2930 C2926 1.427 . S
N2930 C2927 1.384 . S
N2931 C2923 1.427 . S
N2931 C2929 1.384 . S
H2932 C2938 0.900 1_556 S
H2933 C2942 0.930 . S
H2934 C2947 0.929 . S
H2935 C2945 0.889 1_556 S
H2936 C2940 0.929 . S
H2937 C2946 0.897 1_556 S
C2938 H2932 0.900 1_554 S
C2938 C2939 1.367 . S
C2938 C2946 1.378 . S
C2939 C2938 1.367 . S
C2939 C2947 1.433 . S
C2940 H2936 0.929 . S
C2940 C2942 1.378 . S
C2940 C2944 1.350 . S
C2941 C2944 1.463 . S
C2941 C2946 1.350 . S
C2941 N2949 1.427 . S
C2942 H2933 0.930 . S
C2942 C2940 1.378 . S
C2942 C2943 1.367 . S
C2943 C2942 1.367 . S
C2943 C2945 1.433 . S
C2944 C2940 1.350 . S
C2944 C2941 1.463 . S
C2944 N2948 1.427 . S
C2945 H2935 0.889 1_554 S
C2945 C2943 1.433 . S
C2945 N2948 1.384 . S
C2946 H2937 0.897 1_554 S
C2946 C2938 1.378 . S
C2946 C2941 1.350 . S
C2947 H2934 0.929 . S
C2947 C2939 1.433 . S
C2947 N2949 1.384 . S
N2948 C2944 1.427 . S
N2948 C2945 1.384 . S
N2949 C2941 1.427 . S
N2949 C2947 1.384 . S
H2950 C2956 0.930 . S
H2951 C2960 0.930 . S
H2952 C2965 0.929 . S
H2953 C2963 0.929 . S
H2954 C2958 0.929 . S
H2955 C2964 0.929 . S
C2956 H2950 0.930 . S
C2956 C2957 1.367 . S
C2956 C2964 1.378 . S
C2957 C2956 1.367 . S
C2957 C2965 1.433 . S
C2958 H2954 0.929 . S
C2958 C2960 1.378 . S
C2958 C2962 1.350 . S
C2959 C2962 1.463 . S
C2959 C2964 1.350 . S
C2959 N2967 1.427 . S
C2960 H2951 0.930 . S
C2960 C2958 1.378 . S
C2960 C2961 1.367 . S
C2961 C2960 1.367 . S
C2961 C2963 1.433 . S
C2962 C2958 1.350 . S
C2962 C2959 1.463 . S
C2962 N2966 1.427 . S
C2963 H2953 0.929 . S
C2963 C2961 1.433 . S
C2963 N2966 1.384 . S
C2964 H2955 0.929 . S
C2964 C2956 1.378 . S
C2964 C2959 1.350 . S
C2965 H2952 0.929 . S
C2965 C2957 1.433 . S
C2965 N2967 1.384 . S
N2966 C2962 1.427 . S
N2966 C2963 1.384 . S
N2967 C2959 1.427 . S
N2967 C2965 1.384 . S
H2968 C2974 0.930 . S
H2969 C2978 0.930 . S
H2970 C2983 0.929 . S
H2971 C2981 0.929 . S
H2972 C2976 0.929 . S
H2973 C2982 0.929 . S
C2974 H2968 0.930 . S
C2974 C2975 1.367 . S
C2974 C2982 1.378 . S
C2975 C2974 1.367 . S
C2975 C2983 1.433 . S
C2976 H2972 0.929 . S
C2976 C2978 1.378 . S
C2976 C2980 1.350 . S
C2977 C2980 1.463 1_655 S
C2977 C2982 1.350 . S
C2977 N2985 1.427 . S
C2978 H2969 0.930 . S
C2978 C2976 1.378 . S
C2978 C2979 1.367 . S
C2979 C2978 1.367 . S
C2979 C2981 1.433 . S
C2980 C2976 1.350 . S
C2980 C2977 1.463 1_455 S
C2980 N2984 1.427 . S
C2981 H2971 0.929 . S
C2981 C2979 1.433 . S
C2981 N2984 1.384 . S
C2982 H2973 0.929 . S
C2982 C2974 1.378 . S
C2982 C2977 1.350 . S
C2983 H2970 0.929 . S
C2983 C2975 1.433 . S
C2983 N2985 1.384 . S
N2984 C2980 1.427 . S
N2984 C2981 1.384 . S
N2985 C2977 1.427 . S
N2985 C2983 1.384 . S
H2986 C2992 0.930 . S
H2987 C2996 0.930 . S
H2988 C3001 0.929 . S
H2989 C2999 0.929 . S
H2990 C2994 0.929 . S
H2991 C3000 0.929 . S
C2992 H2986 0.930 . S
C2992 C2993 1.367 . S
C2992 C3000 1.378 . S
C2993 C2992 1.367 . S
C2993 C3001 1.433 . S
C2994 H2990 0.929 . S
C2994 C2996 1.378 . S
C2994 C2998 1.350 . S
C2995 C2998 1.463 . S
C2995 C3000 1.350 . S
C2995 N3003 1.427 . S
C2996 H2987 0.930 . S
C2996 C2994 1.378 . S
C2996 C2997 1.367 . S
C2997 C2996 1.367 . S
C2997 C2999 1.433 . S
C2998 C2994 1.350 . S
C2998 C2995 1.463 . S
C2998 N3002 1.427 . S
C2999 H2989 0.929 . S
C2999 C2997 1.433 . S
C2999 N3002 1.384 . S
C3000 H2991 0.929 . S
C3000 C2992 1.378 . S
C3000 C2995 1.350 . S
C3001 H2988 0.929 . S
C3001 C2993 1.433 . S
C3001 N3003 1.384 . S
N3002 C2998 1.427 . S
N3002 C2999 1.384 . S
N3003 C2995 1.427 . S
N3003 C3001 1.384 . S
H3004 C3010 0.930 . S
H3005 C3014 0.930 . S
H3006 C3019 0.929 . S
H3007 C3017 0.929 . S
H3008 C3012 0.929 . S
H3009 C3018 0.929 . S
C3010 H3004 0.930 . S
C3010 C3011 1.367 . S
C3010 C3018 1.378 . S
C3011 C3010 1.367 . S
C3011 C3019 1.433 . S
C3012 H3008 0.929 . S
C3012 C3014 1.378 . S
C3012 C3016 1.350 . S
C3013 C3016 1.463 . S
C3013 C3018 1.350 . S
C3013 N3021 1.427 . S
C3014 H3005 0.930 . S
C3014 C3012 1.378 . S
C3014 C3015 1.367 . S
C3015 C3014 1.367 . S
C3015 C3017 1.433 . S
C3016 C3012 1.350 . S
C3016 C3013 1.463 . S
C3016 N3020 1.427 . S
C3017 H3007 0.929 . S
C3017 C3015 1.433 . S
C3017 N3020 1.384 . S
C3018 H3009 0.929 . S
C3018 C3010 1.378 . S
C3018 C3013 1.350 . S
C3019 H3006 0.929 . S
C3019 C3011 1.433 . S
C3019 N3021 1.384 . S
N3020 C3016 1.427 . S
N3020 C3017 1.384 . S
N3021 C3013 1.427 . S
N3021 C3019 1.384 . S
H3022 C3028 0.930 . S
H3023 C3032 0.930 . S
H3024 C3037 0.929 . S
H3025 C3035 0.929 . S
H3026 C3030 0.929 . S
H3027 C3036 0.929 . S
C3028 H3022 0.930 . S
C3028 C3029 1.367 . S
C3028 C3036 1.378 . S
C3029 C3028 1.367 . S
C3029 C3037 1.433 . S
C3030 H3026 0.929 . S
C3030 C3032 1.378 . S
C3030 C3034 1.350 . S
C3031 C3034 1.463 1_655 S
C3031 C3036 1.350 . S
C3031 N3039 1.427 . S
C3032 H3023 0.930 . S
C3032 C3030 1.378 . S
C3032 C3033 1.367 . S
C3033 C3032 1.367 . S
C3033 C3035 1.433 . S
C3034 C3030 1.350 . S
C3034 C3031 1.463 1_455 S
C3034 N3038 1.427 . S
C3035 H3025 0.929 . S
C3035 C3033 1.433 . S
C3035 N3038 1.384 . S
C3036 H3027 0.929 . S
C3036 C3028 1.378 . S
C3036 C3031 1.350 . S
C3037 H3024 0.929 . S
C3037 C3029 1.433 . S
C3037 N3039 1.384 . S
N3038 C3034 1.427 . S
N3038 C3035 1.384 . S
N3039 C3031 1.427 . S
N3039 C3037 1.384 . S
C1895 C1362 1.893 . S
C1899 C3 1.882 . S
C1913 C1183 1.875 . S
C1917 C64 1.890 . S
C1931 C1244 1.893 . S
C1935 C121 1.881 . S
C1949 C1301 1.887 . S
C1953 C182 1.886 . S
C1967 C239 1.876 . S
C1971 C1008 1.891 . S
C1985 C1065 1.876 . S
C1989 C300 1.891 . S
C2003 C357 1.886 . S
C2007 C1126 1.883 . S
C2021 C418 1.883 . S
C2025 C947 1.878 . S
C2039 C1832 1.882 . S
C2043 C475 1.892 . S
C2057 C534 1.892 . S
C2061 C1655 1.882 . S
C2075 C593 1.886 . S
C2079 C1714 1.883 . S
C2093 C652 1.882 . S
C2097 C1773 1.892 . S
C2111 C711 1.891 . S
C2115 C1478 1.890 . S
C2129 C770 1.893 . S
C2133 C1537 1.885 . S
C2147 C829 1.889 . S
C2151 C1596 1.892 . S
C2165 C888 1.893 . S
C2169 C1419 1.883 . S
C2183 C33 1.344 . S
C2187 C741 1.353 . S
C2201 C1744 1.344 . S
C2205 C111 1.344 . S
C2219 C151 1.344 . S
C2223 C859 1.353 . S
C2237 C1862 1.353 . S
C2241 C229 1.332 . S
C2255 C505 1.349 . S
C2259 C269 1.348 . S
C2273 C347 1.337 . S
C2277 C1508 1.351 . S
C2291 C387 1.354 . S
C2295 C623 1.344 . S
C2309 C465 1.343 . S
C2313 C1626 1.344 . S
C2327 C1291 1.343 . S
C2331 C564 1.344 . S
C2345 C1409 1.342 . S
C2349 C682 1.344 . S
C2363 C800 1.343 . S
C2367 C1055 1.345 . S
C2381 C1173 1.340 . S
C2385 C918 1.348 . S
C2399 C1685 1.352 . S
C2403 C977 1.346 . S
C2417 C1095 1.344 . S
C2421 C1803 1.353 . S
C2435 C1449 1.355 . S
C2439 C1213 1.343 . S
C2453 C1567 1.343 . S
C2457 C1331 1.354 . S
C2471 C241 1.318 . S
C2475 C5 1.317 . S
C2489 C298 1.313 . S
C2493 C62 1.307 . S
C2507 C123 1.319 . S
C2511 C359 1.316 . S
C2525 C180 1.315 . S
C2529 C416 1.302 . S
C2543 C713 1.311 . S
C2547 C477 1.305 . S
C2561 C772 1.313 . S
C2565 C536 1.303 . S
C2579 C831 1.312 . S
C2583 C595 1.305 . S
C2597 C654 1.315 . S
C2601 C890 1.307 . S
C2615 C949 1.320 . S
C2619 C1185 1.311 . S
C2633 C1006 1.315 . S
C2637 C1242 1.302 . S
C2651 C1067 1.318 . S
C2655 C1303 1.308 . S
C2669 C1124 1.303 . S
C2673 C1360 1.316 . S
C2687 C1657 1.311 . S
C2691 C1421 1.305 . S
C2705 C1716 1.303 . S
C2709 C1480 1.312 . S
C2723 C1775 1.313 . S
C2727 C1539 1.305 . S
C2741 C1834 1.304 . S
C2745 C1598 1.314 . S
C2759 C1822 1.697 . S
C2763 C52 1.703 . S
C2777 C92 1.696 . S
C2781 C937 1.697 . S
C2795 C1704 1.697 . S
C2799 C170 1.702 . S
C2813 C210 1.694 . S
C2817 C819 1.699 . S
C2831 C1586 1.697 . S
C2835 C288 1.703 . S
C2849 C328 1.698 . S
C2853 C701 1.697 . S
C2867 C406 1.698 . S
C2871 C1468 1.702 . S
C2885 C583 1.701 . S
C2889 C446 1.692 . S
C2903 C524 1.703 . S
C2907 C1350 1.696 . S
C2921 C1232 1.697 . S
C2925 C642 1.703 . S
C2939 C760 1.703 . S
C2943 C1114 1.697 . S
C2957 C878 1.703 . S
C2961 C996 1.696 . S
C2975 C1881 1.696 . S
C2979 C1036 1.699 . S
C2993 C1154 1.692 . S
C2997 C1763 1.702 . S
C3011 C1272 1.691 . S
C3015 C1645 1.702 . S
C3029 C1527 1.702 . S
C3033 C1390 1.693 . S
