# Generated by pormake.
# Topology uma, (4)-cn, num edge types: 1
# Building blocks:
#     Node 0, Type 0, BuildingBlock: QUQFOY_clean_sbu_1, # of connection points: 4
#     Node 1, Type 0, BuildingBlock: QUQFOY_clean_sbu_1, # of connection points: 4
#     Node 2, Type 0, BuildingBlock: QUQFOY_clean_sbu_1, # of connection points: 4
#     Node 3, Type 0, BuildingBlock: QUQFOY_clean_sbu_1, # of connection points: 4
#     Node 4, Type 0, BuildingBlock: QUQFOY_clean_sbu_1, # of connection points: 4
#     Node 5, Type 0, BuildingBlock: QUQFOY_clean_sbu_1, # of connection points: 4
#     Node 6, Type 0, BuildingBlock: QUQFOY_clean_sbu_1, # of connection points: 4
#     Node 7, Type 0, BuildingBlock: QUQFOY_clean_sbu_1, # of connection points: 4
#     Node 8, Type 0, BuildingBlock: QUQFOY_clean_sbu_1, # of connection points: 4
#     Node 9, Type 0, BuildingBlock: QUQFOY_clean_sbu_1, # of connection points: 4
#     Node 10, Type 0, BuildingBlock: QUQFOY_clean_sbu_1, # of connection points: 4
#     Node 11, Type 0, BuildingBlock: QUQFOY_clean_sbu_1, # of connection points: 4
#     Node 12, Type 0, BuildingBlock: QUQFOY_clean_sbu_1, # of connection points: 4
#     Node 13, Type 0, BuildingBlock: QUQFOY_clean_sbu_1, # of connection points: 4
#     Node 14, Type 0, BuildingBlock: QUQFOY_clean_sbu_1, # of connection points: 4
#     Node 15, Type 0, BuildingBlock: QUQFOY_clean_sbu_1, # of connection points: 4
#     Node 16, Type 0, BuildingBlock: QUQFOY_clean_sbu_1, # of connection points: 4
#     Node 17, Type 0, BuildingBlock: QUQFOY_clean_sbu_1, # of connection points: 4
#     Node 18, Type 0, BuildingBlock: QUQFOY_clean_sbu_1, # of connection points: 4
#     Node 19, Type 0, BuildingBlock: QUQFOY_clean_sbu_1, # of connection points: 4
#     Node 20, Type 0, BuildingBlock: QUQFOY_clean_sbu_1, # of connection points: 4
#     Node 21, Type 0, BuildingBlock: QUQFOY_clean_sbu_1, # of connection points: 4
#     Node 22, Type 0, BuildingBlock: QUQFOY_clean_sbu_1, # of connection points: 4
#     Node 23, Type 0, BuildingBlock: QUQFOY_clean_sbu_1, # of connection points: 4
#     Node 24, Type 0, BuildingBlock: QUQFOY_clean_sbu_1, # of connection points: 4
#     Node 25, Type 0, BuildingBlock: QUQFOY_clean_sbu_1, # of connection points: 4
#     Node 26, Type 0, BuildingBlock: QUQFOY_clean_sbu_1, # of connection points: 4
#     Node 27, Type 0, BuildingBlock: QUQFOY_clean_sbu_1, # of connection points: 4
#     Node 28, Type 0, BuildingBlock: QUQFOY_clean_sbu_1, # of connection points: 4
#     Node 29, Type 0, BuildingBlock: QUQFOY_clean_sbu_1, # of connection points: 4
#     Node 30, Type 0, BuildingBlock: QUQFOY_clean_sbu_1, # of connection points: 4
#     Node 31, Type 0, BuildingBlock: QUQFOY_clean_sbu_1, # of connection points: 4
#     Node 32, Type 0, BuildingBlock: QUQFOY_clean_sbu_1, # of connection points: 4
#     Node 33, Type 0, BuildingBlock: QUQFOY_clean_sbu_1, # of connection points: 4
#     Node 34, Type 0, BuildingBlock: QUQFOY_clean_sbu_1, # of connection points: 4
#     Node 35, Type 0, BuildingBlock: QUQFOY_clean_sbu_1, # of connection points: 4
#     Edge 36, Type (0, 0), BuildingBlock: AJUNOK_clean_linker_0, # of connection points: 2
#     Edge 37, Type (0, 0), BuildingBlock: AJUNOK_clean_linker_0, # of connection points: 2
#     Edge 38, Type (0, 0), BuildingBlock: AJUNOK_clean_linker_0, # of connection points: 2
#     Edge 39, Type (0, 0), BuildingBlock: AJUNOK_clean_linker_0, # of connection points: 2
#     Edge 40, Type (0, 0), BuildingBlock: AJUNOK_clean_linker_0, # of connection points: 2
#     Edge 41, Type (0, 0), BuildingBlock: AJUNOK_clean_linker_0, # of connection points: 2
#     Edge 42, Type (0, 0), BuildingBlock: AJUNOK_clean_linker_0, # of connection points: 2
#     Edge 43, Type (0, 0), BuildingBlock: AJUNOK_clean_linker_0, # of connection points: 2
#     Edge 44, Type (0, 0), BuildingBlock: AJUNOK_clean_linker_0, # of connection points: 2
#     Edge 45, Type (0, 0), BuildingBlock: AJUNOK_clean_linker_0, # of connection points: 2
#     Edge 46, Type (0, 0), BuildingBlock: AJUNOK_clean_linker_0, # of connection points: 2
#     Edge 47, Type (0, 0), BuildingBlock: AJUNOK_clean_linker_0, # of connection points: 2
#     Edge 48, Type (0, 0), BuildingBlock: AJUNOK_clean_linker_0, # of connection points: 2
#     Edge 49, Type (0, 0), BuildingBlock: AJUNOK_clean_linker_0, # of connection points: 2
#     Edge 50, Type (0, 0), BuildingBlock: AJUNOK_clean_linker_0, # of connection points: 2
#     Edge 51, Type (0, 0), BuildingBlock: AJUNOK_clean_linker_0, # of connection points: 2
#     Edge 52, Type (0, 0), BuildingBlock: AJUNOK_clean_linker_0, # of connection points: 2
#     Edge 53, Type (0, 0), BuildingBlock: AJUNOK_clean_linker_0, # of connection points: 2
#     Edge 54, Type (0, 0), BuildingBlock: AJUNOK_clean_linker_0, # of connection points: 2
#     Edge 55, Type (0, 0), BuildingBlock: AJUNOK_clean_linker_0, # of connection points: 2
#     Edge 56, Type (0, 0), BuildingBlock: AJUNOK_clean_linker_0, # of connection points: 2
#     Edge 57, Type (0, 0), BuildingBlock: AJUNOK_clean_linker_0, # of connection points: 2
#     Edge 58, Type (0, 0), BuildingBlock: AJUNOK_clean_linker_0, # of connection points: 2
#     Edge 59, Type (0, 0), BuildingBlock: AJUNOK_clean_linker_0, # of connection points: 2
#     Edge 60, Type (0, 0), BuildingBlock: AJUNOK_clean_linker_0, # of connection points: 2
#     Edge 61, Type (0, 0), BuildingBlock: AJUNOK_clean_linker_0, # of connection points: 2
#     Edge 62, Type (0, 0), BuildingBlock: AJUNOK_clean_linker_0, # of connection points: 2
#     Edge 63, Type (0, 0), BuildingBlock: AJUNOK_clean_linker_0, # of connection points: 2
#     Edge 64, Type (0, 0), BuildingBlock: AJUNOK_clean_linker_0, # of connection points: 2
#     Edge 65, Type (0, 0), BuildingBlock: AJUNOK_clean_linker_0, # of connection points: 2
#     Edge 66, Type (0, 0), BuildingBlock: AJUNOK_clean_linker_0, # of connection points: 2
#     Edge 67, Type (0, 0), BuildingBlock: AJUNOK_clean_linker_0, # of connection points: 2
#     Edge 68, Type (0, 0), BuildingBlock: AJUNOK_clean_linker_0, # of connection points: 2
#     Edge 69, Type (0, 0), BuildingBlock: AJUNOK_clean_linker_0, # of connection points: 2
#     Edge 70, Type (0, 0), BuildingBlock: AJUNOK_clean_linker_0, # of connection points: 2
#     Edge 71, Type (0, 0), BuildingBlock: AJUNOK_clean_linker_0, # of connection points: 2
#     Edge 72, Type (0, 0), BuildingBlock: AJUNOK_clean_linker_0, # of connection points: 2
#     Edge 73, Type (0, 0), BuildingBlock: AJUNOK_clean_linker_0, # of connection points: 2
#     Edge 74, Type (0, 0), BuildingBlock: AJUNOK_clean_linker_0, # of connection points: 2
#     Edge 75, Type (0, 0), BuildingBlock: AJUNOK_clean_linker_0, # of connection points: 2
#     Edge 76, Type (0, 0), BuildingBlock: AJUNOK_clean_linker_0, # of connection points: 2
#     Edge 77, Type (0, 0), BuildingBlock: AJUNOK_clean_linker_0, # of connection points: 2
#     Edge 78, Type (0, 0), BuildingBlock: AJUNOK_clean_linker_0, # of connection points: 2
#     Edge 79, Type (0, 0), BuildingBlock: AJUNOK_clean_linker_0, # of connection points: 2
#     Edge 80, Type (0, 0), BuildingBlock: AJUNOK_clean_linker_0, # of connection points: 2
#     Edge 81, Type (0, 0), BuildingBlock: AJUNOK_clean_linker_0, # of connection points: 2
#     Edge 82, Type (0, 0), BuildingBlock: AJUNOK_clean_linker_0, # of connection points: 2
#     Edge 83, Type (0, 0), BuildingBlock: AJUNOK_clean_linker_0, # of connection points: 2
#     Edge 84, Type (0, 0), BuildingBlock: AJUNOK_clean_linker_0, # of connection points: 2
#     Edge 85, Type (0, 0), BuildingBlock: AJUNOK_clean_linker_0, # of connection points: 2
#     Edge 86, Type (0, 0), BuildingBlock: AJUNOK_clean_linker_0, # of connection points: 2
#     Edge 87, Type (0, 0), BuildingBlock: AJUNOK_clean_linker_0, # of connection points: 2
#     Edge 88, Type (0, 0), BuildingBlock: AJUNOK_clean_linker_0, # of connection points: 2
#     Edge 89, Type (0, 0), BuildingBlock: AJUNOK_clean_linker_0, # of connection points: 2
#     Edge 90, Type (0, 0), BuildingBlock: AJUNOK_clean_linker_0, # of connection points: 2
#     Edge 91, Type (0, 0), BuildingBlock: AJUNOK_clean_linker_0, # of connection points: 2
#     Edge 92, Type (0, 0), BuildingBlock: AJUNOK_clean_linker_0, # of connection points: 2
#     Edge 93, Type (0, 0), BuildingBlock: AJUNOK_clean_linker_0, # of connection points: 2
#     Edge 94, Type (0, 0), BuildingBlock: AJUNOK_clean_linker_0, # of connection points: 2
#     Edge 95, Type (0, 0), BuildingBlock: AJUNOK_clean_linker_0, # of connection points: 2
#     Edge 96, Type (0, 0), BuildingBlock: AJUNOK_clean_linker_0, # of connection points: 2
#     Edge 97, Type (0, 0), BuildingBlock: AJUNOK_clean_linker_0, # of connection points: 2
#     Edge 98, Type (0, 0), BuildingBlock: AJUNOK_clean_linker_0, # of connection points: 2
#     Edge 99, Type (0, 0), BuildingBlock: AJUNOK_clean_linker_0, # of connection points: 2
#     Edge 100, Type (0, 0), BuildingBlock: AJUNOK_clean_linker_0, # of connection points: 2
#     Edge 101, Type (0, 0), BuildingBlock: AJUNOK_clean_linker_0, # of connection points: 2
#     Edge 102, Type (0, 0), BuildingBlock: AJUNOK_clean_linker_0, # of connection points: 2
#     Edge 103, Type (0, 0), BuildingBlock: AJUNOK_clean_linker_0, # of connection points: 2
#     Edge 104, Type (0, 0), BuildingBlock: AJUNOK_clean_linker_0, # of connection points: 2
#     Edge 105, Type (0, 0), BuildingBlock: AJUNOK_clean_linker_0, # of connection points: 2
#     Edge 106, Type (0, 0), BuildingBlock: AJUNOK_clean_linker_0, # of connection points: 2
#     Edge 107, Type (0, 0), BuildingBlock: AJUNOK_clean_linker_0, # of connection points: 2
# Relax obj value: 0.074
# Max RMSD: 0.224
# Mean RMSD: 0.224
data_MOF--net-uma--node1-QUQFOY_clean_sbu_1--edge1-AJUNOK_clean_linker_0
_symmetry_space_group_name_H-M    P1
_symmetry_Int_Tables_number       1
_symmetry_cell_setting            triclinic
loop_
_symmetry_equiv_pos_as_xyz
'x, y, z'
_cell_length_a     66.764846
_cell_length_b     66.7826
_cell_length_c     29.527652
_cell_angle_alpha  89.98124
_cell_angle_beta   89.929634
_cell_angle_gamma 120.05541
loop_
_atom_site_label
_atom_site_type_symbol
_atom_site_fract_x
_atom_site_fract_y
_atom_site_fract_z
_atom_type_partial_charge
O0 O 0.08182 0.35048 0.97636 0.0
Cd1 Cd 0.08591 0.33153 0.02646 0.0
Cd2 Cd 0.04505 0.32713 0.05551 0.0
O3 O 0.04442 0.33549 0.9873 0.0
O4 O 0.11419 0.33315 1.00146 0.0
O5 O 0.11265 0.34324 0.07161 0.0
C6 C 0.1242 0.34033 0.03985 0.0
C7 C 0.03735 0.34478 0.11704 0.0
C8 C 0.06204 0.34568 0.96158 0.0
C9 C 0.04463 0.28389 0.03757 0.0
O10 O 0.03586 0.29297 0.06271 0.0
O11 O 0.06388 0.29661 1.01814 0.0
O12 O 0.02138 0.33186 0.08869 0.0
O13 O 0.05802 0.34846 0.10974 0.0
O14 O 0.67716 0.74891 0.96981 0.0
Cd15 Cd 0.68271 0.76128 0.0351 0.0
Cd16 Cd 0.66786 0.71382 0.0462 0.0
O17 O 0.66088 0.71101 0.97653 0.0
O18 O 0.69431 0.79418 1.01999 0.0
O19 O 0.66445 0.77495 0.06496 0.0
C20 C 0.67876 0.79415 0.04546 0.0
C21 C 0.64517 0.68833 0.10426 0.0
C22 C 0.66885 0.72905 0.95171 0.0
C23 C 0.71833 0.75035 0.06287 0.0
O24 O 0.70278 0.72928 0.05782 0.0
O25 O 0.71349 0.76634 0.05975 0.0
O26 O 0.65419 0.68187 0.07294 0.0
O27 O 0.64756 0.70872 0.10086 0.0
O28 O 0.24011 0.93057 0.97509 0.0
Cd29 Cd 0.22752 0.92175 0.03991 0.0
Cd30 Cd 0.27491 0.95438 0.05114 0.0
O31 O 0.27804 0.95169 0.98092 0.0
O32 O 0.19549 0.89848 0.02251 0.0
O33 O 0.21641 0.88961 0.06668 0.0
C34 C 0.19736 0.8831 0.04509 0.0
C35 C 0.30059 0.95745 0.10879 0.0
C36 C 0.25982 0.94232 0.95656 0.0
C37 C 0.23748 0.96692 0.07276 0.0
O38 O 0.2585 0.97262 0.06598 0.0
O39 O 0.22138 0.94615 0.06825 0.0
O40 O 0.3067 0.97324 0.07817 0.0
O41 O 0.28059 0.93896 0.10463 0.0
O42 O 0.34689 0.09032 0.07943 0.0
Cd43 Cd 0.32581 0.09151 0.03051 0.0
Cd44 Cd 0.32498 0.05364 1.00027 0.0
O45 O 0.33441 0.05342 0.06787 0.0
O46 O 0.32765 0.12148 0.04412 0.0
O47 O 0.33435 0.11249 0.97582 0.0
C48 C 0.33246 0.12687 1.00216 0.0
C49 C 0.34383 0.04764 0.9386 0.0
C50 C 0.34389 0.07105 0.09362 0.0
C51 C 0.27992 0.04922 1.02042 0.0
O52 O 0.29018 0.04228 0.99379 0.0
O53 O 0.29153 0.06794 0.04215 0.0
O54 O 0.33141 0.03126 0.96671 0.0
O55 O 0.34608 0.06775 0.94585 0.0
O56 O 0.93082 0.24525 0.08042 0.0
Cd57 Cd 0.92085 0.23355 1.01555 0.0
Cd58 Cd 0.95215 0.27934 1.00267 0.0
O59 O 0.951 0.28317 0.07319 0.0
O60 O 0.89677 0.20172 0.03157 0.0
O61 O 0.88892 0.22434 0.99023 0.0
C62 C 0.88177 0.20475 1.01024 0.0
C63 C 0.95125 0.30286 0.94447 0.0
C64 C 0.94266 0.26514 0.09807 0.0
C65 C 0.96488 0.24245 0.97915 0.0
O66 O 0.97084 0.26354 0.98586 0.0
O67 O 0.9441 0.22658 0.98482 0.0
O68 O 0.96837 0.31053 0.9724 0.0
O69 O 0.93375 0.28245 0.95168 0.0
O70 O 0.73071 0.64569 0.07034 0.0
Cd71 Cd 0.7527 0.66269 1.01754 0.0
Cd72 Cd 0.71335 0.66366 0.98855 0.0
O73 O 0.70498 0.65643 0.05734 0.0
O74 O 0.78039 0.66461 0.04633 0.0
O75 O 0.76885 0.6494 0.97896 0.0
C76 C 0.78361 0.65521 1.0114 0.0
C77 C 0.68801 0.6443 0.92813 0.0
C78 C 0.71435 0.64863 0.08423 0.0
C79 C 0.75611 0.7087 0.99877 0.0
O80 O 0.73697 0.69793 0.9778 0.0
O81 O 0.76441 0.69759 1.01844 0.0
O82 O 0.68429 0.65706 0.95572 0.0
O83 O 0.70555 0.6416 0.93585 0.0
O84 O 0.92171 0.66928 0.07347 0.0
Cd85 Cd 0.91234 0.67212 1.00862 0.0
Cd86 Cd 0.94839 0.66226 0.99795 0.0
O87 O 0.94713 0.65755 0.06859 0.0
O88 O 0.88803 0.67907 0.02784 0.0
O89 O 0.88038 0.65034 0.98154 0.0
C90 C 0.87317 0.66195 1.00432 0.0
C91 C 0.95094 0.63937 0.94017 0.0
C92 C 0.93559 0.66415 0.09251 0.0
C93 C 0.95625 0.7105 0.97567 0.0
O94 O 0.96407 0.69679 0.9816 0.0
O95 O 0.93495 0.70364 0.98096 0.0
O96 O 0.9676 0.65031 0.96862 0.0
O97 O 0.93205 0.63991 0.94663 0.0
O98 O 0.30219 0.23413 0.06882 0.0
Cd99 Cd 0.29974 0.22461 1.00203 0.0
Cd100 Cd 0.31276 0.26916 0.99227 0.0
O101 O 0.31889 0.27206 0.06242 0.0
O102 O 0.295 0.19285 1.00591 0.0
O103 O 0.32505 0.2213 0.97082 0.0
C104 C 0.31381 0.19993 0.98333 0.0
C105 C 0.337 0.29316 0.93406 0.0
C106 C 0.31008 0.2539 0.08705 0.0
C107 C 0.26265 0.23257 0.97457 0.0
O108 O 0.27781 0.25381 0.97967 0.0
O109 O 0.2684 0.21717 0.97629 0.0
O110 O 0.328 0.30072 0.96336 0.0
O111 O 0.33348 0.27242 0.93946 0.0
O112 O 0.7367 0.08402 0.07357 0.0
Cd113 Cd 0.75492 0.08869 1.01483 0.0
Cd114 Cd 0.70851 0.0515 0.99213 0.0
O115 O 0.70195 0.05402 0.06065 0.0
O116 O 0.78533 0.10987 0.04229 0.0
O117 O 0.77295 0.12013 0.98286 0.0
C118 C 0.78901 0.12519 1.0123 0.0
C119 C 0.68391 0.04728 0.93151 0.0
C120 C 0.71671 0.06906 0.08756 0.0
C121 C 0.74864 0.04243 0.98863 0.0
O122 O 0.72731 0.03529 0.98191 0.0
O123 O 0.76225 0.06289 1.00182 0.0
O124 O 0.67799 0.03129 0.96161 0.0
O125 O 0.7032 0.06639 0.93729 0.0
O126 O 0.6598 0.91445 0.96561 0.0
Cd127 Cd 0.67449 0.91291 0.02539 0.0
Cd128 Cd 0.6644 0.94857 0.04611 0.0
O129 O 0.65602 0.9451 0.97708 0.0
O130 O 0.68414 0.89059 1.00607 0.0
O131 O 0.66165 0.88389 0.06527 0.0
C132 C 0.6731 0.87756 0.03965 0.0
C133 C 0.64352 0.95439 0.10419 0.0
C134 C 0.65569 0.92987 0.95058 0.0
C135 C 0.71413 0.96053 0.04417 0.0
O136 O 0.69947 0.96645 0.05549 0.0
O137 O 0.7076 0.94011 0.0312 0.0
O138 O 0.65354 0.96933 0.07229 0.0
O139 O 0.6442 0.93542 0.10198 0.0
O140 O 0.07896 0.73392 0.97954 0.0
Cd141 Cd 0.08065 0.75723 0.02662 0.0
Cd142 Cd 0.04059 0.71716 0.05623 0.0
O143 O 0.04171 0.70959 0.98764 0.0
O144 O 0.10581 0.7854 0.99748 0.0
O145 O 0.10833 0.77656 0.06799 0.0
C146 C 0.11729 0.79075 0.03456 0.0
C147 C 0.03259 0.69019 0.11522 0.0
C148 C 0.05988 0.71825 0.96324 0.0
C149 C 0.03601 0.75758 0.03782 0.0
O150 O 0.02936 0.74054 0.06477 0.0
O151 O 0.05515 0.76543 1.01723 0.0
O152 O 0.01699 0.68753 0.08629 0.0
O153 O 0.05305 0.70793 0.11018 0.0
O154 O 0.24046 0.32004 0.97833 0.0
Cd155 Cd 0.22839 0.31401 0.04343 0.0
Cd156 Cd 0.27202 0.31915 0.04992 0.0
O157 O 0.27643 0.32763 0.98065 0.0
O158 O 0.19855 0.31133 0.02595 0.0
O159 O 0.22076 0.33605 0.07793 0.0
C160 C 0.20234 0.32762 0.05354 0.0
C161 C 0.29829 0.33923 0.10894 0.0
C162 C 0.25893 0.32457 0.9578 0.0
C163 C 0.22909 0.27121 0.05952 0.0
O164 O 0.25102 0.28395 0.05767 0.0
O165 O 0.21621 0.28012 0.05981 0.0
O166 O 0.30285 0.32833 0.07824 0.0
O167 O 0.27919 0.33961 0.10521 0.0
O168 O 0.7345 0.65517 0.29786 0.0
Cd169 Cd 0.74438 0.65334 0.36278 0.0
Cd170 Cd 0.70903 0.66274 0.37457 0.0
O171 O 0.70956 0.66743 0.30414 0.0
O172 O 0.77087 0.6494 0.34555 0.0
O173 O 0.77505 0.67747 0.39088 0.0
C174 C 0.78421 0.66737 0.36898 0.0
C175 C 0.70692 0.6854 0.43294 0.0
C176 C 0.72055 0.66043 0.27959 0.0
C177 C 0.7015 0.61471 0.39694 0.0
O178 O 0.69354 0.62831 0.39109 0.0
O179 O 0.72279 0.62166 0.39104 0.0
O180 O 0.69004 0.67459 0.40489 0.0
O181 O 0.72578 0.6849 0.42572 0.0
O182 O 0.3451 0.08593 0.30931 0.0
Cd183 Cd 0.34546 0.09496 0.3758 0.0
Cd184 Cd 0.33394 0.05098 0.38386 0.0
O185 O 0.32884 0.04809 0.31349 0.0
O186 O 0.34667 0.12492 0.36752 0.0
O187 O 0.31809 0.09563 0.4042 0.0
C188 C 0.32719 0.11637 0.38835 0.0
C189 C 0.3099 0.02663 0.44133 0.0
C190 C 0.33782 0.06657 0.28987 0.0
C191 C 0.38268 0.08906 0.40896 0.0
O192 O 0.36848 0.06789 0.40038 0.0
O193 O 0.37647 0.1041 0.4059 0.0
O194 O 0.3198 0.01964 0.41292 0.0
O195 O 0.31216 0.04683 0.43496 0.0
O196 O 0.93088 0.23608 0.30314 0.0
Cd197 Cd 0.90576 0.22904 0.35086 0.0
Cd198 Cd 0.93882 0.26849 0.38832 0.0
O199 O 0.95024 0.273 0.32094 0.0
O200 O 0.88016 0.19995 0.32571 0.0
O201 O 0.89109 0.20285 0.39685 0.0
C202 C 0.87691 0.19071 0.36515 0.0
C203 C 0.96292 0.27506 0.4514 0.0
C204 C 0.94519 0.2569 0.29236 0.0
C205 C 0.89566 0.26727 0.36732 0.0
O206 O 0.91205 0.27512 0.39597 0.0
O207 O 0.89168 0.24998 0.34318 0.0
O208 O 0.96553 0.2918 0.42567 0.0
O209 O 0.94706 0.25433 0.44075 0.0
O210 O 0.96322 0.39125 0.40779 0.0
Cd211 Cd 0.95804 0.39659 0.34134 0.0
Cd212 Cd 0.97868 0.36946 0.33352 0.0
O213 O 0.98453 0.37459 0.40354 0.0
O214 O 0.94482 0.41695 0.3513 0.0
O215 O 0.97622 0.42811 0.31052 0.0
C216 C 0.96115 0.43271 0.32735 0.0
C217 C 0.00374 0.36945 0.27729 0.0
C218 C 0.97376 0.38222 0.4272 0.0
C219 C 0.92729 0.34912 0.31252 0.0
O220 O 0.94459 0.34647 0.31988 0.0
O221 O 0.92913 0.36888 0.31513 0.0
O222 O -0.00403 0.35423 0.30926 0.0
O223 O -0.00127 0.38579 0.27905 0.0
O224 O 0.57121 0.58147 0.40499 0.0
Cd225 Cd 0.57242 0.56077 0.35522 0.0
Cd226 Cd 0.6087 0.60326 0.3241 0.0
O227 O 0.60595 0.61122 0.39172 0.0
O228 O 0.54911 0.53025 0.37989 0.0
O229 O 0.54606 0.54129 0.31134 0.0
C230 C 0.53815 0.52552 0.34222 0.0
C231 C 0.61487 0.62904 0.26367 0.0
C232 C 0.58878 0.60009 0.41822 0.0
C233 C 0.61967 0.56645 0.34288 0.0
O234 O 0.6249 0.58405 0.31835 0.0
O235 O 0.60029 0.55603 0.36284 0.0
O236 O 0.63025 0.63386 0.29453 0.0
O237 O 0.59554 0.6098 0.26752 0.0
O238 O 0.39828 0.98579 0.40912 0.0
Cd239 Cd 0.42081 0.00545 0.35893 0.0
Cd240 Cd 0.38372 0.00769 0.33026 0.0
O241 O 0.37499 -0.00035 0.3987 0.0
O242 O 0.44797 0.00434 0.38229 0.0
O243 O 0.43558 0.99416 0.31241 0.0
C244 C 0.45016 -0.00316 0.34371 0.0
C245 C 0.35843 0.98817 0.26965 0.0
C246 C 0.38313 0.99018 0.42446 0.0
C247 C 0.42523 0.05206 0.34776 0.0
O248 O 0.40766 0.04219 0.32197 0.0
O249 O 0.4324 0.04009 0.36791 0.0
O250 O 0.35478 0.00107 0.29699 0.0
O251 O 0.3762 0.98579 0.27717 0.0
O252 O 0.57952 -0.00023 0.40278 0.0
Cd253 Cd 0.57734 0.01449 0.34374 0.0
Cd254 Cd 0.61451 0.00788 0.32558 0.0
O255 O 0.61067 -0.00316 0.39297 0.0
O256 O 0.5509 0.01764 0.36428 0.0
O257 O 0.54893 -0.00195 0.30279 0.0
C258 C 0.5389 0.00475 0.33135 0.0
C259 C 0.61801 0.98748 0.26398 0.0
C260 C 0.59441 -0.0049 0.4182 0.0
C261 C 0.62312 0.05686 0.3298 0.0
O262 O 0.63083 0.04336 0.32026 0.0
O263 O 0.60199 0.04889 0.33979 0.0
O264 O 0.6342 -0.00272 0.29376 0.0
O265 O 0.59937 0.98852 0.26985 0.0
O266 O 0.97736 0.56829 0.4073 0.0
Cd267 Cd 0.96441 0.55543 0.34437 0.0
Cd268 Cd 0.98284 0.60462 0.33346 0.0
O269 O -0.00612 0.60628 0.4006 0.0
O270 O 0.9513 0.52222 0.35857 0.0
O271 O 0.97816 0.53961 0.30651 0.0
C272 C 0.96457 0.52101 0.32863 0.0
C273 C 0.00374 0.62958 0.27323 0.0
C274 C 0.98827 0.58835 0.42467 0.0
C275 C 0.93077 0.5711 0.3269 0.0
O276 O 0.94786 0.59164 0.32825 0.0
O277 O 0.93354 0.55376 0.33068 0.0
O278 O -0.00248 0.63693 0.30786 0.0
O279 O -0.00036 0.6085 0.27416 0.0
O280 O 0.4174 0.38799 0.4017 0.0
Cd281 Cd 0.42844 0.3945 0.33571 0.0
Cd282 Cd 0.38077 0.36699 0.32797 0.0
O283 O 0.37951 0.37193 0.39808 0.0
O284 O 0.46162 0.41618 0.34793 0.0
O285 O 0.44054 0.42648 0.30779 0.0
C286 C 0.46012 0.43206 0.32638 0.0
C287 C 0.35638 0.36654 0.2699 0.0
C288 C 0.39793 0.37919 0.42149 0.0
C289 C 0.41279 0.3476 0.30672 0.0
O290 O 0.39281 0.34472 0.31496 0.0
O291 O 0.43062 0.36753 0.30823 0.0
O292 O 0.34858 0.35128 0.30182 0.0
O293 O 0.37753 0.3833 0.27308 0.0
O294 O 0.29556 0.22935 0.29581 0.0
Cd295 Cd 0.31453 0.22516 0.34558 0.0
Cd296 Cd 0.31821 0.26428 0.3779 0.0
O297 O 0.31087 0.26652 0.30954 0.0
O298 O 0.31225 0.19591 0.32468 0.0
O299 O 0.30334 0.20035 0.39439 0.0
C300 C 0.30588 0.18761 0.36473 0.0
C301 C 0.29915 0.27015 0.43946 0.0
C302 C 0.30071 0.24946 0.28254 0.0
C303 C 0.36185 0.26552 0.36052 0.0
O304 O 0.35229 0.27334 0.38683 0.0
O305 O 0.34947 0.24734 0.33774 0.0
O306 O 0.31267 0.28689 0.41296 0.0
O307 O 0.29582 0.24976 0.43044 0.0
O308 O 0.73551 0.08553 0.30245 0.0
Cd309 Cd 0.74358 0.09632 0.36814 0.0
Cd310 Cd 0.70805 0.05297 0.37848 0.0
O311 O 0.7093 0.04873 0.30826 0.0
O312 O 0.7725 0.12568 0.35537 0.0
O313 O 0.77178 0.09898 0.40056 0.0
C314 C 0.78347 0.11862 0.38028 0.0
C315 C 0.70541 0.02739 0.43595 0.0
C316 C 0.72133 0.06655 0.28377 0.0
C317 C 0.70077 0.09397 0.39613 0.0
O318 O 0.69257 0.07223 0.3927 0.0
O319 O 0.72229 0.10787 0.39165 0.0
O320 O 0.68868 0.02191 0.4078 0.0
O321 O 0.72425 0.04695 0.43008 0.0
O322 O 0.92248 0.67814 0.30043 0.0
Cd323 Cd 0.90182 0.66493 0.35659 0.0
Cd324 Cd 0.94145 0.66385 0.38515 0.0
O325 O 0.95033 0.67064 0.31637 0.0
O326 O 0.87454 0.6643 0.32857 0.0
O327 O 0.88842 0.68145 0.39375 0.0
C328 C 0.87326 0.67575 0.36211 0.0
C329 C 0.96685 0.68275 0.44607 0.0
C330 C 0.93978 0.67642 0.28796 0.0
C331 C 0.89699 0.61891 0.37944 0.0
O332 O 0.91733 0.62972 0.39575 0.0
O333 O 0.88801 0.62984 0.3617 0.0
O334 O 0.97015 0.66968 0.41857 0.0
O335 O 0.94964 0.68597 0.43812 0.0
O336 O 0.39922 0.9876 0.63894 0.0
Cd337 Cd 0.40534 0.98146 0.70437 0.0
Cd338 Cd 0.37355 -0.00336 0.71659 0.0
O339 O 0.37776 0.00396 0.64703 0.0
O340 O 0.4267 0.96979 0.69115 0.0
O341 O 0.43673 -0.0004 0.73604 0.0
C342 C 0.4417 0.98513 0.71767 0.0
C343 C 0.372 0.01936 0.77571 0.0
C344 C 0.3878 -0.00378 0.62155 0.0
C345 C 0.35864 0.94614 0.73321 0.0
O346 O 0.35332 0.96183 0.72855 0.0
O347 O 0.37933 0.95069 0.72865 0.0
O348 O 0.35633 0.01107 0.74465 0.0
O349 O 0.38958 0.01634 0.77129 0.0
O350 O 0.96564 0.39574 0.63902 0.0
Cd351 Cd 0.98678 0.41835 0.68745 0.0
Cd352 Cd 0.98935 0.38249 0.71745 0.0
O353 O 0.98019 0.373 0.6495 0.0
O354 O 0.98357 0.44569 0.67464 0.0
O355 O 0.97808 0.43014 0.74295 0.0
C356 C 0.97897 0.44606 0.71681 0.0
C357 C 0.97223 0.35736 0.77962 0.0
C358 C 0.96983 0.38036 0.62418 0.0
C359 C 0.03335 0.4238 0.69608 0.0
O360 O 0.02371 0.40713 0.72405 0.0
O361 O 0.0211 0.43001 0.674 0.0
O362 O 0.98476 0.35414 0.75052 0.0
O363 O 0.96865 0.37442 0.7728 0.0
O364 O 0.57039 0.59454 0.63362 0.0
Cd365 Cd 0.55865 0.58791 0.69915 0.0
Cd366 Cd 0.60562 0.6174 0.70977 0.0
O367 O 0.6083 0.61266 0.64026 0.0
O368 O 0.52617 0.56463 0.68551 0.0
O369 O 0.54825 0.55635 0.72753 0.0
C370 C 0.52872 0.54949 0.70755 0.0
C371 C 0.63073 0.61871 0.76698 0.0
C372 C 0.59029 0.60407 0.61538 0.0
C373 C 0.57125 0.63409 0.72915 0.0
O374 O 0.59183 0.63829 0.72256 0.0
O375 O 0.55423 0.61371 0.72579 0.0
O376 O 0.63767 0.63436 0.73591 0.0
O377 O 0.60986 0.6014 0.76407 0.0
O378 O 0.68145 0.75344 0.74149 0.0
Cd379 Cd 0.66327 0.75776 0.69033 0.0
Cd380 Cd 0.66085 0.71867 0.65941 0.0
O381 O 0.66812 0.71658 0.72782 0.0
O382 O 0.66492 0.7863 0.71374 0.0
O383 O 0.67618 0.78426 0.64464 0.0
C384 C 0.67331 0.79619 0.67562 0.0
C385 C 0.68 0.7131 0.59792 0.0
C386 C 0.67707 0.73361 0.75508 0.0
C387 C 0.61648 0.71654 0.67467 0.0
O388 O 0.62665 0.70876 0.64995 0.0
O389 O 0.62824 0.73529 0.69623 0.0
O390 O 0.66691 0.69634 0.62477 0.0
O391 O 0.68297 0.73337 0.6067 0.0
O392 O 0.2368 0.92927 0.74659 0.0
Cd393 Cd 0.23346 0.9067 0.69626 0.0
Cd394 Cd 0.27234 0.94538 0.66484 0.0
O395 O 0.27358 0.95399 0.73359 0.0
O396 O 0.2076 0.8788 0.72409 0.0
O397 O 0.20535 0.88954 0.65488 0.0
C398 C 0.19594 0.87487 0.68745 0.0
C399 C 0.27854 0.97091 0.60454 0.0
C400 C 0.25626 0.94542 0.76028 0.0
C401 C 0.27636 0.90415 0.67838 0.0
O402 O 0.28324 0.92203 0.65377 0.0
O403 O 0.25773 0.89646 0.70075 0.0
O404 O 0.29491 0.97448 0.63223 0.0
O405 O 0.25824 0.9533 0.61194 0.0
O406 O 0.07938 0.34689 0.74633 0.0
Cd407 Cd 0.09025 0.35048 0.68011 0.0
Cd408 Cd 0.04284 0.33213 0.67098 0.0
O409 O 0.04131 0.32746 0.74149 0.0
O410 O 0.12366 0.36277 0.69095 0.0
O411 O 0.10275 0.33094 0.65191 0.0
C412 C 0.12262 0.34597 0.66802 0.0
C413 C 0.01825 0.30671 0.61499 0.0
C414 C 0.05966 0.33772 0.76535 0.0
C415 C 0.07583 0.38248 0.64605 0.0
O416 O 0.05538 0.36615 0.65404 0.0
O417 O 0.09299 0.37948 0.65053 0.0
O418 O 0.01067 0.31525 0.64516 0.0
O419 O 0.03936 0.31109 0.61869 0.0
O420 O 0.2431 0.32701 0.7429 0.0
Cd421 Cd 0.23959 0.33741 0.67939 0.0
Cd422 Cd 0.27079 0.31975 0.66517 0.0
O423 O 0.26551 0.31166 0.73451 0.0
O424 O 0.22063 0.35145 0.69641 0.0
O425 O 0.20838 0.32322 0.64678 0.0
C426 C 0.205 0.33802 0.66844 0.0
C427 C 0.27145 0.29712 0.60483 0.0
C428 C 0.25391 0.31764 0.75984 0.0
C429 C 0.2878 0.37093 0.65129 0.0
O430 O 0.29198 0.35437 0.65345 0.0
O431 O 0.26775 0.36774 0.65873 0.0
O432 O 0.28693 0.30435 0.63624 0.0
O433 O 0.25442 0.30099 0.60966 0.0
O434 O 0.65626 0.91425 0.73515 0.0
Cd435 Cd 0.65066 0.90171 0.67038 0.0
Cd436 Cd 0.6595 0.94617 0.65884 0.0
O437 O 0.66745 0.95117 0.72815 0.0
O438 O 0.64728 0.87142 0.68642 0.0
O439 O 0.67321 0.89471 0.63674 0.0
C440 C 0.66409 0.87573 0.65965 0.0
C441 C 0.68029 0.97093 0.59856 0.0
C442 C 0.66238 0.93371 0.75321 0.0
C443 C 0.61036 0.90543 0.6468 0.0
O444 O 0.62434 0.92713 0.64896 0.0
O445 O 0.61753 0.89119 0.65067 0.0
O446 O 0.67036 0.97695 0.62884 0.0
O447 O 0.67975 0.95146 0.60404 0.0
O448 O 0.07718 0.73562 0.74761 0.0
Cd449 Cd 0.08957 0.74345 0.68274 0.0
Cd450 Cd 0.04484 0.70847 0.67179 0.0
O451 O 0.03996 0.71088 0.74145 0.0
O452 O 0.12033 0.76885 0.70103 0.0
O453 O 0.09861 0.77444 0.65253 0.0
C454 C 0.11732 0.7828 0.67607 0.0
C455 C 0.02137 0.70701 0.61118 0.0
C456 C 0.0578 0.72242 0.76611 0.0
C457 C 0.08483 0.69924 0.65697 0.0
O458 O 0.06321 0.69171 0.66081 0.0
O459 O 0.0993 0.72066 0.66012 0.0
O460 O 0.01422 0.69031 0.6401 0.0
O461 O 0.04127 0.72527 0.61825 0.0
O462 O 0.00179 0.57595 0.63987 0.0
Cd463 Cd 0.01061 0.57401 0.70544 0.0
Cd464 Cd -0.00168 0.60613 0.71526 0.0
O465 O 0.98742 0.59909 0.64749 0.0
O466 O 0.01345 0.54592 0.70409 0.0
O467 O 0.98788 0.54875 0.74736 0.0
C468 C -0.00327 0.53667 0.73275 0.0
C469 C 0.97778 0.61002 0.77654 0.0
C470 C -0.00724 0.58691 0.62235 0.0
C471 C 0.04932 0.62013 0.7198 0.0
O472 O 0.03379 0.62587 0.71921 0.0
O473 O 0.0439 0.59907 0.71844 0.0
O474 O 0.98548 0.62476 0.7437 0.0
O475 O 0.98068 0.59232 0.77365 0.0
O476 O 0.41958 0.39708 0.63167 0.0
Cd477 Cd 0.41973 0.41901 0.68036 0.0
Cd478 Cd 0.38226 0.37743 0.71347 0.0
O479 O 0.3836 0.36966 0.64489 0.0
O480 O 0.44327 0.44871 0.65331 0.0
O481 O 0.44648 0.43904 0.72295 0.0
C482 C 0.45434 0.4542 0.69091 0.0
C483 C 0.37386 0.35083 0.77346 0.0
C484 C 0.40098 0.37951 0.61839 0.0
C485 C 0.37381 0.41579 0.69588 0.0
O486 O 0.36864 0.39874 0.72193 0.0
O487 O 0.39251 0.42483 0.67356 0.0
O488 O 0.3589 0.3473 0.74244 0.0
O489 O 0.39411 0.36898 0.76963 0.0
O490 O 0.57077 0.98816 0.63278 0.0
Cd491 Cd 0.55886 0.97953 0.69787 0.0
Cd492 Cd 0.60447 0.99265 0.70879 0.0
O493 O 0.6081 0.00107 0.63989 0.0
O494 O 0.52598 0.96934 0.68609 0.0
O495 O 0.54649 -0.003 0.73489 0.0
C496 C 0.52693 0.98389 0.71544 0.0
C497 C 0.62852 0.0156 0.76796 0.0
C498 C 0.59052 -0.00455 0.61486 0.0
C499 C 0.56871 0.94193 0.71666 0.0
O500 O 0.58993 0.95757 0.71698 0.0
O501 O 0.55301 0.94717 0.71319 0.0
O502 O 0.63599 0.00726 0.73713 0.0
O503 O 0.60765 0.01191 0.76404 0.0
C504 C 0.98787 0.23237 0.0264 0.0
C505 C 0.98345 0.23694 0.9821 0.0
C506 C 0.01022 0.24499 0.04441 0.0
C507 C 0.02852 0.26124 1.01746 0.0
H508 H 0.97363 0.2231 0.04988 0.0
H509 H 0.01233 0.24483 0.08077 0.0
S510 S 0.02693 0.26912 0.89352 0.0
N511 N -0.00034 0.25167 0.90802 0.0
N512 N 0.04214 0.27382 0.94039 0.0
C513 C 0.0251 0.26047 0.97026 0.0
C514 C 0.00222 0.24846 0.95261 0.0
C515 C 0.76211 0.73407 0.06295 0.0
C516 C 0.76273 0.73192 1.01553 0.0
C517 C 0.75123 0.74537 0.08192 0.0
C518 C 0.74203 0.75566 0.05379 0.0
H519 H 0.76564 0.72326 0.08511 0.0
H520 H 0.7466 0.74263 0.11749 0.0
S521 S 0.74954 0.76395 0.92981 0.0
N522 N 0.7604 0.74719 0.9425 0.0
N523 N 0.74179 0.77021 0.97854 0.0
C524 C 0.74854 0.75904 1.00791 0.0
C525 C 0.75853 0.7466 0.98837 0.0
C526 C 0.25606 0.02693 0.08491 0.0
C527 C 0.25726 0.03164 0.03817 0.0
C528 C 0.24391 0.00406 0.10055 0.0
C529 C 0.23237 0.98577 0.06982 0.0
H530 H 0.26779 0.04013 0.10823 0.0
H531 H 0.24705 0.00054 0.13485 0.0
S532 S 0.22185 0.99059 0.94847 0.0
N533 N 0.24003 0.01741 0.96446 0.0
N534 N 0.21597 0.97452 0.99451 0.0
C535 C 0.22848 0.99104 0.0258 0.0
C536 C 0.24152 0.01415 1.00948 0.0
C537 C 0.01495 0.75671 0.96938 0.0
C538 C 0.01785 0.76067 1.01645 0.0
C539 C -0.00727 0.74371 0.95104 0.0
C540 C 0.97324 0.7352 0.97925 0.0
H541 H 0.02947 0.75965 0.94826 0.0
H542 H 0.99105 0.73691 0.91706 0.0
S543 S 0.97229 0.75129 0.09876 0.0
N544 N 2e-05 0.76244 0.08668 0.0
N545 N 0.95816 0.73929 0.05144 0.0
C546 C 0.97613 0.74471 0.02284 0.0
C547 C -0.00132 0.75713 0.04198 0.0
C548 C 0.23453 0.22139 0.03461 0.0
C549 C 0.23913 0.22637 0.98809 0.0
C550 C 0.22582 0.23294 0.06048 0.0
C551 C 0.22004 0.24821 0.03951 0.0
H552 H 0.24223 0.21276 0.05259 0.0
H553 H 0.22732 0.23293 0.09702 0.0
S554 S 0.21819 0.25733 0.91631 0.0
N555 N 0.23038 0.24114 0.92068 0.0
N556 N 0.21125 0.26053 0.96846 0.0
C557 C 0.21825 0.2476 0.99195 0.0
C558 C 0.22854 0.23714 0.96603 0.0
C559 C 0.74891 -0.00189 0.0576 0.0
C560 C 0.73652 0.97928 0.02846 0.0
C561 C 0.75859 0.02075 0.04115 0.0
C562 C 0.75505 0.02469 0.9958 0.0
H563 H 0.74782 -0.00458 0.09393 0.0
H564 H 0.76476 0.03468 0.06563 0.0
S565 S 0.73143 0.98143 0.90398 0.0
N566 N 0.72807 0.96621 0.95035 0.0
N567 N 0.74455 0.00876 0.9202 0.0
C568 C 0.7472 0.00634 0.96513 0.0
C569 C 0.73835 0.98341 0.9815 0.0
C570 C 0.66578 0.58163 0.42447 0.0
C571 C 0.68451 0.59001 0.39426 0.0
C572 C 0.64309 0.56866 0.40831 0.0
C573 C 0.63893 0.56441 0.36158 0.0
H574 H 0.66839 0.58854 0.45853 0.0
H575 H 0.62913 0.56579 0.43104 0.0
S576 S 0.68222 0.57402 0.2737 0.0
N577 N 0.69761 0.58597 0.31984 0.0
N578 N 0.65485 0.56284 0.28881 0.0
C579 C 0.6574 0.56812 0.33362 0.0
C580 C 0.68042 0.5805 0.3505 0.0
C581 C 0.42659 0.07376 0.41554 0.0
C582 C 0.43007 0.0741 0.36837 0.0
C583 C 0.4149 0.0844 0.43388 0.0
C584 C 0.4072 0.09601 0.40551 0.0
H585 H 0.42873 0.06177 0.43692 0.0
H586 H 0.40823 0.07988 0.46811 0.0
S587 S 0.42262 0.11111 0.28508 0.0
N588 N 0.43238 0.0934 0.29744 0.0
N589 N 0.4118 0.11475 0.33269 0.0
C590 C 0.41651 0.1018 0.36158 0.0
C591 C 0.42753 0.09023 0.34244 0.0
C592 C 0.89056 0.2877 0.30327 0.0
C593 C 0.88827 0.28326 0.35025 0.0
C594 C 0.89913 0.31024 0.28713 0.0
C595 C 0.90461 0.32838 0.31752 0.0
H596 H 0.88996 0.27494 0.27979 0.0
H597 H 0.90512 0.31403 0.25237 0.0
S598 S 0.89142 0.32328 0.44005 0.0
N599 N 0.88491 0.29695 0.42439 0.0
N600 N 0.89947 0.33908 0.39339 0.0
C601 C 0.89645 0.32281 0.36223 0.0
C602 C 0.88869 0.30013 0.37905 0.0
C603 C 0.64249 0.0824 0.39327 0.0
C604 C 0.64026 0.07998 0.34587 0.0
C605 C 0.66446 0.09296 0.4133 0.0
C606 C 0.68437 0.1019 0.38611 0.0
H607 H 0.62762 0.07225 0.41485 0.0
H608 H 0.66563 0.09031 0.44919 0.0
S609 S 0.68703 0.10946 0.26173 0.0
N610 N 0.65912 0.09385 0.27333 0.0
N611 N 0.70045 0.1155 0.31108 0.0
C612 C 0.68207 0.10527 0.33979 0.0
C613 C 0.6598 0.09357 0.31929 0.0
C614 C 0.8919 0.58051 0.39515 0.0
C615 C 0.88876 0.59501 0.36509 0.0
C616 C 0.90109 0.56699 0.37952 0.0
C617 C 0.90793 0.56846 0.33401 0.0
H618 H 0.89108 0.58264 0.43137 0.0
H619 H 0.90693 0.55913 0.40445 0.0
S620 S 0.89456 0.59642 0.24023 0.0
N621 N 0.88545 0.60354 0.28623 0.0
N622 N 0.90447 0.5795 0.25762 0.0
C623 C 0.90001 0.5786 0.30272 0.0
C624 C 0.88977 0.59157 0.3183 0.0
C625 C 0.40251 0.30888 0.28142 0.0
C626 C 0.41494 0.327 0.31202 0.0
C627 C 0.38804 0.28636 0.29738 0.0
C628 C 0.38533 0.28188 0.34431 0.0
H629 H 0.40081 0.31272 0.24644 0.0
H630 H 0.37605 0.27366 0.2736 0.0
S631 S 0.42117 0.3218 0.43519 0.0
N632 N 0.42977 0.33757 0.38852 0.0
N633 N 0.40133 0.29553 0.41911 0.0
C634 C 0.40142 0.29872 0.37364 0.0
C635 C 0.41684 0.32135 0.35704 0.0
C636 C 0.29851 0.9018 0.74175 0.0
C637 C 0.29417 0.89917 0.69479 0.0
C638 C 0.32128 0.91392 0.75774 0.0
C639 C 0.33985 0.92236 0.72724 0.0
H640 H 0.28479 0.89874 0.7653 0.0
H641 H 0.32421 0.91986 0.79254 0.0
S642 S 0.33687 0.9103 0.60446 0.0
N643 N 0.30961 0.89919 0.62042 0.0
N644 N 0.35244 0.92034 0.65105 0.0
C645 C 0.33542 0.91427 0.68241 0.0
C646 C 0.31234 0.9029 0.66581 0.0
C647 C 0.05547 0.42301 0.63084 0.0
C648 C 0.0556 0.42844 0.67699 0.0
C649 C 0.06683 0.41132 0.6164 0.0
C650 C 0.0793 0.40589 0.64741 0.0
H651 H 0.0432 0.4237 0.6078 0.0
H652 H 0.06277 0.40334 0.5832 0.0
S653 S 0.0927 0.42542 0.76635 0.0
N654 N 0.07451 0.43391 0.74965 0.0
N655 N 0.09726 0.41339 0.72161 0.0
C656 C 0.0842 0.4165 0.69017 0.0
C657 C 0.07191 0.42753 0.70539 0.0
C658 C 0.59188 0.69503 0.7388 0.0
C659 C 0.59345 0.69956 0.69192 0.0
C660 C 0.57944 0.67225 0.7548 0.0
C661 C 0.56767 0.65387 0.72439 0.0
H662 H 0.60361 0.70824 0.76212 0.0
H663 H 0.5823 0.6688 0.78936 0.0
S664 S 0.55848 0.65825 0.60216 0.0
N665 N 0.57676 0.68509 0.61794 0.0
N666 N 0.55196 0.64241 0.64865 0.0
C667 C 0.56435 0.65903 0.67987 0.0
C668 C 0.57777 0.68203 0.6632 0.0
C669 C 0.33729 0.41543 0.7104 0.0
C670 C 0.35457 0.4185 0.6794 0.0
C671 C 0.31402 0.40372 0.69739 0.0
C672 C 0.30774 0.39426 0.65371 0.0
H673 H 0.34137 0.41888 0.74606 0.0
H674 H 0.30098 0.39851 0.72367 0.0
S675 S 0.34684 0.40512 0.5567 0.0
N676 N 0.36427 0.41775 0.60009 0.0
N677 N 0.3203 0.39426 0.57678 0.0
C678 C 0.32494 0.40131 0.62059 0.0
C679 C 0.34863 0.41395 0.63331 0.0
C680 C 0.58184 0.89546 0.70551 0.0
C681 C 0.58638 0.89806 0.6586 0.0
C682 C 0.57145 0.90679 0.72652 0.0
C683 C 0.56387 0.91924 0.70045 0.0
H684 H 0.59062 0.88909 0.72695 0.0
H685 H 0.57255 0.90869 0.76302 0.0
S686 S 0.56266 0.92193 0.57536 0.0
N687 N 0.57662 0.90786 0.58618 0.0
N688 N 0.55467 0.92691 0.62511 0.0
C689 C 0.56283 0.91646 0.65313 0.0
C690 C 0.57461 0.90616 0.63201 0.0
C691 C 0.08402 0.6631 0.63859 0.0
C692 C 0.09227 0.68248 0.66687 0.0
C693 C 0.07463 0.64093 0.65739 0.0
C694 C 0.07229 0.6379 0.70469 0.0
H695 H 0.08126 0.66464 0.6029 0.0
H696 H 0.06505 0.62623 0.63517 0.0
S697 S 0.09955 0.68356 0.79118 0.0
N698 N 0.10497 0.69771 0.74267 0.0
N699 N 0.08524 0.6558 0.77809 0.0
C700 C 0.08497 0.65719 0.73223 0.0
C701 C 0.0956 0.67975 0.713 0.0
C702 C 0.17902 0.34036 1.01148 0.0
C703 C 0.18638 0.33674 0.05359 0.0
C704 C 0.16001 0.34358 1.0081 0.0
C705 C 0.14735 0.34296 0.04671 0.0
H706 H 0.18729 0.33946 0.98053 0.0
H707 H 0.1544 0.34518 0.97455 0.0
S708 S 0.16161 0.33706 0.1656 0.0
N709 N 0.18146 0.33527 0.1352 0.0
N710 N 0.14516 0.34102 0.12906 0.0
C711 C 0.1557 0.34131 0.08951 0.0
C712 C 0.17538 0.33822 0.09291 0.0
C713 C 0.65689 0.81511 0.06134 0.0
C714 C 0.67776 0.81566 0.05088 0.0
C715 C 0.65549 0.83548 0.06022 0.0
C716 C 0.67491 0.85681 0.04848 0.0
H717 H 0.64136 0.79879 0.06835 0.0
H718 H 0.63894 0.83434 0.06627 0.0
S719 S 0.73436 0.86809 0.02643 0.0
N720 N 0.71886 0.83989 0.03456 0.0
N721 N 0.71608 0.87775 0.03201 0.0
C722 C 0.6961 0.85772 0.04104 0.0
C723 C 0.69757 0.83723 0.04237 0.0
C724 C 0.14465 0.82939 1.00282 0.0
C725 C 0.13902 0.81332 0.03822 0.0
C726 C 0.16375 0.85161 1.00554 0.0
C727 C 0.17836 0.8588 0.04349 0.0
H728 H 0.13389 0.82506 0.9729 0.0
H729 H 0.16697 0.86334 0.97753 0.0
S730 S 0.17242 0.82313 0.14434 0.0
N731 N 0.15025 0.80585 0.11193 0.0
N732 N 0.18672 0.84787 0.11656 0.0
C733 C 0.17362 0.84277 0.07856 0.0
C734 C 0.15379 0.82 0.07609 0.0
C735 C 0.34235 0.18735 0.99859 0.0
C736 C 0.32251 0.18394 0.97548 0.0
C737 C 0.3469 0.16911 1.00376 0.0
C738 C 0.33214 0.14728 0.9847 0.0
H739 H 0.35317 0.20346 1.01626 0.0
H740 H 0.36112 0.17162 0.02524 0.0
S741 S 0.27933 0.13048 0.91736 0.0
N742 N 0.28891 0.15778 0.93107 0.0
N743 N 0.29807 0.12382 0.93901 0.0
C744 C 0.31343 0.14434 0.95826 0.0
C745 C 0.30844 0.16265 0.95411 0.0
C746 C 0.85011 0.16926 0.04472 0.0
C747 C 0.85727 0.18614 1.01063 0.0
C748 C 0.82781 0.15025 0.04539 0.0
C749 C 0.81156 0.14704 1.01176 0.0
H750 H 0.86193 0.17051 0.07114 0.0
H751 H 0.82355 0.13769 0.07224 0.0
S752 S 0.82104 0.18714 0.91652 0.0
N753 N 0.84603 0.19934 0.94365 0.0
N754 N 0.80375 0.16312 0.94454 0.0
C755 C 0.81811 0.16421 0.9782 0.0
C756 C 0.84103 0.18388 0.97775 0.0
C757 C 0.84043 0.66058 0.04572 0.0
C758 C 0.84875 0.65611 1.00556 0.0
C759 C 0.81878 0.65885 0.04749 0.0
C760 C 0.80454 0.65289 1.00896 0.0
H761 H 0.85106 0.66612 0.07594 0.0
H762 H 0.81362 0.66315 0.07917 0.0
S763 S 0.81747 0.63731 0.89636 0.0
N764 N 0.84054 0.64359 0.92718 0.0
N765 N 0.79959 0.64065 0.93011 0.0
C766 C 0.81205 0.64706 0.96907 0.0
C767 C 0.83423 0.64859 0.96746 0.0
C768 C 0.8213 0.6776 0.40841 0.0
C769 C 0.80922 0.67599 0.36837 0.0
C770 C 0.84333 0.67964 0.40662 0.0
C771 C 0.85367 0.6801 0.36472 0.0
H772 H 0.813 0.67548 0.44101 0.0
H773 H 0.85142 0.67904 0.43796 0.0
S774 S 0.83074 0.68114 0.25085 0.0
N775 N 0.81036 0.67833 0.28634 0.0
N776 N 0.85168 0.68252 0.28277 0.0
C777 C 0.84259 0.68081 0.3248 0.0
C778 C 0.82032 0.67862 0.32668 0.0
C779 C 0.30154 0.15012 0.34067 0.0
C780 C 0.30444 0.16539 0.37618 0.0
C781 C 0.3068 0.13251 0.34657 0.0
C782 C 0.3149 0.12939 0.38824 0.0
H783 H 0.2968 0.15283 0.30708 0.0
H784 H 0.30614 0.12235 0.31739 0.0
S785 S 0.32234 0.16231 0.49366 0.0
N786 N 0.3134 0.17445 0.45604 0.0
N787 N 0.32331 0.14109 0.46685 0.0
C788 C 0.31585 0.14301 0.42517 0.0
C789 C 0.31049 0.16106 0.41925 0.0
C790 C 0.82061 0.13696 0.33975 0.0
C791 C 0.80883 0.13217 0.38121 0.0
C792 C 0.84367 0.15452 0.33607 0.0
C793 C 0.8557 0.16825 0.37363 0.0
H794 H 0.81148 0.128 0.30928 0.0
H795 H 0.85157 0.15843 0.30277 0.0
S796 S 0.83314 0.16054 0.4911 0.0
N797 N 0.8112 0.14056 0.46157 0.0
N798 N 0.85474 0.17407 0.45485 0.0
C799 C 0.84469 0.16227 0.41623 0.0
C800 C 0.8211 0.14412 0.41995 0.0
C801 C 0.94314 0.45717 0.33521 0.0
C802 C 0.96227 0.45526 0.32132 0.0
C803 C 0.94394 0.47841 0.33539 0.0
C804 C 0.96385 0.49877 0.32151 0.0
H805 H 0.92746 0.44219 0.34727 0.0
H806 H 0.92887 0.47889 0.34761 0.0
S807 S 0.01814 0.50317 0.27859 0.0
N808 N 0.00139 0.47544 0.29061 0.0
N809 N 0.00281 0.51568 0.29081 0.0
C810 C 0.98278 0.49711 0.30527 0.0
C811 C 0.98202 0.47528 0.30523 0.0
C812 C 0.51674 0.48387 0.36129 0.0
C813 C 0.51817 0.50207 0.33497 0.0
C814 C 0.49819 0.4614 0.35707 0.0
C815 C 0.47997 0.45605 0.32672 0.0
H816 H 0.53014 0.48693 0.38555 0.0
H817 H 0.49803 0.44821 0.37868 0.0
S818 S 0.47551 0.49741 0.24923 0.0
N819 N 0.5001 0.51334 0.27655 0.0
N820 N 0.46466 0.47083 0.26912 0.0
C821 C 0.48118 0.47401 0.29969 0.0
C822 C 0.50043 0.49706 0.30362 0.0
C823 C 0.48215 -0.00064 0.295 0.0
C824 C 0.46981 0.993 0.33618 0.0
C825 C 0.50413 0.00136 0.2918 0.0
C826 C 0.51409 -0.003 0.3297 0.0
H827 H 0.47564 0.00449 0.26633 0.0
H828 H 0.51401 0.00797 0.26082 0.0
S829 S 0.48677 0.97532 0.44184 0.0
N830 N 0.46764 0.97893 0.41303 0.0
N831 N 0.50877 0.98283 0.40701 0.0
C832 C 0.50096 0.98857 0.36944 0.0
C833 C 0.47879 0.98651 0.37268 0.0
C834 C 0.5058 0.00567 0.72894 0.0
C835 C 0.50574 0.98461 0.72592 0.0
C836 C 0.48484 0.00597 0.72924 0.0
C837 C 0.46347 0.98522 0.72647 0.0
H838 H 0.522 0.02193 0.72816 0.0
H839 H 0.48539 0.02246 0.72881 0.0
S840 S 0.45434 0.92567 0.72724 0.0
N841 N 0.48272 0.94266 0.72681 0.0
N842 N 0.4436 0.94319 0.72746 0.0
C843 C 0.46337 0.96415 0.72731 0.0
C844 C 0.48447 0.96386 0.727 0.0
C845 C 0.9644 0.47346 0.71053 0.0
C846 C 0.9777 0.46598 0.73424 0.0
C847 C 0.96866 0.49613 0.71522 0.0
C848 C 0.98663 0.51203 0.74304 0.0
H849 H 0.95194 0.46233 0.68547 0.0
H850 H 0.95945 0.50187 0.69346 0.0
S851 S 0.0248 0.50033 0.8155 0.0
N852 N 0.00785 0.47543 0.79 0.0
N853 N 0.01644 0.51842 0.79744 0.0
C854 C -0.00124 0.50426 0.76963 0.0
C855 C -0.00591 0.48103 0.76565 0.0
C856 C 0.49339 0.51816 0.67183 0.0
C857 C 0.5102 0.52493 0.70598 0.0
C858 C 0.47583 0.49524 0.66729 0.0
C859 C 0.47399 0.47797 0.69705 0.0
H860 H 0.49385 0.53062 0.64773 0.0
H861 H 0.46338 0.49118 0.64034 0.0
S862 S 0.51353 0.48641 0.7925 0.0
N863 N 0.52413 0.51247 0.7701 0.0
N864 N 0.49049 0.46907 0.76212 0.0
C865 C 0.49055 0.48435 0.73167 0.0
C866 C 0.50883 0.50788 0.73593 0.0
C867 C 0.67021 0.84586 0.6214 0.0
C868 C 0.67324 0.85985 0.65924 0.0
C869 C 0.67241 0.82605 0.62558 0.0
C870 C 0.67749 0.81979 0.66777 0.0
H871 H 0.66435 0.84918 0.58956 0.0
H872 H 0.66824 0.81464 0.59671 0.0
S873 S 0.69102 0.85337 0.77451 0.0
N874 N 0.68452 0.86801 0.73809 0.0
N875 N 0.68883 0.83108 0.74604 0.0
C876 C 0.68267 0.83497 0.7045 0.0
C877 C 0.68044 0.85495 0.70021 0.0
C878 C 0.14562 0.81676 0.71907 0.0
C879 C 0.13459 0.80761 0.67762 0.0
C880 C 0.16449 0.83909 0.72195 0.0
C881 C 0.17343 0.85318 0.6833 0.0
H882 H 0.14004 0.8063 0.74956 0.0
H883 H 0.17269 0.84491 0.75469 0.0
S884 S 0.14911 0.83806 0.56721 0.0
N885 N 0.13235 0.81476 0.59764 0.0
N886 N 0.16846 0.85702 0.60265 0.0
C887 C 0.16169 0.84478 0.6419 0.0
C888 C 0.14209 0.8219 0.63915 0.0
C889 C 0.16239 0.32084 0.65357 0.0
C890 C 0.18428 0.34025 0.66188 0.0
C891 C 0.14234 0.3228 0.65364 0.0
C892 C 0.1437 0.34423 0.66187 0.0
H893 H 0.16063 0.30393 0.64908 0.0
H894 H 0.12567 0.30733 0.64912 0.0
S895 S 0.19751 0.4008 0.67737 0.0
N896 N 0.20641 0.38188 0.6729 0.0
N897 N 0.16909 0.38562 0.67271 0.0
C898 C 0.16571 0.36392 0.66717 0.0
C899 C 0.18592 0.36191 0.66726 0.0
C900 C 0.009 0.36947 0.19331 0.0
C901 C 0.01535 0.36635 0.23709 0.0
C902 C 0.01663 0.36296 0.15452 0.0
C903 C 0.03157 0.35387 0.15792 0.0
H904 H -0.00295 0.37585 0.18906 0.0
H905 H 0.0105 0.36472 0.12163 0.0
S906 S 0.0543 0.34342 0.26441 0.0
N907 N 0.03781 0.35394 0.28139 0.0
N908 N 0.05309 0.34287 0.2085 0.0
C909 C 0.03889 0.35166 0.20133 0.0
C910 C 0.03053 0.35757 0.24089 0.0
C911 C 0.61379 0.63514 0.17995 0.0
C912 C 0.62007 0.64451 0.2238 0.0
C913 C 0.62136 0.64944 0.14129 0.0
C914 C 0.63475 0.67368 0.14512 0.0
H915 H 0.60392 0.61656 0.17537 0.0
H916 H 0.61704 0.64145 0.10813 0.0
S917 S 0.65475 0.70685 0.25233 0.0
N918 N 0.64005 0.67955 0.26874 0.0
N919 N 0.65329 0.7064 0.19647 0.0
C920 C 0.64024 0.68328 0.18885 0.0
C921 C 0.63317 0.66871 0.22807 0.0
C922 C 0.33905 0.9723 0.14726 0.0
C923 C 0.31483 0.96201 0.15023 0.0
C924 C 0.353 0.9795 0.18637 0.0
C925 C 0.34329 0.97753 0.22964 0.0
H926 H 0.3473 0.97515 0.11441 0.0
H927 H 0.3716 0.98771 0.18249 0.0
S928 S 0.28085 0.95191 0.25576 0.0
N929 N 0.28174 0.94966 0.20017 0.0
N930 N 0.30798 0.96428 0.27313 0.0
C931 C 0.31911 0.96709 0.23304 0.0
C932 C 0.30487 0.95904 0.19349 0.0
C933 C 0.35169 0.05063 0.85499 0.0
C934 C 0.35398 0.04292 0.89802 0.0
C935 C 0.35827 0.0436 0.81542 0.0
C936 C 0.36822 0.02936 0.81761 0.0
H937 H 0.34366 0.0612 0.85169 0.0
H938 H 0.35516 0.04899 0.78284 0.0
S939 S 0.37919 0.00563 0.92228 0.0
N940 N 0.36735 0.02074 0.9405 0.0
N941 N 0.38077 0.00851 0.86661 0.0
C942 C 0.3716 0.02247 0.86061 0.0
C943 C 0.3642 0.02898 0.90068 0.0
C944 C 0.96209 0.34006 0.90397 0.0
C945 C 0.95317 0.31599 0.90252 0.0
C946 C 0.96685 0.35317 0.86391 0.0
C947 C 0.96373 0.3428 0.82102 0.0
H948 H 0.9658 0.34888 0.93629 0.0
H949 H 0.97415 0.37172 0.86658 0.0
S950 S 0.94082 0.28042 0.79875 0.0
N951 N 0.94076 0.28227 0.85454 0.0
N952 N 0.95084 0.30702 0.7796 0.0
C953 C 0.95458 0.31874 0.81917 0.0
C954 C 0.949 0.30531 0.85982 0.0
C955 C 0.64931 0.62353 0.88993 0.0
C956 C 0.67359 0.63482 0.88694 0.0
C957 C 0.63546 0.61685 0.85077 0.0
C958 C 0.64543 0.62206 0.80721 0.0
H959 H 0.64099 0.62023 0.92278 0.0
H960 H 0.61687 0.60875 0.85469 0.0
S961 S 0.70818 0.65118 0.78113 0.0
N962 N 0.70697 0.65012 0.83703 0.0
N963 N 0.68107 0.63873 0.76358 0.0
C964 C 0.66967 0.63301 0.80385 0.0
C965 C 0.68371 0.63909 0.84367 0.0
C966 C 0.96777 0.61773 0.90076 0.0
C967 C 0.95458 0.62884 0.8988 0.0
C968 C 0.97395 0.61035 0.86112 0.0
C969 C 0.9679 0.61456 0.81791 0.0
H970 H 0.97374 0.61513 0.93313 0.0
H971 H 0.98457 0.60238 0.86427 0.0
S972 S 0.93319 0.64269 0.7942 0.0
N973 N 0.93496 0.64287 0.85001 0.0
N974 N 0.94747 0.63003 0.77572 0.0
C975 C 0.95439 0.62528 0.81556 0.0
C976 C 0.94749 0.63214 0.85592 0.0
C977 C 0.36361 0.33128 0.89657 0.0
C978 C 0.34896 0.30716 0.89325 0.0
C979 C 0.37287 0.34515 0.85763 0.0
C980 C 0.36711 0.33551 0.8139 0.0
H981 H 0.36762 0.33955 0.92948 0.0
H982 H 0.38362 0.3637 0.86176 0.0
S983 S 0.32971 0.27332 0.78671 0.0
N984 N 0.32987 0.2742 0.84263 0.0
N985 N 0.34626 0.30033 0.76969 0.0
C986 C 0.35278 0.31141 0.81019 0.0
C987 C 0.34399 0.29722 0.84978 0.0
C988 C 0.64568 0.02945 0.89154 0.0
C989 C 0.66998 0.04265 0.88963 0.0
C990 C 0.63228 0.02208 0.85182 0.0
C991 C 0.64274 0.02694 0.80874 0.0
H992 H 0.63697 0.02432 0.92402 0.0
H993 H 0.61366 0.01142 0.85498 0.0
S994 S 0.70572 0.06122 0.7852 0.0
N995 N 0.70389 0.06106 0.84101 0.0
N996 N 0.67883 0.04633 0.76658 0.0
C997 C 0.66699 0.04053 0.80637 0.0
C998 C 0.68058 0.04863 0.84674 0.0
C999 C 0.6383 0.95503 0.1881 0.0
C1000 C 0.63385 0.96012 0.14425 0.0
C1001 C 0.63263 0.96349 0.22678 0.0
C1002 C 0.62156 0.97664 0.22312 0.0
H1003 H 0.64731 0.94545 0.19252 0.0
H1004 H 0.63727 0.96 0.25981 0.0
S1005 S 0.60488 0.99359 0.11624 0.0
N1006 N 0.61723 0.97871 0.09955 0.0
N1007 N 0.60555 0.99358 0.17218 0.0
C1008 C 0.61604 0.98093 0.17958 0.0
C1009 C 0.62247 0.97295 0.14018 0.0
C1010 C 0.02987 0.66769 0.2352 0.0
C1011 C 0.01288 0.64416 0.23194 0.0
C1012 C 0.03699 0.68224 0.19684 0.0
C1013 C 0.02671 0.67398 0.15416 0.0
H1014 H 0.03757 0.67497 0.26772 0.0
H1015 H 0.04993 0.70029 0.20106 0.0
S1016 S 0.98107 0.61382 0.12795 0.0
N1017 N 0.98618 0.61323 0.18251 0.0
N1018 N -0.00131 0.64065 0.11113 0.0
C1019 C 0.00973 0.65046 0.15056 0.0
C1020 C 0.00304 0.63554 0.18923 0.0
C1021 C 0.31813 0.35339 0.23159 0.0
C1022 C 0.34229 0.36309 0.22849 0.0
C1023 C 0.30415 0.34702 0.19255 0.0
C1024 C 0.3137 0.34932 0.14899 0.0
H1025 H 0.3099 0.35025 0.26451 0.0
H1026 H 0.28559 0.33914 0.19669 0.0
S1027 S 0.37599 0.37405 0.12224 0.0
N1028 N 0.3752 0.37546 0.17801 0.0
N1029 N 0.3489 0.36255 0.10509 0.0
C1030 C 0.33786 0.35936 0.1454 0.0
C1031 C 0.35215 0.3665 0.185 0.0
C1032 C 0.68684 0.71613 0.51405 0.0
C1033 C 0.68989 0.70862 0.55671 0.0
C1034 C 0.69306 0.70919 0.47388 0.0
C1035 C 0.70341 0.69531 0.47514 0.0
H1036 H 0.6785 0.72644 0.51155 0.0
H1037 H 0.68937 0.71436 0.44162 0.0
S1038 S 0.71598 0.6719 0.57834 0.0
N1039 N 0.70408 0.68674 0.59775 0.0
N1040 N 0.71694 0.67482 0.52269 0.0
C1041 C 0.70747 0.68857 0.5177 0.0
C1042 C 0.70039 0.69492 0.55837 0.0
C1043 C 0.28513 0.98872 0.48083 0.0
C1044 C 0.29885 0.01298 0.48286 0.0
C1045 C 0.27726 0.97528 0.52054 0.0
C1046 C 0.28361 0.98557 0.56363 0.0
H1047 H 0.28087 0.98004 0.44833 0.0
H1048 H 0.26721 0.95662 0.51747 0.0
S1049 S 0.31916 0.04832 0.58745 0.0
N1050 N 0.3177 0.04674 0.53162 0.0
N1051 N 0.30407 0.0214 0.60597 0.0
C1052 C 0.29702 0.00978 0.5661 0.0
C1053 C 0.30431 0.02351 0.52578 0.0
C1054 C 0.01457 0.30132 0.53097 0.0
C1055 C 0.00419 0.2952 0.57411 0.0
C1056 C 0.00115 0.29419 0.49126 0.0
C1057 C 0.97695 0.27996 0.49315 0.0
H1058 H 0.03307 0.31282 0.52789 0.0
H1059 H 0.00972 0.30023 0.45884 0.0
S1060 S 0.94148 0.25788 0.5974 0.0
N1061 N 0.96827 0.27359 0.61617 0.0
N1062 N 0.94325 0.25918 0.54154 0.0
C1063 C 0.96648 0.27275 0.53591 0.0
C1064 C 0.98004 0.28063 0.57639 0.0
C1065 C 0.28975 0.26521 0.52257 0.0
C1066 C 0.28904 0.27469 0.48039 0.0
C1067 C 0.28329 0.27191 0.56278 0.0
C1068 C 0.27502 0.2876 0.56202 0.0
H1069 H 0.29645 0.25346 0.52483 0.0
H1070 H 0.28519 0.26509 0.59478 0.0
S1071 S 0.26868 0.31637 0.45999 0.0
N1072 N 0.27901 0.30019 0.44028 0.0
N1073 N 0.26581 0.31182 0.51522 0.0
C1074 C 0.27323 0.29633 0.51979 0.0
C1075 C 0.28052 0.29014 0.47915 0.0
C1076 C 0.70241 0.00924 0.55891 0.0
C1077 C 0.68972 0.98492 0.55668 0.0
C1078 C 0.70882 0.02286 0.51936 0.0
C1079 C 0.70201 0.01267 0.47623 0.0
H1080 H 0.707 0.0178 0.59152 0.0
H1081 H 0.71806 0.04152 0.52274 0.0
S1082 S 0.66894 0.94979 0.45191 0.0
N1083 N 0.67141 0.95125 0.50764 0.0
N1084 N 0.6824 0.97682 0.43367 0.0
C1085 C 0.68969 0.9884 0.47354 0.0
C1086 C 0.68384 0.97453 0.51366 0.0
C1087 C 0.98393 0.69436 0.57022 0.0
C1088 C 0.00812 0.70407 0.56891 0.0
C1089 C 0.97082 0.68888 0.5301 0.0
C1090 C 0.98134 0.69208 0.48731 0.0
H1091 H 0.97503 0.69061 0.60251 0.0
H1092 H 0.95219 0.68097 0.53269 0.0
S1093 S 0.04407 0.71701 0.46537 0.0
N1094 N 0.0421 0.71737 0.52112 0.0
N1095 N 0.01737 0.70591 0.44608 0.0
C1096 C 0.00551 0.70202 0.48557 0.0
C1097 C 0.01892 0.70833 0.52627 0.0
C1098 C 0.03965 0.32942 0.88927 0.0
C1099 C 0.05932 0.34692 0.91177 0.0
C1100 C 0.03942 0.32672 0.84179 0.0
C1101 C 0.05886 0.34134 0.81518 0.0
H1102 H 0.0249 0.31686 0.90864 0.0
H1103 H 0.02428 0.3125 0.82617 0.0
S1104 S 0.11283 0.39253 0.85701 0.0
N1105 N 0.09733 0.38084 0.90312 0.0
N1106 N 0.097 0.3761 0.81474 0.0
C1107 C 0.07788 0.35994 0.83717 0.0
C1108 C 0.07806 0.36264 0.88515 0.0
C1109 C 0.68756 0.74879 0.87919 0.0
C1110 C 0.67156 0.72821 0.90157 0.0
C1111 C 0.69059 0.7497 0.83224 0.0
C1112 C 0.67776 0.73016 0.80487 0.0
H1113 H 0.69776 0.76464 0.89798 0.0
H1114 H 0.7025 0.76629 0.81706 0.0
S1115 S 0.63522 0.6713 0.84633 0.0
N1116 N 0.64411 0.68716 0.89282 0.0
N1117 N 0.64948 0.68894 0.804 0.0
C1118 C 0.66262 0.70904 0.82676 0.0
C1119 C 0.65959 0.70808 0.87512 0.0
C1120 C 0.28004 0.95193 0.87994 0.0
C1121 C 0.26043 0.94642 0.90664 0.0
C1122 C 0.2794 0.95364 0.8323 0.0
C1123 C 0.25921 0.95011 0.80982 0.0
H1124 H 0.29557 0.95387 0.89565 0.0
H1125 H 0.29432 0.95632 0.81286 0.0
S1126 S 0.2048 0.93964 0.86451 0.0
N1127 N 0.22133 0.94064 0.9069 0.0
N1128 N 0.22038 0.94387 0.81838 0.0
C1129 C 0.24025 0.94641 0.83646 0.0
C1130 C 0.24079 0.94455 0.88452 0.0
C1131 C 0.33075 0.04762 0.16562 0.0
C1132 C 0.34623 0.0684 0.14308 0.0
C1133 C 0.32851 0.0467 0.21325 0.0
C1134 C 0.34153 0.06655 0.23994 0.0
H1135 H 0.31926 0.03235 0.1463 0.0
H1136 H 0.31576 0.03063 0.22897 0.0
S1137 S 0.38744 0.12399 0.1977 0.0
N1138 N 0.37688 0.10825 0.15157 0.0
N1139 N 0.37278 0.10677 0.24015 0.0
C1140 C 0.35827 0.0869 0.21779 0.0
C1141 C 0.3606 0.08774 0.16968 0.0
C1142 C 0.95025 0.28137 0.22365 0.0
C1143 C 0.95087 0.26242 0.24356 0.0
C1144 C 0.94893 0.2832 0.17619 0.0
C1145 C 0.94811 0.26608 0.14724 0.0
H1146 H 0.94907 0.29396 0.2449 0.0
H1147 H 0.94712 0.29724 0.16242 0.0
S1148 S 0.95437 0.21595 0.18196 0.0
N1149 N 0.95409 0.22833 0.23014 0.0
N1150 N 0.95201 0.2318 0.14171 0.0
C1151 C 0.9509 0.24832 0.16672 0.0
C1152 C 0.95217 0.24647 0.21464 0.0
C1153 C 0.70736 0.66695 0.20282 0.0
C1154 C 0.7157 0.65542 0.23017 0.0
C1155 C 0.70486 0.66325 0.15549 0.0
C1156 C 0.71032 0.64764 0.13406 0.0
H1157 H 0.70378 0.67968 0.21766 0.0
H1158 H 0.70002 0.6737 0.13535 0.0
S1159 S 0.72858 0.60997 0.19135 0.0
N1160 N 0.72644 0.62548 0.2325 0.0
N1161 N 0.72134 0.61843 0.14482 0.0
C1162 C 0.71674 0.63468 0.16166 0.0
C1163 C 0.71957 0.6386 0.20929 0.0
C1164 C 0.95008 0.66163 0.21779 0.0
C1165 C 0.94423 0.67715 0.23832 0.0
C1166 C 0.94809 0.65782 0.17041 0.0
C1167 C 0.93985 0.66914 0.14214 0.0
H1168 H 0.95486 0.65134 0.23863 0.0
H1169 H 0.952 0.6452 0.15623 0.0
S1170 S 0.9258 0.71412 0.17878 0.0
N1171 N 0.93276 0.70589 0.22596 0.0
N1172 N 0.92863 0.69872 0.13828 0.0
C1173 C 0.93551 0.68582 0.16228 0.0
C1174 C 0.93781 0.68983 0.20991 0.0
C1175 C 0.31855 0.27258 0.21153 0.0
C1176 C 0.30001 0.25325 0.23304 0.0
C1177 C 0.32149 0.27336 0.16404 0.0
C1178 C 0.3061 0.25474 0.13659 0.0
H1179 H 0.3317 0.28652 0.23167 0.0
H1180 H 0.33647 0.28805 0.14909 0.0
S1181 S 0.2523 0.20247 0.17554 0.0
N1182 N 0.26442 0.2168 0.22252 0.0
N1183 N 0.26967 0.21817 0.13407 0.0
C1184 C 0.28655 0.23627 0.15756 0.0
C1185 C 0.28358 0.23555 0.20551 0.0
C1186 C 0.70572 0.04611 0.20839 0.0
C1187 C 0.7177 0.06669 0.23376 0.0
C1188 C 0.70343 0.0467 0.16087 0.0
C1189 C 0.71283 0.0679 0.13726 0.0
H1190 H 0.69883 0.02948 0.22503 0.0
H1191 H 0.69551 0.03055 0.1423 0.0
S1192 S 0.74226 0.12651 0.18795 0.0
N1193 N 0.73664 0.10887 0.23126 0.0
N1194 N 0.73199 0.10964 0.14317 0.0
C1195 C 0.72327 0.08839 0.16257 0.0
C1196 C 0.72582 0.08789 0.21041 0.0
C1197 C 0.65164 0.91313 0.82752 0.0
C1198 C 0.66055 0.93423 0.8037 0.0
C1199 C 0.64858 0.91185 0.87441 0.0
C1200 C 0.65436 0.9316 0.90047 0.0
H1201 H 0.64698 0.89715 0.80995 0.0
H1202 H 0.64222 0.89517 0.89057 0.0
S1203 S 0.67747 0.99118 0.85558 0.0
N1204 N 0.67419 0.97542 0.81007 0.0
N1205 N 0.66892 0.9731 0.89896 0.0
C1206 C 0.66268 0.95284 0.8774 0.0
C1207 C 0.66573 0.95415 0.82901 0.0
C1208 C 0.03702 0.70977 0.84207 0.0
C1209 C 0.05751 0.719 0.81629 0.0
C1210 C 0.03744 0.7078 0.8897 0.0
C1211 C 0.05835 0.71466 0.91318 0.0
H1212 H 0.02068 0.70485 0.82562 0.0
H1213 H 0.02151 0.702 0.90832 0.0
S1214 S 0.1162 0.73635 0.861 0.0
N1215 N 0.09897 0.73274 0.81804 0.0
N1216 N 0.09944 0.72834 0.90619 0.0
C1217 C 0.07855 0.72225 0.88735 0.0
C1218 C 0.07826 0.72465 0.83938 0.0
C1219 C 0.27451 0.32056 0.8338 0.0
C1220 C 0.2544 0.31639 0.81025 0.0
C1221 C 0.27628 0.32374 0.88134 0.0
C1222 C 0.25807 0.32301 0.90703 0.0
H1223 H 0.28926 0.32218 0.81528 0.0
H1224 H 0.29203 0.32683 0.89796 0.0
S1225 S 0.20099 0.31082 0.86121 0.0
N1226 N 0.21545 0.31015 0.81653 0.0
N1227 N 0.21873 0.31669 0.9043 0.0
C1228 C 0.2377 0.31832 0.88351 0.0
C1229 C 0.23587 0.31482 0.83568 0.0
C1230 C 0.98684 0.37529 0.50342 0.0
C1231 C 0.97134 0.37908 0.47749 0.0
C1232 C 0.98516 0.37377 0.55111 0.0
C1233 C 0.96783 0.37585 0.57457 0.0
H1234 H 0.00088 0.37438 0.48698 0.0
H1235 H -0.00169 0.3723 0.56977 0.0
S1236 S 0.92055 0.3817 0.52249 0.0
N1237 N 0.9362 0.38175 0.47917 0.0
N1238 N 0.9334 0.37911 0.56798 0.0
C1239 C 0.95139 0.37804 0.54888 0.0
C1240 C 0.95304 0.3796 0.50064 0.0
C1241 C 0.57048 0.59631 0.54037 0.0
C1242 C 0.59141 0.60554 0.5648 0.0
C1243 C 0.57004 0.59634 0.49305 0.0
C1244 C 0.59049 0.60565 0.46741 0.0
H1245 H 0.55398 0.58842 0.5578 0.0
H1246 H 0.55334 0.58815 0.47638 0.0
S1247 S 0.65022 0.63403 0.51391 0.0
N1248 N 0.63343 0.62595 0.55927 0.0
N1249 N 0.63261 0.62583 0.4699 0.0
C1250 C 0.61173 0.61609 0.49104 0.0
C1251 C 0.61218 0.61602 0.53971 0.0
C1252 C 0.38926 0.97885 0.54761 0.0
C1253 C 0.38433 0.99422 0.57136 0.0
C1254 C 0.38691 0.97632 0.50059 0.0
C1255 C 0.37958 0.98907 0.47452 0.0
H1256 H 0.39533 0.96871 0.56537 0.0
H1257 H 0.3918 0.96485 0.48434 0.0
S1258 S 0.36244 0.03028 0.51985 0.0
N1259 N 0.36996 0.02115 0.56526 0.0
N1260 N 0.36591 0.01674 0.47638 0.0
C1261 C 0.37338 0.00368 0.4978 0.0
C1262 C 0.3757 0.00619 0.54619 0.0
C1263 C 0.6143 0.00288 0.49383 0.0
C1264 C 0.59398 0.99119 0.46772 0.0
C1265 C 0.61326 0.00425 0.54142 0.0
C1266 C 0.59186 0.99415 0.56446 0.0
H1267 H 0.63101 0.01208 0.47726 0.0
H1268 H 0.62928 0.01379 0.56009 0.0
S1269 S 0.53385 0.95882 0.51126 0.0
N1270 N 0.55217 0.96741 0.46844 0.0
N1271 N 0.54993 0.96987 0.55684 0.0
C1272 C 0.57153 0.98136 0.53848 0.0
C1273 C 0.57268 0.97988 0.49048 0.0
C1274 C 0.98904 0.60455 0.54899 0.0
C1275 C 0.99105 0.58706 0.57185 0.0
C1276 C 0.98955 0.60588 0.50122 0.0
C1277 C 0.99199 0.58973 0.47454 0.0
H1278 H 0.98726 0.61741 0.56807 0.0
H1279 H 0.98726 0.61919 0.4851 0.0
S1280 S -0.00128 0.54112 0.51716 0.0
N1281 N -0.00398 0.5535 0.56327 0.0
N1282 N -0.00275 0.55629 0.47454 0.0
C1283 C -0.00559 0.57249 0.49699 0.0
C1284 C -0.00617 0.57106 0.54524 0.0
C1285 C 0.37793 0.37161 0.49806 0.0
C1286 C 0.3975 0.37639 0.4719 0.0
C1287 C 0.37838 0.37058 0.54581 0.0
C1288 C 0.39843 0.37434 0.56909 0.0
H1289 H 0.36245 0.36948 0.48175 0.0
H1290 H 0.36342 0.36818 0.56465 0.0
S1291 S 0.45283 0.38343 0.51687 0.0
N1292 N 0.43648 0.38175 0.47355 0.0
N1293 N 0.4372 0.38032 0.56243 0.0
C1294 C 0.41747 0.3776 0.54333 0.0
C1295 C 0.41704 0.3785 0.49505 0.0
loop_
_geom_bond_atom_site_label_1
_geom_bond_atom_site_label_2
_geom_bond_distance
_geom_bond_site_symmetry_2
_ccdc_geom_bond_type
O0 Cd1 2.223 . S
O0 C8 1.315 . S
Cd1 O0 2.223 . S
Cd1 O4 2.297 . S
Cd1 O5 2.439 1_556 S
Cd1 O11 2.240 1_556 S
Cd2 O3 2.240 . S
Cd2 O10 2.223 . S
Cd2 O12 2.297 1_556 S
Cd2 O13 2.439 1_556 S
O3 Cd2 2.240 . S
O3 C8 1.279 . S
O4 Cd1 2.297 . S
O4 C6 1.247 1_556 S
O5 Cd1 2.439 1_554 S
O5 C6 1.208 . S
C6 O4 1.247 1_554 S
C6 O5 1.208 . S
C7 O12 1.247 . S
C7 O13 1.208 . S
C8 O0 1.315 . S
C8 O3 1.279 . S
C9 O10 1.326 . S
C9 O11 1.267 1_556 S
O10 Cd2 2.223 . S
O10 C9 1.326 . S
O11 Cd1 2.240 1_554 S
O11 C9 1.267 1_554 S
O12 Cd2 2.297 1_554 S
O12 C7 1.247 . S
O13 Cd2 2.439 1_554 S
O13 C7 1.208 . S
O14 Cd15 2.223 . S
O14 C22 1.315 . S
Cd15 O14 2.223 . S
Cd15 O18 2.297 . S
Cd15 O19 2.439 1_556 S
Cd15 O25 2.240 1_556 S
Cd16 O17 2.240 . S
Cd16 O24 2.223 . S
Cd16 O26 2.297 1_556 S
Cd16 O27 2.439 1_556 S
O17 Cd16 2.240 . S
O17 C22 1.279 . S
O18 Cd15 2.297 . S
O18 C20 1.247 1_556 S
O19 Cd15 2.439 1_554 S
O19 C20 1.208 . S
C20 O18 1.247 1_554 S
C20 O19 1.208 . S
C21 O26 1.247 . S
C21 O27 1.208 . S
C22 O14 1.315 . S
C22 O17 1.279 . S
C23 O24 1.325 . S
C23 O25 1.267 1_556 S
O24 Cd16 2.223 . S
O24 C23 1.325 . S
O25 Cd15 2.240 1_554 S
O25 C23 1.267 1_554 S
O26 Cd16 2.297 1_554 S
O26 C21 1.247 . S
O27 Cd16 2.439 1_554 S
O27 C21 1.208 . S
O28 Cd29 2.223 . S
O28 C36 1.315 . S
Cd29 O28 2.223 . S
Cd29 O32 2.297 . S
Cd29 O33 2.439 1_556 S
Cd29 O39 2.240 1_556 S
Cd30 O31 2.240 . S
Cd30 O38 2.223 . S
Cd30 O40 2.297 1_556 S
Cd30 O41 2.439 1_556 S
O31 Cd30 2.240 . S
O31 C36 1.279 . S
O32 Cd29 2.297 . S
O32 C34 1.247 1_556 S
O33 Cd29 2.439 1_554 S
O33 C34 1.208 . S
C34 O32 1.247 1_554 S
C34 O33 1.208 . S
C35 O40 1.247 . S
C35 O41 1.208 . S
C36 O28 1.315 . S
C36 O31 1.279 . S
C37 O38 1.325 . S
C37 O39 1.267 1_556 S
O38 Cd30 2.223 . S
O38 C37 1.325 . S
O39 Cd29 2.240 1_554 S
O39 C37 1.267 1_554 S
O40 Cd30 2.297 1_554 S
O40 C35 1.247 . S
O41 Cd30 2.439 1_554 S
O41 C35 1.208 . S
O42 Cd43 2.223 . S
O42 C50 1.315 . S
Cd43 O42 2.223 . S
Cd43 O46 2.297 . S
Cd43 O47 2.439 1_554 S
Cd43 O53 2.240 1_554 S
Cd44 O45 2.240 . S
Cd44 O52 2.223 . S
Cd44 O54 2.297 1_554 S
Cd44 O55 2.439 1_554 S
O45 Cd44 2.240 . S
O45 C50 1.279 . S
O46 Cd43 2.297 . S
O46 C48 1.247 1_554 S
O47 Cd43 2.439 1_556 S
O47 C48 1.208 . S
C48 O46 1.247 1_556 S
C48 O47 1.208 . S
C49 O54 1.247 . S
C49 O55 1.208 . S
C50 O42 1.315 . S
C50 O45 1.279 . S
C51 O52 1.326 . S
C51 O53 1.267 1_554 S
O52 Cd44 2.223 . S
O52 C51 1.326 . S
O53 Cd43 2.240 1_556 S
O53 C51 1.267 1_556 S
O54 Cd44 2.297 1_556 S
O54 C49 1.247 . S
O55 Cd44 2.439 1_556 S
O55 C49 1.208 . S
O56 Cd57 2.223 . S
O56 C64 1.315 . S
Cd57 O56 2.223 . S
Cd57 O60 2.297 . S
Cd57 O61 2.439 1_554 S
Cd57 O67 2.240 1_554 S
Cd58 O59 2.240 . S
Cd58 O66 2.223 . S
Cd58 O68 2.297 1_554 S
Cd58 O69 2.439 1_554 S
O59 Cd58 2.240 . S
O59 C64 1.279 . S
O60 Cd57 2.297 . S
O60 C62 1.247 1_554 S
O61 Cd57 2.439 1_556 S
O61 C62 1.208 . S
C62 O60 1.247 1_556 S
C62 O61 1.208 . S
C63 O68 1.247 . S
C63 O69 1.208 . S
C64 O56 1.315 . S
C64 O59 1.279 . S
C65 O66 1.325 . S
C65 O67 1.267 1_554 S
O66 Cd58 2.223 . S
O66 C65 1.325 . S
O67 Cd57 2.240 1_556 S
O67 C65 1.267 1_556 S
O68 Cd58 2.297 1_556 S
O68 C63 1.247 . S
O69 Cd58 2.439 1_556 S
O69 C63 1.208 . S
O70 Cd71 2.223 . S
O70 C78 1.315 . S
Cd71 O70 2.223 . S
Cd71 O74 2.297 . S
Cd71 O75 2.439 1_554 S
Cd71 O81 2.240 1_554 S
Cd72 O73 2.240 . S
Cd72 O80 2.223 . S
Cd72 O82 2.297 1_554 S
Cd72 O83 2.439 1_554 S
O73 Cd72 2.240 . S
O73 C78 1.279 . S
O74 Cd71 2.297 . S
O74 C76 1.247 1_554 S
O75 Cd71 2.439 1_556 S
O75 C76 1.208 . S
C76 O74 1.247 1_556 S
C76 O75 1.208 . S
C77 O82 1.247 . S
C77 O83 1.208 . S
C78 O70 1.315 . S
C78 O73 1.279 . S
C79 O80 1.325 . S
C79 O81 1.267 1_554 S
O80 Cd72 2.223 . S
O80 C79 1.325 . S
O81 Cd71 2.240 1_556 S
O81 C79 1.267 1_556 S
O82 Cd72 2.297 1_556 S
O82 C77 1.247 . S
O83 Cd72 2.439 1_556 S
O83 C77 1.208 . S
O84 Cd85 2.223 . S
O84 C92 1.315 . S
Cd85 O84 2.223 . S
Cd85 O88 2.297 . S
Cd85 O89 2.439 1_554 S
Cd85 O95 2.240 1_554 S
Cd86 O87 2.240 . S
Cd86 O94 2.223 . S
Cd86 O96 2.297 1_554 S
Cd86 O97 2.439 1_554 S
O87 Cd86 2.240 . S
O87 C92 1.279 . S
O88 Cd85 2.297 . S
O88 C90 1.247 1_554 S
O89 Cd85 2.439 1_556 S
O89 C90 1.208 . S
C90 O88 1.247 1_556 S
C90 O89 1.208 . S
C91 O96 1.247 . S
C91 O97 1.208 . S
C92 O84 1.315 . S
C92 O87 1.279 . S
C93 O94 1.326 . S
C93 O95 1.267 1_554 S
O94 Cd86 2.223 . S
O94 C93 1.326 . S
O95 Cd85 2.240 1_556 S
O95 C93 1.267 1_556 S
O96 Cd86 2.297 1_556 S
O96 C91 1.247 . S
O97 Cd86 2.439 1_556 S
O97 C91 1.208 . S
O98 Cd99 2.223 . S
O98 C106 1.315 . S
Cd99 O98 2.223 . S
Cd99 O102 2.297 . S
Cd99 O103 2.439 1_554 S
Cd99 O109 2.240 1_554 S
Cd100 O101 2.240 . S
Cd100 O108 2.223 . S
Cd100 O110 2.297 1_554 S
Cd100 O111 2.439 1_554 S
O101 Cd100 2.240 . S
O101 C106 1.279 . S
O102 Cd99 2.297 . S
O102 C104 1.247 1_554 S
O103 Cd99 2.439 1_556 S
O103 C104 1.208 . S
C104 O102 1.247 1_556 S
C104 O103 1.208 . S
C105 O110 1.247 . S
C105 O111 1.208 . S
C106 O98 1.315 . S
C106 O101 1.279 . S
C107 O108 1.325 . S
C107 O109 1.267 1_554 S
O108 Cd100 2.223 . S
O108 C107 1.325 . S
O109 Cd99 2.240 1_556 S
O109 C107 1.267 1_556 S
O110 Cd100 2.297 1_556 S
O110 C105 1.247 . S
O111 Cd100 2.439 1_556 S
O111 C105 1.208 . S
O112 Cd113 2.223 . S
O112 C120 1.315 . S
Cd113 O112 2.223 . S
Cd113 O116 2.297 . S
Cd113 O117 2.439 1_554 S
Cd113 O123 2.240 1_554 S
Cd114 O115 2.240 . S
Cd114 O122 2.223 . S
Cd114 O124 2.297 1_554 S
Cd114 O125 2.439 1_554 S
O115 Cd114 2.240 . S
O115 C120 1.279 . S
O116 Cd113 2.297 . S
O116 C118 1.247 1_554 S
O117 Cd113 2.439 1_556 S
O117 C118 1.208 . S
C118 O116 1.247 1_556 S
C118 O117 1.208 . S
C119 O124 1.247 . S
C119 O125 1.208 . S
C120 O112 1.315 . S
C120 O115 1.279 . S
C121 O122 1.325 . S
C121 O123 1.267 1_554 S
O122 Cd114 2.223 . S
O122 C121 1.325 . S
O123 Cd113 2.240 1_556 S
O123 C121 1.267 1_556 S
O124 Cd114 2.297 1_556 S
O124 C119 1.247 . S
O125 Cd114 2.439 1_556 S
O125 C119 1.208 . S
O126 Cd127 2.223 . S
O126 C134 1.315 . S
Cd127 O126 2.223 . S
Cd127 O130 2.297 . S
Cd127 O131 2.439 1_556 S
Cd127 O137 2.240 1_556 S
Cd128 O129 2.240 . S
Cd128 O136 2.223 . S
Cd128 O138 2.297 1_556 S
Cd128 O139 2.439 1_556 S
O129 Cd128 2.240 . S
O129 C134 1.279 . S
O130 Cd127 2.297 . S
O130 C132 1.247 1_556 S
O131 Cd127 2.439 1_554 S
O131 C132 1.208 . S
C132 O130 1.247 1_554 S
C132 O131 1.208 . S
C133 O138 1.247 . S
C133 O139 1.208 . S
C134 O126 1.315 . S
C134 O129 1.279 . S
C135 O136 1.326 . S
C135 O137 1.267 1_556 S
O136 Cd128 2.223 . S
O136 C135 1.326 . S
O137 Cd127 2.240 1_554 S
O137 C135 1.267 1_554 S
O138 Cd128 2.297 1_554 S
O138 C133 1.247 . S
O139 Cd128 2.439 1_554 S
O139 C133 1.208 . S
O140 Cd141 2.223 . S
O140 C148 1.315 . S
Cd141 O140 2.223 . S
Cd141 O144 2.297 . S
Cd141 O145 2.439 1_556 S
Cd141 O151 2.240 1_556 S
Cd142 O143 2.240 . S
Cd142 O150 2.223 . S
Cd142 O152 2.297 1_556 S
Cd142 O153 2.439 1_556 S
O143 Cd142 2.240 . S
O143 C148 1.279 . S
O144 Cd141 2.297 . S
O144 C146 1.247 1_556 S
O145 Cd141 2.439 1_554 S
O145 C146 1.208 . S
C146 O144 1.247 1_554 S
C146 O145 1.208 . S
C147 O152 1.247 . S
C147 O153 1.208 . S
C148 O140 1.315 . S
C148 O143 1.279 . S
C149 O150 1.325 . S
C149 O151 1.267 1_556 S
O150 Cd142 2.223 . S
O150 C149 1.325 . S
O151 Cd141 2.240 1_554 S
O151 C149 1.267 1_554 S
O152 Cd142 2.297 1_554 S
O152 C147 1.247 . S
O153 Cd142 2.439 1_554 S
O153 C147 1.208 . S
O154 Cd155 2.223 . S
O154 C162 1.315 . S
Cd155 O154 2.223 . S
Cd155 O158 2.297 . S
Cd155 O159 2.439 1_556 S
Cd155 O165 2.240 1_556 S
Cd156 O157 2.240 . S
Cd156 O164 2.223 . S
Cd156 O166 2.297 1_556 S
Cd156 O167 2.439 1_556 S
O157 Cd156 2.240 . S
O157 C162 1.279 . S
O158 Cd155 2.297 . S
O158 C160 1.247 1_556 S
O159 Cd155 2.439 1_554 S
O159 C160 1.208 . S
C160 O158 1.247 1_554 S
C160 O159 1.208 . S
C161 O166 1.247 . S
C161 O167 1.208 . S
C162 O154 1.315 . S
C162 O157 1.279 . S
C163 O164 1.325 . S
C163 O165 1.267 1_556 S
O164 Cd156 2.223 . S
O164 C163 1.325 . S
O165 Cd155 2.240 1_554 S
O165 C163 1.267 1_554 S
O166 Cd156 2.297 1_554 S
O166 C161 1.247 . S
O167 Cd156 2.439 1_554 S
O167 C161 1.208 . S
O168 Cd169 2.223 . S
O168 C176 1.315 . S
Cd169 O168 2.223 . S
Cd169 O172 2.297 . S
Cd169 O173 2.439 . S
Cd169 O179 2.240 . S
Cd170 O171 2.240 . S
Cd170 O178 2.223 . S
Cd170 O180 2.297 . S
Cd170 O181 2.439 . S
O171 Cd170 2.240 . S
O171 C176 1.279 . S
O172 Cd169 2.297 . S
O172 C174 1.247 . S
O173 Cd169 2.439 . S
O173 C174 1.208 . S
C174 O172 1.247 . S
C174 O173 1.208 . S
C175 O180 1.247 . S
C175 O181 1.208 . S
C176 O168 1.315 . S
C176 O171 1.279 . S
C177 O178 1.315 . S
C177 O179 1.279 . S
O178 Cd170 2.223 . S
O178 C177 1.315 . S
O179 Cd169 2.240 . S
O179 C177 1.279 . S
O180 Cd170 2.297 . S
O180 C175 1.247 . S
O181 Cd170 2.439 . S
O181 C175 1.208 . S
O182 Cd183 2.223 . S
O182 C190 1.315 . S
Cd183 O182 2.223 . S
Cd183 O186 2.297 . S
Cd183 O187 2.439 . S
Cd183 O193 2.240 . S
Cd184 O185 2.240 . S
Cd184 O192 2.223 . S
Cd184 O194 2.297 1_545 S
Cd184 O195 2.439 . S
O185 Cd184 2.240 . S
O185 C190 1.279 . S
O186 Cd183 2.297 . S
O186 C188 1.247 . S
O187 Cd183 2.439 . S
O187 C188 1.208 . S
C188 O186 1.247 . S
C188 O187 1.208 . S
C189 O194 1.247 1_545 S
C189 O195 1.208 . S
C190 O182 1.315 . S
C190 O185 1.279 . S
C191 O192 1.315 . S
C191 O193 1.279 . S
O192 Cd184 2.223 . S
O192 C191 1.315 . S
O193 Cd183 2.240 . S
O193 C191 1.279 . S
O194 Cd184 2.297 1_565 S
O194 C189 1.247 1_565 S
O195 Cd184 2.439 . S
O195 C189 1.208 . S
O196 Cd197 2.223 . S
O196 C204 1.315 . S
Cd197 O196 2.223 . S
Cd197 O200 2.297 . S
Cd197 O201 2.439 . S
Cd197 O207 2.240 . S
Cd198 O199 2.240 . S
Cd198 O206 2.223 . S
Cd198 O208 2.297 1_655 S
Cd198 O209 2.439 . S
O199 Cd198 2.240 . S
O199 C204 1.279 . S
O200 Cd197 2.297 . S
O200 C202 1.247 . S
O201 Cd197 2.439 . S
O201 C202 1.208 . S
C202 O200 1.247 . S
C202 O201 1.208 . S
C203 O208 1.247 1_655 S
C203 O209 1.208 . S
C204 O196 1.315 . S
C204 O199 1.279 . S
C205 O206 1.315 . S
C205 O207 1.279 . S
O206 Cd198 2.223 . S
O206 C205 1.315 . S
O207 Cd197 2.240 . S
O207 C205 1.279 . S
O208 Cd198 2.297 1_455 S
O208 C203 1.247 1_455 S
O209 Cd198 2.439 . S
O209 C203 1.208 . S
O210 Cd211 2.223 . S
O210 C218 1.315 . S
Cd211 O210 2.223 . S
Cd211 O214 2.297 . S
Cd211 O215 2.439 . S
Cd211 O221 2.240 . S
Cd212 O213 2.240 . S
Cd212 O220 2.223 . S
Cd212 O222 2.297 . S
Cd212 O223 2.439 . S
O213 Cd212 2.240 . S
O213 C218 1.279 . S
O214 Cd211 2.297 . S
O214 C216 1.247 . S
O215 Cd211 2.439 . S
O215 C216 1.208 . S
C216 O214 1.247 . S
C216 O215 1.208 . S
C217 O222 1.247 . S
C217 O223 1.208 . S
C218 O210 1.315 . S
C218 O213 1.279 . S
C219 O220 1.315 . S
C219 O221 1.279 . S
O220 Cd212 2.223 . S
O220 C219 1.315 . S
O221 Cd211 2.240 . S
O221 C219 1.279 . S
O222 Cd212 2.297 . S
O222 C217 1.247 . S
O223 Cd212 2.439 . S
O223 C217 1.208 . S
O224 Cd225 2.223 . S
O224 C232 1.315 . S
Cd225 O224 2.223 . S
Cd225 O228 2.297 . S
Cd225 O229 2.439 . S
Cd225 O235 2.240 . S
Cd226 O227 2.240 . S
Cd226 O234 2.223 . S
Cd226 O236 2.297 . S
Cd226 O237 2.439 . S
O227 Cd226 2.240 . S
O227 C232 1.279 . S
O228 Cd225 2.297 . S
O228 C230 1.247 . S
O229 Cd225 2.439 . S
O229 C230 1.208 . S
C230 O228 1.247 . S
C230 O229 1.208 . S
C231 O236 1.247 . S
C231 O237 1.208 . S
C232 O224 1.315 . S
C232 O227 1.279 . S
C233 O234 1.315 . S
C233 O235 1.279 . S
O234 Cd226 2.223 . S
O234 C233 1.315 . S
O235 Cd225 2.240 . S
O235 C233 1.279 . S
O236 Cd226 2.297 . S
O236 C231 1.247 . S
O237 Cd226 2.439 . S
O237 C231 1.208 . S
O238 Cd239 2.223 . S
O238 C246 1.315 . S
Cd239 O238 2.223 . S
Cd239 O242 2.297 . S
Cd239 O243 2.439 . S
Cd239 O249 2.240 . S
Cd240 O241 2.240 . S
Cd240 O248 2.223 . S
Cd240 O250 2.297 . S
Cd240 O251 2.439 . S
O241 Cd240 2.240 . S
O241 C246 1.279 . S
O242 Cd239 2.297 . S
O242 C244 1.247 . S
O243 Cd239 2.439 . S
O243 C244 1.208 . S
C244 O242 1.247 . S
C244 O243 1.208 . S
C245 O250 1.247 . S
C245 O251 1.208 . S
C246 O238 1.315 . S
C246 O241 1.279 . S
C247 O248 1.315 . S
C247 O249 1.279 . S
O248 Cd240 2.223 . S
O248 C247 1.315 . S
O249 Cd239 2.240 . S
O249 C247 1.279 . S
O250 Cd240 2.297 . S
O250 C245 1.247 . S
O251 Cd240 2.439 . S
O251 C245 1.208 . S
O252 Cd253 2.223 . S
O252 C260 1.315 . S
Cd253 O252 2.223 . S
Cd253 O256 2.297 . S
Cd253 O257 2.439 . S
Cd253 O263 2.240 . S
Cd254 O255 2.240 . S
Cd254 O262 2.223 . S
Cd254 O264 2.297 . S
Cd254 O265 2.439 . S
O255 Cd254 2.240 . S
O255 C260 1.279 . S
O256 Cd253 2.297 . S
O256 C258 1.247 . S
O257 Cd253 2.439 . S
O257 C258 1.208 . S
C258 O256 1.247 . S
C258 O257 1.208 . S
C259 O264 1.247 . S
C259 O265 1.208 . S
C260 O252 1.315 . S
C260 O255 1.279 . S
C261 O262 1.315 . S
C261 O263 1.279 . S
O262 Cd254 2.223 . S
O262 C261 1.315 . S
O263 Cd253 2.240 . S
O263 C261 1.279 . S
O264 Cd254 2.297 . S
O264 C259 1.247 . S
O265 Cd254 2.439 . S
O265 C259 1.208 . S
O266 Cd267 2.223 . S
O266 C274 1.315 . S
Cd267 O266 2.223 . S
Cd267 O270 2.297 . S
Cd267 O271 2.439 . S
Cd267 O277 2.240 . S
Cd268 O269 2.240 . S
Cd268 O276 2.223 . S
Cd268 O278 2.297 . S
Cd268 O279 2.439 . S
O269 Cd268 2.240 . S
O269 C274 1.279 . S
O270 Cd267 2.297 . S
O270 C272 1.247 . S
O271 Cd267 2.439 . S
O271 C272 1.208 . S
C272 O270 1.247 . S
C272 O271 1.208 . S
C273 O278 1.247 . S
C273 O279 1.208 . S
C274 O266 1.315 . S
C274 O269 1.279 . S
C275 O276 1.315 . S
C275 O277 1.279 . S
O276 Cd268 2.223 . S
O276 C275 1.315 . S
O277 Cd267 2.240 . S
O277 C275 1.279 . S
O278 Cd268 2.297 . S
O278 C273 1.247 . S
O279 Cd268 2.439 . S
O279 C273 1.208 . S
O280 Cd281 2.223 . S
O280 C288 1.315 . S
Cd281 O280 2.223 . S
Cd281 O284 2.297 . S
Cd281 O285 2.439 . S
Cd281 O291 2.240 . S
Cd282 O283 2.240 . S
Cd282 O290 2.223 . S
Cd282 O292 2.297 . S
Cd282 O293 2.439 . S
O283 Cd282 2.240 . S
O283 C288 1.279 . S
O284 Cd281 2.297 . S
O284 C286 1.247 . S
O285 Cd281 2.439 . S
O285 C286 1.208 . S
C286 O284 1.247 . S
C286 O285 1.208 . S
C287 O292 1.247 . S
C287 O293 1.208 . S
C288 O280 1.315 . S
C288 O283 1.279 . S
C289 O290 1.315 . S
C289 O291 1.279 . S
O290 Cd282 2.223 . S
O290 C289 1.315 . S
O291 Cd281 2.240 . S
O291 C289 1.279 . S
O292 Cd282 2.297 . S
O292 C287 1.247 . S
O293 Cd282 2.439 . S
O293 C287 1.208 . S
O294 Cd295 2.223 . S
O294 C302 1.315 . S
Cd295 O294 2.223 . S
Cd295 O298 2.297 . S
Cd295 O299 2.439 . S
Cd295 O305 2.240 . S
Cd296 O297 2.240 . S
Cd296 O304 2.223 . S
Cd296 O306 2.297 . S
Cd296 O307 2.439 . S
O297 Cd296 2.240 . S
O297 C302 1.279 . S
O298 Cd295 2.297 . S
O298 C300 1.247 . S
O299 Cd295 2.439 . S
O299 C300 1.208 . S
C300 O298 1.247 . S
C300 O299 1.208 . S
C301 O306 1.247 . S
C301 O307 1.208 . S
C302 O294 1.315 . S
C302 O297 1.279 . S
C303 O304 1.315 . S
C303 O305 1.279 . S
O304 Cd296 2.223 . S
O304 C303 1.315 . S
O305 Cd295 2.240 . S
O305 C303 1.279 . S
O306 Cd296 2.297 . S
O306 C301 1.247 . S
O307 Cd296 2.439 . S
O307 C301 1.208 . S
O308 Cd309 2.223 . S
O308 C316 1.315 . S
Cd309 O308 2.223 . S
Cd309 O312 2.297 . S
Cd309 O313 2.439 . S
Cd309 O319 2.240 . S
Cd310 O311 2.240 . S
Cd310 O318 2.223 . S
Cd310 O320 2.297 1_545 S
Cd310 O321 2.439 . S
O311 Cd310 2.240 . S
O311 C316 1.279 . S
O312 Cd309 2.297 . S
O312 C314 1.247 . S
O313 Cd309 2.439 . S
O313 C314 1.208 . S
C314 O312 1.247 . S
C314 O313 1.208 . S
C315 O320 1.247 1_545 S
C315 O321 1.208 . S
C316 O308 1.315 . S
C316 O311 1.279 . S
C317 O318 1.315 . S
C317 O319 1.279 . S
O318 Cd310 2.223 . S
O318 C317 1.315 . S
O319 Cd309 2.240 . S
O319 C317 1.279 . S
O320 Cd310 2.297 1_565 S
O320 C315 1.247 1_565 S
O321 Cd310 2.439 . S
O321 C315 1.208 . S
O322 Cd323 2.223 . S
O322 C330 1.315 . S
Cd323 O322 2.223 . S
Cd323 O326 2.297 . S
Cd323 O327 2.439 . S
Cd323 O333 2.240 . S
Cd324 O325 2.240 . S
Cd324 O332 2.223 . S
Cd324 O334 2.297 1_655 S
Cd324 O335 2.439 . S
O325 Cd324 2.240 . S
O325 C330 1.279 . S
O326 Cd323 2.297 . S
O326 C328 1.247 . S
O327 Cd323 2.439 . S
O327 C328 1.208 . S
C328 O326 1.247 . S
C328 O327 1.208 . S
C329 O334 1.247 1_655 S
C329 O335 1.208 . S
C330 O322 1.315 . S
C330 O325 1.279 . S
C331 O332 1.315 . S
C331 O333 1.279 . S
O332 Cd324 2.223 . S
O332 C331 1.315 . S
O333 Cd323 2.240 . S
O333 C331 1.279 . S
O334 Cd324 2.297 1_455 S
O334 C329 1.247 1_455 S
O335 Cd324 2.439 . S
O335 C329 1.208 . S
O336 Cd337 2.223 . S
O336 C344 1.315 . S
Cd337 O336 2.223 . S
Cd337 O340 2.297 . S
Cd337 O341 2.439 . S
Cd337 O347 2.240 . S
Cd338 O339 2.240 . S
Cd338 O346 2.223 . S
Cd338 O348 2.297 . S
Cd338 O349 2.439 . S
O339 Cd338 2.240 . S
O339 C344 1.279 . S
O340 Cd337 2.297 . S
O340 C342 1.247 . S
O341 Cd337 2.439 . S
O341 C342 1.208 . S
C342 O340 1.247 . S
C342 O341 1.208 . S
C343 O348 1.247 . S
C343 O349 1.208 . S
C344 O336 1.315 . S
C344 O339 1.279 . S
C345 O346 1.315 . S
C345 O347 1.279 . S
O346 Cd338 2.223 . S
O346 C345 1.315 . S
O347 Cd337 2.240 . S
O347 C345 1.279 . S
O348 Cd338 2.297 . S
O348 C343 1.247 . S
O349 Cd338 2.439 . S
O349 C343 1.208 . S
O350 Cd351 2.223 . S
O350 C358 1.315 . S
Cd351 O350 2.223 . S
Cd351 O354 2.297 . S
Cd351 O355 2.439 . S
Cd351 O361 2.240 . S
Cd352 O353 2.240 . S
Cd352 O360 2.223 . S
Cd352 O362 2.297 . S
Cd352 O363 2.439 . S
O353 Cd352 2.240 . S
O353 C358 1.279 . S
O354 Cd351 2.297 . S
O354 C356 1.247 . S
O355 Cd351 2.439 . S
O355 C356 1.208 . S
C356 O354 1.247 . S
C356 O355 1.208 . S
C357 O362 1.247 . S
C357 O363 1.208 . S
C358 O350 1.315 . S
C358 O353 1.279 . S
C359 O360 1.315 . S
C359 O361 1.279 . S
O360 Cd352 2.223 . S
O360 C359 1.315 . S
O361 Cd351 2.240 . S
O361 C359 1.279 . S
O362 Cd352 2.297 . S
O362 C357 1.247 . S
O363 Cd352 2.439 . S
O363 C357 1.208 . S
O364 Cd365 2.223 . S
O364 C372 1.315 . S
Cd365 O364 2.223 . S
Cd365 O368 2.297 . S
Cd365 O369 2.439 . S
Cd365 O375 2.240 . S
Cd366 O367 2.240 . S
Cd366 O374 2.223 . S
Cd366 O376 2.297 . S
Cd366 O377 2.439 . S
O367 Cd366 2.240 . S
O367 C372 1.279 . S
O368 Cd365 2.297 . S
O368 C370 1.247 . S
O369 Cd365 2.439 . S
O369 C370 1.208 . S
C370 O368 1.247 . S
C370 O369 1.208 . S
C371 O376 1.247 . S
C371 O377 1.208 . S
C372 O364 1.315 . S
C372 O367 1.279 . S
C373 O374 1.315 . S
C373 O375 1.279 . S
O374 Cd366 2.223 . S
O374 C373 1.315 . S
O375 Cd365 2.240 . S
O375 C373 1.279 . S
O376 Cd366 2.297 . S
O376 C371 1.247 . S
O377 Cd366 2.439 . S
O377 C371 1.208 . S
O378 Cd379 2.223 . S
O378 C386 1.315 . S
Cd379 O378 2.223 . S
Cd379 O382 2.297 . S
Cd379 O383 2.439 . S
Cd379 O389 2.240 . S
Cd380 O381 2.240 . S
Cd380 O388 2.223 . S
Cd380 O390 2.297 . S
Cd380 O391 2.439 . S
O381 Cd380 2.240 . S
O381 C386 1.279 . S
O382 Cd379 2.297 . S
O382 C384 1.247 . S
O383 Cd379 2.439 . S
O383 C384 1.208 . S
C384 O382 1.247 . S
C384 O383 1.208 . S
C385 O390 1.247 . S
C385 O391 1.208 . S
C386 O378 1.315 . S
C386 O381 1.279 . S
C387 O388 1.315 . S
C387 O389 1.279 . S
O388 Cd380 2.223 . S
O388 C387 1.315 . S
O389 Cd379 2.240 . S
O389 C387 1.279 . S
O390 Cd380 2.297 . S
O390 C385 1.247 . S
O391 Cd380 2.439 . S
O391 C385 1.208 . S
O392 Cd393 2.223 . S
O392 C400 1.315 . S
Cd393 O392 2.223 . S
Cd393 O396 2.297 . S
Cd393 O397 2.439 . S
Cd393 O403 2.240 . S
Cd394 O395 2.240 . S
Cd394 O402 2.223 . S
Cd394 O404 2.297 1_565 S
Cd394 O405 2.439 . S
O395 Cd394 2.240 . S
O395 C400 1.279 . S
O396 Cd393 2.297 . S
O396 C398 1.247 . S
O397 Cd393 2.439 . S
O397 C398 1.208 . S
C398 O396 1.247 . S
C398 O397 1.208 . S
C399 O404 1.247 1_565 S
C399 O405 1.208 . S
C400 O392 1.315 . S
C400 O395 1.279 . S
C401 O402 1.315 . S
C401 O403 1.279 . S
O402 Cd394 2.223 . S
O402 C401 1.315 . S
O403 Cd393 2.240 . S
O403 C401 1.279 . S
O404 Cd394 2.297 1_545 S
O404 C399 1.247 1_545 S
O405 Cd394 2.439 . S
O405 C399 1.208 . S
O406 Cd407 2.223 . S
O406 C414 1.315 . S
Cd407 O406 2.223 . S
Cd407 O410 2.297 . S
Cd407 O411 2.439 . S
Cd407 O417 2.240 . S
Cd408 O409 2.240 . S
Cd408 O416 2.223 . S
Cd408 O418 2.297 1_455 S
Cd408 O419 2.439 . S
O409 Cd408 2.240 . S
O409 C414 1.279 . S
O410 Cd407 2.297 . S
O410 C412 1.247 . S
O411 Cd407 2.439 . S
O411 C412 1.208 . S
C412 O410 1.247 . S
C412 O411 1.208 . S
C413 O418 1.247 1_455 S
C413 O419 1.208 . S
C414 O406 1.315 . S
C414 O409 1.279 . S
C415 O416 1.315 . S
C415 O417 1.279 . S
O416 Cd408 2.223 . S
O416 C415 1.315 . S
O417 Cd407 2.240 . S
O417 C415 1.279 . S
O418 Cd408 2.297 1_655 S
O418 C413 1.247 1_655 S
O419 Cd408 2.439 . S
O419 C413 1.208 . S
O420 Cd421 2.223 . S
O420 C428 1.315 . S
Cd421 O420 2.223 . S
Cd421 O424 2.297 . S
Cd421 O425 2.439 . S
Cd421 O431 2.240 . S
Cd422 O423 2.240 . S
Cd422 O430 2.223 . S
Cd422 O432 2.297 . S
Cd422 O433 2.439 . S
O423 Cd422 2.240 . S
O423 C428 1.279 . S
O424 Cd421 2.297 . S
O424 C426 1.247 . S
O425 Cd421 2.439 . S
O425 C426 1.208 . S
C426 O424 1.247 . S
C426 O425 1.208 . S
C427 O432 1.247 . S
C427 O433 1.208 . S
C428 O420 1.315 . S
C428 O423 1.279 . S
C429 O430 1.315 . S
C429 O431 1.279 . S
O430 Cd422 2.223 . S
O430 C429 1.315 . S
O431 Cd421 2.240 . S
O431 C429 1.279 . S
O432 Cd422 2.297 . S
O432 C427 1.247 . S
O433 Cd422 2.439 . S
O433 C427 1.208 . S
O434 Cd435 2.223 . S
O434 C442 1.315 . S
Cd435 O434 2.223 . S
Cd435 O438 2.297 . S
Cd435 O439 2.439 . S
Cd435 O445 2.240 . S
Cd436 O437 2.240 . S
Cd436 O444 2.223 . S
Cd436 O446 2.297 1_565 S
Cd436 O447 2.439 . S
O437 Cd436 2.240 . S
O437 C442 1.279 . S
O438 Cd435 2.297 . S
O438 C440 1.247 . S
O439 Cd435 2.439 . S
O439 C440 1.208 . S
C440 O438 1.247 . S
C440 O439 1.208 . S
C441 O446 1.247 1_565 S
C441 O447 1.208 . S
C442 O434 1.315 . S
C442 O437 1.279 . S
C443 O444 1.315 . S
C443 O445 1.279 . S
O444 Cd436 2.223 . S
O444 C443 1.315 . S
O445 Cd435 2.240 . S
O445 C443 1.279 . S
O446 Cd436 2.297 1_545 S
O446 C441 1.247 1_545 S
O447 Cd436 2.439 . S
O447 C441 1.208 . S
O448 Cd449 2.223 . S
O448 C456 1.315 . S
Cd449 O448 2.223 . S
Cd449 O452 2.297 . S
Cd449 O453 2.439 . S
Cd449 O459 2.240 . S
Cd450 O451 2.240 . S
Cd450 O458 2.223 . S
Cd450 O460 2.297 1_455 S
Cd450 O461 2.439 . S
O451 Cd450 2.240 . S
O451 C456 1.279 . S
O452 Cd449 2.297 . S
O452 C454 1.247 . S
O453 Cd449 2.439 . S
O453 C454 1.208 . S
C454 O452 1.247 . S
C454 O453 1.208 . S
C455 O460 1.247 1_455 S
C455 O461 1.208 . S
C456 O448 1.315 . S
C456 O451 1.279 . S
C457 O458 1.315 . S
C457 O459 1.279 . S
O458 Cd450 2.223 . S
O458 C457 1.315 . S
O459 Cd449 2.240 . S
O459 C457 1.279 . S
O460 Cd450 2.297 1_655 S
O460 C455 1.247 1_655 S
O461 Cd450 2.439 . S
O461 C455 1.208 . S
O462 Cd463 2.223 . S
O462 C470 1.315 . S
Cd463 O462 2.223 . S
Cd463 O466 2.297 . S
Cd463 O467 2.439 . S
Cd463 O473 2.240 . S
Cd464 O465 2.240 . S
Cd464 O472 2.223 . S
Cd464 O474 2.297 . S
Cd464 O475 2.439 . S
O465 Cd464 2.240 . S
O465 C470 1.279 . S
O466 Cd463 2.297 . S
O466 C468 1.247 . S
O467 Cd463 2.439 . S
O467 C468 1.208 . S
C468 O466 1.247 . S
C468 O467 1.208 . S
C469 O474 1.247 . S
C469 O475 1.208 . S
C470 O462 1.315 . S
C470 O465 1.279 . S
C471 O472 1.315 . S
C471 O473 1.279 . S
O472 Cd464 2.223 . S
O472 C471 1.315 . S
O473 Cd463 2.240 . S
O473 C471 1.279 . S
O474 Cd464 2.297 . S
O474 C469 1.247 . S
O475 Cd464 2.439 . S
O475 C469 1.208 . S
O476 Cd477 2.223 . S
O476 C484 1.315 . S
Cd477 O476 2.223 . S
Cd477 O480 2.297 . S
Cd477 O481 2.439 . S
Cd477 O487 2.240 . S
Cd478 O479 2.240 . S
Cd478 O486 2.223 . S
Cd478 O488 2.297 . S
Cd478 O489 2.439 . S
O479 Cd478 2.240 . S
O479 C484 1.279 . S
O480 Cd477 2.297 . S
O480 C482 1.247 . S
O481 Cd477 2.439 . S
O481 C482 1.208 . S
C482 O480 1.247 . S
C482 O481 1.208 . S
C483 O488 1.247 . S
C483 O489 1.208 . S
C484 O476 1.315 . S
C484 O479 1.279 . S
C485 O486 1.315 . S
C485 O487 1.279 . S
O486 Cd478 2.223 . S
O486 C485 1.315 . S
O487 Cd477 2.240 . S
O487 C485 1.279 . S
O488 Cd478 2.297 . S
O488 C483 1.247 . S
O489 Cd478 2.439 . S
O489 C483 1.208 . S
O490 Cd491 2.223 . S
O490 C498 1.315 . S
Cd491 O490 2.223 . S
Cd491 O494 2.297 . S
Cd491 O495 2.439 . S
Cd491 O501 2.240 . S
Cd492 O493 2.240 . S
Cd492 O500 2.223 . S
Cd492 O502 2.297 . S
Cd492 O503 2.439 . S
O493 Cd492 2.240 . S
O493 C498 1.279 . S
O494 Cd491 2.297 . S
O494 C496 1.247 . S
O495 Cd491 2.439 . S
O495 C496 1.208 . S
C496 O494 1.247 . S
C496 O495 1.208 . S
C497 O502 1.247 . S
C497 O503 1.208 . S
C498 O490 1.315 . S
C498 O493 1.279 . S
C499 O500 1.315 . S
C499 O501 1.279 . S
O500 Cd492 2.223 . S
O500 C499 1.315 . S
O501 Cd491 2.240 . S
O501 C499 1.279 . S
O502 Cd492 2.297 . S
O502 C497 1.247 . S
O503 Cd492 2.439 . S
O503 C497 1.208 . S
C504 C505 1.386 . S
C504 C506 1.419 1_655 S
C504 H508 0.930 . S
C505 C504 1.386 . S
C505 C514 1.410 1_554 S
C506 C504 1.419 1_455 S
C506 C507 1.363 1_554 S
C506 H509 0.929 . S
C507 C506 1.363 1_556 S
C507 C513 1.428 . S
H508 C504 0.930 . S
H509 C506 0.929 . S
S510 N511 1.613 . S
S510 N512 1.610 1_655 S
N511 S510 1.613 . S
N511 C514 1.350 . S
N512 S510 1.610 1_455 S
N512 C513 1.351 . S
C513 C507 1.428 . S
C513 N512 1.351 . S
C513 C514 1.434 1_455 S
C514 C505 1.410 1_556 S
C514 N511 1.350 . S
C514 C513 1.434 1_655 S
C515 C516 1.383 . S
C515 C517 1.419 . S
C515 H519 0.930 . S
C516 C515 1.383 . S
C516 C525 1.414 1_554 S
C517 C515 1.419 . S
C517 C518 1.363 1_554 S
C517 H520 0.929 . S
C518 C517 1.363 1_556 S
C518 C524 1.428 . S
H519 C515 0.930 . S
H520 C517 0.929 . S
S521 N522 1.613 . S
S521 N523 1.610 . S
N522 S521 1.613 . S
N522 C525 1.350 . S
N523 S521 1.610 . S
N523 C524 1.351 . S
C524 C518 1.428 . S
C524 N523 1.351 . S
C524 C525 1.434 . S
C525 C516 1.414 1_556 S
C525 N522 1.350 . S
C525 C524 1.434 . S
C526 C527 1.385 . S
C526 C528 1.419 1_545 S
C526 H530 0.930 . S
C527 C526 1.385 . S
C527 C536 1.412 1_554 S
C528 C526 1.419 1_565 S
C528 C529 1.363 1_554 S
C528 H531 0.929 . S
C529 C528 1.363 1_556 S
C529 C535 1.428 . S
H530 C526 0.930 . S
H531 C528 0.929 . S
S532 N533 1.613 . S
S532 N534 1.610 1_545 S
N533 S532 1.613 . S
N533 C536 1.350 . S
N534 S532 1.610 1_565 S
N534 C535 1.351 . S
C535 C529 1.428 . S
C535 N534 1.351 . S
C535 C536 1.434 1_565 S
C536 C527 1.412 1_556 S
C536 N533 1.350 . S
C536 C535 1.434 1_545 S
C537 C538 1.383 . S
C537 C539 1.419 1_455 S
C537 H541 0.930 . S
C538 C537 1.383 . S
C538 C547 1.414 1_556 S
C539 C537 1.419 1_655 S
C539 C540 1.363 1_556 S
C539 H542 0.929 . S
C540 C539 1.363 1_554 S
C540 C546 1.428 . S
H541 C537 0.930 . S
H542 C539 0.929 . S
S543 N544 1.613 . S
S543 N545 1.610 1_455 S
N544 S543 1.613 . S
N544 C547 1.350 . S
N545 S543 1.610 1_655 S
N545 C546 1.351 . S
C546 C540 1.428 . S
C546 N545 1.351 . S
C546 C547 1.434 1_655 S
C547 C538 1.414 1_554 S
C547 N544 1.350 . S
C547 C546 1.434 1_455 S
C548 C549 1.369 . S
C548 C550 1.419 . S
C548 H552 0.930 . S
C549 C548 1.369 . S
C549 C558 1.429 1_554 S
C550 C548 1.419 . S
C550 C551 1.363 1_554 S
C550 H553 0.929 . S
C551 C550 1.363 1_556 S
C551 C557 1.428 . S
H552 C548 0.930 . S
H553 C550 0.929 . S
S554 N555 1.613 . S
S554 N556 1.610 . S
N555 S554 1.613 . S
N555 C558 1.350 . S
N556 S554 1.610 . S
N556 C557 1.351 . S
C557 C551 1.428 . S
C557 N556 1.351 . S
C557 C558 1.434 . S
C558 C549 1.429 1_556 S
C558 N555 1.350 . S
C558 C557 1.434 . S
C559 C560 1.369 1_554 S
C559 C561 1.419 1_565 S
C559 H563 0.930 . S
C560 C559 1.369 1_556 S
C560 C569 1.429 . S
C561 C559 1.419 1_545 S
C561 C562 1.363 . S
C561 H564 0.929 . S
C562 C561 1.363 . S
C562 C568 1.428 1_554 S
H563 C559 0.930 . S
H564 C561 0.929 . S
S565 N566 1.613 1_545 S
S565 N567 1.610 . S
N566 S565 1.613 1_565 S
N566 C569 1.350 . S
N567 S565 1.610 . S
N567 C568 1.351 . S
C568 C562 1.428 1_556 S
C568 N567 1.351 . S
C568 C569 1.434 1_545 S
C569 C560 1.429 . S
C569 N566 1.350 . S
C569 C568 1.434 1_565 S
C570 C571 1.369 . S
C570 C572 1.419 . S
C570 H574 0.930 . S
C571 C570 1.369 . S
C571 C580 1.429 . S
C572 C570 1.419 . S
C572 C573 1.363 . S
C572 H575 0.929 . S
C573 C572 1.363 . S
C573 C579 1.428 . S
H574 C570 0.930 . S
H575 C572 0.929 . S
S576 N577 1.613 . S
S576 N578 1.610 . S
N577 S576 1.613 . S
N577 C580 1.350 . S
N578 S576 1.610 . S
N578 C579 1.351 . S
C579 C573 1.428 . S
C579 N578 1.351 . S
C579 C580 1.434 . S
C580 C571 1.429 . S
C580 N577 1.350 . S
C580 C579 1.434 . S
C581 C582 1.369 . S
C581 C583 1.419 . S
C581 H585 0.930 1_545 S
C582 C581 1.369 . S
C582 C591 1.429 . S
C583 C581 1.419 . S
C583 C584 1.363 . S
C583 H586 0.929 . S
C584 C583 1.363 . S
C584 C590 1.428 . S
H585 C581 0.930 1_565 S
H586 C583 0.929 . S
S587 N588 1.613 . S
S587 N589 1.610 . S
N588 S587 1.613 . S
N588 C591 1.350 . S
N589 S587 1.610 . S
N589 C590 1.351 . S
C590 C584 1.428 . S
C590 N589 1.351 . S
C590 C591 1.434 . S
C591 C582 1.429 . S
C591 N588 1.350 . S
C591 C590 1.434 . S
C592 C593 1.369 . S
C592 C594 1.419 . S
C592 H596 0.930 . S
C593 C592 1.369 . S
C593 C602 1.429 . S
C594 C592 1.419 . S
C594 C595 1.363 . S
C594 H597 0.929 . S
C595 C594 1.363 . S
C595 C601 1.428 1_655 S
H596 C592 0.930 . S
H597 C594 0.929 . S
S598 N599 1.634 . S
S598 N600 1.610 . S
N599 S598 1.634 . S
N599 C602 1.321 1_455 S
N600 S598 1.610 . S
N600 C601 1.351 . S
C601 C595 1.428 1_455 S
C601 N600 1.351 . S
C601 C602 1.434 1_455 S
C602 C593 1.429 . S
C602 N599 1.321 1_655 S
C602 C601 1.434 1_655 S
C603 C604 1.369 . S
C603 C605 1.419 . S
C603 H607 0.930 . S
C604 C603 1.369 . S
C604 C613 1.424 1_545 S
C605 C603 1.419 . S
C605 C606 1.363 . S
C605 H608 0.929 . S
C606 C605 1.363 . S
C606 C612 1.428 . S
H607 C603 0.930 . S
H608 C605 0.929 . S
S609 N610 1.613 . S
S609 N611 1.610 1_565 S
N610 S609 1.613 . S
N610 C613 1.355 . S
N611 S609 1.610 1_545 S
N611 C612 1.351 . S
C612 C606 1.428 . S
C612 N611 1.351 . S
C612 C613 1.434 1_545 S
C613 C604 1.424 1_565 S
C613 N610 1.355 . S
C613 C612 1.434 1_565 S
C614 C615 1.369 . S
C614 C616 1.419 . S
C614 H618 0.930 . S
C615 C614 1.369 . S
C615 C624 1.429 . S
C616 C614 1.419 . S
C616 C617 1.363 . S
C616 H619 0.929 1_655 S
C617 C616 1.363 . S
C617 C623 1.428 . S
H618 C614 0.930 . S
H619 C616 0.929 1_455 S
S620 N621 1.613 . S
S620 N622 1.610 . S
N621 S620 1.613 . S
N621 C624 1.350 . S
N622 S620 1.610 . S
N622 C623 1.351 . S
C623 C617 1.428 . S
C623 N622 1.351 . S
C623 C624 1.434 . S
C624 C615 1.429 . S
C624 N621 1.350 . S
C624 C623 1.434 . S
C625 C626 1.369 . S
C625 C627 1.419 . S
C625 H629 0.930 . S
C626 C625 1.369 . S
C626 C635 1.429 . S
C627 C625 1.419 . S
C627 C628 1.363 . S
C627 H630 0.929 . S
C628 C627 1.363 . S
C628 C634 1.428 . S
H629 C625 0.930 . S
H630 C627 0.929 . S
S631 N632 1.613 . S
S631 N633 1.610 . S
N632 S631 1.613 . S
N632 C635 1.350 . S
N633 S631 1.610 . S
N633 C634 1.351 . S
C634 C628 1.428 . S
C634 N633 1.351 . S
C634 C635 1.434 . S
C635 C626 1.429 . S
C635 N632 1.350 . S
C635 C634 1.434 . S
C636 C637 1.369 . S
C636 C638 1.419 . S
C636 H640 0.930 . S
C637 C636 1.369 . S
C637 C646 1.429 . S
C638 C636 1.419 . S
C638 C639 1.363 . S
C638 H641 0.929 . S
C639 C638 1.363 . S
C639 C645 1.428 . S
H640 C636 0.930 . S
H641 C638 0.929 . S
S642 N643 1.613 . S
S642 N644 1.610 1_565 S
N643 S642 1.613 . S
N643 C646 1.350 . S
N644 S642 1.610 1_545 S
N644 C645 1.351 1_545 S
C645 C639 1.428 . S
C645 N644 1.351 1_565 S
C645 C646 1.434 . S
C646 C637 1.429 . S
C646 N643 1.350 . S
C646 C645 1.434 . S
C647 C648 1.369 . S
C647 C649 1.419 . S
C647 H651 0.930 . S
C648 C647 1.369 . S
C648 C657 1.430 1_455 S
C649 C647 1.419 . S
C649 C650 1.363 . S
C649 H652 0.929 . S
C650 C649 1.363 . S
C650 C656 1.428 . S
H651 C647 0.930 . S
H652 C649 0.929 . S
S653 N654 1.613 . S
S653 N655 1.610 1_655 S
N654 S653 1.613 . S
N654 C657 1.356 . S
N655 S653 1.610 1_455 S
N655 C656 1.351 . S
C656 C650 1.428 . S
C656 N655 1.351 . S
C656 C657 1.426 1_455 S
C657 C648 1.430 1_655 S
C657 N654 1.356 . S
C657 C656 1.426 1_655 S
C658 C659 1.369 . S
C658 C660 1.419 . S
C658 H662 0.930 . S
C659 C658 1.369 . S
C659 C668 1.429 . S
C660 C658 1.419 . S
C660 C661 1.363 . S
C660 H663 0.929 . S
C661 C660 1.363 . S
C661 C667 1.428 . S
H662 C658 0.930 . S
H663 C660 0.929 . S
S664 N665 1.613 . S
S664 N666 1.610 . S
N665 S664 1.613 . S
N665 C668 1.350 . S
N666 S664 1.610 . S
N666 C667 1.351 . S
C667 C661 1.428 . S
C667 N666 1.351 . S
C667 C668 1.434 . S
C668 C659 1.429 . S
C668 N665 1.350 . S
C668 C667 1.434 . S
C669 C670 1.369 . S
C669 C671 1.419 . S
C669 H673 0.930 . S
C670 C669 1.369 . S
C670 C679 1.429 . S
C671 C669 1.419 . S
C671 C672 1.363 . S
C671 H674 0.929 . S
C672 C671 1.363 . S
C672 C678 1.428 . S
H673 C669 0.930 . S
H674 C671 0.929 . S
S675 N676 1.613 . S
S675 N677 1.610 . S
N676 S675 1.613 . S
N676 C679 1.350 . S
N677 S675 1.610 . S
N677 C678 1.351 . S
C678 C672 1.428 . S
C678 N677 1.351 . S
C678 C679 1.434 . S
C679 C670 1.429 . S
C679 N676 1.350 . S
C679 C678 1.434 . S
C680 C681 1.369 . S
C680 C682 1.419 . S
C680 H684 0.930 . S
C681 C680 1.369 . S
C681 C690 1.429 . S
C682 C680 1.419 . S
C682 C683 1.363 . S
C682 H685 0.929 . S
C683 C682 1.363 . S
C683 C689 1.428 1_565 S
H684 C680 0.930 . S
H685 C682 0.929 . S
S686 N687 1.646 . S
S686 N688 1.610 . S
N687 S686 1.646 . S
N687 C690 1.349 1_545 S
N688 S686 1.610 . S
N688 C689 1.351 . S
C689 C683 1.428 1_545 S
C689 N688 1.351 . S
C689 C690 1.434 1_545 S
C690 C681 1.429 . S
C690 N687 1.349 1_565 S
C690 C689 1.434 1_565 S
C691 C692 1.369 . S
C691 C693 1.419 . S
C691 H695 0.930 . S
C692 C691 1.369 . S
C692 C701 1.429 . S
C693 C691 1.419 . S
C693 C694 1.363 . S
C693 H696 0.929 1_455 S
C694 C693 1.363 . S
C694 C700 1.428 . S
H695 C691 0.930 . S
H696 C693 0.929 1_655 S
S697 N698 1.613 . S
S697 N699 1.610 . S
N698 S697 1.613 . S
N698 C701 1.350 . S
N699 S697 1.610 . S
N699 C700 1.351 . S
C700 C694 1.428 . S
C700 N699 1.351 . S
C700 C701 1.434 . S
C701 C692 1.429 . S
C701 N698 1.350 . S
C701 C700 1.434 . S
C702 C703 1.369 1_556 S
C702 C704 1.419 . S
C702 H706 0.930 . S
C703 C702 1.369 1_554 S
C703 C712 1.429 . S
C704 C702 1.419 . S
C704 C705 1.363 1_556 S
C704 H707 0.929 . S
C705 C704 1.363 1_554 S
C705 C711 1.428 . S
H706 C702 0.930 . S
H707 C704 0.929 . S
S708 N709 1.613 . S
S708 N710 1.610 . S
N709 S708 1.613 . S
N709 C712 1.350 . S
N710 S708 1.610 . S
N710 C711 1.351 . S
C711 C705 1.428 . S
C711 N710 1.351 . S
C711 C712 1.434 . S
C712 C703 1.429 . S
C712 N709 1.350 . S
C712 C711 1.434 . S
C713 C714 1.369 . S
C713 C715 1.419 . S
C713 H717 0.930 . S
C714 C713 1.369 . S
C714 C723 1.429 1_554 S
C715 C713 1.419 . S
C715 C716 1.363 . S
C715 H718 0.929 . S
C716 C715 1.363 . S
C716 C722 1.428 1_554 S
H717 C713 0.930 . S
H718 C715 0.929 . S
S719 N720 1.613 . S
S719 N721 1.610 . S
N720 S719 1.613 . S
N720 C723 1.350 . S
N721 S719 1.610 . S
N721 C722 1.351 . S
C722 C716 1.428 1_556 S
C722 N721 1.351 . S
C722 C723 1.434 . S
C723 C714 1.429 1_556 S
C723 N720 1.350 . S
C723 C722 1.434 . S
C724 C725 1.369 1_556 S
C724 C726 1.419 . S
C724 H728 0.930 . S
C725 C724 1.369 1_554 S
C725 C734 1.429 . S
C726 C724 1.419 . S
C726 C727 1.363 1_556 S
C726 H729 0.929 . S
C727 C726 1.363 1_554 S
C727 C733 1.428 . S
H728 C724 0.930 . S
H729 C726 0.929 . S
S730 N731 1.613 . S
S730 N732 1.610 . S
N731 S730 1.613 . S
N731 C734 1.350 . S
N732 S730 1.610 . S
N732 C733 1.351 . S
C733 C727 1.428 . S
C733 N732 1.351 . S
C733 C734 1.434 . S
C734 C725 1.429 . S
C734 N731 1.350 . S
C734 C733 1.434 . S
C735 C736 1.369 . S
C735 C737 1.419 . S
C735 H739 0.930 . S
C736 C735 1.369 . S
C736 C745 1.429 1_556 S
C737 C735 1.419 . S
C737 C738 1.363 . S
C737 H740 0.929 . S
C738 C737 1.363 . S
C738 C744 1.428 1_556 S
H739 C735 0.930 . S
H740 C737 0.929 . S
S741 N742 1.613 . S
S741 N743 1.610 . S
N742 S741 1.613 . S
N742 C745 1.350 . S
N743 S741 1.610 . S
N743 C744 1.351 . S
C744 C738 1.428 1_554 S
C744 N743 1.351 . S
C744 C745 1.434 . S
C745 C736 1.429 1_554 S
C745 N742 1.350 . S
C745 C744 1.434 . S
C746 C747 1.369 . S
C746 C748 1.419 . S
C746 H750 0.930 . S
C747 C746 1.369 . S
C747 C756 1.429 1_556 S
C748 C746 1.419 . S
C748 C749 1.363 . S
C748 H751 0.929 . S
C749 C748 1.363 . S
C749 C755 1.428 1_556 S
H750 C746 0.930 . S
H751 C748 0.929 . S
S752 N753 1.613 . S
S752 N754 1.610 . S
N753 S752 1.613 . S
N753 C756 1.350 . S
N754 S752 1.610 . S
N754 C755 1.351 . S
C755 C749 1.428 1_554 S
C755 N754 1.351 . S
C755 C756 1.434 . S
C756 C747 1.429 1_554 S
C756 N753 1.350 . S
C756 C755 1.434 . S
C757 C758 1.369 1_554 S
C757 C759 1.419 . S
C757 H761 0.930 . S
C758 C757 1.369 1_556 S
C758 C767 1.429 . S
C759 C757 1.419 . S
C759 C760 1.363 1_554 S
C759 H762 0.929 . S
C760 C759 1.363 1_556 S
C760 C766 1.428 . S
H761 C757 0.930 . S
H762 C759 0.929 . S
S763 N764 1.613 . S
S763 N765 1.610 . S
N764 S763 1.613 . S
N764 C767 1.350 . S
N765 S763 1.610 . S
N765 C766 1.351 . S
C766 C760 1.428 . S
C766 N765 1.351 . S
C766 C767 1.434 . S
C767 C758 1.429 . S
C767 N764 1.350 . S
C767 C766 1.434 . S
C768 C769 1.369 . S
C768 C770 1.419 . S
C768 H772 0.930 . S
C769 C768 1.369 . S
C769 C778 1.429 . S
C770 C768 1.419 . S
C770 C771 1.363 . S
C770 H773 0.929 . S
C771 C770 1.363 . S
C771 C777 1.428 . S
H772 C768 0.930 . S
H773 C770 0.929 . S
S774 N775 1.613 . S
S774 N776 1.610 . S
N775 S774 1.613 . S
N775 C778 1.350 . S
N776 S774 1.610 . S
N776 C777 1.351 . S
C777 C771 1.428 . S
C777 N776 1.351 . S
C777 C778 1.434 . S
C778 C769 1.429 . S
C778 N775 1.350 . S
C778 C777 1.434 . S
C779 C780 1.369 . S
C779 C781 1.419 . S
C779 H783 0.930 . S
C780 C779 1.369 . S
C780 C789 1.429 . S
C781 C779 1.419 . S
C781 C782 1.363 . S
C781 H784 0.929 . S
C782 C781 1.363 . S
C782 C788 1.428 . S
H783 C779 0.930 . S
H784 C781 0.929 . S
S785 N786 1.613 . S
S785 N787 1.610 . S
N786 S785 1.613 . S
N786 C789 1.350 . S
N787 S785 1.610 . S
N787 C788 1.351 . S
C788 C782 1.428 . S
C788 N787 1.351 . S
C788 C789 1.434 . S
C789 C780 1.429 . S
C789 N786 1.350 . S
C789 C788 1.434 . S
C790 C791 1.369 . S
C790 C792 1.419 . S
C790 H794 0.930 . S
C791 C790 1.369 . S
C791 C800 1.429 . S
C792 C790 1.419 . S
C792 C793 1.363 . S
C792 H795 0.929 . S
C793 C792 1.363 . S
C793 C799 1.428 . S
H794 C790 0.930 . S
H795 C792 0.929 . S
S796 N797 1.613 . S
S796 N798 1.610 . S
N797 S796 1.613 . S
N797 C800 1.350 . S
N798 S796 1.610 . S
N798 C799 1.351 . S
C799 C793 1.428 . S
C799 N798 1.351 . S
C799 C800 1.434 . S
C800 C791 1.429 . S
C800 N797 1.350 . S
C800 C799 1.434 . S
C801 C802 1.369 . S
C801 C803 1.419 . S
C801 H805 0.930 1_455 S
C802 C801 1.369 . S
C802 C811 1.429 . S
C803 C801 1.419 . S
C803 C804 1.363 . S
C803 H806 0.929 1_455 S
C804 C803 1.363 . S
C804 C810 1.428 . S
H805 C801 0.930 1_655 S
H806 C803 0.929 1_655 S
S807 N808 1.613 . S
S807 N809 1.610 . S
N808 S807 1.613 . S
N808 C811 1.350 . S
N809 S807 1.610 . S
N809 C810 1.351 . S
C810 C804 1.428 . S
C810 N809 1.351 . S
C810 C811 1.434 . S
C811 C802 1.429 . S
C811 N808 1.350 . S
C811 C810 1.434 . S
C812 C813 1.369 . S
C812 C814 1.419 . S
C812 H816 0.930 . S
C813 C812 1.369 . S
C813 C822 1.429 . S
C814 C812 1.419 . S
C814 C815 1.363 . S
C814 H817 0.929 . S
C815 C814 1.363 . S
C815 C821 1.428 . S
H816 C812 0.930 . S
H817 C814 0.929 . S
S818 N819 1.613 . S
S818 N820 1.610 . S
N819 S818 1.613 . S
N819 C822 1.350 . S
N820 S818 1.610 . S
N820 C821 1.351 . S
C821 C815 1.428 . S
C821 N820 1.351 . S
C821 C822 1.434 . S
C822 C813 1.429 . S
C822 N819 1.350 . S
C822 C821 1.434 . S
C823 C824 1.369 . S
C823 C825 1.419 . S
C823 H827 0.930 . S
C824 C823 1.369 . S
C824 C833 1.429 . S
C825 C823 1.419 . S
C825 C826 1.363 . S
C825 H828 0.929 . S
C826 C825 1.363 . S
C826 C832 1.428 . S
H827 C823 0.930 . S
H828 C825 0.929 . S
S829 N830 1.613 . S
S829 N831 1.610 . S
N830 S829 1.613 . S
N830 C833 1.350 . S
N831 S829 1.610 . S
N831 C832 1.351 . S
C832 C826 1.428 . S
C832 N831 1.351 . S
C832 C833 1.434 . S
C833 C824 1.429 . S
C833 N830 1.350 . S
C833 C832 1.434 . S
C834 C835 1.369 . S
C834 C836 1.419 . S
C834 H838 0.930 . S
C835 C834 1.369 . S
C835 C844 1.429 . S
C836 C834 1.419 . S
C836 C837 1.363 . S
C836 H839 0.929 . S
C837 C836 1.363 . S
C837 C843 1.428 . S
H838 C834 0.930 . S
H839 C836 0.929 . S
S840 N841 1.613 1_565 S
S840 N842 1.610 1_565 S
N841 S840 1.613 1_545 S
N841 C844 1.350 . S
N842 S840 1.610 1_545 S
N842 C843 1.351 . S
C843 C837 1.428 . S
C843 N842 1.351 . S
C843 C844 1.434 . S
C844 C835 1.429 . S
C844 N841 1.350 . S
C844 C843 1.434 . S
C845 C846 1.369 . S
C845 C847 1.419 . S
C845 H849 0.930 . S
C846 C845 1.369 . S
C846 C855 1.429 . S
C847 C845 1.419 . S
C847 C848 1.363 . S
C847 H850 0.929 . S
C848 C847 1.363 . S
C848 C854 1.428 . S
H849 C845 0.930 . S
H850 C847 0.929 . S
S851 N852 1.612 . S
S851 N853 1.646 . S
N852 S851 1.612 . S
N852 C855 1.322 1_455 S
N853 S851 1.646 . S
N853 C854 1.337 1_455 S
C854 C848 1.428 . S
C854 N853 1.337 1_655 S
C854 C855 1.434 . S
C855 C846 1.429 . S
C855 N852 1.322 1_655 S
C855 C854 1.434 . S
C856 C857 1.369 . S
C856 C858 1.419 . S
C856 H860 0.930 . S
C857 C856 1.369 . S
C857 C866 1.429 . S
C858 C856 1.419 . S
C858 C859 1.363 . S
C858 H861 0.929 . S
C859 C858 1.363 . S
C859 C865 1.428 . S
H860 C856 0.930 . S
H861 C858 0.929 . S
S862 N863 1.613 . S
S862 N864 1.610 . S
N863 S862 1.613 . S
N863 C866 1.350 . S
N864 S862 1.610 . S
N864 C865 1.351 . S
C865 C859 1.428 . S
C865 N864 1.351 . S
C865 C866 1.434 . S
C866 C857 1.429 . S
C866 N863 1.350 . S
C866 C865 1.434 . S
C867 C868 1.369 . S
C867 C869 1.419 . S
C867 H871 0.930 . S
C868 C867 1.369 . S
C868 C877 1.429 . S
C869 C867 1.419 . S
C869 C870 1.363 . S
C869 H872 0.929 . S
C870 C869 1.363 . S
C870 C876 1.428 . S
H871 C867 0.930 . S
H872 C869 0.929 . S
S873 N874 1.613 . S
S873 N875 1.610 . S
N874 S873 1.613 . S
N874 C877 1.350 . S
N875 S873 1.610 . S
N875 C876 1.351 . S
C876 C870 1.428 . S
C876 N875 1.351 . S
C876 C877 1.434 . S
C877 C868 1.429 . S
C877 N874 1.350 . S
C877 C876 1.434 . S
C878 C879 1.369 . S
C878 C880 1.419 . S
C878 H882 0.930 . S
C879 C878 1.369 . S
C879 C888 1.429 . S
C880 C878 1.419 . S
C880 C881 1.363 . S
C880 H883 0.929 . S
C881 C880 1.363 . S
C881 C887 1.428 . S
H882 C878 0.930 . S
H883 C880 0.929 . S
S884 N885 1.613 . S
S884 N886 1.610 . S
N885 S884 1.613 . S
N885 C888 1.350 . S
N886 S884 1.610 . S
N886 C887 1.351 . S
C887 C881 1.428 . S
C887 N886 1.351 . S
C887 C888 1.434 . S
C888 C879 1.429 . S
C888 N885 1.350 . S
C888 C887 1.434 . S
C889 C890 1.369 . S
C889 C891 1.419 . S
C889 H893 0.930 . S
C890 C889 1.369 . S
C890 C899 1.429 . S
C891 C889 1.419 . S
C891 C892 1.363 . S
C891 H894 0.929 . S
C892 C891 1.363 . S
C892 C898 1.428 . S
H893 C889 0.930 . S
H894 C891 0.929 . S
S895 N896 1.613 . S
S895 N897 1.610 . S
N896 S895 1.613 . S
N896 C899 1.350 . S
N897 S895 1.610 . S
N897 C898 1.351 . S
C898 C892 1.428 . S
C898 N897 1.351 . S
C898 C899 1.434 . S
C899 C890 1.429 . S
C899 N896 1.350 . S
C899 C898 1.434 . S
C900 C901 1.369 . S
C900 C902 1.419 . S
C900 H904 0.930 . S
C901 C900 1.369 . S
C901 C910 1.429 . S
C902 C900 1.419 . S
C902 C903 1.363 . S
C902 H905 0.929 . S
C903 C902 1.363 . S
C903 C909 1.428 . S
H904 C900 0.930 . S
H905 C902 0.929 . S
S906 N907 1.613 . S
S906 N908 1.610 . S
N907 S906 1.613 . S
N907 C910 1.350 . S
N908 S906 1.610 . S
N908 C909 1.351 . S
C909 C903 1.428 . S
C909 N908 1.351 . S
C909 C910 1.434 . S
C910 C901 1.429 . S
C910 N907 1.350 . S
C910 C909 1.434 . S
C911 C912 1.369 . S
C911 C913 1.419 . S
C911 H915 0.930 . S
C912 C911 1.369 . S
C912 C921 1.429 . S
C913 C911 1.419 . S
C913 C914 1.363 . S
C913 H916 0.929 . S
C914 C913 1.363 . S
C914 C920 1.428 . S
H915 C911 0.930 . S
H916 C913 0.929 . S
S917 N918 1.613 . S
S917 N919 1.610 . S
N918 S917 1.613 . S
N918 C921 1.350 . S
N919 S917 1.610 . S
N919 C920 1.351 . S
C920 C914 1.428 . S
C920 N919 1.351 . S
C920 C921 1.434 . S
C921 C912 1.429 . S
C921 N918 1.350 . S
C921 C920 1.434 . S
C922 C923 1.369 . S
C922 C924 1.419 . S
C922 H926 0.930 . S
C923 C922 1.369 . S
C923 C932 1.429 . S
C924 C922 1.419 . S
C924 C925 1.363 . S
C924 H927 0.929 . S
C925 C924 1.363 . S
C925 C931 1.428 . S
H926 C922 0.930 . S
H927 C924 0.929 . S
S928 N929 1.613 . S
S928 N930 1.610 . S
N929 S928 1.613 . S
N929 C932 1.350 . S
N930 S928 1.610 . S
N930 C931 1.351 . S
C931 C925 1.428 . S
C931 N930 1.351 . S
C931 C932 1.434 . S
C932 C923 1.429 . S
C932 N929 1.350 . S
C932 C931 1.434 . S
C933 C934 1.369 . S
C933 C935 1.419 . S
C933 H937 0.930 . S
C934 C933 1.369 . S
C934 C943 1.429 . S
C935 C933 1.419 . S
C935 C936 1.363 . S
C935 H938 0.929 . S
C936 C935 1.363 . S
C936 C942 1.428 . S
H937 C933 0.930 . S
H938 C935 0.929 . S
S939 N940 1.613 . S
S939 N941 1.610 . S
N940 S939 1.613 . S
N940 C943 1.350 . S
N941 S939 1.610 . S
N941 C942 1.351 . S
C942 C936 1.428 . S
C942 N941 1.351 . S
C942 C943 1.434 . S
C943 C934 1.429 . S
C943 N940 1.350 . S
C943 C942 1.434 . S
C944 C945 1.369 . S
C944 C946 1.419 . S
C944 H948 0.930 . S
C945 C944 1.369 . S
C945 C954 1.429 . S
C946 C944 1.419 . S
C946 C947 1.363 . S
C946 H949 0.929 . S
C947 C946 1.363 . S
C947 C953 1.428 . S
H948 C944 0.930 . S
H949 C946 0.929 . S
S950 N951 1.613 . S
S950 N952 1.610 . S
N951 S950 1.613 . S
N951 C954 1.350 . S
N952 S950 1.610 . S
N952 C953 1.351 . S
C953 C947 1.428 . S
C953 N952 1.351 . S
C953 C954 1.434 . S
C954 C945 1.429 . S
C954 N951 1.350 . S
C954 C953 1.434 . S
C955 C956 1.369 . S
C955 C957 1.419 . S
C955 H959 0.930 . S
C956 C955 1.369 . S
C956 C965 1.429 . S
C957 C955 1.419 . S
C957 C958 1.363 . S
C957 H960 0.929 . S
C958 C957 1.363 . S
C958 C964 1.428 . S
H959 C955 0.930 . S
H960 C957 0.929 . S
S961 N962 1.613 . S
S961 N963 1.610 . S
N962 S961 1.613 . S
N962 C965 1.350 . S
N963 S961 1.610 . S
N963 C964 1.351 . S
C964 C958 1.428 . S
C964 N963 1.351 . S
C964 C965 1.434 . S
C965 C956 1.429 . S
C965 N962 1.350 . S
C965 C964 1.434 . S
C966 C967 1.369 . S
C966 C968 1.419 . S
C966 H970 0.930 . S
C967 C966 1.369 . S
C967 C976 1.429 . S
C968 C966 1.419 . S
C968 C969 1.363 . S
C968 H971 0.929 . S
C969 C968 1.363 . S
C969 C975 1.428 . S
H970 C966 0.930 . S
H971 C968 0.929 . S
S972 N973 1.613 . S
S972 N974 1.610 . S
N973 S972 1.613 . S
N973 C976 1.350 . S
N974 S972 1.610 . S
N974 C975 1.351 . S
C975 C969 1.428 . S
C975 N974 1.351 . S
C975 C976 1.434 . S
C976 C967 1.429 . S
C976 N973 1.350 . S
C976 C975 1.434 . S
C977 C978 1.369 . S
C977 C979 1.419 . S
C977 H981 0.930 . S
C978 C977 1.369 . S
C978 C987 1.429 . S
C979 C977 1.419 . S
C979 C980 1.363 . S
C979 H982 0.929 . S
C980 C979 1.363 . S
C980 C986 1.428 . S
H981 C977 0.930 . S
H982 C979 0.929 . S
S983 N984 1.613 . S
S983 N985 1.610 . S
N984 S983 1.613 . S
N984 C987 1.350 . S
N985 S983 1.610 . S
N985 C986 1.351 . S
C986 C980 1.428 . S
C986 N985 1.351 . S
C986 C987 1.434 . S
C987 C978 1.429 . S
C987 N984 1.350 . S
C987 C986 1.434 . S
C988 C989 1.369 . S
C988 C990 1.419 . S
C988 H992 0.930 . S
C989 C988 1.369 . S
C989 C998 1.429 . S
C990 C988 1.419 . S
C990 C991 1.363 . S
C990 H993 0.929 . S
C991 C990 1.363 . S
C991 C997 1.428 . S
H992 C988 0.930 . S
H993 C990 0.929 . S
S994 N995 1.613 . S
S994 N996 1.610 . S
N995 S994 1.613 . S
N995 C998 1.350 . S
N996 S994 1.610 . S
N996 C997 1.351 . S
C997 C991 1.428 . S
C997 N996 1.351 . S
C997 C998 1.434 . S
C998 C989 1.429 . S
C998 N995 1.350 . S
C998 C997 1.434 . S
C999 C1000 1.369 . S
C999 C1001 1.419 . S
C999 H1003 0.930 . S
C1000 C999 1.369 . S
C1000 C1009 1.429 . S
C1001 C999 1.419 . S
C1001 C1002 1.363 . S
C1001 H1004 0.929 . S
C1002 C1001 1.363 . S
C1002 C1008 1.428 . S
H1003 C999 0.930 . S
H1004 C1001 0.929 . S
S1005 N1006 1.613 . S
S1005 N1007 1.610 . S
N1006 S1005 1.613 . S
N1006 C1009 1.350 . S
N1007 S1005 1.610 . S
N1007 C1008 1.351 . S
C1008 C1002 1.428 . S
C1008 N1007 1.351 . S
C1008 C1009 1.434 . S
C1009 C1000 1.429 . S
C1009 N1006 1.350 . S
C1009 C1008 1.434 . S
C1010 C1011 1.369 . S
C1010 C1012 1.419 . S
C1010 H1014 0.930 . S
C1011 C1010 1.369 . S
C1011 C1020 1.429 . S
C1012 C1010 1.419 . S
C1012 C1013 1.363 . S
C1012 H1015 0.929 . S
C1013 C1012 1.363 . S
C1013 C1019 1.428 . S
H1014 C1010 0.930 . S
H1015 C1012 0.929 . S
S1016 N1017 1.613 . S
S1016 N1018 1.610 . S
N1017 S1016 1.613 . S
N1017 C1020 1.350 . S
N1018 S1016 1.610 . S
N1018 C1019 1.351 . S
C1019 C1013 1.428 . S
C1019 N1018 1.351 . S
C1019 C1020 1.434 . S
C1020 C1011 1.429 . S
C1020 N1017 1.350 . S
C1020 C1019 1.434 . S
C1021 C1022 1.369 . S
C1021 C1023 1.419 . S
C1021 H1025 0.930 . S
C1022 C1021 1.369 . S
C1022 C1031 1.429 . S
C1023 C1021 1.419 . S
C1023 C1024 1.363 . S
C1023 H1026 0.929 . S
C1024 C1023 1.363 . S
C1024 C1030 1.428 . S
H1025 C1021 0.930 . S
H1026 C1023 0.929 . S
S1027 N1028 1.613 . S
S1027 N1029 1.610 . S
N1028 S1027 1.613 . S
N1028 C1031 1.350 . S
N1029 S1027 1.610 . S
N1029 C1030 1.351 . S
C1030 C1024 1.428 . S
C1030 N1029 1.351 . S
C1030 C1031 1.434 . S
C1031 C1022 1.429 . S
C1031 N1028 1.350 . S
C1031 C1030 1.434 . S
C1032 C1033 1.369 . S
C1032 C1034 1.419 . S
C1032 H1036 0.930 . S
C1033 C1032 1.369 . S
C1033 C1042 1.429 . S
C1034 C1032 1.419 . S
C1034 C1035 1.363 . S
C1034 H1037 0.929 . S
C1035 C1034 1.363 . S
C1035 C1041 1.428 . S
H1036 C1032 0.930 . S
H1037 C1034 0.929 . S
S1038 N1039 1.613 . S
S1038 N1040 1.610 . S
N1039 S1038 1.613 . S
N1039 C1042 1.350 . S
N1040 S1038 1.610 . S
N1040 C1041 1.351 . S
C1041 C1035 1.428 . S
C1041 N1040 1.351 . S
C1041 C1042 1.434 . S
C1042 C1033 1.429 . S
C1042 N1039 1.350 . S
C1042 C1041 1.434 . S
C1043 C1044 1.369 1_565 S
C1043 C1045 1.419 . S
C1043 H1047 0.930 . S
C1044 C1043 1.369 1_545 S
C1044 C1053 1.429 . S
C1045 C1043 1.419 . S
C1045 C1046 1.363 . S
C1045 H1048 0.929 . S
C1046 C1045 1.363 . S
C1046 C1052 1.428 1_565 S
H1047 C1043 0.930 . S
H1048 C1045 0.929 . S
S1049 N1050 1.613 . S
S1049 N1051 1.610 . S
N1050 S1049 1.613 . S
N1050 C1053 1.350 . S
N1051 S1049 1.610 . S
N1051 C1052 1.351 . S
C1052 C1046 1.428 1_545 S
C1052 N1051 1.351 . S
C1052 C1053 1.434 . S
C1053 C1044 1.429 . S
C1053 N1050 1.350 . S
C1053 C1052 1.434 . S
C1054 C1055 1.369 . S
C1054 C1056 1.419 . S
C1054 H1058 0.930 . S
C1055 C1054 1.369 . S
C1055 C1064 1.429 1_455 S
C1056 C1054 1.419 . S
C1056 C1057 1.363 1_455 S
C1056 H1059 0.929 . S
C1057 C1056 1.363 1_655 S
C1057 C1063 1.428 . S
H1058 C1054 0.930 . S
H1059 C1056 0.929 . S
S1060 N1061 1.613 . S
S1060 N1062 1.610 . S
N1061 S1060 1.613 . S
N1061 C1064 1.350 . S
N1062 S1060 1.610 . S
N1062 C1063 1.351 . S
C1063 C1057 1.428 . S
C1063 N1062 1.351 . S
C1063 C1064 1.434 . S
C1064 C1055 1.429 1_655 S
C1064 N1061 1.350 . S
C1064 C1063 1.434 . S
C1065 C1066 1.369 . S
C1065 C1067 1.419 . S
C1065 H1069 0.930 . S
C1066 C1065 1.369 . S
C1066 C1075 1.429 . S
C1067 C1065 1.419 . S
C1067 C1068 1.363 . S
C1067 H1070 0.929 . S
C1068 C1067 1.363 . S
C1068 C1074 1.428 . S
H1069 C1065 0.930 . S
H1070 C1067 0.929 . S
S1071 N1072 1.613 . S
S1071 N1073 1.610 . S
N1072 S1071 1.613 . S
N1072 C1075 1.350 . S
N1073 S1071 1.610 . S
N1073 C1074 1.351 . S
C1074 C1068 1.428 . S
C1074 N1073 1.351 . S
C1074 C1075 1.434 . S
C1075 C1066 1.429 . S
C1075 N1072 1.350 . S
C1075 C1074 1.434 . S
C1076 C1077 1.369 1_545 S
C1076 C1078 1.419 . S
C1076 H1080 0.930 . S
C1077 C1076 1.369 1_565 S
C1077 C1086 1.429 . S
C1078 C1076 1.419 . S
C1078 C1079 1.363 . S
C1078 H1081 0.929 . S
C1079 C1078 1.363 . S
C1079 C1085 1.428 1_545 S
H1080 C1076 0.930 . S
H1081 C1078 0.929 . S
S1082 N1083 1.613 . S
S1082 N1084 1.610 . S
N1083 S1082 1.613 . S
N1083 C1086 1.350 . S
N1084 S1082 1.610 . S
N1084 C1085 1.351 . S
C1085 C1079 1.428 1_565 S
C1085 N1084 1.351 . S
C1085 C1086 1.434 . S
C1086 C1077 1.429 . S
C1086 N1083 1.350 . S
C1086 C1085 1.434 . S
C1087 C1088 1.369 . S
C1087 C1089 1.419 1_455 S
C1087 H1091 0.930 . S
C1088 C1087 1.369 . S
C1088 C1097 1.429 . S
C1089 C1087 1.419 1_655 S
C1089 C1090 1.363 . S
C1089 H1092 0.929 . S
C1090 C1089 1.363 . S
C1090 C1096 1.428 . S
H1091 C1087 0.930 . S
H1092 C1089 0.929 . S
S1093 N1094 1.613 . S
S1093 N1095 1.610 1_455 S
N1094 S1093 1.613 . S
N1094 C1097 1.350 . S
N1095 S1093 1.610 1_655 S
N1095 C1096 1.351 . S
C1096 C1090 1.428 . S
C1096 N1095 1.351 . S
C1096 C1097 1.434 1_655 S
C1097 C1088 1.429 . S
C1097 N1094 1.350 . S
C1097 C1096 1.434 1_455 S
C1098 C1099 1.369 . S
C1098 C1100 1.419 . S
C1098 H1102 0.930 . S
C1099 C1098 1.369 . S
C1099 C1108 1.429 . S
C1100 C1098 1.419 . S
C1100 C1101 1.363 . S
C1100 H1103 0.929 . S
C1101 C1100 1.363 . S
C1101 C1107 1.428 . S
H1102 C1098 0.930 . S
H1103 C1100 0.929 . S
S1104 N1105 1.613 . S
S1104 N1106 1.610 . S
N1105 S1104 1.613 . S
N1105 C1108 1.350 . S
N1106 S1104 1.610 . S
N1106 C1107 1.351 . S
C1107 C1101 1.428 . S
C1107 N1106 1.351 . S
C1107 C1108 1.434 . S
C1108 C1099 1.429 . S
C1108 N1105 1.350 . S
C1108 C1107 1.434 . S
C1109 C1110 1.369 . S
C1109 C1111 1.419 . S
C1109 H1113 0.930 . S
C1110 C1109 1.369 . S
C1110 C1119 1.429 . S
C1111 C1109 1.419 . S
C1111 C1112 1.363 . S
C1111 H1114 0.929 . S
C1112 C1111 1.363 . S
C1112 C1118 1.428 . S
H1113 C1109 0.930 . S
H1114 C1111 0.929 . S
S1115 N1116 1.613 . S
S1115 N1117 1.610 . S
N1116 S1115 1.613 . S
N1116 C1119 1.350 . S
N1117 S1115 1.610 . S
N1117 C1118 1.351 . S
C1118 C1112 1.428 . S
C1118 N1117 1.351 . S
C1118 C1119 1.434 . S
C1119 C1110 1.429 . S
C1119 N1116 1.350 . S
C1119 C1118 1.434 . S
C1120 C1121 1.369 . S
C1120 C1122 1.419 . S
C1120 H1124 0.930 . S
C1121 C1120 1.369 . S
C1121 C1130 1.429 . S
C1122 C1120 1.419 . S
C1122 C1123 1.363 . S
C1122 H1125 0.929 . S
C1123 C1122 1.363 . S
C1123 C1129 1.428 . S
H1124 C1120 0.930 . S
H1125 C1122 0.929 . S
S1126 N1127 1.613 . S
S1126 N1128 1.610 . S
N1127 S1126 1.613 . S
N1127 C1130 1.350 . S
N1128 S1126 1.610 . S
N1128 C1129 1.351 . S
C1129 C1123 1.428 . S
C1129 N1128 1.351 . S
C1129 C1130 1.434 . S
C1130 C1121 1.429 . S
C1130 N1127 1.350 . S
C1130 C1129 1.434 . S
C1131 C1132 1.369 . S
C1131 C1133 1.419 . S
C1131 H1135 0.930 . S
C1132 C1131 1.369 . S
C1132 C1141 1.429 . S
C1133 C1131 1.419 . S
C1133 C1134 1.363 . S
C1133 H1136 0.929 . S
C1134 C1133 1.363 . S
C1134 C1140 1.428 . S
H1135 C1131 0.930 . S
H1136 C1133 0.929 . S
S1137 N1138 1.613 . S
S1137 N1139 1.610 . S
N1138 S1137 1.613 . S
N1138 C1141 1.350 . S
N1139 S1137 1.610 . S
N1139 C1140 1.351 . S
C1140 C1134 1.428 . S
C1140 N1139 1.351 . S
C1140 C1141 1.434 . S
C1141 C1132 1.429 . S
C1141 N1138 1.350 . S
C1141 C1140 1.434 . S
C1142 C1143 1.369 . S
C1142 C1144 1.419 . S
C1142 H1146 0.930 . S
C1143 C1142 1.369 . S
C1143 C1152 1.429 . S
C1144 C1142 1.419 . S
C1144 C1145 1.363 . S
C1144 H1147 0.929 . S
C1145 C1144 1.363 . S
C1145 C1151 1.428 . S
H1146 C1142 0.930 . S
H1147 C1144 0.929 . S
S1148 N1149 1.613 . S
S1148 N1150 1.610 . S
N1149 S1148 1.613 . S
N1149 C1152 1.350 . S
N1150 S1148 1.610 . S
N1150 C1151 1.351 . S
C1151 C1145 1.428 . S
C1151 N1150 1.351 . S
C1151 C1152 1.434 . S
C1152 C1143 1.429 . S
C1152 N1149 1.350 . S
C1152 C1151 1.434 . S
C1153 C1154 1.369 . S
C1153 C1155 1.419 . S
C1153 H1157 0.930 . S
C1154 C1153 1.369 . S
C1154 C1163 1.429 . S
C1155 C1153 1.419 . S
C1155 C1156 1.363 . S
C1155 H1158 0.929 . S
C1156 C1155 1.363 . S
C1156 C1162 1.428 . S
H1157 C1153 0.930 . S
H1158 C1155 0.929 . S
S1159 N1160 1.613 . S
S1159 N1161 1.610 . S
N1160 S1159 1.613 . S
N1160 C1163 1.350 . S
N1161 S1159 1.610 . S
N1161 C1162 1.351 . S
C1162 C1156 1.428 . S
C1162 N1161 1.351 . S
C1162 C1163 1.434 . S
C1163 C1154 1.429 . S
C1163 N1160 1.350 . S
C1163 C1162 1.434 . S
C1164 C1165 1.369 . S
C1164 C1166 1.419 . S
C1164 H1168 0.930 . S
C1165 C1164 1.369 . S
C1165 C1174 1.429 . S
C1166 C1164 1.419 . S
C1166 C1167 1.363 . S
C1166 H1169 0.929 . S
C1167 C1166 1.363 . S
C1167 C1173 1.428 . S
H1168 C1164 0.930 . S
H1169 C1166 0.929 . S
S1170 N1171 1.613 . S
S1170 N1172 1.610 . S
N1171 S1170 1.613 . S
N1171 C1174 1.350 . S
N1172 S1170 1.610 . S
N1172 C1173 1.351 . S
C1173 C1167 1.428 . S
C1173 N1172 1.351 . S
C1173 C1174 1.434 . S
C1174 C1165 1.429 . S
C1174 N1171 1.350 . S
C1174 C1173 1.434 . S
C1175 C1176 1.369 . S
C1175 C1177 1.419 . S
C1175 H1179 0.930 . S
C1176 C1175 1.369 . S
C1176 C1185 1.429 . S
C1177 C1175 1.419 . S
C1177 C1178 1.363 . S
C1177 H1180 0.929 . S
C1178 C1177 1.363 . S
C1178 C1184 1.428 . S
H1179 C1175 0.930 . S
H1180 C1177 0.929 . S
S1181 N1182 1.613 . S
S1181 N1183 1.610 . S
N1182 S1181 1.613 . S
N1182 C1185 1.350 . S
N1183 S1181 1.610 . S
N1183 C1184 1.351 . S
C1184 C1178 1.428 . S
C1184 N1183 1.351 . S
C1184 C1185 1.434 . S
C1185 C1176 1.429 . S
C1185 N1182 1.350 . S
C1185 C1184 1.434 . S
C1186 C1187 1.369 . S
C1186 C1188 1.419 . S
C1186 H1190 0.930 . S
C1187 C1186 1.369 . S
C1187 C1196 1.429 . S
C1188 C1186 1.419 . S
C1188 C1189 1.363 . S
C1188 H1191 0.929 . S
C1189 C1188 1.363 . S
C1189 C1195 1.428 . S
H1190 C1186 0.930 . S
H1191 C1188 0.929 . S
S1192 N1193 1.613 . S
S1192 N1194 1.610 . S
N1193 S1192 1.613 . S
N1193 C1196 1.350 . S
N1194 S1192 1.610 . S
N1194 C1195 1.351 . S
C1195 C1189 1.428 . S
C1195 N1194 1.351 . S
C1195 C1196 1.434 . S
C1196 C1187 1.429 . S
C1196 N1193 1.350 . S
C1196 C1195 1.434 . S
C1197 C1198 1.369 . S
C1197 C1199 1.419 . S
C1197 H1201 0.930 . S
C1198 C1197 1.369 . S
C1198 C1207 1.429 . S
C1199 C1197 1.419 . S
C1199 C1200 1.363 . S
C1199 H1202 0.929 . S
C1200 C1199 1.363 . S
C1200 C1206 1.428 . S
H1201 C1197 0.930 . S
H1202 C1199 0.929 . S
S1203 N1204 1.613 . S
S1203 N1205 1.610 . S
N1204 S1203 1.613 . S
N1204 C1207 1.350 . S
N1205 S1203 1.610 . S
N1205 C1206 1.351 . S
C1206 C1200 1.428 . S
C1206 N1205 1.351 . S
C1206 C1207 1.434 . S
C1207 C1198 1.429 . S
C1207 N1204 1.350 . S
C1207 C1206 1.434 . S
C1208 C1209 1.369 . S
C1208 C1210 1.419 . S
C1208 H1212 0.930 . S
C1209 C1208 1.369 . S
C1209 C1218 1.429 . S
C1210 C1208 1.419 . S
C1210 C1211 1.363 . S
C1210 H1213 0.929 . S
C1211 C1210 1.363 . S
C1211 C1217 1.428 . S
H1212 C1208 0.930 . S
H1213 C1210 0.929 . S
S1214 N1215 1.613 . S
S1214 N1216 1.610 . S
N1215 S1214 1.613 . S
N1215 C1218 1.350 . S
N1216 S1214 1.610 . S
N1216 C1217 1.351 . S
C1217 C1211 1.428 . S
C1217 N1216 1.351 . S
C1217 C1218 1.434 . S
C1218 C1209 1.429 . S
C1218 N1215 1.350 . S
C1218 C1217 1.434 . S
C1219 C1220 1.369 . S
C1219 C1221 1.419 . S
C1219 H1223 0.930 . S
C1220 C1219 1.369 . S
C1220 C1229 1.429 . S
C1221 C1219 1.419 . S
C1221 C1222 1.363 . S
C1221 H1224 0.929 . S
C1222 C1221 1.363 . S
C1222 C1228 1.428 . S
H1223 C1219 0.930 . S
H1224 C1221 0.929 . S
S1225 N1226 1.613 . S
S1225 N1227 1.610 . S
N1226 S1225 1.613 . S
N1226 C1229 1.350 . S
N1227 S1225 1.610 . S
N1227 C1228 1.351 . S
C1228 C1222 1.428 . S
C1228 N1227 1.351 . S
C1228 C1229 1.434 . S
C1229 C1220 1.429 . S
C1229 N1226 1.350 . S
C1229 C1228 1.434 . S
C1230 C1231 1.369 . S
C1230 C1232 1.428 . S
C1230 H1234 0.930 . S
C1231 C1230 1.369 . S
C1231 C1240 1.429 1_455 S
C1232 C1230 1.428 . S
C1232 C1233 1.358 1_455 S
C1232 H1235 0.925 . S
C1233 C1232 1.358 1_655 S
C1233 C1239 1.428 . S
H1234 C1230 0.930 . S
H1235 C1232 0.925 . S
S1236 N1237 1.613 . S
S1236 N1238 1.610 . S
N1237 S1236 1.613 . S
N1237 C1240 1.350 . S
N1238 S1236 1.610 . S
N1238 C1239 1.351 . S
C1239 C1233 1.428 . S
C1239 N1238 1.351 . S
C1239 C1240 1.434 . S
C1240 C1231 1.429 1_655 S
C1240 N1237 1.350 . S
C1240 C1239 1.434 . S
C1241 C1242 1.369 . S
C1241 C1243 1.419 . S
C1241 H1245 0.930 . S
C1242 C1241 1.369 . S
C1242 C1251 1.429 . S
C1243 C1241 1.419 . S
C1243 C1244 1.363 . S
C1243 H1246 0.929 . S
C1244 C1243 1.363 . S
C1244 C1250 1.428 . S
H1245 C1241 0.930 . S
H1246 C1243 0.929 . S
S1247 N1248 1.613 . S
S1247 N1249 1.610 . S
N1248 S1247 1.613 . S
N1248 C1251 1.350 . S
N1249 S1247 1.610 . S
N1249 C1250 1.351 . S
C1250 C1244 1.428 . S
C1250 N1249 1.351 . S
C1250 C1251 1.434 . S
C1251 C1242 1.429 . S
C1251 N1248 1.350 . S
C1251 C1250 1.434 . S
C1252 C1253 1.369 1_565 S
C1252 C1254 1.419 . S
C1252 H1256 0.930 . S
C1253 C1252 1.369 1_545 S
C1253 C1262 1.429 . S
C1254 C1252 1.419 . S
C1254 C1255 1.363 . S
C1254 H1257 0.929 . S
C1255 C1254 1.363 . S
C1255 C1261 1.428 1_565 S
H1256 C1252 0.930 . S
H1257 C1254 0.929 . S
S1258 N1259 1.613 . S
S1258 N1260 1.610 . S
N1259 S1258 1.613 . S
N1259 C1262 1.350 . S
N1260 S1258 1.610 . S
N1260 C1261 1.351 . S
C1261 C1255 1.428 1_545 S
C1261 N1260 1.351 . S
C1261 C1262 1.434 . S
C1262 C1253 1.429 . S
C1262 N1259 1.350 . S
C1262 C1261 1.434 . S
C1263 C1264 1.369 1_545 S
C1263 C1265 1.419 . S
C1263 H1267 0.930 . S
C1264 C1263 1.369 1_565 S
C1264 C1273 1.429 . S
C1265 C1263 1.419 . S
C1265 C1266 1.363 . S
C1265 H1268 0.929 . S
C1266 C1265 1.363 . S
C1266 C1272 1.428 1_545 S
H1267 C1263 0.930 . S
H1268 C1265 0.929 . S
S1269 N1270 1.613 . S
S1269 N1271 1.610 . S
N1270 S1269 1.613 . S
N1270 C1273 1.350 . S
N1271 S1269 1.610 . S
N1271 C1272 1.351 . S
C1272 C1266 1.428 1_565 S
C1272 N1271 1.351 . S
C1272 C1273 1.434 . S
C1273 C1264 1.429 . S
C1273 N1270 1.350 . S
C1273 C1272 1.434 . S
C1274 C1275 1.369 . S
C1274 C1276 1.419 . S
C1274 H1278 0.930 . S
C1275 C1274 1.369 . S
C1275 C1284 1.429 1_655 S
C1276 C1274 1.419 . S
C1276 C1277 1.363 1_655 S
C1276 H1279 0.929 . S
C1277 C1276 1.363 1_455 S
C1277 C1283 1.428 . S
H1278 C1274 0.930 . S
H1279 C1276 0.929 . S
S1280 N1281 1.613 . S
S1280 N1282 1.610 . S
N1281 S1280 1.613 . S
N1281 C1284 1.350 . S
N1282 S1280 1.610 . S
N1282 C1283 1.351 . S
C1283 C1277 1.428 . S
C1283 N1282 1.351 . S
C1283 C1284 1.434 . S
C1284 C1275 1.429 1_455 S
C1284 N1281 1.350 . S
C1284 C1283 1.434 . S
C1285 C1286 1.369 . S
C1285 C1287 1.419 . S
C1285 H1289 0.930 . S
C1286 C1285 1.369 . S
C1286 C1295 1.429 . S
C1287 C1285 1.419 . S
C1287 C1288 1.363 . S
C1287 H1290 0.929 . S
C1288 C1287 1.363 . S
C1288 C1294 1.428 . S
H1289 C1285 0.930 . S
H1290 C1287 0.929 . S
S1291 N1292 1.613 . S
S1291 N1293 1.610 . S
N1292 S1291 1.613 . S
N1292 C1295 1.350 . S
N1293 S1291 1.610 . S
N1293 C1294 1.351 . S
C1294 C1288 1.428 . S
C1294 N1293 1.351 . S
C1294 C1295 1.434 . S
C1295 C1286 1.429 . S
C1295 N1292 1.350 . S
C1295 C1294 1.434 . S
C505 C65 1.089 . S
C507 C9 1.090 . S
C516 C79 1.085 . S
C518 C23 1.087 . S
C527 C51 1.087 . S
C529 C37 1.089 . S
C538 C149 1.087 . S
C540 C93 1.090 . S
C549 C107 1.092 . S
C551 C163 1.092 . S
C560 C135 1.085 . S
C562 C121 1.084 . S
C571 C177 1.084 . S
C573 C233 1.086 . S
C582 C247 1.094 1_545 S
C584 C191 1.094 . S
C593 C205 1.086 . S
C595 C219 1.088 1_655 S
C604 C261 1.084 1_545 S
C606 C317 1.086 . S
C615 C331 1.095 . S
C617 C275 1.093 1_655 S
C626 C289 1.095 . S
C628 C303 1.093 . S
C637 C401 1.090 . S
C639 C345 1.091 1_565 S
C648 C359 1.086 1_455 S
C650 C415 1.088 . S
C659 C387 1.096 . S
C661 C373 1.094 . S
C670 C485 1.090 . S
C672 C429 1.088 . S
C681 C443 1.084 . S
C683 C499 1.085 1_565 S
C692 C457 1.096 . S
C694 C471 1.094 1_455 S
C703 C160 1.411 . S
C705 C6 1.410 . S
C714 C20 1.406 . S
C716 C132 1.406 . S
C725 C146 1.410 . S
C727 C34 1.410 . S
C736 C104 1.405 . S
C738 C48 1.406 . S
C747 C62 1.407 . S
C749 C118 1.408 . S
C758 C90 1.409 . S
C760 C76 1.409 . S
C769 C174 1.409 . S
C771 C328 1.410 . S
C780 C300 1.409 . S
C782 C188 1.410 . S
C791 C314 1.409 . S
C793 C202 1.410 . S
C802 C216 1.411 . S
C804 C272 1.411 . S
C813 C230 1.411 . S
C815 C286 1.411 . S
C824 C244 1.406 . S
C826 C258 1.407 . S
C835 C496 1.408 . S
C837 C342 1.408 . S
C846 C356 1.409 . S
C848 C468 1.409 . S
C857 C370 1.410 . S
C859 C482 1.410 . S
C868 C440 1.410 . S
C870 C384 1.410 . S
C879 C454 1.415 . S
C881 C398 1.414 . S
C890 C426 1.409 . S
C892 C412 1.410 . S
C901 C217 1.462 . S
C903 C7 1.459 . S
C912 C231 1.458 . S
C914 C21 1.456 . S
C923 C35 1.462 . S
C925 C245 1.458 . S
C934 C49 1.463 . S
C936 C343 1.458 . S
C945 C63 1.460 . S
C947 C357 1.457 . S
C956 C77 1.459 . S
C958 C371 1.456 . S
C967 C91 1.461 . S
C969 C469 1.457 . S
C978 C105 1.463 . S
C980 C483 1.459 . S
C989 C119 1.460 . S
C991 C497 1.456 . S
C1000 C133 1.458 . S
C1002 C259 1.455 . S
C1011 C273 1.458 . S
C1013 C147 1.456 . S
C1022 C287 1.460 . S
C1024 C161 1.458 . S
C1033 C385 1.480 . S
C1035 C175 1.480 . S
C1044 C189 1.480 . S
C1046 C399 1.481 . S
C1055 C413 1.483 . S
C1057 C203 1.482 . S
C1066 C301 1.479 . S
C1068 C427 1.480 . S
C1077 C441 1.480 . S
C1079 C315 1.480 . S
C1088 C455 1.479 . S
C1090 C329 1.480 . S
C1099 C8 1.661 . S
C1101 C414 1.654 . S
C1110 C22 1.661 . S
C1112 C386 1.653 . S
C1121 C36 1.655 . S
C1123 C400 1.657 . S
C1132 C50 1.657 . S
C1134 C190 1.655 . S
C1143 C204 1.660 . S
C1145 C64 1.659 . S
C1154 C176 1.649 . S
C1156 C78 1.664 . S
C1165 C330 1.662 . S
C1167 C92 1.654 . S
C1176 C302 1.660 . S
C1178 C106 1.654 . S
C1187 C316 1.652 . S
C1189 C120 1.659 . S
C1198 C442 1.655 . S
C1200 C134 1.663 . S
C1209 C456 1.653 . S
C1211 C148 1.664 . S
C1220 C428 1.651 . S
C1222 C162 1.659 . S
C1231 C218 1.629 . S
C1233 C358 1.639 . S
C1242 C372 1.640 . S
C1244 C232 1.633 . S
C1253 C344 1.639 . S
C1255 C246 1.633 . S
C1264 C260 1.640 . S
C1266 C498 1.629 . S
C1275 C470 1.630 . S
C1277 C274 1.639 . S
C1286 C288 1.629 . S
C1288 C484 1.640 . S
