# Generated by pormake.
# Topology wjk, (5)-cn, num edge types: 1
# Building blocks:
#     Node 0, Type 0, BuildingBlock: BEQFEK_clean_sbu_0, # of connection points: 5
#     Node 1, Type 0, BuildingBlock: BEQFEK_clean_sbu_0, # of connection points: 5
#     Node 2, Type 0, BuildingBlock: BEQFEK_clean_sbu_0, # of connection points: 5
#     Node 3, Type 0, BuildingBlock: BEQFEK_clean_sbu_0, # of connection points: 5
#     Node 4, Type 0, BuildingBlock: BEQFEK_clean_sbu_0, # of connection points: 5
#     Node 5, Type 0, BuildingBlock: BEQFEK_clean_sbu_0, # of connection points: 5
#     Node 6, Type 0, BuildingBlock: BEQFEK_clean_sbu_0, # of connection points: 5
#     Node 7, Type 0, BuildingBlock: BEQFEK_clean_sbu_0, # of connection points: 5
#     Node 8, Type 0, BuildingBlock: BEQFEK_clean_sbu_0, # of connection points: 5
#     Node 9, Type 0, BuildingBlock: BEQFEK_clean_sbu_0, # of connection points: 5
#     Node 10, Type 0, BuildingBlock: BEQFEK_clean_sbu_0, # of connection points: 5
#     Node 11, Type 0, BuildingBlock: BEQFEK_clean_sbu_0, # of connection points: 5
#     Edge 12, Type (0, 0), None
#     Edge 13, Type (0, 0), None
#     Edge 14, Type (0, 0), None
#     Edge 15, Type (0, 0), None
#     Edge 16, Type (0, 0), None
#     Edge 17, Type (0, 0), None
#     Edge 18, Type (0, 0), None
#     Edge 19, Type (0, 0), None
#     Edge 20, Type (0, 0), None
#     Edge 21, Type (0, 0), None
#     Edge 22, Type (0, 0), None
#     Edge 23, Type (0, 0), None
#     Edge 24, Type (0, 0), None
#     Edge 25, Type (0, 0), None
#     Edge 26, Type (0, 0), None
#     Edge 27, Type (0, 0), None
#     Edge 28, Type (0, 0), None
#     Edge 29, Type (0, 0), None
#     Edge 30, Type (0, 0), None
#     Edge 31, Type (0, 0), None
#     Edge 32, Type (0, 0), None
#     Edge 33, Type (0, 0), None
#     Edge 34, Type (0, 0), None
#     Edge 35, Type (0, 0), None
#     Edge 36, Type (0, 0), None
#     Edge 37, Type (0, 0), None
#     Edge 38, Type (0, 0), None
#     Edge 39, Type (0, 0), None
#     Edge 40, Type (0, 0), None
#     Edge 41, Type (0, 0), None
# Relax obj value: 0.480
# Max RMSD: 0.237
# Mean RMSD: 0.237
data_MOF--net-wjk--node1-BEQFEK_clean_sbu_0--edge1-none
_symmetry_space_group_name_H-M    P1
_symmetry_Int_Tables_number       1
_symmetry_cell_setting            triclinic
loop_
_symmetry_equiv_pos_as_xyz
'x, y, z'
_cell_length_a     18.52661
_cell_length_b     18.526662
_cell_length_c     34.851943
_cell_angle_alpha  90.000753
_cell_angle_beta   89.999678
_cell_angle_gamma 120.00051
loop_
_atom_site_label
_atom_site_type_symbol
_atom_site_fract_x
_atom_site_fract_y
_atom_site_fract_z
_atom_type_partial_charge
Co0 Co 0.12404 0.21047 0.26969 0.0
Co1 Co 0.27977 0.32095 0.2281 0.0
C2 C 0.2115 0.15081 0.20908 0.0
O3 O 0.1482 0.14114 0.22831 0.0
O4 O 0.27809 0.22103 0.20874 0.0
C5 C 0.08306 0.08299 0.31098 0.0
O6 O 0.16225 0.11503 0.30264 0.0
C7 C 0.45659 0.43153 0.20463 0.0
C8 C 0.46124 0.55188 0.19739 0.0
C9 C 0.51125 0.51587 0.19774 0.0
N10 N 0.37864 0.41902 0.20906 0.0
N11 N 0.38204 0.49133 0.20394 0.0
C12 C 0.47969 0.36519 0.20924 0.0
H13 H 0.42624 0.30581 0.21899 0.0
H14 H 0.53093 0.3851 0.23037 0.0
H15 H 0.50239 0.35523 0.18137 0.0
C16 C 0.2235 0.28674 0.33867 0.0
N17 N 0.21482 0.28637 0.30032 0.0
N18 N 0.2878 0.31986 0.28392 0.0
C19 C 0.34524 0.33537 0.31187 0.0
C20 C 0.30623 0.31418 0.34791 0.0
C21 C 0.15292 0.26142 0.36605 0.0
H22 H 0.11178 0.28489 0.35567 0.0
H23 H 0.11487 0.19297 0.36711 0.0
H24 H 0.17619 0.28622 0.39522 0.0
O25 O 0.06627 0.26117 0.24755 0.0
O26 O 0.16664 0.3072 0.20444 0.0
H27 H 0.46264 0.41682 0.28586 0.0
H28 H 0.46989 0.37441 0.33152 0.0
C29 C 0.43406 0.36066 0.30436 0.0
H30 H 0.4366 0.30936 0.2892 0.0
H31 H 0.33089 0.50014 0.20674 0.0
O32 O 1.04781 0.12461 0.30323 0.0
C33 C 0.09083 0.28562 0.21386 0.0
Co34 Co 0.95202 0.10481 0.60301 0.0
Co35 Co 0.9972 0.26053 0.56143 0.0
C36 C 0.09905 0.19225 0.54236 0.0
O37 O 1.04545 0.12896 0.5616 0.0
O38 O 0.09543 0.25885 0.54204 0.0
C39 C 1.03859 0.06388 0.64428 0.0
O40 O 0.08574 0.14305 0.6359 0.0
C41 C 0.06341 0.43733 0.53797 0.0
C42 C 0.94771 0.44197 0.53073 0.0
C43 C 1.03374 0.49199 0.53107 0.0
N44 N 0.99797 0.35938 0.5424 0.0
N45 N 0.92907 0.36278 0.53729 0.0
C46 C 0.15285 0.46043 0.54257 0.0
H47 H 0.15879 0.40699 0.55233 0.0
H48 H 0.1842 0.51169 0.5637 0.0
H49 H 0.18551 0.48311 0.5147 0.0
C50 C 0.97525 0.20425 0.672 0.0
N51 N 0.96692 0.19558 0.63365 0.0
N52 N 1.00638 0.26857 0.61725 0.0
C53 C 1.0483 0.326 0.64521 0.0
C54 C 1.03051 0.28699 0.68124 0.0
C55 C 0.93001 0.13366 0.69937 0.0
H56 H 0.86542 0.09248 0.68899 0.0
H57 H 0.96046 0.09566 0.70044 0.0
H58 H 0.92845 0.15691 0.72854 0.0
O59 O 0.84351 0.04702 0.58091 0.0
O60 O 0.89779 0.14738 0.53779 0.0
H61 H 0.08418 0.44339 0.61919 0.0
H62 H 0.13384 0.45068 0.66487 0.0
C63 C 0.11178 0.41484 0.6377 0.0
H64 H 0.16565 0.41743 0.62255 0.0
H65 H 0.8691 0.31163 0.54009 0.0
O66 O 0.96172 1.02861 0.63654 0.0
C67 C 0.84357 0.07157 0.54723 0.0
Co68 Co 0.88566 0.93278 0.93634 0.0
Co69 Co 0.77512 0.97796 0.89477 0.0
C70 C 0.94524 0.07982 0.87569 0.0
O71 O 0.95493 1.0262 0.89493 0.0
O72 O 0.87503 0.0762 0.87538 0.0
C73 C 1.01317 1.01936 0.97761 0.0
O74 O 0.98115 0.06651 0.96921 0.0
C75 C 0.66452 0.04418 0.8713 0.0
C76 C 0.54417 0.92848 0.86406 0.0
C77 C 0.58019 1.01451 0.86441 0.0
N78 N 0.67703 0.97874 0.87573 0.0
N79 N 0.60473 0.90983 0.87061 0.0
C80 C 0.73086 0.13362 0.87592 0.0
H81 H 0.79024 0.13955 0.88568 0.0
H82 H 0.71095 0.16496 0.89704 0.0
H83 H 0.74085 0.16628 0.84805 0.0
C84 C 0.80945 0.95601 1.00533 0.0
N85 N 0.8098 0.94769 0.96698 0.0
N86 N 0.77624 0.98713 0.95059 0.0
C87 C 0.76072 1.02904 0.97855 0.0
C88 C 0.78196 1.01126 1.01458 0.0
C89 C 0.83487 0.91082 0.0327 0.0
H90 H 0.81157 0.84626 1.0223 0.0
H91 H 0.90333 0.94137 0.03379 0.0
H92 H 0.81 0.90919 0.06186 0.0
O93 O 0.83492 0.82427 0.91424 0.0
O94 O 0.78885 0.87856 0.87112 0.0
H95 H 0.67921 0.06491 0.95253 0.0
H96 H 0.72156 0.11455 0.99821 0.0
C97 C 0.73535 0.09251 0.97104 0.0
H98 H 0.78664 0.1464 0.95589 0.0
H99 H 0.59592 0.84987 0.87341 0.0
O100 O 0.97156 0.94248 0.96986 0.0
C101 C 0.81044 0.82433 0.88056 0.0
Co102 Co 0.99135 0.86653 0.26973 0.0
Co103 Co 0.83563 0.75597 0.22814 0.0
C104 C 0.90388 0.9261 0.20909 0.0
O105 O 0.96718 0.93581 0.22833 0.0
O106 O 0.83729 0.85588 0.20876 0.0
C107 C 1.03224 0.994 0.311 0.0
O108 O 0.95307 0.96201 0.30263 0.0
C109 C 0.65882 0.64535 0.20469 0.0
C110 C 0.65421 0.52503 0.1974 0.0
C111 C 0.60417 0.56102 0.19781 0.0
N112 N 0.73678 0.65788 0.2091 0.0
N113 N 0.7334 0.58559 0.20396 0.0
C114 C 0.63571 0.71169 0.20929 0.0
H115 H 0.68915 0.77107 0.21906 0.0
H116 H 0.58444 0.69177 0.23041 0.0
H117 H 0.61305 0.72168 0.18142 0.0
C118 C 0.89189 0.79028 0.33871 0.0
N119 N 0.90058 0.79064 0.30036 0.0
N120 N 0.82758 0.75707 0.28396 0.0
C121 C 0.77014 0.74152 0.31192 0.0
C122 C 0.80915 0.76276 0.34796 0.0
C123 C 0.9625 0.81573 0.36609 0.0
H124 H 1.00381 0.79249 0.35568 0.0
H125 H 1.00035 0.88419 0.36719 0.0
H126 H 0.93926 0.79082 0.39525 0.0
O127 O 1.04915 0.81584 0.24761 0.0
O128 O 0.94877 0.76971 0.2045 0.0
H129 H 0.65276 0.65999 0.2859 0.0
H130 H 0.64545 0.70233 0.33158 0.0
C131 C 0.6813 0.71614 0.30441 0.0
H132 H 0.67868 0.76741 0.28927 0.0
H133 H 0.78457 0.5768 0.20673 0.0
O134 O 0.06754 0.95242 0.30327 0.0
C135 C 1.02459 0.79132 0.21393 0.0
Co136 Co 0.16327 0.97212 0.60307 0.0
Co137 Co 0.11804 0.81638 0.56148 0.0
C138 C 1.01614 0.88463 0.54247 0.0
O139 O 0.06976 0.94793 0.5617 0.0
O140 O 1.01978 0.81805 0.54213 0.0
C141 C 0.07677 1.01306 0.64437 0.0
O142 O 1.02958 0.93387 0.63604 0.0
C143 C 1.05182 0.63956 0.53802 0.0
C144 C 0.16753 0.63495 0.53073 0.0
C145 C 0.08151 0.58491 0.53114 0.0
N146 N 0.11725 0.71752 0.54243 0.0
N147 N 0.18616 0.71414 0.53729 0.0
C148 C 0.96237 0.61645 0.54262 0.0
H149 H 0.95643 0.66989 0.55238 0.0
H150 H 0.93103 0.5652 0.56375 0.0
H151 H 0.92972 0.59377 0.51475 0.0
C152 C 0.1401 0.87265 0.67205 0.0
N153 N 0.14841 0.88134 0.6337 0.0
N154 N 0.10895 0.80835 0.6173 0.0
C155 C 0.06704 0.75091 0.64525 0.0
C156 C 0.08484 0.78991 0.68129 0.0
C157 C 0.18528 0.94325 0.69943 0.0
H158 H 0.24984 0.98452 0.68903 0.0
H159 H 0.15472 0.98114 0.70053 0.0
H160 H 0.18692 0.91999 0.72859 0.0
O161 O 0.27173 1.0299 0.58092 0.0
O162 O 0.21741 0.92951 0.53781 0.0
H163 H 1.03114 0.63352 0.61923 0.0
H164 H 0.98148 0.62624 0.6649 0.0
C165 C 1.00355 0.66208 0.63774 0.0
H166 H 0.94968 0.65951 0.62259 0.0
H167 H 0.24613 0.76531 0.54005 0.0
O168 O 0.15364 0.04834 0.63662 0.0
C169 C 0.27163 1.00533 0.54723 0.0
Co170 Co 0.2296 0.14403 0.93641 0.0
Co171 Co 0.3401 0.09881 0.89481 0.0
C172 C 0.16995 0.9969 0.8758 0.0
O173 O 0.16027 0.05051 0.89504 0.0
O174 O 0.24018 1.00055 0.87545 0.0
C175 C 0.10216 0.05754 0.97771 0.0
O176 O 0.13417 1.01035 0.96939 0.0
C177 C 0.4507 1.03259 0.87135 0.0
C178 C 0.57103 0.1483 0.86407 0.0
C179 C 0.53504 0.06228 0.86447 0.0
N180 N 0.43818 0.09802 0.87576 0.0
N181 N 0.51047 0.16693 0.87063 0.0
C182 C 0.38436 0.94314 0.87595 0.0
H183 H 0.32497 0.93719 0.8857 0.0
H184 H 0.40426 0.91179 0.89707 0.0
H185 H 0.3744 0.9105 0.84807 0.0
C186 C 0.30591 0.12087 1.00538 0.0
N187 N 0.30553 0.12918 0.96704 0.0
N188 N 0.33904 0.0897 0.95063 0.0
C189 C 0.35457 0.04779 0.97858 0.0
C190 C 0.33338 0.0656 1.01462 0.0
C191 C 0.28056 0.16609 0.03277 0.0
H192 H 0.30395 0.23068 1.02239 0.0
H193 H 0.21211 0.13563 0.03385 0.0
H194 H 0.3054 0.16766 0.06193 0.0
O195 O 0.28026 0.25249 0.91425 0.0
O196 O 0.32634 0.19818 0.87115 0.0
H197 H 0.43604 1.01187 0.95256 0.0
H198 H 0.39365 0.9622 0.99823 0.0
C199 C 0.37988 0.98428 0.97106 0.0
H200 H 0.32859 0.93043 0.95591 0.0
H201 H 0.51926 0.2269 0.87339 0.0
O202 O 0.14376 0.13441 0.96996 0.0
C203 C 0.30474 0.2524 0.88057 0.0
Co204 Co 0.88566 0.97204 0.46144 0.0
Co205 Co 0.7751 0.81635 0.50307 0.0
C206 C 0.94526 0.88464 0.52211 0.0
O207 O 0.95496 0.94791 0.50284 0.0
O208 O 0.87502 0.81806 0.52247 0.0
C209 C 1.01317 1.013 0.42015 0.0
O210 O 0.9812 0.93383 0.42854 0.0
C211 C 0.66453 0.63956 0.52658 0.0
C212 C 0.54416 0.6349 0.53377 0.0
C213 C 0.58019 0.5849 0.53346 0.0
N214 N 0.67703 0.7175 0.52212 0.0
N215 N 0.60471 0.71409 0.5272 0.0
C216 C 0.73089 0.61647 0.52203 0.0
H217 H 0.7903 0.66991 0.5123 0.0
H218 H 0.71105 0.56524 0.50089 0.0
H219 H 0.74077 0.59375 0.54991 0.0
C220 C 0.80956 0.87249 0.39248 0.0
N221 N 0.80977 0.88122 0.43082 0.0
N222 N 0.77625 0.80825 0.44725 0.0
C223 C 0.76086 0.75077 0.41934 0.0
C224 C 0.78233 0.78978 0.38331 0.0
C225 C 0.83489 0.943 0.36506 0.0
H226 H 0.81148 0.9842 0.37541 0.0
H227 H 0.90334 0.981 0.36398 0.0
H228 H 0.81005 0.91965 0.3359 0.0
O229 O 0.83496 1.02985 0.48354 0.0
O230 O 0.7888 0.92949 0.52668 0.0
H231 H 0.67934 0.63342 0.44538 0.0
H232 H 0.72181 0.62607 0.39975 0.0
C233 C 0.73552 0.66196 0.4269 0.0
H234 H 0.7868 0.65943 0.44209 0.0
H235 H 0.5959 0.76524 0.52437 0.0
O236 O 0.97153 0.04822 0.4279 0.0
C237 C 0.8104 1.00528 0.51721 0.0
Co238 Co 0.95206 0.86642 0.79477 0.0
Co239 Co 0.9972 0.75587 0.8364 0.0
C240 C 0.09906 0.92602 0.85544 0.0
O241 O 1.04551 0.93573 0.83617 0.0
O242 O 0.09539 0.85578 0.8558 0.0
C243 C 1.03862 0.99392 0.75347 0.0
O244 O 0.08581 0.96195 0.76186 0.0
C245 C 0.06341 0.64529 0.85992 0.0
C246 C 0.9477 0.52493 0.86709 0.0
C247 C 1.03373 0.56095 0.86679 0.0
N248 N 0.99797 0.65779 0.85545 0.0
N249 N 0.92906 0.58548 0.86053 0.0
C250 C 0.15286 0.71165 0.85537 0.0
H251 H 0.15883 0.77107 0.84565 0.0
H252 H 0.18426 0.69182 0.83424 0.0
H253 H 0.18545 0.72153 0.88325 0.0
C254 C 0.97551 0.79031 0.72581 0.0
N255 N 0.96699 0.79053 0.76415 0.0
N256 N 1.00645 0.75702 0.78058 0.0
C257 C 1.04856 0.74164 0.75267 0.0
C258 C 1.03101 0.7631 0.71665 0.0
C259 C 0.93029 0.81558 0.69839 0.0
H260 H 0.86564 0.79206 0.70872 0.0
H261 H 0.96064 0.88402 0.69732 0.0
H262 H 0.92887 0.7908 0.66923 0.0
O263 O 0.84355 0.81573 0.81687 0.0
O264 O 0.89776 0.76957 0.86001 0.0
H265 H 0.08439 0.66013 0.77872 0.0
H266 H 0.13423 0.70262 0.73309 0.0
C267 C 0.11204 0.71632 0.76024 0.0
H268 H 0.16584 0.7676 0.77544 0.0
H269 H 0.8691 0.57666 0.8577 0.0
O270 O 0.96175 0.95228 0.76122 0.0
C271 C 0.84356 0.79117 0.85054 0.0
Co272 Co 0.12409 0.93283 0.12809 0.0
Co273 Co 0.27979 0.97803 0.16973 0.0
C274 C 0.2115 0.07991 0.18873 0.0
O275 O 0.14824 1.02633 0.16946 0.0
O276 O 0.27807 0.07624 0.18911 0.0
C277 C 0.08308 1.0193 0.08678 0.0
O278 O 0.16227 0.0665 0.09512 0.0
C279 C 0.45659 0.04426 0.19326 0.0
C280 C 0.46124 0.92856 0.20043 0.0
C281 C 0.51125 1.01459 0.20013 0.0
N282 N 0.37865 0.97883 0.18879 0.0
N283 N 0.38206 0.90992 0.19387 0.0
C284 C 0.47968 0.13372 0.18871 0.0
H285 H 0.42623 0.13969 0.179 0.0
H286 H 0.5309 0.16511 0.16756 0.0
H287 H 0.50242 0.16632 0.21659 0.0
C288 C 0.22366 0.95625 0.05914 0.0
N289 N 0.21491 0.94773 0.09748 0.0
N290 N 0.28787 0.98723 0.11392 0.0
C291 C 0.34536 1.02934 0.08601 0.0
C292 C 0.30637 1.01177 0.04998 0.0
C293 C 0.15318 0.91099 1.03171 0.0
H294 H 0.11209 0.84633 0.04204 0.0
H295 H 0.11504 0.94129 1.03065 0.0
H296 H 0.17656 0.90961 1.00255 0.0
O297 O 0.06629 0.82435 0.15024 0.0
O298 O 0.16667 0.87863 0.19336 0.0
H299 H 0.46272 0.06524 0.11206 0.0
H300 H 0.47004 0.11509 0.06643 0.0
C301 C 0.43415 0.09287 0.09358 0.0
H302 H 0.43663 0.14664 0.10878 0.0
H303 H 0.33091 0.84995 0.19104 0.0
O304 O 1.04787 0.94244 0.09454 0.0
C305 C 0.09087 0.82442 0.18391 0.0
Co306 Co 0.22961 0.10484 0.46136 0.0
Co307 Co 0.34012 0.26053 0.50302 0.0
C308 C 0.16994 0.19226 0.522 0.0
O309 O 0.16024 0.129 0.50272 0.0
O310 O 0.24019 0.25881 0.52239 0.0
C311 C 0.10216 0.06386 0.42004 0.0
O312 O 0.13413 0.14306 0.42837 0.0
C313 C 0.4507 0.43732 0.52653 0.0
C314 C 0.57105 0.44195 0.53376 0.0
C315 C 0.53505 0.49198 0.5334 0.0
N316 N 0.43818 0.35938 0.52208 0.0
N317 N 0.51049 0.36277 0.52719 0.0
C318 C 0.38434 0.46042 0.522 0.0
H319 H 0.32492 0.40698 0.51228 0.0
H320 H 0.40417 0.51166 0.50086 0.0
H321 H 0.37448 0.48314 0.54988 0.0
C322 C 0.30581 0.20442 0.39242 0.0
N323 N 0.30556 0.19566 0.43076 0.0
N324 N 0.33903 0.26862 0.44721 0.0
C325 C 0.35444 0.32612 0.4193 0.0
C326 C 0.33302 0.28714 0.38327 0.0
C327 C 0.28055 0.13394 0.36499 0.0
H328 H 0.30406 0.09281 0.37532 0.0
H329 H 0.21211 0.09586 0.36391 0.0
H330 H 0.30536 0.15733 0.33583 0.0
O331 O 0.28023 0.047 0.48353 0.0
O332 O 0.32639 0.1474 0.52666 0.0
H333 H 0.43591 0.44347 0.44535 0.0
H334 H 0.3934 0.45081 0.39973 0.0
C335 C 0.37971 0.41491 0.42687 0.0
H336 H 0.32842 0.4174 0.44207 0.0
H337 H 0.51929 0.31161 0.52439 0.0
O338 O 0.1438 1.02863 0.4278 0.0
C339 C 0.30478 0.0716 0.51721 0.0
Co340 Co 0.16321 0.21037 0.7947 0.0
Co341 Co 0.11804 0.32089 0.83636 0.0
C342 C 1.01612 0.1507 0.85534 0.0
O343 O 0.06969 0.14101 0.83607 0.0
O344 O 1.01981 0.22095 0.85572 0.0
C345 C 0.07674 0.08292 0.75339 0.0
O346 O 1.02951 0.11488 0.76172 0.0
C347 C 1.05182 0.43146 0.85986 0.0
C348 C 0.16754 0.55181 0.8671 0.0
C349 C 0.08151 0.51581 0.86673 0.0
N350 N 0.11725 0.41895 0.85542 0.0
N351 N 0.18616 0.49125 0.86053 0.0
C352 C 0.96236 0.36511 0.85532 0.0
H353 H 0.95638 0.30569 0.8456 0.0
H354 H 0.93096 0.38494 0.83418 0.0
H355 H 0.92977 0.35524 0.8832 0.0
C356 C 0.13983 0.28656 0.72576 0.0
N357 N 0.14834 0.28631 0.7641 0.0
N358 N 0.10887 0.3198 0.78054 0.0
C359 C 0.06678 0.33522 0.75263 0.0
C360 C 0.08434 0.31379 0.7166 0.0
C361 C 0.185 0.26123 0.69833 0.0
H362 H 0.24961 0.28462 0.70868 0.0
H363 H 0.15453 0.19278 0.69723 0.0
H364 H 0.1865 0.28609 0.66918 0.0
O365 O 0.27168 0.261 0.81687 0.0
O366 O 0.21743 0.30716 0.85999 0.0
H367 H 1.03092 0.4167 0.77868 0.0
H368 H 0.98109 0.37422 0.73305 0.0
C369 C 1.00328 0.36051 0.7602 0.0
H370 H 0.94949 0.30922 0.77539 0.0
H371 H 0.24612 0.50005 0.85773 0.0
O372 O 0.15361 0.12455 0.76114 0.0
C373 C 0.27163 0.28555 0.85054 0.0
Co374 Co 0.99129 0.14398 0.12805 0.0
Co375 Co 0.83561 0.09887 0.16969 0.0
C376 C 0.90388 0.99697 0.18872 0.0
O377 O 0.96714 0.05052 0.16944 0.0
O378 O 0.83732 1.00066 0.18908 0.0
C379 C 1.03221 0.05742 0.08675 0.0
O380 O 0.95304 1.0102 0.09512 0.0
C381 C 0.65882 1.03267 0.19319 0.0
C382 C 0.6542 0.14839 0.20042 0.0
C383 C 0.60417 0.06237 0.20006 0.0
N384 N 0.73677 0.0981 0.18874 0.0
N385 N 0.73338 0.16702 0.19385 0.0
C386 C 0.63572 0.94321 0.18865 0.0
H387 H 0.68916 0.93724 0.17893 0.0
H388 H 0.58447 0.91181 0.16752 0.0
H389 H 0.61302 0.91064 0.21654 0.0
C390 C 0.89173 0.12056 0.05909 0.0
N391 N 0.90048 0.12907 0.09744 0.0
N392 N 0.82751 0.08964 0.11387 0.0
C393 C 0.77001 0.04756 0.08596 0.0
C394 C 0.80901 0.0651 0.04993 0.0
C395 C 0.96224 0.1657 1.03167 0.0
H396 H 1.0035 0.2303 0.04202 0.0
H397 H 1.00017 0.13519 1.03057 0.0
H398 H 0.93889 0.16723 1.00252 0.0
O399 O 1.04913 0.25248 0.15017 0.0
O400 O 0.94875 0.1983 0.1933 0.0
H401 H 0.65268 1.01177 0.11201 0.0
H402 H 0.6453 0.96194 0.06638 0.0
C403 C 0.6812 0.9841 0.09353 0.0
H404 H 0.67865 0.93029 0.10871 0.0
H405 H 0.78455 0.22698 0.19105 0.0
O406 O 0.06747 0.1343 0.09449 0.0
C407 C 1.02455 0.25248 0.18384 0.0
loop_
_geom_bond_atom_site_label_1
_geom_bond_atom_site_label_2
_geom_bond_distance
_geom_bond_site_symmetry_2
_ccdc_geom_bond_type
Co0 O3 1.970 . S
Co0 N17 1.989 . S
Co0 O25 1.967 . S
Co0 O32 1.920 1_455 S
Co1 O4 1.966 . S
Co1 N10 2.022 . S
Co1 N18 1.993 . S
Co1 O26 1.941 . S
C2 O3 1.258 . S
C2 O4 1.263 . S
O3 Co0 1.970 . S
O3 C2 1.258 . S
O4 Co1 1.966 . S
O4 C2 1.263 . S
C5 O6 1.235 1_655 S
C5 O32 1.289 1_565 S
O6 C5 1.235 1_455 S
C7 C9 1.400 . S
C7 N10 1.351 . S
C7 C12 1.501 . S
C8 C9 1.387 . S
C8 N11 1.341 . S
C9 C7 1.400 . S
C9 C8 1.387 . S
N10 Co1 2.022 . S
N10 C7 1.351 . S
N10 N11 1.365 . S
N11 C8 1.341 . S
N11 N10 1.365 . S
N11 H31 0.862 . S
C12 C7 1.501 . S
C12 H13 0.961 . S
C12 H14 0.961 . S
C12 H15 0.960 . S
H13 C12 0.961 . S
H14 C12 0.961 . S
H15 C12 0.960 . S
C16 N17 1.342 . S
C16 C20 1.401 . S
C16 C21 1.499 . S
N17 Co0 1.989 . S
N17 C16 1.342 . S
N17 N18 1.388 . S
N18 Co1 1.993 . S
N18 N17 1.388 . S
N18 C19 1.346 . S
C19 N18 1.346 . S
C19 C20 1.396 . S
C19 C29 1.510 . S
C20 C16 1.401 . S
C20 C19 1.396 . S
C21 C16 1.499 . S
C21 H22 0.959 . S
C21 H23 0.960 . S
C21 H24 0.961 . S
H22 C21 0.959 . S
H23 C21 0.960 . S
H24 C21 0.961 . S
O25 Co0 1.967 . S
O25 C33 1.258 . S
O26 Co1 1.941 . S
O26 C33 1.266 . S
H27 C29 0.959 . S
H28 C29 0.961 . S
C29 C19 1.510 . S
C29 H27 0.959 . S
C29 H28 0.961 . S
C29 H30 0.960 . S
H30 C29 0.960 . S
H31 N11 0.862 . S
O32 Co0 1.920 1_655 S
O32 C5 1.289 1_545 S
C33 O25 1.258 . S
C33 O26 1.266 . S
Co34 O37 1.970 1_655 S
Co34 N51 1.989 . S
Co34 O59 1.967 . S
Co34 O66 1.920 1_545 S
Co35 O38 1.966 1_655 S
Co35 N44 2.022 . S
Co35 N52 1.993 . S
Co35 O60 1.941 . S
C36 O37 1.258 . S
C36 O38 1.263 . S
O37 Co34 1.970 1_455 S
O37 C36 1.258 . S
O38 Co35 1.966 1_455 S
O38 C36 1.263 . S
C39 O40 1.235 1_565 S
C39 O66 1.289 1_455 S
O40 C39 1.235 1_545 S
C41 C43 1.400 . S
C41 N44 1.351 . S
C41 C46 1.501 1_655 S
C42 C43 1.387 . S
C42 N45 1.341 . S
C43 C41 1.400 . S
C43 C42 1.387 . S
N44 Co35 2.022 . S
N44 C41 1.351 . S
N44 N45 1.365 . S
N45 C42 1.341 . S
N45 N44 1.365 . S
N45 H65 0.862 . S
C46 C41 1.501 1_455 S
C46 H47 0.961 . S
C46 H48 0.961 . S
C46 H49 0.960 . S
H47 C46 0.961 . S
H48 C46 0.961 . S
H49 C46 0.960 . S
C50 N51 1.342 . S
C50 C54 1.401 . S
C50 C55 1.499 . S
N51 Co34 1.989 . S
N51 C50 1.342 . S
N51 N52 1.388 . S
N52 Co35 1.993 . S
N52 N51 1.388 . S
N52 C53 1.346 . S
C53 N52 1.346 . S
C53 C54 1.396 . S
C53 C63 1.510 . S
C54 C50 1.401 . S
C54 C53 1.396 . S
C55 C50 1.499 . S
C55 H56 0.959 . S
C55 H57 0.960 . S
C55 H58 0.961 . S
H56 C55 0.959 . S
H57 C55 0.960 . S
H58 C55 0.961 . S
O59 Co34 1.967 . S
O59 C67 1.258 . S
O60 Co35 1.941 . S
O60 C67 1.266 . S
H61 C63 0.959 . S
H62 C63 0.961 . S
C63 C53 1.510 . S
C63 H61 0.959 . S
C63 H62 0.961 . S
C63 H64 0.960 . S
H64 C63 0.960 . S
H65 N45 0.862 . S
O66 Co34 1.920 1_565 S
O66 C39 1.289 1_655 S
C67 O59 1.258 . S
C67 O60 1.266 . S
Co68 O71 1.970 1_565 S
Co68 N85 1.989 . S
Co68 O93 1.967 . S
Co68 O100 1.920 . S
Co69 O72 1.966 1_565 S
Co69 N78 2.022 . S
Co69 N86 1.993 . S
Co69 O94 1.941 . S
C70 O71 1.258 . S
C70 O72 1.263 . S
O71 Co68 1.970 1_545 S
O71 C70 1.258 . S
O72 Co69 1.966 1_545 S
O72 C70 1.263 . S
C73 O74 1.235 . S
C73 O100 1.289 1_445 S
O74 C73 1.235 . S
C75 C77 1.400 . S
C75 N78 1.351 . S
C75 C80 1.501 1_565 S
C76 C77 1.387 . S
C76 N79 1.341 . S
C77 C75 1.400 . S
C77 C76 1.387 . S
N78 Co69 2.022 . S
N78 C75 1.351 . S
N78 N79 1.365 . S
N79 C76 1.341 . S
N79 N78 1.365 . S
N79 H99 0.862 . S
C80 C75 1.501 1_545 S
C80 H81 0.961 . S
C80 H82 0.961 . S
C80 H83 0.960 . S
H81 C80 0.961 . S
H82 C80 0.961 . S
H83 C80 0.960 . S
C84 N85 1.342 . S
C84 C88 1.401 . S
C84 C89 1.499 . S
N85 Co68 1.989 . S
N85 C84 1.342 . S
N85 N86 1.388 . S
N86 Co69 1.993 . S
N86 N85 1.388 . S
N86 C87 1.346 . S
C87 N86 1.346 . S
C87 C88 1.396 . S
C87 C97 1.510 . S
C88 C84 1.401 . S
C88 C87 1.396 . S
C89 C84 1.499 . S
C89 H90 0.959 . S
C89 H91 0.960 . S
C89 H92 0.961 . S
H90 C89 0.959 . S
H91 C89 0.960 . S
H92 C89 0.961 . S
O93 Co68 1.967 . S
O93 C101 1.258 . S
O94 Co69 1.941 . S
O94 C101 1.266 . S
H95 C97 0.959 . S
H96 C97 0.961 . S
C97 C87 1.510 . S
C97 H95 0.959 . S
C97 H96 0.961 . S
C97 H98 0.960 . S
H98 C97 0.960 . S
H99 N79 0.862 . S
O100 Co68 1.920 . S
O100 C73 1.289 1_665 S
C101 O93 1.258 . S
C101 O94 1.266 . S
Co102 O105 1.970 . S
Co102 N119 1.989 . S
Co102 O127 1.967 . S
Co102 O134 1.920 1_655 S
Co103 O106 1.966 . S
Co103 N112 2.022 . S
Co103 N120 1.993 . S
Co103 O128 1.941 . S
C104 O105 1.258 . S
C104 O106 1.263 . S
O105 Co102 1.970 . S
O105 C104 1.258 . S
O106 Co103 1.966 . S
O106 C104 1.263 . S
C107 O108 1.235 1_455 S
C107 O134 1.289 1_545 S
O108 C107 1.235 1_655 S
C109 C111 1.400 . S
C109 N112 1.351 . S
C109 C114 1.501 . S
C110 C111 1.387 . S
C110 N113 1.341 . S
C111 C109 1.400 . S
C111 C110 1.387 . S
N112 Co103 2.022 . S
N112 C109 1.351 . S
N112 N113 1.365 . S
N113 C110 1.341 . S
N113 N112 1.365 . S
N113 H133 0.862 . S
C114 C109 1.501 . S
C114 H115 0.961 . S
C114 H116 0.961 . S
C114 H117 0.960 . S
H115 C114 0.961 . S
H116 C114 0.961 . S
H117 C114 0.960 . S
C118 N119 1.342 . S
C118 C122 1.401 . S
C118 C123 1.499 . S
N119 Co102 1.989 . S
N119 C118 1.342 . S
N119 N120 1.388 . S
N120 Co103 1.993 . S
N120 N119 1.388 . S
N120 C121 1.346 . S
C121 N120 1.346 . S
C121 C122 1.396 . S
C121 C131 1.510 . S
C122 C118 1.401 . S
C122 C121 1.396 . S
C123 C118 1.499 . S
C123 H124 0.959 . S
C123 H125 0.960 . S
C123 H126 0.961 . S
H124 C123 0.959 . S
H125 C123 0.960 . S
H126 C123 0.961 . S
O127 Co102 1.967 . S
O127 C135 1.258 . S
O128 Co103 1.941 . S
O128 C135 1.266 . S
H129 C131 0.959 . S
H130 C131 0.961 . S
C131 C121 1.510 . S
C131 H129 0.959 . S
C131 H130 0.961 . S
C131 H132 0.960 . S
H132 C131 0.960 . S
H133 N113 0.862 . S
O134 Co102 1.920 1_455 S
O134 C107 1.289 1_565 S
C135 O127 1.258 . S
C135 O128 1.266 . S
Co136 O139 1.970 1_455 S
Co136 N153 1.989 . S
Co136 O161 1.967 . S
Co136 O168 1.920 1_565 S
Co137 O140 1.966 1_455 S
Co137 N146 2.022 . S
Co137 N154 1.993 . S
Co137 O162 1.941 . S
C138 O139 1.258 . S
C138 O140 1.263 . S
O139 Co136 1.970 1_655 S
O139 C138 1.258 . S
O140 Co137 1.966 1_655 S
O140 C138 1.263 . S
C141 O142 1.235 1_545 S
C141 O168 1.289 1_655 S
O142 C141 1.235 1_565 S
C143 C145 1.400 . S
C143 N146 1.351 . S
C143 C148 1.501 1_455 S
C144 C145 1.387 . S
C144 N147 1.341 . S
C145 C143 1.400 . S
C145 C144 1.387 . S
N146 Co137 2.022 . S
N146 C143 1.351 . S
N146 N147 1.365 . S
N147 C144 1.341 . S
N147 N146 1.365 . S
N147 H167 0.862 . S
C148 C143 1.501 1_655 S
C148 H149 0.961 . S
C148 H150 0.961 . S
C148 H151 0.960 . S
H149 C148 0.961 . S
H150 C148 0.961 . S
H151 C148 0.960 . S
C152 N153 1.342 . S
C152 C156 1.401 . S
C152 C157 1.499 . S
N153 Co136 1.989 . S
N153 C152 1.342 . S
N153 N154 1.388 . S
N154 Co137 1.993 . S
N154 N153 1.388 . S
N154 C155 1.346 . S
C155 N154 1.346 . S
C155 C156 1.396 . S
C155 C165 1.510 . S
C156 C152 1.401 . S
C156 C155 1.396 . S
C157 C152 1.499 . S
C157 H158 0.959 . S
C157 H159 0.960 . S
C157 H160 0.961 . S
H158 C157 0.959 . S
H159 C157 0.960 . S
H160 C157 0.961 . S
O161 Co136 1.967 . S
O161 C169 1.258 . S
O162 Co137 1.941 . S
O162 C169 1.266 . S
H163 C165 0.959 . S
H164 C165 0.961 . S
C165 C155 1.510 . S
C165 H163 0.959 . S
C165 H164 0.961 . S
C165 H166 0.960 . S
H166 C165 0.960 . S
H167 N147 0.862 . S
O168 Co136 1.920 1_545 S
O168 C141 1.289 1_455 S
C169 O161 1.258 . S
C169 O162 1.266 . S
Co170 O173 1.970 1_545 S
Co170 N187 1.989 . S
Co170 O195 1.967 . S
Co170 O202 1.920 . S
Co171 O174 1.966 1_545 S
Co171 N180 2.022 . S
Co171 N188 1.993 . S
Co171 O196 1.941 . S
C172 O173 1.258 . S
C172 O174 1.263 . S
O173 Co170 1.970 1_565 S
O173 C172 1.258 . S
O174 Co171 1.966 1_565 S
O174 C172 1.263 . S
C175 O176 1.235 . S
C175 O202 1.289 1_665 S
O176 C175 1.235 . S
C177 C179 1.400 . S
C177 N180 1.351 . S
C177 C182 1.501 1_545 S
C178 C179 1.387 . S
C178 N181 1.341 . S
C179 C177 1.400 . S
C179 C178 1.387 . S
N180 Co171 2.022 . S
N180 C177 1.351 . S
N180 N181 1.365 . S
N181 C178 1.341 . S
N181 N180 1.365 . S
N181 H201 0.862 . S
C182 C177 1.501 1_565 S
C182 H183 0.961 . S
C182 H184 0.961 . S
C182 H185 0.960 . S
H183 C182 0.961 . S
H184 C182 0.961 . S
H185 C182 0.960 . S
C186 N187 1.342 . S
C186 C190 1.401 . S
C186 C191 1.499 . S
N187 Co170 1.989 . S
N187 C186 1.342 . S
N187 N188 1.388 . S
N188 Co171 1.993 . S
N188 N187 1.388 . S
N188 C189 1.346 . S
C189 N188 1.346 . S
C189 C190 1.396 . S
C189 C199 1.510 . S
C190 C186 1.401 . S
C190 C189 1.396 . S
C191 C186 1.499 . S
C191 H192 0.959 . S
C191 H193 0.960 . S
C191 H194 0.961 . S
H192 C191 0.959 . S
H193 C191 0.960 . S
H194 C191 0.961 . S
O195 Co170 1.967 . S
O195 C203 1.258 . S
O196 Co171 1.941 . S
O196 C203 1.266 . S
H197 C199 0.959 . S
H198 C199 0.961 . S
C199 C189 1.510 . S
C199 H197 0.959 . S
C199 H198 0.961 . S
C199 H200 0.960 . S
H200 C199 0.960 . S
H201 N181 0.862 . S
O202 Co170 1.920 . S
O202 C175 1.289 1_445 S
C203 O195 1.258 . S
C203 O196 1.266 . S
Co204 O207 1.970 . S
Co204 N221 1.989 . S
Co204 O229 1.967 . S
Co204 O236 1.920 1_565 S
Co205 O208 1.966 . S
Co205 N214 2.022 . S
Co205 N222 1.993 . S
Co205 O230 1.941 . S
C206 O207 1.258 . S
C206 O208 1.263 . S
O207 Co204 1.970 . S
O207 C206 1.258 . S
O208 Co205 1.966 . S
O208 C206 1.263 . S
C209 O210 1.235 1_545 S
C209 O236 1.289 1_455 S
O210 C209 1.235 1_565 S
C211 C213 1.400 . S
C211 N214 1.351 . S
C211 C216 1.501 . S
C212 C213 1.387 . S
C212 N215 1.341 . S
C213 C211 1.400 . S
C213 C212 1.387 . S
N214 Co205 2.022 . S
N214 C211 1.351 . S
N214 N215 1.365 . S
N215 C212 1.341 . S
N215 N214 1.365 . S
N215 H235 0.862 . S
C216 C211 1.501 . S
C216 H217 0.961 . S
C216 H218 0.961 . S
C216 H219 0.960 . S
H217 C216 0.961 . S
H218 C216 0.961 . S
H219 C216 0.960 . S
C220 N221 1.342 . S
C220 C224 1.401 . S
C220 C225 1.499 . S
N221 Co204 1.989 . S
N221 C220 1.342 . S
N221 N222 1.388 . S
N222 Co205 1.993 . S
N222 N221 1.388 . S
N222 C223 1.346 . S
C223 N222 1.346 . S
C223 C224 1.396 . S
C223 C233 1.510 . S
C224 C220 1.401 . S
C224 C223 1.396 . S
C225 C220 1.499 . S
C225 H226 0.959 . S
C225 H227 0.960 . S
C225 H228 0.961 . S
H226 C225 0.959 . S
H227 C225 0.960 . S
H228 C225 0.961 . S
O229 Co204 1.967 . S
O229 C237 1.258 . S
O230 Co205 1.941 . S
O230 C237 1.266 . S
H231 C233 0.959 . S
H232 C233 0.961 . S
C233 C223 1.510 . S
C233 H231 0.959 . S
C233 H232 0.961 . S
C233 H234 0.960 . S
H234 C233 0.960 . S
H235 N215 0.862 . S
O236 Co204 1.920 1_545 S
O236 C209 1.289 1_655 S
C237 O229 1.258 . S
C237 O230 1.266 . S
Co238 O241 1.970 1_655 S
Co238 N255 1.989 . S
Co238 O263 1.967 . S
Co238 O270 1.920 . S
Co239 O242 1.966 1_655 S
Co239 N248 2.022 . S
Co239 N256 1.993 . S
Co239 O264 1.941 . S
C240 O241 1.258 . S
C240 O242 1.263 . S
O241 Co238 1.970 1_455 S
O241 C240 1.258 . S
O242 Co239 1.966 1_455 S
O242 C240 1.263 . S
C243 O244 1.235 . S
C243 O270 1.289 1_445 S
O244 C243 1.235 . S
C245 C247 1.400 . S
C245 N248 1.351 . S
C245 C250 1.501 1_655 S
C246 C247 1.387 . S
C246 N249 1.341 . S
C247 C245 1.400 . S
C247 C246 1.387 . S
N248 Co239 2.022 . S
N248 C245 1.351 . S
N248 N249 1.365 . S
N249 C246 1.341 . S
N249 N248 1.365 . S
N249 H269 0.862 . S
C250 C245 1.501 1_455 S
C250 H251 0.961 . S
C250 H252 0.961 . S
C250 H253 0.960 . S
H251 C250 0.961 . S
H252 C250 0.961 . S
H253 C250 0.960 . S
C254 N255 1.342 . S
C254 C258 1.401 . S
C254 C259 1.499 . S
N255 Co238 1.989 . S
N255 C254 1.342 . S
N255 N256 1.388 . S
N256 Co239 1.993 . S
N256 N255 1.388 . S
N256 C257 1.346 . S
C257 N256 1.346 . S
C257 C258 1.396 . S
C257 C267 1.510 . S
C258 C254 1.401 . S
C258 C257 1.396 . S
C259 C254 1.499 . S
C259 H260 0.959 . S
C259 H261 0.960 . S
C259 H262 0.961 . S
H260 C259 0.959 . S
H261 C259 0.960 . S
H262 C259 0.961 . S
O263 Co238 1.967 . S
O263 C271 1.258 . S
O264 Co239 1.941 . S
O264 C271 1.266 . S
H265 C267 0.959 . S
H266 C267 0.961 . S
C267 C257 1.510 . S
C267 H265 0.959 . S
C267 H266 0.961 . S
C267 H268 0.960 . S
H268 C267 0.960 . S
H269 N249 0.862 . S
O270 Co238 1.920 . S
O270 C243 1.289 1_665 S
C271 O263 1.258 . S
C271 O264 1.266 . S
Co272 O275 1.970 1_565 S
Co272 N289 1.989 . S
Co272 O297 1.967 . S
Co272 O304 1.920 1_455 S
Co273 O276 1.966 1_565 S
Co273 N282 2.022 . S
Co273 N290 1.993 . S
Co273 O298 1.941 . S
C274 O275 1.258 . S
C274 O276 1.263 . S
O275 Co272 1.970 1_545 S
O275 C274 1.258 . S
O276 Co273 1.966 1_545 S
O276 C274 1.263 . S
C277 O278 1.235 1_655 S
C277 O304 1.289 1_545 S
O278 C277 1.235 1_455 S
C279 C281 1.400 . S
C279 N282 1.351 . S
C279 C284 1.501 1_565 S
C280 C281 1.387 . S
C280 N283 1.341 . S
C281 C279 1.400 . S
C281 C280 1.387 . S
N282 Co273 2.022 . S
N282 C279 1.351 . S
N282 N283 1.365 . S
N283 C280 1.341 . S
N283 N282 1.365 . S
N283 H303 0.862 . S
C284 C279 1.501 1_545 S
C284 H285 0.961 . S
C284 H286 0.961 . S
C284 H287 0.960 . S
H285 C284 0.961 . S
H286 C284 0.961 . S
H287 C284 0.960 . S
C288 N289 1.342 . S
C288 C292 1.401 . S
C288 C293 1.499 . S
N289 Co272 1.989 . S
N289 C288 1.342 . S
N289 N290 1.388 . S
N290 Co273 1.993 . S
N290 N289 1.388 . S
N290 C291 1.346 . S
C291 N290 1.346 . S
C291 C292 1.396 . S
C291 C301 1.510 . S
C292 C288 1.401 . S
C292 C291 1.396 . S
C293 C288 1.499 . S
C293 H294 0.959 . S
C293 H295 0.960 . S
C293 H296 0.961 . S
H294 C293 0.959 . S
H295 C293 0.960 . S
H296 C293 0.961 . S
O297 Co272 1.967 . S
O297 C305 1.258 . S
O298 Co273 1.941 . S
O298 C305 1.266 . S
H299 C301 0.959 . S
H300 C301 0.961 . S
C301 C291 1.510 . S
C301 H299 0.959 . S
C301 H300 0.961 . S
C301 H302 0.960 . S
H302 C301 0.960 . S
H303 N283 0.862 . S
O304 Co272 1.920 1_655 S
O304 C277 1.289 1_565 S
C305 O297 1.258 . S
C305 O298 1.266 . S
Co306 O309 1.970 . S
Co306 N323 1.989 . S
Co306 O331 1.967 . S
Co306 O338 1.920 1_545 S
Co307 O310 1.966 . S
Co307 N316 2.022 . S
Co307 N324 1.993 . S
Co307 O332 1.941 . S
C308 O309 1.258 . S
C308 O310 1.263 . S
O309 Co306 1.970 . S
O309 C308 1.258 . S
O310 Co307 1.966 . S
O310 C308 1.263 . S
C311 O312 1.235 1_565 S
C311 O338 1.289 1_655 S
O312 C311 1.235 1_545 S
C313 C315 1.400 . S
C313 N316 1.351 . S
C313 C318 1.501 . S
C314 C315 1.387 . S
C314 N317 1.341 . S
C315 C313 1.400 . S
C315 C314 1.387 . S
N316 Co307 2.022 . S
N316 C313 1.351 . S
N316 N317 1.365 . S
N317 C314 1.341 . S
N317 N316 1.365 . S
N317 H337 0.862 . S
C318 C313 1.501 . S
C318 H319 0.961 . S
C318 H320 0.961 . S
C318 H321 0.960 . S
H319 C318 0.961 . S
H320 C318 0.961 . S
H321 C318 0.960 . S
C322 N323 1.342 . S
C322 C326 1.401 . S
C322 C327 1.499 . S
N323 Co306 1.989 . S
N323 C322 1.342 . S
N323 N324 1.388 . S
N324 Co307 1.993 . S
N324 N323 1.388 . S
N324 C325 1.346 . S
C325 N324 1.346 . S
C325 C326 1.396 . S
C325 C335 1.510 . S
C326 C322 1.401 . S
C326 C325 1.396 . S
C327 C322 1.499 . S
C327 H328 0.959 . S
C327 H329 0.960 . S
C327 H330 0.961 . S
H328 C327 0.959 . S
H329 C327 0.960 . S
H330 C327 0.961 . S
O331 Co306 1.967 . S
O331 C339 1.258 . S
O332 Co307 1.941 . S
O332 C339 1.266 . S
H333 C335 0.959 . S
H334 C335 0.961 . S
C335 C325 1.510 . S
C335 H333 0.959 . S
C335 H334 0.961 . S
C335 H336 0.960 . S
H336 C335 0.960 . S
H337 N317 0.862 . S
O338 Co306 1.920 1_565 S
O338 C311 1.289 1_455 S
C339 O331 1.258 . S
C339 O332 1.266 . S
Co340 O343 1.970 1_455 S
Co340 N357 1.989 . S
Co340 O365 1.967 . S
Co340 O372 1.920 . S
Co341 O344 1.966 1_455 S
Co341 N350 2.022 . S
Co341 N358 1.993 . S
Co341 O366 1.941 . S
C342 O343 1.258 . S
C342 O344 1.263 . S
O343 Co340 1.970 1_655 S
O343 C342 1.258 . S
O344 Co341 1.966 1_655 S
O344 C342 1.263 . S
C345 O346 1.235 . S
C345 O372 1.289 1_665 S
O346 C345 1.235 . S
C347 C349 1.400 . S
C347 N350 1.351 . S
C347 C352 1.501 1_455 S
C348 C349 1.387 . S
C348 N351 1.341 . S
C349 C347 1.400 . S
C349 C348 1.387 . S
N350 Co341 2.022 . S
N350 C347 1.351 . S
N350 N351 1.365 . S
N351 C348 1.341 . S
N351 N350 1.365 . S
N351 H371 0.862 . S
C352 C347 1.501 1_655 S
C352 H353 0.961 . S
C352 H354 0.961 . S
C352 H355 0.960 . S
H353 C352 0.961 . S
H354 C352 0.961 . S
H355 C352 0.960 . S
C356 N357 1.342 . S
C356 C360 1.401 . S
C356 C361 1.499 . S
N357 Co340 1.989 . S
N357 C356 1.342 . S
N357 N358 1.388 . S
N358 Co341 1.993 . S
N358 N357 1.388 . S
N358 C359 1.346 . S
C359 N358 1.346 . S
C359 C360 1.396 . S
C359 C369 1.510 . S
C360 C356 1.401 . S
C360 C359 1.396 . S
C361 C356 1.499 . S
C361 H362 0.959 . S
C361 H363 0.960 . S
C361 H364 0.961 . S
H362 C361 0.959 . S
H363 C361 0.960 . S
H364 C361 0.961 . S
O365 Co340 1.967 . S
O365 C373 1.258 . S
O366 Co341 1.941 . S
O366 C373 1.266 . S
H367 C369 0.959 . S
H368 C369 0.961 . S
C369 C359 1.510 . S
C369 H367 0.959 . S
C369 H368 0.961 . S
C369 H370 0.960 . S
H370 C369 0.960 . S
H371 N351 0.862 . S
O372 Co340 1.920 . S
O372 C345 1.289 1_445 S
C373 O365 1.258 . S
C373 O366 1.266 . S
Co374 O377 1.970 1_545 S
Co374 N391 1.989 . S
Co374 O399 1.967 . S
Co374 O406 1.920 1_655 S
Co375 O378 1.966 1_545 S
Co375 N384 2.022 . S
Co375 N392 1.993 . S
Co375 O400 1.941 . S
C376 O377 1.258 . S
C376 O378 1.263 . S
O377 Co374 1.970 1_565 S
O377 C376 1.258 . S
O378 Co375 1.966 1_565 S
O378 C376 1.263 . S
C379 O380 1.235 1_455 S
C379 O406 1.289 1_565 S
O380 C379 1.235 1_655 S
C381 C383 1.400 . S
C381 N384 1.351 . S
C381 C386 1.501 1_545 S
C382 C383 1.387 . S
C382 N385 1.341 . S
C383 C381 1.400 . S
C383 C382 1.387 . S
N384 Co375 2.022 . S
N384 C381 1.351 . S
N384 N385 1.365 . S
N385 C382 1.341 . S
N385 N384 1.365 . S
N385 H405 0.862 . S
C386 C381 1.501 1_565 S
C386 H387 0.961 . S
C386 H388 0.961 . S
C386 H389 0.960 . S
H387 C386 0.961 . S
H388 C386 0.961 . S
H389 C386 0.960 . S
C390 N391 1.342 . S
C390 C394 1.401 . S
C390 C395 1.499 . S
N391 Co374 1.989 . S
N391 C390 1.342 . S
N391 N392 1.388 . S
N392 Co375 1.993 . S
N392 N391 1.388 . S
N392 C393 1.346 . S
C393 N392 1.346 . S
C393 C394 1.396 . S
C393 C403 1.510 . S
C394 C390 1.401 . S
C394 C393 1.396 . S
C395 C390 1.499 . S
C395 H396 0.959 . S
C395 H397 0.960 . S
C395 H398 0.961 . S
H396 C395 0.959 . S
H397 C395 0.960 . S
H398 C395 0.961 . S
O399 Co374 1.967 . S
O399 C407 1.258 . S
O400 Co375 1.941 . S
O400 C407 1.266 . S
H401 C403 0.959 . S
H402 C403 0.961 . S
C403 C393 1.510 . S
C403 H401 0.959 . S
C403 H402 0.961 . S
C403 H404 0.960 . S
H404 C403 0.960 . S
H405 N385 0.862 . S
O406 Co374 1.920 1_455 S
O406 C379 1.289 1_545 S
C407 O399 1.258 . S
C407 O400 1.266 . S
C111 C9 2.367 . S
C145 C43 2.367 1_455 S
C179 C77 2.368 1_545 S
C213 C315 2.367 . S
C247 C349 2.368 1_655 S
C281 C383 2.367 1_565 S
C326 C20 2.777 . S
C54 C360 2.777 1_655 S
C394 C88 2.777 1_544 S
C224 C122 2.777 . S
C156 C258 2.777 1_455 S
C190 C292 2.777 1_546 S
C5 C107 0.751 1_665 S
C39 C141 0.750 1_465 S
C175 C73 0.751 1_665 S
C209 C311 0.751 1_445 S
C243 C345 0.751 1_445 S
C379 C277 0.750 1_465 S
C407 C33 2.490 1_655 S
C67 C237 2.490 1_545 S
C271 C101 2.490 . S
C305 C135 2.490 1_455 S
C169 C339 2.490 1_565 S
C203 C373 2.490 . S
C2 C274 2.394 . S
C36 C308 2.394 . S
C342 C70 2.394 . S
C104 C376 2.394 . S
C206 C138 2.394 . S
C172 C240 2.394 . S
