# Generated by pormake.
# Topology ure, (4)-cn, num edge types: 1
# Building blocks:
#     Node 0, Type 0, BuildingBlock: AZAVOO_clean_sbu_0, # of connection points: 4
#     Node 1, Type 0, BuildingBlock: AZAVOO_clean_sbu_0, # of connection points: 4
#     Node 2, Type 0, BuildingBlock: AZAVOO_clean_sbu_0, # of connection points: 4
#     Node 3, Type 0, BuildingBlock: AZAVOO_clean_sbu_0, # of connection points: 4
#     Node 4, Type 0, BuildingBlock: AZAVOO_clean_sbu_0, # of connection points: 4
#     Node 5, Type 0, BuildingBlock: AZAVOO_clean_sbu_0, # of connection points: 4
#     Node 6, Type 0, BuildingBlock: AZAVOO_clean_sbu_0, # of connection points: 4
#     Node 7, Type 0, BuildingBlock: AZAVOO_clean_sbu_0, # of connection points: 4
#     Node 8, Type 0, BuildingBlock: AZAVOO_clean_sbu_0, # of connection points: 4
#     Node 9, Type 0, BuildingBlock: AZAVOO_clean_sbu_0, # of connection points: 4
#     Node 10, Type 0, BuildingBlock: AZAVOO_clean_sbu_0, # of connection points: 4
#     Node 11, Type 0, BuildingBlock: AZAVOO_clean_sbu_0, # of connection points: 4
#     Node 12, Type 0, BuildingBlock: AZAVOO_clean_sbu_0, # of connection points: 4
#     Node 13, Type 0, BuildingBlock: AZAVOO_clean_sbu_0, # of connection points: 4
#     Node 14, Type 0, BuildingBlock: AZAVOO_clean_sbu_0, # of connection points: 4
#     Node 15, Type 0, BuildingBlock: AZAVOO_clean_sbu_0, # of connection points: 4
#     Edge 16, Type (0, 0), BuildingBlock: EZIPEK_clean_linker_0, # of connection points: 2
#     Edge 17, Type (0, 0), BuildingBlock: EZIPEK_clean_linker_0, # of connection points: 2
#     Edge 18, Type (0, 0), BuildingBlock: EZIPEK_clean_linker_0, # of connection points: 2
#     Edge 19, Type (0, 0), BuildingBlock: EZIPEK_clean_linker_0, # of connection points: 2
#     Edge 20, Type (0, 0), BuildingBlock: EZIPEK_clean_linker_0, # of connection points: 2
#     Edge 21, Type (0, 0), BuildingBlock: EZIPEK_clean_linker_0, # of connection points: 2
#     Edge 22, Type (0, 0), BuildingBlock: EZIPEK_clean_linker_0, # of connection points: 2
#     Edge 23, Type (0, 0), BuildingBlock: EZIPEK_clean_linker_0, # of connection points: 2
#     Edge 24, Type (0, 0), BuildingBlock: EZIPEK_clean_linker_0, # of connection points: 2
#     Edge 25, Type (0, 0), BuildingBlock: EZIPEK_clean_linker_0, # of connection points: 2
#     Edge 26, Type (0, 0), BuildingBlock: EZIPEK_clean_linker_0, # of connection points: 2
#     Edge 27, Type (0, 0), BuildingBlock: EZIPEK_clean_linker_0, # of connection points: 2
#     Edge 28, Type (0, 0), BuildingBlock: EZIPEK_clean_linker_0, # of connection points: 2
#     Edge 29, Type (0, 0), BuildingBlock: EZIPEK_clean_linker_0, # of connection points: 2
#     Edge 30, Type (0, 0), BuildingBlock: EZIPEK_clean_linker_0, # of connection points: 2
#     Edge 31, Type (0, 0), BuildingBlock: EZIPEK_clean_linker_0, # of connection points: 2
#     Edge 32, Type (0, 0), BuildingBlock: EZIPEK_clean_linker_0, # of connection points: 2
#     Edge 33, Type (0, 0), BuildingBlock: EZIPEK_clean_linker_0, # of connection points: 2
#     Edge 34, Type (0, 0), BuildingBlock: EZIPEK_clean_linker_0, # of connection points: 2
#     Edge 35, Type (0, 0), BuildingBlock: EZIPEK_clean_linker_0, # of connection points: 2
#     Edge 36, Type (0, 0), BuildingBlock: EZIPEK_clean_linker_0, # of connection points: 2
#     Edge 37, Type (0, 0), BuildingBlock: EZIPEK_clean_linker_0, # of connection points: 2
#     Edge 38, Type (0, 0), BuildingBlock: EZIPEK_clean_linker_0, # of connection points: 2
#     Edge 39, Type (0, 0), BuildingBlock: EZIPEK_clean_linker_0, # of connection points: 2
#     Edge 40, Type (0, 0), BuildingBlock: EZIPEK_clean_linker_0, # of connection points: 2
#     Edge 41, Type (0, 0), BuildingBlock: EZIPEK_clean_linker_0, # of connection points: 2
#     Edge 42, Type (0, 0), BuildingBlock: EZIPEK_clean_linker_0, # of connection points: 2
#     Edge 43, Type (0, 0), BuildingBlock: EZIPEK_clean_linker_0, # of connection points: 2
#     Edge 44, Type (0, 0), BuildingBlock: EZIPEK_clean_linker_0, # of connection points: 2
#     Edge 45, Type (0, 0), BuildingBlock: EZIPEK_clean_linker_0, # of connection points: 2
#     Edge 46, Type (0, 0), BuildingBlock: EZIPEK_clean_linker_0, # of connection points: 2
#     Edge 47, Type (0, 0), BuildingBlock: EZIPEK_clean_linker_0, # of connection points: 2
# Relax obj value: 0.097
# Max RMSD: 0.075
# Mean RMSD: 0.072
data_MOF--net-ure--node1-AZAVOO_clean_sbu_0--edge1-EZIPEK_clean_linker_0
_symmetry_space_group_name_H-M    P1
_symmetry_Int_Tables_number       1
_symmetry_cell_setting            triclinic
loop_
_symmetry_equiv_pos_as_xyz
'x, y, z'
_cell_length_a     23.185241
_cell_length_b     23.236136
_cell_length_c     23.642652
_cell_angle_alpha  90.337317
_cell_angle_beta   90.628589
_cell_angle_gamma 92.492224
loop_
_atom_site_label
_atom_site_type_symbol
_atom_site_fract_x
_atom_site_fract_y
_atom_site_fract_z
_atom_type_partial_charge
Mg0 Mg 0.26318 0.22248 0.3028 0.0
O1 O 0.22297 0.30873 0.27915 0.0
O2 O 0.24798 0.37385 0.34542 0.0
Mg3 Mg 0.29734 0.32791 0.41401 0.0
C4 C 0.22371 0.36019 0.29834 0.0
C5 C 0.19339 0.18764 0.1979 0.0
O6 O 0.15202 0.2023 0.23194 0.0
O7 O 0.3524 0.25846 0.27655 0.0
O8 O 0.36804 0.31835 0.34943 0.0
O9 O 0.1856 0.19379 0.3552 0.0
O10 O 0.26323 0.24248 0.3872 0.0
C11 C 0.38454 0.2952 0.3038 0.0
C12 C 0.21349 0.21865 0.39697 0.0
O13 O 0.24543 0.19187 0.21465 0.0
Mg14 Mg 0.92643 0.95631 0.47791 0.0
O15 O 0.94417 0.05458 0.46672 0.0
O16 O 0.89177 0.09725 0.53294 0.0
Mg17 Mg 0.83187 0.03039 0.57604 0.0
C18 C 0.92854 0.09939 0.4932 0.0
C19 C 0.00721 0.90424 0.38483 0.0
O20 O 0.95698 0.88729 0.3629 0.0
O21 O 0.97663 0.96103 0.56205 0.0
O22 O 0.91127 -0.00131 0.61904 0.0
O23 O 0.85242 0.95393 0.41442 0.0
O24 O 0.84261 0.97053 0.50539 0.0
C25 C 0.95984 0.9767 0.61086 0.0
C26 C 0.81902 0.96549 0.45615 0.0
O27 O 0.00894 0.9349 0.42973 0.0
Mg28 Mg 0.23208 0.8067 0.80562 0.0
O29 O 0.26684 0.71414 0.79367 0.0
O30 O 0.22769 0.66496 0.86521 0.0
Mg31 Mg 0.17794 0.72061 0.92487 0.0
C32 C 0.258 0.66717 0.82076 0.0
C33 C 0.31062 0.8285 0.69909 0.0
O34 O 0.35111 0.81435 0.73507 0.0
O35 O 0.14252 0.77196 0.77628 0.0
O36 O 0.11302 0.72183 0.85148 0.0
O37 O 0.30583 0.8372 0.86435 0.0
O38 O 0.22343 0.79793 0.89313 0.0
C39 C 0.10427 0.74067 0.8016 0.0
C40 C 0.27359 0.81986 0.90582 0.0
O41 O 0.25841 0.8283 0.715 0.0
Mg42 Mg 0.56746 0.95698 0.9351 0.0
O43 O 0.53682 0.96188 0.02882 0.0
O44 O 0.592 0.90222 0.07668 0.0
Mg45 Mg 0.64764 0.85196 0.016 0.0
C46 C 0.55292 0.93924 0.07537 0.0
C47 C 0.46789 0.04032 0.90571 0.0
O48 O 0.43733 0.99218 0.91359 0.0
O49 O 0.65443 0.00536 0.95821 0.0
O50 O 0.70146 0.93522 0.00031 0.0
O51 O 0.50122 0.88522 0.91507 0.0
O52 O 0.58928 0.87059 0.94565 0.0
C53 C 0.7 0.98659 0.98151 0.0
C54 C 0.53908 0.84939 0.93141 0.0
O55 O 0.52245 0.04104 0.91322 0.0
Mg56 Mg 0.29611 0.70548 0.26307 0.0
O57 O 0.28769 0.7484 0.17105 0.0
O58 O 0.37716 0.74149 0.14573 0.0
Mg59 Mg 0.34311 0.65555 0.1742 0.0
C60 C 0.3286 0.76305 0.13744 0.0
C61 C 0.21301 0.81136 0.28739 0.0
O62 O 0.2547 0.84415 0.26588 0.0
O63 O 0.23467 0.62468 0.24262 0.0
O64 O 0.30078 0.57432 0.20146 0.0
O65 O 0.37814 0.75979 0.281 0.0
O66 O 0.38253 0.66846 0.25755 0.0
C67 C 0.25077 0.57685 0.22232 0.0
C68 C 0.40912 0.71576 0.27168 0.0
O69 O 0.21815 0.75713 0.29007 0.0
Mg70 Mg 0.43918 0.01103 0.40174 0.0
O71 O 0.53348 0.98571 0.41986 0.0
O72 O 0.58857 0.05228 0.37482 0.0
Mg73 Mg 0.53301 0.11093 0.32188 0.0
C74 C 0.58283 0.0081 0.40648 0.0
C75 C 0.38172 0.91064 0.47858 0.0
O76 O 0.37227 0.8827 0.43068 0.0
O77 O 0.45229 0.08967 0.45913 0.0
O78 O 0.49868 0.15326 0.40356 0.0
O79 O 0.43015 0.95274 0.32617 0.0
O80 O 0.46549 0.04156 0.32189 0.0
C81 C 0.47216 0.14052 0.44929 0.0
C82 C 0.45581 0.99276 0.29664 0.0
O83 O 0.40699 0.96029 0.47858 0.0
Mg84 Mg 0.27815 0.31908 0.74297 0.0
O85 O 0.18693 0.29139 0.77984 0.0
O86 O 0.12436 0.35024 0.74049 0.0
Mg87 Mg 0.17105 0.41813 0.68659 0.0
C88 C 0.13526 0.3075 0.77183 0.0
C89 C 0.34574 0.23733 0.82396 0.0
O90 O 0.349 0.285 0.85413 0.0
O91 O 0.24931 0.27733 0.65753 0.0
O92 O 0.1876 0.34294 0.62906 0.0
O93 O 0.30187 0.39087 0.80695 0.0
O94 O 0.25435 0.40392 0.72782 0.0
C95 C 0.21386 0.29654 0.62097 0.0
C96 C 0.27842 0.42609 0.77237 0.0
O97 O 0.31819 0.23633 0.77695 0.0
Mg98 Mg 0.06647 0.96382 0.93932 0.0
O99 O 0.97606 0.00162 0.95132 0.0
O100 O 0.91343 0.93946 0.90828 0.0
Mg101 Mg 0.96152 0.86734 0.86677 0.0
C102 C 0.92452 0.98505 0.93735 0.0
C103 C 0.11961 0.07538 0.99327 0.0
O104 O 0.11732 0.09353 0.94085 0.0
O105 O 0.0468 0.89495 0.00536 0.0
O106 O 0.98825 0.83499 0.95496 0.0
O107 O 0.0811 0.01081 0.85926 0.0
O108 O 0.03929 0.92388 0.86446 0.0
C109 C 0.01721 0.84771 -2e-05 0.0
C110 C 0.05422 0.96778 0.83417 0.0
O111 O 0.10264 0.02433 0.00538 0.0
Mg112 Mg 0.79683 0.1873 0.77956 0.0
O113 O 0.7881 0.22325 0.68855 0.0
O114 O 0.84316 0.16975 0.63354 0.0
Mg115 Mg 0.89464 0.1103 0.68993 0.0
C116 C 0.80739 0.20932 0.64007 0.0
C117 C 0.71905 0.24546 0.86105 0.0
O118 O 0.76178 0.22779 0.89252 0.0
O119 O 0.74338 0.10566 0.75226 0.0
O120 O 0.80926 0.05893 0.70408 0.0
O121 O 0.86853 0.25076 0.80297 0.0
O122 O 0.88236 0.16553 0.76514 0.0
C123 C 0.75865 0.06155 0.7246 0.0
C124 C 0.90418 0.21393 0.78456 0.0
O125 O 0.71793 0.23347 0.80848 0.0
Mg126 Mg 0.98775 0.5067 0.95061 0.0
O127 O 0.08562 0.49863 0.94448 0.0
O128 O 0.1166 0.56879 0.88657 0.0
Mg129 Mg 0.03951 0.62062 0.85896 0.0
C130 C 0.12586 0.52536 0.91768 0.0
C131 C 0.94044 0.4586 0.05486 0.0
O132 O 0.90314 0.49428 0.03441 0.0
O133 O -0.00011 0.58448 0.01051 0.0
O134 O 0.03055 0.65084 0.94915 0.0
O135 O 0.97626 0.44745 0.87714 0.0
O136 O 0.9822 0.54176 0.86793 0.0
C137 C 0.01709 0.63572 -0.00102 0.0
C138 C 0.97754 0.4915 0.84385 0.0
O139 O 0.98629 0.45052 0.02778 0.0
Mg140 Mg 0.78067 0.82817 0.24078 0.0
O141 O 0.69095 0.78903 0.26761 0.0
O142 O 0.62746 0.83359 0.21352 0.0
Mg143 Mg 0.6706 0.90679 0.16286 0.0
C144 C 0.63931 0.79607 0.25058 0.0
C145 C 0.80812 0.72682 0.32549 0.0
O146 O 0.76195 0.74345 0.35154 0.0
O147 O 0.77297 0.78167 0.15584 0.0
O148 O 0.71402 0.84001 0.10989 0.0
O149 O 0.78296 0.90222 0.30352 0.0
O150 O 0.7463 0.9064 0.21785 0.0
C151 C 0.74706 0.79754 0.111 0.0
C152 C 0.75833 0.93189 0.26476 0.0
O153 O 0.82555 0.75278 0.28129 0.0
Mg154 Mg 0.00795 0.45028 0.46855 0.0
O155 O 0.98405 0.45567 0.56296 0.0
O156 O 0.04697 0.40303 0.61017 0.0
Mg157 Mg 0.10276 0.35813 0.54654 0.0
C158 C 0.00484 0.43642 0.60906 0.0
C159 C 0.9321 0.53035 0.40085 0.0
O160 O 0.93637 0.48679 0.36571 0.0
O161 O 0.08945 0.50854 0.48491 0.0
O162 O 0.14337 0.44638 0.52982 0.0
O163 O 0.94545 0.37529 0.45545 0.0
O164 O 0.03656 0.36602 0.47911 0.0
C165 C 0.13648 0.49617 0.50952 0.0
C166 C 0.98654 0.34158 0.46815 0.0
O167 O 0.95656 0.52888 0.44912 0.0
Mg168 Mg 0.46364 0.46986 -0.00111 0.0
O169 O 0.49199 0.56583 0.97604 0.0
O170 O 0.42068 0.61381 0.01309 0.0
Mg171 Mg 0.35067 0.55937 0.05551 0.0
C172 C 0.46806 0.61333 0.98666 0.0
C173 C 0.54848 0.38122 0.97076 0.0
O174 O 0.50528 0.35306 -0.00472 0.0
O175 O 0.49307 0.48477 0.09193 0.0
O176 O 0.4184 0.53572 0.11956 0.0
O177 O 0.40392 0.45756 0.92206 0.0
O178 O 0.37726 0.4876 0.00579 0.0
C179 C 0.46541 0.51108 0.1302 0.0
C180 C 0.36353 0.47439 0.95477 0.0
O181 O 0.54832 0.43589 0.96852 0.0
Mg182 Mg 0.76793 0.69819 0.77999 0.0
O183 O 0.74333 0.78888 0.74609 0.0
O184 O 0.80758 0.85429 0.78291 0.0
Mg185 Mg 0.88294 0.80264 0.80988 0.0
C186 C 0.76063 0.8411 0.75651 0.0
C187 C 0.65612 0.62904 0.76033 0.0
O188 O 0.66028 0.62986 0.81574 0.0
O189 O 0.83596 0.67491 0.71245 0.0
O190 O 0.8607 0.76357 0.72497 0.0
O191 O 0.72564 0.72196 0.85849 0.0
O192 O 0.82001 0.73671 0.84771 0.0
C193 C 0.87578 0.7139 0.71156 0.0
C194 C 0.77491 0.74035 0.87902 0.0
O195 O 0.69451 0.65508 0.73084 0.0
Mg196 Mg 0.73893 0.31547 0.31303 0.0
O197 O 0.73744 0.21772 0.28401 0.0
O198 O 0.67403 0.16869 0.33808 0.0
Mg199 Mg 0.61794 0.23897 0.36821 0.0
C200 C 0.71486 0.17011 0.30249 0.0
C201 C 0.84809 0.36583 0.2576 0.0
O202 O 0.86 0.37771 0.31095 0.0
O203 O 0.66352 0.34514 0.2567 0.0
O204 O 0.62948 0.26022 0.27511 0.0
O205 O 0.79307 0.29158 0.38498 0.0
O206 O 0.69813 0.2942 0.39273 0.0
C207 C 0.62094 0.30932 0.25497 0.0
C208 C 0.7477 0.28392 0.41574 0.0
O209 O 0.80166 0.33791 0.24431 0.0
Mg210 Mg 0.49895 0.4888 0.47462 0.0
O211 O 0.40804 0.52596 0.48697 0.0
O212 O 0.34794 0.47837 0.42723 0.0
Mg213 Mg 0.40021 0.41963 0.37233 0.0
C214 C 0.35742 0.51538 0.46653 0.0
C215 C 0.5051 0.51464 0.60508 0.0
O216 O 0.46275 0.47543 0.6075 0.0
O217 O 0.47303 0.40271 0.51691 0.0
O218 O 0.41647 0.36319 0.44932 0.0
O219 O 0.52305 0.55308 0.40539 0.0
O220 O 0.48154 0.46704 0.39155 0.0
C221 C 0.44196 0.36039 0.49726 0.0
C222 C 0.50253 0.51396 0.37054 0.0
O223 O 0.52709 0.52893 0.55797 0.0
C224 C 0.20248 0.10994 0.12553 0.0
C225 C 0.17944 0.16314 0.14169 0.0
C226 C 0.12125 0.16369 0.05485 0.0
C227 C 0.14613 0.11164 0.03827 0.0
N228 N 0.22389 0.04679 0.04773 0.0
N229 N 0.13 0.24845 0.11496 0.0
C230 C 0.19143 0.08874 0.0703 0.0
C231 C 0.14285 0.19261 0.1042 0.0
N232 N 0.23132 0.07749 0.16375 0.0
N233 N 0.07536 0.18395 0.02545 0.0
H234 H 0.1465 0.27153 0.14996 0.0
H235 H 0.10789 0.27359 0.08632 0.0
H236 H 0.05849 0.16427 0.98878 0.0
H237 H 0.05152 0.21807 0.03963 0.0
H238 H 0.24374 0.03584 0.15491 0.0
H239 H 0.23733 0.08909 0.20611 0.0
H240 H 0.26084 0.03219 0.06755 0.0
H241 H 0.21749 0.03141 0.00646 0.0
C242 C 0.09706 0.8476 0.39331 0.0
C243 C 0.06126 0.88281 0.36032 0.0
C244 C 0.12336 0.8687 0.27806 0.0
C245 C 0.16164 0.83764 0.31249 0.0
N246 N 0.19139 0.80831 0.40573 0.0
N247 N 0.04517 0.93483 0.27404 0.0
C248 C 0.15033 0.8302 0.37096 0.0
C249 C 0.07578 0.8956 0.30339 0.0
N250 N 0.07896 0.82823 0.44495 0.0
N251 N 0.13106 0.87055 0.22082 0.0
H252 H 0.0104 0.95562 0.29129 0.0
H253 H 0.05726 0.95056 0.23455 0.0
H254 H 0.16523 0.85137 0.20074 0.0
H255 H 0.10109 0.88689 0.19272 0.0
H256 H 0.10022 0.79724 0.4679 0.0
H257 H 0.03972 0.83871 0.46257 0.0
H258 H 0.1881 0.80775 0.44964 0.0
H259 H 0.23141 0.79597 0.39132 0.0
C260 C 0.32168 0.919 0.56537 0.0
C261 C 0.35984 0.88658 0.5327 0.0
C262 C 0.35771 0.81149 0.60536 0.0
C263 C 0.32618 0.84771 0.64118 0.0
N264 N 0.28706 0.94085 0.65879 0.0
N265 N 0.42063 0.80526 0.52454 0.0
C266 C 0.31027 0.90273 0.62208 0.0
C267 C 0.37941 0.83347 0.55329 0.0
N268 N 0.29494 0.96447 0.5417 0.0
N269 N 0.36536 0.75552 0.62017 0.0
H270 H 0.43797 0.82013 0.48657 0.0
H271 H 0.44118 0.76982 0.54071 0.0
H272 H 0.34923 0.73756 0.65743 0.0
H273 H 0.38277 0.72545 0.59313 0.0
H274 H 0.26222 0.98595 0.56167 0.0
H275 H 0.30105 0.9769 0.49978 0.0
H276 H 0.28048 0.98364 0.64856 0.0
H277 H 0.27973 0.93177 0.7013 0.0
C278 C 0.45224 0.1164 0.83198 0.0
C279 C 0.43853 0.09233 0.88558 0.0
C280 C 0.35967 0.15908 0.89531 0.0
C281 C 0.37646 0.18616 0.84401 0.0
N282 N 0.44517 0.19749 0.76855 0.0
N283 N 0.38588 0.09693 0.97276 0.0
C284 C 0.42451 0.16668 0.81366 0.0
C285 C 0.394 0.11538 0.91848 0.0
N286 N 0.48994 0.08986 0.79737 0.0
N287 N 0.30974 0.17377 0.92092 0.0
H288 H 0.41079 0.06578 0.9915 0.0
H289 H 0.3582 0.11605 0.00095 0.0
H290 H 0.28339 0.20533 0.90508 0.0
H291 H 0.29171 0.15134 0.95489 0.0
H292 H 0.49665 0.10156 0.75542 0.0
H293 H 0.51101 0.05286 0.80877 0.0
H294 H 0.48409 0.1895 0.74901 0.0
H295 H 0.42619 0.23445 0.7537 0.0
C296 C 0.69327 0.3319 0.91807 0.0
C297 C 0.67516 0.28203 0.88638 0.0
C298 C 0.57436 0.30446 0.90159 0.0
C299 C 0.59251 0.34884 0.94034 0.0
N300 N 0.66991 0.39865 0.99249 0.0
N301 N 0.59807 0.215 0.85646 0.0
C302 C 0.6522 0.36109 0.95045 0.0
C303 C 0.61556 0.26668 0.8803 0.0
N304 N 0.74921 0.35282 0.91556 0.0
N305 N 0.51826 0.2998 0.88309 0.0
H306 H 0.62677 0.18524 0.84155 0.0
H307 H 0.5553 0.19925 0.85666 0.0
H308 H 0.48716 0.3284 0.89518 0.0
H309 H 0.50423 0.27169 0.85082 0.0
H310 H 0.76327 0.39213 0.93345 0.0
H311 H 0.78018 0.3342 0.89048 0.0
H312 H 0.71288 0.40438 0.00547 0.0
H313 H 0.64129 0.41997 0.01814 0.0
C314 C 0.92533 0.37323 0.1187 0.0
C315 C 0.93091 0.43374 0.11135 0.0
C316 C 0.89104 0.45014 0.20492 0.0
C317 C 0.88474 0.38963 0.2122 0.0
N318 N 0.91064 0.29434 0.18454 0.0
N319 N 0.93806 0.52847 0.15358 0.0
C320 C 0.90699 0.35138 0.17181 0.0
C321 C 0.92014 0.47176 0.15669 0.0
N322 N 0.93395 0.33681 0.07426 0.0
N323 N 0.86575 0.48695 0.24153 0.0
H324 H 0.96071 0.54527 0.11907 0.0
H325 H 0.93603 0.55714 0.18749 0.0
H326 H 0.84269 0.47323 0.27688 0.0
H327 H 0.86351 0.53099 0.23433 0.0
H328 H 0.92398 0.29271 0.07547 0.0
H329 H 0.94755 0.35103 0.03467 0.0
H330 H 0.93131 0.26516 0.15897 0.0
H331 H 0.89793 0.27746 0.22352 0.0
C332 C 0.92934 0.63575 0.37902 0.0
C333 C 0.89994 0.58111 0.38362 0.0
C334 C 0.81118 0.62138 0.34679 0.0
C335 C 0.83925 0.6769 0.34669 0.0
N336 N 0.92149 0.73917 0.37233 0.0
N337 N 0.81068 0.52369 0.38217 0.0
C338 C 0.89738 0.68476 0.36556 0.0
C339 C 0.84018 0.57439 0.37039 0.0
N340 N 0.9881 0.64045 0.38506 0.0
N341 N 0.75778 0.61301 0.32218 0.0
H342 H 0.83033 0.48839 0.3999 0.0
H343 H 0.76594 0.51825 0.379 0.0
H344 H 0.73515 0.64621 0.30406 0.0
H345 H 0.73805 0.57241 0.31525 0.0
H346 H 0.0125 0.67791 0.37608 0.0
H347 H 0.01327 0.6055 0.39423 0.0
H348 H 0.96158 0.74789 0.39157 0.0
H349 H 0.8992 0.77614 0.36339 0.0
C350 C 0.56773 0.50805 0.69093 0.0
C351 C 0.53043 0.54045 0.65696 0.0
C352 C 0.56651 0.63017 0.70135 0.0
C353 C 0.60703 0.59831 0.73208 0.0
N354 N 0.63671 0.50726 0.7687 0.0
N355 N 0.48118 0.62774 0.64057 0.0
C356 C 0.60402 0.53721 0.73151 0.0
C357 C 0.52543 0.60021 0.66595 0.0
N358 N 0.57139 0.45019 0.68153 0.0
N359 N 0.56862 0.689 0.7049 0.0
H360 H 0.45029 0.60598 0.61497 0.0
H361 H 0.47195 0.67044 0.64853 0.0
H362 H 0.59618 0.71198 0.7329 0.0
H363 H 0.54476 0.71529 0.67893 0.0
H364 H 0.603 0.42532 0.69942 0.0
H365 H 0.54413 0.42708 0.65347 0.0
H366 H 0.63186 0.46295 0.77446 0.0
H367 H 0.66599 0.52706 0.79719 0.0
C368 C 0.19441 0.18925 0.49669 0.0
C369 C 0.18764 0.22923 0.45243 0.0
C370 C 0.20346 0.30858 0.51726 0.0
C371 C 0.2069 0.27031 0.56369 0.0
N372 N 0.1963 0.17225 0.59792 0.0
N373 N 0.16032 0.32313 0.42586 0.0
C374 C 0.19908 0.20979 0.55381 0.0
C375 C 0.18198 0.2874 0.46528 0.0
N376 N 0.19949 0.13245 0.48364 0.0
N377 N 0.22638 0.36371 0.52061 0.0
H378 H 0.14442 0.30708 0.3871 0.0
H379 H 0.15314 0.36624 0.43481 0.0
H380 H 0.24875 0.38011 0.55612 0.0
H381 H 0.22963 0.39039 0.48531 0.0
H382 H 0.21137 0.10173 0.51296 0.0
H383 H 0.19389 0.11703 0.44227 0.0
H384 H 0.18479 0.12867 0.59299 0.0
H385 H 0.2021 0.18509 0.63987 0.0
C386 C 0.01811 0.02292 0.75085 0.0
C387 C 0.03746 0.97078 0.77369 0.0
C388 C 0.01463 0.92173 0.68356 0.0
C389 C 0.99828 0.97464 0.66067 0.0
N390 N 0.00588 0.07788 0.66587 0.0
N391 N 0.07229 0.87617 0.75443 0.0
C392 C 0.00766 0.026 0.69211 0.0
C393 C 0.04123 0.9217 0.73792 0.0
N394 N 0.00479 0.068 0.78499 0.0
N395 N 0.00263 0.87135 0.65501 0.0
H396 H 0.09493 0.87541 0.79275 0.0
H397 H 0.08128 0.84296 0.72659 0.0
H398 H 0.98404 0.86961 0.61466 0.0
H399 H 0.00773 0.83125 0.67332 0.0
H400 H 0.98569 0.10454 0.76945 0.0
H401 H 0.00539 0.06628 0.82898 0.0
H402 H 0.01932 0.11593 0.68628 0.0
H403 H 0.9971 0.0816 0.62274 0.0
C404 C 0.27782 0.85025 0.00913 0.0
C405 C 0.29625 0.8142 0.96444 0.0
C406 C 0.32608 0.74446 0.03346 0.0
C407 C 0.31485 0.78227 0.07871 0.0
N408 N 0.2846 0.87495 0.10956 0.0
N409 N 0.35332 0.73534 0.93591 0.0
C410 C 0.29208 0.8366 0.06662 0.0
C411 C 0.32606 0.76453 0.97731 0.0
N412 N 0.24579 0.89651 -0.00332 0.0
N413 N 0.33051 0.6873 0.04322 0.0
H414 H 0.35374 0.74814 0.89373 0.0
H415 H 0.38027 0.70185 0.94507 0.0
H416 H 0.32357 0.66857 0.08238 0.0
H417 H 0.33085 0.65776 0.01047 0.0
H418 H 0.22553 0.92061 0.0273 0.0
H419 H 0.23708 0.90871 0.95513 0.0
H420 H 0.27287 0.91718 0.10306 0.0
H421 H 0.29398 0.86529 0.15163 0.0
C422 C 0.497 0.92408 0.22577 0.0
C423 C 0.47879 0.98016 0.23878 0.0
C424 C 0.51329 0.01183 0.14519 0.0
C425 C 0.52441 0.95395 0.13007 0.0
N426 N 0.50946 0.8529 0.15324 0.0
N427 N 0.4559 0.07379 0.20254 0.0
C428 C 0.51054 0.9095 0.16932 0.0
C429 C 0.48283 0.0231 0.19606 0.0
N430 N 0.5059 0.88513 0.26752 0.0
N431 N 0.53412 0.05653 0.113 0.0
H432 H 0.42992 0.08244 0.23697 0.0
H433 H 0.45367 0.10418 0.17041 0.0
H434 H 0.55928 0.05089 0.07732 0.0
H435 H 0.53188 0.09946 0.1255 0.0
H436 H 0.52305 0.84564 0.25916 0.0
H437 H 0.50444 0.89435 0.31051 0.0
H438 H 0.49203 0.81998 0.17846 0.0
H439 H 0.52035 0.83902 0.11311 0.0
C440 C 0.48825 0.31075 0.3305 0.0
C441 C 0.44541 0.30741 0.28719 0.0
C442 C 0.52155 0.3253 0.21739 0.0
C443 C 0.56253 0.33069 0.2622 0.0
N444 N 0.57885 0.35211 0.36135 0.0
N445 N 0.42032 0.32747 0.18989 0.0
C446 C 0.54338 0.33341 0.31824 0.0
C447 C 0.46153 0.31979 0.23046 0.0
N448 N 0.47843 0.2881 0.38267 0.0
N449 N 0.54019 0.32357 0.16294 0.0
H450 H 0.3763 0.32553 0.19865 0.0
H451 H 0.43007 0.34117 0.14908 0.0
H452 H 0.58377 0.33012 0.15303 0.0
H453 H 0.51295 0.3137 0.12857 0.0
H454 H 0.51051 0.28923 0.414 0.0
H455 H 0.44131 0.26331 0.3922 0.0
H456 H 0.62017 0.3704 0.35496 0.0
H457 H 0.62017 0.3704 0.35496 0.0
C458 C 0.93677 0.24945 0.43062 0.0
C459 C 0.97564 0.27743 0.46985 0.0
C460 C -0.00091 0.18238 0.50631 0.0
C461 C 0.95129 0.15715 0.47654 0.0
N462 N 0.86904 0.16884 0.41535 0.0
N463 N 0.03221 0.26898 0.55468 0.0
C464 C 0.91849 0.19126 0.44001 0.0
C465 C 0.00482 0.24333 0.50968 0.0
N466 N 0.92004 0.27663 0.38256 0.0
N467 N 0.03679 0.14835 0.53363 0.0
H468 H 0.02006 0.30922 0.5683 0.0
H469 H 0.05919 0.2481 0.58234 0.0
H470 H 0.03325 0.10348 0.53086 0.0
H471 H 0.07437 0.16453 0.5536 0.0
H472 H 0.89583 0.25546 0.35066 0.0
H473 H 0.93657 0.31732 0.37126 0.0
H474 H 0.83969 0.19459 0.39506 0.0
H475 H 0.85599 0.12544 0.4182 0.0
C476 C 0.9464 0.69384 0.78708 0.0
C477 C 0.93502 0.69933 0.72883 0.0
C478 C 0.03886 0.71867 0.71498 0.0
C479 C 0.04635 0.72753 0.7746 0.0
N480 N 0.99768 0.73776 0.86478 0.0
N481 N 0.97116 0.71798 0.63561 0.0
C482 C 0.99732 0.71948 0.80983 0.0
C483 C 0.98165 0.7118 0.69209 0.0
N484 N 0.90859 0.66635 0.82232 0.0
N485 N 0.08532 0.71434 0.68048 0.0
H486 H 0.93019 0.7099 0.61776 0.0
H487 H 0.00236 0.73356 0.6075 0.0
H488 H 0.1278 0.71569 0.69514 0.0
H489 H 0.08132 0.70296 0.63787 0.0
H490 H 0.87133 0.64366 0.80813 0.0
H491 H 0.87133 0.64366 0.80813 0.0
H492 H 0.96169 0.7315 0.89062 0.0
H493 H 0.03053 0.76455 0.88212 0.0
C494 C 0.4872 0.71727 0.01135 0.0
C495 C 0.49517 0.67143 0.9724 0.0
C496 C 0.54002 0.74275 0.90768 0.0
C497 C 0.52244 0.78816 0.9433 0.0
N498 N 0.46523 0.81697 0.02228 0.0
N499 N 0.52248 0.64326 0.87795 0.0
C500 C 0.49159 0.77494 0.99289 0.0
C501 C 0.52032 0.68464 0.91901 0.0
N502 N 0.47754 0.70596 0.06701 0.0
N503 N 0.5749 0.75506 0.86282 0.0
H504 H 0.50745 0.60087 0.8836 0.0
H505 H 0.53458 0.65228 0.83652 0.0
H506 H 0.58804 0.79709 0.85213 0.0
H507 H 0.59397 0.72338 0.83897 0.0
H508 H 0.47749 0.73827 0.09776 0.0
H509 H 0.47745 0.66438 0.08307 0.0
H510 H 0.43725 0.80771 0.05554 0.0
H511 H 0.46753 0.86027 0.011 0.0
C512 C 0.56504 0.72077 0.22238 0.0
C513 C 0.59165 0.75433 0.26611 0.0
C514 C 0.50298 0.7462 0.32128 0.0
C515 C 0.47376 0.71976 0.27417 0.0
N516 N 0.48659 0.65576 0.19362 0.0
N517 N 0.59252 0.77547 0.3662 0.0
C518 C 0.50755 0.69839 0.22907 0.0
C519 C 0.56321 0.75903 0.31846 0.0
N520 N 0.59416 0.71229 0.17329 0.0
N521 N 0.474 0.75785 0.36963 0.0
H522 H 0.6374 0.78068 0.36776 0.0
H523 H 0.6374 0.78068 0.36776 0.0
H524 H 0.43049 0.74604 0.37507 0.0
H525 H 0.49429 0.77831 0.40439 0.0
H526 H 0.57492 0.69479 0.1367 0.0
H527 H 0.63756 0.7251 0.16882 0.0
H528 H 0.51317 0.63417 0.16625 0.0
H529 H 0.44563 0.63634 0.19529 0.0
C530 C 0.40334 0.20582 0.49707 0.0
C531 C 0.46056 0.18805 0.48968 0.0
C532 C 0.49757 0.27844 0.53375 0.0
C533 C 0.44354 0.30186 0.52291 0.0
N534 N 0.34193 0.28605 0.51485 0.0
N535 N 0.56085 0.20063 0.51402 0.0
C536 C 0.39517 0.26402 0.51321 0.0
C537 C 0.50723 0.22194 0.51327 0.0
N538 N 0.35742 0.16823 0.4868 0.0
N539 N 0.53891 0.31032 0.56291 0.0
H540 H 0.56777 0.15809 0.50251 0.0
H541 H 0.59756 0.2254 0.52524 0.0
H542 H 0.53018 0.35003 0.58089 0.0
H543 H 0.57878 0.29517 0.57491 0.0
H544 H 0.31493 0.17722 0.49535 0.0
H545 H 0.3616 0.12589 0.47354 0.0
H546 H 0.30498 0.26397 0.5002 0.0
H547 H 0.33631 0.32799 0.52925 0.0
C548 C 0.05961 0.23813 0.73586 0.0
C549 C 0.08491 0.26714 0.78314 0.0
C550 C 0.99632 0.2456 0.8365 0.0
C551 C 0.96758 0.22834 0.78513 0.0
N552 N 0.97145 0.21545 0.68421 0.0
N553 N 0.08258 0.28908 0.88198 0.0
C554 C -0.00061 0.22535 0.73454 0.0
C555 C 0.05477 0.26794 0.83479 0.0
N556 N 0.09359 0.22334 0.69193 0.0
N557 N 0.9684 0.23866 0.88679 0.0
H558 H 0.12725 0.29576 0.88275 0.0
H559 H 0.06222 0.29837 0.91976 0.0
H560 H 0.92655 0.2206 0.88949 0.0
H561 H 0.98781 0.2465 0.92612 0.0
H562 H 0.07929 0.19564 0.65948 0.0
H563 H 0.13788 0.23284 0.69244 0.0
H564 H 0.99203 0.21518 0.64546 0.0
H565 H 0.92683 0.21321 0.68084 0.0
C566 C 0.97167 0.77104 0.05783 0.0
C567 C 0.02298 0.8011 0.04194 0.0
C568 C 0.07382 0.71178 0.04868 0.0
C569 C 0.01994 0.68167 0.0423 0.0
N570 N 0.91748 0.67923 0.05602 0.0
N571 N 0.12692 0.80385 0.04087 0.0
C572 C 0.9688 0.71003 0.05414 0.0
C573 C 0.07587 0.77288 0.04531 0.0
N574 N 0.92598 0.80153 0.07428 0.0
N575 N 0.12226 0.68104 0.05435 0.0
H576 H 0.12912 0.84873 0.04217 0.0
H577 H 0.1667 0.78532 0.03657 0.0
H578 H 0.1193 0.6361 0.05671 0.0
H579 H 0.16353 0.69946 0.06096 0.0
H580 H 0.88881 0.78231 0.09147 0.0
H581 H 0.92905 0.84652 0.07607 0.0
H582 H 0.87763 0.69814 0.05803 0.0
H583 H 0.91553 0.63428 0.05455 0.0
C584 C 0.22714 0.41924 0.20892 0.0
C585 C 0.20283 0.40821 0.26299 0.0
C586 C 0.17727 0.50956 0.27076 0.0
C587 C 0.21502 0.52188 0.22543 0.0
N588 N 0.24403 0.48907 0.13411 0.0
N589 N 0.13684 0.43656 0.33427 0.0
C590 C 0.2291 0.47656 0.18855 0.0
C591 C 0.1713 0.45156 0.28993 0.0
N592 N 0.25239 0.37675 0.17911 0.0
N593 N 0.14568 0.55217 0.29311 0.0
H594 H 0.12694 0.39341 0.34299 0.0
H595 H 0.11694 0.46555 0.36057 0.0
H596 H 0.14448 0.59281 0.27491 0.0
H597 H 0.11607 0.5461 0.32544 0.0
H598 H 0.27881 0.38481 0.14444 0.0
H599 H 0.24779 0.33329 0.18896 0.0
H600 H 0.25079 0.4579 0.10334 0.0
H601 H 0.24327 0.53103 0.11856 0.0
C602 C 0.69698 0.98436 0.77103 0.0
C603 C 0.72103 0.00789 0.72128 0.0
C604 C 0.73278 0.91132 0.68311 0.0
C605 C 0.72616 0.88985 0.73866 0.0
N606 N 0.6906 0.90135 0.83305 0.0
N607 N 0.72972 0.99492 0.62169 0.0
C608 C 0.70282 0.9247 0.78147 0.0
C609 C 0.72759 0.97128 0.67418 0.0
N610 N 0.66775 0.01853 0.80676 0.0
N611 N 0.74927 0.87556 0.64081 0.0
H612 H 0.72612 0.03922 0.61618 0.0
H613 H 0.73039 0.97079 0.58452 0.0
H614 H 0.75186 0.83127 0.64668 0.0
H615 H 0.76123 0.88966 0.60073 0.0
H616 H 0.64546 0.00293 0.84185 0.0
H617 H 0.66032 0.06135 0.7971 0.0
H618 H 0.67984 0.92558 0.86825 0.0
H619 H 0.69293 0.85723 0.84048 0.0
C620 C 0.26285 0.43934 0.92698 0.0
C621 C 0.30453 0.48507 0.93462 0.0
C622 C 0.22805 0.5531 0.94112 0.0
C623 C 0.18644 0.50931 0.92651 0.0
N624 N 0.16657 0.41174 0.89416 0.0
N625 N 0.3267 0.5862 0.92919 0.0
C626 C 0.20426 0.45248 0.91645 0.0
C627 C 0.28702 0.54217 0.93573 0.0
N628 N 0.27857 0.3836 0.9314 0.0
N629 N 0.21152 0.6042 0.96301 0.0
H630 H 0.37012 0.57907 0.92209 0.0
H631 H 0.31432 0.62798 0.922 0.0
H632 H 0.1685 0.61288 0.97029 0.0
H633 H 0.24092 0.63602 0.97784 0.0
H634 H 0.24865 0.34879 0.93201 0.0
H635 H 0.32136 0.37268 0.93751 0.0
H636 H 0.18121 0.37388 0.87689 0.0
H637 H 0.12321 0.41902 0.88595 0.0
C638 C 0.68502 0.07499 0.26181 0.0
C639 C 0.73081 0.11351 0.27918 0.0
C640 C 0.79715 0.03392 0.27763 0.0
C641 C 0.74885 0.99434 0.27107 0.0
N642 N 0.64597 0.97724 0.25912 0.0
N643 N 0.83249 0.1323 0.29631 0.0
C644 C 0.69265 0.01493 0.26309 0.0
C645 C 0.78773 0.09389 0.28441 0.0
N646 N 0.6345 0.09642 0.24253 0.0
N647 N 0.85192 0.0144 0.27497 0.0
H648 H 0.82802 0.17665 0.29662 0.0
H649 H 0.87399 0.12061 0.307 0.0
H650 H 0.86064 0.97111 0.26949 0.0
H651 H 0.88909 0.04106 0.27387 0.0
H652 H 0.60119 0.07101 0.2242 0.0
H653 H 0.62861 0.14057 0.23919 0.0
H654 H 0.60353 0.98991 0.26084 0.0
H655 H 0.64953 0.93284 0.25938 0.0
C656 C 0.83568 0.03872 0.91616 0.0
C657 C 0.87416 0.01689 0.95703 0.0
C658 C 0.7962 0.0117 0.02583 0.0
C659 C 0.75619 0.02079 0.9815 0.0
N660 N 0.74118 0.0764 0.89779 0.0
N661 N 0.89334 -0.00027 0.05661 0.0
C662 C 0.77688 0.04541 0.9307 0.0
C663 C 0.85583 0.01104 0.01387 0.0
N664 N 0.85481 0.05009 0.86285 0.0
N665 N 0.77683 0.00081 0.07913 0.0
H666 H 0.93784 0.99782 0.05139 0.0
H667 H 0.93784 0.99782 0.05139 0.0
H668 H 0.73312 0.0023 0.0891 0.0
H669 H 0.8046 0.9922 0.11282 0.0
H670 H 0.82751 0.05975 0.8293 0.0
H671 H 0.89826 0.04791 0.85228 0.0
H672 H 0.75542 0.09961 0.86273 0.0
H673 H 0.6994 0.08502 0.91021 0.0
C674 C 0.32459 0.58561 0.79954 0.0
C675 C 0.27011 0.61054 0.79466 0.0
C676 C 0.22336 0.51587 0.77828 0.0
C677 C 0.2769 0.48947 0.78326 0.0
N678 N 0.38104 0.50047 0.7866 0.0
N679 N 0.17494 0.60199 0.7544 0.0
C680 C 0.32859 0.52473 0.7903 0.0
C681 C 0.22196 0.5764 0.77596 0.0
N682 N 0.37181 0.61999 0.81375 0.0
N683 N 0.17303 0.4834 0.7797 0.0
H684 H 0.17217 0.64662 0.75292 0.0
H685 H 0.14402 0.57855 0.73051 0.0
H686 H 0.17192 0.43926 0.78696 0.0
H687 H 0.13262 0.50104 0.77956 0.0
H688 H 0.4122 0.60451 0.82319 0.0
H689 H 0.36946 0.66455 0.81829 0.0
H690 H 0.4202 0.52411 0.78661 0.0
H691 H 0.38536 0.45653 0.7797 0.0
C692 C 0.22768 0.53044 0.55666 0.0
C693 C 0.18814 0.53656 0.5113 0.0
C694 C 0.26708 0.56773 0.45005 0.0
C695 C 0.30616 0.54405 0.48933 0.0
N696 N 0.32726 0.51956 0.58605 0.0
N697 N 0.1678 0.59054 0.42774 0.0
C698 C 0.28784 0.5324 0.54533 0.0
C699 C 0.20695 0.56517 0.46188 0.0
N700 N 0.2066 0.52128 0.6097 0.0
N701 N 0.28796 0.5904 0.40092 0.0
H702 H 0.12452 0.5926 0.43868 0.0
H703 H 0.17883 0.61483 0.39235 0.0
H704 H 0.33216 0.59808 0.39537 0.0
H705 H 0.26235 0.60231 0.36689 0.0
H706 H 0.23213 0.51871 0.64597 0.0
H707 H 0.16226 0.5207 0.61737 0.0
H708 H 0.31664 0.504 0.62594 0.0
H709 H 0.37139 0.52581 0.57987 0.0
C710 C 0.79953 0.80516 0.96239 0.0
C711 C 0.77989 0.75089 0.94061 0.0
C712 C 0.74918 0.72094 0.03559 0.0
C713 C 0.76594 0.77659 0.0558 0.0
N714 N 0.81847 0.86732 0.04203 0.0
N715 N 0.75331 0.6512 0.95908 0.0
C716 C 0.79518 0.81676 0.02041 0.0
C717 C 0.75999 0.70679 0.97814 0.0
N718 N 0.82096 0.84798 0.92888 0.0
N719 N 0.72098 0.68278 0.07048 0.0
H720 H 0.76311 0.63915 0.91782 0.0
H721 H 0.74368 0.6163 0.98525 0.0
H722 H 0.71525 0.69123 0.11336 0.0
H723 H 0.7011 0.64414 0.05658 0.0
H724 H 0.82541 0.84413 0.88539 0.0
H725 H 0.82541 0.84413 0.88539 0.0
H726 H 0.84221 0.89638 0.01718 0.0
H727 H 0.81811 0.87783 0.08501 0.0
C728 C 0.44109 0.51452 0.28524 0.0
C729 C 0.49677 0.523 0.30884 0.0
C730 C 0.53683 0.52362 0.21298 0.0
C731 C 0.48107 0.50717 0.19106 0.0
N732 N 0.3854 0.46709 0.21121 0.0
N733 N 0.59991 0.52843 0.2959 0.0
C734 C 0.43488 0.49624 0.22881 0.0
C735 C 0.54559 0.52563 0.27296 0.0
N736 N 0.39393 0.52565 0.31657 0.0
N737 N 0.58042 0.53956 0.17724 0.0
H738 H 0.60754 0.53154 0.3394 0.0
H739 H 0.63697 0.52413 0.27198 0.0
H740 H 0.57548 0.53892 0.13338 0.0
H741 H 0.61991 0.55774 0.19129 0.0
H742 H 0.35196 0.52362 0.30009 0.0
H743 H 0.3986 0.54358 0.35688 0.0
H744 H 0.35263 0.45463 0.23905 0.0
H745 H 0.38041 0.44949 0.17064 0.0
C746 C 0.72345 0.22604 0.50431 0.0
C747 C 0.75511 0.27162 0.47749 0.0
C748 C 0.81815 0.28126 0.56128 0.0
C749 C 0.78522 0.23695 0.58834 0.0
N750 N 0.6976 0.17805 0.592 0.0
N751 N 0.81961 0.35524 0.48971 0.0
C752 C 0.73451 0.21344 0.56211 0.0
C753 C 0.79858 0.30318 0.50884 0.0
N754 N 0.68606 0.19161 0.4736 0.0
N755 N 0.86904 0.3013 0.58481 0.0
H756 H 0.80437 0.37397 0.45276 0.0
H757 H 0.84686 0.38265 0.51395 0.0
H758 H 0.88354 0.28656 0.6237 0.0
H759 H 0.89804 0.32911 0.56396 0.0
H760 H 0.66605 0.15437 0.48903 0.0
H761 H 0.67787 0.1984 0.43145 0.0
H762 H 0.65689 0.16447 0.57703 0.0
H763 H 0.70543 0.16655 0.63389 0.0
C764 C 0.95886 0.41424 0.7026 0.0
C765 C 0.98245 0.45534 0.66422 0.0
C766 C -0.00082 0.5228 0.74206 0.0
C767 C 0.97384 0.48262 0.78066 0.0
N768 N 0.90555 0.40135 0.78903 0.0
N769 N 0.00853 0.55505 0.64521 0.0
C770 C 0.94583 0.43181 0.75831 0.0
C771 C 0.99492 0.51243 0.68296 0.0
N772 N 0.95071 0.35801 0.68689 0.0
N773 N 0.03537 0.5657 0.76155 0.0
H774 H 0.00914 0.54838 0.60165 0.0
H775 H 0.01389 0.59823 0.65685 0.0
H776 H 0.05965 0.55773 0.7974 0.0
H777 H 0.05132 0.59976 0.73721 0.0
H778 H 0.93718 0.32606 0.71506 0.0
H779 H 0.96174 0.34299 0.64707 0.0
H780 H 0.88123 0.36638 0.77227 0.0
H781 H 0.89063 0.41591 0.82779 0.0
C782 C 0.72172 0.92789 0.41994 0.0
C783 C 0.75571 0.97159 0.44812 0.0
C784 C 0.66683 0.01891 0.47151 0.0
C785 C 0.63645 0.98535 0.43056 0.0
N786 N 0.63448 0.90537 0.36589 0.0
N787 N 0.75928 0.06438 0.49406 0.0
C788 C 0.66353 0.93862 0.4051 0.0
C789 C 0.72779 0.01833 0.47303 0.0
N790 N 0.74369 0.87529 0.41011 0.0
N791 N 0.63736 0.0508 0.50898 0.0
H792 H 0.80303 0.06983 0.48593 0.0
H793 H 0.74113 0.09929 0.51358 0.0
H794 H 0.59235 0.05163 0.5081 0.0
H795 H 0.65746 0.07013 0.54426 0.0
H796 H 0.71883 0.84059 0.39392 0.0
H797 H 0.78532 0.86507 0.42248 0.0
H798 H 0.65546 0.87678 0.34005 0.0
H799 H 0.59092 0.91009 0.35668 0.0
loop_
_geom_bond_atom_site_label_1
_geom_bond_atom_site_label_2
_geom_bond_distance
_geom_bond_site_symmetry_2
_ccdc_geom_bond_type
Mg0 O1 2.028 . S
Mg0 O7 1.986 . S
Mg0 O9 2.114 . S
Mg0 O10 2.251 . S
Mg0 O13 2.010 . S
O1 Mg0 2.028 . S
O1 C4 1.250 . S
O2 Mg3 2.028 . S
O2 C4 1.248 . S
Mg3 O2 2.028 . S
Mg3 O8 2.032 . S
Mg3 O10 2.079 . S
C4 O1 1.250 . S
C4 O2 1.248 . S
C5 O6 1.264 . S
C5 O13 1.249 . S
O6 C5 1.264 . S
O7 Mg0 1.986 . S
O7 C11 1.246 . S
O8 Mg3 2.032 . S
O8 C11 1.259 . S
O9 Mg0 2.114 . S
O9 C12 1.252 . S
O10 Mg0 2.251 . S
O10 Mg3 2.079 . S
O10 C12 1.273 . S
C11 O7 1.246 . S
C11 O8 1.259 . S
C12 O9 1.252 . S
C12 O10 1.273 . S
O13 Mg0 2.010 . S
O13 C5 1.249 . S
Mg14 O15 2.028 1_565 S
Mg14 O21 1.986 . S
Mg14 O23 2.114 . S
Mg14 O24 2.251 1_565 S
Mg14 O27 2.010 1_655 S
O15 Mg14 2.028 1_545 S
O15 C18 1.250 . S
O16 Mg17 2.028 . S
O16 C18 1.248 . S
Mg17 O16 2.028 . S
Mg17 O22 2.032 . S
Mg17 O24 2.079 . S
C18 O15 1.250 . S
C18 O16 1.248 . S
C19 O20 1.264 . S
C19 O27 1.249 . S
O20 C19 1.264 . S
O21 Mg14 1.986 . S
O21 C25 1.246 1_565 S
O22 Mg17 2.032 . S
O22 C25 1.259 . S
O23 Mg14 2.114 . S
O23 C26 1.252 1_565 S
O24 Mg14 2.251 1_545 S
O24 Mg17 2.079 . S
O24 C26 1.273 . S
C25 O21 1.246 1_545 S
C25 O22 1.259 . S
C26 O23 1.252 1_545 S
C26 O24 1.273 . S
O27 Mg14 2.010 1_455 S
O27 C19 1.249 . S
Mg28 O29 2.028 . S
Mg28 O35 1.986 . S
Mg28 O37 2.114 . S
Mg28 O38 2.251 . S
Mg28 O41 2.010 . S
O29 Mg28 2.028 . S
O29 C32 1.250 . S
O30 Mg31 2.028 . S
O30 C32 1.248 . S
Mg31 O30 2.028 . S
Mg31 O36 2.032 . S
Mg31 O38 2.079 . S
C32 O29 1.250 . S
C32 O30 1.248 . S
C33 O34 1.264 . S
C33 O41 1.249 . S
O34 C33 1.264 . S
O35 Mg28 1.986 . S
O35 C39 1.246 . S
O36 Mg31 2.032 . S
O36 C39 1.259 . S
O37 Mg28 2.114 . S
O37 C40 1.252 . S
O38 Mg28 2.251 . S
O38 Mg31 2.079 . S
O38 C40 1.273 . S
C39 O35 1.246 . S
C39 O36 1.259 . S
C40 O37 1.252 . S
C40 O38 1.273 . S
O41 Mg28 2.010 . S
O41 C33 1.249 . S
Mg42 O43 2.028 1_556 S
Mg42 O49 1.986 . S
Mg42 O51 2.114 . S
Mg42 O52 2.251 1_556 S
Mg42 O55 2.010 1_565 S
O43 Mg42 2.028 1_554 S
O43 C46 1.250 . S
O44 Mg45 2.028 . S
O44 C46 1.248 . S
Mg45 O44 2.028 . S
Mg45 O50 2.032 . S
Mg45 O52 2.079 . S
C46 O43 1.250 . S
C46 O44 1.248 . S
C47 O48 1.264 . S
C47 O55 1.249 . S
O48 C47 1.264 . S
O49 Mg42 1.986 . S
O49 C53 1.246 1_556 S
O50 Mg45 2.032 . S
O50 C53 1.259 . S
O51 Mg42 2.114 . S
O51 C54 1.252 1_556 S
O52 Mg42 2.251 1_554 S
O52 Mg45 2.079 . S
O52 C54 1.273 . S
C53 O49 1.246 1_554 S
C53 O50 1.259 . S
C54 O51 1.252 1_554 S
C54 O52 1.273 . S
O55 Mg42 2.010 1_545 S
O55 C47 1.249 . S
Mg56 O57 2.028 . S
Mg56 O63 1.986 . S
Mg56 O65 2.114 . S
Mg56 O66 2.251 . S
Mg56 O69 2.010 . S
O57 Mg56 2.028 . S
O57 C60 1.250 . S
O58 Mg59 2.028 . S
O58 C60 1.248 . S
Mg59 O58 2.028 . S
Mg59 O64 2.032 . S
Mg59 O66 2.079 . S
C60 O57 1.250 . S
C60 O58 1.248 . S
C61 O62 1.264 . S
C61 O69 1.249 . S
O62 C61 1.264 . S
O63 Mg56 1.986 . S
O63 C67 1.246 . S
O64 Mg59 2.032 . S
O64 C67 1.259 . S
O65 Mg56 2.114 . S
O65 C68 1.252 . S
O66 Mg56 2.251 . S
O66 Mg59 2.079 . S
O66 C68 1.273 . S
C67 O63 1.246 . S
C67 O64 1.259 . S
C68 O65 1.252 . S
C68 O66 1.273 . S
O69 Mg56 2.010 . S
O69 C61 1.249 . S
Mg70 O71 2.028 1_545 S
Mg70 O77 1.986 . S
Mg70 O79 2.114 1_545 S
Mg70 O80 2.251 . S
Mg70 O83 2.010 1_545 S
O71 Mg70 2.028 1_565 S
O71 C74 1.250 1_565 S
O72 Mg73 2.028 . S
O72 C74 1.248 . S
Mg73 O72 2.028 . S
Mg73 O78 2.032 . S
Mg73 O80 2.079 . S
C74 O71 1.250 1_545 S
C74 O72 1.248 . S
C75 O76 1.264 . S
C75 O83 1.249 . S
O76 C75 1.264 . S
O77 Mg70 1.986 . S
O77 C81 1.246 . S
O78 Mg73 2.032 . S
O78 C81 1.259 . S
O79 Mg70 2.114 1_565 S
O79 C82 1.252 . S
O80 Mg70 2.251 . S
O80 Mg73 2.079 . S
O80 C82 1.273 1_545 S
C81 O77 1.246 . S
C81 O78 1.259 . S
C82 O79 1.252 . S
C82 O80 1.273 1_565 S
O83 Mg70 2.010 1_565 S
O83 C75 1.249 . S
Mg84 O85 2.028 . S
Mg84 O91 1.986 . S
Mg84 O93 2.114 . S
Mg84 O94 2.251 . S
Mg84 O97 2.010 . S
O85 Mg84 2.028 . S
O85 C88 1.250 . S
O86 Mg87 2.028 . S
O86 C88 1.248 . S
Mg87 O86 2.028 . S
Mg87 O92 2.032 . S
Mg87 O94 2.079 . S
C88 O85 1.250 . S
C88 O86 1.248 . S
C89 O90 1.264 . S
C89 O97 1.249 . S
O90 C89 1.264 . S
O91 Mg84 1.986 . S
O91 C95 1.246 . S
O92 Mg87 2.032 . S
O92 C95 1.259 . S
O93 Mg84 2.114 . S
O93 C96 1.252 . S
O94 Mg84 2.251 . S
O94 Mg87 2.079 . S
O94 C96 1.273 . S
C95 O91 1.246 . S
C95 O92 1.259 . S
C96 O93 1.252 . S
C96 O94 1.273 . S
O97 Mg84 2.010 . S
O97 C89 1.249 . S
Mg98 O99 2.022 1_455 S
Mg98 O105 1.987 . S
Mg98 O107 2.113 1_465 S
Mg98 O108 2.249 1_455 S
Mg98 O111 2.014 1_566 S
O99 Mg98 2.022 1_655 S
O99 C102 1.250 . S
O100 Mg101 2.028 . S
O100 C102 1.248 . S
Mg101 O100 2.028 . S
Mg101 O106 2.032 . S
Mg101 O108 2.079 . S
C102 O99 1.250 . S
C102 O100 1.248 . S
C103 O104 1.264 . S
C103 O111 1.249 . S
O104 C103 1.264 . S
O105 Mg98 1.987 . S
O105 C109 1.246 1_455 S
O106 Mg101 2.032 . S
O106 C109 1.259 . S
O107 Mg98 2.113 1_645 S
O107 C110 1.252 . S
O108 Mg98 2.249 1_655 S
O108 Mg101 2.079 . S
O108 C110 1.273 1_565 S
C109 O105 1.246 1_655 S
C109 O106 1.259 . S
C110 O107 1.252 . S
C110 O108 1.273 1_545 S
O111 Mg98 2.014 1_544 S
O111 C103 1.249 . S
Mg112 O113 2.028 . S
Mg112 O119 1.986 . S
Mg112 O121 2.114 . S
Mg112 O122 2.251 . S
Mg112 O125 2.010 . S
O113 Mg112 2.028 . S
O113 C116 1.250 . S
O114 Mg115 2.028 . S
O114 C116 1.248 . S
Mg115 O114 2.028 . S
Mg115 O120 2.032 . S
Mg115 O122 2.079 . S
C116 O113 1.250 . S
C116 O114 1.248 . S
C117 O118 1.264 . S
C117 O125 1.249 . S
O118 C117 1.264 . S
O119 Mg112 1.986 . S
O119 C123 1.246 . S
O120 Mg115 2.032 . S
O120 C123 1.259 . S
O121 Mg112 2.114 . S
O121 C124 1.252 . S
O122 Mg112 2.251 . S
O122 Mg115 2.079 . S
O122 C124 1.273 . S
C123 O119 1.246 . S
C123 O120 1.259 . S
C124 O121 1.252 . S
C124 O122 1.273 . S
O125 Mg112 2.010 . S
O125 C117 1.249 . S
Mg126 O127 2.028 1_655 S
Mg126 O133 1.986 . S
Mg126 O135 2.114 . S
Mg126 O136 2.251 1_655 S
Mg126 O139 2.010 1_556 S
O127 Mg126 2.028 1_455 S
O127 C130 1.250 . S
O128 Mg129 2.028 . S
O128 C130 1.248 . S
Mg129 O128 2.028 . S
Mg129 O134 2.032 . S
Mg129 O136 2.079 . S
C130 O127 1.250 . S
C130 O128 1.248 . S
C131 O132 1.264 . S
C131 O139 1.249 . S
O132 C131 1.264 . S
O133 Mg126 1.986 . S
O133 C137 1.246 1_655 S
O134 Mg129 2.032 . S
O134 C137 1.259 . S
O135 Mg126 2.114 . S
O135 C138 1.252 1_655 S
O136 Mg126 2.251 1_455 S
O136 Mg129 2.079 . S
O136 C138 1.273 . S
C137 O133 1.246 1_455 S
C137 O134 1.259 . S
C138 O135 1.252 1_455 S
C138 O136 1.273 . S
O139 Mg126 2.010 1_554 S
O139 C131 1.249 . S
Mg140 O141 2.028 . S
Mg140 O147 1.986 . S
Mg140 O149 2.114 . S
Mg140 O150 2.251 . S
Mg140 O153 2.010 . S
O141 Mg140 2.028 . S
O141 C144 1.250 . S
O142 Mg143 2.028 . S
O142 C144 1.248 . S
Mg143 O142 2.028 . S
Mg143 O148 2.032 . S
Mg143 O150 2.079 . S
C144 O141 1.250 . S
C144 O142 1.248 . S
C145 O146 1.264 . S
C145 O153 1.249 . S
O146 C145 1.264 . S
O147 Mg140 1.986 . S
O147 C151 1.246 . S
O148 Mg143 2.032 . S
O148 C151 1.259 . S
O149 Mg140 2.114 . S
O149 C152 1.252 . S
O150 Mg140 2.251 . S
O150 Mg143 2.079 . S
O150 C152 1.273 . S
C151 O147 1.246 . S
C151 O148 1.259 . S
C152 O149 1.252 . S
C152 O150 1.273 . S
O153 Mg140 2.010 . S
O153 C145 1.249 . S
Mg154 O155 2.028 . S
Mg154 O161 1.986 . S
Mg154 O163 2.114 1_455 S
Mg154 O164 2.251 . S
Mg154 O167 2.010 1_455 S
O155 Mg154 2.028 . S
O155 C158 1.250 . S
O156 Mg157 2.028 . S
O156 C158 1.248 . S
Mg157 O156 2.028 . S
Mg157 O162 2.032 . S
Mg157 O164 2.079 . S
C158 O155 1.250 . S
C158 O156 1.248 . S
C159 O160 1.264 . S
C159 O167 1.249 . S
O160 C159 1.264 . S
O161 Mg154 1.986 . S
O161 C165 1.246 . S
O162 Mg157 2.032 . S
O162 C165 1.259 . S
O163 Mg154 2.114 1_655 S
O163 C166 1.252 . S
O164 Mg154 2.251 . S
O164 Mg157 2.079 . S
O164 C166 1.273 1_455 S
C165 O161 1.246 . S
C165 O162 1.259 . S
C166 O163 1.252 . S
C166 O164 1.273 1_655 S
O167 Mg154 2.010 1_655 S
O167 C159 1.249 . S
Mg168 O169 2.028 1_554 S
Mg168 O175 1.986 . S
Mg168 O177 2.114 1_554 S
Mg168 O178 2.251 . S
Mg168 O181 2.010 1_554 S
O169 Mg168 2.028 1_556 S
O169 C172 1.250 1_556 S
O170 Mg171 2.028 . S
O170 C172 1.248 . S
Mg171 O170 2.028 . S
Mg171 O176 2.032 . S
Mg171 O178 2.079 . S
C172 O169 1.250 1_554 S
C172 O170 1.248 . S
C173 O174 1.264 . S
C173 O181 1.249 . S
O174 C173 1.264 . S
O175 Mg168 1.986 . S
O175 C179 1.246 . S
O176 Mg171 2.032 . S
O176 C179 1.259 . S
O177 Mg168 2.114 1_556 S
O177 C180 1.252 . S
O178 Mg168 2.251 . S
O178 Mg171 2.079 . S
O178 C180 1.273 1_554 S
C179 O175 1.246 . S
C179 O176 1.259 . S
C180 O177 1.252 . S
C180 O178 1.273 1_556 S
O181 Mg168 2.010 1_556 S
O181 C173 1.249 . S
Mg182 O183 2.028 . S
Mg182 O189 1.986 . S
Mg182 O191 2.114 . S
Mg182 O192 2.251 . S
Mg182 O195 2.010 . S
O183 Mg182 2.028 . S
O183 C186 1.250 . S
O184 Mg185 2.028 . S
O184 C186 1.248 . S
Mg185 O184 2.028 . S
Mg185 O190 2.032 . S
Mg185 O192 2.079 . S
C186 O183 1.250 . S
C186 O184 1.248 . S
C187 O188 1.264 . S
C187 O195 1.249 . S
O188 C187 1.264 . S
O189 Mg182 1.986 . S
O189 C193 1.246 . S
O190 Mg185 2.032 . S
O190 C193 1.259 . S
O191 Mg182 2.114 . S
O191 C194 1.252 . S
O192 Mg182 2.251 . S
O192 Mg185 2.079 . S
O192 C194 1.273 . S
C193 O189 1.246 . S
C193 O190 1.259 . S
C194 O191 1.252 . S
C194 O192 1.273 . S
O195 Mg182 2.010 . S
O195 C187 1.249 . S
Mg196 O197 2.028 . S
Mg196 O203 1.986 . S
Mg196 O205 2.114 . S
Mg196 O206 2.251 . S
Mg196 O209 2.010 . S
O197 Mg196 2.028 . S
O197 C200 1.250 . S
O198 Mg199 2.028 . S
O198 C200 1.248 . S
Mg199 O198 2.028 . S
Mg199 O204 2.032 . S
Mg199 O206 2.079 . S
C200 O197 1.250 . S
C200 O198 1.248 . S
C201 O202 1.264 . S
C201 O209 1.249 . S
O202 C201 1.264 . S
O203 Mg196 1.986 . S
O203 C207 1.246 . S
O204 Mg199 2.032 . S
O204 C207 1.259 . S
O205 Mg196 2.114 . S
O205 C208 1.252 . S
O206 Mg196 2.251 . S
O206 Mg199 2.079 . S
O206 C208 1.273 . S
C207 O203 1.246 . S
C207 O204 1.259 . S
C208 O205 1.252 . S
C208 O206 1.273 . S
O209 Mg196 2.010 . S
O209 C201 1.249 . S
Mg210 O211 2.028 . S
Mg210 O217 1.986 . S
Mg210 O219 2.114 . S
Mg210 O220 2.251 . S
Mg210 O223 2.010 . S
O211 Mg210 2.028 . S
O211 C214 1.250 . S
O212 Mg213 2.028 . S
O212 C214 1.248 . S
Mg213 O212 2.028 . S
Mg213 O218 2.032 . S
Mg213 O220 2.079 . S
C214 O211 1.250 . S
C214 O212 1.248 . S
C215 O216 1.264 . S
C215 O223 1.249 . S
O216 C215 1.264 . S
O217 Mg210 1.986 . S
O217 C221 1.246 . S
O218 Mg213 2.032 . S
O218 C221 1.259 . S
O219 Mg210 2.114 . S
O219 C222 1.252 . S
O220 Mg210 2.251 . S
O220 Mg213 2.079 . S
O220 C222 1.273 . S
C221 O217 1.246 . S
C221 O218 1.259 . S
C222 O219 1.252 . S
C222 O220 1.273 . S
O223 Mg210 2.010 . S
O223 C215 1.249 . S
C224 C225 1.363 . S
C224 C230 1.379 . S
C224 N232 1.356 . S
C225 C224 1.363 . S
C225 C231 1.363 . S
C226 C227 1.363 . S
C226 C231 1.379 . S
C226 N233 1.356 . S
C227 C226 1.363 . S
C227 C230 1.363 . S
N228 C230 1.356 . S
N228 H240 0.984 1_545 S
N228 H241 0.985 . S
N229 C231 1.356 . S
N229 H234 0.984 . S
N229 H235 0.985 . S
C230 C224 1.379 . S
C230 C227 1.363 . S
C230 N228 1.356 . S
C231 C225 1.363 . S
C231 C226 1.379 . S
C231 N229 1.356 . S
N232 C224 1.356 . S
N232 H238 0.984 . S
N232 H239 0.984 . S
N233 C226 1.356 . S
N233 H236 0.984 . S
N233 H237 0.985 . S
H234 N229 0.984 . S
H235 N229 0.985 . S
H236 N233 0.984 . S
H237 N233 0.985 . S
H238 N232 0.984 . S
H239 N232 0.984 . S
H240 N228 0.984 1_565 S
H241 N228 0.985 . S
C242 C243 1.363 . S
C242 C248 1.379 . S
C242 N250 1.356 . S
C243 C242 1.363 . S
C243 C249 1.363 . S
C244 C245 1.363 . S
C244 C249 1.379 . S
C244 N251 1.356 . S
C245 C244 1.363 . S
C245 C248 1.363 . S
N246 C248 1.356 . S
N246 H258 0.984 . S
N246 H259 0.985 . S
N247 C249 1.356 . S
N247 H252 0.984 . S
N247 H253 0.985 . S
C248 C242 1.379 . S
C248 C245 1.363 . S
C248 N246 1.356 . S
C249 C243 1.363 . S
C249 C244 1.379 . S
C249 N247 1.356 . S
N250 C242 1.356 . S
N250 H256 0.984 . S
N250 H257 0.984 . S
N251 C244 1.356 . S
N251 H254 0.984 . S
N251 H255 0.985 . S
H252 N247 0.984 . S
H253 N247 0.985 . S
H254 N251 0.984 . S
H255 N251 0.985 . S
H256 N250 0.984 . S
H257 N250 0.984 . S
H258 N246 0.984 . S
H259 N246 0.985 . S
C260 C261 1.363 . S
C260 C266 1.379 . S
C260 N268 1.356 . S
C261 C260 1.363 . S
C261 C267 1.363 . S
C262 C263 1.363 . S
C262 C267 1.379 . S
C262 N269 1.356 . S
C263 C262 1.363 . S
C263 C266 1.363 . S
N264 C266 1.356 . S
N264 H276 0.984 . S
N264 H277 0.985 . S
N265 C267 1.356 . S
N265 H270 0.984 . S
N265 H271 0.985 . S
C266 C260 1.379 . S
C266 C263 1.363 . S
C266 N264 1.356 . S
C267 C261 1.363 . S
C267 C262 1.379 . S
C267 N265 1.356 . S
N268 C260 1.356 . S
N268 H274 0.984 . S
N268 H275 0.984 . S
N269 C262 1.356 . S
N269 H272 0.984 . S
N269 H273 0.985 . S
H270 N265 0.984 . S
H271 N265 0.985 . S
H272 N269 0.984 . S
H273 N269 0.985 . S
H274 N268 0.984 . S
H275 N268 0.984 . S
H276 N264 0.984 . S
H277 N264 0.985 . S
C278 C279 1.363 . S
C278 C284 1.379 . S
C278 N286 1.356 . S
C279 C278 1.363 . S
C279 C285 1.363 . S
C280 C281 1.363 . S
C280 C285 1.379 . S
C280 N287 1.356 . S
C281 C280 1.363 . S
C281 C284 1.363 . S
N282 C284 1.356 . S
N282 H294 0.984 . S
N282 H295 0.985 . S
N283 C285 1.356 . S
N283 H288 0.984 1_556 S
N283 H289 0.985 1_556 S
C284 C278 1.379 . S
C284 C281 1.363 . S
C284 N282 1.356 . S
C285 C279 1.363 . S
C285 C280 1.379 . S
C285 N283 1.356 . S
N286 C278 1.356 . S
N286 H292 0.984 . S
N286 H293 0.984 . S
N287 C280 1.356 . S
N287 H290 0.984 . S
N287 H291 0.985 . S
H288 N283 0.984 1_554 S
H289 N283 0.985 1_554 S
H290 N287 0.984 . S
H291 N287 0.985 . S
H292 N286 0.984 . S
H293 N286 0.984 . S
H294 N282 0.984 . S
H295 N282 0.985 . S
C296 C297 1.363 . S
C296 C302 1.379 . S
C296 N304 1.356 . S
C297 C296 1.363 . S
C297 C303 1.363 . S
C298 C299 1.363 . S
C298 C303 1.379 . S
C298 N305 1.356 . S
C299 C298 1.363 . S
C299 C302 1.363 . S
N300 C302 1.356 . S
N300 H312 0.984 . S
N300 H313 0.985 . S
N301 C303 1.356 . S
N301 H306 0.984 . S
N301 H307 0.985 . S
C302 C296 1.379 . S
C302 C299 1.363 . S
C302 N300 1.356 . S
C303 C297 1.363 . S
C303 C298 1.379 . S
C303 N301 1.356 . S
N304 C296 1.356 . S
N304 H310 0.984 . S
N304 H311 0.984 . S
N305 C298 1.356 . S
N305 H308 0.984 . S
N305 H309 0.985 . S
H306 N301 0.984 . S
H307 N301 0.985 . S
H308 N305 0.984 . S
H309 N305 0.985 . S
H310 N304 0.984 . S
H311 N304 0.984 . S
H312 N300 0.984 . S
H313 N300 0.985 . S
C314 C315 1.363 . S
C314 C320 1.379 . S
C314 N322 1.356 . S
C315 C314 1.363 . S
C315 C321 1.363 . S
C316 C317 1.363 . S
C316 C321 1.379 . S
C316 N323 1.356 . S
C317 C316 1.363 . S
C317 C320 1.363 . S
N318 C320 1.356 . S
N318 H330 0.984 . S
N318 H331 0.985 . S
N319 C321 1.356 . S
N319 H324 0.984 . S
N319 H325 0.985 . S
C320 C314 1.379 . S
C320 C317 1.363 . S
C320 N318 1.356 . S
C321 C315 1.363 . S
C321 C316 1.379 . S
C321 N319 1.356 . S
N322 C314 1.356 . S
N322 H328 0.984 . S
N322 H329 0.984 . S
N323 C316 1.356 . S
N323 H326 0.984 . S
N323 H327 0.985 . S
H324 N319 0.984 . S
H325 N319 0.985 . S
H326 N323 0.984 . S
H327 N323 0.985 . S
H328 N322 0.984 . S
H329 N322 0.984 . S
H330 N318 0.984 . S
H331 N318 0.985 . S
C332 C333 1.363 . S
C332 C338 1.379 . S
C332 N340 1.356 . S
C333 C332 1.363 . S
C333 C339 1.363 . S
C334 C335 1.363 . S
C334 C339 1.379 . S
C334 N341 1.356 . S
C335 C334 1.363 . S
C335 C338 1.363 . S
N336 C338 1.356 . S
N336 H348 0.984 . S
N336 H349 0.985 . S
N337 C339 1.356 . S
N337 H342 0.984 . S
N337 H343 0.985 . S
C338 C332 1.379 . S
C338 C335 1.363 . S
C338 N336 1.356 . S
C339 C333 1.363 . S
C339 C334 1.379 . S
C339 N337 1.356 . S
N340 C332 1.356 . S
N340 H346 0.984 1_655 S
N340 H347 0.984 . S
N341 C334 1.356 . S
N341 H344 0.984 . S
N341 H345 0.985 . S
H342 N337 0.984 . S
H343 N337 0.985 . S
H344 N341 0.984 . S
H345 N341 0.985 . S
H346 N340 0.984 1_455 S
H347 N340 0.984 . S
H348 N336 0.984 . S
H349 N336 0.985 . S
C350 C351 1.363 . S
C350 C356 1.379 . S
C350 N358 1.356 . S
C351 C350 1.363 . S
C351 C357 1.363 . S
C352 C353 1.363 . S
C352 C357 1.379 . S
C352 N359 1.356 . S
C353 C352 1.363 . S
C353 C356 1.363 . S
N354 C356 1.356 . S
N354 H366 0.984 . S
N354 H367 0.985 . S
N355 C357 1.356 . S
N355 H360 0.984 . S
N355 H361 0.985 . S
C356 C350 1.379 . S
C356 C353 1.363 . S
C356 N354 1.356 . S
C357 C351 1.363 . S
C357 C352 1.379 . S
C357 N355 1.356 . S
N358 C350 1.356 . S
N358 H364 0.984 . S
N358 H365 0.984 . S
N359 C352 1.356 . S
N359 H362 0.984 . S
N359 H363 0.985 . S
H360 N355 0.984 . S
H361 N355 0.985 . S
H362 N359 0.984 . S
H363 N359 0.985 . S
H364 N358 0.984 . S
H365 N358 0.984 . S
H366 N354 0.984 . S
H367 N354 0.985 . S
C368 C369 1.363 . S
C368 C374 1.379 . S
C368 N376 1.356 . S
C369 C368 1.363 . S
C369 C375 1.363 . S
C370 C371 1.363 . S
C370 C375 1.379 . S
C370 N377 1.356 . S
C371 C370 1.363 . S
C371 C374 1.363 . S
N372 C374 1.356 . S
N372 H384 0.984 . S
N372 H385 0.985 . S
N373 C375 1.356 . S
N373 H378 0.984 . S
N373 H379 0.985 . S
C374 C368 1.379 . S
C374 C371 1.363 . S
C374 N372 1.356 . S
C375 C369 1.363 . S
C375 C370 1.379 . S
C375 N373 1.356 . S
N376 C368 1.356 . S
N376 H382 0.984 . S
N376 H383 0.984 . S
N377 C370 1.356 . S
N377 H380 0.984 . S
N377 H381 0.985 . S
H378 N373 0.984 . S
H379 N373 0.985 . S
H380 N377 0.984 . S
H381 N377 0.985 . S
H382 N376 0.984 . S
H383 N376 0.984 . S
H384 N372 0.984 . S
H385 N372 0.985 . S
C386 C387 1.363 . S
C386 C392 1.379 . S
C386 N394 1.356 . S
C387 C386 1.363 . S
C387 C393 1.363 1_645 S
C388 C389 1.363 1_455 S
C388 C393 1.379 . S
C388 N395 1.356 . S
C389 C388 1.363 1_655 S
C389 C392 1.363 1_565 S
N390 C392 1.356 . S
N390 H402 0.984 . S
N390 H403 0.985 . S
N391 C393 1.356 . S
N391 H396 0.984 . S
N391 H397 0.985 . S
C392 C386 1.379 . S
C392 C389 1.363 1_545 S
C392 N390 1.356 . S
C393 C387 1.363 1_465 S
C393 C388 1.379 . S
C393 N391 1.356 . S
N394 C386 1.356 . S
N394 H400 0.984 . S
N394 H401 0.984 . S
N395 C388 1.356 . S
N395 H398 0.984 . S
N395 H399 0.985 . S
H396 N391 0.984 . S
H397 N391 0.985 . S
H398 N395 0.984 . S
H399 N395 0.985 . S
H400 N394 0.984 . S
H401 N394 0.984 . S
H402 N390 0.984 . S
H403 N390 0.985 . S
C404 C405 1.353 1_554 S
C404 C410 1.396 . S
C404 N412 1.345 1_554 S
C405 C404 1.353 1_556 S
C405 C411 1.363 . S
C406 C407 1.363 . S
C406 C411 1.379 1_554 S
C406 N413 1.356 . S
C407 C406 1.363 . S
C407 C410 1.363 . S
N408 C410 1.356 . S
N408 H420 0.984 . S
N408 H421 0.985 . S
N409 C411 1.356 . S
N409 H414 0.984 . S
N409 H415 0.985 . S
C410 C404 1.396 . S
C410 C407 1.363 . S
C410 N408 1.356 . S
C411 C405 1.363 . S
C411 C406 1.379 1_556 S
C411 N409 1.356 . S
N412 C404 1.345 1_556 S
N412 H418 0.984 . S
N412 H419 0.984 . S
N413 C406 1.356 . S
N413 H416 0.984 . S
N413 H417 0.985 . S
H414 N409 0.984 . S
H415 N409 0.985 . S
H416 N413 0.984 . S
H417 N413 0.985 . S
H418 N412 0.984 . S
H419 N412 0.984 . S
H420 N408 0.984 . S
H421 N408 0.985 . S
C422 C423 1.363 . S
C422 C428 1.379 . S
C422 N430 1.356 . S
C423 C422 1.363 . S
C423 C429 1.363 1_565 S
C424 C425 1.363 1_545 S
C424 C429 1.379 . S
C424 N431 1.356 . S
C425 C424 1.363 1_565 S
C425 C428 1.363 . S
N426 C428 1.356 . S
N426 H438 0.984 . S
N426 H439 0.985 . S
N427 C429 1.356 . S
N427 H432 0.984 . S
N427 H433 0.985 . S
C428 C422 1.379 . S
C428 C425 1.363 . S
C428 N426 1.356 . S
C429 C423 1.363 1_545 S
C429 C424 1.379 . S
C429 N427 1.356 . S
N430 C422 1.356 . S
N430 H436 0.984 . S
N430 H437 0.984 . S
N431 C424 1.356 . S
N431 H434 0.984 . S
N431 H435 0.985 . S
H432 N427 0.984 . S
H433 N427 0.985 . S
H434 N431 0.984 . S
H435 N431 0.985 . S
H436 N430 0.984 . S
H437 N430 0.984 . S
H438 N426 0.984 . S
H439 N426 0.985 . S
C440 C441 1.363 . S
C440 C446 1.379 . S
C440 N448 1.356 . S
C441 C440 1.363 . S
C441 C447 1.363 . S
C442 C443 1.363 . S
C442 C447 1.379 . S
C442 N449 1.356 . S
C443 C442 1.363 . S
C443 C446 1.363 . S
N444 C446 1.356 . S
N444 H456 0.984 . S
N444 H457 0.985 . S
N445 C447 1.356 . S
N445 H450 0.984 . S
N445 H451 0.985 . S
C446 C440 1.379 . S
C446 C443 1.363 . S
C446 N444 1.356 . S
C447 C441 1.363 . S
C447 C442 1.379 . S
C447 N445 1.356 . S
N448 C440 1.356 . S
N448 H454 0.984 . S
N448 H455 0.984 . S
N449 C442 1.356 . S
N449 H452 0.984 . S
N449 H453 0.985 . S
H450 N445 0.984 . S
H451 N445 0.985 . S
H452 N449 0.984 . S
H453 N449 0.985 . S
H454 N448 0.984 . S
H455 N448 0.984 . S
H456 N444 0.984 . S
H457 N444 0.985 . S
C458 C459 1.363 . S
C458 C464 1.379 . S
C458 N466 1.356 . S
C459 C458 1.363 . S
C459 C465 1.363 1_655 S
C460 C461 1.363 1_455 S
C460 C465 1.379 . S
C460 N467 1.356 . S
C461 C460 1.363 1_655 S
C461 C464 1.363 . S
N462 C464 1.356 . S
N462 H474 0.984 . S
N462 H475 0.985 . S
N463 C465 1.356 . S
N463 H468 0.984 . S
N463 H469 0.985 . S
C464 C458 1.379 . S
C464 C461 1.363 . S
C464 N462 1.356 . S
C465 C459 1.363 1_455 S
C465 C460 1.379 . S
C465 N463 1.356 . S
N466 C458 1.356 . S
N466 H472 0.984 . S
N466 H473 0.984 . S
N467 C460 1.356 . S
N467 H470 0.984 . S
N467 H471 0.985 . S
H468 N463 0.984 . S
H469 N463 0.985 . S
H470 N467 0.984 . S
H471 N467 0.985 . S
H472 N466 0.984 . S
H473 N466 0.984 . S
H474 N462 0.984 . S
H475 N462 0.985 . S
C476 C477 1.363 . S
C476 C482 1.379 1_655 S
C476 N484 1.356 . S
C477 C476 1.363 . S
C477 C483 1.363 . S
C478 C479 1.363 . S
C478 C483 1.379 1_455 S
C478 N485 1.356 . S
C479 C478 1.363 . S
C479 C482 1.363 . S
N480 C482 1.356 . S
N480 H492 0.984 . S
N480 H493 0.985 . S
N481 C483 1.356 . S
N481 H486 0.984 . S
N481 H487 0.985 . S
C482 C476 1.379 1_455 S
C482 C479 1.363 . S
C482 N480 1.356 . S
C483 C477 1.363 . S
C483 C478 1.379 1_655 S
C483 N481 1.356 . S
N484 C476 1.356 . S
N484 H490 0.984 . S
N484 H491 0.984 . S
N485 C478 1.356 . S
N485 H488 0.984 . S
N485 H489 0.985 . S
H486 N481 0.984 . S
H487 N481 0.985 . S
H488 N485 0.984 . S
H489 N485 0.985 . S
H490 N484 0.984 . S
H491 N484 0.984 . S
H492 N480 0.984 . S
H493 N480 0.985 . S
C494 C495 1.363 1_554 S
C494 C500 1.379 . S
C494 N502 1.356 . S
C495 C494 1.363 1_556 S
C495 C501 1.363 . S
C496 C497 1.363 1_556 S
C496 C501 1.379 . S
C496 N503 1.356 . S
C497 C496 1.363 1_554 S
C497 C500 1.363 . S
N498 C500 1.356 . S
N498 H510 0.984 . S
N498 H511 0.985 . S
N499 C501 1.356 . S
N499 H504 0.984 . S
N499 H505 0.985 . S
C500 C494 1.379 . S
C500 C497 1.363 . S
C500 N498 1.356 . S
C501 C495 1.363 . S
C501 C496 1.379 . S
C501 N499 1.356 . S
N502 C494 1.356 . S
N502 H508 0.984 . S
N502 H509 0.984 . S
N503 C496 1.356 . S
N503 H506 0.984 . S
N503 H507 0.985 . S
H504 N499 0.984 . S
H505 N499 0.985 . S
H506 N503 0.984 . S
H507 N503 0.985 . S
H508 N502 0.984 . S
H509 N502 0.984 . S
H510 N498 0.984 . S
H511 N498 0.985 . S
C512 C513 1.363 . S
C512 C518 1.379 . S
C512 N520 1.356 . S
C513 C512 1.363 . S
C513 C519 1.363 . S
C514 C515 1.363 . S
C514 C519 1.379 . S
C514 N521 1.356 . S
C515 C514 1.363 . S
C515 C518 1.363 . S
N516 C518 1.356 . S
N516 H528 0.984 . S
N516 H529 0.985 . S
N517 C519 1.356 . S
N517 H522 0.984 . S
N517 H523 0.985 . S
C518 C512 1.379 . S
C518 C515 1.363 . S
C518 N516 1.356 . S
C519 C513 1.363 . S
C519 C514 1.379 . S
C519 N517 1.356 . S
N520 C512 1.356 . S
N520 H526 0.984 . S
N520 H527 0.984 . S
N521 C514 1.356 . S
N521 H524 0.984 . S
N521 H525 0.985 . S
H522 N517 0.984 . S
H523 N517 0.985 . S
H524 N521 0.984 . S
H525 N521 0.985 . S
H526 N520 0.984 . S
H527 N520 0.984 . S
H528 N516 0.984 . S
H529 N516 0.985 . S
C530 C531 1.363 . S
C530 C536 1.379 . S
C530 N538 1.356 . S
C531 C530 1.363 . S
C531 C537 1.363 . S
C532 C533 1.363 . S
C532 C537 1.379 . S
C532 N539 1.356 . S
C533 C532 1.363 . S
C533 C536 1.363 . S
N534 C536 1.356 . S
N534 H546 0.984 . S
N534 H547 0.985 . S
N535 C537 1.356 . S
N535 H540 0.984 . S
N535 H541 0.985 . S
C536 C530 1.379 . S
C536 C533 1.363 . S
C536 N534 1.356 . S
C537 C531 1.363 . S
C537 C532 1.379 . S
C537 N535 1.356 . S
N538 C530 1.356 . S
N538 H544 0.984 . S
N538 H545 0.984 . S
N539 C532 1.356 . S
N539 H542 0.984 . S
N539 H543 0.985 . S
H540 N535 0.984 . S
H541 N535 0.985 . S
H542 N539 0.984 . S
H543 N539 0.985 . S
H544 N538 0.984 . S
H545 N538 0.984 . S
H546 N534 0.984 . S
H547 N534 0.985 . S
C548 C549 1.363 . S
C548 C554 1.379 1_455 S
C548 N556 1.356 . S
C549 C548 1.363 . S
C549 C555 1.363 . S
C550 C551 1.363 . S
C550 C555 1.379 1_655 S
C550 N557 1.356 . S
C551 C550 1.363 . S
C551 C554 1.363 . S
N552 C554 1.356 . S
N552 H564 0.984 . S
N552 H565 0.985 . S
N553 C555 1.356 . S
N553 H558 0.984 . S
N553 H559 0.985 . S
C554 C548 1.379 1_655 S
C554 C551 1.363 . S
C554 N552 1.356 . S
C555 C549 1.363 . S
C555 C550 1.379 1_455 S
C555 N553 1.356 . S
N556 C548 1.356 . S
N556 H562 0.984 . S
N556 H563 0.984 . S
N557 C550 1.356 . S
N557 H560 0.984 . S
N557 H561 0.985 . S
H558 N553 0.984 . S
H559 N553 0.985 . S
H560 N557 0.984 . S
H561 N557 0.985 . S
H562 N556 0.984 . S
H563 N556 0.984 . S
H564 N552 0.984 . S
H565 N552 0.985 . S
C566 C567 1.371 . S
C566 C572 1.379 . S
C566 N574 1.356 . S
C567 C566 1.371 . S
C567 C573 1.355 1_656 S
C568 C569 1.363 1_454 S
C568 C573 1.379 . S
C568 N575 1.356 . S
C569 C568 1.363 1_656 S
C569 C572 1.363 . S
N570 C572 1.356 . S
N570 H582 0.984 . S
N570 H583 0.985 . S
N571 C573 1.356 . S
N571 H576 0.984 . S
N571 H577 0.985 . S
C572 C566 1.379 . S
C572 C569 1.363 . S
C572 N570 1.356 . S
C573 C567 1.355 1_454 S
C573 C568 1.379 . S
C573 N571 1.356 . S
N574 C566 1.356 . S
N574 H580 0.984 . S
N574 H581 0.984 . S
N575 C568 1.356 . S
N575 H578 0.984 . S
N575 H579 0.985 . S
H576 N571 0.984 . S
H577 N571 0.985 . S
H578 N575 0.984 . S
H579 N575 0.985 . S
H580 N574 0.984 . S
H581 N574 0.984 . S
H582 N570 0.984 . S
H583 N570 0.985 . S
C584 C585 1.363 . S
C584 C590 1.379 . S
C584 N592 1.356 . S
C585 C584 1.363 . S
C585 C591 1.363 . S
C586 C587 1.363 . S
C586 C591 1.379 . S
C586 N593 1.356 . S
C587 C586 1.363 . S
C587 C590 1.363 . S
N588 C590 1.356 . S
N588 H600 0.984 . S
N588 H601 0.985 . S
N589 C591 1.356 . S
N589 H594 0.984 . S
N589 H595 0.985 . S
C590 C584 1.379 . S
C590 C587 1.363 . S
C590 N588 1.356 . S
C591 C585 1.363 . S
C591 C586 1.379 . S
C591 N589 1.356 . S
N592 C584 1.356 . S
N592 H598 0.984 . S
N592 H599 0.984 . S
N593 C586 1.356 . S
N593 H596 0.984 . S
N593 H597 0.985 . S
H594 N589 0.984 . S
H595 N589 0.985 . S
H596 N593 0.984 . S
H597 N593 0.985 . S
H598 N592 0.984 . S
H599 N592 0.984 . S
H600 N588 0.984 . S
H601 N588 0.985 . S
C602 C603 1.363 . S
C602 C608 1.379 1_545 S
C602 N610 1.356 . S
C603 C602 1.363 . S
C603 C609 1.363 . S
C604 C605 1.363 . S
C604 C609 1.379 1_565 S
C604 N611 1.356 . S
C605 C604 1.363 . S
C605 C608 1.363 . S
N606 C608 1.356 . S
N606 H618 0.984 . S
N606 H619 0.985 . S
N607 C609 1.356 . S
N607 H612 0.984 . S
N607 H613 0.985 . S
C608 C602 1.379 1_565 S
C608 C605 1.363 . S
C608 N606 1.356 . S
C609 C603 1.363 . S
C609 C604 1.379 1_545 S
C609 N607 1.356 . S
N610 C602 1.356 . S
N610 H616 0.984 . S
N610 H617 0.984 . S
N611 C604 1.356 . S
N611 H614 0.984 . S
N611 H615 0.985 . S
H612 N607 0.984 . S
H613 N607 0.985 . S
H614 N611 0.984 . S
H615 N611 0.985 . S
H616 N610 0.984 . S
H617 N610 0.984 . S
H618 N606 0.984 . S
H619 N606 0.985 . S
C620 C621 1.363 . S
C620 C626 1.379 . S
C620 N628 1.356 . S
C621 C620 1.363 . S
C621 C627 1.363 1_556 S
C622 C623 1.363 1_554 S
C622 C627 1.379 . S
C622 N629 1.356 . S
C623 C622 1.363 1_556 S
C623 C626 1.363 . S
N624 C626 1.356 . S
N624 H636 0.984 . S
N624 H637 0.985 . S
N625 C627 1.356 . S
N625 H630 0.984 . S
N625 H631 0.985 . S
C626 C620 1.379 . S
C626 C623 1.363 . S
C626 N624 1.356 . S
C627 C621 1.363 1_554 S
C627 C622 1.379 . S
C627 N625 1.356 . S
N628 C620 1.356 . S
N628 H634 0.984 . S
N628 H635 0.984 . S
N629 C622 1.356 . S
N629 H632 0.984 . S
N629 H633 0.985 . S
H630 N625 0.984 . S
H631 N625 0.985 . S
H632 N629 0.984 . S
H633 N629 0.985 . S
H634 N628 0.984 . S
H635 N628 0.984 . S
H636 N624 0.984 . S
H637 N624 0.985 . S
C638 C639 1.363 . S
C638 C644 1.379 1_545 S
C638 N646 1.356 . S
C639 C638 1.363 . S
C639 C645 1.363 . S
C640 C641 1.363 . S
C640 C645 1.379 1_565 S
C640 N647 1.356 . S
C641 C640 1.363 . S
C641 C644 1.363 . S
N642 C644 1.356 . S
N642 H654 0.984 . S
N642 H655 0.985 . S
N643 C645 1.356 . S
N643 H648 0.984 . S
N643 H649 0.985 . S
C644 C638 1.379 1_565 S
C644 C641 1.363 . S
C644 N642 1.356 . S
C645 C639 1.363 . S
C645 C640 1.379 1_545 S
C645 N643 1.356 . S
N646 C638 1.356 . S
N646 H652 0.984 . S
N646 H653 0.984 . S
N647 C640 1.356 . S
N647 H650 0.984 . S
N647 H651 0.985 . S
H648 N643 0.984 . S
H649 N643 0.985 . S
H650 N647 0.984 . S
H651 N647 0.985 . S
H652 N646 0.984 . S
H653 N646 0.984 . S
H654 N642 0.984 . S
H655 N642 0.985 . S
C656 C657 1.363 1_544 S
C656 C662 1.379 . S
C656 N664 1.356 . S
C657 C656 1.363 1_566 S
C657 C663 1.363 . S
C658 C659 1.363 . S
C658 C663 1.379 . S
C658 N665 1.356 . S
C659 C658 1.363 . S
C659 C662 1.363 1_566 S
N660 C662 1.356 . S
N660 H672 0.984 . S
N660 H673 0.985 . S
N661 C663 1.356 . S
N661 H666 0.984 . S
N661 H667 0.985 . S
C662 C656 1.379 . S
C662 C659 1.363 1_544 S
C662 N660 1.356 . S
C663 C657 1.363 . S
C663 C658 1.379 . S
C663 N661 1.356 . S
N664 C656 1.356 . S
N664 H670 0.984 . S
N664 H671 0.984 . S
N665 C658 1.356 . S
N665 H668 0.984 . S
N665 H669 0.985 . S
H666 N661 0.984 . S
H667 N661 0.985 . S
H668 N665 0.984 . S
H669 N665 0.985 . S
H670 N664 0.984 . S
H671 N664 0.984 . S
H672 N660 0.984 . S
H673 N660 0.985 . S
C674 C675 1.363 . S
C674 C680 1.379 . S
C674 N682 1.356 . S
C675 C674 1.363 . S
C675 C681 1.363 . S
C676 C677 1.363 . S
C676 C681 1.379 . S
C676 N683 1.356 . S
C677 C676 1.363 . S
C677 C680 1.363 . S
N678 C680 1.356 . S
N678 H690 0.984 . S
N678 H691 0.985 . S
N679 C681 1.356 . S
N679 H684 0.984 . S
N679 H685 0.985 . S
C680 C674 1.379 . S
C680 C677 1.363 . S
C680 N678 1.356 . S
C681 C675 1.363 . S
C681 C676 1.379 . S
C681 N679 1.356 . S
N682 C674 1.356 . S
N682 H688 0.984 . S
N682 H689 0.984 . S
N683 C676 1.356 . S
N683 H686 0.984 . S
N683 H687 0.985 . S
H684 N679 0.984 . S
H685 N679 0.985 . S
H686 N683 0.984 . S
H687 N683 0.985 . S
H688 N682 0.984 . S
H689 N682 0.984 . S
H690 N678 0.984 . S
H691 N678 0.985 . S
C692 C693 1.363 . S
C692 C698 1.379 . S
C692 N700 1.356 . S
C693 C692 1.363 . S
C693 C699 1.363 . S
C694 C695 1.363 . S
C694 C699 1.379 . S
C694 N701 1.356 . S
C695 C694 1.363 . S
C695 C698 1.363 . S
N696 C698 1.356 . S
N696 H708 0.984 . S
N696 H709 0.985 . S
N697 C699 1.356 . S
N697 H702 0.984 . S
N697 H703 0.985 . S
C698 C692 1.379 . S
C698 C695 1.363 . S
C698 N696 1.356 . S
C699 C693 1.363 . S
C699 C694 1.379 . S
C699 N697 1.356 . S
N700 C692 1.356 . S
N700 H706 0.984 . S
N700 H707 0.984 . S
N701 C694 1.356 . S
N701 H704 0.984 . S
N701 H705 0.985 . S
H702 N697 0.984 . S
H703 N697 0.985 . S
H704 N701 0.984 . S
H705 N701 0.985 . S
H706 N700 0.984 . S
H707 N700 0.984 . S
H708 N696 0.984 . S
H709 N696 0.985 . S
C710 C711 1.363 . S
C710 C716 1.379 1_556 S
C710 N718 1.356 . S
C711 C710 1.363 . S
C711 C717 1.363 . S
C712 C713 1.363 . S
C712 C717 1.379 1_554 S
C712 N719 1.356 . S
C713 C712 1.363 . S
C713 C716 1.363 . S
N714 C716 1.356 . S
N714 H726 0.984 . S
N714 H727 0.985 . S
N715 C717 1.356 . S
N715 H720 0.984 . S
N715 H721 0.985 . S
C716 C710 1.379 1_554 S
C716 C713 1.363 . S
C716 N714 1.356 . S
C717 C711 1.363 . S
C717 C712 1.379 1_556 S
C717 N715 1.356 . S
N718 C710 1.356 . S
N718 H724 0.984 . S
N718 H725 0.984 . S
N719 C712 1.356 . S
N719 H722 0.984 . S
N719 H723 0.985 . S
H720 N715 0.984 . S
H721 N715 0.985 . S
H722 N719 0.984 . S
H723 N719 0.985 . S
H724 N718 0.984 . S
H725 N718 0.984 . S
H726 N714 0.984 . S
H727 N714 0.985 . S
C728 C729 1.363 . S
C728 C734 1.379 . S
C728 N736 1.356 . S
C729 C728 1.363 . S
C729 C735 1.363 . S
C730 C731 1.363 . S
C730 C735 1.379 . S
C730 N737 1.356 . S
C731 C730 1.363 . S
C731 C734 1.363 . S
N732 C734 1.356 . S
N732 H744 0.984 . S
N732 H745 0.985 . S
N733 C735 1.356 . S
N733 H738 0.984 . S
N733 H739 0.985 . S
C734 C728 1.379 . S
C734 C731 1.363 . S
C734 N732 1.356 . S
C735 C729 1.363 . S
C735 C730 1.379 . S
C735 N733 1.356 . S
N736 C728 1.356 . S
N736 H742 0.984 . S
N736 H743 0.984 . S
N737 C730 1.356 . S
N737 H740 0.984 . S
N737 H741 0.985 . S
H738 N733 0.984 . S
H739 N733 0.985 . S
H740 N737 0.984 . S
H741 N737 0.985 . S
H742 N736 0.984 . S
H743 N736 0.984 . S
H744 N732 0.984 . S
H745 N732 0.985 . S
C746 C747 1.363 . S
C746 C752 1.379 . S
C746 N754 1.356 . S
C747 C746 1.363 . S
C747 C753 1.363 . S
C748 C749 1.363 . S
C748 C753 1.379 . S
C748 N755 1.356 . S
C749 C748 1.363 . S
C749 C752 1.363 . S
N750 C752 1.356 . S
N750 H762 0.984 . S
N750 H763 0.985 . S
N751 C753 1.356 . S
N751 H756 0.984 . S
N751 H757 0.985 . S
C752 C746 1.379 . S
C752 C749 1.363 . S
C752 N750 1.356 . S
C753 C747 1.363 . S
C753 C748 1.379 . S
C753 N751 1.356 . S
N754 C746 1.356 . S
N754 H760 0.984 . S
N754 H761 0.984 . S
N755 C748 1.356 . S
N755 H758 0.984 . S
N755 H759 0.985 . S
H756 N751 0.984 . S
H757 N751 0.985 . S
H758 N755 0.984 . S
H759 N755 0.985 . S
H760 N754 0.984 . S
H761 N754 0.984 . S
H762 N750 0.984 . S
H763 N750 0.985 . S
C764 C765 1.363 1_655 S
C764 C770 1.379 . S
C764 N772 1.356 . S
C765 C764 1.363 1_455 S
C765 C771 1.363 . S
C766 C767 1.363 . S
C766 C771 1.379 . S
C766 N773 1.356 . S
C767 C766 1.363 . S
C767 C770 1.363 1_455 S
N768 C770 1.356 . S
N768 H780 0.984 . S
N768 H781 0.985 . S
N769 C771 1.356 . S
N769 H774 0.984 . S
N769 H775 0.985 . S
C770 C764 1.379 . S
C770 C767 1.363 1_655 S
C770 N768 1.356 . S
C771 C765 1.363 . S
C771 C766 1.379 . S
C771 N769 1.356 . S
N772 C764 1.356 . S
N772 H778 0.984 . S
N772 H779 0.984 . S
N773 C766 1.356 . S
N773 H776 0.984 . S
N773 H777 0.985 . S
H774 N769 0.984 . S
H775 N769 0.985 . S
H776 N773 0.984 . S
H777 N773 0.985 . S
H778 N772 0.984 . S
H779 N772 0.984 . S
H780 N768 0.984 . S
H781 N768 0.985 . S
C782 C783 1.363 1_565 S
C782 C788 1.379 . S
C782 N790 1.356 . S
C783 C782 1.363 1_545 S
C783 C789 1.363 . S
C784 C785 1.363 1_545 S
C784 C789 1.379 . S
C784 N791 1.356 . S
C785 C784 1.363 1_565 S
C785 C788 1.363 . S
N786 C788 1.356 . S
N786 H798 0.984 . S
N786 H799 0.985 . S
N787 C789 1.356 . S
N787 H792 0.984 . S
N787 H793 0.985 . S
C788 C782 1.379 . S
C788 C785 1.363 . S
C788 N786 1.356 . S
C789 C783 1.363 . S
C789 C784 1.379 . S
C789 N787 1.356 . S
N790 C782 1.356 . S
N790 H796 0.984 . S
N790 H797 0.984 . S
N791 C784 1.356 . S
N791 H794 0.984 . S
N791 H795 0.985 . S
H792 N787 0.984 . S
H793 N787 0.985 . S
H794 N791 0.984 . S
H795 N791 0.985 . S
H796 N790 0.984 . S
H797 N790 0.984 . S
H798 N786 0.984 . S
H799 N786 0.985 . S
C225 C5 1.287 . S
C227 C103 1.287 . S
C243 C19 1.411 . S
C245 C61 1.433 . S
C261 C75 1.409 . S
C263 C33 1.409 . S
C279 C47 1.433 . S
C281 C89 1.411 . S
C297 C117 1.433 . S
C299 C173 1.411 . S
C315 C131 1.409 . S
C317 C201 1.409 . S
C333 C159 1.433 . S
C335 C145 1.411 . S
C351 C215 1.287 . S
C353 C187 1.287 . S
C369 C12 1.265 . S
C371 C95 1.217 . S
C387 C110 1.265 . S
C389 C25 1.217 1_565 S
C405 C40 1.383 . S
C407 C60 1.299 . S
C423 C82 1.383 . S
C425 C46 1.299 . S
C441 C11 1.205 . S
C443 C207 1.216 . S
C459 C166 1.361 . S
C461 C18 1.267 . S
C477 C193 1.205 . S
C479 C39 1.216 . S
C495 C172 1.267 1_556 S
C497 C54 1.361 . S
C513 C144 1.267 . S
C515 C68 1.361 . S
C531 C81 1.216 . S
C533 C221 1.205 . S
C549 C88 1.267 . S
C551 C124 1.361 . S
C567 C109 1.209 . S
C569 C137 1.216 1_655 S
C585 C4 1.242 . S
C587 C67 1.286 . S
C603 C123 1.286 . S
C605 C186 1.242 . S
C621 C180 1.328 . S
C623 C130 1.241 . S
C639 C200 1.240 . S
C641 C152 1.328 . S
C657 C102 1.242 . S
C659 C53 1.286 1_556 S
C675 C32 1.240 . S
C677 C96 1.328 . S
C693 C165 1.286 . S
C695 C214 1.242 . S
C711 C194 1.265 . S
C713 C151 1.217 . S
C729 C222 1.265 . S
C731 C179 1.217 . S
C747 C208 1.383 . S
C749 C116 1.299 . S
C765 C158 1.299 . S
C767 C138 1.383 . S
C783 C26 1.328 . S
C785 C74 1.240 1_565 S
