# Generated by pormake.
# Topology vmn, (7)-cn, num edge types: 1
# Building blocks:
#     Node 0, Type 0, BuildingBlock: HICVOG_clean_sbu_0, # of connection points: 7
#     Node 1, Type 0, BuildingBlock: HICVOG_clean_sbu_0, # of connection points: 7
#     Node 2, Type 0, BuildingBlock: HICVOG_clean_sbu_0, # of connection points: 7
#     Node 3, Type 0, BuildingBlock: HICVOG_clean_sbu_0, # of connection points: 7
#     Node 4, Type 0, BuildingBlock: HICVOG_clean_sbu_0, # of connection points: 7
#     Node 5, Type 0, BuildingBlock: HICVOG_clean_sbu_0, # of connection points: 7
#     Node 6, Type 0, BuildingBlock: HICVOG_clean_sbu_0, # of connection points: 7
#     Node 7, Type 0, BuildingBlock: HICVOG_clean_sbu_0, # of connection points: 7
#     Edge 8, Type (0, 0), BuildingBlock: OJICUG_clean_linker_0, # of connection points: 2
#     Edge 9, Type (0, 0), BuildingBlock: OJICUG_clean_linker_0, # of connection points: 2
#     Edge 10, Type (0, 0), BuildingBlock: OJICUG_clean_linker_0, # of connection points: 2
#     Edge 11, Type (0, 0), BuildingBlock: OJICUG_clean_linker_0, # of connection points: 2
#     Edge 12, Type (0, 0), BuildingBlock: OJICUG_clean_linker_0, # of connection points: 2
#     Edge 13, Type (0, 0), BuildingBlock: OJICUG_clean_linker_0, # of connection points: 2
#     Edge 14, Type (0, 0), BuildingBlock: OJICUG_clean_linker_0, # of connection points: 2
#     Edge 15, Type (0, 0), BuildingBlock: OJICUG_clean_linker_0, # of connection points: 2
#     Edge 16, Type (0, 0), BuildingBlock: OJICUG_clean_linker_0, # of connection points: 2
#     Edge 17, Type (0, 0), BuildingBlock: OJICUG_clean_linker_0, # of connection points: 2
#     Edge 18, Type (0, 0), BuildingBlock: OJICUG_clean_linker_0, # of connection points: 2
#     Edge 19, Type (0, 0), BuildingBlock: OJICUG_clean_linker_0, # of connection points: 2
#     Edge 20, Type (0, 0), BuildingBlock: OJICUG_clean_linker_0, # of connection points: 2
#     Edge 21, Type (0, 0), BuildingBlock: OJICUG_clean_linker_0, # of connection points: 2
#     Edge 22, Type (0, 0), BuildingBlock: OJICUG_clean_linker_0, # of connection points: 2
#     Edge 23, Type (0, 0), BuildingBlock: OJICUG_clean_linker_0, # of connection points: 2
#     Edge 24, Type (0, 0), BuildingBlock: OJICUG_clean_linker_0, # of connection points: 2
#     Edge 25, Type (0, 0), BuildingBlock: OJICUG_clean_linker_0, # of connection points: 2
#     Edge 26, Type (0, 0), BuildingBlock: OJICUG_clean_linker_0, # of connection points: 2
#     Edge 27, Type (0, 0), BuildingBlock: OJICUG_clean_linker_0, # of connection points: 2
#     Edge 28, Type (0, 0), BuildingBlock: OJICUG_clean_linker_0, # of connection points: 2
#     Edge 29, Type (0, 0), BuildingBlock: OJICUG_clean_linker_0, # of connection points: 2
#     Edge 30, Type (0, 0), BuildingBlock: OJICUG_clean_linker_0, # of connection points: 2
#     Edge 31, Type (0, 0), BuildingBlock: OJICUG_clean_linker_0, # of connection points: 2
#     Edge 32, Type (0, 0), BuildingBlock: OJICUG_clean_linker_0, # of connection points: 2
#     Edge 33, Type (0, 0), BuildingBlock: OJICUG_clean_linker_0, # of connection points: 2
#     Edge 34, Type (0, 0), BuildingBlock: OJICUG_clean_linker_0, # of connection points: 2
#     Edge 35, Type (0, 0), BuildingBlock: OJICUG_clean_linker_0, # of connection points: 2
# Relax obj value: 0.175
# Max RMSD: 0.221
# Mean RMSD: 0.221
data_MOF--net-vmn--node1-HICVOG_clean_sbu_0--edge1-OJICUG_clean_linker_0
_symmetry_space_group_name_H-M    P1
_symmetry_Int_Tables_number       1
_symmetry_cell_setting            triclinic
loop_
_symmetry_equiv_pos_as_xyz
'x, y, z'
_cell_length_a     31.519703
_cell_length_b     23.260134
_cell_length_c     20.809293
_cell_angle_alpha  89.931918
_cell_angle_beta   96.736467
_cell_angle_gamma 89.897461
loop_
_atom_site_label
_atom_site_type_symbol
_atom_site_fract_x
_atom_site_fract_y
_atom_site_fract_z
_atom_type_partial_charge
Zn0 Zn 0.95375 0.38618 0.18479 0.0
C1 C 1.008 0.37254 0.36668 0.0
N2 N 0.99824 0.42905 0.36812 0.0
C3 C 0.98434 0.44087 0.30612 0.0
N4 N 0.98523 0.39343 0.26909 0.0
N5 N 1.00231 0.35074 0.30567 0.0
C6 C 0.01947 0.18249 0.28673 0.0
O7 O 0.98214 0.20333 0.26287 0.0
O8 O 0.95649 0.45979 0.14006 0.0
Zn9 Zn 0.04551 0.30087 0.26889 0.0
N10 N 0.89452 0.36549 0.18836 0.0
C11 C 0.83929 0.33021 0.24614 0.0
C12 C 0.88184 0.34569 0.24444 0.0
C13 C 0.86642 0.37043 0.13366 0.0
N14 N 0.81127 0.33474 0.19155 0.0
C15 C 0.82335 0.35423 0.13462 0.0
O16 O 0.03788 0.29259 0.16929 0.0
C17 C 0.01213 0.30508 0.11923 0.0
O18 O 0.979 0.33519 0.12305 0.0
H19 H 0.90461 0.34193 0.28737 0.0
H20 H 0.87788 0.38736 0.09053 0.0
C21 C 0.13787 0.30986 0.27716 0.0
C22 C 0.17742 0.3388 0.28769 0.0
C23 C 0.14172 0.42143 0.32108 0.0
C24 C 0.10291 0.39267 0.31063 0.0
N25 N 0.10142 0.33754 0.28888 0.0
N26 N 0.17792 0.39401 0.30928 0.0
H27 H 0.13572 0.26651 0.25828 0.0
C28 C 0.99441 0.46854 0.12775 0.0
O29 O 0.02529 0.43512 0.15433 0.0
O30 O 0.05046 0.21715 0.29992 0.0
H31 H 0.07427 0.41478 0.31892 0.0
H32 H 0.82859 0.31445 0.29044 0.0
H33 H 0.14306 0.46541 0.33803 0.0
Zn34 Zn 0.56441 0.39208 0.85889 0.0
C35 C 0.50395 0.37067 0.67987 0.0
N36 N 0.51091 0.42749 0.67489 0.0
C37 C 0.528 0.44212 0.73467 0.0
N38 N 0.53193 0.39562 0.77411 0.0
N39 N 0.51468 0.35095 0.74106 0.0
C40 C 0.4976 0.18295 0.7616 0.0
O41 O 0.53554 0.20316 0.78298 0.0
O42 O 0.56032 0.46613 0.9021 0.0
Zn43 Zn 0.47382 0.30148 0.78254 0.0
N44 N 0.62391 0.37309 0.85449 0.0
C45 C 0.67945 0.34187 0.79479 0.0
C46 C 0.63682 0.35664 0.79729 0.0
C47 C 0.65189 0.37538 0.90955 0.0
N48 N 0.70734 0.34373 0.8497 0.0
C49 C 0.69507 0.35986 0.90774 0.0
O50 O 0.48513 0.29283 0.88085 0.0
C51 C 0.51059 0.30814 0.92986 0.0
O52 O 0.54166 0.34148 0.92421 0.0
H53 H 0.61414 0.35489 0.7541 0.0
H54 H 0.64023 0.38964 0.95365 0.0
C55 C 0.3811 0.31157 0.76921 0.0
C56 C 0.34238 0.34275 0.76543 0.0
C57 C 0.38132 0.42969 0.76172 0.0
C58 C 0.41933 0.39877 0.76738 0.0
N59 N 0.41869 0.34044 0.76993 0.0
N60 N 0.34389 0.4011 0.76111 0.0
H61 H 0.38167 0.26515 0.77211 0.0
C62 C 0.52236 0.47493 0.91426 0.0
O63 O 0.49179 0.44082 0.8886 0.0
O64 O 0.4666 0.21815 0.75088 0.0
H65 H 0.44918 0.42123 0.77109 0.0
H66 H 0.69031 0.32872 0.74961 0.0
H67 H 0.38156 0.47614 0.75921 0.0
Zn68 Zn 0.97292 0.77919 0.77225 0.0
C69 C 0.03637 0.63956 0.73665 0.0
N70 N 0.02211 0.65049 0.67453 0.0
C71 C 0.01085 0.70649 0.67537 0.0
N72 N 0.01605 0.72872 0.73623 0.0
N73 N 0.03431 0.68708 0.77327 0.0
C74 C 0.02439 0.61444 0.91687 0.0
O75 O 0.99351 0.64766 0.88992 0.0
O76 O 0.97052 0.86272 0.74037 0.0
Zn77 Zn 0.06536 0.69557 0.858 0.0
N78 N 0.91678 0.7429 0.75115 0.0
C79 C 0.87688 0.65926 0.71659 0.0
C80 C 0.91561 0.68791 0.72887 0.0
C81 C 0.88008 0.77017 0.76265 0.0
N82 N 0.84047 0.68628 0.72803 0.0
C83 C 0.84057 0.74107 0.7509 0.0
O84 O 0.03969 0.74757 0.9183 0.0
C85 C 1.00646 0.77746 0.92211 0.0
O86 O 0.98018 0.7889 0.87222 0.0
H87 H 0.94443 0.66559 0.72175 0.0
H88 H 0.88208 0.81312 0.78262 0.0
C89 C 0.1526 0.71202 0.911 0.0
C90 C 0.19583 0.7278 0.91049 0.0
C91 C 0.18089 0.74934 0.79816 0.0
C92 C 0.13823 0.73423 0.79938 0.0
N93 N 0.12494 0.71585 0.85561 0.0
N94 N 0.20845 0.74585 0.85334 0.0
H95 H 0.1407 0.69625 0.95432 0.0
C96 C 1.00155 0.89388 0.76432 0.0
O97 O 0.03448 0.86833 0.79716 0.0
O98 O 0.06226 0.62271 0.90404 0.0
H99 H 0.11584 0.73713 0.75593 0.0
H100 H 0.87579 0.6155 0.69892 0.0
H101 H 0.19206 0.76397 0.75372 0.0
Zn102 Zn 0.54544 0.77901 0.27719 0.0
C103 C 0.48284 0.63911 0.31314 0.0
N104 N 0.49697 0.65006 0.37527 0.0
C105 C 0.50787 0.70616 0.37434 0.0
N106 N 0.50254 0.72842 0.31339 0.0
N107 N 0.48463 0.68666 0.2764 0.0
C108 C 0.49429 0.61469 0.13099 0.0
O109 O 0.52527 0.64748 0.15805 0.0
O110 O 0.54799 0.86252 0.30901 0.0
Zn111 Zn 0.45345 0.69508 0.19165 0.0
N112 N 0.60155 0.74258 0.29841 0.0
C113 C 0.64159 0.65868 0.33257 0.0
C114 C 0.60278 0.6873 0.31999 0.0
C115 C 0.63824 0.77017 0.28792 0.0
N116 N 0.67801 0.68603 0.3221 0.0
C117 C 0.67781 0.74111 0.29996 0.0
O118 O 0.47875 0.74745 0.13126 0.0
C119 C 0.51182 0.7775 0.1273 0.0
O120 O 0.53812 0.78891 0.1771 0.0
H121 H 0.57395 0.6648 0.32638 0.0
H122 H 0.6362 0.81337 0.26852 0.0
C123 C 0.36616 0.71164 0.13885 0.0
C124 C 0.32289 0.72739 0.1394 0.0
C125 C 0.33779 0.74848 0.25178 0.0
C126 C 0.3805 0.73341 0.2505 0.0
N127 N 0.39383 0.71527 0.19422 0.0
N128 N 0.31023 0.74519 0.19659 0.0
H129 H 0.3781 0.69606 0.09549 0.0
C130 C 0.51772 0.89423 0.28316 0.0
O131 O 0.48522 0.86918 0.24893 0.0
O132 O 0.45663 0.62242 0.14509 0.0
H133 H 0.40289 0.73616 0.29394 0.0
H134 H 0.64274 0.61471 0.34969 0.0
H135 H 0.32659 0.76292 0.29624 0.0
Zn136 Zn 0.45285 0.88491 0.69135 0.0
C137 C 0.50755 0.87389 0.87406 0.0
N138 N 0.49646 0.92997 0.87485 0.0
C139 C 0.48218 0.9409 0.81274 0.0
N140 N 0.48403 0.89332 0.77616 0.0
N141 N 0.5022 0.85158 0.81319 0.0
C142 C 0.51703 0.68641 0.78342 0.0
O143 O 0.48432 0.71203 0.75011 0.0
O144 O 0.45587 0.95757 0.64464 0.0
Zn145 Zn 0.54531 0.80121 0.77692 0.0
N146 N 0.39323 0.86485 0.69378 0.0
C147 C 0.3371 0.83193 0.75125 0.0
C148 C 0.37981 0.84687 0.75009 0.0
C149 C 0.36565 0.86845 0.63828 0.0
N150 N 0.30964 0.83519 0.69594 0.0
C151 C 0.32238 0.85284 0.63873 0.0
O152 O 0.53792 0.79146 0.67692 0.0
C153 C 0.5115 0.80269 0.62713 0.0
O154 O 0.47825 0.83253 0.63103 0.0
H155 H 0.40213 0.84416 0.79363 0.0
H156 H 0.37766 0.8839 0.59491 0.0
C157 C 0.63818 0.8102 0.78667 0.0
C158 C 0.67768 0.83933 0.79844 0.0
C159 C 0.64132 0.92125 0.83234 0.0
C160 C 0.60259 0.89259 0.82001 0.0
N161 N 0.60146 0.83752 0.79795 0.0
N162 N 0.67775 0.89418 0.82111 0.0
H163 H 0.63621 0.7672 0.76687 0.0
C164 C 0.49355 0.96517 0.6307 0.0
O165 O 0.52453 0.9323 0.65802 0.0
O166 O 0.54776 0.71758 0.80846 0.0
H167 H 0.57375 0.91495 0.82694 0.0
H168 H 0.32584 0.81761 0.79573 0.0
H169 H 0.64238 0.96506 0.84984 0.0
Zn170 Zn 0.97231 0.80096 0.27291 0.0
C171 C 0.03464 0.9404 0.23584 0.0
N172 N 0.02005 0.92944 0.17389 0.0
C173 C 0.0094 0.87326 0.17496 0.0
N174 N 0.0153 0.85092 0.23584 0.0
N175 N 0.03341 0.89274 0.27257 0.0
C176 C 0.0244 0.96538 0.41755 0.0
O177 O 0.99335 0.93236 0.39114 0.0
O178 O 0.96736 0.71776 0.24063 0.0
Zn179 Zn 0.06499 0.88462 0.35713 0.0
N180 N 0.91643 0.83846 0.25358 0.0
C181 C 0.87636 0.92245 0.2199 0.0
C182 C 0.91511 0.8935 0.2313 0.0
C183 C 0.87987 0.8113 0.26552 0.0
N184 N 0.84006 0.8955 0.23175 0.0
C185 C 0.84034 0.84055 0.2543 0.0
O186 O 0.03994 0.83253 0.418 0.0
C187 C 1.00707 0.80216 0.42219 0.0
O188 O 0.98069 0.79053 0.37258 0.0
H189 H 0.94382 0.91548 0.22325 0.0
H190 H 0.882 0.76819 0.28516 0.0
C191 C 0.15224 0.86823 0.40986 0.0
C192 C 0.19556 0.85262 0.40942 0.0
C193 C 0.1808 0.83152 0.29702 0.0
C194 C 0.13805 0.84645 0.29819 0.0
N195 N 0.12463 0.86452 0.35443 0.0
N196 N 0.2083 0.83488 0.35226 0.0
H197 H 0.14022 0.88377 0.45317 0.0
C198 C 0.99836 0.68342 0.25617 0.0
O199 O 0.03488 0.70475 0.28255 0.0
O200 O 0.06198 0.95749 0.40322 0.0
H201 H 0.1157 0.84366 0.2547 0.0
H202 H 0.87515 0.96629 0.20233 0.0
H203 H 0.19207 0.81713 0.25259 0.0
Zn204 Zn 0.47385 0.27854 0.28205 0.0
C205 C 0.53068 0.13866 0.2356 0.0
N206 N 0.51447 0.1535 0.1754 0.0
C207 C 0.50652 0.21007 0.18037 0.0
N208 N 0.51583 0.2295 0.24188 0.0
N209 N 0.53322 0.18494 0.27529 0.0
C210 C 0.5223 0.1052 0.41433 0.0
O211 O 0.49167 0.13892 0.38764 0.0
O212 O 0.46705 0.36212 0.25084 0.0
Zn213 Zn 0.56483 0.18862 0.36067 0.0
N214 N 0.41869 0.23975 0.26657 0.0
C215 C 0.38208 0.15044 0.25227 0.0
C216 C 0.41982 0.18167 0.26073 0.0
C217 C 0.38078 0.26799 0.26673 0.0
N218 N 0.34436 0.17836 0.2522 0.0
C219 C 0.34219 0.23641 0.25963 0.0
O220 O 0.54097 0.23912 0.425 0.0
C221 C 0.50935 0.27182 0.43003 0.0
O222 O 0.48395 0.28668 0.38063 0.0
H223 H 0.44985 0.15956 0.26428 0.0
H224 H 0.38119 0.31387 0.27486 0.0
C225 C 0.65236 0.20327 0.41321 0.0
C226 C 0.69569 0.21847 0.41236 0.0
C227 C 0.68057 0.23998 0.30004 0.0
C228 C 0.63783 0.22548 0.3016 0.0
N229 N 0.62459 0.20743 0.358 0.0
N230 N 0.70824 0.23624 0.35506 0.0
H231 H 0.64044 0.18781 0.45663 0.0
C232 C 0.4981 0.39703 0.26193 0.0
O233 O 0.53596 0.37643 0.28348 0.0
O234 O 0.56044 0.11457 0.40357 0.0
H235 H 0.61534 0.22869 0.2583 0.0
H236 H 0.38273 0.10416 0.24727 0.0
H237 H 0.69169 0.25438 0.25549 0.0
Zn238 Zn 0.0454 0.27966 0.76601 0.0
C239 C 0.99174 0.13802 0.81322 0.0
N240 N 0.00961 0.15186 0.87284 0.0
C241 C 0.01677 0.20867 0.86857 0.0
N242 N 1.00531 0.22914 0.80784 0.0
N243 N 0.98745 0.18499 0.77449 0.0
C244 C 0.99723 0.10719 0.63297 0.0
O245 O 0.02763 0.14199 0.65762 0.0
O246 O 0.05268 0.36246 0.79922 0.0
Zn247 Zn 0.95472 0.1889 0.68976 0.0
N248 N 0.10062 0.24085 0.77658 0.0
C249 C 0.13795 0.15155 0.78274 0.0
C250 C 0.09996 0.18248 0.77815 0.0
C251 C 0.13819 0.26977 0.77725 0.0
N252 N 0.17535 0.18018 0.78341 0.0
C253 C 0.17686 0.23858 0.78009 0.0
O254 O 0.97681 0.24065 0.62483 0.0
C255 C 1.00728 0.27501 0.61914 0.0
O256 O 0.03297 0.29021 0.66795 0.0
H257 H 0.07011 0.16002 0.77463 0.0
H258 H 0.13766 0.31622 0.77517 0.0
C259 C 0.86701 0.20286 0.63883 0.0
C260 C 0.82353 0.21708 0.64027 0.0
C261 C 0.83865 0.23612 0.75309 0.0
C262 C 0.88156 0.22265 0.75093 0.0
N263 N 0.89486 0.2063 0.69398 0.0
N264 N 0.81089 0.23313 0.69809 0.0
H265 H 0.87902 0.18871 0.59496 0.0
C266 C 0.02162 0.39744 0.78753 0.0
O267 O 0.98404 0.37694 0.76473 0.0
O268 O 0.95941 0.11525 0.64611 0.0
H269 H 0.90412 0.22529 0.79418 0.0
H270 H 0.13769 0.10506 0.78448 0.0
H271 H 0.82746 0.24918 0.79807 0.0
C272 C 0.99582 1.02318 0.27692 0.0
C273 C 0.03453 0.99988 0.26157 0.0
H274 H 0.96098 0.09859 0.29811 0.0
C275 C 0.06997 1.03637 0.26147 0.0
H276 H 0.96788 0.99638 0.27714 0.0
C277 C 0.06617 0.09548 0.27459 0.0
C278 C 0.02657 0.11916 0.28641 0.0
H279 H 0.09997 1.0197 0.24872 0.0
H280 H 0.09346 0.12313 0.27143 0.0
C281 C 0.99184 0.08193 0.28907 0.0
C282 C 0.44694 1.03723 0.78772 0.0
C283 C 0.48221 1.00038 0.7869 0.0
H284 H 0.42364 0.12425 0.77832 0.0
C285 C 0.52083 1.02333 0.77094 0.0
H286 H 0.41705 1.02083 0.80106 0.0
C287 C 0.52484 0.08205 0.75864 0.0
C288 C 0.49029 0.11966 0.762 0.0
H289 H 0.54869 0.99622 0.7705 0.0
H290 H 0.55564 0.0984 0.74905 0.0
C291 C 0.45079 0.09635 0.7746 0.0
C292 C 0.0322 0.04814 0.80162 0.0
C293 C 0.99307 0.07757 0.79054 0.0
H294 H 0.06571 0.96858 0.79984 0.0
C295 C 0.95655 0.04691 0.76503 0.0
H296 H 0.06078 0.07012 0.8225 0.0
C297 C 0.9593 0.98745 0.75235 0.0
C298 C 0.99853 0.95787 0.76572 0.0
H299 H 0.92585 0.06835 0.75705 0.0
H300 H 0.93045 0.96425 0.73506 0.0
C301 C 0.035 0.98955 0.78885 0.0
C302 C 0.56043 0.98717 0.29794 0.0
C303 C 0.52134 0.95816 0.2813 0.0
H304 H 0.59463 0.06763 0.29629 0.0
C305 C 0.48584 0.99032 0.25467 0.0
H306 H 0.58859 0.96359 0.31788 0.0
C307 C 0.48947 0.04882 0.24208 0.0
C308 C 0.52843 0.07783 0.25696 0.0
H309 H 0.45529 0.96982 0.24095 0.0
H310 H 0.46169 0.07106 0.21855 0.0
C311 C 0.564 0.0466 0.28549 0.0
C312 C 0.48418 0.59077 0.75648 0.0
C313 C 0.52026 0.62245 0.78138 0.0
H314 H 0.45902 0.51023 0.7216 0.0
C315 C 0.55942 0.59296 0.79605 0.0
H316 H 0.45354 0.61168 0.74436 0.0
C317 C 0.56248 0.53356 0.78326 0.0
C318 C 0.52633 0.50283 0.75638 0.0
H319 H 0.588 0.61616 0.81463 0.0
H320 H 0.59315 0.51216 0.79247 0.0
C321 C 0.48729 0.53223 0.74362 0.0
C322 C 0.02395 0.52476 0.26946 0.0
C323 C 0.98473 0.5006 0.281 0.0
H324 H 0.05873 0.6008 0.25113 0.0
C325 C 0.94851 0.53627 0.27713 0.0
H326 H 0.05245 0.49866 0.27207 0.0
C327 C 0.952 0.59547 0.26411 0.0
C328 C 0.99198 0.61999 0.25614 0.0
H329 H 0.91802 0.51889 0.28671 0.0
H330 H 0.92401 0.62252 0.26427 0.0
C331 C 0.02756 0.58352 0.25723 0.0
C332 C 0.52549 0.49774 0.25928 0.0
C333 C 0.49088 0.46036 0.26248 0.0
H334 H 0.5494 0.58338 0.27118 0.0
C335 C 0.45139 0.4839 0.27501 0.0
H336 H 0.55629 0.48122 0.24973 0.0
C337 C 0.44759 0.543 0.28818 0.0
C338 C 0.4829 0.57962 0.28749 0.0
H339 H 0.42419 0.45617 0.27859 0.0
H340 H 0.41768 0.55958 0.30141 0.0
C341 C 0.52152 0.55647 0.2716 0.0
C342 C 0.99365 0.49797 0.78921 0.0
C343 C 0.02862 0.46078 0.78745 0.0
H344 H 0.96933 0.58344 0.77601 0.0
C345 C 0.0683 0.48455 0.77646 0.0
H346 H 0.9627 0.48127 0.79757 0.0
C347 C 0.07198 0.54369 0.76332 0.0
C348 C 0.03631 0.58007 0.76241 0.0
H349 H 0.09579 0.45697 0.77401 0.0
H350 H 0.1021 0.56047 0.75128 0.0
C351 C 0.99746 0.55668 0.7768 0.0
C352 C 0.96884 0.54006 0.04338 0.0
C353 C 1.00251 0.5082 0.07613 0.0
H354 H 0.94925 0.59785 0.96592 0.0
C355 C 0.0432 0.51037 0.0552 0.0
H356 H 0.93707 0.53883 0.05837 0.0
C357 C 0.05006 0.54359 1.0019 0.0
C358 C 0.01637 0.57532 0.96902 0.0
H359 H 0.06966 0.4858 0.07932 0.0
H360 H 0.08182 0.54477 0.98688 0.0
C361 C 0.97571 0.5733 0.99007 0.0
C362 C 0.46787 0.54624 0.04396 0.0
C363 C 0.5017 0.57753 0.07681 0.0
H364 H 0.44768 0.49023 0.96527 0.0
C365 C 0.54183 0.57715 0.05388 0.0
H366 H 0.43647 0.54631 0.0603 0.0
C367 C 0.54812 0.54568 0.99907 0.0
C368 C 0.51442 0.51386 0.96664 0.0
H369 H 0.56835 0.60153 0.07784 0.0
H370 H 0.57954 0.54554 0.98283 0.0
C371 C 0.47416 0.51474 0.98915 0.0
C372 C 0.47372 0.06532 0.48861 0.0
C373 C 0.51409 0.06608 0.46646 0.0
H374 H 0.43582 1.03378 0.55949 0.0
C375 C 0.5477 1.03403 0.4991 0.0
H376 H 0.44731 0.09002 0.46456 0.0
C377 C 0.54126 1.00251 0.55384 0.0
C378 C 0.50105 1.0023 0.57649 0.0
H379 H 0.5792 1.03404 0.4831 0.0
H380 H 0.56774 0.97799 0.57799 0.0
C381 C 0.46727 1.03374 0.54337 0.0
C382 C 0.9774 1.00308 0.49526 0.0
C383 C 0.01718 1.00314 0.47128 0.0
H384 H 0.94022 1.03483 0.56689 0.0
C385 C 0.05094 1.03551 0.50269 0.0
H386 H 0.95096 0.97787 0.47243 0.0
C387 C 0.04491 0.06762 0.55718 0.0
C388 C 1.005 0.06797 0.58079 0.0
H389 H 0.08207 1.03583 0.48547 0.0
H390 H 0.07131 0.09293 0.57997 0.0
C391 C 0.97138 1.03513 0.54976 0.0
C392 C 0.74695 0.35731 0.08353 0.0
C393 C 0.79081 0.35752 0.07618 0.0
H394 H 0.6827 0.35675 0.03824 0.0
C395 C 0.80253 0.35877 1.01292 0.0
H396 H 0.73642 0.35592 0.13121 0.0
C397 C 0.77142 0.36029 0.95905 0.0
C398 C 0.72755 0.36027 0.96638 0.0
H399 H 0.83566 0.35729 1.00424 0.0
H400 H 0.78198 0.36116 0.91138 0.0
C401 C 0.71583 0.35851 0.02964 0.0
C402 C 0.24671 0.72548 0.08694 0.0
C403 C 0.2907 0.72544 0.08033 0.0
H404 H 0.18266 0.72727 0.0407 0.0
C405 C 0.30282 0.72571 1.01729 0.0
H406 H 0.23582 0.72569 0.13441 0.0
C407 C 0.27201 0.72568 0.96296 0.0
C408 C 0.22802 0.72563 0.96956 0.0
H409 H 0.33605 0.72729 1.00919 0.0
H410 H 0.28289 0.72604 0.91548 0.0
C411 C 0.21589 0.7257 0.0326 0.0
C412 C 0.24624 0.85472 0.58599 0.0
C413 C 0.29026 0.85479 0.57953 0.0
H414 H 0.18225 0.85295 0.5396 0.0
C415 C 0.30246 0.85458 0.51654 0.0
H416 H 0.23529 0.85447 0.63342 0.0
C417 C 0.2717 0.85464 0.46211 0.0
C418 C 0.22769 0.85468 0.46857 0.0
H419 H 0.33571 0.85303 0.50853 0.0
H420 H 0.28265 0.85434 0.41468 0.0
C421 C 0.21549 0.85454 0.53157 0.0
C422 C 0.74721 0.2148 0.58847 0.0
C423 C 0.79114 0.21545 0.58144 0.0
H424 H 0.68303 0.2163 0.54289 0.0
C425 C 0.80298 0.21666 0.51825 0.0
H426 H 0.73652 0.21428 0.63607 0.0
C427 C 0.77198 0.21679 0.46419 0.0
C428 C 0.72805 0.21608 0.4712 0.0
H429 H 0.83612 0.21883 0.50977 0.0
H430 H 0.78268 0.21783 0.41661 0.0
C431 C 0.71619 0.21527 0.5344 0.0
C432 C 0.29198 0.32197 0.25205 0.0
C433 C 0.29959 0.26309 0.26376 0.0
H434 H 0.24738 0.39156 0.24987 0.0
C435 C 0.26566 0.22868 0.28014 0.0
H436 H 0.31659 0.34983 0.23753 0.0
C437 C 0.22567 0.2526 0.28632 0.0
C438 C 0.21848 0.31163 0.27621 0.0
H439 H 0.27016 0.18318 0.28979 0.0
H440 H 0.20095 0.22501 0.30117 0.0
C441 C 0.25201 0.34593 0.2586 0.0
C442 C 0.26283 0.34268 0.7403 0.0
C443 C 0.30028 0.31488 0.76802 0.0
H444 H 0.19478 0.34075 0.72127 0.0
C445 C 0.29653 0.26267 0.80091 0.0
H446 H 0.26451 0.38291 0.71445 0.0
C447 C 0.25637 0.23874 0.80541 0.0
C448 C 0.21893 0.26654 0.77766 0.0
H449 H 0.32437 0.24067 0.82455 0.0
H450 H 0.25467 0.1985 0.83124 0.0
C451 C 0.22266 0.31877 0.74484 0.0
C452 C 0.76552 0.7309 0.77753 0.0
C453 C 0.79928 0.76691 0.76401 0.0
H454 H 0.70126 0.7247 0.80007 0.0
C455 C 0.79234 0.82655 0.76119 0.0
H456 H 0.76976 0.68471 0.78052 0.0
C457 C 0.75277 0.84949 0.77197 0.0
C458 C 0.71901 0.81348 0.78546 0.0
H459 H 0.81703 0.85568 0.74942 0.0
H460 H 0.74853 0.89568 0.76896 0.0
C461 C 0.72595 0.75383 0.7883 0.0
C462 C 0.7258 0.82691 0.29152 0.0
C463 C 0.71908 0.76728 0.2877 0.0
H464 H 0.7694 0.8963 0.28488 0.0
C465 C 0.75297 0.73159 0.27377 0.0
H466 H 0.70098 0.85575 0.30365 0.0
C467 C 0.79245 0.75482 0.26344 0.0
C468 C 0.79917 0.81445 0.26719 0.0
H469 H 0.74887 0.68544 0.27 0.0
H470 H 0.81723 0.72595 0.2512 0.0
C471 C 0.76531 0.85015 0.28121 0.0
C472 C 0.04934 0.21695 0.98295 0.0
C473 C 0.02678 0.24314 0.92807 0.0
H474 H 0.06258 0.21579 0.08655 0.0
C475 C 1.00453 0.29434 0.93603 0.0
H476 H 0.06662 0.17716 0.97815 0.0
C477 C 1.00141 0.31566 0.99826 0.0
C478 C 0.0209 0.28658 0.05367 0.0
H479 H 0.98639 0.31501 0.89491 0.0
H480 H 0.98208 0.35364 1.00305 0.0
C481 C 0.0467 0.23867 0.04513 0.0
C482 C 0.47373 0.22029 0.06667 0.0
C483 C 0.49702 0.24534 0.12138 0.0
H484 H 0.45975 0.22013 0.96336 0.0
C485 C 0.5206 0.29535 0.1134 0.0
H486 H 0.45557 0.18133 0.07152 0.0
C487 C 0.52392 0.31675 0.05116 0.0
C488 C 0.50331 0.28889 0.99587 0.0
H489 H 0.53944 0.31491 0.15449 0.0
H490 H 0.54403 0.35385 0.04628 0.0
C491 C 0.47658 0.24204 1.00462 0.0
C492 C 0.01486 0.76477 0.04266 0.0
C493 C 0.99848 0.79695 0.98766 0.0
H494 H 0.02956 0.76281 0.14609 0.0
C495 C 0.97791 0.84928 0.99685 0.0
H496 H 0.03026 0.72366 0.0372 0.0
C497 C 0.97762 0.87157 0.05939 0.0
C498 C 0.9971 0.84149 0.11397 0.0
H499 H 0.96475 0.87481 0.95566 0.0
H500 H 0.96455 0.91418 0.06476 0.0
C501 C 0.01387 0.78661 0.10523 0.0
C502 C 0.50351 0.76497 1.00674 0.0
C503 C 0.51952 0.79729 0.06167 0.0
H504 H 0.48877 0.76298 0.90329 0.0
C505 C 0.53934 0.85007 0.05235 0.0
H506 H 0.48867 0.72355 1.01231 0.0
C507 C 0.53924 0.87255 0.98974 0.0
C508 C 0.52015 0.84224 0.93522 0.0
H509 H 0.55217 0.87574 0.09347 0.0
H510 H 0.55174 0.91542 0.98429 0.0
C511 C 0.50414 0.78701 0.9441 0.0
C512 C 0.5394 0.73018 0.55254 0.0
C513 C 0.5193 0.78288 0.5616 0.0
H514 H 0.55217 0.66483 0.48479 0.0
C515 C 0.50313 0.8151 0.50652 0.0
H516 H 0.55235 0.70459 0.59379 0.0
C517 C 0.50394 0.79303 0.44399 0.0
C518 C 0.52024 0.73787 0.43538 0.0
H519 H 0.48808 0.85647 0.5119 0.0
H520 H 0.48848 0.81697 0.40305 0.0
C521 C 0.53946 0.70766 0.49005 0.0
C522 C 0.979 0.70792 0.55991 0.0
C523 C 0.99832 0.73816 0.61432 0.0
H524 H 0.96607 0.70456 0.45623 0.0
C525 C 0.01478 0.79309 0.60534 0.0
H526 H 0.96617 0.66526 0.56551 0.0
C527 C 0.01566 0.81488 0.54267 0.0
C528 C 0.99943 0.78256 0.48786 0.0
H529 H 0.03033 0.81701 0.64611 0.0
H530 H 0.0308 0.85607 0.53701 0.0
C531 C 0.97914 0.73016 0.49728 0.0
C532 C 0.47178 0.36027 0.56578 0.0
C533 C 0.49499 0.33542 0.62083 0.0
H534 H 0.45805 0.35998 0.46241 0.0
C535 C 0.51867 0.2853 0.6134 0.0
H536 H 0.45349 0.39928 0.57016 0.0
C537 C 0.52217 0.26357 0.55141 0.0
C538 C 0.50163 0.29121 0.49577 0.0
H539 H 0.53742 0.26581 0.65475 0.0
H540 H 0.54237 0.2264 0.54697 0.0
C541 C 0.4748 0.3382 0.50395 0.0
C542 C 0.0385 0.36798 0.48227 0.0
C543 C 0.01799 0.33972 0.42744 0.0
H544 H 0.0514 0.36982 0.58579 0.0
C545 C 0.99807 0.28682 0.43562 0.0
H546 H 0.05385 0.40913 0.47729 0.0
C547 C 0.99564 0.26508 0.49797 0.0
C548 C 0.01365 0.29543 0.55322 0.0
H549 H 0.98142 0.26463 0.3944 0.0
H550 H 0.97837 0.22539 0.50296 0.0
C551 C 0.03672 0.34581 0.54447 0.0
loop_
_geom_bond_atom_site_label_1
_geom_bond_atom_site_label_2
_geom_bond_distance
_geom_bond_site_symmetry_2
_ccdc_geom_bond_type
Zn0 N4 2.020 . S
Zn0 O8 2.019 . S
Zn0 N10 2.119 . S
Zn0 O18 1.975 1_655 S
C1 N2 1.339 . S
C1 N5 1.336 . S
N2 C1 1.339 . S
N2 C3 1.332 1_455 S
C3 N2 1.332 1_655 S
C3 N4 1.336 . S
N4 Zn0 2.020 . S
N4 C3 1.336 . S
N4 N5 1.354 1_655 S
N5 C1 1.336 . S
N5 N4 1.354 1_455 S
N5 Zn9 2.020 . S
C6 O7 1.244 1_455 S
C6 O30 1.257 . S
O7 C6 1.244 1_655 S
O8 Zn0 2.019 . S
O8 C28 1.257 1_655 S
Zn9 N5 2.020 . S
Zn9 O16 1.975 . S
Zn9 N25 2.119 . S
Zn9 O30 2.019 . S
N10 Zn0 2.119 . S
N10 C12 1.334 . S
N10 C13 1.328 . S
C11 C12 1.391 . S
C11 N14 1.329 . S
C11 H32 0.930 . S
C12 N10 1.334 . S
C12 C11 1.391 . S
C12 H19 0.930 . S
C13 N10 1.328 . S
C13 C15 1.392 . S
C13 H20 0.930 . S
N14 C11 1.329 . S
N14 C15 1.331 . S
C15 C13 1.392 . S
C15 N14 1.331 . S
O16 Zn9 1.975 . S
O16 C17 1.252 . S
C17 O16 1.252 . S
C17 O18 1.252 . S
O18 Zn0 1.975 1_455 S
O18 C17 1.252 . S
H19 C12 0.930 . S
H20 C13 0.930 . S
C21 C22 1.392 . S
C21 N25 1.328 . S
C21 H27 0.930 . S
C22 C21 1.392 . S
C22 N26 1.331 . S
C23 C24 1.391 . S
C23 N26 1.329 . S
C23 H33 0.930 . S
C24 C23 1.391 . S
C24 N25 1.334 . S
C24 H31 0.930 . S
N25 Zn9 2.119 . S
N25 C21 1.328 . S
N25 C24 1.334 . S
N26 C22 1.331 . S
N26 C23 1.329 . S
H27 C21 0.930 . S
C28 O8 1.257 1_455 S
C28 O29 1.244 . S
O29 C28 1.244 . S
O30 C6 1.257 . S
O30 Zn9 2.019 . S
H31 C24 0.930 . S
H32 C11 0.930 . S
H33 C23 0.930 . S
Zn34 N38 2.020 . S
Zn34 O42 2.019 . S
Zn34 N44 2.119 . S
Zn34 O52 1.975 . S
C35 N36 1.334 . S
C35 N39 1.336 . S
N36 C35 1.334 . S
N36 C37 1.334 . S
C37 N36 1.334 . S
C37 N38 1.336 . S
N38 Zn34 2.020 . S
N38 C37 1.336 . S
N38 N39 1.354 . S
N39 C35 1.336 . S
N39 N38 1.354 . S
N39 Zn43 2.020 . S
C40 O41 1.244 . S
C40 O64 1.257 . S
O41 C40 1.244 . S
O42 Zn34 2.019 . S
O42 C62 1.257 . S
Zn43 N39 2.020 . S
Zn43 O50 1.975 . S
Zn43 N59 2.119 . S
Zn43 O64 2.019 . S
N44 Zn34 2.119 . S
N44 C46 1.334 . S
N44 C47 1.328 . S
C45 C46 1.391 . S
C45 N48 1.329 . S
C45 H66 0.930 . S
C46 N44 1.334 . S
C46 C45 1.391 . S
C46 H53 0.930 . S
C47 N44 1.328 . S
C47 C49 1.392 . S
C47 H54 0.930 . S
N48 C45 1.329 . S
N48 C49 1.331 . S
C49 C47 1.392 . S
C49 N48 1.331 . S
O50 Zn43 1.975 . S
O50 C51 1.252 . S
C51 O50 1.252 . S
C51 O52 1.252 . S
O52 Zn34 1.975 . S
O52 C51 1.252 . S
H53 C46 0.930 . S
H54 C47 0.930 . S
C55 C56 1.392 . S
C55 N59 1.328 . S
C55 H61 0.930 . S
C56 C55 1.392 . S
C56 N60 1.331 . S
C57 C58 1.391 . S
C57 N60 1.329 . S
C57 H67 0.930 . S
C58 C57 1.391 . S
C58 N59 1.334 . S
C58 H65 0.930 . S
N59 Zn43 2.119 . S
N59 C55 1.328 . S
N59 C58 1.334 . S
N60 C56 1.331 . S
N60 C57 1.329 . S
H61 C55 0.930 . S
C62 O42 1.257 . S
C62 O63 1.244 . S
O63 C62 1.244 . S
O64 C40 1.257 . S
O64 Zn43 2.019 . S
H65 C58 0.930 . S
H66 C45 0.930 . S
H67 C57 0.930 . S
Zn68 N72 2.020 . S
Zn68 O76 2.019 . S
Zn68 N78 2.119 . S
Zn68 O86 1.975 . S
C69 N70 1.332 1_455 S
C69 N73 1.336 . S
N70 C69 1.332 1_655 S
N70 C71 1.339 . S
C71 N70 1.339 . S
C71 N72 1.336 . S
N72 Zn68 2.020 . S
N72 C71 1.336 . S
N72 N73 1.354 1_655 S
N73 C69 1.336 . S
N73 N72 1.354 1_455 S
N73 Zn77 2.020 . S
C74 O75 1.244 . S
C74 O98 1.257 1_655 S
O75 C74 1.244 . S
O76 Zn68 2.019 . S
O76 C96 1.257 . S
Zn77 N73 2.020 . S
Zn77 O84 1.975 1_455 S
Zn77 N93 2.119 . S
Zn77 O98 2.019 . S
N78 Zn68 2.119 . S
N78 C80 1.334 . S
N78 C81 1.328 . S
C79 C80 1.391 . S
C79 N82 1.329 . S
C79 H100 0.930 . S
C80 N78 1.334 . S
C80 C79 1.391 . S
C80 H87 0.930 . S
C81 N78 1.328 . S
C81 C83 1.392 . S
C81 H88 0.930 . S
N82 C79 1.329 . S
N82 C83 1.331 . S
C83 C81 1.392 . S
C83 N82 1.331 . S
O84 Zn77 1.975 1_655 S
O84 C85 1.252 . S
C85 O84 1.252 . S
C85 O86 1.252 . S
O86 Zn68 1.975 . S
O86 C85 1.252 . S
H87 C80 0.930 . S
H88 C81 0.930 . S
C89 C90 1.392 . S
C89 N93 1.328 . S
C89 H95 0.930 . S
C90 C89 1.392 . S
C90 N94 1.331 . S
C91 C92 1.391 . S
C91 N94 1.329 . S
C91 H101 0.930 . S
C92 C91 1.391 . S
C92 N93 1.334 . S
C92 H99 0.930 . S
N93 Zn77 2.119 . S
N93 C89 1.328 . S
N93 C92 1.334 . S
N94 C90 1.331 . S
N94 C91 1.329 . S
H95 C89 0.930 . S
C96 O76 1.257 . S
C96 O97 1.244 1_655 S
O97 C96 1.244 1_455 S
O98 C74 1.257 1_455 S
O98 Zn77 2.019 . S
H99 C92 0.930 . S
H100 C79 0.930 . S
H101 C91 0.930 . S
Zn102 N106 2.020 . S
Zn102 O110 2.019 . S
Zn102 N112 2.119 . S
Zn102 O120 1.975 . S
C103 N104 1.334 . S
C103 N107 1.336 . S
N104 C103 1.334 . S
N104 C105 1.334 . S
C105 N104 1.334 . S
C105 N106 1.336 . S
N106 Zn102 2.020 . S
N106 C105 1.336 . S
N106 N107 1.354 . S
N107 C103 1.336 . S
N107 N106 1.354 . S
N107 Zn111 2.020 . S
C108 O109 1.244 . S
C108 O132 1.257 . S
O109 C108 1.244 . S
O110 Zn102 2.019 . S
O110 C130 1.257 . S
Zn111 N107 2.020 . S
Zn111 O118 1.975 . S
Zn111 N127 2.119 . S
Zn111 O132 2.019 . S
N112 Zn102 2.119 . S
N112 C114 1.334 . S
N112 C115 1.328 . S
C113 C114 1.391 . S
C113 N116 1.329 . S
C113 H134 0.930 . S
C114 N112 1.334 . S
C114 C113 1.391 . S
C114 H121 0.930 . S
C115 N112 1.328 . S
C115 C117 1.392 . S
C115 H122 0.930 . S
N116 C113 1.329 . S
N116 C117 1.331 . S
C117 C115 1.392 . S
C117 N116 1.331 . S
O118 Zn111 1.975 . S
O118 C119 1.252 . S
C119 O118 1.252 . S
C119 O120 1.252 . S
O120 Zn102 1.975 . S
O120 C119 1.252 . S
H121 C114 0.930 . S
H122 C115 0.930 . S
C123 C124 1.392 . S
C123 N127 1.328 . S
C123 H129 0.930 . S
C124 C123 1.392 . S
C124 N128 1.331 . S
C125 C126 1.391 . S
C125 N128 1.329 . S
C125 H135 0.930 . S
C126 C125 1.391 . S
C126 N127 1.334 . S
C126 H133 0.930 . S
N127 Zn111 2.119 . S
N127 C123 1.328 . S
N127 C126 1.334 . S
N128 C124 1.331 . S
N128 C125 1.329 . S
H129 C123 0.930 . S
C130 O110 1.257 . S
C130 O131 1.244 . S
O131 C130 1.244 . S
O132 C108 1.257 . S
O132 Zn111 2.019 . S
H133 C126 0.930 . S
H134 C113 0.930 . S
H135 C125 0.930 . S
Zn136 N140 2.020 . S
Zn136 O144 2.019 . S
Zn136 N146 2.119 . S
Zn136 O154 1.975 . S
C137 N138 1.334 . S
C137 N141 1.336 . S
N138 C137 1.334 . S
N138 C139 1.334 . S
C139 N138 1.334 . S
C139 N140 1.336 . S
N140 Zn136 2.020 . S
N140 C139 1.336 . S
N140 N141 1.354 . S
N141 C137 1.336 . S
N141 N140 1.354 . S
N141 Zn145 2.020 . S
C142 O143 1.244 . S
C142 O166 1.257 . S
O143 C142 1.244 . S
O144 Zn136 2.019 . S
O144 C164 1.257 . S
Zn145 N141 2.020 . S
Zn145 O152 1.975 . S
Zn145 N161 2.119 . S
Zn145 O166 2.019 . S
N146 Zn136 2.119 . S
N146 C148 1.334 . S
N146 C149 1.328 . S
C147 C148 1.391 . S
C147 N150 1.329 . S
C147 H168 0.930 . S
C148 N146 1.334 . S
C148 C147 1.391 . S
C148 H155 0.930 . S
C149 N146 1.328 . S
C149 C151 1.392 . S
C149 H156 0.930 . S
N150 C147 1.329 . S
N150 C151 1.331 . S
C151 C149 1.392 . S
C151 N150 1.331 . S
O152 Zn145 1.975 . S
O152 C153 1.252 . S
C153 O152 1.252 . S
C153 O154 1.252 . S
O154 Zn136 1.975 . S
O154 C153 1.252 . S
H155 C148 0.930 . S
H156 C149 0.930 . S
C157 C158 1.392 . S
C157 N161 1.328 . S
C157 H163 0.930 . S
C158 C157 1.392 . S
C158 N162 1.331 . S
C159 C160 1.391 . S
C159 N162 1.329 . S
C159 H169 0.930 . S
C160 C159 1.391 . S
C160 N161 1.334 . S
C160 H167 0.930 . S
N161 Zn145 2.119 . S
N161 C157 1.328 . S
N161 C160 1.334 . S
N162 C158 1.331 . S
N162 C159 1.329 . S
H163 C157 0.930 . S
C164 O144 1.257 . S
C164 O165 1.244 . S
O165 C164 1.244 . S
O166 C142 1.257 . S
O166 Zn145 2.019 . S
H167 C160 0.930 . S
H168 C147 0.930 . S
H169 C159 0.930 . S
Zn170 N174 2.020 . S
Zn170 O178 2.019 . S
Zn170 N180 2.119 . S
Zn170 O188 1.975 . S
C171 N172 1.332 1_455 S
C171 N175 1.336 . S
N172 C171 1.332 1_655 S
N172 C173 1.339 . S
C173 N172 1.339 . S
C173 N174 1.336 . S
N174 Zn170 2.020 . S
N174 C173 1.336 . S
N174 N175 1.354 1_655 S
N175 C171 1.336 . S
N175 N174 1.354 1_455 S
N175 Zn179 2.020 . S
C176 O177 1.244 . S
C176 O200 1.257 1_655 S
O177 C176 1.244 . S
O178 Zn170 2.019 . S
O178 C198 1.257 . S
Zn179 N175 2.020 . S
Zn179 O186 1.975 1_455 S
Zn179 N195 2.119 . S
Zn179 O200 2.019 . S
N180 Zn170 2.119 . S
N180 C182 1.334 . S
N180 C183 1.328 . S
C181 C182 1.391 . S
C181 N184 1.329 . S
C181 H202 0.930 . S
C182 N180 1.334 . S
C182 C181 1.391 . S
C182 H189 0.930 . S
C183 N180 1.328 . S
C183 C185 1.392 . S
C183 H190 0.930 . S
N184 C181 1.329 . S
N184 C185 1.331 . S
C185 C183 1.392 . S
C185 N184 1.331 . S
O186 Zn179 1.975 1_655 S
O186 C187 1.252 . S
C187 O186 1.252 . S
C187 O188 1.252 . S
O188 Zn170 1.975 . S
O188 C187 1.252 . S
H189 C182 0.930 . S
H190 C183 0.930 . S
C191 C192 1.392 . S
C191 N195 1.328 . S
C191 H197 0.930 . S
C192 C191 1.392 . S
C192 N196 1.331 . S
C193 C194 1.391 . S
C193 N196 1.329 . S
C193 H203 0.930 . S
C194 C193 1.391 . S
C194 N195 1.334 . S
C194 H201 0.930 . S
N195 Zn179 2.119 . S
N195 C191 1.328 . S
N195 C194 1.334 . S
N196 C192 1.331 . S
N196 C193 1.329 . S
H197 C191 0.930 . S
C198 O178 1.257 . S
C198 O199 1.244 1_655 S
O199 C198 1.244 1_455 S
O200 C176 1.257 1_455 S
O200 Zn179 2.019 . S
H201 C194 0.930 . S
H202 C181 0.930 . S
H203 C193 0.930 . S
Zn204 N208 2.020 . S
Zn204 O212 2.019 . S
Zn204 N214 2.119 . S
Zn204 O222 1.975 . S
C205 N206 1.334 . S
C205 N209 1.336 . S
N206 C205 1.334 . S
N206 C207 1.334 . S
C207 N206 1.334 . S
C207 N208 1.336 . S
N208 Zn204 2.020 . S
N208 C207 1.336 . S
N208 N209 1.354 . S
N209 C205 1.336 . S
N209 N208 1.354 . S
N209 Zn213 2.020 . S
C210 O211 1.244 . S
C210 O234 1.257 . S
O211 C210 1.244 . S
O212 Zn204 2.019 . S
O212 C232 1.257 . S
Zn213 N209 2.020 . S
Zn213 O220 1.975 . S
Zn213 N229 2.119 . S
Zn213 O234 2.019 . S
N214 Zn204 2.119 . S
N214 C216 1.334 . S
N214 C217 1.328 . S
C215 C216 1.391 . S
C215 N218 1.329 . S
C215 H236 0.930 . S
C216 N214 1.334 . S
C216 C215 1.391 . S
C216 H223 0.930 . S
C217 N214 1.328 . S
C217 C219 1.392 . S
C217 H224 0.930 . S
N218 C215 1.329 . S
N218 C219 1.331 . S
C219 C217 1.392 . S
C219 N218 1.331 . S
O220 Zn213 1.975 . S
O220 C221 1.252 . S
C221 O220 1.252 . S
C221 O222 1.252 . S
O222 Zn204 1.975 . S
O222 C221 1.252 . S
H223 C216 0.930 . S
H224 C217 0.930 . S
C225 C226 1.392 . S
C225 N229 1.328 . S
C225 H231 0.930 . S
C226 C225 1.392 . S
C226 N230 1.331 . S
C227 C228 1.391 . S
C227 N230 1.329 . S
C227 H237 0.930 . S
C228 C227 1.391 . S
C228 N229 1.334 . S
C228 H235 0.930 . S
N229 Zn213 2.119 . S
N229 C225 1.328 . S
N229 C228 1.334 . S
N230 C226 1.331 . S
N230 C227 1.329 . S
H231 C225 0.930 . S
C232 O212 1.257 . S
C232 O233 1.244 . S
O233 C232 1.244 . S
O234 C210 1.257 . S
O234 Zn213 2.019 . S
H235 C228 0.930 . S
H236 C215 0.930 . S
H237 C227 0.930 . S
Zn238 N242 2.020 . S
Zn238 O246 2.019 . S
Zn238 N248 2.119 . S
Zn238 O256 1.975 . S
C239 N240 1.332 1_655 S
C239 N243 1.336 . S
N240 C239 1.332 1_455 S
N240 C241 1.339 . S
C241 N240 1.339 . S
C241 N242 1.336 . S
N242 Zn238 2.020 . S
N242 C241 1.336 . S
N242 N243 1.354 1_455 S
N243 C239 1.336 . S
N243 N242 1.354 1_655 S
N243 Zn247 2.020 . S
C244 O245 1.244 . S
C244 O268 1.257 1_455 S
O245 C244 1.244 . S
O246 Zn238 2.019 . S
O246 C266 1.257 . S
Zn247 N243 2.020 . S
Zn247 O254 1.975 1_655 S
Zn247 N263 2.119 . S
Zn247 O268 2.019 . S
N248 Zn238 2.119 . S
N248 C250 1.334 . S
N248 C251 1.328 . S
C249 C250 1.391 . S
C249 N252 1.329 . S
C249 H270 0.930 . S
C250 N248 1.334 . S
C250 C249 1.391 . S
C250 H257 0.930 . S
C251 N248 1.328 . S
C251 C253 1.392 . S
C251 H258 0.930 . S
N252 C249 1.329 . S
N252 C253 1.331 . S
C253 C251 1.392 . S
C253 N252 1.331 . S
O254 Zn247 1.975 1_455 S
O254 C255 1.252 . S
C255 O254 1.252 . S
C255 O256 1.252 . S
O256 Zn238 1.975 . S
O256 C255 1.252 . S
H257 C250 0.930 . S
H258 C251 0.930 . S
C259 C260 1.392 . S
C259 N263 1.328 . S
C259 H265 0.930 . S
C260 C259 1.392 . S
C260 N264 1.331 . S
C261 C262 1.391 . S
C261 N264 1.329 . S
C261 H271 0.930 . S
C262 C261 1.391 . S
C262 N263 1.334 . S
C262 H269 0.930 . S
N263 Zn247 2.119 . S
N263 C259 1.328 . S
N263 C262 1.334 . S
N264 C260 1.331 . S
N264 C261 1.329 . S
H265 C259 0.930 . S
C266 O246 1.257 . S
C266 O267 1.244 1_455 S
O267 C266 1.244 1_655 S
O268 C244 1.257 1_655 S
O268 Zn247 2.019 . S
H269 C262 0.930 . S
H270 C249 0.930 . S
H271 C261 0.930 . S
C272 C273 1.387 1_655 S
C272 H276 0.950 . S
C272 C281 1.390 1_565 S
C273 C272 1.387 1_455 S
C273 C275 1.387 1_565 S
H274 C281 0.950 . S
C275 C273 1.387 1_545 S
C275 C277 1.391 . S
C275 H279 0.950 1_545 S
H276 C272 0.950 . S
C277 C275 1.391 . S
C277 C278 1.387 . S
C277 H280 0.950 . S
C278 C277 1.387 . S
C278 C281 1.387 1_455 S
H279 C275 0.950 1_565 S
H280 C277 0.950 . S
C281 C272 1.390 1_545 S
C281 H274 0.950 . S
C281 C278 1.387 1_655 S
C282 C283 1.390 . S
C282 H286 0.951 . S
C282 C291 1.386 1_565 S
C283 C282 1.390 . S
C283 C285 1.387 . S
H284 C291 0.950 . S
C285 C283 1.387 . S
C285 C287 1.390 1_565 S
C285 H289 0.950 . S
H286 C282 0.951 . S
C287 C285 1.390 1_545 S
C287 C288 1.387 . S
C287 H290 0.950 . S
C288 C287 1.387 . S
C288 C291 1.387 . S
H289 C285 0.950 . S
H290 C287 0.950 . S
C291 C282 1.386 1_545 S
C291 H284 0.950 . S
C291 C288 1.387 . S
C292 C293 1.387 . S
C292 H296 0.950 1_655 S
C292 C301 1.390 1_545 S
C293 C292 1.387 . S
C293 C295 1.387 1_545 S
H294 C301 0.950 1_455 S
C295 C293 1.387 1_565 S
C295 C297 1.390 . S
C295 H299 0.950 1_565 S
H296 C292 0.950 1_455 S
C297 C295 1.390 . S
C297 C298 1.387 . S
C297 H300 0.950 . S
C298 C297 1.387 . S
C298 C301 1.387 . S
H299 C295 0.950 1_545 S
H300 C297 0.950 . S
C301 C292 1.390 1_565 S
C301 H294 0.950 1_655 S
C301 C298 1.387 . S
C302 C303 1.387 . S
C302 H306 0.950 . S
C302 C311 1.390 1_565 S
C303 C302 1.387 . S
C303 C305 1.387 . S
H304 C311 0.950 . S
C305 C303 1.387 . S
C305 C307 1.390 1_565 S
C305 H309 0.950 . S
H306 C302 0.950 . S
C307 C305 1.390 1_545 S
C307 C308 1.387 . S
C307 H310 0.950 . S
C308 C307 1.387 . S
C308 C311 1.387 . S
H309 C305 0.950 . S
H310 C307 0.950 . S
C311 C302 1.390 1_545 S
C311 H304 0.950 . S
C311 C308 1.387 . S
C312 C313 1.387 . S
C312 H316 0.950 . S
C312 C321 1.390 . S
C313 C312 1.387 . S
C313 C315 1.387 . S
H314 C321 0.950 . S
C315 C313 1.387 . S
C315 C317 1.390 . S
C315 H319 0.950 . S
H316 C312 0.950 . S
C317 C315 1.390 . S
C317 C318 1.387 . S
C317 H320 0.950 . S
C318 C317 1.387 . S
C318 C321 1.387 . S
H319 C315 0.950 . S
H320 C317 0.950 . S
C321 C312 1.390 . S
C321 H314 0.950 . S
C321 C318 1.387 . S
C322 C323 1.387 1_455 S
C322 H326 0.950 . S
C322 C331 1.390 . S
C323 C322 1.387 1_655 S
C323 C325 1.387 . S
H324 C331 0.950 . S
C325 C323 1.387 . S
C325 C327 1.390 . S
C325 H329 0.950 . S
H326 C322 0.950 . S
C327 C325 1.390 . S
C327 C328 1.387 . S
C327 H330 0.950 . S
C328 C327 1.387 . S
C328 C331 1.387 1_655 S
H329 C325 0.950 . S
H330 C327 0.950 . S
C331 C322 1.390 . S
C331 H324 0.950 . S
C331 C328 1.387 1_455 S
C332 C333 1.387 . S
C332 H336 0.950 . S
C332 C341 1.390 . S
C333 C332 1.387 . S
C333 C335 1.387 . S
H334 C341 0.950 . S
C335 C333 1.387 . S
C335 C337 1.390 . S
C335 H339 0.950 . S
H336 C332 0.950 . S
C337 C335 1.390 . S
C337 C338 1.387 . S
C337 H340 0.950 . S
C338 C337 1.387 . S
C338 C341 1.387 . S
H339 C335 0.950 . S
H340 C337 0.950 . S
C341 C332 1.390 . S
C341 H334 0.950 . S
C341 C338 1.387 . S
C342 C343 1.387 1_655 S
C342 H346 0.950 . S
C342 C351 1.390 . S
C343 C342 1.387 1_455 S
C343 C345 1.387 . S
H344 C351 0.950 . S
C345 C343 1.387 . S
C345 C347 1.390 . S
C345 H349 0.950 . S
H346 C342 0.950 . S
C347 C345 1.390 . S
C347 C348 1.387 . S
C347 H350 0.950 . S
C348 C347 1.387 . S
C348 C351 1.387 1_455 S
H349 C345 0.950 . S
H350 C347 0.950 . S
C351 C342 1.390 . S
C351 H344 0.950 . S
C351 C348 1.387 1_655 S
C352 C353 1.387 . S
C352 H356 0.950 . S
C352 C361 1.390 1_554 S
C353 C352 1.387 . S
C353 C355 1.387 1_455 S
H354 C361 0.950 . S
C355 C353 1.387 1_655 S
C355 C357 1.390 1_554 S
C355 H359 0.950 . S
H356 C352 0.950 . S
C357 C355 1.390 1_556 S
C357 C358 1.387 . S
C357 H360 0.950 . S
C358 C357 1.387 . S
C358 C361 1.387 1_655 S
H359 C355 0.950 . S
H360 C357 0.950 . S
C361 C352 1.390 1_556 S
C361 H354 0.950 . S
C361 C358 1.387 1_455 S
C362 C363 1.387 . S
C362 H366 0.950 . S
C362 C371 1.390 1_554 S
C363 C362 1.387 . S
C363 C365 1.387 . S
H364 C371 0.950 . S
C365 C363 1.387 . S
C365 C367 1.390 1_554 S
C365 H369 0.950 . S
H366 C362 0.950 . S
C367 C365 1.390 1_556 S
C367 C368 1.387 . S
C367 H370 0.950 . S
C368 C367 1.387 . S
C368 C371 1.387 . S
H369 C365 0.950 . S
H370 C367 0.950 . S
C371 C362 1.390 1_556 S
C371 H364 0.950 . S
C371 C368 1.387 . S
C372 C373 1.387 . S
C372 H376 0.950 . S
C372 C381 1.390 . S
C373 C372 1.387 . S
C373 C375 1.387 1_545 S
H374 C381 0.950 . S
C375 C373 1.387 1_565 S
C375 C377 1.390 . S
C375 H379 0.950 . S
H376 C372 0.950 . S
C377 C375 1.390 . S
C377 C378 1.387 . S
C377 H380 0.950 . S
C378 C377 1.387 . S
C378 C381 1.387 1_565 S
H379 C375 0.950 . S
H380 C377 0.950 . S
C381 C372 1.390 . S
C381 H374 0.950 . S
C381 C378 1.387 1_545 S
C382 C383 1.387 . S
C382 H386 0.950 . S
C382 C391 1.390 1_655 S
C383 C382 1.387 . S
C383 C385 1.388 1_565 S
H384 C391 0.950 . S
C385 C383 1.388 1_545 S
C385 C387 1.390 1_655 S
C385 H389 0.950 . S
H386 C382 0.950 . S
C387 C385 1.390 1_455 S
C387 C388 1.387 . S
C387 H390 0.950 . S
C388 C387 1.387 . S
C388 C391 1.388 1_545 S
H389 C385 0.950 . S
H390 C387 0.950 . S
C391 C382 1.390 1_455 S
C391 H384 0.950 . S
C391 C388 1.388 1_565 S
C392 C393 1.387 . S
C392 H396 0.950 . S
C392 C401 1.390 1_554 S
C393 C392 1.387 . S
C393 C395 1.387 . S
H394 C401 0.950 . S
C395 C393 1.387 . S
C395 C397 1.390 1_554 S
C395 H399 0.950 . S
H396 C392 0.950 . S
C397 C395 1.390 1_556 S
C397 C398 1.387 . S
C397 H400 0.950 . S
C398 C397 1.387 . S
C398 C401 1.387 . S
H399 C395 0.950 . S
H400 C397 0.950 . S
C401 C392 1.390 1_556 S
C401 H394 0.950 . S
C401 C398 1.387 . S
C402 C403 1.387 . S
C402 H406 0.950 . S
C402 C411 1.390 1_554 S
C403 C402 1.387 . S
C403 C405 1.387 . S
H404 C411 0.950 . S
C405 C403 1.387 . S
C405 C407 1.390 1_554 S
C405 H409 0.950 . S
H406 C402 0.950 . S
C407 C405 1.390 1_556 S
C407 C408 1.387 . S
C407 H410 0.950 . S
C408 C407 1.387 . S
C408 C411 1.387 . S
H409 C405 0.950 . S
H410 C407 0.950 . S
C411 C402 1.390 1_556 S
C411 H404 0.950 . S
C411 C408 1.387 . S
C412 C413 1.387 . S
C412 H416 0.950 . S
C412 C421 1.390 . S
C413 C412 1.387 . S
C413 C415 1.387 . S
H414 C421 0.950 . S
C415 C413 1.387 . S
C415 C417 1.390 . S
C415 H419 0.950 . S
H416 C412 0.950 . S
C417 C415 1.390 . S
C417 C418 1.387 . S
C417 H420 0.950 . S
C418 C417 1.387 . S
C418 C421 1.387 . S
H419 C415 0.950 . S
H420 C417 0.950 . S
C421 C412 1.390 . S
C421 H414 0.950 . S
C421 C418 1.387 . S
C422 C423 1.387 . S
C422 H426 0.950 . S
C422 C431 1.390 . S
C423 C422 1.387 . S
C423 C425 1.387 . S
H424 C431 0.950 . S
C425 C423 1.387 . S
C425 C427 1.390 . S
C425 H429 0.950 . S
H426 C422 0.950 . S
C427 C425 1.390 . S
C427 C428 1.387 . S
C427 H430 0.950 . S
C428 C427 1.387 . S
C428 C431 1.387 . S
H429 C425 0.950 . S
H430 C427 0.950 . S
C431 C422 1.390 . S
C431 H424 0.950 . S
C431 C428 1.387 . S
C432 C433 1.387 . S
C432 H436 0.950 . S
C432 C441 1.390 . S
C433 C432 1.387 . S
C433 C435 1.387 . S
H434 C441 0.950 . S
C435 C433 1.387 . S
C435 C437 1.390 . S
C435 H439 0.950 . S
H436 C432 0.950 . S
C437 C435 1.390 . S
C437 C438 1.387 . S
C437 H440 0.950 . S
C438 C437 1.387 . S
C438 C441 1.387 . S
H439 C435 0.950 . S
H440 C437 0.950 . S
C441 C432 1.390 . S
C441 H434 0.950 . S
C441 C438 1.387 . S
C442 C443 1.387 . S
C442 H446 0.950 . S
C442 C451 1.390 . S
C443 C442 1.387 . S
C443 C445 1.387 . S
H444 C451 0.950 . S
C445 C443 1.387 . S
C445 C447 1.390 . S
C445 H449 0.950 . S
H446 C442 0.950 . S
C447 C445 1.390 . S
C447 C448 1.387 . S
C447 H450 0.950 . S
C448 C447 1.387 . S
C448 C451 1.387 . S
H449 C445 0.950 . S
H450 C447 0.950 . S
C451 C442 1.390 . S
C451 H444 0.950 . S
C451 C448 1.387 . S
C452 C453 1.387 . S
C452 H456 0.950 . S
C452 C461 1.390 . S
C453 C452 1.387 . S
C453 C455 1.387 . S
H454 C461 0.950 . S
C455 C453 1.387 . S
C455 C457 1.390 . S
C455 H459 0.950 . S
H456 C452 0.950 . S
C457 C455 1.390 . S
C457 C458 1.387 . S
C457 H460 0.950 . S
C458 C457 1.387 . S
C458 C461 1.387 . S
H459 C455 0.950 . S
H460 C457 0.950 . S
C461 C452 1.390 . S
C461 H454 0.950 . S
C461 C458 1.387 . S
C462 C463 1.387 . S
C462 H466 0.950 . S
C462 C471 1.390 . S
C463 C462 1.387 . S
C463 C465 1.387 . S
H464 C471 0.950 . S
C465 C463 1.387 . S
C465 C467 1.390 . S
C465 H469 0.950 . S
H466 C462 0.950 . S
C467 C465 1.390 . S
C467 C468 1.387 . S
C467 H470 0.950 . S
C468 C467 1.387 . S
C468 C471 1.387 . S
H469 C465 0.950 . S
H470 C467 0.950 . S
C471 C462 1.390 . S
C471 H464 0.950 . S
C471 C468 1.387 . S
C472 C473 1.387 . S
C472 H476 0.950 . S
C472 C481 1.390 . S
C473 C472 1.387 . S
C473 C475 1.387 1_455 S
H474 C481 0.950 1_554 S
C475 C473 1.387 1_655 S
C475 C477 1.390 . S
C475 H479 0.950 . S
H476 C472 0.950 . S
C477 C475 1.390 . S
C477 C478 1.387 1_655 S
C477 H480 0.950 . S
C478 C477 1.387 1_455 S
C478 C481 1.387 . S
H479 C475 0.950 . S
H480 C477 0.950 . S
C481 C472 1.390 . S
C481 H474 0.950 1_556 S
C481 C478 1.387 . S
C482 C483 1.387 . S
C482 H486 0.950 . S
C482 C491 1.390 . S
C483 C482 1.387 . S
C483 C485 1.387 . S
H484 C491 0.950 1_556 S
C485 C483 1.387 . S
C485 C487 1.390 . S
C485 H489 0.950 . S
H486 C482 0.950 . S
C487 C485 1.390 . S
C487 C488 1.387 . S
C487 H490 0.950 . S
C488 C487 1.387 . S
C488 C491 1.387 . S
H489 C485 0.950 . S
H490 C487 0.950 . S
C491 C482 1.390 . S
C491 H484 0.950 1_554 S
C491 C488 1.387 . S
C492 C493 1.387 . S
C492 H496 0.950 . S
C492 C501 1.390 . S
C493 C492 1.387 . S
C493 C495 1.387 . S
H494 C501 0.950 . S
C495 C493 1.387 . S
C495 C497 1.390 . S
C495 H499 0.950 1_655 S
H496 C492 0.950 . S
C497 C495 1.390 . S
C497 C498 1.387 . S
C497 H500 0.950 1_655 S
C498 C497 1.387 . S
C498 C501 1.387 . S
H499 C495 0.950 1_455 S
H500 C497 0.950 1_455 S
C501 C492 1.390 . S
C501 H494 0.950 . S
C501 C498 1.387 . S
C502 C503 1.387 . S
C502 H506 0.950 . S
C502 C511 1.390 . S
C503 C502 1.387 . S
C503 C505 1.387 . S
H504 C511 0.950 . S
C505 C503 1.387 . S
C505 C507 1.390 . S
C505 H509 0.950 1_556 S
H506 C502 0.950 . S
C507 C505 1.390 . S
C507 C508 1.387 . S
C507 H510 0.950 . S
C508 C507 1.387 . S
C508 C511 1.387 . S
H509 C505 0.950 1_554 S
H510 C507 0.950 . S
C511 C502 1.390 . S
C511 H504 0.950 . S
C511 C508 1.387 . S
C512 C513 1.387 . S
C512 H516 0.950 . S
C512 C521 1.390 . S
C513 C512 1.387 . S
C513 C515 1.387 . S
H514 C521 0.950 . S
C515 C513 1.387 . S
C515 C517 1.390 . S
C515 H519 0.950 . S
H516 C512 0.950 . S
C517 C515 1.390 . S
C517 C518 1.387 . S
C517 H520 0.950 . S
C518 C517 1.387 . S
C518 C521 1.387 . S
H519 C515 0.950 . S
H520 C517 0.950 . S
C521 C512 1.390 . S
C521 H514 0.950 . S
C521 C518 1.387 . S
C522 C523 1.387 . S
C522 H526 0.950 . S
C522 C531 1.390 . S
C523 C522 1.387 . S
C523 C525 1.387 . S
H524 C531 0.950 . S
C525 C523 1.387 . S
C525 C527 1.390 . S
C525 H529 0.950 . S
H526 C522 0.950 . S
C527 C525 1.390 . S
C527 C528 1.387 . S
C527 H530 0.950 . S
C528 C527 1.387 . S
C528 C531 1.387 . S
H529 C525 0.950 . S
H530 C527 0.950 . S
C531 C522 1.390 . S
C531 H524 0.950 . S
C531 C528 1.387 . S
C532 C533 1.387 . S
C532 H536 0.950 . S
C532 C541 1.390 . S
C533 C532 1.387 . S
C533 C535 1.387 . S
H534 C541 0.950 . S
C535 C533 1.387 . S
C535 C537 1.390 . S
C535 H539 0.950 . S
H536 C532 0.950 . S
C537 C535 1.390 . S
C537 C538 1.387 . S
C537 H540 0.950 . S
C538 C537 1.387 . S
C538 C541 1.387 . S
H539 C535 0.950 . S
H540 C537 0.950 . S
C541 C532 1.390 . S
C541 H534 0.950 . S
C541 C538 1.387 . S
C542 C543 1.387 1_655 S
C542 H546 0.950 . S
C542 C551 1.390 . S
C543 C542 1.387 1_455 S
C543 C545 1.387 . S
H544 C551 0.950 . S
C545 C543 1.387 . S
C545 C547 1.390 . S
C545 H549 0.950 . S
H546 C542 0.950 . S
C547 C545 1.390 . S
C547 C548 1.387 . S
C547 H550 0.950 . S
C548 C547 1.387 . S
C548 C551 1.387 1_455 S
H549 C545 0.950 . S
H550 C547 0.950 . S
C551 C542 1.390 . S
C551 H544 0.950 . S
C551 C548 1.387 1_655 S
C273 C171 1.904 . S
C278 C6 1.953 . S
C283 C139 1.903 . S
C288 C40 1.952 . S
C293 C239 1.903 . S
C298 C96 1.952 . S
C303 C130 1.953 . S
C308 C205 1.903 . S
C313 C142 1.953 . S
C318 C37 1.903 . S
C323 C3 1.902 . S
C328 C198 1.953 . S
C333 C232 1.952 . S
C338 C103 1.904 . S
C343 C266 1.952 . S
C348 C69 1.904 . S
C353 C28 0.407 . S
C358 C74 0.407 . S
C363 C108 0.412 . S
C368 C62 0.412 . S
C373 C210 0.407 . S
C378 C164 0.407 . S
C383 C176 0.411 . S
C388 C244 0.411 . S
C393 C15 1.980 . S
C398 C49 1.980 . S
C403 C124 1.980 . S
C408 C90 1.980 . S
C413 C151 1.980 . S
C418 C192 1.980 . S
C423 C260 1.981 . S
C428 C226 1.981 . S
C433 C219 1.254 . S
C438 C22 1.254 . S
C443 C56 1.249 . S
C448 C253 1.249 . S
C453 C83 1.249 . S
C458 C158 1.249 . S
C463 C117 1.254 . S
C468 C185 1.254 . S
C473 C241 1.818 . S
C478 C17 1.896 1_556 S
C483 C207 1.818 . S
C488 C51 1.896 1_554 S
C493 C85 1.896 1_554 S
C498 C173 1.818 . S
C503 C119 1.896 1_556 S
C508 C137 1.818 . S
C513 C153 1.896 . S
C518 C105 1.818 . S
C523 C71 1.818 . S
C528 C187 1.896 . S
C533 C35 1.819 . S
C538 C221 1.896 . S
C543 C1 1.819 . S
C548 C255 1.896 . S
