# Generated by pormake.
# Topology sxa, (6)-cn, num edge types: 1
# Building blocks:
#     Node 0, Type 0, BuildingBlock: UKALOJ_clean_sbu_0, # of connection points: 6
#     Node 1, Type 0, BuildingBlock: UKALOJ_clean_sbu_0, # of connection points: 6
#     Node 2, Type 0, BuildingBlock: UKALOJ_clean_sbu_0, # of connection points: 6
#     Node 3, Type 0, BuildingBlock: UKALOJ_clean_sbu_0, # of connection points: 6
#     Edge 4, Type (0, 0), BuildingBlock: FUNLAD_clean_linker_0, # of connection points: 2
#     Edge 5, Type (0, 0), BuildingBlock: FUNLAD_clean_linker_0, # of connection points: 2
#     Edge 6, Type (0, 0), BuildingBlock: FUNLAD_clean_linker_0, # of connection points: 2
#     Edge 7, Type (0, 0), BuildingBlock: FUNLAD_clean_linker_0, # of connection points: 2
#     Edge 8, Type (0, 0), BuildingBlock: FUNLAD_clean_linker_0, # of connection points: 2
#     Edge 9, Type (0, 0), BuildingBlock: FUNLAD_clean_linker_0, # of connection points: 2
#     Edge 10, Type (0, 0), BuildingBlock: FUNLAD_clean_linker_0, # of connection points: 2
#     Edge 11, Type (0, 0), BuildingBlock: FUNLAD_clean_linker_0, # of connection points: 2
#     Edge 12, Type (0, 0), BuildingBlock: FUNLAD_clean_linker_0, # of connection points: 2
#     Edge 13, Type (0, 0), BuildingBlock: FUNLAD_clean_linker_0, # of connection points: 2
#     Edge 14, Type (0, 0), BuildingBlock: FUNLAD_clean_linker_0, # of connection points: 2
#     Edge 15, Type (0, 0), BuildingBlock: FUNLAD_clean_linker_0, # of connection points: 2
# Relax obj value: 0.144
# Max RMSD: 0.197
# Mean RMSD: 0.197
data_MOF--net-sxa--node1-UKALOJ_clean_sbu_0--edge1-FUNLAD_clean_linker_0
_symmetry_space_group_name_H-M    P1
_symmetry_Int_Tables_number       1
_symmetry_cell_setting            triclinic
loop_
_symmetry_equiv_pos_as_xyz
'x, y, z'
_cell_length_a     27.382104
_cell_length_b     42.904225
_cell_length_c     17.633537
_cell_angle_alpha  89.672556
_cell_angle_beta   88.824087
_cell_angle_gamma 90.168704
loop_
_atom_site_label
_atom_site_type_symbol
_atom_site_fract_x
_atom_site_fract_y
_atom_site_fract_z
_atom_type_partial_charge
Zn0 Zn 0.0039 0.82312 0.23444 0.0
O1 O 0.07746 0.8254 0.26655 0.0
C2 C 0.03152 0.79799 0.08376 0.0
Zn3 Zn 0.00478 0.77055 0.23402 0.0
C4 C 0.10107 0.8002 0.2758 0.0
O5 O 0.07978 0.77414 0.26538 0.0
C6 C 0.90776 0.79443 0.1979 0.0
O7 O 0.98276 0.76972 0.34873 0.0
O8 O 0.98065 0.82099 0.35053 0.0
N9 N 0.01004 0.72223 0.2323 0.0
C10 C -0.00505 0.70032 0.18286 0.0
C11 C 0.03804 0.67723 0.26497 0.0
N12 N 0.03651 0.70765 0.28341 0.0
N13 N 0.01217 0.67181 0.2021 0.0
C14 C 0.02099 0.89426 0.19439 0.0
C15 C 0.95703 0.91447 0.24386 0.0
N16 N -0.00302 0.87131 0.23287 0.0
N17 N 0.95754 0.88413 0.26406 0.0
N18 N -0.00351 0.92153 0.20015 0.0
H19 H 0.08238 0.8664 0.15622 0.0
H20 H 0.09313 0.90782 0.15718 0.0
H21 H 0.05582 0.8916 0.08523 0.0
C22 C 0.06574 0.88947 0.1457 0.0
C23 C 0.96569 0.7071 0.11378 0.0
H24 H 0.96459 0.73226 0.10055 0.0
H25 H 0.92756 0.69911 0.12408 0.0
H26 H 0.98088 0.69425 0.06425 0.0
O27 O 0.93008 0.76868 0.20547 0.0
O28 O 0.93097 0.81988 0.20444 0.0
C29 C 0.97345 0.79489 0.38395 0.0
O30 O 0.02505 0.82355 0.11849 0.0
O31 O 0.02602 0.77246 0.11955 0.0
Zn32 Zn 0.50427 0.25673 0.2113 0.0
O33 O 0.46316 0.2551 0.31634 0.0
C34 C 0.41318 0.27979 0.14706 0.0
Zn35 Zn 0.50005 0.30908 0.21708 0.0
C36 C 0.44982 0.27984 0.35078 0.0
O37 O 0.46294 0.30628 0.3239 0.0
C38 C 0.55176 0.28665 0.07683 0.0
O39 O 0.56891 0.31089 0.27081 0.0
O40 O 0.57022 0.25957 0.2695 0.0
N41 N 0.49305 0.35726 0.21414 0.0
C42 C 0.51938 0.37949 0.17692 0.0
C43 C 0.45398 0.4009 0.21756 0.0
N44 N 0.45259 0.37076 0.23969 0.0
N45 N 0.49528 0.40707 0.17718 0.0
C46 C 0.49618 0.18761 0.15479 0.0
C47 C 0.52628 0.16179 0.24599 0.0
N48 N 0.50879 0.2084 0.20847 0.0
N49 N 0.52747 0.1922 0.26502 0.0
N50 N 0.50652 0.15814 0.17716 0.0
H51 H 0.43603 0.19502 0.08162 0.0
H52 H 0.48982 0.17995 0.03459 0.0
H53 H 0.48703 0.22032 0.06227 0.0
C54 C 0.47648 0.19631 0.07883 0.0
C55 C 0.56979 0.3745 0.14459 0.0
H56 H 0.58867 0.35578 0.17597 0.0
H57 H 0.59156 0.39632 0.14727 0.0
H58 H 0.56751 0.36745 0.08443 0.0
O59 O 0.53516 0.31064 0.11004 0.0
O60 O 0.54502 0.25997 0.10703 0.0
C61 C 0.59018 0.28534 0.28661 0.0
O62 O 0.43769 0.255 0.15539 0.0
O63 O 0.43159 0.30576 0.16586 0.0
Zn64 Zn 0.98368 0.32137 0.82274 0.0
O65 O 0.95856 0.32311 0.71097 0.0
C66 C 0.88633 0.29608 0.86667 0.0
Zn67 Zn 0.9832 0.26887 0.81923 0.0
C68 C 0.94966 0.29812 0.67521 0.0
O69 O 0.95812 0.27186 0.70634 0.0
C70 C 0.01563 0.29271 0.96724 0.0
O71 O 0.05676 0.268 0.7778 0.0
O72 O 0.05784 0.31921 0.78087 0.0
N73 N 0.97783 0.22058 0.81786 0.0
C74 C 0.00232 0.19775 0.85409 0.0
C75 C 0.94319 0.17617 0.79791 0.0
N76 N 0.94127 0.20697 0.78277 0.0
N77 N 0.98095 0.16962 0.84319 0.0
C78 C 0.97263 0.39088 0.87848 0.0
C79 C 0.01423 0.41548 0.79408 0.0
N80 N 0.98805 0.3697 0.82667 0.0
N81 N 0.01367 0.38519 0.77425 0.0
N82 N 0.98866 0.41988 0.85932 0.0
H83 H 0.94653 0.35776 0.96341 0.0
H84 H 0.90523 0.38853 0.94136 0.0
H85 H 0.95764 0.39668 0.99795 0.0
C86 C 0.94426 0.38285 0.94958 0.0
C87 C 0.04853 0.20285 0.89625 0.0
H88 H 0.06762 0.22421 0.87602 0.0
H89 H 0.07312 0.18248 0.88953 0.0
H90 H 0.03958 0.20551 0.95731 0.0
O91 O 0.00711 0.26753 0.93222 0.0
O92 O 0.00875 0.31861 0.93409 0.0
C93 C 0.07943 0.29359 0.766 0.0
O94 O 0.90921 0.32189 0.86038 0.0
O95 O 0.9096 0.27077 0.85695 0.0
Zn96 Zn 0.49759 0.80884 0.79692 0.0
O97 O 0.47362 0.80823 0.68301 0.0
C98 C 0.40425 0.7788 0.83664 0.0
Zn99 Zn 0.50354 0.75653 0.79041 0.0
C100 C 0.46771 0.78294 0.64662 0.0
O101 O 0.47938 0.7571 0.6772 0.0
C102 C 0.53081 0.78179 0.94097 0.0
O103 O 0.57785 0.76033 0.75274 0.0
O104 O 0.57104 0.81125 0.75961 0.0
N105 N 0.5083 0.70818 0.79229 0.0
C106 C 0.49155 0.68692 0.84372 0.0
C107 C 0.53638 0.66261 0.76383 0.0
N108 N 0.53599 0.69289 0.74265 0.0
N109 N 0.50864 0.65811 0.82705 0.0
C110 C 0.48489 0.87795 0.85421 0.0
C111 C 0.51387 0.90369 0.75992 0.0
N112 N 0.49536 0.8572 0.79868 0.0
N113 N 0.51289 0.87341 0.74002 0.0
N114 N 0.49634 0.90729 0.83129 0.0
H115 H 0.45185 0.84548 0.93424 0.0
H116 H 0.44047 0.88591 0.95444 0.0
H117 H 0.49964 0.86999 0.9711 0.0
C118 C 0.46803 0.86916 0.93283 0.0
C119 C 0.4611 0.69463 0.91283 0.0
H120 H 0.47306 0.68075 0.96233 0.0
H121 H 0.42241 0.68876 0.90193 0.0
H122 H 0.46274 0.71959 0.92708 0.0
O123 O 0.52691 0.75704 0.90268 0.0
O124 O 0.52092 0.80781 0.91033 0.0
C125 C 0.59682 0.78734 0.74516 0.0
O126 O 0.42442 0.80549 0.83185 0.0
O127 O 0.42956 0.75441 0.82527 0.0
C128 C 0.02542 0.46942 0.90095 0.0
C129 C 0.98519 0.44899 0.90023 0.0
C130 C 0.02272 0.49796 0.93897 0.0
C131 C 0.97951 0.50694 0.97775 0.0
C132 C 0.93891 0.48678 0.97547 0.0
C133 C 0.94165 0.45821 0.93719 0.0
C134 C 0.97486 0.5374 0.01872 0.0
C135 C 0.0135 0.55415 0.0427 0.0
C136 C 0.01058 0.58454 0.08415 0.0
C137 C 0.05318 0.59583 0.11784 0.0
C138 C 0.05332 0.62427 0.15618 0.0
C139 C 0.01099 0.6426 0.16145 0.0
H140 H 0.93425 0.59539 0.06417 0.0
C141 C 0.96808 0.63142 0.12829 0.0
C142 C 0.96785 0.6028 0.08974 0.0
H143 H 0.93449 0.64449 0.13308 0.0
H144 H 0.05924 0.46323 0.87201 0.0
H145 H 0.05444 0.51302 0.93633 0.0
H146 H 0.9048 0.49317 1.00337 0.0
H147 H 0.90934 0.44373 0.93524 0.0
H148 H 0.93815 0.54543 0.03178 0.0
H149 H 0.04988 0.5447 0.0341 0.0
H150 H 0.08676 0.58256 0.1146 0.0
H151 H 0.08692 0.63218 0.18117 0.0
C152 C 0.48989 0.46451 0.16568 0.0
C153 C 0.50527 0.43573 0.13581 0.0
C154 C 0.49528 0.49213 0.12327 0.0
C155 C 0.516 0.4916 0.04951 0.0
C156 C 0.53202 0.46293 0.0202 0.0
C157 C 0.5261 0.43532 0.06221 0.0
C158 C 0.52219 0.52034 1.00191 0.0
C159 C 0.49253 0.54538 1.00732 0.0
C160 C 0.49743 0.57376 0.95798 0.0
C161 C 0.45633 0.59276 0.94751 0.0
C162 C 0.45958 0.62003 0.90352 0.0
C163 C 0.50434 0.62939 0.87014 0.0
H164 H 0.57495 0.56934 0.93112 0.0
C165 C 0.54536 0.61022 0.87966 0.0
C166 C 0.5421 0.58283 0.92329 0.0
H167 H 0.58035 0.61686 0.85469 0.0
H168 H 0.47338 0.46556 0.22192 0.0
H169 H 0.48352 0.51381 0.1487 0.0
H170 H 0.54796 0.46173 0.96355 0.0
H171 H 0.53623 0.41363 0.03556 0.0
H172 H 0.55031 0.51984 0.95763 0.0
H173 H 0.46164 0.54457 0.04693 0.0
H174 H 0.42137 0.58639 0.97312 0.0
H175 H 0.42693 0.63363 0.89523 0.0
C176 C 0.45934 0.94809 0.91355 0.0
C177 C 0.50011 0.93541 0.87536 0.0
C178 C 0.46351 0.97597 0.95443 0.0
C179 C 0.50866 0.99187 0.95735 0.0
C180 C 0.54926 0.97889 0.91914 0.0
C181 C 0.54496 0.95121 0.87826 0.0
C182 C 0.51581 1.02148 1.00038 0.0
C183 C 0.47948 0.04091 0.02245 0.0
C184 C 0.48769 0.07104 0.06297 0.0
C185 C 0.451 0.09392 0.06186 0.0
C186 C 0.45705 0.12245 0.09893 0.0
C187 C 0.50007 0.12891 0.13809 0.0
H188 H 0.5588 0.06004 0.10907 0.0
C189 C 0.53623 0.10579 0.14115 0.0
C190 C 0.53025 0.07724 0.10409 0.0
H191 H 0.56938 0.10992 0.17205 0.0
H192 H 0.4241 0.9367 0.91076 0.0
H193 H 0.43143 0.98469 0.98398 0.0
H194 H 0.58455 0.99035 0.92038 0.0
H195 H 0.57688 0.94193 0.8491 0.0
H196 H 0.55332 1.02819 1.01065 0.0
H197 H 0.44225 1.03556 1.00703 0.0
H198 H 0.41742 0.08973 0.03204 0.0
H199 H 0.42764 0.1392 0.09804 0.0
C200 C 0.96584 0.96169 0.11295 0.0
C201 C 0.00352 0.95015 0.15798 0.0
C202 C 0.97101 0.99016 0.07436 0.0
C203 C 0.01403 1.00799 0.0804 0.0
C204 C 0.05155 0.9965 0.12617 0.0
C205 C 0.0465 0.96778 0.16417 0.0
C206 C 0.01935 0.03939 0.04373 0.0
C207 C -0.00374 0.04755 0.97959 0.0
C208 C -0.00197 0.07935 0.94436 0.0
C209 C 0.98569 0.08268 0.86777 0.0
C210 C 0.9822 0.11222 0.83415 0.0
C211 C 0.99077 0.13936 0.87617 0.0
H212 H 0.01546 0.10511 0.0461 0.0
C213 C 0.00361 0.1361 0.95272 0.0
C214 C 0.00744 0.10648 0.98636 0.0
H215 H 0.00822 0.15637 0.98794 0.0
H216 H 0.93215 0.94864 0.10811 0.0
H217 H 0.94058 0.99851 0.04181 0.0
H218 H 0.08477 1.00989 0.13291 0.0
H219 H 0.07553 0.95976 0.20012 0.0
H220 H 0.04393 0.05591 0.06971 0.0
H221 H 0.9754 1.02994 0.95019 0.0
H222 H 0.97777 0.06233 0.834 0.0
H223 H 0.97169 0.11393 0.7754 0.0
C224 C 0.42372 0.81159 0.54442 0.0
C225 C 0.43997 0.78325 0.57525 0.0
C226 C 0.38905 0.81186 0.48727 0.0
C227 C 0.36951 0.78374 0.46015 0.0
C228 C 0.38889 0.75549 0.4864 0.0
C229 C 0.42364 0.7552 0.54346 0.0
C230 C 0.32713 0.78276 0.40845 0.0
C231 C 0.29363 0.80572 0.40504 0.0
C232 C 0.24673 0.80338 0.36404 0.0
C233 C 0.22128 0.83094 0.34811 0.0
C234 C 0.17471 0.82993 0.31725 0.0
C235 C 0.15215 0.80122 0.30214 0.0
H236 H 0.2423 0.75274 0.35995 0.0
C237 C 0.17801 0.77358 0.31617 0.0
C238 C 0.22473 0.7746 0.34692 0.0
H239 H 0.16164 0.75106 0.30542 0.0
H240 H 0.4361 0.83365 0.56675 0.0
H241 H 0.37689 0.83418 0.46614 0.0
H242 H 0.37518 0.73347 0.46571 0.0
H243 H 0.43558 0.73293 0.56546 0.0
H244 H 0.32151 0.76138 0.37721 0.0
H245 H 0.29927 0.82703 0.43656 0.0
H246 H 0.2371 0.85343 0.36106 0.0
H247 H 0.15593 0.85169 0.30704 0.0
C248 C 0.15289 0.26562 0.71156 0.0
C249 C 0.12953 0.29368 0.73141 0.0
C250 C 0.19868 0.26583 0.67433 0.0
C251 C 0.22224 0.29421 0.65563 0.0
C252 C 0.19944 0.32214 0.67779 0.0
C253 C 0.15373 0.32193 0.7149 0.0
C254 C 0.27003 0.2961 0.61279 0.0
C255 C 0.28964 0.27258 0.57151 0.0
C256 C 0.3348 0.27533 0.52229 0.0
C257 C 0.35571 0.24796 0.49258 0.0
C258 C 0.39478 0.2493 0.44006 0.0
C259 C 0.414 0.27813 0.41543 0.0
H260 H 0.34038 0.32602 0.51955 0.0
C261 C 0.39447 0.30552 0.44727 0.0
C262 C 0.35535 0.3042 0.49976 0.0
H263 H 0.40806 0.32818 0.42933 0.0
H264 H 0.13555 0.24339 0.72399 0.0
H265 H 0.21517 0.24365 0.66076 0.0
H266 H 0.21663 0.34439 0.66498 0.0
H267 H 0.13705 0.34401 0.72952 0.0
H268 H 0.28852 0.31846 0.61341 0.0
H269 H 0.27119 0.2502 0.57112 0.0
H270 H 0.34088 0.22536 0.50849 0.0
H271 H 0.40867 0.2277 0.41668 0.0
C272 C 0.90714 0.27205 0.56849 0.0
C273 C 0.9226 0.29958 0.60357 0.0
C274 C 0.87286 0.27317 0.511 0.0
C275 C 0.8531 0.30187 0.48792 0.0
C276 C 0.87196 0.32949 0.51793 0.0
C277 C 0.90627 0.3284 0.57544 0.0
C278 C 0.81062 0.30369 0.43709 0.0
C279 C 0.77577 0.28146 0.43719 0.0
C280 C 0.72959 0.28361 0.39488 0.0
C281 C 0.70391 0.25596 0.38122 0.0
C282 C 0.6589 0.25664 0.34582 0.0
C283 C 0.63809 0.28511 0.32382 0.0
H284 H 0.72689 0.33415 0.38409 0.0
C285 C 0.66364 0.31292 0.3374 0.0
C286 C 0.70898 0.31222 0.37267 0.0
H287 H 0.64851 0.33523 0.32122 0.0
H288 H 0.9196 0.24949 0.58794 0.0
H289 H 0.86084 0.25145 0.48656 0.0
H290 H 0.85798 0.35192 0.50015 0.0
H291 H 0.91783 0.35009 0.60068 0.0
H292 H 0.80622 0.32485 0.40397 0.0
H293 H 0.78035 0.26065 0.47164 0.0
H294 H 0.71865 0.23364 0.39833 0.0
H295 H 0.64024 0.23475 0.33634 0.0
C296 C 0.92582 0.82056 0.48894 0.0
C297 C 0.9462 0.79344 0.45731 0.0
C298 C 0.89024 0.81846 0.54678 0.0
C299 C 0.87415 0.78912 0.57371 0.0
C300 C 0.89817 0.76231 0.54755 0.0
C301 C 0.93372 0.76439 0.48976 0.0
C302 C 0.83011 0.7853 0.62379 0.0
C303 C 0.79268 0.80562 0.62337 0.0
C304 C 0.7445 0.79993 0.66137 0.0
C305 C 0.71452 0.82565 0.677 0.0
C306 C 0.66706 0.82147 0.7056 0.0
C307 C 0.64811 0.79137 0.7185 0.0
H308 H 0.74735 0.74924 0.66237 0.0
C309 C 0.67824 0.76553 0.70399 0.0
C310 C 0.72598 0.76973 0.67564 0.0
H311 H 0.66469 0.74204 0.71317 0.0
H312 H 0.93516 0.84335 0.46608 0.0
H313 H 0.8743 0.8398 0.56811 0.0
H314 H 0.8872 0.73946 0.56828 0.0
H315 H 0.94914 0.74303 0.46741 0.0
H316 H 0.82659 0.76373 0.65597 0.0
H317 H 0.79615 0.82709 0.59083 0.0
H318 H 0.72762 0.84913 0.66594 0.0
H319 H 0.64493 0.84194 0.71616 0.0
C320 C 0.32194 0.80331 0.8447 0.0
C321 C 0.3508 0.77632 0.84539 0.0
C322 C 0.27118 0.80104 0.84547 0.0
C323 C 0.24819 0.77166 0.84677 0.0
C324 C 0.27703 0.74472 0.84872 0.0
C325 C 0.32787 0.74697 0.84756 0.0
C326 C 0.19471 0.76851 0.85709 0.0
C327 C 0.16294 0.79109 0.83862 0.0
C328 C 0.11608 0.79378 0.88091 0.0
C329 C 0.1036 0.82298 0.91078 0.0
C330 C 0.07165 0.82493 0.97317 0.0
C331 C 0.05178 0.79766 1.0058 0.0
H332 H 0.09768 0.74456 0.88151 0.0
C333 C 0.05832 0.76913 0.96823 0.0
C334 C 0.09013 0.76722 0.90577 0.0
H335 H 0.0421 0.74784 0.99067 0.0
H336 H 0.33851 0.82627 0.84299 0.0
H337 H 0.25032 0.8224 0.84743 0.0
H338 H 0.26015 0.72185 0.85156 0.0
H339 H 0.34914 0.72573 0.84786 0.0
H340 H 0.1822 0.74847 0.89018 0.0
H341 H 0.17539 0.81116 0.80569 0.0
H342 H 0.12261 0.84385 0.89153 0.0
H343 H 0.06628 0.84735 0.99979 0.0
C344 C 0.05647 0.26332 0.07033 0.0
C345 C 0.04255 0.29198 0.03875 0.0
C346 C 0.09631 0.26188 0.11815 0.0
C347 C 0.12203 0.2892 0.13549 0.0
C348 C 0.1027 0.31818 0.11506 0.0
C349 C 0.06318 0.31961 0.06655 0.0
C350 C 0.17319 0.28803 0.15966 0.0
C351 C 0.20485 0.2684 0.12541 0.0
C352 C 0.25844 0.27209 0.12807 0.0
C353 C 0.2881 0.24596 0.11569 0.0
C354 C 0.33885 0.2487 0.11721 0.0
C355 C 0.36081 0.27778 0.13016 0.0
H356 H 0.25876 0.32239 0.14294 0.0
C357 C 0.33112 0.30426 0.13807 0.0
C358 C 0.28043 0.30146 0.13705 0.0
H359 H 0.34689 0.32704 0.14777 0.0
H360 H 0.03966 0.24179 0.05278 0.0
H361 H 0.10954 0.23928 0.13596 0.0
H362 H 0.1215 0.33957 0.12925 0.0
H363 H 0.05232 0.34217 0.0449 0.0
H364 H 0.18638 0.3068 0.19495 0.0
H365 H 0.19124 0.24993 0.08949 0.0
H366 H 0.27195 0.22323 0.10665 0.0
H367 H 0.36072 0.22785 0.11088 0.0
C368 C 0.61261 0.26791 0.97906 0.0
C369 C 0.57831 0.29018 1.00358 0.0
C370 C 0.63729 0.27163 0.90921 0.0
C371 C 0.62746 0.29744 0.86264 0.0
C372 C 0.59325 0.31959 0.88717 0.0
C373 C 0.56941 0.31626 0.9574 0.0
C374 C 0.64663 0.2994 0.78388 0.0
C375 C 0.69367 0.29661 0.76244 0.0
C376 C 0.7354 0.29542 0.81401 0.0
C377 C 0.76026 0.26727 0.82362 0.0
C378 C 0.80791 0.26717 0.85052 0.0
C379 C 0.83212 0.29541 0.86581 0.0
H380 H 0.73891 0.34535 0.82876 0.0
C381 C 0.80537 0.32334 0.86289 0.0
C382 C 0.75733 0.3233 0.83704 0.0
H383 H 0.8228 0.34548 0.87419 0.0
H384 H 0.62017 0.24761 0.01365 0.0
H385 H 0.66236 0.25368 0.89029 0.0
H386 H 0.58443 0.33931 0.85134 0.0
H387 H 0.54287 0.33367 0.9745 0.0
H388 H 0.62031 0.30363 0.73971 0.0
H389 H 0.70245 0.29761 0.70211 0.0
H390 H 0.74421 0.24558 0.80498 0.0
H391 H 0.82721 0.24518 0.8522 0.0
C392 C 0.82618 0.76811 0.19015 0.0
C393 C 0.85451 0.79544 0.1879 0.0
C394 C 0.7754 0.76975 0.18455 0.0
C395 C 0.75219 0.79883 0.17691 0.0
C396 C 0.78066 0.82601 0.17476 0.0
C397 C 0.83117 0.82439 0.18038 0.0
C398 C 0.69958 0.80181 0.1612 0.0
C399 C 0.66601 0.77951 0.17594 0.0
C400 C 0.61939 0.77954 0.13515 0.0
C401 C 0.6035 0.7515 0.10358 0.0
C402 C 0.5706 0.75192 0.04429 0.0
C403 C 0.55315 0.78045 0.01621 0.0
H404 H 0.60623 0.82938 0.14091 0.0
C405 C 0.56355 0.808 0.05535 0.0
C406 C 0.59622 0.80752 0.11494 0.0
H407 H 0.54951 0.83022 0.03644 0.0
H408 H 0.84319 0.74549 0.1961 0.0
H409 H 0.75494 0.74816 0.18381 0.0
H410 H 0.76381 0.84864 0.16772 0.0
H411 H 0.85187 0.84595 0.17875 0.0
H412 H 0.68929 0.82243 0.12927 0.0
H413 H 0.67589 0.75856 0.20672 0.0
H414 H 0.62019 0.72958 0.11932 0.0
H415 H 0.56219 0.73015 0.0165 0.0
loop_
_geom_bond_atom_site_label_1
_geom_bond_atom_site_label_2
_geom_bond_distance
_geom_bond_site_symmetry_2
_ccdc_geom_bond_type
Zn0 O1 2.055 1_655 S
Zn0 O8 2.046 . S
Zn0 N16 2.036 . S
Zn0 O28 2.053 . S
Zn0 O30 2.066 1_655 S
O1 Zn0 2.055 1_455 S
O1 C4 1.259 . S
C2 O30 1.256 . S
C2 O31 1.244 . S
Zn3 O5 2.046 . S
Zn3 O7 2.055 1_455 S
Zn3 N9 2.036 . S
Zn3 O27 2.066 1_455 S
Zn3 O31 2.053 . S
C4 O1 1.259 . S
C4 O5 1.254 . S
O5 Zn3 2.046 . S
O5 C4 1.254 . S
C6 O27 1.256 . S
C6 O28 1.244 . S
O7 Zn3 2.055 1_655 S
O7 C29 1.259 . S
O8 Zn0 2.046 . S
O8 C29 1.254 . S
N9 Zn3 2.036 . S
N9 C10 1.298 1_455 S
N9 N12 1.398 . S
C10 N9 1.298 1_655 S
C10 N13 1.367 . S
C10 C23 1.481 . S
C11 N12 1.299 . S
C11 N13 1.379 1_455 S
N12 N9 1.398 . S
N12 C11 1.299 . S
N13 C10 1.367 . S
N13 C11 1.379 1_655 S
C14 N16 1.298 1_455 S
C14 N18 1.367 . S
C14 C22 1.481 . S
C15 N17 1.299 . S
C15 N18 1.379 1_655 S
N16 Zn0 2.036 . S
N16 C14 1.298 1_655 S
N16 N17 1.398 . S
N17 C15 1.299 . S
N17 N16 1.398 . S
N18 C14 1.367 . S
N18 C15 1.379 1_455 S
H19 C22 0.980 . S
H20 C22 0.981 . S
H21 C22 0.981 . S
C22 C14 1.481 . S
C22 H19 0.980 . S
C22 H20 0.981 . S
C22 H21 0.981 . S
C23 C10 1.481 . S
C23 H24 0.980 . S
C23 H25 0.981 . S
C23 H26 0.981 . S
H24 C23 0.980 . S
H25 C23 0.981 . S
H26 C23 0.981 . S
O27 Zn3 2.066 1_655 S
O27 C6 1.256 . S
O28 Zn0 2.053 . S
O28 C6 1.244 . S
C29 O7 1.259 . S
C29 O8 1.254 . S
O30 Zn0 2.066 1_455 S
O30 C2 1.256 . S
O31 C2 1.244 . S
O31 Zn3 2.053 . S
Zn32 O33 2.055 . S
Zn32 O40 2.046 . S
Zn32 N48 2.036 . S
Zn32 O60 2.053 . S
Zn32 O62 2.066 . S
O33 Zn32 2.055 . S
O33 C36 1.259 . S
C34 O62 1.256 . S
C34 O63 1.244 . S
Zn35 O37 2.046 . S
Zn35 O39 2.055 . S
Zn35 N41 2.036 . S
Zn35 O59 2.066 . S
Zn35 O63 2.053 . S
C36 O33 1.259 . S
C36 O37 1.254 . S
O37 Zn35 2.046 . S
O37 C36 1.254 . S
C38 O59 1.256 . S
C38 O60 1.244 . S
O39 Zn35 2.055 . S
O39 C61 1.259 . S
O40 Zn32 2.046 . S
O40 C61 1.254 . S
N41 Zn35 2.036 . S
N41 C42 1.298 . S
N41 N44 1.398 . S
C42 N41 1.298 . S
C42 N45 1.367 . S
C42 C55 1.481 . S
C43 N44 1.299 . S
C43 N45 1.379 . S
N44 N41 1.398 . S
N44 C43 1.299 . S
N45 C42 1.367 . S
N45 C43 1.379 . S
C46 N48 1.298 . S
C46 N50 1.367 . S
C46 C54 1.481 . S
C47 N49 1.299 . S
C47 N50 1.379 . S
N48 Zn32 2.036 . S
N48 C46 1.298 . S
N48 N49 1.398 . S
N49 C47 1.299 . S
N49 N48 1.398 . S
N50 C46 1.367 . S
N50 C47 1.379 . S
H51 C54 0.980 . S
H52 C54 0.981 . S
H53 C54 0.981 . S
C54 C46 1.481 . S
C54 H51 0.980 . S
C54 H52 0.981 . S
C54 H53 0.981 . S
C55 C42 1.481 . S
C55 H56 0.980 . S
C55 H57 0.981 . S
C55 H58 0.981 . S
H56 C55 0.980 . S
H57 C55 0.981 . S
H58 C55 0.981 . S
O59 Zn35 2.066 . S
O59 C38 1.256 . S
O60 Zn32 2.053 . S
O60 C38 1.244 . S
C61 O39 1.259 . S
C61 O40 1.254 . S
O62 Zn32 2.066 . S
O62 C34 1.256 . S
O63 C34 1.244 . S
O63 Zn35 2.053 . S
Zn64 O65 2.055 1_455 S
Zn64 O72 2.046 . S
Zn64 N80 2.036 . S
Zn64 O92 2.053 . S
Zn64 O94 2.066 1_455 S
O65 Zn64 2.055 1_655 S
O65 C68 1.259 . S
C66 O94 1.256 . S
C66 O95 1.244 . S
Zn67 O69 2.046 . S
Zn67 O71 2.055 1_655 S
Zn67 N73 2.036 . S
Zn67 O91 2.066 1_655 S
Zn67 O95 2.053 . S
C68 O65 1.259 . S
C68 O69 1.254 . S
O69 Zn67 2.046 . S
O69 C68 1.254 . S
C70 O91 1.256 . S
C70 O92 1.244 . S
O71 Zn67 2.055 1_455 S
O71 C93 1.259 . S
O72 Zn64 2.046 . S
O72 C93 1.254 . S
N73 Zn67 2.036 . S
N73 C74 1.298 1_655 S
N73 N76 1.398 . S
C74 N73 1.298 1_455 S
C74 N77 1.367 . S
C74 C87 1.481 . S
C75 N76 1.299 . S
C75 N77 1.379 1_655 S
N76 N73 1.398 . S
N76 C75 1.299 . S
N77 C74 1.367 . S
N77 C75 1.379 1_455 S
C78 N80 1.298 1_655 S
C78 N82 1.367 . S
C78 C86 1.481 . S
C79 N81 1.299 . S
C79 N82 1.379 1_455 S
N80 Zn64 2.036 . S
N80 C78 1.298 1_455 S
N80 N81 1.398 . S
N81 C79 1.299 . S
N81 N80 1.398 . S
N82 C78 1.367 . S
N82 C79 1.379 1_655 S
H83 C86 0.980 . S
H84 C86 0.981 . S
H85 C86 0.981 . S
C86 C78 1.481 . S
C86 H83 0.980 . S
C86 H84 0.981 . S
C86 H85 0.981 . S
C87 C74 1.481 . S
C87 H88 0.980 . S
C87 H89 0.981 . S
C87 H90 0.981 . S
H88 C87 0.980 . S
H89 C87 0.981 . S
H90 C87 0.981 . S
O91 Zn67 2.066 1_455 S
O91 C70 1.256 . S
O92 Zn64 2.053 . S
O92 C70 1.244 . S
C93 O71 1.259 . S
C93 O72 1.254 . S
O94 Zn64 2.066 1_655 S
O94 C66 1.256 . S
O95 C66 1.244 . S
O95 Zn67 2.053 . S
Zn96 O97 2.055 . S
Zn96 O104 2.046 . S
Zn96 N112 2.036 . S
Zn96 O124 2.053 . S
Zn96 O126 2.066 . S
O97 Zn96 2.055 . S
O97 C100 1.259 . S
C98 O126 1.256 . S
C98 O127 1.244 . S
Zn99 O101 2.046 . S
Zn99 O103 2.055 . S
Zn99 N105 2.036 . S
Zn99 O123 2.066 . S
Zn99 O127 2.053 . S
C100 O97 1.259 . S
C100 O101 1.254 . S
O101 Zn99 2.046 . S
O101 C100 1.254 . S
C102 O123 1.256 . S
C102 O124 1.244 . S
O103 Zn99 2.055 . S
O103 C125 1.259 . S
O104 Zn96 2.046 . S
O104 C125 1.254 . S
N105 Zn99 2.036 . S
N105 C106 1.298 . S
N105 N108 1.398 . S
C106 N105 1.298 . S
C106 N109 1.367 . S
C106 C119 1.481 . S
C107 N108 1.299 . S
C107 N109 1.379 . S
N108 N105 1.398 . S
N108 C107 1.299 . S
N109 C106 1.367 . S
N109 C107 1.379 . S
C110 N112 1.298 . S
C110 N114 1.367 . S
C110 C118 1.481 . S
C111 N113 1.299 . S
C111 N114 1.379 . S
N112 Zn96 2.036 . S
N112 C110 1.298 . S
N112 N113 1.398 . S
N113 C111 1.299 . S
N113 N112 1.398 . S
N114 C110 1.367 . S
N114 C111 1.379 . S
H115 C118 0.980 . S
H116 C118 0.981 . S
H117 C118 0.981 . S
C118 C110 1.481 . S
C118 H115 0.980 . S
C118 H116 0.981 . S
C118 H117 0.981 . S
C119 C106 1.481 . S
C119 H120 0.980 . S
C119 H121 0.981 . S
C119 H122 0.981 . S
H120 C119 0.980 . S
H121 C119 0.981 . S
H122 C119 0.981 . S
O123 Zn99 2.066 . S
O123 C102 1.256 . S
O124 Zn96 2.053 . S
O124 C102 1.244 . S
C125 O103 1.259 . S
C125 O104 1.254 . S
O126 Zn96 2.066 . S
O126 C98 1.256 . S
O127 C98 1.244 . S
O127 Zn99 2.053 . S
C128 C129 1.386 1_455 S
C128 C130 1.383 . S
C128 H144 0.951 . S
C129 C128 1.386 1_655 S
C129 C133 1.383 . S
C130 C128 1.383 . S
C130 C131 1.402 1_455 S
C130 H145 0.951 . S
C131 C130 1.402 1_655 S
C131 C132 1.375 . S
C131 C134 1.481 . S
C132 C131 1.375 . S
C132 C133 1.367 . S
C132 H146 0.951 . S
C133 C129 1.383 . S
C133 C132 1.367 . S
C133 H147 0.950 . S
C134 C131 1.481 . S
C134 C135 1.297 1_655 S
C134 H148 0.950 . S
C135 C134 1.297 1_455 S
C135 C136 1.479 1_456 S
C135 H149 0.950 1_556 S
C136 C135 1.479 1_654 S
C136 C137 1.375 1_655 S
C136 C142 1.404 . S
C137 C136 1.375 1_455 S
C137 C138 1.369 . S
C137 H150 0.950 . S
C138 C137 1.369 . S
C138 C139 1.392 1_455 S
C138 H151 0.951 . S
C139 C138 1.392 1_655 S
C139 C141 1.384 . S
H140 C142 0.949 1_556 S
C141 C139 1.384 . S
C141 C142 1.385 . S
C141 H143 0.950 . S
C142 C136 1.404 . S
C142 H140 0.949 1_554 S
C142 C141 1.385 . S
H143 C141 0.950 . S
H144 C128 0.951 . S
H145 C130 0.951 . S
H146 C132 0.951 . S
H147 C133 0.950 . S
H148 C134 0.950 . S
H149 C135 0.950 1_554 S
H150 C137 0.950 . S
H151 C138 0.951 . S
C152 C153 1.386 . S
C152 C154 1.383 . S
C152 H168 0.951 . S
C153 C152 1.386 . S
C153 C157 1.383 . S
C154 C152 1.383 . S
C154 C155 1.402 . S
C154 H169 0.951 . S
C155 C154 1.402 . S
C155 C156 1.375 . S
C155 C158 1.481 1_554 S
C156 C155 1.375 . S
C156 C157 1.367 . S
C156 H170 0.951 1_554 S
C157 C153 1.383 . S
C157 C156 1.367 . S
C157 H171 0.950 . S
C158 C155 1.481 1_556 S
C158 C159 1.297 1_556 S
C158 H172 0.950 . S
C159 C158 1.297 1_554 S
C159 C160 1.479 1_554 S
C159 H173 0.950 . S
C160 C159 1.479 1_556 S
C160 C161 1.379 . S
C160 C166 1.404 . S
C161 C160 1.379 . S
C161 C162 1.374 . S
C161 H174 0.941 1_556 S
C162 C161 1.374 . S
C162 C163 1.392 . S
C162 H175 0.951 . S
C163 C162 1.392 . S
C163 C165 1.384 . S
H164 C166 0.949 . S
C165 C163 1.384 . S
C165 C166 1.385 . S
C165 H167 0.950 . S
C166 C160 1.404 . S
C166 H164 0.949 . S
C166 C165 1.385 . S
H167 C165 0.950 . S
H168 C152 0.951 . S
H169 C154 0.951 . S
H170 C156 0.951 1_556 S
H171 C157 0.950 . S
H172 C158 0.950 . S
H173 C159 0.950 . S
H174 C161 0.941 1_554 S
H175 C162 0.951 . S
C176 C177 1.386 . S
C176 C178 1.383 . S
C176 H192 0.951 . S
C177 C176 1.386 . S
C177 C181 1.383 . S
C178 C176 1.383 . S
C178 C179 1.402 . S
C178 H193 0.951 1_556 S
C179 C178 1.402 . S
C179 C180 1.375 . S
C179 C182 1.481 . S
C180 C179 1.375 . S
C180 C181 1.367 . S
C180 H194 0.951 . S
C181 C177 1.383 . S
C181 C180 1.367 . S
C181 H195 0.950 . S
C182 C179 1.481 . S
C182 C183 1.297 1_566 S
C182 H196 0.950 1_565 S
C183 C182 1.297 1_544 S
C183 C184 1.479 . S
C183 H197 0.950 1_545 S
C184 C183 1.479 . S
C184 C185 1.375 . S
C184 C190 1.404 . S
C185 C184 1.375 . S
C185 C186 1.369 . S
C185 H198 0.950 . S
C186 C185 1.369 . S
C186 C187 1.392 . S
C186 H199 0.951 . S
C187 C186 1.392 . S
C187 C189 1.384 . S
H188 C190 0.949 . S
C189 C187 1.384 . S
C189 C190 1.385 . S
C189 H191 0.950 . S
C190 C184 1.404 . S
C190 H188 0.949 . S
C190 C189 1.385 . S
H191 C189 0.950 . S
H192 C176 0.951 . S
H193 C178 0.951 1_554 S
H194 C180 0.951 . S
H195 C181 0.950 . S
H196 C182 0.950 1_545 S
H197 C183 0.950 1_565 S
H198 C185 0.950 . S
H199 C186 0.951 . S
C200 C201 1.386 1_655 S
C200 C202 1.383 . S
C200 H216 0.951 . S
C201 C200 1.386 1_455 S
C201 C205 1.383 . S
C202 C200 1.383 . S
C202 C203 1.402 1_655 S
C202 H217 0.951 . S
C203 C202 1.402 1_455 S
C203 C204 1.375 . S
C203 C206 1.481 . S
C204 C203 1.375 . S
C204 C205 1.367 . S
C204 H218 0.951 . S
C205 C201 1.383 . S
C205 C204 1.367 . S
C205 H219 0.950 . S
C206 C203 1.481 . S
C206 C207 1.297 1_565 S
C206 H220 0.950 1_565 S
C207 C206 1.297 1_545 S
C207 C208 1.479 1_554 S
C207 H221 0.950 1_455 S
C208 C207 1.479 1_556 S
C208 C209 1.375 1_455 S
C208 C214 1.404 . S
C209 C208 1.375 1_655 S
C209 C210 1.369 . S
C209 H222 0.950 . S
C210 C209 1.369 . S
C210 C211 1.392 1_655 S
C210 H223 0.951 . S
C211 C210 1.392 1_455 S
C211 C213 1.384 . S
H212 C214 0.949 . S
C213 C211 1.384 . S
C213 C214 1.385 . S
C213 H215 0.950 . S
C214 C208 1.404 . S
C214 H212 0.949 . S
C214 C213 1.385 . S
H215 C213 0.950 . S
H216 C200 0.951 . S
H217 C202 0.951 . S
H218 C204 0.951 . S
H219 C205 0.950 . S
H220 C206 0.950 1_545 S
H221 C207 0.950 1_655 S
H222 C209 0.950 . S
H223 C210 0.951 . S
C224 C225 1.386 . S
C224 C226 1.383 . S
C224 H240 0.951 . S
C225 C224 1.386 . S
C225 C229 1.383 . S
C226 C224 1.383 . S
C226 C227 1.402 . S
C226 H241 0.951 . S
C227 C226 1.402 . S
C227 C228 1.375 . S
C227 C230 1.481 . S
C228 C227 1.375 . S
C228 C229 1.367 . S
C228 H242 0.951 . S
C229 C225 1.383 . S
C229 C228 1.367 . S
C229 H243 0.950 . S
C230 C227 1.481 . S
C230 C231 1.297 . S
C230 H244 0.950 . S
C231 C230 1.297 . S
C231 C232 1.479 . S
C231 H245 0.950 . S
C232 C231 1.479 . S
C232 C233 1.375 . S
C232 C238 1.404 . S
C233 C232 1.375 . S
C233 C234 1.369 . S
C233 H246 0.950 . S
C234 C233 1.369 . S
C234 C235 1.392 . S
C234 H247 0.951 . S
C235 C234 1.392 . S
C235 C237 1.384 . S
H236 C238 0.949 . S
C237 C235 1.384 . S
C237 C238 1.385 . S
C237 H239 0.950 . S
C238 C232 1.404 . S
C238 H236 0.949 . S
C238 C237 1.385 . S
H239 C237 0.950 . S
H240 C224 0.951 . S
H241 C226 0.951 . S
H242 C228 0.951 . S
H243 C229 0.950 . S
H244 C230 0.950 . S
H245 C231 0.950 . S
H246 C233 0.950 . S
H247 C234 0.951 . S
C248 C249 1.386 . S
C248 C250 1.383 . S
C248 H264 0.951 . S
C249 C248 1.386 . S
C249 C253 1.383 . S
C250 C248 1.383 . S
C250 C251 1.402 . S
C250 H265 0.951 . S
C251 C250 1.402 . S
C251 C252 1.375 . S
C251 C254 1.481 . S
C252 C251 1.375 . S
C252 C253 1.367 . S
C252 H266 0.951 . S
C253 C249 1.383 . S
C253 C252 1.367 . S
C253 H267 0.950 . S
C254 C251 1.481 . S
C254 C255 1.297 . S
C254 H268 0.950 . S
C255 C254 1.297 . S
C255 C256 1.479 . S
C255 H269 0.950 . S
C256 C255 1.479 . S
C256 C257 1.375 . S
C256 C262 1.404 . S
C257 C256 1.375 . S
C257 C258 1.369 . S
C257 H270 0.950 . S
C258 C257 1.369 . S
C258 C259 1.392 . S
C258 H271 0.951 . S
C259 C258 1.392 . S
C259 C261 1.384 . S
H260 C262 0.949 . S
C261 C259 1.384 . S
C261 C262 1.385 . S
C261 H263 0.950 . S
C262 C256 1.404 . S
C262 H260 0.949 . S
C262 C261 1.385 . S
H263 C261 0.950 . S
H264 C248 0.951 . S
H265 C250 0.951 . S
H266 C252 0.951 . S
H267 C253 0.950 . S
H268 C254 0.950 . S
H269 C255 0.950 . S
H270 C257 0.950 . S
H271 C258 0.951 . S
C272 C273 1.386 . S
C272 C274 1.383 . S
C272 H288 0.951 . S
C273 C272 1.386 . S
C273 C277 1.383 . S
C274 C272 1.383 . S
C274 C275 1.402 . S
C274 H289 0.951 . S
C275 C274 1.402 . S
C275 C276 1.375 . S
C275 C278 1.481 . S
C276 C275 1.375 . S
C276 C277 1.367 . S
C276 H290 0.951 . S
C277 C273 1.383 . S
C277 C276 1.367 . S
C277 H291 0.950 . S
C278 C275 1.481 . S
C278 C279 1.297 . S
C278 H292 0.950 . S
C279 C278 1.297 . S
C279 C280 1.479 . S
C279 H293 0.950 . S
C280 C279 1.479 . S
C280 C281 1.375 . S
C280 C286 1.404 . S
C281 C280 1.375 . S
C281 C282 1.369 . S
C281 H294 0.950 . S
C282 C281 1.369 . S
C282 C283 1.392 . S
C282 H295 0.951 . S
C283 C282 1.392 . S
C283 C285 1.384 . S
H284 C286 0.949 . S
C285 C283 1.384 . S
C285 C286 1.385 . S
C285 H287 0.950 . S
C286 C280 1.404 . S
C286 H284 0.949 . S
C286 C285 1.385 . S
H287 C285 0.950 . S
H288 C272 0.951 . S
H289 C274 0.951 . S
H290 C276 0.951 . S
H291 C277 0.950 . S
H292 C278 0.950 . S
H293 C279 0.950 . S
H294 C281 0.950 . S
H295 C282 0.951 . S
C296 C297 1.386 . S
C296 C298 1.383 . S
C296 H312 0.951 . S
C297 C296 1.386 . S
C297 C301 1.383 . S
C298 C296 1.383 . S
C298 C299 1.402 . S
C298 H313 0.951 . S
C299 C298 1.402 . S
C299 C300 1.375 . S
C299 C302 1.481 . S
C300 C299 1.375 . S
C300 C301 1.367 . S
C300 H314 0.951 . S
C301 C297 1.383 . S
C301 C300 1.367 . S
C301 H315 0.950 . S
C302 C299 1.481 . S
C302 C303 1.297 . S
C302 H316 0.950 . S
C303 C302 1.297 . S
C303 C304 1.479 . S
C303 H317 0.950 . S
C304 C303 1.479 . S
C304 C305 1.375 . S
C304 C310 1.404 . S
C305 C304 1.375 . S
C305 C306 1.369 . S
C305 H318 0.950 . S
C306 C305 1.369 . S
C306 C307 1.392 . S
C306 H319 0.951 . S
C307 C306 1.392 . S
C307 C309 1.384 . S
H308 C310 0.949 . S
C309 C307 1.384 . S
C309 C310 1.385 . S
C309 H311 0.950 . S
C310 C304 1.404 . S
C310 H308 0.949 . S
C310 C309 1.385 . S
H311 C309 0.950 . S
H312 C296 0.951 . S
H313 C298 0.951 . S
H314 C300 0.951 . S
H315 C301 0.950 . S
H316 C302 0.950 . S
H317 C303 0.950 . S
H318 C305 0.950 . S
H319 C306 0.951 . S
C320 C321 1.386 . S
C320 C322 1.383 . S
C320 H336 0.951 . S
C321 C320 1.386 . S
C321 C325 1.394 . S
C322 C320 1.383 . S
C322 C323 1.402 . S
C322 H337 0.951 . S
C323 C322 1.402 . S
C323 C324 1.375 1_556 S
C323 C326 1.481 1_556 S
C324 C323 1.375 1_554 S
C324 C325 1.363 1_554 S
C324 H338 0.951 . S
C325 C321 1.394 . S
C325 C324 1.363 1_556 S
C325 H339 0.943 1_556 S
C326 C323 1.481 1_554 S
C326 C327 1.297 1_554 S
C326 H340 0.950 . S
C327 C326 1.297 1_556 S
C327 C328 1.479 1_556 S
C327 H341 0.950 . S
C328 C327 1.479 1_554 S
C328 C329 1.375 1_554 S
C328 C334 1.404 . S
C329 C328 1.375 1_556 S
C329 C330 1.369 . S
C329 H342 0.950 . S
C330 C329 1.369 . S
C330 C331 1.392 1_556 S
C330 H343 0.951 . S
C331 C330 1.392 1_554 S
C331 C333 1.384 . S
H332 C334 0.949 . S
C333 C331 1.384 . S
C333 C334 1.385 . S
C333 H335 0.950 . S
C334 C328 1.404 . S
C334 H332 0.949 . S
C334 C333 1.385 . S
H335 C333 0.950 . S
H336 C320 0.951 . S
H337 C322 0.951 . S
H338 C324 0.951 . S
H339 C325 0.943 1_554 S
H340 C326 0.950 . S
H341 C327 0.950 . S
H342 C329 0.950 . S
H343 C330 0.951 . S
C344 C345 1.386 . S
C344 C346 1.383 . S
C344 H360 0.951 . S
C345 C344 1.386 . S
C345 C349 1.383 1_556 S
C346 C344 1.383 . S
C346 C347 1.402 . S
C346 H361 0.951 . S
C347 C346 1.402 . S
C347 C348 1.375 1_556 S
C347 C350 1.481 1_556 S
C348 C347 1.375 1_554 S
C348 C349 1.367 . S
C348 H362 0.951 . S
C349 C345 1.383 1_554 S
C349 C348 1.367 . S
C349 H363 0.950 . S
C350 C347 1.481 1_554 S
C350 C351 1.297 1_554 S
C350 H364 0.950 . S
C351 C350 1.297 1_556 S
C351 C352 1.479 1_556 S
C351 H365 0.950 . S
C352 C351 1.479 1_554 S
C352 C353 1.375 1_554 S
C352 C358 1.404 . S
C353 C352 1.375 1_556 S
C353 C354 1.369 . S
C353 H366 0.950 . S
C354 C353 1.369 . S
C354 C355 1.392 1_556 S
C354 H367 0.951 . S
C355 C354 1.392 1_554 S
C355 C357 1.384 . S
H356 C358 0.949 . S
C357 C355 1.384 . S
C357 C358 1.385 . S
C357 H359 0.950 . S
C358 C352 1.404 . S
C358 H356 0.949 . S
C358 C357 1.385 . S
H359 C357 0.950 . S
H360 C344 0.951 . S
H361 C346 0.951 . S
H362 C348 0.951 . S
H363 C349 0.950 . S
H364 C350 0.950 . S
H365 C351 0.950 . S
H366 C353 0.950 . S
H367 C354 0.951 . S
C368 C369 1.386 . S
C368 C370 1.383 . S
C368 H384 0.951 . S
C369 C368 1.386 . S
C369 C373 1.383 1_554 S
C370 C368 1.383 . S
C370 C371 1.402 . S
C370 H385 0.951 . S
C371 C370 1.402 . S
C371 C372 1.375 1_554 S
C371 C374 1.481 1_554 S
C372 C371 1.375 1_556 S
C372 C373 1.367 . S
C372 H386 0.951 . S
C373 C369 1.383 1_556 S
C373 C372 1.367 . S
C373 H387 0.950 . S
C374 C371 1.481 1_556 S
C374 C375 1.294 1_556 S
C374 H388 0.950 . S
C375 C374 1.294 1_554 S
C375 C376 1.477 1_554 S
C375 H389 0.956 . S
C376 C375 1.477 1_556 S
C376 C377 1.375 1_556 S
C376 C382 1.404 . S
C377 C376 1.375 1_554 S
C377 C378 1.368 . S
C377 H390 0.950 . S
C378 C377 1.368 . S
C378 C379 1.394 1_554 S
C378 H391 0.950 . S
C379 C378 1.394 1_556 S
C379 C381 1.384 . S
H380 C382 0.949 . S
C381 C379 1.384 . S
C381 C382 1.385 . S
C381 H383 0.950 . S
C382 C376 1.404 . S
C382 H380 0.949 . S
C382 C381 1.385 . S
H383 C381 0.950 . S
H384 C368 0.951 . S
H385 C370 0.951 . S
H386 C372 0.951 . S
H387 C373 0.950 . S
H388 C374 0.950 . S
H389 C375 0.956 . S
H390 C377 0.950 . S
H391 C378 0.950 . S
C392 C393 1.386 . S
C392 C394 1.383 . S
C392 H408 0.951 1_554 S
C393 C392 1.386 . S
C393 C397 1.383 . S
C394 C392 1.383 . S
C394 C395 1.402 . S
C394 H409 0.951 1_554 S
C395 C394 1.402 . S
C395 C396 1.375 . S
C395 C398 1.481 . S
C396 C395 1.375 . S
C396 C397 1.367 . S
C396 H410 0.951 . S
C397 C393 1.383 . S
C397 C396 1.367 . S
C397 H411 0.950 . S
C398 C395 1.481 . S
C398 C399 1.297 1_554 S
C398 H412 0.950 . S
C399 C398 1.297 1_556 S
C399 C400 1.479 . S
C399 H413 0.950 . S
C400 C399 1.479 . S
C400 C401 1.375 . S
C400 C406 1.404 1_556 S
C401 C400 1.375 . S
C401 C402 1.369 . S
C401 H414 0.950 . S
C402 C401 1.369 . S
C402 C403 1.392 . S
C402 H415 0.951 . S
C403 C402 1.392 . S
C403 C405 1.384 1_556 S
H404 C406 0.949 . S
C405 C403 1.384 1_554 S
C405 C406 1.385 . S
C405 H407 0.950 . S
C406 C400 1.404 1_554 S
C406 H404 0.949 . S
C406 C405 1.385 . S
H407 C405 0.950 . S
H408 C392 0.951 1_556 S
H409 C394 0.951 1_556 S
H410 C396 0.951 . S
H411 C397 0.950 . S
H412 C398 0.950 . S
H413 C399 0.950 . S
H414 C401 0.950 . S
H415 C402 0.951 . S
C129 N82 1.973 . S
C139 N13 1.904 . S
C153 N45 1.969 . S
C163 N109 1.968 . S
C177 N114 1.936 . S
C187 N50 1.938 . S
C201 N18 1.980 . S
C211 N77 1.917 . S
C225 C100 1.574 . S
C235 C4 1.578 . S
C249 C93 1.582 . S
C259 C36 1.572 . S
C273 C68 1.581 . S
C283 C61 1.567 . S
C297 C29 1.585 . S
C307 C125 1.560 . S
C321 C98 0.623 . S
C331 C2 0.652 . S
C345 C70 0.633 . S
C355 C34 0.635 . S
C369 C38 0.649 . S
C379 C66 0.591 . S
C393 C6 0.554 . S
C403 C102 0.645 . S
