# Generated by pormake.
# Topology gsi, (4)-cn, num edge types: 1
# Building blocks:
#     Node 0, Type 0, BuildingBlock: NAHDIM_clean_sbu_0, # of connection points: 4
#     Node 1, Type 0, BuildingBlock: NAHDIM_clean_sbu_0, # of connection points: 4
#     Node 2, Type 0, BuildingBlock: NAHDIM_clean_sbu_0, # of connection points: 4
#     Node 3, Type 0, BuildingBlock: NAHDIM_clean_sbu_0, # of connection points: 4
#     Node 4, Type 0, BuildingBlock: NAHDIM_clean_sbu_0, # of connection points: 4
#     Node 5, Type 0, BuildingBlock: NAHDIM_clean_sbu_0, # of connection points: 4
#     Node 6, Type 0, BuildingBlock: NAHDIM_clean_sbu_0, # of connection points: 4
#     Node 7, Type 0, BuildingBlock: NAHDIM_clean_sbu_0, # of connection points: 4
#     Node 8, Type 0, BuildingBlock: NAHDIM_clean_sbu_0, # of connection points: 4
#     Node 9, Type 0, BuildingBlock: NAHDIM_clean_sbu_0, # of connection points: 4
#     Node 10, Type 0, BuildingBlock: NAHDIM_clean_sbu_0, # of connection points: 4
#     Node 11, Type 0, BuildingBlock: NAHDIM_clean_sbu_0, # of connection points: 4
#     Node 12, Type 0, BuildingBlock: NAHDIM_clean_sbu_0, # of connection points: 4
#     Node 13, Type 0, BuildingBlock: NAHDIM_clean_sbu_0, # of connection points: 4
#     Node 14, Type 0, BuildingBlock: NAHDIM_clean_sbu_0, # of connection points: 4
#     Node 15, Type 0, BuildingBlock: NAHDIM_clean_sbu_0, # of connection points: 4
#     Edge 16, Type (0, 0), BuildingBlock: XUDNAN_clean_linker_2, # of connection points: 2
#     Edge 17, Type (0, 0), BuildingBlock: XUDNAN_clean_linker_2, # of connection points: 2
#     Edge 18, Type (0, 0), BuildingBlock: XUDNAN_clean_linker_2, # of connection points: 2
#     Edge 19, Type (0, 0), BuildingBlock: XUDNAN_clean_linker_2, # of connection points: 2
#     Edge 20, Type (0, 0), BuildingBlock: XUDNAN_clean_linker_2, # of connection points: 2
#     Edge 21, Type (0, 0), BuildingBlock: XUDNAN_clean_linker_2, # of connection points: 2
#     Edge 22, Type (0, 0), BuildingBlock: XUDNAN_clean_linker_2, # of connection points: 2
#     Edge 23, Type (0, 0), BuildingBlock: XUDNAN_clean_linker_2, # of connection points: 2
#     Edge 24, Type (0, 0), BuildingBlock: XUDNAN_clean_linker_2, # of connection points: 2
#     Edge 25, Type (0, 0), BuildingBlock: XUDNAN_clean_linker_2, # of connection points: 2
#     Edge 26, Type (0, 0), BuildingBlock: XUDNAN_clean_linker_2, # of connection points: 2
#     Edge 27, Type (0, 0), BuildingBlock: XUDNAN_clean_linker_2, # of connection points: 2
#     Edge 28, Type (0, 0), BuildingBlock: XUDNAN_clean_linker_2, # of connection points: 2
#     Edge 29, Type (0, 0), BuildingBlock: XUDNAN_clean_linker_2, # of connection points: 2
#     Edge 30, Type (0, 0), BuildingBlock: XUDNAN_clean_linker_2, # of connection points: 2
#     Edge 31, Type (0, 0), BuildingBlock: XUDNAN_clean_linker_2, # of connection points: 2
#     Edge 32, Type (0, 0), BuildingBlock: XUDNAN_clean_linker_2, # of connection points: 2
#     Edge 33, Type (0, 0), BuildingBlock: XUDNAN_clean_linker_2, # of connection points: 2
#     Edge 34, Type (0, 0), BuildingBlock: XUDNAN_clean_linker_2, # of connection points: 2
#     Edge 35, Type (0, 0), BuildingBlock: XUDNAN_clean_linker_2, # of connection points: 2
#     Edge 36, Type (0, 0), BuildingBlock: XUDNAN_clean_linker_2, # of connection points: 2
#     Edge 37, Type (0, 0), BuildingBlock: XUDNAN_clean_linker_2, # of connection points: 2
#     Edge 38, Type (0, 0), BuildingBlock: XUDNAN_clean_linker_2, # of connection points: 2
#     Edge 39, Type (0, 0), BuildingBlock: XUDNAN_clean_linker_2, # of connection points: 2
#     Edge 40, Type (0, 0), BuildingBlock: XUDNAN_clean_linker_2, # of connection points: 2
#     Edge 41, Type (0, 0), BuildingBlock: XUDNAN_clean_linker_2, # of connection points: 2
#     Edge 42, Type (0, 0), BuildingBlock: XUDNAN_clean_linker_2, # of connection points: 2
#     Edge 43, Type (0, 0), BuildingBlock: XUDNAN_clean_linker_2, # of connection points: 2
#     Edge 44, Type (0, 0), BuildingBlock: XUDNAN_clean_linker_2, # of connection points: 2
#     Edge 45, Type (0, 0), BuildingBlock: XUDNAN_clean_linker_2, # of connection points: 2
#     Edge 46, Type (0, 0), BuildingBlock: XUDNAN_clean_linker_2, # of connection points: 2
#     Edge 47, Type (0, 0), BuildingBlock: XUDNAN_clean_linker_2, # of connection points: 2
# Relax obj value: 0.051
# Max RMSD: 0.059
# Mean RMSD: 0.054
data_MOF--net-gsi--node1-NAHDIM_clean_sbu_0--edge1-XUDNAN_clean_linker_2
_symmetry_space_group_name_H-M    P1
_symmetry_Int_Tables_number       1
_symmetry_cell_setting            triclinic
loop_
_symmetry_equiv_pos_as_xyz
'x, y, z'
_cell_length_a     41.639218
_cell_length_b     42.623409
_cell_length_c     42.860516
_cell_angle_alpha  90.072157
_cell_angle_beta   89.996254
_cell_angle_gamma 95.196527
loop_
_atom_site_label
_atom_site_type_symbol
_atom_site_fract_x
_atom_site_fract_y
_atom_site_fract_z
_atom_type_partial_charge
C0 C 0.10978 0.19989 0.13637 0.0
O1 O 0.13449 0.22127 0.13822 0.0
O2 O 0.17425 0.14389 0.09716 0.0
Zn3 Zn 0.15904 0.15504 0.14022 0.0
O4 O 0.19067 0.18925 0.15743 0.0
C5 C 0.18202 0.11215 0.18551 0.0
O6 O 0.20809 0.1318 0.18336 0.0
O7 O 0.11464 0.17081 0.13691 0.0
C8 C 0.18856 0.19983 0.18501 0.0
O9 O 0.16438 0.18887 0.20277 0.0
C10 C 0.2037 0.13989 0.092 0.0
O11 O 0.2242 0.14209 0.11536 0.0
O12 O 0.15764 0.11678 0.16877 0.0
C13 C 0.90494 0.29847 0.13595 0.0
O14 O 0.87593 0.28368 0.13731 0.0
O15 O 0.8433 0.36027 0.10951 0.0
Zn16 Zn 0.86644 0.34872 0.14914 0.0
O17 O 0.83852 0.3164 0.174 0.0
C18 C 0.84939 0.39422 0.19267 0.0
O19 O 0.82214 0.37652 0.18931 0.0
O20 O 0.90811 0.32826 0.1398 0.0
C21 C 0.80857 0.30828 0.17079 0.0
O22 O 0.79201 0.32201 0.14949 0.0
C23 C 0.83291 0.3398 0.08944 0.0
O24 O 0.83796 0.31019 0.09391 0.0
O25 O 0.87379 0.38781 0.17673 0.0
C26 C 0.15117 0.91544 0.30595 0.0
O27 O 0.1292 0.89597 0.2924 0.0
O28 O 0.1193 0.83906 0.34422 0.0
Zn29 Zn 0.1648 0.86067 0.34414 0.0
O30 O 0.19155 0.83577 0.31589 0.0
C31 C 0.1933 0.83347 0.39685 0.0
O32 O 0.18678 0.80818 0.37961 0.0
O33 O 0.16759 0.90561 0.32837 0.0
C34 C 0.22175 0.84233 0.31302 0.0
O35 O 0.23587 0.86647 0.32838 0.0
C36 C 0.10951 0.82488 0.31936 0.0
O37 O 0.12836 0.82655 0.29473 0.0
O38 O 0.18491 0.85967 0.38705 0.0
C39 C 0.86385 0.59519 0.30582 0.0
O40 O 0.88159 0.61663 0.28989 0.0
O41 O 0.89084 0.67314 0.33426 0.0
Zn42 Zn 0.84733 0.64932 0.34188 0.0
O43 O 0.81502 0.66887 0.31487 0.0
C44 C 0.82041 0.67818 0.39453 0.0
O45 O 0.82223 0.70178 0.37472 0.0
O46 O 0.84785 0.60368 0.32919 0.0
C47 C 0.78518 0.66024 0.31807 0.0
O48 O 0.7763 0.63765 0.33794 0.0
C49 C 0.90733 0.69089 0.35335 0.0
O50 O 0.89672 0.69412 0.38193 0.0
O51 O 0.83163 0.65259 0.38646 0.0
C52 C 0.41428 0.82057 0.62772 0.0
O53 O 0.40332 0.82339 0.59921 0.0
O54 O 0.33602 0.84317 0.60515 0.0
Zn55 Zn 0.35677 0.85112 0.64753 0.0
O56 O 0.32769 0.82861 0.67943 0.0
C57 C 0.33869 0.91097 0.66971 0.0
O58 O 0.31002 0.89529 0.66975 0.0
O59 O 0.39905 0.83139 0.65047 0.0
C60 C 0.33128 0.83553 0.70814 0.0
O61 O 0.35398 0.85733 0.71653 0.0
C62 C 0.32238 0.86308 0.58886 0.0
O63 O 0.32234 0.89222 0.59884 0.0
O64 O 0.36266 0.89742 0.65958 0.0
C65 C 0.83021 0.89018 0.81794 0.0
O66 O 0.80763 0.86659 0.81757 0.0
O67 O 0.8404 0.85792 0.90905 0.0
Zn68 Zn 0.85586 0.85083 0.86479 0.0
O69 O 0.82751 0.81503 0.84546 0.0
C70 C 0.92187 0.83262 0.8834 0.0
O71 O 0.91715 0.84228 0.91201 0.0
O72 O 0.85337 0.88963 0.8373 0.0
C73 C 0.83518 0.78682 0.84588 0.0
O74 O 0.86103 0.78026 0.86122 0.0
C75 C 0.84251 0.83659 0.92948 0.0
O76 O 0.85517 0.81056 0.92175 0.0
O77 O 0.90085 0.83622 0.86247 0.0
C78 C 0.10816 0.58819 0.83183 0.0
O79 O 0.08801 0.5953 0.85378 0.0
O80 O 0.15877 0.63726 0.89506 0.0
Zn81 Zn 0.14081 0.64718 0.85218 0.0
O82 O 0.17357 0.6773 0.82975 0.0
C83 C 0.08771 0.68229 0.8775 0.0
O84 O 0.10163 0.68072 0.90487 0.0
O85 O 0.13314 0.60694 0.82675 0.0
C86 C 0.1724 0.70684 0.83325 0.0
O87 O 0.14973 0.71719 0.85075 0.0
C88 C 0.17339 0.65886 0.91168 0.0
O89 O 0.17529 0.68802 0.90162 0.0
O90 O 0.09937 0.6688 0.85412 0.0
C91 C 0.79804 0.1627 0.60518 0.0
O92 O 0.80139 0.18426 0.62714 0.0
O93 O 0.88396 0.15147 0.64442 0.0
Zn94 Zn 0.83733 0.13332 0.64888 0.0
O95 O 0.8147 0.15617 0.68246 0.0
C96 C 0.84938 0.08124 0.68799 0.0
O97 O 0.86663 0.10378 0.703 0.0
O98 O 0.81204 0.13756 0.6085 0.0
C99 C 0.82708 0.17683 0.70137 0.0
O100 O 0.85829 0.18474 0.70083 0.0
C101 C 0.89199 0.18005 0.63709 0.0
O102 O 0.86936 0.19881 0.63137 0.0
O103 O 0.83524 0.08791 0.66285 0.0
C104 C 0.17486 0.3523 0.59878 0.0
O105 O 0.16745 0.32307 0.60769 0.0
O106 O 0.10073 0.33252 0.64663 0.0
Zn107 Zn 0.14002 0.36367 0.65482 0.0
O108 O 0.16995 0.34308 0.6837 0.0
C109 C 0.10571 0.40001 0.6979 0.0
O110 O 0.09112 0.37193 0.70339 0.0
O111 O 0.16487 0.37453 0.61494 0.0
C112 C 0.187 0.35854 0.70406 0.0
O113 O 0.18551 0.38911 0.70632 0.0
C114 C 0.10303 0.30319 0.65061 0.0
O115 O 0.13088 0.29381 0.65921 0.0
O116 O 0.12715 0.40299 0.6767 0.0
C117 C 0.64363 0.0826 0.32688 0.0
O118 O 0.67381 0.09463 0.32703 0.0
O119 O 0.65802 0.13705 0.40289 0.0
Zn120 Zn 0.63752 0.13981 0.36014 0.0
O121 O 0.67198 0.16057 0.3324 0.0
C122 C 0.5721 0.16377 0.36663 0.0
O123 O 0.55983 0.13441 0.36937 0.0
O124 O 0.62261 0.09728 0.34103 0.0
C125 C 0.66545 0.17464 0.3074 0.0
O126 O 0.63518 0.17562 0.29914 0.0
C127 C 0.66522 0.16408 0.41492 0.0
O128 O 0.65802 0.18908 0.39941 0.0
O129 O 0.60228 0.16966 0.36252 0.0
C130 C 0.60087 0.69417 0.62634 0.0
O131 O 0.6125 0.69267 0.59794 0.0
O132 O 0.6767 0.66804 0.60208 0.0
Zn133 Zn 0.65636 0.66017 0.64453 0.0
O134 O 0.68722 0.67964 0.67665 0.0
C135 C 0.63833 0.60748 0.68264 0.0
O136 O 0.62903 0.63046 0.69994 0.0
O137 O 0.61503 0.68144 0.64868 0.0
C138 C 0.7099 0.66428 0.68661 0.0
O139 O 0.71352 0.63638 0.67474 0.0
C140 C 0.69566 0.65016 0.58918 0.0
O141 O 0.70165 0.62388 0.60312 0.0
O142 O 0.64948 0.61393 0.65552 0.0
C143 C 0.65042 0.42404 0.81932 0.0
O144 O 0.63029 0.42543 0.84278 0.0
O145 O 0.61522 0.35059 0.85278 0.0
Zn146 Zn 0.66265 0.36396 0.84718 0.0
O147 O 0.68166 0.3278 0.8261 0.0
C148 C 0.69782 0.35098 0.90244 0.0
O149 O 0.69346 0.32247 0.89061 0.0
O150 O 0.66733 0.40073 0.8173 0.0
C151 C 0.71136 0.32844 0.8191 0.0
O152 O 0.73067 0.35368 0.8257 0.0
C153 C 0.60405 0.32927 0.87159 0.0
O154 O 0.62381 0.31651 0.89067 0.0
O155 O 0.68606 0.37353 0.88821 0.0
C156 C 0.32855 0.10299 0.79546 0.0
O157 O 0.29849 0.10627 0.80315 0.0
O158 O 0.38341 0.188 0.83962 0.0
Zn159 Zn 0.34189 0.16046 0.83205 0.0
O160 O 0.31465 0.18928 0.80871 0.0
C161 C 0.3236 0.13382 0.89563 0.0
O162 O 0.35238 0.12385 0.89856 0.0
O163 O 0.35075 0.12295 0.80542 0.0
C164 C 0.31195 0.21492 0.82331 0.0
O165 O 0.32559 0.21888 0.85085 0.0
C166 C 0.40109 0.1937 0.8635 0.0
O167 O 0.39414 0.17883 0.88978 0.0
O168 O 0.31633 0.14814 0.87099 0.0
C169 C 0.35705 0.41759 0.3279 0.0
O170 O 0.32755 0.40408 0.32511 0.0
O171 O 0.33897 0.37067 0.40532 0.0
Zn172 Zn 0.36376 0.36282 0.36582 0.0
O173 O 0.33519 0.33687 0.33585 0.0
C174 C 0.40195 0.30975 0.37464 0.0
O175 O 0.37373 0.29355 0.37173 0.0
O176 O 0.37712 0.40457 0.34487 0.0
C177 C 0.34592 0.333 0.30849 0.0
O178 O 0.37492 0.34567 0.3013 0.0
C179 C 0.31971 0.34932 0.41761 0.0
O180 O 0.3167 0.32111 0.40497 0.0
O181 O 0.40347 0.33972 0.37398 0.0
C182 C 0.3122 0.65616 0.09679 0.0
O183 O 0.32233 0.68535 0.10402 0.0
O184 O 0.39834 0.65995 0.13077 0.0
Zn185 Zn 0.35435 0.64372 0.14765 0.0
O186 O 0.33929 0.67772 0.17521 0.0
C187 C 0.3819 0.60509 0.19328 0.0
O188 O 0.40346 0.62958 0.19399 0.0
O189 O 0.32269 0.63382 0.11232 0.0
C190 C 0.31036 0.68067 0.18323 0.0
O191 O 0.28725 0.65989 0.1736 0.0
C192 C 0.40602 0.68953 0.1295 0.0
O193 O 0.38465 0.70887 0.1376 0.0
O194 O 0.35827 0.60524 0.17449 0.0
C195 C 0.72267 0.85635 0.12454 0.0
O196 O 0.73086 0.8507 0.15345 0.0
O197 O 0.61876 0.8313 0.13633 0.0
Zn198 Zn 0.66045 0.85248 0.15349 0.0
O199 O 0.67718 0.82153 0.18368 0.0
C200 C 0.62669 0.89516 0.19124 0.0
O201 O 0.60345 0.87233 0.18862 0.0
O202 O 0.69327 0.85979 0.11849 0.0
C203 C 0.6584 0.80365 0.20066 0.0
O204 O 0.6272 0.80605 0.19942 0.0
C205 C 0.62005 0.80461 0.1233 0.0
O206 O 0.64833 0.79372 0.11954 0.0
O207 O 0.65333 0.89251 0.17733 0.0
H208 H 0.1943 0.22374 0.24448 0.0
H209 H 0.24158 0.2266 0.15406 0.0
H210 H 0.28635 0.2619 0.17562 0.0
H211 H 0.21753 0.30534 0.26586 0.0
H212 H 0.2235 0.29613 0.30637 0.0
H213 H 0.19446 0.27214 0.28346 0.0
H214 H 0.22285 0.22249 0.29796 0.0
H215 H 0.25205 0.24634 0.32077 0.0
H216 H 0.26528 0.22166 0.29002 0.0
H217 H 0.32698 0.29498 0.20735 0.0
H218 H 0.36022 0.32481 0.24693 0.0
H219 H 0.28645 0.30059 0.31667 0.0
C220 C 0.2139 0.23202 0.22911 0.0
C221 C 0.2144 0.22243 0.19756 0.0
C222 C 0.24062 0.23365 0.1783 0.0
C223 C 0.26618 0.25371 0.19032 0.0
C224 C 0.26512 0.26239 0.2216 0.0
C225 C 0.23962 0.25205 0.24072 0.0
C226 C 0.24476 0.26434 0.27368 0.0
C227 C 0.2185 0.28576 0.28287 0.0
C228 C 0.24634 0.23708 0.29697 0.0
C229 C 0.27727 0.28297 0.27014 0.0
C230 C 0.28856 0.28157 0.23991 0.0
C231 C 0.31834 0.29641 0.23107 0.0
C232 C 0.33706 0.31323 0.25375 0.0
C233 C 0.32593 0.31508 0.28488 0.0
C234 C 0.29559 0.29973 0.29305 0.0
H235 H 0.74366 0.29041 0.17622 0.0
H236 H 0.83721 0.27267 0.21378 0.0
H237 H 0.81072 0.23474 0.25106 0.0
H238 H 0.70231 0.28835 0.24848 0.0
H239 H 0.66525 0.26901 0.23335 0.0
H240 H 0.69155 0.29338 0.20816 0.0
H241 H 0.69402 0.24672 0.16966 0.0
H242 H 0.66765 0.2222 0.19472 0.0
H243 H 0.7063 0.20977 0.18367 0.0
H244 H 0.77441 0.20088 0.28586 0.0
H245 H 0.7303 0.17293 0.31607 0.0
H246 H 0.66015 0.21239 0.25608 0.0
C247 C 0.7586 0.27831 0.19205 0.0
C248 C 0.79251 0.28452 0.19206 0.0
C249 C 0.81117 0.26836 0.21335 0.0
C250 C 0.79638 0.24669 0.23458 0.0
C251 C 0.76291 0.24138 0.2342 0.0
C252 C 0.74421 0.25661 0.21348 0.0
C253 C 0.70863 0.2474 0.21877 0.0
C254 C 0.69091 0.27625 0.22773 0.0
C255 C 0.69325 0.23051 0.18999 0.0
C256 C 0.7103 0.22498 0.24599 0.0
C257 C 0.74186 0.22173 0.25438 0.0
C258 C 0.74958 0.20304 0.2794 0.0
C259 C 0.72434 0.18732 0.29645 0.0
C260 C 0.69177 0.19044 0.28842 0.0
C261 C 0.68478 0.20937 0.26268 0.0
H262 H 0.25131 0.69471 0.20536 0.0
H263 H 0.35304 0.72804 0.20535 0.0
H264 H 0.34132 0.77341 0.23776 0.0
H265 H 0.22101 0.77119 0.20085 0.0
H266 H 0.18731 0.76084 0.22638 0.0
H267 H 0.20359 0.73095 0.20294 0.0
H268 H 0.2122 0.69816 0.25264 0.0
H269 H 0.19589 0.72792 0.27621 0.0
H270 H 0.23544 0.71601 0.28455 0.0
H271 H 0.31878 0.81498 0.27054 0.0
H272 H 0.2868 0.84958 0.30185 0.0
H273 H 0.19987 0.78927 0.28037 0.0
C274 C 0.27113 0.71154 0.21214 0.0
C275 C 0.30309 0.70776 0.2028 0.0
C276 C 0.32834 0.73036 0.21222 0.0
C277 C 0.32195 0.75627 0.23061 0.0
C278 C 0.2902 0.7593 0.2394 0.0
C279 C 0.26519 0.73757 0.23052 0.0
C280 C 0.23328 0.74623 0.24334 0.0
C281 C 0.20993 0.75269 0.21679 0.0
C282 C 0.21833 0.72055 0.2655 0.0
C283 C 0.24429 0.77614 0.26088 0.0
C284 C 0.2772 0.7833 0.25827 0.0
C285 C 0.29297 0.80967 0.27272 0.0
C286 C 0.2746 0.82918 0.29044 0.0
C287 C 0.24085 0.82219 0.29355 0.0
C288 C 0.22561 0.79534 0.27841 0.0
H289 H 0.79553 0.70911 0.2766 0.0
H290 H 0.71947 0.64988 0.32263 0.0
H291 H 0.67868 0.67997 0.29743 0.0
H292 H 0.75914 0.78113 0.28365 0.0
H293 H 0.7725 0.7959 0.24599 0.0
H294 H 0.79572 0.76903 0.26676 0.0
H295 H 0.7922 0.73113 0.21929 0.0
H296 H 0.76912 0.75798 0.1983 0.0
H297 H 0.75324 0.71757 0.20355 0.0
H298 H 0.64626 0.71764 0.26853 0.0
H299 H 0.6245 0.759 0.23659 0.0
H300 H 0.72186 0.79332 0.2094 0.0
C301 C 0.7703 0.70227 0.28122 0.0
C302 C 0.7607 0.6771 0.30158 0.0
C303 C 0.72742 0.66902 0.30707 0.0
C304 C 0.70406 0.686 0.2929 0.0
C305 C 0.71437 0.71091 0.27326 0.0
C306 C 0.74668 0.71892 0.26726 0.0
C307 C 0.75142 0.74691 0.2455 0.0
C308 C 0.77084 0.77489 0.26144 0.0
C309 C 0.76743 0.73785 0.21484 0.0
C310 C 0.71672 0.75351 0.24034 0.0
C311 C 0.69571 0.73251 0.25655 0.0
C312 C 0.66246 0.73415 0.25564 0.0
C313 C 0.65035 0.75778 0.23748 0.0
C314 C 0.67145 0.77941 0.22048 0.0
C315 C 0.70507 0.77716 0.22208 0.0
H316 H 0.29699 0.77769 0.70441 0.0
H317 H 0.31616 0.85895 0.76492 0.0
H318 H 0.27808 0.83432 0.80385 0.0
H319 H 0.21312 0.76244 0.72086 0.0
H320 H 0.2134 0.72018 0.72062 0.0
H321 H 0.24223 0.7441 0.69751 0.0
H322 H 0.28903 0.71874 0.72476 0.0
H323 H 0.26034 0.69468 0.74794 0.0
H324 H 0.29187 0.71964 0.76673 0.0
H325 H 0.23559 0.80265 0.8344 0.0
H326 H 0.19452 0.76379 0.85699 0.0
H327 H 0.20579 0.7012 0.77862 0.0
C328 C 0.29316 0.79024 0.72588 0.0
C329 C 0.30932 0.82026 0.73168 0.0
C330 C 0.30404 0.83588 0.76013 0.0
C331 C 0.28243 0.82213 0.78231 0.0
C332 C 0.26676 0.79257 0.77585 0.0
C333 C 0.27215 0.77659 0.74855 0.0
C334 C 0.25262 0.74482 0.74766 0.0
C335 C 0.22894 0.74279 0.72003 0.0
C336 C 0.2748 0.71788 0.74673 0.0
C337 C 0.23503 0.74566 0.77852 0.0
C338 C 0.24337 0.77355 0.79426 0.0
C339 C 0.22914 0.78056 0.82251 0.0
C340 C 0.20578 0.75843 0.83507 0.0
C341 C 0.19727 0.7295 0.81961 0.0
C342 C 0.21226 0.72297 0.7911 0.0
H343 H 0.71198 0.72294 0.71334 0.0
H344 H 0.75563 0.63428 0.71772 0.0
H345 H 0.79037 0.65508 0.76104 0.0
H346 H 0.7842 0.77255 0.72767 0.0
H347 H 0.7646 0.80057 0.7508 0.0
H348 H 0.74239 0.77824 0.7209 0.0
H349 H 0.69951 0.75805 0.76176 0.0
H350 H 0.72171 0.78019 0.79184 0.0
H351 H 0.71197 0.73837 0.79634 0.0
H352 H 0.82094 0.68573 0.8032 0.0
H353 H 0.84713 0.72504 0.83957 0.0
H354 H 0.78366 0.79373 0.80738 0.0
C355 C 0.72876 0.70784 0.72346 0.0
C356 C 0.73106 0.67696 0.71218 0.0
C357 C 0.75347 0.65804 0.72594 0.0
C358 C 0.77322 0.66958 0.75064 0.0
C359 C 0.77026 0.70007 0.76126 0.0
C360 C 0.74872 0.71901 0.74803 0.0
C361 C 0.75103 0.75126 0.76312 0.0
C362 C 0.76117 0.77718 0.7392 0.0
C363 C 0.71916 0.7573 0.77922 0.0
C364 C 0.77743 0.74758 0.78673 0.0
C365 C 0.78803 0.71782 0.78544 0.0
C366 C 0.81278 0.70909 0.80452 0.0
C367 C 0.82746 0.73158 0.82513 0.0
C368 C 0.81742 0.76245 0.82637 0.0
C369 C 0.79177 0.77029 0.80715 0.0
H370 H 0.77356 0.32168 0.80051 0.0
H371 H 0.67731 0.27298 0.80282 0.0
H372 H 0.69748 0.22753 0.77597 0.0
H373 H 0.79423 0.29658 0.725 0.0
H374 H 0.83577 0.29209 0.73434 0.0
H375 H 0.81426 0.32012 0.75545 0.0
H376 H 0.82792 0.29363 0.8076 0.0
H377 H 0.84945 0.26545 0.78662 0.0
H378 H 0.81724 0.25202 0.81281 0.0
H379 H 0.72698 0.18886 0.74631 0.0
H380 H 0.76412 0.15925 0.71551 0.0
H381 H 0.84158 0.23239 0.73304 0.0
C382 C 0.75677 0.30136 0.79561 0.0
C383 C 0.72384 0.30091 0.80378 0.0
C384 C 0.70264 0.27391 0.7968 0.0
C385 C 0.71387 0.24791 0.78163 0.0
C386 C 0.74639 0.2492 0.77374 0.0
C387 C 0.76759 0.27515 0.78052 0.0
C388 C 0.80113 0.27089 0.76846 0.0
C389 C 0.81197 0.29643 0.74438 0.0
C390 C 0.82536 0.27047 0.79549 0.0
C391 C 0.79529 0.23875 0.75333 0.0
C392 C 0.76358 0.22662 0.75681 0.0
C393 C 0.75195 0.19794 0.74367 0.0
C394 C 0.77323 0.18133 0.72617 0.0
C395 C 0.80577 0.19343 0.722 0.0
C396 C 0.81696 0.22233 0.73616 0.0
H397 H 0.20111 0.29694 0.70118 0.0
H398 H 0.21974 0.38298 0.75516 0.0
H399 H 0.25353 0.35534 0.79143 0.0
H400 H 0.19603 0.24337 0.76576 0.0
H401 H 0.21605 0.21343 0.74575 0.0
H402 H 0.19335 0.23994 0.72389 0.0
H403 H 0.24369 0.2564 0.69014 0.0
H404 H 0.26655 0.2299 0.71185 0.0
H405 H 0.28082 0.271 0.70893 0.0
H406 H 0.28409 0.31838 0.82235 0.0
H407 H 0.31144 0.27494 0.84509 0.0
H408 H 0.27418 0.21298 0.7704 0.0
C409 C 0.2123 0.30999 0.72062 0.0
C410 C 0.20774 0.34212 0.72539 0.0
C411 C 0.22293 0.35838 0.75101 0.0
C412 C 0.24212 0.34288 0.77177 0.0
C413 C 0.24601 0.3112 0.76646 0.0
C414 C 0.23171 0.29495 0.74144 0.0
C415 C 0.24004 0.26107 0.74091 0.0
C416 C 0.20955 0.2381 0.74429 0.0
C417 C 0.2589 0.2542 0.71119 0.0
C418 C 0.26117 0.26079 0.76964 0.0
C419 C 0.26415 0.28994 0.78406 0.0
C420 C 0.28204 0.29548 0.81123 0.0
C421 C 0.29743 0.27059 0.82399 0.0
C422 C 0.29499 0.24056 0.8095 0.0
C423 C 0.2766 0.23569 0.78193 0.0
H424 H 0.12045 0.94469 0.2587 0.0
H425 H 0.19932 0.95924 0.32499 0.0
H426 H 0.21446 0.01161 0.3023 0.0
H427 H 0.16167 0.98073 0.19394 0.0
H428 H 0.12734 0.99874 0.17889 0.0
H429 H 0.12142 0.96297 0.20127 0.0
H430 H 0.08452 0.98994 0.23971 0.0
H431 H 0.09019 0.02578 0.21734 0.0
H432 H 0.0994 0.02628 0.25844 0.0
H433 H 0.22337 0.06066 0.27052 0.0
H434 H 0.22384 0.1047 0.23328 0.0
H435 H 0.1384 0.05947 0.18819 0.0
C436 C 0.14069 0.95901 0.26868 0.0
C437 C 0.15868 0.94778 0.29367 0.0
C438 C 0.18509 0.96728 0.30593 0.0
C439 C 0.19392 0.99708 0.29318 0.0
C440 C 0.17599 0.00722 0.26831 0.0
C441 C 0.14976 0.98895 0.25634 0.0
C442 C 0.13497 0.00528 0.22913 0.0
C443 C 0.13646 0.98576 0.19903 0.0
C444 C 0.10021 0.01224 0.23662 0.0
C445 C 0.15731 0.03536 0.22742 0.0
C446 C 0.1808 0.03592 0.25025 0.0
C447 C 0.20493 0.06063 0.25272 0.0
C448 C 0.20505 0.08549 0.23135 0.0
C449 C 0.18111 0.08561 0.20786 0.0
C450 C 0.15685 0.0602 0.20605 0.0
H451 H 0.88825 0.45035 0.1915 0.0
H452 H 0.81338 0.39723 0.24496 0.0
H453 H 0.81222 0.44143 0.28188 0.0
H454 H 0.92981 0.49175 0.25806 0.0
H455 H 0.93742 0.52816 0.23687 0.0
H456 H 0.93509 0.49111 0.21632 0.0
H457 H 0.89059 0.50995 0.18049 0.0
H458 H 0.89273 0.54699 0.20095 0.0
H459 H 0.85475 0.52331 0.19775 0.0
H460 H 0.81662 0.49176 0.31135 0.0
H461 H 0.82482 0.54641 0.33053 0.0
H462 H 0.89541 0.56856 0.25734 0.0
C463 C 0.87213 0.44789 0.21134 0.0
C464 C 0.85107 0.4203 0.21554 0.0
C465 C 0.82972 0.41816 0.24133 0.0
C466 C 0.82897 0.44308 0.26252 0.0
C467 C 0.84956 0.47016 0.25753 0.0
C468 C 0.87069 0.47287 0.23257 0.0
C469 C 0.8884 0.50558 0.23142 0.0
C470 C 0.92485 0.50405 0.23594 0.0
C471 C 0.88117 0.52244 0.20084 0.0
C472 C 0.87349 0.52083 0.25928 0.0
C473 C 0.85148 0.49979 0.27421 0.0
C474 C 0.83395 0.50845 0.30001 0.0
C475 C 0.83878 0.53959 0.31072 0.0
C476 C 0.86075 0.56184 0.29549 0.0
C477 C 0.87852 0.55212 0.26959 0.0
H478 H 0.33537 0.12634 0.9582 0.0
H479 H 0.25838 0.13423 0.89122 0.0
H480 H 0.21877 0.13247 0.93413 0.0
H481 H 0.289 0.07454 0.01423 0.0
H482 H 0.30777 0.09433 0.04763 0.0
H483 H 0.32969 0.09277 0.01149 0.0
H484 H 0.33977 0.15366 0.01151 0.0
H485 H 0.31782 0.15541 0.04754 0.0
H486 H 0.3059 0.17707 0.01403 0.0
H487 H 0.18795 0.13315 0.98415 0.0
H488 H 0.16821 0.13787 0.03808 0.0
H489 H 0.26529 0.13114 0.07292 0.0
C490 C 0.31009 0.12701 0.95257 0.0
C491 C 0.29989 0.13015 0.92137 0.0
C492 C 0.2667 0.13175 0.91496 0.0
C493 C 0.244 0.13066 0.93916 0.0
C494 C 0.25486 0.12813 0.9697 0.0
C495 C 0.28711 0.12637 0.97653 0.0
C496 C 0.29265 0.12612 0.01148 0.0
C497 C 0.30554 0.09509 0.02181 0.0
C498 C 0.31537 0.15477 0.02173 0.0
C499 C 0.25859 0.12848 0.02317 0.0
C500 C 0.23713 0.12925 0.99867 0.0
C501 C 0.20448 0.13235 0.00355 0.0
C502 C 0.1935 0.13504 0.03429 0.0
C503 C 0.21515 0.13486 0.05978 0.0
C504 C 0.24806 0.13122 0.054 0.0
H505 H 0.80548 0.30083 0.04416 0.0
H506 H 0.81643 0.39876 0.0734 0.0
H507 H 0.78278 0.41274 0.02881 0.0
H508 H 0.80874 0.31514 0.96151 0.0
H509 H 0.7791 0.2829 0.95259 0.0
H510 H 0.80433 0.28104 0.98653 0.0
H511 H 0.75346 0.27152 0.02135 0.0
H512 H 0.72808 0.27348 0.98753 0.0
H513 H 0.72322 0.29921 0.02026 0.0
H514 H 0.74706 0.4156 0.98071 0.0
H515 H 0.7134 0.40708 0.93327 0.0
H516 H 0.72632 0.30722 0.93674 0.0
C517 C 0.80098 0.32527 0.0412 0.0
C518 C 0.81366 0.3487 0.06228 0.0
C519 C 0.80703 0.38039 0.05752 0.0
C520 C 0.7879 0.38855 0.03228 0.0
C521 C 0.77561 0.36477 0.01205 0.0
C522 C 0.78198 0.33379 0.01626 0.0
C523 C 0.76585 0.31255 0.99147 0.0
C524 C 0.79101 0.297 0.97187 0.0
C525 C 0.74119 0.28774 0.00603 0.0
C526 C 0.74936 0.33637 0.97258 0.0
C527 C 0.75519 0.36638 0.98474 0.0
C528 C 0.74237 0.39218 0.97102 0.0
C529 C 0.72325 0.38712 0.94411 0.0
C530 C 0.71717 0.3565 0.93126 0.0
C531 C 0.73041 0.33093 0.94591 0.0
H532 H 0.28946 0.89903 0.54864 0.0
H533 H 0.31567 0.80384 0.56357 0.0
H534 H 0.28486 0.78603 0.5167 0.0
H535 H 0.20878 0.87765 0.52212 0.0
H536 H 0.2094 0.90836 0.4932 0.0
H537 H 0.23387 0.91395 0.52776 0.0
H538 H 0.28487 0.92569 0.49359 0.0
H539 H 0.26053 0.92032 0.45892 0.0
H540 H 0.2945 0.89753 0.46439 0.0
H541 H 0.25052 0.7782 0.46891 0.0
H542 H 0.21677 0.78126 0.42197 0.0
H543 H 0.21299 0.88158 0.43754 0.0
C544 C 0.28886 0.87446 0.542 0.0
C545 C 0.30501 0.85284 0.55987 0.0
C546 C 0.30354 0.82089 0.55032 0.0
C547 C 0.28604 0.8105 0.52374 0.0
C548 C 0.27017 0.83234 0.50686 0.0
C549 C 0.27153 0.86368 0.51546 0.0
C550 C 0.25236 0.88228 0.49312 0.0
C551 C 0.22445 0.89639 0.51007 0.0
C552 C 0.27438 0.90797 0.47652 0.0
C553 C 0.23997 0.85647 0.47066 0.0
C554 C 0.25047 0.82784 0.4791 0.0
C555 C 0.24219 0.80049 0.46202 0.0
C556 C 0.22293 0.80249 0.4354 0.0
C557 C 0.21217 0.83164 0.42601 0.0
C558 C 0.22074 0.85892 0.44409 0.0
H559 H 0.73447 0.61602 0.55273 0.0
H560 H 0.69468 0.70657 0.55899 0.0
H561 H 0.72389 0.72395 0.51112 0.0
H562 H 0.81298 0.64505 0.52438 0.0
H563 H 0.81651 0.61241 0.49821 0.0
H564 H 0.79273 0.60691 0.53322 0.0
H565 H 0.74313 0.58579 0.50041 0.0
H566 H 0.76681 0.59102 0.46533 0.0
H567 H 0.72965 0.60938 0.46893 0.0
H568 H 0.75764 0.73188 0.46309 0.0
H569 H 0.79115 0.72877 0.41602 0.0
H570 H 0.80856 0.63278 0.43998 0.0
C571 C 0.73187 0.6395 0.54403 0.0
C572 C 0.71231 0.65995 0.55972 0.0
C573 C 0.70946 0.69044 0.54743 0.0
C574 C 0.72606 0.70059 0.52029 0.0
C575 C 0.74531 0.67996 0.50557 0.0
C576 C 0.74813 0.64998 0.51682 0.0
C577 C 0.76988 0.63228 0.49607 0.0
C578 C 0.7998 0.62366 0.51405 0.0
C579 C 0.75125 0.60288 0.48184 0.0
C580 C 0.77881 0.65703 0.47142 0.0
C581 C 0.76451 0.68441 0.47751 0.0
C582 C 0.76895 0.71056 0.45805 0.0
C583 C 0.78812 0.70856 0.43137 0.0
C584 C 0.80254 0.68054 0.42424 0.0
C585 C 0.798 0.65457 0.4448 0.0
H586 H 0.97014 0.31773 0.14194 0.0
H587 H 0.90306 0.23649 0.1205 0.0
H588 H 0.94815 0.20331 0.11685 0.0
H589 H 0.03524 0.29597 0.09046 0.0
H590 H 0.06669 0.30989 0.11731 0.0
H591 H 0.02927 0.32806 0.11665 0.0
H592 H 0.02179 0.31696 0.17573 0.0
H593 H 0.05907 0.29861 0.17654 0.0
H594 H 0.02233 0.2772 0.18991 0.0
H595 H 0.9994 0.17789 0.11851 0.0
H596 H 0.05474 0.16222 0.12333 0.0
H597 H 0.08966 0.25937 0.14294 0.0
C598 C 0.96503 0.29307 0.13606 0.0
C599 C 0.93297 0.27978 0.13154 0.0
C600 C 0.92732 0.2473 0.12417 0.0
C601 C 0.9528 0.22817 0.12199 0.0
C602 C 0.98396 0.24177 0.12711 0.0
C603 C 0.99032 0.27347 0.13377 0.0
C604 C 0.02615 0.28173 0.13904 0.0
C605 C 0.04016 0.30531 0.11439 0.0
C606 C 0.0327 0.29437 0.17229 0.0
C607 C 0.03869 0.24965 0.13467 0.0
C608 C 0.01388 0.22699 0.12777 0.0
C609 C 0.01913 0.19544 0.12364 0.0
C610 C 0.05065 0.18675 0.12654 0.0
C611 C 0.0766 0.20953 0.1334 0.0
C612 C 0.07041 0.24142 0.13743 0.0
H613 H 0.94917 0.73137 0.38754 0.0
H614 H 0.93358 0.6914 0.29488 0.0
H615 H 0.98257 0.72244 0.27624 0.0
H616 H 0.9788 0.8094 0.36272 0.0
H617 H 0.00858 0.81494 0.39323 0.0
H618 H 0.97213 0.78964 0.39964 0.0
H619 H 0.00592 0.74358 0.41396 0.0
H620 H 0.04246 0.76879 0.40776 0.0
H621 H 0.03587 0.732 0.38693 0.0
H622 H 0.03273 0.75763 0.2673 0.0
H623 H 0.08251 0.79343 0.26904 0.0
H624 H 0.06644 0.8108 0.36747 0.0
C625 C 0.95608 0.72909 0.36334 0.0
C626 C 0.93743 0.70893 0.34269 0.0
C627 C 0.94739 0.70664 0.3112 0.0
C628 C 0.97518 0.72424 0.30033 0.0
C629 C 0.99284 0.74401 0.3212 0.0
C630 C 0.98385 0.74648 0.35207 0.0
C631 C 0.00747 0.76926 0.36964 0.0
C632 C 0.99074 0.79748 0.38203 0.0
C633 C 0.0239 0.75239 0.39614 0.0
C634 C 0.03112 0.77914 0.3438 0.0
C635 C 0.02208 0.76434 0.31605 0.0
C636 C 0.04009 0.76937 0.28888 0.0
C637 C 0.06835 0.78981 0.29013 0.0
C638 C 0.07844 0.80499 0.31838 0.0
C639 C 0.05933 0.79969 0.34549 0.0
H640 H 0.56292 0.72223 0.58392 0.0
H641 H 0.57503 0.70686 0.68322 0.0
H642 H 0.52947 0.73835 0.69421 0.0
H643 H 0.54239 0.80209 0.58947 0.0
H644 H 0.51285 0.79803 0.55865 0.0
H645 H 0.54644 0.7742 0.55838 0.0
H646 H 0.50705 0.7236 0.55564 0.0
H647 H 0.47335 0.74728 0.55573 0.0
H648 H 0.4759 0.71701 0.58474 0.0
H649 H 0.48341 0.7723 0.69463 0.0
H650 H 0.43794 0.80406 0.68436 0.0
H651 H 0.45484 0.79669 0.58472 0.0
C652 C 0.55596 0.7254 0.60798 0.0
C653 C 0.57264 0.71207 0.63271 0.0
C654 C 0.56266 0.71677 0.66386 0.0
C655 C 0.53684 0.7347 0.67036 0.0
C656 C 0.52112 0.7477 0.64549 0.0
C657 C 0.53011 0.74312 0.61491 0.0
C658 C 0.50889 0.75942 0.59248 0.0
C659 C 0.52884 0.78495 0.57364 0.0
C660 C 0.49019 0.73539 0.57088 0.0
C661 C 0.48656 0.77385 0.61526 0.0
C662 C 0.49419 0.76694 0.64571 0.0
C663 C 0.47715 0.7778 0.67088 0.0
C664 C 0.45139 0.79591 0.66478 0.0
C665 C 0.44273 0.80289 0.63372 0.0
C666 C 0.46078 0.79177 0.60871 0.0
H667 H 0.87863 0.05844 0.7397 0.0
H668 H 0.80787 0.03186 0.66776 0.0
H669 H 0.79607 0.98005 0.69292 0.0
H670 H 0.90849 0.98083 0.74769 0.0
H671 H 0.91385 0.9846 0.7893 0.0
H672 H 0.91761 0.01918 0.76498 0.0
H673 H 0.87416 0.04362 0.79811 0.0
H674 H 0.8701 0.00905 0.8224 0.0
H675 H 0.83519 0.02213 0.80319 0.0
H676 H 0.78955 0.93261 0.7274 0.0
H677 H 0.79108 0.891 0.76702 0.0
H678 H 0.86718 0.9474 0.81616 0.0
C679 C 0.86087 0.04163 0.72905 0.0
C680 C 0.84415 0.04927 0.70172 0.0
C681 C 0.82107 0.02657 0.68859 0.0
C682 C 0.81414 0.99708 0.70276 0.0
C683 C 0.83067 0.99053 0.72991 0.0
C684 C 0.8538 0.01199 0.74277 0.0
C685 C 0.86787 0.99908 0.77226 0.0
C686 C 0.9041 0.99572 0.76831 0.0
C687 C 0.86143 0.0197 0.80066 0.0
C688 C 0.84871 0.96716 0.77419 0.0
C689 C 0.82734 0.96281 0.74955 0.0
C690 C 0.80635 0.93564 0.74666 0.0
C691 C 0.80734 0.91217 0.76941 0.0
C692 C 0.8293 0.91585 0.79472 0.0
C693 C 0.85026 0.94379 0.79703 0.0
H694 H 0.14425 0.56619 0.78376 0.0
H695 H 0.05731 0.54341 0.83822 0.0
H696 H 0.04623 0.4942 0.80832 0.0
H697 H 0.11206 0.5353 0.70992 0.0
H698 H 0.14922 0.52003 0.69825 0.0
H699 H 0.15012 0.55402 0.72338 0.0
H700 H 0.18309 0.52573 0.76425 0.0
H701 H 0.18237 0.49171 0.73922 0.0
H702 H 0.16761 0.48761 0.77868 0.0
H703 H 0.04537 0.4466 0.77403 0.0
H704 H 0.05491 0.4036 0.73758 0.0
H705 H 0.14187 0.45715 0.70442 0.0
C706 C 0.12281 0.55092 0.78933 0.0
C707 C 0.10165 0.55876 0.8134 0.0
C708 C 0.0739 0.53803 0.81993 0.0
C709 C 0.06735 0.50999 0.80303 0.0
C710 C 0.08867 0.50296 0.77953 0.0
C711 C 0.11583 0.5228 0.77261 0.0
C712 C 0.1351 0.5093 0.74655 0.0
C713 C 0.13671 0.53095 0.71782 0.0
C714 C 0.16905 0.50323 0.75786 0.0
C715 C 0.11467 0.47867 0.74014 0.0
C716 C 0.08798 0.47555 0.75942 0.0
C717 C 0.06606 0.44886 0.75866 0.0
C718 C 0.07172 0.42453 0.73787 0.0
C719 C 0.09901 0.42703 0.71798 0.0
C720 C 0.12055 0.45468 0.719 0.0
H721 H 0.71781 0.87488 0.06305 0.0
H722 H 0.7819 0.83429 0.12863 0.0
H723 H 0.82061 0.82764 0.08627 0.0
H724 H 0.73111 0.82537 0.9993 0.0
H725 H 0.73066 0.85555 0.96991 0.0
H726 H 0.7085 0.85895 0.00564 0.0
H727 H 0.73905 0.91364 0.01601 0.0
H728 H 0.76126 0.91046 0.98022 0.0
H729 H 0.78252 0.91754 0.01654 0.0
H730 H 0.8496 0.82001 0.03646 0.0
H731 H 0.8695 0.81616 0.98241 0.0
H732 H 0.78938 0.86512 0.94898 0.0
C733 C 0.74018 0.86498 0.06854 0.0
C734 C 0.74677 0.85509 0.09921 0.0
C735 C 0.77631 0.8422 0.10541 0.0
C736 C 0.79849 0.83826 0.08148 0.0
C737 C 0.7911 0.84779 0.05148 0.0
C738 C 0.76293 0.86133 0.04494 0.0
C739 C 0.76083 0.86909 0.01048 0.0
C740 C 0.73101 0.85116 0.99546 0.0
C741 C 0.76093 0.90481 0.00553 0.0
C742 C 0.7918 0.85705 0.99864 0.0
C743 C 0.80878 0.84474 0.02274 0.0
C744 C 0.83688 0.83011 0.01746 0.0
C745 C 0.84793 0.82793 0.98673 0.0
C746 C 0.83121 0.84073 0.96173 0.0
C747 C 0.80298 0.85579 0.96782 0.0
H748 H 0.20588 0.70041 0.95167 0.0
H749 H 0.17918 0.60056 0.93773 0.0
H750 H 0.21037 0.58873 0.9848 0.0
H751 H 0.28599 0.69375 0.9754 0.0
H752 H 0.28661 0.72497 0.00386 0.0
H753 H 0.26062 0.72548 0.97035 0.0
H754 H 0.21116 0.72879 0.00656 0.0
H755 H 0.23704 0.72846 0.04021 0.0
H756 H 0.2029 0.69952 0.03652 0.0
H757 H 0.24714 0.58805 0.03226 0.0
H758 H 0.28507 0.59857 0.07626 0.0
H759 H 0.28704 0.69893 0.0583 0.0
C760 C 0.20624 0.67602 0.95861 0.0
C761 C 0.19003 0.6514 0.94098 0.0
C762 C 0.19132 0.61983 0.9509 0.0
C763 C 0.20899 0.61289 0.9776 0.0
C764 C 0.22509 0.63778 0.99415 0.0
C765 C 0.22367 0.66872 0.98508 0.0
C766 C 0.24375 0.6912 0.00622 0.0
C767 C 0.27084 0.70994 0.98786 0.0
C768 C 0.22243 0.71329 0.0234 0.0
C769 C 0.25711 0.66811 0.02843 0.0
C770 C 0.24603 0.6374 0.02123 0.0
C771 C 0.25578 0.61202 0.03819 0.0
C772 C 0.27738 0.61823 0.06311 0.0
C773 C 0.28904 0.64958 0.0708 0.0
C774 C 0.27855 0.67471 0.05317 0.0
H775 H 0.69818 0.12086 0.4475 0.0
H776 H 0.67127 0.21693 0.45056 0.0
H777 H 0.7019 0.2262 0.49922 0.0
H778 H 0.69516 0.10707 0.53167 0.0
H779 H 0.72982 0.08461 0.53184 0.0
H780 H 0.7046 0.0847 0.49768 0.0
H781 H 0.75447 0.10344 0.46422 0.0
H782 H 0.77981 0.10359 0.4983 0.0
H783 H 0.77897 0.13879 0.47516 0.0
H784 H 0.73589 0.22615 0.54625 0.0
H785 H 0.77133 0.21659 0.59036 0.0
H786 H 0.77805 0.12075 0.55793 0.0
C787 C 0.69847 0.14369 0.45865 0.0
C788 C 0.68224 0.16817 0.44521 0.0
C789 C 0.68352 0.19784 0.46031 0.0
C790 C 0.70085 0.20337 0.48801 0.0
C791 C 0.71694 0.17903 0.5004 0.0
C792 C 0.71596 0.14975 0.48639 0.0
C793 C 0.73624 0.12809 0.50451 0.0
C794 C 0.71519 0.09942 0.51718 0.0
C795 C 0.76402 0.11789 0.48434 0.0
C796 C 0.74875 0.1499 0.53073 0.0
C797 C 0.73714 0.17911 0.52779 0.0
C798 C 0.7451 0.20336 0.5489 0.0
C799 C 0.76532 0.19765 0.57392 0.0
C800 C 0.77754 0.16791 0.57771 0.0
C801 C 0.7692 0.14376 0.55565 0.0
H802 H 0.19535 0.30987 0.55686 0.0
H803 H 0.20296 0.40968 0.57898 0.0
H804 H 0.24096 0.41997 0.53503 0.0
H805 H 0.27753 0.30507 0.53632 0.0
H806 H 0.26872 0.27746 0.50491 0.0
H807 H 0.24157 0.27814 0.53756 0.0
H808 H 0.19431 0.28644 0.49999 0.0
H809 H 0.22127 0.2856 0.4672 0.0
H810 H 0.19808 0.31886 0.47287 0.0
H811 H 0.27988 0.41886 0.48962 0.0
H812 H 0.31424 0.4069 0.44491 0.0
H813 H 0.28011 0.30789 0.45233 0.0
C814 C 0.20484 0.33395 0.55242 0.0
C815 C 0.19618 0.35898 0.57142 0.0
C816 C 0.20915 0.39013 0.56471 0.0
C817 C 0.23082 0.39619 0.53984 0.0
C818 C 0.23911 0.37088 0.52181 0.0
C819 C 0.2263 0.34042 0.52766 0.0
C820 C 0.23904 0.31735 0.50487 0.0
C821 C 0.25783 0.29308 0.52194 0.0
C822 C 0.21154 0.30111 0.48506 0.0
C823 C 0.26125 0.33953 0.48538 0.0
C824 C 0.26105 0.3703 0.49554 0.0
C825 C 0.28008 0.39487 0.48139 0.0
C826 C 0.2996 0.38782 0.45605 0.0
C827 C 0.29987 0.35646 0.44503 0.0
C828 C 0.28042 0.33211 0.46007 0.0
H829 H 0.05787 0.717 0.92149 0.0
H830 H 0.05872 0.69548 0.8224 0.0
H831 H 0.0185 0.73339 0.81322 0.0
H832 H 0.97208 0.72528 0.92658 0.0
H833 H 0.97688 0.75711 0.9544 0.0
H834 H 0.0057 0.72807 0.95325 0.0
H835 H 0.05184 0.77248 0.94595 0.0
H836 H 0.0231 0.80163 0.94669 0.0
H837 H 0.05005 0.7997 0.91397 0.0
H838 H 0.97913 0.77407 0.8143 0.0
H839 H 0.93968 0.8121 0.8261 0.0
H840 H 0.96358 0.80748 0.92455 0.0
C841 C 0.04944 0.72009 0.89789 0.0
C842 C 0.06155 0.70321 0.87268 0.0
C843 C 0.04984 0.70801 0.84215 0.0
C844 C 0.02707 0.72963 0.83664 0.0
C845 C 0.01608 0.74624 0.86188 0.0
C846 C 0.02656 0.74154 0.89195 0.0
C847 C 0.01038 0.76218 0.91494 0.0
C848 C 0.99005 0.74195 0.93869 0.0
C849 C 0.03534 0.78537 0.93135 0.0
C850 C 0.98924 0.77921 0.89304 0.0
C851 C 0.99308 0.76972 0.86253 0.0
C852 C 0.97588 0.78168 0.83809 0.0
C853 C 0.95357 0.80337 0.84506 0.0
C854 C 0.94852 0.81291 0.87626 0.0
C855 C 0.96706 0.80096 0.90045 0.0
H856 H 0.03964 0.3139 0.63933 0.0
H857 H 0.10248 0.2392 0.65342 0.0
H858 H 0.05575 0.19966 0.6493 0.0
H859 H 0.97396 0.27925 0.68432 0.0
H860 H 0.94314 0.29196 0.65897 0.0
H861 H 0.98176 0.31453 0.66136 0.0
H862 H 0.98862 0.3099 0.60149 0.0
H863 H 0.94998 0.28733 0.59891 0.0
H864 H 0.98542 0.27149 0.5835 0.0
H865 H 0.00213 0.16818 0.64611 0.0
H866 H 0.94501 0.14696 0.64365 0.0
H867 H 0.91674 0.24176 0.63127 0.0
C868 C 0.04361 0.28922 0.64123 0.0
C869 C 0.0748 0.27971 0.64665 0.0
C870 C 0.07888 0.24715 0.64927 0.0
C871 C 0.05247 0.22444 0.64692 0.0
C872 C 0.02205 0.23458 0.64188 0.0
C873 C 0.01745 0.26616 0.63898 0.0
C874 C 0.98204 0.27071 0.63457 0.0
C875 C 0.96949 0.29027 0.66141 0.0
C876 C 0.97618 0.28574 0.60272 0.0
C877 C 0.96751 0.2368 0.63576 0.0
C878 C 0.99104 0.21634 0.63991 0.0
C879 C 0.98348 0.18394 0.64264 0.0
C880 C 0.95095 0.17211 0.64125 0.0
C881 C 0.92636 0.19263 0.63714 0.0
C882 C 0.93494 0.22539 0.63416 0.0
H883 H 0.50579 0.1607 0.37158 0.0
H884 H 0.59134 0.22686 0.36667 0.0
H885 H 0.55735 0.27113 0.37036 0.0
H886 H 0.45542 0.20552 0.32486 0.0
H887 H 0.4195 0.19523 0.34745 0.0
H888 H 0.45063 0.16859 0.34555 0.0
H889 H 0.45422 0.16854 0.40591 0.0
H890 H 0.42315 0.19528 0.40798 0.0
H891 H 0.46157 0.20542 0.42648 0.0
H892 H 0.51417 0.30844 0.37388 0.0
H893 H 0.46456 0.33606 0.37498 0.0
H894 H 0.40693 0.2459 0.37702 0.0
C895 C 0.5174 0.18448 0.3714 0.0
C896 C 0.5513 0.19021 0.36888 0.0
C897 C 0.56546 0.22176 0.36857 0.0
C898 C 0.54636 0.24713 0.37074 0.0
C899 C 0.51307 0.24068 0.37319 0.0
C900 C 0.49866 0.21016 0.37344 0.0
C901 C 0.46227 0.20978 0.37549 0.0
C902 C 0.44601 0.19384 0.34661 0.0
C903 C 0.44956 0.19381 0.40577 0.0
C904 C 0.4585 0.24483 0.37601 0.0
C905 C 0.48812 0.26223 0.37492 0.0
C906 C 0.49082 0.29507 0.37481 0.0
C907 C 0.46248 0.31055 0.3755 0.0
C908 C 0.43179 0.29322 0.3761 0.0
C909 C 0.42997 0.2599 0.37663 0.0
H910 H 0.61414 0.58592 0.73884 0.0
H911 H 0.66769 0.55783 0.65813 0.0
H912 H 0.67603 0.50742 0.68402 0.0
H913 H 0.66297 0.55486 0.79605 0.0
H914 H 0.63015 0.54182 0.82171 0.0
H915 H 0.62657 0.57478 0.79611 0.0
H916 H 0.57428 0.54692 0.77238 0.0
H917 H 0.57747 0.514 0.79815 0.0
H918 H 0.57475 0.50774 0.7566 0.0
H919 H 0.68183 0.46173 0.72044 0.0
H920 H 0.68114 0.42249 0.76284 0.0
H921 H 0.62288 0.48022 0.81926 0.0
C922 C 0.62724 0.56901 0.72637 0.0
C923 C 0.64022 0.57583 0.6964 0.0
C924 C 0.65733 0.55307 0.681 0.0
C925 C 0.66231 0.52442 0.69558 0.0
C926 C 0.64979 0.51879 0.72543 0.0
C927 C 0.63227 0.54029 0.74049 0.0
C928 C 0.62187 0.52882 0.7727 0.0
C929 C 0.63626 0.55142 0.79813 0.0
C930 C 0.5849 0.52408 0.77508 0.0
C931 C 0.63664 0.49767 0.77361 0.0
C932 C 0.65272 0.49233 0.74617 0.0
C933 C 0.66906 0.46554 0.74192 0.0
C934 C 0.66865 0.44345 0.76621 0.0
C935 C 0.65188 0.4482 0.79437 0.0
C936 C 0.63577 0.47577 0.798 0.0
H937 H 0.28728 0.05445 0.77245 0.0
H938 H 0.3878 0.09188 0.77207 0.0
H939 H 0.401 0.04823 0.73782 0.0
H940 H 0.30196 0.97322 0.77533 0.0
H941 H 0.26852 0.96034 0.75034 0.0
H942 H 0.26692 0.99511 0.77396 0.0
H943 H 0.2561 0.02751 0.72453 0.0
H944 H 0.25782 0.99284 0.70073 0.0
H945 H 0.28383 0.0279 0.69219 0.0
H946 H 0.40343 0.9997 0.70432 0.0
H947 H 0.3951 0.94923 0.6757 0.0
H948 H 0.29305 0.94372 0.69813 0.0
C949 C 0.31207 0.05358 0.7651 0.0
C950 C 0.33649 0.07669 0.77495 0.0
C951 C 0.36864 0.0745 0.76487 0.0
C952 C 0.37639 0.04983 0.74533 0.0
C953 C 0.35173 0.02748 0.73604 0.0
C954 C 0.32024 0.02909 0.74566 0.0
C955 C 0.29838 1.00164 0.73303 0.0
C956 C 0.28305 0.98138 0.75976 0.0
C957 C 0.27251 0.01317 0.71133 0.0
C958 C 0.32253 0.98423 0.71499 0.0
C959 C 0.35314 0.99957 0.71686 0.0
C960 C 0.37953 0.98754 0.7026 0.0
C961 C 0.37454 0.95888 0.68635 0.0
C962 C 0.34342 0.9425 0.68455 0.0
C963 C 0.31712 0.95568 0.69884 0.0
H964 H 0.45336 0.20356 0.9029 0.0
H965 H 0.41013 0.24008 0.81985 0.0
H966 H 0.45512 0.28156 0.81591 0.0
H967 H 0.48668 0.27973 0.93458 0.0
H968 H 0.52319 0.26449 0.94811 0.0
H969 H 0.48623 0.23904 0.94614 0.0
H970 H 0.51425 0.20002 0.91119 0.0
H971 H 0.55126 0.22524 0.91318 0.0
H972 H 0.53397 0.2141 0.87578 0.0
H973 H 0.50523 0.31792 0.81965 0.0
H974 H 0.55959 0.34434 0.82841 0.0
H975 H 0.57178 0.28353 0.908 0.0
C976 C 0.45323 0.2205 0.88411 0.0
C977 C 0.42818 0.21862 0.86174 0.0
C978 C 0.42909 0.24096 0.83721 0.0
C979 C 0.45444 0.26477 0.83487 0.0
C980 C 0.47882 0.2659 0.85716 0.0
C981 C 0.47862 0.24428 0.88119 0.0
C982 C 0.50893 0.24963 0.90081 0.0
C983 C 0.50076 0.25877 0.9344 0.0
C984 C 0.52824 0.22052 0.90018 0.0
C985 C 0.52644 0.27718 0.88361 0.0
C986 C 0.50834 0.2865 0.85885 0.0
C987 C 0.51961 0.31094 0.83905 0.0
C988 C 0.55054 0.32584 0.84427 0.0
C989 C 0.57003 0.31602 0.86887 0.0
C990 C 0.55748 0.29168 0.88906 0.0
H991 H 0.33717 0.55481 0.20445 0.0
H992 H 0.43273 0.595 0.23128 0.0
H993 H 0.43699 0.55136 0.26841 0.0
H994 H 0.31184 0.52957 0.28091 0.0
H995 H 0.28953 0.49385 0.2676 0.0
H996 H 0.29435 0.52772 0.2424 0.0
H997 H 0.31913 0.49422 0.19967 0.0
H998 H 0.31428 0.46021 0.2247 0.0
H999 H 0.35344 0.47305 0.20901 0.0
H1000 H 0.43079 0.50332 0.30288 0.0
H1001 H 0.41423 0.45477 0.33243 0.0
H1002 H 0.32233 0.44669 0.28387 0.0
C1003 C 0.35908 0.55435 0.21798 0.0
C1004 C 0.38466 0.57832 0.21486 0.0
C1005 C 0.41281 0.57694 0.23323 0.0
C1006 C 0.41548 0.55222 0.25439 0.0
C1007 C 0.38976 0.5291 0.25703 0.0
C1008 C 0.36208 0.52996 0.23936 0.0
C1009 C 0.3377 0.50251 0.24708 0.0
C1010 C 0.30652 0.51412 0.26029 0.0
C1011 C 0.33074 0.48124 0.21841 0.0
C1012 C 0.35597 0.48611 0.27187 0.0
C1013 C 0.386 0.50174 0.2772 0.0
C1014 C 0.40731 0.4909 0.29893 0.0
C1015 C 0.39769 0.4633 0.3156 0.0
C1016 C 0.36696 0.44695 0.31058 0.0
C1017 C 0.34591 0.45869 0.28842 0.0
H1018 H 0.68237 0.04999 0.28949 0.0
H1019 H 0.5839 0.04946 0.32293 0.0
H1020 H 0.56862 1.00183 0.29129 0.0
H1021 H 0.66265 0.02614 0.21111 0.0
H1022 H 0.69597 1.00219 0.20733 0.0
H1023 H 0.69918 0.03581 0.233 0.0
H1024 H 0.71305 1.0002 0.27914 0.0
H1025 H 0.71004 0.96649 0.25359 0.0
H1026 H 0.68611 0.96604 0.28866 0.0
H1027 H 0.56434 0.95404 0.2559 0.0
H1028 H 0.57126 0.9098 0.22002 0.0
H1029 H 0.67246 0.94245 0.20914 0.0
C1030 C 0.65759 0.03984 0.29035 0.0
C1031 C 0.63433 0.05345 0.30883 0.0
C1032 C 0.60215 0.03945 0.30904 0.0
C1033 C 0.59325 0.01241 0.2911 0.0
C1034 C 0.61678 0.99976 0.273 0.0
C1035 C 0.64829 0.01302 0.27252 0.0
C1036 C 0.66895 0.99505 0.25098 0.0
C1037 C 0.68247 0.01605 0.224 0.0
C1038 C 0.69614 0.98112 0.26919 0.0
C1039 C 0.64418 0.96947 0.23943 0.0
C1040 C 0.61424 0.97258 0.25242 0.0
C1041 C 0.58766 0.95144 0.24556 0.0
C1042 C 0.59186 0.92637 0.22512 0.0
C1043 C 0.62238 0.92264 0.21164 0.0
C1044 C 0.64877 0.9447 0.21885 0.0
H1045 H 0.55741 0.8174 0.1336 0.0
H1046 H 0.61512 0.74529 0.09821 0.0
H1047 H 0.56593 0.70897 0.09214 0.0
H1048 H 0.50519 0.76761 0.17864 0.0
H1049 H 0.46968 0.78754 0.17079 0.0
H1050 H 0.50889 0.809 0.16923 0.0
H1051 H 0.49786 0.82648 0.11263 0.0
H1052 H 0.45847 0.80518 0.11407 0.0
H1053 H 0.48625 0.79712 0.08345 0.0
H1054 H 0.51113 0.67867 0.09508 0.0
H1055 H 0.45468 0.65769 0.1049 0.0
H1056 H 0.43288 0.74997 0.1372 0.0
C1057 C 0.55966 0.79421 0.12395 0.0
C1058 C 0.59016 0.78426 0.1163 0.0
C1059 C 0.59204 0.75353 0.10414 0.0
C1060 C 0.56421 0.73269 0.10059 0.0
C1061 C 0.53462 0.743 0.10904 0.0
C1062 C 0.53213 0.77314 0.12017 0.0
C1063 C 0.49773 0.77786 0.12914 0.0
C1064 C 0.49525 0.78597 0.16401 0.0
C1065 C 0.48428 0.80316 0.10859 0.0
C1066 C 0.48141 0.74544 0.12202 0.0
C1067 C 0.50303 0.72568 0.11031 0.0
C1068 C 0.49387 0.69406 0.10378 0.0
C1069 C 0.46179 0.68233 0.10951 0.0
C1070 C 0.4393 0.70221 0.12158 0.0
C1071 C 0.44933 0.73423 0.12753 0.0
loop_
_geom_bond_atom_site_label_1
_geom_bond_atom_site_label_2
_geom_bond_distance
_geom_bond_site_symmetry_2
_ccdc_geom_bond_type
C0 O1 1.160 . S
C0 O7 1.185 . S
O1 C0 1.160 . S
O2 Zn3 1.899 . S
O2 C10 1.284 . S
Zn3 O2 1.899 . S
Zn3 O4 2.032 . S
Zn3 O7 2.086 . S
Zn3 O12 1.977 . S
O4 Zn3 2.032 . S
O4 C8 1.278 . S
C5 O6 1.203 . S
C5 O12 1.267 . S
O6 C5 1.203 . S
O7 C0 1.185 . S
O7 Zn3 2.086 . S
C8 O4 1.278 . S
C8 O9 1.211 . S
O9 C8 1.211 . S
C10 O2 1.284 . S
C10 O11 1.273 . S
O11 C10 1.273 . S
O12 Zn3 1.977 . S
O12 C5 1.267 . S
C13 O14 1.160 . S
C13 O20 1.185 . S
O14 C13 1.160 . S
O15 Zn16 1.899 . S
O15 C23 1.284 . S
Zn16 O15 1.899 . S
Zn16 O17 2.032 . S
Zn16 O20 2.086 . S
Zn16 O25 1.977 . S
O17 Zn16 2.032 . S
O17 C21 1.278 . S
C18 O19 1.203 . S
C18 O25 1.267 . S
O19 C18 1.203 . S
O20 C13 1.185 . S
O20 Zn16 2.086 . S
C21 O17 1.278 . S
C21 O22 1.211 . S
O22 C21 1.211 . S
C23 O15 1.284 . S
C23 O24 1.273 . S
O24 C23 1.273 . S
O25 Zn16 1.977 . S
O25 C18 1.267 . S
C26 O27 1.160 . S
C26 O33 1.185 . S
O27 C26 1.160 . S
O28 Zn29 1.899 . S
O28 C36 1.284 . S
Zn29 O28 1.899 . S
Zn29 O30 2.032 . S
Zn29 O33 2.086 . S
Zn29 O38 1.977 . S
O30 Zn29 2.032 . S
O30 C34 1.278 . S
C31 O32 1.203 . S
C31 O38 1.267 . S
O32 C31 1.203 . S
O33 C26 1.185 . S
O33 Zn29 2.086 . S
C34 O30 1.278 . S
C34 O35 1.211 . S
O35 C34 1.211 . S
C36 O28 1.284 . S
C36 O37 1.273 . S
O37 C36 1.273 . S
O38 Zn29 1.977 . S
O38 C31 1.267 . S
C39 O40 1.160 . S
C39 O46 1.185 . S
O40 C39 1.160 . S
O41 Zn42 1.899 . S
O41 C49 1.284 . S
Zn42 O41 1.899 . S
Zn42 O43 2.032 . S
Zn42 O46 2.086 . S
Zn42 O51 1.977 . S
O43 Zn42 2.032 . S
O43 C47 1.278 . S
C44 O45 1.203 . S
C44 O51 1.267 . S
O45 C44 1.203 . S
O46 C39 1.185 . S
O46 Zn42 2.086 . S
C47 O43 1.278 . S
C47 O48 1.211 . S
O48 C47 1.211 . S
C49 O41 1.284 . S
C49 O50 1.273 . S
O50 C49 1.273 . S
O51 Zn42 1.977 . S
O51 C44 1.267 . S
C52 O53 1.160 . S
C52 O59 1.185 . S
O53 C52 1.160 . S
O54 Zn55 1.899 . S
O54 C62 1.284 . S
Zn55 O54 1.899 . S
Zn55 O56 2.032 . S
Zn55 O59 2.086 . S
Zn55 O64 1.977 . S
O56 Zn55 2.032 . S
O56 C60 1.278 . S
C57 O58 1.203 . S
C57 O64 1.267 . S
O58 C57 1.203 . S
O59 C52 1.185 . S
O59 Zn55 2.086 . S
C60 O56 1.278 . S
C60 O61 1.211 . S
O61 C60 1.211 . S
C62 O54 1.284 . S
C62 O63 1.273 . S
O63 C62 1.273 . S
O64 Zn55 1.977 . S
O64 C57 1.267 . S
C65 O66 1.160 . S
C65 O72 1.185 . S
O66 C65 1.160 . S
O67 Zn68 1.899 . S
O67 C75 1.284 . S
Zn68 O67 1.899 . S
Zn68 O69 2.032 . S
Zn68 O72 2.086 . S
Zn68 O77 1.977 . S
O69 Zn68 2.032 . S
O69 C73 1.278 . S
C70 O71 1.203 . S
C70 O77 1.267 . S
O71 C70 1.203 . S
O72 C65 1.185 . S
O72 Zn68 2.086 . S
C73 O69 1.278 . S
C73 O74 1.211 . S
O74 C73 1.211 . S
C75 O67 1.284 . S
C75 O76 1.273 . S
O76 C75 1.273 . S
O77 Zn68 1.977 . S
O77 C70 1.267 . S
C78 O79 1.160 . S
C78 O85 1.185 . S
O79 C78 1.160 . S
O80 Zn81 1.899 . S
O80 C88 1.284 . S
Zn81 O80 1.899 . S
Zn81 O82 2.032 . S
Zn81 O85 2.086 . S
Zn81 O90 1.977 . S
O82 Zn81 2.032 . S
O82 C86 1.278 . S
C83 O84 1.203 . S
C83 O90 1.267 . S
O84 C83 1.203 . S
O85 C78 1.185 . S
O85 Zn81 2.086 . S
C86 O82 1.278 . S
C86 O87 1.211 . S
O87 C86 1.211 . S
C88 O80 1.284 . S
C88 O89 1.273 . S
O89 C88 1.273 . S
O90 Zn81 1.977 . S
O90 C83 1.267 . S
C91 O92 1.160 . S
C91 O98 1.185 . S
O92 C91 1.160 . S
O93 Zn94 1.899 . S
O93 C101 1.284 . S
Zn94 O93 1.899 . S
Zn94 O95 2.032 . S
Zn94 O98 2.086 . S
Zn94 O103 1.977 . S
O95 Zn94 2.032 . S
O95 C99 1.278 . S
C96 O97 1.203 . S
C96 O103 1.267 . S
O97 C96 1.203 . S
O98 C91 1.185 . S
O98 Zn94 2.086 . S
C99 O95 1.278 . S
C99 O100 1.211 . S
O100 C99 1.211 . S
C101 O93 1.284 . S
C101 O102 1.273 . S
O102 C101 1.273 . S
O103 Zn94 1.977 . S
O103 C96 1.267 . S
C104 O105 1.160 . S
C104 O111 1.185 . S
O105 C104 1.160 . S
O106 Zn107 1.899 . S
O106 C114 1.284 . S
Zn107 O106 1.899 . S
Zn107 O108 2.032 . S
Zn107 O111 2.086 . S
Zn107 O116 1.977 . S
O108 Zn107 2.032 . S
O108 C112 1.278 . S
C109 O110 1.203 . S
C109 O116 1.267 . S
O110 C109 1.203 . S
O111 C104 1.185 . S
O111 Zn107 2.086 . S
C112 O108 1.278 . S
C112 O113 1.211 . S
O113 C112 1.211 . S
C114 O106 1.284 . S
C114 O115 1.273 . S
O115 C114 1.273 . S
O116 Zn107 1.977 . S
O116 C109 1.267 . S
C117 O118 1.160 . S
C117 O124 1.185 . S
O118 C117 1.160 . S
O119 Zn120 1.899 . S
O119 C127 1.284 . S
Zn120 O119 1.899 . S
Zn120 O121 2.032 . S
Zn120 O124 2.086 . S
Zn120 O129 1.977 . S
O121 Zn120 2.032 . S
O121 C125 1.278 . S
C122 O123 1.203 . S
C122 O129 1.267 . S
O123 C122 1.203 . S
O124 C117 1.185 . S
O124 Zn120 2.086 . S
C125 O121 1.278 . S
C125 O126 1.211 . S
O126 C125 1.211 . S
C127 O119 1.284 . S
C127 O128 1.273 . S
O128 C127 1.273 . S
O129 Zn120 1.977 . S
O129 C122 1.267 . S
C130 O131 1.160 . S
C130 O137 1.185 . S
O131 C130 1.160 . S
O132 Zn133 1.899 . S
O132 C140 1.284 . S
Zn133 O132 1.899 . S
Zn133 O134 2.032 . S
Zn133 O137 2.086 . S
Zn133 O142 1.977 . S
O134 Zn133 2.032 . S
O134 C138 1.278 . S
C135 O136 1.203 . S
C135 O142 1.267 . S
O136 C135 1.203 . S
O137 C130 1.185 . S
O137 Zn133 2.086 . S
C138 O134 1.278 . S
C138 O139 1.211 . S
O139 C138 1.211 . S
C140 O132 1.284 . S
C140 O141 1.273 . S
O141 C140 1.273 . S
O142 Zn133 1.977 . S
O142 C135 1.267 . S
C143 O144 1.160 . S
C143 O150 1.185 . S
O144 C143 1.160 . S
O145 Zn146 1.899 . S
O145 C153 1.284 . S
Zn146 O145 1.899 . S
Zn146 O147 2.032 . S
Zn146 O150 2.086 . S
Zn146 O155 1.977 . S
O147 Zn146 2.032 . S
O147 C151 1.278 . S
C148 O149 1.203 . S
C148 O155 1.267 . S
O149 C148 1.203 . S
O150 C143 1.185 . S
O150 Zn146 2.086 . S
C151 O147 1.278 . S
C151 O152 1.211 . S
O152 C151 1.211 . S
C153 O145 1.284 . S
C153 O154 1.273 . S
O154 C153 1.273 . S
O155 Zn146 1.977 . S
O155 C148 1.267 . S
C156 O157 1.160 . S
C156 O163 1.185 . S
O157 C156 1.160 . S
O158 Zn159 1.899 . S
O158 C166 1.284 . S
Zn159 O158 1.899 . S
Zn159 O160 2.032 . S
Zn159 O163 2.086 . S
Zn159 O168 1.977 . S
O160 Zn159 2.032 . S
O160 C164 1.278 . S
C161 O162 1.203 . S
C161 O168 1.267 . S
O162 C161 1.203 . S
O163 C156 1.185 . S
O163 Zn159 2.086 . S
C164 O160 1.278 . S
C164 O165 1.211 . S
O165 C164 1.211 . S
C166 O158 1.284 . S
C166 O167 1.273 . S
O167 C166 1.273 . S
O168 Zn159 1.977 . S
O168 C161 1.267 . S
C169 O170 1.160 . S
C169 O176 1.185 . S
O170 C169 1.160 . S
O171 Zn172 1.899 . S
O171 C179 1.284 . S
Zn172 O171 1.899 . S
Zn172 O173 2.032 . S
Zn172 O176 2.086 . S
Zn172 O181 1.977 . S
O173 Zn172 2.032 . S
O173 C177 1.278 . S
C174 O175 1.203 . S
C174 O181 1.267 . S
O175 C174 1.203 . S
O176 C169 1.185 . S
O176 Zn172 2.086 . S
C177 O173 1.278 . S
C177 O178 1.211 . S
O178 C177 1.211 . S
C179 O171 1.284 . S
C179 O180 1.273 . S
O180 C179 1.273 . S
O181 Zn172 1.977 . S
O181 C174 1.267 . S
C182 O183 1.160 . S
C182 O189 1.185 . S
O183 C182 1.160 . S
O184 Zn185 1.899 . S
O184 C192 1.284 . S
Zn185 O184 1.899 . S
Zn185 O186 2.032 . S
Zn185 O189 2.086 . S
Zn185 O194 1.977 . S
O186 Zn185 2.032 . S
O186 C190 1.278 . S
C187 O188 1.203 . S
C187 O194 1.267 . S
O188 C187 1.203 . S
O189 C182 1.185 . S
O189 Zn185 2.086 . S
C190 O186 1.278 . S
C190 O191 1.211 . S
O191 C190 1.211 . S
C192 O184 1.284 . S
C192 O193 1.273 . S
O193 C192 1.273 . S
O194 Zn185 1.977 . S
O194 C187 1.267 . S
C195 O196 1.160 . S
C195 O202 1.185 . S
O196 C195 1.160 . S
O197 Zn198 1.899 . S
O197 C205 1.284 . S
Zn198 O197 1.899 . S
Zn198 O199 2.032 . S
Zn198 O202 2.086 . S
Zn198 O207 1.977 . S
O199 Zn198 2.032 . S
O199 C203 1.278 . S
C200 O201 1.203 . S
C200 O207 1.267 . S
O201 C200 1.203 . S
O202 C195 1.185 . S
O202 Zn198 2.086 . S
C203 O199 1.278 . S
C203 O204 1.211 . S
O204 C203 1.211 . S
C205 O197 1.284 . S
C205 O206 1.273 . S
O206 C205 1.273 . S
O207 Zn198 1.977 . S
O207 C200 1.267 . S
H208 C220 0.930 . S
H209 C222 0.930 . S
H210 C223 0.930 . S
H211 C227 0.959 . S
H212 C227 0.959 . S
H213 C227 0.961 . S
H214 C228 0.960 . S
H215 C228 0.961 . S
H216 C228 0.959 . S
H217 C231 0.929 . S
H218 C232 0.931 . S
H219 C234 0.930 . S
C220 H208 0.930 . S
C220 C221 1.399 . S
C220 C225 1.399 . S
C221 C220 1.399 . S
C221 C222 1.376 . S
C222 H209 0.930 . S
C222 C221 1.376 . S
C222 C223 1.388 . S
C223 H210 0.930 . S
C223 C222 1.388 . S
C223 C224 1.390 . S
C224 C223 1.390 . S
C224 C225 1.394 . S
C224 C230 1.465 . S
C225 C220 1.399 . S
C225 C224 1.394 . S
C225 C226 1.516 . S
C226 C225 1.516 . S
C226 C227 1.502 . S
C226 C228 1.561 . S
C226 C229 1.526 . S
C227 H211 0.959 . S
C227 H212 0.959 . S
C227 H213 0.961 . S
C227 C226 1.502 . S
C228 H214 0.960 . S
C228 H215 0.961 . S
C228 H216 0.959 . S
C228 C226 1.561 . S
C229 C226 1.526 . S
C229 C230 1.396 . S
C229 C234 1.390 . S
C230 C224 1.465 . S
C230 C229 1.396 . S
C230 C231 1.399 . S
C231 H217 0.929 . S
C231 C230 1.399 . S
C231 C232 1.385 . S
C232 H218 0.931 . S
C232 C231 1.385 . S
C232 C233 1.389 . S
C233 C232 1.389 . S
C233 C234 1.387 . S
C234 H219 0.930 . S
C234 C229 1.390 . S
C234 C233 1.387 . S
H235 C247 0.930 . S
H236 C249 0.930 . S
H237 C250 0.930 . S
H238 C254 0.959 . S
H239 C254 0.959 . S
H240 C254 0.961 . S
H241 C255 0.960 . S
H242 C255 0.961 . S
H243 C255 0.959 . S
H244 C258 0.929 . S
H245 C259 0.931 . S
H246 C261 0.930 . S
C247 H235 0.930 . S
C247 C248 1.399 . S
C247 C252 1.399 . S
C248 C247 1.399 . S
C248 C249 1.376 . S
C249 H236 0.930 . S
C249 C248 1.376 . S
C249 C250 1.388 . S
C250 H237 0.930 . S
C250 C249 1.388 . S
C250 C251 1.390 . S
C251 C250 1.390 . S
C251 C252 1.394 . S
C251 C257 1.465 . S
C252 C247 1.399 . S
C252 C251 1.394 . S
C252 C253 1.516 . S
C253 C252 1.516 . S
C253 C254 1.502 . S
C253 C255 1.561 . S
C253 C256 1.526 . S
C254 H238 0.959 . S
C254 H239 0.959 . S
C254 H240 0.961 . S
C254 C253 1.502 . S
C255 H241 0.960 . S
C255 H242 0.961 . S
C255 H243 0.959 . S
C255 C253 1.561 . S
C256 C253 1.526 . S
C256 C257 1.396 . S
C256 C261 1.390 . S
C257 C251 1.465 . S
C257 C256 1.396 . S
C257 C258 1.399 . S
C258 H244 0.929 . S
C258 C257 1.399 . S
C258 C259 1.385 . S
C259 H245 0.931 . S
C259 C258 1.385 . S
C259 C260 1.389 . S
C260 C259 1.389 . S
C260 C261 1.387 . S
C261 H246 0.930 . S
C261 C256 1.390 . S
C261 C260 1.387 . S
H262 C274 0.930 . S
H263 C276 0.930 . S
H264 C277 0.930 . S
H265 C281 0.959 . S
H266 C281 0.959 . S
H267 C281 0.961 . S
H268 C282 0.960 . S
H269 C282 0.961 . S
H270 C282 0.959 . S
H271 C285 0.929 . S
H272 C286 0.931 . S
H273 C288 0.930 . S
C274 H262 0.930 . S
C274 C275 1.399 . S
C274 C279 1.399 . S
C275 C274 1.399 . S
C275 C276 1.376 . S
C276 H263 0.930 . S
C276 C275 1.376 . S
C276 C277 1.388 . S
C277 H264 0.930 . S
C277 C276 1.388 . S
C277 C278 1.390 . S
C278 C277 1.390 . S
C278 C279 1.394 . S
C278 C284 1.465 . S
C279 C274 1.399 . S
C279 C278 1.394 . S
C279 C280 1.516 . S
C280 C279 1.516 . S
C280 C281 1.502 . S
C280 C282 1.561 . S
C280 C283 1.526 . S
C281 H265 0.959 . S
C281 H266 0.959 . S
C281 H267 0.961 . S
C281 C280 1.502 . S
C282 H268 0.960 . S
C282 H269 0.961 . S
C282 H270 0.959 . S
C282 C280 1.561 . S
C283 C280 1.526 . S
C283 C284 1.396 . S
C283 C288 1.390 . S
C284 C278 1.465 . S
C284 C283 1.396 . S
C284 C285 1.399 . S
C285 H271 0.929 . S
C285 C284 1.399 . S
C285 C286 1.385 . S
C286 H272 0.931 . S
C286 C285 1.385 . S
C286 C287 1.389 . S
C287 C286 1.389 . S
C287 C288 1.387 . S
C288 H273 0.930 . S
C288 C283 1.390 . S
C288 C287 1.387 . S
H289 C301 0.930 . S
H290 C303 0.930 . S
H291 C304 0.930 . S
H292 C308 0.959 . S
H293 C308 0.959 . S
H294 C308 0.961 . S
H295 C309 0.960 . S
H296 C309 0.961 . S
H297 C309 0.959 . S
H298 C312 0.929 . S
H299 C313 0.931 . S
H300 C315 0.930 . S
C301 H289 0.930 . S
C301 C302 1.399 . S
C301 C306 1.399 . S
C302 C301 1.399 . S
C302 C303 1.376 . S
C303 H290 0.930 . S
C303 C302 1.376 . S
C303 C304 1.388 . S
C304 H291 0.930 . S
C304 C303 1.388 . S
C304 C305 1.390 . S
C305 C304 1.390 . S
C305 C306 1.394 . S
C305 C311 1.465 . S
C306 C301 1.399 . S
C306 C305 1.394 . S
C306 C307 1.516 . S
C307 C306 1.516 . S
C307 C308 1.502 . S
C307 C309 1.561 . S
C307 C310 1.526 . S
C308 H292 0.959 . S
C308 H293 0.959 . S
C308 H294 0.961 . S
C308 C307 1.502 . S
C309 H295 0.960 . S
C309 H296 0.961 . S
C309 H297 0.959 . S
C309 C307 1.561 . S
C310 C307 1.526 . S
C310 C311 1.396 . S
C310 C315 1.390 . S
C311 C305 1.465 . S
C311 C310 1.396 . S
C311 C312 1.399 . S
C312 H298 0.929 . S
C312 C311 1.399 . S
C312 C313 1.385 . S
C313 H299 0.931 . S
C313 C312 1.385 . S
C313 C314 1.389 . S
C314 C313 1.389 . S
C314 C315 1.387 . S
C315 H300 0.930 . S
C315 C310 1.390 . S
C315 C314 1.387 . S
H316 C328 0.930 . S
H317 C330 0.930 . S
H318 C331 0.930 . S
H319 C335 0.959 . S
H320 C335 0.959 . S
H321 C335 0.961 . S
H322 C336 0.960 . S
H323 C336 0.961 . S
H324 C336 0.959 . S
H325 C339 0.929 . S
H326 C340 0.931 . S
H327 C342 0.930 . S
C328 H316 0.930 . S
C328 C329 1.399 . S
C328 C333 1.399 . S
C329 C328 1.399 . S
C329 C330 1.376 . S
C330 H317 0.930 . S
C330 C329 1.376 . S
C330 C331 1.388 . S
C331 H318 0.930 . S
C331 C330 1.388 . S
C331 C332 1.390 . S
C332 C331 1.390 . S
C332 C333 1.394 . S
C332 C338 1.465 . S
C333 C328 1.399 . S
C333 C332 1.394 . S
C333 C334 1.516 . S
C334 C333 1.516 . S
C334 C335 1.502 . S
C334 C336 1.561 . S
C334 C337 1.526 . S
C335 H319 0.959 . S
C335 H320 0.959 . S
C335 H321 0.961 . S
C335 C334 1.502 . S
C336 H322 0.960 . S
C336 H323 0.961 . S
C336 H324 0.959 . S
C336 C334 1.561 . S
C337 C334 1.526 . S
C337 C338 1.396 . S
C337 C342 1.390 . S
C338 C332 1.465 . S
C338 C337 1.396 . S
C338 C339 1.399 . S
C339 H325 0.929 . S
C339 C338 1.399 . S
C339 C340 1.385 . S
C340 H326 0.931 . S
C340 C339 1.385 . S
C340 C341 1.389 . S
C341 C340 1.389 . S
C341 C342 1.387 . S
C342 H327 0.930 . S
C342 C337 1.390 . S
C342 C341 1.387 . S
H343 C355 0.930 . S
H344 C357 0.930 . S
H345 C358 0.930 . S
H346 C362 0.959 . S
H347 C362 0.959 . S
H348 C362 0.961 . S
H349 C363 0.960 . S
H350 C363 0.961 . S
H351 C363 0.959 . S
H352 C366 0.929 . S
H353 C367 0.931 . S
H354 C369 0.930 . S
C355 H343 0.930 . S
C355 C356 1.399 . S
C355 C360 1.399 . S
C356 C355 1.399 . S
C356 C357 1.376 . S
C357 H344 0.930 . S
C357 C356 1.376 . S
C357 C358 1.388 . S
C358 H345 0.930 . S
C358 C357 1.388 . S
C358 C359 1.390 . S
C359 C358 1.390 . S
C359 C360 1.394 . S
C359 C365 1.465 . S
C360 C355 1.399 . S
C360 C359 1.394 . S
C360 C361 1.516 . S
C361 C360 1.516 . S
C361 C362 1.502 . S
C361 C363 1.561 . S
C361 C364 1.526 . S
C362 H346 0.959 . S
C362 H347 0.959 . S
C362 H348 0.961 . S
C362 C361 1.502 . S
C363 H349 0.960 . S
C363 H350 0.961 . S
C363 H351 0.959 . S
C363 C361 1.561 . S
C364 C361 1.526 . S
C364 C365 1.396 . S
C364 C369 1.390 . S
C365 C359 1.465 . S
C365 C364 1.396 . S
C365 C366 1.399 . S
C366 H352 0.929 . S
C366 C365 1.399 . S
C366 C367 1.385 . S
C367 H353 0.931 . S
C367 C366 1.385 . S
C367 C368 1.389 . S
C368 C367 1.389 . S
C368 C369 1.387 . S
C369 H354 0.930 . S
C369 C364 1.390 . S
C369 C368 1.387 . S
H370 C382 0.930 . S
H371 C384 0.930 . S
H372 C385 0.930 . S
H373 C389 0.959 . S
H374 C389 0.959 . S
H375 C389 0.961 . S
H376 C390 0.960 . S
H377 C390 0.961 . S
H378 C390 0.959 . S
H379 C393 0.929 . S
H380 C394 0.931 . S
H381 C396 0.930 . S
C382 H370 0.930 . S
C382 C383 1.399 . S
C382 C387 1.399 . S
C383 C382 1.399 . S
C383 C384 1.376 . S
C384 H371 0.930 . S
C384 C383 1.376 . S
C384 C385 1.388 . S
C385 H372 0.930 . S
C385 C384 1.388 . S
C385 C386 1.390 . S
C386 C385 1.390 . S
C386 C387 1.394 . S
C386 C392 1.465 . S
C387 C382 1.399 . S
C387 C386 1.394 . S
C387 C388 1.516 . S
C388 C387 1.516 . S
C388 C389 1.502 . S
C388 C390 1.561 . S
C388 C391 1.526 . S
C389 H373 0.959 . S
C389 H374 0.959 . S
C389 H375 0.961 . S
C389 C388 1.502 . S
C390 H376 0.960 . S
C390 H377 0.961 . S
C390 H378 0.959 . S
C390 C388 1.561 . S
C391 C388 1.526 . S
C391 C392 1.396 . S
C391 C396 1.390 . S
C392 C386 1.465 . S
C392 C391 1.396 . S
C392 C393 1.399 . S
C393 H379 0.929 . S
C393 C392 1.399 . S
C393 C394 1.385 . S
C394 H380 0.931 . S
C394 C393 1.385 . S
C394 C395 1.389 . S
C395 C394 1.389 . S
C395 C396 1.387 . S
C396 H381 0.930 . S
C396 C391 1.390 . S
C396 C395 1.387 . S
H397 C409 0.930 . S
H398 C411 0.930 . S
H399 C412 0.930 . S
H400 C416 0.959 . S
H401 C416 0.959 . S
H402 C416 0.961 . S
H403 C417 0.960 . S
H404 C417 0.961 . S
H405 C417 0.959 . S
H406 C420 0.929 . S
H407 C421 0.931 . S
H408 C423 0.930 . S
C409 H397 0.930 . S
C409 C410 1.399 . S
C409 C414 1.399 . S
C410 C409 1.399 . S
C410 C411 1.376 . S
C411 H398 0.930 . S
C411 C410 1.376 . S
C411 C412 1.388 . S
C412 H399 0.930 . S
C412 C411 1.388 . S
C412 C413 1.390 . S
C413 C412 1.390 . S
C413 C414 1.394 . S
C413 C419 1.465 . S
C414 C409 1.399 . S
C414 C413 1.394 . S
C414 C415 1.516 . S
C415 C414 1.516 . S
C415 C416 1.502 . S
C415 C417 1.561 . S
C415 C418 1.526 . S
C416 H400 0.959 . S
C416 H401 0.959 . S
C416 H402 0.961 . S
C416 C415 1.502 . S
C417 H403 0.960 . S
C417 H404 0.961 . S
C417 H405 0.959 . S
C417 C415 1.561 . S
C418 C415 1.526 . S
C418 C419 1.396 . S
C418 C423 1.390 . S
C419 C413 1.465 . S
C419 C418 1.396 . S
C419 C420 1.399 . S
C420 H406 0.929 . S
C420 C419 1.399 . S
C420 C421 1.385 . S
C421 H407 0.931 . S
C421 C420 1.385 . S
C421 C422 1.389 . S
C422 C421 1.389 . S
C422 C423 1.387 . S
C423 H408 0.930 . S
C423 C418 1.390 . S
C423 C422 1.387 . S
H424 C436 0.930 . S
H425 C438 0.930 . S
H426 C439 0.930 . S
H427 C443 0.959 . S
H428 C443 0.959 . S
H429 C443 0.961 . S
H430 C444 0.960 1_565 S
H431 C444 0.961 . S
H432 C444 0.959 . S
H433 C447 0.929 . S
H434 C448 0.931 . S
H435 C450 0.930 . S
C436 H424 0.930 . S
C436 C437 1.399 . S
C436 C441 1.399 . S
C437 C436 1.399 . S
C437 C438 1.376 . S
C438 H425 0.930 . S
C438 C437 1.376 . S
C438 C439 1.388 . S
C439 H426 0.930 . S
C439 C438 1.388 . S
C439 C440 1.390 . S
C440 C439 1.390 . S
C440 C441 1.394 . S
C440 C446 1.465 1_565 S
C441 C436 1.399 . S
C441 C440 1.394 . S
C441 C442 1.516 . S
C442 C441 1.516 . S
C442 C443 1.502 . S
C442 C444 1.561 1_565 S
C442 C445 1.526 1_565 S
C443 H427 0.959 . S
C443 H428 0.959 . S
C443 H429 0.961 . S
C443 C442 1.502 . S
C444 H430 0.960 1_545 S
C444 H431 0.961 . S
C444 H432 0.959 . S
C444 C442 1.561 1_545 S
C445 C442 1.526 1_545 S
C445 C446 1.396 . S
C445 C450 1.390 . S
C446 C440 1.465 1_545 S
C446 C445 1.396 . S
C446 C447 1.399 . S
C447 H433 0.929 . S
C447 C446 1.399 . S
C447 C448 1.385 . S
C448 H434 0.931 . S
C448 C447 1.385 . S
C448 C449 1.389 . S
C449 C448 1.389 . S
C449 C450 1.387 . S
C450 H435 0.930 . S
C450 C445 1.390 . S
C450 C449 1.387 . S
H451 C463 0.930 . S
H452 C465 0.930 . S
H453 C466 0.930 . S
H454 C470 0.959 . S
H455 C470 0.959 . S
H456 C470 0.961 . S
H457 C471 0.960 . S
H458 C471 0.961 . S
H459 C471 0.959 . S
H460 C474 0.929 . S
H461 C475 0.931 . S
H462 C477 0.930 . S
C463 H451 0.930 . S
C463 C464 1.399 . S
C463 C468 1.399 . S
C464 C463 1.399 . S
C464 C465 1.376 . S
C465 H452 0.930 . S
C465 C464 1.376 . S
C465 C466 1.388 . S
C466 H453 0.930 . S
C466 C465 1.388 . S
C466 C467 1.390 . S
C467 C466 1.390 . S
C467 C468 1.394 . S
C467 C473 1.465 . S
C468 C463 1.399 . S
C468 C467 1.394 . S
C468 C469 1.516 . S
C469 C468 1.516 . S
C469 C470 1.502 . S
C469 C471 1.561 . S
C469 C472 1.526 . S
C470 H454 0.959 . S
C470 H455 0.959 . S
C470 H456 0.961 . S
C470 C469 1.502 . S
C471 H457 0.960 . S
C471 H458 0.961 . S
C471 H459 0.959 . S
C471 C469 1.561 . S
C472 C469 1.526 . S
C472 C473 1.396 . S
C472 C477 1.390 . S
C473 C467 1.465 . S
C473 C472 1.396 . S
C473 C474 1.399 . S
C474 H460 0.929 . S
C474 C473 1.399 . S
C474 C475 1.385 . S
C475 H461 0.931 . S
C475 C474 1.385 . S
C475 C476 1.389 . S
C476 C475 1.389 . S
C476 C477 1.387 . S
C477 H462 0.930 . S
C477 C472 1.390 . S
C477 C476 1.387 . S
H478 C490 0.930 . S
H479 C492 0.930 . S
H480 C493 0.930 . S
H481 C497 0.959 . S
H482 C497 0.959 . S
H483 C497 0.961 . S
H484 C498 0.960 . S
H485 C498 0.961 . S
H486 C498 0.959 . S
H487 C501 0.929 1_556 S
H488 C502 0.931 . S
H489 C504 0.930 . S
C490 H478 0.930 . S
C490 C491 1.399 . S
C490 C495 1.399 . S
C491 C490 1.399 . S
C491 C492 1.376 . S
C492 H479 0.930 . S
C492 C491 1.376 . S
C492 C493 1.388 . S
C493 H480 0.930 . S
C493 C492 1.388 . S
C493 C494 1.390 . S
C494 C493 1.390 . S
C494 C495 1.394 . S
C494 C500 1.465 1_556 S
C495 C490 1.399 . S
C495 C494 1.394 . S
C495 C496 1.516 1_556 S
C496 C495 1.516 1_554 S
C496 C497 1.502 . S
C496 C498 1.561 . S
C496 C499 1.526 . S
C497 H481 0.959 . S
C497 H482 0.959 . S
C497 H483 0.961 . S
C497 C496 1.502 . S
C498 H484 0.960 . S
C498 H485 0.961 . S
C498 H486 0.959 . S
C498 C496 1.561 . S
C499 C496 1.526 . S
C499 C500 1.396 . S
C499 C504 1.390 . S
C500 C494 1.465 1_554 S
C500 C499 1.396 . S
C500 C501 1.399 . S
C501 H487 0.929 1_554 S
C501 C500 1.399 . S
C501 C502 1.385 . S
C502 H488 0.931 . S
C502 C501 1.385 . S
C502 C503 1.389 . S
C503 C502 1.389 . S
C503 C504 1.387 . S
C504 H489 0.930 . S
C504 C499 1.390 . S
C504 C503 1.387 . S
H505 C517 0.930 . S
H506 C519 0.930 . S
H507 C520 0.930 . S
H508 C524 0.959 . S
H509 C524 0.959 . S
H510 C524 0.961 . S
H511 C525 0.960 . S
H512 C525 0.961 1_556 S
H513 C525 0.959 . S
H514 C528 0.929 . S
H515 C529 0.931 . S
H516 C531 0.930 . S
C517 H505 0.930 . S
C517 C518 1.399 . S
C517 C522 1.399 . S
C518 C517 1.399 . S
C518 C519 1.376 . S
C519 H506 0.930 . S
C519 C518 1.376 . S
C519 C520 1.388 . S
C520 H507 0.930 . S
C520 C519 1.388 . S
C520 C521 1.390 . S
C521 C520 1.390 . S
C521 C522 1.394 . S
C521 C527 1.465 1_554 S
C522 C517 1.399 . S
C522 C521 1.394 . S
C522 C523 1.516 1_554 S
C523 C522 1.516 1_556 S
C523 C524 1.502 . S
C523 C525 1.561 1_556 S
C523 C526 1.526 . S
C524 H508 0.959 . S
C524 H509 0.959 . S
C524 H510 0.961 . S
C524 C523 1.502 . S
C525 H511 0.960 . S
C525 H512 0.961 1_554 S
C525 H513 0.959 . S
C525 C523 1.561 1_554 S
C526 C523 1.526 . S
C526 C527 1.396 . S
C526 C531 1.390 . S
C527 C521 1.465 1_556 S
C527 C526 1.396 . S
C527 C528 1.399 . S
C528 H514 0.929 . S
C528 C527 1.399 . S
C528 C529 1.385 . S
C529 H515 0.931 . S
C529 C528 1.385 . S
C529 C530 1.389 . S
C530 C529 1.389 . S
C530 C531 1.387 . S
C531 H516 0.930 . S
C531 C526 1.390 . S
C531 C530 1.387 . S
H532 C544 0.930 . S
H533 C546 0.930 . S
H534 C547 0.930 . S
H535 C551 0.959 . S
H536 C551 0.959 . S
H537 C551 0.961 . S
H538 C552 0.960 . S
H539 C552 0.961 . S
H540 C552 0.959 . S
H541 C555 0.929 . S
H542 C556 0.931 . S
H543 C558 0.930 . S
C544 H532 0.930 . S
C544 C545 1.399 . S
C544 C549 1.399 . S
C545 C544 1.399 . S
C545 C546 1.376 . S
C546 H533 0.930 . S
C546 C545 1.376 . S
C546 C547 1.388 . S
C547 H534 0.930 . S
C547 C546 1.388 . S
C547 C548 1.390 . S
C548 C547 1.390 . S
C548 C549 1.394 . S
C548 C554 1.465 . S
C549 C544 1.399 . S
C549 C548 1.394 . S
C549 C550 1.516 . S
C550 C549 1.516 . S
C550 C551 1.502 . S
C550 C552 1.561 . S
C550 C553 1.526 . S
C551 H535 0.959 . S
C551 H536 0.959 . S
C551 H537 0.961 . S
C551 C550 1.502 . S
C552 H538 0.960 . S
C552 H539 0.961 . S
C552 H540 0.959 . S
C552 C550 1.561 . S
C553 C550 1.526 . S
C553 C554 1.396 . S
C553 C558 1.390 . S
C554 C548 1.465 . S
C554 C553 1.396 . S
C554 C555 1.399 . S
C555 H541 0.929 . S
C555 C554 1.399 . S
C555 C556 1.385 . S
C556 H542 0.931 . S
C556 C555 1.385 . S
C556 C557 1.389 . S
C557 C556 1.389 . S
C557 C558 1.387 . S
C558 H543 0.930 . S
C558 C553 1.390 . S
C558 C557 1.387 . S
H559 C571 0.930 . S
H560 C573 0.930 . S
H561 C574 0.930 . S
H562 C578 0.959 . S
H563 C578 0.959 . S
H564 C578 0.961 . S
H565 C579 0.960 . S
H566 C579 0.961 . S
H567 C579 0.959 . S
H568 C582 0.929 . S
H569 C583 0.931 . S
H570 C585 0.930 . S
C571 H559 0.930 . S
C571 C572 1.399 . S
C571 C576 1.399 . S
C572 C571 1.399 . S
C572 C573 1.376 . S
C573 H560 0.930 . S
C573 C572 1.376 . S
C573 C574 1.388 . S
C574 H561 0.930 . S
C574 C573 1.388 . S
C574 C575 1.390 . S
C575 C574 1.390 . S
C575 C576 1.394 . S
C575 C581 1.465 . S
C576 C571 1.399 . S
C576 C575 1.394 . S
C576 C577 1.516 . S
C577 C576 1.516 . S
C577 C578 1.502 . S
C577 C579 1.561 . S
C577 C580 1.526 . S
C578 H562 0.959 . S
C578 H563 0.959 . S
C578 H564 0.961 . S
C578 C577 1.502 . S
C579 H565 0.960 . S
C579 H566 0.961 . S
C579 H567 0.959 . S
C579 C577 1.561 . S
C580 C577 1.526 . S
C580 C581 1.396 . S
C580 C585 1.390 . S
C581 C575 1.465 . S
C581 C580 1.396 . S
C581 C582 1.399 . S
C582 H568 0.929 . S
C582 C581 1.399 . S
C582 C583 1.385 . S
C583 H569 0.931 . S
C583 C582 1.385 . S
C583 C584 1.389 . S
C584 C583 1.389 . S
C584 C585 1.387 . S
C585 H570 0.930 . S
C585 C580 1.390 . S
C585 C584 1.387 . S
H586 C598 0.930 . S
H587 C600 0.930 . S
H588 C601 0.930 . S
H589 C605 0.959 . S
H590 C605 0.959 . S
H591 C605 0.961 . S
H592 C606 0.960 1_655 S
H593 C606 0.961 . S
H594 C606 0.959 1_655 S
H595 C609 0.929 1_655 S
H596 C610 0.931 . S
H597 C612 0.930 . S
C598 H586 0.930 . S
C598 C599 1.399 . S
C598 C603 1.399 . S
C599 C598 1.399 . S
C599 C600 1.376 . S
C600 H587 0.930 . S
C600 C599 1.376 . S
C600 C601 1.388 . S
C601 H588 0.930 . S
C601 C600 1.388 . S
C601 C602 1.390 . S
C602 C601 1.390 . S
C602 C603 1.394 . S
C602 C608 1.465 1_655 S
C603 C598 1.399 . S
C603 C602 1.394 . S
C603 C604 1.516 1_655 S
C604 C603 1.516 1_455 S
C604 C605 1.502 . S
C604 C606 1.561 . S
C604 C607 1.526 . S
C605 H589 0.959 . S
C605 H590 0.959 . S
C605 H591 0.961 . S
C605 C604 1.502 . S
C606 H592 0.960 1_455 S
C606 H593 0.961 . S
C606 H594 0.959 1_455 S
C606 C604 1.561 . S
C607 C604 1.526 . S
C607 C608 1.396 . S
C607 C612 1.390 . S
C608 C602 1.465 1_455 S
C608 C607 1.396 . S
C608 C609 1.399 . S
C609 H595 0.929 1_455 S
C609 C608 1.399 . S
C609 C610 1.385 . S
C610 H596 0.931 . S
C610 C609 1.385 . S
C610 C611 1.389 . S
C611 C610 1.389 . S
C611 C612 1.387 . S
C612 H597 0.930 . S
C612 C607 1.390 . S
C612 C611 1.387 . S
H613 C625 0.930 . S
H614 C627 0.930 . S
H615 C628 0.930 . S
H616 C632 0.959 . S
H617 C632 0.947 1_455 S
H618 C632 0.961 . S
H619 C633 0.972 . S
H620 C633 0.961 . S
H621 C633 0.959 . S
H622 C636 0.929 . S
H623 C637 0.931 . S
H624 C639 0.930 . S
C625 H613 0.930 . S
C625 C626 1.399 . S
C625 C630 1.399 . S
C626 C625 1.399 . S
C626 C627 1.376 . S
C627 H614 0.930 . S
C627 C626 1.376 . S
C627 C628 1.388 . S
C628 H615 0.930 . S
C628 C627 1.388 . S
C628 C629 1.390 . S
C629 C628 1.390 . S
C629 C630 1.394 . S
C629 C635 1.465 1_655 S
C630 C625 1.399 . S
C630 C629 1.394 . S
C630 C631 1.518 . S
C631 C630 1.518 . S
C631 C632 1.503 . S
C631 C633 1.560 1_655 S
C631 C634 1.524 1_655 S
C632 H616 0.959 . S
C632 H617 0.947 1_655 S
C632 H618 0.961 . S
C632 C631 1.503 . S
C633 H619 0.972 . S
C633 H620 0.961 . S
C633 H621 0.959 . S
C633 C631 1.560 1_455 S
C634 C631 1.524 1_455 S
C634 C635 1.396 . S
C634 C639 1.390 . S
C635 C629 1.465 1_455 S
C635 C634 1.396 . S
C635 C636 1.399 . S
C636 H622 0.929 . S
C636 C635 1.399 . S
C636 C637 1.385 . S
C637 H623 0.931 . S
C637 C636 1.385 . S
C637 C638 1.389 . S
C638 C637 1.389 . S
C638 C639 1.387 . S
C639 H624 0.930 . S
C639 C634 1.390 . S
C639 C638 1.387 . S
H640 C652 0.930 . S
H641 C654 0.930 . S
H642 C655 0.930 . S
H643 C659 0.959 . S
H644 C659 0.959 . S
H645 C659 0.961 . S
H646 C660 0.960 . S
H647 C660 0.961 . S
H648 C660 0.959 . S
H649 C663 0.929 . S
H650 C664 0.931 . S
H651 C666 0.930 . S
C652 H640 0.930 . S
C652 C653 1.399 . S
C652 C657 1.399 . S
C653 C652 1.399 . S
C653 C654 1.376 . S
C654 H641 0.930 . S
C654 C653 1.376 . S
C654 C655 1.388 . S
C655 H642 0.930 . S
C655 C654 1.388 . S
C655 C656 1.390 . S
C656 C655 1.390 . S
C656 C657 1.394 . S
C656 C662 1.465 . S
C657 C652 1.399 . S
C657 C656 1.394 . S
C657 C658 1.516 . S
C658 C657 1.516 . S
C658 C659 1.502 . S
C658 C660 1.561 . S
C658 C661 1.526 . S
C659 H643 0.959 . S
C659 H644 0.959 . S
C659 H645 0.961 . S
C659 C658 1.502 . S
C660 H646 0.960 . S
C660 H647 0.961 . S
C660 H648 0.959 . S
C660 C658 1.561 . S
C661 C658 1.526 . S
C661 C662 1.396 . S
C661 C666 1.390 . S
C662 C656 1.465 . S
C662 C661 1.396 . S
C662 C663 1.399 . S
C663 H649 0.929 . S
C663 C662 1.399 . S
C663 C664 1.385 . S
C664 H650 0.931 . S
C664 C663 1.385 . S
C664 C665 1.389 . S
C665 C664 1.389 . S
C665 C666 1.387 . S
C666 H651 0.930 . S
C666 C661 1.390 . S
C666 C665 1.387 . S
H667 C679 0.930 . S
H668 C681 0.930 . S
H669 C682 0.930 . S
H670 C686 0.959 1_565 S
H671 C686 0.959 1_565 S
H672 C686 0.961 . S
H673 C687 0.960 . S
H674 C687 0.961 . S
H675 C687 0.959 . S
H676 C690 0.929 . S
H677 C691 0.931 . S
H678 C693 0.930 . S
C679 H667 0.930 . S
C679 C680 1.399 . S
C679 C684 1.399 . S
C680 C679 1.399 . S
C680 C681 1.376 . S
C681 H668 0.930 . S
C681 C680 1.376 . S
C681 C682 1.388 . S
C682 H669 0.930 . S
C682 C681 1.388 . S
C682 C683 1.390 . S
C683 C682 1.390 . S
C683 C684 1.394 . S
C683 C689 1.465 1_545 S
C684 C679 1.399 . S
C684 C683 1.394 . S
C684 C685 1.516 . S
C685 C684 1.516 . S
C685 C686 1.502 . S
C685 C687 1.561 . S
C685 C688 1.526 1_545 S
C686 H670 0.959 1_545 S
C686 H671 0.959 1_545 S
C686 H672 0.961 . S
C686 C685 1.502 . S
C687 H673 0.960 . S
C687 H674 0.961 . S
C687 H675 0.959 . S
C687 C685 1.561 . S
C688 C685 1.526 1_565 S
C688 C689 1.396 . S
C688 C693 1.390 . S
C689 C683 1.465 1_565 S
C689 C688 1.396 . S
C689 C690 1.399 . S
C690 H676 0.929 . S
C690 C689 1.399 . S
C690 C691 1.385 . S
C691 H677 0.931 . S
C691 C690 1.385 . S
C691 C692 1.389 . S
C692 C691 1.389 . S
C692 C693 1.387 . S
C693 H678 0.930 . S
C693 C688 1.390 . S
C693 C692 1.387 . S
H694 C706 0.930 . S
H695 C708 0.930 . S
H696 C709 0.930 . S
H697 C713 0.959 . S
H698 C713 0.959 . S
H699 C713 0.961 . S
H700 C714 0.960 . S
H701 C714 0.961 . S
H702 C714 0.959 . S
H703 C717 0.929 . S
H704 C718 0.931 . S
H705 C720 0.930 . S
C706 H694 0.930 . S
C706 C707 1.399 . S
C706 C711 1.399 . S
C707 C706 1.399 . S
C707 C708 1.376 . S
C708 H695 0.930 . S
C708 C707 1.376 . S
C708 C709 1.388 . S
C709 H696 0.930 . S
C709 C708 1.388 . S
C709 C710 1.390 . S
C710 C709 1.390 . S
C710 C711 1.394 . S
C710 C716 1.465 . S
C711 C706 1.399 . S
C711 C710 1.394 . S
C711 C712 1.516 . S
C712 C711 1.516 . S
C712 C713 1.502 . S
C712 C714 1.561 . S
C712 C715 1.526 . S
C713 H697 0.959 . S
C713 H698 0.959 . S
C713 H699 0.961 . S
C713 C712 1.502 . S
C714 H700 0.960 . S
C714 H701 0.961 . S
C714 H702 0.959 . S
C714 C712 1.561 . S
C715 C712 1.526 . S
C715 C716 1.396 . S
C715 C720 1.390 . S
C716 C710 1.465 . S
C716 C715 1.396 . S
C716 C717 1.399 . S
C717 H703 0.929 . S
C717 C716 1.399 . S
C717 C718 1.385 . S
C718 H704 0.931 . S
C718 C717 1.385 . S
C718 C719 1.389 . S
C719 C718 1.389 . S
C719 C720 1.387 . S
C720 H705 0.930 . S
C720 C715 1.390 . S
C720 C719 1.387 . S
H721 C733 0.930 . S
H722 C735 0.930 . S
H723 C736 0.930 . S
H724 C740 0.959 . S
H725 C740 0.959 . S
H726 C740 0.961 . S
H727 C741 0.960 . S
H728 C741 0.961 1_556 S
H729 C741 0.959 . S
H730 C744 0.929 . S
H731 C745 0.931 . S
H732 C747 0.930 . S
C733 H721 0.930 . S
C733 C734 1.399 . S
C733 C738 1.399 . S
C734 C733 1.399 . S
C734 C735 1.376 . S
C735 H722 0.930 . S
C735 C734 1.376 . S
C735 C736 1.388 . S
C736 H723 0.930 . S
C736 C735 1.388 . S
C736 C737 1.390 . S
C737 C736 1.390 . S
C737 C738 1.394 . S
C737 C743 1.465 1_554 S
C738 C733 1.399 . S
C738 C737 1.394 . S
C738 C739 1.516 1_554 S
C739 C738 1.516 1_556 S
C739 C740 1.502 . S
C739 C741 1.561 1_556 S
C739 C742 1.526 . S
C740 H724 0.959 . S
C740 H725 0.959 . S
C740 H726 0.961 . S
C740 C739 1.502 . S
C741 H727 0.960 . S
C741 H728 0.961 1_554 S
C741 H729 0.959 . S
C741 C739 1.561 1_554 S
C742 C739 1.526 . S
C742 C743 1.396 . S
C742 C747 1.390 . S
C743 C737 1.465 1_556 S
C743 C742 1.396 . S
C743 C744 1.399 . S
C744 H730 0.929 . S
C744 C743 1.399 . S
C744 C745 1.385 . S
C745 H731 0.931 . S
C745 C744 1.385 . S
C745 C746 1.389 . S
C746 C745 1.389 . S
C746 C747 1.387 . S
C747 H732 0.930 . S
C747 C742 1.390 . S
C747 C746 1.387 . S
H748 C760 0.930 . S
H749 C762 0.930 . S
H750 C763 0.930 . S
H751 C767 0.959 . S
H752 C767 0.959 1_554 S
H753 C767 0.961 . S
H754 C768 0.960 . S
H755 C768 0.961 . S
H756 C768 0.959 . S
H757 C771 0.929 . S
H758 C772 0.931 . S
H759 C774 0.930 . S
C760 H748 0.930 . S
C760 C761 1.399 . S
C760 C765 1.399 . S
C761 C760 1.399 . S
C761 C762 1.376 . S
C762 H749 0.930 . S
C762 C761 1.376 . S
C762 C763 1.388 . S
C763 H750 0.930 . S
C763 C762 1.388 . S
C763 C764 1.390 . S
C764 C763 1.390 . S
C764 C765 1.394 . S
C764 C770 1.465 1_556 S
C765 C760 1.399 . S
C765 C764 1.394 . S
C765 C766 1.516 1_556 S
C766 C765 1.516 1_554 S
C766 C767 1.502 1_554 S
C766 C768 1.561 . S
C766 C769 1.526 . S
C767 H751 0.959 . S
C767 H752 0.959 1_556 S
C767 H753 0.961 . S
C767 C766 1.502 1_556 S
C768 H754 0.960 . S
C768 H755 0.961 . S
C768 H756 0.959 . S
C768 C766 1.561 . S
C769 C766 1.526 . S
C769 C770 1.396 . S
C769 C774 1.390 . S
C770 C764 1.465 1_554 S
C770 C769 1.396 . S
C770 C771 1.399 . S
C771 H757 0.929 . S
C771 C770 1.399 . S
C771 C772 1.385 . S
C772 H758 0.931 . S
C772 C771 1.385 . S
C772 C773 1.389 . S
C773 C772 1.389 . S
C773 C774 1.387 . S
C774 H759 0.930 . S
C774 C769 1.390 . S
C774 C773 1.387 . S
H775 C787 0.930 . S
H776 C789 0.930 . S
H777 C790 0.930 . S
H778 C794 0.959 . S
H779 C794 0.959 . S
H780 C794 0.961 . S
H781 C795 0.960 . S
H782 C795 0.961 . S
H783 C795 0.959 . S
H784 C798 0.929 . S
H785 C799 0.931 . S
H786 C801 0.930 . S
C787 H775 0.930 . S
C787 C788 1.399 . S
C787 C792 1.399 . S
C788 C787 1.399 . S
C788 C789 1.376 . S
C789 H776 0.930 . S
C789 C788 1.376 . S
C789 C790 1.388 . S
C790 H777 0.930 . S
C790 C789 1.388 . S
C790 C791 1.390 . S
C791 C790 1.390 . S
C791 C792 1.394 . S
C791 C797 1.465 . S
C792 C787 1.399 . S
C792 C791 1.394 . S
C792 C793 1.516 . S
C793 C792 1.516 . S
C793 C794 1.502 . S
C793 C795 1.561 . S
C793 C796 1.526 . S
C794 H778 0.959 . S
C794 H779 0.959 . S
C794 H780 0.961 . S
C794 C793 1.502 . S
C795 H781 0.960 . S
C795 H782 0.961 . S
C795 H783 0.959 . S
C795 C793 1.561 . S
C796 C793 1.526 . S
C796 C797 1.396 . S
C796 C801 1.390 . S
C797 C791 1.465 . S
C797 C796 1.396 . S
C797 C798 1.399 . S
C798 H784 0.929 . S
C798 C797 1.399 . S
C798 C799 1.385 . S
C799 H785 0.931 . S
C799 C798 1.385 . S
C799 C800 1.389 . S
C800 C799 1.389 . S
C800 C801 1.387 . S
C801 H786 0.930 . S
C801 C796 1.390 . S
C801 C800 1.387 . S
H802 C814 0.930 . S
H803 C816 0.930 . S
H804 C817 0.930 . S
H805 C821 0.959 . S
H806 C821 0.959 . S
H807 C821 0.961 . S
H808 C822 0.960 . S
H809 C822 0.961 . S
H810 C822 0.959 . S
H811 C825 0.929 . S
H812 C826 0.931 . S
H813 C828 0.930 . S
C814 H802 0.930 . S
C814 C815 1.399 . S
C814 C819 1.399 . S
C815 C814 1.399 . S
C815 C816 1.376 . S
C816 H803 0.930 . S
C816 C815 1.376 . S
C816 C817 1.388 . S
C817 H804 0.930 . S
C817 C816 1.388 . S
C817 C818 1.390 . S
C818 C817 1.390 . S
C818 C819 1.394 . S
C818 C824 1.465 . S
C819 C814 1.399 . S
C819 C818 1.394 . S
C819 C820 1.516 . S
C820 C819 1.516 . S
C820 C821 1.502 . S
C820 C822 1.561 . S
C820 C823 1.526 . S
C821 H805 0.959 . S
C821 H806 0.959 . S
C821 H807 0.961 . S
C821 C820 1.502 . S
C822 H808 0.960 . S
C822 H809 0.961 . S
C822 H810 0.959 . S
C822 C820 1.561 . S
C823 C820 1.526 . S
C823 C824 1.396 . S
C823 C828 1.390 . S
C824 C818 1.465 . S
C824 C823 1.396 . S
C824 C825 1.399 . S
C825 H811 0.929 . S
C825 C824 1.399 . S
C825 C826 1.385 . S
C826 H812 0.931 . S
C826 C825 1.385 . S
C826 C827 1.389 . S
C827 C826 1.389 . S
C827 C828 1.387 . S
C828 H813 0.930 . S
C828 C823 1.390 . S
C828 C827 1.387 . S
H829 C841 0.930 . S
H830 C843 0.930 . S
H831 C844 0.930 . S
H832 C848 0.959 . S
H833 C848 0.959 . S
H834 C848 0.961 . S
H835 C849 0.960 . S
H836 C849 0.961 1_655 S
H837 C849 0.959 . S
H838 C852 0.929 . S
H839 C853 0.931 . S
H840 C855 0.930 . S
C841 H829 0.930 . S
C841 C842 1.399 . S
C841 C846 1.399 . S
C842 C841 1.399 . S
C842 C843 1.376 . S
C843 H830 0.930 . S
C843 C842 1.376 . S
C843 C844 1.388 . S
C844 H831 0.930 . S
C844 C843 1.388 . S
C844 C845 1.390 . S
C845 C844 1.390 . S
C845 C846 1.394 . S
C845 C851 1.465 1_455 S
C846 C841 1.399 . S
C846 C845 1.394 . S
C846 C847 1.516 1_455 S
C847 C846 1.516 1_655 S
C847 C848 1.502 . S
C847 C849 1.561 1_655 S
C847 C850 1.526 . S
C848 H832 0.959 . S
C848 H833 0.959 . S
C848 H834 0.961 . S
C848 C847 1.502 . S
C849 H835 0.960 . S
C849 H836 0.961 1_455 S
C849 H837 0.959 . S
C849 C847 1.561 1_455 S
C850 C847 1.526 . S
C850 C851 1.396 . S
C850 C855 1.390 . S
C851 C845 1.465 1_655 S
C851 C850 1.396 . S
C851 C852 1.399 . S
C852 H838 0.929 . S
C852 C851 1.399 . S
C852 C853 1.385 . S
C853 H839 0.931 . S
C853 C852 1.385 . S
C853 C854 1.389 . S
C854 C853 1.389 . S
C854 C855 1.387 . S
C855 H840 0.930 . S
C855 C850 1.390 . S
C855 C854 1.387 . S
H856 C868 0.930 . S
H857 C870 0.930 . S
H858 C871 0.930 . S
H859 C875 0.959 . S
H860 C875 0.959 . S
H861 C875 0.961 . S
H862 C876 0.960 1_455 S
H863 C876 0.961 . S
H864 C876 0.959 . S
H865 C879 0.929 . S
H866 C880 0.931 . S
H867 C882 0.930 . S
C868 H856 0.930 . S
C868 C869 1.399 . S
C868 C873 1.399 . S
C869 C868 1.399 . S
C869 C870 1.376 . S
C870 H857 0.930 . S
C870 C869 1.376 . S
C870 C871 1.388 . S
C871 H858 0.930 . S
C871 C870 1.388 . S
C871 C872 1.390 . S
C872 C871 1.390 . S
C872 C873 1.394 . S
C872 C878 1.465 1_455 S
C873 C868 1.399 . S
C873 C872 1.394 . S
C873 C874 1.516 1_455 S
C874 C873 1.516 1_655 S
C874 C875 1.502 . S
C874 C876 1.561 . S
C874 C877 1.526 . S
C875 H859 0.959 . S
C875 H860 0.959 . S
C875 H861 0.961 . S
C875 C874 1.502 . S
C876 H862 0.960 1_655 S
C876 H863 0.961 . S
C876 H864 0.959 . S
C876 C874 1.561 . S
C877 C874 1.526 . S
C877 C878 1.396 . S
C877 C882 1.390 . S
C878 C872 1.465 1_655 S
C878 C877 1.396 . S
C878 C879 1.399 . S
C879 H865 0.929 . S
C879 C878 1.399 . S
C879 C880 1.385 . S
C880 H866 0.931 . S
C880 C879 1.385 . S
C880 C881 1.389 . S
C881 C880 1.389 . S
C881 C882 1.387 . S
C882 H867 0.930 . S
C882 C877 1.390 . S
C882 C881 1.387 . S
H883 C895 0.930 . S
H884 C897 0.930 . S
H885 C898 0.930 . S
H886 C902 0.959 . S
H887 C902 0.959 . S
H888 C902 0.961 . S
H889 C903 0.960 . S
H890 C903 0.961 . S
H891 C903 0.959 . S
H892 C906 0.929 . S
H893 C907 0.931 . S
H894 C909 0.930 . S
C895 H883 0.930 . S
C895 C896 1.399 . S
C895 C900 1.399 . S
C896 C895 1.399 . S
C896 C897 1.376 . S
C897 H884 0.930 . S
C897 C896 1.376 . S
C897 C898 1.388 . S
C898 H885 0.930 . S
C898 C897 1.388 . S
C898 C899 1.390 . S
C899 C898 1.390 . S
C899 C900 1.394 . S
C899 C905 1.465 . S
C900 C895 1.399 . S
C900 C899 1.394 . S
C900 C901 1.516 . S
C901 C900 1.516 . S
C901 C902 1.502 . S
C901 C903 1.561 . S
C901 C904 1.526 . S
C902 H886 0.959 . S
C902 H887 0.959 . S
C902 H888 0.961 . S
C902 C901 1.502 . S
C903 H889 0.960 . S
C903 H890 0.961 . S
C903 H891 0.959 . S
C903 C901 1.561 . S
C904 C901 1.526 . S
C904 C905 1.396 . S
C904 C909 1.390 . S
C905 C899 1.465 . S
C905 C904 1.396 . S
C905 C906 1.399 . S
C906 H892 0.929 . S
C906 C905 1.399 . S
C906 C907 1.385 . S
C907 H893 0.931 . S
C907 C906 1.385 . S
C907 C908 1.389 . S
C908 C907 1.389 . S
C908 C909 1.387 . S
C909 H894 0.930 . S
C909 C904 1.390 . S
C909 C908 1.387 . S
H910 C922 0.930 . S
H911 C924 0.930 . S
H912 C925 0.930 . S
H913 C929 0.959 . S
H914 C929 0.959 . S
H915 C929 0.961 . S
H916 C930 0.960 . S
H917 C930 0.961 . S
H918 C930 0.959 . S
H919 C933 0.929 . S
H920 C934 0.931 . S
H921 C936 0.930 . S
C922 H910 0.930 . S
C922 C923 1.399 . S
C922 C927 1.399 . S
C923 C922 1.399 . S
C923 C924 1.376 . S
C924 H911 0.930 . S
C924 C923 1.376 . S
C924 C925 1.388 . S
C925 H912 0.930 . S
C925 C924 1.388 . S
C925 C926 1.390 . S
C926 C925 1.390 . S
C926 C927 1.394 . S
C926 C932 1.465 . S
C927 C922 1.399 . S
C927 C926 1.394 . S
C927 C928 1.516 . S
C928 C927 1.516 . S
C928 C929 1.502 . S
C928 C930 1.561 . S
C928 C931 1.526 . S
C929 H913 0.959 . S
C929 H914 0.959 . S
C929 H915 0.961 . S
C929 C928 1.502 . S
C930 H916 0.960 . S
C930 H917 0.961 . S
C930 H918 0.959 . S
C930 C928 1.561 . S
C931 C928 1.526 . S
C931 C932 1.396 . S
C931 C936 1.390 . S
C932 C926 1.465 . S
C932 C931 1.396 . S
C932 C933 1.399 . S
C933 H919 0.929 . S
C933 C932 1.399 . S
C933 C934 1.385 . S
C934 H920 0.931 . S
C934 C933 1.385 . S
C934 C935 1.389 . S
C935 C934 1.389 . S
C935 C936 1.387 . S
C936 H921 0.930 . S
C936 C931 1.390 . S
C936 C935 1.387 . S
H937 C949 0.930 . S
H938 C951 0.930 . S
H939 C952 0.930 . S
H940 C956 0.959 . S
H941 C956 0.959 . S
H942 C956 0.961 1_545 S
H943 C957 0.960 . S
H944 C957 0.961 . S
H945 C957 0.959 . S
H946 C960 0.929 . S
H947 C961 0.931 . S
H948 C963 0.930 . S
C949 H937 0.930 . S
C949 C950 1.399 . S
C949 C954 1.399 . S
C950 C949 1.399 . S
C950 C951 1.376 . S
C951 H938 0.930 . S
C951 C950 1.376 . S
C951 C952 1.388 . S
C952 H939 0.930 . S
C952 C951 1.388 . S
C952 C953 1.390 . S
C953 C952 1.390 . S
C953 C954 1.394 . S
C953 C959 1.465 1_545 S
C954 C949 1.399 . S
C954 C953 1.394 . S
C954 C955 1.516 . S
C955 C954 1.516 . S
C955 C956 1.502 1_545 S
C955 C957 1.561 . S
C955 C958 1.526 1_545 S
C956 H940 0.959 . S
C956 H941 0.959 . S
C956 H942 0.961 1_565 S
C956 C955 1.502 1_565 S
C957 H943 0.960 . S
C957 H944 0.961 . S
C957 H945 0.959 . S
C957 C955 1.561 . S
C958 C955 1.526 1_565 S
C958 C959 1.396 . S
C958 C963 1.390 . S
C959 C953 1.465 1_565 S
C959 C958 1.396 . S
C959 C960 1.399 . S
C960 H946 0.929 . S
C960 C959 1.399 . S
C960 C961 1.385 . S
C961 H947 0.931 . S
C961 C960 1.385 . S
C961 C962 1.389 . S
C962 C961 1.389 . S
C962 C963 1.387 . S
C963 H948 0.930 . S
C963 C958 1.390 . S
C963 C962 1.387 . S
H964 C976 0.930 . S
H965 C978 0.930 . S
H966 C979 0.930 . S
H967 C983 0.959 . S
H968 C983 0.959 . S
H969 C983 0.961 . S
H970 C984 0.960 . S
H971 C984 0.961 . S
H972 C984 0.959 . S
H973 C987 0.929 . S
H974 C988 0.931 . S
H975 C990 0.930 . S
C976 H964 0.930 . S
C976 C977 1.399 . S
C976 C981 1.399 . S
C977 C976 1.399 . S
C977 C978 1.376 . S
C978 H965 0.930 . S
C978 C977 1.376 . S
C978 C979 1.388 . S
C979 H966 0.930 . S
C979 C978 1.388 . S
C979 C980 1.390 . S
C980 C979 1.390 . S
C980 C981 1.394 . S
C980 C986 1.465 . S
C981 C976 1.399 . S
C981 C980 1.394 . S
C981 C982 1.516 . S
C982 C981 1.516 . S
C982 C983 1.502 . S
C982 C984 1.561 . S
C982 C985 1.526 . S
C983 H967 0.959 . S
C983 H968 0.959 . S
C983 H969 0.961 . S
C983 C982 1.502 . S
C984 H970 0.960 . S
C984 H971 0.961 . S
C984 H972 0.959 . S
C984 C982 1.561 . S
C985 C982 1.526 . S
C985 C986 1.396 . S
C985 C990 1.390 . S
C986 C980 1.465 . S
C986 C985 1.396 . S
C986 C987 1.399 . S
C987 H973 0.929 . S
C987 C986 1.399 . S
C987 C988 1.385 . S
C988 H974 0.931 . S
C988 C987 1.385 . S
C988 C989 1.389 . S
C989 C988 1.389 . S
C989 C990 1.387 . S
C990 H975 0.930 . S
C990 C985 1.390 . S
C990 C989 1.387 . S
H991 C1003 0.930 . S
H992 C1005 0.930 . S
H993 C1006 0.930 . S
H994 C1010 0.959 . S
H995 C1010 0.959 . S
H996 C1010 0.961 . S
H997 C1011 0.960 . S
H998 C1011 0.961 . S
H999 C1011 0.959 . S
H1000 C1014 0.929 . S
H1001 C1015 0.931 . S
H1002 C1017 0.930 . S
C1003 H991 0.930 . S
C1003 C1004 1.399 . S
C1003 C1008 1.399 . S
C1004 C1003 1.399 . S
C1004 C1005 1.376 . S
C1005 H992 0.930 . S
C1005 C1004 1.376 . S
C1005 C1006 1.388 . S
C1006 H993 0.930 . S
C1006 C1005 1.388 . S
C1006 C1007 1.390 . S
C1007 C1006 1.390 . S
C1007 C1008 1.394 . S
C1007 C1013 1.465 . S
C1008 C1003 1.399 . S
C1008 C1007 1.394 . S
C1008 C1009 1.516 . S
C1009 C1008 1.516 . S
C1009 C1010 1.502 . S
C1009 C1011 1.561 . S
C1009 C1012 1.526 . S
C1010 H994 0.959 . S
C1010 H995 0.959 . S
C1010 H996 0.961 . S
C1010 C1009 1.502 . S
C1011 H997 0.960 . S
C1011 H998 0.961 . S
C1011 H999 0.959 . S
C1011 C1009 1.561 . S
C1012 C1009 1.526 . S
C1012 C1013 1.396 . S
C1012 C1017 1.390 . S
C1013 C1007 1.465 . S
C1013 C1012 1.396 . S
C1013 C1014 1.399 . S
C1014 H1000 0.929 . S
C1014 C1013 1.399 . S
C1014 C1015 1.385 . S
C1015 H1001 0.931 . S
C1015 C1014 1.385 . S
C1015 C1016 1.389 . S
C1016 C1015 1.389 . S
C1016 C1017 1.387 . S
C1017 H1002 0.930 . S
C1017 C1012 1.390 . S
C1017 C1016 1.387 . S
H1018 C1030 0.930 . S
H1019 C1032 0.930 . S
H1020 C1033 0.930 . S
H1021 C1037 0.959 . S
H1022 C1037 0.959 . S
H1023 C1037 0.961 . S
H1024 C1038 0.960 . S
H1025 C1038 0.961 1_565 S
H1026 C1038 0.959 1_565 S
H1027 C1041 0.929 . S
H1028 C1042 0.931 . S
H1029 C1044 0.930 . S
C1030 H1018 0.930 . S
C1030 C1031 1.399 . S
C1030 C1035 1.399 . S
C1031 C1030 1.399 . S
C1031 C1032 1.376 . S
C1032 H1019 0.930 . S
C1032 C1031 1.376 . S
C1032 C1033 1.388 1_545 S
C1033 H1020 0.930 . S
C1033 C1032 1.388 1_565 S
C1033 C1034 1.390 . S
C1034 C1033 1.390 . S
C1034 C1035 1.394 1_565 S
C1034 C1040 1.465 . S
C1035 C1030 1.399 . S
C1035 C1034 1.394 1_545 S
C1035 C1036 1.516 . S
C1036 C1035 1.516 . S
C1036 C1037 1.502 . S
C1036 C1038 1.561 . S
C1036 C1039 1.526 1_545 S
C1037 H1021 0.959 . S
C1037 H1022 0.959 . S
C1037 H1023 0.961 . S
C1037 C1036 1.502 . S
C1038 H1024 0.960 . S
C1038 H1025 0.961 1_545 S
C1038 H1026 0.959 1_545 S
C1038 C1036 1.561 . S
C1039 C1036 1.526 1_565 S
C1039 C1040 1.396 . S
C1039 C1044 1.390 . S
C1040 C1034 1.465 . S
C1040 C1039 1.396 . S
C1040 C1041 1.399 . S
C1041 H1027 0.929 . S
C1041 C1040 1.399 . S
C1041 C1042 1.385 . S
C1042 H1028 0.931 . S
C1042 C1041 1.385 . S
C1042 C1043 1.389 . S
C1043 C1042 1.389 . S
C1043 C1044 1.387 . S
C1044 H1029 0.930 . S
C1044 C1039 1.390 . S
C1044 C1043 1.387 . S
H1045 C1057 0.930 . S
H1046 C1059 0.930 . S
H1047 C1060 0.930 . S
H1048 C1064 0.959 . S
H1049 C1064 0.959 . S
H1050 C1064 0.961 . S
H1051 C1065 0.960 . S
H1052 C1065 0.961 . S
H1053 C1065 0.959 . S
H1054 C1068 0.929 . S
H1055 C1069 0.931 . S
H1056 C1071 0.930 . S
C1057 H1045 0.930 . S
C1057 C1058 1.399 . S
C1057 C1062 1.399 . S
C1058 C1057 1.399 . S
C1058 C1059 1.376 . S
C1059 H1046 0.930 . S
C1059 C1058 1.376 . S
C1059 C1060 1.388 . S
C1060 H1047 0.930 . S
C1060 C1059 1.388 . S
C1060 C1061 1.390 . S
C1061 C1060 1.390 . S
C1061 C1062 1.394 . S
C1061 C1067 1.465 . S
C1062 C1057 1.399 . S
C1062 C1061 1.394 . S
C1062 C1063 1.516 . S
C1063 C1062 1.516 . S
C1063 C1064 1.502 . S
C1063 C1065 1.561 . S
C1063 C1066 1.526 . S
C1064 H1048 0.959 . S
C1064 H1049 0.959 . S
C1064 H1050 0.961 . S
C1064 C1063 1.502 . S
C1065 H1051 0.960 . S
C1065 H1052 0.961 . S
C1065 H1053 0.959 . S
C1065 C1063 1.561 . S
C1066 C1063 1.526 . S
C1066 C1067 1.396 . S
C1066 C1071 1.390 . S
C1067 C1061 1.465 . S
C1067 C1066 1.396 . S
C1067 C1068 1.399 . S
C1068 H1054 0.929 . S
C1068 C1067 1.399 . S
C1068 C1069 1.385 . S
C1069 H1055 0.931 . S
C1069 C1068 1.385 . S
C1069 C1070 1.389 . S
C1070 C1069 1.389 . S
C1070 C1071 1.387 . S
C1071 H1056 0.930 . S
C1071 C1066 1.390 . S
C1071 C1070 1.387 . S
C221 C8 0.998 . S
C233 C177 0.994 . S
C248 C21 1.036 . S
C260 C125 1.049 . S
C275 C190 1.034 . S
C287 C34 1.039 . S
C302 C47 1.036 . S
C314 C203 1.033 . S
C329 C60 1.018 . S
C341 C86 1.035 . S
C356 C138 0.975 . S
C368 C73 0.992 . S
C383 C151 1.071 . S
C395 C99 1.075 . S
C410 C112 1.027 . S
C422 C164 1.028 . S
C437 C26 1.567 . S
C449 C5 1.527 . S
C464 C18 1.527 . S
C476 C39 1.567 . S
C491 C161 1.553 . S
C503 C10 1.558 . S
C518 C23 1.540 . S
C530 C148 1.589 . S
C545 C62 1.559 . S
C557 C31 1.555 . S
C572 C140 1.555 . S
C584 C44 1.553 . S
C599 C13 1.510 . S
C611 C0 1.522 . S
C626 C49 1.503 . S
C638 C36 1.480 . S
C653 C130 1.547 . S
C665 C52 1.539 . S
C680 C96 1.593 . S
C692 C65 1.585 . S
C707 C78 1.585 . S
C719 C109 1.572 . S
C734 C195 1.549 . S
C746 C75 1.507 . S
C761 C88 1.533 . S
C773 C182 1.556 . S
C788 C127 1.478 . S
C800 C91 1.534 . S
C815 C104 1.550 . S
C827 C179 1.521 . S
C842 C83 1.567 . S
C854 C70 1.608 . S
C869 C114 1.413 . S
C881 C101 1.456 . S
C896 C122 1.567 . S
C908 C174 1.608 . S
C923 C135 1.524 . S
C935 C143 1.567 . S
C950 C156 1.518 . S
C962 C57 1.570 . S
C977 C166 1.502 . S
C989 C153 1.481 . S
C1004 C187 1.575 . S
C1016 C169 1.619 . S
C1031 C117 1.599 . S
C1043 C200 1.562 . S
C1058 C205 1.411 . S
C1070 C192 1.436 . S
