# Generated by pormake.
# Topology smm, (6)-cn, num edge types: 1
# Building blocks:
#     Node 0, Type 0, BuildingBlock: KUMBOL_clean_sbu_0, # of connection points: 6
#     Node 1, Type 0, BuildingBlock: KUMBOL_clean_sbu_0, # of connection points: 6
#     Node 2, Type 0, BuildingBlock: KUMBOL_clean_sbu_0, # of connection points: 6
#     Node 3, Type 0, BuildingBlock: KUMBOL_clean_sbu_0, # of connection points: 6
#     Node 4, Type 0, BuildingBlock: KUMBOL_clean_sbu_0, # of connection points: 6
#     Node 5, Type 0, BuildingBlock: KUMBOL_clean_sbu_0, # of connection points: 6
#     Node 6, Type 0, BuildingBlock: KUMBOL_clean_sbu_0, # of connection points: 6
#     Node 7, Type 0, BuildingBlock: KUMBOL_clean_sbu_0, # of connection points: 6
#     Node 8, Type 0, BuildingBlock: KUMBOL_clean_sbu_0, # of connection points: 6
#     Edge 9, Type (0, 0), BuildingBlock: ZUJKAS_clean_linker_0, # of connection points: 2
#     Edge 10, Type (0, 0), BuildingBlock: ZUJKAS_clean_linker_0, # of connection points: 2
#     Edge 11, Type (0, 0), BuildingBlock: ZUJKAS_clean_linker_0, # of connection points: 2
#     Edge 12, Type (0, 0), BuildingBlock: ZUJKAS_clean_linker_0, # of connection points: 2
#     Edge 13, Type (0, 0), BuildingBlock: ZUJKAS_clean_linker_0, # of connection points: 2
#     Edge 14, Type (0, 0), BuildingBlock: ZUJKAS_clean_linker_0, # of connection points: 2
#     Edge 15, Type (0, 0), BuildingBlock: ZUJKAS_clean_linker_0, # of connection points: 2
#     Edge 16, Type (0, 0), BuildingBlock: ZUJKAS_clean_linker_0, # of connection points: 2
#     Edge 17, Type (0, 0), BuildingBlock: ZUJKAS_clean_linker_0, # of connection points: 2
#     Edge 18, Type (0, 0), BuildingBlock: ZUJKAS_clean_linker_0, # of connection points: 2
#     Edge 19, Type (0, 0), BuildingBlock: ZUJKAS_clean_linker_0, # of connection points: 2
#     Edge 20, Type (0, 0), BuildingBlock: ZUJKAS_clean_linker_0, # of connection points: 2
#     Edge 21, Type (0, 0), BuildingBlock: ZUJKAS_clean_linker_0, # of connection points: 2
#     Edge 22, Type (0, 0), BuildingBlock: ZUJKAS_clean_linker_0, # of connection points: 2
#     Edge 23, Type (0, 0), BuildingBlock: ZUJKAS_clean_linker_0, # of connection points: 2
#     Edge 24, Type (0, 0), BuildingBlock: ZUJKAS_clean_linker_0, # of connection points: 2
#     Edge 25, Type (0, 0), BuildingBlock: ZUJKAS_clean_linker_0, # of connection points: 2
#     Edge 26, Type (0, 0), BuildingBlock: ZUJKAS_clean_linker_0, # of connection points: 2
#     Edge 27, Type (0, 0), BuildingBlock: ZUJKAS_clean_linker_0, # of connection points: 2
#     Edge 28, Type (0, 0), BuildingBlock: ZUJKAS_clean_linker_0, # of connection points: 2
#     Edge 29, Type (0, 0), BuildingBlock: ZUJKAS_clean_linker_0, # of connection points: 2
#     Edge 30, Type (0, 0), BuildingBlock: ZUJKAS_clean_linker_0, # of connection points: 2
#     Edge 31, Type (0, 0), BuildingBlock: ZUJKAS_clean_linker_0, # of connection points: 2
#     Edge 32, Type (0, 0), BuildingBlock: ZUJKAS_clean_linker_0, # of connection points: 2
#     Edge 33, Type (0, 0), BuildingBlock: ZUJKAS_clean_linker_0, # of connection points: 2
#     Edge 34, Type (0, 0), BuildingBlock: ZUJKAS_clean_linker_0, # of connection points: 2
#     Edge 35, Type (0, 0), BuildingBlock: ZUJKAS_clean_linker_0, # of connection points: 2
# Relax obj value: 0.107
# Max RMSD: 0.252
# Mean RMSD: 0.188
data_MOF--net-smm--node1-KUMBOL_clean_sbu_0--edge1-ZUJKAS_clean_linker_0
_symmetry_space_group_name_H-M    P1
_symmetry_Int_Tables_number       1
_symmetry_cell_setting            triclinic
loop_
_symmetry_equiv_pos_as_xyz
'x, y, z'
_cell_length_a     73.993284
_cell_length_b     88.774941
_cell_length_c     19.207354
_cell_angle_alpha  98.680903
_cell_angle_beta   98.871933
_cell_angle_gamma 120.7294
loop_
_atom_site_label
_atom_site_type_symbol
_atom_site_fract_x
_atom_site_fract_y
_atom_site_fract_z
_atom_type_partial_charge
Gd0 Gd 1.01685 0.18297 0.07744 0.0
Gd1 Gd 0.07205 0.22524 0.14611 0.0
C2 C 0.13287 0.22372 0.21363 0.0
C3 C 0.14418 0.23616 0.34572 0.0
C4 C 0.11224 0.23329 0.2718 0.0
C5 C 0.11508 0.22578 0.2093 0.0
C6 C 0.12694 0.23884 0.34064 0.0
C7 C 0.14714 0.22861 0.28232 0.0
C8 C 0.1361 0.2173 0.14861 0.0
C9 C 0.12226 0.21375 0.08152 0.0
N10 N 0.10113 0.2214 0.14385 0.0
C11 C 0.10496 0.21617 0.08016 0.0
H12 H 0.09427 0.21331 0.02808 0.0
C13 C 0.09312 0.24459 0.32399 0.0
N14 N 0.09551 0.23582 0.2647 0.0
C15 C 0.10721 0.25024 0.39353 0.0
C16 C 0.1241 0.24722 0.40203 0.0
H17 H 0.08003 0.24686 0.31816 0.0
H18 H 0.16079 0.22699 0.28683 0.0
H19 H 0.99614 0.19385 0.20629 0.0
H20 H 0.14952 0.21546 0.14955 0.0
H21 H 0.12484 0.2091 0.03086 0.0
H22 H 0.15557 0.2402 0.3982 0.0
H23 H 1.00668 0.16181 0.90303 0.0
H24 H 0.93502 0.18491 0.10057 0.0
H25 H 0.96375 0.19455 0.21348 0.0
H26 H 0.92485 0.1602 0.84754 0.0
H27 H 0.10501 0.25687 0.44054 0.0
H28 H 0.13502 0.25165 0.45593 0.0
H29 H 0.92076 0.17231 0.96391 0.0
H30 H 0.97864 0.14965 0.78587 0.0
N31 N 0.98638 0.18419 0.08988 0.0
C32 C 0.94926 0.18455 0.09695 0.0
C33 C 0.96542 0.18997 0.16078 0.0
C34 C 0.95151 0.17843 0.02932 0.0
C35 C 0.97042 0.17828 0.02764 0.0
C36 C 0.98385 0.18954 0.15631 0.0
N37 N 0.99075 0.17101 0.96359 0.0
C38 C 0.97272 0.17153 0.96236 0.0
C39 C 0.97678 0.15581 0.83506 0.0
C40 C 0.95857 0.15696 0.83233 0.0
C41 C 0.99265 0.16271 0.90168 0.0
C42 C 0.95619 0.16466 0.89664 0.0
H43 H 0.94627 0.15156 0.78071 0.0
O44 O 1.00978 0.15544 0.05298 0.0
O45 O 0.05292 0.1948 0.11051 0.0
O46 O 0.06031 0.21437 0.02339 0.0
O47 O 1.02225 0.19805 0.99135 0.0
O48 O 0.03483 0.17328 0.01838 0.0
O49 O 1.00047 0.16472 0.14286 0.0
O50 O 0.08627 0.25446 0.17079 0.0
O51 O 0.03598 0.21357 0.11363 0.0
O52 O 0.02846 0.19468 0.19944 0.0
O53 O 0.06609 0.20935 0.22993 0.0
O54 O 0.05482 0.23705 0.19724 0.0
O55 O 0.08922 0.24084 0.07433 0.0
C56 C 0.05415 0.18413 0.06229 0.0
C57 C 0.93765 0.16529 0.89753 0.0
C58 C 0.93532 0.17218 0.96377 0.0
C59 C 1.00003 0.15106 0.10424 0.0
C60 C 0.97939 0.13299 0.08334 0.0
C61 C 0.95957 0.13085 0.05167 0.0
C62 C 0.97956 0.1176 0.09328 0.0
C63 C 0.95995 0.10013 0.07214 0.0
C64 C 0.94018 0.11368 0.0303 0.0
C65 C 0.94032 0.09847 0.04024 0.0
C66 C 0.04116 0.20719 0.9758 0.0
C67 C 0.03511 0.22534 0.1576 0.0
C68 C 0.09481 0.25645 0.11556 0.0
C69 C 0.11801 0.27155 0.1312 0.0
C70 C 0.13394 0.27264 0.1856 0.0
C71 C 0.12449 0.28476 0.09119 0.0
C72 C 0.14683 0.2987 0.10492 0.0
C73 C 0.15591 0.28637 0.19966 0.0
C74 C 0.16234 0.29924 0.15966 0.0
C75 C 0.04713 0.19976 0.24442 0.0
H76 H 0.9591 0.14243 0.04316 0.0
H77 H 0.99489 0.11929 0.11806 0.0
H78 H 0.92495 0.11213 0.00548 0.0
H79 H 0.925 0.08532 0.02181 0.0
H80 H 0.12942 0.26287 0.21738 0.0
H81 H 0.11231 0.28401 0.04887 0.0
H82 H 0.16803 0.28704 0.24185 0.0
H83 H 0.17952 0.30983 0.17224 0.0
Gd84 Gd 0.9085 0.85287 0.05944 0.0
Gd85 Gd 0.90847 0.81151 0.02801 0.0
C86 C 0.9723 0.82098 0.988 0.0
C87 C 0.96 0.80195 0.86384 0.0
C88 C 0.93389 0.80326 0.92304 0.0
C89 C 0.95057 0.8155 0.98493 0.0
C90 C 0.93828 0.79589 0.86259 0.0
C91 C 0.977 0.81452 0.92642 0.0
C92 C 0.98851 0.83224 0.0537 0.0
C93 C 0.9827 0.83715 0.11489 0.0
N94 N 0.94533 0.82111 0.04381 0.0
C95 C 0.96088 0.83128 0.10914 0.0
H96 H 0.95665 0.83519 0.15675 0.0
C97 C 0.89582 0.78347 0.8692 0.0
N98 N 0.91313 0.79767 0.92393 0.0
C99 C 0.89932 0.77571 0.80797 0.0
C100 C 0.92066 0.78218 0.80401 0.0
H101 H 0.87931 0.77852 0.87204 0.0
H102 H 0.99362 0.8187 0.92747 0.0
H103 H 0.89662 0.86541 0.91038 0.0
H104 H 1.00541 0.83678 0.05833 0.0
H105 H 0.99503 0.84553 0.16643 0.0
H106 H 0.96376 0.79662 0.81761 0.0
H107 H 0.89312 0.83986 0.20893 0.0
H108 H 0.83565 0.86063 0.89244 0.0
H109 H 0.86747 0.86787 0.8446 0.0
H110 H 0.81695 0.8439 0.10813 0.0
H111 H 0.88557 0.76479 0.76384 0.0
H112 H 0.92333 0.77612 0.7566 0.0
H113 H 0.81752 0.85249 -0.00754 0.0
H114 H 0.8646 0.83487 0.26875 0.0
N115 N 0.88026 0.85425 0.98936 0.0
C116 C 0.84806 0.85885 0.92009 0.0
C117 C 0.86592 0.86286 0.89277 0.0
C118 C 0.84694 0.85338 0.98462 0.0
C119 C 0.86347 0.85114 0.01842 0.0
C120 C 0.8822 0.861 0.92938 0.0
N121 N 0.87965 0.84481 0.11569 0.0
C122 C 0.86331 0.84654 0.08397 0.0
C123 C 0.86395 0.83808 0.21661 0.0
C124 C 0.847 0.8396 0.18423 0.0
C125 C 0.88022 0.84085 0.18177 0.0
C126 C 0.84654 0.84395 0.11733 0.0
H127 H 0.83443 0.83749 0.21143 0.0
O128 O 0.92395 0.8758 0.15621 0.0
O129 O 0.93157 0.84309 0.05841 0.0
O130 O 0.91655 0.82303 0.14878 0.0
O131 O 0.92668 0.85306 0.1655 0.0
O132 O 0.93485 0.86215 0.0016 0.0
O133 O 0.92165 0.88059 0.0498 0.0
O134 O 0.88289 0.78314 0.02013 0.0
O135 O 0.88809 0.82313 0.05043 0.0
O136 O 0.89892 0.84047 0.93722 0.0
O137 O 0.90765 0.81849 0.92054 0.0
O138 O 0.87346 0.79985 0.96479 0.0
O139 O 0.91402 0.79548 0.09515 0.0
C140 C 0.94354 0.85352 0.02165 0.0
C141 C 0.82995 0.84589 0.08339 0.0
C142 C 0.83022 0.8507 0.0174 0.0
C143 C 0.92643 0.88762 0.11952 0.0
C144 C 0.91852 0.89949 0.14185 0.0
C145 C 0.90168 0.89353 0.17675 0.0
C146 C 0.92785 0.91694 0.12918 0.0
C147 C 0.92059 0.92834 0.15247 0.0
C148 C 0.89415 0.90453 0.19826 0.0
C149 C 0.90351 0.92176 0.18648 0.0
C150 C 0.92564 0.83965 0.19051 0.0
C151 C 0.87033 0.8114 0.00073 0.0
C152 C 0.89478 0.78048 0.06744 0.0
C153 C 0.89369 0.76274 0.04768 0.0
C154 C 0.90697 0.76183 0.0047 0.0
C155 C 0.87996 0.74678 0.07073 0.0
C156 C 0.87951 0.73029 0.04882 0.0
C157 C 0.90668 0.74597 0.98374 0.0
C158 C 0.89319 0.7305 0.00507 0.0
C159 C 0.90211 0.8291 0.89618 0.0
H160 H 0.89436 0.88039 0.18802 0.0
H161 H 0.94098 0.92174 0.10284 0.0
H162 H 0.88107 0.8997 0.22468 0.0
H163 H 0.89724 0.92996 0.20372 0.0
H164 H 0.91778 0.77353 0.98733 0.0
H165 H 0.86958 0.74711 0.10415 0.0
H166 H 0.91709 0.74566 0.95042 0.0
H167 H 0.8936 0.71852 0.98746 0.0
Gd168 Gd 0.19973 0.03838 0.06437 0.0
Gd169 Gd 0.21362 1.00455 0.05645 0.0
C170 C 0.15861 0.9485 0.06105 0.0
C171 C 0.17306 0.94578 0.17766 0.0
C172 C 0.19431 0.97299 0.13839 0.0
C173 C 0.17764 0.96601 0.07523 0.0
C174 C 0.19257 0.96267 0.18901 0.0
C175 C 0.15613 0.93868 0.11364 0.0
C176 C 0.14317 0.94103 -0.00702 0.0
C177 C 0.14734 0.95068 0.94014 0.0
N178 N 0.18092 0.97563 0.02466 0.0
C179 C 0.16644 0.96803 0.95689 0.0
H180 H 0.16944 0.97533 0.91562 0.0
C181 C 0.23169 0.99456 0.19884 0.0
N182 N 0.2132 0.98902 0.14613 0.0
C183 C 0.23072 0.9849 0.25086 0.0
C184 C 0.21094 0.96911 0.24693 0.0
H185 H 0.24699 1.00681 0.20207 0.0
H186 H 0.14161 0.92524 0.1039 0.0
H187 H 0.20827 0.0619 0.23698 0.0
H188 H 0.12835 0.92762 0.97991 0.0
H189 H 0.13575 0.94485 0.8867 0.0
H190 H 0.17131 0.93773 0.21631 0.0
H191 H 0.21221 0.0435 0.90359 0.0
H192 H 0.26925 0.11297 0.29388 0.0
H193 H 0.2366 0.0908 0.32685 0.0
H194 H 0.28945 0.11554 0.06955 0.0
H195 H 0.24521 0.98965 0.29392 0.0
H196 H 0.21028 0.96156 0.28691 0.0
H197 H 0.28876 0.12206 0.19766 0.0
H198 H 0.24076 0.06561 0.85783 0.0
N199 N 0.22576 0.06625 0.15536 0.0
C200 C 0.25709 0.10001 0.2545 0.0
C201 C 0.23875 0.08753 0.27338 0.0
C202 C 0.25889 0.09607 0.18365 0.0
C203 C 0.24261 0.07896 0.13429 0.0
C204 C 0.2229 0.07093 0.22235 0.0
N205 N 0.2269 0.05889 0.01538 0.0
C206 C 0.24298 0.07532 0.06206 0.0
C207 C 0.24179 0.06844 0.91564 0.0
C208 C 0.25897 0.08495 0.9635 0.0
C209 C 0.22573 0.05564 0.94241 0.0
C210 C 0.25964 0.08867 0.03751 0.0
H211 H 0.27143 0.09483 0.94262 0.0
O212 O 0.18072 0.04397 0.98591 0.0
O213 O 0.18484 1.00788 0.0428 0.0
O214 O 0.20399 1.00644 0.94253 0.0
O215 O 0.18458 0.02029 0.94916 0.0
O216 O 0.17128 0.01849 0.10368 0.0
O217 O 0.18305 0.05146 0.0996 0.0
O218 O 0.24377 1.0054 0.05657 0.0
O219 O 0.22705 0.03396 0.05346 0.0
O220 O 0.20744 0.03595 0.17841 0.0
O221 O 0.2102 1.01071 0.16961 0.0
O222 O 0.24596 0.02931 0.1268 0.0
O223 O 0.21509 0.98671 0.96874 0.0
C224 C 0.16971 1.00351 0.07617 0.0
C225 C 0.27636 0.10531 0.08725 0.0
C226 C 0.27602 0.10898 0.16022 0.0
C227 C 0.17644 0.05258 0.03508 0.0
C228 C 0.18079 0.07075 0.02947 0.0
C229 C 0.19886 0.08214 0.00555 0.0
C230 C 0.16731 0.077 0.04779 0.0
C231 C 0.1724 0.09459 0.04338 0.0
C232 C 0.20381 0.09926 0.00079 0.0
C233 C 0.19082 0.10543 0.01951 0.0
C234 C 0.19065 1.01073 0.91172 0.0
C235 C 0.24578 0.04177 0.10048 0.0
C236 C 0.23513 0.99195 -0.00181 0.0
C237 C 0.23929 0.97729 0.00326 0.0
C238 C 0.22616 0.96365 0.03434 0.0
C239 C 0.256 0.97658 0.9776 0.0
C240 C 0.25942 0.96236 0.9842 0.0
C241 C 0.22996 0.95021 0.04377 0.0
C242 C 0.24649 0.94966 0.01992 0.0
C243 C 0.20935 0.02401 0.20654 0.0
H244 H 0.20919 0.07779 0.98979 0.0
H245 H 0.15325 0.06839 0.06616 0.0
H246 H 0.21782 0.10781 0.98211 0.0
H247 H 0.19509 0.11876 0.01421 0.0
H248 H 0.21283 0.96332 0.05133 0.0
H249 H 0.26587 0.98675 0.95159 0.0
H250 H 0.21993 0.94006 0.06953 0.0
H251 H 0.24905 0.93911 0.02966 0.0
Gd252 Gd 0.7762 0.51571 0.1872 0.0
Gd253 Gd 0.72589 0.51434 0.13006 0.0
C254 C 0.65739 0.46206 0.05797 0.0
C255 C 0.64543 0.45963 0.92938 0.0
C256 C 0.68121 0.48508 0.00447 0.0
C257 C 0.67752 0.47814 0.06394 0.0
C258 C 0.66498 0.47618 0.9369 0.0
C259 C 0.64164 0.45257 0.98989 0.0
C260 C 0.65336 0.45642 0.12116 0.0
C261 C 0.66888 0.46708 0.18836 0.0
N262 N 0.69299 0.4878 0.12894 0.0
C263 C 0.68858 0.48286 0.19131 0.0
H264 H 0.70039 0.49072 0.24355 0.0
C265 C 0.70304 0.50999 0.95999 0.0
N266 N 0.70005 0.5013 0.01434 0.0
C267 C 0.68749 0.50167 0.89188 0.0
C268 C 0.66852 0.48455 0.87986 0.0
H269 H 0.71762 0.52318 0.96814 0.0
H270 H 0.6262 0.4401 0.98404 0.0
H271 H 0.79983 0.54023 0.07319 0.0
H272 H 0.63811 0.44418 0.119 0.0
H273 H 0.66576 0.46317 0.23803 0.0
H274 H 0.63287 0.45249 0.87772 0.0
H275 H 0.78563 0.50704 0.34737 0.0
H276 H 0.86011 0.58895 0.19903 0.0
H277 H 0.83278 0.56952 0.07989 0.0
H278 H 0.86787 0.5798 0.43864 0.0
H279 H 0.6902 0.50845 0.84863 0.0
H280 H 0.65646 0.47817 0.82715 0.0
H281 H 0.87297 0.59277 0.33326 0.0
H282 H 0.81353 0.52226 0.4668 0.0
N283 N 0.8077 0.54319 0.18773 0.0
C284 C 0.84555 0.57611 0.19648 0.0
C285 C 0.83022 0.56515 0.12913 0.0
C286 C 0.84233 0.57001 0.25924 0.0
C287 C 0.82303 0.55323 0.2529 0.0
C288 C 0.8115 0.5485 0.12558 0.0
N289 N 0.80194 0.52941 0.30257 0.0
C290 C 0.82016 0.54603 0.31215 0.0
C291 C 0.81555 0.52915 0.42392 0.0
C292 C 0.83381 0.54671 0.43604 0.0
C293 C 0.79979 0.52056 0.35619 0.0
C294 C 0.83648 0.55526 0.37944 0.0
H295 H 0.846 0.55333 0.48851 0.0
O296 O 0.78161 0.49427 0.20253 0.0
O297 O 0.73949 0.49738 0.14756 0.0
O298 O 0.73549 0.51661 0.25094 0.0
O299 O 0.77305 0.5302 0.28639 0.0
O300 O 0.75448 0.49228 0.23148 0.0
O301 O 0.79335 0.50824 0.12121 0.0
O302 O 0.71997 0.5356 0.11965 0.0
O303 O 0.76286 0.53327 0.16738 0.0
O304 O 0.76624 0.51197 0.06522 0.0
O305 O 0.72869 0.49912 0.03167 0.0
O306 O 0.7464 0.53636 0.07979 0.0
O307 O 0.71271 0.52327 0.20865 0.0
C308 C 0.73586 0.48657 0.18804 0.0
C309 C 0.85524 0.5724 0.38717 0.0
C310 C 0.85814 0.57978 0.32717 0.0
C311 C 0.79303 0.4965 0.15549 0.0
C312 C 0.81387 0.49751 0.1793 0.0
C313 C 0.83382 0.51447 0.20118 0.0
C314 C 0.81407 0.48157 0.17957 0.0
C315 C 0.83413 0.48273 0.19945 0.0
C316 C 0.85353 0.51566 0.2214 0.0
C317 C 0.85373 0.49998 0.22003 0.0
C318 C 0.75441 0.52564 0.30172 0.0
C319 C 0.76546 0.54305 0.12215 0.0
C320 C 0.71163 0.53458 0.17505 0.0
C321 C 0.691 0.53383 0.16352 0.0
C322 C 0.67302 0.52076 0.10437 0.0
C323 C 0.68919 0.54624 0.21218 0.0
C324 C 0.66947 0.54559 0.20189 0.0
C325 C 0.65352 0.52008 0.0936 0.0
C326 C 0.65172 0.53238 0.14176 0.0
C327 C 0.74716 0.5033 0.01531 0.0
H328 H 0.83422 0.52686 0.20212 0.0
H329 H 0.7988 0.46838 0.16306 0.0
H330 H 0.8688 0.52883 0.23787 0.0
H331 H 0.8693 0.50133 0.23574 0.0
H332 H 0.67405 0.51115 0.06634 0.0
H333 H 0.70302 0.5562 0.25839 0.0
H334 H 0.63976 0.51001 0.04755 0.0
H335 H 0.63645 0.53166 0.13132 0.0
Gd336 Gd 0.51779 0.21651 0.16271 0.0
Gd337 Gd 0.51059 0.17245 0.14635 0.0
C338 C 0.57742 0.17967 0.21112 0.0
C339 C 0.58069 0.16787 0.09452 0.0
C340 C 0.54804 0.16782 0.10117 0.0
C341 C 0.55674 0.17583 0.1756 0.0
C342 C 0.55969 0.16327 0.06013 0.0
C343 C 0.58952 0.17601 0.16994 0.0
C344 C 0.58516 0.18678 0.28715 0.0
C345 C 0.57221 0.18954 0.32602 0.0
N346 N 0.54476 0.17941 0.21375 0.0
C347 C 0.55189 0.18555 0.28844 0.0
H348 H 0.54199 0.18727 0.31993 0.0
C349 C 0.51692 0.15221 -0.00022 0.0
N350 N 0.5276 0.16333 0.06982 0.0
C351 C 0.52789 0.14768 0.95652 0.0
C352 C 0.54956 0.15357 0.98639 0.0
H353 H 0.49984 0.14688 0.97672 0.0
H354 H 0.60551 0.17906 0.19613 0.0
H355 H 0.50327 0.21359 0.98058 0.0
H356 H 0.60084 0.18977 0.31654 0.0
H357 H 0.5778 0.19461 0.38509 0.0
H358 H 0.58996 0.16468 0.06369 0.0
H359 H 0.50825 0.22934 0.32246 0.0
H360 H 0.43553 0.19379 0.91838 0.0
H361 H 0.46997 0.2026 0.88557 0.0
H362 H 0.41819 0.198 0.14741 0.0
H363 H 0.51952 0.13943 0.90048 0.0
H364 H 0.55796 0.14986 0.95306 0.0
H365 H 0.41629 0.19191 0.01644 0.0
H366 H 0.47688 0.22483 0.36602 0.0
N367 N 0.48775 0.20918 0.06729 0.0
C368 C 0.45011 0.19827 0.96062 0.0
C369 C 0.46947 0.20314 0.94187 0.0
C370 C 0.4501 0.20017 0.03417 0.0
C371 C 0.46956 0.2061 0.08709 0.0
C372 C 0.48832 0.20898 -0.00372 0.0
N373 N 0.48991 0.21613 0.21022 0.0
C374 C 0.47065 0.2096 0.16077 0.0
C375 C 0.47478 0.22021 0.30817 0.0
C376 C 0.45444 0.21218 0.25833 0.0
C377 C 0.49251 0.22242 0.28299 0.0
C378 C 0.45229 0.20717 0.18349 0.0
H379 H 0.44074 0.21052 0.27797 0.0
O380 O 0.53112 0.24523 0.2154 0.0
O381 O 0.53509 0.20185 0.15525 0.0
O382 O 0.50813 0.18349 0.25578 0.0
O383 O 0.52467 0.21485 0.27718 0.0
O384 O 0.55123 0.22634 0.23445 0.0
O385 O 0.53581 0.23807 0.1113 0.0
O386 O 0.48851 0.14299 0.1086 0.0
O387 O 0.49239 0.1865 0.1579 0.0
O388 O 0.52463 0.20749 0.05998 0.0
O389 O 0.50658 0.17609 0.03312 0.0
O390 O 0.47771 0.16262 0.07459 0.0
O391 O 0.50379 0.15582 0.22382 0.0
C392 C 0.55321 0.21353 0.20278 0.0
C393 C 0.43254 0.20025 0.13094 0.0
C394 C 0.43146 0.19678 0.05639 0.0
C395 C 0.54022 0.25143 0.16445 0.0
C396 C 0.54028 0.26713 0.14425 0.0
C397 C 0.52035 0.26496 0.11437 0.0
C398 C 0.56017 0.28411 0.15183 0.0
C399 C 0.55984 0.29851 0.12815 0.0
C400 C 0.51989 0.27905 0.09219 0.0
C401 C 0.53926 0.29552 0.09867 0.0
C402 C 0.517 0.19996 0.29923 0.0
C403 C 0.47437 0.17432 0.10847 0.0
C404 C 0.49209 0.14048 0.17307 0.0
C405 C 0.49757 0.1267 0.17877 0.0
C406 C 0.50845 0.12324 0.13111 0.0
C407 C 0.49167 0.11663 0.23102 0.0
C408 C 0.49617 0.10301 0.23386 0.0
C409 C 0.51323 0.11006 0.13462 0.0
C410 C 0.50708 0.09996 0.18523 0.0
C411 C 0.51679 0.19146 0.01508 0.0
H412 H 0.50507 0.25226 0.10773 0.0
H413 H 0.57572 0.28591 0.17427 0.0
H414 H 0.50433 0.27717 0.06928 0.0
H415 H 0.5381 0.30607 0.08086 0.0
H416 H 0.51312 0.13057 0.09046 0.0
H417 H 0.48322 0.1191 0.26802 0.0
H418 H 0.52164 0.10758 0.09755 0.0
H419 H 0.51102 0.0898 0.18676 0.0
Gd420 Gd 0.87631 0.31224 0.23166 0.0
Gd421 Gd 0.92965 0.35387 0.24682 0.0
C422 C 0.93428 0.40721 0.24834 0.0
C423 C 0.9405 0.41122 0.12999 0.0
C424 C 0.93677 0.38501 0.16739 0.0
C425 C 0.93375 0.39092 0.23285 0.0
C426 C 0.94075 0.39534 0.11601 0.0
C427 C 0.93722 0.41712 0.19596 0.0
C428 C 0.93216 0.4132 0.31647 0.0
C429 C 0.93017 0.40326 0.36783 0.0
N430 N 0.93091 0.38102 0.28228 0.0
C431 C 0.92981 0.38722 0.35003 0.0
H432 H 0.92817 0.37965 0.3901 0.0
C433 C 0.94275 0.3646 0.09624 0.0
N434 N 0.93689 0.36958 0.15554 0.0
C435 C 0.9468 0.37441 0.04377 0.0
C436 C 0.94546 0.38968 0.05309 0.0
H437 H 0.94376 0.35278 0.08842 0.0
H438 H 0.93743 0.42956 0.20657 0.0
H439 H 0.87745 0.2871 0.08414 0.0
H440 H 0.9324 0.4256 0.33036 0.0
H441 H 0.92881 0.4079 0.42104 0.0
H442 H 0.94329 0.41923 0.09083 0.0
H443 H 0.86332 0.3132 0.39042 0.0
H444 H 0.86812 0.23854 0.13164 0.0
H445 H 0.87441 0.258 0.04687 0.0
H446 H 0.85613 0.24312 0.36996 0.0
H447 H 0.95089 0.37016 -0.00392 0.0
H448 H 0.94861 0.39725 0.01234 0.0
H449 H 0.86152 0.23318 0.25256 0.0
H450 H 0.85422 0.29451 0.47846 0.0
N451 N 0.87343 0.28458 0.19 0.0
C452 C 0.86947 0.25137 0.14847 0.0
C453 C 0.87298 0.2623 0.10044 0.0
C454 C 0.86735 0.25697 0.21715 0.0
C455 C 0.86935 0.27383 0.2365 0.0
C456 C 0.8747 0.27886 0.1219 0.0
N457 N 0.868 0.29553 0.31878 0.0
C458 C 0.8665 0.27946 0.30282 0.0
C459 C 0.85773 0.29015 0.42944 0.0
C460 C 0.85723 0.27402 0.41574 0.0
C461 C 0.86285 0.30068 0.37955 0.0
C462 C 0.86133 0.26835 0.3513 0.0
H463 H 0.85324 0.26588 0.45443 0.0
O464 O 0.84551 0.30864 0.24381 0.0
O465 O 0.89436 0.34187 0.23785 0.0
O466 O 0.92352 0.34989 0.35745 0.0
O467 O 0.90019 0.31857 0.33608 0.0
O468 O 0.87243 0.33343 0.29856 0.0
O469 O 0.84629 0.29521 0.14214 0.0
O470 O 0.9615 0.35786 0.25099 0.0
O471 O 0.91209 0.32367 0.23793 0.0
O472 O 0.88093 0.31565 0.11923 0.0
O473 O 0.90612 0.34681 0.13969 0.0
O474 O 0.93388 0.33401 0.17618 0.0
O475 O 0.95839 0.37354 0.33915 0.0
C476 C 0.8856 0.34722 0.27777 0.0
C477 C 0.85993 0.25178 0.33319 0.0
C478 C 0.86297 0.24612 0.2663 0.0
C479 C 0.83389 0.2971 0.17981 0.0
C480 C 0.81264 0.28028 0.17712 0.0
C481 C 0.81153 0.26391 0.17294 0.0
C482 C 0.79331 0.28026 0.17799 0.0
C483 C 0.77319 0.26384 0.17261 0.0
C484 C 0.79199 0.24792 0.16868 0.0
C485 C 0.77306 0.24783 0.16804 0.0
C486 C 0.91451 0.33498 0.38049 0.0
C487 C 0.92094 0.31941 0.19326 0.0
C488 C 0.97197 0.37112 0.31106 0.0
C489 C 0.99265 0.38777 0.30916 0.0
C490 C 0.99183 0.39598 0.25298 0.0
C491 C 1.01328 0.3953 0.36036 0.0
C492 C 0.03257 0.41084 0.35419 0.0
C493 C 1.01055 0.41081 0.24562 0.0
C494 C 0.03066 0.41805 0.29493 0.0
C495 C 0.89093 0.33046 0.09597 0.0
H496 H 0.82581 0.2634 0.1724 0.0
H497 H 0.79381 0.29276 0.18127 0.0
H498 H 0.79148 0.23542 0.16538 0.0
H499 H 0.75816 0.23512 0.16436 0.0
H500 H 0.97673 0.39079 0.21346 0.0
H501 H 1.01424 0.38924 0.40453 0.0
H502 H 1.00949 0.41667 0.20085 0.0
H503 H 0.04486 0.42932 0.28577 0.0
Gd504 Gd 0.40508 0.88075 0.78719 0.0
Gd505 Gd 0.45743 0.92423 0.82655 0.0
C506 C 0.51863 0.92229 0.86271 0.0
C507 C 0.53672 0.93886 0.99092 0.0
C508 C 0.50275 0.93533 0.93138 0.0
C509 C 0.50165 0.92511 0.86683 0.0
C510 C 0.5207 0.94284 -0.00667 0.0
C511 C 0.5357 0.92861 0.92568 0.0
C512 C 0.51856 0.91397 0.7947 0.0
C513 C 0.50235 0.90936 0.73257 0.0
N514 N 0.48504 0.91933 0.80659 0.0
C515 C 0.4859 0.91246 0.73925 0.0
H516 H 0.474 0.90911 0.68989 0.0
C517 C 0.49004 0.95213 0.98902 0.0
N518 N 0.48732 0.93928 0.93161 0.0
C519 C 0.50737 0.95974 0.05197 0.0
C520 C 0.52255 0.9548 0.05471 0.0
H521 H 0.47829 0.95595 0.98713 0.0
H522 H 0.54864 0.92627 0.92373 0.0
H523 H 0.38524 0.89094 0.92024 0.0
H524 H 0.53145 0.9118 0.78901 0.0
H525 H 0.50257 0.90351 0.67928 0.0
H526 H 0.55044 0.94427 0.0383 0.0
H527 H 0.39247 0.85716 0.61468 0.0
H528 H 0.32271 0.88043 0.82158 0.0
H529 H 0.35239 0.89049 0.9319 0.0
H530 H 0.31063 0.85565 0.56712 0.0
H531 H 0.50903 0.96942 0.09824 0.0
H532 H 0.53609 0.96083 0.10333 0.0
H533 H 0.30769 0.86823 0.68498 0.0
H534 H 0.36308 0.84402 0.49967 0.0
N535 N 0.37494 0.88198 0.80367 0.0
C536 C 0.33728 0.88083 0.81583 0.0
C537 C 0.35394 0.88643 0.87826 0.0
C538 C 0.33928 0.87524 0.74693 0.0
C539 C 0.35842 0.87569 0.74266 0.0
C540 C 0.37264 0.88673 0.87124 0.0
N541 N 0.3776 0.86741 0.67599 0.0
C542 C 0.35981 0.86822 0.67671 0.0
C543 C 0.36199 0.85084 0.549 0.0
C544 C 0.34399 0.85222 0.54806 0.0
C545 C 0.37855 0.85824 0.61414 0.0
C546 C 0.34251 0.86067 0.6127 0.0
H547 H 0.33107 0.84631 0.49769 0.0
O548 O 0.3952 0.85248 0.76223 0.0
O549 O 0.44172 0.89429 0.81747 0.0
O550 O 0.44329 0.90768 0.70851 0.0
O551 O 0.40618 0.89343 0.69426 0.0
O552 O 0.42341 0.8706 0.73355 0.0
O553 O 0.39163 0.86464 0.86188 0.0
O554 O 0.45141 0.93787 0.74905 0.0
O555 O 0.42166 0.9108 0.80939 0.0
O556 O 0.41839 0.89316 0.90882 0.0
O557 O 0.45381 0.91915 0.9361 0.0
O558 O 0.44099 0.93588 0.88544 0.0
O559 O 0.48285 0.9515 0.82615 0.0
C560 C 0.44288 0.88258 0.77464 0.0
C561 C 0.32403 0.86126 0.6158 0.0
C562 C 0.32237 0.86845 0.68288 0.0
C563 C 0.38772 0.84978 0.81939 0.0
C564 C 0.36605 0.83315 0.80658 0.0
C565 C 0.34708 0.83347 0.79592 0.0
C566 C 0.36441 0.81663 0.80451 0.0
C567 C 0.34393 0.80038 0.79154 0.0
C568 C 0.3267 0.81743 0.7829 0.0
C569 C 0.32507 0.80097 0.78059 0.0
C570 C 0.42325 0.90048 0.66792 0.0
C571 C 0.42104 0.92263 0.85327 0.0
C572 C 0.47044 0.95293 0.77545 0.0
C573 C 0.47063 0.96986 0.78961 0.0
C574 C 0.46885 0.9767 0.85717 0.0
C575 C 0.47239 0.97922 0.73513 0.0
C576 C 0.47245 0.99537 0.74829 0.0
C577 C 0.46855 0.99243 0.87015 0.0
C578 C 0.47027 1.00167 0.81635 0.0
C579 C 0.43705 0.90676 0.95486 0.0
H580 H 0.34794 0.84603 0.79778 0.0
H581 H 0.37917 0.81652 0.81387 0.0
H582 H 0.3121 0.81774 0.77437 0.0
H583 H 0.30902 0.78868 0.7693 0.0
H584 H 0.46769 0.9699 0.90004 0.0
H585 H 0.47404 0.97407 0.68326 0.0
H586 H 0.46697 0.99751 0.92225 0.0
H587 H 0.46968 1.01371 0.82802 0.0
Gd588 Gd 0.29164 0.55253 0.71705 0.0
Gd589 Gd 0.30907 0.52071 0.72012 0.0
C590 C 0.38283 0.54721 0.76195 0.0
C591 C 0.38535 0.5346 0.64526 0.0
C592 C 0.34981 0.52511 0.66539 0.0
C593 C 0.35981 0.53683 0.73523 0.0
C594 C 0.36247 0.52337 0.62071 0.0
C595 C 0.39552 0.54654 0.71573 0.0
C596 C 0.39241 0.55738 0.83519 0.0
C597 C 0.37909 0.55625 0.88082 0.0
N598 N 0.34706 0.53704 0.77884 0.0
C599 C 0.35638 0.54575 0.85203 0.0
H600 H 0.34672 0.54499 0.88932 0.0
C601 C 0.31727 0.50022 0.58098 0.0
N602 N 0.32769 0.51432 0.64344 0.0
C603 C 0.32908 0.49803 0.53468 0.0
C604 C 0.35176 0.50989 0.55394 0.0
H605 H 0.29969 0.49121 0.5652 0.0
H606 H 0.4132 0.55466 0.73498 0.0
H607 H 0.25308 0.53 0.55532 0.0
H608 H 0.41 0.56555 0.85771 0.0
H609 H 0.38631 0.56351 0.93831 0.0
H610 H 0.39533 0.53368 0.61122 0.0
H611 H 0.30579 0.57735 0.88855 0.0
H612 H 0.19238 0.51892 0.59121 0.0
H613 H 0.21378 0.51692 0.5075 0.0
H614 H 0.21185 0.54862 0.84549 0.0
H615 H 0.32067 0.48725 0.48409 0.0
H616 H 0.36091 0.50813 0.51813 0.0
H617 H 0.19174 0.53052 0.71774 0.0
H618 H 0.28778 0.58321 0.97776 0.0
N619 N 0.25404 0.53899 0.66595 0.0
C620 C 0.20968 0.52472 0.61269 0.0
C621 C 0.22171 0.52358 0.56526 0.0
C622 C 0.22025 0.53378 0.6869 0.0
C623 C 0.24281 0.5411 0.71207 0.0
C624 C 0.24404 0.53099 0.59277 0.0
N625 N 0.27605 0.55911 0.80507 0.0
C626 C 0.25415 0.55147 0.78375 0.0
C627 C 0.27813 0.5742 0.92349 0.0
C628 C 0.25547 0.56583 0.90347 0.0
C629 C 0.28827 0.57091 0.87294 0.0
C630 C 0.24322 0.55452 0.83256 0.0
H631 H 0.24767 0.56848 0.94262 0.0
O632 O 0.30652 0.58181 0.7427 0.0
O633 O 0.32049 0.54977 0.72233 0.0
O634 O 0.31184 0.53571 0.83144 0.0
O635 O 0.28277 0.53898 0.80651 0.0
O636 O 0.32543 0.57184 0.79552 0.0
O637 O 0.28848 0.56495 0.63107 0.0
O638 O 0.29028 0.50294 0.78398 0.0
O639 O 0.28065 0.52346 0.70246 0.0
O640 O 0.29161 0.54208 0.60296 0.0
O641 O 0.30572 0.52371 0.60557 0.0
O642 O 0.27646 0.50087 0.63475 0.0
O643 O 0.31114 0.49765 0.7343 0.0
C644 C 0.33505 0.56433 0.77138 0.0
C645 C 0.22057 0.54654 0.80864 0.0
C646 C 0.20912 0.53622 0.73593 0.0
C647 C 0.29777 0.58101 0.67667 0.0
C648 C 0.28591 0.59023 0.67149 0.0
C649 C 0.26315 0.58024 0.64138 0.0
C650 C 0.29741 0.60927 0.69802 0.0
C651 C 0.28621 0.61818 0.69553 0.0
C652 C 0.25199 0.58898 0.63935 0.0
C653 C 0.26339 0.60782 0.66636 0.0
C654 C 0.29603 0.53667 0.85075 0.0
C655 C 0.26685 0.50908 0.65159 0.0
C656 C 0.29599 0.49154 0.76842 0.0
C657 C 0.27793 0.47201 0.73969 0.0
C658 C 0.27027 0.46389 0.66391 0.0
C659 C 0.2678 0.46144 0.78693 0.0
C660 C 0.25002 0.44302 0.75796 0.0
C661 C 0.25294 0.4458 0.63529 0.0
C662 C 0.24291 0.43546 0.68161 0.0
C663 C 0.29814 0.53208 0.57198 0.0
H664 H 0.25388 0.56569 0.61898 0.0
H665 H 0.31498 0.61709 0.7211 0.0
H666 H 0.23445 0.58113 0.61619 0.0
H667 H 0.2544 0.61434 0.66288 0.0
H668 H 0.27765 0.47152 0.62646 0.0
H669 H 0.27348 0.46758 0.84549 0.0
H670 H 0.24727 0.43974 0.57673 0.0
H671 H 0.22968 0.42136 0.65743 0.0
Gd672 Gd 0.59734 0.74402 0.86783 0.0
Gd673 Gd 0.6001 0.70395 0.83533 0.0
C674 C 0.54045 0.64605 0.77865 0.0
C675 C 0.54582 0.63682 0.88883 0.0
C676 C 0.57173 0.6674 0.88234 0.0
C677 C 0.55938 0.66357 0.81246 0.0
C678 C 0.56518 0.65399 0.92101 0.0
C679 C 0.53362 0.63279 0.81754 0.0
C680 C 0.52945 0.64215 0.70573 0.0
C681 C 0.53747 0.65547 0.66812 0.0
N682 N 0.56664 0.67653 0.77568 0.0
C683 C 0.55627 0.67265 0.70399 0.0
H684 H 0.56244 0.68276 0.67409 0.0
C685 C 0.60493 0.68729 0.97541 0.0
N686 N 0.59086 0.68386 0.91067 0.0
C687 C 0.59883 0.67463 0.01657 0.0
C688 C 0.57877 0.65797 0.98959 0.0
H689 H 0.62065 0.70003 -0.00401 0.0
H690 H 0.51915 0.61925 0.79241 0.0
H691 H 0.59374 0.75989 0.03215 0.0
H692 H 0.51505 0.62878 0.67749 0.0
H693 H 0.52924 0.65251 0.61143 0.0
H694 H 0.54053 0.62635 0.91766 0.0
H695 H 0.6247 0.756 0.74049 0.0
H696 H 0.65713 0.80563 0.15627 0.0
H697 H 0.61806 0.78418 0.14669 0.0
H698 H 0.69902 0.81604 0.9817 0.0
H699 H 0.60972 0.67763 0.0686 0.0
H700 H 0.57424 0.64805 0.02104 0.0
H701 H 0.68736 0.81726 0.09449 0.0
H702 H 0.66143 0.77883 0.73441 0.0
N703 N 0.61911 0.76685 0.9792 0.0
C704 C 0.64658 0.79491 0.10616 0.0
C705 C 0.62453 0.78287 0.10093 0.0
C706 C 0.65446 0.79356 0.04535 0.0
C707 C 0.64003 0.77937 0.98136 0.0
C708 C 0.61084 0.76914 0.03608 0.0
N709 N 0.63163 0.76584 0.85563 0.0
C710 C 0.64644 0.77893 0.9175 0.0
C711 C 0.65747 0.77897 0.78635 0.0
C712 C 0.67317 0.79207 0.84997 0.0
C713 C 0.63663 0.76596 0.79009 0.0
C714 C 0.66768 0.79233 0.91646 0.0
H715 H 0.68932 0.8021 0.84693 0.0
O716 O 0.59149 0.76011 0.80275 0.0
O717 O 0.57714 0.71345 0.82106 0.0
O718 O 0.59809 0.71206 0.73048 0.0
O719 O 0.5872 0.73249 0.74632 0.0
O720 O 0.56453 0.72451 0.88583 0.0
O721 O 0.5765 0.75386 0.89016 0.0
O722 O 0.62737 0.70047 0.84537 0.0
O723 O 0.6204 0.73456 0.85439 0.0
O724 O 0.60256 0.73683 0.97424 0.0
O725 O 0.58882 0.70594 0.93544 0.0
O726 O 0.6314 0.72342 0.92334 0.0
O727 O 0.60309 0.68887 0.74183 0.0
C728 C 0.56054 0.70957 0.84551 0.0
C729 C 0.68257 0.80577 0.98126 0.0
C730 C 0.67595 0.80642 0.04555 0.0
C731 C 0.57959 0.76267 0.84038 0.0
C732 C 0.58463 0.7816 0.86294 0.0
C733 C 0.60626 0.79597 0.89787 0.0
C734 C 0.5681 0.78552 0.85135 0.0
C735 C 0.57338 0.80364 0.87629 0.0
C736 C 0.61153 0.8137 0.92185 0.0
C737 C 0.59535 0.8175 0.91152 0.0
C738 C 0.59091 0.72161 0.70543 0.0
C739 C 0.63663 0.73825 0.90557 0.0
C740 C 0.62017 0.68999 0.7791 0.0
C741 C 0.61944 0.67281 0.77064 0.0
C742 C 0.6134 0.66279 0.82224 0.0
C743 C 0.6246 0.66618 0.71038 0.0
C744 C 0.6233 0.64953 0.70154 0.0
C745 C 0.61206 0.64637 0.81372 0.0
C746 C 0.61691 0.63974 0.75384 0.0
C747 C 0.59476 0.7206 0.98594 0.0
H748 H 0.61918 0.7935 0.90663 0.0
H749 H 0.55129 0.77457 0.82444 0.0
H750 H 0.62834 0.82463 0.94875 0.0
H751 H 0.60014 0.83149 0.93052 0.0
H752 H 0.60983 0.66763 0.86958 0.0
H753 H 0.62935 0.67381 0.67024 0.0
H754 H 0.60736 0.6388 0.85399 0.0
H755 H 0.61603 0.62705 0.7491 0.0
H756 H 0.13128 0.32014 0.07658 0.0
H757 H 0.1471 0.34559 0.02014 0.0
H758 H 0.19606 0.33485 0.98522 0.0
H759 H 0.18043 0.30959 0.04122 0.0
H760 H 0.19353 0.37762 0.06875 0.0
H761 H 0.16889 0.33715 0.78178 0.0
H762 H 0.15543 0.32761 0.84939 0.0
H763 H 0.1815 0.33093 0.84946 0.0
C764 C 0.14519 0.32304 0.05575 0.0
C765 C 0.15456 0.3128 0.06337 0.0
C766 C 0.15434 0.33768 0.02409 0.0
C767 C 0.17278 0.34215 -0.00174 0.0
C768 C 0.18178 0.33165 0.00425 0.0
H769 H 0.26808 0.43903 0.88532 0.0
H770 H 0.24919 0.41576 0.94891 0.0
C771 C 0.17284 0.31721 0.03646 0.0
C772 C 0.18304 0.35795 0.96629 0.0
H773 H 0.19454 0.36893 0.8085 0.0
C774 C 0.19365 0.37574 0.01174 0.0
C775 C 0.18316 0.35554 0.89187 0.0
C776 C 0.17151 0.3368 0.83989 0.0
C777 C 0.20471 0.39112 0.98507 0.0
C778 C 0.20531 0.3887 0.91104 0.0
C779 C 0.19429 0.37088 0.86538 0.0
C780 C 0.21681 0.40431 0.87883 0.0
C781 C 0.21547 0.40985 0.0361 0.0
C782 C 0.205 0.4059 0.81899 0.0
C783 C 0.21573 0.41918 0.78292 0.0
C784 C 0.23866 0.43118 0.80505 0.0
C785 C 0.25043 0.43016 0.86716 0.0
C786 C 0.23962 0.41681 0.90349 0.0
H787 H 0.20931 0.40939 0.08546 0.0
H788 H 0.23335 0.41603 0.05433 0.0
H789 H 0.21271 0.41882 0.00786 0.0
H790 H 0.18743 0.39654 0.79899 0.0
H791 H 0.20607 0.41971 0.73602 0.0
H792 H 0.84145 0.80648 0.87788 0.0
H793 H 0.80283 0.79579 0.85774 0.0
H794 H 0.80786 0.79547 0.08406 0.0
H795 H 0.84596 0.80448 0.10154 0.0
H796 H 0.77177 0.7686 0.01874 0.0
H797 H 0.77151 0.81887 0.88257 0.0
H798 H 0.77793 0.80511 0.82722 0.0
H799 H 0.79631 0.81991 0.91548 0.0
C800 C 0.83445 0.8045 0.92384 0.0
C801 C 0.8475 0.80752 -0.00726 0.0
C802 C 0.81213 0.79847 0.91244 0.0
C803 C 0.80182 0.79535 0.96974 0.0
C804 C 0.81486 0.79793 0.03829 0.0
H805 H 0.67012 0.75913 0.02997 0.0
H806 H 0.70944 0.7734 0.04476 0.0
C807 C 0.83705 0.80355 0.04909 0.0
C808 C 0.77744 0.78837 0.95782 0.0
H809 H 0.73631 0.79318 0.87652 0.0
C810 C 0.76434 0.7743 0.9883 0.0
C811 C 0.76675 0.79519 0.9171 0.0
C812 C 0.77892 0.81071 0.88439 0.0
C813 C 0.74168 0.76701 0.97923 0.0
C814 C 0.73114 0.77388 0.93892 0.0
C815 C 0.74401 0.78776 0.90762 0.0
C816 C 0.70696 0.76685 0.92911 0.0
C817 C 0.72906 0.75151 0.01161 0.0
C818 C 0.69189 0.75908 0.85905 0.0
C819 C 0.66915 0.75102 0.85051 0.0
C820 C 0.6607 0.75085 0.91169 0.0
C821 C 0.6759 0.7593 0.98141 0.0
C822 C 0.69853 0.76727 0.98997 0.0
H823 H 0.73756 0.74445 0.02253 0.0
H824 H 0.72737 0.75695 0.06442 0.0
H825 H 0.71244 0.74138 0.97467 0.0
H826 H 0.69757 0.75846 0.81067 0.0
H827 H 0.65806 0.7441 0.796 0.0
H828 H 0.25537 0.93043 0.92213 0.0
H829 H 0.2831 0.92572 0.89353 0.0
H830 H 0.32838 0.98374 0.9405 0.0
H831 H 0.30098 0.98865 0.97683 0.0
H832 H 0.30364 0.93001 0.8011 0.0
H833 H 0.36766 0.97491 0.06107 0.0
H834 H 0.34039 0.97004 0.04665 0.0
H835 H 0.35987 0.98692 0.0098 0.0
C836 C 0.27134 0.94235 0.92817 0.0
C837 C 0.27595 0.96001 0.95486 0.0
C838 C 0.28728 0.93957 0.91053 0.0
C839 C 0.30842 0.9543 0.91678 0.0
C840 C 0.31266 0.97201 0.93801 0.0
H841 H 0.39227 0.9214 0.73985 0.0
H842 H 0.36634 0.93048 0.74888 0.0
C843 C 0.29674 0.97485 0.95753 0.0
C844 C 0.32551 0.95066 0.90138 0.0
H845 H 0.37736 0.96142 0.97194 0.0
C846 C 0.31971 0.9368 0.83907 0.0
C847 C 0.34665 0.95937 0.95021 0.0
C848 C 0.35398 0.9735 0.02098 0.0
C849 C 0.33372 0.93096 0.82568 0.0
C850 C 0.35503 0.93981 0.87411 0.0
C851 C 0.36113 0.95423 0.93475 0.0
C852 C 0.37096 0.93408 0.86613 0.0
C853 C 0.32476 0.91483 0.76093 0.0
C854 C 0.38358 0.93387 0.92871 0.0
C855 C 0.3994 0.92977 0.9238 0.0
C856 C 0.40235 0.92466 0.85575 0.0
C857 C 0.3897 0.92453 0.79276 0.0
C858 C 0.37464 0.92961 0.79808 0.0
H859 H 0.30666 0.90588 0.74722 0.0
H860 H 0.32898 0.91974 0.71237 0.0
H861 H 0.33146 0.90649 0.77106 0.0
H862 H 0.38142 0.93709 0.98222 0.0
H863 H 0.40927 0.93041 0.97352 0.0
H864 H 0.43722 0.15613 -0.00355 0.0
H865 H 0.39929 0.13635 -0.00243 0.0
H866 H 0.41907 0.15207 0.23318 0.0
H867 H 0.45754 0.17181 0.23173 0.0
H868 H 0.39038 0.11631 0.18921 0.0
H869 H 0.35179 0.14296 0.02318 0.0
H870 H 0.36664 0.13654 0.97441 0.0
H871 H 0.38105 0.15488 0.05753 0.0
C872 C 0.43355 0.15592 0.0489 0.0
C873 C 0.45088 0.16623 0.1139 0.0
C874 C 0.4115 0.14442 0.04953 0.0
C875 C 0.40538 0.14248 0.11539 0.0
C876 C 0.42268 0.15306 0.18093 0.0
H877 H 0.27899 0.06898 0.21793 0.0
H878 H 0.31629 0.09309 0.22299 0.0
C879 C 0.44492 0.1647 0.18026 0.0
C880 C 0.38146 0.12875 0.11493 0.0
H881 H 0.32754 0.11319 0.0361 0.0
C882 C 0.37679 0.1159 0.15614 0.0
C883 C 0.36297 0.1276 0.07202 0.0
C884 C 0.36584 0.14135 0.02993 0.0
C885 C 0.355 0.10209 0.15404 0.0
C886 C 0.33654 0.10077 0.11026 0.0
C887 C 0.34117 0.1137 0.0695 0.0
C888 C 0.31262 0.08626 0.10647 0.0
C889 C 0.35202 0.08855 0.19736 0.0
C890 C 0.29688 0.07422 0.03929 0.0
C891 C 0.27512 0.0603 0.03635 0.0
C892 C 0.26786 0.05812 0.10028 0.0
C893 C 0.28352 0.07027 0.16713 0.0
C894 C 0.30521 0.08409 0.17013 0.0
H895 H 0.36672 0.08789 0.21019 0.0
H896 H 0.34925 0.09278 0.24996 0.0
H897 H 0.33771 0.07471 0.16721 0.0
H898 H 0.30158 0.07521 0.9887 0.0
H899 H 0.26408 0.05097 0.98389 0.0
H900 H 0.91443 0.29373 0.27449 0.0
H901 H 0.92573 0.27208 0.26044 0.0
H902 H 0.9556 0.29425 0.09355 0.0
H903 H 0.94047 0.31264 0.0974 0.0
H904 H 0.94781 0.26567 0.05614 0.0
H905 H 0.97688 0.2759 0.35262 0.0
H906 H 0.94792 0.26521 0.32459 0.0
H907 H 0.96596 0.28825 0.31967 0.0
C908 C 0.92243 0.29326 0.2324 0.0
C909 C 0.92578 0.30469 0.18565 0.0
C910 C 0.92985 0.28128 0.22614 0.0
C911 C 0.94259 0.28149 0.17743 0.0
C912 C 0.94581 0.29309 0.13135 0.0
H913 H 0.03409 0.24769 0.26603 0.0
H914 H 1.01147 0.25988 0.26495 0.0
C915 C 0.93721 0.30399 0.13419 0.0
C916 C 0.95289 0.27019 0.17305 0.0
H917 H 0.97835 0.25401 0.27321 0.0
C918 C 0.95504 0.26375 0.10472 0.0
C919 C 0.96232 0.26691 0.23476 0.0
C920 C 0.96336 0.27458 0.312 0.0
C921 C 0.96721 0.25567 0.09704 0.0
C922 C 0.97584 0.25169 0.15814 0.0
C923 C 0.97238 0.25701 0.22556 0.0
C924 C 0.9898 0.2435 0.15613 0.0
C925 C 0.97167 0.25275 0.02376 0.0
C926 C 0.98627 0.23006 0.09534 0.0
C927 C 1.00069 0.22401 0.09402 0.0
C928 C 1.01787 0.22975 0.15605 0.0
C929 C 1.02078 0.24248 0.21751 0.0
C930 C 1.00744 0.24942 0.21711 0.0
H931 H 0.97047 0.26192 -0.00748 0.0
H932 H 0.98825 0.25533 0.02995 0.0
H933 H 0.95925 0.23858 0.99043 0.0
H934 H 0.97249 0.2242 0.04809 0.0
H935 H 0.99847 0.21497 0.04428 0.0
H936 H 0.87762 0.72259 0.18511 0.0
H937 H 0.86064 0.69237 0.20965 0.0
H938 H 0.83303 0.66663 0.97816 0.0
H939 H 0.85001 0.6965 0.95388 0.0
H940 H 0.81891 0.66082 0.18172 0.0
H941 H 0.86531 0.64279 0.02746 0.0
H942 H 0.87131 0.66562 0.05113 0.0
H943 H 0.84923 0.64869 0.97271 0.0
C944 C 0.86747 0.71051 0.13948 0.0
C945 C 0.86522 0.71232 0.06726 0.0
C946 C 0.85785 0.69306 0.15353 0.0
C947 C 0.8458 0.67673 0.09594 0.0
C948 C 0.84263 0.67864 0.02424 0.0
H949 H 0.77582 0.5585 0.01193 0.0
H950 H 0.7961 0.59053 0.01342 0.0
C951 C 0.85219 0.69593 0.0103 0.0
C952 C 0.83701 0.65783 0.1094 0.0
H953 H 0.83602 0.61844 0.05727 0.0
C954 C 0.82289 0.65168 0.15494 0.0
C955 C 0.84196 0.64547 0.07546 0.0
C956 C 0.85795 0.651 0.02959 0.0
C957 C 0.81305 0.63371 0.16438 0.0
C958 C 0.81758 0.6212 0.12879 0.0
C959 C 0.83216 0.62759 0.08487 0.0
C960 C 0.80631 0.60117 0.13114 0.0
C961 C 0.79703 0.62809 0.21004 0.0
C962 C 0.80548 0.5956 0.19685 0.0
C963 C 0.79375 0.57682 0.19607 0.0
C964 C 0.78258 0.56293 0.12945 0.0
C965 C 0.7843 0.56861 0.06453 0.0
C966 C 0.79594 0.58715 0.0653 0.0
H967 H 0.79109 0.63729 0.21812 0.0
H968 H 0.78271 0.61396 0.1843 0.0
H969 H 0.80519 0.62863 0.26476 0.0
H970 H 0.81367 0.60576 0.24914 0.0
H971 H 0.79269 0.57322 0.24737 0.0
H972 H 0.23989 0.50584 0.74072 0.0
H973 H 0.19974 0.48735 0.70615 0.0
H974 H 0.19901 0.47204 0.48098 0.0
H975 H 0.23892 0.48937 0.51673 0.0
H976 H 0.16937 0.48759 0.63272 0.0
H977 H 0.15684 0.42326 0.48848 0.0
H978 H 0.1836 0.4425 0.53967 0.0
H979 H 0.17235 0.44043 0.44566 0.0
C980 C 0.23107 0.49846 0.68394 0.0
C981 C 0.24256 0.49925 0.63124 0.0
C982 C 0.20804 0.4878 0.664 0.0
C983 C 0.19588 0.47769 0.59078 0.0
C984 C 0.20757 0.47889 0.53822 0.0
H985 H 0.06405 0.44736 0.40454 0.0
H986 H 0.10231 0.46221 0.46598 0.0
C987 C 0.23051 0.48909 0.55848 0.0
C988 C 0.17115 0.46648 0.56881 0.0
H989 H 0.12612 0.42624 0.45752 0.0
C990 C 0.16001 0.47408 0.59511 0.0
C991 C 0.15837 0.44847 0.52168 0.0
C992 C 0.16844 0.43815 0.49811 0.0
C993 C 0.13697 0.46469 0.57353 0.0
C994 C 0.12435 0.44747 0.52041 0.0
C995 C 0.13542 0.43953 0.49677 0.0
C996 C 0.10008 0.438 0.48574 0.0
C997 C 0.12658 0.47335 0.60987 0.0
C998 C 0.08537 0.41902 0.47293 0.0
C999 C 0.06316 0.41014 0.43385 0.0
C1000 C 0.05501 0.42001 0.4066 0.0
C1001 C 0.06956 0.43907 0.4229 0.0
C1002 C 0.09166 0.44778 0.45993 0.0
H1003 H 0.13643 0.48135 0.66718 0.0
H1004 H 0.12605 0.48298 0.58021 0.0
H1005 H 0.10975 0.46306 0.61065 0.0
H1006 H 0.09116 0.41095 0.49175 0.0
H1007 H 0.05266 0.39549 0.42236 0.0
H1008 H 0.59965 0.61494 0.61266 0.0
H1009 H 0.61074 0.60134 0.52215 0.0
H1010 H 0.67035 0.65353 0.55857 0.0
H1011 H 0.65939 0.66724 0.65047 0.0
H1012 H 0.62226 0.60983 0.39188 0.0
H1013 H 0.6913 0.61962 0.60066 0.0
H1014 H 0.66997 0.62174 0.62537 0.0
H1015 H 0.69081 0.63951 0.59637 0.0
C1016 C 0.61506 0.62356 0.60104 0.0
C1017 C 0.62876 0.64212 0.63917 0.0
C1018 C 0.62135 0.61579 0.54917 0.0
C1019 C 0.64154 0.62634 0.53451 0.0
C1020 C 0.65486 0.64507 0.56993 0.0
H1021 H 0.6992 0.58231 0.26504 0.0
H1022 H 0.69408 0.60357 0.34364 0.0
C1023 C 0.64849 0.65292 0.62179 0.0
C1024 C 0.64864 0.61733 0.48393 0.0
H1025 H 0.68418 0.60364 0.48007 0.0
C1026 C 0.63594 0.60864 0.41095 0.0
C1027 C 0.66654 0.61583 0.50883 0.0
C1028 C 0.68043 0.62454 0.58714 0.0
C1029 C 0.64033 0.59815 0.36268 0.0
C1030 C 0.65761 0.59596 0.38842 0.0
C1031 C 0.67089 0.60526 0.46053 0.0
C1032 C 0.66118 0.58314 0.34269 0.0
C1033 C 0.6263 0.58938 0.28456 0.0
C1034 C 0.64466 0.56454 0.31789 0.0
C1035 C 0.64757 0.55238 0.27354 0.0
C1036 C 0.66713 0.55852 0.25306 0.0
C1037 C 0.68397 0.5771 0.27996 0.0
C1038 C 0.68103 0.58929 0.32453 0.0
H1039 H 0.61851 0.59663 0.26786 0.0
H1040 H 0.63601 0.58911 0.24626 0.0
H1041 H 0.61309 0.57514 0.27934 0.0
H1042 H 0.62944 0.55939 0.33289 0.0
H1043 H 0.63445 0.53812 0.25537 0.0
H1044 H 0.47384 0.06608 0.2034 0.0
H1045 H 0.46762 0.04746 0.2897 0.0
H1046 H 0.49899 0.09574 0.46987 0.0
H1047 H 0.50472 0.11439 0.38306 0.0
H1048 H 0.49756 0.04825 0.38785 0.0
H1049 H 0.44669 0.06254 0.53359 0.0
H1050 H 0.45167 0.06886 0.45025 0.0
H1051 H 0.47182 0.08282 0.53666 0.0
C1052 C 0.47905 0.07268 0.26143 0.0
C1053 C 0.48973 0.0917 0.28647 0.0
C1054 C 0.47554 0.06203 0.31078 0.0
C1055 C 0.48267 0.07008 0.38658 0.0
C1056 C 0.49285 0.08907 0.41177 0.0
H1057 H 0.49573 0.03243 0.77084 0.0
H1058 H 0.4976 0.04969 0.68162 0.0
C1059 C 0.49617 0.09975 0.36215 0.0
C1060 C 0.48072 0.0587 0.43856 0.0
H1061 H 0.46174 0.04733 0.58647 0.0
C1062 C 0.48954 0.04796 0.43085 0.0
C1063 C 0.47029 0.05824 0.4949 0.0
C1064 C 0.45938 0.06859 0.50403 0.0
C1065 C 0.48861 0.03713 0.47844 0.0
C1066 C 0.47845 0.03687 0.53525 0.0
C1067 C 0.46956 0.04754 0.54296 0.0
C1068 C 0.47742 0.02605 0.58857 0.0
C1069 C 0.49901 0.02639 0.46874 0.0
C1070 C 0.46548 1.00692 0.5661 0.0
C1071 C 0.4642 0.99691 0.61734 0.0
C1072 C 0.47477 1.00583 0.69224 0.0
C1073 C 0.48701 0.02502 0.71402 0.0
C1074 C 0.48819 0.03497 0.66297 0.0
H1075 H 0.51004 0.03095 0.4326 0.0
H1076 H 0.50848 0.0276 0.52245 0.0
H1077 H 0.48602 1.01179 0.44361 0.0
H1078 H 0.45679 0.99971 0.50909 0.0
H1079 H 0.45442 0.98219 0.59852 0.0
H1080 H 0.12759 0.07897 -0.00253 0.0
H1081 H 0.10802 0.09447 0.00988 0.0
H1082 H 0.16798 0.14356 0.1421 0.0
H1083 H 0.18742 0.12826 0.13012 0.0
H1084 H 0.10268 0.11418 0.13162 0.0
H1085 H 0.14939 0.1599 0.9705 0.0
H1086 H 0.14886 0.13948 0.97404 0.0
H1087 H 0.1661 0.15977 0.04857 0.0
C1088 C 0.13648 0.09293 0.0306 0.0
C1089 C 0.15919 0.10234 0.06219 0.0
C1090 C 0.12529 0.10186 0.03729 0.0
C1091 C 0.13654 0.12043 0.07552 0.0
C1092 C 0.1589 0.12943 0.11081 0.0
H1093 H 0.07878 0.18459 0.18871 0.0
H1094 H 0.09953 0.16998 0.19631 0.0
C1095 C 0.17001 0.12057 0.1042 0.0
C1096 C 0.12542 0.13072 0.07612 0.0
H1097 H 0.12692 0.16669 0.02506 0.0
C1098 C 0.10801 0.12566 0.10832 0.0
C1099 C 0.1321 0.1457 0.04532 0.0
C1100 C 0.15 0.15149 0.00704 0.0
C1101 C 0.0974 0.13518 0.1112 0.0
C1102 C 0.10439 0.15037 0.08158 0.0
C1103 C 0.12164 0.15528 0.04876 0.0
C1104 C 0.09303 0.16046 0.07903 0.0
C1105 C 0.07839 0.1286 0.14433 0.0
C1106 C 0.08311 0.16076 0.01111 0.0
C1107 C 0.07143 0.1692 0.00684 0.0
C1108 C 0.06961 0.17795 0.07033 0.0
C1109 C 0.08011 0.17824 0.13872 0.0
C1110 C 0.09174 0.16964 0.14299 0.0
H1111 H 0.0721 0.11467 0.15052 0.0
H1112 H 0.08374 0.13792 0.19938 0.0
H1113 H 0.06483 0.1286 0.11021 0.0
H1114 H 0.08383 0.15394 0.96084 0.0
H1115 H 0.06337 0.16855 0.95331 0.0
H1116 H 0.92977 0.93967 0.02909 0.0
H1117 H 0.94156 0.96985 0.01055 0.0
H1118 H 0.94446 0.98924 0.23431 0.0
H1119 H 0.93314 0.95944 0.25328 0.0
H1120 H 0.91939 0.98694 0.0222 0.0
H1121 H 1.00167 0.03068 0.21684 0.0
H1122 H 0.9876 1.00619 0.18784 0.0
H1123 H 0.9814 0.01687 0.25933 0.0
C1124 C 0.93343 0.95051 0.07471 0.0
C1125 C 0.93044 0.9471 0.1426 0.0
C1126 C 0.94005 0.96773 0.06398 0.0
C1127 C 0.94416 0.98197 0.12124 0.0
C1128 C 0.94184 0.97869 0.18958 0.0
H1129 H 0.92949 0.07169 0.11519 0.0
H1130 H 0.92706 0.04354 0.12245 0.0
C1131 C 0.93514 0.96154 0.20016 0.0
C1132 C 0.9491 0.99977 0.10871 0.0
H1133 H 0.98442 0.04595 0.178 0.0
C1134 C 0.93377 0.99982 0.05566 0.0
C1135 C 0.96797 0.01668 0.15164 0.0
C1136 C 0.98571 0.01765 0.20658 0.0
C1137 C 0.93626 0.01618 0.04675 0.0
C1138 C 0.95444 0.03305 0.09275 0.0
C1139 C 0.97032 0.03306 0.14339 0.0
C1140 C 0.95667 0.05069 0.09083 0.0
C1141 C 0.91928 1.01523 0.98827 0.0
C1142 C 0.97458 0.06452 0.07325 0.0
C1143 C 0.97601 0.08076 0.06878 0.0
C1144 C 0.9596 0.08355 0.08221 0.0
C1145 C 0.94216 0.06991 0.10255 0.0
C1146 C 0.94073 0.05374 0.10681 0.0
H1147 H 0.91017 1.00211 0.94496 0.0
H1148 H 0.90732 0.01634 0.01339 0.0
H1149 H 0.92686 0.02656 0.9624 0.0
H1150 H 0.98719 0.06258 0.06125 0.0
H1151 H 0.98964 0.09086 0.05268 0.0
H1152 H 0.97873 0.87311 0.14923 0.0
H1153 H 1.01719 0.89635 0.15888 0.0
H1154 H 1.0029 0.88275 0.92406 0.0
H1155 H 0.96481 0.85959 0.9147 0.0
H1156 H 0.05325 0.89828 0.11093 0.0
H1157 H 0.02809 0.93713 0.96962 0.0
H1158 H 1.00946 0.91876 0.00288 0.0
H1159 H 1.0155 0.91394 0.91826 0.0
C1160 C 0.98393 0.87448 0.09957 0.0
C1161 C 0.96829 0.86359 0.03101 0.0
C1162 C 1.00612 0.88815 0.10505 0.0
C1163 C 1.01364 0.89204 0.04229 0.0
C1164 C 0.99815 0.88071 0.97409 0.0
H1165 H 0.13403 0.9805 0.95378 0.0
H1166 H 0.09797 0.95388 0.94639 0.0
C1167 C 0.97615 0.86701 0.9687 0.0
C1168 C 0.03705 0.90805 0.04736 0.0
H1169 H 0.06541 0.94737 -0.00712 0.0
C1170 C 0.05575 0.90902 0.08528 0.0
C1171 C 0.04119 0.92241 0.01394 0.0
C1172 C 1.02257 0.9232 0.9744 0.0
C1173 C 0.07764 0.92313 0.08894 0.0
C1174 C 0.08185 0.93766 0.05617 0.0
C1175 C 0.06305 0.93666 0.01846 0.0
C1176 C 0.10519 0.95383 0.06005 0.0
C1177 C 0.096 0.92166 0.12545 0.0
C1178 C 0.12239 0.96355 0.12594 0.0
C1179 C 0.14341 0.97873 0.12961 0.0
C1180 C 0.14863 0.98506 0.06764 0.0
C1181 C 0.13139 0.97574 0.00222 0.0
C1182 C 0.11036 0.96045 -0.00167 0.0
H1183 H 0.09029 0.90732 0.12376 0.0
H1184 H 0.10948 0.92708 0.09881 0.0
H1185 H 0.10244 0.92952 0.18383 0.0
H1186 H 0.11944 0.95988 0.17609 0.0
H1187 H 0.15558 0.9859 0.18213 0.0
H1188 H 0.81919 0.45856 0.28338 0.0
H1189 H 0.82762 0.4355 0.29682 0.0
H1190 H 0.86075 0.44712 0.12709 0.0
H1191 H 0.85321 0.47062 0.11629 0.0
H1192 H 0.81918 0.40486 0.21643 0.0
H1193 H 0.90842 0.45354 0.2796 0.0
H1194 H 0.88969 0.46085 0.27321 0.0
H1195 H 0.89467 0.45239 0.19174 0.0
C1196 C 0.828 0.45598 0.24833 0.0
C1197 C 0.83551 0.46643 0.19874 0.0
C1198 C 0.83297 0.44285 0.25629 0.0
C1199 C 0.84552 0.4398 0.21472 0.0
C1200 C 0.85184 0.44954 0.16212 0.0
H1201 H 0.88654 0.36291 0.16317 0.0
H1202 H 0.8773 0.38538 0.15028 0.0
C1203 C 0.8472 0.46282 0.15505 0.0
C1204 C 0.8521 0.42662 0.22642 0.0
H1205 H 0.8959 0.4221 0.25431 0.0
C1206 C 0.83601 0.40876 0.22531 0.0
C1207 C 0.87411 0.43149 0.23861 0.0
C1208 C 0.89273 0.45066 0.24668 0.0
C1209 C 0.84115 0.39572 0.23408 0.0
C1210 C 0.86301 0.40052 0.24439 0.0
C1211 C 0.87912 0.41833 0.2459 0.0
C1212 C 0.86942 0.38723 0.25377 0.0
C1213 C 0.82307 0.37673 0.23082 0.0
C1214 C 0.86848 0.38088 0.31678 0.0
C1215 C 0.87421 0.36824 0.3249 0.0
C1216 C 0.8812 0.36172 0.27056 0.0
C1217 C 0.88196 0.368 0.20728 0.0
C1218 C 0.87645 0.38078 0.19949 0.0
H1219 H 0.80663 0.3742 0.20977 0.0
H1220 H 0.82445 0.36646 0.19539 0.0
H1221 H 0.82451 0.37476 0.28663 0.0
H1222 H 0.86327 0.38568 0.35978 0.0
H1223 H 0.87313 0.36351 0.37382 0.0
H1224 H 0.70332 0.4607 0.06069 0.0
H1225 H 0.67368 0.42908 0.04887 0.0
H1226 H 0.69623 0.43724 0.28025 0.0
H1227 H 0.72495 0.46867 0.29225 0.0
H1228 H 0.67273 0.39978 0.0698 0.0
H1229 H 0.63363 0.41443 0.26884 0.0
H1230 H 0.65376 0.432 0.23649 0.0
H1231 H 0.6621 0.42448 0.30985 0.0
C1232 C 0.70158 0.45587 0.10926 0.0
C1233 C 0.71628 0.4676 0.17791 0.0
C1234 C 0.68468 0.43762 0.10246 0.0
C1235 C 0.68196 0.43046 0.16396 0.0
C1236 C 0.69701 0.44219 0.23196 0.0
H1237 H 0.59681 0.32281 0.24508 0.0
H1238 H 0.62666 0.35403 0.2531 0.0
C1239 C 0.71372 0.46031 0.23873 0.0
C1240 C 0.66423 0.41073 0.15741 0.0
H1241 H 0.62405 0.38378 0.23409 0.0
C1242 C 0.66202 0.39641 0.10549 0.0
C1243 C 0.64993 0.4058 0.20363 0.0
C1244 C 0.64979 0.41999 0.2573 0.0
C1245 C 0.64668 0.37778 0.09984 0.0
C1246 C 0.63264 0.37291 0.14675 0.0
C1247 C 0.63478 0.38719 0.19842 0.0
C1248 C 0.61511 0.35324 0.14111 0.0
C1249 C 0.64605 0.36342 0.04448 0.0
C1250 C 0.59841 0.34196 0.07575 0.0
C1251 C 0.58133 0.32412 0.07123 0.0
C1252 C 0.58015 0.31669 0.1318 0.0
C1253 C 0.59716 0.32778 0.19687 0.0
C1254 C 0.61422 0.3458 0.20162 0.0
H1255 H 0.66159 0.36891 0.02851 0.0
H1256 H 0.6429 0.35163 0.06605 0.0
H1257 H 0.63268 0.35848 -0.00558 0.0
H1258 H 0.59815 0.34713 0.0283 0.0
H1259 H 0.56864 0.31619 0.0201 0.0
H1260 H 0.56622 0.20456 0.08336 0.0
H1261 H 0.6033 0.21354 0.078 0.0
H1262 H 0.62831 0.24319 0.30604 0.0
H1263 H 0.59126 0.23354 0.31192 0.0
H1264 H 0.63944 0.24469 0.09375 0.0
H1265 H 0.65877 0.21755 0.31389 0.0
H1266 H 0.63163 0.21228 0.27801 0.0
H1267 H 0.65167 0.23327 0.34683 0.0
C1268 C 0.57955 0.21262 0.13276 0.0
C1269 C 0.57549 0.21777 0.19875 0.0
C1270 C 0.60093 0.21795 0.1296 0.0
C1271 C 0.61902 0.22879 0.19208 0.0
C1272 C 0.61492 0.23431 0.25739 0.0
H1273 H 0.7626 0.28068 0.27764 0.0
H1274 H 0.72586 0.27332 0.2818 0.0
C1275 C 0.59359 0.22887 0.26064 0.0
C1276 C 0.64213 0.23495 0.18847 0.0
H1277 H 0.68894 0.23828 0.27434 0.0
C1278 C 0.6501 0.24312 0.13316 0.0
C1279 C 0.65655 0.23311 0.23949 0.0
C1280 C 0.64917 0.22341 0.29741 0.0
C1281 C 0.67171 0.24964 0.12834 0.0
C1282 C 0.68612 0.24798 0.17983 0.0
C1283 C 0.67823 0.23985 0.23514 0.0
C1284 C 0.70898 0.25374 0.17528 0.0
C1285 C 0.67907 0.25862 0.0686 0.0
C1286 C 0.71218 0.24547 0.11405 0.0
C1287 C 0.73316 0.24965 0.11179 0.0
C1288 C 0.75182 0.2624 0.17034 0.0
C1289 C 0.74879 0.27113 0.23084 0.0
C1290 C 0.72766 0.26675 0.23351 0.0
H1291 H 0.66862 0.26331 0.04645 0.0
H1292 H 0.69629 0.27043 0.08887 0.0
H1293 H 0.67802 0.24865 0.02298 0.0
H1294 H 0.69828 0.23518 0.06878 0.0
H1295 H 0.73472 0.2424 0.06487 0.0
H1296 H 0.56761 0.8242 0.98076 0.0
H1297 H 0.54532 0.837 0.96508 0.0
H1298 H 0.52034 0.80913 0.73495 0.0
H1299 H 0.54241 0.79592 0.75111 0.0
H1300 H 0.54738 0.86009 0.89219 0.0
H1301 H 0.46439 0.79788 0.77699 0.0
H1302 H 0.4876 0.79714 0.81612 0.0
H1303 H 0.48267 0.79887 0.72375 0.0
C1304 C 0.55706 0.82048 0.92689 0.0
C1305 C 0.55682 0.80886 0.86731 0.0
C1306 C 0.54432 0.82794 0.91786 0.0
C1307 C 0.53079 0.8241 0.84886 0.0
C1308 C 0.5301 0.81212 0.78933 0.0
H1309 H 0.4498 0.86238 0.67533 0.0
H1310 H 0.47184 0.84947 0.69567 0.0
C1311 C 0.54278 0.8045 0.79854 0.0
C1312 C 0.51851 0.83341 0.83946 0.0
H1313 H 0.468 0.82586 0.77165 0.0
C1314 C 0.52997 0.85251 0.86618 0.0
C1315 C 0.49571 0.82379 0.80578 0.0
C1316 C 0.48182 0.80329 0.77969 0.0
C1317 C 0.51962 0.86213 0.85875 0.0
C1318 C 0.49689 0.85253 0.82416 0.0
C1319 C 0.48539 0.83343 0.79787 0.0
C1320 C 0.48475 0.86189 0.81249 0.0
C1321 C 0.53338 0.88261 0.88616 0.0
C1322 C 0.4846 0.87358 0.87089 0.0
C1323 C 0.47201 0.88121 0.85903 0.0
C1324 C 0.45919 0.87732 0.78843 0.0
C1325 C 0.45963 0.86587 0.73028 0.0
C1326 C 0.4722 0.85834 0.742 0.0
H1327 H 0.551 0.88816 0.89234 0.0
H1328 H 0.52812 0.88877 0.84841 0.0
H1329 H 0.5315 0.88681 0.94058 0.0
H1330 H 0.49362 0.87635 0.92624 0.0
H1331 H 0.47167 0.88958 0.90543 0.0
H1332 H 0.32312 0.64336 0.66454 0.0
H1333 H 0.33982 0.67637 0.69313 0.0
H1334 H 0.29233 0.67114 0.80927 0.0
H1335 H 0.27583 0.63829 0.78193 0.0
H1336 H 0.3163 0.69136 0.64564 0.0
H1337 H 0.34976 0.71543 0.94721 0.0
H1338 H 0.34337 0.69385 0.89428 0.0
H1339 H 0.32204 0.6961 0.91721 0.0
C1340 C 0.31663 0.64934 0.69781 0.0
C1341 C 0.29813 0.63828 0.72079 0.0
C1342 C 0.32612 0.66815 0.71382 0.0
C1343 C 0.31744 0.67619 0.75392 0.0
C1344 C 0.29953 0.66526 0.7794 0.0
H1345 H 0.31743 0.77303 0.8479 0.0
H1346 H 0.31349 0.74369 0.83894 0.0
C1347 C 0.28998 0.64648 0.7631 0.0
C1348 C 0.32535 0.69558 0.76224 0.0
H1349 H 0.34386 0.73523 0.8889 0.0
C1350 C 0.32271 0.70108 0.69874 0.0
C1351 C 0.33357 0.70814 0.83162 0.0
C1352 C 0.33756 0.70316 0.90149 0.0
C1353 C 0.32701 0.71856 0.70274 0.0
C1354 C 0.3346 0.73097 0.77222 0.0
C1355 C 0.33797 0.72567 0.83573 0.0
C1356 C 0.3379 0.74912 0.78002 0.0
C1357 C 0.32234 0.72327 0.63265 0.0
C1358 C 0.35316 0.762 0.75074 0.0
C1359 C 0.35523 0.77868 0.75483 0.0
C1360 C 0.34222 0.78287 0.78895 0.0
C1361 C 0.32739 0.77011 0.82002 0.0
C1362 C 0.32528 0.75341 0.81561 0.0
H1363 H 0.31198 0.71096 0.58543 0.0
H1364 H 0.31402 0.73066 0.63809 0.0
H1365 H 0.33798 0.73223 0.62022 0.0
H1366 H 0.36332 0.75906 0.7241 0.0
H1367 H 0.36671 0.78814 0.72994 0.0
H1368 H 0.53984 0.69531 0.94644 0.0
H1369 H 0.5028 0.66907 0.92802 0.0
H1370 H 0.49309 0.65893 0.69481 0.0
H1371 H 0.53025 0.68559 0.71399 0.0
H1372 H 0.46336 0.66478 0.84801 0.0
H1373 H 0.46925 0.60697 0.7282 0.0
H1374 H 0.49284 0.62886 0.78195 0.0
H1375 H 0.48 0.62609 0.68954 0.0
C1376 C 0.53031 0.68695 0.89132 0.0
C1377 C 0.53907 0.69167 0.83203 0.0
C1378 C 0.50881 0.67204 0.88064 0.0
C1379 C 0.49495 0.6614 0.80991 0.0
C1380 C 0.50344 0.66631 0.75017 0.0
H1381 H 0.35666 0.56586 0.66325 0.0
H1382 H 0.39483 0.58893 0.67001 0.0
C1383 C 0.52498 0.68142 0.76113 0.0
C1384 C 0.47132 0.64626 0.79947 0.0
H1385 H 0.43462 0.59987 0.73849 0.0
C1386 C 0.45715 0.6506 0.82404 0.0
C1387 C 0.46272 0.62764 0.76715 0.0
C1388 C 0.47691 0.62192 0.7403 0.0
C1389 C 0.43503 0.63713 0.81709 0.0
C1390 C 0.42661 0.61836 0.78749 0.0
C1391 C 0.44071 0.61405 0.76175 0.0
C1392 C 0.40349 0.60319 0.78387 0.0
C1393 C 0.42078 0.6434 0.83961 0.0
C1394 C 0.39537 0.60265 0.8458 0.0
C1395 C 0.3735 0.58959 0.84161 0.0
C1396 C 0.35903 0.57607 0.77615 0.0
C1397 C 0.36733 0.57588 0.71489 0.0
C1398 C 0.38924 0.58921 0.71878 0.0
H1399 H 0.4269 0.65747 0.83539 0.0
H1400 H 0.40361 0.63431 0.80532 0.0
H1401 H 0.42107 0.64355 0.89764 0.0
H1402 H 0.40587 0.61256 0.89775 0.0
H1403 H 0.36777 0.5902 0.88994 0.0
H1404 H 1.00672 0.19665 0.85992 0.0
H1405 H 1.00643 0.19234 0.73042 0.0
H1406 H 0.07515 0.21286 0.79093 0.0
H1407 H 0.0757 0.21693 0.91903 0.0
H1408 H 0.05651 0.22788 0.68499 0.0
H1409 H 1.01894 0.15282 0.61908 0.0
H1410 H 1.00813 0.16291 0.67394 0.0
H1411 H 0.0347 0.1674 0.71062 0.0
C1412 C 1.02172 0.20019 0.84547 0.0
C1413 C 0.0411 0.20676 0.89936 0.0
C1414 C 1.0215 0.19773 0.77193 0.0
C1415 C 0.0407 0.20204 0.75239 0.0
C1416 C 0.06021 0.20934 0.80591 0.0
H1417 H 0.08171 0.20874 0.35611 0.0
H1418 H 0.08086 0.2068 0.48141 0.0
C1419 C 0.06044 0.21172 0.87898 0.0
C1420 C 0.04088 0.19926 0.676 0.0
H1421 H 0.02956 0.16704 0.52518 0.0
C1422 C 0.0506 0.21463 0.64968 0.0
C1423 C 0.03325 0.18189 0.63166 0.0
C1424 C 1.02319 0.16523 0.65983 0.0
C1425 C 0.05277 0.21306 0.57864 0.0
C1426 C 0.04535 0.19571 0.53428 0.0
C1427 C 0.0355 0.1803 0.5605 0.0
C1428 C 0.04575 0.19332 0.45796 0.0
C1429 C 0.06251 0.22985 0.55095 0.0
C1430 C 0.02618 0.18562 0.40405 0.0
C1431 C 0.02663 0.18699 0.33336 0.0
C1432 C 0.04669 0.19607 0.31602 0.0
C1433 C 0.06612 0.20226 0.36874 0.0
C1434 C 0.06566 0.20098 0.43982 0.0
H1435 H 0.06425 0.2416 0.58857 0.0
H1436 H 0.07896 0.23373 0.54549 0.0
H1437 H 0.05223 0.22709 0.4961 0.0
H1438 H 1.01071 0.17962 0.41773 0.0
H1439 H 1.01129 0.18165 0.29349 0.0
H1440 H 0.91872 0.86025 0.85419 0.0
H1441 H 0.9262 0.86458 0.73728 0.0
H1442 H 0.89924 0.8072 0.65731 0.0
H1443 H 0.89081 0.80263 0.77398 0.0
H1444 H 0.94507 0.83457 0.64903 0.0
H1445 H 0.88065 0.84579 0.53088 0.0
H1446 H 0.89589 0.85773 0.62509 0.0
H1447 H 0.87798 0.8334 0.5992 0.0
C1448 C 0.91349 0.84841 0.81084 0.0
C1449 C 0.90373 0.83101 0.8225 0.0
C1450 C 0.91811 0.85098 0.74454 0.0
C1451 C 0.91315 0.83619 0.68917 0.0
C1452 C 0.90312 0.81873 0.6999 0.0
H1453 H 0.92623 0.81573 0.26316 0.0
H1454 H 0.92857 0.81789 0.39215 0.0
C1455 C 0.89836 0.81614 0.76627 0.0
C1456 C 0.91932 0.8392 0.62116 0.0
H1457 H 0.90631 0.84949 0.46526 0.0
C1458 C 0.93667 0.83785 0.60865 0.0
C1459 C 0.90848 0.84377 0.56989 0.0
C1460 C 0.88961 0.84519 0.5813 0.0
C1461 C 0.94338 0.8408 0.54499 0.0
C1462 C 0.9321 0.84482 0.49249 0.0
C1463 C 0.91505 0.84657 0.50606 0.0
C1464 C 0.93588 0.84534 0.4196 0.0
C1465 C 0.96245 0.8396 0.53461 0.0
C1466 C 0.93971 0.86024 0.39265 0.0
C1467 C 0.93807 0.85897 0.31844 0.0
C1468 C 0.93238 0.84269 0.27025 0.0
C1469 C 0.9304 0.82839 0.29868 0.0
C1470 C 0.93197 0.82966 0.37271 0.0
H1471 H 0.97372 0.84283 0.58807 0.0
H1472 H 0.95627 0.82549 0.5041 0.0
H1473 H 0.97179 0.84899 0.50306 0.0
H1474 H 0.94269 0.87244 0.42823 0.0
H1475 H 0.93985 0.87028 0.29834 0.0
H1476 H 0.16333 0.01699 0.82652 0.0
H1477 H 0.15808 1.01485 0.69597 0.0
H1478 H 0.19777 0.99252 0.68521 0.0
H1479 H 0.20282 0.99427 0.81492 0.0
H1480 H 0.19394 0.03517 0.65002 0.0
H1481 H 0.15051 0.963 0.49342 0.0
H1482 H 0.14982 0.96977 0.58604 0.0
H1483 H 0.17265 0.96902 0.56907 0.0
C1484 C 0.17044 1.01114 0.79598 0.0
C1485 C 0.18383 1.00611 0.83126 0.0
C1486 C 0.16735 1.00988 0.7214 0.0
C1487 C 0.17744 1.00345 0.68112 0.0
C1488 C 0.18948 0.99718 0.71506 0.0
H1489 H 0.22762 1.0144 0.31091 0.0
H1490 H 0.21783 1.00923 0.425 0.0
C1491 C 0.19253 0.99838 0.78951 0.0
C1492 C 0.1788 1.00627 0.60808 0.0
H1493 H 0.1736 0.9853 0.43558 0.0
C1494 C 0.18906 0.02423 0.60257 0.0
C1495 C 0.17255 0.99196 0.54681 0.0
C1496 C 0.16057 0.97234 0.5489 0.0
C1497 C 0.19433 0.02842 0.53828 0.0
C1498 C 0.18892 1.0142 0.4781 0.0
C1499 C 0.17787 0.99615 0.48247 0.0
C1500 C 0.19525 0.01788 0.41081 0.0
C1501 C 0.20654 0.04806 0.53631 0.0
C1502 C 0.18595 0.02461 0.3662 0.0
C1503 C 0.19148 0.02749 0.30122 0.0
C1504 C 0.20623 0.0235 0.27984 0.0
C1505 C 0.21591 0.01719 0.32554 0.0
C1506 C 0.2104 1.01432 0.39061 0.0
H1507 H 0.21315 0.05761 0.59176 0.0
H1508 H 0.22027 0.05125 0.51158 0.0
H1509 H 0.19528 0.05049 0.50203 0.0
H1510 H 0.17403 0.0272 0.38076 0.0
H1511 H 0.18345 0.03204 0.26622 0.0
H1512 H 0.7185 0.51191 0.35477 0.0
H1513 H 0.71736 0.50868 0.47766 0.0
H1514 H 0.7878 0.54024 0.54829 0.0
H1515 H 0.78908 0.54409 0.42535 0.0
H1516 H 0.7346 0.49071 0.54003 0.0
H1517 H 0.7714 0.5606 0.71531 0.0
H1518 H 0.7614 0.55455 0.61695 0.0
H1519 H 0.78754 0.55859 0.65816 0.0
C1520 C 0.7338 0.51836 0.39626 0.0
C1521 C 0.75392 0.52743 0.37915 0.0
C1522 C 0.73308 0.51652 0.46669 0.0
C1523 C 0.75246 0.52397 0.52163 0.0
C1524 C 0.77262 0.53435 0.50653 0.0
H1525 H 0.78278 0.51706 0.96114 0.0
H1526 H 0.78345 0.52002 0.8377 0.0
C1527 C 0.77334 0.5363 0.43597 0.0
C1528 C 0.75141 0.5194 0.59231 0.0
H1529 H 0.7659 0.53784 0.77628 0.0
C1530 C 0.74134 0.50099 0.59177 0.0
C1531 C 0.76029 0.53286 0.6594 0.0
C1532 C 0.7706 0.55275 0.66278 0.0
C1533 C 0.7402 0.49569 0.65692 0.0
C1534 C 0.74912 0.50915 0.72402 0.0
C1535 C 0.75915 0.52756 0.72454 0.0
C1536 C 0.74831 0.50462 0.7948 0.0
C1537 C 0.72989 0.4758 0.65356 0.0
C1538 C 0.72826 0.49425 0.81065 0.0
C1539 C 0.7278 0.49238 0.88143 0.0
C1540 C 0.74735 0.50129 0.93765 0.0
C1541 C 0.76736 0.5104 0.91985 0.0
C1542 C 0.76782 0.51215 0.8492 0.0
H1543 H 0.72891 0.46791 0.60079 0.0
H1544 H 0.73922 0.47401 0.69904 0.0
H1545 H 0.71303 0.47 0.6589 0.0
H1546 H 0.713 0.48834 0.76936 0.0
H1547 H 0.71214 0.48469 0.89279 0.0
H1548 H 0.49112 0.17435 0.36074 0.0
H1549 H 0.49807 0.17512 0.48999 0.0
H1550 H 0.55581 0.22933 0.54127 0.0
H1551 H 0.54869 0.22881 0.4118 0.0
H1552 H 0.53631 0.17981 0.5744 0.0
H1553 H 0.5218 0.23334 0.68503 0.0
H1554 H 0.51293 0.22209 0.5886 0.0
H1555 H 0.54124 0.23931 0.63186 0.0
C1556 C 0.50509 0.18653 0.39983 0.0
C1557 C 0.51937 0.20155 0.37707 0.0
C1558 C 0.50909 0.1869 0.47317 0.0
C1559 C 0.52744 0.20224 0.52429 0.0
C1560 C 0.54145 0.21747 0.50214 0.0
H1561 H 0.55304 0.21797 0.99017 0.0
H1562 H 0.56127 0.22009 0.87284 0.0
C1563 C 0.53731 0.21719 0.42865 0.0
C1564 C 0.53182 0.20198 0.60069 0.0
H1565 H 0.53037 0.2196 0.76779 0.0
C1566 C 0.5353 0.18863 0.61718 0.0
C1567 C 0.53055 0.21361 0.65554 0.0
C1568 C 0.52628 0.22783 0.63966 0.0
C1569 C 0.53671 0.18613 0.6874 0.0
C1570 C 0.53448 0.19724 0.74128 0.0
C1571 C 0.53211 0.21117 0.7257 0.0
C1572 C 0.53244 0.19379 0.8125 0.0
C1573 C 0.54003 0.17145 0.70308 0.0
C1574 C 0.51379 0.17801 0.81684 0.0
C1575 C 0.50898 0.17675 0.88384 0.0
C1576 C 0.52266 0.1914 0.94616 0.0
C1577 C 0.542 0.20665 0.94224 0.0
C1578 C 0.54689 0.20781 0.87575 0.0
H1579 H 0.5474 0.16766 0.6632 0.0
H1580 H 0.55067 0.17586 0.75929 0.0
H1581 H 0.52397 0.15911 0.6989 0.0
H1582 H 0.50227 0.16724 0.76787 0.0
H1583 H 0.49403 0.16487 0.88611 0.0
H1584 H 0.91097 0.3095 0.44986 0.0
H1585 H 0.90716 0.30921 0.57388 0.0
H1586 H 0.92073 0.3636 0.61295 0.0
H1587 H 0.92421 0.36389 0.48834 0.0
H1588 H 0.93464 0.3331 0.71744 0.0
H1589 H 0.85781 0.33107 0.6347 0.0
H1590 H 0.87092 0.32695 0.56918 0.0
H1591 H 0.88163 0.34978 0.62051 0.0
C1592 C 0.91361 0.32155 0.48546 0.0
C1593 C 0.91757 0.33663 0.45935 0.0
C1594 C 0.91143 0.32136 0.55613 0.0
C1595 C 0.9132 0.33623 0.60156 0.0
C1596 C 0.91894 0.35189 0.57785 0.0
H1597 H 0.89413 0.35598 0.02749 0.0
H1598 H 0.89741 0.35625 0.90292 0.0
C1599 C 0.92115 0.35211 0.50706 0.0
C1600 C 0.90749 0.33475 0.67147 0.0
H1601 H 0.86953 0.33227 0.75841 0.0
C1602 C 0.92042 0.33291 0.72656 0.0
C1603 C 0.88878 0.33434 0.68243 0.0
C1604 C 0.87383 0.33548 0.62347 0.0
C1605 C 0.91537 0.33102 0.79337 0.0
C1606 C 0.89668 0.33062 0.80434 0.0
C1607 C 0.88374 0.33247 0.74927 0.0
C1608 C 0.89096 0.32911 0.87422 0.0
C1609 C 0.93027 0.3298 0.85219 0.0
C1610 C 0.88513 0.31338 0.89752 0.0
C1611 C 0.88322 0.31318 0.9686 0.0
C1612 C 0.88722 0.32874 0.017 0.0
C1613 C 0.89119 0.34387 0.99133 0.0
C1614 C 0.89306 0.34405 0.92034 0.0
H1615 H 0.94631 0.33425 0.8411 0.0
H1616 H 0.93313 0.33824 0.90663 0.0
H1617 H 0.92246 0.31546 0.85474 0.0
H1618 H 0.88312 0.30163 0.86193 0.0
H1619 H 0.88016 0.30136 0.98697 0.0
H1620 H 0.39536 0.90711 0.59009 0.0
H1621 H 0.39498 0.91274 0.46851 0.0
H1622 H 0.44404 0.90052 0.45494 0.0
H1623 H 0.44499 0.89558 0.57641 0.0
H1624 H 0.45474 0.9331 0.42679 0.0
H1625 H 0.37002 0.87692 0.26663 0.0
H1626 H 0.3731 0.89224 0.34717 0.0
H1627 H 0.38231 0.87726 0.3561 0.0
C1628 C 0.40577 0.9054 0.56022 0.0
C1629 C 0.42039 0.90115 0.59201 0.0
C1630 C 0.40554 0.90861 0.4912 0.0
C1631 C 0.41957 0.90712 0.45333 0.0
C1632 C 0.43333 0.90197 0.48399 0.0
H1633 H 0.42389 0.88118 0.02856 0.0
H1634 H 0.41967 0.8847 0.15258 0.0
C1635 C 0.43384 0.89912 0.55305 0.0
C1636 C 0.42085 0.91137 0.38259 0.0
H1637 H 0.39379 0.89398 0.20149 0.0
C1638 C 0.44137 0.92476 0.37735 0.0
C1639 C 0.40323 0.90053 0.31901 0.0
C1640 C 0.38091 0.88585 0.32191 0.0
C1641 C 0.44539 0.92644 0.3093 0.0
C1642 C 0.42807 0.91486 0.24534 0.0
C1643 C 0.40703 0.90266 0.25097 0.0
C1644 C 0.4319 0.9134 0.17244 0.0
C1645 C 0.46844 0.93954 0.30666 0.0
C1646 C 0.44066 0.92848 0.14362 0.0
C1647 C 0.44379 0.9266 0.07391 0.0
C1648 C 0.43762 0.90952 0.03194 0.0
C1649 C 0.42898 0.8945 0.06082 0.0
C1650 C 0.42636 0.89647 0.13099 0.0
H1651 H 0.48055 0.94457 0.36041 0.0
H1652 H 0.47304 0.93303 0.26513 0.0
H1653 H 0.46956 0.95149 0.29139 0.0
H1654 H 0.44454 0.94154 0.17412 0.0
H1655 H 0.44985 0.9382 0.05133 0.0
H1656 H 0.32458 0.542 0.9735 0.0
H1657 H 0.31632 0.53372 0.08509 0.0
H1658 H 0.24833 0.51298 -0.00773 0.0
H1659 H 0.25677 0.52213 0.8816 0.0
H1660 H 0.26039 0.53162 0.12419 0.0
H1661 H 0.28918 0.48565 0.12743 0.0
H1662 H 0.31092 0.50677 0.11968 0.0
H1663 H 0.28556 0.4934 0.04788 0.0
C1664 C 0.30789 0.53563 0.97688 0.0
C1665 C 0.2913 0.53258 0.91914 0.0
C1666 C 0.30311 0.53067 0.04016 0.0
C1667 C 0.28156 0.5221 0.04576 0.0
C1668 C 0.26499 0.51931 0.98846 0.0
H1669 H 0.28025 0.4995 0.47411 0.0
H1670 H 0.27018 0.49296 0.34042 0.0
C1671 C 0.26986 0.52463 0.92565 0.0
C1672 C 0.27697 0.51757 0.1143 0.0
H1673 H 0.29271 0.50243 0.24891 0.0
C1674 C 0.26692 0.52479 0.15073 0.0
C1675 C 0.28461 0.508 0.14782 0.0
C1676 C 0.29289 0.49783 0.10798 0.0
C1677 C 0.26646 0.5244 0.2229 0.0
C1678 C 0.27722 0.51737 0.26007 0.0
C1679 C 0.28511 0.50839 0.22112 0.0
C1680 C 0.2826 0.52098 0.34033 0.0
C1681 C 0.25501 0.53201 0.25898 0.0
C1682 C 0.29343 0.53892 0.38421 0.0
C1683 C 0.29886 0.54259 0.46003 0.0
C1684 C 0.29429 0.52847 0.49288 0.0
C1685 C 0.28424 0.51062 0.44939 0.0
C1686 C 0.27831 0.50686 0.37336 0.0
H1687 H 0.24063 0.52945 0.21844 0.0
H1688 H 0.24945 0.52597 0.3041 0.0
H1689 H 0.26635 0.54698 0.28137 0.0
H1690 H 0.29774 0.55013 0.35985 0.0
H1691 H 0.30668 0.55646 0.49304 0.0
H1692 H 0.5571 0.7208 0.6226 0.0
H1693 H 0.54657 0.71445 0.48899 0.0
H1694 H 0.60223 0.71079 0.4797 0.0
H1695 H 0.612 0.71611 0.6121 0.0
H1696 H 0.56638 0.73275 0.40421 0.0
H1697 H 0.55648 0.66646 0.32346 0.0
H1698 H 0.55832 0.6762 0.41587 0.0
H1699 H 0.58271 0.68166 0.38792 0.0
C1700 C 0.56695 0.71855 0.59154 0.0
C1701 C 0.58528 0.71887 0.62663 0.0
C1702 C 0.56086 0.71481 0.5156 0.0
C1703 C 0.57324 0.71159 0.4745 0.0
C1704 C 0.59191 0.71243 0.51015 0.0
H1705 H 0.61369 0.74592 0.11822 0.0
H1706 H 0.60299 0.74165 0.2312 0.0
C1707 C 0.59768 0.71573 0.58565 0.0
C1708 C 0.5681 0.70899 0.39498 0.0
H1709 H 0.57087 0.68638 0.24215 0.0
C1710 C 0.5667 0.72229 0.36803 0.0
C1711 C 0.56757 0.69495 0.34714 0.0
C1712 C 0.56607 0.67891 0.37022 0.0
C1713 C 0.56721 0.72303 0.29619 0.0
C1714 C 0.57027 0.71069 0.25217 0.0
C1715 C 0.56926 0.69624 0.2767 0.0
C1716 C 0.57641 0.71337 0.18364 0.0
C1717 C 0.56504 0.73729 0.26924 0.0
C1718 C 0.56607 0.69861 0.12116 0.0
C1719 C 0.57285 0.70085 0.05795 0.0
C1720 C 0.58952 0.71805 0.05531 0.0
C1721 C 0.60027 0.73272 0.11824 0.0
C1722 C 0.59398 0.73032 0.1824 0.0
H1723 H 0.55402 0.73991 0.29448 0.0
H1724 H 0.58128 0.75029 0.28573 0.0
H1725 H 0.55855 0.73318 0.20879 0.0
H1726 H 0.55276 0.68533 0.12126 0.0
H1727 H 0.56457 0.68917 0.01058 0.0
loop_
_geom_bond_atom_site_label_1
_geom_bond_atom_site_label_2
_geom_bond_distance
_geom_bond_site_symmetry_2
_ccdc_geom_bond_type
Gd0 N31 2.661 1_455 S
Gd0 N37 2.601 1_455 S
Gd0 O44 2.545 1_455 S
Gd0 O45 2.606 . S
Gd0 O47 2.429 . S
Gd0 O48 2.545 . S
Gd0 O49 2.412 1_455 S
Gd0 O51 2.362 . S
Gd0 O52 2.324 . S
Gd0 C59 2.828 1_455 S
Gd1 N10 2.661 . S
Gd1 N14 2.601 . S
Gd1 O45 2.362 . S
Gd1 O46 2.324 . S
Gd1 O50 2.545 . S
Gd1 O51 2.606 . S
Gd1 O53 2.429 . S
Gd1 O54 2.545 . S
Gd1 O55 2.412 . S
Gd1 C68 2.828 . S
C2 C5 1.417 . S
C2 C7 1.431 . S
C2 C8 1.412 . S
C3 C6 1.437 . S
C3 C7 1.317 . S
C3 H22 0.929 . S
C4 C5 1.426 . S
C4 C6 1.413 . S
C4 N14 1.359 . S
C5 C2 1.417 . S
C5 C4 1.426 . S
C5 N10 1.350 . S
C6 C3 1.437 . S
C6 C4 1.413 . S
C6 C16 1.391 . S
C7 C2 1.431 . S
C7 C3 1.317 . S
C7 H18 0.930 . S
C8 C2 1.412 . S
C8 C9 1.355 . S
C8 H20 0.930 . S
C9 C8 1.355 . S
C9 C11 1.402 . S
C9 H21 0.930 . S
N10 Gd1 2.661 . S
N10 C5 1.350 . S
N10 C11 1.307 . S
C11 C9 1.402 . S
C11 N10 1.307 . S
C11 H12 0.930 . S
H12 C11 0.930 . S
C13 N14 1.334 . S
C13 C15 1.394 . S
C13 H17 0.930 . S
N14 Gd1 2.601 . S
N14 C4 1.359 . S
N14 C13 1.334 . S
C15 C13 1.394 . S
C15 C16 1.359 . S
C15 H27 0.930 . S
C16 C6 1.391 . S
C16 C15 1.359 . S
C16 H28 0.929 . S
H17 C13 0.930 . S
H18 C7 0.930 . S
H19 C36 0.930 . S
H20 C8 0.930 . S
H21 C9 0.930 . S
H22 C3 0.929 . S
H23 C41 0.930 . S
H24 C32 0.930 . S
H25 C33 0.930 . S
H26 C57 0.929 . S
H27 C15 0.930 . S
H28 C16 0.929 . S
H29 C58 0.930 . S
H30 C39 0.930 . S
N31 Gd0 2.661 1_655 S
N31 C35 1.350 . S
N31 C36 1.307 . S
C32 H24 0.930 . S
C32 C33 1.355 . S
C32 C34 1.412 . S
C33 H25 0.930 . S
C33 C32 1.355 . S
C33 C36 1.402 . S
C34 C32 1.412 . S
C34 C35 1.417 . S
C34 C58 1.431 . S
C35 N31 1.350 . S
C35 C34 1.417 . S
C35 C38 1.426 . S
C36 H19 0.930 . S
C36 N31 1.307 . S
C36 C33 1.402 . S
N37 Gd0 2.601 1_655 S
N37 C38 1.359 . S
N37 C41 1.334 1_554 S
C38 C35 1.426 . S
C38 N37 1.359 . S
C38 C42 1.413 . S
C39 H30 0.930 . S
C39 C40 1.359 . S
C39 C41 1.394 . S
C40 C39 1.359 . S
C40 C42 1.391 1_556 S
C40 H43 0.929 . S
C41 H23 0.930 . S
C41 N37 1.334 1_556 S
C41 C39 1.394 . S
C42 C38 1.413 . S
C42 C40 1.391 1_554 S
C42 C57 1.437 . S
H43 C40 0.929 . S
O44 Gd0 2.545 1_655 S
O44 C59 1.258 . S
O45 Gd0 2.606 . S
O45 Gd1 2.362 . S
O45 C56 1.284 . S
O46 Gd1 2.324 . S
O46 C66 1.254 . S
O47 Gd0 2.429 . S
O47 C66 1.268 . S
O48 Gd0 2.545 . S
O48 C56 1.250 . S
O49 Gd0 2.412 1_655 S
O49 C59 1.252 . S
O50 Gd1 2.545 . S
O50 C68 1.258 . S
O51 Gd0 2.362 . S
O51 Gd1 2.606 . S
O51 C67 1.284 . S
O52 Gd0 2.324 . S
O52 C75 1.254 . S
O53 Gd1 2.429 . S
O53 C75 1.268 . S
O54 Gd1 2.545 . S
O54 C67 1.250 . S
O55 Gd1 2.412 . S
O55 C68 1.252 . S
C56 O45 1.284 . S
C56 O48 1.250 . S
C57 H26 0.929 . S
C57 C42 1.437 . S
C57 C58 1.317 . S
C58 H29 0.930 . S
C58 C34 1.431 . S
C58 C57 1.317 . S
C59 Gd0 2.828 1_655 S
C59 O44 1.258 . S
C59 O49 1.252 . S
C59 C60 1.497 . S
C60 C59 1.497 . S
C60 C61 1.395 . S
C60 C62 1.380 . S
C61 C60 1.395 . S
C61 C64 1.398 . S
C61 H76 0.930 . S
C62 C60 1.380 . S
C62 C63 1.391 . S
C62 H77 0.930 . S
C63 C62 1.391 . S
C63 C65 1.387 . S
C64 C61 1.398 . S
C64 C65 1.380 . S
C64 H78 0.930 . S
C65 C63 1.387 . S
C65 C64 1.380 . S
C65 H79 0.930 . S
C66 O46 1.254 . S
C66 O47 1.268 . S
C67 O51 1.284 . S
C67 O54 1.250 . S
C68 Gd1 2.828 . S
C68 O50 1.258 . S
C68 O55 1.252 . S
C68 C69 1.497 . S
C69 C68 1.497 . S
C69 C70 1.395 . S
C69 C71 1.380 . S
C70 C69 1.395 . S
C70 C73 1.398 . S
C70 H80 0.930 . S
C71 C69 1.380 . S
C71 C72 1.391 . S
C71 H81 0.930 . S
C72 C71 1.391 . S
C72 C74 1.387 . S
C73 C70 1.398 . S
C73 C74 1.380 . S
C73 H82 0.930 . S
C74 C72 1.387 . S
C74 C73 1.380 . S
C74 H83 0.930 . S
C75 O52 1.254 . S
C75 O53 1.268 . S
H76 C61 0.930 . S
H77 C62 0.930 . S
H78 C64 0.930 . S
H79 C65 0.930 . S
H80 C70 0.930 . S
H81 C71 0.930 . S
H82 C73 0.930 . S
H83 C74 0.930 . S
Gd84 N115 2.661 . S
Gd84 N121 2.601 . S
Gd84 O128 2.545 . S
Gd84 O129 2.606 . S
Gd84 O131 2.429 . S
Gd84 O132 2.545 . S
Gd84 O133 2.412 . S
Gd84 O135 2.362 . S
Gd84 O136 2.324 . S
Gd84 C143 2.828 . S
Gd85 N94 2.661 . S
Gd85 N98 2.601 . S
Gd85 O129 2.362 . S
Gd85 O130 2.324 . S
Gd85 O134 2.545 . S
Gd85 O135 2.606 . S
Gd85 O137 2.429 . S
Gd85 O138 2.545 . S
Gd85 O139 2.412 . S
Gd85 C152 2.828 . S
C86 C89 1.417 . S
C86 C91 1.431 . S
C86 C92 1.412 . S
C87 C90 1.437 . S
C87 C91 1.317 . S
C87 H106 0.929 . S
C88 C89 1.426 . S
C88 C90 1.413 . S
C88 N98 1.359 . S
C89 C86 1.417 . S
C89 C88 1.426 . S
C89 N94 1.350 . S
C90 C87 1.437 . S
C90 C88 1.413 . S
C90 C100 1.391 1_554 S
C91 C86 1.431 . S
C91 C87 1.317 . S
C91 H102 0.930 . S
C92 C86 1.412 . S
C92 C93 1.355 . S
C92 H104 0.930 . S
C93 C92 1.355 . S
C93 C95 1.402 . S
C93 H105 0.930 . S
N94 Gd85 2.661 . S
N94 C89 1.350 . S
N94 C95 1.307 . S
C95 C93 1.402 . S
C95 N94 1.307 . S
C95 H96 0.930 . S
H96 C95 0.930 . S
C97 N98 1.334 1_556 S
C97 C99 1.394 . S
C97 H101 0.930 . S
N98 Gd85 2.601 . S
N98 C88 1.359 . S
N98 C97 1.334 1_554 S
C99 C97 1.394 . S
C99 C100 1.359 . S
C99 H111 0.930 . S
C100 C90 1.391 1_556 S
C100 C99 1.359 . S
C100 H112 0.929 . S
H101 C97 0.930 . S
H102 C91 0.930 . S
H103 C120 0.930 . S
H104 C92 0.930 . S
H105 C93 0.930 . S
H106 C87 0.929 . S
H107 C125 0.930 . S
H108 C116 0.930 . S
H109 C117 0.930 1_556 S
H110 C141 0.929 . S
H111 C99 0.930 . S
H112 C100 0.929 . S
H113 C142 0.930 . S
H114 C123 0.930 . S
N115 Gd84 2.661 . S
N115 C119 1.350 . S
N115 C120 1.307 . S
C116 H108 0.930 . S
C116 C117 1.355 . S
C116 C118 1.412 . S
C117 H109 0.930 1_554 S
C117 C116 1.355 . S
C117 C120 1.402 . S
C118 C116 1.412 . S
C118 C119 1.417 . S
C118 C142 1.431 . S
C119 N115 1.350 . S
C119 C118 1.417 . S
C119 C122 1.426 . S
C120 H103 0.930 . S
C120 N115 1.307 . S
C120 C117 1.402 . S
N121 Gd84 2.601 . S
N121 C122 1.359 . S
N121 C125 1.334 . S
C122 C119 1.426 . S
C122 N121 1.359 . S
C122 C126 1.413 . S
C123 H114 0.930 . S
C123 C124 1.359 . S
C123 C125 1.394 . S
C124 C123 1.359 . S
C124 C126 1.391 . S
C124 H127 0.929 . S
C125 H107 0.930 . S
C125 N121 1.334 . S
C125 C123 1.394 . S
C126 C122 1.413 . S
C126 C124 1.391 . S
C126 C141 1.437 . S
H127 C124 0.929 . S
O128 Gd84 2.545 . S
O128 C143 1.258 . S
O129 Gd84 2.606 . S
O129 Gd85 2.362 . S
O129 C140 1.284 . S
O130 Gd85 2.324 . S
O130 C150 1.254 . S
O131 Gd84 2.429 . S
O131 C150 1.268 . S
O132 Gd84 2.545 . S
O132 C140 1.250 . S
O133 Gd84 2.412 . S
O133 C143 1.252 . S
O134 Gd85 2.545 . S
O134 C152 1.258 . S
O135 Gd84 2.362 . S
O135 Gd85 2.606 . S
O135 C151 1.284 . S
O136 Gd84 2.324 . S
O136 C159 1.254 . S
O137 Gd85 2.429 . S
O137 C159 1.268 . S
O138 Gd85 2.545 . S
O138 C151 1.250 . S
O139 Gd85 2.412 . S
O139 C152 1.252 . S
C140 O129 1.284 . S
C140 O132 1.250 . S
C141 H110 0.929 . S
C141 C126 1.437 . S
C141 C142 1.317 . S
C142 H113 0.930 . S
C142 C118 1.431 . S
C142 C141 1.317 . S
C143 Gd84 2.828 . S
C143 O128 1.258 . S
C143 O133 1.252 . S
C143 C144 1.497 . S
C144 C143 1.497 . S
C144 C145 1.395 . S
C144 C146 1.380 . S
C145 C144 1.395 . S
C145 C148 1.398 . S
C145 H160 0.930 . S
C146 C144 1.380 . S
C146 C147 1.391 . S
C146 H161 0.930 . S
C147 C146 1.391 . S
C147 C149 1.387 . S
C148 C145 1.398 . S
C148 C149 1.380 . S
C148 H162 0.930 . S
C149 C147 1.387 . S
C149 C148 1.380 . S
C149 H163 0.930 . S
C150 O130 1.254 . S
C150 O131 1.268 . S
C151 O135 1.284 . S
C151 O138 1.250 . S
C152 Gd85 2.828 . S
C152 O134 1.258 . S
C152 O139 1.252 . S
C152 C153 1.497 . S
C153 C152 1.497 . S
C153 C154 1.395 . S
C153 C155 1.380 . S
C154 C153 1.395 . S
C154 C157 1.398 . S
C154 H164 0.930 . S
C155 C153 1.380 . S
C155 C156 1.391 . S
C155 H165 0.930 . S
C156 C155 1.391 . S
C156 C158 1.387 . S
C157 C154 1.398 . S
C157 C158 1.380 . S
C157 H166 0.930 . S
C158 C156 1.387 . S
C158 C157 1.380 . S
C158 H167 0.930 . S
C159 O136 1.254 . S
C159 O137 1.268 . S
H160 C145 0.930 . S
H161 C146 0.930 . S
H162 C148 0.930 . S
H163 C149 0.930 . S
H164 C154 0.930 . S
H165 C155 0.930 . S
H166 C157 0.930 . S
H167 C158 0.930 . S
Gd168 N199 2.661 . S
Gd168 N205 2.601 1_554 S
Gd168 O212 2.545 1_554 S
Gd168 O213 2.606 1_545 S
Gd168 O215 2.429 1_554 S
Gd168 O216 2.545 1_554 S
Gd168 O217 2.412 . S
Gd168 O219 2.362 . S
Gd168 O220 2.324 . S
Gd168 C227 2.828 . S
Gd169 N178 2.661 1_554 S
Gd169 N182 2.601 . S
Gd169 O213 2.362 . S
Gd169 O214 2.324 1_554 S
Gd169 O218 2.545 . S
Gd169 O219 2.606 1_565 S
Gd169 O221 2.429 1_565 S
Gd169 O222 2.545 1_565 S
Gd169 O223 2.412 1_554 S
Gd169 C236 2.828 1_554 S
C170 C173 1.417 . S
C170 C175 1.431 . S
C170 C176 1.412 . S
C171 C174 1.437 . S
C171 C175 1.317 1_554 S
C171 H190 0.929 . S
C172 C173 1.426 1_554 S
C172 C174 1.413 . S
C172 N182 1.359 . S
C173 C170 1.417 . S
C173 C172 1.426 1_556 S
C173 N178 1.350 . S
C174 C171 1.437 . S
C174 C172 1.413 . S
C174 C184 1.391 . S
C175 C170 1.431 . S
C175 C171 1.317 1_556 S
C175 H186 0.930 . S
C176 C170 1.412 . S
C176 C177 1.355 . S
C176 H188 0.930 . S
C177 C176 1.355 . S
C177 C179 1.402 . S
C177 H189 0.930 . S
N178 Gd169 2.661 1_556 S
N178 C173 1.350 . S
N178 C179 1.307 . S
C179 C177 1.402 . S
C179 N178 1.307 . S
C179 H180 0.930 . S
H180 C179 0.930 . S
C181 N182 1.334 . S
C181 C183 1.394 . S
C181 H185 0.930 . S
N182 Gd169 2.601 . S
N182 C172 1.359 . S
N182 C181 1.334 . S
C183 C181 1.394 . S
C183 C184 1.359 . S
C183 H195 0.930 . S
C184 C174 1.391 . S
C184 C183 1.359 . S
C184 H196 0.929 . S
H185 C181 0.930 . S
H186 C175 0.930 . S
H187 C204 0.930 . S
H188 C176 0.930 . S
H189 C177 0.930 . S
H190 C171 0.929 . S
H191 C209 0.930 . S
H192 C200 0.930 . S
H193 C201 0.930 . S
H194 C225 0.929 . S
H195 C183 0.930 . S
H196 C184 0.929 . S
H197 C226 0.930 . S
H198 C207 0.930 . S
N199 Gd168 2.661 . S
N199 C203 1.350 . S
N199 C204 1.307 . S
C200 H192 0.930 . S
C200 C201 1.355 . S
C200 C202 1.412 . S
C201 H193 0.930 . S
C201 C200 1.355 . S
C201 C204 1.402 . S
C202 C200 1.412 . S
C202 C203 1.417 . S
C202 C226 1.431 . S
C203 N199 1.350 . S
C203 C202 1.417 . S
C203 C206 1.426 1_554 S
C204 H187 0.930 . S
C204 N199 1.307 . S
C204 C201 1.402 . S
N205 Gd168 2.601 1_556 S
N205 C206 1.359 . S
N205 C209 1.334 . S
C206 C203 1.426 1_556 S
C206 N205 1.359 . S
C206 C210 1.413 . S
C207 H198 0.930 . S
C207 C208 1.359 . S
C207 C209 1.394 . S
C208 C207 1.359 . S
C208 C210 1.391 . S
C208 H211 0.929 . S
C209 H191 0.930 . S
C209 N205 1.334 . S
C209 C207 1.394 . S
C210 C206 1.413 . S
C210 C208 1.391 . S
C210 C225 1.437 . S
H211 C208 0.929 . S
O212 Gd168 2.545 1_556 S
O212 C227 1.258 1_556 S
O213 Gd168 2.606 1_565 S
O213 Gd169 2.362 . S
O213 C224 1.284 . S
O214 Gd169 2.324 1_556 S
O214 C234 1.254 1_565 S
O215 Gd168 2.429 1_556 S
O215 C234 1.268 . S
O216 Gd168 2.545 1_556 S
O216 C224 1.250 1_546 S
O217 Gd168 2.412 . S
O217 C227 1.252 . S
O218 Gd169 2.545 . S
O218 C236 1.258 1_554 S
O219 Gd168 2.362 . S
O219 Gd169 2.606 1_545 S
O219 C235 1.284 . S
O220 Gd168 2.324 . S
O220 C243 1.254 . S
O221 Gd169 2.429 1_545 S
O221 C243 1.268 . S
O222 Gd169 2.545 1_545 S
O222 C235 1.250 . S
O223 Gd169 2.412 1_556 S
O223 C236 1.252 . S
C224 O213 1.284 . S
C224 O216 1.250 1_564 S
C225 H194 0.929 . S
C225 C210 1.437 . S
C225 C226 1.317 1_556 S
C226 H197 0.930 . S
C226 C202 1.431 . S
C226 C225 1.317 1_554 S
C227 Gd168 2.828 . S
C227 O212 1.258 1_554 S
C227 O217 1.252 . S
C227 C228 1.497 . S
C228 C227 1.497 . S
C228 C229 1.395 1_554 S
C228 C230 1.380 . S
C229 C228 1.395 1_556 S
C229 C232 1.398 1_556 S
C229 H244 0.930 . S
C230 C228 1.380 . S
C230 C231 1.391 . S
C230 H245 0.930 . S
C231 C230 1.391 . S
C231 C233 1.387 . S
C232 C229 1.398 1_554 S
C232 C233 1.380 . S
C232 H246 0.930 1_554 S
C233 C231 1.387 . S
C233 C232 1.380 . S
C233 H247 0.930 . S
C234 O214 1.254 1_545 S
C234 O215 1.268 . S
C235 O219 1.284 . S
C235 O222 1.250 . S
C236 Gd169 2.828 1_556 S
C236 O218 1.258 1_556 S
C236 O223 1.252 . S
C236 C237 1.497 . S
C237 C236 1.497 . S
C237 C238 1.395 1_556 S
C237 C239 1.380 . S
C238 C237 1.395 1_554 S
C238 C241 1.398 . S
C238 H248 0.930 . S
C239 C237 1.380 . S
C239 C240 1.391 . S
C239 H249 0.930 . S
C240 C239 1.391 . S
C240 C242 1.387 . S
C241 C238 1.398 . S
C241 C242 1.380 1_554 S
C241 H250 0.930 . S
C242 C240 1.387 . S
C242 C241 1.380 1_556 S
C242 H251 0.930 . S
C243 O220 1.254 . S
C243 O221 1.268 . S
H244 C229 0.930 . S
H245 C230 0.930 . S
H246 C232 0.930 1_556 S
H247 C233 0.930 . S
H248 C238 0.930 . S
H249 C239 0.930 . S
H250 C241 0.930 . S
H251 C242 0.930 . S
Gd252 N283 2.661 . S
Gd252 N289 2.601 . S
Gd252 O296 2.545 . S
Gd252 O297 2.606 . S
Gd252 O299 2.429 . S
Gd252 O300 2.545 . S
Gd252 O301 2.412 . S
Gd252 O303 2.362 . S
Gd252 O304 2.324 . S
Gd252 C311 2.828 . S
Gd253 N262 2.661 . S
Gd253 N266 2.601 . S
Gd253 O297 2.362 . S
Gd253 O298 2.324 . S
Gd253 O302 2.545 . S
Gd253 O303 2.606 . S
Gd253 O305 2.429 . S
Gd253 O306 2.545 . S
Gd253 O307 2.412 . S
Gd253 C320 2.828 . S
C254 C257 1.417 . S
C254 C259 1.431 . S
C254 C260 1.412 . S
C255 C258 1.437 . S
C255 C259 1.317 1_556 S
C255 H274 0.929 . S
C256 C257 1.426 . S
C256 C258 1.413 1_554 S
C256 N266 1.359 . S
C257 C254 1.417 . S
C257 C256 1.426 . S
C257 N262 1.350 . S
C258 C255 1.437 . S
C258 C256 1.413 1_556 S
C258 C268 1.391 . S
C259 C254 1.431 . S
C259 C255 1.317 1_554 S
C259 H270 0.930 . S
C260 C254 1.412 . S
C260 C261 1.355 . S
C260 H272 0.930 . S
C261 C260 1.355 . S
C261 C263 1.402 . S
C261 H273 0.930 . S
N262 Gd253 2.661 . S
N262 C257 1.350 . S
N262 C263 1.307 . S
C263 C261 1.402 . S
C263 N262 1.307 . S
C263 H264 0.930 . S
H264 C263 0.930 . S
C265 N266 1.334 1_556 S
C265 C267 1.394 . S
C265 H269 0.930 . S
N266 Gd253 2.601 . S
N266 C256 1.359 . S
N266 C265 1.334 1_554 S
C267 C265 1.394 . S
C267 C268 1.359 . S
C267 H279 0.930 . S
C268 C258 1.391 . S
C268 C267 1.359 . S
C268 H280 0.929 . S
H269 C265 0.930 . S
H270 C259 0.930 . S
H271 C288 0.930 . S
H272 C260 0.930 . S
H273 C261 0.930 . S
H274 C255 0.929 . S
H275 C293 0.930 . S
H276 C284 0.930 . S
H277 C285 0.930 . S
H278 C309 0.929 . S
H279 C267 0.930 . S
H280 C268 0.929 . S
H281 C310 0.930 . S
H282 C291 0.930 . S
N283 Gd252 2.661 . S
N283 C287 1.350 . S
N283 C288 1.307 . S
C284 H276 0.930 . S
C284 C285 1.355 . S
C284 C286 1.412 . S
C285 H277 0.930 . S
C285 C284 1.355 . S
C285 C288 1.402 . S
C286 C284 1.412 . S
C286 C287 1.417 . S
C286 C310 1.431 . S
C287 N283 1.350 . S
C287 C286 1.417 . S
C287 C290 1.426 . S
C288 H271 0.930 . S
C288 N283 1.307 . S
C288 C285 1.402 . S
N289 Gd252 2.601 . S
N289 C290 1.359 . S
N289 C293 1.334 . S
C290 C287 1.426 . S
C290 N289 1.359 . S
C290 C294 1.413 . S
C291 H282 0.930 . S
C291 C292 1.359 . S
C291 C293 1.394 . S
C292 C291 1.359 . S
C292 C294 1.391 . S
C292 H295 0.929 . S
C293 H275 0.930 . S
C293 N289 1.334 . S
C293 C291 1.394 . S
C294 C290 1.413 . S
C294 C292 1.391 . S
C294 C309 1.437 . S
H295 C292 0.929 . S
O296 Gd252 2.545 . S
O296 C311 1.258 . S
O297 Gd252 2.606 . S
O297 Gd253 2.362 . S
O297 C308 1.284 . S
O298 Gd253 2.324 . S
O298 C318 1.254 . S
O299 Gd252 2.429 . S
O299 C318 1.268 . S
O300 Gd252 2.545 . S
O300 C308 1.250 . S
O301 Gd252 2.412 . S
O301 C311 1.252 . S
O302 Gd253 2.545 . S
O302 C320 1.258 . S
O303 Gd252 2.362 . S
O303 Gd253 2.606 . S
O303 C319 1.284 . S
O304 Gd252 2.324 . S
O304 C327 1.254 1_554 S
O305 Gd253 2.429 . S
O305 C327 1.268 1_554 S
O306 Gd253 2.545 . S
O306 C319 1.250 . S
O307 Gd253 2.412 . S
O307 C320 1.252 . S
C308 O297 1.284 . S
C308 O300 1.250 . S
C309 H278 0.929 . S
C309 C294 1.437 . S
C309 C310 1.317 . S
C310 H281 0.930 . S
C310 C286 1.431 . S
C310 C309 1.317 . S
C311 Gd252 2.828 . S
C311 O296 1.258 . S
C311 O301 1.252 . S
C311 C312 1.497 . S
C312 C311 1.497 . S
C312 C313 1.395 . S
C312 C314 1.380 . S
C313 C312 1.395 . S
C313 C316 1.398 . S
C313 H328 0.930 . S
C314 C312 1.380 . S
C314 C315 1.391 . S
C314 H329 0.930 . S
C315 C314 1.391 . S
C315 C317 1.387 . S
C316 C313 1.398 . S
C316 C317 1.380 . S
C316 H330 0.930 . S
C317 C315 1.387 . S
C317 C316 1.380 . S
C317 H331 0.930 . S
C318 O298 1.254 . S
C318 O299 1.268 . S
C319 O303 1.284 . S
C319 O306 1.250 . S
C320 Gd253 2.828 . S
C320 O302 1.258 . S
C320 O307 1.252 . S
C320 C321 1.497 . S
C321 C320 1.497 . S
C321 C322 1.395 . S
C321 C323 1.380 . S
C322 C321 1.395 . S
C322 C325 1.398 . S
C322 H332 0.930 . S
C323 C321 1.380 . S
C323 C324 1.391 . S
C323 H333 0.930 . S
C324 C323 1.391 . S
C324 C326 1.387 . S
C325 C322 1.398 . S
C325 C326 1.380 . S
C325 H334 0.930 . S
C326 C324 1.387 . S
C326 C325 1.380 . S
C326 H335 0.930 . S
C327 O304 1.254 1_556 S
C327 O305 1.268 1_556 S
H328 C313 0.930 . S
H329 C314 0.930 . S
H330 C316 0.930 . S
H331 C317 0.930 . S
H332 C322 0.930 . S
H333 C323 0.930 . S
H334 C325 0.930 . S
H335 C326 0.930 . S
Gd336 N367 2.661 1_554 S
Gd336 N373 2.601 . S
Gd336 O380 2.545 . S
Gd336 O381 2.606 . S
Gd336 O383 2.429 . S
Gd336 O384 2.545 . S
Gd336 O385 2.412 1_554 S
Gd336 O387 2.362 . S
Gd336 O388 2.324 1_554 S
Gd336 C395 2.828 . S
Gd337 N346 2.658 1_556 S
Gd337 N350 2.607 . S
Gd337 O381 2.364 1_556 S
Gd337 O382 2.315 1_556 S
Gd337 O386 2.547 . S
Gd337 O387 2.605 1_556 S
Gd337 O389 2.438 . S
Gd337 O390 2.543 . S
Gd337 O391 2.406 1_556 S
Gd337 C404 2.826 . S
C338 C341 1.417 . S
C338 C343 1.431 . S
C338 C344 1.412 . S
C339 C342 1.437 . S
C339 C343 1.317 1_556 S
C339 H358 0.929 . S
C340 C341 1.426 1_556 S
C340 C342 1.413 . S
C340 N350 1.359 . S
C341 C338 1.417 . S
C341 C340 1.426 1_554 S
C341 N346 1.350 . S
C342 C339 1.437 . S
C342 C340 1.413 . S
C342 C352 1.391 . S
C343 C338 1.431 . S
C343 C339 1.317 1_554 S
C343 H354 0.930 . S
C344 C338 1.412 . S
C344 C345 1.355 . S
C344 H356 0.930 . S
C345 C344 1.355 . S
C345 C347 1.402 . S
C345 H357 0.930 . S
N346 Gd337 2.658 1_554 S
N346 C341 1.350 . S
N346 C347 1.307 . S
C347 C345 1.402 . S
C347 N346 1.307 . S
C347 H348 0.930 . S
H348 C347 0.930 . S
C349 N350 1.334 . S
C349 C351 1.394 . S
C349 H353 0.930 . S
N350 Gd337 2.607 . S
N350 C340 1.359 . S
N350 C349 1.334 . S
C351 C349 1.394 . S
C351 C352 1.359 . S
C351 H363 0.930 . S
C352 C342 1.391 . S
C352 C351 1.359 . S
C352 H364 0.929 . S
H353 C349 0.930 . S
H354 C343 0.930 . S
H355 C372 0.930 . S
H356 C344 0.930 . S
H357 C345 0.930 . S
H358 C339 0.929 . S
H359 C377 0.930 . S
H360 C368 0.930 . S
H361 C369 0.930 . S
H362 C393 0.929 . S
H363 C351 0.930 . S
H364 C352 0.929 . S
H365 C394 0.930 . S
H366 C375 0.930 . S
N367 Gd336 2.661 1_556 S
N367 C371 1.350 . S
N367 C372 1.307 . S
C368 H360 0.930 . S
C368 C369 1.355 . S
C368 C370 1.412 . S
C369 H361 0.930 . S
C369 C368 1.355 . S
C369 C372 1.402 . S
C370 C368 1.412 . S
C370 C371 1.417 . S
C370 C394 1.431 . S
C371 N367 1.350 . S
C371 C370 1.417 . S
C371 C374 1.426 1_556 S
C372 H355 0.930 . S
C372 N367 1.307 . S
C372 C369 1.402 . S
N373 Gd336 2.601 . S
N373 C374 1.359 . S
N373 C377 1.334 . S
C374 C371 1.426 1_554 S
C374 N373 1.359 . S
C374 C378 1.413 . S
C375 H366 0.930 . S
C375 C376 1.359 . S
C375 C377 1.394 . S
C376 C375 1.359 . S
C376 C378 1.391 . S
C376 H379 0.929 . S
C377 H359 0.930 . S
C377 N373 1.334 . S
C377 C375 1.394 . S
C378 C374 1.413 . S
C378 C376 1.391 . S
C378 C393 1.437 . S
H379 C376 0.929 . S
O380 Gd336 2.545 . S
O380 C395 1.258 . S
O381 Gd336 2.606 . S
O381 Gd337 2.364 1_554 S
O381 C392 1.284 . S
O382 Gd337 2.315 1_554 S
O382 C402 1.254 . S
O383 Gd336 2.429 . S
O383 C402 1.268 . S
O384 Gd336 2.545 . S
O384 C392 1.250 . S
O385 Gd336 2.412 1_556 S
O385 C395 1.252 1_556 S
O386 Gd337 2.547 . S
O386 C404 1.260 . S
O387 Gd336 2.362 . S
O387 Gd337 2.605 1_554 S
O387 C403 1.284 . S
O388 Gd336 2.324 1_556 S
O388 C411 1.254 . S
O389 Gd337 2.438 . S
O389 C411 1.268 . S
O390 Gd337 2.543 . S
O390 C403 1.250 1_556 S
O391 Gd337 2.406 1_554 S
O391 C404 1.250 1_554 S
C392 O381 1.284 . S
C392 O384 1.250 . S
C393 H362 0.929 . S
C393 C378 1.437 . S
C393 C394 1.317 1_554 S
C394 H365 0.930 . S
C394 C370 1.431 . S
C394 C393 1.317 1_556 S
C395 Gd336 2.828 . S
C395 O380 1.258 . S
C395 O385 1.252 1_554 S
C395 C396 1.497 . S
C396 C395 1.497 . S
C396 C397 1.395 . S
C396 C398 1.380 1_554 S
C397 C396 1.395 . S
C397 C400 1.398 . S
C397 H412 0.930 . S
C398 C396 1.380 1_556 S
C398 C399 1.391 . S
C398 H413 0.930 . S
C399 C398 1.391 . S
C399 C401 1.387 1_556 S
C400 C397 1.398 . S
C400 C401 1.380 . S
C400 H414 0.930 . S
C401 C399 1.387 1_554 S
C401 C400 1.380 . S
C401 H415 0.930 . S
C402 O382 1.254 . S
C402 O383 1.268 . S
C403 O387 1.284 . S
C403 O390 1.250 1_554 S
C404 Gd337 2.826 . S
C404 O386 1.260 . S
C404 O391 1.250 1_556 S
C404 C405 1.496 1_556 S
C405 C404 1.496 1_554 S
C405 C406 1.395 1_554 S
C405 C407 1.380 . S
C406 C405 1.395 1_556 S
C406 C409 1.398 . S
C406 H416 0.930 . S
C407 C405 1.380 . S
C407 C408 1.391 . S
C407 H417 0.930 . S
C408 C407 1.391 . S
C408 C410 1.387 . S
C409 C406 1.398 . S
C409 C410 1.380 1_556 S
C409 H418 0.930 . S
C410 C408 1.387 . S
C410 C409 1.380 1_554 S
C410 H419 0.930 . S
C411 O388 1.254 . S
C411 O389 1.268 . S
H412 C397 0.930 . S
H413 C398 0.930 . S
H414 C400 0.930 . S
H415 C401 0.930 . S
H416 C406 0.930 . S
H417 C407 0.930 . S
H418 C409 0.930 . S
H419 C410 0.930 . S
Gd420 N451 2.661 . S
Gd420 N457 2.601 . S
Gd420 O464 2.545 . S
Gd420 O465 2.606 . S
Gd420 O467 2.429 . S
Gd420 O468 2.545 . S
Gd420 O469 2.412 . S
Gd420 O471 2.362 . S
Gd420 O472 2.324 . S
Gd420 C479 2.828 . S
Gd421 N430 2.661 . S
Gd421 N434 2.601 . S
Gd421 O465 2.362 . S
Gd421 O466 2.324 . S
Gd421 O470 2.545 . S
Gd421 O471 2.606 . S
Gd421 O473 2.429 . S
Gd421 O474 2.545 . S
Gd421 O475 2.412 . S
Gd421 C488 2.828 . S
C422 C425 1.417 . S
C422 C427 1.431 . S
C422 C428 1.412 . S
C423 C426 1.437 . S
C423 C427 1.317 . S
C423 H442 0.929 . S
C424 C425 1.426 . S
C424 C426 1.413 . S
C424 N434 1.359 . S
C425 C422 1.417 . S
C425 C424 1.426 . S
C425 N430 1.350 . S
C426 C423 1.437 . S
C426 C424 1.413 . S
C426 C436 1.391 . S
C427 C422 1.431 . S
C427 C423 1.317 . S
C427 H438 0.930 . S
C428 C422 1.412 . S
C428 C429 1.355 . S
C428 H440 0.930 . S
C429 C428 1.355 . S
C429 C431 1.402 . S
C429 H441 0.930 . S
N430 Gd421 2.661 . S
N430 C425 1.350 . S
N430 C431 1.307 . S
C431 C429 1.402 . S
C431 N430 1.307 . S
C431 H432 0.930 . S
H432 C431 0.930 . S
C433 N434 1.334 . S
C433 C435 1.394 . S
C433 H437 0.930 . S
N434 Gd421 2.601 . S
N434 C424 1.359 . S
N434 C433 1.334 . S
C435 C433 1.394 . S
C435 C436 1.359 . S
C435 H447 0.919 1_554 S
C436 C426 1.391 . S
C436 C435 1.359 . S
C436 H448 0.929 . S
H437 C433 0.930 . S
H438 C427 0.930 . S
H439 C456 0.930 . S
H440 C428 0.930 . S
H441 C429 0.930 . S
H442 C423 0.929 . S
H443 C461 0.930 . S
H444 C452 0.930 1_556 S
H445 C453 0.930 . S
H446 C477 0.929 . S
H447 C435 0.919 1_556 S
H448 C436 0.929 . S
H449 C478 0.930 . S
H450 C459 0.930 . S
N451 Gd420 2.661 . S
N451 C455 1.350 . S
N451 C456 1.307 . S
C452 H444 0.930 1_554 S
C452 C453 1.355 1_554 S
C452 C454 1.412 . S
C453 H445 0.930 . S
C453 C452 1.355 1_556 S
C453 C456 1.402 1_556 S
C454 C452 1.412 . S
C454 C455 1.417 . S
C454 C478 1.431 . S
C455 N451 1.350 . S
C455 C454 1.417 . S
C455 C458 1.426 . S
C456 H439 0.930 . S
C456 N451 1.307 . S
C456 C453 1.402 1_554 S
N457 Gd420 2.601 . S
N457 C458 1.359 . S
N457 C461 1.334 . S
C458 C455 1.426 . S
C458 N457 1.359 . S
C458 C462 1.413 . S
C459 H450 0.930 . S
C459 C460 1.359 . S
C459 C461 1.394 . S
C460 C459 1.359 . S
C460 C462 1.391 . S
C460 H463 0.929 . S
C461 H443 0.930 . S
C461 N457 1.334 . S
C461 C459 1.394 . S
C462 C458 1.413 . S
C462 C460 1.391 . S
C462 C477 1.437 . S
H463 C460 0.929 . S
O464 Gd420 2.545 . S
O464 C479 1.258 . S
O465 Gd420 2.606 . S
O465 Gd421 2.362 . S
O465 C476 1.284 . S
O466 Gd421 2.324 . S
O466 C486 1.254 . S
O467 Gd420 2.429 . S
O467 C486 1.268 . S
O468 Gd420 2.545 . S
O468 C476 1.250 . S
O469 Gd420 2.412 . S
O469 C479 1.252 . S
O470 Gd421 2.545 . S
O470 C488 1.258 . S
O471 Gd420 2.362 . S
O471 Gd421 2.606 . S
O471 C487 1.284 . S
O472 Gd420 2.324 . S
O472 C495 1.254 . S
O473 Gd421 2.429 . S
O473 C495 1.268 . S
O474 Gd421 2.545 . S
O474 C487 1.250 . S
O475 Gd421 2.412 . S
O475 C488 1.252 . S
C476 O465 1.284 . S
C476 O468 1.250 . S
C477 H446 0.929 . S
C477 C462 1.437 . S
C477 C478 1.317 . S
C478 H449 0.930 . S
C478 C454 1.431 . S
C478 C477 1.317 . S
C479 Gd420 2.828 . S
C479 O464 1.258 . S
C479 O469 1.252 . S
C479 C480 1.497 . S
C480 C479 1.497 . S
C480 C481 1.395 . S
C480 C482 1.380 . S
C481 C480 1.395 . S
C481 C484 1.398 . S
C481 H496 0.930 . S
C482 C480 1.380 . S
C482 C483 1.391 1_554 S
C482 H497 0.930 1_554 S
C483 C482 1.391 1_556 S
C483 C485 1.387 1_556 S
C484 C481 1.398 . S
C484 C485 1.380 . S
C484 H498 0.930 . S
C485 C483 1.387 1_554 S
C485 C484 1.380 . S
C485 H499 0.929 1_554 S
C486 O466 1.254 . S
C486 O467 1.268 . S
C487 O471 1.284 . S
C487 O474 1.250 . S
C488 Gd421 2.828 . S
C488 O470 1.258 . S
C488 O475 1.252 . S
C488 C489 1.497 . S
C489 C488 1.497 . S
C489 C490 1.395 . S
C489 C491 1.380 . S
C490 C489 1.395 . S
C490 C493 1.398 1_655 S
C490 H500 0.930 . S
C491 C489 1.380 . S
C491 C492 1.391 1_655 S
C491 H501 0.930 . S
C492 C491 1.391 1_455 S
C492 C494 1.387 . S
C493 C490 1.398 1_455 S
C493 C494 1.380 . S
C493 H502 0.930 . S
C494 C492 1.387 . S
C494 C493 1.380 . S
C494 H503 0.930 . S
C495 O472 1.254 . S
C495 O473 1.268 . S
H496 C481 0.930 . S
H497 C482 0.930 1_556 S
H498 C484 0.930 . S
H499 C485 0.929 1_556 S
H500 C490 0.930 . S
H501 C491 0.930 . S
H502 C493 0.930 . S
H503 C494 0.930 . S
Gd504 N535 2.661 . S
Gd504 N541 2.601 . S
Gd504 O548 2.545 . S
Gd504 O549 2.606 . S
Gd504 O551 2.429 . S
Gd504 O552 2.545 . S
Gd504 O553 2.412 . S
Gd504 O555 2.362 . S
Gd504 O556 2.324 . S
Gd504 C563 2.828 . S
Gd505 N514 2.661 . S
Gd505 N518 2.601 . S
Gd505 O549 2.362 . S
Gd505 O550 2.324 . S
Gd505 O554 2.545 . S
Gd505 O555 2.606 . S
Gd505 O557 2.429 . S
Gd505 O558 2.545 . S
Gd505 O559 2.412 . S
Gd505 C572 2.828 . S
C506 C509 1.417 . S
C506 C511 1.431 . S
C506 C512 1.412 . S
C507 C510 1.437 . S
C507 C511 1.317 . S
C507 H526 0.929 . S
C508 C509 1.426 . S
C508 C510 1.413 . S
C508 N518 1.359 . S
C509 C506 1.417 . S
C509 C508 1.426 . S
C509 N514 1.350 . S
C510 C507 1.437 . S
C510 C508 1.413 . S
C510 C520 1.391 . S
C511 C506 1.431 . S
C511 C507 1.317 . S
C511 H522 0.930 . S
C512 C506 1.412 . S
C512 C513 1.355 . S
C512 H524 0.930 . S
C513 C512 1.355 . S
C513 C515 1.402 . S
C513 H525 0.930 . S
N514 Gd505 2.661 . S
N514 C509 1.350 . S
N514 C515 1.307 . S
C515 C513 1.402 . S
C515 N514 1.307 . S
C515 H516 0.930 . S
H516 C515 0.930 . S
C517 N518 1.334 . S
C517 C519 1.394 1_556 S
C517 H521 0.930 . S
N518 Gd505 2.601 . S
N518 C508 1.359 . S
N518 C517 1.334 . S
C519 C517 1.394 1_554 S
C519 C520 1.359 1_554 S
C519 H531 0.930 . S
C520 C510 1.391 . S
C520 C519 1.359 1_556 S
C520 H532 0.929 1_556 S
H521 C517 0.930 . S
H522 C511 0.930 . S
H523 C540 0.930 . S
H524 C512 0.930 . S
H525 C513 0.930 . S
H526 C507 0.929 . S
H527 C545 0.930 . S
H528 C536 0.930 . S
H529 C537 0.930 . S
H530 C561 0.929 . S
H531 C519 0.930 . S
H532 C520 0.929 1_554 S
H533 C562 0.930 . S
H534 C543 0.930 . S
N535 Gd504 2.661 . S
N535 C539 1.350 . S
N535 C540 1.307 . S
C536 H528 0.930 . S
C536 C537 1.355 . S
C536 C538 1.412 . S
C537 H529 0.930 . S
C537 C536 1.355 . S
C537 C540 1.402 . S
C538 C536 1.412 . S
C538 C539 1.417 . S
C538 C562 1.431 . S
C539 N535 1.350 . S
C539 C538 1.417 . S
C539 C542 1.426 . S
C540 H523 0.930 . S
C540 N535 1.307 . S
C540 C537 1.402 . S
N541 Gd504 2.601 . S
N541 C542 1.359 . S
N541 C545 1.334 . S
C542 C539 1.426 . S
C542 N541 1.359 . S
C542 C546 1.413 . S
C543 H534 0.930 . S
C543 C544 1.359 . S
C543 C545 1.394 . S
C544 C543 1.359 . S
C544 C546 1.391 . S
C544 H547 0.929 . S
C545 H527 0.930 . S
C545 N541 1.334 . S
C545 C543 1.394 . S
C546 C542 1.413 . S
C546 C544 1.391 . S
C546 C561 1.437 . S
H547 C544 0.929 . S
O548 Gd504 2.545 . S
O548 C563 1.258 . S
O549 Gd504 2.606 . S
O549 Gd505 2.362 . S
O549 C560 1.284 . S
O550 Gd505 2.324 . S
O550 C570 1.254 . S
O551 Gd504 2.429 . S
O551 C570 1.268 . S
O552 Gd504 2.545 . S
O552 C560 1.250 . S
O553 Gd504 2.412 . S
O553 C563 1.252 . S
O554 Gd505 2.545 . S
O554 C572 1.258 . S
O555 Gd504 2.362 . S
O555 Gd505 2.606 . S
O555 C571 1.284 . S
O556 Gd504 2.324 . S
O556 C579 1.254 . S
O557 Gd505 2.429 . S
O557 C579 1.268 . S
O558 Gd505 2.545 . S
O558 C571 1.250 . S
O559 Gd505 2.412 . S
O559 C572 1.252 . S
C560 O549 1.284 . S
C560 O552 1.250 . S
C561 H530 0.929 . S
C561 C546 1.437 . S
C561 C562 1.317 . S
C562 H533 0.930 . S
C562 C538 1.431 . S
C562 C561 1.317 . S
C563 Gd504 2.828 . S
C563 O548 1.258 . S
C563 O553 1.252 . S
C563 C564 1.497 . S
C564 C563 1.497 . S
C564 C565 1.395 . S
C564 C566 1.380 . S
C565 C564 1.395 . S
C565 C568 1.398 . S
C565 H580 0.930 . S
C566 C564 1.380 . S
C566 C567 1.391 . S
C566 H581 0.930 . S
C567 C566 1.391 . S
C567 C569 1.387 . S
C568 C565 1.398 . S
C568 C569 1.380 . S
C568 H582 0.930 . S
C569 C567 1.387 . S
C569 C568 1.380 . S
C569 H583 0.930 . S
C570 O550 1.254 . S
C570 O551 1.268 . S
C571 O555 1.284 . S
C571 O558 1.250 . S
C572 Gd505 2.828 . S
C572 O554 1.258 . S
C572 O559 1.252 . S
C572 C573 1.497 . S
C573 C572 1.497 . S
C573 C574 1.395 . S
C573 C575 1.380 . S
C574 C573 1.395 . S
C574 C577 1.398 . S
C574 H584 0.930 . S
C575 C573 1.380 . S
C575 C576 1.391 . S
C575 H585 0.930 . S
C576 C575 1.391 . S
C576 C578 1.387 . S
C577 C574 1.398 . S
C577 C578 1.380 . S
C577 H586 0.930 . S
C578 C576 1.387 . S
C578 C577 1.380 . S
C578 H587 0.878 1_565 S
C579 O556 1.254 . S
C579 O557 1.268 . S
H580 C565 0.930 . S
H581 C566 0.930 . S
H582 C568 0.930 . S
H583 C569 0.930 . S
H584 C574 0.930 . S
H585 C575 0.930 . S
H586 C577 0.930 . S
H587 C578 0.878 1_545 S
Gd588 N619 2.661 . S
Gd588 N625 2.601 . S
Gd588 O632 2.545 . S
Gd588 O633 2.606 . S
Gd588 O635 2.429 1_556 S
Gd588 O636 2.545 . S
Gd588 O637 2.412 . S
Gd588 O639 2.362 . S
Gd588 O640 2.324 . S
Gd588 C647 2.828 . S
Gd589 N598 2.661 . S
Gd589 N602 2.601 . S
Gd589 O633 2.362 . S
Gd589 O634 2.324 . S
Gd589 O638 2.545 . S
Gd589 O639 2.606 . S
Gd589 O641 2.429 . S
Gd589 O642 2.545 . S
Gd589 O643 2.412 . S
Gd589 C656 2.828 . S
C590 C593 1.417 . S
C590 C595 1.431 . S
C590 C596 1.412 1_556 S
C591 C594 1.437 . S
C591 C595 1.317 . S
C591 H610 0.929 . S
C592 C593 1.426 . S
C592 C594 1.413 . S
C592 N602 1.359 . S
C593 C590 1.417 . S
C593 C592 1.426 . S
C593 N598 1.350 . S
C594 C591 1.437 . S
C594 C592 1.413 . S
C594 C604 1.391 . S
C595 C590 1.431 . S
C595 C591 1.317 . S
C595 H606 0.930 . S
C596 C590 1.412 1_554 S
C596 C597 1.355 . S
C596 H608 0.930 . S
C597 C596 1.355 . S
C597 C599 1.402 . S
C597 H609 0.930 . S
N598 Gd589 2.661 . S
N598 C593 1.350 . S
N598 C599 1.307 1_556 S
C599 C597 1.402 . S
C599 N598 1.307 1_554 S
C599 H600 0.930 . S
H600 C599 0.930 . S
C601 N602 1.334 . S
C601 C603 1.394 . S
C601 H605 0.930 . S
N602 Gd589 2.601 . S
N602 C592 1.359 . S
N602 C601 1.334 . S
C603 C601 1.394 . S
C603 C604 1.359 . S
C603 H615 0.930 . S
C604 C594 1.391 . S
C604 C603 1.359 . S
C604 H616 0.929 . S
H605 C601 0.930 . S
H606 C595 0.930 . S
H607 C624 0.930 . S
H608 C596 0.930 . S
H609 C597 0.930 . S
H610 C591 0.929 . S
H611 C629 0.930 . S
H612 C620 0.930 . S
H613 C621 0.930 . S
H614 C645 0.929 . S
H615 C603 0.930 . S
H616 C604 0.929 . S
H617 C646 0.930 . S
H618 C627 0.930 . S
N619 Gd588 2.661 . S
N619 C623 1.350 . S
N619 C624 1.307 . S
C620 H612 0.930 . S
C620 C621 1.355 . S
C620 C622 1.412 . S
C621 H613 0.930 . S
C621 C620 1.355 . S
C621 C624 1.402 . S
C622 C620 1.412 . S
C622 C623 1.417 . S
C622 C646 1.431 . S
C623 N619 1.350 . S
C623 C622 1.417 . S
C623 C626 1.426 . S
C624 H607 0.930 . S
C624 N619 1.307 . S
C624 C621 1.402 . S
N625 Gd588 2.601 . S
N625 C626 1.359 . S
N625 C629 1.334 1_556 S
C626 C623 1.426 . S
C626 N625 1.359 . S
C626 C630 1.413 . S
C627 H618 0.930 . S
C627 C628 1.359 . S
C627 C629 1.394 . S
C628 C627 1.359 . S
C628 C630 1.391 1_554 S
C628 H631 0.929 . S
C629 H611 0.930 . S
C629 N625 1.334 1_554 S
C629 C627 1.394 . S
C630 C626 1.413 . S
C630 C628 1.391 1_556 S
C630 C645 1.437 . S
H631 C628 0.929 . S
O632 Gd588 2.545 . S
O632 C647 1.258 . S
O633 Gd588 2.606 . S
O633 Gd589 2.362 . S
O633 C644 1.284 . S
O634 Gd589 2.324 . S
O634 C654 1.254 1_556 S
O635 Gd588 2.429 1_554 S
O635 C654 1.268 . S
O636 Gd588 2.545 . S
O636 C644 1.250 . S
O637 Gd588 2.412 . S
O637 C647 1.252 . S
O638 Gd589 2.545 . S
O638 C656 1.258 . S
O639 Gd588 2.362 . S
O639 Gd589 2.606 . S
O639 C655 1.284 . S
O640 Gd588 2.324 . S
O640 C663 1.254 . S
O641 Gd589 2.429 . S
O641 C663 1.268 . S
O642 Gd589 2.545 . S
O642 C655 1.250 . S
O643 Gd589 2.412 . S
O643 C656 1.252 . S
C644 O633 1.284 . S
C644 O636 1.250 . S
C645 H614 0.929 . S
C645 C630 1.437 . S
C645 C646 1.317 . S
C646 H617 0.930 . S
C646 C622 1.431 . S
C646 C645 1.317 . S
C647 Gd588 2.828 . S
C647 O632 1.258 . S
C647 O637 1.252 . S
C647 C648 1.497 . S
C648 C647 1.497 . S
C648 C649 1.395 . S
C648 C650 1.380 . S
C649 C648 1.395 . S
C649 C652 1.398 . S
C649 H664 0.930 1_556 S
C650 C648 1.380 . S
C650 C651 1.391 . S
C650 H665 0.930 . S
C651 C650 1.391 . S
C651 C653 1.387 . S
C652 C649 1.398 . S
C652 C653 1.380 . S
C652 H666 0.930 . S
C653 C651 1.387 . S
C653 C652 1.380 . S
C653 H667 0.930 . S
C654 O634 1.254 1_554 S
C654 O635 1.268 . S
C655 O639 1.284 . S
C655 O642 1.250 . S
C656 Gd589 2.828 . S
C656 O638 1.258 . S
C656 O643 1.252 . S
C656 C657 1.497 . S
C657 C656 1.497 . S
C657 C658 1.395 . S
C657 C659 1.380 . S
C658 C657 1.395 . S
C658 C661 1.398 . S
C658 H668 0.930 . S
C659 C657 1.380 . S
C659 C660 1.391 . S
C659 H669 0.930 . S
C660 C659 1.391 . S
C660 C662 1.387 . S
C661 C658 1.398 . S
C661 C662 1.380 . S
C661 H670 0.930 . S
C662 C660 1.387 . S
C662 C661 1.380 . S
C662 H671 0.930 . S
C663 O640 1.254 . S
C663 O641 1.268 . S
H664 C649 0.930 1_554 S
H665 C650 0.930 . S
H666 C652 0.930 . S
H667 C653 0.930 . S
H668 C658 0.930 . S
H669 C659 0.930 . S
H670 C661 0.930 . S
H671 C662 0.930 . S
Gd672 N703 2.661 . S
Gd672 N709 2.601 . S
Gd672 O716 2.545 . S
Gd672 O717 2.606 . S
Gd672 O719 2.429 . S
Gd672 O720 2.545 . S
Gd672 O721 2.412 . S
Gd672 O723 2.362 . S
Gd672 O724 2.324 1_556 S
Gd672 C731 2.828 . S
Gd673 N682 2.661 . S
Gd673 N686 2.601 . S
Gd673 O717 2.362 . S
Gd673 O718 2.324 . S
Gd673 O722 2.545 . S
Gd673 O723 2.606 . S
Gd673 O725 2.429 1_556 S
Gd673 O726 2.545 . S
Gd673 O727 2.412 . S
Gd673 C740 2.828 . S
C674 C677 1.417 . S
C674 C679 1.431 . S
C674 C680 1.412 . S
C675 C678 1.437 . S
C675 C679 1.317 . S
C675 H694 0.929 . S
C676 C677 1.426 . S
C676 C678 1.413 . S
C676 N686 1.359 . S
C677 C674 1.417 . S
C677 C676 1.426 . S
C677 N682 1.350 . S
C678 C675 1.437 . S
C678 C676 1.413 . S
C678 C688 1.391 . S
C679 C674 1.431 . S
C679 C675 1.317 . S
C679 H690 0.930 . S
C680 C674 1.412 . S
C680 C681 1.355 . S
C680 H692 0.930 . S
C681 C680 1.355 . S
C681 C683 1.402 . S
C681 H693 0.930 . S
N682 Gd673 2.661 . S
N682 C677 1.350 . S
N682 C683 1.307 . S
C683 C681 1.402 . S
C683 N682 1.307 . S
C683 H684 0.930 . S
H684 C683 0.930 . S
C685 N686 1.334 1_554 S
C685 C687 1.394 . S
C685 H689 0.930 . S
N686 Gd673 2.601 . S
N686 C676 1.359 . S
N686 C685 1.334 1_556 S
C687 C685 1.394 . S
C687 C688 1.359 1_554 S
C687 H699 0.930 . S
C688 C678 1.391 . S
C688 C687 1.359 1_556 S
C688 H700 0.929 1_556 S
H689 C685 0.930 . S
H690 C679 0.930 . S
H691 C708 0.930 . S
H692 C680 0.930 . S
H693 C681 0.930 . S
H694 C675 0.929 . S
H695 C713 0.930 . S
H696 C704 0.930 . S
H697 C705 0.930 . S
H698 C729 0.929 . S
H699 C687 0.930 . S
H700 C688 0.929 1_554 S
H701 C730 0.930 . S
H702 C711 0.930 . S
N703 Gd672 2.661 . S
N703 C707 1.350 . S
N703 C708 1.307 1_556 S
C704 H696 0.930 . S
C704 C705 1.355 . S
C704 C706 1.412 1_554 S
C705 H697 0.930 . S
C705 C704 1.355 . S
C705 C708 1.402 . S
C706 C704 1.412 1_556 S
C706 C707 1.417 . S
C706 C730 1.431 . S
C707 N703 1.350 . S
C707 C706 1.417 . S
C707 C710 1.426 . S
C708 H691 0.930 . S
C708 N703 1.307 1_554 S
C708 C705 1.402 . S
N709 Gd672 2.601 . S
N709 C710 1.359 . S
N709 C713 1.334 . S
C710 C707 1.426 . S
C710 N709 1.359 . S
C710 C714 1.413 . S
C711 H702 0.930 . S
C711 C712 1.359 . S
C711 C713 1.394 . S
C712 C711 1.359 . S
C712 C714 1.391 . S
C712 H715 0.929 . S
C713 H695 0.930 . S
C713 N709 1.334 . S
C713 C711 1.394 . S
C714 C710 1.413 . S
C714 C712 1.391 . S
C714 C729 1.437 . S
H715 C712 0.929 . S
O716 Gd672 2.545 . S
O716 C731 1.258 . S
O717 Gd672 2.606 . S
O717 Gd673 2.362 . S
O717 C728 1.284 . S
O718 Gd673 2.324 . S
O718 C738 1.254 . S
O719 Gd672 2.429 . S
O719 C738 1.268 . S
O720 Gd672 2.545 . S
O720 C728 1.250 . S
O721 Gd672 2.412 . S
O721 C731 1.252 . S
O722 Gd673 2.545 . S
O722 C740 1.258 . S
O723 Gd672 2.362 . S
O723 Gd673 2.606 . S
O723 C739 1.284 . S
O724 Gd672 2.324 1_554 S
O724 C747 1.254 . S
O725 Gd673 2.429 1_554 S
O725 C747 1.268 . S
O726 Gd673 2.545 . S
O726 C739 1.250 . S
O727 Gd673 2.412 . S
O727 C740 1.252 . S
C728 O717 1.284 . S
C728 O720 1.250 . S
C729 H698 0.929 . S
C729 C714 1.437 . S
C729 C730 1.317 . S
C730 H701 0.930 . S
C730 C706 1.431 . S
C730 C729 1.317 . S
C731 Gd672 2.828 . S
C731 O716 1.258 . S
C731 O721 1.252 . S
C731 C732 1.497 . S
C732 C731 1.497 . S
C732 C733 1.395 . S
C732 C734 1.380 . S
C733 C732 1.395 . S
C733 C736 1.398 . S
C733 H748 0.930 . S
C734 C732 1.380 . S
C734 C735 1.393 . S
C734 H749 0.930 1_556 S
C735 C734 1.393 . S
C735 C737 1.396 . S
C736 C733 1.398 . S
C736 C737 1.380 . S
C736 H750 0.930 . S
C737 C735 1.396 . S
C737 C736 1.380 . S
C737 H751 0.930 . S
C738 O718 1.254 . S
C738 O719 1.268 . S
C739 O723 1.284 . S
C739 O726 1.250 . S
C740 Gd673 2.828 . S
C740 O722 1.258 . S
C740 O727 1.252 . S
C740 C741 1.497 . S
C741 C740 1.497 . S
C741 C742 1.395 . S
C741 C743 1.380 . S
C742 C741 1.395 . S
C742 C745 1.398 . S
C742 H752 0.930 . S
C743 C741 1.380 . S
C743 C744 1.391 . S
C743 H753 0.930 . S
C744 C743 1.391 . S
C744 C746 1.387 . S
C745 C742 1.398 . S
C745 C746 1.380 . S
C745 H754 0.930 . S
C746 C744 1.387 . S
C746 C745 1.380 . S
C746 H755 0.930 . S
C747 O724 1.254 . S
C747 O725 1.268 . S
H748 C733 0.930 . S
H749 C734 0.930 1_554 S
H750 C736 0.930 . S
H751 C737 0.930 . S
H752 C742 0.930 . S
H753 C743 0.930 . S
H754 C745 0.930 . S
H755 C746 0.930 . S
H756 C764 0.929 . S
H757 C766 0.930 . S
H758 C768 0.930 . S
H759 C771 0.929 . S
H760 C774 0.930 . S
H761 C776 0.960 . S
H762 C776 0.960 1_556 S
H763 C776 0.960 . S
C764 H756 0.929 . S
C764 C765 1.377 . S
C764 C766 1.384 . S
C765 C764 1.377 . S
C765 C771 1.390 . S
C766 H757 0.930 . S
C766 C764 1.384 . S
C766 C767 1.372 . S
C767 C766 1.372 . S
C767 C768 1.400 . S
C767 C772 1.490 . S
C768 H758 0.930 . S
C768 C767 1.400 . S
C768 C771 1.386 . S
H769 C785 0.930 . S
H770 C786 0.931 . S
C771 H759 0.929 . S
C771 C765 1.390 . S
C771 C768 1.386 . S
C772 C767 1.490 . S
C772 C774 1.395 . S
C772 C775 1.403 . S
H773 C779 0.930 . S
C774 H760 0.930 . S
C774 C772 1.395 . S
C774 C777 1.403 . S
C775 C772 1.403 . S
C775 C776 1.524 . S
C775 C779 1.400 . S
C776 H761 0.960 . S
C776 H762 0.960 1_554 S
C776 H763 0.960 . S
C776 C775 1.524 . S
C777 C774 1.403 . S
C777 C778 1.392 . S
C777 C781 1.495 . S
C778 C777 1.392 . S
C778 C779 1.385 . S
C778 C780 1.478 . S
C779 H773 0.930 . S
C779 C775 1.400 . S
C779 C778 1.385 . S
C780 C778 1.478 . S
C780 C782 1.381 1_554 S
C780 C786 1.383 . S
C781 C777 1.495 . S
C781 H787 0.959 . S
C781 H788 0.961 . S
C781 H789 0.960 . S
C782 C780 1.381 1_556 S
C782 C783 1.394 . S
C782 H790 0.930 . S
C783 C782 1.394 . S
C783 C784 1.383 . S
C783 H791 0.929 . S
C784 C783 1.383 . S
C784 C785 1.377 1_556 S
C785 H769 0.930 . S
C785 C784 1.377 1_554 S
C785 C786 1.379 . S
C786 H770 0.931 . S
C786 C780 1.383 . S
C786 C785 1.379 . S
H787 C781 0.959 . S
H788 C781 0.961 . S
H789 C781 0.960 . S
H790 C782 0.930 . S
H791 C783 0.929 . S
H792 C800 0.929 . S
H793 C802 0.930 . S
H794 C804 0.930 . S
H795 C807 0.929 . S
H796 C810 0.930 . S
H797 C812 0.960 . S
H798 C812 0.960 . S
H799 C812 0.960 1_554 S
C800 H792 0.929 . S
C800 C801 1.377 . S
C800 C802 1.384 . S
C801 C800 1.377 . S
C801 C807 1.390 . S
C802 H793 0.930 . S
C802 C800 1.384 . S
C802 C803 1.372 . S
C803 C802 1.372 . S
C803 C804 1.400 . S
C803 C808 1.490 . S
C804 H794 0.930 . S
C804 C803 1.400 . S
C804 C807 1.386 . S
H805 C821 0.930 . S
H806 C822 0.931 . S
C807 H795 0.929 . S
C807 C801 1.390 . S
C807 C804 1.386 . S
C808 C803 1.490 . S
C808 C810 1.395 . S
C808 C811 1.403 . S
H809 C815 0.930 . S
C810 H796 0.930 . S
C810 C808 1.395 . S
C810 C813 1.403 . S
C811 C808 1.403 . S
C811 C812 1.524 1_554 S
C811 C815 1.400 1_554 S
C812 H797 0.960 . S
C812 H798 0.960 . S
C812 H799 0.960 1_556 S
C812 C811 1.524 1_556 S
C813 C810 1.403 . S
C813 C814 1.392 . S
C813 C817 1.495 . S
C814 C813 1.392 . S
C814 C815 1.385 1_554 S
C814 C816 1.478 1_554 S
C815 H809 0.930 . S
C815 C811 1.400 1_556 S
C815 C814 1.385 1_556 S
C816 C814 1.478 1_556 S
C816 C818 1.381 . S
C816 C822 1.383 1_556 S
C817 C813 1.495 . S
C817 H823 0.959 . S
C817 H824 0.961 . S
C817 H825 0.960 . S
C818 C816 1.381 . S
C818 C819 1.394 . S
C818 H826 0.930 . S
C819 C818 1.394 . S
C819 C820 1.383 . S
C819 H827 0.929 . S
C820 C819 1.383 . S
C820 C821 1.377 . S
C821 H805 0.930 . S
C821 C820 1.377 . S
C821 C822 1.379 1_556 S
C822 H806 0.931 . S
C822 C816 1.383 1_554 S
C822 C821 1.379 1_554 S
H823 C817 0.959 . S
H824 C817 0.961 . S
H825 C817 0.960 . S
H826 C818 0.930 . S
H827 C819 0.929 . S
H828 C836 0.929 . S
H829 C838 0.930 . S
H830 C840 0.930 . S
H831 C843 0.929 . S
H832 C846 0.930 . S
H833 C848 0.960 . S
H834 C848 0.960 . S
H835 C848 0.960 . S
C836 H828 0.929 . S
C836 C837 1.377 . S
C836 C838 1.384 . S
C837 C836 1.377 . S
C837 C843 1.390 . S
C838 H829 0.930 . S
C838 C836 1.384 . S
C838 C839 1.372 . S
C839 C838 1.372 . S
C839 C840 1.400 . S
C839 C844 1.490 . S
C840 H830 0.930 . S
C840 C839 1.400 . S
C840 C843 1.386 . S
H841 C857 0.930 . S
H842 C858 0.931 . S
C843 H831 0.929 . S
C843 C837 1.390 . S
C843 C840 1.386 . S
C844 C839 1.490 . S
C844 C846 1.395 . S
C844 C847 1.403 . S
H845 C851 0.930 . S
C846 H832 0.930 . S
C846 C844 1.395 . S
C846 C849 1.403 . S
C847 C844 1.403 . S
C847 C848 1.524 . S
C847 C851 1.400 . S
C848 H833 0.960 . S
C848 H834 0.960 . S
C848 H835 0.960 . S
C848 C847 1.524 . S
C849 C846 1.403 . S
C849 C850 1.392 . S
C849 C853 1.495 . S
C850 C849 1.392 . S
C850 C851 1.385 . S
C850 C852 1.478 . S
C851 H845 0.930 . S
C851 C847 1.400 . S
C851 C850 1.385 . S
C852 C850 1.478 . S
C852 C854 1.381 . S
C852 C858 1.383 . S
C853 C849 1.495 . S
C853 H859 0.959 . S
C853 H860 0.961 . S
C853 H861 0.960 . S
C854 C852 1.381 . S
C854 C855 1.394 . S
C854 H862 0.930 . S
C855 C854 1.394 . S
C855 C856 1.383 . S
C855 H863 0.929 . S
C856 C855 1.383 . S
C856 C857 1.377 . S
C857 H841 0.930 . S
C857 C856 1.377 . S
C857 C858 1.379 . S
C858 H842 0.931 . S
C858 C852 1.383 . S
C858 C857 1.379 . S
H859 C853 0.959 . S
H860 C853 0.961 . S
H861 C853 0.960 . S
H862 C854 0.930 . S
H863 C855 0.929 . S
H864 C872 0.929 . S
H865 C874 0.930 . S
H866 C876 0.930 . S
H867 C879 0.929 . S
H868 C882 0.930 . S
H869 C884 0.960 . S
H870 C884 0.960 . S
H871 C884 0.960 . S
C872 H864 0.929 . S
C872 C873 1.377 1_556 S
C872 C874 1.384 . S
C873 C872 1.377 1_554 S
C873 C879 1.390 . S
C874 H865 0.930 . S
C874 C872 1.384 . S
C874 C875 1.372 1_556 S
C875 C874 1.372 1_554 S
C875 C876 1.400 . S
C875 C880 1.490 . S
C876 H866 0.930 . S
C876 C875 1.400 . S
C876 C879 1.386 . S
H877 C893 0.930 . S
H878 C894 0.931 . S
C879 H867 0.929 . S
C879 C873 1.390 . S
C879 C876 1.386 . S
C880 C875 1.490 . S
C880 C882 1.395 . S
C880 C883 1.403 1_554 S
H881 C887 0.930 . S
C882 H868 0.930 . S
C882 C880 1.395 . S
C882 C885 1.403 . S
C883 C880 1.403 1_556 S
C883 C884 1.524 . S
C883 C887 1.400 . S
C884 H869 0.960 . S
C884 H870 0.960 . S
C884 H871 0.960 . S
C884 C883 1.524 . S
C885 C882 1.403 . S
C885 C886 1.392 . S
C885 C889 1.495 . S
C886 C885 1.392 . S
C886 C887 1.385 1_554 S
C886 C888 1.478 . S
C887 H881 0.930 . S
C887 C883 1.400 . S
C887 C886 1.385 1_556 S
C888 C886 1.478 . S
C888 C890 1.381 1_554 S
C888 C894 1.383 . S
C889 C885 1.495 . S
C889 H895 0.959 . S
C889 H896 0.961 . S
C889 H897 0.960 . S
C890 C888 1.381 1_556 S
C890 C891 1.394 . S
C890 H898 0.930 . S
C891 C890 1.394 . S
C891 C892 1.383 1_556 S
C891 H899 0.929 . S
C892 C891 1.383 1_554 S
C892 C893 1.377 . S
C893 H877 0.930 . S
C893 C892 1.377 . S
C893 C894 1.379 . S
C894 H878 0.931 . S
C894 C888 1.383 . S
C894 C893 1.379 . S
H895 C889 0.959 . S
H896 C889 0.961 . S
H897 C889 0.960 . S
H898 C890 0.930 . S
H899 C891 0.929 . S
H900 C908 0.929 . S
H901 C910 0.930 . S
H902 C912 0.930 . S
H903 C915 0.929 . S
H904 C918 0.930 . S
H905 C920 0.960 . S
H906 C920 0.960 . S
H907 C920 0.960 . S
C908 H900 0.929 . S
C908 C909 1.377 . S
C908 C910 1.384 . S
C909 C908 1.377 . S
C909 C915 1.390 . S
C910 H901 0.930 . S
C910 C908 1.384 . S
C910 C911 1.372 . S
C911 C910 1.372 . S
C911 C912 1.400 . S
C911 C916 1.490 . S
C912 H902 0.930 . S
C912 C911 1.400 . S
C912 C915 1.386 . S
H913 C929 0.930 . S
H914 C930 0.931 . S
C915 H903 0.929 . S
C915 C909 1.390 . S
C915 C912 1.386 . S
C916 C911 1.490 . S
C916 C918 1.395 . S
C916 C919 1.403 . S
H917 C923 0.930 . S
C918 H904 0.930 . S
C918 C916 1.395 . S
C918 C921 1.403 . S
C919 C916 1.403 . S
C919 C920 1.524 . S
C919 C923 1.400 . S
C920 H905 0.960 . S
C920 H906 0.960 . S
C920 H907 0.960 . S
C920 C919 1.524 . S
C921 C918 1.403 . S
C921 C922 1.392 . S
C921 C925 1.495 . S
C922 C921 1.392 . S
C922 C923 1.385 . S
C922 C924 1.478 . S
C923 H917 0.930 . S
C923 C919 1.400 . S
C923 C922 1.385 . S
C924 C922 1.478 . S
C924 C926 1.381 . S
C924 C930 1.383 1_655 S
C925 C921 1.495 . S
C925 H931 0.959 1_554 S
C925 H932 0.961 . S
C925 H933 0.960 . S
C926 C924 1.381 . S
C926 C927 1.394 . S
C926 H934 0.930 . S
C927 C926 1.394 . S
C927 C928 1.383 1_655 S
C927 H935 0.929 . S
C928 C927 1.383 1_455 S
C928 C929 1.377 . S
C929 H913 0.930 . S
C929 C928 1.377 . S
C929 C930 1.379 . S
C930 H914 0.931 . S
C930 C924 1.383 1_455 S
C930 C929 1.379 . S
H931 C925 0.959 1_556 S
H932 C925 0.961 . S
H933 C925 0.960 . S
H934 C926 0.930 . S
H935 C927 0.929 . S
H936 C944 0.929 . S
H937 C946 0.930 . S
H938 C948 0.930 . S
H939 C951 0.929 . S
H940 C954 0.930 . S
H941 C956 0.960 . S
H942 C956 0.960 . S
H943 C956 0.960 . S
C944 H936 0.929 . S
C944 C945 1.377 . S
C944 C946 1.384 . S
C945 C944 1.377 . S
C945 C951 1.390 . S
C946 H937 0.930 . S
C946 C944 1.384 . S
C946 C947 1.372 . S
C947 C946 1.372 . S
C947 C948 1.400 . S
C947 C952 1.490 . S
C948 H938 0.930 . S
C948 C947 1.400 . S
C948 C951 1.386 . S
H949 C965 0.930 . S
H950 C966 0.931 . S
C951 H939 0.929 . S
C951 C945 1.390 . S
C951 C948 1.386 . S
C952 C947 1.490 . S
C952 C954 1.395 . S
C952 C955 1.403 . S
H953 C959 0.930 . S
C954 H940 0.930 . S
C954 C952 1.395 . S
C954 C957 1.403 . S
C955 C952 1.403 . S
C955 C956 1.524 . S
C955 C959 1.400 . S
C956 H941 0.960 . S
C956 H942 0.960 . S
C956 H943 0.960 . S
C956 C955 1.524 . S
C957 C954 1.403 . S
C957 C958 1.392 . S
C957 C961 1.495 . S
C958 C957 1.392 . S
C958 C959 1.385 . S
C958 C960 1.478 . S
C959 H953 0.930 . S
C959 C955 1.400 . S
C959 C958 1.385 . S
C960 C958 1.478 . S
C960 C962 1.381 . S
C960 C966 1.383 . S
C961 C957 1.495 . S
C961 H967 0.959 . S
C961 H968 0.961 . S
C961 H969 0.960 . S
C962 C960 1.381 . S
C962 C963 1.394 . S
C962 H970 0.930 . S
C963 C962 1.394 . S
C963 C964 1.383 . S
C963 H971 0.929 . S
C964 C963 1.383 . S
C964 C965 1.377 . S
C965 H949 0.930 . S
C965 C964 1.377 . S
C965 C966 1.379 . S
C966 H950 0.931 . S
C966 C960 1.383 . S
C966 C965 1.379 . S
H967 C961 0.959 . S
H968 C961 0.961 . S
H969 C961 0.960 . S
H970 C962 0.930 . S
H971 C963 0.929 . S
H972 C980 0.929 . S
H973 C982 0.930 . S
H974 C984 0.930 . S
H975 C987 0.929 . S
H976 C990 0.930 . S
H977 C992 0.960 . S
H978 C992 0.960 . S
H979 C992 0.960 . S
C980 H972 0.929 . S
C980 C981 1.377 . S
C980 C982 1.384 . S
C981 C980 1.377 . S
C981 C987 1.390 . S
C982 H973 0.930 . S
C982 C980 1.384 . S
C982 C983 1.372 . S
C983 C982 1.372 . S
C983 C984 1.400 . S
C983 C988 1.490 . S
C984 H974 0.930 . S
C984 C983 1.400 . S
C984 C987 1.386 . S
H985 C1001 0.930 . S
H986 C1002 0.931 . S
C987 H975 0.929 . S
C987 C981 1.390 . S
C987 C984 1.386 . S
C988 C983 1.490 . S
C988 C990 1.395 . S
C988 C991 1.403 . S
H989 C995 0.930 . S
C990 H976 0.930 . S
C990 C988 1.395 . S
C990 C993 1.403 . S
C991 C988 1.403 . S
C991 C992 1.524 . S
C991 C995 1.400 . S
C992 H977 0.960 . S
C992 H978 0.960 . S
C992 H979 0.960 . S
C992 C991 1.524 . S
C993 C990 1.403 . S
C993 C994 1.392 . S
C993 C997 1.495 . S
C994 C993 1.392 . S
C994 C995 1.385 . S
C994 C996 1.478 . S
C995 H989 0.930 . S
C995 C991 1.400 . S
C995 C994 1.385 . S
C996 C994 1.478 . S
C996 C998 1.381 . S
C996 C1002 1.383 . S
C997 C993 1.495 . S
C997 H1003 0.959 . S
C997 H1004 0.961 . S
C997 H1005 0.960 . S
C998 C996 1.381 . S
C998 C999 1.394 . S
C998 H1006 0.930 . S
C999 C998 1.394 . S
C999 C1000 1.383 . S
C999 H1007 0.929 . S
C1000 C999 1.383 . S
C1000 C1001 1.377 . S
C1001 H985 0.930 . S
C1001 C1000 1.377 . S
C1001 C1002 1.379 . S
C1002 H986 0.931 . S
C1002 C996 1.383 . S
C1002 C1001 1.379 . S
H1003 C997 0.959 . S
H1004 C997 0.961 . S
H1005 C997 0.960 . S
H1006 C998 0.930 . S
H1007 C999 0.929 . S
H1008 C1016 0.929 . S
H1009 C1018 0.930 . S
H1010 C1020 0.930 . S
H1011 C1023 0.929 . S
H1012 C1026 0.930 . S
H1013 C1028 0.960 . S
H1014 C1028 0.960 . S
H1015 C1028 0.960 . S
C1016 H1008 0.929 . S
C1016 C1017 1.377 . S
C1016 C1018 1.384 . S
C1017 C1016 1.377 . S
C1017 C1023 1.390 . S
C1018 H1009 0.930 . S
C1018 C1016 1.384 . S
C1018 C1019 1.372 . S
C1019 C1018 1.372 . S
C1019 C1020 1.400 . S
C1019 C1024 1.490 . S
C1020 H1010 0.930 . S
C1020 C1019 1.400 . S
C1020 C1023 1.386 . S
H1021 C1037 0.930 . S
H1022 C1038 0.931 . S
C1023 H1011 0.929 . S
C1023 C1017 1.390 . S
C1023 C1020 1.386 . S
C1024 C1019 1.490 . S
C1024 C1026 1.395 . S
C1024 C1027 1.403 . S
H1025 C1031 0.930 . S
C1026 H1012 0.930 . S
C1026 C1024 1.395 . S
C1026 C1029 1.403 . S
C1027 C1024 1.403 . S
C1027 C1028 1.524 . S
C1027 C1031 1.400 . S
C1028 H1013 0.960 . S
C1028 H1014 0.960 . S
C1028 H1015 0.960 . S
C1028 C1027 1.524 . S
C1029 C1026 1.403 . S
C1029 C1030 1.392 . S
C1029 C1033 1.495 . S
C1030 C1029 1.392 . S
C1030 C1031 1.385 . S
C1030 C1032 1.478 . S
C1031 H1025 0.930 . S
C1031 C1027 1.400 . S
C1031 C1030 1.385 . S
C1032 C1030 1.478 . S
C1032 C1034 1.381 . S
C1032 C1038 1.383 . S
C1033 C1029 1.495 . S
C1033 H1039 0.959 . S
C1033 H1040 0.961 . S
C1033 H1041 0.960 . S
C1034 C1032 1.381 . S
C1034 C1035 1.394 . S
C1034 H1042 0.930 . S
C1035 C1034 1.394 . S
C1035 C1036 1.383 . S
C1035 H1043 0.929 . S
C1036 C1035 1.383 . S
C1036 C1037 1.377 . S
C1037 H1021 0.930 . S
C1037 C1036 1.377 . S
C1037 C1038 1.379 . S
C1038 H1022 0.931 . S
C1038 C1032 1.383 . S
C1038 C1037 1.379 . S
H1039 C1033 0.959 . S
H1040 C1033 0.961 . S
H1041 C1033 0.960 . S
H1042 C1034 0.930 . S
H1043 C1035 0.929 . S
H1044 C1052 0.929 . S
H1045 C1054 0.930 . S
H1046 C1056 0.930 . S
H1047 C1059 0.929 . S
H1048 C1062 0.930 . S
H1049 C1064 0.960 . S
H1050 C1064 0.960 . S
H1051 C1064 0.960 . S
C1052 H1044 0.929 . S
C1052 C1053 1.377 . S
C1052 C1054 1.384 . S
C1053 C1052 1.377 . S
C1053 C1059 1.390 . S
C1054 H1045 0.930 . S
C1054 C1052 1.384 . S
C1054 C1055 1.372 . S
C1055 C1054 1.372 . S
C1055 C1056 1.400 . S
C1055 C1060 1.490 . S
C1056 H1046 0.930 . S
C1056 C1055 1.400 . S
C1056 C1059 1.386 . S
H1057 C1073 0.930 . S
H1058 C1074 0.931 . S
C1059 H1047 0.929 . S
C1059 C1053 1.390 . S
C1059 C1056 1.386 . S
C1060 C1055 1.490 . S
C1060 C1062 1.395 . S
C1060 C1063 1.403 . S
H1061 C1067 0.930 . S
C1062 H1048 0.930 . S
C1062 C1060 1.395 . S
C1062 C1065 1.403 . S
C1063 C1060 1.403 . S
C1063 C1064 1.524 . S
C1063 C1067 1.400 . S
C1064 H1049 0.960 . S
C1064 H1050 0.960 . S
C1064 H1051 0.960 . S
C1064 C1063 1.524 . S
C1065 C1062 1.403 . S
C1065 C1066 1.392 . S
C1065 C1069 1.495 1_545 S
C1066 C1065 1.392 . S
C1066 C1067 1.385 . S
C1066 C1068 1.509 . S
C1067 H1061 0.930 . S
C1067 C1063 1.400 . S
C1067 C1066 1.385 . S
C1068 C1066 1.509 . S
C1068 C1070 1.354 1_545 S
C1068 C1074 1.381 . S
C1069 C1065 1.495 1_565 S
C1069 H1075 0.959 . S
C1069 H1076 0.961 . S
C1069 H1077 0.960 . S
C1070 C1068 1.354 1_565 S
C1070 C1071 1.394 . S
C1070 H1078 0.930 . S
C1071 C1070 1.394 . S
C1071 C1072 1.383 . S
C1071 H1079 0.929 . S
C1072 C1071 1.383 . S
C1072 C1073 1.377 1_565 S
C1073 H1057 0.930 . S
C1073 C1072 1.377 1_545 S
C1073 C1074 1.379 . S
C1074 H1058 0.931 . S
C1074 C1068 1.381 . S
C1074 C1073 1.379 . S
H1075 C1069 0.959 . S
H1076 C1069 0.961 . S
H1077 C1069 0.960 . S
H1078 C1070 0.930 . S
H1079 C1071 0.929 . S
H1080 C1088 0.929 . S
H1081 C1090 0.930 . S
H1082 C1092 0.930 . S
H1083 C1095 0.929 . S
H1084 C1098 0.930 . S
H1085 C1100 0.960 . S
H1086 C1100 0.960 . S
H1087 C1100 0.960 . S
C1088 H1080 0.929 . S
C1088 C1089 1.377 . S
C1088 C1090 1.384 . S
C1089 C1088 1.377 . S
C1089 C1095 1.390 . S
C1090 H1081 0.930 . S
C1090 C1088 1.384 . S
C1090 C1091 1.372 . S
C1091 C1090 1.372 . S
C1091 C1092 1.400 . S
C1091 C1096 1.490 . S
C1092 H1082 0.930 . S
C1092 C1091 1.400 . S
C1092 C1095 1.386 . S
H1093 C1109 0.930 . S
H1094 C1110 0.931 . S
C1095 H1083 0.929 . S
C1095 C1089 1.390 . S
C1095 C1092 1.386 . S
C1096 C1091 1.490 . S
C1096 C1098 1.395 . S
C1096 C1099 1.403 . S
H1097 C1103 0.930 . S
C1098 H1084 0.930 . S
C1098 C1096 1.395 . S
C1098 C1101 1.403 . S
C1099 C1096 1.403 . S
C1099 C1100 1.524 . S
C1099 C1103 1.400 . S
C1100 H1085 0.960 . S
C1100 H1086 0.960 . S
C1100 H1087 0.960 . S
C1100 C1099 1.524 . S
C1101 C1098 1.403 . S
C1101 C1102 1.392 . S
C1101 C1105 1.495 . S
C1102 C1101 1.392 . S
C1102 C1103 1.385 . S
C1102 C1104 1.478 . S
C1103 H1097 0.930 . S
C1103 C1099 1.400 . S
C1103 C1102 1.385 . S
C1104 C1102 1.478 . S
C1104 C1106 1.381 . S
C1104 C1110 1.383 . S
C1105 C1101 1.495 . S
C1105 H1111 0.959 . S
C1105 H1112 0.961 . S
C1105 H1113 0.960 . S
C1106 C1104 1.381 . S
C1106 C1107 1.394 . S
C1106 H1114 0.930 . S
C1107 C1106 1.394 . S
C1107 C1108 1.383 . S
C1107 H1115 0.929 . S
C1108 C1107 1.383 . S
C1108 C1109 1.377 . S
C1109 H1093 0.930 . S
C1109 C1108 1.377 . S
C1109 C1110 1.379 . S
C1110 H1094 0.931 . S
C1110 C1104 1.383 . S
C1110 C1109 1.379 . S
H1111 C1105 0.959 . S
H1112 C1105 0.961 . S
H1113 C1105 0.960 . S
H1114 C1106 0.930 . S
H1115 C1107 0.929 . S
H1116 C1124 0.929 . S
H1117 C1126 0.930 . S
H1118 C1128 0.930 . S
H1119 C1131 0.929 . S
H1120 C1134 0.930 . S
H1121 C1136 0.960 . S
H1122 C1136 0.960 1_565 S
H1123 C1136 0.960 1_565 S
C1124 H1116 0.929 . S
C1124 C1125 1.377 . S
C1124 C1126 1.384 . S
C1125 C1124 1.377 . S
C1125 C1131 1.390 . S
C1126 H1117 0.930 . S
C1126 C1124 1.384 . S
C1126 C1127 1.372 . S
C1127 C1126 1.372 . S
C1127 C1128 1.400 . S
C1127 C1132 1.490 . S
C1128 H1118 0.930 . S
C1128 C1127 1.400 . S
C1128 C1131 1.386 . S
H1129 C1145 0.930 . S
H1130 C1146 0.931 . S
C1131 H1119 0.929 . S
C1131 C1125 1.390 . S
C1131 C1128 1.386 . S
C1132 C1127 1.490 . S
C1132 C1134 1.395 . S
C1132 C1135 1.403 1_565 S
H1133 C1139 0.930 . S
C1134 H1120 0.930 . S
C1134 C1132 1.395 . S
C1134 C1137 1.403 1_565 S
C1135 C1132 1.403 1_545 S
C1135 C1136 1.524 . S
C1135 C1139 1.400 . S
C1136 H1121 0.960 . S
C1136 H1122 0.960 1_545 S
C1136 H1123 0.960 1_545 S
C1136 C1135 1.524 . S
C1137 C1134 1.403 1_545 S
C1137 C1138 1.392 . S
C1137 C1141 1.495 . S
C1138 C1137 1.392 . S
C1138 C1139 1.385 . S
C1138 C1140 1.478 . S
C1139 H1133 0.930 . S
C1139 C1135 1.400 . S
C1139 C1138 1.385 . S
C1140 C1138 1.478 . S
C1140 C1142 1.381 . S
C1140 C1146 1.383 . S
C1141 C1137 1.495 . S
C1141 H1147 0.959 1_545 S
C1141 H1148 0.961 . S
C1141 H1149 0.960 . S
C1142 C1140 1.381 . S
C1142 C1143 1.394 . S
C1142 H1150 0.930 . S
C1143 C1142 1.394 . S
C1143 C1144 1.383 . S
C1143 H1151 0.929 . S
C1144 C1143 1.383 . S
C1144 C1145 1.377 . S
C1145 H1129 0.930 . S
C1145 C1144 1.377 . S
C1145 C1146 1.379 . S
C1146 H1130 0.931 . S
C1146 C1140 1.383 . S
C1146 C1145 1.379 . S
H1147 C1141 0.959 1_565 S
H1148 C1141 0.961 . S
H1149 C1141 0.960 . S
H1150 C1142 0.930 . S
H1151 C1143 0.929 . S
H1152 C1160 0.929 . S
H1153 C1162 0.914 1_455 S
H1154 C1164 0.930 . S
H1155 C1167 0.929 . S
H1156 C1170 0.930 . S
H1157 C1172 0.960 . S
H1158 C1172 0.960 . S
H1159 C1172 0.982 . S
C1160 H1152 0.929 . S
C1160 C1161 1.377 . S
C1160 C1162 1.397 . S
C1161 C1160 1.377 . S
C1161 C1167 1.390 . S
C1162 H1153 0.914 1_655 S
C1162 C1160 1.397 . S
C1162 C1163 1.373 . S
C1163 C1162 1.373 . S
C1163 C1164 1.409 . S
C1163 C1168 1.482 1_655 S
C1164 H1154 0.930 . S
C1164 C1163 1.409 . S
C1164 C1167 1.386 . S
H1165 C1181 0.930 . S
H1166 C1182 0.931 1_556 S
C1167 H1155 0.929 . S
C1167 C1161 1.390 . S
C1167 C1164 1.386 . S
C1168 C1163 1.482 1_455 S
C1168 C1170 1.395 . S
C1168 C1171 1.403 . S
H1169 C1175 0.930 . S
C1170 H1156 0.930 . S
C1170 C1168 1.395 . S
C1170 C1173 1.403 . S
C1171 C1168 1.403 . S
C1171 C1172 1.524 . S
C1171 C1175 1.400 . S
C1172 H1157 0.960 . S
C1172 H1158 0.960 . S
C1172 H1159 0.982 . S
C1172 C1171 1.524 . S
C1173 C1170 1.403 . S
C1173 C1174 1.392 . S
C1173 C1177 1.495 . S
C1174 C1173 1.392 . S
C1174 C1175 1.385 . S
C1174 C1176 1.478 . S
C1175 H1169 0.930 . S
C1175 C1171 1.400 . S
C1175 C1174 1.385 . S
C1176 C1174 1.478 . S
C1176 C1178 1.381 . S
C1176 C1182 1.383 . S
C1177 C1173 1.495 . S
C1177 H1183 0.959 . S
C1177 H1184 0.961 . S
C1177 H1185 0.960 . S
C1178 C1176 1.381 . S
C1178 C1179 1.394 . S
C1178 H1186 0.930 . S
C1179 C1178 1.394 . S
C1179 C1180 1.383 . S
C1179 H1187 0.929 . S
C1180 C1179 1.383 . S
C1180 C1181 1.377 1_554 S
C1181 H1165 0.930 . S
C1181 C1180 1.377 1_556 S
C1181 C1182 1.379 1_556 S
C1182 H1166 0.931 1_554 S
C1182 C1176 1.383 . S
C1182 C1181 1.379 1_554 S
H1183 C1177 0.959 . S
H1184 C1177 0.961 . S
H1185 C1177 0.960 . S
H1186 C1178 0.930 . S
H1187 C1179 0.929 . S
H1188 C1196 0.929 . S
H1189 C1198 0.930 . S
H1190 C1200 0.930 1_556 S
H1191 C1203 0.929 . S
H1192 C1206 0.930 . S
H1193 C1208 0.960 . S
H1194 C1208 0.960 . S
H1195 C1208 0.960 . S
C1196 H1188 0.929 . S
C1196 C1197 1.377 . S
C1196 C1198 1.384 . S
C1197 C1196 1.377 . S
C1197 C1203 1.390 1_554 S
C1198 H1189 0.930 . S
C1198 C1196 1.384 . S
C1198 C1199 1.372 . S
C1199 C1198 1.372 . S
C1199 C1200 1.400 . S
C1199 C1204 1.490 . S
C1200 H1190 0.930 1_554 S
C1200 C1199 1.400 . S
C1200 C1203 1.386 1_554 S
H1201 C1217 0.930 . S
H1202 C1218 0.931 . S
C1203 H1191 0.929 . S
C1203 C1197 1.390 1_556 S
C1203 C1200 1.386 1_556 S
C1204 C1199 1.490 . S
C1204 C1206 1.395 . S
C1204 C1207 1.403 . S
H1205 C1211 0.930 . S
C1206 H1192 0.930 . S
C1206 C1204 1.395 . S
C1206 C1209 1.403 . S
C1207 C1204 1.403 . S
C1207 C1208 1.524 . S
C1207 C1211 1.400 . S
C1208 H1193 0.960 . S
C1208 H1194 0.960 . S
C1208 H1195 0.960 . S
C1208 C1207 1.524 . S
C1209 C1206 1.403 . S
C1209 C1210 1.392 . S
C1209 C1213 1.495 . S
C1210 C1209 1.392 . S
C1210 C1211 1.385 . S
C1210 C1212 1.478 . S
C1211 H1205 0.930 . S
C1211 C1207 1.400 . S
C1211 C1210 1.385 . S
C1212 C1210 1.478 . S
C1212 C1214 1.381 . S
C1212 C1218 1.383 . S
C1213 C1209 1.495 . S
C1213 H1219 0.959 . S
C1213 H1220 0.961 1_554 S
C1213 H1221 0.960 . S
C1214 C1212 1.381 . S
C1214 C1215 1.394 . S
C1214 H1222 0.930 . S
C1215 C1214 1.394 . S
C1215 C1216 1.383 . S
C1215 H1223 0.929 . S
C1216 C1215 1.383 . S
C1216 C1217 1.377 . S
C1217 H1201 0.930 . S
C1217 C1216 1.377 . S
C1217 C1218 1.379 . S
C1218 H1202 0.931 . S
C1218 C1212 1.383 . S
C1218 C1217 1.379 . S
H1219 C1213 0.959 . S
H1220 C1213 0.961 1_556 S
H1221 C1213 0.960 . S
H1222 C1214 0.930 . S
H1223 C1215 0.929 . S
H1224 C1232 0.929 . S
H1225 C1234 0.930 . S
H1226 C1236 0.930 . S
H1227 C1239 0.929 . S
H1228 C1242 0.930 . S
H1229 C1244 0.960 . S
H1230 C1244 0.960 . S
H1231 C1244 0.960 . S
C1232 H1224 0.929 . S
C1232 C1233 1.377 1_556 S
C1232 C1234 1.384 . S
C1233 C1232 1.377 1_554 S
C1233 C1239 1.390 . S
C1234 H1225 0.930 . S
C1234 C1232 1.384 . S
C1234 C1235 1.372 1_556 S
C1235 C1234 1.372 1_554 S
C1235 C1236 1.400 . S
C1235 C1240 1.490 . S
C1236 H1226 0.930 . S
C1236 C1235 1.400 . S
C1236 C1239 1.386 . S
H1237 C1253 0.930 . S
H1238 C1254 0.931 . S
C1239 H1227 0.929 . S
C1239 C1233 1.390 . S
C1239 C1236 1.386 . S
C1240 C1235 1.490 . S
C1240 C1242 1.395 1_554 S
C1240 C1243 1.403 . S
H1241 C1247 0.930 . S
C1242 H1228 0.930 . S
C1242 C1240 1.395 1_556 S
C1242 C1245 1.403 . S
C1243 C1240 1.403 . S
C1243 C1244 1.524 . S
C1243 C1247 1.400 . S
C1244 H1229 0.960 . S
C1244 H1230 0.960 . S
C1244 H1231 0.960 . S
C1244 C1243 1.524 . S
C1245 C1242 1.403 . S
C1245 C1246 1.392 . S
C1245 C1249 1.495 . S
C1246 C1245 1.392 . S
C1246 C1247 1.385 1_556 S
C1246 C1248 1.478 . S
C1247 H1241 0.930 . S
C1247 C1243 1.400 . S
C1247 C1246 1.385 1_554 S
C1248 C1246 1.478 . S
C1248 C1250 1.381 . S
C1248 C1254 1.383 1_556 S
C1249 C1245 1.495 . S
C1249 H1255 0.959 . S
C1249 H1256 0.961 . S
C1249 H1257 0.960 . S
C1250 C1248 1.381 . S
C1250 C1251 1.394 . S
C1250 H1258 0.930 . S
C1251 C1250 1.394 . S
C1251 C1252 1.383 . S
C1251 H1259 0.929 . S
C1252 C1251 1.383 . S
C1252 C1253 1.377 1_556 S
C1253 H1237 0.930 . S
C1253 C1252 1.377 1_554 S
C1253 C1254 1.379 . S
C1254 H1238 0.931 . S
C1254 C1248 1.383 1_554 S
C1254 C1253 1.379 . S
H1255 C1249 0.959 . S
H1256 C1249 0.961 . S
H1257 C1249 0.960 . S
H1258 C1250 0.930 . S
H1259 C1251 0.929 . S
H1260 C1268 0.929 . S
H1261 C1270 0.930 . S
H1262 C1272 0.930 . S
H1263 C1275 0.929 . S
H1264 C1278 0.930 . S
H1265 C1280 0.960 . S
H1266 C1280 0.960 . S
H1267 C1280 0.960 . S
C1268 H1260 0.929 . S
C1268 C1269 1.377 1_556 S
C1268 C1270 1.384 . S
C1269 C1268 1.377 1_554 S
C1269 C1275 1.390 . S
C1270 H1261 0.930 . S
C1270 C1268 1.384 . S
C1270 C1271 1.372 . S
C1271 C1270 1.372 . S
C1271 C1272 1.400 1_556 S
C1271 C1276 1.490 . S
C1272 H1262 0.930 . S
C1272 C1271 1.400 1_554 S
C1272 C1275 1.386 . S
H1273 C1289 0.930 1_554 S
H1274 C1290 0.931 . S
C1275 H1263 0.929 . S
C1275 C1269 1.390 . S
C1275 C1272 1.386 . S
C1276 C1271 1.490 . S
C1276 C1278 1.395 . S
C1276 C1279 1.403 1_556 S
H1277 C1283 0.930 . S
C1278 H1264 0.930 . S
C1278 C1276 1.395 . S
C1278 C1281 1.403 . S
C1279 C1276 1.403 1_554 S
C1279 C1280 1.524 . S
C1279 C1283 1.400 . S
C1280 H1265 0.960 . S
C1280 H1266 0.960 . S
C1280 H1267 0.960 . S
C1280 C1279 1.524 . S
C1281 C1278 1.403 . S
C1281 C1282 1.392 . S
C1281 C1285 1.495 . S
C1282 C1281 1.392 . S
C1282 C1283 1.385 1_556 S
C1282 C1284 1.478 . S
C1283 H1277 0.930 . S
C1283 C1279 1.400 . S
C1283 C1282 1.385 1_554 S
C1284 C1282 1.478 . S
C1284 C1286 1.381 . S
C1284 C1290 1.383 1_556 S
C1285 C1281 1.495 . S
C1285 H1291 0.959 . S
C1285 H1292 0.961 . S
C1285 H1293 0.960 . S
C1286 C1284 1.381 . S
C1286 C1287 1.394 . S
C1286 H1294 0.930 . S
C1287 C1286 1.394 . S
C1287 C1288 1.383 . S
C1287 H1295 0.929 . S
C1288 C1287 1.383 . S
C1288 C1289 1.377 . S
C1289 H1273 0.930 1_556 S
C1289 C1288 1.377 . S
C1289 C1290 1.379 1_556 S
C1290 H1274 0.931 . S
C1290 C1284 1.383 1_554 S
C1290 C1289 1.379 1_554 S
H1291 C1285 0.959 . S
H1292 C1285 0.961 . S
H1293 C1285 0.960 . S
H1294 C1286 0.930 . S
H1295 C1287 0.929 . S
H1296 C1304 0.929 . S
H1297 C1306 0.930 . S
H1298 C1308 0.930 . S
H1299 C1311 0.929 . S
H1300 C1314 0.930 . S
H1301 C1316 0.960 . S
H1302 C1316 0.960 . S
H1303 C1316 0.960 . S
C1304 H1296 0.929 . S
C1304 C1305 1.377 . S
C1304 C1306 1.384 . S
C1305 C1304 1.377 . S
C1305 C1311 1.390 1_554 S
C1306 H1297 0.930 . S
C1306 C1304 1.384 . S
C1306 C1307 1.372 1_554 S
C1307 C1306 1.372 1_556 S
C1307 C1308 1.400 . S
C1307 C1312 1.490 . S
C1308 H1298 0.930 . S
C1308 C1307 1.400 . S
C1308 C1311 1.386 . S
H1309 C1325 0.930 . S
H1310 C1326 0.931 . S
C1311 H1299 0.929 . S
C1311 C1305 1.390 1_556 S
C1311 C1308 1.386 . S
C1312 C1307 1.490 . S
C1312 C1314 1.395 . S
C1312 C1315 1.403 . S
H1313 C1319 0.930 . S
C1314 H1300 0.930 . S
C1314 C1312 1.395 . S
C1314 C1317 1.403 . S
C1315 C1312 1.403 . S
C1315 C1316 1.524 . S
C1315 C1319 1.400 . S
C1316 H1301 0.960 . S
C1316 H1302 0.960 . S
C1316 H1303 0.960 . S
C1316 C1315 1.524 . S
C1317 C1314 1.403 . S
C1317 C1318 1.392 . S
C1317 C1321 1.495 . S
C1318 C1317 1.392 . S
C1318 C1319 1.385 . S
C1318 C1320 1.478 . S
C1319 H1313 0.930 . S
C1319 C1315 1.400 . S
C1319 C1318 1.385 . S
C1320 C1318 1.478 . S
C1320 C1322 1.381 . S
C1320 C1326 1.383 . S
C1321 C1317 1.495 . S
C1321 H1327 0.959 . S
C1321 H1328 0.961 . S
C1321 H1329 0.960 . S
C1322 C1320 1.381 . S
C1322 C1323 1.394 . S
C1322 H1330 0.930 . S
C1323 C1322 1.394 . S
C1323 C1324 1.383 . S
C1323 H1331 0.929 . S
C1324 C1323 1.383 . S
C1324 C1325 1.377 . S
C1325 H1309 0.930 . S
C1325 C1324 1.377 . S
C1325 C1326 1.379 . S
C1326 H1310 0.931 . S
C1326 C1320 1.383 . S
C1326 C1325 1.379 . S
H1327 C1321 0.959 . S
H1328 C1321 0.961 . S
H1329 C1321 0.960 . S
H1330 C1322 0.930 . S
H1331 C1323 0.929 . S
H1332 C1340 0.929 . S
H1333 C1342 0.930 . S
H1334 C1344 0.930 . S
H1335 C1347 0.929 . S
H1336 C1350 0.930 . S
H1337 C1352 0.960 . S
H1338 C1352 0.960 . S
H1339 C1352 0.960 . S
C1340 H1332 0.929 . S
C1340 C1341 1.377 . S
C1340 C1342 1.384 . S
C1341 C1340 1.377 . S
C1341 C1347 1.390 . S
C1342 H1333 0.930 . S
C1342 C1340 1.384 . S
C1342 C1343 1.372 . S
C1343 C1342 1.372 . S
C1343 C1344 1.400 . S
C1343 C1348 1.490 . S
C1344 H1334 0.930 . S
C1344 C1343 1.400 . S
C1344 C1347 1.386 . S
H1345 C1361 0.930 . S
H1346 C1362 0.931 . S
C1347 H1335 0.929 . S
C1347 C1341 1.390 . S
C1347 C1344 1.386 . S
C1348 C1343 1.490 . S
C1348 C1350 1.395 . S
C1348 C1351 1.403 . S
H1349 C1355 0.930 . S
C1350 H1336 0.930 . S
C1350 C1348 1.395 . S
C1350 C1353 1.403 . S
C1351 C1348 1.403 . S
C1351 C1352 1.524 . S
C1351 C1355 1.400 . S
C1352 H1337 0.960 . S
C1352 H1338 0.960 . S
C1352 H1339 0.960 . S
C1352 C1351 1.524 . S
C1353 C1350 1.403 . S
C1353 C1354 1.392 . S
C1353 C1357 1.495 . S
C1354 C1353 1.392 . S
C1354 C1355 1.385 . S
C1354 C1356 1.478 . S
C1355 H1349 0.930 . S
C1355 C1351 1.400 . S
C1355 C1354 1.385 . S
C1356 C1354 1.478 . S
C1356 C1358 1.381 . S
C1356 C1362 1.383 . S
C1357 C1353 1.495 . S
C1357 H1363 0.959 . S
C1357 H1364 0.961 . S
C1357 H1365 0.960 . S
C1358 C1356 1.381 . S
C1358 C1359 1.394 . S
C1358 H1366 0.930 . S
C1359 C1358 1.394 . S
C1359 C1360 1.383 . S
C1359 H1367 0.929 . S
C1360 C1359 1.383 . S
C1360 C1361 1.377 . S
C1361 H1345 0.930 . S
C1361 C1360 1.377 . S
C1361 C1362 1.379 . S
C1362 H1346 0.931 . S
C1362 C1356 1.383 . S
C1362 C1361 1.379 . S
H1363 C1357 0.959 . S
H1364 C1357 0.961 . S
H1365 C1357 0.960 . S
H1366 C1358 0.930 . S
H1367 C1359 0.929 . S
H1368 C1376 0.929 . S
H1369 C1378 0.930 . S
H1370 C1380 0.930 . S
H1371 C1383 0.929 . S
H1372 C1386 0.930 . S
H1373 C1388 0.960 . S
H1374 C1388 0.960 . S
H1375 C1388 0.960 . S
C1376 H1368 0.929 . S
C1376 C1377 1.377 . S
C1376 C1378 1.384 . S
C1377 C1376 1.377 . S
C1377 C1383 1.390 . S
C1378 H1369 0.930 . S
C1378 C1376 1.384 . S
C1378 C1379 1.372 . S
C1379 C1378 1.372 . S
C1379 C1380 1.400 . S
C1379 C1384 1.490 . S
C1380 H1370 0.930 . S
C1380 C1379 1.400 . S
C1380 C1383 1.386 . S
H1381 C1397 0.930 . S
H1382 C1398 0.931 . S
C1383 H1371 0.929 . S
C1383 C1377 1.390 . S
C1383 C1380 1.386 . S
C1384 C1379 1.490 . S
C1384 C1386 1.395 . S
C1384 C1387 1.403 . S
H1385 C1391 0.930 . S
C1386 H1372 0.930 . S
C1386 C1384 1.395 . S
C1386 C1389 1.403 . S
C1387 C1384 1.403 . S
C1387 C1388 1.524 . S
C1387 C1391 1.400 . S
C1388 H1373 0.960 . S
C1388 H1374 0.960 . S
C1388 H1375 0.960 . S
C1388 C1387 1.524 . S
C1389 C1386 1.403 . S
C1389 C1390 1.392 . S
C1389 C1393 1.495 . S
C1390 C1389 1.392 . S
C1390 C1391 1.385 . S
C1390 C1392 1.478 . S
C1391 H1385 0.930 . S
C1391 C1387 1.400 . S
C1391 C1390 1.385 . S
C1392 C1390 1.478 . S
C1392 C1394 1.381 . S
C1392 C1398 1.383 . S
C1393 C1389 1.495 . S
C1393 H1399 0.959 . S
C1393 H1400 0.961 . S
C1393 H1401 0.960 . S
C1394 C1392 1.381 . S
C1394 C1395 1.394 . S
C1394 H1402 0.930 1_556 S
C1395 C1394 1.394 . S
C1395 C1396 1.383 . S
C1395 H1403 0.929 1_556 S
C1396 C1395 1.383 . S
C1396 C1397 1.377 . S
C1397 H1381 0.930 . S
C1397 C1396 1.377 . S
C1397 C1398 1.379 . S
C1398 H1382 0.931 . S
C1398 C1392 1.383 . S
C1398 C1397 1.379 . S
H1399 C1393 0.959 . S
H1400 C1393 0.961 . S
H1401 C1393 0.960 . S
H1402 C1394 0.930 1_554 S
H1403 C1395 0.929 1_554 S
H1404 C1412 0.929 . S
H1405 C1414 0.930 . S
H1406 C1416 0.930 . S
H1407 C1419 0.929 . S
H1408 C1422 0.930 . S
H1409 C1424 0.960 . S
H1410 C1424 0.960 . S
H1411 C1424 0.960 . S
C1412 H1404 0.929 . S
C1412 C1413 1.377 . S
C1412 C1414 1.384 . S
C1413 C1412 1.377 . S
C1413 C1419 1.390 . S
C1414 H1405 0.930 . S
C1414 C1412 1.384 . S
C1414 C1415 1.372 . S
C1415 C1414 1.372 . S
C1415 C1416 1.400 . S
C1415 C1420 1.490 . S
C1416 H1406 0.930 . S
C1416 C1415 1.400 . S
C1416 C1419 1.386 . S
H1417 C1433 0.930 . S
H1418 C1434 0.931 . S
C1419 H1407 0.929 . S
C1419 C1413 1.390 . S
C1419 C1416 1.386 . S
C1420 C1415 1.490 . S
C1420 C1422 1.395 . S
C1420 C1423 1.403 . S
H1421 C1427 0.930 . S
C1422 H1408 0.930 . S
C1422 C1420 1.395 . S
C1422 C1425 1.403 . S
C1423 C1420 1.403 . S
C1423 C1424 1.524 . S
C1423 C1427 1.400 . S
C1424 H1409 0.960 . S
C1424 H1410 0.960 . S
C1424 H1411 0.960 . S
C1424 C1423 1.524 . S
C1425 C1422 1.403 . S
C1425 C1426 1.392 . S
C1425 C1429 1.495 . S
C1426 C1425 1.392 . S
C1426 C1427 1.385 . S
C1426 C1428 1.478 . S
C1427 H1421 0.930 . S
C1427 C1423 1.400 . S
C1427 C1426 1.385 . S
C1428 C1426 1.478 . S
C1428 C1430 1.381 . S
C1428 C1434 1.383 . S
C1429 C1425 1.495 . S
C1429 H1435 0.959 . S
C1429 H1436 0.961 . S
C1429 H1437 0.960 . S
C1430 C1428 1.381 . S
C1430 C1431 1.394 . S
C1430 H1438 0.930 . S
C1431 C1430 1.394 . S
C1431 C1432 1.383 . S
C1431 H1439 0.929 . S
C1432 C1431 1.383 . S
C1432 C1433 1.377 . S
C1433 H1417 0.930 . S
C1433 C1432 1.377 . S
C1433 C1434 1.379 . S
C1434 H1418 0.931 . S
C1434 C1428 1.383 . S
C1434 C1433 1.379 . S
H1435 C1429 0.959 . S
H1436 C1429 0.961 . S
H1437 C1429 0.960 . S
H1438 C1430 0.930 . S
H1439 C1431 0.929 . S
H1440 C1448 0.929 . S
H1441 C1450 0.930 . S
H1442 C1452 0.930 . S
H1443 C1455 0.929 . S
H1444 C1458 0.930 . S
H1445 C1460 0.960 . S
H1446 C1460 0.960 . S
H1447 C1460 0.960 . S
C1448 H1440 0.929 . S
C1448 C1449 1.377 . S
C1448 C1450 1.384 . S
C1449 C1448 1.377 . S
C1449 C1455 1.390 . S
C1450 H1441 0.930 . S
C1450 C1448 1.384 . S
C1450 C1451 1.372 . S
C1451 C1450 1.372 . S
C1451 C1452 1.400 . S
C1451 C1456 1.490 . S
C1452 H1442 0.930 . S
C1452 C1451 1.400 . S
C1452 C1455 1.386 . S
H1453 C1469 0.930 . S
H1454 C1470 0.931 . S
C1455 H1443 0.929 . S
C1455 C1449 1.390 . S
C1455 C1452 1.386 . S
C1456 C1451 1.490 . S
C1456 C1458 1.395 . S
C1456 C1459 1.403 . S
H1457 C1463 0.930 . S
C1458 H1444 0.930 . S
C1458 C1456 1.395 . S
C1458 C1461 1.403 . S
C1459 C1456 1.403 . S
C1459 C1460 1.524 . S
C1459 C1463 1.400 . S
C1460 H1445 0.960 . S
C1460 H1446 0.960 . S
C1460 H1447 0.960 . S
C1460 C1459 1.524 . S
C1461 C1458 1.403 . S
C1461 C1462 1.392 . S
C1461 C1465 1.495 . S
C1462 C1461 1.392 . S
C1462 C1463 1.385 . S
C1462 C1464 1.478 . S
C1463 H1457 0.930 . S
C1463 C1459 1.400 . S
C1463 C1462 1.385 . S
C1464 C1462 1.478 . S
C1464 C1466 1.381 . S
C1464 C1470 1.383 . S
C1465 C1461 1.495 . S
C1465 H1471 0.959 . S
C1465 H1472 0.961 . S
C1465 H1473 0.960 . S
C1466 C1464 1.381 . S
C1466 C1467 1.394 . S
C1466 H1474 0.930 . S
C1467 C1466 1.394 . S
C1467 C1468 1.383 . S
C1467 H1475 0.929 . S
C1468 C1467 1.383 . S
C1468 C1469 1.377 . S
C1469 H1453 0.930 . S
C1469 C1468 1.377 . S
C1469 C1470 1.379 . S
C1470 H1454 0.931 . S
C1470 C1464 1.383 . S
C1470 C1469 1.379 . S
H1471 C1465 0.959 . S
H1472 C1465 0.961 . S
H1473 C1465 0.960 . S
H1474 C1466 0.930 . S
H1475 C1467 0.929 . S
H1476 C1484 0.929 . S
H1477 C1486 0.947 1_565 S
H1478 C1488 0.930 . S
H1479 C1491 0.929 . S
H1480 C1494 0.930 . S
H1481 C1496 0.960 . S
H1482 C1496 0.960 . S
H1483 C1496 0.960 . S
C1484 H1476 0.929 . S
C1484 C1485 1.385 1_565 S
C1484 C1486 1.365 1_565 S
C1485 C1484 1.385 1_545 S
C1485 C1491 1.390 . S
C1486 H1477 0.947 1_545 S
C1486 C1484 1.365 1_545 S
C1486 C1487 1.372 . S
C1487 C1486 1.372 . S
C1487 C1488 1.400 . S
C1487 C1492 1.490 . S
C1488 H1478 0.930 . S
C1488 C1487 1.400 . S
C1488 C1491 1.386 . S
H1489 C1505 0.930 . S
H1490 C1506 0.931 . S
C1491 H1479 0.929 . S
C1491 C1485 1.390 . S
C1491 C1488 1.386 . S
C1492 C1487 1.490 . S
C1492 C1494 1.395 . S
C1492 C1495 1.394 1_545 S
H1493 C1499 0.930 1_565 S
C1494 H1480 0.930 . S
C1494 C1492 1.395 . S
C1494 C1497 1.403 . S
C1495 C1492 1.394 1_565 S
C1495 C1496 1.537 . S
C1495 C1499 1.395 1_565 S
C1496 H1481 0.960 . S
C1496 H1482 0.960 . S
C1496 H1483 0.960 . S
C1496 C1495 1.537 . S
C1497 C1494 1.403 . S
C1497 C1498 1.392 . S
C1497 C1501 1.495 . S
C1498 C1497 1.392 . S
C1498 C1499 1.385 . S
C1498 C1500 1.478 . S
C1499 H1493 0.930 1_545 S
C1499 C1495 1.395 1_545 S
C1499 C1498 1.385 . S
C1500 C1498 1.478 . S
C1500 C1502 1.381 . S
C1500 C1506 1.383 . S
C1501 C1497 1.495 . S
C1501 H1507 0.959 . S
C1501 H1508 0.961 . S
C1501 H1509 0.960 . S
C1502 C1500 1.381 . S
C1502 C1503 1.394 . S
C1502 H1510 0.930 . S
C1503 C1502 1.394 . S
C1503 C1504 1.383 . S
C1503 H1511 0.929 . S
C1504 C1503 1.383 . S
C1504 C1505 1.377 . S
C1505 H1489 0.930 . S
C1505 C1504 1.377 . S
C1505 C1506 1.379 . S
C1506 H1490 0.931 . S
C1506 C1500 1.383 . S
C1506 C1505 1.379 . S
H1507 C1501 0.959 . S
H1508 C1501 0.961 . S
H1509 C1501 0.960 . S
H1510 C1502 0.930 . S
H1511 C1503 0.929 . S
H1512 C1520 0.929 . S
H1513 C1522 0.930 . S
H1514 C1524 0.930 . S
H1515 C1527 0.929 . S
H1516 C1530 0.930 . S
H1517 C1532 0.960 . S
H1518 C1532 0.960 . S
H1519 C1532 0.960 . S
C1520 H1512 0.929 . S
C1520 C1521 1.377 . S
C1520 C1522 1.384 . S
C1521 C1520 1.377 . S
C1521 C1527 1.390 . S
C1522 H1513 0.930 . S
C1522 C1520 1.384 . S
C1522 C1523 1.372 . S
C1523 C1522 1.372 . S
C1523 C1524 1.400 . S
C1523 C1528 1.490 . S
C1524 H1514 0.930 . S
C1524 C1523 1.400 . S
C1524 C1527 1.386 . S
H1525 C1541 0.930 . S
H1526 C1542 0.931 . S
C1527 H1515 0.929 . S
C1527 C1521 1.390 . S
C1527 C1524 1.386 . S
C1528 C1523 1.490 . S
C1528 C1530 1.395 . S
C1528 C1531 1.403 . S
H1529 C1535 0.930 . S
C1530 H1516 0.930 . S
C1530 C1528 1.395 . S
C1530 C1533 1.403 . S
C1531 C1528 1.403 . S
C1531 C1532 1.524 . S
C1531 C1535 1.400 . S
C1532 H1517 0.960 . S
C1532 H1518 0.960 . S
C1532 H1519 0.960 . S
C1532 C1531 1.524 . S
C1533 C1530 1.403 . S
C1533 C1534 1.392 . S
C1533 C1537 1.495 . S
C1534 C1533 1.392 . S
C1534 C1535 1.385 . S
C1534 C1536 1.478 . S
C1535 H1529 0.930 . S
C1535 C1531 1.400 . S
C1535 C1534 1.385 . S
C1536 C1534 1.478 . S
C1536 C1538 1.381 . S
C1536 C1542 1.383 . S
C1537 C1533 1.495 . S
C1537 H1543 0.959 . S
C1537 H1544 0.961 . S
C1537 H1545 0.960 . S
C1538 C1536 1.381 . S
C1538 C1539 1.394 . S
C1538 H1546 0.930 . S
C1539 C1538 1.394 . S
C1539 C1540 1.383 . S
C1539 H1547 0.929 . S
C1540 C1539 1.383 . S
C1540 C1541 1.377 . S
C1541 H1525 0.930 . S
C1541 C1540 1.377 . S
C1541 C1542 1.379 . S
C1542 H1526 0.931 . S
C1542 C1536 1.383 . S
C1542 C1541 1.379 . S
H1543 C1537 0.959 . S
H1544 C1537 0.961 . S
H1545 C1537 0.960 . S
H1546 C1538 0.930 . S
H1547 C1539 0.929 . S
H1548 C1556 0.929 . S
H1549 C1558 0.930 . S
H1550 C1560 0.930 . S
H1551 C1563 0.929 . S
H1552 C1566 0.930 . S
H1553 C1568 0.960 . S
H1554 C1568 0.960 . S
H1555 C1568 0.960 . S
C1556 H1548 0.929 . S
C1556 C1557 1.377 . S
C1556 C1558 1.384 . S
C1557 C1556 1.377 . S
C1557 C1563 1.390 . S
C1558 H1549 0.930 . S
C1558 C1556 1.384 . S
C1558 C1559 1.372 . S
C1559 C1558 1.372 . S
C1559 C1560 1.400 . S
C1559 C1564 1.490 . S
C1560 H1550 0.930 . S
C1560 C1559 1.400 . S
C1560 C1563 1.386 . S
H1561 C1577 0.930 . S
H1562 C1578 0.931 . S
C1563 H1551 0.929 . S
C1563 C1557 1.390 . S
C1563 C1560 1.386 . S
C1564 C1559 1.490 . S
C1564 C1566 1.395 . S
C1564 C1567 1.403 . S
H1565 C1571 0.930 . S
C1566 H1552 0.930 . S
C1566 C1564 1.395 . S
C1566 C1569 1.403 . S
C1567 C1564 1.403 . S
C1567 C1568 1.524 . S
C1567 C1571 1.400 . S
C1568 H1553 0.960 . S
C1568 H1554 0.960 . S
C1568 H1555 0.960 . S
C1568 C1567 1.524 . S
C1569 C1566 1.403 . S
C1569 C1570 1.392 . S
C1569 C1573 1.495 . S
C1570 C1569 1.392 . S
C1570 C1571 1.385 . S
C1570 C1572 1.478 . S
C1571 H1565 0.930 . S
C1571 C1567 1.400 . S
C1571 C1570 1.385 . S
C1572 C1570 1.478 . S
C1572 C1574 1.381 . S
C1572 C1578 1.383 . S
C1573 C1569 1.495 . S
C1573 H1579 0.959 . S
C1573 H1580 0.961 . S
C1573 H1581 0.960 . S
C1574 C1572 1.381 . S
C1574 C1575 1.394 . S
C1574 H1582 0.930 . S
C1575 C1574 1.394 . S
C1575 C1576 1.383 . S
C1575 H1583 0.929 . S
C1576 C1575 1.383 . S
C1576 C1577 1.377 . S
C1577 H1561 0.930 . S
C1577 C1576 1.377 . S
C1577 C1578 1.379 . S
C1578 H1562 0.931 . S
C1578 C1572 1.383 . S
C1578 C1577 1.379 . S
H1579 C1573 0.959 . S
H1580 C1573 0.961 . S
H1581 C1573 0.960 . S
H1582 C1574 0.930 . S
H1583 C1575 0.929 . S
H1584 C1592 0.929 . S
H1585 C1594 0.930 . S
H1586 C1596 0.930 . S
H1587 C1599 0.929 . S
H1588 C1602 0.930 . S
H1589 C1604 0.960 . S
H1590 C1604 0.960 . S
H1591 C1604 0.960 . S
C1592 H1584 0.929 . S
C1592 C1593 1.377 . S
C1592 C1594 1.384 . S
C1593 C1592 1.377 . S
C1593 C1599 1.390 . S
C1594 H1585 0.930 . S
C1594 C1592 1.384 . S
C1594 C1595 1.372 . S
C1595 C1594 1.372 . S
C1595 C1596 1.400 . S
C1595 C1600 1.490 . S
C1596 H1586 0.930 . S
C1596 C1595 1.400 . S
C1596 C1599 1.386 . S
H1597 C1613 0.930 . S
H1598 C1614 0.931 . S
C1599 H1587 0.929 . S
C1599 C1593 1.390 . S
C1599 C1596 1.386 . S
C1600 C1595 1.490 . S
C1600 C1602 1.395 . S
C1600 C1603 1.403 . S
H1601 C1607 0.930 . S
C1602 H1588 0.930 . S
C1602 C1600 1.395 . S
C1602 C1605 1.403 . S
C1603 C1600 1.403 . S
C1603 C1604 1.524 . S
C1603 C1607 1.400 . S
C1604 H1589 0.960 . S
C1604 H1590 0.960 . S
C1604 H1591 0.960 . S
C1604 C1603 1.524 . S
C1605 C1602 1.403 . S
C1605 C1606 1.392 . S
C1605 C1609 1.495 . S
C1606 C1605 1.392 . S
C1606 C1607 1.385 . S
C1606 C1608 1.478 . S
C1607 H1601 0.930 . S
C1607 C1603 1.400 . S
C1607 C1606 1.385 . S
C1608 C1606 1.478 . S
C1608 C1610 1.381 . S
C1608 C1614 1.383 . S
C1609 C1605 1.495 . S
C1609 H1615 0.959 . S
C1609 H1616 0.961 . S
C1609 H1617 0.960 . S
C1610 C1608 1.381 . S
C1610 C1611 1.394 . S
C1610 H1618 0.930 . S
C1611 C1610 1.394 . S
C1611 C1612 1.383 . S
C1611 H1619 0.929 . S
C1612 C1611 1.383 . S
C1612 C1613 1.377 . S
C1613 H1597 0.930 . S
C1613 C1612 1.377 . S
C1613 C1614 1.379 . S
C1614 H1598 0.931 . S
C1614 C1608 1.383 . S
C1614 C1613 1.379 . S
H1615 C1609 0.959 . S
H1616 C1609 0.961 . S
H1617 C1609 0.960 . S
H1618 C1610 0.930 . S
H1619 C1611 0.929 . S
H1620 C1628 0.929 . S
H1621 C1630 0.930 . S
H1622 C1632 0.930 . S
H1623 C1635 0.929 . S
H1624 C1638 0.930 . S
H1625 C1640 0.960 . S
H1626 C1640 0.960 . S
H1627 C1640 0.960 . S
C1628 H1620 0.929 . S
C1628 C1629 1.377 . S
C1628 C1630 1.384 . S
C1629 C1628 1.377 . S
C1629 C1635 1.390 . S
C1630 H1621 0.930 . S
C1630 C1628 1.384 . S
C1630 C1631 1.372 . S
C1631 C1630 1.372 . S
C1631 C1632 1.400 . S
C1631 C1636 1.490 . S
C1632 H1622 0.930 . S
C1632 C1631 1.400 . S
C1632 C1635 1.386 . S
H1633 C1649 0.930 . S
H1634 C1650 0.931 . S
C1635 H1623 0.929 . S
C1635 C1629 1.390 . S
C1635 C1632 1.386 . S
C1636 C1631 1.490 . S
C1636 C1638 1.395 . S
C1636 C1639 1.403 . S
H1637 C1643 0.930 . S
C1638 H1624 0.930 . S
C1638 C1636 1.395 . S
C1638 C1641 1.403 . S
C1639 C1636 1.403 . S
C1639 C1640 1.524 . S
C1639 C1643 1.400 . S
C1640 H1625 0.960 . S
C1640 H1626 0.960 . S
C1640 H1627 0.960 . S
C1640 C1639 1.524 . S
C1641 C1638 1.403 . S
C1641 C1642 1.392 . S
C1641 C1645 1.495 . S
C1642 C1641 1.392 . S
C1642 C1643 1.385 . S
C1642 C1644 1.478 . S
C1643 H1637 0.930 . S
C1643 C1639 1.400 . S
C1643 C1642 1.385 . S
C1644 C1642 1.478 . S
C1644 C1646 1.381 . S
C1644 C1650 1.383 . S
C1645 C1641 1.495 . S
C1645 H1651 0.959 . S
C1645 H1652 0.961 . S
C1645 H1653 0.960 . S
C1646 C1644 1.381 . S
C1646 C1647 1.394 . S
C1646 H1654 0.930 . S
C1647 C1646 1.394 . S
C1647 C1648 1.383 1_554 S
C1647 H1655 0.929 1_554 S
C1648 C1647 1.383 1_556 S
C1648 C1649 1.377 . S
C1649 H1633 0.930 . S
C1649 C1648 1.377 . S
C1649 C1650 1.379 1_556 S
C1650 H1634 0.931 . S
C1650 C1644 1.383 . S
C1650 C1649 1.379 1_554 S
H1651 C1645 0.959 . S
H1652 C1645 0.961 . S
H1653 C1645 0.960 . S
H1654 C1646 0.930 . S
H1655 C1647 0.929 1_556 S
H1656 C1664 0.929 . S
H1657 C1666 0.930 . S
H1658 C1668 0.930 . S
H1659 C1671 0.929 . S
H1660 C1674 0.930 . S
H1661 C1676 0.960 . S
H1662 C1676 0.960 . S
H1663 C1676 0.960 . S
C1664 H1656 0.929 . S
C1664 C1665 1.377 . S
C1664 C1666 1.384 . S
C1665 C1664 1.377 . S
C1665 C1671 1.390 . S
C1666 H1657 0.930 . S
C1666 C1664 1.384 . S
C1666 C1667 1.372 . S
C1667 C1666 1.372 . S
C1667 C1668 1.400 . S
C1667 C1672 1.490 . S
C1668 H1658 0.930 . S
C1668 C1667 1.400 . S
C1668 C1671 1.386 . S
H1669 C1685 0.930 . S
H1670 C1686 0.931 . S
C1671 H1659 0.929 . S
C1671 C1665 1.390 . S
C1671 C1668 1.386 . S
C1672 C1667 1.490 . S
C1672 C1674 1.395 . S
C1672 C1675 1.403 . S
H1673 C1679 0.930 . S
C1674 H1660 0.930 . S
C1674 C1672 1.395 . S
C1674 C1677 1.403 . S
C1675 C1672 1.403 . S
C1675 C1676 1.524 . S
C1675 C1679 1.400 . S
C1676 H1661 0.960 . S
C1676 H1662 0.960 . S
C1676 H1663 0.960 . S
C1676 C1675 1.524 . S
C1677 C1674 1.403 . S
C1677 C1678 1.392 . S
C1677 C1681 1.495 . S
C1678 C1677 1.392 . S
C1678 C1679 1.385 . S
C1678 C1680 1.478 . S
C1679 H1673 0.930 . S
C1679 C1675 1.400 . S
C1679 C1678 1.385 . S
C1680 C1678 1.478 . S
C1680 C1682 1.381 . S
C1680 C1686 1.383 . S
C1681 C1677 1.495 . S
C1681 H1687 0.959 . S
C1681 H1688 0.961 . S
C1681 H1689 0.960 . S
C1682 C1680 1.381 . S
C1682 C1683 1.394 . S
C1682 H1690 0.930 . S
C1683 C1682 1.394 . S
C1683 C1684 1.383 . S
C1683 H1691 0.929 . S
C1684 C1683 1.383 . S
C1684 C1685 1.377 . S
C1685 H1669 0.930 . S
C1685 C1684 1.377 . S
C1685 C1686 1.379 . S
C1686 H1670 0.931 . S
C1686 C1680 1.383 . S
C1686 C1685 1.379 . S
H1687 C1681 0.959 . S
H1688 C1681 0.961 . S
H1689 C1681 0.960 . S
H1690 C1682 0.930 . S
H1691 C1683 0.929 . S
H1692 C1700 0.929 . S
H1693 C1702 0.930 . S
H1694 C1704 0.930 . S
H1695 C1707 0.929 . S
H1696 C1710 0.930 . S
H1697 C1712 0.960 . S
H1698 C1712 0.960 . S
H1699 C1712 0.960 . S
C1700 H1692 0.929 . S
C1700 C1701 1.377 . S
C1700 C1702 1.384 . S
C1701 C1700 1.377 . S
C1701 C1707 1.390 . S
C1702 H1693 0.930 . S
C1702 C1700 1.384 . S
C1702 C1703 1.372 . S
C1703 C1702 1.372 . S
C1703 C1704 1.400 . S
C1703 C1708 1.490 . S
C1704 H1694 0.930 . S
C1704 C1703 1.400 . S
C1704 C1707 1.386 . S
H1705 C1721 0.930 . S
H1706 C1722 0.931 . S
C1707 H1695 0.929 . S
C1707 C1701 1.390 . S
C1707 C1704 1.386 . S
C1708 C1703 1.490 . S
C1708 C1710 1.395 . S
C1708 C1711 1.403 . S
H1709 C1715 0.930 . S
C1710 H1696 0.930 . S
C1710 C1708 1.395 . S
C1710 C1713 1.403 . S
C1711 C1708 1.403 . S
C1711 C1712 1.524 . S
C1711 C1715 1.400 . S
C1712 H1697 0.960 . S
C1712 H1698 0.960 . S
C1712 H1699 0.960 . S
C1712 C1711 1.524 . S
C1713 C1710 1.403 . S
C1713 C1714 1.392 . S
C1713 C1717 1.495 . S
C1714 C1713 1.392 . S
C1714 C1715 1.385 . S
C1714 C1716 1.478 . S
C1715 H1709 0.930 . S
C1715 C1711 1.400 . S
C1715 C1714 1.385 . S
C1716 C1714 1.478 . S
C1716 C1718 1.381 . S
C1716 C1722 1.383 . S
C1717 C1713 1.495 . S
C1717 H1723 0.959 . S
C1717 H1724 0.961 . S
C1717 H1725 0.960 . S
C1718 C1716 1.381 . S
C1718 C1719 1.394 . S
C1718 H1726 0.930 . S
C1719 C1718 1.394 . S
C1719 C1720 1.383 . S
C1719 H1727 0.929 . S
C1720 C1719 1.383 . S
C1720 C1721 1.377 . S
C1721 H1705 0.930 . S
C1721 C1720 1.377 . S
C1721 C1722 1.379 . S
C1722 H1706 0.931 . S
C1722 C1716 1.383 . S
C1722 C1721 1.379 . S
H1723 C1717 0.959 . S
H1724 C1717 0.961 . S
H1725 C1717 0.960 . S
H1726 C1718 0.930 . S
H1727 C1719 0.929 . S
C765 C72 1.274 . S
C784 C660 1.347 . S
C801 C151 2.125 . S
C820 C739 2.029 . S
C837 C240 1.399 . S
C856 C571 1.552 . S
C873 C403 2.106 . S
C892 C235 2.104 . S
C909 C487 2.137 . S
C928 C67 2.129 . S
C945 C156 2.042 . S
C964 C319 2.165 . S
C981 C655 1.514 . S
C1000 C492 1.510 . S
C1017 C744 1.594 . S
C1036 C324 1.634 . S
C1053 C408 2.178 . S
C1072 C576 2.253 . S
C1089 C231 1.339 . S
C1108 C56 1.563 . S
C1125 C147 1.069 . S
C1144 C63 1.098 . S
C1161 C140 2.888 . S
C1180 C224 3.000 . S
C1197 C315 1.619 . S
C1216 C476 1.984 . S
C1233 C308 2.070 . S
C1252 C399 1.807 . S
C1269 C392 1.928 . S
C1288 C483 1.546 . S
C1305 C735 1.813 1_554 S
C1324 C560 2.290 . S
C1341 C651 0.753 . S
C1360 C567 0.651 . S
C1377 C728 2.026 . S
C1396 C644 1.938 . S
C1413 C66 1.173 1_556 S
C1432 C75 1.142 . S
C1449 C159 1.141 1_556 S
C1468 C150 1.121 . S
C1485 C234 1.163 . S
C1504 C243 1.182 . S
C1521 C318 1.241 . S
C1540 C327 1.215 . S
C1557 C402 1.129 . S
C1576 C411 1.129 . S
C1593 C486 1.206 . S
C1612 C495 1.166 1_556 S
C1629 C570 1.183 . S
C1648 C579 1.197 . S
C1665 C654 1.147 . S
C1684 C663 1.173 . S
C1701 C738 1.147 . S
C1720 C747 1.172 . S
