# Generated by pormake.
# Topology wlt, (5)-cn, num edge types: 1
# Building blocks:
#     Node 0, Type 0, BuildingBlock: BEQFEK_clean_sbu_0, # of connection points: 5
#     Node 1, Type 0, BuildingBlock: BEQFEK_clean_sbu_0, # of connection points: 5
#     Node 2, Type 0, BuildingBlock: BEQFEK_clean_sbu_0, # of connection points: 5
#     Node 3, Type 0, BuildingBlock: BEQFEK_clean_sbu_0, # of connection points: 5
#     Node 4, Type 0, BuildingBlock: BEQFEK_clean_sbu_0, # of connection points: 5
#     Node 5, Type 0, BuildingBlock: BEQFEK_clean_sbu_0, # of connection points: 5
#     Node 6, Type 0, BuildingBlock: BEQFEK_clean_sbu_0, # of connection points: 5
#     Node 7, Type 0, BuildingBlock: BEQFEK_clean_sbu_0, # of connection points: 5
#     Node 8, Type 0, BuildingBlock: BEQFEK_clean_sbu_0, # of connection points: 5
#     Node 9, Type 0, BuildingBlock: BEQFEK_clean_sbu_0, # of connection points: 5
#     Node 10, Type 0, BuildingBlock: BEQFEK_clean_sbu_0, # of connection points: 5
#     Node 11, Type 0, BuildingBlock: BEQFEK_clean_sbu_0, # of connection points: 5
#     Node 12, Type 0, BuildingBlock: BEQFEK_clean_sbu_0, # of connection points: 5
#     Node 13, Type 0, BuildingBlock: BEQFEK_clean_sbu_0, # of connection points: 5
#     Node 14, Type 0, BuildingBlock: BEQFEK_clean_sbu_0, # of connection points: 5
#     Node 15, Type 0, BuildingBlock: BEQFEK_clean_sbu_0, # of connection points: 5
#     Node 16, Type 0, BuildingBlock: BEQFEK_clean_sbu_0, # of connection points: 5
#     Node 17, Type 0, BuildingBlock: BEQFEK_clean_sbu_0, # of connection points: 5
#     Node 18, Type 0, BuildingBlock: BEQFEK_clean_sbu_0, # of connection points: 5
#     Node 19, Type 0, BuildingBlock: BEQFEK_clean_sbu_0, # of connection points: 5
#     Node 20, Type 0, BuildingBlock: BEQFEK_clean_sbu_0, # of connection points: 5
#     Node 21, Type 0, BuildingBlock: BEQFEK_clean_sbu_0, # of connection points: 5
#     Node 22, Type 0, BuildingBlock: BEQFEK_clean_sbu_0, # of connection points: 5
#     Node 23, Type 0, BuildingBlock: BEQFEK_clean_sbu_0, # of connection points: 5
#     Node 24, Type 0, BuildingBlock: BEQFEK_clean_sbu_0, # of connection points: 5
#     Node 25, Type 0, BuildingBlock: BEQFEK_clean_sbu_0, # of connection points: 5
#     Node 26, Type 0, BuildingBlock: BEQFEK_clean_sbu_0, # of connection points: 5
#     Node 27, Type 0, BuildingBlock: BEQFEK_clean_sbu_0, # of connection points: 5
#     Node 28, Type 0, BuildingBlock: BEQFEK_clean_sbu_0, # of connection points: 5
#     Node 29, Type 0, BuildingBlock: BEQFEK_clean_sbu_0, # of connection points: 5
#     Node 30, Type 0, BuildingBlock: BEQFEK_clean_sbu_0, # of connection points: 5
#     Node 31, Type 0, BuildingBlock: BEQFEK_clean_sbu_0, # of connection points: 5
#     Node 32, Type 0, BuildingBlock: BEQFEK_clean_sbu_0, # of connection points: 5
#     Node 33, Type 0, BuildingBlock: BEQFEK_clean_sbu_0, # of connection points: 5
#     Node 34, Type 0, BuildingBlock: BEQFEK_clean_sbu_0, # of connection points: 5
#     Node 35, Type 0, BuildingBlock: BEQFEK_clean_sbu_0, # of connection points: 5
#     Edge 36, Type (0, 0), None
#     Edge 37, Type (0, 0), None
#     Edge 38, Type (0, 0), None
#     Edge 39, Type (0, 0), None
#     Edge 40, Type (0, 0), None
#     Edge 41, Type (0, 0), None
#     Edge 42, Type (0, 0), None
#     Edge 43, Type (0, 0), None
#     Edge 44, Type (0, 0), None
#     Edge 45, Type (0, 0), None
#     Edge 46, Type (0, 0), None
#     Edge 47, Type (0, 0), None
#     Edge 48, Type (0, 0), None
#     Edge 49, Type (0, 0), None
#     Edge 50, Type (0, 0), None
#     Edge 51, Type (0, 0), None
#     Edge 52, Type (0, 0), None
#     Edge 53, Type (0, 0), None
#     Edge 54, Type (0, 0), None
#     Edge 55, Type (0, 0), None
#     Edge 56, Type (0, 0), None
#     Edge 57, Type (0, 0), None
#     Edge 58, Type (0, 0), None
#     Edge 59, Type (0, 0), None
#     Edge 60, Type (0, 0), None
#     Edge 61, Type (0, 0), None
#     Edge 62, Type (0, 0), None
#     Edge 63, Type (0, 0), None
#     Edge 64, Type (0, 0), None
#     Edge 65, Type (0, 0), None
#     Edge 66, Type (0, 0), None
#     Edge 67, Type (0, 0), None
#     Edge 68, Type (0, 0), None
#     Edge 69, Type (0, 0), None
#     Edge 70, Type (0, 0), None
#     Edge 71, Type (0, 0), None
#     Edge 72, Type (0, 0), None
#     Edge 73, Type (0, 0), None
#     Edge 74, Type (0, 0), None
#     Edge 75, Type (0, 0), None
#     Edge 76, Type (0, 0), None
#     Edge 77, Type (0, 0), None
#     Edge 78, Type (0, 0), None
#     Edge 79, Type (0, 0), None
#     Edge 80, Type (0, 0), None
#     Edge 81, Type (0, 0), None
#     Edge 82, Type (0, 0), None
#     Edge 83, Type (0, 0), None
#     Edge 84, Type (0, 0), None
#     Edge 85, Type (0, 0), None
#     Edge 86, Type (0, 0), None
#     Edge 87, Type (0, 0), None
#     Edge 88, Type (0, 0), None
#     Edge 89, Type (0, 0), None
#     Edge 90, Type (0, 0), None
#     Edge 91, Type (0, 0), None
#     Edge 92, Type (0, 0), None
#     Edge 93, Type (0, 0), None
#     Edge 94, Type (0, 0), None
#     Edge 95, Type (0, 0), None
#     Edge 96, Type (0, 0), None
#     Edge 97, Type (0, 0), None
#     Edge 98, Type (0, 0), None
#     Edge 99, Type (0, 0), None
#     Edge 100, Type (0, 0), None
#     Edge 101, Type (0, 0), None
#     Edge 102, Type (0, 0), None
#     Edge 103, Type (0, 0), None
#     Edge 104, Type (0, 0), None
#     Edge 105, Type (0, 0), None
#     Edge 106, Type (0, 0), None
#     Edge 107, Type (0, 0), None
#     Edge 108, Type (0, 0), None
#     Edge 109, Type (0, 0), None
#     Edge 110, Type (0, 0), None
#     Edge 111, Type (0, 0), None
#     Edge 112, Type (0, 0), None
#     Edge 113, Type (0, 0), None
#     Edge 114, Type (0, 0), None
#     Edge 115, Type (0, 0), None
#     Edge 116, Type (0, 0), None
#     Edge 117, Type (0, 0), None
#     Edge 118, Type (0, 0), None
#     Edge 119, Type (0, 0), None
#     Edge 120, Type (0, 0), None
#     Edge 121, Type (0, 0), None
#     Edge 122, Type (0, 0), None
#     Edge 123, Type (0, 0), None
#     Edge 124, Type (0, 0), None
#     Edge 125, Type (0, 0), None
# Relax obj value: 0.207
# Max RMSD: 0.184
# Mean RMSD: 0.184
data_MOF--net-wlt--node1-BEQFEK_clean_sbu_0--edge1-none
_symmetry_space_group_name_H-M    P1
_symmetry_Int_Tables_number       1
_symmetry_cell_setting            triclinic
loop_
_symmetry_equiv_pos_as_xyz
'x, y, z'
_cell_length_a     36.477198
_cell_length_b     36.478533
_cell_length_c     24.557644
_cell_angle_alpha  90.001041
_cell_angle_beta   89.999697
_cell_angle_gamma 120.00265
loop_
_atom_site_label
_atom_site_type_symbol
_atom_site_fract_x
_atom_site_fract_y
_atom_site_fract_z
_atom_type_partial_charge
Co0 Co 0.29372 0.23225 0.16434 0.0
Co1 Co 0.21453 0.23659 0.12808 0.0
C2 C 0.30107 0.31396 0.11569 0.0
O3 O 0.32001 0.29418 0.13257 0.0
O4 O 0.26064 0.29537 0.11369 0.0
C5 C 0.3385 0.18672 0.17431 0.0
O6 O 0.34152 0.18585 0.12111 0.0
C7 C 0.15049 0.24473 0.0637 0.0
C8 C 0.09417 0.18168 0.07644 0.0
C9 C 0.10874 0.21883 0.04723 0.0
N10 N 0.16036 0.22339 0.09979 0.0
N11 N 0.12639 0.18591 0.1077 0.0
C12 C 0.18064 0.28926 0.0471 0.0
H13 H 0.19831 0.30737 0.08336 0.0
H14 H 0.20419 0.28966 1.0182 0.0
H15 H 0.16403 0.30465 0.0286 0.0
C16 C 0.25184 0.15543 0.09184 0.0
N17 N 0.25398 0.18964 0.11628 0.0
N18 N 0.22847 0.19959 0.09129 0.0
C19 C 0.214 0.17628 0.04553 0.0
C20 C 0.2291 0.14814 0.04382 0.0
C21 C 0.25144 0.12012 0.124 0.0
H22 H 0.25316 0.12677 0.16831 0.0
H23 H 0.27787 0.11521 0.11225 0.0
H24 H 0.22179 0.08984 0.1159 0.0
O25 O 0.26632 0.22827 0.23219 0.0
O26 O 0.20741 0.2274 0.21021 0.0
H27 H 0.15362 0.16053 1.01273 0.0
H28 H 0.19411 0.17388 0.96226 0.0
C29 C 0.18759 0.18188 1.00338 0.0
H30 H 0.19439 0.21507 1.00317 0.0
H31 H 0.12572 0.16253 0.13285 0.0
O32 O 0.33102 0.21359 0.19628 0.0
C33 C 0.23134 0.22438 0.24569 0.0
Co34 Co 0.77693 0.06328 0.16435 0.0
Co35 Co 0.77258 0.97975 0.12808 0.0
C36 C 0.69521 0.98891 0.11568 0.0
O37 O 0.71499 0.02763 0.13257 0.0
O38 O 0.7138 0.96707 0.11369 0.0
C39 C 0.82246 0.15359 0.17431 0.0
O40 O 0.82332 0.15747 0.12111 0.0
C41 C 0.76445 0.90757 0.06371 0.0
C42 C 0.82751 0.91432 0.07644 0.0
C43 C 0.79036 0.89173 0.04723 0.0
N44 N 0.78578 0.93879 0.09979 0.0
N45 N 0.82327 0.9423 0.1077 0.0
C46 C 0.71991 0.89318 0.04711 0.0
H47 H 0.70181 0.89274 0.08336 0.0
H48 H 0.71951 0.91634 1.01821 0.0
H49 H 0.70453 0.86118 0.0286 0.0
C50 C 0.85375 0.09822 0.09184 0.0
N51 N 0.81954 0.06615 0.11628 0.0
N52 N 0.80959 0.03069 0.0913 0.0
C53 C 0.83289 0.03954 0.04553 0.0
C54 C 0.86103 0.08277 0.04382 0.0
C55 C 0.88906 0.13314 0.124 0.0
H56 H 0.88241 0.12821 0.16831 0.0
H57 H 0.89397 0.16448 0.11225 0.0
H58 H 0.91934 0.13377 0.11589 0.0
O59 O 0.78091 0.03987 0.23219 0.0
O60 O 0.78177 0.98182 0.21022 0.0
H61 H 0.84864 0.9949 1.01272 0.0
H62 H 0.83528 0.02204 0.96226 0.0
C63 C 0.82728 0.00752 1.00338 0.0
H64 H 0.7941 0.98114 1.00318 0.0
H65 H 0.84665 0.96503 0.13285 0.0
O66 O 0.79559 0.11924 0.19628 0.0
C67 C 0.78479 0.00877 0.24569 0.0
Co68 Co 0.94589 0.71545 0.16434 0.0
Co69 Co 0.02943 0.79463 0.12808 0.0
C70 C 0.02027 0.7081 0.11568 0.0
O71 O 0.98155 0.68916 0.13256 0.0
O72 O 0.04211 0.74854 0.11369 0.0
C73 C 0.85559 0.67068 0.1743 0.0
O74 O 0.8517 0.66766 0.12111 0.0
C75 C 0.10162 0.85869 0.06371 0.0
C76 C 0.09487 0.91499 0.07645 0.0
C77 C 0.11746 0.90044 0.04724 0.0
N78 N 0.0704 0.84881 0.09979 0.0
N79 N 0.06689 0.88277 0.10771 0.0
C80 C 0.11601 0.82854 0.0471 0.0
H81 H 0.11645 0.81088 0.08336 0.0
H82 H 0.09284 0.80499 1.0182 0.0
H83 H 0.14801 0.84516 0.02859 0.0
C84 C 0.91097 0.75734 0.09184 0.0
N85 N 0.94303 0.75519 0.11628 0.0
N86 N 0.97849 0.7807 0.09129 0.0
C87 C 0.96965 0.79517 0.04553 0.0
C88 C 0.92642 0.78008 0.04383 0.0
C89 C 0.87605 0.75774 0.124 0.0
H90 H 0.88098 0.75602 0.16831 0.0
H91 H 0.8447 0.7313 0.11226 0.0
H92 H 0.87543 0.78739 0.1159 0.0
O93 O 0.96931 0.74284 0.23218 0.0
O94 O 0.02737 0.80176 0.21021 0.0
H95 H 0.0143 0.85555 1.01273 0.0
H96 H 0.98715 0.81506 0.96226 0.0
C97 C 1.00167 0.82158 1.00338 0.0
H98 H 0.02805 0.81478 1.00318 0.0
H99 H 0.04417 0.88344 0.13287 0.0
O100 O 0.88994 0.67815 0.19627 0.0
C101 C 1.00041 0.77782 0.24569 0.0
Co102 Co 0.2341 0.29187 0.38507 0.0
Co103 Co 0.23845 0.21268 0.42133 0.0
C104 C 0.31582 0.29922 0.43372 0.0
O105 O 0.29604 0.31816 0.41684 0.0
O106 O 0.29723 0.25879 0.43572 0.0
C107 C 0.18857 0.33665 0.37511 0.0
O108 O 0.1877 0.33967 0.4283 0.0
C109 C 0.24659 0.14864 0.4857 0.0
C110 C 0.18352 0.09232 0.47296 0.0
C111 C 0.22068 0.10689 0.50217 0.0
N112 N 0.22525 0.15851 0.44962 0.0
N113 N 0.18777 0.12454 0.44171 0.0
C114 C 0.29112 0.17879 0.5023 0.0
H115 H 0.30922 0.19645 0.46604 0.0
H116 H 0.29152 0.20234 0.5312 0.0
H117 H 0.3065 0.16217 0.5208 0.0
C118 C 0.15729 0.24999 0.45757 0.0
N119 N 0.1915 0.25213 0.43314 0.0
N120 N 0.20144 0.22662 0.45812 0.0
C121 C 0.17814 0.21216 0.50388 0.0
C122 C 0.15 0.22725 0.50559 0.0
C123 C 0.12197 0.24959 0.42542 0.0
H124 H 0.12862 0.25131 0.38111 0.0
H125 H 0.11706 0.27602 0.43717 0.0
H126 H 0.0917 0.21994 0.43352 0.0
O127 O 0.23011 0.26448 0.31723 0.0
O128 O 0.22925 0.20556 0.33919 0.0
H129 H 0.16239 0.15177 0.53668 0.0
H130 H 0.17574 0.19226 0.58715 0.0
C131 C 0.18374 0.18575 0.54602 0.0
H132 H 0.21692 0.19254 0.54623 0.0
H133 H 0.16438 0.12388 0.41655 0.0
O134 O 0.21545 0.32917 0.35314 0.0
C135 C 0.22622 0.22949 0.30373 0.0
Co136 Co 0.7173 0.94404 0.38507 0.0
Co137 Co 0.79649 0.02757 0.42133 0.0
C138 C 0.70996 0.01841 0.43372 0.0
O139 O 0.69102 0.97969 0.41684 0.0
O140 O 0.75039 0.04025 0.43572 0.0
C141 C 0.67253 0.85373 0.37511 0.0
O142 O 0.66951 0.84984 0.4283 0.0
C143 C 0.86054 0.09976 0.4857 0.0
C144 C 0.91686 0.09302 0.47296 0.0
C145 C 0.90229 0.11561 0.50218 0.0
N146 N 0.85067 0.06855 0.44962 0.0
N147 N 0.88464 0.06504 0.44171 0.0
C148 C 0.83039 0.11415 0.5023 0.0
H149 H 0.81273 0.11458 0.46604 0.0
H150 H 0.80684 0.09098 0.5312 0.0
H151 H 0.84701 0.14615 0.52081 0.0
C152 C 0.75919 0.90911 0.45757 0.0
N153 N 0.75704 0.94117 0.43314 0.0
N154 N 0.78256 0.97663 0.45812 0.0
C155 C 0.79703 0.9678 0.50388 0.0
C156 C 0.78193 0.92456 0.50559 0.0
C157 C 0.75959 0.8742 0.42541 0.0
H158 H 0.75787 0.87913 0.3811 0.0
H159 H 0.73316 0.84285 0.43716 0.0
H160 H 0.78924 0.87357 0.43351 0.0
O161 O 0.7447 0.96744 0.31723 0.0
O162 O 0.80362 0.02551 0.33919 0.0
H163 H 0.85741 0.01244 0.53668 0.0
H164 H 0.81692 0.9853 0.58715 0.0
C165 C 0.82344 0.99981 0.54603 0.0
H166 H 0.81664 0.02619 0.54623 0.0
H167 H 0.8853 0.04232 0.41655 0.0
O168 O 0.68 0.88808 0.35314 0.0
C169 C 0.77968 0.99854 0.30373 0.0
Co170 Co 0.06514 0.77507 0.38507 0.0
Co171 Co 0.9816 0.77072 0.42132 0.0
C172 C 0.99076 0.69335 0.43372 0.0
O173 O 0.02949 0.71313 0.41684 0.0
O174 O 0.96892 0.71194 0.43572 0.0
C175 C 0.15545 0.82061 0.37511 0.0
O176 O 0.15934 0.82148 0.4283 0.0
C177 C 0.90941 0.76258 0.48569 0.0
C178 C 0.91617 0.82564 0.47296 0.0
C179 C 0.89358 0.78849 0.50217 0.0
N180 N 0.94063 0.78392 0.44961 0.0
N181 N 0.94415 0.8214 0.4417 0.0
C182 C 0.89502 0.71805 0.5023 0.0
H183 H 0.89458 0.69995 0.46604 0.0
H184 H 0.91819 0.71765 0.5312 0.0
H185 H 0.86303 0.70267 0.5208 0.0
C186 C 0.10007 0.85189 0.45757 0.0
N187 N 0.068 0.81767 0.43314 0.0
N188 N 0.03255 0.80772 0.45812 0.0
C189 C 0.04138 0.83103 0.50388 0.0
C190 C 0.08462 0.85917 0.50559 0.0
C191 C 0.13498 0.8872 0.42541 0.0
H192 H 0.13005 0.88055 0.3811 0.0
H193 H 0.16633 0.89212 0.43716 0.0
H194 H 0.13561 0.91748 0.43351 0.0
O195 O 0.04174 0.77905 0.31723 0.0
O196 O 0.98367 0.77991 0.33919 0.0
H197 H 0.99674 0.84677 0.53668 0.0
H198 H 0.02388 0.83342 0.58715 0.0
C199 C 0.00937 0.82542 0.54602 0.0
H200 H 0.98298 0.79224 0.54623 0.0
H201 H 0.96687 0.84479 0.41654 0.0
O202 O 0.1211 0.79372 0.35314 0.0
C203 C 0.01064 0.78295 0.30373 0.0
Co204 Co 0.71731 0.77509 0.88507 0.0
Co205 Co 0.79649 0.77073 0.92133 0.0
C206 C 0.70995 0.69337 0.93372 0.0
O207 O 0.69102 0.71315 0.91684 0.0
O208 O 0.75039 0.71196 0.93572 0.0
C209 C 0.67254 0.82062 0.87511 0.0
O210 O 0.66952 0.82149 0.9283 0.0
C211 C 0.86053 0.76258 0.98571 0.0
C212 C 0.91686 0.82563 0.97296 0.0
C213 C 0.90228 0.78848 1.00219 0.0
N214 N 0.85066 0.78392 0.94962 0.0
N215 N 0.88464 0.82139 0.9417 0.0
C216 C 0.83037 0.71805 1.00232 0.0
H217 H 0.8127 0.69995 0.96607 0.0
H218 H 0.80682 0.71767 0.03123 0.0
H219 H 0.84698 0.70266 1.02082 0.0
C220 C 0.75922 0.85191 0.95756 0.0
N221 N 0.75706 0.81769 0.93314 0.0
N222 N 0.78257 0.80775 0.95811 0.0
C223 C 0.79705 0.83106 1.00386 0.0
C224 C 0.78198 0.85922 1.00556 0.0
C225 C 0.7596 0.88722 0.92541 0.0
H226 H 0.75787 0.88056 0.8811 0.0
H227 H 0.73317 0.89212 0.93716 0.0
H228 H 0.78925 0.9175 0.9335 0.0
O229 O 0.74471 0.77906 0.81723 0.0
O230 O 0.80362 0.77992 0.83919 0.0
H231 H 0.85743 0.84679 0.03667 0.0
H232 H 0.81695 0.83346 0.08714 0.0
C233 C 0.82346 0.82545 0.04602 0.0
H234 H 0.81664 0.79226 0.04624 0.0
H235 H 0.88532 0.84478 0.91653 0.0
O236 O 0.68002 0.79375 0.85314 0.0
C237 C 0.77969 0.78294 0.80372 0.0
Co238 Co 0.2341 0.94404 0.88506 0.0
Co239 Co 0.23846 0.02758 0.92133 0.0
C240 C 0.31582 0.01841 0.93373 0.0
O241 O 0.29604 0.97969 0.91684 0.0
O242 O 0.29723 0.04025 0.93572 0.0
C243 C 0.18856 0.85373 0.87511 0.0
O244 O 0.1877 0.84985 0.9283 0.0
C245 C 0.2466 0.09976 0.98571 0.0
C246 C 0.18355 0.09303 0.97295 0.0
C247 C 0.2207 0.1156 1.00219 0.0
N248 N 0.22526 0.06855 0.94961 0.0
N249 N 0.18779 0.06505 0.94169 0.0
C250 C 0.29113 0.11414 1.00231 0.0
H251 H 0.30924 0.11457 0.96606 0.0
H252 H 0.29152 0.09098 0.03122 0.0
H253 H 0.30652 0.14614 1.02082 0.0
C254 C 0.15727 0.90912 0.95756 0.0
N255 N 0.19149 0.94118 0.93313 0.0
N256 N 0.20144 0.97664 0.95811 0.0
C257 C 0.17813 0.9678 1.00386 0.0
C258 C 0.14997 0.92457 1.00556 0.0
C259 C 0.12196 0.87419 0.9254 0.0
H260 H 0.12862 0.87912 0.8811 0.0
H261 H 0.11706 0.84285 0.93716 0.0
H262 H 0.09168 0.87355 0.9335 0.0
O263 O 0.23012 0.96746 0.81722 0.0
O264 O 0.22927 0.02551 0.83919 0.0
H265 H 0.16241 0.01246 0.03668 0.0
H266 H 0.17574 0.9853 0.08714 0.0
C267 C 0.18375 0.99982 0.04602 0.0
H268 H 0.21693 0.02619 0.04623 0.0
H269 H 0.1644 0.04234 0.91653 0.0
O270 O 0.21544 0.88809 0.85313 0.0
C271 C 0.22625 0.99856 0.80372 0.0
Co272 Co 0.06515 0.29188 0.88507 0.0
Co273 Co 0.9816 0.2127 0.92133 0.0
C274 C 0.99078 0.29923 0.93373 0.0
O275 O 0.0295 0.31817 0.91685 0.0
O276 O 0.96893 0.2588 0.93572 0.0
C277 C 0.15545 0.33665 0.87511 0.0
O278 O 0.15934 0.33966 0.9283 0.0
C279 C 0.90942 0.14866 0.98571 0.0
C280 C 0.91614 0.09234 0.97295 0.0
C281 C 0.89357 0.10691 1.00218 0.0
N282 N 0.94062 0.15853 0.94961 0.0
N283 N 0.94412 0.12455 0.94168 0.0
C284 C 0.89504 0.17881 1.00232 0.0
H285 H 0.89461 0.19648 0.96607 0.0
H286 H 0.9182 0.20236 0.03122 0.0
H287 H 0.86304 0.1622 1.02082 0.0
C288 C 0.10006 0.24997 0.95756 0.0
N289 N 0.068 0.25213 0.93314 0.0
N290 N 0.03254 0.22663 0.95811 0.0
C291 C 0.04137 0.21214 1.00386 0.0
C292 C 0.0846 0.22721 1.00556 0.0
C293 C 0.13499 0.24958 0.9254 0.0
H294 H 0.13005 0.25131 0.8811 0.0
H295 H 0.16633 0.27602 0.93716 0.0
H296 H 0.13562 0.21994 0.93349 0.0
O297 O 0.04173 0.26449 0.81723 0.0
O298 O 0.98367 0.20558 0.83919 0.0
H299 H 0.99671 0.15176 0.03667 0.0
H300 H 0.02387 0.19225 0.08713 0.0
C301 C 0.00935 0.18574 0.04602 0.0
H302 H 0.98298 0.19256 0.04623 0.0
H303 H 0.96683 0.12388 0.91652 0.0
O304 O 0.1211 0.32918 0.85314 0.0
C305 C 0.01062 0.22951 0.80372 0.0
Co306 Co 0.77694 0.71546 0.66433 0.0
Co307 Co 0.77258 0.79464 0.62808 0.0
C308 C 0.69521 0.7081 0.61568 0.0
O309 O 0.715 0.68916 0.63256 0.0
O310 O 0.71381 0.74853 0.61369 0.0
C311 C 0.82247 0.67069 0.6743 0.0
O312 O 0.82334 0.66767 0.6211 0.0
C313 C 0.76443 0.85868 0.5637 0.0
C314 C 0.82748 0.915 0.57646 0.0
C315 C 0.79034 0.90042 0.54722 0.0
N316 N 0.78577 0.84881 0.59979 0.0
N317 N 0.82325 0.88279 0.60772 0.0
C318 C 0.7199 0.82852 0.5471 0.0
H319 H 0.7018 0.81085 0.58335 0.0
H320 H 0.71952 0.80497 0.51819 0.0
H321 H 0.70451 0.84513 0.5286 0.0
C322 C 0.85376 0.75736 0.59184 0.0
N323 N 0.81954 0.7552 0.61627 0.0
N324 N 0.8096 0.78071 0.5913 0.0
C325 C 0.83291 0.7952 0.54554 0.0
C326 C 0.86107 0.78012 0.54384 0.0
C327 C 0.88907 0.75775 0.624 0.0
H328 H 0.88242 0.75602 0.6683 0.0
H329 H 0.89398 0.73131 0.61224 0.0
H330 H 0.91935 0.78739 0.6159 0.0
O331 O 0.78092 0.74285 0.73218 0.0
O332 O 0.78177 0.80176 0.71022 0.0
H333 H 0.84864 0.85557 0.51274 0.0
H334 H 0.83531 0.81509 0.46227 0.0
C335 C 0.8273 0.8216 0.50339 0.0
H336 H 0.79411 0.81478 0.50318 0.0
H337 H 0.84664 0.88346 0.63288 0.0
O338 O 0.79559 0.67816 0.69626 0.0
C339 C 0.78481 0.77783 0.74568 0.0
Co340 Co 0.29373 0.0633 0.66433 0.0
Co341 Co 0.21455 0.97976 0.62808 0.0
C342 C 0.30108 0.98893 0.61568 0.0
O343 O 0.32002 0.02765 0.63256 0.0
O344 O 0.26065 0.96709 0.61369 0.0
C345 C 0.3385 0.1536 0.67429 0.0
O346 O 0.34152 0.15749 0.6211 0.0
C347 C 0.15051 0.90757 0.5637 0.0
C348 C 0.09418 0.91428 0.57645 0.0
C349 C 0.10876 0.89172 0.54722 0.0
N350 N 0.16037 0.93878 0.59979 0.0
N351 N 0.1264 0.94227 0.60772 0.0
C352 C 0.18066 0.8932 0.5471 0.0
H353 H 0.19833 0.89277 0.58335 0.0
H354 H 0.20421 0.91636 0.51819 0.0
H355 H 0.16405 0.8612 0.52859 0.0
C356 C 0.25182 0.09822 0.59184 0.0
N357 N 0.25399 0.06616 0.61627 0.0
N358 N 0.22847 0.03069 0.59129 0.0
C359 C 0.21399 0.03952 0.54554 0.0
C360 C 0.22906 0.08275 0.54384 0.0
C361 C 0.25144 0.13314 0.624 0.0
H362 H 0.25316 0.12821 0.66831 0.0
H363 H 0.27787 0.16448 0.61224 0.0
H364 H 0.22179 0.13376 0.61591 0.0
O365 O 0.26634 0.03989 0.73218 0.0
O366 O 0.20742 0.98182 0.71022 0.0
H367 H 0.1536 0.99486 0.51274 0.0
H368 H 0.19408 0.02202 0.46227 0.0
C369 C 0.18758 0.00751 0.50339 0.0
H370 H 0.19439 0.98114 0.50317 0.0
H371 H 0.12572 0.96498 0.63288 0.0
O372 O 0.33103 0.11925 0.69626 0.0
C373 C 0.23135 0.00879 0.74568 0.0
Co374 Co 0.94589 0.23225 0.66433 0.0
Co375 Co 0.02943 0.23662 0.62809 0.0
C376 C 0.02026 0.31398 0.61568 0.0
O377 O 0.98154 0.29419 0.63256 0.0
O378 O 0.0421 0.29539 0.61369 0.0
C379 C 0.85558 0.18671 0.67429 0.0
O380 O 0.85169 0.18583 0.6211 0.0
C381 C 0.10162 0.24476 0.56371 0.0
C382 C 0.09489 0.18171 0.57646 0.0
C383 C 0.11746 0.21885 0.54723 0.0
N384 N 0.07041 0.22342 0.5998 0.0
N385 N 0.06691 0.18595 0.60773 0.0
C386 C 0.116 0.28929 0.5471 0.0
H387 H 0.11643 0.30739 0.58335 0.0
H388 H 0.09283 0.28968 0.5182 0.0
H389 H 0.148 0.30467 0.5286 0.0
C390 C 0.91097 0.15543 0.59184 0.0
N391 N 0.94303 0.18965 0.61627 0.0
N392 N 0.97849 0.1996 0.5913 0.0
C393 C 0.96966 0.17629 0.54555 0.0
C394 C 0.92643 0.14812 0.54385 0.0
C395 C 0.87605 0.12012 0.624 0.0
H396 H 0.88098 0.12677 0.66831 0.0
H397 H 0.8447 0.1152 0.61225 0.0
H398 H 0.87542 0.08984 0.61591 0.0
O399 O 0.96929 0.22827 0.73218 0.0
O400 O 0.02736 0.22743 0.71022 0.0
H401 H 0.01432 0.16057 0.51274 0.0
H402 H 0.98716 0.17389 0.46227 0.0
C403 C 1.00168 0.1819 0.50339 0.0
H404 H 0.02805 0.21509 0.50318 0.0
H405 H 0.04419 0.16257 0.63289 0.0
O406 O 0.88993 0.2136 0.69626 0.0
C407 C 1.00039 0.22439 0.74568 0.0
Co408 Co 0.96039 0.56558 0.49768 0.0
Co409 Co 0.8812 0.56992 0.46141 0.0
C410 C 0.96774 0.6473 0.44902 0.0
O411 O 0.98668 0.62752 0.4659 0.0
O412 O 0.9273 0.6287 0.44702 0.0
C413 C 1.00516 0.52005 0.50764 0.0
O414 O 0.00819 0.51919 0.45445 0.0
C415 C 0.81715 0.57806 0.39704 0.0
C416 C 0.76084 0.51501 0.40977 0.0
C417 C 0.7754 0.55216 0.38056 0.0
N418 N 0.82703 0.55673 0.43312 0.0
N419 N 0.79306 0.51925 0.44103 0.0
C420 C 0.84731 0.6226 0.38044 0.0
H421 H 0.86497 0.6407 0.41669 0.0
H422 H 0.87086 0.62299 0.35153 0.0
H423 H 0.83069 0.63798 0.36193 0.0
C424 C 0.9185 0.48877 0.42518 0.0
N425 N 0.92065 0.52297 0.44961 0.0
N426 N 0.89514 0.53292 0.42463 0.0
C427 C 0.88067 0.50961 0.37887 0.0
C428 C 0.89577 0.48148 0.37716 0.0
C429 C 0.9181 0.45345 0.45733 0.0
H430 H 0.91982 0.4601 0.50164 0.0
H431 H 0.94454 0.44854 0.44558 0.0
H432 H 0.88846 0.42318 0.44923 0.0
O433 O 0.93299 0.5616 0.56552 0.0
O434 O 0.87408 0.56074 0.54355 0.0
H435 H 0.82028 0.49387 0.34606 0.0
H436 H 0.86078 0.50722 0.29559 0.0
C437 C 0.85426 0.51522 0.33672 0.0
H438 H 0.86106 0.5484 0.33651 0.0
H439 H 0.79239 0.49586 0.46618 0.0
O440 O 0.99768 0.54693 0.52961 0.0
C441 C 0.89801 0.55772 0.57902 0.0
Co442 Co 0.4436 0.39662 0.49768 0.0
Co443 Co 0.43925 0.31309 0.46141 0.0
C444 C 0.36188 0.32225 0.44902 0.0
O445 O 0.38166 0.36096 0.4659 0.0
O446 O 0.38047 0.30041 0.44702 0.0
C447 C 0.48913 0.48692 0.50764 0.0
O448 O 0.48999 0.49081 0.45445 0.0
C449 C 0.43111 0.2409 0.39704 0.0
C450 C 0.49418 0.24766 0.40978 0.0
C451 C 0.45702 0.22506 0.38057 0.0
N452 N 0.45245 0.27212 0.43312 0.0
N453 N 0.48993 0.27563 0.44104 0.0
C454 C 0.38658 0.22651 0.38044 0.0
H455 H 0.36848 0.22607 0.4167 0.0
H456 H 0.38618 0.24967 0.35154 0.0
H457 H 0.3712 0.19451 0.36194 0.0
C458 C 0.52041 0.43155 0.42518 0.0
N459 N 0.4862 0.39948 0.44962 0.0
N460 N 0.47625 0.36403 0.42463 0.0
C461 C 0.49956 0.37287 0.37887 0.0
C462 C 0.5277 0.4161 0.37716 0.0
C463 C 0.55573 0.46647 0.45733 0.0
H464 H 0.54908 0.46154 0.50164 0.0
H465 H 0.56064 0.49781 0.44559 0.0
H466 H 0.58601 0.4671 0.44923 0.0
O467 O 0.44758 0.3732 0.56552 0.0
O468 O 0.44844 0.31515 0.54355 0.0
H469 H 0.5153 0.32823 0.34605 0.0
H470 H 0.50195 0.35537 0.29559 0.0
C471 C 0.49395 0.34085 0.33671 0.0
H472 H 0.46077 0.31447 0.33651 0.0
H473 H 0.51332 0.29836 0.46619 0.0
O474 O 0.46226 0.45257 0.52962 0.0
C475 C 0.45146 0.3421 0.57903 0.0
Co476 Co 0.61256 0.04878 0.49767 0.0
Co477 Co 0.6961 0.12797 0.46141 0.0
C478 C 0.68693 0.04144 0.44901 0.0
O479 O 0.64821 0.0225 0.4659 0.0
O480 O 0.70878 0.08187 0.44702 0.0
C481 C 0.52225 0.00401 0.50764 0.0
O482 O 0.51837 1.00099 0.45444 0.0
C483 C 0.76829 0.19202 0.39704 0.0
C484 C 0.76154 0.24833 0.40978 0.0
C485 C 0.78413 0.23377 0.38057 0.0
N486 N 0.73707 0.18214 0.43313 0.0
N487 N 0.73356 0.21611 0.44104 0.0
C488 C 0.78267 0.16188 0.38044 0.0
H489 H 0.78312 0.14421 0.41669 0.0
H490 H 0.75951 0.13832 0.35154 0.0
H491 H 0.81467 0.1785 0.36193 0.0
C492 C 0.57763 0.09067 0.42518 0.0
N493 N 0.6097 0.08852 0.44961 0.0
N494 N 0.64516 0.11403 0.42463 0.0
C495 C 0.63632 0.1285 0.37887 0.0
C496 C 0.59308 0.11341 0.37716 0.0
C497 C 0.54272 0.09107 0.45734 0.0
H498 H 0.54765 0.08935 0.50164 0.0
H499 H 0.51137 0.06464 0.44559 0.0
H500 H 0.54209 0.12072 0.44923 0.0
O501 O 0.63598 0.07618 0.56552 0.0
O502 O 0.69403 0.13509 0.54355 0.0
H503 H 0.68096 0.18888 0.34606 0.0
H504 H 0.65382 0.14839 0.2956 0.0
C505 C 0.66834 0.15491 0.33672 0.0
H506 H 0.69472 0.14811 0.33651 0.0
H507 H 0.71084 0.21677 0.4662 0.0
O508 O 0.55661 0.01148 0.5296 0.0
C509 C 0.66708 0.11116 0.57902 0.0
Co510 Co 0.90077 0.62521 0.7184 0.0
Co511 Co 0.90511 0.54602 0.75466 0.0
C512 C 0.98249 0.63255 0.76706 0.0
O513 O 0.96271 0.65149 0.75018 0.0
O514 O 0.96389 0.59212 0.76905 0.0
C515 C 0.85524 0.66998 0.70844 0.0
O516 O 0.85437 0.673 0.76163 0.0
C517 C 0.91325 0.48197 0.81903 0.0
C518 C 0.85019 0.42566 0.8063 0.0
C519 C 0.88735 0.44022 0.83551 0.0
N520 N 0.89191 0.49185 0.78295 0.0
N521 N 0.85443 0.45788 0.77504 0.0
C522 C 0.95779 0.51212 0.83563 0.0
H523 H 0.97589 0.52979 0.79938 0.0
H524 H 0.95818 0.53568 0.86454 0.0
H525 H 0.97317 0.4955 0.85414 0.0
C526 C 0.82395 0.58332 0.79091 0.0
N527 N 0.85816 0.58547 0.76647 0.0
N528 N 0.86811 0.55996 0.79145 0.0
C529 C 0.8448 0.54549 0.83721 0.0
C530 C 0.81667 0.56059 0.83892 0.0
C531 C 0.78864 0.58292 0.75875 0.0
H532 H 0.79529 0.58464 0.71444 0.0
H533 H 0.78373 0.60936 0.7705 0.0
H534 H 0.75836 0.55327 0.76685 0.0
O535 O 0.89678 0.59781 0.65056 0.0
O536 O 0.89592 0.53889 0.67252 0.0
H537 H 0.82905 0.4851 0.87001 0.0
H538 H 0.84241 0.52559 0.92048 0.0
C539 C 0.85041 0.51908 0.87936 0.0
H540 H 0.88359 0.52588 0.87956 0.0
H541 H 0.83104 0.45721 0.74989 0.0
O542 O 0.88212 0.66251 0.68647 0.0
C543 C 0.89289 0.56283 0.63706 0.0
Co544 Co 0.38397 0.27737 0.71841 0.0
Co545 Co 0.46316 0.36091 0.75466 0.0
C546 C 0.37663 0.35174 0.76706 0.0
O547 O 0.35768 0.31302 0.75018 0.0
O548 O 0.41706 0.37358 0.76905 0.0
C549 C 0.3392 0.18707 0.70844 0.0
O550 O 0.33618 0.18317 0.76163 0.0
C551 C 0.52721 0.4331 0.81903 0.0
C552 C 0.58352 0.42635 0.8063 0.0
C553 C 0.56896 0.44894 0.83551 0.0
N554 N 0.51733 0.40188 0.78295 0.0
N555 N 0.5513 0.39837 0.77504 0.0
C556 C 0.49706 0.44748 0.83563 0.0
H557 H 0.4794 0.44792 0.79938 0.0
H558 H 0.4735 0.42432 0.86454 0.0
H559 H 0.51368 0.47948 0.85414 0.0
C560 C 0.42586 0.24244 0.79091 0.0
N561 N 0.42371 0.27451 0.76647 0.0
N562 N 0.44922 0.30997 0.79145 0.0
C563 C 0.46369 0.30113 0.83721 0.0
C564 C 0.4486 0.25789 0.83892 0.0
C565 C 0.42626 0.20753 0.75874 0.0
H566 H 0.42454 0.21246 0.71444 0.0
H567 H 0.39982 0.17618 0.77049 0.0
H568 H 0.45591 0.20691 0.76685 0.0
O569 O 0.41136 0.30078 0.65056 0.0
O570 O 0.47028 0.35884 0.67253 0.0
H571 H 0.52408 0.34577 0.87001 0.0
H572 H 0.48359 0.31863 0.92048 0.0
C573 C 0.49011 0.33315 0.87936 0.0
H574 H 0.48331 0.35953 0.87957 0.0
H575 H 0.55197 0.37565 0.74989 0.0
O576 O 0.34666 0.22142 0.68648 0.0
C577 C 0.44635 0.33187 0.63706 0.0
Co578 Co 0.73181 0.1084 0.7184 0.0
Co579 Co 0.64827 0.10405 0.75466 0.0
C580 C 0.65743 0.02668 0.76706 0.0
O581 O 0.69615 0.04647 0.75018 0.0
O582 O 0.63559 0.04527 0.76905 0.0
C583 C 0.82211 0.15394 0.70844 0.0
O584 O 0.82601 0.15482 0.76164 0.0
C585 C 0.57608 0.09592 0.81903 0.0
C586 C 0.58284 0.15898 0.80629 0.0
C587 C 0.56024 0.12183 0.8355 0.0
N588 N 0.6073 0.11725 0.78294 0.0
N589 N 0.61081 0.15473 0.77503 0.0
C590 C 0.56169 0.05138 0.83563 0.0
H591 H 0.56125 0.03328 0.79937 0.0
H592 H 0.58485 0.05099 0.86453 0.0
H593 H 0.52969 0.03601 0.85414 0.0
C594 C 0.76674 0.18522 0.7909 0.0
N595 N 0.73467 0.15101 0.76647 0.0
N596 N 0.69921 0.14106 0.79145 0.0
C597 C 0.70805 0.16436 0.83721 0.0
C598 C 0.75129 0.19251 0.83892 0.0
C599 C 0.80165 0.22054 0.75874 0.0
H600 H 0.79672 0.21388 0.71444 0.0
H601 H 0.833 0.22545 0.77049 0.0
H602 H 0.80227 0.25081 0.76684 0.0
O603 O 0.7084 0.11239 0.65056 0.0
O604 O 0.65034 0.11324 0.67252 0.0
H605 H 0.66341 0.18011 0.87001 0.0
H606 H 0.69055 0.16676 0.92048 0.0
C607 C 0.67603 0.15876 0.87936 0.0
H608 H 0.64965 0.12557 0.87956 0.0
H609 H 0.63354 0.17812 0.74988 0.0
O610 O 0.78776 0.12705 0.68648 0.0
C611 C 0.67731 0.11628 0.63706 0.0
Co612 Co 0.38398 0.10842 0.2184 0.0
Co613 Co 0.46316 0.10407 0.25466 0.0
C614 C 0.37662 0.0267 0.26706 0.0
O615 O 0.35768 0.04648 0.25018 0.0
O616 O 0.41705 0.04529 0.26905 0.0
C617 C 0.33921 0.15395 0.20845 0.0
O618 O 0.33619 0.15482 0.26164 0.0
C619 C 0.5272 0.09592 0.31905 0.0
C620 C 0.58353 0.15896 0.30629 0.0
C621 C 0.56895 0.12182 0.33552 0.0
N622 N 0.51733 0.11726 0.28295 0.0
N623 N 0.55131 0.15473 0.27503 0.0
C624 C 0.49704 0.05139 0.33565 0.0
H625 H 0.47936 0.03329 0.2994 0.0
H626 H 0.47349 0.051 0.36456 0.0
H627 H 0.51365 0.036 0.35415 0.0
C628 C 0.42589 0.18525 0.2909 0.0
N629 N 0.42373 0.15103 0.26647 0.0
N630 N 0.44924 0.14108 0.29145 0.0
C631 C 0.46372 0.1644 0.3372 0.0
C632 C 0.44865 0.19255 0.33889 0.0
C633 C 0.42627 0.22055 0.25874 0.0
H634 H 0.42454 0.2139 0.21443 0.0
H635 H 0.39983 0.22546 0.2705 0.0
H636 H 0.45592 0.25083 0.26683 0.0
O637 O 0.41137 0.1124 0.15056 0.0
O638 O 0.47029 0.11325 0.17253 0.0
H639 H 0.5241 0.18012 0.37 0.0
H640 H 0.48362 0.1668 0.42047 0.0
C641 C 0.49012 0.15878 0.37935 0.0
H642 H 0.48331 0.1256 0.37957 0.0
H643 H 0.55199 0.17811 0.24986 0.0
O644 O 0.34669 0.12708 0.18647 0.0
C645 C 0.44635 0.11628 0.13705 0.0
Co646 Co 0.90076 0.27737 0.2184 0.0
Co647 Co 0.90512 0.36091 0.25466 0.0
C648 C 0.98249 0.35174 0.26706 0.0
O649 O 0.96271 0.31302 0.25018 0.0
O650 O 0.9639 0.37358 0.26905 0.0
C651 C 0.85523 0.18707 0.20844 0.0
O652 O 0.85437 0.18318 0.26164 0.0
C653 C 0.91327 0.43309 0.31904 0.0
C654 C 0.85022 0.42636 0.30629 0.0
C655 C 0.88736 0.44893 0.33552 0.0
N656 N 0.89193 0.40188 0.28295 0.0
N657 N 0.85446 0.39838 0.27503 0.0
C658 C 0.9578 0.44747 0.33565 0.0
H659 H 0.9759 0.44791 0.29939 0.0
H660 H 0.95819 0.42431 0.36455 0.0
H661 H 0.97319 0.47947 0.35415 0.0
C662 C 0.82394 0.24245 0.2909 0.0
N663 N 0.85816 0.27451 0.26646 0.0
N664 N 0.86811 0.30997 0.29144 0.0
C665 C 0.8448 0.30114 0.3372 0.0
C666 C 0.81664 0.25791 0.33889 0.0
C667 C 0.78863 0.20752 0.25874 0.0
H668 H 0.79528 0.21245 0.21443 0.0
H669 H 0.78373 0.17618 0.27049 0.0
H670 H 0.75835 0.20689 0.26683 0.0
O671 O 0.89679 0.30079 0.15055 0.0
O672 O 0.89594 0.35885 0.17253 0.0
H673 H 0.82908 0.34579 0.37001 0.0
H674 H 0.8424 0.31863 0.42047 0.0
C675 C 0.85041 0.33315 0.37935 0.0
H676 H 0.8836 0.35953 0.37957 0.0
H677 H 0.83107 0.37567 0.24986 0.0
O678 O 0.8821 0.22142 0.18647 0.0
C679 C 0.89291 0.33189 0.13705 0.0
Co680 Co 0.73181 0.62521 0.21841 0.0
Co681 Co 0.64827 0.54603 0.25466 0.0
C682 C 0.65744 0.63257 0.26706 0.0
O683 O 0.69617 0.65151 0.25018 0.0
O684 O 0.6356 0.59214 0.26906 0.0
C685 C 0.82212 0.66998 0.20845 0.0
O686 O 0.82601 0.673 0.26164 0.0
C687 C 0.57608 0.48199 0.31904 0.0
C688 C 0.58281 0.42567 0.30628 0.0
C689 C 0.56024 0.44024 0.33552 0.0
N690 N 0.60729 0.49186 0.28294 0.0
N691 N 0.61079 0.45789 0.27502 0.0
C692 C 0.56171 0.51214 0.33565 0.0
H693 H 0.56127 0.52981 0.2994 0.0
H694 H 0.58487 0.53569 0.36456 0.0
H695 H 0.52971 0.49553 0.35416 0.0
C696 C 0.76673 0.5833 0.2909 0.0
N697 N 0.73467 0.58547 0.26647 0.0
N698 N 0.69921 0.55996 0.29145 0.0
C699 C 0.70804 0.54547 0.3372 0.0
C700 C 0.75127 0.56054 0.33889 0.0
C701 C 0.80165 0.58292 0.25873 0.0
H702 H 0.79672 0.58464 0.21443 0.0
H703 H 0.83299 0.60935 0.27049 0.0
H704 H 0.80228 0.55327 0.26683 0.0
O705 O 0.70839 0.59782 0.15056 0.0
O706 O 0.65033 0.53891 0.17253 0.0
H707 H 0.66338 0.48509 0.37 0.0
H708 H 0.69054 0.52558 0.42047 0.0
C709 C 0.67602 0.51907 0.37935 0.0
H710 H 0.64965 0.52589 0.37957 0.0
H711 H 0.6335 0.45722 0.24985 0.0
O712 O 0.78777 0.66251 0.18648 0.0
C713 C 0.67729 0.56284 0.13705 0.0
Co714 Co 0.44361 0.04879 0.99767 0.0
Co715 Co 0.43925 0.12797 0.96142 0.0
C716 C 0.36188 0.04144 0.94902 0.0
O717 O 0.38166 0.0225 0.9659 0.0
O718 O 0.38047 0.08187 0.94702 0.0
C719 C 0.48914 0.00402 1.00763 0.0
O720 O 0.49001 1.001 0.95444 0.0
C721 C 0.4311 0.19201 0.89704 0.0
C722 C 0.49415 0.24834 0.90979 0.0
C723 C 0.457 0.23376 0.88056 0.0
N724 N 0.45244 0.18214 0.93313 0.0
N725 N 0.48992 0.21612 0.94105 0.0
C726 C 0.38657 0.16185 0.88043 0.0
H727 H 0.36847 0.14418 0.91668 0.0
H728 H 0.38618 0.1383 0.85152 0.0
H729 H 0.37118 0.17846 0.86193 0.0
C730 C 0.52043 0.09069 0.92517 0.0
N731 N 0.48621 0.08854 0.9496 0.0
N732 N 0.47626 0.11405 0.92463 0.0
C733 C 0.49958 0.12853 0.87888 0.0
C734 C 0.52773 0.11345 0.87718 0.0
C735 C 0.55574 0.09108 0.95733 0.0
H736 H 0.54908 0.08935 1.00164 0.0
H737 H 0.56064 0.06464 0.94557 0.0
H738 H 0.58602 0.12073 0.94924 0.0
O739 O 0.44759 0.07618 0.06551 0.0
O740 O 0.44844 0.1351 0.04355 0.0
H741 H 0.5153 0.18891 0.84608 0.0
H742 H 0.50198 0.14843 0.79561 0.0
C743 C 0.49396 0.15493 0.83673 0.0
H744 H 0.46078 0.14812 0.83651 0.0
H745 H 0.5133 0.2168 0.96621 0.0
O746 O 0.46226 0.01149 0.0296 0.0
C747 C 0.45148 0.11117 0.07901 0.0
Co748 Co 0.9604 0.39663 0.99767 0.0
Co749 Co 0.88121 0.31309 0.96141 0.0
C750 C 0.96775 0.32226 0.94902 0.0
O751 O 0.98669 0.36098 0.9659 0.0
O752 O 0.92732 0.30042 0.94702 0.0
C753 C 1.00517 0.48694 1.00763 0.0
O754 O 0.00818 0.49082 0.95444 0.0
C755 C 0.81717 0.2409 0.89704 0.0
C756 C 0.76084 0.24762 0.90979 0.0
C757 C 0.77542 0.22505 0.88056 0.0
N758 N 0.82704 0.27211 0.93313 0.0
N759 N 0.79306 0.2756 0.94105 0.0
C760 C 0.84733 0.22653 0.88043 0.0
H761 H 0.865 0.2261 0.91668 0.0
H762 H 0.87088 0.24969 0.85153 0.0
H763 H 0.83072 0.19453 0.86193 0.0
C764 C 0.91849 0.43155 0.92517 0.0
N765 N 0.92065 0.39949 0.9496 0.0
N766 N 0.89514 0.36403 0.92463 0.0
C767 C 0.88065 0.37286 0.87888 0.0
C768 C 0.89572 0.41609 0.87718 0.0
C769 C 0.9181 0.46647 0.95733 0.0
H770 H 0.91983 0.46154 1.00164 0.0
H771 H 0.94454 0.49781 0.94558 0.0
H772 H 0.88845 0.4671 0.94924 0.0
O773 O 0.93301 0.37322 0.06551 0.0
O774 O 0.87409 0.31515 0.04355 0.0
H775 H 0.82027 0.3282 0.84608 0.0
H776 H 0.86075 0.35536 0.79561 0.0
C777 C 0.85425 0.34084 0.83673 0.0
H778 H 0.86106 0.31447 0.83651 0.0
H779 H 0.79239 0.29831 0.96621 0.0
O780 O 0.9977 0.45258 0.02959 0.0
C781 C 0.89802 0.34212 0.07901 0.0
Co782 Co 0.61255 0.56559 0.99767 0.0
Co783 Co 0.6961 0.56995 0.96142 0.0
C784 C 0.68693 0.64731 0.94901 0.0
O785 O 0.6482 0.62753 0.96589 0.0
O786 O 0.70877 0.62872 0.94702 0.0
C787 C 0.52225 0.52004 1.00763 0.0
O788 O 0.51836 0.51917 0.95443 0.0
C789 C 0.76828 0.57809 0.89704 0.0
C790 C 0.76155 0.51504 0.9098 0.0
C791 C 0.78413 0.55219 0.88056 0.0
N792 N 0.73707 0.55676 0.93314 0.0
N793 N 0.73358 0.51928 0.94106 0.0
C794 C 0.78266 0.62262 0.88044 0.0
H795 H 0.7831 0.64073 0.91669 0.0
H796 H 0.7595 0.62301 0.85153 0.0
H797 H 0.81466 0.63801 0.86193 0.0
C798 C 0.57763 0.48876 0.92517 0.0
N799 N 0.60969 0.52298 0.9496 0.0
N800 N 0.64516 0.53294 0.92463 0.0
C801 C 0.63633 0.50962 0.87888 0.0
C802 C 0.5931 0.48146 0.87718 0.0
C803 C 0.54271 0.45345 0.95734 0.0
H804 H 0.54764 0.46011 1.00164 0.0
H805 H 0.51137 0.44854 0.94558 0.0
H806 H 0.54209 0.42317 0.94924 0.0
O807 O 0.63596 0.56161 0.06551 0.0
O808 O 0.69403 0.56076 0.04355 0.0
H809 H 0.68099 0.4939 0.84607 0.0
H810 H 0.65383 0.50722 0.79561 0.0
C811 C 0.66835 0.51524 0.83673 0.0
H812 H 0.69472 0.54842 0.83651 0.0
H813 H 0.71086 0.4959 0.96622 0.0
O814 O 0.5566 0.54693 0.02959 0.0
C815 C 0.66706 0.55772 0.07901 0.0
Co816 Co 0.62705 0.89891 0.83101 0.0
Co817 Co 0.54787 0.90326 0.79475 0.0
C818 C 0.6344 0.98063 0.78235 0.0
O819 O 0.65334 0.96085 0.79923 0.0
O820 O 0.59397 0.96204 0.78036 0.0
C821 C 0.67183 0.85339 0.84097 0.0
O822 O 0.67485 0.85252 0.78778 0.0
C823 C 0.48382 0.9114 0.73037 0.0
C824 C 0.4275 0.84834 0.74311 0.0
C825 C 0.44207 0.88549 0.71389 0.0
N826 N 0.4937 0.89006 0.76645 0.0
N827 N 0.45972 0.85258 0.77437 0.0
C828 C 0.51397 0.95593 0.71377 0.0
H829 H 0.53164 0.97403 0.75002 0.0
H830 H 0.53753 0.95632 0.68487 0.0
H831 H 0.49736 0.97131 0.69527 0.0
C832 C 0.58517 0.8221 0.75851 0.0
N833 N 0.58731 0.85631 0.78294 0.0
N834 N 0.5618 0.86625 0.75796 0.0
C835 C 0.54734 0.84295 0.7122 0.0
C836 C 0.56243 0.81481 0.71049 0.0
C837 C 0.58477 0.78678 0.79067 0.0
H838 H 0.58649 0.79344 0.83497 0.0
H839 H 0.61121 0.78188 0.77892 0.0
H840 H 0.55512 0.75651 0.78256 0.0
O841 O 0.59966 0.89493 0.89885 0.0
O842 O 0.54074 0.89407 0.87688 0.0
H843 H 0.48695 0.8272 0.67939 0.0
H844 H 0.52744 0.84055 0.62893 0.0
C845 C 0.52093 0.84855 0.67005 0.0
H846 H 0.52773 0.88173 0.66984 0.0
H847 H 0.45905 0.82919 0.79952 0.0
O848 O 0.66435 0.88026 0.86294 0.0
C849 C 0.56468 0.89105 0.91236 0.0
Co850 Co 0.11027 0.72995 0.83101 0.0
Co851 Co 0.10592 0.64642 0.79475 0.0
C852 C 0.02854 0.65558 0.78235 0.0
O853 O 0.04833 0.6943 0.79924 0.0
O854 O 0.04713 0.63374 0.78035 0.0
C855 C 0.15579 0.82026 0.84097 0.0
O856 O 0.15666 0.82414 0.78778 0.0
C857 C 0.09778 0.57423 0.73037 0.0
C858 C 0.16084 0.58099 0.74311 0.0
C859 C 0.12369 0.5584 0.7139 0.0
N860 N 0.11912 0.60545 0.76646 0.0
N861 N 0.1566 0.60897 0.77437 0.0
C862 C 0.05324 0.55984 0.71378 0.0
H863 H 0.03514 0.5594 0.75003 0.0
H864 H 0.05285 0.583 0.68487 0.0
H865 H 0.03786 0.52784 0.69527 0.0
C866 C 0.18708 0.76488 0.75851 0.0
N867 N 0.15287 0.73282 0.78295 0.0
N868 N 0.14292 0.69736 0.75796 0.0
C869 C 0.16623 0.7062 0.7122 0.0
C870 C 0.19437 0.74944 0.71049 0.0
C871 C 0.2224 0.7998 0.79067 0.0
H872 H 0.21575 0.79487 0.83497 0.0
H873 H 0.2273 0.83115 0.77892 0.0
H874 H 0.25267 0.80043 0.78256 0.0
O875 O 0.11424 0.70653 0.89886 0.0
O876 O 0.1151 0.64848 0.87688 0.0
H877 H 0.18197 0.66156 0.67938 0.0
H878 H 0.16861 0.6887 0.62893 0.0
C879 C 0.16062 0.67419 0.67005 0.0
H880 H 0.12743 0.6478 0.66984 0.0
H881 H 0.17999 0.63169 0.79952 0.0
O882 O 0.12892 0.7859 0.86295 0.0
C883 C 0.11813 0.67544 0.91236 0.0
Co884 Co 0.27923 0.38212 0.83101 0.0
Co885 Co 0.36276 0.4613 0.79475 0.0
C886 C 0.3536 0.37477 0.78235 0.0
O887 O 0.31488 0.35583 0.79923 0.0
O888 O 0.37544 0.4152 0.78035 0.0
C889 C 0.18892 0.33735 0.84097 0.0
O890 O 0.18503 0.33433 0.78777 0.0
C891 C 0.43495 0.52535 0.73037 0.0
C892 C 0.4282 0.58166 0.74312 0.0
C893 C 0.45079 0.5671 0.7139 0.0
N894 N 0.40374 0.51547 0.76646 0.0
N895 N 0.40023 0.54944 0.77438 0.0
C896 C 0.44934 0.49521 0.71377 0.0
H897 H 0.44978 0.47755 0.75002 0.0
H898 H 0.42618 0.47165 0.68487 0.0
H899 H 0.48134 0.51183 0.69526 0.0
C900 C 0.2443 0.42401 0.75851 0.0
N901 N 0.27637 0.42186 0.78294 0.0
N902 N 0.31182 0.44737 0.75796 0.0
C903 C 0.30299 0.46184 0.7122 0.0
C904 C 0.25975 0.44674 0.71049 0.0
C905 C 0.20938 0.42441 0.79067 0.0
H906 H 0.21432 0.42269 0.83498 0.0
H907 H 0.17804 0.39797 0.77892 0.0
H908 H 0.20876 0.45405 0.78257 0.0
O909 O 0.30264 0.40951 0.89885 0.0
O910 O 0.3607 0.46842 0.87688 0.0
H911 H 0.34763 0.52222 0.67939 0.0
H912 H 0.32049 0.48173 0.62893 0.0
C913 C 0.335 0.48824 0.67005 0.0
H914 H 0.36138 0.48144 0.66984 0.0
H915 H 0.3775 0.5501 0.79953 0.0
O916 O 0.22327 0.34482 0.86294 0.0
C917 C 0.33374 0.44449 0.91236 0.0
Co918 Co 0.56743 0.95854 0.05174 0.0
Co919 Co 0.57178 0.87935 0.08799 0.0
C920 C 0.64915 0.96588 0.10039 0.0
O921 O 0.62937 0.98482 0.08351 0.0
O922 O 0.63056 0.92545 0.10238 0.0
C923 C 0.52191 1.00331 0.04178 0.0
O924 O 0.52103 0.00634 0.09497 0.0
C925 C 0.57992 0.8153 0.15237 0.0
C926 C 0.51686 0.75899 0.13963 0.0
C927 C 0.55401 0.77355 0.16884 0.0
N928 N 0.55858 0.82518 0.11628 0.0
N929 N 0.5211 0.79121 0.10837 0.0
C930 C 0.62445 0.84545 0.16897 0.0
H931 H 0.64256 0.86312 0.13271 0.0
H932 H 0.62485 0.86901 0.19787 0.0
H933 H 0.63984 0.82884 0.18747 0.0
C934 C 0.49062 0.91666 0.12424 0.0
N935 N 0.52483 0.9188 0.0998 0.0
N936 N 0.53478 0.89329 0.12478 0.0
C937 C 0.51147 0.87882 0.17054 0.0
C938 C 0.48333 0.89392 0.17226 0.0
C939 C 0.4553 0.91626 0.09208 0.0
H940 H 0.46195 0.91798 0.04778 0.0
H941 H 0.45039 0.94269 0.10383 0.0
H942 H 0.42503 0.88661 0.10019 0.0
O943 O 0.56345 0.93114 0.98389 0.0
O944 O 0.56259 0.87223 1.00586 0.0
H945 H 0.49572 0.81844 0.20335 0.0
H946 H 0.50908 0.85893 0.25381 0.0
C947 C 0.51707 0.85241 0.21269 0.0
H948 H 0.55026 0.85921 0.2129 0.0
H949 H 0.49771 0.79054 0.08322 0.0
O950 O 0.54878 0.99584 1.01981 0.0
C951 C 0.55955 0.89616 0.9704 0.0
Co952 Co 0.05064 0.6107 0.05174 0.0
Co953 Co 0.12983 0.69424 0.08799 0.0
C954 C 0.04329 0.68508 0.10039 0.0
O955 O 0.02435 0.64636 0.08351 0.0
O956 O 0.08373 0.70692 0.10238 0.0
C957 C 0.00586 0.5204 0.04178 0.0
O958 O 1.00284 0.51651 0.09497 0.0
C959 C 0.19388 0.76643 0.15237 0.0
C960 C 0.25019 0.75969 0.13963 0.0
C961 C 0.23563 0.78228 0.16884 0.0
N962 N 0.184 0.73521 0.11628 0.0
N963 N 0.21797 0.73171 0.10837 0.0
C964 C 0.16373 0.78081 0.16897 0.0
H965 H 0.14606 0.78125 0.13271 0.0
H966 H 0.14017 0.75765 0.19787 0.0
H967 H 0.18034 0.81281 0.18747 0.0
C968 C 0.09252 0.57578 0.12424 0.0
N969 N 0.09038 0.60784 0.0998 0.0
N970 N 0.11589 0.6433 0.12478 0.0
C971 C 0.13036 0.63446 0.17054 0.0
C972 C 0.11526 0.59123 0.17225 0.0
C973 C 0.09293 0.54086 0.09208 0.0
H974 H 0.0912 0.54579 0.04777 0.0
H975 H 0.06649 0.50952 0.10383 0.0
H976 H 0.12257 0.54024 0.10018 0.0
O977 O 0.07803 0.63411 0.9839 0.0
O978 O 0.13695 0.69217 1.00586 0.0
H979 H 0.19075 0.6791 0.20335 0.0
H980 H 0.15026 0.65197 0.25381 0.0
C981 C 0.15677 0.66648 0.21269 0.0
H982 H 0.14998 0.69286 0.2129 0.0
H983 H 0.21864 0.70898 0.08322 0.0
O984 O 0.01333 0.55475 1.01981 0.0
C985 C 0.11302 0.6652 0.9704 0.0
Co986 Co 0.39848 0.44174 0.05174 0.0
Co987 Co 0.31494 0.43738 0.08799 0.0
C988 C 0.3241 0.36002 0.10039 0.0
O989 O 0.36282 0.3798 0.08351 0.0
O990 O 0.30226 0.37861 0.10239 0.0
C991 C 0.48878 0.48727 0.04178 0.0
O992 O 0.49267 0.48815 0.09497 0.0
C993 C 0.24275 0.42925 0.15236 0.0
C994 C 0.2495 0.49231 0.13962 0.0
C995 C 0.22691 0.45516 0.16883 0.0
N996 N 0.27397 0.45059 0.11628 0.0
N997 N 0.27748 0.48807 0.10836 0.0
C998 C 0.22836 0.38472 0.16896 0.0
H999 H 0.22791 0.36661 0.13271 0.0
H1000 H 0.25152 0.38432 0.19786 0.0
H1001 H 0.19636 0.36934 0.18747 0.0
C1002 C 0.4334 0.51855 0.12424 0.0
N1003 N 0.40134 0.48434 0.0998 0.0
N1004 N 0.36588 0.47439 0.12478 0.0
C1005 C 0.37472 0.4977 0.17054 0.0
C1006 C 0.41795 0.52584 0.17225 0.0
C1007 C 0.46832 0.55387 0.09208 0.0
H1008 H 0.46339 0.54722 0.04777 0.0
H1009 H 0.49967 0.55879 0.10383 0.0
H1010 H 0.46894 0.58414 0.10018 0.0
O1011 O 0.37507 0.44572 0.98389 0.0
O1012 O 0.31701 0.44657 1.00586 0.0
H1013 H 0.33007 0.51344 0.20335 0.0
H1014 H 0.35721 0.50009 0.25381 0.0
C1015 C 0.3427 0.49209 0.21269 0.0
H1016 H 0.31632 0.45891 0.2129 0.0
H1017 H 0.30021 0.51145 0.08321 0.0
O1018 O 0.45443 0.46039 1.01981 0.0
C1019 C 0.34398 0.44961 0.9704 0.0
Co1020 Co 0.05065 0.44176 0.55174 0.0
Co1021 Co 0.12983 0.4374 0.58799 0.0
C1022 C 0.04329 0.36003 0.60039 0.0
O1023 O 0.02435 0.37982 0.58351 0.0
O1024 O 0.08372 0.37863 0.60239 0.0
C1025 C 0.00587 0.48729 0.54178 0.0
O1026 O 1.00285 0.48815 0.59497 0.0
C1027 C 0.19386 0.42925 0.65238 0.0
C1028 C 0.25019 0.49229 0.63962 0.0
C1029 C 0.23561 0.45515 0.66886 0.0
N1030 N 0.184 0.45059 0.61628 0.0
N1031 N 0.21798 0.48806 0.60836 0.0
C1032 C 0.1637 0.38472 0.66898 0.0
H1033 H 0.14603 0.36662 0.63273 0.0
H1034 H 0.14016 0.38434 0.69789 0.0
H1035 H 0.18031 0.36933 0.68749 0.0
C1036 C 0.09255 0.51858 0.62423 0.0
N1037 N 0.09039 0.48436 0.5998 0.0
N1038 N 0.1159 0.47441 0.62478 0.0
C1039 C 0.13039 0.49773 0.67053 0.0
C1040 C 0.11532 0.52589 0.67223 0.0
C1041 C 0.09294 0.55389 0.59207 0.0
H1042 H 0.09121 0.54723 0.54777 0.0
H1043 H 0.0665 0.55879 0.60383 0.0
H1044 H 0.12258 0.58417 0.60016 0.0
O1045 O 0.07804 0.44573 0.48389 0.0
O1046 O 0.13695 0.44659 0.50586 0.0
H1047 H 0.19077 0.51345 0.70333 0.0
H1048 H 0.15028 0.50013 0.7538 0.0
C1049 C 0.15679 0.49212 0.71268 0.0
H1050 H 0.14997 0.45893 0.7129 0.0
H1051 H 0.21866 0.51145 0.5832 0.0
O1052 O 0.01335 0.46041 0.5198 0.0
C1053 C 0.11302 0.44961 0.47039 0.0
Co1054 Co 0.56743 0.61071 0.55173 0.0
Co1055 Co 0.57179 0.69424 0.58799 0.0
C1056 C 0.64916 0.68507 0.60039 0.0
O1057 O 0.62937 0.64635 0.58351 0.0
O1058 O 0.63057 0.70692 0.60239 0.0
C1059 C 0.5219 0.5204 0.54178 0.0
O1060 O 0.52103 0.51652 0.59497 0.0
C1061 C 0.57993 0.76643 0.65237 0.0
C1062 C 0.51688 0.7597 0.63962 0.0
C1063 C 0.55403 0.78227 0.66885 0.0
N1064 N 0.5586 0.73522 0.61628 0.0
N1065 N 0.52112 0.73172 0.60836 0.0
C1066 C 0.62447 0.78081 0.66898 0.0
H1067 H 0.64257 0.78124 0.63273 0.0
H1068 H 0.62486 0.75765 0.69788 0.0
H1069 H 0.63985 0.81281 0.68748 0.0
C1070 C 0.4906 0.57578 0.62423 0.0
N1071 N 0.52482 0.60784 0.5998 0.0
N1072 N 0.53478 0.6433 0.62478 0.0
C1073 C 0.51146 0.63447 0.67053 0.0
C1074 C 0.4833 0.59124 0.67223 0.0
C1075 C 0.4553 0.54086 0.59207 0.0
H1076 H 0.46195 0.54579 0.54776 0.0
H1077 H 0.45039 0.50952 0.60383 0.0
H1078 H 0.42502 0.54022 0.60017 0.0
O1079 O 0.56346 0.63413 0.48389 0.0
O1080 O 0.56261 0.69218 0.50586 0.0
H1081 H 0.49574 0.67913 0.70334 0.0
H1082 H 0.50907 0.65197 0.7538 0.0
C1083 C 0.51708 0.66649 0.71269 0.0
H1084 H 0.55027 0.69286 0.7129 0.0
H1085 H 0.49774 0.709 0.58319 0.0
O1086 O 0.54877 0.55475 0.5198 0.0
C1087 C 0.55958 0.66523 0.47038 0.0
Co1088 Co 0.39848 0.95855 0.55174 0.0
Co1089 Co 0.31494 0.87937 0.58799 0.0
C1090 C 0.32411 0.9659 0.6004 0.0
O1091 O 0.36283 0.98484 0.58352 0.0
O1092 O 0.30227 0.92547 0.60239 0.0
C1093 C 0.48879 1.00331 0.54178 0.0
O1094 O 0.49267 0.00633 0.59497 0.0
C1095 C 0.24275 0.81532 0.65237 0.0
C1096 C 0.24947 0.759 0.63961 0.0
C1097 C 0.2269 0.77358 0.66885 0.0
N1098 N 0.27396 0.8252 0.61628 0.0
N1099 N 0.27745 0.79122 0.60835 0.0
C1100 C 0.22837 0.84548 0.66898 0.0
H1101 H 0.22794 0.86314 0.63273 0.0
H1102 H 0.25154 0.86903 0.69789 0.0
H1103 H 0.19637 0.82886 0.68749 0.0
C1104 C 0.4334 0.91664 0.62423 0.0
N1105 N 0.40134 0.9188 0.5998 0.0
N1106 N 0.36588 0.89329 0.62478 0.0
C1107 C 0.37471 0.8788 0.67053 0.0
C1108 C 0.41794 0.89387 0.67222 0.0
C1109 C 0.46832 0.91625 0.59207 0.0
H1110 H 0.46339 0.91798 0.54776 0.0
H1111 H 0.49966 0.94269 0.60382 0.0
H1112 H 0.46895 0.8866 0.60016 0.0
O1113 O 0.37506 0.93115 0.48389 0.0
O1114 O 0.317 0.87225 0.50586 0.0
H1115 H 0.33004 0.81843 0.70333 0.0
H1116 H 0.35721 0.85891 0.7538 0.0
C1117 C 0.34269 0.8524 0.71268 0.0
H1118 H 0.31632 0.85922 0.7129 0.0
H1119 H 0.30017 0.79055 0.58318 0.0
O1120 O 0.45443 0.99584 0.51981 0.0
C1121 C 0.34396 0.89618 0.47039 0.0
Co1122 Co 0.11027 0.38212 0.331 0.0
Co1123 Co 0.10592 0.46131 0.29475 0.0
C1124 C 0.02855 0.37477 0.28235 0.0
O1125 O 0.04833 0.35583 0.29923 0.0
O1126 O 0.04714 0.4152 0.28036 0.0
C1127 C 0.15581 0.33735 0.34096 0.0
O1128 O 0.15668 0.33433 0.28777 0.0
C1129 C 0.09777 0.52534 0.23037 0.0
C1130 C 0.16082 0.58167 0.24312 0.0
C1131 C 0.12367 0.56709 0.21389 0.0
N1132 N 0.11911 0.51548 0.26646 0.0
N1133 N 0.15658 0.54945 0.27438 0.0
C1134 C 0.05324 0.49519 0.21376 0.0
H1135 H 0.03513 0.47752 0.25002 0.0
H1136 H 0.05285 0.47164 0.18486 0.0
H1137 H 0.03785 0.5118 0.19526 0.0
C1138 C 0.1871 0.42403 0.25851 0.0
N1139 N 0.15288 0.42187 0.28294 0.0
N1140 N 0.14293 0.44738 0.25796 0.0
C1141 C 0.16624 0.46186 0.21221 0.0
C1142 C 0.1944 0.44679 0.21051 0.0
C1143 C 0.22241 0.42441 0.29066 0.0
H1144 H 0.21575 0.42269 0.33497 0.0
H1145 H 0.22731 0.39798 0.2789 0.0
H1146 H 0.25269 0.45406 0.28257 0.0
O1147 O 0.11425 0.40952 0.39885 0.0
O1148 O 0.1151 0.46843 0.37689 0.0
H1149 H 0.18197 0.52224 0.17941 0.0
H1150 H 0.16864 0.48176 0.12894 0.0
C1151 C 0.16063 0.48826 0.17006 0.0
H1152 H 0.12744 0.48145 0.16984 0.0
H1153 H 0.17997 0.55013 0.29955 0.0
O1154 O 0.12893 0.34483 0.36293 0.0
C1155 C 0.11814 0.4445 0.41235 0.0
Co1156 Co 0.62707 0.72997 0.331 0.0
Co1157 Co 0.54788 0.64642 0.29475 0.0
C1158 C 0.63442 0.6556 0.28235 0.0
O1159 O 0.65336 0.69432 0.29923 0.0
O1160 O 0.59398 0.63375 0.28036 0.0
C1161 C 0.67183 0.82027 0.34096 0.0
O1162 O 0.67485 0.82416 0.28777 0.0
C1163 C 0.48384 0.57423 0.23037 0.0
C1164 C 0.42751 0.58095 0.24312 0.0
C1165 C 0.44209 0.55838 0.21389 0.0
N1166 N 0.49371 0.60544 0.26646 0.0
N1167 N 0.45973 0.60893 0.27438 0.0
C1168 C 0.514 0.55986 0.21376 0.0
H1169 H 0.53167 0.55943 0.25002 0.0
H1170 H 0.53755 0.58303 0.18486 0.0
H1171 H 0.49738 0.52786 0.19526 0.0
C1172 C 0.58516 0.76488 0.25851 0.0
N1173 N 0.58732 0.73282 0.28293 0.0
N1174 N 0.56181 0.69736 0.25796 0.0
C1175 C 0.54732 0.70619 0.21221 0.0
C1176 C 0.56239 0.74942 0.21051 0.0
C1177 C 0.58477 0.7998 0.29067 0.0
H1178 H 0.5865 0.79487 0.33497 0.0
H1179 H 0.6112 0.83114 0.27891 0.0
H1180 H 0.55512 0.80043 0.28258 0.0
O1181 O 0.59967 0.70656 0.39884 0.0
O1182 O 0.54076 0.64849 0.37688 0.0
H1183 H 0.48694 0.66153 0.17941 0.0
H1184 H 0.52742 0.68869 0.12894 0.0
C1185 C 0.52091 0.67417 0.17006 0.0
H1186 H 0.52773 0.6478 0.16984 0.0
H1187 H 0.45905 0.63165 0.29955 0.0
O1188 O 0.66437 0.78592 0.36293 0.0
C1189 C 0.56469 0.67546 0.41234 0.0
Co1190 Co 0.27922 0.89892 0.331 0.0
Co1191 Co 0.36276 0.90328 0.29475 0.0
C1192 C 0.35359 0.98065 0.28235 0.0
O1193 O 0.31487 0.96086 0.29923 0.0
O1194 O 0.37544 0.96206 0.28036 0.0
C1195 C 0.18891 0.85338 0.34096 0.0
O1196 O 0.18502 0.8525 0.28777 0.0
C1197 C 0.43495 0.91143 0.23038 0.0
C1198 C 0.42822 0.84838 0.24313 0.0
C1199 C 0.45079 0.88552 0.2139 0.0
N1200 N 0.40374 0.89009 0.26647 0.0
N1201 N 0.40024 0.85262 0.27439 0.0
C1202 C 0.44933 0.95596 0.21377 0.0
H1203 H 0.44977 0.97406 0.25002 0.0
H1204 H 0.42617 0.95634 0.18486 0.0
H1205 H 0.48133 0.97134 0.19526 0.0
C1206 C 0.2443 0.82209 0.25851 0.0
N1207 N 0.27636 0.85632 0.28294 0.0
N1208 N 0.31182 0.86627 0.25796 0.0
C1209 C 0.30299 0.84295 0.21221 0.0
C1210 C 0.25976 0.81479 0.21051 0.0
C1211 C 0.20938 0.78678 0.29067 0.0
H1212 H 0.21431 0.79344 0.33497 0.0
H1213 H 0.17804 0.78187 0.27891 0.0
H1214 H 0.20875 0.75651 0.28258 0.0
O1215 O 0.30263 0.89494 0.39885 0.0
O1216 O 0.3607 0.8941 0.37689 0.0
H1217 H 0.34765 0.82723 0.17941 0.0
H1218 H 0.32049 0.84056 0.12894 0.0
C1219 C 0.33501 0.84857 0.17006 0.0
H1220 H 0.36138 0.88176 0.16984 0.0
H1221 H 0.37753 0.82923 0.29956 0.0
O1222 O 0.22326 0.88027 0.36292 0.0
C1223 C 0.33373 0.89106 0.41235 0.0
loop_
_geom_bond_atom_site_label_1
_geom_bond_atom_site_label_2
_geom_bond_distance
_geom_bond_site_symmetry_2
_ccdc_geom_bond_type
Co0 O3 1.970 . S
Co0 N17 1.989 . S
Co0 O25 1.967 . S
Co0 O32 1.920 . S
Co1 O4 1.966 . S
Co1 N10 2.022 . S
Co1 N18 1.993 . S
Co1 O26 1.941 . S
C2 O3 1.258 . S
C2 O4 1.263 . S
O3 Co0 1.970 . S
O3 C2 1.258 . S
O4 Co1 1.966 . S
O4 C2 1.263 . S
C5 O6 1.235 . S
C5 O32 1.289 . S
O6 C5 1.235 . S
C7 C9 1.400 . S
C7 N10 1.351 . S
C7 C12 1.501 . S
C8 C9 1.387 . S
C8 N11 1.341 . S
C9 C7 1.400 . S
C9 C8 1.387 . S
N10 Co1 2.022 . S
N10 C7 1.351 . S
N10 N11 1.365 . S
N11 C8 1.341 . S
N11 N10 1.365 . S
N11 H31 0.862 . S
C12 C7 1.501 . S
C12 H13 0.961 . S
C12 H14 0.961 1_554 S
C12 H15 0.960 . S
H13 C12 0.961 . S
H14 C12 0.961 1_556 S
H15 C12 0.960 . S
C16 N17 1.342 . S
C16 C20 1.401 . S
C16 C21 1.499 . S
N17 Co0 1.989 . S
N17 C16 1.342 . S
N17 N18 1.388 . S
N18 Co1 1.993 . S
N18 N17 1.388 . S
N18 C19 1.346 . S
C19 N18 1.346 . S
C19 C20 1.396 . S
C19 C29 1.510 . S
C20 C16 1.401 . S
C20 C19 1.396 . S
C21 C16 1.499 . S
C21 H22 0.959 . S
C21 H23 0.960 . S
C21 H24 0.961 . S
H22 C21 0.959 . S
H23 C21 0.960 . S
H24 C21 0.961 . S
O25 Co0 1.967 . S
O25 C33 1.258 . S
O26 Co1 1.941 . S
O26 C33 1.266 . S
H27 C29 0.959 . S
H28 C29 0.961 1_556 S
C29 C19 1.510 . S
C29 H27 0.959 . S
C29 H28 0.961 1_554 S
C29 H30 0.960 . S
H30 C29 0.960 . S
H31 N11 0.862 . S
O32 Co0 1.920 . S
O32 C5 1.289 . S
C33 O25 1.258 . S
C33 O26 1.266 . S
Co34 O37 1.970 . S
Co34 N51 1.989 . S
Co34 O59 1.967 . S
Co34 O66 1.920 . S
Co35 O38 1.966 . S
Co35 N44 2.022 . S
Co35 N52 1.993 1_565 S
Co35 O60 1.941 . S
C36 O37 1.258 1_565 S
C36 O38 1.263 . S
O37 Co34 1.970 . S
O37 C36 1.258 1_545 S
O38 Co35 1.966 . S
O38 C36 1.263 . S
C39 O40 1.235 . S
C39 O66 1.289 . S
O40 C39 1.235 . S
C41 C43 1.400 . S
C41 N44 1.351 . S
C41 C46 1.501 . S
C42 C43 1.387 . S
C42 N45 1.341 . S
C43 C41 1.400 . S
C43 C42 1.387 . S
N44 Co35 2.022 . S
N44 C41 1.351 . S
N44 N45 1.365 . S
N45 C42 1.341 . S
N45 N44 1.365 . S
N45 H65 0.862 . S
C46 C41 1.501 . S
C46 H47 0.961 . S
C46 H48 0.961 1_554 S
C46 H49 0.960 . S
H47 C46 0.961 . S
H48 C46 0.961 1_556 S
H49 C46 0.960 . S
C50 N51 1.342 . S
C50 C54 1.401 . S
C50 C55 1.499 . S
N51 Co34 1.989 . S
N51 C50 1.342 . S
N51 N52 1.388 . S
N52 Co35 1.993 1_545 S
N52 N51 1.388 . S
N52 C53 1.346 . S
C53 N52 1.346 . S
C53 C54 1.396 . S
C53 C63 1.510 . S
C54 C50 1.401 . S
C54 C53 1.396 . S
C55 C50 1.499 . S
C55 H56 0.959 . S
C55 H57 0.960 . S
C55 H58 0.961 . S
H56 C55 0.959 . S
H57 C55 0.960 . S
H58 C55 0.961 . S
O59 Co34 1.967 . S
O59 C67 1.258 1_545 S
O60 Co35 1.941 . S
O60 C67 1.266 . S
H61 C63 0.959 . S
H62 C63 0.961 1_556 S
C63 C53 1.510 . S
C63 H61 0.959 . S
C63 H62 0.961 1_554 S
C63 H64 0.960 1_545 S
H64 C63 0.960 1_565 S
H65 N45 0.862 . S
O66 Co34 1.920 . S
O66 C39 1.289 . S
C67 O59 1.258 1_565 S
C67 O60 1.266 . S
Co68 O71 1.970 . S
Co68 N85 1.989 . S
Co68 O93 1.967 . S
Co68 O100 1.920 . S
Co69 O72 1.966 . S
Co69 N78 2.022 . S
Co69 N86 1.993 1_455 S
Co69 O94 1.941 . S
C70 O71 1.258 1_455 S
C70 O72 1.263 . S
O71 Co68 1.970 . S
O71 C70 1.258 1_655 S
O72 Co69 1.966 . S
O72 C70 1.263 . S
C73 O74 1.235 . S
C73 O100 1.289 . S
O74 C73 1.235 . S
C75 C77 1.400 . S
C75 N78 1.351 . S
C75 C80 1.501 . S
C76 C77 1.387 . S
C76 N79 1.341 . S
C77 C75 1.400 . S
C77 C76 1.387 . S
N78 Co69 2.022 . S
N78 C75 1.351 . S
N78 N79 1.365 . S
N79 C76 1.341 . S
N79 N78 1.365 . S
N79 H99 0.862 . S
C80 C75 1.501 . S
C80 H81 0.961 . S
C80 H82 0.961 1_554 S
C80 H83 0.960 . S
H81 C80 0.961 . S
H82 C80 0.961 1_556 S
H83 C80 0.960 . S
C84 N85 1.342 . S
C84 C88 1.401 . S
C84 C89 1.499 . S
N85 Co68 1.989 . S
N85 C84 1.342 . S
N85 N86 1.388 . S
N86 Co69 1.993 1_655 S
N86 N85 1.388 . S
N86 C87 1.346 . S
C87 N86 1.346 . S
C87 C88 1.396 . S
C87 C97 1.510 . S
C88 C84 1.401 . S
C88 C87 1.396 . S
C89 C84 1.499 . S
C89 H90 0.959 . S
C89 H91 0.960 . S
C89 H92 0.961 . S
H90 C89 0.959 . S
H91 C89 0.960 . S
H92 C89 0.961 . S
O93 Co68 1.967 . S
O93 C101 1.258 1_655 S
O94 Co69 1.941 . S
O94 C101 1.266 . S
H95 C97 0.959 . S
H96 C97 0.961 1_556 S
C97 C87 1.510 . S
C97 H95 0.959 . S
C97 H96 0.961 1_554 S
C97 H98 0.960 1_655 S
H98 C97 0.960 1_455 S
H99 N79 0.862 . S
O100 Co68 1.920 . S
O100 C73 1.289 . S
C101 O93 1.258 1_455 S
C101 O94 1.266 . S
Co102 O105 1.970 . S
Co102 N119 1.989 . S
Co102 O127 1.967 . S
Co102 O134 1.920 . S
Co103 O106 1.966 . S
Co103 N112 2.022 . S
Co103 N120 1.993 . S
Co103 O128 1.941 . S
C104 O105 1.258 . S
C104 O106 1.263 . S
O105 Co102 1.970 . S
O105 C104 1.258 . S
O106 Co103 1.966 . S
O106 C104 1.263 . S
C107 O108 1.235 . S
C107 O134 1.289 . S
O108 C107 1.235 . S
C109 C111 1.400 . S
C109 N112 1.351 . S
C109 C114 1.501 . S
C110 C111 1.387 . S
C110 N113 1.341 . S
C111 C109 1.400 . S
C111 C110 1.387 . S
N112 Co103 2.022 . S
N112 C109 1.351 . S
N112 N113 1.365 . S
N113 C110 1.341 . S
N113 N112 1.365 . S
N113 H133 0.862 . S
C114 C109 1.501 . S
C114 H115 0.961 . S
C114 H116 0.961 . S
C114 H117 0.960 . S
H115 C114 0.961 . S
H116 C114 0.961 . S
H117 C114 0.960 . S
C118 N119 1.342 . S
C118 C122 1.401 . S
C118 C123 1.499 . S
N119 Co102 1.989 . S
N119 C118 1.342 . S
N119 N120 1.388 . S
N120 Co103 1.993 . S
N120 N119 1.388 . S
N120 C121 1.346 . S
C121 N120 1.346 . S
C121 C122 1.396 . S
C121 C131 1.510 . S
C122 C118 1.401 . S
C122 C121 1.396 . S
C123 C118 1.499 . S
C123 H124 0.959 . S
C123 H125 0.960 . S
C123 H126 0.961 . S
H124 C123 0.959 . S
H125 C123 0.960 . S
H126 C123 0.961 . S
O127 Co102 1.967 . S
O127 C135 1.258 . S
O128 Co103 1.941 . S
O128 C135 1.266 . S
H129 C131 0.959 . S
H130 C131 0.961 . S
C131 C121 1.510 . S
C131 H129 0.959 . S
C131 H130 0.961 . S
C131 H132 0.960 . S
H132 C131 0.960 . S
H133 N113 0.862 . S
O134 Co102 1.920 . S
O134 C107 1.289 . S
C135 O127 1.258 . S
C135 O128 1.266 . S
Co136 O139 1.970 . S
Co136 N153 1.989 . S
Co136 O161 1.967 . S
Co136 O168 1.920 . S
Co137 O140 1.966 . S
Co137 N146 2.022 . S
Co137 N154 1.993 1_545 S
Co137 O162 1.941 . S
C138 O139 1.258 1_545 S
C138 O140 1.263 . S
O139 Co136 1.970 . S
O139 C138 1.258 1_565 S
O140 Co137 1.966 . S
O140 C138 1.263 . S
C141 O142 1.235 . S
C141 O168 1.289 . S
O142 C141 1.235 . S
C143 C145 1.400 . S
C143 N146 1.351 . S
C143 C148 1.501 . S
C144 C145 1.387 . S
C144 N147 1.341 . S
C145 C143 1.400 . S
C145 C144 1.387 . S
N146 Co137 2.022 . S
N146 C143 1.351 . S
N146 N147 1.365 . S
N147 C144 1.341 . S
N147 N146 1.365 . S
N147 H167 0.862 . S
C148 C143 1.501 . S
C148 H149 0.961 . S
C148 H150 0.961 . S
C148 H151 0.960 . S
H149 C148 0.961 . S
H150 C148 0.961 . S
H151 C148 0.960 . S
C152 N153 1.342 . S
C152 C156 1.401 . S
C152 C157 1.499 . S
N153 Co136 1.989 . S
N153 C152 1.342 . S
N153 N154 1.388 . S
N154 Co137 1.993 1_565 S
N154 N153 1.388 . S
N154 C155 1.346 . S
C155 N154 1.346 . S
C155 C156 1.396 . S
C155 C165 1.510 . S
C156 C152 1.401 . S
C156 C155 1.396 . S
C157 C152 1.499 . S
C157 H158 0.959 . S
C157 H159 0.960 . S
C157 H160 0.961 . S
H158 C157 0.959 . S
H159 C157 0.960 . S
H160 C157 0.961 . S
O161 Co136 1.967 . S
O161 C169 1.258 1_565 S
O162 Co137 1.941 . S
O162 C169 1.266 . S
H163 C165 0.959 . S
H164 C165 0.961 . S
C165 C155 1.510 . S
C165 H163 0.959 . S
C165 H164 0.961 . S
C165 H166 0.960 1_565 S
H166 C165 0.960 1_545 S
H167 N147 0.862 . S
O168 Co136 1.920 . S
O168 C141 1.289 . S
C169 O161 1.258 1_545 S
C169 O162 1.266 . S
Co170 O173 1.970 . S
Co170 N187 1.989 . S
Co170 O195 1.967 . S
Co170 O202 1.920 . S
Co171 O174 1.966 . S
Co171 N180 2.022 . S
Co171 N188 1.993 1_655 S
Co171 O196 1.941 . S
C172 O173 1.258 1_655 S
C172 O174 1.263 . S
O173 Co170 1.970 . S
O173 C172 1.258 1_455 S
O174 Co171 1.966 . S
O174 C172 1.263 . S
C175 O176 1.235 . S
C175 O202 1.289 . S
O176 C175 1.235 . S
C177 C179 1.400 . S
C177 N180 1.351 . S
C177 C182 1.501 . S
C178 C179 1.387 . S
C178 N181 1.341 . S
C179 C177 1.400 . S
C179 C178 1.387 . S
N180 Co171 2.022 . S
N180 C177 1.351 . S
N180 N181 1.365 . S
N181 C178 1.341 . S
N181 N180 1.365 . S
N181 H201 0.862 . S
C182 C177 1.501 . S
C182 H183 0.961 . S
C182 H184 0.961 . S
C182 H185 0.960 . S
H183 C182 0.961 . S
H184 C182 0.961 . S
H185 C182 0.960 . S
C186 N187 1.342 . S
C186 C190 1.401 . S
C186 C191 1.499 . S
N187 Co170 1.989 . S
N187 C186 1.342 . S
N187 N188 1.388 . S
N188 Co171 1.993 1_455 S
N188 N187 1.388 . S
N188 C189 1.346 . S
C189 N188 1.346 . S
C189 C190 1.396 . S
C189 C199 1.510 . S
C190 C186 1.401 . S
C190 C189 1.396 . S
C191 C186 1.499 . S
C191 H192 0.959 . S
C191 H193 0.960 . S
C191 H194 0.961 . S
H192 C191 0.959 . S
H193 C191 0.960 . S
H194 C191 0.961 . S
O195 Co170 1.967 . S
O195 C203 1.258 1_455 S
O196 Co171 1.941 . S
O196 C203 1.266 . S
H197 C199 0.959 . S
H198 C199 0.961 . S
C199 C189 1.510 . S
C199 H197 0.959 . S
C199 H198 0.961 . S
C199 H200 0.960 1_455 S
H200 C199 0.960 1_655 S
H201 N181 0.862 . S
O202 Co170 1.920 . S
O202 C175 1.289 . S
C203 O195 1.258 1_655 S
C203 O196 1.266 . S
Co204 O207 1.970 . S
Co204 N221 1.989 . S
Co204 O229 1.967 . S
Co204 O236 1.920 . S
Co205 O208 1.966 . S
Co205 N214 2.022 . S
Co205 N222 1.993 . S
Co205 O230 1.941 . S
C206 O207 1.258 . S
C206 O208 1.263 . S
O207 Co204 1.970 . S
O207 C206 1.258 . S
O208 Co205 1.966 . S
O208 C206 1.263 . S
C209 O210 1.235 . S
C209 O236 1.289 . S
O210 C209 1.235 . S
C211 C213 1.400 . S
C211 N214 1.351 . S
C211 C216 1.501 . S
C212 C213 1.387 . S
C212 N215 1.341 . S
C213 C211 1.400 . S
C213 C212 1.387 . S
N214 Co205 2.022 . S
N214 C211 1.351 . S
N214 N215 1.365 . S
N215 C212 1.341 . S
N215 N214 1.365 . S
N215 H235 0.862 . S
C216 C211 1.501 . S
C216 H217 0.961 . S
C216 H218 0.961 1_556 S
C216 H219 0.960 . S
H217 C216 0.961 . S
H218 C216 0.961 1_554 S
H219 C216 0.960 . S
C220 N221 1.342 . S
C220 C224 1.401 . S
C220 C225 1.499 . S
N221 Co204 1.989 . S
N221 C220 1.342 . S
N221 N222 1.388 . S
N222 Co205 1.993 . S
N222 N221 1.388 . S
N222 C223 1.346 . S
C223 N222 1.346 . S
C223 C224 1.396 . S
C223 C233 1.510 . S
C224 C220 1.401 . S
C224 C223 1.396 . S
C225 C220 1.499 . S
C225 H226 0.959 . S
C225 H227 0.960 . S
C225 H228 0.961 . S
H226 C225 0.959 . S
H227 C225 0.960 . S
H228 C225 0.961 . S
O229 Co204 1.967 . S
O229 C237 1.258 . S
O230 Co205 1.941 . S
O230 C237 1.266 . S
H231 C233 0.959 . S
H232 C233 0.961 1_554 S
C233 C223 1.510 . S
C233 H231 0.959 . S
C233 H232 0.961 1_556 S
C233 H234 0.960 . S
H234 C233 0.960 . S
H235 N215 0.862 . S
O236 Co204 1.920 . S
O236 C209 1.289 . S
C237 O229 1.258 . S
C237 O230 1.266 . S
Co238 O241 1.970 . S
Co238 N255 1.989 . S
Co238 O263 1.967 . S
Co238 O270 1.920 . S
Co239 O242 1.966 . S
Co239 N248 2.022 . S
Co239 N256 1.993 1_545 S
Co239 O264 1.941 . S
C240 O241 1.258 1_545 S
C240 O242 1.263 . S
O241 Co238 1.970 . S
O241 C240 1.258 1_565 S
O242 Co239 1.966 . S
O242 C240 1.263 . S
C243 O244 1.235 . S
C243 O270 1.289 . S
O244 C243 1.235 . S
C245 C247 1.400 . S
C245 N248 1.351 . S
C245 C250 1.501 . S
C246 C247 1.387 . S
C246 N249 1.341 . S
C247 C245 1.400 . S
C247 C246 1.387 . S
N248 Co239 2.022 . S
N248 C245 1.351 . S
N248 N249 1.365 . S
N249 C246 1.341 . S
N249 N248 1.365 . S
N249 H269 0.862 . S
C250 C245 1.501 . S
C250 H251 0.961 . S
C250 H252 0.961 1_556 S
C250 H253 0.960 . S
H251 C250 0.961 . S
H252 C250 0.961 1_554 S
H253 C250 0.960 . S
C254 N255 1.342 . S
C254 C258 1.401 . S
C254 C259 1.499 . S
N255 Co238 1.989 . S
N255 C254 1.342 . S
N255 N256 1.388 . S
N256 Co239 1.993 1_565 S
N256 N255 1.388 . S
N256 C257 1.346 . S
C257 N256 1.346 . S
C257 C258 1.396 . S
C257 C267 1.510 . S
C258 C254 1.401 . S
C258 C257 1.396 . S
C259 C254 1.499 . S
C259 H260 0.959 . S
C259 H261 0.960 . S
C259 H262 0.961 . S
H260 C259 0.959 . S
H261 C259 0.960 . S
H262 C259 0.961 . S
O263 Co238 1.967 . S
O263 C271 1.258 1_565 S
O264 Co239 1.941 . S
O264 C271 1.266 . S
H265 C267 0.959 . S
H266 C267 0.961 1_554 S
C267 C257 1.510 . S
C267 H265 0.959 . S
C267 H266 0.961 1_556 S
C267 H268 0.960 1_565 S
H268 C267 0.960 1_545 S
H269 N249 0.862 . S
O270 Co238 1.920 . S
O270 C243 1.289 . S
C271 O263 1.258 1_545 S
C271 O264 1.266 . S
Co272 O275 1.970 . S
Co272 N289 1.989 . S
Co272 O297 1.967 . S
Co272 O304 1.920 . S
Co273 O276 1.966 . S
Co273 N282 2.022 . S
Co273 N290 1.993 1_655 S
Co273 O298 1.941 . S
C274 O275 1.258 1_655 S
C274 O276 1.263 . S
O275 Co272 1.970 . S
O275 C274 1.258 1_455 S
O276 Co273 1.966 . S
O276 C274 1.263 . S
C277 O278 1.235 . S
C277 O304 1.289 . S
O278 C277 1.235 . S
C279 C281 1.400 . S
C279 N282 1.351 . S
C279 C284 1.501 . S
C280 C281 1.387 . S
C280 N283 1.341 . S
C281 C279 1.400 . S
C281 C280 1.387 . S
N282 Co273 2.022 . S
N282 C279 1.351 . S
N282 N283 1.365 . S
N283 C280 1.341 . S
N283 N282 1.365 . S
N283 H303 0.862 . S
C284 C279 1.501 . S
C284 H285 0.961 . S
C284 H286 0.961 1_556 S
C284 H287 0.960 . S
H285 C284 0.961 . S
H286 C284 0.961 1_554 S
H287 C284 0.960 . S
C288 N289 1.342 . S
C288 C292 1.401 . S
C288 C293 1.499 . S
N289 Co272 1.989 . S
N289 C288 1.342 . S
N289 N290 1.388 . S
N290 Co273 1.993 1_455 S
N290 N289 1.388 . S
N290 C291 1.346 . S
C291 N290 1.346 . S
C291 C292 1.396 . S
C291 C301 1.510 . S
C292 C288 1.401 . S
C292 C291 1.396 . S
C293 C288 1.499 . S
C293 H294 0.959 . S
C293 H295 0.960 . S
C293 H296 0.961 . S
H294 C293 0.959 . S
H295 C293 0.960 . S
H296 C293 0.961 . S
O297 Co272 1.967 . S
O297 C305 1.258 1_455 S
O298 Co273 1.941 . S
O298 C305 1.266 . S
H299 C301 0.959 . S
H300 C301 0.961 1_554 S
C301 C291 1.510 . S
C301 H299 0.959 . S
C301 H300 0.961 1_556 S
C301 H302 0.960 1_455 S
H302 C301 0.960 1_655 S
H303 N283 0.862 . S
O304 Co272 1.920 . S
O304 C277 1.289 . S
C305 O297 1.258 1_655 S
C305 O298 1.266 . S
Co306 O309 1.970 . S
Co306 N323 1.989 . S
Co306 O331 1.967 . S
Co306 O338 1.920 . S
Co307 O310 1.966 . S
Co307 N316 2.022 . S
Co307 N324 1.993 . S
Co307 O332 1.941 . S
C308 O309 1.258 . S
C308 O310 1.263 . S
O309 Co306 1.970 . S
O309 C308 1.258 . S
O310 Co307 1.966 . S
O310 C308 1.263 . S
C311 O312 1.235 . S
C311 O338 1.289 . S
O312 C311 1.235 . S
C313 C315 1.400 . S
C313 N316 1.351 . S
C313 C318 1.501 . S
C314 C315 1.387 . S
C314 N317 1.341 . S
C315 C313 1.400 . S
C315 C314 1.387 . S
N316 Co307 2.022 . S
N316 C313 1.351 . S
N316 N317 1.365 . S
N317 C314 1.341 . S
N317 N316 1.365 . S
N317 H337 0.862 . S
C318 C313 1.501 . S
C318 H319 0.961 . S
C318 H320 0.961 . S
C318 H321 0.960 . S
H319 C318 0.961 . S
H320 C318 0.961 . S
H321 C318 0.960 . S
C322 N323 1.342 . S
C322 C326 1.401 . S
C322 C327 1.499 . S
N323 Co306 1.989 . S
N323 C322 1.342 . S
N323 N324 1.388 . S
N324 Co307 1.993 . S
N324 N323 1.388 . S
N324 C325 1.346 . S
C325 N324 1.346 . S
C325 C326 1.396 . S
C325 C335 1.510 . S
C326 C322 1.401 . S
C326 C325 1.396 . S
C327 C322 1.499 . S
C327 H328 0.959 . S
C327 H329 0.960 . S
C327 H330 0.961 . S
H328 C327 0.959 . S
H329 C327 0.960 . S
H330 C327 0.961 . S
O331 Co306 1.967 . S
O331 C339 1.258 . S
O332 Co307 1.941 . S
O332 C339 1.266 . S
H333 C335 0.959 . S
H334 C335 0.961 . S
C335 C325 1.510 . S
C335 H333 0.959 . S
C335 H334 0.961 . S
C335 H336 0.960 . S
H336 C335 0.960 . S
H337 N317 0.862 . S
O338 Co306 1.920 . S
O338 C311 1.289 . S
C339 O331 1.258 . S
C339 O332 1.266 . S
Co340 O343 1.970 . S
Co340 N357 1.989 . S
Co340 O365 1.967 . S
Co340 O372 1.920 . S
Co341 O344 1.966 . S
Co341 N350 2.022 . S
Co341 N358 1.993 1_565 S
Co341 O366 1.941 . S
C342 O343 1.258 1_565 S
C342 O344 1.263 . S
O343 Co340 1.970 . S
O343 C342 1.258 1_545 S
O344 Co341 1.966 . S
O344 C342 1.263 . S
C345 O346 1.235 . S
C345 O372 1.289 . S
O346 C345 1.235 . S
C347 C349 1.400 . S
C347 N350 1.351 . S
C347 C352 1.501 . S
C348 C349 1.387 . S
C348 N351 1.341 . S
C349 C347 1.400 . S
C349 C348 1.387 . S
N350 Co341 2.022 . S
N350 C347 1.351 . S
N350 N351 1.365 . S
N351 C348 1.341 . S
N351 N350 1.365 . S
N351 H371 0.862 . S
C352 C347 1.501 . S
C352 H353 0.961 . S
C352 H354 0.961 . S
C352 H355 0.960 . S
H353 C352 0.961 . S
H354 C352 0.961 . S
H355 C352 0.960 . S
C356 N357 1.342 . S
C356 C360 1.401 . S
C356 C361 1.499 . S
N357 Co340 1.989 . S
N357 C356 1.342 . S
N357 N358 1.388 . S
N358 Co341 1.993 1_545 S
N358 N357 1.388 . S
N358 C359 1.346 . S
C359 N358 1.346 . S
C359 C360 1.396 . S
C359 C369 1.510 . S
C360 C356 1.401 . S
C360 C359 1.396 . S
C361 C356 1.499 . S
C361 H362 0.959 . S
C361 H363 0.960 . S
C361 H364 0.961 . S
H362 C361 0.959 . S
H363 C361 0.960 . S
H364 C361 0.961 . S
O365 Co340 1.967 . S
O365 C373 1.258 1_545 S
O366 Co341 1.941 . S
O366 C373 1.266 . S
H367 C369 0.959 . S
H368 C369 0.961 . S
C369 C359 1.510 . S
C369 H367 0.959 . S
C369 H368 0.961 . S
C369 H370 0.960 1_545 S
H370 C369 0.960 1_565 S
H371 N351 0.862 . S
O372 Co340 1.920 . S
O372 C345 1.289 . S
C373 O365 1.258 1_565 S
C373 O366 1.266 . S
Co374 O377 1.970 . S
Co374 N391 1.989 . S
Co374 O399 1.967 . S
Co374 O406 1.920 . S
Co375 O378 1.966 . S
Co375 N384 2.022 . S
Co375 N392 1.993 1_455 S
Co375 O400 1.941 . S
C376 O377 1.258 1_455 S
C376 O378 1.263 . S
O377 Co374 1.970 . S
O377 C376 1.258 1_655 S
O378 Co375 1.966 . S
O378 C376 1.263 . S
C379 O380 1.235 . S
C379 O406 1.289 . S
O380 C379 1.235 . S
C381 C383 1.400 . S
C381 N384 1.351 . S
C381 C386 1.501 . S
C382 C383 1.387 . S
C382 N385 1.341 . S
C383 C381 1.400 . S
C383 C382 1.387 . S
N384 Co375 2.022 . S
N384 C381 1.351 . S
N384 N385 1.365 . S
N385 C382 1.341 . S
N385 N384 1.365 . S
N385 H405 0.862 . S
C386 C381 1.501 . S
C386 H387 0.961 . S
C386 H388 0.961 . S
C386 H389 0.960 . S
H387 C386 0.961 . S
H388 C386 0.961 . S
H389 C386 0.960 . S
C390 N391 1.342 . S
C390 C394 1.401 . S
C390 C395 1.499 . S
N391 Co374 1.989 . S
N391 C390 1.342 . S
N391 N392 1.388 . S
N392 Co375 1.993 1_655 S
N392 N391 1.388 . S
N392 C393 1.346 . S
C393 N392 1.346 . S
C393 C394 1.396 . S
C393 C403 1.510 . S
C394 C390 1.401 . S
C394 C393 1.396 . S
C395 C390 1.499 . S
C395 H396 0.959 . S
C395 H397 0.960 . S
C395 H398 0.961 . S
H396 C395 0.959 . S
H397 C395 0.960 . S
H398 C395 0.961 . S
O399 Co374 1.967 . S
O399 C407 1.258 1_655 S
O400 Co375 1.941 . S
O400 C407 1.266 . S
H401 C403 0.959 . S
H402 C403 0.961 . S
C403 C393 1.510 . S
C403 H401 0.959 . S
C403 H402 0.961 . S
C403 H404 0.960 1_655 S
H404 C403 0.960 1_455 S
H405 N385 0.862 . S
O406 Co374 1.920 . S
O406 C379 1.289 . S
C407 O399 1.258 1_455 S
C407 O400 1.266 . S
Co408 O411 1.970 . S
Co408 N425 1.989 . S
Co408 O433 1.967 . S
Co408 O440 1.920 . S
Co409 O412 1.966 . S
Co409 N418 2.022 . S
Co409 N426 1.993 . S
Co409 O434 1.941 . S
C410 O411 1.258 . S
C410 O412 1.263 . S
O411 Co408 1.970 . S
O411 C410 1.258 . S
O412 Co409 1.966 . S
O412 C410 1.263 . S
C413 O414 1.235 . S
C413 O440 1.289 1_455 S
O414 C413 1.235 . S
C415 C417 1.400 . S
C415 N418 1.351 . S
C415 C420 1.501 . S
C416 C417 1.387 . S
C416 N419 1.341 . S
C417 C415 1.400 . S
C417 C416 1.387 . S
N418 Co409 2.022 . S
N418 C415 1.351 . S
N418 N419 1.365 . S
N419 C416 1.341 . S
N419 N418 1.365 . S
N419 H439 0.862 . S
C420 C415 1.501 . S
C420 H421 0.961 . S
C420 H422 0.961 . S
C420 H423 0.960 . S
H421 C420 0.961 . S
H422 C420 0.961 . S
H423 C420 0.960 . S
C424 N425 1.342 . S
C424 C428 1.401 . S
C424 C429 1.499 . S
N425 Co408 1.989 . S
N425 C424 1.342 . S
N425 N426 1.388 . S
N426 Co409 1.993 . S
N426 N425 1.388 . S
N426 C427 1.346 . S
C427 N426 1.346 . S
C427 C428 1.396 . S
C427 C437 1.510 . S
C428 C424 1.401 . S
C428 C427 1.396 . S
C429 C424 1.499 . S
C429 H430 0.959 . S
C429 H431 0.960 . S
C429 H432 0.961 . S
H430 C429 0.959 . S
H431 C429 0.960 . S
H432 C429 0.961 . S
O433 Co408 1.967 . S
O433 C441 1.258 . S
O434 Co409 1.941 . S
O434 C441 1.266 . S
H435 C437 0.959 . S
H436 C437 0.961 . S
C437 C427 1.510 . S
C437 H435 0.959 . S
C437 H436 0.961 . S
C437 H438 0.960 . S
H438 C437 0.960 . S
H439 N419 0.862 . S
O440 Co408 1.920 . S
O440 C413 1.289 1_655 S
C441 O433 1.258 . S
C441 O434 1.266 . S
Co442 O445 1.970 . S
Co442 N459 1.989 . S
Co442 O467 1.967 . S
Co442 O474 1.920 . S
Co443 O446 1.966 . S
Co443 N452 2.022 . S
Co443 N460 1.993 . S
Co443 O468 1.941 . S
C444 O445 1.258 . S
C444 O446 1.263 . S
O445 Co442 1.970 . S
O445 C444 1.258 . S
O446 Co443 1.966 . S
O446 C444 1.263 . S
C447 O448 1.235 . S
C447 O474 1.289 . S
O448 C447 1.235 . S
C449 C451 1.400 . S
C449 N452 1.351 . S
C449 C454 1.501 . S
C450 C451 1.387 . S
C450 N453 1.341 . S
C451 C449 1.400 . S
C451 C450 1.387 . S
N452 Co443 2.022 . S
N452 C449 1.351 . S
N452 N453 1.365 . S
N453 C450 1.341 . S
N453 N452 1.365 . S
N453 H473 0.862 . S
C454 C449 1.501 . S
C454 H455 0.961 . S
C454 H456 0.961 . S
C454 H457 0.960 . S
H455 C454 0.961 . S
H456 C454 0.961 . S
H457 C454 0.960 . S
C458 N459 1.342 . S
C458 C462 1.401 . S
C458 C463 1.499 . S
N459 Co442 1.989 . S
N459 C458 1.342 . S
N459 N460 1.388 . S
N460 Co443 1.993 . S
N460 N459 1.388 . S
N460 C461 1.346 . S
C461 N460 1.346 . S
C461 C462 1.396 . S
C461 C471 1.510 . S
C462 C458 1.401 . S
C462 C461 1.396 . S
C463 C458 1.499 . S
C463 H464 0.959 . S
C463 H465 0.960 . S
C463 H466 0.961 . S
H464 C463 0.959 . S
H465 C463 0.960 . S
H466 C463 0.961 . S
O467 Co442 1.967 . S
O467 C475 1.258 . S
O468 Co443 1.941 . S
O468 C475 1.266 . S
H469 C471 0.959 . S
H470 C471 0.961 . S
C471 C461 1.510 . S
C471 H469 0.959 . S
C471 H470 0.961 . S
C471 H472 0.960 . S
H472 C471 0.960 . S
H473 N453 0.862 . S
O474 Co442 1.920 . S
O474 C447 1.289 . S
C475 O467 1.258 . S
C475 O468 1.266 . S
Co476 O479 1.970 . S
Co476 N493 1.989 . S
Co476 O501 1.967 . S
Co476 O508 1.920 . S
Co477 O480 1.966 . S
Co477 N486 2.022 . S
Co477 N494 1.993 . S
Co477 O502 1.941 . S
C478 O479 1.258 . S
C478 O480 1.263 . S
O479 Co476 1.970 . S
O479 C478 1.258 . S
O480 Co477 1.966 . S
O480 C478 1.263 . S
C481 O482 1.235 . S
C481 O508 1.289 1_565 S
O482 C481 1.235 . S
C483 C485 1.400 . S
C483 N486 1.351 . S
C483 C488 1.501 . S
C484 C485 1.387 . S
C484 N487 1.341 . S
C485 C483 1.400 . S
C485 C484 1.387 . S
N486 Co477 2.022 . S
N486 C483 1.351 . S
N486 N487 1.365 . S
N487 C484 1.341 . S
N487 N486 1.365 . S
N487 H507 0.862 . S
C488 C483 1.501 . S
C488 H489 0.961 . S
C488 H490 0.961 . S
C488 H491 0.960 . S
H489 C488 0.961 . S
H490 C488 0.961 . S
H491 C488 0.960 . S
C492 N493 1.342 . S
C492 C496 1.401 . S
C492 C497 1.499 . S
N493 Co476 1.989 . S
N493 C492 1.342 . S
N493 N494 1.388 . S
N494 Co477 1.993 . S
N494 N493 1.388 . S
N494 C495 1.346 . S
C495 N494 1.346 . S
C495 C496 1.396 . S
C495 C505 1.510 . S
C496 C492 1.401 . S
C496 C495 1.396 . S
C497 C492 1.499 . S
C497 H498 0.959 . S
C497 H499 0.960 . S
C497 H500 0.961 . S
H498 C497 0.959 . S
H499 C497 0.960 . S
H500 C497 0.961 . S
O501 Co476 1.967 . S
O501 C509 1.258 . S
O502 Co477 1.941 . S
O502 C509 1.266 . S
H503 C505 0.959 . S
H504 C505 0.961 . S
C505 C495 1.510 . S
C505 H503 0.959 . S
C505 H504 0.961 . S
C505 H506 0.960 . S
H506 C505 0.960 . S
H507 N487 0.862 . S
O508 Co476 1.920 . S
O508 C481 1.289 1_545 S
C509 O501 1.258 . S
C509 O502 1.266 . S
Co510 O513 1.970 . S
Co510 N527 1.989 . S
Co510 O535 1.967 . S
Co510 O542 1.920 . S
Co511 O514 1.966 . S
Co511 N520 2.022 . S
Co511 N528 1.993 . S
Co511 O536 1.941 . S
C512 O513 1.258 . S
C512 O514 1.263 . S
O513 Co510 1.970 . S
O513 C512 1.258 . S
O514 Co511 1.966 . S
O514 C512 1.263 . S
C515 O516 1.235 . S
C515 O542 1.289 . S
O516 C515 1.235 . S
C517 C519 1.400 . S
C517 N520 1.351 . S
C517 C522 1.501 . S
C518 C519 1.387 . S
C518 N521 1.341 . S
C519 C517 1.400 . S
C519 C518 1.387 . S
N520 Co511 2.022 . S
N520 C517 1.351 . S
N520 N521 1.365 . S
N521 C518 1.341 . S
N521 N520 1.365 . S
N521 H541 0.862 . S
C522 C517 1.501 . S
C522 H523 0.961 . S
C522 H524 0.961 . S
C522 H525 0.960 . S
H523 C522 0.961 . S
H524 C522 0.961 . S
H525 C522 0.960 . S
C526 N527 1.342 . S
C526 C530 1.401 . S
C526 C531 1.499 . S
N527 Co510 1.989 . S
N527 C526 1.342 . S
N527 N528 1.388 . S
N528 Co511 1.993 . S
N528 N527 1.388 . S
N528 C529 1.346 . S
C529 N528 1.346 . S
C529 C530 1.396 . S
C529 C539 1.510 . S
C530 C526 1.401 . S
C530 C529 1.396 . S
C531 C526 1.499 . S
C531 H532 0.959 . S
C531 H533 0.960 . S
C531 H534 0.961 . S
H532 C531 0.959 . S
H533 C531 0.960 . S
H534 C531 0.961 . S
O535 Co510 1.967 . S
O535 C543 1.258 . S
O536 Co511 1.941 . S
O536 C543 1.266 . S
H537 C539 0.959 . S
H538 C539 0.961 . S
C539 C529 1.510 . S
C539 H537 0.959 . S
C539 H538 0.961 . S
C539 H540 0.960 . S
H540 C539 0.960 . S
H541 N521 0.862 . S
O542 Co510 1.920 . S
O542 C515 1.289 . S
C543 O535 1.258 . S
C543 O536 1.266 . S
Co544 O547 1.970 . S
Co544 N561 1.989 . S
Co544 O569 1.967 . S
Co544 O576 1.920 . S
Co545 O548 1.966 . S
Co545 N554 2.022 . S
Co545 N562 1.993 . S
Co545 O570 1.941 . S
C546 O547 1.258 . S
C546 O548 1.263 . S
O547 Co544 1.970 . S
O547 C546 1.258 . S
O548 Co545 1.966 . S
O548 C546 1.263 . S
C549 O550 1.235 . S
C549 O576 1.289 . S
O550 C549 1.235 . S
C551 C553 1.400 . S
C551 N554 1.351 . S
C551 C556 1.501 . S
C552 C553 1.387 . S
C552 N555 1.341 . S
C553 C551 1.400 . S
C553 C552 1.387 . S
N554 Co545 2.022 . S
N554 C551 1.351 . S
N554 N555 1.365 . S
N555 C552 1.341 . S
N555 N554 1.365 . S
N555 H575 0.862 . S
C556 C551 1.501 . S
C556 H557 0.961 . S
C556 H558 0.961 . S
C556 H559 0.960 . S
H557 C556 0.961 . S
H558 C556 0.961 . S
H559 C556 0.960 . S
C560 N561 1.342 . S
C560 C564 1.401 . S
C560 C565 1.499 . S
N561 Co544 1.989 . S
N561 C560 1.342 . S
N561 N562 1.388 . S
N562 Co545 1.993 . S
N562 N561 1.388 . S
N562 C563 1.346 . S
C563 N562 1.346 . S
C563 C564 1.396 . S
C563 C573 1.510 . S
C564 C560 1.401 . S
C564 C563 1.396 . S
C565 C560 1.499 . S
C565 H566 0.959 . S
C565 H567 0.960 . S
C565 H568 0.961 . S
H566 C565 0.959 . S
H567 C565 0.960 . S
H568 C565 0.961 . S
O569 Co544 1.967 . S
O569 C577 1.258 . S
O570 Co545 1.941 . S
O570 C577 1.266 . S
H571 C573 0.959 . S
H572 C573 0.961 . S
C573 C563 1.510 . S
C573 H571 0.959 . S
C573 H572 0.961 . S
C573 H574 0.960 . S
H574 C573 0.960 . S
H575 N555 0.862 . S
O576 Co544 1.920 . S
O576 C549 1.289 . S
C577 O569 1.258 . S
C577 O570 1.266 . S
Co578 O581 1.970 . S
Co578 N595 1.989 . S
Co578 O603 1.967 . S
Co578 O610 1.920 . S
Co579 O582 1.966 . S
Co579 N588 2.022 . S
Co579 N596 1.993 . S
Co579 O604 1.941 . S
C580 O581 1.258 . S
C580 O582 1.263 . S
O581 Co578 1.970 . S
O581 C580 1.258 . S
O582 Co579 1.966 . S
O582 C580 1.263 . S
C583 O584 1.235 . S
C583 O610 1.289 . S
O584 C583 1.235 . S
C585 C587 1.400 . S
C585 N588 1.351 . S
C585 C590 1.501 . S
C586 C587 1.387 . S
C586 N589 1.341 . S
C587 C585 1.400 . S
C587 C586 1.387 . S
N588 Co579 2.022 . S
N588 C585 1.351 . S
N588 N589 1.365 . S
N589 C586 1.341 . S
N589 N588 1.365 . S
N589 H609 0.862 . S
C590 C585 1.501 . S
C590 H591 0.961 . S
C590 H592 0.961 . S
C590 H593 0.960 . S
H591 C590 0.961 . S
H592 C590 0.961 . S
H593 C590 0.960 . S
C594 N595 1.342 . S
C594 C598 1.401 . S
C594 C599 1.499 . S
N595 Co578 1.989 . S
N595 C594 1.342 . S
N595 N596 1.388 . S
N596 Co579 1.993 . S
N596 N595 1.388 . S
N596 C597 1.346 . S
C597 N596 1.346 . S
C597 C598 1.396 . S
C597 C607 1.510 . S
C598 C594 1.401 . S
C598 C597 1.396 . S
C599 C594 1.499 . S
C599 H600 0.959 . S
C599 H601 0.960 . S
C599 H602 0.961 . S
H600 C599 0.959 . S
H601 C599 0.960 . S
H602 C599 0.961 . S
O603 Co578 1.967 . S
O603 C611 1.258 . S
O604 Co579 1.941 . S
O604 C611 1.266 . S
H605 C607 0.959 . S
H606 C607 0.961 . S
C607 C597 1.510 . S
C607 H605 0.959 . S
C607 H606 0.961 . S
C607 H608 0.960 . S
H608 C607 0.960 . S
H609 N589 0.862 . S
O610 Co578 1.920 . S
O610 C583 1.289 . S
C611 O603 1.258 . S
C611 O604 1.266 . S
Co612 O615 1.970 . S
Co612 N629 1.989 . S
Co612 O637 1.967 . S
Co612 O644 1.920 . S
Co613 O616 1.966 . S
Co613 N622 2.022 . S
Co613 N630 1.993 . S
Co613 O638 1.941 . S
C614 O615 1.258 . S
C614 O616 1.263 . S
O615 Co612 1.970 . S
O615 C614 1.258 . S
O616 Co613 1.966 . S
O616 C614 1.263 . S
C617 O618 1.235 . S
C617 O644 1.289 . S
O618 C617 1.235 . S
C619 C621 1.400 . S
C619 N622 1.351 . S
C619 C624 1.501 . S
C620 C621 1.387 . S
C620 N623 1.341 . S
C621 C619 1.400 . S
C621 C620 1.387 . S
N622 Co613 2.022 . S
N622 C619 1.351 . S
N622 N623 1.365 . S
N623 C620 1.341 . S
N623 N622 1.365 . S
N623 H643 0.862 . S
C624 C619 1.501 . S
C624 H625 0.961 . S
C624 H626 0.961 . S
C624 H627 0.960 . S
H625 C624 0.961 . S
H626 C624 0.961 . S
H627 C624 0.960 . S
C628 N629 1.342 . S
C628 C632 1.401 . S
C628 C633 1.499 . S
N629 Co612 1.989 . S
N629 C628 1.342 . S
N629 N630 1.388 . S
N630 Co613 1.993 . S
N630 N629 1.388 . S
N630 C631 1.346 . S
C631 N630 1.346 . S
C631 C632 1.396 . S
C631 C641 1.510 . S
C632 C628 1.401 . S
C632 C631 1.396 . S
C633 C628 1.499 . S
C633 H634 0.959 . S
C633 H635 0.960 . S
C633 H636 0.961 . S
H634 C633 0.959 . S
H635 C633 0.960 . S
H636 C633 0.961 . S
O637 Co612 1.967 . S
O637 C645 1.258 . S
O638 Co613 1.941 . S
O638 C645 1.266 . S
H639 C641 0.959 . S
H640 C641 0.961 . S
C641 C631 1.510 . S
C641 H639 0.959 . S
C641 H640 0.961 . S
C641 H642 0.960 . S
H642 C641 0.960 . S
H643 N623 0.862 . S
O644 Co612 1.920 . S
O644 C617 1.289 . S
C645 O637 1.258 . S
C645 O638 1.266 . S
Co646 O649 1.970 . S
Co646 N663 1.989 . S
Co646 O671 1.967 . S
Co646 O678 1.920 . S
Co647 O650 1.966 . S
Co647 N656 2.022 . S
Co647 N664 1.993 . S
Co647 O672 1.941 . S
C648 O649 1.258 . S
C648 O650 1.263 . S
O649 Co646 1.970 . S
O649 C648 1.258 . S
O650 Co647 1.966 . S
O650 C648 1.263 . S
C651 O652 1.235 . S
C651 O678 1.289 . S
O652 C651 1.235 . S
C653 C655 1.400 . S
C653 N656 1.351 . S
C653 C658 1.501 . S
C654 C655 1.387 . S
C654 N657 1.341 . S
C655 C653 1.400 . S
C655 C654 1.387 . S
N656 Co647 2.022 . S
N656 C653 1.351 . S
N656 N657 1.365 . S
N657 C654 1.341 . S
N657 N656 1.365 . S
N657 H677 0.862 . S
C658 C653 1.501 . S
C658 H659 0.961 . S
C658 H660 0.961 . S
C658 H661 0.960 . S
H659 C658 0.961 . S
H660 C658 0.961 . S
H661 C658 0.960 . S
C662 N663 1.342 . S
C662 C666 1.401 . S
C662 C667 1.499 . S
N663 Co646 1.989 . S
N663 C662 1.342 . S
N663 N664 1.388 . S
N664 Co647 1.993 . S
N664 N663 1.388 . S
N664 C665 1.346 . S
C665 N664 1.346 . S
C665 C666 1.396 . S
C665 C675 1.510 . S
C666 C662 1.401 . S
C666 C665 1.396 . S
C667 C662 1.499 . S
C667 H668 0.959 . S
C667 H669 0.960 . S
C667 H670 0.961 . S
H668 C667 0.959 . S
H669 C667 0.960 . S
H670 C667 0.961 . S
O671 Co646 1.967 . S
O671 C679 1.258 . S
O672 Co647 1.941 . S
O672 C679 1.266 . S
H673 C675 0.959 . S
H674 C675 0.961 . S
C675 C665 1.510 . S
C675 H673 0.959 . S
C675 H674 0.961 . S
C675 H676 0.960 . S
H676 C675 0.960 . S
H677 N657 0.862 . S
O678 Co646 1.920 . S
O678 C651 1.289 . S
C679 O671 1.258 . S
C679 O672 1.266 . S
Co680 O683 1.970 . S
Co680 N697 1.989 . S
Co680 O705 1.967 . S
Co680 O712 1.920 . S
Co681 O684 1.966 . S
Co681 N690 2.022 . S
Co681 N698 1.993 . S
Co681 O706 1.941 . S
C682 O683 1.258 . S
C682 O684 1.263 . S
O683 Co680 1.970 . S
O683 C682 1.258 . S
O684 Co681 1.966 . S
O684 C682 1.263 . S
C685 O686 1.235 . S
C685 O712 1.289 . S
O686 C685 1.235 . S
C687 C689 1.400 . S
C687 N690 1.351 . S
C687 C692 1.501 . S
C688 C689 1.387 . S
C688 N691 1.341 . S
C689 C687 1.400 . S
C689 C688 1.387 . S
N690 Co681 2.022 . S
N690 C687 1.351 . S
N690 N691 1.365 . S
N691 C688 1.341 . S
N691 N690 1.365 . S
N691 H711 0.862 . S
C692 C687 1.501 . S
C692 H693 0.961 . S
C692 H694 0.961 . S
C692 H695 0.960 . S
H693 C692 0.961 . S
H694 C692 0.961 . S
H695 C692 0.960 . S
C696 N697 1.342 . S
C696 C700 1.401 . S
C696 C701 1.499 . S
N697 Co680 1.989 . S
N697 C696 1.342 . S
N697 N698 1.388 . S
N698 Co681 1.993 . S
N698 N697 1.388 . S
N698 C699 1.346 . S
C699 N698 1.346 . S
C699 C700 1.396 . S
C699 C709 1.510 . S
C700 C696 1.401 . S
C700 C699 1.396 . S
C701 C696 1.499 . S
C701 H702 0.959 . S
C701 H703 0.960 . S
C701 H704 0.961 . S
H702 C701 0.959 . S
H703 C701 0.960 . S
H704 C701 0.961 . S
O705 Co680 1.967 . S
O705 C713 1.258 . S
O706 Co681 1.941 . S
O706 C713 1.266 . S
H707 C709 0.959 . S
H708 C709 0.961 . S
C709 C699 1.510 . S
C709 H707 0.959 . S
C709 H708 0.961 . S
C709 H710 0.960 . S
H710 C709 0.960 . S
H711 N691 0.862 . S
O712 Co680 1.920 . S
O712 C685 1.289 . S
C713 O705 1.258 . S
C713 O706 1.266 . S
Co714 O717 1.970 . S
Co714 N731 1.989 . S
Co714 O739 1.967 1_556 S
Co714 O746 1.920 1_556 S
Co715 O718 1.966 . S
Co715 N724 2.022 . S
Co715 N732 1.993 . S
Co715 O740 1.941 1_556 S
C716 O717 1.258 . S
C716 O718 1.263 . S
O717 Co714 1.970 . S
O717 C716 1.258 . S
O718 Co715 1.966 . S
O718 C716 1.263 . S
C719 O720 1.235 . S
C719 O746 1.289 1_566 S
O720 C719 1.235 . S
C721 C723 1.400 . S
C721 N724 1.351 . S
C721 C726 1.501 . S
C722 C723 1.387 . S
C722 N725 1.341 . S
C723 C721 1.400 . S
C723 C722 1.387 . S
N724 Co715 2.022 . S
N724 C721 1.351 . S
N724 N725 1.365 . S
N725 C722 1.341 . S
N725 N724 1.365 . S
N725 H745 0.862 . S
C726 C721 1.501 . S
C726 H727 0.961 . S
C726 H728 0.961 . S
C726 H729 0.960 . S
H727 C726 0.961 . S
H728 C726 0.961 . S
H729 C726 0.960 . S
C730 N731 1.342 . S
C730 C734 1.401 . S
C730 C735 1.499 . S
N731 Co714 1.989 . S
N731 C730 1.342 . S
N731 N732 1.388 . S
N732 Co715 1.993 . S
N732 N731 1.388 . S
N732 C733 1.346 . S
C733 N732 1.346 . S
C733 C734 1.396 . S
C733 C743 1.510 . S
C734 C730 1.401 . S
C734 C733 1.396 . S
C735 C730 1.499 . S
C735 H736 0.959 . S
C735 H737 0.960 . S
C735 H738 0.961 . S
H736 C735 0.959 . S
H737 C735 0.960 . S
H738 C735 0.961 . S
O739 Co714 1.967 1_554 S
O739 C747 1.258 . S
O740 Co715 1.941 1_554 S
O740 C747 1.266 . S
H741 C743 0.959 . S
H742 C743 0.961 . S
C743 C733 1.510 . S
C743 H741 0.959 . S
C743 H742 0.961 . S
C743 H744 0.960 . S
H744 C743 0.960 . S
H745 N725 0.862 . S
O746 Co714 1.920 1_554 S
O746 C719 1.289 1_544 S
C747 O739 1.258 . S
C747 O740 1.266 . S
Co748 O751 1.970 . S
Co748 N765 1.989 . S
Co748 O773 1.967 1_556 S
Co748 O780 1.920 1_556 S
Co749 O752 1.966 . S
Co749 N758 2.022 . S
Co749 N766 1.993 . S
Co749 O774 1.941 1_556 S
C750 O751 1.258 . S
C750 O752 1.263 . S
O751 Co748 1.970 . S
O751 C750 1.258 . S
O752 Co749 1.966 . S
O752 C750 1.263 . S
C753 O754 1.235 . S
C753 O780 1.289 1_456 S
O754 C753 1.235 . S
C755 C757 1.400 . S
C755 N758 1.351 . S
C755 C760 1.501 . S
C756 C757 1.387 . S
C756 N759 1.341 . S
C757 C755 1.400 . S
C757 C756 1.387 . S
N758 Co749 2.022 . S
N758 C755 1.351 . S
N758 N759 1.365 . S
N759 C756 1.341 . S
N759 N758 1.365 . S
N759 H779 0.862 . S
C760 C755 1.501 . S
C760 H761 0.961 . S
C760 H762 0.961 . S
C760 H763 0.960 . S
H761 C760 0.961 . S
H762 C760 0.961 . S
H763 C760 0.960 . S
C764 N765 1.342 . S
C764 C768 1.401 . S
C764 C769 1.499 . S
N765 Co748 1.989 . S
N765 C764 1.342 . S
N765 N766 1.388 . S
N766 Co749 1.993 . S
N766 N765 1.388 . S
N766 C767 1.346 . S
C767 N766 1.346 . S
C767 C768 1.396 . S
C767 C777 1.510 . S
C768 C764 1.401 . S
C768 C767 1.396 . S
C769 C764 1.499 . S
C769 H770 0.959 . S
C769 H771 0.960 . S
C769 H772 0.961 . S
H770 C769 0.959 . S
H771 C769 0.960 . S
H772 C769 0.961 . S
O773 Co748 1.967 1_554 S
O773 C781 1.258 . S
O774 Co749 1.941 1_554 S
O774 C781 1.266 . S
H775 C777 0.959 . S
H776 C777 0.961 . S
C777 C767 1.510 . S
C777 H775 0.959 . S
C777 H776 0.961 . S
C777 H778 0.960 . S
H778 C777 0.960 . S
H779 N759 0.862 . S
O780 Co748 1.920 1_554 S
O780 C753 1.289 1_654 S
C781 O773 1.258 . S
C781 O774 1.266 . S
Co782 O785 1.970 . S
Co782 N799 1.989 . S
Co782 O807 1.967 1_556 S
Co782 O814 1.920 1_556 S
Co783 O786 1.966 . S
Co783 N792 2.022 . S
Co783 N800 1.993 . S
Co783 O808 1.941 1_556 S
C784 O785 1.258 . S
C784 O786 1.263 . S
O785 Co782 1.970 . S
O785 C784 1.258 . S
O786 Co783 1.966 . S
O786 C784 1.263 . S
C787 O788 1.235 . S
C787 O814 1.289 1_556 S
O788 C787 1.235 . S
C789 C791 1.400 . S
C789 N792 1.351 . S
C789 C794 1.501 . S
C790 C791 1.387 . S
C790 N793 1.341 . S
C791 C789 1.400 . S
C791 C790 1.387 . S
N792 Co783 2.022 . S
N792 C789 1.351 . S
N792 N793 1.365 . S
N793 C790 1.341 . S
N793 N792 1.365 . S
N793 H813 0.862 . S
C794 C789 1.501 . S
C794 H795 0.961 . S
C794 H796 0.961 . S
C794 H797 0.960 . S
H795 C794 0.961 . S
H796 C794 0.961 . S
H797 C794 0.960 . S
C798 N799 1.342 . S
C798 C802 1.401 . S
C798 C803 1.499 . S
N799 Co782 1.989 . S
N799 C798 1.342 . S
N799 N800 1.388 . S
N800 Co783 1.993 . S
N800 N799 1.388 . S
N800 C801 1.346 . S
C801 N800 1.346 . S
C801 C802 1.396 . S
C801 C811 1.510 . S
C802 C798 1.401 . S
C802 C801 1.396 . S
C803 C798 1.499 . S
C803 H804 0.959 . S
C803 H805 0.960 . S
C803 H806 0.961 . S
H804 C803 0.959 . S
H805 C803 0.960 . S
H806 C803 0.961 . S
O807 Co782 1.967 1_554 S
O807 C815 1.258 . S
O808 Co783 1.941 1_554 S
O808 C815 1.266 . S
H809 C811 0.959 . S
H810 C811 0.961 . S
C811 C801 1.510 . S
C811 H809 0.959 . S
C811 H810 0.961 . S
C811 H812 0.960 . S
H812 C811 0.960 . S
H813 N793 0.862 . S
O814 Co782 1.920 1_554 S
O814 C787 1.289 1_554 S
C815 O807 1.258 . S
C815 O808 1.266 . S
Co816 O819 1.970 . S
Co816 N833 1.989 . S
Co816 O841 1.967 . S
Co816 O848 1.920 . S
Co817 O820 1.966 . S
Co817 N826 2.022 . S
Co817 N834 1.993 . S
Co817 O842 1.941 . S
C818 O819 1.258 . S
C818 O820 1.263 . S
O819 Co816 1.970 . S
O819 C818 1.258 . S
O820 Co817 1.966 . S
O820 C818 1.263 . S
C821 O822 1.235 . S
C821 O848 1.289 . S
O822 C821 1.235 . S
C823 C825 1.400 . S
C823 N826 1.351 . S
C823 C828 1.501 . S
C824 C825 1.387 . S
C824 N827 1.341 . S
C825 C823 1.400 . S
C825 C824 1.387 . S
N826 Co817 2.022 . S
N826 C823 1.351 . S
N826 N827 1.365 . S
N827 C824 1.341 . S
N827 N826 1.365 . S
N827 H847 0.862 . S
C828 C823 1.501 . S
C828 H829 0.961 . S
C828 H830 0.961 . S
C828 H831 0.960 . S
H829 C828 0.961 . S
H830 C828 0.961 . S
H831 C828 0.960 . S
C832 N833 1.342 . S
C832 C836 1.401 . S
C832 C837 1.499 . S
N833 Co816 1.989 . S
N833 C832 1.342 . S
N833 N834 1.388 . S
N834 Co817 1.993 . S
N834 N833 1.388 . S
N834 C835 1.346 . S
C835 N834 1.346 . S
C835 C836 1.396 . S
C835 C845 1.510 . S
C836 C832 1.401 . S
C836 C835 1.396 . S
C837 C832 1.499 . S
C837 H838 0.959 . S
C837 H839 0.960 . S
C837 H840 0.961 . S
H838 C837 0.959 . S
H839 C837 0.960 . S
H840 C837 0.961 . S
O841 Co816 1.967 . S
O841 C849 1.258 . S
O842 Co817 1.941 . S
O842 C849 1.266 . S
H843 C845 0.959 . S
H844 C845 0.961 . S
C845 C835 1.510 . S
C845 H843 0.959 . S
C845 H844 0.961 . S
C845 H846 0.960 . S
H846 C845 0.960 . S
H847 N827 0.862 . S
O848 Co816 1.920 . S
O848 C821 1.289 . S
C849 O841 1.258 . S
C849 O842 1.266 . S
Co850 O853 1.970 . S
Co850 N867 1.989 . S
Co850 O875 1.967 . S
Co850 O882 1.920 . S
Co851 O854 1.966 . S
Co851 N860 2.022 . S
Co851 N868 1.993 . S
Co851 O876 1.941 . S
C852 O853 1.258 . S
C852 O854 1.263 . S
O853 Co850 1.970 . S
O853 C852 1.258 . S
O854 Co851 1.966 . S
O854 C852 1.263 . S
C855 O856 1.235 . S
C855 O882 1.289 . S
O856 C855 1.235 . S
C857 C859 1.400 . S
C857 N860 1.351 . S
C857 C862 1.501 . S
C858 C859 1.387 . S
C858 N861 1.341 . S
C859 C857 1.400 . S
C859 C858 1.387 . S
N860 Co851 2.022 . S
N860 C857 1.351 . S
N860 N861 1.365 . S
N861 C858 1.341 . S
N861 N860 1.365 . S
N861 H881 0.862 . S
C862 C857 1.501 . S
C862 H863 0.961 . S
C862 H864 0.961 . S
C862 H865 0.960 . S
H863 C862 0.961 . S
H864 C862 0.961 . S
H865 C862 0.960 . S
C866 N867 1.342 . S
C866 C870 1.401 . S
C866 C871 1.499 . S
N867 Co850 1.989 . S
N867 C866 1.342 . S
N867 N868 1.388 . S
N868 Co851 1.993 . S
N868 N867 1.388 . S
N868 C869 1.346 . S
C869 N868 1.346 . S
C869 C870 1.396 . S
C869 C879 1.510 . S
C870 C866 1.401 . S
C870 C869 1.396 . S
C871 C866 1.499 . S
C871 H872 0.959 . S
C871 H873 0.960 . S
C871 H874 0.961 . S
H872 C871 0.959 . S
H873 C871 0.960 . S
H874 C871 0.961 . S
O875 Co850 1.967 . S
O875 C883 1.258 . S
O876 Co851 1.941 . S
O876 C883 1.266 . S
H877 C879 0.959 . S
H878 C879 0.961 . S
C879 C869 1.510 . S
C879 H877 0.959 . S
C879 H878 0.961 . S
C879 H880 0.960 . S
H880 C879 0.960 . S
H881 N861 0.862 . S
O882 Co850 1.920 . S
O882 C855 1.289 . S
C883 O875 1.258 . S
C883 O876 1.266 . S
Co884 O887 1.970 . S
Co884 N901 1.989 . S
Co884 O909 1.967 . S
Co884 O916 1.920 . S
Co885 O888 1.966 . S
Co885 N894 2.022 . S
Co885 N902 1.993 . S
Co885 O910 1.941 . S
C886 O887 1.258 . S
C886 O888 1.263 . S
O887 Co884 1.970 . S
O887 C886 1.258 . S
O888 Co885 1.966 . S
O888 C886 1.263 . S
C889 O890 1.235 . S
C889 O916 1.289 . S
O890 C889 1.235 . S
C891 C893 1.400 . S
C891 N894 1.351 . S
C891 C896 1.501 . S
C892 C893 1.387 . S
C892 N895 1.341 . S
C893 C891 1.400 . S
C893 C892 1.387 . S
N894 Co885 2.022 . S
N894 C891 1.351 . S
N894 N895 1.365 . S
N895 C892 1.341 . S
N895 N894 1.365 . S
N895 H915 0.862 . S
C896 C891 1.501 . S
C896 H897 0.961 . S
C896 H898 0.961 . S
C896 H899 0.960 . S
H897 C896 0.961 . S
H898 C896 0.961 . S
H899 C896 0.960 . S
C900 N901 1.342 . S
C900 C904 1.401 . S
C900 C905 1.499 . S
N901 Co884 1.989 . S
N901 C900 1.342 . S
N901 N902 1.388 . S
N902 Co885 1.993 . S
N902 N901 1.388 . S
N902 C903 1.346 . S
C903 N902 1.346 . S
C903 C904 1.396 . S
C903 C913 1.510 . S
C904 C900 1.401 . S
C904 C903 1.396 . S
C905 C900 1.499 . S
C905 H906 0.959 . S
C905 H907 0.960 . S
C905 H908 0.961 . S
H906 C905 0.959 . S
H907 C905 0.960 . S
H908 C905 0.961 . S
O909 Co884 1.967 . S
O909 C917 1.258 . S
O910 Co885 1.941 . S
O910 C917 1.266 . S
H911 C913 0.959 . S
H912 C913 0.961 . S
C913 C903 1.510 . S
C913 H911 0.959 . S
C913 H912 0.961 . S
C913 H914 0.960 . S
H914 C913 0.960 . S
H915 N895 0.862 . S
O916 Co884 1.920 . S
O916 C889 1.289 . S
C917 O909 1.258 . S
C917 O910 1.266 . S
Co918 O921 1.970 . S
Co918 N935 1.989 . S
Co918 O943 1.967 1_554 S
Co918 O950 1.920 1_554 S
Co919 O922 1.966 . S
Co919 N928 2.022 . S
Co919 N936 1.993 . S
Co919 O944 1.941 1_554 S
C920 O921 1.258 . S
C920 O922 1.263 . S
O921 Co918 1.970 . S
O921 C920 1.258 . S
O922 Co919 1.966 . S
O922 C920 1.263 . S
C923 O924 1.235 . S
C923 O950 1.289 1_544 S
O924 C923 1.235 . S
C925 C927 1.400 . S
C925 N928 1.351 . S
C925 C930 1.501 . S
C926 C927 1.387 . S
C926 N929 1.341 . S
C927 C925 1.400 . S
C927 C926 1.387 . S
N928 Co919 2.022 . S
N928 C925 1.351 . S
N928 N929 1.365 . S
N929 C926 1.341 . S
N929 N928 1.365 . S
N929 H949 0.862 . S
C930 C925 1.501 . S
C930 H931 0.961 . S
C930 H932 0.961 . S
C930 H933 0.960 . S
H931 C930 0.961 . S
H932 C930 0.961 . S
H933 C930 0.960 . S
C934 N935 1.342 . S
C934 C938 1.401 . S
C934 C939 1.499 . S
N935 Co918 1.989 . S
N935 C934 1.342 . S
N935 N936 1.388 . S
N936 Co919 1.993 . S
N936 N935 1.388 . S
N936 C937 1.346 . S
C937 N936 1.346 . S
C937 C938 1.396 . S
C937 C947 1.510 . S
C938 C934 1.401 . S
C938 C937 1.396 . S
C939 C934 1.499 . S
C939 H940 0.959 . S
C939 H941 0.960 . S
C939 H942 0.961 . S
H940 C939 0.959 . S
H941 C939 0.960 . S
H942 C939 0.961 . S
O943 Co918 1.967 1_556 S
O943 C951 1.258 . S
O944 Co919 1.941 1_556 S
O944 C951 1.266 . S
H945 C947 0.959 . S
H946 C947 0.961 . S
C947 C937 1.510 . S
C947 H945 0.959 . S
C947 H946 0.961 . S
C947 H948 0.960 . S
H948 C947 0.960 . S
H949 N929 0.862 . S
O950 Co918 1.920 1_556 S
O950 C923 1.289 1_566 S
C951 O943 1.258 . S
C951 O944 1.266 . S
Co952 O955 1.970 . S
Co952 N969 1.989 . S
Co952 O977 1.967 1_554 S
Co952 O984 1.920 1_554 S
Co953 O956 1.966 . S
Co953 N962 2.022 . S
Co953 N970 1.993 . S
Co953 O978 1.941 1_554 S
C954 O955 1.258 . S
C954 O956 1.263 . S
O955 Co952 1.970 . S
O955 C954 1.258 . S
O956 Co953 1.966 . S
O956 C954 1.263 . S
C957 O958 1.235 . S
C957 O984 1.289 1_654 S
O958 C957 1.235 . S
C959 C961 1.400 . S
C959 N962 1.351 . S
C959 C964 1.501 . S
C960 C961 1.387 . S
C960 N963 1.341 . S
C961 C959 1.400 . S
C961 C960 1.387 . S
N962 Co953 2.022 . S
N962 C959 1.351 . S
N962 N963 1.365 . S
N963 C960 1.341 . S
N963 N962 1.365 . S
N963 H983 0.862 . S
C964 C959 1.501 . S
C964 H965 0.961 . S
C964 H966 0.961 . S
C964 H967 0.960 . S
H965 C964 0.961 . S
H966 C964 0.961 . S
H967 C964 0.960 . S
C968 N969 1.342 . S
C968 C972 1.401 . S
C968 C973 1.499 . S
N969 Co952 1.989 . S
N969 C968 1.342 . S
N969 N970 1.388 . S
N970 Co953 1.993 . S
N970 N969 1.388 . S
N970 C971 1.346 . S
C971 N970 1.346 . S
C971 C972 1.396 . S
C971 C981 1.510 . S
C972 C968 1.401 . S
C972 C971 1.396 . S
C973 C968 1.499 . S
C973 H974 0.959 . S
C973 H975 0.960 . S
C973 H976 0.961 . S
H974 C973 0.959 . S
H975 C973 0.960 . S
H976 C973 0.961 . S
O977 Co952 1.967 1_556 S
O977 C985 1.258 . S
O978 Co953 1.941 1_556 S
O978 C985 1.266 . S
H979 C981 0.959 . S
H980 C981 0.961 . S
C981 C971 1.510 . S
C981 H979 0.959 . S
C981 H980 0.961 . S
C981 H982 0.960 . S
H982 C981 0.960 . S
H983 N963 0.862 . S
O984 Co952 1.920 1_556 S
O984 C957 1.289 1_456 S
C985 O977 1.258 . S
C985 O978 1.266 . S
Co986 O989 1.970 . S
Co986 N1003 1.989 . S
Co986 O1011 1.967 1_554 S
Co986 O1018 1.920 1_554 S
Co987 O990 1.966 . S
Co987 N996 2.022 . S
Co987 N1004 1.993 . S
Co987 O1012 1.941 1_554 S
C988 O989 1.258 . S
C988 O990 1.263 . S
O989 Co986 1.970 . S
O989 C988 1.258 . S
O990 Co987 1.966 . S
O990 C988 1.263 . S
C991 O992 1.235 . S
C991 O1018 1.289 1_554 S
O992 C991 1.235 . S
C993 C995 1.400 . S
C993 N996 1.351 . S
C993 C998 1.501 . S
C994 C995 1.387 . S
C994 N997 1.341 . S
C995 C993 1.400 . S
C995 C994 1.387 . S
N996 Co987 2.022 . S
N996 C993 1.351 . S
N996 N997 1.365 . S
N997 C994 1.341 . S
N997 N996 1.365 . S
N997 H1017 0.862 . S
C998 C993 1.501 . S
C998 H999 0.961 . S
C998 H1000 0.961 . S
C998 H1001 0.960 . S
H999 C998 0.961 . S
H1000 C998 0.961 . S
H1001 C998 0.960 . S
C1002 N1003 1.342 . S
C1002 C1006 1.401 . S
C1002 C1007 1.499 . S
N1003 Co986 1.989 . S
N1003 C1002 1.342 . S
N1003 N1004 1.388 . S
N1004 Co987 1.993 . S
N1004 N1003 1.388 . S
N1004 C1005 1.346 . S
C1005 N1004 1.346 . S
C1005 C1006 1.396 . S
C1005 C1015 1.510 . S
C1006 C1002 1.401 . S
C1006 C1005 1.396 . S
C1007 C1002 1.499 . S
C1007 H1008 0.959 . S
C1007 H1009 0.960 . S
C1007 H1010 0.961 . S
H1008 C1007 0.959 . S
H1009 C1007 0.960 . S
H1010 C1007 0.961 . S
O1011 Co986 1.967 1_556 S
O1011 C1019 1.258 . S
O1012 Co987 1.941 1_556 S
O1012 C1019 1.266 . S
H1013 C1015 0.959 . S
H1014 C1015 0.961 . S
C1015 C1005 1.510 . S
C1015 H1013 0.959 . S
C1015 H1014 0.961 . S
C1015 H1016 0.960 . S
H1016 C1015 0.960 . S
H1017 N997 0.862 . S
O1018 Co986 1.920 1_556 S
O1018 C991 1.289 1_556 S
C1019 O1011 1.258 . S
C1019 O1012 1.266 . S
Co1020 O1023 1.970 . S
Co1020 N1037 1.989 . S
Co1020 O1045 1.967 . S
Co1020 O1052 1.920 . S
Co1021 O1024 1.966 . S
Co1021 N1030 2.022 . S
Co1021 N1038 1.993 . S
Co1021 O1046 1.941 . S
C1022 O1023 1.258 . S
C1022 O1024 1.263 . S
O1023 Co1020 1.970 . S
O1023 C1022 1.258 . S
O1024 Co1021 1.966 . S
O1024 C1022 1.263 . S
C1025 O1026 1.235 . S
C1025 O1052 1.289 1_655 S
O1026 C1025 1.235 . S
C1027 C1029 1.400 . S
C1027 N1030 1.351 . S
C1027 C1032 1.501 . S
C1028 C1029 1.387 . S
C1028 N1031 1.341 . S
C1029 C1027 1.400 . S
C1029 C1028 1.387 . S
N1030 Co1021 2.022 . S
N1030 C1027 1.351 . S
N1030 N1031 1.365 . S
N1031 C1028 1.341 . S
N1031 N1030 1.365 . S
N1031 H1051 0.862 . S
C1032 C1027 1.501 . S
C1032 H1033 0.961 . S
C1032 H1034 0.961 . S
C1032 H1035 0.960 . S
H1033 C1032 0.961 . S
H1034 C1032 0.961 . S
H1035 C1032 0.960 . S
C1036 N1037 1.342 . S
C1036 C1040 1.401 . S
C1036 C1041 1.499 . S
N1037 Co1020 1.989 . S
N1037 C1036 1.342 . S
N1037 N1038 1.388 . S
N1038 Co1021 1.993 . S
N1038 N1037 1.388 . S
N1038 C1039 1.346 . S
C1039 N1038 1.346 . S
C1039 C1040 1.396 . S
C1039 C1049 1.510 . S
C1040 C1036 1.401 . S
C1040 C1039 1.396 . S
C1041 C1036 1.499 . S
C1041 H1042 0.959 . S
C1041 H1043 0.960 . S
C1041 H1044 0.961 . S
H1042 C1041 0.959 . S
H1043 C1041 0.960 . S
H1044 C1041 0.961 . S
O1045 Co1020 1.967 . S
O1045 C1053 1.258 . S
O1046 Co1021 1.941 . S
O1046 C1053 1.266 . S
H1047 C1049 0.959 . S
H1048 C1049 0.961 . S
C1049 C1039 1.510 . S
C1049 H1047 0.959 . S
C1049 H1048 0.961 . S
C1049 H1050 0.960 . S
H1050 C1049 0.960 . S
H1051 N1031 0.862 . S
O1052 Co1020 1.920 . S
O1052 C1025 1.289 1_455 S
C1053 O1045 1.258 . S
C1053 O1046 1.266 . S
Co1054 O1057 1.970 . S
Co1054 N1071 1.989 . S
Co1054 O1079 1.967 . S
Co1054 O1086 1.920 . S
Co1055 O1058 1.966 . S
Co1055 N1064 2.022 . S
Co1055 N1072 1.993 . S
Co1055 O1080 1.941 . S
C1056 O1057 1.258 . S
C1056 O1058 1.263 . S
O1057 Co1054 1.970 . S
O1057 C1056 1.258 . S
O1058 Co1055 1.966 . S
O1058 C1056 1.263 . S
C1059 O1060 1.235 . S
C1059 O1086 1.289 . S
O1060 C1059 1.235 . S
C1061 C1063 1.400 . S
C1061 N1064 1.351 . S
C1061 C1066 1.501 . S
C1062 C1063 1.387 . S
C1062 N1065 1.341 . S
C1063 C1061 1.400 . S
C1063 C1062 1.387 . S
N1064 Co1055 2.022 . S
N1064 C1061 1.351 . S
N1064 N1065 1.365 . S
N1065 C1062 1.341 . S
N1065 N1064 1.365 . S
N1065 H1085 0.862 . S
C1066 C1061 1.501 . S
C1066 H1067 0.961 . S
C1066 H1068 0.961 . S
C1066 H1069 0.960 . S
H1067 C1066 0.961 . S
H1068 C1066 0.961 . S
H1069 C1066 0.960 . S
C1070 N1071 1.342 . S
C1070 C1074 1.401 . S
C1070 C1075 1.499 . S
N1071 Co1054 1.989 . S
N1071 C1070 1.342 . S
N1071 N1072 1.388 . S
N1072 Co1055 1.993 . S
N1072 N1071 1.388 . S
N1072 C1073 1.346 . S
C1073 N1072 1.346 . S
C1073 C1074 1.396 . S
C1073 C1083 1.510 . S
C1074 C1070 1.401 . S
C1074 C1073 1.396 . S
C1075 C1070 1.499 . S
C1075 H1076 0.959 . S
C1075 H1077 0.960 . S
C1075 H1078 0.961 . S
H1076 C1075 0.959 . S
H1077 C1075 0.960 . S
H1078 C1075 0.961 . S
O1079 Co1054 1.967 . S
O1079 C1087 1.258 . S
O1080 Co1055 1.941 . S
O1080 C1087 1.266 . S
H1081 C1083 0.959 . S
H1082 C1083 0.961 . S
C1083 C1073 1.510 . S
C1083 H1081 0.959 . S
C1083 H1082 0.961 . S
C1083 H1084 0.960 . S
H1084 C1083 0.960 . S
H1085 N1065 0.862 . S
O1086 Co1054 1.920 . S
O1086 C1059 1.289 . S
C1087 O1079 1.258 . S
C1087 O1080 1.266 . S
Co1088 O1091 1.970 . S
Co1088 N1105 1.989 . S
Co1088 O1113 1.967 . S
Co1088 O1120 1.920 . S
Co1089 O1092 1.966 . S
Co1089 N1098 2.022 . S
Co1089 N1106 1.993 . S
Co1089 O1114 1.941 . S
C1090 O1091 1.258 . S
C1090 O1092 1.263 . S
O1091 Co1088 1.970 . S
O1091 C1090 1.258 . S
O1092 Co1089 1.966 . S
O1092 C1090 1.263 . S
C1093 O1094 1.235 . S
C1093 O1120 1.289 1_545 S
O1094 C1093 1.235 . S
C1095 C1097 1.400 . S
C1095 N1098 1.351 . S
C1095 C1100 1.501 . S
C1096 C1097 1.387 . S
C1096 N1099 1.341 . S
C1097 C1095 1.400 . S
C1097 C1096 1.387 . S
N1098 Co1089 2.022 . S
N1098 C1095 1.351 . S
N1098 N1099 1.365 . S
N1099 C1096 1.341 . S
N1099 N1098 1.365 . S
N1099 H1119 0.862 . S
C1100 C1095 1.501 . S
C1100 H1101 0.961 . S
C1100 H1102 0.961 . S
C1100 H1103 0.960 . S
H1101 C1100 0.961 . S
H1102 C1100 0.961 . S
H1103 C1100 0.960 . S
C1104 N1105 1.342 . S
C1104 C1108 1.401 . S
C1104 C1109 1.499 . S
N1105 Co1088 1.989 . S
N1105 C1104 1.342 . S
N1105 N1106 1.388 . S
N1106 Co1089 1.993 . S
N1106 N1105 1.388 . S
N1106 C1107 1.346 . S
C1107 N1106 1.346 . S
C1107 C1108 1.396 . S
C1107 C1117 1.510 . S
C1108 C1104 1.401 . S
C1108 C1107 1.396 . S
C1109 C1104 1.499 . S
C1109 H1110 0.959 . S
C1109 H1111 0.960 . S
C1109 H1112 0.961 . S
H1110 C1109 0.959 . S
H1111 C1109 0.960 . S
H1112 C1109 0.961 . S
O1113 Co1088 1.967 . S
O1113 C1121 1.258 . S
O1114 Co1089 1.941 . S
O1114 C1121 1.266 . S
H1115 C1117 0.959 . S
H1116 C1117 0.961 . S
C1117 C1107 1.510 . S
C1117 H1115 0.959 . S
C1117 H1116 0.961 . S
C1117 H1118 0.960 . S
H1118 C1117 0.960 . S
H1119 N1099 0.862 . S
O1120 Co1088 1.920 . S
O1120 C1093 1.289 1_565 S
C1121 O1113 1.258 . S
C1121 O1114 1.266 . S
Co1122 O1125 1.970 . S
Co1122 N1139 1.989 . S
Co1122 O1147 1.967 . S
Co1122 O1154 1.920 . S
Co1123 O1126 1.966 . S
Co1123 N1132 2.022 . S
Co1123 N1140 1.993 . S
Co1123 O1148 1.941 . S
C1124 O1125 1.258 . S
C1124 O1126 1.263 . S
O1125 Co1122 1.970 . S
O1125 C1124 1.258 . S
O1126 Co1123 1.966 . S
O1126 C1124 1.263 . S
C1127 O1128 1.235 . S
C1127 O1154 1.289 . S
O1128 C1127 1.235 . S
C1129 C1131 1.400 . S
C1129 N1132 1.351 . S
C1129 C1134 1.501 . S
C1130 C1131 1.387 . S
C1130 N1133 1.341 . S
C1131 C1129 1.400 . S
C1131 C1130 1.387 . S
N1132 Co1123 2.022 . S
N1132 C1129 1.351 . S
N1132 N1133 1.365 . S
N1133 C1130 1.341 . S
N1133 N1132 1.365 . S
N1133 H1153 0.862 . S
C1134 C1129 1.501 . S
C1134 H1135 0.961 . S
C1134 H1136 0.961 . S
C1134 H1137 0.960 . S
H1135 C1134 0.961 . S
H1136 C1134 0.961 . S
H1137 C1134 0.960 . S
C1138 N1139 1.342 . S
C1138 C1142 1.401 . S
C1138 C1143 1.499 . S
N1139 Co1122 1.989 . S
N1139 C1138 1.342 . S
N1139 N1140 1.388 . S
N1140 Co1123 1.993 . S
N1140 N1139 1.388 . S
N1140 C1141 1.346 . S
C1141 N1140 1.346 . S
C1141 C1142 1.396 . S
C1141 C1151 1.510 . S
C1142 C1138 1.401 . S
C1142 C1141 1.396 . S
C1143 C1138 1.499 . S
C1143 H1144 0.959 . S
C1143 H1145 0.960 . S
C1143 H1146 0.961 . S
H1144 C1143 0.959 . S
H1145 C1143 0.960 . S
H1146 C1143 0.961 . S
O1147 Co1122 1.967 . S
O1147 C1155 1.258 . S
O1148 Co1123 1.941 . S
O1148 C1155 1.266 . S
H1149 C1151 0.959 . S
H1150 C1151 0.961 . S
C1151 C1141 1.510 . S
C1151 H1149 0.959 . S
C1151 H1150 0.961 . S
C1151 H1152 0.960 . S
H1152 C1151 0.960 . S
H1153 N1133 0.862 . S
O1154 Co1122 1.920 . S
O1154 C1127 1.289 . S
C1155 O1147 1.258 . S
C1155 O1148 1.266 . S
Co1156 O1159 1.970 . S
Co1156 N1173 1.989 . S
Co1156 O1181 1.967 . S
Co1156 O1188 1.920 . S
Co1157 O1160 1.966 . S
Co1157 N1166 2.022 . S
Co1157 N1174 1.993 . S
Co1157 O1182 1.941 . S
C1158 O1159 1.258 . S
C1158 O1160 1.263 . S
O1159 Co1156 1.970 . S
O1159 C1158 1.258 . S
O1160 Co1157 1.966 . S
O1160 C1158 1.263 . S
C1161 O1162 1.235 . S
C1161 O1188 1.289 . S
O1162 C1161 1.235 . S
C1163 C1165 1.400 . S
C1163 N1166 1.351 . S
C1163 C1168 1.501 . S
C1164 C1165 1.387 . S
C1164 N1167 1.341 . S
C1165 C1163 1.400 . S
C1165 C1164 1.387 . S
N1166 Co1157 2.022 . S
N1166 C1163 1.351 . S
N1166 N1167 1.365 . S
N1167 C1164 1.341 . S
N1167 N1166 1.365 . S
N1167 H1187 0.862 . S
C1168 C1163 1.501 . S
C1168 H1169 0.961 . S
C1168 H1170 0.961 . S
C1168 H1171 0.960 . S
H1169 C1168 0.961 . S
H1170 C1168 0.961 . S
H1171 C1168 0.960 . S
C1172 N1173 1.342 . S
C1172 C1176 1.401 . S
C1172 C1177 1.499 . S
N1173 Co1156 1.989 . S
N1173 C1172 1.342 . S
N1173 N1174 1.388 . S
N1174 Co1157 1.993 . S
N1174 N1173 1.388 . S
N1174 C1175 1.346 . S
C1175 N1174 1.346 . S
C1175 C1176 1.396 . S
C1175 C1185 1.510 . S
C1176 C1172 1.401 . S
C1176 C1175 1.396 . S
C1177 C1172 1.499 . S
C1177 H1178 0.959 . S
C1177 H1179 0.960 . S
C1177 H1180 0.961 . S
H1178 C1177 0.959 . S
H1179 C1177 0.960 . S
H1180 C1177 0.961 . S
O1181 Co1156 1.967 . S
O1181 C1189 1.258 . S
O1182 Co1157 1.941 . S
O1182 C1189 1.266 . S
H1183 C1185 0.959 . S
H1184 C1185 0.961 . S
C1185 C1175 1.510 . S
C1185 H1183 0.959 . S
C1185 H1184 0.961 . S
C1185 H1186 0.960 . S
H1186 C1185 0.960 . S
H1187 N1167 0.862 . S
O1188 Co1156 1.920 . S
O1188 C1161 1.289 . S
C1189 O1181 1.258 . S
C1189 O1182 1.266 . S
Co1190 O1193 1.970 . S
Co1190 N1207 1.989 . S
Co1190 O1215 1.967 . S
Co1190 O1222 1.920 . S
Co1191 O1194 1.966 . S
Co1191 N1200 2.022 . S
Co1191 N1208 1.993 . S
Co1191 O1216 1.941 . S
C1192 O1193 1.258 . S
C1192 O1194 1.263 . S
O1193 Co1190 1.970 . S
O1193 C1192 1.258 . S
O1194 Co1191 1.966 . S
O1194 C1192 1.263 . S
C1195 O1196 1.235 . S
C1195 O1222 1.289 . S
O1196 C1195 1.235 . S
C1197 C1199 1.400 . S
C1197 N1200 1.351 . S
C1197 C1202 1.501 . S
C1198 C1199 1.387 . S
C1198 N1201 1.341 . S
C1199 C1197 1.400 . S
C1199 C1198 1.387 . S
N1200 Co1191 2.022 . S
N1200 C1197 1.351 . S
N1200 N1201 1.365 . S
N1201 C1198 1.341 . S
N1201 N1200 1.365 . S
N1201 H1221 0.862 . S
C1202 C1197 1.501 . S
C1202 H1203 0.961 . S
C1202 H1204 0.961 . S
C1202 H1205 0.960 . S
H1203 C1202 0.961 . S
H1204 C1202 0.961 . S
H1205 C1202 0.960 . S
C1206 N1207 1.342 . S
C1206 C1210 1.401 . S
C1206 C1211 1.499 . S
N1207 Co1190 1.989 . S
N1207 C1206 1.342 . S
N1207 N1208 1.388 . S
N1208 Co1191 1.993 . S
N1208 N1207 1.388 . S
N1208 C1209 1.346 . S
C1209 N1208 1.346 . S
C1209 C1210 1.396 . S
C1209 C1219 1.510 . S
C1210 C1206 1.401 . S
C1210 C1209 1.396 . S
C1211 C1206 1.499 . S
C1211 H1212 0.959 . S
C1211 H1213 0.960 . S
C1211 H1214 0.961 . S
H1212 C1211 0.959 . S
H1213 C1211 0.960 . S
H1214 C1211 0.961 . S
O1215 Co1190 1.967 . S
O1215 C1223 1.258 . S
O1216 Co1191 1.941 . S
O1216 C1223 1.266 . S
H1217 C1219 0.959 . S
H1218 C1219 0.961 . S
C1219 C1209 1.510 . S
C1219 H1217 0.959 . S
C1219 H1218 0.961 . S
C1219 H1220 0.960 . S
H1220 C1219 0.960 . S
H1221 N1201 0.862 . S
O1222 Co1190 1.920 . S
O1222 C1195 1.289 . S
C1223 O1215 1.258 . S
C1223 O1216 1.266 . S
C135 C33 1.857 . S
C67 C169 1.857 1_565 S
C203 C101 1.857 1_655 S
C339 C237 1.857 . S
C271 C373 1.857 1_545 S
C407 C305 1.857 1_455 S
C543 C441 1.857 . S
C475 C577 1.857 . S
C611 C509 1.857 . S
C645 C747 1.857 . S
C679 C781 1.857 . S
C815 C713 1.857 . S
C951 C849 1.857 . S
C985 C883 1.857 . S
C1019 C917 1.857 . S
C1155 C1053 1.857 . S
C1087 C1189 1.857 . S
C1223 C1121 1.857 . S
C2 C988 3.082 . S
C920 C36 3.082 . S
C70 C954 3.082 . S
C444 C104 3.082 . S
C138 C478 3.082 . S
C410 C172 3.082 . S
C784 C206 3.082 . S
C716 C240 3.082 . S
C750 C274 3.082 . S
C308 C1056 3.082 . S
C1090 C342 3.082 . S
C376 C1022 3.082 . S
C852 C512 3.082 1_455 S
C886 C546 3.082 . S
C818 C580 3.082 1_565 S
C614 C1192 3.082 1_545 S
C648 C1124 3.082 1_655 S
C1158 C682 3.082 . S
C5 C617 2.924 . S
C651 C39 2.923 . S
C73 C685 2.923 . S
C1127 C107 2.924 . S
C141 C1161 2.923 . S
C1195 C175 2.923 . S
C209 C821 2.924 . S
C243 C855 2.923 . S
C277 C889 2.923 . S
C515 C311 2.924 . S
C549 C345 2.923 . S
C379 C583 2.923 . S
C413 C1025 2.924 1_455 S
C1059 C447 2.923 . S
C481 C1093 2.923 1_565 S
C923 C719 2.924 1_544 S
C753 C957 2.923 1_456 S
C991 C787 2.923 1_554 S
C247 C20 1.312 1_556 S
C54 C281 1.312 1_554 S
C88 C213 1.312 1_554 S
C122 C383 1.312 . S
C156 C315 1.312 . S
C190 C349 1.312 . S
C43 C224 1.312 1_554 S
C77 C258 1.312 1_554 S
C9 C292 1.312 1_554 S
C326 C179 1.312 . S
C360 C111 1.312 . S
C394 C145 1.312 . S
C428 C655 1.312 . S
C689 C462 1.312 . S
C621 C496 1.312 . S
C530 C791 1.312 . S
C723 C564 1.312 . S
C757 C598 1.312 . S
C632 C451 1.312 . S
C666 C485 1.312 . S
C417 C700 1.312 . S
C587 C734 1.312 . S
C519 C768 1.312 . S
C553 C802 1.312 . S
C836 C1063 1.312 . S
C1097 C870 1.312 . S
C1029 C904 1.312 . S
C938 C1199 1.312 . S
C972 C1131 1.312 . S
C1006 C1165 1.312 . S
C859 C1040 1.312 . S
C893 C1074 1.312 . S
C1108 C825 1.312 . S
C1142 C995 1.312 . S
C1176 C927 1.312 . S
C1210 C961 1.312 . S
