# Generated by pormake.
# Topology ukf, (4)-cn, num edge types: 1
# Building blocks:
#     Node 0, Type 0, BuildingBlock: ESEHIV_clean_sbu_0, # of connection points: 4
#     Node 1, Type 0, BuildingBlock: ESEHIV_clean_sbu_0, # of connection points: 4
#     Node 2, Type 0, BuildingBlock: ESEHIV_clean_sbu_0, # of connection points: 4
#     Node 3, Type 0, BuildingBlock: ESEHIV_clean_sbu_0, # of connection points: 4
#     Node 4, Type 0, BuildingBlock: ESEHIV_clean_sbu_0, # of connection points: 4
#     Node 5, Type 0, BuildingBlock: ESEHIV_clean_sbu_0, # of connection points: 4
#     Node 6, Type 0, BuildingBlock: ESEHIV_clean_sbu_0, # of connection points: 4
#     Node 7, Type 0, BuildingBlock: ESEHIV_clean_sbu_0, # of connection points: 4
#     Node 8, Type 0, BuildingBlock: ESEHIV_clean_sbu_0, # of connection points: 4
#     Node 9, Type 0, BuildingBlock: ESEHIV_clean_sbu_0, # of connection points: 4
#     Node 10, Type 0, BuildingBlock: ESEHIV_clean_sbu_0, # of connection points: 4
#     Node 11, Type 0, BuildingBlock: ESEHIV_clean_sbu_0, # of connection points: 4
#     Edge 12, Type (0, 0), BuildingBlock: ZUJKAS_clean_linker_0, # of connection points: 2
#     Edge 13, Type (0, 0), BuildingBlock: ZUJKAS_clean_linker_0, # of connection points: 2
#     Edge 14, Type (0, 0), BuildingBlock: ZUJKAS_clean_linker_0, # of connection points: 2
#     Edge 15, Type (0, 0), BuildingBlock: ZUJKAS_clean_linker_0, # of connection points: 2
#     Edge 16, Type (0, 0), BuildingBlock: ZUJKAS_clean_linker_0, # of connection points: 2
#     Edge 17, Type (0, 0), BuildingBlock: ZUJKAS_clean_linker_0, # of connection points: 2
#     Edge 18, Type (0, 0), BuildingBlock: ZUJKAS_clean_linker_0, # of connection points: 2
#     Edge 19, Type (0, 0), BuildingBlock: ZUJKAS_clean_linker_0, # of connection points: 2
#     Edge 20, Type (0, 0), BuildingBlock: ZUJKAS_clean_linker_0, # of connection points: 2
#     Edge 21, Type (0, 0), BuildingBlock: ZUJKAS_clean_linker_0, # of connection points: 2
#     Edge 22, Type (0, 0), BuildingBlock: ZUJKAS_clean_linker_0, # of connection points: 2
#     Edge 23, Type (0, 0), BuildingBlock: ZUJKAS_clean_linker_0, # of connection points: 2
#     Edge 24, Type (0, 0), BuildingBlock: ZUJKAS_clean_linker_0, # of connection points: 2
#     Edge 25, Type (0, 0), BuildingBlock: ZUJKAS_clean_linker_0, # of connection points: 2
#     Edge 26, Type (0, 0), BuildingBlock: ZUJKAS_clean_linker_0, # of connection points: 2
#     Edge 27, Type (0, 0), BuildingBlock: ZUJKAS_clean_linker_0, # of connection points: 2
#     Edge 28, Type (0, 0), BuildingBlock: ZUJKAS_clean_linker_0, # of connection points: 2
#     Edge 29, Type (0, 0), BuildingBlock: ZUJKAS_clean_linker_0, # of connection points: 2
#     Edge 30, Type (0, 0), BuildingBlock: ZUJKAS_clean_linker_0, # of connection points: 2
#     Edge 31, Type (0, 0), BuildingBlock: ZUJKAS_clean_linker_0, # of connection points: 2
#     Edge 32, Type (0, 0), BuildingBlock: ZUJKAS_clean_linker_0, # of connection points: 2
#     Edge 33, Type (0, 0), BuildingBlock: ZUJKAS_clean_linker_0, # of connection points: 2
#     Edge 34, Type (0, 0), BuildingBlock: ZUJKAS_clean_linker_0, # of connection points: 2
#     Edge 35, Type (0, 0), BuildingBlock: ZUJKAS_clean_linker_0, # of connection points: 2
# Relax obj value: 0.095
# Max RMSD: 0.292
# Mean RMSD: 0.290
data_MOF--net-ukf--node1-ESEHIV_clean_sbu_0--edge1-ZUJKAS_clean_linker_0
_symmetry_space_group_name_H-M    P1
_symmetry_Int_Tables_number       1
_symmetry_cell_setting            triclinic
loop_
_symmetry_equiv_pos_as_xyz
'x, y, z'
_cell_length_a     45.800275
_cell_length_b     45.932245
_cell_length_c     91.159437
_cell_angle_alpha  89.910898
_cell_angle_beta   90.009681
_cell_angle_gamma 119.95752
loop_
_atom_site_label
_atom_site_type_symbol
_atom_site_fract_x
_atom_site_fract_y
_atom_site_fract_z
_atom_type_partial_charge
Cu0 Cu 0.47423 0.25988 0.08029 0.0
N1 N 0.43578 0.21968 0.07528 0.0
N2 N 0.40069 0.17032 0.06485 0.0
C3 C 0.43274 0.19614 0.06562 0.0
C4 C 0.38303 0.17807 0.07438 0.0
C5 C 0.40474 0.20847 0.08078 0.0
O6 O 0.51262 0.26411 0.06953 0.0
C7 C 0.50854 0.27686 0.10777 0.0
O8 O 0.53561 0.29608 0.09999 0.0
H9 H 0.45348 0.19812 0.05917 0.0
H10 H 0.39843 0.22156 0.08892 0.0
N11 N 0.46761 0.2953 0.07491 0.0
N12 N 0.47377 0.34646 0.07252 0.0
C13 C 0.48383 0.32728 0.07975 0.0
C14 C 0.44654 0.29418 0.06436 0.0
C15 C 0.45029 0.32568 0.06285 0.0
C16 C 0.52293 0.24317 0.0708 0.0
O17 O 0.5079 0.21818 0.08015 0.0
H18 H 0.50334 0.3365 0.08804 0.0
H19 H 0.43004 0.27207 0.05804 0.0
O20 O 0.48035 0.25985 0.10132 0.0
H21 H 0.35641 0.16263 0.07674 0.0
H22 H 0.43684 0.33277 0.05519 0.0
Cu23 Cu 0.23123 0.45869 0.41359 0.0
N24 N 0.18827 0.45022 0.40861 0.0
N25 N 0.1424 0.45521 0.40644 0.0
C26 C 0.17236 0.46653 0.41324 0.0
C27 C 0.13938 0.43083 0.39726 0.0
C28 C 0.16769 0.4278 0.39864 0.0
O29 O 0.23776 0.46529 0.43458 0.0
C30 C 0.29529 0.50865 0.40322 0.0
O31 O 0.3068 0.49364 0.41181 0.0
H32 H 0.18308 0.48703 0.42103 0.0
H33 H 0.17325 0.4109 0.39259 0.0
N34 N 0.23502 0.42134 0.40864 0.0
N35 N 0.25112 0.38756 0.39821 0.0
C36 C 0.25456 0.41858 0.39831 0.0
C37 C 0.21853 0.39114 0.41521 0.0
C38 C 0.22836 0.37026 0.40882 0.0
C39 C 0.24971 0.49362 0.44091 0.0
O40 O 0.25826 0.52067 0.43301 0.0
H41 H 0.27133 0.43907 0.39122 0.0
H42 H 0.20063 0.38483 0.42406 0.0
O43 O 0.26376 0.49769 0.40268 0.0
H44 H 0.1183 0.41634 0.39001 0.0
H45 H 0.2191 0.34423 0.41169 0.0
Cu46 Cu 0.79089 0.22548 0.74738 0.0
N47 N 0.83219 0.22873 0.74301 0.0
N48 N 0.88272 0.24459 0.73321 0.0
C49 C 0.85527 0.24839 0.73296 0.0
C50 C 0.87638 0.22149 0.74376 0.0
C51 C 0.84526 0.2118 0.74976 0.0
O52 O 0.7865 0.25921 0.73637 0.0
C53 C 0.77311 0.24328 0.77463 0.0
O54 O 0.75561 0.25295 0.76663 0.0
H55 H 0.85222 0.26553 0.72583 0.0
H56 H 0.83295 0.19371 0.75848 0.0
N57 N 0.75652 0.18308 0.74181 0.0
N58 N 0.7061 0.13693 0.73923 0.0
C59 C 0.72401 0.16684 0.7461 0.0
C60 C 0.75933 0.16279 0.73199 0.0
C61 C 0.72832 0.13434 0.73037 0.0
C62 C 0.80745 0.29042 0.7377 0.0
O63 O 0.83204 0.30028 0.74728 0.0
H64 H 0.71359 0.17713 0.75381 0.0
H65 H 0.78233 0.1685 0.72632 0.0
O66 O 0.78936 0.23101 0.76838 0.0
H67 H 0.89285 0.21194 0.74685 0.0
H68 H 0.72264 0.11332 0.72327 0.0
Cu69 Cu 0.5898 0.78534 0.08023 0.0
N70 N 0.62775 0.82555 0.07477 0.0
N71 N 0.66209 0.87417 0.06356 0.0
C72 C 0.63018 0.84825 0.06475 0.0
C73 C 0.6803 0.8674 0.07321 0.0
C74 C 0.65904 0.83745 0.0801 0.0
O75 O 0.5509 0.78021 0.0696 0.0
C76 C 0.55765 0.76557 0.10811 0.0
O77 O 0.5322 0.74189 0.10076 0.0
H78 H 0.60914 0.8455 0.05828 0.0
H79 H 0.66585 0.82507 0.08841 0.0
N80 N 0.59693 0.75011 0.0751 0.0
N81 N 0.59266 0.69947 0.07353 0.0
C82 C 0.5827 0.71882 0.08073 0.0
C83 C 0.61654 0.75073 0.06402 0.0
C84 C 0.61399 0.71967 0.063 0.0
C85 C 0.5403 0.80093 0.07086 0.0
O86 O 0.55534 0.82605 0.08012 0.0
H87 H 0.56522 0.71047 0.08983 0.0
H88 H 0.63108 0.77213 0.05694 0.0
O89 O 0.58415 0.78636 0.10126 0.0
H90 H 0.707 0.88316 0.07528 0.0
H91 H 0.62614 0.71241 0.05478 0.0
Cu92 Cu 0.82404 0.57934 0.41355 0.0
N93 N 0.86566 0.58483 0.40807 0.0
N94 N 0.91112 0.57882 0.40632 0.0
C95 C 0.88226 0.5701 0.41374 0.0
C96 C 0.91238 0.59983 0.3956 0.0
C97 C 0.88443 0.60345 0.39673 0.0
O98 O 0.81829 0.57364 0.43463 0.0
C99 C 0.75813 0.53164 0.40417 0.0
O100 O 0.74856 0.54698 0.41353 0.0
H101 H 0.87306 0.55317 0.42302 0.0
H102 H 0.87779 0.61806 0.38958 0.0
N103 N 0.82305 0.61809 0.40831 0.0
N104 N 0.80954 0.65355 0.39752 0.0
C105 C 0.8028 0.62139 0.39854 0.0
C106 C 0.84337 0.64909 0.4136 0.0
C107 C 0.83515 0.67101 0.40698 0.0
C108 C 0.8057 0.54537 0.44111 0.0
O109 O 0.79587 0.51799 0.43332 0.0
H110 H 0.78339 0.60055 0.39242 0.0
H111 H 0.86299 0.65529 0.42164 0.0
O112 O 0.78931 0.54132 0.40291 0.0
H113 H 0.93151 0.61108 0.38719 0.0
H114 H 0.84755 0.69782 0.40886 0.0
Cu115 Cu 0.26697 0.81088 0.74692 0.0
N116 N 0.22793 0.81161 0.74191 0.0
N117 N 0.17808 0.79742 0.73182 0.0
C118 C 0.20242 0.78921 0.7335 0.0
C119 C 0.1889 0.82615 0.73949 0.0
C120 C 0.21965 0.83483 0.74568 0.0
O121 O 0.26461 0.77196 0.7374 0.0
C122 C 0.2829 0.79472 0.77496 0.0
O123 O 0.29759 0.78121 0.76746 0.0
H124 H 0.20173 0.76724 0.72883 0.0
H125 H 0.23508 0.85669 0.75235 0.0
N126 N 0.3039 0.84997 0.73974 0.0
N127 N 0.35575 0.89371 0.73661 0.0
C128 C 0.33491 0.86832 0.7456 0.0
C129 C 0.30508 0.86433 0.72674 0.0
C130 C 0.33699 0.89127 0.72476 0.0
C131 C 0.29037 0.77071 0.73307 0.0
O132 O 0.32061 0.796 0.73585 0.0
H133 H 0.34233 0.86241 0.75596 0.0
H134 H 0.28426 0.85538 0.71911 0.0
O135 O 0.26888 0.80867 0.76815 0.0
H136 H 0.17593 0.84035 0.74034 0.0
H137 H 0.34574 0.90771 0.71529 0.0
Cu138 Cu 0.7926 0.57939 0.62598 0.0
N139 N 0.75751 0.587 0.63094 0.0
N140 N 0.70632 0.58136 0.63309 0.0
C141 C 0.72475 0.56873 0.62719 0.0
C142 C 0.72847 0.60863 0.64079 0.0
C143 C 0.75995 0.61202 0.63944 0.0
O144 O 0.79302 0.5734 0.60495 0.0
C145 C 0.80937 0.53146 0.636 0.0
O146 O 0.83513 0.54741 0.62707 0.0
H147 H 0.71463 0.54632 0.6205 0.0
H148 H 0.78306 0.63131 0.64435 0.0
N149 N 0.83334 0.61713 0.63109 0.0
N150 N 0.88223 0.65143 0.64218 0.0
C151 C 0.85459 0.62044 0.64202 0.0
C152 C 0.84786 0.64691 0.62413 0.0
C153 C 0.87797 0.66812 0.63093 0.0
C154 C 0.77655 0.54533 0.59841 0.0
O155 O 0.75769 0.51805 0.60611 0.0
H156 H 0.84977 0.60055 0.6497 0.0
H157 H 0.83737 0.65261 0.61465 0.0
O158 O 0.78756 0.54082 0.63682 0.0
H159 H 0.72247 0.62519 0.64687 0.0
H160 H 0.8957 0.69359 0.62759 0.0
Cu161 Cu 0.23478 0.78522 0.95981 0.0
N162 N 0.2378 0.82588 0.96498 0.0
N163 N 0.2528 0.87484 0.97594 0.0
C164 C 0.25739 0.84799 0.9753 0.0
C165 C 0.22941 0.86926 0.96563 0.0
C166 C 0.22028 0.8391 0.95888 0.0
O167 O 0.26808 0.77972 0.97068 0.0
C168 C 0.2528 0.76897 0.93232 0.0
O169 O 0.26082 0.74984 0.94007 0.0
H170 H 0.27432 0.84426 0.98231 0.0
H171 H 0.20217 0.82756 0.95011 0.0
N172 N 0.1919 0.75038 0.96467 0.0
N173 N 0.146 0.69956 0.96662 0.0
C174 C 0.17722 0.71778 0.96079 0.0
C175 C 0.16932 0.75294 0.97318 0.0
C176 C 0.14101 0.7217 0.9744 0.0
C177 C 0.29942 0.80064 0.96957 0.0
O178 O 0.30963 0.82591 0.96036 0.0
H179 H 0.18946 0.70762 0.95406 0.0
H180 H 0.17324 0.77596 0.97818 0.0
O181 O 0.24143 0.78574 0.9388 0.0
H182 H 0.21995 0.88602 0.96297 0.0
H183 H 0.1184 0.71587 0.98045 0.0
Cu184 Cu 0.47347 0.22642 0.29213 0.0
N185 N 0.435 0.22893 0.29649 0.0
N186 N 0.39995 0.24425 0.30627 0.0
C187 C 0.43124 0.24818 0.3066 0.0
C188 C 0.38348 0.22147 0.2956 0.0
C189 C 0.40515 0.2121 0.28961 0.0
O190 O 0.51128 0.26067 0.30308 0.0
C191 C 0.50919 0.24589 0.26487 0.0
O192 O 0.53656 0.25745 0.27291 0.0
H193 H 0.45126 0.2652 0.31382 0.0
H194 H 0.39966 0.19438 0.28079 0.0
N195 N 0.46629 0.18438 0.29785 0.0
N196 N 0.47222 0.1393 0.30082 0.0
C197 C 0.48344 0.16892 0.29376 0.0
C198 C 0.44344 0.16387 0.30773 0.0
C199 C 0.44703 0.13608 0.3096 0.0
C200 C 0.52065 0.29171 0.30188 0.0
O201 O 0.50532 0.30112 0.29241 0.0
H202 H 0.5043 0.17964 0.2861 0.0
H203 H 0.4257 0.16905 0.31332 0.0
O204 O 0.48051 0.23189 0.2711 0.0
H205 H 0.35753 0.21199 0.2924 0.0
H206 H 0.43222 0.11511 0.31686 0.0
Cu207 Cu 0.26534 0.45796 0.62504 0.0
N208 N 0.2996 0.44873 0.62951 0.0
N209 N 0.35043 0.45342 0.63151 0.0
C210 C 0.33266 0.46753 0.62634 0.0
C211 C 0.32752 0.42464 0.63812 0.0
C212 C 0.29626 0.42184 0.63686 0.0
O213 O 0.26516 0.46517 0.60411 0.0
C214 C 0.25144 0.50742 0.63584 0.0
O215 O 0.22472 0.49223 0.62739 0.0
H216 H 0.34345 0.49133 0.62061 0.0
H217 H 0.2727 0.40165 0.64105 0.0
N218 N 0.22396 0.42074 0.62997 0.0
N219 N 0.17401 0.38713 0.64047 0.0
C220 C 0.20208 0.41783 0.64054 0.0
C221 C 0.20947 0.39096 0.62306 0.0
C222 C 0.17873 0.37017 0.62949 0.0
C223 C 0.28179 0.49362 0.59785 0.0
O224 O 0.30054 0.52043 0.6058 0.0
H225 H 0.2064 0.43803 0.64792 0.0
H226 H 0.22054 0.38489 0.61392 0.0
O227 O 0.2723 0.49681 0.63617 0.0
H228 H 0.33284 0.40665 0.64337 0.0
H229 H 0.16139 0.34446 0.62638 0.0
Cu230 Cu 0.82753 0.25982 0.95875 0.0
N231 N 0.82478 0.21913 0.96369 0.0
N232 N 0.8099 0.16979 0.97433 0.0
C233 C 0.80517 0.19656 0.9739 0.0
C234 C 0.83342 0.17589 0.964 0.0
C235 C 0.84247 0.20627 0.95745 0.0
O236 O 0.79447 0.26498 0.96997 0.0
C237 C 0.80779 0.27562 0.93151 0.0
O238 O 0.79948 0.29429 0.9394 0.0
H239 H 0.78806 0.19988 0.98096 0.0
H240 H 0.86061 0.2182 0.94871 0.0
N241 N 0.87055 0.29465 0.96339 0.0
N242 N 0.91633 0.34554 0.9654 0.0
C243 C 0.88475 0.32748 0.95992 0.0
C244 C 0.89381 0.29178 0.97126 0.0
C245 C 0.92204 0.32305 0.97252 0.0
C246 C 0.76312 0.24406 0.96891 0.0
O247 O 0.75283 0.21911 0.95955 0.0
H248 H 0.87193 0.33789 0.95374 0.0
H249 H 0.89042 0.26852 0.97581 0.0
O250 O 0.82007 0.25942 0.93781 0.0
H251 H 0.84297 0.1593 0.96118 0.0
H252 H 0.94509 0.32866 0.97812 0.0
Cu253 Cu 0.58532 0.81425 0.29327 0.0
N254 N 0.62526 0.81425 0.29702 0.0
N255 N 0.66173 0.80082 0.30683 0.0
C256 C 0.62968 0.79483 0.30681 0.0
C257 C 0.67799 0.82503 0.29663 0.0
C258 C 0.6554 0.83322 0.29059 0.0
O259 O 0.54981 0.77618 0.30361 0.0
C260 C 0.5599 0.78355 0.26575 0.0
O261 O 0.545 0.75577 0.27354 0.0
H262 H 0.60981 0.77698 0.31389 0.0
H263 H 0.6605 0.85159 0.28208 0.0
N264 N 0.58877 0.8536 0.30073 0.0
N265 N 0.58192 0.89796 0.30423 0.0
C266 C 0.57603 0.8722 0.29524 0.0
C267 C 0.60332 0.86811 0.31352 0.0
C268 C 0.59913 0.89544 0.31572 0.0
C269 C 0.52039 0.77176 0.30554 0.0
O270 O 0.51252 0.79319 0.29978 0.0
H271 H 0.56186 0.86633 0.28511 0.0
H272 H 0.61568 0.85907 0.32082 0.0
O273 O 0.57783 0.81147 0.27223 0.0
H274 H 0.7042 0.83575 0.29356 0.0
H275 H 0.6081 0.91217 0.32507 0.0
H276 H 0.22799 0.91369 0.98588 0.0
H277 H 0.25673 0.96343 1.00146 0.0
H278 H 0.34387 0.95093 1.00351 0.0
H279 H 0.31545 0.90134 0.98769 0.0
H280 H 0.28462 0.96717 0.0306 0.0
H281 H 0.38073 0.05024 0.98973 0.0
H282 H 0.34253 1.01256 0.98449 0.0
H283 H 0.37645 1.00958 0.99281 0.0
C284 C 0.25336 0.92165 0.98953 0.0
C285 C 0.26949 0.90364 0.98546 0.0
C286 C 0.26967 0.94996 0.9985 0.0
C287 C 0.30252 0.96103 1.00349 0.0
C288 C 0.31864 0.94299 0.99961 0.0
H289 H 0.43499 0.14013 0.05499 0.0
H290 H 0.41237 0.08845 0.0405 0.0
C291 C 0.30225 0.9145 0.99069 0.0
C292 C 0.31957 0.99132 1.01286 0.0
H293 H 0.38298 0.07316 1.01309 0.0
C294 C 0.3062 0.99033 0.02681 0.0
C295 C 0.34785 0.02135 1.0079 0.0
C296 C 0.36275 0.02382 0.99288 0.0
C297 C 0.32023 1.01871 0.03593 0.0
C298 C 0.34784 0.04913 0.0308 0.0
C299 C 0.36174 0.04987 1.01697 0.0
C300 C 0.36179 0.08071 0.03938 0.0
C301 C 0.3055 1.01572 0.05104 0.0
C302 C 0.34107 0.09392 0.04327 0.0
C303 C 0.3539 0.12336 0.05153 0.0
C304 C 0.38785 0.14049 0.05595 0.0
C305 C 0.4088 0.12769 0.0517 0.0
C306 C 0.39588 0.09808 0.04348 0.0
H307 H 0.29206 0.98923 0.05492 0.0
H308 H 0.32536 0.03122 0.05913 0.0
H309 H 0.287 0.02461 0.05068 0.0
H310 H 0.31494 0.0815 0.03987 0.0
H311 H 0.33727 0.1329 0.05433 0.0
H312 H 0.27817 0.41083 0.37121 0.0
H313 H 0.3054 0.38863 0.35522 0.0
H314 H 0.29007 0.31445 0.38793 0.0
H315 H 0.26325 0.3366 0.40403 0.0
H316 H 0.36262 0.3806 0.36027 0.0
H317 H 0.24587 0.25869 0.35067 0.0
H318 H 0.24534 0.29472 0.35825 0.0
H319 H 0.25579 0.26931 0.36968 0.0
C320 C 0.28083 0.39 0.37507 0.0
C321 C 0.26812 0.37531 0.38888 0.0
C322 C 0.29631 0.37728 0.36589 0.0
C323 C 0.29924 0.34956 0.3703 0.0
C324 C 0.2874 0.3354 0.38419 0.0
H325 H 0.42102 0.27091 0.33344 0.0
H326 H 0.3979 0.29839 0.34867 0.0
C327 C 0.27197 0.34807 0.39337 0.0
C328 C 0.31437 0.33515 0.36036 0.0
H329 H 0.29699 0.26336 0.34216 0.0
C330 C 0.3483 0.35502 0.35625 0.0
C331 C 0.29547 0.30191 0.35501 0.0
C332 C 0.25851 0.27995 0.35849 0.0
C333 C 0.36404 0.34225 0.34715 0.0
C334 C 0.3454 0.30863 0.34218 0.0
C335 C 0.31131 0.28903 0.34608 0.0
C336 C 0.36053 0.29328 0.33277 0.0
C337 C 0.4003 0.36496 0.34275 0.0
C338 C 0.34689 0.28081 0.31888 0.0
C339 C 0.35999 0.26502 0.31017 0.0
C340 C 0.38693 0.26117 0.3152 0.0
C341 C 0.40063 0.27384 0.32912 0.0
C342 C 0.38746 0.28962 0.33785 0.0
H343 H 0.40821 0.3919 0.34429 0.0
H344 H 0.41673 0.35923 0.34967 0.0
H345 H 0.40443 0.3609 0.33111 0.0
H346 H 0.32607 0.28332 0.31476 0.0
H347 H 0.34911 0.25606 0.29944 0.0
H348 H 0.94535 0.25604 0.73983 0.0
H349 H 0.99554 0.28323 0.72438 0.0
H350 H 0.93885 0.29948 0.69082 0.0
H351 H 0.88832 0.27201 0.70617 0.0
H352 H 1.00366 0.26322 0.69673 0.0
H353 H 1.02313 0.39258 0.69525 0.0
H354 H 0.99594 0.36155 0.70849 0.0
H355 H 0.98158 0.36032 0.69003 0.0
C356 C 0.94341 0.26525 0.72915 0.0
C357 C 0.91266 0.26169 0.72425 0.0
C358 C 0.97224 0.281 0.72037 0.0
C359 C 0.97105 0.29374 0.70653 0.0
C360 C 0.94052 0.29047 0.7016 0.0
H361 H 0.11031 0.33729 0.63463 0.0
H362 H 0.06153 0.31533 0.65088 0.0
C363 C 0.91162 0.2747 0.71039 0.0
C364 C 1.00142 0.30893 0.69702 0.0
H365 H 0.05688 0.38105 0.67909 0.0
C366 C 1.01535 0.28901 0.69291 0.0
C367 C 1.01685 0.3427 0.69219 0.0
C368 C 1.00386 0.3657 0.6968 0.0
C369 C 0.04396 0.30174 0.68389 0.0
C370 C 0.05878 0.33517 0.67868 0.0
C371 C 0.04527 0.35534 0.683 0.0
C372 C 0.08824 0.34944 0.66867 0.0
C373 C 0.05834 0.27942 0.68013 0.0
C374 C 0.11927 0.37651 0.67314 0.0
C375 C 0.14738 0.3891 0.66388 0.0
C376 C 0.14489 0.37493 0.64993 0.0
C377 C 0.11344 0.34833 0.64539 0.0
C378 C 0.08544 0.33578 0.65465 0.0
H379 H 0.04932 0.25777 0.6878 0.0
H380 H 0.05035 0.26934 0.66889 0.0
H381 H 0.08632 0.29377 0.68039 0.0
H382 H 0.1219 0.38746 0.68392 0.0
H383 H 0.17115 0.40942 0.66779 0.0
H384 H 0.62736 0.90369 0.05345 0.0
H385 H 0.64885 0.95337 0.03757 0.0
H386 H 0.74612 0.96005 0.03645 0.0
H387 H 0.72478 0.9103 0.0521 0.0
H388 H 0.70686 1.01965 0.0435 0.0
H389 H 0.72135 0.96182 0.9926 0.0
H390 H 0.69483 0.93722 1.00767 0.0
H391 H 0.73971 0.95485 1.0087 0.0
C392 C 0.65319 0.91551 0.04968 0.0
C393 C 0.67435 0.90301 0.05403 0.0
C394 C 0.66547 0.94398 0.04069 0.0
C395 C 0.69895 0.96012 0.03574 0.0
C396 C 0.72008 0.94769 0.04002 0.0
H397 H 0.83465 0.13052 0.98385 0.0
H398 H 0.80569 0.07992 0.99893 0.0
C399 C 0.70793 0.91944 0.04907 0.0
C400 C 0.71228 0.9905 0.02638 0.0
H401 H 0.74726 0.02136 0.99284 0.0
C402 C 0.7154 1.02005 0.03236 0.0
C403 C 0.72338 0.99081 1.01188 0.0
C404 C 0.71944 0.95944 1.00474 0.0
C405 C 0.73061 0.05034 0.02441 0.0
C406 C 0.74232 0.05082 1.00999 0.0
C407 C 0.73841 0.021 1.00391 0.0
C408 C 0.75981 0.08213 1.00117 0.0
C409 C 0.73517 0.0818 0.03173 0.0
C410 C 0.7436 0.10018 0.99736 0.0
C411 C 0.76018 0.12923 0.98874 0.0
C412 C 0.79311 0.14052 0.98362 0.0
C413 C 0.80919 0.12232 0.98746 0.0
C414 C 0.7927 0.09344 0.99613 0.0
H415 H 0.73255 0.07893 0.04384 0.0
H416 H 0.76026 0.10367 0.02913 0.0
H417 H 0.71561 0.08731 0.02765 0.0
H418 H 0.71795 0.0915 1.00084 0.0
H419 H 0.7469 0.14236 0.98579 0.0
H420 H 0.62793 0.73888 0.31937 0.0
H421 H 0.65147 0.71203 0.33474 0.0
H422 H 0.75049 0.79881 0.33 0.0
H423 H 0.72717 0.826 0.31471 0.0
H424 H 0.74904 0.73773 0.32572 0.0
H425 H 0.68385 0.7365 0.3773 0.0
H426 H 0.65651 0.71756 0.36183 0.0
H427 H 0.68649 0.7618 0.36163 0.0
C428 C 0.65465 0.75248 0.32171 0.0
C429 C 0.67559 0.78476 0.31583 0.0
C430 C 0.66807 0.73704 0.33051 0.0
C431 C 0.70265 0.75361 0.33368 0.0
C432 C 0.7237 0.7856 0.32771 0.0
H433 H 0.80745 0.7111 0.40152 0.0
H434 H 0.78126 0.73418 0.38557 0.0
C435 C 0.71033 0.80106 0.31891 0.0
C436 C 0.71706 0.7375 0.34307 0.0
H437 H 0.71483 0.70788 0.37769 0.0
C438 C 0.74157 0.73117 0.33708 0.0
C439 C 0.70748 0.72927 0.35793 0.0
C440 C 0.68236 0.73686 0.36514 0.0
C441 C 0.75674 0.71674 0.34554 0.0
C442 C 0.74672 0.70794 0.36032 0.0
C443 C 0.72226 0.71437 0.36632 0.0
C444 C 0.76233 0.69338 0.36995 0.0
C445 C 0.78397 0.71186 0.33867 0.0
C446 C 0.76007 0.66252 0.36657 0.0
C447 C 0.77541 0.64936 0.3756 0.0
C448 C 0.79312 0.6667 0.38828 0.0
C449 C 0.79467 0.6973 0.39174 0.0
C450 C 0.77943 0.71045 0.38269 0.0
H451 H 0.7944 0.72731 0.32859 0.0
H452 H 0.80491 0.71843 0.3465 0.0
H453 H 0.77321 0.68508 0.33557 0.0
H454 H 0.74644 0.64858 0.35694 0.0
H455 H 0.77374 0.62585 0.37251 0.0
H456 H 0.9253 0.71642 0.64937 0.0
H457 H 0.97521 0.73785 0.66491 0.0
H458 H 0.95427 0.63669 0.67292 0.0
H459 H 0.90435 0.61494 0.65723 0.0
H460 H 0.97173 0.67716 0.69841 0.0
H461 H 0.06354 0.74073 0.65337 0.0
H462 H 0.03143 0.75222 0.65448 0.0
H463 H 1.02001 0.7097 0.65006 0.0
C464 C 0.93139 0.69867 0.6543 0.0
C465 C 0.91089 0.66393 0.6519 0.0
C466 C 0.95995 0.71099 0.6632 0.0
C467 C 0.96876 0.6889 0.66985 0.0
C468 C 0.94797 0.65418 0.66782 0.0
H469 H 0.16601 0.75515 0.70886 0.0
H470 H 0.11435 0.72593 0.69441 0.0
C471 C 0.91935 0.64179 0.6589 0.0
C472 C 0.99966 0.70219 0.67894 0.0
H473 H 0.08498 0.75402 0.67771 0.0
C474 C 0.99653 0.69379 0.69388 0.0
C475 C 0.03203 0.72345 0.67295 0.0
C476 C 0.03712 0.73185 0.65681 0.0
C477 C 1.02486 0.70697 0.70312 0.0
C478 C 0.05705 0.72949 0.69727 0.0
C479 C 0.06025 0.73703 0.68222 0.0
C480 C 0.08773 0.74595 0.70655 0.0
C481 C 1.02009 0.69645 0.71902 0.0
C482 C 0.09003 0.76706 0.71814 0.0
C483 C 0.11948 0.78365 0.7265 0.0
C484 C 0.14739 0.77969 0.72338 0.0
C485 C 0.14495 0.75847 0.71174 0.0
C486 C 0.11547 0.74188 0.7034 0.0
H487 H 0.99626 0.67235 0.72076 0.0
H488 H 0.04143 0.69366 0.72307 0.0
H489 H 1.01887 0.71598 0.72572 0.0
H490 H 0.0692 0.77112 0.7206 0.0
H491 H 0.12027 0.7995 0.73543 0.0
H492 H 0.6954 0.20025 0.97136 0.0
H493 H 0.65595 0.20273 0.98867 0.0
H494 H 0.73606 0.29556 1.00622 0.0
H495 H 0.77586 0.29304 0.98911 0.0
H496 H 0.69866 0.2502 0.02776 0.0
H497 H 0.61476 0.26336 0.98775 0.0
H498 H 0.62002 0.2278 0.98428 0.0
H499 H 0.65563 0.26958 0.98276 0.0
C500 C 0.7046 0.22138 0.9788 0.0
C501 C 0.73878 0.2465 0.97881 0.0
C502 C 0.68196 0.22283 0.98865 0.0
C503 C 0.69296 0.24957 0.9986 0.0
C504 C 0.72701 0.27477 0.99859 0.0
H505 H 0.56039 0.29278 0.05099 0.0
H506 H 0.60316 0.29558 0.0341 0.0
C507 C 0.7497 0.2733 0.98878 0.0
C508 C 0.66924 0.25058 1.0094 0.0
H509 H 0.59515 0.251 1.01242 0.0
C510 C 0.67611 0.25056 0.02441 0.0
C511 C 0.64007 0.25148 1.00502 0.0
C512 C 0.63227 0.25339 0.98908 0.0
C513 C 0.65423 0.25072 0.03517 0.0
C514 C 0.62439 0.25028 0.03078 0.0
C515 C 0.61788 0.25101 1.01577 0.0
C516 C 0.59955 0.24914 0.04155 0.0
C517 C 0.66353 0.25182 0.05112 0.0
C518 C 0.58327 0.22208 0.05136 0.0
C519 C 0.55888 0.22046 0.06109 0.0
C520 C 0.55008 0.24574 0.06109 0.0
C521 C 0.56657 0.2729 0.0513 0.0
C522 C 0.591 0.27453 0.04161 0.0
H523 H 0.69095 0.26146 0.05252 0.0
H524 H 0.65647 0.2679 0.05754 0.0
H525 H 0.6498 0.22602 0.05574 0.0
H526 H 0.58894 0.20184 0.05129 0.0
H527 H 0.5465 0.19908 0.0684 0.0
H528 H 0.36264 0.53286 0.39865 0.0
H529 H 0.40015 0.57807 0.38198 0.0
H530 H 0.31798 0.59321 0.36935 0.0
H531 H 0.28029 0.54817 0.38597 0.0
H532 H 0.38963 0.58024 0.35054 0.0
H533 H 0.39604 0.6886 0.38056 0.0
H534 H 0.38294 0.64855 0.38924 0.0
H535 H 0.35445 0.65366 0.37742 0.0
C536 C 0.35259 0.54599 0.39242 0.0
C537 C 0.31848 0.53694 0.39366 0.0
C538 C 0.37405 0.57174 0.38288 0.0
C539 C 0.36188 0.58913 0.37456 0.0
C540 C 0.32795 0.58038 0.37584 0.0
H541 H 0.45478 0.75352 0.31156 0.0
H542 H 0.41535 0.70803 0.32765 0.0
C543 C 0.30643 0.55453 0.3853 0.0
C544 C 0.38436 0.61563 0.36412 0.0
H545 H 0.42151 0.69973 0.35711 0.0
C546 C 0.39673 0.6064 0.35198 0.0
C547 C 0.39326 0.64962 0.36599 0.0
C548 C 0.38125 0.66092 0.37905 0.0
C549 C 0.41757 0.63027 0.34154 0.0
C550 C 0.42689 0.6644 0.3435 0.0
C551 C 0.41431 0.67356 0.35561 0.0
C552 C 0.45037 0.69115 0.33334 0.0
C553 C 0.42883 0.61858 0.32835 0.0
C554 C 0.48318 0.69687 0.33127 0.0
C555 C 0.50566 0.72266 0.32204 0.0
C556 C 0.49593 0.74356 0.31481 0.0
C557 C 0.46305 0.73784 0.31693 0.0
C558 C 0.44051 0.7119 0.32613 0.0
H559 H 0.41178 0.59138 0.32622 0.0
H560 H 0.42984 0.63293 0.31836 0.0
H561 H 0.45443 0.62252 0.33041 0.0
H562 H 0.49162 0.68172 0.33699 0.0
H563 H 0.53087 0.72652 0.32076 0.0
H564 H 0.7592 0.27854 0.71713 0.0
H565 H 0.75788 0.31868 0.69988 0.0
H566 H 0.85025 0.39788 0.71829 0.0
H567 H 0.85153 0.35804 0.73576 0.0
H568 H 0.80262 0.41714 0.71358 0.0
H569 H 0.81858 0.35671 0.66391 0.0
H570 H 0.78345 0.32896 0.67521 0.0
H571 H 0.82561 0.34643 0.68221 0.0
C572 C 0.7792 0.30451 0.71756 0.0
C573 C 0.8056 0.31503 0.72777 0.0
C574 C 0.77851 0.32738 0.70762 0.0
C575 C 0.80431 0.36112 0.70761 0.0
C576 C 0.8302 0.3719 0.71805 0.0
H577 H 0.85495 0.50988 0.63908 0.0
H578 H 0.85296 0.46835 0.65649 0.0
C579 C 0.83088 0.34908 0.72802 0.0
C580 C 0.80438 0.38524 0.69675 0.0
H581 H 0.80676 0.40087 0.65999 0.0
C582 C 0.80354 0.41362 0.70186 0.0
C583 C 0.80605 0.38081 0.68147 0.0
C584 C 0.8088 0.35177 0.67534 0.0
C585 C 0.80398 0.43753 0.69211 0.0
C586 C 0.80466 0.43259 0.67682 0.0
C587 C 0.80587 0.40441 0.67171 0.0
C588 C 0.80505 0.45688 0.66595 0.0
C589 C 0.80447 0.46824 0.69829 0.0
C590 C 0.77841 0.46367 0.66527 0.0
C591 C 0.77951 0.48747 0.65536 0.0
C592 C 0.80716 0.50473 0.64585 0.0
C593 C 0.83332 0.49711 0.64626 0.0
C594 C 0.83223 0.47338 0.65621 0.0
H595 H 0.81263 0.47254 0.70994 0.0
H596 H 0.82157 0.49105 0.69185 0.0
H597 H 0.7787 0.46472 0.69775 0.0
H598 H 0.75682 0.45067 0.67246 0.0
H599 H 0.75882 0.49255 0.65527 0.0
H600 H 0.36717 0.84437 0.97199 0.0
H601 H 0.40667 0.84141 0.98913 0.0
H602 H 0.32666 0.74798 1.00639 0.0
H603 H 0.28682 0.75097 0.98945 0.0
H604 H 0.36376 0.79266 0.02806 0.0
H605 H 0.4483 0.78122 0.98786 0.0
H606 H 0.44291 0.81679 0.98457 0.0
H607 H 0.40741 0.77499 0.9829 0.0
C608 C 0.358 0.823 0.97933 0.0
C609 C 0.32383 0.79786 0.97932 0.0
C610 C 0.38068 0.82128 0.98907 0.0
C611 C 0.36972 0.79424 0.9989 0.0
C612 C 0.33568 0.769 0.99886 0.0
H613 H 0.50325 0.7514 0.05102 0.0
H614 H 0.46027 0.74832 0.03417 0.0
C615 C 0.31296 0.77073 0.98914 0.0
C616 C 0.39343 0.79302 1.00965 0.0
H617 H 0.4678 0.79312 1.01256 0.0
C618 C 0.38642 0.79256 0.02468 0.0
C619 C 0.42274 0.79246 1.00522 0.0
C620 C 0.43069 0.79105 0.98926 0.0
C621 C 0.40832 0.7923 0.0354 0.0
C622 C 0.43833 0.79313 0.03096 0.0
C623 C 0.44495 0.79283 1.01594 0.0
C624 C 0.46327 0.79437 0.04171 0.0
C625 C 0.39889 0.79072 0.05136 0.0
C626 C 0.47928 0.82131 0.05155 0.0
C627 C 0.50378 0.82309 0.06126 0.0
C628 C 0.51298 0.7981 0.0612 0.0
C629 C 0.49675 0.77105 0.05137 0.0
C630 C 0.47221 0.76926 0.04171 0.0
H631 H 0.37141 0.78075 0.05276 0.0
H632 H 0.40617 0.77468 0.05771 0.0
H633 H 0.41234 0.81642 0.05605 0.0
H634 H 0.47331 0.84135 0.05154 0.0
H635 H 0.51594 0.84439 0.0686 0.0
H636 H 0.55814 0.28081 0.32222 0.0
H637 H 0.59871 0.32114 0.33964 0.0
H638 H 0.58216 0.39879 0.3219 0.0
H639 H 0.54192 0.35878 0.30426 0.0
H640 H 0.64947 0.42026 0.32645 0.0
H641 H 0.57434 0.35616 0.37603 0.0
H642 H 0.58285 0.32961 0.36449 0.0
H643 H 0.55699 0.34599 0.35775 0.0
C644 C 0.56318 0.30649 0.32198 0.0
C645 C 0.54662 0.31652 0.31189 0.0
C646 C 0.58622 0.32945 0.33202 0.0
C647 C 0.59294 0.36279 0.33226 0.0
C648 C 0.57715 0.37311 0.32196 0.0
H649 H 0.69059 0.50937 0.40181 0.0
H650 H 0.65066 0.46839 0.38435 0.0
C651 C 0.55417 0.3502 0.31188 0.0
C652 C 0.61656 0.38698 0.3432 0.0
H653 H 0.63006 0.4011 0.38002 0.0
C654 C 0.64522 0.41612 0.33816 0.0
C655 C 0.61068 0.38176 0.35848 0.0
C656 C 0.5794 0.35186 0.36455 0.0
C657 C 0.66846 0.43995 0.34798 0.0
C658 C 0.66318 0.43416 0.36326 0.0
C659 C 0.63424 0.40529 0.3683 0.0
C660 C 0.68719 0.45803 0.37418 0.0
C661 C 0.69812 0.47141 0.3419 0.0
C662 C 0.72077 0.4652 0.37448 0.0
C663 C 0.74365 0.48865 0.38441 0.0
C664 C 0.73333 0.5052 0.39433 0.0
C665 C 0.6994 0.49716 0.39431 0.0
C666 C 0.67654 0.47375 0.38433 0.0
H667 H 0.69373 0.47621 0.33038 0.0
H668 H 0.70353 0.49368 0.34863 0.0
H669 H 0.72075 0.4685 0.34205 0.0
H670 H 0.72934 0.45278 0.36697 0.0
H671 H 0.76953 0.49403 0.3842 0.0
H672 H 0.20684 0.52921 0.6415 0.0
H673 H 0.21427 0.574 0.65829 0.0
H674 H 0.31417 0.59348 0.66889 0.0
H675 H 0.30701 0.54869 0.65219 0.0
H676 H 0.23264 0.57741 0.69018 0.0
H677 H 0.32375 0.68701 0.65682 0.0
H678 H 0.29602 0.64636 0.64882 0.0
H679 H 0.33236 0.65306 0.65902 0.0
C680 C 0.23049 0.54316 0.64732 0.0
C681 C 0.25636 0.53542 0.64549 0.0
C682 C 0.23463 0.56866 0.65693 0.0
C683 C 0.26482 0.5871 0.66472 0.0
C684 C 0.2908 0.57969 0.66285 0.0
H685 H 0.33923 0.75671 0.72441 0.0
H686 H 0.33267 0.71081 0.70862 0.0
C687 C 0.28661 0.55404 0.65334 0.0
C688 C 0.26883 0.61352 0.67514 0.0
H689 H 0.31146 0.69833 0.68055 0.0
C690 C 0.24979 0.60388 0.6881 0.0
C691 C 0.29144 0.6479 0.67239 0.0
C692 C 0.31199 0.65944 0.65848 0.0
C693 C 0.25304 0.6278 0.69853 0.0
C694 C 0.27529 0.66233 0.69569 0.0
C695 C 0.29443 0.67188 0.68272 0.0
C696 C 0.2788 0.68906 0.7059 0.0
C697 C 0.23319 0.61574 0.71262 0.0
C698 C 0.25072 0.69213 0.70962 0.0
C699 C 0.25434 0.71814 0.71876 0.0
C700 C 0.28623 0.74194 0.72417 0.0
C701 C 0.31432 0.73879 0.72044 0.0
C702 C 0.31062 0.7126 0.7114 0.0
H703 H 0.22585 0.58923 0.71504 0.0
H704 H 0.24782 0.6316 0.72205 0.0
H705 H 0.20973 0.61704 0.71156 0.0
H706 H 0.22607 0.67482 0.70522 0.0
H707 H 0.23224 0.72004 0.72128 0.0
H708 H 0.56488 0.30702 0.12517 0.0
H709 H 0.56797 0.30188 0.15181 0.0
H710 H 0.46016 0.23693 0.15356 0.0
H711 H 0.45685 0.24144 0.12701 0.0
H712 H 0.53774 0.31854 0.17414 0.0
H713 H 0.49404 0.1822 0.17538 0.0
H714 H 0.50729 0.2066 0.15868 0.0
H715 H 0.46566 0.19196 0.16589 0.0
C716 C 0.54184 0.29155 0.13121 0.0
C717 C 0.51065 0.27445 0.12393 0.0
C718 C 0.54366 0.28866 0.14644 0.0
C719 C 0.51438 0.26852 0.15464 0.0
C720 C 0.48318 0.25194 0.14742 0.0
H721 H 0.45736 0.22135 0.24515 0.0
H722 H 0.46086 0.22794 0.2185 0.0
C723 C 0.48133 0.25473 0.13223 0.0
C724 C 0.51621 0.26533 0.17077 0.0
H725 H 0.49552 0.2078 0.19833 0.0
C726 C 0.52886 0.29439 0.17943 0.0
C727 C 0.50465 0.23379 0.17765 0.0
C728 C 0.49245 0.2019 0.16892 0.0
C729 C 0.52916 0.29261 0.19482 0.0
C730 C 0.51688 0.26097 0.20169 0.0
C731 C 0.50481 0.232 0.19303 0.0
C732 C 0.51528 0.25721 0.21787 0.0
C733 C 0.54155 0.3244 0.20364 0.0
C734 C 0.54479 0.27118 0.22635 0.0
C735 C 0.54292 0.26739 0.24162 0.0
C736 C 0.51147 0.24953 0.24868 0.0
C737 C 0.482 0.23534 0.2401 0.0
C738 C 0.48392 0.23903 0.22486 0.0
H739 H 0.54374 0.34552 0.19686 0.0
H740 H 0.52436 0.32027 0.21299 0.0
H741 H 0.56682 0.33188 0.20818 0.0
H742 H 0.56927 0.28486 0.22114 0.0
H743 H 0.56609 0.27855 0.24789 0.0
H744 H 0.27917 0.55033 0.45797 0.0
H745 H 0.28764 0.55362 0.4846 0.0
H746 H 0.23839 0.44553 0.48696 0.0
H747 H 0.23038 0.442 0.46043 0.0
H748 H 0.24121 0.52721 0.50712 0.0
H749 H 0.32598 0.47363 0.50855 0.0
H750 H 0.31597 0.48764 0.49176 0.0
H751 H 0.28699 0.44701 0.49929 0.0
C752 C 0.27023 0.52727 0.46416 0.0
C753 C 0.25433 0.49592 0.45705 0.0
C754 C 0.27509 0.5292 0.47937 0.0
C755 C 0.26424 0.49986 0.48773 0.0
C756 C 0.24775 0.46854 0.48069 0.0
H757 H 0.24933 0.44239 0.57823 0.0
H758 H 0.24635 0.44639 0.5516 0.0
C759 C 0.24301 0.46658 0.46551 0.0
C760 C 0.26945 0.50177 0.50385 0.0
H761 H 0.30284 0.47725 0.5315 0.0
C762 C 0.255 0.51664 0.51245 0.0
C763 C 0.28756 0.48807 0.51078 0.0
C764 C 0.30531 0.47349 0.50211 0.0
C765 C 0.25712 0.51703 0.52784 0.0
C766 C 0.27442 0.50247 0.53475 0.0
C767 C 0.28945 0.48824 0.52615 0.0
C768 C 0.2762 0.50062 0.55093 0.0
C769 C 0.23992 0.53198 0.53663 0.0
C770 C 0.29424 0.52983 0.55936 0.0
C771 C 0.29612 0.52766 0.57462 0.0
C772 C 0.27997 0.49621 0.5817 0.0
C773 C 0.262 0.46703 0.57316 0.0
C774 C 0.26028 0.46923 0.55794 0.0
H775 H 0.2225 0.53654 0.5298 0.0
H776 H 0.22549 0.51516 0.54588 0.0
H777 H 0.25925 0.55635 0.54132 0.0
H778 H 0.3071 0.55427 0.55412 0.0
H779 H 0.31023 0.55061 0.58086 0.0
H780 H 0.77778 0.30265 0.91451 0.0
H781 H 0.76845 0.29698 0.88794 0.0
H782 H 0.8174 0.23768 0.8855 0.0
H783 H 0.82626 0.24265 0.91198 0.0
H784 H 0.81434 0.31642 0.86524 0.0
H785 H 0.72931 0.17844 0.86429 0.0
H786 H 0.73975 0.20259 0.88101 0.0
H787 H 0.76852 0.19071 0.87338 0.0
C788 C 0.78645 0.2883 0.90833 0.0
C789 C 0.80255 0.2729 0.9154 0.0
C790 C 0.7811 0.2851 0.89314 0.0
C791 C 0.79163 0.26636 0.88478 0.0
C792 C 0.80827 0.25153 0.89178 0.0
H793 H 0.80409 0.22252 0.79425 0.0
H794 H 0.80707 0.22909 0.82089 0.0
C795 C 0.81351 0.25459 0.90693 0.0
C796 C 0.78605 0.26291 0.86868 0.0
H797 H 0.75188 0.20489 0.84122 0.0
C798 C 0.80036 0.29207 0.85998 0.0
C799 C 0.76772 0.2311 0.86185 0.0
C800 C 0.75015 0.19895 0.87062 0.0
C801 C 0.79791 0.29021 0.84461 0.0
C802 C 0.78034 0.25837 0.83779 0.0
C803 C 0.76545 0.22926 0.84649 0.0
C804 C 0.77819 0.25461 0.82161 0.0
C805 C 0.81509 0.32223 0.83574 0.0
C806 C 0.76062 0.26647 0.8132 0.0
C807 C 0.75877 0.2627 0.79793 0.0
C808 C 0.77446 0.24695 0.79082 0.0
C809 C 0.79179 0.23486 0.79934 0.0
C810 C 0.79351 0.23854 0.81458 0.0
H811 H 0.833 0.34407 0.84246 0.0
H812 H 0.82898 0.31953 0.82634 0.0
H813 H 0.79578 0.32767 0.83126 0.0
H814 H 0.74818 0.27849 0.81845 0.0
H815 H 0.74514 0.2722 0.7917 0.0
H816 H 0.50939 0.72034 0.1268 0.0
H817 H 0.50769 0.72374 0.1536 0.0
H818 H 0.6002 0.81895 0.15278 0.0
H819 H 0.60227 0.81579 0.12605 0.0
H820 H 0.56281 0.73234 0.17377 0.0
H821 H 0.53143 0.83449 0.17763 0.0
H822 H 0.52304 0.80905 0.16137 0.0
H823 H 0.56521 0.84164 0.16539 0.0
C824 C 0.52927 0.7421 0.13231 0.0
C825 C 0.55594 0.76781 0.12428 0.0
C826 C 0.52827 0.74396 0.14761 0.0
C827 C 0.55363 0.77174 0.15512 0.0
C828 C 0.58017 0.79751 0.14716 0.0
H829 H 0.59646 0.83386 0.24603 0.0
H830 H 0.59432 0.83024 0.21924 0.0
C831 C 0.58136 0.79556 0.13189 0.0
C832 C 0.55307 0.7733 0.17133 0.0
H833 H 0.54468 0.81682 0.19979 0.0
C834 C 0.55864 0.75063 0.1795 0.0
C835 C 0.54796 0.79744 0.1787 0.0
C836 C 0.54133 0.82197 0.17038 0.0
C837 C 0.5599 0.75186 0.19489 0.0
C838 C 0.55443 0.7758 0.20232 0.0
C839 C 0.54876 0.79842 0.19411 0.0
C840 C 0.55491 0.77806 0.21859 0.0
C841 C 0.56816 0.7282 0.20299 0.0
C842 C 0.53297 0.75017 0.22715 0.0
C843 C 0.53436 0.75206 0.24246 0.0
C844 C 0.55733 0.78208 0.24953 0.0
C845 C 0.57849 0.81034 0.24093 0.0
C846 C 0.57731 0.80831 0.22561 0.0
H847 H 0.58117 0.71874 0.19579 0.0
H848 H 0.58442 0.74064 0.21265 0.0
H849 H 0.54445 0.70619 0.2069 0.0
H850 H 0.51481 0.72684 0.22199 0.0
H851 H 0.51745 0.72995 0.24875 0.0
H852 H 0.74836 0.48937 0.58088 0.0
H853 H 0.75339 0.48706 0.5542 0.0
H854 H 0.81439 0.59507 0.55268 0.0
H855 H 0.81005 0.59761 0.57928 0.0
H856 H 0.73414 0.51523 0.53216 0.0
H857 H 0.8722 0.56619 0.53026 0.0
H858 H 0.84831 0.55195 0.54708 0.0
H859 H 0.8606 0.59298 0.53986 0.0
C860 C 0.76296 0.51263 0.57487 0.0
C861 C 0.779 0.54365 0.58224 0.0
C862 C 0.76579 0.51125 0.55962 0.0
C863 C 0.7848 0.54084 0.55147 0.0
C864 C 0.80031 0.57185 0.55877 0.0
H865 H 0.82752 0.59757 0.46047 0.0
H866 H 0.82141 0.59463 0.48716 0.0
C867 C 0.79761 0.57326 0.57399 0.0
C868 C 0.78784 0.53947 0.5353 0.0
H869 H 0.84525 0.5631 0.50746 0.0
C870 C 0.75839 0.52539 0.52676 0.0
C871 C 0.81952 0.55269 0.52827 0.0
C872 C 0.85194 0.56651 0.53684 0.0
C873 C 0.75986 0.52514 0.51136 0.0
C874 C 0.79159 0.53899 0.50435 0.0
C875 C 0.82098 0.55262 0.51288 0.0
C876 C 0.79492 0.54033 0.48815 0.0
C877 C 0.72757 0.51101 0.50269 0.0
C878 C 0.78233 0.51074 0.47986 0.0
C879 C 0.78587 0.51231 0.46458 0.0
C880 C 0.80208 0.54352 0.45731 0.0
C881 C 0.81481 0.5731 0.46569 0.0
C882 C 0.81139 0.5715 0.48095 0.0
H883 H 0.70607 0.50766 0.50956 0.0
H884 H 0.73047 0.52767 0.4933 0.0
H885 H 0.72135 0.4861 0.49822 0.0
H886 H 0.76999 0.48644 0.48523 0.0
H887 H 0.77586 0.48906 0.45848 0.0
H888 H 0.23469 0.80288 0.91307 0.0
H889 H 0.24125 0.80647 0.88643 0.0
H890 H 0.28746 0.74458 0.88825 0.0
H891 H 0.28043 0.74029 0.91493 0.0
H892 H 0.29912 0.83201 0.86992 0.0
H893 H 0.21468 0.69688 0.85739 0.0
H894 H 0.21537 0.71468 0.87511 0.0
H895 H 0.2476 0.70498 0.87023 0.0
C896 C 0.24613 0.78987 0.90782 0.0
C897 C 0.25689 0.77113 0.91615 0.0
C898 C 0.24989 0.792 0.89258 0.0
C899 C 0.26439 0.7754 0.88532 0.0
C900 C 0.27552 0.75698 0.89359 0.0
H901 H 0.30754 0.76421 0.79297 0.0
H902 H 0.30466 0.76052 0.81978 0.0
C903 C 0.27165 0.75472 0.90885 0.0
C904 C 0.26845 0.77809 0.86912 0.0
H905 H 0.24593 0.73201 0.83753 0.0
C906 C 0.28745 0.81015 0.86283 0.0
C907 C 0.25323 0.74954 0.8599 0.0
C908 C 0.23131 0.71459 0.86595 0.0
C909 C 0.29184 0.81442 0.84758 0.0
C910 C 0.27645 0.7859 0.83836 0.0
C911 C 0.25775 0.75382 0.84464 0.0
C912 C 0.27885 0.78887 0.82215 0.0
C913 C 0.31326 0.8494 0.84146 0.0
C914 C 0.26504 0.8058 0.81459 0.0
C915 C 0.2666 0.80795 0.79928 0.0
C916 C 0.2819 0.79305 0.79121 0.0
C917 C 0.29567 0.77605 0.79883 0.0
C918 C 0.29402 0.77387 0.81415 0.0
H919 H 0.33011 0.86721 0.84995 0.0
H920 H 0.3289 0.84941 0.83216 0.0
H921 H 0.29661 0.85874 0.83737 0.0
H922 H 0.25266 0.81702 0.82053 0.0
H923 H 0.2556 0.82109 0.79378 0.0
H924 H 0.62228 0.66461 0.06347 0.0
H925 H 0.60105 0.60459 0.06555 0.0
H926 H 0.51785 0.59371 0.09177 0.0
H927 H 0.53774 0.65353 0.08906 0.0
H928 H 0.59001 0.56345 0.08824 0.0
H929 H 0.46885 0.52583 0.06004 0.0
H930 H 0.50288 0.56876 0.06048 0.0
H931 H 0.47561 0.55091 0.07611 0.0
C932 C 0.59922 0.64961 0.06953 0.0
C933 C 0.58149 0.66423 0.07583 0.0
C934 C 0.58728 0.61518 0.07084 0.0
C935 C 0.55745 0.59445 0.07855 0.0
C936 C 0.54045 0.60903 0.08544 0.0
H937 H 0.49604 0.38318 0.09747 0.0
H938 H 0.5161 0.4434 0.10019 0.0
C939 C 0.55218 0.64349 0.08401 0.0
C940 C 0.54405 0.55756 0.07905 0.0
H941 H 0.47623 0.48214 0.06955 0.0
C942 C 0.56509 0.54563 0.08419 0.0
C943 C 0.51167 0.53435 0.0736 0.0
C944 C 0.48854 0.54555 0.06712 0.0
C945 C 0.55486 0.51125 0.08385 0.0
C946 C 0.52231 0.48802 0.07859 0.0
C947 C 0.5011 0.49992 0.07367 0.0
C948 C 0.51036 0.45152 0.07721 0.0
C949 C 0.57955 0.50038 0.08859 0.0
C950 C 0.49966 0.43584 0.0635 0.0
C951 C 0.48776 0.40148 0.06199 0.0
C952 C 0.48642 0.38199 0.07415 0.0
C953 C 0.49724 0.39768 0.08788 0.0
C954 C 0.5088 0.43208 0.08942 0.0
H955 H 0.60589 0.52172 0.08858 0.0
H956 H 0.57339 0.49023 0.09992 0.0
H957 H 0.57818 0.4804 0.08129 0.0
H958 H 0.50067 0.45027 0.05391 0.0
H959 H 0.48 0.39022 0.05124 0.0
H960 H 0.97491 0.60591 0.39548 0.0
H961 H 1.01287 0.58361 0.39774 0.0
H962 H 0.94111 0.50402 0.42559 0.0
H963 H 0.90189 0.52493 0.42271 0.0
H964 H 0.04381 0.57416 0.42041 0.0
H965 H 0.95712 0.45091 0.39489 0.0
H966 H 0.94882 0.48536 0.39472 0.0
H967 H 0.94015 0.4598 0.41089 0.0
C968 C 0.96674 0.58339 0.40194 0.0
C969 C 0.93475 0.56698 0.40865 0.0
C970 C 0.98879 0.57084 0.40334 0.0
C971 C 0.97962 0.54171 0.41158 0.0
C972 C 0.94842 0.52603 0.41885 0.0
H973 H 0.12952 0.48003 0.43101 0.0
H974 H 0.08957 0.50056 0.43354 0.0
C975 C 0.92611 0.53835 0.41731 0.0
C976 C 1.00271 0.52774 0.41227 0.0
H977 H 1.00859 0.45833 0.40404 0.0
C978 C 0.0361 0.54879 0.41687 0.0
C979 C 0.99275 0.49476 0.40748 0.0
C980 C 0.95787 0.47147 0.40158 0.0
C981 C 0.05991 0.538 0.41661 0.0
C982 C 0.04981 0.50486 0.41202 0.0
C983 C 1.01628 0.48365 0.40765 0.0
C984 C 0.07393 0.49223 0.41078 0.0
C985 C 0.09593 0.5627 0.42069 0.0
C986 C 0.07777 0.47979 0.39729 0.0
C987 C 0.10011 0.46759 0.39591 0.0
C988 C 0.11928 0.46771 0.40797 0.0
C989 C 0.11543 0.4801 0.42149 0.0
C990 C 0.0927 0.49193 0.42292 0.0
H991 H 0.10127 0.58908 0.4201 0.0
H992 H 0.10061 0.55779 0.43213 0.0
H993 H 0.11388 0.5601 0.41338 0.0
H994 H 0.06363 0.47977 0.38776 0.0
H995 H 0.10279 0.45857 0.38532 0.0
H996 H 0.66502 0.09414 0.71843 0.0
H997 H 0.60528 0.05279 0.72082 0.0
H998 H 0.60659 0.08348 0.76563 0.0
H999 H 0.66658 0.1253 0.76323 0.0
H1000 H 0.57472 0.99929 0.73938 0.0
H1001 H 0.52615 0.087 0.74908 0.0
H1002 H 0.56842 0.10118 0.74265 0.0
H1003 H 0.55812 0.09107 0.76169 0.0
C1004 C 0.65268 0.09208 0.72881 0.0
C1005 C 0.6706 0.11302 0.74064 0.0
C1006 C 0.61846 0.06849 0.73015 0.0
C1007 C 0.60131 0.06524 0.74335 0.0
C1008 C 0.61909 0.08601 0.75523 0.0
H1009 H 0.38816 0.91926 0.76239 0.0
H1010 H 0.44834 0.96028 0.76568 0.0
C1011 C 0.65338 0.10986 0.75386 0.0
C1012 C 0.56505 0.03946 0.74459 0.0
H1013 H 0.48638 0.02894 0.7497 0.0
C1014 C 0.55545 1.0058 0.74172 0.0
C1015 C 0.53989 0.04792 0.74769 0.0
C1016 C 0.5485 0.08376 0.75033 0.0
C1017 C 0.52143 0.98055 0.74157 0.0
C1018 C 0.49634 0.98915 0.74431 0.0
C1019 C 0.50582 0.02252 0.74766 0.0
C1020 C 0.46012 0.96428 0.74254 0.0
C1021 C 0.51241 0.94484 0.73827 0.0
C1022 C 0.44698 0.95324 0.72846 0.0
C1023 C 0.41281 0.9301 0.72655 0.0
C1024 C 0.39106 0.91739 0.73871 0.0
C1025 C 0.40435 0.92839 0.75284 0.0
C1026 C 0.4386 0.95189 0.75473 0.0
H1027 H 0.53447 0.9411 0.73939 0.0
H1028 H 0.49205 0.92703 0.7457 0.0
H1029 H 0.50297 0.93862 0.72684 0.0
H1030 H 0.4632 0.96267 0.71891 0.0
H1031 H 0.40348 0.92185 0.71555 0.0
H1032 H 0.66557 0.54449 0.61066 0.0
H1033 H 0.60494 0.52327 0.60835 0.0
H1034 H 0.60514 0.56726 0.65013 0.0
H1035 H 0.66549 0.58845 0.65251 0.0
H1036 H 0.55266 0.47995 0.62615 0.0
H1037 H 0.5587 0.60332 0.62378 0.0
H1038 H 0.59544 0.59891 0.62147 0.0
H1039 H 0.57973 0.59905 0.63955 0.0
C1040 C 0.65269 0.54955 0.61937 0.0
C1041 C 0.67051 0.56844 0.63172 0.0
C1042 C 0.61807 0.53754 0.61801 0.0
C1043 C 0.60064 0.54427 0.62893 0.0
C1044 C 0.61823 0.56258 0.64137 0.0
H1045 H 0.38943 0.44116 0.65001 0.0
H1046 H 0.44992 0.46261 0.64813 0.0
C1047 C 0.65279 0.57466 0.64272 0.0
C1048 C 0.56386 0.5313 0.62761 0.0
H1049 H 0.50443 0.55549 0.62839 0.0
C1050 C 0.54212 0.49648 0.6265 0.0
C1051 C 0.55013 0.55291 0.62782 0.0
C1052 C 0.57222 0.59065 0.62806 0.0
C1053 C 0.50698 0.4826 0.62617 0.0
C1054 C 0.49322 0.5041 0.62723 0.0
C1055 C 0.51498 0.539 0.62776 0.0
C1056 C 0.45634 0.49085 0.6282 0.0
C1057 C 0.48493 0.44504 0.62463 0.0
C1058 C 0.43991 0.50034 0.61785 0.0
C1059 C 0.40521 0.48816 0.61893 0.0
C1060 C 0.38629 0.46635 0.63042 0.0
C1061 C 0.403 0.45729 0.64085 0.0
C1062 C 0.43764 0.46952 0.63979 0.0
H1063 H 0.49889 0.43355 0.61961 0.0
H1064 H 0.47632 0.43372 0.63567 0.0
H1065 H 0.46237 0.43854 0.61784 0.0
H1066 H 0.45391 0.51694 0.60887 0.0
H1067 H 0.39317 0.49545 0.61065 0.0
H1068 H 0.14248 0.65903 0.94416 0.0
H1069 H 0.10268 0.59875 0.94164 0.0
H1070 H 0.05752 0.59897 0.9831 0.0
H1071 H 0.09711 0.65893 0.98573 0.0
H1072 H 0.09264 0.54615 0.95967 0.0
H1073 H 0.97595 0.5538 0.95605 0.0
H1074 H 1.0174 0.5901 0.9539 0.0
H1075 H 1.00078 0.57468 0.97192 0.0
C1076 C 0.12417 0.64624 0.95276 0.0
C1077 C 0.12287 0.66396 0.96509 0.0
C1078 C 0.10133 0.61182 0.95127 0.0
C1079 C 0.07668 0.59451 0.96204 0.0
C1080 C 0.07569 0.61199 0.97445 0.0
H1081 H 0.96662 0.38509 0.98413 0.0
H1082 H 1.00586 0.44523 0.98189 0.0
C1083 C 0.09841 0.64633 0.97594 0.0
C1084 C 0.05269 0.55793 0.96062 0.0
H1085 H 0.96882 0.4994 0.96099 0.0
C1086 C 0.06557 0.53593 0.9598 0.0
C1087 C 1.01737 0.54463 0.96056 0.0
C1088 C 1.00201 0.56704 0.9605 0.0
C1089 C 0.04407 0.50094 0.95953 0.0
C1090 C 1.00878 0.48762 0.96035 0.0
C1091 C 0.99588 0.50963 0.96055 0.0
C1092 C 0.98494 0.45095 0.96153 0.0
C1093 C 0.05936 0.47857 0.95839 0.0
C1094 C 0.95944 0.43428 0.95106 0.0
C1095 C 0.93681 0.39975 0.95232 0.0
C1096 C 0.93918 0.38127 0.96414 0.0
C1097 C 0.96447 0.39827 0.97472 0.0
C1098 C 0.98699 0.43272 0.97346 0.0
H1099 H 0.08502 0.49214 0.95352 0.0
H1100 H 0.06154 0.47008 0.96953 0.0
H1101 H 0.04339 0.456 0.95163 0.0
H1102 H 0.95727 0.44795 0.94182 0.0
H1103 H 0.91784 0.38747 0.94393 0.0
H1104 H 0.56621 0.9285 0.32565 0.0
H1105 H 0.54903 0.97062 0.32266 0.0
H1106 H 0.5565 0.96562 0.27566 0.0
H1107 H 0.5733 0.92293 0.27861 0.0
H1108 H 0.58323 0.0325 0.31054 0.0
H1109 H 0.46391 0.95523 0.27996 0.0
H1110 H 0.48619 0.93709 0.28896 0.0
H1111 H 0.50055 0.9578 0.27153 0.0
C1112 C 0.56426 0.93638 0.31467 0.0
C1113 C 0.57114 0.92237 0.30236 0.0
C1114 C 0.55433 0.9604 0.31297 0.0
C1115 C 0.55107 0.97105 0.29893 0.0
C1116 C 0.55805 0.95725 0.28659 0.0
H1117 H 0.50034 0.12751 0.277 0.0
H1118 H 0.52159 0.08792 0.27535 0.0
C1119 C 0.56773 0.93292 0.28829 0.0
C1120 C 0.54125 0.99726 0.29742 0.0
H1121 H 0.48051 1.01237 0.28374 0.0
C1122 C 0.56083 0.02809 0.30463 0.0
C1123 C 0.51205 0.99158 0.28967 0.0
C1124 C 0.48925 0.95855 0.28219 0.0
C1125 C 0.55173 0.05308 0.3045 0.0
C1126 C 0.52227 0.04711 0.29701 0.0
C1127 C 0.50318 1.0168 0.28943 0.0
C1128 C 0.50967 0.07113 0.29785 0.0
C1129 C 0.57343 0.08562 0.31252 0.0
C1130 C 0.49583 0.07454 0.311 0.0
C1131 C 0.48361 0.0969 0.31195 0.0
C1132 C 0.48511 0.11644 0.29977 0.0
C1133 C 0.49913 0.11304 0.28659 0.0
C1134 C 0.51109 0.09036 0.28561 0.0
H1135 H 0.59858 0.08905 0.31528 0.0
H1136 H 0.57689 0.10734 0.30582 0.0
H1137 H 0.56073 0.08565 0.32288 0.0
H1138 H 0.49441 0.05979 0.32055 0.0
H1139 H 0.47334 0.09918 0.3223 0.0
loop_
_geom_bond_atom_site_label_1
_geom_bond_atom_site_label_2
_geom_bond_distance
_geom_bond_site_symmetry_2
_ccdc_geom_bond_type
Cu0 N1 1.999 . S
Cu0 O6 1.974 . S
Cu0 N11 1.985 . S
Cu0 O20 1.959 . S
N1 Cu0 1.999 . S
N1 C3 1.263 . S
N1 C5 1.389 . S
N2 C3 1.358 . S
N2 C4 1.400 . S
C3 N1 1.263 . S
C3 N2 1.358 . S
C3 H9 0.930 . S
C4 N2 1.400 . S
C4 C5 1.351 . S
C4 H21 0.930 . S
C5 N1 1.389 . S
C5 C4 1.351 . S
C5 H10 0.930 . S
O6 Cu0 1.974 . S
O6 C16 1.282 . S
C7 O8 1.261 . S
C7 O20 1.251 . S
O8 C7 1.261 . S
H9 C3 0.930 . S
H10 C5 0.930 . S
N11 Cu0 1.985 . S
N11 C13 1.335 . S
N11 C14 1.390 . S
N12 C13 1.345 . S
N12 C15 1.336 . S
C13 N11 1.335 . S
C13 N12 1.345 . S
C13 H18 0.930 . S
C14 N11 1.390 . S
C14 C15 1.346 . S
C14 H19 0.930 . S
C15 N12 1.336 . S
C15 C14 1.346 . S
C15 H22 0.929 . S
C16 O6 1.282 . S
C16 O17 1.216 . S
O17 C16 1.216 . S
H18 C13 0.930 . S
H19 C14 0.930 . S
O20 Cu0 1.959 . S
O20 C7 1.251 . S
H21 C4 0.930 . S
H22 C15 0.929 . S
Cu23 N24 1.999 . S
Cu23 O29 1.974 . S
Cu23 N34 1.985 . S
Cu23 O43 1.959 . S
N24 Cu23 1.999 . S
N24 C26 1.263 . S
N24 C28 1.389 . S
N25 C26 1.358 . S
N25 C27 1.400 . S
C26 N24 1.263 . S
C26 N25 1.358 . S
C26 H32 0.930 . S
C27 N25 1.400 . S
C27 C28 1.351 . S
C27 H44 0.930 . S
C28 N24 1.389 . S
C28 C27 1.351 . S
C28 H33 0.930 . S
O29 Cu23 1.974 . S
O29 C39 1.282 . S
C30 O31 1.261 . S
C30 O43 1.251 . S
O31 C30 1.261 . S
H32 C26 0.930 . S
H33 C28 0.930 . S
N34 Cu23 1.985 . S
N34 C36 1.335 . S
N34 C37 1.390 . S
N35 C36 1.345 . S
N35 C38 1.336 . S
C36 N34 1.335 . S
C36 N35 1.345 . S
C36 H41 0.930 . S
C37 N34 1.390 . S
C37 C38 1.346 . S
C37 H42 0.930 . S
C38 N35 1.336 . S
C38 C37 1.346 . S
C38 H45 0.929 . S
C39 O29 1.282 . S
C39 O40 1.216 . S
O40 C39 1.216 . S
H41 C36 0.930 . S
H42 C37 0.930 . S
O43 Cu23 1.959 . S
O43 C30 1.251 . S
H44 C27 0.930 . S
H45 C38 0.929 . S
Cu46 N47 1.999 . S
Cu46 O52 1.974 . S
Cu46 N57 1.985 . S
Cu46 O66 1.959 . S
N47 Cu46 1.999 . S
N47 C49 1.263 . S
N47 C51 1.389 . S
N48 C49 1.358 . S
N48 C50 1.400 . S
C49 N47 1.263 . S
C49 N48 1.358 . S
C49 H55 0.930 . S
C50 N48 1.400 . S
C50 C51 1.351 . S
C50 H67 0.930 . S
C51 N47 1.389 . S
C51 C50 1.351 . S
C51 H56 0.930 . S
O52 Cu46 1.974 . S
O52 C62 1.282 . S
C53 O54 1.261 . S
C53 O66 1.251 . S
O54 C53 1.261 . S
H55 C49 0.930 . S
H56 C51 0.930 . S
N57 Cu46 1.985 . S
N57 C59 1.335 . S
N57 C60 1.390 . S
N58 C59 1.345 . S
N58 C61 1.336 . S
C59 N57 1.335 . S
C59 N58 1.345 . S
C59 H64 0.930 . S
C60 N57 1.390 . S
C60 C61 1.346 . S
C60 H65 0.930 . S
C61 N58 1.336 . S
C61 C60 1.346 . S
C61 H68 0.929 . S
C62 O52 1.282 . S
C62 O63 1.216 . S
O63 C62 1.216 . S
H64 C59 0.930 . S
H65 C60 0.930 . S
O66 Cu46 1.959 . S
O66 C53 1.251 . S
H67 C50 0.930 . S
H68 C61 0.929 . S
Cu69 N70 1.999 . S
Cu69 O75 1.974 . S
Cu69 N80 1.985 . S
Cu69 O89 1.959 . S
N70 Cu69 1.999 . S
N70 C72 1.263 . S
N70 C74 1.389 . S
N71 C72 1.358 . S
N71 C73 1.400 . S
C72 N70 1.263 . S
C72 N71 1.358 . S
C72 H78 0.930 . S
C73 N71 1.400 . S
C73 C74 1.351 . S
C73 H90 0.930 . S
C74 N70 1.389 . S
C74 C73 1.351 . S
C74 H79 0.930 . S
O75 Cu69 1.974 . S
O75 C85 1.282 . S
C76 O77 1.261 . S
C76 O89 1.251 . S
O77 C76 1.261 . S
H78 C72 0.930 . S
H79 C74 0.930 . S
N80 Cu69 1.985 . S
N80 C82 1.335 . S
N80 C83 1.390 . S
N81 C82 1.345 . S
N81 C84 1.336 . S
C82 N80 1.335 . S
C82 N81 1.345 . S
C82 H87 0.930 . S
C83 N80 1.390 . S
C83 C84 1.346 . S
C83 H88 0.930 . S
C84 N81 1.336 . S
C84 C83 1.346 . S
C84 H91 0.929 . S
C85 O75 1.282 . S
C85 O86 1.216 . S
O86 C85 1.216 . S
H87 C82 0.930 . S
H88 C83 0.930 . S
O89 Cu69 1.959 . S
O89 C76 1.251 . S
H90 C73 0.930 . S
H91 C84 0.929 . S
Cu92 N93 1.999 . S
Cu92 O98 1.974 . S
Cu92 N103 1.985 . S
Cu92 O112 1.959 . S
N93 Cu92 1.999 . S
N93 C95 1.263 . S
N93 C97 1.389 . S
N94 C95 1.358 . S
N94 C96 1.400 . S
C95 N93 1.263 . S
C95 N94 1.358 . S
C95 H101 0.930 . S
C96 N94 1.400 . S
C96 C97 1.351 . S
C96 H113 0.930 . S
C97 N93 1.389 . S
C97 C96 1.351 . S
C97 H102 0.930 . S
O98 Cu92 1.974 . S
O98 C108 1.282 . S
C99 O100 1.261 . S
C99 O112 1.251 . S
O100 C99 1.261 . S
H101 C95 0.930 . S
H102 C97 0.930 . S
N103 Cu92 1.985 . S
N103 C105 1.335 . S
N103 C106 1.390 . S
N104 C105 1.345 . S
N104 C107 1.336 . S
C105 N103 1.335 . S
C105 N104 1.345 . S
C105 H110 0.930 . S
C106 N103 1.390 . S
C106 C107 1.346 . S
C106 H111 0.930 . S
C107 N104 1.336 . S
C107 C106 1.346 . S
C107 H114 0.929 . S
C108 O98 1.282 . S
C108 O109 1.216 . S
O109 C108 1.216 . S
H110 C105 0.930 . S
H111 C106 0.930 . S
O112 Cu92 1.959 . S
O112 C99 1.251 . S
H113 C96 0.930 . S
H114 C107 0.929 . S
Cu115 N116 1.999 . S
Cu115 O121 1.974 . S
Cu115 N126 1.985 . S
Cu115 O135 1.959 . S
N116 Cu115 1.999 . S
N116 C118 1.263 . S
N116 C120 1.389 . S
N117 C118 1.358 . S
N117 C119 1.400 . S
C118 N116 1.263 . S
C118 N117 1.358 . S
C118 H124 0.930 . S
C119 N117 1.400 . S
C119 C120 1.351 . S
C119 H136 0.930 . S
C120 N116 1.389 . S
C120 C119 1.351 . S
C120 H125 0.930 . S
O121 Cu115 1.974 . S
O121 C131 1.282 . S
C122 O123 1.261 . S
C122 O135 1.251 . S
O123 C122 1.261 . S
H124 C118 0.930 . S
H125 C120 0.930 . S
N126 Cu115 1.985 . S
N126 C128 1.335 . S
N126 C129 1.390 . S
N127 C128 1.345 . S
N127 C130 1.336 . S
C128 N126 1.335 . S
C128 N127 1.345 . S
C128 H133 0.930 . S
C129 N126 1.390 . S
C129 C130 1.346 . S
C129 H134 0.930 . S
C130 N127 1.336 . S
C130 C129 1.346 . S
C130 H137 0.929 . S
C131 O121 1.282 . S
C131 O132 1.216 . S
O132 C131 1.216 . S
H133 C128 0.930 . S
H134 C129 0.930 . S
O135 Cu115 1.959 . S
O135 C122 1.251 . S
H136 C119 0.930 . S
H137 C130 0.929 . S
Cu138 N139 1.999 . S
Cu138 O144 1.974 . S
Cu138 N149 1.985 . S
Cu138 O158 1.959 . S
N139 Cu138 1.999 . S
N139 C141 1.263 . S
N139 C143 1.389 . S
N140 C141 1.358 . S
N140 C142 1.400 . S
C141 N139 1.263 . S
C141 N140 1.358 . S
C141 H147 0.930 . S
C142 N140 1.400 . S
C142 C143 1.351 . S
C142 H159 0.930 . S
C143 N139 1.389 . S
C143 C142 1.351 . S
C143 H148 0.930 . S
O144 Cu138 1.974 . S
O144 C154 1.282 . S
C145 O146 1.261 . S
C145 O158 1.251 . S
O146 C145 1.261 . S
H147 C141 0.930 . S
H148 C143 0.930 . S
N149 Cu138 1.985 . S
N149 C151 1.335 . S
N149 C152 1.390 . S
N150 C151 1.345 . S
N150 C153 1.336 . S
C151 N149 1.335 . S
C151 N150 1.345 . S
C151 H156 0.930 . S
C152 N149 1.390 . S
C152 C153 1.346 . S
C152 H157 0.930 . S
C153 N150 1.336 . S
C153 C152 1.346 . S
C153 H160 0.929 . S
C154 O144 1.282 . S
C154 O155 1.216 . S
O155 C154 1.216 . S
H156 C151 0.930 . S
H157 C152 0.930 . S
O158 Cu138 1.959 . S
O158 C145 1.251 . S
H159 C142 0.930 . S
H160 C153 0.929 . S
Cu161 N162 1.999 . S
Cu161 O167 1.974 . S
Cu161 N172 1.985 . S
Cu161 O181 1.959 . S
N162 Cu161 1.999 . S
N162 C164 1.263 . S
N162 C166 1.389 . S
N163 C164 1.358 . S
N163 C165 1.400 . S
C164 N162 1.263 . S
C164 N163 1.358 . S
C164 H170 0.930 . S
C165 N163 1.400 . S
C165 C166 1.351 . S
C165 H182 0.930 . S
C166 N162 1.389 . S
C166 C165 1.351 . S
C166 H171 0.930 . S
O167 Cu161 1.974 . S
O167 C177 1.282 . S
C168 O169 1.261 . S
C168 O181 1.251 . S
O169 C168 1.261 . S
H170 C164 0.930 . S
H171 C166 0.930 . S
N172 Cu161 1.985 . S
N172 C174 1.335 . S
N172 C175 1.390 . S
N173 C174 1.345 . S
N173 C176 1.336 . S
C174 N172 1.335 . S
C174 N173 1.345 . S
C174 H179 0.930 . S
C175 N172 1.390 . S
C175 C176 1.346 . S
C175 H180 0.930 . S
C176 N173 1.336 . S
C176 C175 1.346 . S
C176 H183 0.929 . S
C177 O167 1.282 . S
C177 O178 1.216 . S
O178 C177 1.216 . S
H179 C174 0.930 . S
H180 C175 0.930 . S
O181 Cu161 1.959 . S
O181 C168 1.251 . S
H182 C165 0.930 . S
H183 C176 0.929 . S
Cu184 N185 1.999 . S
Cu184 O190 1.974 . S
Cu184 N195 1.985 . S
Cu184 O204 1.959 . S
N185 Cu184 1.999 . S
N185 C187 1.263 . S
N185 C189 1.389 . S
N186 C187 1.358 . S
N186 C188 1.400 . S
C187 N185 1.263 . S
C187 N186 1.358 . S
C187 H193 0.930 . S
C188 N186 1.400 . S
C188 C189 1.351 . S
C188 H205 0.930 . S
C189 N185 1.389 . S
C189 C188 1.351 . S
C189 H194 0.930 . S
O190 Cu184 1.974 . S
O190 C200 1.282 . S
C191 O192 1.261 . S
C191 O204 1.251 . S
O192 C191 1.261 . S
H193 C187 0.930 . S
H194 C189 0.930 . S
N195 Cu184 1.985 . S
N195 C197 1.335 . S
N195 C198 1.390 . S
N196 C197 1.345 . S
N196 C199 1.336 . S
C197 N195 1.335 . S
C197 N196 1.345 . S
C197 H202 0.930 . S
C198 N195 1.390 . S
C198 C199 1.346 . S
C198 H203 0.930 . S
C199 N196 1.336 . S
C199 C198 1.346 . S
C199 H206 0.929 . S
C200 O190 1.282 . S
C200 O201 1.216 . S
O201 C200 1.216 . S
H202 C197 0.930 . S
H203 C198 0.930 . S
O204 Cu184 1.959 . S
O204 C191 1.251 . S
H205 C188 0.930 . S
H206 C199 0.929 . S
Cu207 N208 1.999 . S
Cu207 O213 1.974 . S
Cu207 N218 1.985 . S
Cu207 O227 1.959 . S
N208 Cu207 1.999 . S
N208 C210 1.263 . S
N208 C212 1.389 . S
N209 C210 1.358 . S
N209 C211 1.400 . S
C210 N208 1.263 . S
C210 N209 1.358 . S
C210 H216 0.930 . S
C211 N209 1.400 . S
C211 C212 1.351 . S
C211 H228 0.930 . S
C212 N208 1.389 . S
C212 C211 1.351 . S
C212 H217 0.930 . S
O213 Cu207 1.974 . S
O213 C223 1.282 . S
C214 O215 1.261 . S
C214 O227 1.251 . S
O215 C214 1.261 . S
H216 C210 0.930 . S
H217 C212 0.930 . S
N218 Cu207 1.985 . S
N218 C220 1.335 . S
N218 C221 1.390 . S
N219 C220 1.345 . S
N219 C222 1.336 . S
C220 N218 1.335 . S
C220 N219 1.345 . S
C220 H225 0.930 . S
C221 N218 1.390 . S
C221 C222 1.346 . S
C221 H226 0.930 . S
C222 N219 1.336 . S
C222 C221 1.346 . S
C222 H229 0.929 . S
C223 O213 1.282 . S
C223 O224 1.216 . S
O224 C223 1.216 . S
H225 C220 0.930 . S
H226 C221 0.930 . S
O227 Cu207 1.959 . S
O227 C214 1.251 . S
H228 C211 0.930 . S
H229 C222 0.929 . S
Cu230 N231 1.999 . S
Cu230 O236 1.974 . S
Cu230 N241 1.985 . S
Cu230 O250 1.959 . S
N231 Cu230 1.999 . S
N231 C233 1.263 . S
N231 C235 1.389 . S
N232 C233 1.358 . S
N232 C234 1.400 . S
C233 N231 1.263 . S
C233 N232 1.358 . S
C233 H239 0.930 . S
C234 N232 1.400 . S
C234 C235 1.351 . S
C234 H251 0.930 . S
C235 N231 1.389 . S
C235 C234 1.351 . S
C235 H240 0.930 . S
O236 Cu230 1.974 . S
O236 C246 1.282 . S
C237 O238 1.261 . S
C237 O250 1.251 . S
O238 C237 1.261 . S
H239 C233 0.930 . S
H240 C235 0.930 . S
N241 Cu230 1.985 . S
N241 C243 1.335 . S
N241 C244 1.390 . S
N242 C243 1.345 . S
N242 C245 1.336 . S
C243 N241 1.335 . S
C243 N242 1.345 . S
C243 H248 0.930 . S
C244 N241 1.390 . S
C244 C245 1.346 . S
C244 H249 0.930 . S
C245 N242 1.336 . S
C245 C244 1.346 . S
C245 H252 0.929 . S
C246 O236 1.282 . S
C246 O247 1.216 . S
O247 C246 1.216 . S
H248 C243 0.930 . S
H249 C244 0.930 . S
O250 Cu230 1.959 . S
O250 C237 1.251 . S
H251 C234 0.930 . S
H252 C245 0.929 . S
Cu253 N254 1.999 . S
Cu253 O259 1.974 . S
Cu253 N264 1.985 . S
Cu253 O273 1.959 . S
N254 Cu253 1.999 . S
N254 C256 1.263 . S
N254 C258 1.389 . S
N255 C256 1.358 . S
N255 C257 1.400 . S
C256 N254 1.263 . S
C256 N255 1.358 . S
C256 H262 0.930 . S
C257 N255 1.400 . S
C257 C258 1.351 . S
C257 H274 0.930 . S
C258 N254 1.389 . S
C258 C257 1.351 . S
C258 H263 0.930 . S
O259 Cu253 1.974 . S
O259 C269 1.282 . S
C260 O261 1.261 . S
C260 O273 1.251 . S
O261 C260 1.261 . S
H262 C256 0.930 . S
H263 C258 0.930 . S
N264 Cu253 1.985 . S
N264 C266 1.335 . S
N264 C267 1.390 . S
N265 C266 1.345 . S
N265 C268 1.336 . S
C266 N264 1.335 . S
C266 N265 1.345 . S
C266 H271 0.930 . S
C267 N264 1.390 . S
C267 C268 1.346 . S
C267 H272 0.930 . S
C268 N265 1.336 . S
C268 C267 1.346 . S
C268 H275 0.929 . S
C269 O259 1.282 . S
C269 O270 1.216 . S
O270 C269 1.216 . S
H271 C266 0.930 . S
H272 C267 0.930 . S
O273 Cu253 1.959 . S
O273 C260 1.251 . S
H274 C257 0.930 . S
H275 C268 0.929 . S
H276 C284 0.929 . S
H277 C286 0.930 . S
H278 C288 0.930 . S
H279 C291 0.929 . S
H280 C294 0.930 . S
H281 C296 0.960 . S
H282 C296 0.960 . S
H283 C296 0.960 . S
C284 H276 0.929 . S
C284 C285 1.377 . S
C284 C286 1.384 . S
C285 C284 1.377 . S
C285 C291 1.390 . S
C286 H277 0.930 . S
C286 C284 1.384 . S
C286 C287 1.372 . S
C287 C286 1.372 . S
C287 C288 1.400 . S
C287 C292 1.490 . S
C288 H278 0.930 . S
C288 C287 1.400 . S
C288 C291 1.386 . S
H289 C305 0.930 . S
H290 C306 0.931 . S
C291 H279 0.929 . S
C291 C285 1.390 . S
C291 C288 1.386 . S
C292 C287 1.490 . S
C292 C294 1.395 1_556 S
C292 C295 1.403 1_565 S
H293 C299 0.930 . S
C294 H280 0.930 . S
C294 C292 1.395 1_554 S
C294 C297 1.403 . S
C295 C292 1.403 1_545 S
C295 C296 1.524 . S
C295 C299 1.400 . S
C296 H281 0.960 . S
C296 H282 0.960 . S
C296 H283 0.960 . S
C296 C295 1.524 . S
C297 C294 1.403 . S
C297 C298 1.392 1_565 S
C297 C301 1.495 . S
C298 C297 1.392 1_545 S
C298 C299 1.385 1_554 S
C298 C300 1.478 . S
C299 H293 0.930 . S
C299 C295 1.400 . S
C299 C298 1.385 1_556 S
C300 C298 1.478 . S
C300 C302 1.381 . S
C300 C306 1.383 . S
C301 C297 1.495 . S
C301 H307 0.959 . S
C301 H308 0.961 . S
C301 H309 0.960 . S
C302 C300 1.381 . S
C302 C303 1.394 . S
C302 H310 0.930 . S
C303 C302 1.394 . S
C303 C304 1.383 . S
C303 H311 0.929 . S
C304 C303 1.383 . S
C304 C305 1.377 . S
C305 H289 0.930 . S
C305 C304 1.377 . S
C305 C306 1.379 . S
C306 H290 0.931 . S
C306 C300 1.383 . S
C306 C305 1.379 . S
H307 C301 0.959 . S
H308 C301 0.961 . S
H309 C301 0.960 . S
H310 C302 0.930 . S
H311 C303 0.929 . S
H312 C320 0.929 . S
H313 C322 0.930 . S
H314 C324 0.930 . S
H315 C327 0.929 . S
H316 C330 0.930 . S
H317 C332 0.960 . S
H318 C332 0.960 . S
H319 C332 0.960 . S
C320 H312 0.929 . S
C320 C321 1.377 . S
C320 C322 1.384 . S
C321 C320 1.377 . S
C321 C327 1.390 . S
C322 H313 0.930 . S
C322 C320 1.384 . S
C322 C323 1.372 . S
C323 C322 1.372 . S
C323 C324 1.400 . S
C323 C328 1.490 . S
C324 H314 0.930 . S
C324 C323 1.400 . S
C324 C327 1.386 . S
H325 C341 0.930 . S
H326 C342 0.931 . S
C327 H315 0.929 . S
C327 C321 1.390 . S
C327 C324 1.386 . S
C328 C323 1.490 . S
C328 C330 1.395 . S
C328 C331 1.403 . S
H329 C335 0.930 . S
C330 H316 0.930 . S
C330 C328 1.395 . S
C330 C333 1.403 . S
C331 C328 1.403 . S
C331 C332 1.524 . S
C331 C335 1.400 . S
C332 H317 0.960 . S
C332 H318 0.960 . S
C332 H319 0.960 . S
C332 C331 1.524 . S
C333 C330 1.403 . S
C333 C334 1.392 . S
C333 C337 1.495 . S
C334 C333 1.392 . S
C334 C335 1.385 . S
C334 C336 1.478 . S
C335 H329 0.930 . S
C335 C331 1.400 . S
C335 C334 1.385 . S
C336 C334 1.478 . S
C336 C338 1.381 . S
C336 C342 1.383 . S
C337 C333 1.495 . S
C337 H343 0.959 . S
C337 H344 0.961 . S
C337 H345 0.960 . S
C338 C336 1.381 . S
C338 C339 1.394 . S
C338 H346 0.930 . S
C339 C338 1.394 . S
C339 C340 1.383 . S
C339 H347 0.929 . S
C340 C339 1.383 . S
C340 C341 1.377 . S
C341 H325 0.930 . S
C341 C340 1.377 . S
C341 C342 1.379 . S
C342 H326 0.931 . S
C342 C336 1.383 . S
C342 C341 1.379 . S
H343 C337 0.959 . S
H344 C337 0.961 . S
H345 C337 0.960 . S
H346 C338 0.930 . S
H347 C339 0.929 . S
H348 C356 0.929 . S
H349 C358 0.930 . S
H350 C360 0.930 . S
H351 C363 0.929 . S
H352 C366 0.930 . S
H353 C368 0.960 . S
H354 C368 0.960 . S
H355 C368 0.960 . S
C356 H348 0.929 . S
C356 C357 1.377 . S
C356 C358 1.384 . S
C357 C356 1.377 . S
C357 C363 1.390 . S
C358 H349 0.930 . S
C358 C356 1.384 . S
C358 C359 1.372 . S
C359 C358 1.372 . S
C359 C360 1.400 . S
C359 C364 1.490 . S
C360 H350 0.930 . S
C360 C359 1.400 . S
C360 C363 1.386 . S
H361 C377 0.930 . S
H362 C378 0.931 . S
C363 H351 0.929 . S
C363 C357 1.390 . S
C363 C360 1.386 . S
C364 C359 1.490 . S
C364 C366 1.395 1_655 S
C364 C367 1.403 . S
H365 C371 0.934 . S
C366 H352 0.930 . S
C366 C364 1.395 1_455 S
C366 C369 1.403 . S
C367 C364 1.403 . S
C367 C368 1.524 . S
C367 C371 1.400 1_655 S
C368 H353 0.960 . S
C368 H354 0.960 . S
C368 H355 0.960 . S
C368 C367 1.524 . S
C369 C366 1.403 . S
C369 C370 1.392 . S
C369 C373 1.495 . S
C370 C369 1.392 . S
C370 C371 1.385 . S
C370 C372 1.478 . S
C371 H365 0.934 . S
C371 C367 1.400 1_455 S
C371 C370 1.385 . S
C372 C370 1.478 . S
C372 C374 1.381 . S
C372 C378 1.383 . S
C373 C369 1.495 . S
C373 H379 0.959 . S
C373 H380 0.961 . S
C373 H381 0.960 . S
C374 C372 1.381 . S
C374 C375 1.394 . S
C374 H382 0.930 . S
C375 C374 1.394 . S
C375 C376 1.383 . S
C375 H383 0.929 . S
C376 C375 1.383 . S
C376 C377 1.377 . S
C377 H361 0.930 . S
C377 C376 1.377 . S
C377 C378 1.379 . S
C378 H362 0.931 . S
C378 C372 1.383 . S
C378 C377 1.379 . S
H379 C373 0.959 . S
H380 C373 0.961 . S
H381 C373 0.960 . S
H382 C374 0.930 . S
H383 C375 0.929 . S
H384 C392 0.929 . S
H385 C394 0.930 . S
H386 C396 0.930 . S
H387 C399 0.929 . S
H388 C402 0.930 . S
H389 C404 0.960 . S
H390 C404 0.960 . S
H391 C404 0.960 . S
C392 H384 0.929 . S
C392 C393 1.377 . S
C392 C394 1.384 . S
C393 C392 1.377 . S
C393 C399 1.390 . S
C394 H385 0.930 . S
C394 C392 1.384 . S
C394 C395 1.372 . S
C395 C394 1.372 . S
C395 C396 1.400 . S
C395 C400 1.490 . S
C396 H386 0.930 . S
C396 C395 1.400 . S
C396 C399 1.386 . S
H397 C413 0.930 . S
H398 C414 0.931 . S
C399 H387 0.929 . S
C399 C393 1.390 . S
C399 C396 1.386 . S
C400 C395 1.490 . S
C400 C402 1.395 1_565 S
C400 C403 1.403 1_554 S
H401 C407 0.937 . S
C402 H388 0.930 . S
C402 C400 1.395 1_545 S
C402 C405 1.403 . S
C403 C400 1.403 1_556 S
C403 C404 1.524 . S
C403 C407 1.421 . S
C404 H389 0.960 . S
C404 H390 0.960 . S
C404 H391 0.960 . S
C404 C403 1.524 . S
C405 C402 1.403 . S
C405 C406 1.392 1_554 S
C405 C409 1.495 . S
C406 C405 1.392 1_556 S
C406 C407 1.358 1_545 S
C406 C408 1.478 . S
C407 H401 0.937 . S
C407 C403 1.421 . S
C407 C406 1.358 1_565 S
C408 C406 1.478 . S
C408 C410 1.381 . S
C408 C414 1.383 . S
C409 C405 1.495 . S
C409 H415 0.959 . S
C409 H416 0.961 . S
C409 H417 0.960 . S
C410 C408 1.381 . S
C410 C411 1.394 . S
C410 H418 0.930 . S
C411 C410 1.394 . S
C411 C412 1.383 . S
C411 H419 0.929 . S
C412 C411 1.383 . S
C412 C413 1.377 . S
C413 H397 0.930 . S
C413 C412 1.377 . S
C413 C414 1.379 . S
C414 H398 0.931 . S
C414 C408 1.383 . S
C414 C413 1.379 . S
H415 C409 0.959 . S
H416 C409 0.961 . S
H417 C409 0.960 . S
H418 C410 0.930 . S
H419 C411 0.929 . S
H420 C428 0.929 . S
H421 C430 0.930 . S
H422 C432 0.930 . S
H423 C435 0.929 . S
H424 C438 0.930 . S
H425 C440 0.960 . S
H426 C440 0.960 . S
H427 C440 0.960 . S
C428 H420 0.929 . S
C428 C429 1.377 . S
C428 C430 1.384 . S
C429 C428 1.377 . S
C429 C435 1.390 . S
C430 H421 0.930 . S
C430 C428 1.384 . S
C430 C431 1.372 . S
C431 C430 1.372 . S
C431 C432 1.400 . S
C431 C436 1.490 . S
C432 H422 0.930 . S
C432 C431 1.400 . S
C432 C435 1.386 . S
H433 C449 0.930 . S
H434 C450 0.931 . S
C435 H423 0.929 . S
C435 C429 1.390 . S
C435 C432 1.386 . S
C436 C431 1.490 . S
C436 C438 1.395 . S
C436 C439 1.403 . S
H437 C443 0.930 . S
C438 H424 0.930 . S
C438 C436 1.395 . S
C438 C441 1.403 . S
C439 C436 1.403 . S
C439 C440 1.524 . S
C439 C443 1.400 . S
C440 H425 0.960 . S
C440 H426 0.960 . S
C440 H427 0.960 . S
C440 C439 1.524 . S
C441 C438 1.403 . S
C441 C442 1.392 . S
C441 C445 1.495 . S
C442 C441 1.392 . S
C442 C443 1.385 . S
C442 C444 1.478 . S
C443 H437 0.930 . S
C443 C439 1.400 . S
C443 C442 1.385 . S
C444 C442 1.478 . S
C444 C446 1.381 . S
C444 C450 1.383 . S
C445 C441 1.495 . S
C445 H451 0.959 . S
C445 H452 0.961 . S
C445 H453 0.960 . S
C446 C444 1.381 . S
C446 C447 1.394 . S
C446 H454 0.930 . S
C447 C446 1.394 . S
C447 C448 1.383 . S
C447 H455 0.929 . S
C448 C447 1.383 . S
C448 C449 1.377 . S
C449 H433 0.930 . S
C449 C448 1.377 . S
C449 C450 1.379 . S
C450 H434 0.931 . S
C450 C444 1.383 . S
C450 C449 1.379 . S
H451 C445 0.959 . S
H452 C445 0.961 . S
H453 C445 0.960 . S
H454 C446 0.930 . S
H455 C447 0.929 . S
H456 C464 0.929 . S
H457 C466 0.930 . S
H458 C468 0.930 . S
H459 C471 0.929 . S
H460 C474 0.930 . S
H461 C476 0.960 . S
H462 C476 0.960 . S
H463 C476 0.960 . S
C464 H456 0.929 . S
C464 C465 1.377 . S
C464 C466 1.384 . S
C465 C464 1.377 . S
C465 C471 1.390 . S
C466 H457 0.930 . S
C466 C464 1.384 . S
C466 C467 1.372 . S
C467 C466 1.372 . S
C467 C468 1.400 . S
C467 C472 1.490 . S
C468 H458 0.930 . S
C468 C467 1.400 . S
C468 C471 1.386 . S
H469 C485 0.930 . S
H470 C486 0.931 . S
C471 H459 0.929 . S
C471 C465 1.390 . S
C471 C468 1.386 . S
C472 C467 1.490 . S
C472 C474 1.395 . S
C472 C475 1.403 1_655 S
H473 C479 0.930 . S
C474 H460 0.930 . S
C474 C472 1.395 . S
C474 C477 1.403 . S
C475 C472 1.403 1_455 S
C475 C476 1.524 . S
C475 C479 1.400 . S
C476 H461 0.960 . S
C476 H462 0.960 . S
C476 H463 0.960 . S
C476 C475 1.524 . S
C477 C474 1.403 . S
C477 C478 1.392 1_655 S
C477 C481 1.495 . S
C478 C477 1.392 1_455 S
C478 C479 1.385 . S
C478 C480 1.478 . S
C479 H473 0.930 . S
C479 C475 1.400 . S
C479 C478 1.385 . S
C480 C478 1.478 . S
C480 C482 1.381 . S
C480 C486 1.383 . S
C481 C477 1.495 . S
C481 H487 0.959 . S
C481 H488 0.961 . S
C481 H489 0.960 . S
C482 C480 1.381 . S
C482 C483 1.394 . S
C482 H490 0.930 . S
C483 C482 1.394 . S
C483 C484 1.383 . S
C483 H491 0.929 . S
C484 C483 1.383 . S
C484 C485 1.377 . S
C485 H469 0.930 . S
C485 C484 1.377 . S
C485 C486 1.379 . S
C486 H470 0.931 . S
C486 C480 1.383 . S
C486 C485 1.379 . S
H487 C481 0.959 . S
H488 C481 0.961 . S
H489 C481 0.960 . S
H490 C482 0.930 . S
H491 C483 0.929 . S
H492 C500 0.929 . S
H493 C502 0.930 . S
H494 C504 0.930 . S
H495 C507 0.929 . S
H496 C510 0.930 . S
H497 C512 0.960 . S
H498 C512 0.960 . S
H499 C512 0.960 . S
C500 H492 0.929 . S
C500 C501 1.377 . S
C500 C502 1.384 . S
C501 C500 1.377 . S
C501 C507 1.390 . S
C502 H493 0.930 . S
C502 C500 1.384 . S
C502 C503 1.372 . S
C503 C502 1.372 . S
C503 C504 1.400 . S
C503 C508 1.490 . S
C504 H494 0.930 . S
C504 C503 1.400 . S
C504 C507 1.386 . S
H505 C521 0.930 . S
H506 C522 0.931 . S
C507 H495 0.929 . S
C507 C501 1.390 . S
C507 C504 1.386 . S
C508 C503 1.490 . S
C508 C510 1.395 1_556 S
C508 C511 1.403 . S
H509 C515 0.930 . S
C510 H496 0.930 . S
C510 C508 1.395 1_554 S
C510 C513 1.403 . S
C511 C508 1.403 . S
C511 C512 1.524 . S
C511 C515 1.400 . S
C512 H497 0.960 . S
C512 H498 0.960 . S
C512 H499 0.960 . S
C512 C511 1.524 . S
C513 C510 1.403 . S
C513 C514 1.392 . S
C513 C517 1.495 . S
C514 C513 1.392 . S
C514 C515 1.385 1_554 S
C514 C516 1.478 . S
C515 H509 0.930 . S
C515 C511 1.400 . S
C515 C514 1.385 1_556 S
C516 C514 1.478 . S
C516 C518 1.381 . S
C516 C522 1.383 . S
C517 C513 1.495 . S
C517 H523 0.959 . S
C517 H524 0.961 . S
C517 H525 0.960 . S
C518 C516 1.381 . S
C518 C519 1.394 . S
C518 H526 0.930 . S
C519 C518 1.394 . S
C519 C520 1.383 . S
C519 H527 0.929 . S
C520 C519 1.383 . S
C520 C521 1.377 . S
C521 H505 0.930 . S
C521 C520 1.377 . S
C521 C522 1.379 . S
C522 H506 0.931 . S
C522 C516 1.383 . S
C522 C521 1.379 . S
H523 C517 0.959 . S
H524 C517 0.961 . S
H525 C517 0.960 . S
H526 C518 0.930 . S
H527 C519 0.929 . S
H528 C536 0.929 . S
H529 C538 0.930 . S
H530 C540 0.930 . S
H531 C543 0.929 . S
H532 C546 0.930 . S
H533 C548 0.960 . S
H534 C548 0.960 . S
H535 C548 0.960 . S
C536 H528 0.929 . S
C536 C537 1.377 . S
C536 C538 1.384 . S
C537 C536 1.377 . S
C537 C543 1.390 . S
C538 H529 0.930 . S
C538 C536 1.384 . S
C538 C539 1.372 . S
C539 C538 1.372 . S
C539 C540 1.400 . S
C539 C544 1.490 . S
C540 H530 0.930 . S
C540 C539 1.400 . S
C540 C543 1.386 . S
H541 C557 0.930 . S
H542 C558 0.931 . S
C543 H531 0.929 . S
C543 C537 1.390 . S
C543 C540 1.386 . S
C544 C539 1.490 . S
C544 C546 1.395 . S
C544 C547 1.403 . S
H545 C551 0.930 . S
C546 H532 0.930 . S
C546 C544 1.395 . S
C546 C549 1.403 . S
C547 C544 1.403 . S
C547 C548 1.524 . S
C547 C551 1.400 . S
C548 H533 0.960 . S
C548 H534 0.960 . S
C548 H535 0.960 . S
C548 C547 1.524 . S
C549 C546 1.403 . S
C549 C550 1.392 . S
C549 C553 1.495 . S
C550 C549 1.392 . S
C550 C551 1.385 . S
C550 C552 1.478 . S
C551 H545 0.930 . S
C551 C547 1.400 . S
C551 C550 1.385 . S
C552 C550 1.478 . S
C552 C554 1.381 . S
C552 C558 1.383 . S
C553 C549 1.495 . S
C553 H559 0.959 . S
C553 H560 0.961 . S
C553 H561 0.960 . S
C554 C552 1.381 . S
C554 C555 1.394 . S
C554 H562 0.930 . S
C555 C554 1.394 . S
C555 C556 1.383 . S
C555 H563 0.929 . S
C556 C555 1.383 . S
C556 C557 1.377 . S
C557 H541 0.930 . S
C557 C556 1.377 . S
C557 C558 1.379 . S
C558 H542 0.931 . S
C558 C552 1.383 . S
C558 C557 1.379 . S
H559 C553 0.959 . S
H560 C553 0.961 . S
H561 C553 0.960 . S
H562 C554 0.930 . S
H563 C555 0.929 . S
H564 C572 0.929 . S
H565 C574 0.930 . S
H566 C576 0.930 . S
H567 C579 0.929 . S
H568 C582 0.930 . S
H569 C584 0.960 . S
H570 C584 0.960 . S
H571 C584 0.960 . S
C572 H564 0.929 . S
C572 C573 1.377 . S
C572 C574 1.384 . S
C573 C572 1.377 . S
C573 C579 1.390 . S
C574 H565 0.930 . S
C574 C572 1.384 . S
C574 C575 1.372 . S
C575 C574 1.372 . S
C575 C576 1.400 . S
C575 C580 1.490 . S
C576 H566 0.930 . S
C576 C575 1.400 . S
C576 C579 1.386 . S
H577 C593 0.930 . S
H578 C594 0.931 . S
C579 H567 0.929 . S
C579 C573 1.390 . S
C579 C576 1.386 . S
C580 C575 1.490 . S
C580 C582 1.395 . S
C580 C583 1.403 . S
H581 C587 0.930 . S
C582 H568 0.930 . S
C582 C580 1.395 . S
C582 C585 1.403 . S
C583 C580 1.403 . S
C583 C584 1.524 . S
C583 C587 1.400 . S
C584 H569 0.960 . S
C584 H570 0.960 . S
C584 H571 0.960 . S
C584 C583 1.524 . S
C585 C582 1.403 . S
C585 C586 1.392 . S
C585 C589 1.495 . S
C586 C585 1.392 . S
C586 C587 1.385 . S
C586 C588 1.478 . S
C587 H581 0.930 . S
C587 C583 1.400 . S
C587 C586 1.385 . S
C588 C586 1.478 . S
C588 C590 1.381 . S
C588 C594 1.383 . S
C589 C585 1.495 . S
C589 H595 0.959 . S
C589 H596 0.961 . S
C589 H597 0.960 . S
C590 C588 1.381 . S
C590 C591 1.394 . S
C590 H598 0.930 . S
C591 C590 1.394 . S
C591 C592 1.383 . S
C591 H599 0.929 . S
C592 C591 1.383 . S
C592 C593 1.377 . S
C593 H577 0.930 . S
C593 C592 1.377 . S
C593 C594 1.379 . S
C594 H578 0.931 . S
C594 C588 1.383 . S
C594 C593 1.379 . S
H595 C589 0.959 . S
H596 C589 0.961 . S
H597 C589 0.960 . S
H598 C590 0.930 . S
H599 C591 0.929 . S
H600 C608 0.929 . S
H601 C610 0.930 . S
H602 C612 0.930 . S
H603 C615 0.929 . S
H604 C618 0.930 . S
H605 C620 0.960 . S
H606 C620 0.960 . S
H607 C620 0.960 . S
C608 H600 0.929 . S
C608 C609 1.377 . S
C608 C610 1.384 . S
C609 C608 1.377 . S
C609 C615 1.390 . S
C610 H601 0.930 . S
C610 C608 1.384 . S
C610 C611 1.372 . S
C611 C610 1.372 . S
C611 C612 1.400 . S
C611 C616 1.490 . S
C612 H602 0.930 . S
C612 C611 1.400 . S
C612 C615 1.386 . S
H613 C629 0.930 . S
H614 C630 0.931 . S
C615 H603 0.929 . S
C615 C609 1.390 . S
C615 C612 1.386 . S
C616 C611 1.490 . S
C616 C618 1.395 1_556 S
C616 C619 1.403 . S
H617 C623 0.930 . S
C618 H604 0.930 . S
C618 C616 1.395 1_554 S
C618 C621 1.403 . S
C619 C616 1.403 . S
C619 C620 1.524 . S
C619 C623 1.400 . S
C620 H605 0.960 . S
C620 H606 0.960 . S
C620 H607 0.960 . S
C620 C619 1.524 . S
C621 C618 1.403 . S
C621 C622 1.392 . S
C621 C625 1.495 . S
C622 C621 1.392 . S
C622 C623 1.385 1_554 S
C622 C624 1.478 . S
C623 H617 0.930 . S
C623 C619 1.400 . S
C623 C622 1.385 1_556 S
C624 C622 1.478 . S
C624 C626 1.381 . S
C624 C630 1.383 . S
C625 C621 1.495 . S
C625 H631 0.959 . S
C625 H632 0.961 . S
C625 H633 0.960 . S
C626 C624 1.381 . S
C626 C627 1.394 . S
C626 H634 0.930 . S
C627 C626 1.394 . S
C627 C628 1.383 . S
C627 H635 0.929 . S
C628 C627 1.383 . S
C628 C629 1.377 . S
C629 H613 0.930 . S
C629 C628 1.377 . S
C629 C630 1.379 . S
C630 H614 0.931 . S
C630 C624 1.383 . S
C630 C629 1.379 . S
H631 C625 0.959 . S
H632 C625 0.961 . S
H633 C625 0.960 . S
H634 C626 0.930 . S
H635 C627 0.929 . S
H636 C644 0.929 . S
H637 C646 0.930 . S
H638 C648 0.930 . S
H639 C651 0.929 . S
H640 C654 0.930 . S
H641 C656 0.960 . S
H642 C656 0.960 . S
H643 C656 0.960 . S
C644 H636 0.929 . S
C644 C645 1.377 . S
C644 C646 1.384 . S
C645 C644 1.377 . S
C645 C651 1.390 . S
C646 H637 0.930 . S
C646 C644 1.384 . S
C646 C647 1.372 . S
C647 C646 1.372 . S
C647 C648 1.400 . S
C647 C652 1.490 . S
C648 H638 0.930 . S
C648 C647 1.400 . S
C648 C651 1.386 . S
H649 C665 0.930 . S
H650 C666 0.931 . S
C651 H639 0.929 . S
C651 C645 1.390 . S
C651 C648 1.386 . S
C652 C647 1.490 . S
C652 C654 1.395 . S
C652 C655 1.403 . S
H653 C659 0.930 . S
C654 H640 0.930 . S
C654 C652 1.395 . S
C654 C657 1.403 . S
C655 C652 1.403 . S
C655 C656 1.524 . S
C655 C659 1.400 . S
C656 H641 0.960 . S
C656 H642 0.960 . S
C656 H643 0.960 . S
C656 C655 1.524 . S
C657 C654 1.403 . S
C657 C658 1.392 . S
C657 C661 1.495 . S
C658 C657 1.392 . S
C658 C659 1.385 . S
C658 C660 1.478 . S
C659 H653 0.930 . S
C659 C655 1.400 . S
C659 C658 1.385 . S
C660 C658 1.478 . S
C660 C662 1.381 . S
C660 C666 1.383 . S
C661 C657 1.495 . S
C661 H667 0.959 . S
C661 H668 0.961 . S
C661 H669 0.960 . S
C662 C660 1.381 . S
C662 C663 1.394 . S
C662 H670 0.930 . S
C663 C662 1.394 . S
C663 C664 1.383 . S
C663 H671 0.929 . S
C664 C663 1.383 . S
C664 C665 1.377 . S
C665 H649 0.930 . S
C665 C664 1.377 . S
C665 C666 1.379 . S
C666 H650 0.931 . S
C666 C660 1.383 . S
C666 C665 1.379 . S
H667 C661 0.959 . S
H668 C661 0.961 . S
H669 C661 0.960 . S
H670 C662 0.930 . S
H671 C663 0.929 . S
H672 C680 0.929 . S
H673 C682 0.930 . S
H674 C684 0.930 . S
H675 C687 0.929 . S
H676 C690 0.930 . S
H677 C692 0.960 . S
H678 C692 0.960 . S
H679 C692 0.960 . S
C680 H672 0.929 . S
C680 C681 1.377 . S
C680 C682 1.384 . S
C681 C680 1.377 . S
C681 C687 1.390 . S
C682 H673 0.930 . S
C682 C680 1.384 . S
C682 C683 1.372 . S
C683 C682 1.372 . S
C683 C684 1.400 . S
C683 C688 1.490 . S
C684 H674 0.930 . S
C684 C683 1.400 . S
C684 C687 1.386 . S
H685 C701 0.930 . S
H686 C702 0.931 . S
C687 H675 0.929 . S
C687 C681 1.390 . S
C687 C684 1.386 . S
C688 C683 1.490 . S
C688 C690 1.395 . S
C688 C691 1.403 . S
H689 C695 0.930 . S
C690 H676 0.930 . S
C690 C688 1.395 . S
C690 C693 1.403 . S
C691 C688 1.403 . S
C691 C692 1.524 . S
C691 C695 1.400 . S
C692 H677 0.960 . S
C692 H678 0.960 . S
C692 H679 0.960 . S
C692 C691 1.524 . S
C693 C690 1.403 . S
C693 C694 1.392 . S
C693 C697 1.495 . S
C694 C693 1.392 . S
C694 C695 1.385 . S
C694 C696 1.478 . S
C695 H689 0.930 . S
C695 C691 1.400 . S
C695 C694 1.385 . S
C696 C694 1.478 . S
C696 C698 1.381 . S
C696 C702 1.383 . S
C697 C693 1.495 . S
C697 H703 0.959 . S
C697 H704 0.961 . S
C697 H705 0.960 . S
C698 C696 1.381 . S
C698 C699 1.394 . S
C698 H706 0.930 . S
C699 C698 1.394 . S
C699 C700 1.383 . S
C699 H707 0.929 . S
C700 C699 1.383 . S
C700 C701 1.377 . S
C701 H685 0.930 . S
C701 C700 1.377 . S
C701 C702 1.379 . S
C702 H686 0.931 . S
C702 C696 1.383 . S
C702 C701 1.379 . S
H703 C697 0.959 . S
H704 C697 0.961 . S
H705 C697 0.960 . S
H706 C698 0.930 . S
H707 C699 0.929 . S
H708 C716 0.929 . S
H709 C718 0.930 . S
H710 C720 0.930 . S
H711 C723 0.929 . S
H712 C726 0.930 . S
H713 C728 0.960 . S
H714 C728 0.960 . S
H715 C728 0.960 . S
C716 H708 0.929 . S
C716 C717 1.377 . S
C716 C718 1.384 . S
C717 C716 1.377 . S
C717 C723 1.390 . S
C718 H709 0.930 . S
C718 C716 1.384 . S
C718 C719 1.372 . S
C719 C718 1.372 . S
C719 C720 1.400 . S
C719 C724 1.490 . S
C720 H710 0.930 . S
C720 C719 1.400 . S
C720 C723 1.386 . S
H721 C737 0.930 . S
H722 C738 0.931 . S
C723 H711 0.929 . S
C723 C717 1.390 . S
C723 C720 1.386 . S
C724 C719 1.490 . S
C724 C726 1.395 . S
C724 C727 1.403 . S
H725 C731 0.930 . S
C726 H712 0.930 . S
C726 C724 1.395 . S
C726 C729 1.403 . S
C727 C724 1.403 . S
C727 C728 1.524 . S
C727 C731 1.400 . S
C728 H713 0.960 . S
C728 H714 0.960 . S
C728 H715 0.960 . S
C728 C727 1.524 . S
C729 C726 1.403 . S
C729 C730 1.392 . S
C729 C733 1.495 . S
C730 C729 1.392 . S
C730 C731 1.385 . S
C730 C732 1.478 . S
C731 H725 0.930 . S
C731 C727 1.400 . S
C731 C730 1.385 . S
C732 C730 1.478 . S
C732 C734 1.381 . S
C732 C738 1.383 . S
C733 C729 1.495 . S
C733 H739 0.959 . S
C733 H740 0.961 . S
C733 H741 0.960 . S
C734 C732 1.381 . S
C734 C735 1.394 . S
C734 H742 0.930 . S
C735 C734 1.394 . S
C735 C736 1.383 . S
C735 H743 0.929 . S
C736 C735 1.383 . S
C736 C737 1.377 . S
C737 H721 0.930 . S
C737 C736 1.377 . S
C737 C738 1.379 . S
C738 H722 0.931 . S
C738 C732 1.383 . S
C738 C737 1.379 . S
H739 C733 0.959 . S
H740 C733 0.961 . S
H741 C733 0.960 . S
H742 C734 0.930 . S
H743 C735 0.929 . S
H744 C752 0.929 . S
H745 C754 0.930 . S
H746 C756 0.930 . S
H747 C759 0.929 . S
H748 C762 0.930 . S
H749 C764 0.960 . S
H750 C764 0.960 . S
H751 C764 0.960 . S
C752 H744 0.929 . S
C752 C753 1.377 . S
C752 C754 1.384 . S
C753 C752 1.377 . S
C753 C759 1.390 . S
C754 H745 0.930 . S
C754 C752 1.384 . S
C754 C755 1.372 . S
C755 C754 1.372 . S
C755 C756 1.400 . S
C755 C760 1.490 . S
C756 H746 0.930 . S
C756 C755 1.400 . S
C756 C759 1.386 . S
H757 C773 0.930 . S
H758 C774 0.931 . S
C759 H747 0.929 . S
C759 C753 1.390 . S
C759 C756 1.386 . S
C760 C755 1.490 . S
C760 C762 1.395 . S
C760 C763 1.403 . S
H761 C767 0.930 . S
C762 H748 0.930 . S
C762 C760 1.395 . S
C762 C765 1.403 . S
C763 C760 1.403 . S
C763 C764 1.524 . S
C763 C767 1.400 . S
C764 H749 0.960 . S
C764 H750 0.960 . S
C764 H751 0.960 . S
C764 C763 1.524 . S
C765 C762 1.403 . S
C765 C766 1.392 . S
C765 C769 1.495 . S
C766 C765 1.392 . S
C766 C767 1.385 . S
C766 C768 1.478 . S
C767 H761 0.930 . S
C767 C763 1.400 . S
C767 C766 1.385 . S
C768 C766 1.478 . S
C768 C770 1.381 . S
C768 C774 1.383 . S
C769 C765 1.495 . S
C769 H775 0.959 . S
C769 H776 0.961 . S
C769 H777 0.960 . S
C770 C768 1.381 . S
C770 C771 1.394 . S
C770 H778 0.930 . S
C771 C770 1.394 . S
C771 C772 1.383 . S
C771 H779 0.929 . S
C772 C771 1.383 . S
C772 C773 1.377 . S
C773 H757 0.930 . S
C773 C772 1.377 . S
C773 C774 1.379 . S
C774 H758 0.931 . S
C774 C768 1.383 . S
C774 C773 1.379 . S
H775 C769 0.959 . S
H776 C769 0.961 . S
H777 C769 0.960 . S
H778 C770 0.930 . S
H779 C771 0.929 . S
H780 C788 0.929 . S
H781 C790 0.930 . S
H782 C792 0.930 . S
H783 C795 0.929 . S
H784 C798 0.930 . S
H785 C800 0.960 . S
H786 C800 0.960 . S
H787 C800 0.960 . S
C788 H780 0.929 . S
C788 C789 1.377 . S
C788 C790 1.384 . S
C789 C788 1.377 . S
C789 C795 1.390 . S
C790 H781 0.930 . S
C790 C788 1.384 . S
C790 C791 1.372 . S
C791 C790 1.372 . S
C791 C792 1.400 . S
C791 C796 1.490 . S
C792 H782 0.930 . S
C792 C791 1.400 . S
C792 C795 1.386 . S
H793 C809 0.930 . S
H794 C810 0.931 . S
C795 H783 0.929 . S
C795 C789 1.390 . S
C795 C792 1.386 . S
C796 C791 1.490 . S
C796 C798 1.395 . S
C796 C799 1.403 . S
H797 C803 0.930 . S
C798 H784 0.930 . S
C798 C796 1.395 . S
C798 C801 1.403 . S
C799 C796 1.403 . S
C799 C800 1.524 . S
C799 C803 1.400 . S
C800 H785 0.960 . S
C800 H786 0.960 . S
C800 H787 0.960 . S
C800 C799 1.524 . S
C801 C798 1.403 . S
C801 C802 1.392 . S
C801 C805 1.495 . S
C802 C801 1.392 . S
C802 C803 1.385 . S
C802 C804 1.478 . S
C803 H797 0.930 . S
C803 C799 1.400 . S
C803 C802 1.385 . S
C804 C802 1.478 . S
C804 C806 1.381 . S
C804 C810 1.383 . S
C805 C801 1.495 . S
C805 H811 0.959 . S
C805 H812 0.961 . S
C805 H813 0.960 . S
C806 C804 1.381 . S
C806 C807 1.394 . S
C806 H814 0.930 . S
C807 C806 1.394 . S
C807 C808 1.383 . S
C807 H815 0.929 . S
C808 C807 1.383 . S
C808 C809 1.377 . S
C809 H793 0.930 . S
C809 C808 1.377 . S
C809 C810 1.379 . S
C810 H794 0.931 . S
C810 C804 1.383 . S
C810 C809 1.379 . S
H811 C805 0.959 . S
H812 C805 0.961 . S
H813 C805 0.960 . S
H814 C806 0.930 . S
H815 C807 0.929 . S
H816 C824 0.929 . S
H817 C826 0.930 . S
H818 C828 0.930 . S
H819 C831 0.929 . S
H820 C834 0.930 . S
H821 C836 0.960 . S
H822 C836 0.960 . S
H823 C836 0.960 . S
C824 H816 0.929 . S
C824 C825 1.377 . S
C824 C826 1.384 . S
C825 C824 1.377 . S
C825 C831 1.390 . S
C826 H817 0.930 . S
C826 C824 1.384 . S
C826 C827 1.372 . S
C827 C826 1.372 . S
C827 C828 1.400 . S
C827 C832 1.490 . S
C828 H818 0.930 . S
C828 C827 1.400 . S
C828 C831 1.386 . S
H829 C845 0.930 . S
H830 C846 0.931 . S
C831 H819 0.929 . S
C831 C825 1.390 . S
C831 C828 1.386 . S
C832 C827 1.490 . S
C832 C834 1.395 . S
C832 C835 1.403 . S
H833 C839 0.930 . S
C834 H820 0.930 . S
C834 C832 1.395 . S
C834 C837 1.403 . S
C835 C832 1.403 . S
C835 C836 1.524 . S
C835 C839 1.400 . S
C836 H821 0.960 . S
C836 H822 0.960 . S
C836 H823 0.960 . S
C836 C835 1.524 . S
C837 C834 1.403 . S
C837 C838 1.392 . S
C837 C841 1.495 . S
C838 C837 1.392 . S
C838 C839 1.385 . S
C838 C840 1.478 . S
C839 H833 0.930 . S
C839 C835 1.400 . S
C839 C838 1.385 . S
C840 C838 1.478 . S
C840 C842 1.381 . S
C840 C846 1.383 . S
C841 C837 1.495 . S
C841 H847 0.959 . S
C841 H848 0.961 . S
C841 H849 0.960 . S
C842 C840 1.381 . S
C842 C843 1.394 . S
C842 H850 0.930 . S
C843 C842 1.394 . S
C843 C844 1.383 . S
C843 H851 0.929 . S
C844 C843 1.383 . S
C844 C845 1.377 . S
C845 H829 0.930 . S
C845 C844 1.377 . S
C845 C846 1.379 . S
C846 H830 0.931 . S
C846 C840 1.383 . S
C846 C845 1.379 . S
H847 C841 0.959 . S
H848 C841 0.961 . S
H849 C841 0.960 . S
H850 C842 0.930 . S
H851 C843 0.929 . S
H852 C860 0.929 . S
H853 C862 0.930 . S
H854 C864 0.930 . S
H855 C867 0.929 . S
H856 C870 0.930 . S
H857 C872 0.960 . S
H858 C872 0.960 . S
H859 C872 0.960 . S
C860 H852 0.929 . S
C860 C861 1.377 . S
C860 C862 1.384 . S
C861 C860 1.377 . S
C861 C867 1.390 . S
C862 H853 0.930 . S
C862 C860 1.384 . S
C862 C863 1.372 . S
C863 C862 1.372 . S
C863 C864 1.400 . S
C863 C868 1.490 . S
C864 H854 0.930 . S
C864 C863 1.400 . S
C864 C867 1.386 . S
H865 C881 0.930 . S
H866 C882 0.931 . S
C867 H855 0.929 . S
C867 C861 1.390 . S
C867 C864 1.386 . S
C868 C863 1.490 . S
C868 C870 1.395 . S
C868 C871 1.403 . S
H869 C875 0.930 . S
C870 H856 0.930 . S
C870 C868 1.395 . S
C870 C873 1.403 . S
C871 C868 1.403 . S
C871 C872 1.524 . S
C871 C875 1.400 . S
C872 H857 0.960 . S
C872 H858 0.960 . S
C872 H859 0.960 . S
C872 C871 1.524 . S
C873 C870 1.403 . S
C873 C874 1.392 . S
C873 C877 1.495 . S
C874 C873 1.392 . S
C874 C875 1.385 . S
C874 C876 1.478 . S
C875 H869 0.930 . S
C875 C871 1.400 . S
C875 C874 1.385 . S
C876 C874 1.478 . S
C876 C878 1.381 . S
C876 C882 1.383 . S
C877 C873 1.495 . S
C877 H883 0.959 . S
C877 H884 0.961 . S
C877 H885 0.960 . S
C878 C876 1.381 . S
C878 C879 1.394 . S
C878 H886 0.930 . S
C879 C878 1.394 . S
C879 C880 1.383 . S
C879 H887 0.929 . S
C880 C879 1.383 . S
C880 C881 1.377 . S
C881 H865 0.930 . S
C881 C880 1.377 . S
C881 C882 1.379 . S
C882 H866 0.931 . S
C882 C876 1.383 . S
C882 C881 1.379 . S
H883 C877 0.959 . S
H884 C877 0.961 . S
H885 C877 0.960 . S
H886 C878 0.930 . S
H887 C879 0.929 . S
H888 C896 0.929 . S
H889 C898 0.930 . S
H890 C900 0.930 . S
H891 C903 0.929 . S
H892 C906 0.930 . S
H893 C908 0.960 . S
H894 C908 0.960 . S
H895 C908 0.960 . S
C896 H888 0.929 . S
C896 C897 1.377 . S
C896 C898 1.384 . S
C897 C896 1.377 . S
C897 C903 1.390 . S
C898 H889 0.930 . S
C898 C896 1.384 . S
C898 C899 1.372 . S
C899 C898 1.372 . S
C899 C900 1.400 . S
C899 C904 1.490 . S
C900 H890 0.930 . S
C900 C899 1.400 . S
C900 C903 1.386 . S
H901 C917 0.930 . S
H902 C918 0.931 . S
C903 H891 0.929 . S
C903 C897 1.390 . S
C903 C900 1.386 . S
C904 C899 1.490 . S
C904 C906 1.395 . S
C904 C907 1.403 . S
H905 C911 0.930 . S
C906 H892 0.930 . S
C906 C904 1.395 . S
C906 C909 1.403 . S
C907 C904 1.403 . S
C907 C908 1.524 . S
C907 C911 1.400 . S
C908 H893 0.960 . S
C908 H894 0.960 . S
C908 H895 0.960 . S
C908 C907 1.524 . S
C909 C906 1.403 . S
C909 C910 1.392 . S
C909 C913 1.495 . S
C910 C909 1.392 . S
C910 C911 1.385 . S
C910 C912 1.478 . S
C911 H905 0.930 . S
C911 C907 1.400 . S
C911 C910 1.385 . S
C912 C910 1.478 . S
C912 C914 1.381 . S
C912 C918 1.383 . S
C913 C909 1.495 . S
C913 H919 0.959 . S
C913 H920 0.961 . S
C913 H921 0.960 . S
C914 C912 1.381 . S
C914 C915 1.394 . S
C914 H922 0.930 . S
C915 C914 1.394 . S
C915 C916 1.383 . S
C915 H923 0.929 . S
C916 C915 1.383 . S
C916 C917 1.377 . S
C917 H901 0.930 . S
C917 C916 1.377 . S
C917 C918 1.379 . S
C918 H902 0.931 . S
C918 C912 1.383 . S
C918 C917 1.379 . S
H919 C913 0.959 . S
H920 C913 0.961 . S
H921 C913 0.960 . S
H922 C914 0.930 . S
H923 C915 0.929 . S
H924 C932 0.929 . S
H925 C934 0.930 . S
H926 C936 0.930 . S
H927 C939 0.929 . S
H928 C942 0.930 . S
H929 C944 0.960 . S
H930 C944 0.960 . S
H931 C944 0.960 . S
C932 H924 0.929 . S
C932 C933 1.377 . S
C932 C934 1.384 . S
C933 C932 1.377 . S
C933 C939 1.390 . S
C934 H925 0.930 . S
C934 C932 1.384 . S
C934 C935 1.372 . S
C935 C934 1.372 . S
C935 C936 1.400 . S
C935 C940 1.490 . S
C936 H926 0.930 . S
C936 C935 1.400 . S
C936 C939 1.386 . S
H937 C953 0.930 . S
H938 C954 0.931 . S
C939 H927 0.929 . S
C939 C933 1.390 . S
C939 C936 1.386 . S
C940 C935 1.490 . S
C940 C942 1.395 . S
C940 C943 1.403 . S
H941 C947 0.930 . S
C942 H928 0.930 . S
C942 C940 1.395 . S
C942 C945 1.403 . S
C943 C940 1.403 . S
C943 C944 1.524 . S
C943 C947 1.400 . S
C944 H929 0.960 . S
C944 H930 0.960 . S
C944 H931 0.960 . S
C944 C943 1.524 . S
C945 C942 1.403 . S
C945 C946 1.392 . S
C945 C949 1.495 . S
C946 C945 1.392 . S
C946 C947 1.385 . S
C946 C948 1.478 . S
C947 H941 0.930 . S
C947 C943 1.400 . S
C947 C946 1.385 . S
C948 C946 1.478 . S
C948 C950 1.381 . S
C948 C954 1.383 . S
C949 C945 1.495 . S
C949 H955 0.959 . S
C949 H956 0.961 . S
C949 H957 0.960 . S
C950 C948 1.381 . S
C950 C951 1.394 . S
C950 H958 0.930 . S
C951 C950 1.394 . S
C951 C952 1.383 . S
C951 H959 0.929 . S
C952 C951 1.383 . S
C952 C953 1.377 . S
C953 H937 0.930 . S
C953 C952 1.377 . S
C953 C954 1.379 . S
C954 H938 0.931 . S
C954 C948 1.383 . S
C954 C953 1.379 . S
H955 C949 0.959 . S
H956 C949 0.961 . S
H957 C949 0.960 . S
H958 C950 0.930 . S
H959 C951 0.929 . S
H960 C968 0.929 . S
H961 C970 0.930 . S
H962 C972 0.930 . S
H963 C975 0.929 . S
H964 C978 0.933 . S
H965 C980 0.960 . S
H966 C980 0.960 . S
H967 C980 0.960 . S
C968 H960 0.929 . S
C968 C969 1.377 . S
C968 C970 1.384 . S
C969 C968 1.377 . S
C969 C975 1.390 . S
C970 H961 0.930 . S
C970 C968 1.384 . S
C970 C971 1.372 . S
C971 C970 1.372 . S
C971 C972 1.400 . S
C971 C976 1.490 . S
C972 H962 0.930 . S
C972 C971 1.400 . S
C972 C975 1.386 . S
H973 C989 0.930 . S
H974 C990 0.931 . S
C975 H963 0.929 . S
C975 C969 1.390 . S
C975 C972 1.386 . S
C976 C971 1.490 . S
C976 C978 1.395 1_655 S
C976 C979 1.403 . S
H977 C983 0.930 . S
C978 H964 0.933 . S
C978 C976 1.395 1_455 S
C978 C981 1.403 . S
C979 C976 1.403 . S
C979 C980 1.524 . S
C979 C983 1.400 1_655 S
C980 H965 0.960 . S
C980 H966 0.960 . S
C980 H967 0.960 . S
C980 C979 1.524 . S
C981 C978 1.403 . S
C981 C982 1.392 . S
C981 C985 1.495 . S
C982 C981 1.392 . S
C982 C983 1.385 . S
C982 C984 1.478 . S
C983 H977 0.930 . S
C983 C979 1.400 1_455 S
C983 C982 1.385 . S
C984 C982 1.478 . S
C984 C986 1.381 . S
C984 C990 1.383 . S
C985 C981 1.495 . S
C985 H991 0.959 . S
C985 H992 0.961 . S
C985 H993 0.960 . S
C986 C984 1.381 . S
C986 C987 1.394 . S
C986 H994 0.930 . S
C987 C986 1.394 . S
C987 C988 1.383 . S
C987 H995 0.929 . S
C988 C987 1.383 . S
C988 C989 1.377 . S
C989 H973 0.930 . S
C989 C988 1.377 . S
C989 C990 1.379 . S
C990 H974 0.931 . S
C990 C984 1.383 . S
C990 C989 1.379 . S
H991 C985 0.959 . S
H992 C985 0.961 . S
H993 C985 0.960 . S
H994 C986 0.930 . S
H995 C987 0.929 . S
H996 C1004 0.929 . S
H997 C1006 0.930 . S
H998 C1008 0.930 . S
H999 C1011 0.929 . S
H1000 C1014 0.930 . S
H1001 C1016 0.960 . S
H1002 C1016 0.960 . S
H1003 C1016 0.960 . S
C1004 H996 0.929 . S
C1004 C1005 1.377 . S
C1004 C1006 1.384 . S
C1005 C1004 1.377 . S
C1005 C1011 1.390 . S
C1006 H997 0.930 . S
C1006 C1004 1.384 . S
C1006 C1007 1.372 . S
C1007 C1006 1.372 . S
C1007 C1008 1.400 . S
C1007 C1012 1.490 . S
C1008 H998 0.930 . S
C1008 C1007 1.400 . S
C1008 C1011 1.386 . S
H1009 C1025 0.930 . S
H1010 C1026 0.931 . S
C1011 H999 0.929 . S
C1011 C1005 1.390 . S
C1011 C1008 1.386 . S
C1012 C1007 1.490 . S
C1012 C1014 1.395 1_545 S
C1012 C1015 1.403 . S
H1013 C1019 0.930 . S
C1014 H1000 0.930 . S
C1014 C1012 1.395 1_565 S
C1014 C1017 1.403 . S
C1015 C1012 1.403 . S
C1015 C1016 1.524 . S
C1015 C1019 1.400 1_545 S
C1016 H1001 0.960 . S
C1016 H1002 0.960 . S
C1016 H1003 0.960 . S
C1016 C1015 1.524 . S
C1017 C1014 1.403 . S
C1017 C1018 1.392 . S
C1017 C1021 1.495 . S
C1018 C1017 1.392 . S
C1018 C1019 1.385 . S
C1018 C1020 1.478 . S
C1019 H1013 0.930 . S
C1019 C1015 1.400 1_565 S
C1019 C1018 1.385 . S
C1020 C1018 1.478 . S
C1020 C1022 1.381 . S
C1020 C1026 1.383 . S
C1021 C1017 1.495 . S
C1021 H1027 0.959 . S
C1021 H1028 0.961 . S
C1021 H1029 0.960 . S
C1022 C1020 1.381 . S
C1022 C1023 1.394 . S
C1022 H1030 0.930 . S
C1023 C1022 1.394 . S
C1023 C1024 1.383 . S
C1023 H1031 0.929 . S
C1024 C1023 1.383 . S
C1024 C1025 1.377 . S
C1025 H1009 0.930 . S
C1025 C1024 1.377 . S
C1025 C1026 1.379 . S
C1026 H1010 0.931 . S
C1026 C1020 1.383 . S
C1026 C1025 1.379 . S
H1027 C1021 0.959 . S
H1028 C1021 0.961 . S
H1029 C1021 0.960 . S
H1030 C1022 0.930 . S
H1031 C1023 0.929 . S
H1032 C1040 0.929 . S
H1033 C1042 0.930 . S
H1034 C1044 0.930 . S
H1035 C1047 0.929 . S
H1036 C1050 0.930 . S
H1037 C1052 0.960 . S
H1038 C1052 0.960 . S
H1039 C1052 0.960 . S
C1040 H1032 0.929 . S
C1040 C1041 1.377 . S
C1040 C1042 1.384 . S
C1041 C1040 1.377 . S
C1041 C1047 1.390 . S
C1042 H1033 0.930 . S
C1042 C1040 1.384 . S
C1042 C1043 1.372 . S
C1043 C1042 1.372 . S
C1043 C1044 1.400 . S
C1043 C1048 1.490 . S
C1044 H1034 0.930 . S
C1044 C1043 1.400 . S
C1044 C1047 1.386 . S
H1045 C1061 0.930 . S
H1046 C1062 0.931 . S
C1047 H1035 0.929 . S
C1047 C1041 1.390 . S
C1047 C1044 1.386 . S
C1048 C1043 1.490 . S
C1048 C1050 1.395 . S
C1048 C1051 1.403 . S
H1049 C1055 0.930 . S
C1050 H1036 0.930 . S
C1050 C1048 1.395 . S
C1050 C1053 1.403 . S
C1051 C1048 1.403 . S
C1051 C1052 1.524 . S
C1051 C1055 1.400 . S
C1052 H1037 0.960 . S
C1052 H1038 0.960 . S
C1052 H1039 0.960 . S
C1052 C1051 1.524 . S
C1053 C1050 1.403 . S
C1053 C1054 1.392 . S
C1053 C1057 1.495 . S
C1054 C1053 1.392 . S
C1054 C1055 1.385 . S
C1054 C1056 1.478 . S
C1055 H1049 0.930 . S
C1055 C1051 1.400 . S
C1055 C1054 1.385 . S
C1056 C1054 1.478 . S
C1056 C1058 1.381 . S
C1056 C1062 1.383 . S
C1057 C1053 1.495 . S
C1057 H1063 0.959 . S
C1057 H1064 0.961 . S
C1057 H1065 0.960 . S
C1058 C1056 1.381 . S
C1058 C1059 1.394 . S
C1058 H1066 0.930 . S
C1059 C1058 1.394 . S
C1059 C1060 1.383 . S
C1059 H1067 0.929 . S
C1060 C1059 1.383 . S
C1060 C1061 1.377 . S
C1061 H1045 0.930 . S
C1061 C1060 1.377 . S
C1061 C1062 1.379 . S
C1062 H1046 0.931 . S
C1062 C1056 1.383 . S
C1062 C1061 1.379 . S
H1063 C1057 0.959 . S
H1064 C1057 0.961 . S
H1065 C1057 0.960 . S
H1066 C1058 0.930 . S
H1067 C1059 0.929 . S
H1068 C1076 0.929 . S
H1069 C1078 0.930 . S
H1070 C1080 0.930 . S
H1071 C1083 0.929 . S
H1072 C1086 0.930 . S
H1073 C1088 0.960 1_655 S
H1074 C1088 0.960 . S
H1075 C1088 0.960 . S
C1076 H1068 0.929 . S
C1076 C1077 1.377 . S
C1076 C1078 1.384 . S
C1077 C1076 1.377 . S
C1077 C1083 1.390 . S
C1078 H1069 0.930 . S
C1078 C1076 1.384 . S
C1078 C1079 1.372 . S
C1079 C1078 1.372 . S
C1079 C1080 1.400 . S
C1079 C1084 1.490 . S
C1080 H1070 0.930 . S
C1080 C1079 1.400 . S
C1080 C1083 1.386 . S
H1081 C1097 0.930 . S
H1082 C1098 0.931 . S
C1083 H1071 0.929 . S
C1083 C1077 1.390 . S
C1083 C1080 1.386 . S
C1084 C1079 1.490 . S
C1084 C1086 1.395 . S
C1084 C1087 1.403 . S
H1085 C1091 0.930 . S
C1086 H1072 0.930 . S
C1086 C1084 1.395 . S
C1086 C1089 1.403 1_455 S
C1087 C1084 1.403 . S
C1087 C1088 1.524 . S
C1087 C1091 1.400 1_455 S
C1088 H1073 0.960 1_455 S
C1088 H1074 0.960 . S
C1088 H1075 0.960 . S
C1088 C1087 1.524 . S
C1089 C1086 1.403 1_655 S
C1089 C1090 1.392 . S
C1089 C1093 1.495 . S
C1090 C1089 1.392 . S
C1090 C1091 1.385 . S
C1090 C1092 1.478 . S
C1091 H1085 0.930 . S
C1091 C1087 1.400 1_655 S
C1091 C1090 1.385 . S
C1092 C1090 1.478 . S
C1092 C1094 1.381 . S
C1092 C1098 1.383 . S
C1093 C1089 1.495 . S
C1093 H1099 0.959 1_655 S
C1093 H1100 0.961 . S
C1093 H1101 0.960 . S
C1094 C1092 1.381 . S
C1094 C1095 1.394 . S
C1094 H1102 0.930 . S
C1095 C1094 1.394 . S
C1095 C1096 1.383 . S
C1095 H1103 0.929 . S
C1096 C1095 1.383 . S
C1096 C1097 1.377 . S
C1097 H1081 0.930 . S
C1097 C1096 1.377 . S
C1097 C1098 1.379 . S
C1098 H1082 0.931 . S
C1098 C1092 1.383 . S
C1098 C1097 1.379 . S
H1099 C1093 0.959 1_455 S
H1100 C1093 0.961 . S
H1101 C1093 0.960 . S
H1102 C1094 0.930 . S
H1103 C1095 0.929 . S
H1104 C1112 0.929 . S
H1105 C1114 0.930 . S
H1106 C1116 0.930 . S
H1107 C1119 0.929 . S
H1108 C1122 0.930 . S
H1109 C1124 0.960 . S
H1110 C1124 0.960 . S
H1111 C1124 0.960 . S
C1112 H1104 0.929 . S
C1112 C1113 1.377 . S
C1112 C1114 1.384 . S
C1113 C1112 1.377 . S
C1113 C1119 1.390 . S
C1114 H1105 0.930 . S
C1114 C1112 1.384 . S
C1114 C1115 1.372 . S
C1115 C1114 1.372 . S
C1115 C1116 1.400 . S
C1115 C1120 1.490 . S
C1116 H1106 0.930 . S
C1116 C1115 1.400 . S
C1116 C1119 1.386 . S
H1117 C1133 0.930 . S
H1118 C1134 0.931 . S
C1119 H1107 0.929 . S
C1119 C1113 1.390 . S
C1119 C1116 1.386 . S
C1120 C1115 1.490 . S
C1120 C1122 1.395 1_565 S
C1120 C1123 1.403 . S
H1121 C1127 0.930 . S
C1122 H1108 0.930 . S
C1122 C1120 1.395 1_545 S
C1122 C1125 1.403 . S
C1123 C1120 1.403 . S
C1123 C1124 1.524 . S
C1123 C1127 1.400 1_565 S
C1124 H1109 0.960 . S
C1124 H1110 0.960 . S
C1124 H1111 0.960 . S
C1124 C1123 1.524 . S
C1125 C1122 1.403 . S
C1125 C1126 1.392 . S
C1125 C1129 1.495 . S
C1126 C1125 1.392 . S
C1126 C1127 1.385 . S
C1126 C1128 1.478 . S
C1127 H1121 0.930 . S
C1127 C1123 1.400 1_545 S
C1127 C1126 1.385 . S
C1128 C1126 1.478 . S
C1128 C1130 1.381 . S
C1128 C1134 1.383 . S
C1129 C1125 1.495 . S
C1129 H1135 0.959 . S
C1129 H1136 0.961 . S
C1129 H1137 0.960 . S
C1130 C1128 1.381 . S
C1130 C1131 1.394 . S
C1130 H1138 0.930 . S
C1131 C1130 1.394 . S
C1131 C1132 1.383 . S
C1131 H1139 0.929 . S
C1132 C1131 1.383 . S
C1132 C1133 1.377 . S
C1133 H1117 0.930 . S
C1133 C1132 1.377 . S
C1133 C1134 1.379 . S
C1134 H1118 0.931 . S
C1134 C1128 1.383 . S
C1134 C1133 1.379 . S
H1135 C1129 0.959 . S
H1136 C1129 0.961 . S
H1137 C1129 0.960 . S
H1138 C1130 0.930 . S
H1139 C1131 0.929 . S
C285 N163 1.832 . S
C304 N2 1.836 . S
C321 N35 1.884 . S
C340 N186 1.810 . S
C357 N48 1.800 . S
C376 N219 1.875 . S
C393 N71 1.836 . S
C412 N232 1.825 . S
C429 N255 1.799 . S
C448 N104 1.879 . S
C465 N150 1.883 . S
C484 N117 1.811 . S
C501 C246 1.513 . S
C520 C16 1.486 . S
C537 C30 1.596 . S
C556 C269 1.544 . S
C573 C62 1.559 . S
C592 C145 1.620 . S
C609 C177 1.516 . S
C628 C85 1.481 . S
C645 C200 1.559 . S
C664 C99 1.619 . S
C681 C214 1.598 . S
C700 C131 1.524 . S
C717 C7 1.851 . S
C736 C191 1.847 . S
C753 C39 1.838 . S
C772 C223 1.814 . S
C789 C237 1.851 . S
C808 C53 1.832 . S
C825 C76 1.852 . S
C844 C260 1.850 . S
C861 C154 1.838 . S
C880 C108 1.826 . S
C897 C168 1.859 . S
C916 C122 1.876 . S
C933 N81 2.094 . S
C952 N12 2.103 . S
C969 N94 2.034 . S
C988 N25 2.058 . S
C1005 N58 2.086 . S
C1024 N127 2.088 . S
C1041 N140 2.035 . S
C1060 N209 2.054 . S
C1077 N173 2.099 . S
C1096 N242 2.111 . S
C1113 N265 2.086 . S
C1132 N196 2.080 . S
