# Generated by pormake.
# Topology uol, (4)-cn, num edge types: 1
# Building blocks:
#     Node 0, Type 0, BuildingBlock: MUDLON_clean_sbu_0, # of connection points: 4
#     Node 1, Type 0, BuildingBlock: MUDLON_clean_sbu_0, # of connection points: 4
#     Node 2, Type 0, BuildingBlock: MUDLON_clean_sbu_0, # of connection points: 4
#     Node 3, Type 0, BuildingBlock: MUDLON_clean_sbu_0, # of connection points: 4
#     Node 4, Type 0, BuildingBlock: MUDLON_clean_sbu_0, # of connection points: 4
#     Node 5, Type 0, BuildingBlock: MUDLON_clean_sbu_0, # of connection points: 4
#     Node 6, Type 0, BuildingBlock: MUDLON_clean_sbu_0, # of connection points: 4
#     Node 7, Type 0, BuildingBlock: MUDLON_clean_sbu_0, # of connection points: 4
#     Node 8, Type 0, BuildingBlock: MUDLON_clean_sbu_0, # of connection points: 4
#     Node 9, Type 0, BuildingBlock: MUDLON_clean_sbu_0, # of connection points: 4
#     Node 10, Type 0, BuildingBlock: MUDLON_clean_sbu_0, # of connection points: 4
#     Node 11, Type 0, BuildingBlock: MUDLON_clean_sbu_0, # of connection points: 4
#     Edge 12, Type (0, 0), BuildingBlock: AJUNOK_clean_linker_0, # of connection points: 2
#     Edge 13, Type (0, 0), BuildingBlock: AJUNOK_clean_linker_0, # of connection points: 2
#     Edge 14, Type (0, 0), BuildingBlock: AJUNOK_clean_linker_0, # of connection points: 2
#     Edge 15, Type (0, 0), BuildingBlock: AJUNOK_clean_linker_0, # of connection points: 2
#     Edge 16, Type (0, 0), BuildingBlock: AJUNOK_clean_linker_0, # of connection points: 2
#     Edge 17, Type (0, 0), BuildingBlock: AJUNOK_clean_linker_0, # of connection points: 2
#     Edge 18, Type (0, 0), BuildingBlock: AJUNOK_clean_linker_0, # of connection points: 2
#     Edge 19, Type (0, 0), BuildingBlock: AJUNOK_clean_linker_0, # of connection points: 2
#     Edge 20, Type (0, 0), BuildingBlock: AJUNOK_clean_linker_0, # of connection points: 2
#     Edge 21, Type (0, 0), BuildingBlock: AJUNOK_clean_linker_0, # of connection points: 2
#     Edge 22, Type (0, 0), BuildingBlock: AJUNOK_clean_linker_0, # of connection points: 2
#     Edge 23, Type (0, 0), BuildingBlock: AJUNOK_clean_linker_0, # of connection points: 2
#     Edge 24, Type (0, 0), BuildingBlock: AJUNOK_clean_linker_0, # of connection points: 2
#     Edge 25, Type (0, 0), BuildingBlock: AJUNOK_clean_linker_0, # of connection points: 2
#     Edge 26, Type (0, 0), BuildingBlock: AJUNOK_clean_linker_0, # of connection points: 2
#     Edge 27, Type (0, 0), BuildingBlock: AJUNOK_clean_linker_0, # of connection points: 2
#     Edge 28, Type (0, 0), BuildingBlock: AJUNOK_clean_linker_0, # of connection points: 2
#     Edge 29, Type (0, 0), BuildingBlock: AJUNOK_clean_linker_0, # of connection points: 2
#     Edge 30, Type (0, 0), BuildingBlock: AJUNOK_clean_linker_0, # of connection points: 2
#     Edge 31, Type (0, 0), BuildingBlock: AJUNOK_clean_linker_0, # of connection points: 2
#     Edge 32, Type (0, 0), BuildingBlock: AJUNOK_clean_linker_0, # of connection points: 2
#     Edge 33, Type (0, 0), BuildingBlock: AJUNOK_clean_linker_0, # of connection points: 2
#     Edge 34, Type (0, 0), BuildingBlock: AJUNOK_clean_linker_0, # of connection points: 2
#     Edge 35, Type (0, 0), BuildingBlock: AJUNOK_clean_linker_0, # of connection points: 2
# Relax obj value: 0.129
# Max RMSD: 0.264
# Mean RMSD: 0.264
data_MOF--net-uol--node1-MUDLON_clean_sbu_0--edge1-AJUNOK_clean_linker_0
_symmetry_space_group_name_H-M    P1
_symmetry_Int_Tables_number       1
_symmetry_cell_setting            triclinic
loop_
_symmetry_equiv_pos_as_xyz
'x, y, z'
_cell_length_a     24.770141
_cell_length_b     24.86803
_cell_length_c     52.884717
_cell_angle_alpha  90.033866
_cell_angle_beta   89.862445
_cell_angle_gamma 119.85134
loop_
_atom_site_label
_atom_site_type_symbol
_atom_site_fract_x
_atom_site_fract_y
_atom_site_fract_z
_atom_type_partial_charge
Mg0 Mg 0.13405 0.33529 0.12529 0.0
C1 C 0.04659 0.24273 0.16382 0.0
O2 O 0.09666 0.23872 0.16812 0.0
C3 C 0.18274 0.32714 0.07365 0.0
O4 O 0.21198 0.3876 0.07664 0.0
C5 C 0.17947 0.47401 0.11786 0.0
O6 O 0.23385 0.48046 0.12378 0.0
O7 O 0.13231 0.41986 0.1168 0.0
O8 O 0.04741 0.27653 0.14558 0.0
O9 O 0.20669 0.35126 0.15228 0.0
C10 C 0.24226 0.32865 0.14892 0.0
O11 O 0.2396 0.30142 0.1273 0.0
O12 O 0.14538 0.29311 0.09089 0.0
Mg13 Mg 0.81047 0.146 0.29658 0.0
C14 C 0.92651 0.21026 0.32389 0.0
O15 O 0.92282 0.15879 0.31548 0.0
C16 C 0.67783 0.10745 0.28801 0.0
O17 O 0.67702 0.05437 0.28973 0.0
C18 C 0.85941 0.17505 0.24277 0.0
O19 O 0.83029 0.20705 0.24356 0.0
O20 O 0.85573 0.14219 0.26182 0.0
O21 O 0.88323 0.22147 0.31825 0.0
O22 O 0.78013 0.06265 0.31962 0.0
C23 C 0.78475 0.06947 0.34352 0.0
O24 O 0.80573 0.12513 0.35304 0.0
O25 O 0.72998 0.15725 0.28966 0.0
Mg26 Mg 0.66721 0.8027 0.4667 0.0
C27 C 0.68119 0.91574 0.49426 0.0
O28 O 0.69615 0.93944 0.47141 0.0
C29 C 0.57684 0.68676 0.43993 0.0
O30 O 0.63028 0.69775 0.43024 0.0
C31 C 0.68684 0.86303 0.41434 0.0
O32 O 0.62913 0.81862 0.4109 0.0
O33 O 0.71402 0.86483 0.43497 0.0
O34 O 0.66111 0.8581 0.49716 0.0
O35 O 0.72351 0.76761 0.48381 0.0
C36 C 0.76866 0.80457 0.49777 0.0
O37 O 0.78268 0.86289 0.49877 0.0
O38 O 0.57711 0.72456 0.45621 0.0
Mg39 Mg 0.90553 0.69472 0.62731 0.0
C40 C 1.00912 0.74011 0.66484 0.0
O41 O 0.99189 0.68097 0.66349 0.0
C42 C 0.8577 0.70181 0.5755 0.0
O43 O 0.82526 0.64167 0.57931 0.0
C44 C 0.87167 0.55836 0.62003 0.0
O45 O 0.81429 0.54758 0.62227 0.0
O46 O 0.91633 0.61399 0.62089 0.0
O47 O 0.98283 0.7611 0.65044 0.0
O48 O 0.82609 0.67506 0.65103 0.0
C49 C 0.79867 0.70597 0.64702 0.0
O50 O 0.81474 0.74211 0.62705 0.0
O51 O 0.89751 0.73549 0.59202 0.0
Mg52 Mg 0.21857 0.87582 0.80381 0.0
C53 C 0.0938 0.76382 0.81783 0.0
O54 O 0.08979 0.75621 0.7932 0.0
C55 C 0.33249 0.87525 0.7851 0.0
O56 O 0.31411 0.89079 0.76446 0.0
C57 C 0.14668 0.87123 0.75468 0.0
O58 O 0.12546 0.90192 0.76765 0.0
O59 O 0.18597 0.85933 0.76485 0.0
O60 O 0.14369 0.80745 0.82722 0.0
O61 O 0.24145 0.96471 0.82081 0.0
C62 C 0.29798 1.00576 0.82445 0.0
O63 O 0.34188 0.99658 0.81507 0.0
O64 O 0.30038 0.86484 0.80518 0.0
Mg65 Mg 0.36404 0.22877 0.95854 0.0
C66 C 0.34176 0.10719 0.9814 0.0
O67 O 0.32016 0.08647 0.95867 0.0
C68 C 0.47089 0.35986 0.95008 0.0
O69 O 0.42519 0.3722 0.95147 0.0
C70 C 0.36776 0.18383 0.90656 0.0
O71 O 0.42702 0.21853 0.91205 0.0
O72 O 0.32773 0.18002 0.92269 0.0
O73 O 0.36572 0.16479 0.98588 0.0
O74 O 0.3084 0.26298 0.97741 0.0
C75 C 0.26469 0.22605 0.99207 0.0
O76 O 0.25054 0.16768 0.99269 0.0
O77 O 0.45866 0.30415 0.95279 0.0
Mg78 Mg 0.67952 0.87752 0.75582 0.0
C79 C 0.69694 0.77757 0.73035 0.0
O80 O 0.7162 0.77388 0.75307 0.0
C81 C 0.56633 0.87191 0.78062 0.0
O82 O 0.59776 0.87463 0.801 0.0
C83 C 0.74667 0.88135 0.80664 0.0
O84 O 0.78834 0.93843 0.80054 0.0
O85 O 0.70122 0.85008 0.79183 0.0
O86 O 0.67555 0.814 0.72679 0.0
O87 O 0.74806 0.96711 0.74011 0.0
C88 C 0.7303 1.00447 0.7327 0.0
O89 O 0.67374 0.99239 0.73848 0.0
O90 O 0.58937 0.87208 0.75907 0.0
Mg91 Mg 0.82483 0.70051 0.92983 0.0
C92 C 0.76669 0.74815 0.89366 0.0
O93 O 0.72568 0.68868 0.89466 0.0
C94 C 0.88035 0.6892 0.97678 0.0
O95 O 0.85652 0.6345 0.96597 0.0
C96 C 0.72292 0.56351 0.93127 0.0
O97 O 0.76778 0.55489 0.92263 0.0
O98 O 0.73434 0.61844 0.93567 0.0
O99 O 0.81354 0.76919 0.9083 0.0
O100 O 0.88729 0.68392 0.90664 0.0
C101 C 0.87817 0.6726 0.88312 0.0
O102 O 0.82547 0.66301 0.87328 0.0
O103 O 0.87247 0.73057 0.96604 0.0
Mg104 Mg 0.16672 0.81519 0.09148 0.0
C105 C 0.2533 0.93624 0.066 0.0
O106 O 0.24125 0.95715 0.08684 0.0
C107 C 0.14079 0.68523 0.10357 0.0
O108 O 0.08487 0.67722 0.10756 0.0
C109 C 0.23208 0.8771 0.13855 0.0
O110 O 0.26738 0.85677 0.12872 0.0
O111 O 0.18219 0.86491 0.12708 0.0
O112 O 0.23098 0.87819 0.06351 0.0
O113 O 0.07677 0.78496 0.07385 0.0
C114 C 0.06382 0.74683 0.05574 0.0
O115 O 0.10174 0.72541 0.05098 0.0
O116 O 0.18398 0.73827 0.09659 0.0
Mg117 Mg 0.36107 0.15742 0.25657 0.0
C118 C 0.33945 0.25638 0.23375 0.0
O119 O 0.31267 0.25014 0.25585 0.0
C120 C 0.44842 0.11648 0.27401 0.0
O121 O 0.39353 0.06774 0.27823 0.0
C122 C 0.34067 0.18181 0.31191 0.0
O123 O 0.39791 0.19254 0.3146 0.0
O124 O 0.3143 0.16389 0.2905 0.0
O125 O 0.36804 0.22663 0.22957 0.0
O126 O 0.30641 0.0713 0.23569 0.0
C127 C 0.33673 0.06017 0.21905 0.0
O128 O 0.39696 0.09825 0.21705 0.0
O129 O 0.45061 0.16517 0.26529 0.0
Mg130 Mg 0.22311 0.34271 0.43097 0.0
C131 C 0.24613 0.28333 0.38754 0.0
O132 O 0.22504 0.31783 0.37782 0.0
C133 C 0.17207 0.35407 0.47924 0.0
O134 O 0.1866 0.40524 0.46677 0.0
C135 C 0.35011 0.45226 0.42033 0.0
O136 O 0.35452 0.40784 0.40881 0.0
O137 O 0.29876 0.43918 0.43089 0.0
O138 O 0.25364 0.28432 0.41143 0.0
O139 O 0.14079 0.3231 0.40951 0.0
C140 C 0.12925 0.35425 0.39357 0.0
O141 O 0.17056 0.41264 0.38938 0.0
O142 O 0.18609 0.316 0.46927 0.0
Mg143 Mg 0.88687 0.21873 0.59633 0.0
C144 C 0.79518 0.0926 0.57601 0.0
O145 O 0.81362 0.07667 0.59651 0.0
C146 C 0.91471 0.34861 0.60935 0.0
O147 O 0.96748 0.35227 0.61603 0.0
C148 C 0.8406 0.17768 0.64913 0.0
O149 O 0.81403 0.21044 0.64331 0.0
O150 O 0.87757 0.17483 0.63313 0.0
O151 O 0.81664 0.14994 0.57149 0.0
O152 O 0.97484 0.24735 0.57657 0.0
C153 C 0.99024 0.28957 0.55997 0.0
O154 O 0.95518 0.31507 0.55721 0.0
O155 O 0.87176 0.29761 0.60049 0.0
C156 C 0.10222 0.57211 0.10976 0.0
C157 C 0.15269 0.63265 0.10683 0.0
C158 C 0.1115 0.52138 0.11297 0.0
C159 C 0.17173 0.52893 0.11365 0.0
H160 H 0.05485 0.56353 0.1095 0.0
H161 H 0.07087 0.47589 0.11524 0.0
S162 S 0.32002 0.67781 0.10666 0.0
N163 N 0.26544 0.69726 0.10458 0.0
N164 N 0.28287 0.60195 0.11079 0.0
C165 C 0.22277 0.5892 0.11067 0.0
C166 C 0.21327 0.64096 0.1072 0.0
C167 C 0.62017 0.16525 0.28001 0.0
C168 C 0.61886 0.10882 0.28463 0.0
C169 C 0.56503 0.16743 0.27669 0.0
C170 C 0.50624 0.11336 0.27805 0.0
H171 H 0.66417 0.20818 0.27879 0.0
H172 H 0.56862 0.21197 0.27307 0.0
S173 S 0.47687 0.95363 0.28983 0.0
N174 N 0.55332 0.99738 0.29045 0.0
N175 N 0.45026 1.00152 0.28432 0.0
C176 C 0.50426 0.05665 0.28279 0.0
C177 C 0.56033 0.05438 0.28603 0.0
C178 C 0.46275 0.61224 0.44666 0.0
C179 C 0.51803 0.62947 0.43308 0.0
C180 C 0.40796 0.55599 0.44183 0.0
C181 C 0.40624 0.51459 0.42324 0.0
H182 H 0.46205 0.64161 0.46164 0.0
H183 H 0.36728 0.54407 0.45333 0.0
S184 S 0.53617 0.54078 0.38036 0.0
N185 N 0.56585 0.60252 0.39875 0.0
N186 N 0.46338 0.49728 0.38974 0.0
C187 C 0.4604 0.53249 0.40878 0.0
C188 C 0.51609 0.58971 0.41367 0.0
C189 C 0.83515 0.446 0.61173 0.0
C190 C 0.88427 0.50605 0.61707 0.0
C191 C 0.8455 0.39566 0.60911 0.0
C192 C 0.90534 0.40304 0.61195 0.0
H193 H 0.78813 0.43763 0.60946 0.0
H194 H 0.806 0.35047 0.60502 0.0
S195 S 0.0502 0.55074 0.62605 0.0
N196 N 0.99536 0.56995 0.62507 0.0
N197 N 1.01469 0.4756 0.62028 0.0
C198 C 0.95497 0.46287 0.61729 0.0
C199 C 0.9445 0.51423 0.61979 0.0
C200 C 0.47675 0.87539 0.76046 0.0
C201 C 0.50579 0.87067 0.78253 0.0
C202 C 0.42066 0.87621 0.76157 0.0
C203 C 0.39083 0.87204 0.78478 0.0
H204 H 0.49775 0.87918 0.74208 0.0
H205 H 0.40073 0.88039 0.74398 0.0
S206 S 0.44651 0.85751 0.84818 0.0
N207 N 0.49969 0.86072 0.8284 0.0
N208 N 0.39424 0.86215 0.83044 0.0
C209 C 0.4188 0.86646 0.80702 0.0
C210 C 0.47622 0.86586 0.80591 0.0
C211 C 0.54987 0.47261 0.94637 0.0
C212 C 0.53569 0.41039 0.94525 0.0
C213 C 0.61036 0.52144 0.94188 0.0
C214 C 0.65937 0.5103 0.93588 0.0
H215 H 0.51403 0.48396 0.95089 0.0
H216 H 0.61852 0.5684 0.94303 0.0
S217 S 0.64696 0.35563 0.9302 0.0
N218 N 0.57583 0.34021 0.93749 0.0
N219 N 0.68939 0.43194 0.92897 0.0
C220 C 0.64589 0.44826 0.93457 0.0
C221 C 0.5842 0.3984 0.93929 0.0
C222 C 0.33602 0.27521 0.18739 0.0
C223 C 0.32524 0.28644 0.21248 0.0
C224 C 0.31222 0.29252 0.16688 0.0
C225 C 0.27687 0.32206 0.17056 0.0
H226 H 0.36014 0.24981 0.18349 0.0
H227 H 0.31928 0.27997 0.14804 0.0
S228 S 0.24425 0.37136 0.23238 0.0
N229 N 0.28341 0.3359 0.23973 0.0
N230 N 0.23888 0.36858 0.20125 0.0
C231 C 0.27002 0.33803 0.19546 0.0
C232 C 0.29411 0.32017 0.21638 0.0
C233 C 1.00114 0.22081 0.35726 0.0
C234 C 0.97614 0.24917 0.34199 0.0
C235 C 0.0491 0.25521 0.37428 0.0
C236 C 0.07509 0.31988 0.37656 0.0
H237 H 0.98344 0.17129 0.35613 0.0
H238 H 0.06691 0.23069 0.38527 0.0
S239 S 0.02543 0.4165 0.34108 0.0
N240 N 0.97945 0.34541 0.33052 0.0
N241 N 0.0713 0.41092 0.36229 0.0
C242 C 0.05022 0.349 0.36155 0.0
C243 C 1.00025 0.31346 0.34439 0.0
C244 C 0.74881 0.06404 0.53264 0.0
C245 C 0.75707 0.04523 0.55674 0.0
C246 C 0.72094 0.02123 0.51294 0.0
C247 C 0.69977 0.95771 0.51652 0.0
H248 H 0.76635 0.11264 0.52854 0.0
H249 H 0.71817 0.0386 0.4945 0.0
S250 S 0.70369 0.8832 0.57688 0.0
N251 N 0.73663 0.9577 0.58369 0.0
N252 N 0.68426 0.87736 0.54677 0.0
C253 C 0.70415 0.93764 0.54097 0.0
C254 C 0.73283 0.98135 0.56102 0.0
C255 C 0.76493 0.69601 0.69225 0.0
C256 C 0.76064 0.71258 0.6672 0.0
C257 C 0.74064 0.71392 0.71247 0.0
C258 C 0.71082 0.74883 0.70845 0.0
H259 H 0.79049 0.67227 0.69652 0.0
H260 H 0.74814 0.70283 0.73147 0.0
S261 S 0.67753 0.79413 0.64594 0.0
N262 N 0.717 0.75859 0.63917 0.0
N263 N 0.67112 0.792 0.67705 0.0
C264 C 0.70152 0.76102 0.68329 0.0
C265 C 0.72651 0.74299 0.66271 0.0
C266 C 0.9921 0.71385 0.87646 0.0
C267 C 0.93132 0.68394 0.86653 0.0
C268 C 0.0443 0.73637 0.86064 0.0
C269 C 0.03804 0.72948 0.83422 0.0
H270 H 0.99982 0.7231 0.89654 0.0
H271 H 0.08997 0.76168 0.86919 0.0
S272 S 0.88904 0.64536 0.799 0.0
N273 N 0.86779 0.64189 0.82884 0.0
N274 N 0.96587 0.68375 0.79907 0.0
C275 C 0.97753 0.69519 0.82418 0.0
C276 C 0.92422 0.67259 0.84033 0.0
C277 C 0.31136 0.04333 0.04816 0.0
C278 C 0.28438 0.97902 0.04447 0.0
C279 C 0.33299 0.08466 1.02775 0.0
C280 C 0.32813 0.06341 1.00272 0.0
H281 H 0.31397 0.06198 0.06692 0.0
H282 H 0.35104 0.13343 0.03164 0.0
S283 S 0.26812 0.90015 0.98294 0.0
N284 N 0.25935 0.89649 1.01395 0.0
N285 N 0.29972 0.97427 0.97558 0.0
C286 C 0.30461 0.99959 0.99883 0.0
C287 C 0.28288 0.9574 1.01969 0.0
C288 C 0.24285 0.33859 0.03381 0.0
C289 C 0.19759 0.29958 0.0515 0.0
C290 C 0.26221 0.31442 1.01401 0.0
C291 C 0.23723 0.2501 1.01101 0.0
H292 H 0.26497 0.38851 0.03557 0.0
H293 H 0.29859 0.3467 1.00148 0.0
S294 S 0.1128 0.12735 0.05067 0.0
N295 N 0.12499 0.19293 0.06354 0.0
N296 N 0.16111 0.14754 1.02642 0.0
C297 C 0.18984 0.21039 0.02787 0.0
C298 C 0.17013 0.23506 0.04806 0.0
C299 C 0.90244 0.21702 0.19975 0.0
C300 C 0.90223 0.18383 0.22136 0.0
C301 C 0.94727 0.23303 0.18063 0.0
C302 C 0.99419 0.21691 0.18234 0.0
H303 H 0.86875 0.23246 0.19786 0.0
H304 H 0.9464 0.26038 0.16488 0.0
S305 S 1.01121 0.12498 0.23392 0.0
N306 N 0.95055 0.13147 0.24242 0.0
N307 N 0.03472 0.16162 0.20662 0.0
C308 C 0.99271 0.18102 0.20324 0.0
C309 C 0.94682 0.16447 0.22268 0.0
C310 C 0.71529 0.95706 0.35401 0.0
C311 C 0.7647 0.01575 0.3607 0.0
C312 C 0.69153 0.90743 0.37123 0.0
C313 C 0.71703 0.9143 0.39562 0.0
H314 H 0.69322 0.95002 0.3357 0.0
H315 H 0.65211 0.86365 0.3655 0.0
S316 S 0.8514 0.0574 0.42131 0.0
N317 N 0.84118 0.07703 0.39266 0.0
N318 N 0.79758 0.98393 0.42481 0.0
C319 C 0.76853 0.97212 0.40203 0.0
C320 C 0.79202 0.02278 0.38465 0.0
C321 C 0.79702 0.6917 0.53616 0.0
C322 C 0.84207 0.73013 0.55394 0.0
C323 C 0.77571 0.71634 0.51735 0.0
C324 C 0.79837 0.78056 0.51552 0.0
H325 H 0.77652 0.6418 0.53715 0.0
H326 H 0.73956 0.68441 0.50472 0.0
S327 S 0.92098 0.90214 0.55596 0.0
N328 N 0.91191 0.83635 0.56732 0.0
N329 N 0.87199 0.88261 0.53209 0.0
C330 C 0.84564 0.81985 0.53241 0.0
C331 C 0.86744 0.7947 0.55156 0.0
C332 C 0.07944 0.86002 0.71726 0.0
C333 C 0.11856 0.8428 0.72987 0.0
C334 C 0.04679 0.82889 0.69535 0.0
C335 C 0.0513 0.77872 0.68542 0.0
H336 H 0.07264 0.89682 0.72469 0.0
H337 H 1.01561 0.84246 0.68685 0.0
S338 S 0.1514 0.7185 0.70981 0.0
N339 N 0.16326 0.77484 0.72949 0.0
N340 N 0.10134 0.71622 0.68871 0.0
C341 C 0.09223 0.76276 0.69717 0.0
C342 C 0.12602 0.79482 0.71926 0.0
C343 C 0.28697 0.09579 0.88057 0.0
C344 C 0.34873 0.14437 0.88344 0.0
C345 C 0.27002 0.05309 0.86059 0.0
C346 C 0.31422 0.0571 0.84273 0.0
H347 H 0.25183 0.08907 0.8944 0.0
H348 H 0.22253 0.01501 0.85989 0.0
S349 S 0.47998 0.1809 0.83949 0.0
N350 N 0.45262 0.19781 0.86492 0.0
N351 N 0.42085 0.11754 0.82769 0.0
C352 C 0.37518 0.10758 0.8445 0.0
C353 C 0.3924 0.15115 0.86475 0.0
C354 C 0.70313 0.79302 0.83729 0.0
C355 C 0.75226 0.85177 0.83024 0.0
C356 C 0.70763 0.76146 0.85835 0.0
C357 C 0.7615 0.78696 0.87343 0.0
H358 H 0.66081 0.77041 0.82622 0.0
H359 H 0.66871 0.71586 0.86246 0.0
S360 S 0.90251 0.94108 0.86416 0.0
N361 N 0.85583 0.93563 0.84084 0.0
N362 N 0.86435 0.87607 0.88046 0.0
C363 C 0.81035 0.84664 0.8672 0.0
C364 C 0.80573 0.87902 0.84563 0.0
C365 C 0.94103 0.66078 1.00606 0.0
C366 C 0.92166 0.70323 0.99911 0.0
C367 C 0.98508 0.67451 1.02511 0.0
C368 C 1.011 0.73079 0.03842 0.0
H369 H 0.92383 0.61723 0.99609 0.0
H370 H 0.99999 0.64114 0.02907 0.0
S371 S 0.97286 0.85606 0.02918 0.0
N372 N 0.92953 0.80286 1.00815 0.0
N373 N 1.01183 0.82817 0.04437 0.0
C374 C 0.98999 0.77254 0.03265 0.0
C375 C 0.94554 0.75893 1.01289 0.0
C376 C 0.31594 0.94205 0.16925 0.0
C377 C 0.25435 0.91894 0.1609 0.0
C378 C 0.34109 0.98601 0.18863 0.0
C379 C 0.30563 1.0083 0.20081 0.0
H380 H 0.34598 0.92762 0.16025 0.0
H381 H 0.38929 1.00348 0.1938 0.0
S382 S 0.14056 0.95983 0.18753 0.0
N383 N 0.1573 0.91956 0.16731 0.0
N384 N 0.20462 1.00184 0.20406 0.0
C385 C 0.24313 0.98378 0.19351 0.0
C386 C 0.21754 0.93931 0.17347 0.0
C387 C 0.34018 0.21894 0.35618 0.0
C388 C 0.31059 0.19865 0.33251 0.0
C389 C 0.31711 0.24287 0.37475 0.0
C390 C 0.26402 0.24803 0.37019 0.0
H391 H 0.38275 0.21832 0.36015 0.0
H392 H 0.34284 0.26041 0.3922 0.0
S393 S 0.16467 0.19482 0.31289 0.0
N394 N 0.22139 0.18004 0.30681 0.0
N395 N 0.17899 0.2256 0.34144 0.0
C396 C 0.23208 0.22486 0.34726 0.0
C397 C 0.25504 0.19998 0.3285 0.0
C398 C 0.11349 0.38041 0.51069 0.0
C399 C 0.13258 0.33861 0.50239 0.0
C400 C 0.06959 0.36487 0.53006 0.0
C401 C 0.04318 0.30711 0.54231 0.0
H402 H 0.13078 0.425 0.50155 0.0
H403 H 0.05505 0.39805 0.53502 0.0
S404 S 0.08109 0.18278 0.52963 0.0
N405 N 0.12449 0.23806 0.50928 0.0
N406 N 0.04229 0.20921 0.54601 0.0
C407 C 0.06425 0.26601 0.53532 0.0
C408 C 0.10879 0.28165 0.51529 0.0
C409 C 0.751 0.09988 0.7091 0.0
C410 C 0.76743 0.05432 0.71407 0.0
C411 C 0.77734 0.14135 0.68885 0.0
C412 C 0.82104 0.13894 0.67249 0.0
H413 H 0.7158 0.10233 0.72044 0.0
H414 H 0.76135 0.17411 0.68553 0.0
S415 S 0.88405 0.03165 0.67846 0.0
N416 N 0.83371 1.01202 0.70196 0.0
N417 N 0.88297 0.08973 0.66381 0.0
C418 C 0.84047 0.09573 0.67801 0.0
C419 C 0.81379 0.05357 0.69881 0.0
loop_
_geom_bond_atom_site_label_1
_geom_bond_atom_site_label_2
_geom_bond_distance
_geom_bond_site_symmetry_2
_ccdc_geom_bond_type
Mg0 O7 2.141 . S
Mg0 O8 2.048 . S
Mg0 O9 2.048 . S
Mg0 O12 2.141 . S
C1 O2 1.313 . S
C1 O8 1.195 . S
O2 C1 1.313 . S
C3 O4 1.245 . S
C3 O12 1.289 . S
O4 C3 1.245 . S
C5 O6 1.245 . S
C5 O7 1.289 . S
O6 C5 1.245 . S
O7 Mg0 2.141 . S
O7 C5 1.289 . S
O8 Mg0 2.048 . S
O8 C1 1.195 . S
O9 Mg0 2.048 . S
O9 C10 1.195 . S
C10 O9 1.195 . S
C10 O11 1.313 . S
O11 C10 1.313 . S
O12 Mg0 2.141 . S
O12 C3 1.289 . S
Mg13 O20 2.141 . S
Mg13 O21 2.048 . S
Mg13 O22 2.048 . S
Mg13 O25 2.141 . S
C14 O15 1.313 . S
C14 O21 1.195 . S
O15 C14 1.313 . S
C16 O17 1.245 . S
C16 O25 1.289 . S
O17 C16 1.245 . S
C18 O19 1.245 . S
C18 O20 1.289 . S
O19 C18 1.245 . S
O20 Mg13 2.141 . S
O20 C18 1.289 . S
O21 Mg13 2.048 . S
O21 C14 1.195 . S
O22 Mg13 2.048 . S
O22 C23 1.195 . S
C23 O22 1.195 . S
C23 O24 1.313 . S
O24 C23 1.313 . S
O25 Mg13 2.141 . S
O25 C16 1.289 . S
Mg26 O33 2.141 . S
Mg26 O34 2.048 . S
Mg26 O35 2.048 . S
Mg26 O38 2.141 . S
C27 O28 1.313 . S
C27 O34 1.195 . S
O28 C27 1.313 . S
C29 O30 1.245 . S
C29 O38 1.289 . S
O30 C29 1.245 . S
C31 O32 1.245 . S
C31 O33 1.289 . S
O32 C31 1.245 . S
O33 Mg26 2.141 . S
O33 C31 1.289 . S
O34 Mg26 2.048 . S
O34 C27 1.195 . S
O35 Mg26 2.048 . S
O35 C36 1.195 . S
C36 O35 1.195 . S
C36 O37 1.313 . S
O37 C36 1.313 . S
O38 Mg26 2.141 . S
O38 C29 1.289 . S
Mg39 O46 2.141 . S
Mg39 O47 2.048 . S
Mg39 O48 2.048 . S
Mg39 O51 2.141 . S
C40 O41 1.313 . S
C40 O47 1.195 . S
O41 C40 1.313 . S
C42 O43 1.245 . S
C42 O51 1.289 . S
O43 C42 1.245 . S
C44 O45 1.245 . S
C44 O46 1.289 . S
O45 C44 1.245 . S
O46 Mg39 2.141 . S
O46 C44 1.289 . S
O47 Mg39 2.048 . S
O47 C40 1.195 . S
O48 Mg39 2.048 . S
O48 C49 1.195 . S
C49 O48 1.195 . S
C49 O50 1.313 . S
O50 C49 1.313 . S
O51 Mg39 2.141 . S
O51 C42 1.289 . S
Mg52 O59 2.141 . S
Mg52 O60 2.048 . S
Mg52 O61 2.048 . S
Mg52 O64 2.141 . S
C53 O54 1.313 . S
C53 O60 1.195 . S
O54 C53 1.313 . S
C55 O56 1.245 . S
C55 O64 1.289 . S
O56 C55 1.245 . S
C57 O58 1.245 . S
C57 O59 1.289 . S
O58 C57 1.245 . S
O59 Mg52 2.141 . S
O59 C57 1.289 . S
O60 Mg52 2.048 . S
O60 C53 1.195 . S
O61 Mg52 2.048 . S
O61 C62 1.195 . S
C62 O61 1.195 . S
C62 O63 1.313 . S
O63 C62 1.313 . S
O64 Mg52 2.141 . S
O64 C55 1.289 . S
Mg65 O72 2.141 . S
Mg65 O73 2.048 . S
Mg65 O74 2.048 . S
Mg65 O77 2.141 . S
C66 O67 1.313 . S
C66 O73 1.195 . S
O67 C66 1.313 . S
C68 O69 1.245 . S
C68 O77 1.289 . S
O69 C68 1.245 . S
C70 O71 1.245 . S
C70 O72 1.289 . S
O71 C70 1.245 . S
O72 Mg65 2.141 . S
O72 C70 1.289 . S
O73 Mg65 2.048 . S
O73 C66 1.195 . S
O74 Mg65 2.048 . S
O74 C75 1.195 . S
C75 O74 1.195 . S
C75 O76 1.313 . S
O76 C75 1.313 . S
O77 Mg65 2.141 . S
O77 C68 1.289 . S
Mg78 O85 2.141 . S
Mg78 O86 2.048 . S
Mg78 O87 2.048 . S
Mg78 O90 2.141 . S
C79 O80 1.313 . S
C79 O86 1.195 . S
O80 C79 1.313 . S
C81 O82 1.245 . S
C81 O90 1.289 . S
O82 C81 1.245 . S
C83 O84 1.245 . S
C83 O85 1.289 . S
O84 C83 1.245 . S
O85 Mg78 2.141 . S
O85 C83 1.289 . S
O86 Mg78 2.048 . S
O86 C79 1.195 . S
O87 Mg78 2.048 . S
O87 C88 1.195 . S
C88 O87 1.195 . S
C88 O89 1.313 . S
O89 C88 1.313 . S
O90 Mg78 2.141 . S
O90 C81 1.289 . S
Mg91 O98 2.141 . S
Mg91 O99 2.048 . S
Mg91 O100 2.048 . S
Mg91 O103 2.141 . S
C92 O93 1.313 . S
C92 O99 1.195 . S
O93 C92 1.313 . S
C94 O95 1.245 . S
C94 O103 1.289 . S
O95 C94 1.245 . S
C96 O97 1.245 . S
C96 O98 1.289 . S
O97 C96 1.245 . S
O98 Mg91 2.141 . S
O98 C96 1.289 . S
O99 Mg91 2.048 . S
O99 C92 1.195 . S
O100 Mg91 2.048 . S
O100 C101 1.195 . S
C101 O100 1.195 . S
C101 O102 1.313 . S
O102 C101 1.313 . S
O103 Mg91 2.141 . S
O103 C94 1.289 . S
Mg104 O111 2.141 . S
Mg104 O112 2.048 . S
Mg104 O113 2.048 . S
Mg104 O116 2.141 . S
C105 O106 1.313 . S
C105 O112 1.195 . S
O106 C105 1.313 . S
C107 O108 1.245 . S
C107 O116 1.289 . S
O108 C107 1.245 . S
C109 O110 1.245 . S
C109 O111 1.289 . S
O110 C109 1.245 . S
O111 Mg104 2.141 . S
O111 C109 1.289 . S
O112 Mg104 2.048 . S
O112 C105 1.195 . S
O113 Mg104 2.048 . S
O113 C114 1.195 . S
C114 O113 1.195 . S
C114 O115 1.313 . S
O115 C114 1.313 . S
O116 Mg104 2.141 . S
O116 C107 1.289 . S
Mg117 O124 2.141 . S
Mg117 O125 2.048 . S
Mg117 O126 2.048 . S
Mg117 O129 2.141 . S
C118 O119 1.313 . S
C118 O125 1.195 . S
O119 C118 1.313 . S
C120 O121 1.245 . S
C120 O129 1.289 . S
O121 C120 1.245 . S
C122 O123 1.245 . S
C122 O124 1.289 . S
O123 C122 1.245 . S
O124 Mg117 2.141 . S
O124 C122 1.289 . S
O125 Mg117 2.048 . S
O125 C118 1.195 . S
O126 Mg117 2.048 . S
O126 C127 1.195 . S
C127 O126 1.195 . S
C127 O128 1.313 . S
O128 C127 1.313 . S
O129 Mg117 2.141 . S
O129 C120 1.289 . S
Mg130 O137 2.141 . S
Mg130 O138 2.048 . S
Mg130 O139 2.048 . S
Mg130 O142 2.141 . S
C131 O132 1.313 . S
C131 O138 1.195 . S
O132 C131 1.313 . S
C133 O134 1.245 . S
C133 O142 1.289 . S
O134 C133 1.245 . S
C135 O136 1.245 . S
C135 O137 1.289 . S
O136 C135 1.245 . S
O137 Mg130 2.141 . S
O137 C135 1.289 . S
O138 Mg130 2.048 . S
O138 C131 1.195 . S
O139 Mg130 2.048 . S
O139 C140 1.195 . S
C140 O139 1.195 . S
C140 O141 1.313 . S
O141 C140 1.313 . S
O142 Mg130 2.141 . S
O142 C133 1.289 . S
Mg143 O150 2.141 . S
Mg143 O151 2.048 . S
Mg143 O152 2.048 . S
Mg143 O155 2.141 . S
C144 O145 1.313 . S
C144 O151 1.195 . S
O145 C144 1.313 . S
C146 O147 1.245 . S
C146 O155 1.289 . S
O147 C146 1.245 . S
C148 O149 1.245 . S
C148 O150 1.289 . S
O149 C148 1.245 . S
O150 Mg143 2.141 . S
O150 C148 1.289 . S
O151 Mg143 2.048 . S
O151 C144 1.195 . S
O152 Mg143 2.048 . S
O152 C153 1.195 . S
C153 O152 1.195 . S
C153 O154 1.313 . S
O154 C153 1.313 . S
O155 Mg143 2.141 . S
O155 C146 1.289 . S
C156 C157 1.369 . S
C156 C158 1.419 . S
C156 H160 0.930 1_455 S
C157 C156 1.369 . S
C157 C166 1.429 . S
C158 C156 1.419 . S
C158 C159 1.363 . S
C158 H161 0.929 1_455 S
C159 C158 1.363 . S
C159 C165 1.428 . S
H160 C156 0.930 1_655 S
H161 C158 0.929 1_655 S
S162 N163 1.613 . S
S162 N164 1.610 . S
N163 S162 1.613 . S
N163 C166 1.350 . S
N164 S162 1.610 . S
N164 C165 1.351 . S
C165 C159 1.428 . S
C165 N164 1.351 . S
C165 C166 1.434 . S
C166 C157 1.429 . S
C166 N163 1.350 . S
C166 C165 1.434 . S
C167 C168 1.369 . S
C167 C169 1.419 . S
C167 H171 0.930 . S
C168 C167 1.369 . S
C168 C177 1.429 . S
C169 C167 1.419 . S
C169 C170 1.363 . S
C169 H172 0.929 . S
C170 C169 1.363 . S
C170 C176 1.428 . S
H171 C167 0.930 . S
H172 C169 0.929 . S
S173 N174 1.613 . S
S173 N175 1.610 . S
N174 S173 1.613 . S
N174 C177 1.350 1_565 S
N175 S173 1.610 . S
N175 C176 1.351 1_565 S
C176 C170 1.428 . S
C176 N175 1.351 1_545 S
C176 C177 1.434 . S
C177 C168 1.429 . S
C177 N174 1.350 1_545 S
C177 C176 1.434 . S
C178 C179 1.369 . S
C178 C180 1.419 . S
C178 H182 0.930 . S
C179 C178 1.369 . S
C179 C188 1.429 . S
C180 C178 1.419 . S
C180 C181 1.363 . S
C180 H183 0.929 . S
C181 C180 1.363 . S
C181 C187 1.428 . S
H182 C178 0.930 . S
H183 C180 0.929 . S
S184 N185 1.613 . S
S184 N186 1.610 . S
N185 S184 1.613 . S
N185 C188 1.350 . S
N186 S184 1.610 . S
N186 C187 1.351 . S
C187 C181 1.428 . S
C187 N186 1.351 . S
C187 C188 1.434 . S
C188 C179 1.429 . S
C188 N185 1.350 . S
C188 C187 1.434 . S
C189 C190 1.369 . S
C189 C191 1.419 . S
C189 H193 0.930 . S
C190 C189 1.369 . S
C190 C199 1.429 . S
C191 C189 1.419 . S
C191 C192 1.363 . S
C191 H194 0.929 . S
C192 C191 1.363 . S
C192 C198 1.428 . S
H193 C189 0.930 . S
H194 C191 0.929 . S
S195 N196 1.613 . S
S195 N197 1.610 . S
N196 S195 1.613 . S
N196 C199 1.350 1_455 S
N197 S195 1.610 . S
N197 C198 1.351 1_455 S
C198 C192 1.428 . S
C198 N197 1.351 1_655 S
C198 C199 1.434 . S
C199 C190 1.429 . S
C199 N196 1.350 1_655 S
C199 C198 1.434 . S
C200 C201 1.369 . S
C200 C202 1.419 . S
C200 H204 0.930 . S
C201 C200 1.369 . S
C201 C210 1.429 . S
C202 C200 1.419 . S
C202 C203 1.363 . S
C202 H205 0.929 . S
C203 C202 1.363 . S
C203 C209 1.428 . S
H204 C200 0.930 . S
H205 C202 0.929 . S
S206 N207 1.613 . S
S206 N208 1.610 . S
N207 S206 1.613 . S
N207 C210 1.350 . S
N208 S206 1.610 . S
N208 C209 1.351 . S
C209 C203 1.428 . S
C209 N208 1.351 . S
C209 C210 1.434 . S
C210 C201 1.429 . S
C210 N207 1.350 . S
C210 C209 1.434 . S
C211 C212 1.369 . S
C211 C213 1.419 . S
C211 H215 0.930 . S
C212 C211 1.369 . S
C212 C221 1.429 . S
C213 C211 1.419 . S
C213 C214 1.363 . S
C213 H216 0.929 . S
C214 C213 1.363 . S
C214 C220 1.428 . S
H215 C211 0.930 . S
H216 C213 0.929 . S
S217 N218 1.613 . S
S217 N219 1.610 . S
N218 S217 1.613 . S
N218 C221 1.350 . S
N219 S217 1.610 . S
N219 C220 1.351 . S
C220 C214 1.428 . S
C220 N219 1.351 . S
C220 C221 1.434 . S
C221 C212 1.429 . S
C221 N218 1.350 . S
C221 C220 1.434 . S
C222 C223 1.369 . S
C222 C224 1.419 . S
C222 H226 0.930 . S
C223 C222 1.369 . S
C223 C232 1.429 . S
C224 C222 1.419 . S
C224 C225 1.363 . S
C224 H227 0.929 . S
C225 C224 1.363 . S
C225 C231 1.428 . S
H226 C222 0.930 . S
H227 C224 0.929 . S
S228 N229 1.613 . S
S228 N230 1.610 . S
N229 S228 1.613 . S
N229 C232 1.350 . S
N230 S228 1.610 . S
N230 C231 1.351 . S
C231 C225 1.428 . S
C231 N230 1.351 . S
C231 C232 1.434 . S
C232 C223 1.429 . S
C232 N229 1.350 . S
C232 C231 1.434 . S
C233 C234 1.369 . S
C233 C235 1.419 . S
C233 H237 0.930 . S
C234 C233 1.369 . S
C234 C243 1.429 1_655 S
C235 C233 1.419 . S
C235 C236 1.363 1_655 S
C235 H238 0.929 . S
C236 C235 1.363 1_455 S
C236 C242 1.428 . S
H237 C233 0.930 . S
H238 C235 0.929 . S
S239 N240 1.613 . S
S239 N241 1.610 . S
N240 S239 1.613 . S
N240 C243 1.350 . S
N241 S239 1.610 . S
N241 C242 1.351 . S
C242 C236 1.428 . S
C242 N241 1.351 . S
C242 C243 1.434 . S
C243 C234 1.429 1_455 S
C243 N240 1.350 . S
C243 C242 1.434 . S
C244 C245 1.369 . S
C244 C246 1.419 . S
C244 H248 0.930 . S
C245 C244 1.369 . S
C245 C254 1.429 1_545 S
C246 C244 1.419 . S
C246 C247 1.363 1_545 S
C246 H249 0.929 . S
C247 C246 1.363 1_565 S
C247 C253 1.428 . S
H248 C244 0.930 . S
H249 C246 0.929 . S
S250 N251 1.613 . S
S250 N252 1.610 . S
N251 S250 1.613 . S
N251 C254 1.350 . S
N252 S250 1.610 . S
N252 C253 1.351 . S
C253 C247 1.428 . S
C253 N252 1.351 . S
C253 C254 1.434 . S
C254 C245 1.429 1_565 S
C254 N251 1.350 . S
C254 C253 1.434 . S
C255 C256 1.369 . S
C255 C257 1.419 . S
C255 H259 0.930 . S
C256 C255 1.369 . S
C256 C265 1.429 . S
C257 C255 1.419 . S
C257 C258 1.363 . S
C257 H260 0.929 . S
C258 C257 1.363 . S
C258 C264 1.428 . S
H259 C255 0.930 . S
H260 C257 0.929 . S
S261 N262 1.613 . S
S261 N263 1.610 . S
N262 S261 1.613 . S
N262 C265 1.350 . S
N263 S261 1.610 . S
N263 C264 1.351 . S
C264 C258 1.428 . S
C264 N263 1.351 . S
C264 C265 1.434 . S
C265 C256 1.429 . S
C265 N262 1.350 . S
C265 C264 1.434 . S
C266 C267 1.369 1_455 S
C266 C268 1.419 . S
C266 H270 0.930 . S
C267 C266 1.369 1_655 S
C267 C276 1.429 . S
C268 C266 1.419 . S
C268 C269 1.363 . S
C268 H271 0.929 . S
C269 C268 1.363 . S
C269 C275 1.428 1_455 S
H270 C266 0.930 . S
H271 C268 0.929 . S
S272 N273 1.613 . S
S272 N274 1.610 . S
N273 S272 1.613 . S
N273 C276 1.350 . S
N274 S272 1.610 . S
N274 C275 1.351 . S
C275 C269 1.428 1_655 S
C275 N274 1.351 . S
C275 C276 1.434 . S
C276 C267 1.429 . S
C276 N273 1.350 . S
C276 C275 1.434 . S
C277 C278 1.369 1_545 S
C277 C279 1.419 . S
C277 H281 0.930 . S
C278 C277 1.369 1_565 S
C278 C287 1.429 1_554 S
C279 C277 1.419 . S
C279 C280 1.363 1_554 S
C279 H282 0.929 . S
C280 C279 1.363 1_556 S
C280 C286 1.428 1_545 S
H281 C277 0.930 . S
H282 C279 0.929 . S
S283 N284 1.613 . S
S283 N285 1.610 . S
N284 S283 1.613 . S
N284 C287 1.350 . S
N285 S283 1.610 . S
N285 C286 1.351 . S
C286 C280 1.428 1_565 S
C286 N285 1.351 . S
C286 C287 1.434 . S
C287 C278 1.429 1_556 S
C287 N284 1.350 . S
C287 C286 1.434 . S
C288 C289 1.369 . S
C288 C290 1.419 . S
C288 H292 0.930 . S
C289 C288 1.369 . S
C289 C298 1.429 . S
C290 C288 1.419 . S
C290 C291 1.363 . S
C290 H293 0.929 . S
C291 C290 1.363 . S
C291 C297 1.428 . S
H292 C288 0.930 . S
H293 C290 0.929 . S
S294 N295 1.613 1_556 S
S294 N296 1.610 . S
N295 S294 1.613 1_554 S
N295 C298 1.350 . S
N296 S294 1.610 . S
N296 C297 1.351 1_556 S
C297 C291 1.428 . S
C297 N296 1.351 1_554 S
C297 C298 1.434 . S
C298 C289 1.429 . S
C298 N295 1.350 . S
C298 C297 1.434 . S
C299 C300 1.369 . S
C299 C301 1.419 . S
C299 H303 0.930 . S
C300 C299 1.369 . S
C300 C309 1.429 . S
C301 C299 1.419 . S
C301 C302 1.363 1_655 S
C301 H304 0.929 . S
C302 C301 1.363 1_455 S
C302 C308 1.428 . S
H303 C299 0.930 . S
H304 C301 0.929 . S
S305 N306 1.613 1_455 S
S305 N307 1.610 . S
N306 S305 1.613 1_655 S
N306 C309 1.350 . S
N307 S305 1.610 . S
N307 C308 1.351 . S
C308 C302 1.428 . S
C308 N307 1.351 . S
C308 C309 1.434 1_455 S
C309 C300 1.429 . S
C309 N306 1.350 . S
C309 C308 1.434 1_655 S
C310 C311 1.369 1_565 S
C310 C312 1.419 . S
C310 H314 0.930 . S
C311 C310 1.369 1_545 S
C311 C320 1.429 1_545 S
C312 C310 1.419 . S
C312 C313 1.363 . S
C312 H315 0.929 . S
C313 C312 1.363 . S
C313 C319 1.428 . S
H314 C310 0.930 . S
H315 C312 0.929 . S
S316 N317 1.613 . S
S316 N318 1.610 1_545 S
N317 S316 1.613 . S
N317 C320 1.350 1_545 S
N318 S316 1.610 1_565 S
N318 C319 1.351 . S
C319 C313 1.428 . S
C319 N318 1.351 . S
C319 C320 1.434 . S
C320 C311 1.429 1_565 S
C320 N317 1.350 1_565 S
C320 C319 1.434 . S
C321 C322 1.369 . S
C321 C323 1.419 . S
C321 H325 0.930 . S
C322 C321 1.369 . S
C322 C331 1.429 . S
C323 C321 1.419 . S
C323 C324 1.363 . S
C323 H326 0.929 . S
C324 C323 1.363 . S
C324 C330 1.428 . S
H325 C321 0.930 . S
H326 C323 0.929 . S
S327 N328 1.613 . S
S327 N329 1.610 . S
N328 S327 1.613 . S
N328 C331 1.350 . S
N329 S327 1.610 . S
N329 C330 1.351 . S
C330 C324 1.428 . S
C330 N329 1.351 . S
C330 C331 1.434 . S
C331 C322 1.429 . S
C331 N328 1.350 . S
C331 C330 1.434 . S
C332 C333 1.369 . S
C332 C334 1.419 . S
C332 H336 0.930 . S
C333 C332 1.369 . S
C333 C342 1.429 . S
C334 C332 1.419 . S
C334 C335 1.363 1_455 S
C334 H337 0.929 . S
C335 C334 1.363 1_655 S
C335 C341 1.428 . S
H336 C332 0.930 . S
H337 C334 0.929 . S
S338 N339 1.613 1_655 S
S338 N340 1.610 . S
N339 S338 1.613 1_455 S
N339 C342 1.350 . S
N340 S338 1.610 . S
N340 C341 1.351 . S
C341 C335 1.428 . S
C341 N340 1.351 . S
C341 C342 1.434 1_655 S
C342 C333 1.429 . S
C342 N339 1.350 . S
C342 C341 1.434 1_455 S
C343 C344 1.369 . S
C343 C345 1.419 1_545 S
C343 H347 0.930 . S
C344 C343 1.369 . S
C344 C353 1.429 . S
C345 C343 1.419 1_565 S
C345 C346 1.363 . S
C345 H348 0.929 . S
C346 C345 1.363 . S
C346 C352 1.420 1_565 S
H347 C343 0.930 . S
H348 C345 0.929 . S
S349 N350 1.613 . S
S349 N351 1.610 . S
N350 S349 1.613 . S
N350 C353 1.350 . S
N351 S349 1.610 . S
N351 C352 1.351 . S
C352 C346 1.420 1_545 S
C352 N351 1.351 . S
C352 C353 1.434 . S
C353 C344 1.429 . S
C353 N350 1.350 . S
C353 C352 1.434 . S
C354 C355 1.369 . S
C354 C356 1.419 . S
C354 H358 0.930 . S
C355 C354 1.369 . S
C355 C364 1.429 . S
C356 C354 1.419 . S
C356 C357 1.363 . S
C356 H359 0.929 . S
C357 C356 1.363 . S
C357 C363 1.428 . S
H358 C354 0.930 . S
H359 C356 0.929 . S
S360 N361 1.613 . S
S360 N362 1.610 . S
N361 S360 1.613 . S
N361 C364 1.350 . S
N362 S360 1.610 . S
N362 C363 1.351 . S
C363 C357 1.428 . S
C363 N362 1.351 . S
C363 C364 1.434 . S
C364 C355 1.429 . S
C364 N361 1.350 . S
C364 C363 1.434 . S
C365 C366 1.369 . S
C365 C367 1.419 . S
C365 H369 0.930 . S
C366 C365 1.369 . S
C366 C375 1.429 . S
C367 C365 1.419 . S
C367 C368 1.363 1_655 S
C367 H370 0.929 . S
C368 C367 1.363 1_455 S
C368 C374 1.428 1_455 S
H369 C365 0.930 . S
H370 C367 0.929 . S
S371 N372 1.613 . S
S371 N373 1.610 1_655 S
N372 S371 1.613 . S
N372 C375 1.350 . S
N373 S371 1.610 1_455 S
N373 C374 1.351 1_455 S
C374 C368 1.428 1_655 S
C374 N373 1.351 1_655 S
C374 C375 1.434 . S
C375 C366 1.429 . S
C375 N372 1.350 . S
C375 C374 1.434 . S
C376 C377 1.369 . S
C376 C378 1.419 . S
C376 H380 0.930 . S
C377 C376 1.369 . S
C377 C386 1.429 . S
C378 C376 1.419 . S
C378 C379 1.363 1_565 S
C378 H381 0.929 . S
C379 C378 1.363 1_545 S
C379 C385 1.428 . S
H380 C376 0.930 . S
H381 C378 0.929 . S
S382 N383 1.613 1_545 S
S382 N384 1.610 . S
N383 S382 1.613 1_565 S
N383 C386 1.350 . S
N384 S382 1.610 . S
N384 C385 1.351 . S
C385 C379 1.428 . S
C385 N384 1.351 . S
C385 C386 1.434 1_545 S
C386 C377 1.429 . S
C386 N383 1.350 . S
C386 C385 1.434 1_565 S
C387 C388 1.369 . S
C387 C389 1.419 . S
C387 H391 0.930 . S
C388 C387 1.369 . S
C388 C397 1.429 . S
C389 C387 1.419 . S
C389 C390 1.363 . S
C389 H392 0.929 . S
C390 C389 1.363 . S
C390 C396 1.428 . S
H391 C387 0.930 . S
H392 C389 0.929 . S
S393 N394 1.613 . S
S393 N395 1.610 . S
N394 S393 1.613 . S
N394 C397 1.350 . S
N395 S393 1.610 . S
N395 C396 1.351 . S
C396 C390 1.428 . S
C396 N395 1.351 . S
C396 C397 1.434 . S
C397 C388 1.429 . S
C397 N394 1.350 . S
C397 C396 1.434 . S
C398 C399 1.369 . S
C398 C400 1.419 . S
C398 H402 0.930 . S
C399 C398 1.369 . S
C399 C408 1.429 . S
C400 C398 1.419 . S
C400 C401 1.363 1_455 S
C400 H403 0.940 . S
C401 C400 1.363 1_655 S
C401 C407 1.428 1_655 S
H402 C398 0.930 . S
H403 C400 0.940 . S
S404 N405 1.613 . S
S404 N406 1.610 . S
N405 S404 1.613 . S
N405 C408 1.350 . S
N406 S404 1.610 . S
N406 C407 1.351 . S
C407 C401 1.428 1_455 S
C407 N406 1.351 . S
C407 C408 1.434 . S
C408 C399 1.429 . S
C408 N405 1.350 . S
C408 C407 1.434 . S
C409 C410 1.369 1_545 S
C409 C411 1.419 . S
C409 H413 0.930 . S
C410 C409 1.369 1_565 S
C410 C419 1.429 . S
C411 C409 1.419 . S
C411 C412 1.363 . S
C411 H414 0.929 . S
C412 C411 1.363 . S
C412 C418 1.428 . S
H413 C409 0.930 . S
H414 C411 0.929 . S
S415 N416 1.613 . S
S415 N417 1.610 1_565 S
N416 S415 1.613 . S
N416 C419 1.350 . S
N417 S415 1.610 1_545 S
N417 C418 1.351 . S
C418 C412 1.428 . S
C418 N417 1.351 . S
C418 C419 1.434 1_545 S
C419 C410 1.429 . S
C419 N416 1.350 . S
C419 C418 1.434 1_565 S
C157 C107 1.683 . S
C159 C5 1.601 . S
C168 C16 1.686 . S
C170 C120 1.684 . S
C179 C29 1.686 . S
C181 C135 1.601 . S
C190 C44 1.608 . S
C192 C146 1.684 . S
C201 C81 1.686 . S
C203 C55 1.683 . S
C212 C68 1.684 . S
C214 C96 1.599 . S
C223 C118 1.500 . S
C225 C10 1.458 . S
C234 C14 1.502 . S
C236 C140 1.453 . S
C245 C144 1.502 . S
C247 C27 1.497 . S
C256 C49 1.459 . S
C258 C79 1.497 . S
C267 C101 1.452 . S
C269 C53 1.501 . S
C278 C105 1.497 . S
C280 C66 1.501 . S
C289 C3 1.841 . S
C291 C75 1.772 1_554 S
C300 C18 1.811 . S
C302 C1 1.836 . S
C311 C23 1.779 . S
C313 C31 1.811 . S
C322 C42 1.840 . S
C324 C36 1.772 . S
C333 C57 1.812 . S
C335 C40 1.837 . S
C344 C70 1.810 . S
C346 C62 1.779 . S
C355 C83 1.807 . S
C357 C92 1.833 . S
C366 C94 1.839 . S
C368 C114 1.774 1_556 S
C377 C109 1.809 . S
C379 C127 1.777 . S
C388 C122 1.811 . S
C390 C131 1.836 . S
C399 C133 1.840 . S
C401 C153 1.773 . S
C410 C88 1.777 . S
C412 C148 1.809 . S
