# Generated by pormake.
# Topology rkf, (6)-cn, num edge types: 1
# Building blocks:
#     Node 0, Type 0, BuildingBlock: BETFAJ_clean_sbu_0, # of connection points: 6
#     Node 1, Type 0, BuildingBlock: BETFAJ_clean_sbu_0, # of connection points: 6
#     Node 2, Type 0, BuildingBlock: BETFAJ_clean_sbu_0, # of connection points: 6
#     Node 3, Type 0, BuildingBlock: BETFAJ_clean_sbu_0, # of connection points: 6
#     Node 4, Type 0, BuildingBlock: BETFAJ_clean_sbu_0, # of connection points: 6
#     Node 5, Type 0, BuildingBlock: BETFAJ_clean_sbu_0, # of connection points: 6
#     Edge 6, Type (0, 0), BuildingBlock: OJICUG_clean_linker_0, # of connection points: 2
#     Edge 7, Type (0, 0), BuildingBlock: OJICUG_clean_linker_0, # of connection points: 2
#     Edge 8, Type (0, 0), BuildingBlock: OJICUG_clean_linker_0, # of connection points: 2
#     Edge 9, Type (0, 0), BuildingBlock: OJICUG_clean_linker_0, # of connection points: 2
#     Edge 10, Type (0, 0), BuildingBlock: OJICUG_clean_linker_0, # of connection points: 2
#     Edge 11, Type (0, 0), BuildingBlock: OJICUG_clean_linker_0, # of connection points: 2
#     Edge 12, Type (0, 0), BuildingBlock: OJICUG_clean_linker_0, # of connection points: 2
#     Edge 13, Type (0, 0), BuildingBlock: OJICUG_clean_linker_0, # of connection points: 2
#     Edge 14, Type (0, 0), BuildingBlock: OJICUG_clean_linker_0, # of connection points: 2
#     Edge 15, Type (0, 0), BuildingBlock: OJICUG_clean_linker_0, # of connection points: 2
#     Edge 16, Type (0, 0), BuildingBlock: OJICUG_clean_linker_0, # of connection points: 2
#     Edge 17, Type (0, 0), BuildingBlock: OJICUG_clean_linker_0, # of connection points: 2
#     Edge 18, Type (0, 0), BuildingBlock: OJICUG_clean_linker_0, # of connection points: 2
#     Edge 19, Type (0, 0), BuildingBlock: OJICUG_clean_linker_0, # of connection points: 2
#     Edge 20, Type (0, 0), BuildingBlock: OJICUG_clean_linker_0, # of connection points: 2
#     Edge 21, Type (0, 0), BuildingBlock: OJICUG_clean_linker_0, # of connection points: 2
#     Edge 22, Type (0, 0), BuildingBlock: OJICUG_clean_linker_0, # of connection points: 2
#     Edge 23, Type (0, 0), BuildingBlock: OJICUG_clean_linker_0, # of connection points: 2
# Relax obj value: 1.045
# Max RMSD: 0.248
# Mean RMSD: 0.248
data_MOF--net-rkf--node1-BETFAJ_clean_sbu_0--edge1-OJICUG_clean_linker_0
_symmetry_space_group_name_H-M    P1
_symmetry_Int_Tables_number       1
_symmetry_cell_setting            triclinic
loop_
_symmetry_equiv_pos_as_xyz
'x, y, z'
_cell_length_a     19.730195
_cell_length_b     19.246046
_cell_length_c     35.037866
_cell_angle_alpha  89.991771
_cell_angle_beta   90.366089
_cell_angle_gamma 120.86849
loop_
_atom_site_label
_atom_site_type_symbol
_atom_site_fract_x
_atom_site_fract_y
_atom_site_fract_z
_atom_type_partial_charge
Sm0 Sm 0.27662 -0.01977 0.18655 0.0
Sm1 Sm 0.31035 0.13863 1.15875 0.0
C2 C 0.29101 0.85318 0.19932 0.0
C3 C 0.31989 0.83079 0.23287 0.0
C4 C 0.2937 0.74936 0.24003 0.0
C5 C 0.2955 0.72436 0.27729 0.0
C6 C 0.32021 0.78033 0.30771 0.0
C7 C 0.35886 0.86347 0.299 0.0
C8 C 0.35846 0.88843 0.26178 0.0
C9 C 0.15104 0.00084 0.18481 0.0
C10 C 0.30694 0.11492 0.25783 0.0
C11 C 0.31151 0.27445 1.1457 0.0
C12 C 0.35312 0.36273 1.14916 0.0
C13 C 0.30881 0.40026 1.14465 0.0
C14 C 0.34522 0.48006 1.13199 0.0
C15 C 0.42623 0.52243 1.12339 0.0
C16 C 0.47241 0.48967 1.13527 0.0
C17 C 0.43576 0.40938 1.14755 0.0
C18 C 0.44197 0.12164 1.15815 0.0
C19 C 0.22945 -0.00706 1.09028 0.0
O20 O 0.34387 0.91716 0.1808 0.0
O21 O 0.22545 0.85315 0.20509 0.0
O22 O 0.20161 0.01887 1.15962 0.0
O23 O 0.16346 0.96586 0.2137 0.0
O24 O 0.30219 0.04407 0.24951 0.0
O25 O 0.30669 0.15832 0.22768 0.0
O26 O 0.34185 0.24439 1.12258 0.0
O27 O 0.279 0.23038 0.17597 0.0
O28 O 0.39201 0.09969 0.18466 0.0
O29 O 0.42631 0.15884 1.1319 0.0
O30 O 0.249 0.06821 1.1002 0.0
O31 O 0.23867 0.94897 1.11798 0.0
H32 H 0.26483 0.70427 0.21775 0.0
H33 H 0.26839 0.66016 0.28279 0.0
H34 H 0.37971 0.90907 0.32122 0.0
H35 H 0.37994 0.9519 0.25654 0.0
H36 H 0.24492 0.36514 1.14629 0.0
H37 H 0.30778 0.50347 1.12363 0.0
H38 H 0.53534 0.52187 1.12986 0.0
H39 H 0.47103 0.3815 1.15159 0.0
Sm40 Sm 0.38765 0.29328 0.52268 0.0
Sm41 Sm 0.24665 0.29665 0.49908 0.0
C42 C 0.5372 0.33512 0.53086 0.0
C43 C 0.59151 0.37173 0.56326 0.0
C44 C 0.64449 0.34598 0.57206 0.0
C45 C 0.66979 0.34983 0.60976 0.0
C46 C 0.63937 0.37634 0.63891 0.0
C47 C 0.59951 0.41679 0.62841 0.0
C48 C 0.57517 0.41388 0.59077 0.0
C49 C 0.25498 0.14927 0.53102 0.0
C50 C 0.28127 0.30631 0.59612 0.0
C51 C 0.10503 0.28112 0.49611 0.0
C52 C 0.06047 0.31311 0.47743 0.0
C53 C 0.08727 0.35687 0.44352 0.0
C54 C 0.04507 0.38881 0.42666 0.0
C55 C -0.02425 0.37827 0.44364 0.0
C56 C -0.05001 0.33536 0.47807 0.0
C57 C -0.00775 0.30308 0.49486 0.0
C58 C 0.38635 0.44533 0.49523 0.0
C59 C 0.31844 0.24067 0.42623 0.0
O60 O 0.51535 0.38093 0.51358 0.0
O61 O 0.47803 0.26206 0.53759 0.0
O62 O 0.27227 0.19616 0.50303 0.0
O63 O 0.31019 0.17722 0.5571 0.0
O64 O 0.35366 0.32189 0.58579 0.0
O65 O 0.22813 0.28349 0.56769 0.0
O66 O 0.12417 0.237 0.47563 0.0
O67 O 0.16197 0.33175 0.51855 0.0
O68 O 0.36445 0.39491 0.52182 0.0
O69 O 0.33235 0.41926 0.46866 0.0
O70 O 0.26124 0.25441 0.4368 0.0
O71 O 0.37306 0.25326 0.45364 0.0
H72 H 0.6586 0.31425 0.55095 0.0
H73 H 0.70327 0.32113 0.61676 0.0
H74 H 0.57606 0.43941 0.64971 0.0
H75 H 0.53491 0.43501 0.58443 0.0
H76 H 0.14031 0.36565 0.42996 0.0
H77 H 0.06559 0.41951 0.39957 0.0
H78 H 0.89703 0.32623 0.49182 0.0
H79 H -0.02838 0.27014 0.52143 0.0
Sm80 Sm 0.19581 0.39674 0.85943 0.0
Sm81 Sm 0.03698 0.27788 0.83158 0.0
C82 C 0.33028 0.53362 0.87256 0.0
C83 C 0.36385 0.58603 0.90617 0.0
C84 C 0.31407 0.582 0.93559 0.0
C85 C 0.34518 0.61215 0.97177 0.0
C86 C 0.42625 0.64557 0.97902 0.0
C87 C 0.47694 0.65892 0.94822 0.0
C88 C 0.44574 0.62872 0.91199 0.0
C89 C 0.15909 0.24108 0.86406 0.0
C90 C 0.0634 0.29697 0.93007 0.0
C91 C 0.89103 0.15265 0.82445 0.0
C92 C 0.8135 0.12391 0.80712 0.0
C93 C 0.76653 0.04166 0.79824 0.0
C94 C 0.69515 0.01292 0.77892 0.0
C95 C 0.66949 0.06621 0.76814 0.0
C96 C 0.71418 0.14782 0.77969 0.0
C97 C 0.7861 0.17666 0.79888 0.0
C98 C 0.07145 0.43628 0.8249 0.0
C99 C 0.17335 0.33155 0.76252 0.0
O100 O 0.26862 0.53088 0.85678 0.0
O101 O 0.32233 0.46213 0.87606 0.0
O102 O 0.14739 0.27531 0.83671 0.0
O103 O 0.19685 0.29186 0.89179 0.0
O104 O 0.13124 0.36582 0.92162 0.0
O105 O 0.02399 0.24931 0.90008 0.0
O106 O 0.94834 0.16466 0.80177 0.0
O107 O 0.91331 0.20754 0.8511 0.0
O108 O 0.08703 0.40646 0.85333 0.0
O109 O 0.0324 0.38074 0.79938 0.0
O110 O 0.09755 0.28144 0.77175 0.0
O111 O 0.22052 0.38275 0.79069 0.0
H112 H 0.25056 0.5491 0.93158 0.0
H113 H 0.30454 0.60032 0.99493 0.0
H114 H 0.53968 0.68473 0.95307 0.0
H115 H 0.48492 0.63246 0.8895 0.0
H116 H 0.78671 0.00014 0.80484 0.0
H117 H 0.66331 0.95011 0.76996 0.0
H118 H 0.69568 0.19017 0.77201 0.0
H119 H 0.82143 0.24039 0.80604 0.0
Sm120 Sm 0.8889 0.21698 0.1905 0.0
Sm121 Sm 0.83782 0.04979 1.16759 0.0
C122 C 0.88616 0.34705 0.21206 0.0
C123 C 0.84997 0.36398 0.24423 0.0
C124 C 0.8741 0.4439 0.25403 0.0
C125 C 0.85997 0.46182 0.29075 0.0
C126 C 0.82501 0.40019 0.31842 0.0
C127 C 0.78948 0.31901 0.306 0.0
C128 C 0.80217 0.30121 0.26919 0.0
C129 C 0.0071 0.18652 0.19007 0.0
C130 C 0.84958 0.08034 0.26439 0.0
C131 C 0.80097 0.8976 1.16189 0.0
C132 C 0.76457 0.82565 1.13757 0.0
C133 C 0.79688 0.77576 1.1375 0.0
C134 C 0.76661 0.70919 1.1131 0.0
C135 C 0.70322 0.69135 1.0884 0.0
C136 C 0.66846 0.73949 1.09002 0.0
C137 C 0.69913 0.8064 1.11433 0.0
C138 C 0.72287 0.09225 1.15748 0.0
C139 C 0.92901 0.18848 1.09683 0.0
O140 O 0.83716 0.29553 0.18664 0.0
O141 O 0.94267 0.3335 0.22169 0.0
O142 O 0.93912 0.14145 0.20222 0.0
O143 O 0.01741 0.25356 0.17572 0.0
O144 O 0.86583 0.15582 0.25493 0.0
O145 O 0.84026 0.03114 0.23532 0.0
O146 O 0.86906 0.95853 1.15081 0.0
O147 O 0.75405 0.91956 0.17671 0.0
O148 O 0.76727 0.10708 0.18593 0.0
O149 O 0.73838 0.0533 1.13215 0.0
O150 O 0.90729 0.11387 1.10927 0.0
O151 O 0.9197 0.23654 1.12184 0.0
H152 H 0.90965 0.49296 0.23458 0.0
H153 H 0.88461 0.52472 0.29859 0.0
H154 H 0.76075 0.26891 0.32566 0.0
H155 H 0.78173 0.23884 0.26166 0.0
H156 H 0.84721 0.78979 1.15553 0.0
H157 H 0.79592 0.67465 1.11214 0.0
H158 H 0.61947 0.72743 1.07152 0.0
H159 H 0.67306 0.8441 1.11426 0.0
Sm160 Sm 0.77334 0.90783 0.52503 0.0
Sm161 Sm 0.86277 0.83744 0.49609 0.0
C162 C 0.65351 0.93151 0.53404 0.0
C163 C 0.59699 0.91924 0.56382 0.0
C164 C 0.56106 0.96585 0.56358 0.0
C165 C 0.52648 0.97327 0.59679 0.0
C166 C 0.52922 0.93528 0.63057 0.0
C167 C 0.55459 0.87903 0.62877 0.0
C168 C 0.58905 0.87165 0.59562 0.0
C169 C 0.93074 0.00988 0.52704 0.0
C170 C 0.85572 0.8538 0.59505 0.0
C171 C -0.04351 0.77753 0.48826 0.0
C172 C 0.0195 0.77231 0.46922 0.0
C173 C 0.08501 0.84046 0.45349 0.0
C174 C 0.14415 0.83273 0.43586 0.0
C175 C 0.13812 0.75674 0.43366 0.0
C176 C 0.07365 0.68937 0.45058 0.0
C177 C 0.01484 0.69719 0.46826 0.0
C178 C 0.70124 0.73139 0.49439 0.0
C179 C 0.83117 0.94222 0.42847 0.0
O180 O 0.6461 0.86611 0.51851 0.0
O181 O 0.72693 -0.01352 0.54179 0.0
O182 O 0.89154 0.96427 0.49977 0.0
O183 O 0.88563 0.00823 0.55449 0.0
O184 O 0.79971 0.87236 0.58781 0.0
O185 O 0.88973 0.84282 0.5644 0.0
O186 O -0.02433 0.84273 0.50794 0.0
O187 O 0.88772 0.74618 0.47136 0.0
O188 O 0.73984 0.77662 0.52231 0.0
O189 O 0.74782 0.74211 0.46633 0.0
O190 O 0.87232 0.90618 0.43708 0.0
O191 O 0.7874 0.94646 0.45698 0.0
H192 H 0.5661 0.00224 0.53896 0.0
H193 H 0.50652 0.01624 0.59731 0.0
H194 H 0.55776 0.84886 0.65423 0.0
H195 H 0.61614 0.83488 0.59606 0.0
H196 H 0.08961 0.89897 0.45415 0.0
H197 H 0.19255 0.88528 0.42234 0.0
H198 H 0.06784 0.63034 0.44926 0.0
H199 H -0.03493 0.64422 0.4808 0.0
Sm200 Sm -0.04134 0.7627 0.85488 0.0
Sm201 Sm 0.11076 0.90189 0.82917 0.0
C202 C 0.83548 0.61396 0.86148 0.0
C203 C 0.79156 0.55969 0.89297 0.0
C204 C 0.83065 0.56297 0.92708 0.0
C205 C 0.78882 0.53957 0.96119 0.0
C206 C 0.70838 0.51515 0.96136 0.0
C207 C 0.66727 0.49862 0.92653 0.0
C208 C 0.70894 0.52098 0.89234 0.0
C209 C -0.03176 0.90454 0.86565 0.0
C210 C 0.08702 0.87105 0.92661 0.0
C211 C 0.24647 0.04133 0.82569 0.0
C212 C 0.31514 0.09308 0.80237 0.0
C213 C 0.31606 0.07689 0.76358 0.0
C214 C 0.38362 0.12523 0.74225 0.0
C215 C 0.45145 0.19001 0.75952 0.0
C216 C 0.44986 0.20618 0.79844 0.0
C217 C 0.38203 0.15776 0.81975 0.0
C218 C 0.09857 0.75223 0.82244 0.0
C219 C -0.02328 0.83483 0.75904 0.0
O220 O 0.9073 0.62916 0.8555 0.0
O221 O 0.83005 0.67881 0.85982 0.0
O222 O -0.00989 0.88308 0.83657 0.0
O223 O 0.93669 0.84832 0.89161 0.0
O224 O 0.02266 0.79886 0.91766 0.0
O225 O 0.1228 0.92199 0.89756 0.0
O226 O 0.17881 0.03313 0.81545 0.0
O227 O 0.24028 0.97394 0.83739 0.0
O228 O 0.07822 0.77803 0.85039 0.0
O229 O 0.12855 0.80703 0.79589 0.0
O230 O 0.05061 0.89132 0.76856 0.0
O231 O 0.93369 0.77941 0.78638 0.0
H232 H 0.89445 0.59241 0.92816 0.0
H233 H 0.82185 0.55285 0.98771 0.0
H234 H 0.6052 0.47965 0.92608 0.0
H235 H 0.67788 0.51758 0.86613 0.0
H236 H 0.26474 0.02697 0.74988 0.0
H237 H 0.38228 0.11249 0.71206 0.0
H238 H 0.50111 0.25554 0.81243 0.0
H239 H 0.38194 0.1704 0.84988 0.0
C240 C 0.06912 0.12314 0.2237 0.0
C241 C 0.06158 0.15805 0.18992 0.0
H242 H 0.10192 0.04288 0.24866 0.0
C243 C 0.08188 0.13999 1.15492 0.0
H244 H 0.05069 0.13492 0.25083 0.0
C245 C 0.10641 0.0843 1.15346 0.0
C246 C 0.11296 0.04812 0.18712 0.0
H247 H 0.07308 0.16398 1.12858 0.0
H248 H 0.12036 0.06952 1.12589 0.0
C249 C 0.09535 0.06861 0.22238 0.0
C250 C 0.05366 0.0667 0.56663 0.0
C251 C 0.01346 0.03515 0.53195 0.0
H252 H 0.16658 0.12486 0.59473 0.0
C253 C 0.05188 0.02341 0.50133 0.0
H254 H 0.02416 0.07405 0.59091 0.0
C255 C 0.13085 0.04837 0.50415 0.0
C256 C 0.17328 0.08851 0.53701 0.0
H257 H 0.0218 -0.00236 0.47448 0.0
H258 H 0.16079 0.04498 0.47899 0.0
C259 C 0.13402 0.09331 0.56922 0.0
C260 C 0.00464 0.03225 0.83811 0.0
C261 C -0.00281 -0.01056 0.87139 0.0
H262 H 0.06938 0.14226 0.8087 0.0
C263 C 0.03977 0.0301 0.90447 0.0
H264 H -0.02728 0.00148 0.81225 0.0
C265 C 0.0943 0.11343 0.90296 0.0
C266 C 0.10659 0.15424 0.86818 0.0
H267 H 0.0352 -0.00305 0.93025 0.0
H268 H 0.12789 0.14502 0.92824 0.0
C269 C 0.06098 0.11278 0.83604 0.0
C270 C 0.4259 0.63463 1.08642 0.0
C271 C 0.45323 0.58043 1.09119 0.0
H272 H 0.39696 0.70019 1.04633 0.0
C273 C 0.48777 0.56476 1.05997 0.0
H274 H 0.39874 0.64766 1.10995 0.0
C275 C 0.48673 0.59453 1.02406 0.0
C276 C 0.45172 0.64126 1.0183 0.0
H277 H 0.50755 0.52178 1.06203 0.0
H278 H 0.50541 0.57303 1.00009 0.0
C279 C 0.42482 0.66462 1.05009 0.0
C280 C 0.84518 0.3515 0.41859 0.0
C281 C 0.92704 0.40427 0.42269 0.0
H282 H 0.74399 0.31372 0.38284 0.0
C283 C -0.03591 0.47402 0.40011 0.0
H284 H 0.81392 0.2983 0.43633 0.0
C285 C 0.92483 0.4815 0.36868 0.0
C286 C 0.84757 0.4189 0.35953 0.0
H287 H 0.02634 0.51748 0.40385 0.0
H288 H -0.04032 0.53008 0.34899 0.0
C289 C 0.80516 0.36005 0.38757 0.0
C290 C 0.62451 0.09004 0.70599 0.0
C291 C 0.60803 0.04034 0.73805 0.0
H292 H 0.60883 0.09521 0.64632 0.0
C293 C 0.54451 0.95985 0.73622 0.0
H294 H 0.67288 0.15229 0.7062 0.0
C295 C 0.50781 0.92632 0.70121 0.0
C296 C 0.5339 0.97335 0.66792 0.0
H297 H 0.5293 0.92056 0.76079 0.0
H298 H 0.46604 0.86182 0.69943 0.0
C299 C 0.58715 0.05701 0.67133 0.0
C300 C 0.68636 0.56098 1.06294 0.0
C301 C 0.68246 0.63135 1.05736 0.0
H302 H 0.69704 0.46672 1.03607 0.0
C303 C 0.66995 0.65057 1.02036 0.0
H304 H 0.69476 0.5439 1.09124 0.0
C305 C 0.667 0.60415 0.98939 0.0
C306 C 0.67973 0.53938 0.9945 0.0
H307 H 0.66788 0.7048 1.01477 0.0
H308 H 0.66338 0.62461 0.96104 0.0
C309 C 0.68629 0.51596 1.03159 0.0
C310 C 0.15819 0.68861 0.3788 0.0
C311 C 0.19133 0.74572 0.40833 0.0
H312 H 0.17361 0.65275 0.32404 0.0
C313 C 0.2732 0.79992 0.40914 0.0
H314 H 0.09507 0.64723 0.37715 0.0
C315 C 0.3196 0.80296 0.37844 0.0
C316 C 0.28406 0.75362 0.34607 0.0
H317 H 0.3002 0.84371 0.43207 0.0
H318 H 0.38158 0.84939 0.37841 0.0
C319 C 0.20404 0.69202 0.34811 0.0
C320 C 0.55992 0.32671 0.73812 0.0
C321 C 0.52162 0.24188 0.73601 0.0
H322 H 0.63329 0.43871 0.70916 0.0
C323 C 0.54341 0.2064 0.70748 0.0
H324 H 0.54507 0.35593 0.7602 0.0
C325 C 0.59361 0.25337 0.6784 0.0
C326 C 0.6223 0.33706 0.677 0.0
H327 H 0.51581 0.14126 0.70575 0.0
H328 H 0.60104 0.22193 0.65469 0.0
C329 C 0.61052 0.37414 0.70887 0.0
C330 C 0.54711 0.10666 0.19252 0.0
C331 C 0.51344 0.11338 1.15823 0.0
H332 H 0.64065 0.09736 0.21917 0.0
C333 C 0.54924 0.11282 1.12364 0.0
H334 H 0.52121 0.10695 0.21964 0.0
C335 C 0.61625 0.10468 1.12328 0.0
C336 C 0.65087 0.09961 1.15756 0.0
H337 H 0.52471 0.11761 1.09671 0.0
H338 H 0.64174 0.10365 1.09616 0.0
C339 C 0.61572 0.10134 0.1922 0.0
C340 C 0.49921 0.56209 0.46086 0.0
C341 C 0.4639 0.52278 0.49514 0.0
H342 H 0.60232 0.65817 0.43389 0.0
C343 C 0.50557 0.55569 0.52961 0.0
H344 H 0.46894 0.53813 0.43388 0.0
C345 C 0.58119 0.62562 0.52975 0.0
C346 C 0.6178 0.66297 0.49531 0.0
H347 H 0.47992 0.52678 0.55655 0.0
H348 H 0.61213 0.64859 0.55667 0.0
C349 C 0.57567 0.63072 0.46092 0.0
C350 C 0.08904 0.56055 0.85804 0.0
C351 C 0.08151 0.51852 0.82399 0.0
H352 H 0.09848 0.66608 0.88413 0.0
C353 C 0.08207 0.55521 0.7891 0.0
H354 H 0.08878 0.53407 0.88537 0.0
C355 C 0.09006 0.63223 0.78832 0.0
C356 C 0.09526 0.67307 0.82246 0.0
H357 H 0.07662 0.52442 0.76237 0.0
H358 H 0.09011 0.65884 0.76107 0.0
C359 C 0.09452 0.6362 0.8573 0.0
C360 C 0.28276 0.19911 0.31208 0.0
C361 C 0.31123 0.14676 0.30131 0.0
H362 H 0.26016 0.26556 0.3557 0.0
C363 C 0.34369 0.12708 0.33353 0.0
H364 H 0.25661 0.21772 0.2901 0.0
C365 C 0.34838 0.15791 0.37232 0.0
C366 C 0.31864 0.20934 0.38309 0.0
H367 H 0.36708 0.08778 0.32879 0.0
H368 H 0.37447 0.13941 0.39437 0.0
C369 C 0.28497 0.22753 0.35096 0.0
C370 C 0.17581 0.27929 0.6507 0.0
C371 C 0.25642 0.31309 0.63945 0.0
H372 H 0.08818 0.25647 0.69407 0.0
C373 C 0.30998 0.35436 0.67064 0.0
H374 H 0.1301 0.24667 0.62945 0.0
C375 C 0.285 0.36166 0.70902 0.0
C376 C 0.20398 0.32718 0.72014 0.0
H377 H 0.37266 0.38258 0.6654 0.0
H378 H 0.3304 0.39443 0.73036 0.0
C379 C 0.15096 0.28523 0.689 0.0
C380 C 0.04746 0.32545 1.00449 0.0
C381 C 0.03062 0.27048 0.97325 0.0
H382 H 0.0309 0.34719 1.06411 0.0
C383 C -0.02086 0.188 0.98453 0.0
H384 H 0.08565 0.38956 0.99923 0.0
C385 C -0.05136 0.16286 1.02307 0.0
C386 C -0.03592 0.21767 1.05416 0.0
H387 H -0.03751 0.14111 0.96323 0.0
H388 H 0.91105 0.09867 1.02832 0.0
C389 C 0.01483 0.3004 1.04284 0.0
C390 C 0.82532 0.07644 0.34061 0.0
C391 C 0.84622 0.04873 0.30727 0.0
H392 H 0.80215 0.06696 0.40193 0.0
C393 C 0.86202 -0.01447 0.31564 0.0
H394 H 0.8118 0.12401 0.3374 0.0
C395 C 0.85837 0.95356 0.35355 0.0
C396 C 0.83601 -0.02029 0.3868 0.0
H397 H 0.87846 0.96026 0.29237 0.0
H398 H 0.8723 0.90626 0.3566 0.0
C399 C 0.81934 0.04256 0.37859 0.0
C400 C 0.83501 0.81898 0.67056 0.0
C401 C 0.88455 0.84786 0.63755 0.0
H402 H 0.82029 0.78914 0.7314 0.0
C403 C -0.03568 0.87057 0.64623 0.0
H404 H 0.77331 0.79999 0.66715 0.0
C405 C -0.0076 0.86658 0.68418 0.0
C406 C 0.94297 0.83629 0.71708 0.0
H407 H 0.00687 0.89358 0.62332 0.0
H408 H 0.05447 0.88709 0.68757 0.0
C409 C 0.86264 0.81215 0.70841 0.0
C410 C 0.17028 -0.01732 0.97946 0.0
C411 C 0.12096 0.89922 0.9693 0.0
H412 H 0.23895 0.07565 1.02185 0.0
C413 C 0.10881 0.8463 1.00068 0.0
H414 H 0.18329 0.02788 0.95779 0.0
C415 C 0.14387 0.8747 1.03851 0.0
C416 C 0.19258 0.95857 1.04857 0.0
H417 H 0.0726 0.78168 0.99596 0.0
H418 H 0.13145 0.82988 1.06028 0.0
C419 C 0.20335 0.01091 1.01729 0.0
loop_
_geom_bond_atom_site_label_1
_geom_bond_atom_site_label_2
_geom_bond_distance
_geom_bond_site_symmetry_2
_ccdc_geom_bond_type
Sm0 C2 2.846 . S
Sm0 O20 2.543 . S
Sm0 O21 2.450 . S
Sm0 O22 2.681 . S
Sm0 O23 2.464 . S
Sm0 O24 2.396 . S
Sm0 O28 2.386 . S
Sm0 O31 2.408 1_554 S
Sm1 C11 2.846 . S
Sm1 O22 2.386 1_556 S
Sm1 O25 2.408 1_556 S
Sm1 O26 2.543 . S
Sm1 O27 2.450 . S
Sm1 O28 2.681 1_556 S
Sm1 O29 2.464 . S
Sm1 O30 2.396 . S
C2 Sm0 2.846 . S
C2 C3 1.506 . S
C2 O20 1.261 . S
C2 O21 1.242 . S
C3 C2 1.506 . S
C3 C4 1.358 . S
C3 C8 1.382 1_545 S
C4 C3 1.358 . S
C4 C5 1.385 . S
C4 H32 0.930 . S
C5 C4 1.385 . S
C5 C6 1.395 1_545 S
C5 H33 0.929 . S
C6 C5 1.395 1_565 S
C6 C7 1.335 . S
C7 C6 1.335 . S
C7 C8 1.398 . S
C7 H34 0.930 . S
C8 C3 1.382 1_565 S
C8 C7 1.398 . S
C8 H35 0.929 . S
C9 O22 1.271 . S
C9 O23 1.251 . S
C10 O24 1.252 . S
C10 O25 1.272 . S
C11 Sm1 2.846 . S
C11 C12 1.506 . S
C11 O26 1.261 . S
C11 O27 1.242 . S
C12 C11 1.506 . S
C12 C13 1.358 . S
C12 C17 1.382 . S
C13 C12 1.358 . S
C13 C14 1.385 . S
C13 H36 0.930 . S
C14 C13 1.385 . S
C14 C15 1.395 . S
C14 H37 0.929 . S
C15 C14 1.395 . S
C15 C16 1.335 . S
C16 C15 1.335 . S
C16 C17 1.398 . S
C16 H38 0.930 . S
C17 C12 1.382 . S
C17 C16 1.398 . S
C17 H39 0.929 . S
C18 O28 1.271 . S
C18 O29 1.251 1_554 S
C19 O30 1.252 . S
C19 O31 1.272 . S
O20 Sm0 2.543 . S
O20 C2 1.261 . S
O21 Sm0 2.450 . S
O21 C2 1.242 . S
O22 Sm0 2.681 . S
O22 Sm1 2.386 1_554 S
O22 C9 1.271 . S
O23 Sm0 2.464 . S
O23 C9 1.251 . S
O24 Sm0 2.396 . S
O24 C10 1.252 . S
O25 Sm1 2.408 1_554 S
O25 C10 1.272 . S
O26 Sm1 2.543 . S
O26 C11 1.261 . S
O27 Sm1 2.450 . S
O27 C11 1.242 . S
O28 Sm0 2.386 . S
O28 Sm1 2.681 1_554 S
O28 C18 1.271 . S
O29 Sm1 2.464 . S
O29 C18 1.251 1_556 S
O30 Sm1 2.396 . S
O30 C19 1.252 . S
O31 Sm0 2.408 1_556 S
O31 C19 1.272 . S
H32 C4 0.930 . S
H33 C5 0.929 . S
H34 C7 0.930 . S
H35 C8 0.929 . S
H36 C13 0.930 . S
H37 C14 0.929 . S
H38 C16 0.930 . S
H39 C17 0.929 . S
Sm40 C42 2.846 . S
Sm40 O60 2.543 . S
Sm40 O61 2.450 . S
Sm40 O62 2.681 . S
Sm40 O63 2.464 . S
Sm40 O64 2.396 . S
Sm40 O68 2.386 . S
Sm40 O71 2.408 . S
Sm41 C51 2.846 . S
Sm41 O62 2.386 . S
Sm41 O65 2.408 . S
Sm41 O66 2.543 . S
Sm41 O67 2.450 . S
Sm41 O68 2.681 . S
Sm41 O69 2.464 . S
Sm41 O70 2.396 . S
C42 Sm40 2.846 . S
C42 C43 1.506 . S
C42 O60 1.261 . S
C42 O61 1.242 . S
C43 C42 1.506 . S
C43 C44 1.358 . S
C43 C48 1.382 . S
C44 C43 1.358 . S
C44 C45 1.385 . S
C44 H72 0.930 . S
C45 C44 1.385 . S
C45 C46 1.395 . S
C45 H73 0.929 . S
C46 C45 1.395 . S
C46 C47 1.335 . S
C47 C46 1.335 . S
C47 C48 1.398 . S
C47 H74 0.930 . S
C48 C43 1.382 . S
C48 C47 1.398 . S
C48 H75 0.929 . S
C49 O62 1.271 . S
C49 O63 1.251 . S
C50 O64 1.252 . S
C50 O65 1.272 . S
C51 Sm41 2.846 . S
C51 C52 1.506 . S
C51 O66 1.261 . S
C51 O67 1.242 . S
C52 C51 1.506 . S
C52 C53 1.358 . S
C52 C57 1.382 . S
C53 C52 1.358 . S
C53 C54 1.385 . S
C53 H76 0.930 . S
C54 C53 1.385 . S
C54 C55 1.395 . S
C54 H77 0.929 . S
C55 C54 1.395 . S
C55 C56 1.335 . S
C56 C55 1.335 . S
C56 C57 1.398 . S
C56 H78 0.930 . S
C57 C52 1.382 . S
C57 C56 1.398 . S
C57 H79 0.929 . S
C58 O68 1.271 . S
C58 O69 1.251 . S
C59 O70 1.252 . S
C59 O71 1.272 . S
O60 Sm40 2.543 . S
O60 C42 1.261 . S
O61 Sm40 2.450 . S
O61 C42 1.242 . S
O62 Sm40 2.681 . S
O62 Sm41 2.386 . S
O62 C49 1.271 . S
O63 Sm40 2.464 . S
O63 C49 1.251 . S
O64 Sm40 2.396 . S
O64 C50 1.252 . S
O65 Sm41 2.408 . S
O65 C50 1.272 . S
O66 Sm41 2.543 . S
O66 C51 1.261 . S
O67 Sm41 2.450 . S
O67 C51 1.242 . S
O68 Sm40 2.386 . S
O68 Sm41 2.681 . S
O68 C58 1.271 . S
O69 Sm41 2.464 . S
O69 C58 1.251 . S
O70 Sm41 2.396 . S
O70 C59 1.252 . S
O71 Sm40 2.408 . S
O71 C59 1.272 . S
H72 C44 0.930 . S
H73 C45 0.929 . S
H74 C47 0.930 . S
H75 C48 0.929 . S
H76 C53 0.930 . S
H77 C54 0.929 . S
H78 C56 0.930 . S
H79 C57 0.929 . S
Sm80 C82 2.846 . S
Sm80 O100 2.543 . S
Sm80 O101 2.450 . S
Sm80 O102 2.681 . S
Sm80 O103 2.464 . S
Sm80 O104 2.396 . S
Sm80 O108 2.386 . S
Sm80 O111 2.408 . S
Sm81 C91 2.846 . S
Sm81 O102 2.386 1_655 S
Sm81 O105 2.408 . S
Sm81 O106 2.543 . S
Sm81 O107 2.450 . S
Sm81 O108 2.681 1_655 S
Sm81 O109 2.464 . S
Sm81 O110 2.396 1_655 S
C82 Sm80 2.846 . S
C82 C83 1.506 . S
C82 O100 1.261 . S
C82 O101 1.242 . S
C83 C82 1.506 . S
C83 C84 1.358 . S
C83 C88 1.382 . S
C84 C83 1.358 . S
C84 C85 1.385 . S
C84 H112 0.930 . S
C85 C84 1.385 . S
C85 C86 1.395 . S
C85 H113 0.929 . S
C86 C85 1.395 . S
C86 C87 1.335 . S
C87 C86 1.335 . S
C87 C88 1.398 . S
C87 H114 0.930 . S
C88 C83 1.382 . S
C88 C87 1.398 . S
C88 H115 0.929 . S
C89 O102 1.271 . S
C89 O103 1.251 . S
C90 O104 1.252 1_655 S
C90 O105 1.272 . S
C91 Sm81 2.846 . S
C91 C92 1.506 . S
C91 O106 1.261 . S
C91 O107 1.242 . S
C92 C91 1.506 . S
C92 C93 1.358 . S
C92 C97 1.382 . S
C93 C92 1.358 . S
C93 C94 1.385 . S
C93 H116 0.930 . S
C94 C93 1.385 . S
C94 C95 1.395 . S
C94 H117 0.929 . S
C95 C94 1.395 . S
C95 C96 1.335 . S
C96 C95 1.335 . S
C96 C97 1.398 . S
C96 H118 0.930 . S
C97 C92 1.382 . S
C97 C96 1.398 . S
C97 H119 0.929 . S
C98 O108 1.271 1_655 S
C98 O109 1.251 . S
C99 O110 1.252 . S
C99 O111 1.272 . S
O100 Sm80 2.543 . S
O100 C82 1.261 . S
O101 Sm80 2.450 . S
O101 C82 1.242 . S
O102 Sm80 2.681 . S
O102 Sm81 2.386 1_455 S
O102 C89 1.271 . S
O103 Sm80 2.464 . S
O103 C89 1.251 . S
O104 Sm80 2.396 . S
O104 C90 1.252 1_455 S
O105 Sm81 2.408 . S
O105 C90 1.272 . S
O106 Sm81 2.543 . S
O106 C91 1.261 . S
O107 Sm81 2.450 . S
O107 C91 1.242 . S
O108 Sm80 2.386 . S
O108 Sm81 2.681 1_455 S
O108 C98 1.271 1_455 S
O109 Sm81 2.464 . S
O109 C98 1.251 . S
O110 Sm81 2.396 1_455 S
O110 C99 1.252 . S
O111 Sm80 2.408 . S
O111 C99 1.272 . S
H112 C84 0.930 . S
H113 C85 0.929 . S
H114 C87 0.930 . S
H115 C88 0.929 . S
H116 C93 0.930 . S
H117 C94 0.929 . S
H118 C96 0.930 . S
H119 C97 0.929 . S
Sm120 C122 2.846 . S
Sm120 O140 2.543 . S
Sm120 O141 2.450 . S
Sm120 O142 2.680 . S
Sm120 O143 2.464 . S
Sm120 O144 2.396 1_545 S
Sm120 O148 2.386 . S
Sm120 O151 2.408 1_554 S
Sm121 C131 2.846 . S
Sm121 O142 2.387 1_566 S
Sm121 O145 2.408 1_556 S
Sm121 O146 2.543 . S
Sm121 O147 2.450 . S
Sm121 O148 2.681 1_566 S
Sm121 O149 2.464 . S
Sm121 O150 2.396 1_565 S
C122 Sm120 2.846 . S
C122 C123 1.506 . S
C122 O140 1.261 . S
C122 O141 1.242 . S
C123 C122 1.506 . S
C123 C124 1.358 . S
C123 C128 1.382 . S
C124 C123 1.358 . S
C124 C125 1.385 . S
C124 H152 0.930 . S
C125 C124 1.385 . S
C125 C126 1.395 . S
C125 H153 0.929 . S
C126 C125 1.395 . S
C126 C127 1.335 . S
C127 C126 1.335 . S
C127 C128 1.398 . S
C127 H154 0.930 1_655 S
C128 C123 1.382 . S
C128 C127 1.398 . S
C128 H155 0.938 . S
C129 O142 1.271 . S
C129 O143 1.251 . S
C130 O144 1.252 . S
C130 O145 1.272 . S
C131 Sm121 2.846 . S
C131 C132 1.506 . S
C131 O146 1.261 . S
C131 O147 1.242 . S
C132 C131 1.506 . S
C132 C133 1.358 . S
C132 C137 1.382 . S
C133 C132 1.358 . S
C133 C134 1.385 . S
C133 H156 0.930 . S
C134 C133 1.385 . S
C134 C135 1.395 . S
C134 H157 0.929 . S
C135 C134 1.395 . S
C135 C136 1.335 . S
C136 C135 1.335 . S
C136 C137 1.398 . S
C136 H158 0.930 . S
C137 C132 1.382 . S
C137 C136 1.398 . S
C137 H159 0.929 . S
C138 O148 1.271 1_565 S
C138 O149 1.251 1_554 S
C139 O150 1.252 . S
C139 O151 1.272 . S
O140 Sm120 2.543 . S
O140 C122 1.261 . S
O141 Sm120 2.450 . S
O141 C122 1.242 . S
O142 Sm120 2.680 . S
O142 Sm121 2.387 1_544 S
O142 C129 1.271 . S
O143 Sm120 2.464 . S
O143 C129 1.251 . S
O144 Sm120 2.396 1_565 S
O144 C130 1.252 . S
O145 Sm121 2.408 1_554 S
O145 C130 1.272 . S
O146 Sm121 2.543 . S
O146 C131 1.261 . S
O147 Sm121 2.450 . S
O147 C131 1.242 . S
O148 Sm120 2.386 . S
O148 Sm121 2.681 1_544 S
O148 C138 1.271 1_545 S
O149 Sm121 2.464 . S
O149 C138 1.251 1_556 S
O150 Sm121 2.396 1_545 S
O150 C139 1.252 . S
O151 Sm120 2.408 1_556 S
O151 C139 1.272 . S
H152 C124 0.930 . S
H153 C125 0.929 . S
H154 C127 0.930 1_455 S
H155 C128 0.938 . S
H156 C133 0.930 . S
H157 C134 0.929 . S
H158 C136 0.930 . S
H159 C137 0.929 . S
Sm160 C162 2.846 . S
Sm160 O180 2.543 . S
Sm160 O181 2.450 . S
Sm160 O182 2.681 1_655 S
Sm160 O183 2.464 1_655 S
Sm160 O184 2.396 . S
Sm160 O188 2.386 . S
Sm160 O191 2.408 . S
Sm161 C171 2.846 1_655 S
Sm161 O182 2.386 1_655 S
Sm161 O185 2.408 . S
Sm161 O186 2.543 1_655 S
Sm161 O187 2.450 . S
Sm161 O188 2.681 . S
Sm161 O189 2.464 . S
Sm161 O190 2.396 . S
C162 Sm160 2.846 . S
C162 C163 1.506 . S
C162 O180 1.261 . S
C162 O181 1.242 . S
C163 C162 1.506 . S
C163 C164 1.358 . S
C163 C168 1.382 . S
C164 C163 1.358 . S
C164 C165 1.385 . S
C164 H192 0.930 . S
C165 C164 1.385 . S
C165 C166 1.395 . S
C165 H193 0.929 . S
C166 C165 1.395 . S
C166 C167 1.335 . S
C167 C166 1.335 . S
C167 C168 1.398 . S
C167 H194 0.930 1_565 S
C168 C163 1.382 . S
C168 C167 1.398 . S
C168 H195 0.929 . S
C169 O182 1.271 . S
C169 O183 1.251 . S
C170 O184 1.252 . S
C170 O185 1.272 . S
C171 Sm161 2.846 1_455 S
C171 C172 1.506 . S
C171 O186 1.261 . S
C171 O187 1.242 1_455 S
C172 C171 1.506 . S
C172 C173 1.358 . S
C172 C177 1.382 . S
C173 C172 1.358 . S
C173 C174 1.385 . S
C173 H196 0.930 . S
C174 C173 1.385 . S
C174 C175 1.395 . S
C174 H197 0.929 . S
C175 C174 1.395 . S
C175 C176 1.335 . S
C176 C175 1.335 . S
C176 C177 1.398 . S
C176 H198 0.930 . S
C177 C172 1.382 . S
C177 C176 1.398 . S
C177 H199 0.929 1_455 S
C178 O188 1.271 . S
C178 O189 1.251 . S
C179 O190 1.252 . S
C179 O191 1.272 . S
O180 Sm160 2.543 . S
O180 C162 1.261 . S
O181 Sm160 2.450 . S
O181 C162 1.242 . S
O182 Sm160 2.681 1_455 S
O182 Sm161 2.386 1_455 S
O182 C169 1.271 . S
O183 Sm160 2.464 1_455 S
O183 C169 1.251 . S
O184 Sm160 2.396 . S
O184 C170 1.252 . S
O185 Sm161 2.408 . S
O185 C170 1.272 . S
O186 Sm161 2.543 1_455 S
O186 C171 1.261 . S
O187 Sm161 2.450 . S
O187 C171 1.242 1_655 S
O188 Sm160 2.386 . S
O188 Sm161 2.681 . S
O188 C178 1.271 . S
O189 Sm161 2.464 . S
O189 C178 1.251 . S
O190 Sm161 2.396 . S
O190 C179 1.252 . S
O191 Sm160 2.408 . S
O191 C179 1.272 . S
H192 C164 0.930 . S
H193 C165 0.929 . S
H194 C167 0.930 1_545 S
H195 C168 0.929 . S
H196 C173 0.930 . S
H197 C174 0.929 . S
H198 C176 0.930 . S
H199 C177 0.929 1_655 S
Sm200 C202 2.846 . S
Sm200 O220 2.543 . S
Sm200 O221 2.450 . S
Sm200 O222 2.681 . S
Sm200 O223 2.455 1_565 S
Sm200 O224 2.396 . S
Sm200 O228 2.386 . S
Sm200 O231 2.408 . S
Sm201 C211 2.846 1_565 S
Sm201 O222 2.386 . S
Sm201 O225 2.408 . S
Sm201 O226 2.543 1_565 S
Sm201 O227 2.450 . S
Sm201 O228 2.681 . S
Sm201 O229 2.464 . S
Sm201 O230 2.396 . S
C202 Sm200 2.846 . S
C202 C203 1.506 . S
C202 O220 1.261 . S
C202 O221 1.242 . S
C203 C202 1.506 . S
C203 C204 1.358 . S
C203 C208 1.382 1_455 S
C204 C203 1.358 . S
C204 C205 1.385 . S
C204 H232 0.930 . S
C205 C204 1.385 . S
C205 C206 1.395 1_455 S
C205 H233 0.929 . S
C206 C205 1.395 1_655 S
C206 C207 1.335 . S
C207 C206 1.335 . S
C207 C208 1.398 . S
C207 H234 0.930 . S
C208 C203 1.382 1_655 S
C208 C207 1.398 . S
C208 H235 0.929 . S
C209 O222 1.271 1_545 S
C209 O223 1.252 . S
C210 O224 1.252 . S
C210 O225 1.272 . S
C211 Sm201 2.846 1_545 S
C211 C212 1.506 . S
C211 O226 1.261 . S
C211 O227 1.242 1_545 S
C212 C211 1.506 . S
C212 C213 1.358 . S
C212 C217 1.382 . S
C213 C212 1.358 . S
C213 C214 1.385 . S
C213 H236 0.930 . S
C214 C213 1.385 . S
C214 C215 1.395 . S
C214 H237 0.929 . S
C215 C214 1.395 . S
C215 C216 1.335 . S
C216 C215 1.335 . S
C216 C217 1.398 . S
C216 H238 0.930 . S
C217 C212 1.382 . S
C217 C216 1.398 . S
C217 H239 0.929 1_545 S
C218 O228 1.271 . S
C218 O229 1.251 . S
C219 O230 1.252 . S
C219 O231 1.272 . S
O220 Sm200 2.543 . S
O220 C202 1.261 . S
O221 Sm200 2.450 . S
O221 C202 1.242 . S
O222 Sm200 2.681 . S
O222 Sm201 2.386 . S
O222 C209 1.271 1_565 S
O223 Sm200 2.455 1_545 S
O223 C209 1.252 . S
O224 Sm200 2.396 . S
O224 C210 1.252 . S
O225 Sm201 2.408 . S
O225 C210 1.272 . S
O226 Sm201 2.543 1_545 S
O226 C211 1.261 . S
O227 Sm201 2.450 . S
O227 C211 1.242 1_565 S
O228 Sm200 2.386 . S
O228 Sm201 2.681 . S
O228 C218 1.271 . S
O229 Sm201 2.464 . S
O229 C218 1.251 . S
O230 Sm201 2.396 . S
O230 C219 1.252 . S
O231 Sm200 2.408 . S
O231 C219 1.272 . S
H232 C204 0.930 . S
H233 C205 0.929 . S
H234 C207 0.930 . S
H235 C208 0.929 . S
H236 C213 0.930 . S
H237 C214 0.929 . S
H238 C216 0.930 . S
H239 C217 0.929 1_565 S
C240 C241 1.387 . S
C240 H244 0.950 . S
C240 C249 1.390 . S
C241 C240 1.387 . S
C241 C243 1.387 1_554 S
H242 C249 0.950 . S
C243 C241 1.387 1_556 S
C243 C245 1.390 . S
C243 H247 0.950 . S
H244 C240 0.950 . S
C245 C243 1.390 . S
C245 C246 1.387 1_556 S
C245 H248 0.950 . S
C246 C245 1.387 1_554 S
C246 C249 1.387 . S
H247 C243 0.950 . S
H248 C245 0.950 . S
C249 C240 1.390 . S
C249 H242 0.950 . S
C249 C246 1.387 . S
C250 C251 1.387 . S
C250 H254 0.950 . S
C250 C259 1.390 . S
C251 C250 1.387 . S
C251 C253 1.387 . S
H252 C259 0.950 . S
C253 C251 1.387 . S
C253 C255 1.390 . S
C253 H257 0.950 . S
H254 C250 0.950 . S
C255 C253 1.390 . S
C255 C256 1.387 . S
C255 H258 0.950 . S
C256 C255 1.387 . S
C256 C259 1.387 . S
H257 C253 0.950 . S
H258 C255 0.950 . S
C259 C250 1.390 . S
C259 H252 0.950 . S
C259 C256 1.387 . S
C260 C261 1.387 . S
C260 H264 0.950 . S
C260 C269 1.390 . S
C261 C260 1.387 . S
C261 C263 1.387 . S
H262 C269 0.950 . S
C263 C261 1.387 . S
C263 C265 1.390 . S
C263 H267 0.950 . S
H264 C260 0.950 . S
C265 C263 1.390 . S
C265 C266 1.387 . S
C265 H268 0.950 . S
C266 C265 1.387 . S
C266 C269 1.387 . S
H267 C263 0.950 . S
H268 C265 0.950 . S
C269 C260 1.390 . S
C269 H262 0.950 . S
C269 C266 1.387 . S
C270 C271 1.387 . S
C270 H274 0.950 . S
C270 C279 1.390 . S
C271 C270 1.387 . S
C271 C273 1.387 . S
H272 C279 0.950 . S
C273 C271 1.387 . S
C273 C275 1.390 . S
C273 H277 0.950 . S
H274 C270 0.950 . S
C275 C273 1.390 . S
C275 C276 1.387 . S
C275 H278 0.950 . S
C276 C275 1.387 . S
C276 C279 1.387 . S
H277 C273 0.950 . S
H278 C275 0.950 . S
C279 C270 1.390 . S
C279 H272 0.950 . S
C279 C276 1.387 . S
C280 C281 1.387 . S
C280 H284 0.950 . S
C280 C289 1.390 1_455 S
C281 C280 1.387 . S
C281 C283 1.387 . S
H282 C289 0.950 . S
C283 C281 1.387 . S
C283 C285 1.390 1_455 S
C283 H287 0.950 . S
H284 C280 0.950 . S
C285 C283 1.390 1_655 S
C285 C286 1.387 . S
C285 H288 0.950 . S
C286 C285 1.387 . S
C286 C289 1.387 . S
H287 C283 0.950 . S
H288 C285 0.950 . S
C289 C280 1.390 1_655 S
C289 H282 0.950 . S
C289 C286 1.387 . S
C290 C291 1.387 . S
C290 H294 0.950 . S
C290 C299 1.390 1_545 S
C291 C290 1.387 . S
C291 C293 1.387 . S
H292 C299 0.950 . S
C293 C291 1.387 . S
C293 C295 1.392 1_545 S
C293 H297 0.950 . S
H294 C290 0.950 . S
C295 C293 1.392 1_565 S
C295 C296 1.386 . S
C295 H298 0.949 . S
C296 C295 1.386 . S
C296 C299 1.387 . S
H297 C293 0.950 . S
H298 C295 0.949 . S
C299 C290 1.390 1_565 S
C299 H292 0.950 . S
C299 C296 1.387 . S
C300 C301 1.387 . S
C300 H304 0.950 . S
C300 C309 1.390 . S
C301 C300 1.387 . S
C301 C303 1.387 . S
H302 C309 0.950 . S
C303 C301 1.387 . S
C303 C305 1.390 . S
C303 H307 0.950 . S
H304 C300 0.950 . S
C305 C303 1.390 . S
C305 C306 1.387 . S
C305 H308 0.950 . S
C306 C305 1.387 . S
C306 C309 1.387 . S
H307 C303 0.950 . S
H308 C305 0.950 . S
C309 C300 1.390 . S
C309 H302 0.950 . S
C309 C306 1.387 . S
C310 C311 1.387 . S
C310 H314 0.950 . S
C310 C319 1.390 . S
C311 C310 1.387 . S
C311 C313 1.387 . S
H312 C319 0.950 . S
C313 C311 1.387 . S
C313 C315 1.390 . S
C313 H317 0.950 . S
H314 C310 0.950 . S
C315 C313 1.390 . S
C315 C316 1.387 . S
C315 H318 0.950 . S
C316 C315 1.387 . S
C316 C319 1.387 . S
H317 C313 0.950 . S
H318 C315 0.950 . S
C319 C310 1.390 . S
C319 H312 0.950 . S
C319 C316 1.387 . S
C320 C321 1.387 . S
C320 H324 0.950 . S
C320 C329 1.390 . S
C321 C320 1.387 . S
C321 C323 1.387 . S
H322 C329 0.950 . S
C323 C321 1.387 . S
C323 C325 1.390 . S
C323 H327 0.950 . S
H324 C320 0.950 . S
C325 C323 1.390 . S
C325 C326 1.387 . S
C325 H328 0.950 . S
C326 C325 1.387 . S
C326 C329 1.387 . S
H327 C323 0.950 . S
H328 C325 0.950 . S
C329 C320 1.390 . S
C329 H322 0.950 . S
C329 C326 1.387 . S
C330 C331 1.387 . S
C330 H334 0.950 . S
C330 C339 1.390 . S
C331 C330 1.387 . S
C331 C333 1.387 1_554 S
H332 C339 0.950 . S
C333 C331 1.387 1_556 S
C333 C335 1.390 . S
C333 H337 0.950 . S
H334 C330 0.950 . S
C335 C333 1.390 . S
C335 C336 1.387 1_556 S
C335 H338 0.950 . S
C336 C335 1.387 1_554 S
C336 C339 1.387 . S
H337 C333 0.950 . S
H338 C335 0.950 . S
C339 C330 1.390 . S
C339 H332 0.950 . S
C339 C336 1.387 . S
C340 C341 1.387 . S
C340 H344 0.950 . S
C340 C349 1.390 . S
C341 C340 1.387 . S
C341 C343 1.387 . S
H342 C349 0.950 . S
C343 C341 1.387 . S
C343 C345 1.390 . S
C343 H347 0.950 . S
H344 C340 0.950 . S
C345 C343 1.390 . S
C345 C346 1.387 . S
C345 H348 0.950 . S
C346 C345 1.387 . S
C346 C349 1.387 . S
H347 C343 0.950 . S
H348 C345 0.950 . S
C349 C340 1.390 . S
C349 H342 0.950 . S
C349 C346 1.387 . S
C350 C351 1.387 . S
C350 H354 0.950 . S
C350 C359 1.390 . S
C351 C350 1.387 . S
C351 C353 1.387 . S
H352 C359 0.950 . S
C353 C351 1.387 . S
C353 C355 1.390 . S
C353 H357 0.950 . S
H354 C350 0.950 . S
C355 C353 1.390 . S
C355 C356 1.387 . S
C355 H358 0.950 . S
C356 C355 1.387 . S
C356 C359 1.387 . S
H357 C353 0.950 . S
H358 C355 0.950 . S
C359 C350 1.390 . S
C359 H352 0.950 . S
C359 C356 1.387 . S
C360 C361 1.387 . S
C360 H364 0.950 . S
C360 C369 1.390 . S
C361 C360 1.387 . S
C361 C363 1.387 . S
H362 C369 0.950 . S
C363 C361 1.387 . S
C363 C365 1.390 . S
C363 H367 0.950 . S
H364 C360 0.950 . S
C365 C363 1.390 . S
C365 C366 1.387 . S
C365 H368 0.950 . S
C366 C365 1.387 . S
C366 C369 1.387 . S
H367 C363 0.950 . S
H368 C365 0.950 . S
C369 C360 1.390 . S
C369 H362 0.950 . S
C369 C366 1.387 . S
C370 C371 1.387 . S
C370 H374 0.950 . S
C370 C379 1.390 . S
C371 C370 1.387 . S
C371 C373 1.387 . S
H372 C379 0.950 . S
C373 C371 1.387 . S
C373 C375 1.390 . S
C373 H377 0.950 . S
H374 C370 0.950 . S
C375 C373 1.390 . S
C375 C376 1.387 . S
C375 H378 0.950 . S
C376 C375 1.387 . S
C376 C379 1.387 . S
H377 C373 0.950 . S
H378 C375 0.950 . S
C379 C370 1.390 . S
C379 H372 0.950 . S
C379 C376 1.387 . S
C380 C381 1.387 . S
C380 H384 0.950 . S
C380 C389 1.390 . S
C381 C380 1.387 . S
C381 C383 1.387 . S
H382 C389 0.950 . S
C383 C381 1.387 . S
C383 C385 1.390 . S
C383 H387 0.950 . S
H384 C380 0.950 . S
C385 C383 1.390 . S
C385 C386 1.387 . S
C385 H388 0.950 . S
C386 C385 1.387 . S
C386 C389 1.387 . S
H387 C383 0.950 . S
H388 C385 0.950 . S
C389 C380 1.390 . S
C389 H382 0.950 . S
C389 C386 1.387 . S
C390 C391 1.387 . S
C390 H394 0.950 1_565 S
C390 C399 1.390 . S
C391 C390 1.387 . S
C391 C393 1.387 . S
H392 C399 0.950 . S
C393 C391 1.387 . S
C393 C395 1.390 . S
C393 H397 0.950 . S
H394 C390 0.950 1_545 S
C395 C393 1.390 . S
C395 C396 1.387 . S
C395 H398 0.950 . S
C396 C395 1.387 . S
C396 C399 1.387 . S
H397 C393 0.950 . S
H398 C395 0.950 . S
C399 C390 1.390 . S
C399 H392 0.950 . S
C399 C396 1.387 . S
C400 C401 1.387 . S
C400 H404 0.950 1_455 S
C400 C409 1.390 . S
C401 C400 1.387 . S
C401 C403 1.387 . S
H402 C409 0.950 . S
C403 C401 1.387 . S
C403 C405 1.390 . S
C403 H407 0.950 . S
H404 C400 0.950 1_655 S
C405 C403 1.390 . S
C405 C406 1.387 . S
C405 H408 0.950 . S
C406 C405 1.387 . S
C406 C409 1.387 . S
H407 C403 0.950 . S
H408 C405 0.950 . S
C409 C400 1.390 . S
C409 H402 0.950 . S
C409 C406 1.387 . S
C410 C411 1.387 . S
C410 H414 0.950 . S
C410 C419 1.390 . S
C411 C410 1.387 . S
C411 C413 1.387 1_545 S
H412 C419 0.950 . S
C413 C411 1.387 1_565 S
C413 C415 1.390 . S
C413 H417 0.950 . S
H414 C410 0.950 . S
C415 C413 1.390 . S
C415 C416 1.387 1_565 S
C415 H418 0.950 . S
C416 C415 1.387 1_545 S
C416 C419 1.387 . S
H417 C413 0.950 . S
H418 C415 0.950 . S
C419 C410 1.390 . S
C419 H412 0.950 . S
C419 C416 1.387 . S
C241 C129 1.256 1_455 S
C246 C9 1.256 . S
C251 C169 1.256 1_545 S
C256 C49 1.256 . S
C261 C209 1.262 . S
C266 C89 1.262 . S
C271 C15 1.178 . S
C276 C86 1.279 . S
C281 C55 1.180 . S
C286 C126 1.282 . S
C291 C95 1.183 . S
C296 C166 1.280 . S
C301 C135 1.178 . S
C306 C206 1.278 . S
C311 C175 1.184 . S
C316 C6 1.282 . S
C321 C215 1.183 . S
C326 C46 1.285 . S
C331 C18 1.652 . S
C336 C138 1.652 1_545 S
C341 C58 1.651 . S
C346 C178 1.651 . S
C351 C98 1.653 1_455 S
C356 C218 1.653 . S
C361 C10 4.228 . S
C366 C59 4.290 . S
C371 C50 4.227 . S
C376 C99 4.291 . S
C381 C90 4.227 . S
C386 C139 4.291 . S
C391 C130 4.227 . S
C396 C179 4.291 . S
C401 C170 4.227 1_455 S
C406 C219 4.290 . S
C411 C210 4.228 1_545 S
C416 C19 4.291 . S
