# Generated by pormake.
# Topology pyc, (8)-cn, num edge types: 1
# Building blocks:
#     Node 0, Type 0, BuildingBlock: EBIMEJ_clean_sbu_0, # of connection points: 8
#     Node 1, Type 0, BuildingBlock: EBIMEJ_clean_sbu_0, # of connection points: 8
#     Node 2, Type 0, BuildingBlock: EBIMEJ_clean_sbu_0, # of connection points: 8
#     Node 3, Type 0, BuildingBlock: EBIMEJ_clean_sbu_0, # of connection points: 8
#     Node 4, Type 0, BuildingBlock: EBIMEJ_clean_sbu_0, # of connection points: 8
#     Node 5, Type 0, BuildingBlock: EBIMEJ_clean_sbu_0, # of connection points: 8
#     Node 6, Type 0, BuildingBlock: EBIMEJ_clean_sbu_0, # of connection points: 8
#     Node 7, Type 0, BuildingBlock: EBIMEJ_clean_sbu_0, # of connection points: 8
#     Node 8, Type 0, BuildingBlock: EBIMEJ_clean_sbu_0, # of connection points: 8
#     Node 9, Type 0, BuildingBlock: EBIMEJ_clean_sbu_0, # of connection points: 8
#     Node 10, Type 0, BuildingBlock: EBIMEJ_clean_sbu_0, # of connection points: 8
#     Node 11, Type 0, BuildingBlock: EBIMEJ_clean_sbu_0, # of connection points: 8
#     Node 12, Type 0, BuildingBlock: EBIMEJ_clean_sbu_0, # of connection points: 8
#     Node 13, Type 0, BuildingBlock: EBIMEJ_clean_sbu_0, # of connection points: 8
#     Node 14, Type 0, BuildingBlock: EBIMEJ_clean_sbu_0, # of connection points: 8
#     Node 15, Type 0, BuildingBlock: EBIMEJ_clean_sbu_0, # of connection points: 8
#     Node 16, Type 0, BuildingBlock: EBIMEJ_clean_sbu_0, # of connection points: 8
#     Node 17, Type 0, BuildingBlock: EBIMEJ_clean_sbu_0, # of connection points: 8
#     Node 18, Type 0, BuildingBlock: EBIMEJ_clean_sbu_0, # of connection points: 8
#     Node 19, Type 0, BuildingBlock: EBIMEJ_clean_sbu_0, # of connection points: 8
#     Node 20, Type 0, BuildingBlock: EBIMEJ_clean_sbu_0, # of connection points: 8
#     Node 21, Type 0, BuildingBlock: EBIMEJ_clean_sbu_0, # of connection points: 8
#     Node 22, Type 0, BuildingBlock: EBIMEJ_clean_sbu_0, # of connection points: 8
#     Node 23, Type 0, BuildingBlock: EBIMEJ_clean_sbu_0, # of connection points: 8
#     Node 24, Type 0, BuildingBlock: EBIMEJ_clean_sbu_0, # of connection points: 8
#     Node 25, Type 0, BuildingBlock: EBIMEJ_clean_sbu_0, # of connection points: 8
#     Node 26, Type 0, BuildingBlock: EBIMEJ_clean_sbu_0, # of connection points: 8
#     Node 27, Type 0, BuildingBlock: EBIMEJ_clean_sbu_0, # of connection points: 8
#     Node 28, Type 0, BuildingBlock: EBIMEJ_clean_sbu_0, # of connection points: 8
#     Node 29, Type 0, BuildingBlock: EBIMEJ_clean_sbu_0, # of connection points: 8
#     Node 30, Type 0, BuildingBlock: EBIMEJ_clean_sbu_0, # of connection points: 8
#     Node 31, Type 0, BuildingBlock: EBIMEJ_clean_sbu_0, # of connection points: 8
#     Node 32, Type 0, BuildingBlock: EBIMEJ_clean_sbu_0, # of connection points: 8
#     Node 33, Type 0, BuildingBlock: EBIMEJ_clean_sbu_0, # of connection points: 8
#     Node 34, Type 0, BuildingBlock: EBIMEJ_clean_sbu_0, # of connection points: 8
#     Node 35, Type 0, BuildingBlock: EBIMEJ_clean_sbu_0, # of connection points: 8
#     Node 36, Type 0, BuildingBlock: EBIMEJ_clean_sbu_0, # of connection points: 8
#     Node 37, Type 0, BuildingBlock: EBIMEJ_clean_sbu_0, # of connection points: 8
#     Node 38, Type 0, BuildingBlock: EBIMEJ_clean_sbu_0, # of connection points: 8
#     Node 39, Type 0, BuildingBlock: EBIMEJ_clean_sbu_0, # of connection points: 8
#     Node 40, Type 0, BuildingBlock: EBIMEJ_clean_sbu_0, # of connection points: 8
#     Node 41, Type 0, BuildingBlock: EBIMEJ_clean_sbu_0, # of connection points: 8
#     Node 42, Type 0, BuildingBlock: EBIMEJ_clean_sbu_0, # of connection points: 8
#     Node 43, Type 0, BuildingBlock: EBIMEJ_clean_sbu_0, # of connection points: 8
#     Node 44, Type 0, BuildingBlock: EBIMEJ_clean_sbu_0, # of connection points: 8
#     Node 45, Type 0, BuildingBlock: EBIMEJ_clean_sbu_0, # of connection points: 8
#     Node 46, Type 0, BuildingBlock: EBIMEJ_clean_sbu_0, # of connection points: 8
#     Node 47, Type 0, BuildingBlock: EBIMEJ_clean_sbu_0, # of connection points: 8
#     Edge 48, Type (0, 0), None
#     Edge 49, Type (0, 0), None
#     Edge 50, Type (0, 0), None
#     Edge 51, Type (0, 0), None
#     Edge 52, Type (0, 0), None
#     Edge 53, Type (0, 0), None
#     Edge 54, Type (0, 0), None
#     Edge 55, Type (0, 0), None
#     Edge 56, Type (0, 0), None
#     Edge 57, Type (0, 0), None
#     Edge 58, Type (0, 0), None
#     Edge 59, Type (0, 0), None
#     Edge 60, Type (0, 0), None
#     Edge 61, Type (0, 0), None
#     Edge 62, Type (0, 0), None
#     Edge 63, Type (0, 0), None
#     Edge 64, Type (0, 0), None
#     Edge 65, Type (0, 0), None
#     Edge 66, Type (0, 0), None
#     Edge 67, Type (0, 0), None
#     Edge 68, Type (0, 0), None
#     Edge 69, Type (0, 0), None
#     Edge 70, Type (0, 0), None
#     Edge 71, Type (0, 0), None
#     Edge 72, Type (0, 0), None
#     Edge 73, Type (0, 0), None
#     Edge 74, Type (0, 0), None
#     Edge 75, Type (0, 0), None
#     Edge 76, Type (0, 0), None
#     Edge 77, Type (0, 0), None
#     Edge 78, Type (0, 0), None
#     Edge 79, Type (0, 0), None
#     Edge 80, Type (0, 0), None
#     Edge 81, Type (0, 0), None
#     Edge 82, Type (0, 0), None
#     Edge 83, Type (0, 0), None
#     Edge 84, Type (0, 0), None
#     Edge 85, Type (0, 0), None
#     Edge 86, Type (0, 0), None
#     Edge 87, Type (0, 0), None
#     Edge 88, Type (0, 0), None
#     Edge 89, Type (0, 0), None
#     Edge 90, Type (0, 0), None
#     Edge 91, Type (0, 0), None
#     Edge 92, Type (0, 0), None
#     Edge 93, Type (0, 0), None
#     Edge 94, Type (0, 0), None
#     Edge 95, Type (0, 0), None
#     Edge 96, Type (0, 0), None
#     Edge 97, Type (0, 0), None
#     Edge 98, Type (0, 0), None
#     Edge 99, Type (0, 0), None
#     Edge 100, Type (0, 0), None
#     Edge 101, Type (0, 0), None
#     Edge 102, Type (0, 0), None
#     Edge 103, Type (0, 0), None
#     Edge 104, Type (0, 0), None
#     Edge 105, Type (0, 0), None
#     Edge 106, Type (0, 0), None
#     Edge 107, Type (0, 0), None
#     Edge 108, Type (0, 0), None
#     Edge 109, Type (0, 0), None
#     Edge 110, Type (0, 0), None
#     Edge 111, Type (0, 0), None
#     Edge 112, Type (0, 0), None
#     Edge 113, Type (0, 0), None
#     Edge 114, Type (0, 0), None
#     Edge 115, Type (0, 0), None
#     Edge 116, Type (0, 0), None
#     Edge 117, Type (0, 0), None
#     Edge 118, Type (0, 0), None
#     Edge 119, Type (0, 0), None
#     Edge 120, Type (0, 0), None
#     Edge 121, Type (0, 0), None
#     Edge 122, Type (0, 0), None
#     Edge 123, Type (0, 0), None
#     Edge 124, Type (0, 0), None
#     Edge 125, Type (0, 0), None
#     Edge 126, Type (0, 0), None
#     Edge 127, Type (0, 0), None
#     Edge 128, Type (0, 0), None
#     Edge 129, Type (0, 0), None
#     Edge 130, Type (0, 0), None
#     Edge 131, Type (0, 0), None
#     Edge 132, Type (0, 0), None
#     Edge 133, Type (0, 0), None
#     Edge 134, Type (0, 0), None
#     Edge 135, Type (0, 0), None
#     Edge 136, Type (0, 0), None
#     Edge 137, Type (0, 0), None
#     Edge 138, Type (0, 0), None
#     Edge 139, Type (0, 0), None
#     Edge 140, Type (0, 0), None
#     Edge 141, Type (0, 0), None
#     Edge 142, Type (0, 0), None
#     Edge 143, Type (0, 0), None
#     Edge 144, Type (0, 0), None
#     Edge 145, Type (0, 0), None
#     Edge 146, Type (0, 0), None
#     Edge 147, Type (0, 0), None
#     Edge 148, Type (0, 0), None
#     Edge 149, Type (0, 0), None
#     Edge 150, Type (0, 0), None
#     Edge 151, Type (0, 0), None
#     Edge 152, Type (0, 0), None
#     Edge 153, Type (0, 0), None
#     Edge 154, Type (0, 0), None
#     Edge 155, Type (0, 0), None
#     Edge 156, Type (0, 0), None
#     Edge 157, Type (0, 0), None
#     Edge 158, Type (0, 0), None
#     Edge 159, Type (0, 0), None
#     Edge 160, Type (0, 0), None
#     Edge 161, Type (0, 0), None
#     Edge 162, Type (0, 0), None
#     Edge 163, Type (0, 0), None
#     Edge 164, Type (0, 0), None
#     Edge 165, Type (0, 0), None
#     Edge 166, Type (0, 0), None
#     Edge 167, Type (0, 0), None
#     Edge 168, Type (0, 0), None
#     Edge 169, Type (0, 0), None
#     Edge 170, Type (0, 0), None
#     Edge 171, Type (0, 0), None
#     Edge 172, Type (0, 0), None
#     Edge 173, Type (0, 0), None
#     Edge 174, Type (0, 0), None
#     Edge 175, Type (0, 0), None
#     Edge 176, Type (0, 0), None
#     Edge 177, Type (0, 0), None
#     Edge 178, Type (0, 0), None
#     Edge 179, Type (0, 0), None
#     Edge 180, Type (0, 0), None
#     Edge 181, Type (0, 0), None
#     Edge 182, Type (0, 0), None
#     Edge 183, Type (0, 0), None
#     Edge 184, Type (0, 0), None
#     Edge 185, Type (0, 0), None
#     Edge 186, Type (0, 0), None
#     Edge 187, Type (0, 0), None
#     Edge 188, Type (0, 0), None
#     Edge 189, Type (0, 0), None
#     Edge 190, Type (0, 0), None
#     Edge 191, Type (0, 0), None
#     Edge 192, Type (0, 0), None
#     Edge 193, Type (0, 0), None
#     Edge 194, Type (0, 0), None
#     Edge 195, Type (0, 0), None
#     Edge 196, Type (0, 0), None
#     Edge 197, Type (0, 0), None
#     Edge 198, Type (0, 0), None
#     Edge 199, Type (0, 0), None
#     Edge 200, Type (0, 0), None
#     Edge 201, Type (0, 0), None
#     Edge 202, Type (0, 0), None
#     Edge 203, Type (0, 0), None
#     Edge 204, Type (0, 0), None
#     Edge 205, Type (0, 0), None
#     Edge 206, Type (0, 0), None
#     Edge 207, Type (0, 0), None
#     Edge 208, Type (0, 0), None
#     Edge 209, Type (0, 0), None
#     Edge 210, Type (0, 0), None
#     Edge 211, Type (0, 0), None
#     Edge 212, Type (0, 0), None
#     Edge 213, Type (0, 0), None
#     Edge 214, Type (0, 0), None
#     Edge 215, Type (0, 0), None
#     Edge 216, Type (0, 0), None
#     Edge 217, Type (0, 0), None
#     Edge 218, Type (0, 0), None
#     Edge 219, Type (0, 0), None
#     Edge 220, Type (0, 0), None
#     Edge 221, Type (0, 0), None
#     Edge 222, Type (0, 0), None
#     Edge 223, Type (0, 0), None
#     Edge 224, Type (0, 0), None
#     Edge 225, Type (0, 0), None
#     Edge 226, Type (0, 0), None
#     Edge 227, Type (0, 0), None
#     Edge 228, Type (0, 0), None
#     Edge 229, Type (0, 0), None
#     Edge 230, Type (0, 0), None
#     Edge 231, Type (0, 0), None
#     Edge 232, Type (0, 0), None
#     Edge 233, Type (0, 0), None
#     Edge 234, Type (0, 0), None
#     Edge 235, Type (0, 0), None
#     Edge 236, Type (0, 0), None
#     Edge 237, Type (0, 0), None
#     Edge 238, Type (0, 0), None
#     Edge 239, Type (0, 0), None
# Relax obj value: 0.360
# Max RMSD: 0.283
# Mean RMSD: 0.277
data_MOF--net-pyc--node1-EBIMEJ_clean_sbu_0--edge1-none
_symmetry_space_group_name_H-M    P1
_symmetry_Int_Tables_number       1
_symmetry_cell_setting            triclinic
loop_
_symmetry_equiv_pos_as_xyz
'x, y, z'
_cell_length_a     33.975037
_cell_length_b     33.275565
_cell_length_c     33.160403
_cell_angle_alpha  96.140303
_cell_angle_beta   85.26603
_cell_angle_gamma 95.824289
loop_
_atom_site_label
_atom_site_type_symbol
_atom_site_fract_x
_atom_site_fract_y
_atom_site_fract_z
_atom_type_partial_charge
Co0 Co 0.20219 0.23715 0.43464 0.0
Co1 Co 0.11212 0.1994 0.46745 0.0
Co2 Co 0.18472 0.14749 0.44599 0.0
H3 H 0.18129 0.1909 0.43731 0.0
O4 O 0.15968 0.19556 0.42687 0.0
H5 H 0.11684 0.15593 0.47521 0.0
O6 O 0.13825 0.15158 0.48584 0.0
Co7 Co 0.09884 0.10783 0.47366 0.0
O8 O 0.04911 0.12924 0.50166 0.0
O9 O 0.06422 0.19674 0.5086 0.0
O10 O 0.13635 0.08406 0.42892 0.0
O11 O 0.19191 0.09095 0.45784 0.0
O12 O 0.16204 0.27883 0.43744 0.0
O13 O 0.20497 0.27378 0.38962 0.0
O14 O 0.06679 0.10462 0.42507 0.0
O15 O 0.07512 0.17142 0.42335 0.0
C16 C 0.2567 0.18258 0.3948 0.0
C17 C 0.17128 0.26108 0.51592 0.0
C18 C 0.11068 0.07319 0.53273 0.0
C19 C 0.24128 0.20106 0.49831 0.0
C20 C 0.04135 0.16486 0.51644 0.0
C21 C 0.16393 0.06726 0.44221 0.0
C22 C 0.17907 0.29511 0.40765 0.0
C23 C 0.05842 0.13615 0.41049 0.0
O24 O 0.23888 0.21324 0.39036 0.0
O25 O 0.23805 0.15207 0.41169 0.0
O26 O 0.14246 0.23275 0.51317 0.0
O27 O 0.19621 0.26905 0.48694 0.0
O28 O 0.0825 0.06395 0.51045 0.0
O29 O 0.13263 0.10335 0.52233 0.0
O30 O 0.24262 0.23029 0.47597 0.0
O31 O 0.21618 0.1701 0.49333 0.0
Co32 Co 0.86228 0.46752 0.73112 0.0
Co33 Co 0.89114 0.38471 0.74161 0.0
Co34 Co 0.94748 0.45363 0.70257 0.0
H35 H 0.9027 0.44851 0.71054 0.0
O36 O 0.89006 0.42562 0.70177 0.0
H37 H 0.93618 0.38745 0.73505 0.0
O38 O 0.94922 0.41101 0.74074 0.0
Co39 Co 0.97712 0.36395 0.7289 0.0
O40 O 0.94921 0.31355 0.75373 0.0
O41 O 0.89479 0.34152 0.78095 0.0
O42 O 1.00128 0.39693 0.68188 0.0
O43 O 1.00706 0.46317 0.69736 0.0
O44 O 0.82023 0.50512 0.75209 0.0
O45 O 0.81623 0.46581 0.69777 0.0
O46 O 0.96021 0.33708 0.67414 0.0
O47 O 0.89542 0.33756 0.69271 0.0
C48 C 0.90179 0.51244 0.66461 0.0
C49 C 0.81716 0.41126 0.78107 0.0
C50 C 1.00514 0.37098 0.79766 0.0
C51 C 0.92297 0.48691 0.78437 0.0
C52 C 0.91721 0.31208 0.77721 0.0
C53 C 1.02377 0.43024 0.68693 0.0
C54 C 0.80019 0.49112 0.72275 0.0
C55 C 0.92445 0.32394 0.66777 0.0
O56 O 0.87276 0.48733 0.67444 0.0
O57 O 0.937 0.50407 0.67227 0.0
O58 O 0.83036 0.38079 0.75722 0.0
O59 O 0.83645 0.44606 0.78175 0.0
O60 O 1.00995 0.34273 0.76996 0.0
O61 O 0.9852 0.39665 0.78619 0.0
O62 O 0.89342 0.46127 0.77885 0.0
O63 O 0.94639 0.49341 0.75347 0.0
Co64 Co 0.7022 0.23714 0.93466 0.0
Co65 Co 0.61213 0.1994 0.96745 0.0
Co66 Co 0.68472 0.14749 0.94601 0.0
H67 H 0.6813 0.1909 0.93733 0.0
O68 O 0.65969 0.19556 0.92689 0.0
H69 H 0.61685 0.15593 0.97522 0.0
O70 O 0.63825 0.15158 0.98585 0.0
Co71 Co 0.59885 0.10784 0.97365 0.0
O72 O 0.54911 0.12924 1.00165 0.0
O73 O 0.56422 0.19674 1.0086 0.0
O74 O 0.63637 0.08407 0.92892 0.0
O75 O 0.69191 0.09095 0.95786 0.0
O76 O 0.66206 0.27883 0.93744 0.0
O77 O 0.705 0.27378 0.88964 0.0
O78 O 0.56681 0.10461 0.92505 0.0
O79 O 0.57513 0.17141 0.92336 0.0
C80 C 0.75671 0.18258 0.89482 0.0
C81 C 0.67128 0.26108 1.01593 0.0
C82 C 0.61068 0.07319 1.03272 0.0
C83 C 0.74129 0.20106 0.99833 0.0
C84 C 0.54135 0.16486 1.01644 0.0
C85 C 0.66394 0.06726 0.94221 0.0
C86 C 0.6791 0.29511 0.90766 0.0
C87 C 0.55843 0.13615 0.91049 0.0
O88 O 0.73888 0.21323 0.89037 0.0
O89 O 0.73806 0.15207 0.91171 0.0
O90 O 0.64247 0.23274 1.01318 0.0
O91 O 0.69622 0.26904 0.98696 0.0
O92 O 0.5825 0.06395 1.01043 0.0
O93 O 0.63262 0.10335 1.02232 0.0
O94 O 0.74263 0.23029 0.97599 0.0
O95 O 0.71619 0.1701 0.99335 0.0
Co96 Co 0.86228 0.96753 0.23112 0.0
Co97 Co 0.89114 0.88472 0.2416 0.0
Co98 Co 0.94747 0.95363 0.20257 0.0
H99 H 0.9027 0.94851 0.21054 0.0
O100 O 0.89006 0.92562 0.20177 0.0
H101 H 0.93618 0.88745 0.23505 0.0
O102 O 0.94922 0.91101 0.24074 0.0
Co103 Co 0.97712 0.86395 0.22889 0.0
O104 O 0.94921 0.81355 0.25374 0.0
O105 O 0.89479 0.84152 0.28095 0.0
O106 O 1.00128 0.89694 0.18188 0.0
O107 O 1.00706 0.96317 0.19735 0.0
O108 O 0.82023 1.00512 0.25209 0.0
O109 O 0.81624 0.96583 0.19775 0.0
O110 O 0.9602 0.83708 0.17414 0.0
O111 O 0.89542 0.83756 0.19272 0.0
C112 C 0.90179 1.01244 0.16461 0.0
C113 C 0.81716 0.91126 0.28107 0.0
C114 C 1.00515 0.87099 0.29765 0.0
C115 C 0.92297 0.98691 0.28436 0.0
C116 C 0.91721 0.81208 0.27721 0.0
C117 C 1.02376 0.93024 0.18693 0.0
C118 C 0.80019 0.99113 0.22275 0.0
C119 C 0.92444 0.82394 0.16777 0.0
O120 O 0.87276 0.98733 0.17443 0.0
O121 O 0.937 1.00407 0.17227 0.0
O122 O 0.83036 0.88079 0.25722 0.0
O123 O 0.83644 0.94606 0.28175 0.0
O124 O 1.00997 0.84274 0.26995 0.0
O125 O 0.9852 0.89665 0.28619 0.0
O126 O 0.89342 0.96127 0.27885 0.0
O127 O 0.94639 0.99341 0.25347 0.0
Co128 Co 0.07118 0.21105 0.83915 0.0
Co129 Co 0.10083 0.12136 0.86549 0.0
Co130 Co 0.15716 0.19028 0.82644 0.0
H131 H 0.11212 0.18755 0.833 0.0
O132 O 0.09908 0.16398 0.82732 0.0
H133 H 0.1456 0.12649 0.85751 0.0
O134 O 0.15824 0.14937 0.86628 0.0
Co135 Co 0.18602 0.10747 0.83692 0.0
O136 O 0.17555 0.08766 0.8936 0.0
O137 O 0.11131 0.07092 0.89579 0.0
O138 O 0.21184 0.12893 0.78629 0.0
O139 O 0.21794 0.1942 0.81082 0.0
O140 O 0.03833 0.23226 0.7981 0.0
O141 O 0.0631 0.17834 0.78186 0.0
O142 O 0.15487 0.11373 0.7892 0.0
O143 O 0.1019 0.08158 0.81458 0.0
C144 C 0.13109 0.26292 0.79084 0.0
C145 C 0.02455 0.14476 0.88111 0.0
C146 C 0.24811 0.08387 0.84529 0.0
C147 C 0.12386 0.25107 0.90026 0.0
C148 C 0.14651 0.06255 0.90344 0.0
C149 C 0.23113 0.16373 0.78697 0.0
C150 C 0.04315 0.20401 0.77039 0.0
C151 C 0.12532 0.08808 0.78369 0.0
O152 O 0.09909 0.26145 0.81431 0.0
O153 O 0.15351 0.23348 0.78709 0.0
O154 O 0.04124 0.11182 0.87071 0.0
O155 O 0.04705 0.17806 0.88617 0.0
O156 O 0.22807 0.06988 0.81596 0.0
O157 O 0.23206 0.10919 0.87028 0.0
O158 O 0.0881 0.23795 0.89389 0.0
O159 O 0.15289 0.23743 0.87533 0.0
Co160 Co 0.94947 0.46716 0.09439 0.0
Co161 Co 0.86358 0.42749 0.12205 0.0
Co162 Co 0.93618 0.3756 0.10059 0.0
H163 H 0.93146 0.41906 0.09283 0.0
O164 O 0.91006 0.42342 0.08221 0.0
H165 H 0.86702 0.38408 0.13072 0.0
O166 O 0.88863 0.37942 0.14116 0.0
Co167 Co 0.84613 0.33783 0.13339 0.0
O168 O 0.80941 0.36172 0.17765 0.0
O169 O 0.81025 0.42291 0.15635 0.0
O170 O 0.85214 0.30591 0.0811 0.0
O171 O 0.90584 0.34227 0.05486 0.0
O172 O 0.9658 0.51104 0.05761 0.0
O173 O 0.91568 0.47164 0.04573 0.0
O174 O 0.8057 0.34468 0.09205 0.0
O175 O 0.83212 0.40488 0.07471 0.0
C176 C 1.00696 0.41014 0.0516 0.0
C177 C 0.88438 0.50772 0.12583 0.0
C178 C 0.86923 0.27987 0.1604 0.0
C179 C 0.98989 0.43883 0.15755 0.0
C180 C 0.7916 0.39239 0.17323 0.0
C181 C 0.87706 0.31389 0.05212 0.0
C182 C 0.93762 0.5018 0.03532 0.0
C183 C 0.80703 0.37391 0.06972 0.0
O184 O 0.9992 0.44576 0.06639 0.0
O185 O 0.98408 0.37826 0.05944 0.0
O186 O 0.85639 0.48404 0.11021 0.0
O187 O 0.91195 0.49091 0.13913 0.0
O188 O 0.88626 0.29614 0.13061 0.0
O189 O 0.84333 0.3012 0.17842 0.0
O190 O 0.98153 0.47036 0.14297 0.0
O191 O 0.97318 0.40357 0.14469 0.0
Co192 Co 0.57118 0.21105 0.33914 0.0
Co193 Co 0.60082 0.12136 0.36548 0.0
Co194 Co 0.65716 0.19028 0.32644 0.0
H195 H 0.61212 0.18755 0.33299 0.0
O196 O 0.59908 0.16399 0.32731 0.0
H197 H 0.64559 0.12649 0.3575 0.0
O198 O 0.65824 0.14937 0.36627 0.0
Co199 Co 0.68601 0.10747 0.33691 0.0
O200 O 0.67555 0.08765 0.39359 0.0
O201 O 0.6113 0.07092 0.39577 0.0
O202 O 0.71184 0.12895 0.28628 0.0
O203 O 0.71794 0.19421 0.31083 0.0
O204 O 0.53835 0.23227 0.29808 0.0
O205 O 0.5631 0.17834 0.28185 0.0
O206 O 0.65487 0.11375 0.28918 0.0
O207 O 0.6019 0.08159 0.31456 0.0
C208 C 0.63109 0.26292 0.29084 0.0
C209 C 0.52454 0.14476 0.3811 0.0
C210 C 0.74809 0.08387 0.3453 0.0
C211 C 0.62386 0.25106 0.40026 0.0
C212 C 0.64651 0.06255 0.40342 0.0
C213 C 0.73114 0.16374 0.28698 0.0
C214 C 0.54316 0.20402 0.27037 0.0
C215 C 0.62532 0.08811 0.28367 0.0
O216 O 0.59909 0.26145 0.31431 0.0
O217 O 0.65351 0.23348 0.2871 0.0
O218 O 0.54123 0.11182 0.37069 0.0
O219 O 0.54704 0.17806 0.38616 0.0
O220 O 0.72803 0.06983 0.31599 0.0
O221 O 0.73207 0.10925 0.37024 0.0
O222 O 0.58809 0.23795 0.39389 0.0
O223 O 0.65288 0.23743 0.37534 0.0
Co224 Co 0.94947 0.96716 0.59439 0.0
Co225 Co 0.86359 0.9275 0.62205 0.0
Co226 Co 0.93618 0.87559 0.60059 0.0
H227 H 0.93146 0.91906 0.59283 0.0
O228 O 0.91006 0.92342 0.58221 0.0
H229 H 0.86702 0.88408 0.63073 0.0
O230 O 0.88863 0.87942 0.64116 0.0
Co231 Co 0.84612 0.83783 0.63339 0.0
O232 O 0.80942 0.86173 0.67766 0.0
O233 O 0.81026 0.92291 0.65636 0.0
O234 O 0.85213 0.80591 0.58111 0.0
O235 O 0.90583 0.84226 0.55486 0.0
O236 O 0.9658 1.01104 0.5576 0.0
O237 O 0.91568 0.97164 0.54572 0.0
O238 O 0.8057 0.84469 0.59206 0.0
O239 O 0.83212 0.90489 0.57472 0.0
C240 C 1.00696 0.91014 0.5516 0.0
C241 C 0.88439 1.00773 0.62583 0.0
C242 C 0.86923 0.77987 0.6604 0.0
C243 C 0.98989 0.93882 0.65754 0.0
C244 C 0.7916 0.8924 0.67323 0.0
C245 C 0.87705 0.81389 0.55212 0.0
C246 C 0.93762 1.0018 0.53532 0.0
C247 C 0.80703 0.87392 0.56973 0.0
O248 O 0.9992 0.94576 0.5664 0.0
O249 O 0.98408 0.87825 0.55944 0.0
O250 O 0.85639 0.98405 0.61021 0.0
O251 O 0.91196 0.99092 0.63912 0.0
O252 O 0.88626 0.79614 0.63061 0.0
O253 O 0.84332 0.8012 0.67842 0.0
O254 O 0.98154 0.97036 0.64296 0.0
O255 O 0.97318 0.90356 0.64469 0.0
Co256 Co 0.46968 0.24456 0.18856 0.0
Co257 Co 0.44494 0.20558 0.10215 0.0
Co258 Co 0.49147 0.15941 0.15574 0.0
H259 H 0.48286 0.20366 0.16081 0.0
O260 O 0.48768 0.21657 0.13945 0.0
H261 H 0.44564 0.15744 0.10087 0.0
O262 O 0.44384 0.15055 0.12532 0.0
Co263 Co 0.43972 0.1065 0.08483 0.0
O264 O 0.39109 0.12827 0.06854 0.0
O265 O 0.41053 0.18934 0.05322 0.0
O266 O 0.49227 0.08347 0.08793 0.0
O267 O 0.50138 0.10012 0.15421 0.0
O268 O 0.51356 0.28243 0.21325 0.0
O269 O 0.51023 0.27926 0.15107 0.0
O270 O 0.48814 0.13105 0.05198 0.0
O271 O 0.49203 0.19988 0.06079 0.0
C272 C 0.52332 0.20156 0.23199 0.0
C273 C 0.41978 0.28071 0.14611 0.0
C274 C 0.39637 0.0489 0.11388 0.0
C275 C 0.42506 0.17416 0.21938 0.0
C276 C 0.39665 0.15267 0.0416 0.0
C277 C 0.50732 0.07742 0.1206 0.0
C278 C 0.5291 0.29473 0.18062 0.0
C279 C 0.50516 0.16621 0.04484 0.0
O280 O 0.49728 0.22686 0.23351 0.0
O281 O 0.53097 0.1766 0.19982 0.0
O282 O 0.43725 0.26835 0.11048 0.0
O283 O 0.4161 0.25506 0.17197 0.0
O284 O 0.39221 0.06081 0.07989 0.0
O285 O 0.42417 0.06991 0.13048 0.0
O286 O 0.42237 0.21026 0.21097 0.0
O287 O 0.45186 0.15303 0.20207 0.0
Co288 Co 0.93657 0.69922 0.32627 0.0
Co289 Co 0.8754 0.75087 0.38132 0.0
Co290 Co 0.91876 0.69033 0.42091 0.0
H291 H 0.91808 0.69617 0.37457 0.0
O292 O 0.89446 0.69704 0.36682 0.0
H293 H 0.87102 0.73984 0.42504 0.0
O294 O 0.89292 0.73986 0.43656 0.0
Co295 Co 0.84437 0.73026 0.46722 0.0
O296 O 0.81208 0.77446 0.45137 0.0
O297 O 0.85122 0.80227 0.40177 0.0
O298 O 0.85059 0.67581 0.49019 0.0
O299 O 0.91688 0.67707 0.48162 0.0
O300 O 0.94114 0.65477 0.27979 0.0
O301 O 0.8962 0.69238 0.28328 0.0
O302 O 0.81079 0.68691 0.43487 0.0
O303 O 0.81914 0.72071 0.37977 0.0
C304 C 0.98309 0.64884 0.37233 0.0
C305 C 0.90963 0.77693 0.30333 0.0
C306 C 0.86923 0.78874 0.51476 0.0
C307 C 0.98411 0.75041 0.38717 0.0
C308 C 0.82119 0.80282 0.42771 0.0
C309 C 0.88305 0.66479 0.50107 0.0
C310 C 0.9144 0.66658 0.26112 0.0
C311 C 0.79972 0.69327 0.40053 0.0
O312 O 0.98097 0.66985 0.34271 0.0
O313 O 0.95473 0.64579 0.40075 0.0
O314 O 0.87632 0.76871 0.32407 0.0
O315 O 0.93824 0.75474 0.30409 0.0
O316 O 0.83465 0.78269 0.50339 0.0
O317 O 0.88901 0.75972 0.5015 0.0
O318 O 0.9723 0.74271 0.35177 0.0
O319 O 0.96889 0.73137 0.41779 0.0
Co320 Co 0.33508 0.11116 0.71992 0.0
Co321 Co 0.29207 0.17613 0.67228 0.0
Co322 Co 0.34985 0.12005 0.62188 0.0
H323 H 0.34044 0.12393 0.67063 0.0
O324 O 0.34029 0.1493 0.67988 0.0
H325 H 0.30603 0.17655 0.62652 0.0
O326 O 0.30602 0.15293 0.61326 0.0
Co327 Co 0.31821 0.20117 0.58463 0.0
O328 O 0.28301 0.24328 0.60998 0.0
O329 O 0.2486 0.20954 0.65893 0.0
O330 O 0.37488 0.18626 0.5702 0.0
O331 O 0.366 0.1197 0.55874 0.0
O332 O 0.38925 0.11372 0.74779 0.0
O333 O 0.33863 0.12992 0.78108 0.0
O334 O 0.3646 0.21961 0.6189 0.0
O335 O 0.32783 0.22577 0.67672 0.0
C336 C 0.38904 0.05576 0.66595 0.0
C337 C 0.26839 0.16379 0.75885 0.0
C338 C 0.26988 0.20163 0.53022 0.0
C339 C 0.27641 0.07483 0.65365 0.0
C340 C 0.25374 0.2393 0.6364 0.0
C341 C 0.37984 0.15488 0.54557 0.0
C342 C 0.37504 0.12722 0.78215 0.0
C343 C 0.35832 0.23688 0.6547 0.0
O344 O 0.36943 0.06579 0.69954 0.0
O345 O 0.38714 0.07532 0.63379 0.0
O346 O 0.27486 0.18919 0.73211 0.0
O347 O 0.2858 0.13069 0.75487 0.0
O348 O 0.29088 0.23212 0.54452 0.0
O349 O 0.27658 0.17093 0.54642 0.0
O350 O 0.28601 0.08761 0.68991 0.0
O351 O 0.30114 0.07864 0.6223 0.0
Co352 Co 0.97455 0.5908 0.95822 0.0
Co353 Co 0.94299 0.59701 0.87175 0.0
Co354 Co 0.89064 0.55506 0.93862 0.0
H355 H 0.935 0.56903 0.93633 0.0
O356 O 0.94848 0.56153 0.91394 0.0
H357 H 0.89715 0.58514 0.87587 0.0
O358 O 0.88545 0.59372 0.89905 0.0
Co359 Co 0.85378 0.56545 0.8585 0.0
O360 O 0.87174 0.62412 0.85229 0.0
O361 O 0.93113 0.62664 0.82375 0.0
O362 O 0.83525 0.51365 0.88289 0.0
O363 O 0.83033 0.53892 0.94682 0.0
O364 O 1.01138 0.55559 0.98234 0.0
O365 O 1.00063 0.5441 0.92152 0.0
O366 O 0.88003 0.52106 0.82845 0.0
O367 O 0.9438 0.5462 0.83024 0.0
C368 C 0.93029 0.52779 1.0048 0.0
C369 C 1.0167 0.63416 0.89779 0.0
C370 C 0.78741 0.57587 0.8491 0.0
C371 C 0.90944 0.63235 1.00037 0.0
C372 C 0.89449 0.63155 0.82141 0.0
C373 C 0.81461 0.51716 0.91658 0.0
C374 C 1.01764 0.53303 0.95 0.0
C375 C 0.91634 0.51936 0.81732 0.0
O376 O 0.95351 0.56042 1.00523 0.0
O377 O 0.90345 0.51824 0.97924 0.0
O378 O 1.00355 0.61124 0.86658 0.0
O379 O 0.9918 0.64027 0.92805 0.0
O380 O 0.80562 0.55039 0.82606 0.0
O381 O 0.80701 0.5956 0.87614 0.0
O382 O 0.94607 0.63723 0.98832 0.0
O383 O 0.8872 0.60138 0.98546 0.0
Co384 Co 0.19452 0.50952 0.20958 0.0
Co385 Co 0.15765 0.51994 0.12944 0.0
Co386 Co 0.1053 0.478 0.19632 0.0
H387 H 0.15114 0.48985 0.19219 0.0
O388 O 0.16284 0.48128 0.16901 0.0
H389 H 0.1133 0.50596 0.13173 0.0
O390 O 0.09981 0.51347 0.15412 0.0
Co391 Co 0.07375 0.48419 0.10984 0.0
O392 O 0.09479 0.51456 0.06283 0.0
O393 O 0.14485 0.55675 0.08881 0.0
O394 O 0.05648 0.43471 0.14001 0.0
O395 O 0.04474 0.46378 0.20148 0.0
O396 O 0.24268 0.52459 0.24199 0.0
O397 O 0.24126 0.47932 0.19198 0.0
O398 O 0.10223 0.43776 0.07974 0.0
O399 O 0.1611 0.47361 0.0826 0.0
C400 C 0.15379 0.44343 0.24665 0.0
C401 C 0.2337 0.5578 0.1515 0.0
C402 C 0.03066 0.54196 0.11806 0.0
C403 C 0.13196 0.55561 0.25078 0.0
C404 C 0.11802 0.54719 0.06326 0.0
C405 C 0.03161 0.44082 0.17028 0.0
C406 C 0.26087 0.49907 0.21899 0.0
C407 C 0.13886 0.44263 0.06769 0.0
O408 O 0.17653 0.45085 0.21577 0.0
O409 O 0.11715 0.44837 0.24432 0.0
O410 O 0.21797 0.53607 0.12124 0.0
O411 O 0.21306 0.56131 0.18518 0.0
O412 O 0.03693 0.5194 0.08572 0.0
O413 O 0.04766 0.53089 0.14654 0.0
O414 O 0.16827 0.55388 0.23969 0.0
O415 O 0.1045 0.52881 0.23781 0.0
Co416 Co 0.70394 0.34473 0.10083 0.0
Co417 Co 0.62954 0.38467 0.14713 0.0
Co418 Co 0.6729 0.32413 0.18673 0.0
H419 H 0.67727 0.33515 0.14301 0.0
O420 O 0.65538 0.33514 0.13149 0.0
H421 H 0.63022 0.37883 0.19347 0.0
O422 O 0.65383 0.37796 0.20123 0.0
Co423 Co 0.61172 0.37578 0.24177 0.0
O424 O 0.56733 0.40515 0.22532 0.0
O425 O 0.59357 0.42921 0.16729 0.0
O426 O 0.61006 0.32026 0.26396 0.0
O427 O 0.67198 0.30629 0.24398 0.0
O428 O 0.71367 0.2923 0.06467 0.0
O429 O 0.6593 0.31526 0.06655 0.0
O430 O 0.57603 0.33227 0.21626 0.0
O431 O 0.57941 0.34363 0.15025 0.0
C432 C 0.72713 0.27218 0.14036 0.0
C433 C 0.66527 0.41019 0.06698 0.0
C434 C 0.63389 0.40842 0.30693 0.0
C435 C 0.74853 0.38175 0.16754 0.0
C436 C 0.56521 0.42616 0.19571 0.0
C437 C 0.63867 0.29807 0.26472 0.0
C438 C 0.6791 0.28625 0.0533 0.0
C439 C 0.56421 0.32458 0.18086 0.0
O440 O 0.73623 0.30054 0.1167 0.0
O441 O 0.69708 0.27273 0.16629 0.0
O442 O 0.63143 0.39793 0.08642 0.0
O443 O 0.69773 0.39919 0.0779 0.0
O444 O 0.60714 0.42022 0.28827 0.0
O445 O 0.6521 0.38262 0.28477 0.0
O446 O 0.73747 0.3881 0.13319 0.0
O447 O 0.72915 0.35429 0.18829 0.0
Co448 Co 0.73009 0.87381 0.48342 0.0
Co449 Co 0.69844 0.95494 0.44617 0.0
Co450 Co 0.75623 0.89886 0.39577 0.0
H451 H 0.74227 0.89843 0.44153 0.0
O452 O 0.74228 0.92205 0.4548 0.0
H453 H 0.70786 0.95106 0.39742 0.0
O454 O 0.70801 0.92569 0.38817 0.0
Co455 Co 0.71322 0.96384 0.34814 0.0
O456 O 0.67887 1.00921 0.36851 0.0
O457 O 0.66116 0.99967 0.43427 0.0
O458 O 0.7625 0.9443 0.31318 0.0
O459 O 0.77343 0.88581 0.33594 0.0
O460 O 0.75745 0.84286 0.5235 0.0
O461 O 0.77171 0.90406 0.52163 0.0
O462 O 0.7623 0.98738 0.37815 0.0
O463 O 0.74716 0.99635 0.44576 0.0
C464 C 0.79456 0.83569 0.43164 0.0
C465 C 0.66849 0.92009 0.52247 0.0
C466 C 0.67326 0.94778 0.2859 0.0
C467 C 0.68997 0.8381 0.41334 0.0
C468 C 0.65926 1.01922 0.4021 0.0
C469 C 0.7799 0.91119 0.30919 0.0
C470 C 0.77843 0.87336 0.53782 0.0
C471 C 0.77189 1.00016 0.41441 0.0
O472 O 0.76529 0.8317 0.45806 0.0
O473 O 0.79969 0.86545 0.40911 0.0
O474 O 0.68229 0.95529 0.50931 0.0
O475 O 0.67343 0.88873 0.49783 0.0
O476 O 0.65906 0.96129 0.32026 0.0
O477 O 0.70967 0.94507 0.28698 0.0
O478 O 0.6837 0.85537 0.44915 0.0
O479 O 0.72046 0.84922 0.39132 0.0
Co480 Co 0.19451 1.00952 0.70958 0.0
Co481 Co 0.15766 1.01993 0.62944 0.0
Co482 Co 0.1053 0.97798 0.69631 0.0
H483 H 0.15115 0.98984 0.69219 0.0
O484 O 0.16284 0.98127 0.66901 0.0
H485 H 0.1133 1.00596 0.63173 0.0
O486 O 0.09981 1.01347 0.65412 0.0
Co487 Co 0.07375 0.98419 0.60984 0.0
O488 O 0.09479 1.01457 0.56283 0.0
O489 O 0.14485 0.05675 0.58882 0.0
O490 O 0.05648 0.9347 0.64 0.0
O491 O 0.04474 0.96376 0.70148 0.0
O492 O 0.24268 1.02459 0.742 0.0
O493 O 0.24125 0.97931 0.69199 0.0
O494 O 0.10223 0.93776 0.57974 0.0
O495 O 0.1611 0.97362 0.5826 0.0
C496 C 0.15379 0.94343 0.74665 0.0
C497 C 0.23371 0.05779 0.6515 0.0
C498 C 0.03067 0.04196 0.61805 0.0
C499 C 0.13195 0.05562 0.75075 0.0
C500 C 0.11802 0.0472 0.56326 0.0
C501 C 0.03162 0.94081 0.67027 0.0
C502 C 0.26086 0.99907 0.71899 0.0
C503 C 0.13886 0.94264 0.56769 0.0
O504 O 0.17654 0.95085 0.71577 0.0
O505 O 0.11716 0.94835 0.74431 0.0
O506 O 0.21797 1.03607 0.62124 0.0
O507 O 0.21306 0.06131 0.68518 0.0
O508 O 0.03693 1.0194 0.58571 0.0
O509 O 0.04767 1.03089 0.64653 0.0
O510 O 0.16826 0.05391 0.73963 0.0
O511 O 0.1045 1.02879 0.73781 0.0
Co512 Co 0.60858 0.4685 0.48322 0.0
Co513 Co 0.55683 0.41559 0.4123 0.0
Co514 Co 0.60336 0.36942 0.46589 0.0
H515 H 0.60265 0.41756 0.46718 0.0
O516 O 0.60445 0.42445 0.44273 0.0
H517 H 0.56545 0.37134 0.40722 0.0
O518 O 0.56063 0.35843 0.42858 0.0
Co519 Co 0.57863 0.33043 0.37948 0.0
O520 O 0.55105 0.34816 0.33451 0.0
O521 O 0.51735 0.39841 0.36821 0.0
O522 O 0.63221 0.31991 0.39605 0.0
O523 O 0.61104 0.30665 0.45757 0.0
O524 O 0.65608 0.51419 0.48815 0.0
O525 O 0.62412 0.50509 0.43757 0.0
O526 O 0.62596 0.36474 0.35708 0.0
O527 O 0.59646 0.42199 0.36599 0.0
C528 C 0.65164 0.42232 0.52645 0.0
C529 C 0.54098 0.49758 0.44745 0.0
C530 C 0.51921 0.28026 0.3874 0.0
C531 C 0.54314 0.40877 0.5232 0.0
C532 C 0.52501 0.37346 0.33603 0.0
C533 C 0.62855 0.2943 0.42195 0.0
C534 C 0.65192 0.5261 0.45417 0.0
C535 C 0.62329 0.40086 0.34873 0.0
O536 O 0.6572 0.44672 0.49952 0.0
O537 O 0.63776 0.38566 0.51483 0.0
O538 O 0.54691 0.47488 0.41383 0.0
O539 O 0.55602 0.49153 0.48012 0.0
O540 O 0.53475 0.29257 0.35478 0.0
O541 O 0.53808 0.29573 0.41696 0.0
O542 O 0.56016 0.44394 0.51606 0.0
O543 O 0.55627 0.37511 0.50724 0.0
Co544 Co 0.20394 0.84475 0.10083 0.0
Co545 Co 0.12953 0.88468 0.14713 0.0
Co546 Co 0.17291 0.82414 0.18672 0.0
H547 H 0.17728 0.83517 0.14301 0.0
O548 O 0.15538 0.83515 0.13149 0.0
H549 H 0.13022 0.87884 0.19347 0.0
O550 O 0.15383 0.87797 0.20123 0.0
Co551 Co 0.11172 0.87578 0.24177 0.0
O552 O 0.06733 0.90516 0.22534 0.0
O553 O 0.09357 0.92921 0.16728 0.0
O554 O 0.11006 0.82026 0.26395 0.0
O555 O 0.17199 0.8063 0.24398 0.0
O556 O 0.21358 0.79228 0.06468 0.0
O557 O 0.15929 0.81531 0.06655 0.0
O558 O 0.076 0.8323 0.21627 0.0
O559 O 0.07941 0.84363 0.15025 0.0
C560 C 0.22712 0.77219 0.14034 0.0
C561 C 0.16527 0.91021 0.06697 0.0
C562 C 0.13388 0.90842 0.30693 0.0
C563 C 0.24858 0.88173 0.16752 0.0
C564 C 0.06523 0.92619 0.19573 0.0
C565 C 0.13868 0.79807 0.26472 0.0
C566 C 0.179 0.78622 0.05334 0.0
C567 C 0.06418 0.82459 0.18088 0.0
O568 O 0.23623 0.80055 0.11668 0.0
O569 O 0.19709 0.77274 0.16628 0.0
O570 O 0.13143 0.89794 0.08641 0.0
O571 O 0.19773 0.89922 0.0779 0.0
O572 O 0.10714 0.92023 0.28827 0.0
O573 O 0.15209 0.88262 0.28478 0.0
O574 O 0.23751 0.88809 0.13317 0.0
O575 O 0.22916 0.8543 0.18828 0.0
Co576 Co 0.10858 0.4685 0.98321 0.0
Co577 Co 0.05683 0.41559 0.91229 0.0
Co578 Co 0.10336 0.36943 0.96589 0.0
H579 H 0.10265 0.41757 0.96716 0.0
O580 O 0.10445 0.42445 0.94271 0.0
H581 H 0.06544 0.37134 0.90723 0.0
O582 O 0.06063 0.35843 0.92859 0.0
Co583 Co 0.07863 0.33044 0.87948 0.0
O584 O 0.05102 0.34813 0.83452 0.0
O585 O 1.01733 0.39839 0.86822 0.0
O586 O 0.13222 0.31992 0.89604 0.0
O587 O 0.11105 0.30666 0.95757 0.0
O588 O 0.15609 0.5142 0.98813 0.0
O589 O 0.12411 0.5051 0.93755 0.0
O590 O 0.12594 0.36475 0.85708 0.0
O591 O 0.09643 0.42196 0.86596 0.0
C592 C 0.15166 0.42235 1.02644 0.0
C593 C 0.04097 0.49757 0.94743 0.0
C594 C 1.01922 0.28026 0.88742 0.0
C595 C 0.04314 0.40879 1.0232 0.0
C596 C 0.02498 0.37344 0.83605 0.0
C597 C 0.12855 0.29431 0.92194 0.0
C598 C 0.15192 0.52611 0.95415 0.0
C599 C 0.12324 0.40084 0.84866 0.0
O600 O 0.15722 0.44679 0.99954 0.0
O601 O 0.13775 0.38568 1.01484 0.0
O602 O 0.04691 0.47487 0.91382 0.0
O603 O 0.05601 0.49152 0.9801 0.0
O604 O 0.03476 0.29256 0.85479 0.0
O605 O 0.03808 0.29573 0.91697 0.0
O606 O 0.06017 0.44395 1.01606 0.0
O607 O 0.05627 0.37512 1.00724 0.0
Co608 Co 0.07119 0.71106 0.33915 0.0
Co609 Co 0.10083 0.62137 0.36549 0.0
Co610 Co 0.15716 0.69029 0.32644 0.0
H611 H 0.11212 0.68756 0.333 0.0
O612 O 0.09908 0.66399 0.32732 0.0
H613 H 0.1456 0.62649 0.35751 0.0
O614 O 0.15824 0.64938 0.36628 0.0
Co615 Co 0.18603 0.60748 0.33692 0.0
O616 O 0.17555 0.58767 0.39361 0.0
O617 O 0.11131 0.57093 0.39578 0.0
O618 O 0.21185 0.62894 0.28629 0.0
O619 O 0.21794 0.69421 0.31082 0.0
O620 O 0.03834 0.73227 0.2981 0.0
O621 O 0.0631 0.67835 0.28186 0.0
O622 O 0.15489 0.61373 0.28919 0.0
O623 O 0.1019 0.58159 0.31458 0.0
C624 C 0.13109 0.76293 0.29084 0.0
C625 C 0.02456 0.64479 0.38112 0.0
C626 C 0.24811 0.58387 0.3453 0.0
C627 C 0.12387 0.75108 0.40027 0.0
C628 C 0.14651 0.56256 0.40344 0.0
C629 C 0.23113 0.66374 0.28697 0.0
C630 C 0.04316 0.70402 0.27039 0.0
C631 C 0.12533 0.5881 0.2837 0.0
O632 O 0.0991 0.76146 0.31431 0.0
O633 O 0.15351 0.73349 0.28709 0.0
O634 O 0.04124 0.61184 0.37071 0.0
O635 O 0.04706 0.67808 0.38618 0.0
O636 O 0.22808 0.56988 0.31596 0.0
O637 O 0.23206 0.60919 0.37029 0.0
O638 O 0.0881 0.73796 0.3939 0.0
O639 O 0.15289 0.73744 0.37533 0.0
Co640 Co 0.44946 0.96715 0.09438 0.0
Co641 Co 0.36359 0.9275 0.12203 0.0
Co642 Co 0.43618 0.87559 0.10058 0.0
H643 H 0.43146 0.91905 0.09282 0.0
O644 O 0.41006 0.92341 0.08219 0.0
H645 H 0.36702 0.88408 0.13071 0.0
O646 O 0.38862 0.87942 0.14115 0.0
Co647 Co 0.34611 0.83784 0.13339 0.0
O648 O 0.30944 0.86174 0.17768 0.0
O649 O 0.31026 0.92292 0.15634 0.0
O650 O 0.35211 0.80593 0.0811 0.0
O651 O 0.40584 0.84225 0.05485 0.0
O652 O 0.46578 1.01105 0.05763 0.0
O653 O 0.41569 0.97162 0.04571 0.0
O654 O 0.30569 0.84469 0.09206 0.0
O655 O 0.33212 0.90488 0.07469 0.0
C656 C 0.50696 0.91013 0.0516 0.0
C657 C 0.3844 1.00774 0.1258 0.0
C658 C 0.36922 0.77987 0.16039 0.0
C659 C 0.48988 0.93883 0.15754 0.0
C660 C 0.29164 0.89242 0.17326 0.0
C661 C 0.37703 0.8139 0.05212 0.0
C662 C 0.43761 1.0018 0.03533 0.0
C663 C 0.30703 0.87392 0.06971 0.0
O664 O 0.4992 0.94574 0.06639 0.0
O665 O 0.48408 0.87824 0.05943 0.0
O666 O 0.3564 0.98405 0.11019 0.0
O667 O 0.412 0.991 0.13911 0.0
O668 O 0.38625 0.79614 0.1306 0.0
O669 O 0.34331 0.80121 0.17841 0.0
O670 O 0.48151 0.97036 0.14297 0.0
O671 O 0.47318 0.90356 0.14468 0.0
Co672 Co 0.20213 0.73719 0.93469 0.0
Co673 Co 0.11209 0.6994 0.96746 0.0
Co674 Co 0.18469 0.64751 0.946 0.0
H675 H 0.18125 0.69093 0.93734 0.0
O676 O 0.15965 0.69558 0.9269 0.0
H677 H 0.11681 0.65593 0.97522 0.0
O678 O 0.13822 0.65158 0.98584 0.0
Co679 Co 0.09882 0.60783 0.97366 0.0
O680 O 0.04909 0.62923 1.00167 0.0
O681 O 0.06419 0.69674 1.00861 0.0
O682 O 0.13629 0.584 0.92892 0.0
O683 O 0.19189 0.59096 0.95784 0.0
O684 O 0.16199 0.77888 0.93746 0.0
O685 O 0.20492 0.77379 0.88964 0.0
O686 O 0.06677 0.60462 0.92507 0.0
O687 O 0.0751 0.67144 0.92336 0.0
C688 C 0.25669 0.68264 0.89485 0.0
C689 C 0.17118 0.76111 1.01595 0.0
C690 C 0.11069 0.57317 1.0327 0.0
C691 C 0.24123 0.70109 0.99835 0.0
C692 C 0.04133 0.66485 1.01646 0.0
C693 C 0.16391 0.56725 0.94221 0.0
C694 C 0.17903 0.79513 0.90766 0.0
C695 C 0.05843 0.63616 0.91048 0.0
O696 O 0.2389 0.71333 0.89046 0.0
O697 O 0.23802 0.65211 0.9117 0.0
O698 O 0.14243 0.7327 1.01321 0.0
O699 O 0.19608 0.76914 0.98696 0.0
O700 O 0.08252 0.56391 1.01041 0.0
O701 O 0.1326 0.60336 1.02234 0.0
O702 O 0.24256 0.73033 0.97602 0.0
O703 O 0.21615 0.67012 0.99335 0.0
Co704 Co 0.36228 0.96751 0.73116 0.0
Co705 Co 0.39114 0.88471 0.7416 0.0
Co706 Co 0.44747 0.95363 0.70258 0.0
H707 H 0.4027 0.9485 0.71055 0.0
O708 O 0.39006 0.92562 0.70178 0.0
H709 H 0.43618 0.88744 0.73506 0.0
O710 O 0.44921 0.911 0.74074 0.0
Co711 Co 0.47712 0.86395 0.7289 0.0
O712 O 0.44921 0.81354 0.75373 0.0
O713 O 0.39479 0.8415 0.78095 0.0
O714 O 0.50127 0.89694 0.68188 0.0
O715 O 0.50706 0.96317 0.69736 0.0
O716 O 0.32027 1.00516 0.75207 0.0
O717 O 0.31619 0.96568 0.69786 0.0
O718 O 0.46021 0.83708 0.67414 0.0
O719 O 0.39542 0.83756 0.69271 0.0
C720 C 0.40177 1.01244 0.66465 0.0
C721 C 0.31716 0.91124 0.78108 0.0
C722 C 0.50513 0.87097 0.79767 0.0
C723 C 0.42298 0.98688 0.78439 0.0
C724 C 0.41721 0.81207 0.7772 0.0
C725 C 0.52376 0.93024 0.68693 0.0
C726 C 0.30018 0.99107 0.72279 0.0
C727 C 0.42445 0.82394 0.66777 0.0
O728 O 0.37271 0.98736 0.6745 0.0
O729 O 0.43698 1.00407 0.67228 0.0
O730 O 0.33035 0.88077 0.75721 0.0
O731 O 0.33646 0.94603 0.78179 0.0
O732 O 0.50995 0.84273 0.76996 0.0
O733 O 0.48519 0.89664 0.7862 0.0
O734 O 0.39343 0.96124 0.77889 0.0
O735 O 0.44639 0.9934 0.75349 0.0
Co736 Co 0.60857 0.96851 0.98322 0.0
Co737 Co 0.55681 0.91558 0.91231 0.0
Co738 Co 0.60336 0.86943 0.96588 0.0
H739 H 0.60265 0.91757 0.96717 0.0
O740 O 0.60445 0.92446 0.94272 0.0
H741 H 0.56544 0.87134 0.90724 0.0
O742 O 0.56062 0.85843 0.9286 0.0
Co743 Co 0.57862 0.83043 0.87949 0.0
O744 O 0.55101 0.84812 0.83453 0.0
O745 O 0.51731 0.89838 0.86823 0.0
O746 O 0.6322 0.81991 0.89608 0.0
O747 O 0.61105 0.80666 0.95757 0.0
O748 O 0.6561 1.01418 0.98814 0.0
O749 O 0.62402 1.00517 0.93761 0.0
O750 O 0.62592 0.86474 0.85708 0.0
O751 O 0.59642 0.92196 0.86597 0.0
C752 C 0.65164 0.92234 1.02644 0.0
C753 C 0.54094 0.99757 0.94745 0.0
C754 C 0.5192 0.78026 0.88742 0.0
C755 C 0.54314 0.90877 1.0232 0.0
C756 C 0.52497 0.87343 0.83606 0.0
C757 C 0.62856 0.79429 0.92196 0.0
C758 C 0.65183 1.02615 0.95421 0.0
C759 C 0.62322 0.90084 0.84867 0.0
O760 O 0.6572 0.94674 0.9995 0.0
O761 O 0.63777 0.88567 1.01482 0.0
O762 O 0.54688 0.97486 0.91384 0.0
O763 O 0.556 0.99152 0.98011 0.0
O764 O 0.53474 0.79255 0.8548 0.0
O765 O 0.53806 0.79573 0.91698 0.0
O766 O 0.56016 0.94394 1.01606 0.0
O767 O 0.55628 0.87511 1.00725 0.0
Co768 Co 0.20394 0.34473 0.60082 0.0
Co769 Co 0.12954 0.38467 0.64713 0.0
Co770 Co 0.1729 0.32412 0.68672 0.0
H771 H 0.17727 0.33515 0.643 0.0
O772 O 0.15538 0.33513 0.63148 0.0
H773 H 0.13022 0.37883 0.69347 0.0
O774 O 0.15384 0.37796 0.70122 0.0
Co775 Co 0.11173 0.37578 0.74177 0.0
O776 O 0.06734 0.40516 0.72534 0.0
O777 O 0.09357 0.42921 0.66728 0.0
O778 O 0.11006 0.32026 0.76396 0.0
O779 O 0.17198 0.30628 0.74397 0.0
O780 O 0.21367 0.2923 0.56465 0.0
O781 O 0.1593 0.31526 0.56654 0.0
O782 O 0.076 0.33231 0.71628 0.0
O783 O 0.07941 0.34362 0.65025 0.0
C784 C 0.22711 0.27217 0.64033 0.0
C785 C 0.16527 0.41019 0.56697 0.0
C786 C 0.13389 0.40841 0.80688 0.0
C787 C 0.24857 0.38172 0.66752 0.0
C788 C 0.06524 0.42619 0.69573 0.0
C789 C 0.13867 0.29806 0.76471 0.0
C790 C 0.1791 0.28625 0.55328 0.0
C791 C 0.06418 0.3246 0.68088 0.0
O792 O 0.23622 0.30053 0.61668 0.0
O793 O 0.19708 0.27272 0.66627 0.0
O794 O 0.13143 0.39793 0.58641 0.0
O795 O 0.19773 0.3992 0.57789 0.0
O796 O 0.10716 0.42027 0.78823 0.0
O797 O 0.15212 0.3826 0.78476 0.0
O798 O 0.23751 0.38808 0.63318 0.0
O799 O 0.22916 0.35428 0.68827 0.0
Co800 Co 0.43658 0.69921 0.82627 0.0
Co801 Co 0.3754 0.75086 0.88132 0.0
Co802 Co 0.41876 0.69031 0.92091 0.0
H803 H 0.41808 0.69616 0.87457 0.0
O804 O 0.39446 0.69703 0.86681 0.0
H805 H 0.37103 0.73983 0.92503 0.0
O806 O 0.39292 0.73985 0.93655 0.0
Co807 Co 0.34437 0.73025 0.96722 0.0
O808 O 0.31207 0.77444 0.95135 0.0
O809 O 0.35121 0.80226 0.90176 0.0
O810 O 0.35058 0.67581 0.99019 0.0
O811 O 0.41688 0.67706 0.98162 0.0
O812 O 0.44115 0.65477 0.77978 0.0
O813 O 0.3962 0.69237 0.78327 0.0
O814 O 0.31083 0.68688 0.93486 0.0
O815 O 0.31915 0.7207 0.87976 0.0
C816 C 0.48309 0.64883 0.87233 0.0
C817 C 0.40963 0.77692 0.80332 0.0
C818 C 0.36921 0.78873 1.01475 0.0
C819 C 0.48409 0.75041 0.88718 0.0
C820 C 0.32117 0.8028 0.92769 0.0
C821 C 0.38305 0.66478 1.00107 0.0
C822 C 0.41441 0.66657 0.76111 0.0
C823 C 0.29977 0.69324 0.90052 0.0
O824 O 0.48097 0.66984 0.84271 0.0
O825 O 0.45473 0.64578 0.90075 0.0
O826 O 0.37632 0.7687 0.82406 0.0
O827 O 0.43824 0.75473 0.80408 0.0
O828 O 0.33464 0.78268 1.00339 0.0
O829 O 0.38901 0.75972 1.00149 0.0
O830 O 0.47226 0.74272 0.85178 0.0
O831 O 0.46888 0.73136 0.91779 0.0
Co832 Co 0.97454 0.09081 0.45822 0.0
Co833 Co 0.943 0.09701 0.37174 0.0
Co834 Co 0.89064 0.05506 0.43862 0.0
H835 H 0.93499 0.06904 0.43633 0.0
O836 O 0.94848 0.06153 0.41394 0.0
H837 H 0.89715 0.08515 0.37587 0.0
O838 O 0.88546 0.09373 0.39904 0.0
Co839 Co 0.85378 0.06547 0.35849 0.0
O840 O 0.87176 0.12414 0.35228 0.0
O841 O 0.93114 0.12664 0.32374 0.0
O842 O 0.83524 1.01367 0.38288 0.0
O843 O 0.83033 0.03893 0.44682 0.0
O844 O 1.01137 0.0556 0.48235 0.0
O845 O 1.00062 0.0441 0.42153 0.0
O846 O 0.88003 1.02108 0.32843 0.0
O847 O 0.9438 0.0462 0.33024 0.0
C848 C 0.93028 1.0278 0.5048 0.0
C849 C 1.01668 0.13415 0.3978 0.0
C850 C 0.78742 0.07589 0.34908 0.0
C851 C 0.90944 0.13236 0.50036 0.0
C852 C 0.89451 0.13156 0.3214 0.0
C853 C 0.8146 1.01718 0.41656 0.0
C854 C 1.01762 1.03304 0.45001 0.0
C855 C 0.91634 1.01937 0.31731 0.0
O856 O 0.9535 0.06043 0.50523 0.0
O857 O 0.90345 1.01824 0.47924 0.0
O858 O 1.00356 0.11123 0.36657 0.0
O859 O 0.99181 0.14028 0.42806 0.0
O860 O 0.80562 0.05039 0.32607 0.0
O861 O 0.80703 0.09564 0.3761 0.0
O862 O 0.94606 0.13724 0.48832 0.0
O863 O 0.8872 0.10138 0.48546 0.0
Co864 Co 0.46966 0.74455 0.68857 0.0
Co865 Co 0.44494 0.70558 0.60216 0.0
Co866 Co 0.49146 0.6594 0.65575 0.0
H867 H 0.48285 0.70365 0.66082 0.0
O868 O 0.48767 0.71657 0.63946 0.0
H869 H 0.44564 0.65744 0.60087 0.0
O870 O 0.44384 0.65055 0.62532 0.0
Co871 Co 0.43972 0.6065 0.58482 0.0
O872 O 0.39109 0.62828 0.56854 0.0
O873 O 0.41054 0.68934 0.55321 0.0
O874 O 0.49227 0.58346 0.58793 0.0
O875 O 0.50138 0.60012 0.65421 0.0
O876 O 0.51355 0.78242 0.71327 0.0
O877 O 0.51021 0.77926 0.65109 0.0
O878 O 0.48814 0.63106 0.55198 0.0
O879 O 0.49203 0.69989 0.5608 0.0
C880 C 0.52328 0.70153 0.73201 0.0
C881 C 0.41978 0.78069 0.64612 0.0
C882 C 0.39637 0.5489 0.61388 0.0
C883 C 0.42501 0.67413 0.71932 0.0
C884 C 0.39666 0.65268 0.5416 0.0
C885 C 0.50732 0.57741 0.6206 0.0
C886 C 0.52908 0.79473 0.68064 0.0
C887 C 0.50517 0.66622 0.54484 0.0
O888 O 0.49724 0.72683 0.73354 0.0
O889 O 0.53095 0.67658 0.69984 0.0
O890 O 0.43725 0.76836 0.61048 0.0
O891 O 0.41608 0.75506 0.67201 0.0
O892 O 0.39222 0.5608 0.57989 0.0
O893 O 0.42417 0.56991 0.63048 0.0
O894 O 0.42234 0.71026 0.71097 0.0
O895 O 0.45183 0.65301 0.70206 0.0
Co896 Co 0.93659 0.19922 0.82627 0.0
Co897 Co 0.87541 0.25086 0.88132 0.0
Co898 Co 0.91877 0.19032 0.92091 0.0
H899 H 0.91809 0.19616 0.87457 0.0
O900 O 0.89448 0.19703 0.86681 0.0
H901 H 0.87104 0.23984 0.92504 0.0
O902 O 0.89293 0.23986 0.93655 0.0
Co903 Co 0.84438 0.23025 0.96722 0.0
O904 O 0.81208 0.27445 0.95136 0.0
O905 O 0.85122 0.30226 0.90176 0.0
O906 O 0.85059 0.17581 0.99019 0.0
O907 O 0.91689 0.17707 0.98163 0.0
O908 O 0.94116 0.15477 0.77978 0.0
O909 O 0.89621 0.19238 0.78327 0.0
O910 O 0.81083 0.18689 0.93487 0.0
O911 O 0.81916 0.2207 0.87976 0.0
C912 C 0.98308 0.1488 0.87231 0.0
C913 C 0.90963 0.27693 0.80332 0.0
C914 C 0.86924 0.28874 1.01475 0.0
C915 C 0.98411 0.25041 0.88717 0.0
C916 C 0.82119 0.3028 0.9277 0.0
C917 C 0.88306 0.16479 1.00108 0.0
C918 C 0.91442 0.16658 0.76112 0.0
C919 C 0.79978 0.19324 0.90052 0.0
O920 O 0.98097 0.16984 0.8427 0.0
O921 O 0.95474 0.14579 0.90076 0.0
O922 O 0.87632 0.2687 0.82407 0.0
O923 O 0.93825 0.25474 0.80409 0.0
O924 O 0.83466 0.28269 1.00339 0.0
O925 O 0.88902 0.25972 1.0015 0.0
O926 O 0.9723 0.24271 0.85178 0.0
O927 O 0.9689 0.23137 0.91779 0.0
Co928 Co 0.96967 0.74455 0.18858 0.0
Co929 Co 0.94493 0.70556 0.10217 0.0
Co930 Co 0.99147 0.65941 0.15576 0.0
H931 H 0.98285 0.70365 0.16083 0.0
O932 O 0.98766 0.71656 0.13947 0.0
H933 H 0.94564 0.65742 0.10088 0.0
O934 O 0.94384 0.65054 0.12534 0.0
Co935 Co 0.93971 0.60648 0.08484 0.0
O936 O 0.89107 0.62821 0.06853 0.0
O937 O 0.91054 0.68931 0.05322 0.0
O938 O 0.99228 0.58346 0.08795 0.0
O939 O 1.0014 0.60012 0.15423 0.0
O940 O 1.01355 0.78243 0.21326 0.0
O941 O 1.01021 0.77926 0.15109 0.0
O942 O 0.98812 0.63104 0.052 0.0
O943 O 0.99202 0.69987 0.06081 0.0
C944 C 1.0233 0.70155 0.23201 0.0
C945 C 0.91977 0.78068 0.14613 0.0
C946 C 0.89645 0.54884 0.11385 0.0
C947 C 0.92501 0.67414 0.21933 0.0
C948 C 0.89663 0.65265 0.04162 0.0
C949 C 1.00734 0.57742 0.12062 0.0
C950 C 0.02908 0.79474 0.18064 0.0
C951 C 1.00515 0.66621 0.04486 0.0
O952 O 0.99726 0.72684 0.23354 0.0
O953 O 0.03096 0.67659 0.19984 0.0
O954 O 0.93724 0.76834 0.11049 0.0
O955 O 0.91608 0.75506 0.17202 0.0
O956 O 0.89219 0.5608 0.07991 0.0
O957 O 0.92425 0.56983 0.13046 0.0
O958 O 0.92234 0.71025 0.21097 0.0
O959 O 0.95185 0.65301 0.20207 0.0
Co960 Co 0.7022 0.73715 0.43465 0.0
Co961 Co 0.61213 0.69941 0.46746 0.0
Co962 Co 0.68472 0.64749 0.44601 0.0
H963 H 0.68129 0.69091 0.43733 0.0
O964 O 0.65968 0.69557 0.42689 0.0
H965 H 0.61684 0.65594 0.47522 0.0
O966 O 0.63825 0.65159 0.48585 0.0
Co967 Co 0.59885 0.60784 0.47366 0.0
O968 O 0.54911 0.62925 0.50166 0.0
O969 O 0.56423 0.69676 0.50861 0.0
O970 O 0.63631 0.58398 0.42893 0.0
O971 O 0.6919 0.59095 0.45786 0.0
O972 O 0.66205 0.77884 0.43747 0.0
O973 O 0.70501 0.77375 0.3896 0.0
O974 O 0.56682 0.60462 0.42506 0.0
O975 O 0.57513 0.67142 0.42337 0.0
C976 C 0.75667 0.68257 0.39477 0.0
C977 C 0.67131 0.76107 0.51594 0.0
C978 C 0.61069 0.57319 0.53272 0.0
C979 C 0.74129 0.70105 0.49833 0.0
C980 C 0.54135 0.66487 0.51645 0.0
C981 C 0.66392 0.56724 0.44222 0.0
C982 C 0.67911 0.79506 0.40767 0.0
C983 C 0.55844 0.63616 0.41049 0.0
O984 O 0.73886 0.71324 0.39034 0.0
O985 O 0.73805 0.65207 0.4117 0.0
O986 O 0.64247 0.73276 0.51319 0.0
O987 O 0.69625 0.76902 0.48697 0.0
O988 O 0.58252 0.56395 0.51043 0.0
O989 O 0.63262 0.60336 0.52234 0.0
O990 O 0.74263 0.73028 0.47598 0.0
O991 O 0.71619 0.6701 0.49335 0.0
Co992 Co 0.57118 0.71105 0.83915 0.0
Co993 Co 0.60083 0.62136 0.86548 0.0
Co994 Co 0.65717 0.69029 0.82645 0.0
H995 H 0.61212 0.68756 0.833 0.0
O996 O 0.59909 0.66399 0.82732 0.0
H997 H 0.6456 0.62649 0.85751 0.0
O998 O 0.65824 0.64937 0.86628 0.0
Co999 Co 0.68601 0.60747 0.83691 0.0
O1000 O 0.67555 0.58766 0.89359 0.0
O1001 O 0.61131 0.57092 0.89577 0.0
O1002 O 0.71184 0.62895 0.78629 0.0
O1003 O 0.71795 0.69421 0.81083 0.0
O1004 O 0.53826 0.73221 0.79813 0.0
O1005 O 0.56314 0.67837 0.78184 0.0
O1006 O 0.65487 0.61375 0.78918 0.0
O1007 O 0.60191 0.58159 0.81456 0.0
C1008 C 0.63108 0.76293 0.79084 0.0
C1009 C 0.52456 0.64478 0.88112 0.0
C1010 C 0.74809 0.58387 0.8453 0.0
C1011 C 0.62386 0.75105 0.90026 0.0
C1012 C 0.64651 0.56255 0.90343 0.0
C1013 C 0.73114 0.66374 0.78698 0.0
C1014 C 0.54311 0.70398 0.77041 0.0
C1015 C 0.62532 0.58811 0.78367 0.0
O1016 O 0.59908 0.76145 0.8143 0.0
O1017 O 0.65352 0.73349 0.78711 0.0
O1018 O 0.54124 0.61183 0.8707 0.0
O1019 O 0.54705 0.67807 0.88618 0.0
O1020 O 0.72804 0.56984 0.81598 0.0
O1021 O 0.73206 0.60922 0.87026 0.0
O1022 O 0.58809 0.73797 0.89389 0.0
O1023 O 0.6529 0.73743 0.87535 0.0
Co1024 Co 0.33507 0.61115 0.21992 0.0
Co1025 Co 0.29207 0.67614 0.17229 0.0
Co1026 Co 0.34985 0.62005 0.12188 0.0
H1027 H 0.34043 0.62393 0.17063 0.0
O1028 O 0.34029 0.6493 0.17989 0.0
H1029 H 0.30603 0.67657 0.12652 0.0
O1030 O 0.30601 0.65294 0.11326 0.0
Co1031 Co 0.31821 0.70118 0.08463 0.0
O1032 O 0.28302 0.74331 0.11 0.0
O1033 O 0.24861 0.70956 0.15894 0.0
O1034 O 0.37487 0.68628 0.07018 0.0
O1035 O 0.36599 0.6197 0.05875 0.0
O1036 O 0.38925 0.61372 0.24779 0.0
O1037 O 0.33863 0.62991 0.28108 0.0
O1038 O 0.36462 0.71963 0.11888 0.0
O1039 O 0.32786 0.72576 0.17673 0.0
C1040 C 0.38904 0.55576 0.16595 0.0
C1041 C 0.26839 0.6638 0.25886 0.0
C1042 C 0.26985 0.70165 1.03025 0.0
C1043 C 0.27641 0.57483 0.15365 0.0
C1044 C 0.25375 0.73932 0.13642 0.0
C1045 C 0.37982 0.65489 0.04558 0.0
C1046 C 0.37504 0.62721 0.28215 0.0
C1047 C 0.35837 0.73683 0.15471 0.0
O1048 O 0.36943 0.56579 0.19954 0.0
O1049 O 0.38713 0.57531 0.13379 0.0
O1050 O 0.27487 0.68919 0.23212 0.0
O1051 O 0.2858 0.63069 0.25487 0.0
O1052 O 0.29084 0.73215 0.04456 0.0
O1053 O 0.27658 0.67095 0.04642 0.0
O1054 O 0.286 0.58761 0.18991 0.0
O1055 O 0.30113 0.57864 0.1223 0.0
Co1056 Co 0.70394 0.84473 0.60084 0.0
Co1057 Co 0.62953 0.88466 0.64713 0.0
Co1058 Co 0.6729 0.82413 0.68673 0.0
H1059 H 0.67728 0.83515 0.64302 0.0
O1060 O 0.65538 0.83513 0.63149 0.0
H1061 H 0.63021 0.87883 0.69348 0.0
O1062 O 0.65383 0.87796 0.70123 0.0
Co1063 Co 0.61172 0.87578 0.74178 0.0
O1064 O 0.56733 0.90516 0.72534 0.0
O1065 O 0.59356 0.9292 0.66728 0.0
O1066 O 0.61005 0.82026 0.76396 0.0
O1067 O 0.67198 0.80629 0.74399 0.0
O1068 O 0.71369 0.7923 0.56467 0.0
O1069 O 0.65931 0.81524 0.56657 0.0
O1070 O 0.576 0.8323 0.71628 0.0
O1071 O 0.57941 0.84362 0.65026 0.0
C1072 C 0.72713 0.77219 0.64037 0.0
C1073 C 0.66527 0.91018 0.56697 0.0
C1074 C 0.63387 0.90841 0.80688 0.0
C1075 C 0.74853 0.88175 0.66754 0.0
C1076 C 0.56523 0.92619 0.69573 0.0
C1077 C 0.63867 0.79807 0.76472 0.0
C1078 C 0.67912 0.78624 0.55331 0.0
C1079 C 0.56419 0.82459 0.68088 0.0
O1080 O 0.73624 0.80054 0.61671 0.0
O1081 O 0.69709 0.77273 0.6663 0.0
O1082 O 0.63142 0.89793 0.58642 0.0
O1083 O 0.69774 0.89917 0.57786 0.0
O1084 O 0.60714 0.92026 0.78824 0.0
O1085 O 0.65211 0.88261 0.78477 0.0
O1086 O 0.73747 0.88811 0.63319 0.0
O1087 O 0.72915 0.85429 0.6883 0.0
Co1088 Co 0.73009 0.37379 0.98341 0.0
Co1089 Co 0.69845 0.45494 0.94617 0.0
Co1090 Co 0.75622 0.39886 0.89576 0.0
H1091 H 0.74226 0.39842 0.94152 0.0
O1092 O 0.74228 0.42204 0.95479 0.0
H1093 H 0.70787 0.45106 0.89742 0.0
O1094 O 0.70801 0.4257 0.88817 0.0
Co1095 Co 0.71323 0.46385 0.84814 0.0
O1096 O 0.67888 0.50922 0.86852 0.0
O1097 O 0.66117 0.49968 0.93427 0.0
O1098 O 0.76251 0.44431 0.81318 0.0
O1099 O 0.77343 0.3858 0.83593 0.0
O1100 O 0.75744 0.34284 1.0235 0.0
O1101 O 0.77171 0.40404 1.02162 0.0
O1102 O 0.76231 0.48737 0.87815 0.0
O1103 O 0.74716 0.49634 0.94576 0.0
C1104 C 0.79455 0.33567 0.93163 0.0
C1105 C 0.6685 0.42008 1.02246 0.0
C1106 C 0.67327 0.44778 0.78591 0.0
C1107 C 0.68993 0.33815 0.91333 0.0
C1108 C 0.65927 0.51923 0.9021 0.0
C1109 C 0.7799 0.41119 0.80919 0.0
C1110 C 0.77843 0.37334 0.03781 0.0
C1111 C 0.77189 0.50015 0.91441 0.0
O1112 O 0.76528 0.33167 0.95804 0.0
O1113 O 0.79968 0.36543 0.9091 0.0
O1114 O 0.6823 0.45528 1.00931 0.0
O1115 O 0.67343 0.3887 0.99784 0.0
O1116 O 0.65906 0.46129 0.82026 0.0
O1117 O 0.70967 0.44508 0.78698 0.0
O1118 O 0.68367 0.35535 0.94916 0.0
O1119 O 0.72044 0.34923 0.89131 0.0
Co1120 Co 0.10857 0.96851 0.48322 0.0
Co1121 Co 0.05682 0.91559 0.4123 0.0
Co1122 Co 0.10336 0.86943 0.46589 0.0
H1123 H 0.10265 0.91758 0.46717 0.0
O1124 O 0.10444 0.92446 0.44272 0.0
H1125 H 0.06545 0.87135 0.40723 0.0
O1126 O 0.06063 0.85843 0.42858 0.0
Co1127 Co 0.07863 0.83044 0.37948 0.0
O1128 O 0.05104 0.84815 0.33451 0.0
O1129 O 1.01733 0.8984 0.36821 0.0
O1130 O 0.13222 0.81992 0.39604 0.0
O1131 O 0.11105 0.80666 0.45757 0.0
O1132 O 0.1561 1.01419 0.48814 0.0
O1133 O 0.12402 1.00516 0.4376 0.0
O1134 O 0.12596 0.86475 0.35709 0.0
O1135 O 0.09645 0.92199 0.36598 0.0
C1136 C 0.15166 0.92235 0.52643 0.0
C1137 C 0.04095 0.99757 0.44745 0.0
C1138 C 1.01922 0.78026 0.38741 0.0
C1139 C 0.04314 0.90878 0.5232 0.0
C1140 C 0.025 0.87345 0.33604 0.0
C1141 C 0.12856 0.79432 0.42194 0.0
C1142 C 0.15183 1.02615 0.45421 0.0
C1143 C 0.12328 0.90086 0.34873 0.0
O1144 O 0.15722 0.94679 0.49953 0.0
O1145 O 0.13775 0.88569 0.51484 0.0
O1146 O 0.04689 0.97487 0.41383 0.0
O1147 O 0.056 0.99153 0.48011 0.0
O1148 O 0.03475 0.79257 0.35478 0.0
O1149 O 0.03808 0.79574 0.41696 0.0
O1150 O 0.06016 0.94394 0.51606 0.0
O1151 O 0.05627 0.87511 0.50724 0.0
Co1152 Co 0.44946 0.46715 0.59439 0.0
Co1153 Co 0.36359 0.4275 0.62204 0.0
Co1154 Co 0.43618 0.37559 0.60058 0.0
H1155 H 0.43146 0.41905 0.59282 0.0
O1156 O 0.41006 0.42341 0.58219 0.0
H1157 H 0.36701 0.38408 0.63071 0.0
O1158 O 0.38862 0.37942 0.64115 0.0
Co1159 Co 0.34611 0.33783 0.63338 0.0
O1160 O 0.30943 0.36173 0.67768 0.0
O1161 O 0.31025 0.42291 0.65634 0.0
O1162 O 0.35209 0.30594 0.58108 0.0
O1163 O 0.40583 0.34225 0.55485 0.0
O1164 O 0.46578 0.51105 0.55762 0.0
O1165 O 0.41568 0.47162 0.54571 0.0
O1166 O 0.30569 0.3447 0.59205 0.0
O1167 O 0.33211 0.40489 0.5747 0.0
C1168 C 0.50696 0.41013 0.5516 0.0
C1169 C 0.3844 0.50775 0.62581 0.0
C1170 C 0.3692 0.27992 0.66038 0.0
C1171 C 0.48988 0.43882 0.65755 0.0
C1172 C 0.29164 0.39241 0.67326 0.0
C1173 C 0.37702 0.31391 0.5521 0.0
C1174 C 0.43762 0.5018 0.53533 0.0
C1175 C 0.30703 0.37393 0.56971 0.0
O1176 O 0.4992 0.44574 0.56639 0.0
O1177 O 0.48408 0.37824 0.55943 0.0
O1178 O 0.3564 0.48405 0.6102 0.0
O1179 O 0.412 0.491 0.63911 0.0
O1180 O 0.38626 0.29614 0.63058 0.0
O1181 O 0.3433 0.30124 0.67844 0.0
O1182 O 0.48151 0.47036 0.64297 0.0
O1183 O 0.47318 0.40356 0.64468 0.0
Co1184 Co 0.36228 0.46751 0.23117 0.0
Co1185 Co 0.39113 0.3847 0.2416 0.0
Co1186 Co 0.44747 0.45363 0.20257 0.0
H1187 H 0.4027 0.4485 0.21055 0.0
O1188 O 0.39006 0.42562 0.20178 0.0
H1189 H 0.43618 0.38744 0.23505 0.0
O1190 O 0.44921 0.411 0.24074 0.0
Co1191 Co 0.47713 0.36395 0.22889 0.0
O1192 O 0.44922 0.31355 0.25374 0.0
O1193 O 0.39478 0.3415 0.28094 0.0
O1194 O 0.50126 0.39692 0.18186 0.0
O1195 O 0.50706 0.46317 0.19735 0.0
O1196 O 0.32027 0.50516 0.25207 0.0
O1197 O 0.3162 0.46568 0.19786 0.0
O1198 O 0.46022 0.33706 0.17414 0.0
O1199 O 0.39541 0.33756 0.1927 0.0
C1200 C 0.40177 0.51244 0.16465 0.0
C1201 C 0.31716 0.41124 0.28108 0.0
C1202 C 0.50519 0.37101 0.29763 0.0
C1203 C 0.42298 0.48688 0.28439 0.0
C1204 C 0.41722 0.31207 0.2772 0.0
C1205 C 0.52374 0.43023 0.18691 0.0
C1206 C 0.30019 0.49107 0.22279 0.0
C1207 C 0.42445 0.32396 0.16777 0.0
O1208 O 0.37271 0.48736 0.1745 0.0
O1209 O 0.43698 0.50407 0.17228 0.0
O1210 O 0.33035 0.38078 0.25721 0.0
O1211 O 0.33647 0.44603 0.28179 0.0
O1212 O 0.51004 0.34278 0.26991 0.0
O1213 O 0.48516 0.39663 0.28621 0.0
O1214 O 0.39344 0.46124 0.27889 0.0
O1215 O 0.44639 0.4934 0.25349 0.0
Co1216 Co 0.43658 0.19921 0.32626 0.0
Co1217 Co 0.3754 0.25086 0.38131 0.0
Co1218 Co 0.41877 0.19032 0.42091 0.0
H1219 H 0.41808 0.19616 0.37456 0.0
O1220 O 0.39447 0.19703 0.36681 0.0
H1221 H 0.37102 0.23983 0.42502 0.0
O1222 O 0.39292 0.23986 0.43654 0.0
Co1223 Co 0.34436 0.23026 0.46721 0.0
O1224 O 0.31206 0.27444 0.45134 0.0
O1225 O 0.35121 0.30226 0.40174 0.0
O1226 O 0.35057 0.17584 0.49022 0.0
O1227 O 0.41689 0.17707 0.48162 0.0
O1228 O 0.44115 0.15472 0.2798 0.0
O1229 O 0.39618 0.19238 0.28328 0.0
O1230 O 0.31082 0.18689 0.43485 0.0
O1231 O 0.31915 0.22069 0.37974 0.0
C1232 C 0.48307 0.1488 0.3723 0.0
C1233 C 0.40963 0.27692 0.30332 0.0
C1234 C 0.36921 0.28875 0.51474 0.0
C1235 C 0.48411 0.2504 0.38716 0.0
C1236 C 0.32117 0.3028 0.42767 0.0
C1237 C 0.38305 0.1648 0.50107 0.0
C1238 C 0.41442 0.16658 0.26116 0.0
C1239 C 0.29977 0.19324 0.4005 0.0
O1240 O 0.48097 0.16983 0.34269 0.0
O1241 O 0.45474 0.14579 0.40076 0.0
O1242 O 0.37632 0.2687 0.32405 0.0
O1243 O 0.43825 0.25473 0.30408 0.0
O1244 O 0.33463 0.2827 0.50337 0.0
O1245 O 0.389 0.25974 0.50148 0.0
O1246 O 0.47231 0.24269 0.35176 0.0
O1247 O 0.46889 0.23137 0.41778 0.0
Co1248 Co 0.96967 0.24455 0.68858 0.0
Co1249 Co 0.94494 0.20557 0.60216 0.0
Co1250 Co 0.99148 0.15941 0.65575 0.0
H1251 H 0.98286 0.20365 0.66082 0.0
O1252 O 0.98767 0.21657 0.63946 0.0
H1253 H 0.94565 0.15743 0.60087 0.0
O1254 O 0.94385 0.15054 0.62532 0.0
Co1255 Co 0.93973 0.10649 0.58483 0.0
O1256 O 0.89108 0.12822 0.56852 0.0
O1257 O 0.91055 0.18932 0.55321 0.0
O1258 O 0.99229 0.08346 0.58794 0.0
O1259 O 1.0014 0.10012 0.65422 0.0
O1260 O 1.01355 0.28243 0.71327 0.0
O1261 O 1.01022 0.27926 0.65109 0.0
O1262 O 0.98814 0.13105 0.55199 0.0
O1263 O 0.99203 0.19988 0.5608 0.0
C1264 C 1.0233 0.20154 0.73201 0.0
C1265 C 0.91978 0.28068 0.64613 0.0
C1266 C 0.89646 0.04884 0.61384 0.0
C1267 C 0.92502 0.17413 0.71932 0.0
C1268 C 0.89664 0.15266 0.54162 0.0
C1269 C 1.00735 0.07742 0.6206 0.0
C1270 C 0.02908 0.29474 0.68064 0.0
C1271 C 1.00516 0.16622 0.54484 0.0
O1272 O 0.99726 0.22684 0.73354 0.0
O1273 O 0.03097 0.17659 0.69983 0.0
O1274 O 0.93725 0.26835 0.61049 0.0
O1275 O 0.91609 0.25506 0.67202 0.0
O1276 O 0.8922 0.0608 0.57991 0.0
O1277 O 0.92426 0.06984 0.63045 0.0
O1278 O 0.92234 0.21025 0.71096 0.0
O1279 O 0.95185 0.15301 0.70206 0.0
Co1280 Co 0.83505 0.11111 0.21993 0.0
Co1281 Co 0.79209 0.17613 0.17232 0.0
Co1282 Co 0.84985 0.12004 0.12189 0.0
H1283 H 0.84043 0.12391 0.17064 0.0
O1284 O 0.8403 0.14928 0.17991 0.0
H1285 H 0.80604 0.17657 0.12655 0.0
O1286 O 0.80602 0.15295 0.11329 0.0
Co1287 Co 0.81822 0.20118 0.08466 0.0
O1288 O 0.78303 0.2433 0.11002 0.0
O1289 O 0.74863 0.20957 0.15898 0.0
O1290 O 0.87489 0.18629 0.07018 0.0
O1291 O 0.86599 0.11971 0.05875 0.0
O1292 O 0.88934 0.11433 0.24771 0.0
O1293 O 0.83834 0.129 0.28127 0.0
O1294 O 0.86464 0.21962 0.1189 0.0
O1295 O 0.82788 0.22575 0.17676 0.0
C1296 C 0.88904 0.05576 0.16595 0.0
C1297 C 0.76841 0.1638 0.25888 0.0
C1298 C 0.76988 0.20163 1.03025 0.0
C1299 C 0.77639 0.07483 0.15364 0.0
C1300 C 0.75376 0.23932 0.13644 0.0
C1301 C 0.87983 0.15489 0.04559 0.0
C1302 C 0.87487 0.12697 0.28225 0.0
C1303 C 0.85839 0.23682 0.15473 0.0
O1304 O 0.86943 0.06576 0.19954 0.0
O1305 O 0.88713 0.07531 0.13378 0.0
O1306 O 0.7749 0.18919 0.23215 0.0
O1307 O 0.78579 0.13067 0.25489 0.0
O1308 O 0.79089 0.23213 0.04454 0.0
O1309 O 0.77659 0.17094 0.04646 0.0
O1310 O 0.78598 0.0876 0.18991 0.0
O1311 O 0.80113 0.07864 0.1223 0.0
Co1312 Co 0.47456 0.59081 0.45823 0.0
Co1313 Co 0.44301 0.59698 0.37175 0.0
Co1314 Co 0.39065 0.55506 0.43863 0.0
H1315 H 0.435 0.56903 0.43635 0.0
O1316 O 0.44849 0.56151 0.41396 0.0
H1317 H 0.39717 0.58514 0.37588 0.0
O1318 O 0.38548 0.59372 0.39905 0.0
Co1319 Co 0.35381 0.56547 0.35848 0.0
O1320 O 0.37166 0.62415 0.35214 0.0
O1321 O 0.43116 0.62658 0.32374 0.0
O1322 O 0.33527 0.51368 0.38289 0.0
O1323 O 0.33034 0.53894 0.44682 0.0
O1324 O 0.51138 0.5556 0.48236 0.0
O1325 O 0.50065 0.54411 0.42154 0.0
O1326 O 0.38006 0.52104 0.32849 0.0
O1327 O 0.44382 0.54617 0.33027 0.0
C1328 C 0.43028 0.52779 0.5048 0.0
C1329 C 0.5167 0.63415 0.39781 0.0
C1330 C 0.28745 0.5759 0.34907 0.0
C1331 C 0.40945 0.63237 0.50035 0.0
C1332 C 0.39455 0.63156 0.32135 0.0
C1333 C 0.31462 0.51718 0.41657 0.0
C1334 C 0.51764 0.53304 0.45002 0.0
C1335 C 0.41636 0.51933 0.31735 0.0
O1336 O 0.4535 0.56042 0.50523 0.0
O1337 O 0.40344 0.51824 0.47925 0.0
O1338 O 0.50357 0.6112 0.36659 0.0
O1339 O 0.49182 0.64028 0.42807 0.0
O1340 O 0.30567 0.55046 0.32601 0.0
O1341 O 0.30703 0.5956 0.37614 0.0
O1342 O 0.44608 0.63725 0.48831 0.0
O1343 O 0.3872 0.60138 0.48546 0.0
Co1344 Co 0.69449 0.50952 0.70958 0.0
Co1345 Co 0.65765 0.51994 0.62942 0.0
Co1346 Co 0.60529 0.47801 0.6963 0.0
H1347 H 0.65113 0.48986 0.69218 0.0
O1348 O 0.66283 0.48128 0.669 0.0
H1349 H 0.6133 0.50597 0.63171 0.0
O1350 O 0.59981 0.51348 0.65409 0.0
Co1351 Co 0.57374 0.48419 0.60983 0.0
O1352 O 0.59479 0.51458 0.56283 0.0
O1353 O 0.64486 0.55675 0.5888 0.0
O1354 O 0.55647 0.43471 0.63999 0.0
O1355 O 0.54473 0.4638 0.70147 0.0
O1356 O 0.74263 0.52454 0.74204 0.0
O1357 O 0.74126 0.47938 0.69193 0.0
O1358 O 0.60221 0.43775 0.57974 0.0
O1359 O 0.66109 0.47361 0.58259 0.0
C1360 C 0.65376 0.44344 0.74671 0.0
C1361 C 0.73368 0.5578 0.65148 0.0
C1362 C 0.53065 0.54196 0.61804 0.0
C1363 C 0.63194 0.55567 0.7507 0.0
C1364 C 0.61802 0.5472 0.56325 0.0
C1365 C 0.5316 0.44082 0.67027 0.0
C1366 C 0.76085 0.49908 0.71899 0.0
C1367 C 0.63884 0.44263 0.56771 0.0
O1368 O 0.67664 0.45085 0.71591 0.0
O1369 O 0.61714 0.44842 0.74432 0.0
O1370 O 0.71796 0.53606 0.62122 0.0
O1371 O 0.71303 0.56131 0.68516 0.0
O1372 O 0.53692 0.5194 0.5857 0.0
O1373 O 0.54764 0.53089 0.64652 0.0
O1374 O 0.66824 0.55396 0.73956 0.0
O1375 O 0.60448 0.52883 0.73779 0.0
Co1376 Co 0.23008 0.8738 0.9834 0.0
Co1377 Co 0.19845 0.95494 0.94616 0.0
Co1378 Co 0.25621 0.89885 0.89574 0.0
H1379 H 0.24225 0.89842 0.9415 0.0
O1380 O 0.24228 0.92204 0.95477 0.0
H1381 H 0.20787 0.95107 0.89741 0.0
O1382 O 0.208 0.92571 0.88815 0.0
Co1383 Co 0.21325 0.96387 0.84813 0.0
O1384 O 0.17887 1.00922 0.86851 0.0
O1385 O 0.16117 0.99968 0.93427 0.0
O1386 O 0.26251 0.9443 0.81317 0.0
O1387 O 0.27339 0.88578 0.83591 0.0
O1388 O 0.25739 0.84286 1.02354 0.0
O1389 O 0.27174 0.90403 1.02156 0.0
O1390 O 0.26232 0.98738 0.87814 0.0
O1391 O 0.24717 0.99635 0.94575 0.0
C1392 C 0.29453 0.83566 0.93161 0.0
C1393 C 0.16851 0.92009 1.02246 0.0
C1394 C 0.17343 0.94802 0.7858 0.0
C1395 C 0.1899 0.83818 0.91332 0.0
C1396 C 0.15926 1.01923 0.9021 0.0
C1397 C 0.27988 0.91117 0.80917 0.0
C1398 C 0.27842 0.87334 0.0378 0.0
C1399 C 0.2719 1.00016 0.9144 0.0
O1400 O 0.26527 0.83167 0.95803 0.0
O1401 O 0.29966 0.86541 0.90907 0.0
O1402 O 0.18231 0.95529 1.0093 0.0
O1403 O 0.17342 0.8887 0.99784 0.0
O1404 O 0.15896 0.96064 0.82034 0.0
O1405 O 0.20996 0.94599 0.78678 0.0
O1406 O 0.18365 0.85538 0.94916 0.0
O1407 O 0.2204 0.84923 0.8913 0.0
Co1408 Co 0.69449 1.00952 0.20957 0.0
Co1409 Co 0.65765 1.01994 0.12942 0.0
Co1410 Co 0.60529 0.97802 0.19629 0.0
H1411 H 0.65113 0.98986 0.19217 0.0
O1412 O 0.66283 0.98128 0.169 0.0
H1413 H 0.6133 1.00597 0.1317 0.0
O1414 O 0.59981 1.01349 0.15409 0.0
Co1415 Co 0.57374 0.98419 0.10982 0.0
O1416 O 0.59479 1.01457 0.06282 0.0
O1417 O 0.64485 0.05676 0.08879 0.0
O1418 O 0.55647 0.93471 0.13999 0.0
O1419 O 0.54473 0.9638 0.20146 0.0
O1420 O 0.74263 1.02454 0.24205 0.0
O1421 O 0.74127 0.97939 0.19192 0.0
O1422 O 0.60222 0.93776 0.07973 0.0
O1423 O 0.6611 0.97362 0.08258 0.0
C1424 C 0.65376 0.94344 0.2467 0.0
C1425 C 0.73369 0.05779 0.15149 0.0
C1426 C 0.53065 0.04196 0.11804 0.0
C1427 C 0.63194 0.05566 0.25071 0.0
C1428 C 0.61801 0.0472 0.06325 0.0
C1429 C 0.53161 0.94083 0.17026 0.0
C1430 C 0.76085 0.99909 0.21898 0.0
C1431 C 0.63885 0.94264 0.0677 0.0
O1432 O 0.67664 0.95084 0.21591 0.0
O1433 O 0.61714 0.94842 0.24431 0.0
O1434 O 0.71796 1.03607 0.12122 0.0
O1435 O 0.71303 0.06131 0.18516 0.0
O1436 O 0.53691 1.0194 0.0857 0.0
O1437 O 0.54765 1.03089 0.14652 0.0
O1438 O 0.66825 0.05395 0.23958 0.0
O1439 O 0.60448 1.02883 0.23778 0.0
Co1440 Co 0.47455 0.09081 0.95824 0.0
Co1441 Co 0.44301 0.09698 0.87176 0.0
Co1442 Co 0.39064 0.05506 0.93863 0.0
H1443 H 0.435 0.06903 0.93635 0.0
O1444 O 0.44849 0.06151 0.91396 0.0
H1445 H 0.39717 0.08514 0.87588 0.0
O1446 O 0.38547 0.09372 0.89905 0.0
Co1447 Co 0.35381 0.06547 0.85848 0.0
O1448 O 0.37166 0.12415 0.85214 0.0
O1449 O 0.43116 0.12658 0.82374 0.0
O1450 O 0.33526 1.01368 0.88289 0.0
O1451 O 0.33033 0.03893 0.94683 0.0
O1452 O 0.51137 0.05559 0.98236 0.0
O1453 O 0.50062 0.0441 0.92154 0.0
O1454 O 0.38005 1.02105 0.82848 0.0
O1455 O 0.44382 0.04617 0.83027 0.0
C1456 C 0.43027 1.02779 1.00481 0.0
C1457 C 0.51669 0.13414 0.89781 0.0
C1458 C 0.28745 0.07591 0.84907 0.0
C1459 C 0.40944 0.13237 1.00035 0.0
C1460 C 0.39455 0.13156 0.82135 0.0
C1461 C 0.31462 1.01719 0.91657 0.0
C1462 C 0.51762 1.03303 0.95002 0.0
C1463 C 0.41636 1.01933 0.81735 0.0
O1464 O 0.45349 0.06043 1.00524 0.0
O1465 O 0.40344 1.01824 0.97925 0.0
O1466 O 0.50357 0.1112 0.86659 0.0
O1467 O 0.49182 0.14028 0.92807 0.0
O1468 O 0.30567 0.05046 0.82601 0.0
O1469 O 0.30703 0.09561 0.87613 0.0
O1470 O 0.44607 0.13725 0.98831 0.0
O1471 O 0.3872 0.10138 0.98547 0.0
Co1472 Co 0.83505 0.6111 0.71992 0.0
Co1473 Co 0.79209 0.67613 0.67232 0.0
Co1474 Co 0.84985 0.62004 0.62189 0.0
H1475 H 0.84043 0.62391 0.67064 0.0
O1476 O 0.8403 0.64927 0.67991 0.0
H1477 H 0.80604 0.67656 0.62655 0.0
O1478 O 0.80601 0.65294 0.61329 0.0
Co1479 Co 0.81822 0.70118 0.58466 0.0
O1480 O 0.78303 0.7433 0.61002 0.0
O1481 O 0.74863 0.70957 0.65899 0.0
O1482 O 0.87488 0.68629 0.57018 0.0
O1483 O 0.86599 0.61971 0.55875 0.0
O1484 O 0.88934 0.61435 0.74771 0.0
O1485 O 0.83833 0.62897 0.78128 0.0
O1486 O 0.86464 0.71962 0.6189 0.0
O1487 O 0.82789 0.72575 0.67676 0.0
C1488 C 0.88904 0.55576 0.66595 0.0
C1489 C 0.76842 0.66379 0.75889 0.0
C1490 C 0.76988 0.70163 0.53025 0.0
C1491 C 0.7764 0.57482 0.65365 0.0
C1492 C 0.75376 0.73932 0.63645 0.0
C1493 C 0.87982 0.65489 0.54559 0.0
C1494 C 0.87486 0.62696 0.78226 0.0
C1495 C 0.85839 0.73682 0.65473 0.0
O1496 O 0.86943 0.56576 0.69954 0.0
O1497 O 0.88713 0.57531 0.63378 0.0
O1498 O 0.77491 0.68919 0.73215 0.0
O1499 O 0.78579 0.63067 0.75489 0.0
O1500 O 0.79088 0.73212 0.54454 0.0
O1501 O 0.77659 0.67093 0.54645 0.0
O1502 O 0.78598 0.5876 0.68991 0.0
O1503 O 0.80113 0.57863 0.6223 0.0
Co1504 Co 0.23008 0.3738 0.48339 0.0
Co1505 Co 0.19845 0.45495 0.44616 0.0
Co1506 Co 0.2562 0.39885 0.39573 0.0
H1507 H 0.24225 0.39842 0.4415 0.0
O1508 O 0.24228 0.42204 0.45476 0.0
H1509 H 0.20787 0.45108 0.39741 0.0
O1510 O 0.20799 0.42571 0.38814 0.0
Co1511 Co 0.21325 0.46388 0.34812 0.0
O1512 O 0.17887 0.50923 0.36851 0.0
O1513 O 0.16117 0.49968 0.43427 0.0
O1514 O 0.26251 0.44431 0.31316 0.0
O1515 O 0.27337 0.38579 0.3359 0.0
O1516 O 0.25744 0.34285 0.52349 0.0
O1517 O 0.27171 0.40405 0.5216 0.0
O1518 O 0.26233 0.48739 0.37814 0.0
O1519 O 0.24717 0.49635 0.44575 0.0
C1520 C 0.29453 0.33566 0.43159 0.0
C1521 C 0.1685 0.42008 0.52246 0.0
C1522 C 0.17343 0.44803 0.2858 0.0
C1523 C 0.18991 0.33816 0.41332 0.0
C1524 C 0.15926 0.51923 0.4021 0.0
C1525 C 0.27987 0.41118 0.30916 0.0
C1526 C 0.27843 0.37335 0.53779 0.0
C1527 C 0.27191 0.50016 0.4144 0.0
O1528 O 0.26527 0.33168 0.45802 0.0
O1529 O 0.29966 0.36542 0.40906 0.0
O1530 O 0.1823 0.45528 0.5093 0.0
O1531 O 0.17342 0.3887 0.49784 0.0
O1532 O 0.15896 0.46065 0.32035 0.0
O1533 O 0.20996 0.44601 0.28677 0.0
O1534 O 0.18366 0.35535 0.44916 0.0
O1535 O 0.2204 0.34923 0.39129 0.0
loop_
_geom_bond_atom_site_label_1
_geom_bond_atom_site_label_2
_geom_bond_distance
_geom_bond_site_symmetry_2
_ccdc_geom_bond_type
Co0 H3 2.400 . S
Co0 O4 2.009 . S
Co0 O12 2.115 . S
Co0 O13 2.315 . S
Co0 O24 2.053 . S
Co0 O27 2.094 . S
Co0 O30 2.122 . S
Co1 O4 2.126 . S
Co1 H5 2.388 . S
Co1 O6 2.053 . S
Co1 O9 2.047 . S
Co1 O15 2.113 . S
Co1 O26 2.063 . S
Co2 H3 2.388 . S
Co2 O4 2.053 . S
Co2 O6 2.126 . S
Co2 O11 2.063 . S
Co2 O25 2.047 . S
Co2 O31 2.113 . S
H3 Co0 2.400 . S
H3 Co2 2.388 . S
H3 O4 0.760 . S
O4 Co0 2.009 . S
O4 Co1 2.126 . S
O4 Co2 2.053 . S
O4 H3 0.760 . S
H5 Co1 2.388 . S
H5 O6 0.760 . S
H5 Co7 2.400 . S
O6 Co1 2.053 . S
O6 Co2 2.126 . S
O6 H5 0.760 . S
O6 Co7 2.009 . S
Co7 H5 2.400 . S
Co7 O6 2.009 . S
Co7 O8 2.053 . S
Co7 O10 2.094 . S
Co7 O14 2.122 . S
Co7 O28 2.115 . S
Co7 O29 2.315 . S
O8 Co7 2.053 . S
O8 C20 1.259 . S
O9 Co1 2.047 . S
O9 C20 1.257 . S
O10 Co7 2.094 . S
O10 C21 1.253 . S
O11 Co2 2.063 . S
O11 C21 1.268 . S
O12 Co0 2.115 . S
O12 C22 1.281 . S
O13 Co0 2.315 . S
O13 C22 1.252 . S
O14 Co7 2.122 . S
O14 C23 1.272 . S
O15 Co1 2.113 . S
O15 C23 1.245 . S
C16 O24 1.259 . S
C16 O25 1.257 . S
C17 O26 1.268 . S
C17 O27 1.253 . S
C18 O28 1.281 . S
C18 O29 1.252 . S
C19 O30 1.272 . S
C19 O31 1.245 . S
C20 O8 1.259 . S
C20 O9 1.257 . S
C21 O10 1.253 . S
C21 O11 1.268 . S
C22 O12 1.281 . S
C22 O13 1.252 . S
C23 O14 1.272 . S
C23 O15 1.245 . S
O24 Co0 2.053 . S
O24 C16 1.259 . S
O25 Co2 2.047 . S
O25 C16 1.257 . S
O26 Co1 2.063 . S
O26 C17 1.268 . S
O27 Co0 2.094 . S
O27 C17 1.253 . S
O28 Co7 2.115 . S
O28 C18 1.281 . S
O29 Co7 2.315 . S
O29 C18 1.252 . S
O30 Co0 2.122 . S
O30 C19 1.272 . S
O31 Co2 2.113 . S
O31 C19 1.245 . S
Co32 H35 2.400 . S
Co32 O36 2.009 . S
Co32 O44 2.115 . S
Co32 O45 2.315 . S
Co32 O56 2.053 . S
Co32 O59 2.094 . S
Co32 O62 2.122 . S
Co33 O36 2.126 . S
Co33 H37 2.388 . S
Co33 O38 2.053 . S
Co33 O41 2.047 . S
Co33 O47 2.113 . S
Co33 O58 2.063 . S
Co34 H35 2.388 . S
Co34 O36 2.053 . S
Co34 O38 2.126 . S
Co34 O43 2.063 . S
Co34 O57 2.047 . S
Co34 O63 2.113 . S
H35 Co32 2.400 . S
H35 Co34 2.388 . S
H35 O36 0.760 . S
O36 Co32 2.009 . S
O36 Co33 2.126 . S
O36 Co34 2.053 . S
O36 H35 0.760 . S
H37 Co33 2.388 . S
H37 O38 0.760 . S
H37 Co39 2.400 . S
O38 Co33 2.053 . S
O38 Co34 2.126 . S
O38 H37 0.760 . S
O38 Co39 2.009 . S
Co39 H37 2.400 . S
Co39 O38 2.009 . S
Co39 O40 2.053 . S
Co39 O42 2.094 . S
Co39 O46 2.122 . S
Co39 O60 2.115 . S
Co39 O61 2.315 . S
O40 Co39 2.053 . S
O40 C52 1.259 . S
O41 Co33 2.047 . S
O41 C52 1.257 . S
O42 Co39 2.094 . S
O42 C53 1.253 . S
O43 Co34 2.063 . S
O43 C53 1.268 . S
O44 Co32 2.115 . S
O44 C54 1.281 . S
O45 Co32 2.315 . S
O45 C54 1.252 . S
O46 Co39 2.122 . S
O46 C55 1.272 . S
O47 Co33 2.113 . S
O47 C55 1.245 . S
C48 O56 1.259 . S
C48 O57 1.257 . S
C49 O58 1.268 . S
C49 O59 1.253 . S
C50 O60 1.281 1_455 S
C50 O61 1.252 1_455 S
C51 O62 1.272 . S
C51 O63 1.245 . S
C52 O40 1.259 . S
C52 O41 1.257 . S
C53 O42 1.253 . S
C53 O43 1.268 . S
C54 O44 1.281 . S
C54 O45 1.252 . S
C55 O46 1.272 . S
C55 O47 1.245 . S
O56 Co32 2.053 . S
O56 C48 1.259 . S
O57 Co34 2.047 . S
O57 C48 1.257 . S
O58 Co33 2.063 . S
O58 C49 1.268 . S
O59 Co32 2.094 . S
O59 C49 1.253 . S
O60 Co39 2.115 . S
O60 C50 1.281 1_655 S
O61 Co39 2.315 . S
O61 C50 1.252 1_655 S
O62 Co32 2.122 . S
O62 C51 1.272 . S
O63 Co34 2.113 . S
O63 C51 1.245 . S
Co64 H67 2.400 . S
Co64 O68 2.009 . S
Co64 O76 2.115 . S
Co64 O77 2.315 . S
Co64 O88 2.053 . S
Co64 O91 2.094 . S
Co64 O94 2.122 . S
Co65 O68 2.126 . S
Co65 H69 2.388 . S
Co65 O70 2.053 . S
Co65 O73 2.047 . S
Co65 O79 2.113 . S
Co65 O90 2.063 . S
Co66 H67 2.388 . S
Co66 O68 2.053 . S
Co66 O70 2.126 . S
Co66 O75 2.063 . S
Co66 O89 2.047 . S
Co66 O95 2.113 . S
H67 Co64 2.400 . S
H67 Co66 2.388 . S
H67 O68 0.760 . S
O68 Co64 2.009 . S
O68 Co65 2.126 . S
O68 Co66 2.053 . S
O68 H67 0.760 . S
H69 Co65 2.388 . S
H69 O70 0.760 . S
H69 Co71 2.400 . S
O70 Co65 2.053 . S
O70 Co66 2.126 . S
O70 H69 0.760 . S
O70 Co71 2.009 . S
Co71 H69 2.400 . S
Co71 O70 2.009 . S
Co71 O72 2.053 . S
Co71 O74 2.094 . S
Co71 O78 2.122 . S
Co71 O92 2.115 . S
Co71 O93 2.315 . S
O72 Co71 2.053 . S
O72 C84 1.259 . S
O73 Co65 2.047 . S
O73 C84 1.257 . S
O74 Co71 2.094 . S
O74 C85 1.253 . S
O75 Co66 2.063 . S
O75 C85 1.268 . S
O76 Co64 2.115 . S
O76 C86 1.281 . S
O77 Co64 2.315 . S
O77 C86 1.252 . S
O78 Co71 2.122 . S
O78 C87 1.272 . S
O79 Co65 2.113 . S
O79 C87 1.245 . S
C80 O88 1.259 . S
C80 O89 1.257 . S
C81 O90 1.268 . S
C81 O91 1.253 . S
C82 O92 1.281 . S
C82 O93 1.252 . S
C83 O94 1.272 . S
C83 O95 1.245 . S
C84 O72 1.259 . S
C84 O73 1.257 . S
C85 O74 1.253 . S
C85 O75 1.268 . S
C86 O76 1.281 . S
C86 O77 1.252 . S
C87 O78 1.272 . S
C87 O79 1.245 . S
O88 Co64 2.053 . S
O88 C80 1.259 . S
O89 Co66 2.047 . S
O89 C80 1.257 . S
O90 Co65 2.063 . S
O90 C81 1.268 . S
O91 Co64 2.094 . S
O91 C81 1.253 . S
O92 Co71 2.115 . S
O92 C82 1.281 . S
O93 Co71 2.315 . S
O93 C82 1.252 . S
O94 Co64 2.122 . S
O94 C83 1.272 . S
O95 Co66 2.113 . S
O95 C83 1.245 . S
Co96 H99 2.400 . S
Co96 O100 2.009 . S
Co96 O108 2.115 . S
Co96 O109 2.315 . S
Co96 O120 2.053 . S
Co96 O123 2.094 . S
Co96 O126 2.122 . S
Co97 O100 2.126 . S
Co97 H101 2.388 . S
Co97 O102 2.053 . S
Co97 O105 2.047 . S
Co97 O111 2.113 . S
Co97 O122 2.063 . S
Co98 H99 2.388 . S
Co98 O100 2.053 . S
Co98 O102 2.126 . S
Co98 O107 2.063 . S
Co98 O121 2.047 . S
Co98 O127 2.113 . S
H99 Co96 2.400 . S
H99 Co98 2.388 . S
H99 O100 0.760 . S
O100 Co96 2.009 . S
O100 Co97 2.126 . S
O100 Co98 2.053 . S
O100 H99 0.760 . S
H101 Co97 2.388 . S
H101 O102 0.760 . S
H101 Co103 2.400 . S
O102 Co97 2.053 . S
O102 Co98 2.126 . S
O102 H101 0.760 . S
O102 Co103 2.009 . S
Co103 H101 2.400 . S
Co103 O102 2.009 . S
Co103 O104 2.053 . S
Co103 O106 2.094 . S
Co103 O110 2.122 . S
Co103 O124 2.115 . S
Co103 O125 2.315 . S
O104 Co103 2.053 . S
O104 C116 1.259 . S
O105 Co97 2.047 . S
O105 C116 1.257 . S
O106 Co103 2.094 . S
O106 C117 1.253 . S
O107 Co98 2.063 . S
O107 C117 1.268 . S
O108 Co96 2.115 . S
O108 C118 1.281 . S
O109 Co96 2.315 . S
O109 C118 1.252 . S
O110 Co103 2.122 . S
O110 C119 1.272 . S
O111 Co97 2.113 . S
O111 C119 1.245 . S
C112 O120 1.259 . S
C112 O121 1.257 . S
C113 O122 1.268 . S
C113 O123 1.253 . S
C114 O124 1.281 1_455 S
C114 O125 1.252 1_455 S
C115 O126 1.272 . S
C115 O127 1.245 . S
C116 O104 1.259 . S
C116 O105 1.257 . S
C117 O106 1.253 . S
C117 O107 1.268 . S
C118 O108 1.281 . S
C118 O109 1.252 . S
C119 O110 1.272 . S
C119 O111 1.245 . S
O120 Co96 2.053 . S
O120 C112 1.259 . S
O121 Co98 2.047 . S
O121 C112 1.257 . S
O122 Co97 2.063 . S
O122 C113 1.268 . S
O123 Co96 2.094 . S
O123 C113 1.253 . S
O124 Co103 2.115 . S
O124 C114 1.281 1_655 S
O125 Co103 2.315 . S
O125 C114 1.252 1_655 S
O126 Co96 2.122 . S
O126 C115 1.272 . S
O127 Co98 2.113 . S
O127 C115 1.245 . S
Co128 H131 2.400 . S
Co128 O132 2.009 . S
Co128 O140 2.115 . S
Co128 O141 2.315 . S
Co128 O152 2.053 . S
Co128 O155 2.094 . S
Co128 O158 2.122 . S
Co129 O132 2.126 . S
Co129 H133 2.388 . S
Co129 O134 2.053 . S
Co129 O137 2.047 . S
Co129 O143 2.113 . S
Co129 O154 2.063 . S
Co130 H131 2.388 . S
Co130 O132 2.053 . S
Co130 O134 2.126 . S
Co130 O139 2.063 . S
Co130 O153 2.047 . S
Co130 O159 2.113 . S
H131 Co128 2.400 . S
H131 Co130 2.388 . S
H131 O132 0.760 . S
O132 Co128 2.009 . S
O132 Co129 2.126 . S
O132 Co130 2.053 . S
O132 H131 0.760 . S
H133 Co129 2.388 . S
H133 O134 0.760 . S
H133 Co135 2.400 . S
O134 Co129 2.053 . S
O134 Co130 2.126 . S
O134 H133 0.760 . S
O134 Co135 2.009 . S
Co135 H133 2.400 . S
Co135 O134 2.009 . S
Co135 O136 2.053 . S
Co135 O138 2.094 . S
Co135 O142 2.122 . S
Co135 O156 2.115 . S
Co135 O157 2.315 . S
O136 Co135 2.053 . S
O136 C148 1.259 . S
O137 Co129 2.047 . S
O137 C148 1.257 . S
O138 Co135 2.094 . S
O138 C149 1.253 . S
O139 Co130 2.063 . S
O139 C149 1.268 . S
O140 Co128 2.115 . S
O140 C150 1.281 1_455 S
O141 Co128 2.315 . S
O141 C150 1.252 1_455 S
O142 Co135 2.122 . S
O142 C151 1.272 . S
O143 Co129 2.113 . S
O143 C151 1.245 . S
C144 O152 1.259 . S
C144 O153 1.257 . S
C145 O154 1.268 . S
C145 O155 1.253 . S
C146 O156 1.281 . S
C146 O157 1.252 . S
C147 O158 1.272 . S
C147 O159 1.245 . S
C148 O136 1.259 . S
C148 O137 1.257 . S
C149 O138 1.253 . S
C149 O139 1.268 . S
C150 O140 1.281 1_655 S
C150 O141 1.252 1_655 S
C151 O142 1.272 . S
C151 O143 1.245 . S
O152 Co128 2.053 . S
O152 C144 1.259 . S
O153 Co130 2.047 . S
O153 C144 1.257 . S
O154 Co129 2.063 . S
O154 C145 1.268 . S
O155 Co128 2.094 . S
O155 C145 1.253 . S
O156 Co135 2.115 . S
O156 C146 1.281 . S
O157 Co135 2.315 . S
O157 C146 1.252 . S
O158 Co128 2.122 . S
O158 C147 1.272 . S
O159 Co130 2.113 . S
O159 C147 1.245 . S
Co160 H163 2.400 . S
Co160 O164 2.009 . S
Co160 O172 2.115 . S
Co160 O173 2.315 . S
Co160 O184 2.053 . S
Co160 O187 2.094 . S
Co160 O190 2.122 . S
Co161 O164 2.126 . S
Co161 H165 2.388 . S
Co161 O166 2.053 . S
Co161 O169 2.047 . S
Co161 O175 2.113 . S
Co161 O186 2.063 . S
Co162 H163 2.388 . S
Co162 O164 2.053 . S
Co162 O166 2.126 . S
Co162 O171 2.063 . S
Co162 O185 2.047 . S
Co162 O191 2.113 . S
H163 Co160 2.400 . S
H163 Co162 2.388 . S
H163 O164 0.760 . S
O164 Co160 2.009 . S
O164 Co161 2.126 . S
O164 Co162 2.053 . S
O164 H163 0.760 . S
H165 Co161 2.388 . S
H165 O166 0.760 . S
H165 Co167 2.400 . S
O166 Co161 2.053 . S
O166 Co162 2.126 . S
O166 H165 0.760 . S
O166 Co167 2.009 . S
Co167 H165 2.400 . S
Co167 O166 2.009 . S
Co167 O168 2.053 . S
Co167 O170 2.094 . S
Co167 O174 2.122 . S
Co167 O188 2.115 . S
Co167 O189 2.315 . S
O168 Co167 2.053 . S
O168 C180 1.259 . S
O169 Co161 2.047 . S
O169 C180 1.257 . S
O170 Co167 2.094 . S
O170 C181 1.253 . S
O171 Co162 2.063 . S
O171 C181 1.268 . S
O172 Co160 2.115 . S
O172 C182 1.281 . S
O173 Co160 2.315 . S
O173 C182 1.252 . S
O174 Co167 2.122 . S
O174 C183 1.272 . S
O175 Co161 2.113 . S
O175 C183 1.245 . S
C176 O184 1.259 . S
C176 O185 1.257 . S
C177 O186 1.268 . S
C177 O187 1.253 . S
C178 O188 1.281 . S
C178 O189 1.252 . S
C179 O190 1.272 . S
C179 O191 1.245 . S
C180 O168 1.259 . S
C180 O169 1.257 . S
C181 O170 1.253 . S
C181 O171 1.268 . S
C182 O172 1.281 . S
C182 O173 1.252 . S
C183 O174 1.272 . S
C183 O175 1.245 . S
O184 Co160 2.053 . S
O184 C176 1.259 . S
O185 Co162 2.047 . S
O185 C176 1.257 . S
O186 Co161 2.063 . S
O186 C177 1.268 . S
O187 Co160 2.094 . S
O187 C177 1.253 . S
O188 Co167 2.115 . S
O188 C178 1.281 . S
O189 Co167 2.315 . S
O189 C178 1.252 . S
O190 Co160 2.122 . S
O190 C179 1.272 . S
O191 Co162 2.113 . S
O191 C179 1.245 . S
Co192 H195 2.400 . S
Co192 O196 2.009 . S
Co192 O204 2.115 . S
Co192 O205 2.315 . S
Co192 O216 2.053 . S
Co192 O219 2.094 . S
Co192 O222 2.122 . S
Co193 O196 2.126 . S
Co193 H197 2.388 . S
Co193 O198 2.053 . S
Co193 O201 2.047 . S
Co193 O207 2.113 . S
Co193 O218 2.063 . S
Co194 H195 2.388 . S
Co194 O196 2.053 . S
Co194 O198 2.126 . S
Co194 O203 2.063 . S
Co194 O217 2.047 . S
Co194 O223 2.113 . S
H195 Co192 2.400 . S
H195 Co194 2.388 . S
H195 O196 0.760 . S
O196 Co192 2.009 . S
O196 Co193 2.126 . S
O196 Co194 2.053 . S
O196 H195 0.760 . S
H197 Co193 2.388 . S
H197 O198 0.760 . S
H197 Co199 2.400 . S
O198 Co193 2.053 . S
O198 Co194 2.126 . S
O198 H197 0.760 . S
O198 Co199 2.009 . S
Co199 H197 2.400 . S
Co199 O198 2.009 . S
Co199 O200 2.053 . S
Co199 O202 2.094 . S
Co199 O206 2.122 . S
Co199 O220 2.115 . S
Co199 O221 2.315 . S
O200 Co199 2.053 . S
O200 C212 1.259 . S
O201 Co193 2.047 . S
O201 C212 1.257 . S
O202 Co199 2.094 . S
O202 C213 1.253 . S
O203 Co194 2.063 . S
O203 C213 1.268 . S
O204 Co192 2.115 . S
O204 C214 1.281 . S
O205 Co192 2.315 . S
O205 C214 1.252 . S
O206 Co199 2.122 . S
O206 C215 1.272 . S
O207 Co193 2.113 . S
O207 C215 1.245 . S
C208 O216 1.259 . S
C208 O217 1.257 . S
C209 O218 1.268 . S
C209 O219 1.253 . S
C210 O220 1.281 . S
C210 O221 1.252 . S
C211 O222 1.272 . S
C211 O223 1.245 . S
C212 O200 1.259 . S
C212 O201 1.257 . S
C213 O202 1.253 . S
C213 O203 1.268 . S
C214 O204 1.281 . S
C214 O205 1.252 . S
C215 O206 1.272 . S
C215 O207 1.245 . S
O216 Co192 2.053 . S
O216 C208 1.259 . S
O217 Co194 2.047 . S
O217 C208 1.257 . S
O218 Co193 2.063 . S
O218 C209 1.268 . S
O219 Co192 2.094 . S
O219 C209 1.253 . S
O220 Co199 2.115 . S
O220 C210 1.281 . S
O221 Co199 2.315 . S
O221 C210 1.252 . S
O222 Co192 2.122 . S
O222 C211 1.272 . S
O223 Co194 2.113 . S
O223 C211 1.245 . S
Co224 H227 2.400 . S
Co224 O228 2.009 . S
Co224 O236 2.115 . S
Co224 O237 2.315 . S
Co224 O248 2.053 . S
Co224 O251 2.094 . S
Co224 O254 2.122 . S
Co225 O228 2.126 . S
Co225 H229 2.388 . S
Co225 O230 2.053 . S
Co225 O233 2.047 . S
Co225 O239 2.113 . S
Co225 O250 2.063 . S
Co226 H227 2.388 . S
Co226 O228 2.053 . S
Co226 O230 2.126 . S
Co226 O235 2.063 . S
Co226 O249 2.047 . S
Co226 O255 2.113 . S
H227 Co224 2.400 . S
H227 Co226 2.388 . S
H227 O228 0.760 . S
O228 Co224 2.009 . S
O228 Co225 2.126 . S
O228 Co226 2.053 . S
O228 H227 0.760 . S
H229 Co225 2.388 . S
H229 O230 0.760 . S
H229 Co231 2.400 . S
O230 Co225 2.053 . S
O230 Co226 2.126 . S
O230 H229 0.760 . S
O230 Co231 2.009 . S
Co231 H229 2.400 . S
Co231 O230 2.009 . S
Co231 O232 2.053 . S
Co231 O234 2.094 . S
Co231 O238 2.122 . S
Co231 O252 2.115 . S
Co231 O253 2.315 . S
O232 Co231 2.053 . S
O232 C244 1.259 . S
O233 Co225 2.047 . S
O233 C244 1.257 . S
O234 Co231 2.094 . S
O234 C245 1.253 . S
O235 Co226 2.063 . S
O235 C245 1.268 . S
O236 Co224 2.115 . S
O236 C246 1.281 . S
O237 Co224 2.315 . S
O237 C246 1.252 . S
O238 Co231 2.122 . S
O238 C247 1.272 . S
O239 Co225 2.113 . S
O239 C247 1.245 . S
C240 O248 1.259 . S
C240 O249 1.257 . S
C241 O250 1.268 . S
C241 O251 1.253 . S
C242 O252 1.281 . S
C242 O253 1.252 . S
C243 O254 1.272 . S
C243 O255 1.245 . S
C244 O232 1.259 . S
C244 O233 1.257 . S
C245 O234 1.253 . S
C245 O235 1.268 . S
C246 O236 1.281 . S
C246 O237 1.252 . S
C247 O238 1.272 . S
C247 O239 1.245 . S
O248 Co224 2.053 . S
O248 C240 1.259 . S
O249 Co226 2.047 . S
O249 C240 1.257 . S
O250 Co225 2.063 . S
O250 C241 1.268 . S
O251 Co224 2.094 . S
O251 C241 1.253 . S
O252 Co231 2.115 . S
O252 C242 1.281 . S
O253 Co231 2.315 . S
O253 C242 1.252 . S
O254 Co224 2.122 . S
O254 C243 1.272 . S
O255 Co226 2.113 . S
O255 C243 1.245 . S
Co256 H259 2.400 . S
Co256 O260 2.009 . S
Co256 O268 2.115 . S
Co256 O269 2.315 . S
Co256 O280 2.053 . S
Co256 O283 2.094 . S
Co256 O286 2.122 . S
Co257 O260 2.126 . S
Co257 H261 2.388 . S
Co257 O262 2.053 . S
Co257 O265 2.047 . S
Co257 O271 2.113 . S
Co257 O282 2.063 . S
Co258 H259 2.388 . S
Co258 O260 2.053 . S
Co258 O262 2.126 . S
Co258 O267 2.063 . S
Co258 O281 2.047 . S
Co258 O287 2.113 . S
H259 Co256 2.400 . S
H259 Co258 2.388 . S
H259 O260 0.760 . S
O260 Co256 2.009 . S
O260 Co257 2.126 . S
O260 Co258 2.053 . S
O260 H259 0.760 . S
H261 Co257 2.388 . S
H261 O262 0.760 . S
H261 Co263 2.400 . S
O262 Co257 2.053 . S
O262 Co258 2.126 . S
O262 H261 0.760 . S
O262 Co263 2.009 . S
Co263 H261 2.400 . S
Co263 O262 2.009 . S
Co263 O264 2.053 . S
Co263 O266 2.094 . S
Co263 O270 2.122 . S
Co263 O284 2.115 . S
Co263 O285 2.315 . S
O264 Co263 2.053 . S
O264 C276 1.259 . S
O265 Co257 2.047 . S
O265 C276 1.257 . S
O266 Co263 2.094 . S
O266 C277 1.253 . S
O267 Co258 2.063 . S
O267 C277 1.268 . S
O268 Co256 2.115 . S
O268 C278 1.281 . S
O269 Co256 2.315 . S
O269 C278 1.252 . S
O270 Co263 2.122 . S
O270 C279 1.272 . S
O271 Co257 2.113 . S
O271 C279 1.245 . S
C272 O280 1.259 . S
C272 O281 1.257 . S
C273 O282 1.268 . S
C273 O283 1.253 . S
C274 O284 1.281 . S
C274 O285 1.252 . S
C275 O286 1.272 . S
C275 O287 1.245 . S
C276 O264 1.259 . S
C276 O265 1.257 . S
C277 O266 1.253 . S
C277 O267 1.268 . S
C278 O268 1.281 . S
C278 O269 1.252 . S
C279 O270 1.272 . S
C279 O271 1.245 . S
O280 Co256 2.053 . S
O280 C272 1.259 . S
O281 Co258 2.047 . S
O281 C272 1.257 . S
O282 Co257 2.063 . S
O282 C273 1.268 . S
O283 Co256 2.094 . S
O283 C273 1.253 . S
O284 Co263 2.115 . S
O284 C274 1.281 . S
O285 Co263 2.315 . S
O285 C274 1.252 . S
O286 Co256 2.122 . S
O286 C275 1.272 . S
O287 Co258 2.113 . S
O287 C275 1.245 . S
Co288 H291 2.400 . S
Co288 O292 2.009 . S
Co288 O300 2.115 . S
Co288 O301 2.315 . S
Co288 O312 2.053 . S
Co288 O315 2.094 . S
Co288 O318 2.122 . S
Co289 O292 2.126 . S
Co289 H293 2.388 . S
Co289 O294 2.053 . S
Co289 O297 2.047 . S
Co289 O303 2.113 . S
Co289 O314 2.063 . S
Co290 H291 2.388 . S
Co290 O292 2.053 . S
Co290 O294 2.126 . S
Co290 O299 2.063 . S
Co290 O313 2.047 . S
Co290 O319 2.113 . S
H291 Co288 2.400 . S
H291 Co290 2.388 . S
H291 O292 0.760 . S
O292 Co288 2.009 . S
O292 Co289 2.126 . S
O292 Co290 2.053 . S
O292 H291 0.760 . S
H293 Co289 2.388 . S
H293 O294 0.760 . S
H293 Co295 2.400 . S
O294 Co289 2.053 . S
O294 Co290 2.126 . S
O294 H293 0.760 . S
O294 Co295 2.009 . S
Co295 H293 2.400 . S
Co295 O294 2.009 . S
Co295 O296 2.053 . S
Co295 O298 2.094 . S
Co295 O302 2.122 . S
Co295 O316 2.115 . S
Co295 O317 2.315 . S
O296 Co295 2.053 . S
O296 C308 1.259 . S
O297 Co289 2.047 . S
O297 C308 1.257 . S
O298 Co295 2.094 . S
O298 C309 1.253 . S
O299 Co290 2.063 . S
O299 C309 1.268 . S
O300 Co288 2.115 . S
O300 C310 1.281 . S
O301 Co288 2.315 . S
O301 C310 1.252 . S
O302 Co295 2.122 . S
O302 C311 1.272 . S
O303 Co289 2.113 . S
O303 C311 1.245 . S
C304 O312 1.259 . S
C304 O313 1.257 . S
C305 O314 1.268 . S
C305 O315 1.253 . S
C306 O316 1.281 . S
C306 O317 1.252 . S
C307 O318 1.272 . S
C307 O319 1.245 . S
C308 O296 1.259 . S
C308 O297 1.257 . S
C309 O298 1.253 . S
C309 O299 1.268 . S
C310 O300 1.281 . S
C310 O301 1.252 . S
C311 O302 1.272 . S
C311 O303 1.245 . S
O312 Co288 2.053 . S
O312 C304 1.259 . S
O313 Co290 2.047 . S
O313 C304 1.257 . S
O314 Co289 2.063 . S
O314 C305 1.268 . S
O315 Co288 2.094 . S
O315 C305 1.253 . S
O316 Co295 2.115 . S
O316 C306 1.281 . S
O317 Co295 2.315 . S
O317 C306 1.252 . S
O318 Co288 2.122 . S
O318 C307 1.272 . S
O319 Co290 2.113 . S
O319 C307 1.245 . S
Co320 H323 2.400 . S
Co320 O324 2.009 . S
Co320 O332 2.115 . S
Co320 O333 2.315 . S
Co320 O344 2.053 . S
Co320 O347 2.094 . S
Co320 O350 2.122 . S
Co321 O324 2.126 . S
Co321 H325 2.388 . S
Co321 O326 2.053 . S
Co321 O329 2.047 . S
Co321 O335 2.113 . S
Co321 O346 2.063 . S
Co322 H323 2.388 . S
Co322 O324 2.053 . S
Co322 O326 2.126 . S
Co322 O331 2.063 . S
Co322 O345 2.047 . S
Co322 O351 2.113 . S
H323 Co320 2.400 . S
H323 Co322 2.388 . S
H323 O324 0.760 . S
O324 Co320 2.009 . S
O324 Co321 2.126 . S
O324 Co322 2.053 . S
O324 H323 0.760 . S
H325 Co321 2.388 . S
H325 O326 0.760 . S
H325 Co327 2.400 . S
O326 Co321 2.053 . S
O326 Co322 2.126 . S
O326 H325 0.760 . S
O326 Co327 2.009 . S
Co327 H325 2.400 . S
Co327 O326 2.009 . S
Co327 O328 2.053 . S
Co327 O330 2.094 . S
Co327 O334 2.122 . S
Co327 O348 2.115 . S
Co327 O349 2.315 . S
O328 Co327 2.053 . S
O328 C340 1.259 . S
O329 Co321 2.047 . S
O329 C340 1.257 . S
O330 Co327 2.094 . S
O330 C341 1.253 . S
O331 Co322 2.063 . S
O331 C341 1.268 . S
O332 Co320 2.115 . S
O332 C342 1.281 . S
O333 Co320 2.315 . S
O333 C342 1.252 . S
O334 Co327 2.122 . S
O334 C343 1.272 . S
O335 Co321 2.113 . S
O335 C343 1.245 . S
C336 O344 1.259 . S
C336 O345 1.257 . S
C337 O346 1.268 . S
C337 O347 1.253 . S
C338 O348 1.281 . S
C338 O349 1.252 . S
C339 O350 1.272 . S
C339 O351 1.245 . S
C340 O328 1.259 . S
C340 O329 1.257 . S
C341 O330 1.253 . S
C341 O331 1.268 . S
C342 O332 1.281 . S
C342 O333 1.252 . S
C343 O334 1.272 . S
C343 O335 1.245 . S
O344 Co320 2.053 . S
O344 C336 1.259 . S
O345 Co322 2.047 . S
O345 C336 1.257 . S
O346 Co321 2.063 . S
O346 C337 1.268 . S
O347 Co320 2.094 . S
O347 C337 1.253 . S
O348 Co327 2.115 . S
O348 C338 1.281 . S
O349 Co327 2.315 . S
O349 C338 1.252 . S
O350 Co320 2.122 . S
O350 C339 1.272 . S
O351 Co322 2.113 . S
O351 C339 1.245 . S
Co352 H355 2.400 . S
Co352 O356 2.009 . S
Co352 O364 2.115 1_655 S
Co352 O365 2.315 1_655 S
Co352 O376 2.053 . S
Co352 O379 2.087 1_655 S
Co352 O382 2.122 . S
Co353 O356 2.126 . S
Co353 H357 2.388 . S
Co353 O358 2.053 . S
Co353 O361 2.047 . S
Co353 O367 2.113 . S
Co353 O378 2.063 . S
Co354 H355 2.388 . S
Co354 O356 2.053 . S
Co354 O358 2.126 . S
Co354 O363 2.063 . S
Co354 O377 2.047 . S
Co354 O383 2.113 . S
H355 Co352 2.400 . S
H355 Co354 2.388 . S
H355 O356 0.760 . S
O356 Co352 2.009 . S
O356 Co353 2.126 . S
O356 Co354 2.053 . S
O356 H355 0.760 . S
H357 Co353 2.388 . S
H357 O358 0.760 . S
H357 Co359 2.400 . S
O358 Co353 2.053 . S
O358 Co354 2.126 . S
O358 H357 0.760 . S
O358 Co359 2.009 . S
Co359 H357 2.400 . S
Co359 O358 2.009 . S
Co359 O360 2.053 . S
Co359 O362 2.094 . S
Co359 O366 2.122 . S
Co359 O380 2.115 . S
Co359 O381 2.315 . S
O360 Co359 2.053 . S
O360 C372 1.259 . S
O361 Co353 2.047 . S
O361 C372 1.257 . S
O362 Co359 2.094 . S
O362 C373 1.253 . S
O363 Co354 2.063 . S
O363 C373 1.268 . S
O364 Co352 2.115 1_455 S
O364 C374 1.281 . S
O365 Co352 2.315 1_455 S
O365 C374 1.252 . S
O366 Co359 2.122 . S
O366 C375 1.272 . S
O367 Co353 2.113 . S
O367 C375 1.245 . S
C368 O376 1.259 . S
C368 O377 1.257 . S
C369 O378 1.268 1_455 S
C369 O379 1.254 . S
C370 O380 1.281 . S
C370 O381 1.252 . S
C371 O382 1.272 . S
C371 O383 1.245 . S
C372 O360 1.259 . S
C372 O361 1.257 . S
C373 O362 1.253 . S
C373 O363 1.268 . S
C374 O364 1.281 . S
C374 O365 1.252 . S
C375 O366 1.272 . S
C375 O367 1.245 . S
O376 Co352 2.053 . S
O376 C368 1.259 . S
O377 Co354 2.047 . S
O377 C368 1.257 . S
O378 Co353 2.063 . S
O378 C369 1.268 1_655 S
O379 Co352 2.087 1_455 S
O379 C369 1.254 . S
O380 Co359 2.115 . S
O380 C370 1.281 . S
O381 Co359 2.315 . S
O381 C370 1.252 . S
O382 Co352 2.122 . S
O382 C371 1.272 . S
O383 Co354 2.113 . S
O383 C371 1.245 . S
Co384 H387 2.400 . S
Co384 O388 2.009 . S
Co384 O396 2.115 . S
Co384 O397 2.315 . S
Co384 O408 2.053 . S
Co384 O411 2.094 . S
Co384 O414 2.122 . S
Co385 O388 2.126 . S
Co385 H389 2.388 . S
Co385 O390 2.053 . S
Co385 O393 2.047 . S
Co385 O399 2.113 . S
Co385 O410 2.063 . S
Co386 H387 2.388 . S
Co386 O388 2.053 . S
Co386 O390 2.126 . S
Co386 O395 2.063 . S
Co386 O409 2.047 . S
Co386 O415 2.113 . S
H387 Co384 2.400 . S
H387 Co386 2.388 . S
H387 O388 0.760 . S
O388 Co384 2.009 . S
O388 Co385 2.126 . S
O388 Co386 2.053 . S
O388 H387 0.760 . S
H389 Co385 2.388 . S
H389 O390 0.760 . S
H389 Co391 2.400 . S
O390 Co385 2.053 . S
O390 Co386 2.126 . S
O390 H389 0.760 . S
O390 Co391 2.009 . S
Co391 H389 2.400 . S
Co391 O390 2.009 . S
Co391 O392 2.053 . S
Co391 O394 2.087 1_455 S
Co391 O398 2.122 . S
Co391 O412 2.115 1_455 S
Co391 O413 2.315 1_455 S
O392 Co391 2.053 . S
O392 C404 1.259 . S
O393 Co385 2.047 . S
O393 C404 1.257 . S
O394 Co391 2.087 1_655 S
O394 C405 1.254 . S
O395 Co386 2.063 . S
O395 C405 1.268 1_455 S
O396 Co384 2.115 . S
O396 C406 1.281 . S
O397 Co384 2.315 . S
O397 C406 1.252 . S
O398 Co391 2.122 . S
O398 C407 1.272 . S
O399 Co385 2.113 . S
O399 C407 1.245 . S
C400 O408 1.259 . S
C400 O409 1.257 . S
C401 O410 1.268 . S
C401 O411 1.253 . S
C402 O412 1.281 . S
C402 O413 1.252 . S
C403 O414 1.272 . S
C403 O415 1.245 . S
C404 O392 1.259 . S
C404 O393 1.257 . S
C405 O394 1.254 . S
C405 O395 1.268 1_655 S
C406 O396 1.281 . S
C406 O397 1.252 . S
C407 O398 1.272 . S
C407 O399 1.245 . S
O408 Co384 2.053 . S
O408 C400 1.259 . S
O409 Co386 2.047 . S
O409 C400 1.257 . S
O410 Co385 2.063 . S
O410 C401 1.268 . S
O411 Co384 2.094 . S
O411 C401 1.253 . S
O412 Co391 2.115 1_655 S
O412 C402 1.281 . S
O413 Co391 2.315 1_655 S
O413 C402 1.252 . S
O414 Co384 2.122 . S
O414 C403 1.272 . S
O415 Co386 2.113 . S
O415 C403 1.245 . S
Co416 H419 2.400 . S
Co416 O420 2.009 . S
Co416 O428 2.115 . S
Co416 O429 2.315 . S
Co416 O440 2.053 . S
Co416 O443 2.094 . S
Co416 O446 2.122 . S
Co417 O420 2.126 . S
Co417 H421 2.388 . S
Co417 O422 2.053 . S
Co417 O425 2.047 . S
Co417 O431 2.113 . S
Co417 O442 2.063 . S
Co418 H419 2.388 . S
Co418 O420 2.053 . S
Co418 O422 2.126 . S
Co418 O427 2.063 . S
Co418 O441 2.047 . S
Co418 O447 2.113 . S
H419 Co416 2.400 . S
H419 Co418 2.388 . S
H419 O420 0.760 . S
O420 Co416 2.009 . S
O420 Co417 2.126 . S
O420 Co418 2.053 . S
O420 H419 0.760 . S
H421 Co417 2.388 . S
H421 O422 0.760 . S
H421 Co423 2.400 . S
O422 Co417 2.053 . S
O422 Co418 2.126 . S
O422 H421 0.760 . S
O422 Co423 2.009 . S
Co423 H421 2.400 . S
Co423 O422 2.009 . S
Co423 O424 2.053 . S
Co423 O426 2.094 . S
Co423 O430 2.122 . S
Co423 O444 2.115 . S
Co423 O445 2.315 . S
O424 Co423 2.053 . S
O424 C436 1.259 . S
O425 Co417 2.047 . S
O425 C436 1.257 . S
O426 Co423 2.094 . S
O426 C437 1.253 . S
O427 Co418 2.063 . S
O427 C437 1.268 . S
O428 Co416 2.115 . S
O428 C438 1.281 1_554 S
O429 Co416 2.315 . S
O429 C438 1.252 1_554 S
O430 Co423 2.122 . S
O430 C439 1.272 . S
O431 Co417 2.113 . S
O431 C439 1.245 . S
C432 O440 1.259 . S
C432 O441 1.257 . S
C433 O442 1.268 . S
C433 O443 1.253 . S
C434 O444 1.281 . S
C434 O445 1.252 . S
C435 O446 1.272 . S
C435 O447 1.245 . S
C436 O424 1.259 . S
C436 O425 1.257 . S
C437 O426 1.253 . S
C437 O427 1.268 . S
C438 O428 1.281 1_556 S
C438 O429 1.252 1_556 S
C439 O430 1.272 . S
C439 O431 1.245 . S
O440 Co416 2.053 . S
O440 C432 1.259 . S
O441 Co418 2.047 . S
O441 C432 1.257 . S
O442 Co417 2.063 . S
O442 C433 1.268 . S
O443 Co416 2.094 . S
O443 C433 1.253 . S
O444 Co423 2.115 . S
O444 C434 1.281 . S
O445 Co423 2.315 . S
O445 C434 1.252 . S
O446 Co416 2.122 . S
O446 C435 1.272 . S
O447 Co418 2.113 . S
O447 C435 1.245 . S
Co448 H451 2.400 . S
Co448 O452 2.009 . S
Co448 O460 2.115 . S
Co448 O461 2.315 . S
Co448 O472 2.053 . S
Co448 O475 2.094 . S
Co448 O478 2.122 . S
Co449 O452 2.126 . S
Co449 H453 2.388 . S
Co449 O454 2.053 . S
Co449 O457 2.047 . S
Co449 O463 2.113 . S
Co449 O474 2.063 . S
Co450 H451 2.388 . S
Co450 O452 2.053 . S
Co450 O454 2.126 . S
Co450 O459 2.063 . S
Co450 O473 2.047 . S
Co450 O479 2.113 . S
H451 Co448 2.400 . S
H451 Co450 2.388 . S
H451 O452 0.760 . S
O452 Co448 2.009 . S
O452 Co449 2.126 . S
O452 Co450 2.053 . S
O452 H451 0.760 . S
H453 Co449 2.388 . S
H453 O454 0.760 . S
H453 Co455 2.400 . S
O454 Co449 2.053 . S
O454 Co450 2.126 . S
O454 H453 0.760 . S
O454 Co455 2.009 . S
Co455 H453 2.400 . S
Co455 O454 2.009 . S
Co455 O456 2.053 . S
Co455 O458 2.094 . S
Co455 O462 2.122 . S
Co455 O476 2.115 . S
Co455 O477 2.315 . S
O456 Co455 2.053 . S
O456 C468 1.259 . S
O457 Co449 2.047 . S
O457 C468 1.257 . S
O458 Co455 2.094 . S
O458 C469 1.253 . S
O459 Co450 2.063 . S
O459 C469 1.268 . S
O460 Co448 2.115 . S
O460 C470 1.281 . S
O461 Co448 2.315 . S
O461 C470 1.252 . S
O462 Co455 2.122 . S
O462 C471 1.272 . S
O463 Co449 2.113 . S
O463 C471 1.245 . S
C464 O472 1.259 . S
C464 O473 1.257 . S
C465 O474 1.268 . S
C465 O475 1.253 . S
C466 O476 1.281 . S
C466 O477 1.252 . S
C467 O478 1.272 . S
C467 O479 1.245 . S
C468 O456 1.259 . S
C468 O457 1.257 . S
C469 O458 1.253 . S
C469 O459 1.268 . S
C470 O460 1.281 . S
C470 O461 1.252 . S
C471 O462 1.272 . S
C471 O463 1.245 . S
O472 Co448 2.053 . S
O472 C464 1.259 . S
O473 Co450 2.047 . S
O473 C464 1.257 . S
O474 Co449 2.063 . S
O474 C465 1.268 . S
O475 Co448 2.094 . S
O475 C465 1.253 . S
O476 Co455 2.115 . S
O476 C466 1.281 . S
O477 Co455 2.315 . S
O477 C466 1.252 . S
O478 Co448 2.122 . S
O478 C467 1.272 . S
O479 Co450 2.113 . S
O479 C467 1.245 . S
Co480 H483 2.400 . S
Co480 O484 2.009 . S
Co480 O492 2.115 . S
Co480 O493 2.315 . S
Co480 O504 2.053 . S
Co480 O507 2.094 . S
Co480 O510 2.122 . S
Co481 O484 2.126 . S
Co481 H485 2.388 . S
Co481 O486 2.053 . S
Co481 O489 2.047 1_565 S
Co481 O495 2.113 . S
Co481 O506 2.063 . S
Co482 H483 2.388 . S
Co482 O484 2.053 . S
Co482 O486 2.126 . S
Co482 O491 2.063 . S
Co482 O505 2.047 . S
Co482 O511 2.113 . S
H483 Co480 2.400 . S
H483 Co482 2.388 . S
H483 O484 0.760 . S
O484 Co480 2.009 . S
O484 Co481 2.126 . S
O484 Co482 2.053 . S
O484 H483 0.760 . S
H485 Co481 2.388 . S
H485 O486 0.760 . S
H485 Co487 2.400 . S
O486 Co481 2.053 . S
O486 Co482 2.126 . S
O486 H485 0.760 . S
O486 Co487 2.009 . S
Co487 H485 2.400 . S
Co487 O486 2.009 . S
Co487 O488 2.053 . S
Co487 O490 2.087 1_455 S
Co487 O494 2.122 . S
Co487 O508 2.115 1_455 S
Co487 O509 2.315 1_455 S
O488 Co487 2.053 . S
O488 C500 1.259 1_565 S
O489 Co481 2.047 1_545 S
O489 C500 1.257 . S
O490 Co487 2.087 1_655 S
O490 C501 1.254 . S
O491 Co482 2.063 . S
O491 C501 1.268 1_455 S
O492 Co480 2.115 . S
O492 C502 1.281 . S
O493 Co480 2.315 . S
O493 C502 1.252 . S
O494 Co487 2.122 . S
O494 C503 1.272 . S
O495 Co481 2.113 . S
O495 C503 1.245 . S
C496 O504 1.259 . S
C496 O505 1.257 . S
C497 O506 1.268 . S
C497 O507 1.253 . S
C498 O508 1.281 . S
C498 O509 1.252 . S
C499 O510 1.272 . S
C499 O511 1.245 . S
C500 O488 1.259 1_545 S
C500 O489 1.257 . S
C501 O490 1.254 . S
C501 O491 1.268 1_655 S
C502 O492 1.281 . S
C502 O493 1.252 . S
C503 O494 1.272 . S
C503 O495 1.245 . S
O504 Co480 2.053 . S
O504 C496 1.259 . S
O505 Co482 2.047 . S
O505 C496 1.257 . S
O506 Co481 2.063 . S
O506 C497 1.268 . S
O507 Co480 2.094 . S
O507 C497 1.253 . S
O508 Co487 2.115 1_655 S
O508 C498 1.281 . S
O509 Co487 2.315 1_655 S
O509 C498 1.252 . S
O510 Co480 2.122 . S
O510 C499 1.272 . S
O511 Co482 2.113 . S
O511 C499 1.245 . S
Co512 H515 2.400 . S
Co512 O516 2.009 . S
Co512 O524 2.115 . S
Co512 O525 2.315 . S
Co512 O536 2.053 . S
Co512 O539 2.094 . S
Co512 O542 2.122 . S
Co513 O516 2.126 . S
Co513 H517 2.388 . S
Co513 O518 2.053 . S
Co513 O521 2.047 . S
Co513 O527 2.113 . S
Co513 O538 2.063 . S
Co514 H515 2.388 . S
Co514 O516 2.053 . S
Co514 O518 2.126 . S
Co514 O523 2.063 . S
Co514 O537 2.047 . S
Co514 O543 2.113 . S
H515 Co512 2.400 . S
H515 Co514 2.388 . S
H515 O516 0.760 . S
O516 Co512 2.009 . S
O516 Co513 2.126 . S
O516 Co514 2.053 . S
O516 H515 0.760 . S
H517 Co513 2.388 . S
H517 O518 0.760 . S
H517 Co519 2.400 . S
O518 Co513 2.053 . S
O518 Co514 2.126 . S
O518 H517 0.760 . S
O518 Co519 2.009 . S
Co519 H517 2.400 . S
Co519 O518 2.009 . S
Co519 O520 2.053 . S
Co519 O522 2.094 . S
Co519 O526 2.122 . S
Co519 O540 2.115 . S
Co519 O541 2.315 . S
O520 Co519 2.053 . S
O520 C532 1.259 . S
O521 Co513 2.047 . S
O521 C532 1.257 . S
O522 Co519 2.094 . S
O522 C533 1.253 . S
O523 Co514 2.063 . S
O523 C533 1.268 . S
O524 Co512 2.115 . S
O524 C534 1.281 . S
O525 Co512 2.315 . S
O525 C534 1.252 . S
O526 Co519 2.122 . S
O526 C535 1.272 . S
O527 Co513 2.113 . S
O527 C535 1.245 . S
C528 O536 1.259 . S
C528 O537 1.257 . S
C529 O538 1.268 . S
C529 O539 1.253 . S
C530 O540 1.281 . S
C530 O541 1.252 . S
C531 O542 1.272 . S
C531 O543 1.245 . S
C532 O520 1.259 . S
C532 O521 1.257 . S
C533 O522 1.253 . S
C533 O523 1.268 . S
C534 O524 1.281 . S
C534 O525 1.252 . S
C535 O526 1.272 . S
C535 O527 1.245 . S
O536 Co512 2.053 . S
O536 C528 1.259 . S
O537 Co514 2.047 . S
O537 C528 1.257 . S
O538 Co513 2.063 . S
O538 C529 1.268 . S
O539 Co512 2.094 . S
O539 C529 1.253 . S
O540 Co519 2.115 . S
O540 C530 1.281 . S
O541 Co519 2.315 . S
O541 C530 1.252 . S
O542 Co512 2.122 . S
O542 C531 1.272 . S
O543 Co514 2.113 . S
O543 C531 1.245 . S
Co544 H547 2.400 . S
Co544 O548 2.009 . S
Co544 O556 2.115 . S
Co544 O557 2.315 . S
Co544 O568 2.053 . S
Co544 O571 2.094 . S
Co544 O574 2.122 . S
Co545 O548 2.126 . S
Co545 H549 2.388 . S
Co545 O550 2.053 . S
Co545 O553 2.047 . S
Co545 O559 2.113 . S
Co545 O570 2.063 . S
Co546 H547 2.388 . S
Co546 O548 2.053 . S
Co546 O550 2.126 . S
Co546 O555 2.063 . S
Co546 O569 2.047 . S
Co546 O575 2.113 . S
H547 Co544 2.400 . S
H547 Co546 2.388 . S
H547 O548 0.760 . S
O548 Co544 2.009 . S
O548 Co545 2.126 . S
O548 Co546 2.053 . S
O548 H547 0.760 . S
H549 Co545 2.388 . S
H549 O550 0.760 . S
H549 Co551 2.400 . S
O550 Co545 2.053 . S
O550 Co546 2.126 . S
O550 H549 0.760 . S
O550 Co551 2.009 . S
Co551 H549 2.400 . S
Co551 O550 2.009 . S
Co551 O552 2.053 . S
Co551 O554 2.094 . S
Co551 O558 2.122 . S
Co551 O572 2.115 . S
Co551 O573 2.315 . S
O552 Co551 2.053 . S
O552 C564 1.259 . S
O553 Co545 2.047 . S
O553 C564 1.257 . S
O554 Co551 2.094 . S
O554 C565 1.253 . S
O555 Co546 2.063 . S
O555 C565 1.268 . S
O556 Co544 2.115 . S
O556 C566 1.281 1_554 S
O557 Co544 2.315 . S
O557 C566 1.252 1_554 S
O558 Co551 2.122 . S
O558 C567 1.272 . S
O559 Co545 2.113 . S
O559 C567 1.245 . S
C560 O568 1.259 . S
C560 O569 1.257 . S
C561 O570 1.268 . S
C561 O571 1.253 . S
C562 O572 1.281 . S
C562 O573 1.252 . S
C563 O574 1.272 . S
C563 O575 1.245 . S
C564 O552 1.259 . S
C564 O553 1.257 . S
C565 O554 1.253 . S
C565 O555 1.268 . S
C566 O556 1.281 1_556 S
C566 O557 1.252 1_556 S
C567 O558 1.272 . S
C567 O559 1.245 . S
O568 Co544 2.053 . S
O568 C560 1.259 . S
O569 Co546 2.047 . S
O569 C560 1.257 . S
O570 Co545 2.063 . S
O570 C561 1.268 . S
O571 Co544 2.094 . S
O571 C561 1.253 . S
O572 Co551 2.115 . S
O572 C562 1.281 . S
O573 Co551 2.315 . S
O573 C562 1.252 . S
O574 Co544 2.122 . S
O574 C563 1.272 . S
O575 Co546 2.113 . S
O575 C563 1.245 . S
Co576 H579 2.400 . S
Co576 O580 2.009 . S
Co576 O588 2.115 . S
Co576 O589 2.315 . S
Co576 O600 2.053 . S
Co576 O603 2.094 . S
Co576 O606 2.122 . S
Co577 O580 2.126 . S
Co577 H581 2.388 . S
Co577 O582 2.053 . S
Co577 O585 2.047 . S
Co577 O591 2.113 . S
Co577 O602 2.063 . S
Co578 H579 2.388 . S
Co578 O580 2.053 . S
Co578 O582 2.126 . S
Co578 O587 2.063 . S
Co578 O601 2.047 . S
Co578 O607 2.113 . S
H579 Co576 2.400 . S
H579 Co578 2.388 . S
H579 O580 0.760 . S
O580 Co576 2.009 . S
O580 Co577 2.126 . S
O580 Co578 2.053 . S
O580 H579 0.760 . S
H581 Co577 2.388 . S
H581 O582 0.760 . S
H581 Co583 2.400 . S
O582 Co577 2.053 . S
O582 Co578 2.126 . S
O582 H581 0.760 . S
O582 Co583 2.009 . S
Co583 H581 2.400 . S
Co583 O582 2.009 . S
Co583 O584 2.053 . S
Co583 O586 2.094 . S
Co583 O590 2.122 . S
Co583 O604 2.115 . S
Co583 O605 2.315 . S
O584 Co583 2.053 . S
O584 C596 1.259 . S
O585 Co577 2.047 . S
O585 C596 1.257 . S
O586 Co583 2.094 . S
O586 C597 1.253 . S
O587 Co578 2.063 . S
O587 C597 1.268 . S
O588 Co576 2.115 . S
O588 C598 1.281 . S
O589 Co576 2.315 . S
O589 C598 1.252 . S
O590 Co583 2.122 . S
O590 C599 1.272 . S
O591 Co577 2.113 . S
O591 C599 1.245 . S
C592 O600 1.259 . S
C592 O601 1.257 . S
C593 O602 1.268 . S
C593 O603 1.253 . S
C594 O604 1.281 . S
C594 O605 1.252 . S
C595 O606 1.272 . S
C595 O607 1.245 . S
C596 O584 1.259 . S
C596 O585 1.257 . S
C597 O586 1.253 . S
C597 O587 1.268 . S
C598 O588 1.281 . S
C598 O589 1.252 . S
C599 O590 1.272 . S
C599 O591 1.245 . S
O600 Co576 2.053 . S
O600 C592 1.259 . S
O601 Co578 2.047 . S
O601 C592 1.257 . S
O602 Co577 2.063 . S
O602 C593 1.268 . S
O603 Co576 2.094 . S
O603 C593 1.253 . S
O604 Co583 2.115 . S
O604 C594 1.281 . S
O605 Co583 2.315 . S
O605 C594 1.252 . S
O606 Co576 2.122 . S
O606 C595 1.272 . S
O607 Co578 2.113 . S
O607 C595 1.245 . S
Co608 H611 2.400 . S
Co608 O612 2.009 . S
Co608 O620 2.115 . S
Co608 O621 2.315 . S
Co608 O632 2.053 . S
Co608 O635 2.094 . S
Co608 O638 2.122 . S
Co609 O612 2.126 . S
Co609 H613 2.388 . S
Co609 O614 2.053 . S
Co609 O617 2.047 . S
Co609 O623 2.113 . S
Co609 O634 2.063 . S
Co610 H611 2.388 . S
Co610 O612 2.053 . S
Co610 O614 2.126 . S
Co610 O619 2.063 . S
Co610 O633 2.047 . S
Co610 O639 2.113 . S
H611 Co608 2.400 . S
H611 Co610 2.388 . S
H611 O612 0.760 . S
O612 Co608 2.009 . S
O612 Co609 2.126 . S
O612 Co610 2.053 . S
O612 H611 0.760 . S
H613 Co609 2.388 . S
H613 O614 0.760 . S
H613 Co615 2.400 . S
O614 Co609 2.053 . S
O614 Co610 2.126 . S
O614 H613 0.760 . S
O614 Co615 2.009 . S
Co615 H613 2.400 . S
Co615 O614 2.009 . S
Co615 O616 2.053 . S
Co615 O618 2.094 . S
Co615 O622 2.122 . S
Co615 O636 2.115 . S
Co615 O637 2.315 . S
O616 Co615 2.053 . S
O616 C628 1.259 . S
O617 Co609 2.047 . S
O617 C628 1.257 . S
O618 Co615 2.094 . S
O618 C629 1.253 . S
O619 Co610 2.063 . S
O619 C629 1.268 . S
O620 Co608 2.115 . S
O620 C630 1.281 1_455 S
O621 Co608 2.315 . S
O621 C630 1.252 1_455 S
O622 Co615 2.122 . S
O622 C631 1.272 . S
O623 Co609 2.113 . S
O623 C631 1.245 . S
C624 O632 1.259 . S
C624 O633 1.257 . S
C625 O634 1.268 . S
C625 O635 1.253 . S
C626 O636 1.281 . S
C626 O637 1.252 . S
C627 O638 1.272 . S
C627 O639 1.245 . S
C628 O616 1.259 . S
C628 O617 1.257 . S
C629 O618 1.253 . S
C629 O619 1.268 . S
C630 O620 1.281 1_655 S
C630 O621 1.252 1_655 S
C631 O622 1.272 . S
C631 O623 1.245 . S
O632 Co608 2.053 . S
O632 C624 1.259 . S
O633 Co610 2.047 . S
O633 C624 1.257 . S
O634 Co609 2.063 . S
O634 C625 1.268 . S
O635 Co608 2.094 . S
O635 C625 1.253 . S
O636 Co615 2.115 . S
O636 C626 1.281 . S
O637 Co615 2.315 . S
O637 C626 1.252 . S
O638 Co608 2.122 . S
O638 C627 1.272 . S
O639 Co610 2.113 . S
O639 C627 1.245 . S
Co640 H643 2.400 . S
Co640 O644 2.009 . S
Co640 O652 2.115 . S
Co640 O653 2.315 . S
Co640 O664 2.053 . S
Co640 O667 2.094 . S
Co640 O670 2.122 . S
Co641 O644 2.126 . S
Co641 H645 2.388 . S
Co641 O646 2.053 . S
Co641 O649 2.047 . S
Co641 O655 2.113 . S
Co641 O666 2.063 . S
Co642 H643 2.388 . S
Co642 O644 2.053 . S
Co642 O646 2.126 . S
Co642 O651 2.063 . S
Co642 O665 2.047 . S
Co642 O671 2.113 . S
H643 Co640 2.400 . S
H643 Co642 2.388 . S
H643 O644 0.760 . S
O644 Co640 2.009 . S
O644 Co641 2.126 . S
O644 Co642 2.053 . S
O644 H643 0.760 . S
H645 Co641 2.388 . S
H645 O646 0.760 . S
H645 Co647 2.400 . S
O646 Co641 2.053 . S
O646 Co642 2.126 . S
O646 H645 0.760 . S
O646 Co647 2.009 . S
Co647 H645 2.400 . S
Co647 O646 2.009 . S
Co647 O648 2.053 . S
Co647 O650 2.094 . S
Co647 O654 2.122 . S
Co647 O668 2.115 . S
Co647 O669 2.315 . S
O648 Co647 2.053 . S
O648 C660 1.259 . S
O649 Co641 2.047 . S
O649 C660 1.257 . S
O650 Co647 2.094 . S
O650 C661 1.253 . S
O651 Co642 2.063 . S
O651 C661 1.268 . S
O652 Co640 2.115 . S
O652 C662 1.281 . S
O653 Co640 2.315 . S
O653 C662 1.252 . S
O654 Co647 2.122 . S
O654 C663 1.272 . S
O655 Co641 2.113 . S
O655 C663 1.245 . S
C656 O664 1.259 . S
C656 O665 1.257 . S
C657 O666 1.268 . S
C657 O667 1.253 . S
C658 O668 1.281 . S
C658 O669 1.252 . S
C659 O670 1.272 . S
C659 O671 1.245 . S
C660 O648 1.259 . S
C660 O649 1.257 . S
C661 O650 1.253 . S
C661 O651 1.268 . S
C662 O652 1.281 . S
C662 O653 1.252 . S
C663 O654 1.272 . S
C663 O655 1.245 . S
O664 Co640 2.053 . S
O664 C656 1.259 . S
O665 Co642 2.047 . S
O665 C656 1.257 . S
O666 Co641 2.063 . S
O666 C657 1.268 . S
O667 Co640 2.094 . S
O667 C657 1.253 . S
O668 Co647 2.115 . S
O668 C658 1.281 . S
O669 Co647 2.315 . S
O669 C658 1.252 . S
O670 Co640 2.122 . S
O670 C659 1.272 . S
O671 Co642 2.113 . S
O671 C659 1.245 . S
Co672 H675 2.400 . S
Co672 O676 2.009 . S
Co672 O684 2.115 . S
Co672 O685 2.315 . S
Co672 O696 2.053 . S
Co672 O699 2.094 . S
Co672 O702 2.122 . S
Co673 O676 2.126 . S
Co673 H677 2.388 . S
Co673 O678 2.053 . S
Co673 O681 2.047 . S
Co673 O687 2.113 . S
Co673 O698 2.063 . S
Co674 H675 2.388 . S
Co674 O676 2.053 . S
Co674 O678 2.126 . S
Co674 O683 2.063 . S
Co674 O697 2.047 . S
Co674 O703 2.113 . S
H675 Co672 2.400 . S
H675 Co674 2.388 . S
H675 O676 0.760 . S
O676 Co672 2.009 . S
O676 Co673 2.126 . S
O676 Co674 2.053 . S
O676 H675 0.760 . S
H677 Co673 2.388 . S
H677 O678 0.760 . S
H677 Co679 2.400 . S
O678 Co673 2.053 . S
O678 Co674 2.126 . S
O678 H677 0.760 . S
O678 Co679 2.009 . S
Co679 H677 2.400 . S
Co679 O678 2.009 . S
Co679 O680 2.053 . S
Co679 O682 2.094 . S
Co679 O686 2.122 . S
Co679 O700 2.115 . S
Co679 O701 2.315 . S
O680 Co679 2.053 . S
O680 C692 1.259 . S
O681 Co673 2.047 . S
O681 C692 1.257 . S
O682 Co679 2.094 . S
O682 C693 1.253 . S
O683 Co674 2.063 . S
O683 C693 1.268 . S
O684 Co672 2.115 . S
O684 C694 1.281 . S
O685 Co672 2.315 . S
O685 C694 1.252 . S
O686 Co679 2.122 . S
O686 C695 1.272 . S
O687 Co673 2.113 . S
O687 C695 1.245 . S
C688 O696 1.259 . S
C688 O697 1.257 . S
C689 O698 1.268 . S
C689 O699 1.253 . S
C690 O700 1.281 . S
C690 O701 1.252 . S
C691 O702 1.272 . S
C691 O703 1.245 . S
C692 O680 1.259 . S
C692 O681 1.257 . S
C693 O682 1.253 . S
C693 O683 1.268 . S
C694 O684 1.281 . S
C694 O685 1.252 . S
C695 O686 1.272 . S
C695 O687 1.245 . S
O696 Co672 2.053 . S
O696 C688 1.259 . S
O697 Co674 2.047 . S
O697 C688 1.257 . S
O698 Co673 2.063 . S
O698 C689 1.268 . S
O699 Co672 2.094 . S
O699 C689 1.253 . S
O700 Co679 2.115 . S
O700 C690 1.281 . S
O701 Co679 2.315 . S
O701 C690 1.252 . S
O702 Co672 2.122 . S
O702 C691 1.272 . S
O703 Co674 2.113 . S
O703 C691 1.245 . S
Co704 H707 2.400 . S
Co704 O708 2.009 . S
Co704 O716 2.115 . S
Co704 O717 2.315 . S
Co704 O728 2.053 . S
Co704 O731 2.094 . S
Co704 O734 2.122 . S
Co705 O708 2.126 . S
Co705 H709 2.388 . S
Co705 O710 2.053 . S
Co705 O713 2.047 . S
Co705 O719 2.113 . S
Co705 O730 2.063 . S
Co706 H707 2.388 . S
Co706 O708 2.053 . S
Co706 O710 2.126 . S
Co706 O715 2.063 . S
Co706 O729 2.047 . S
Co706 O735 2.113 . S
H707 Co704 2.400 . S
H707 Co706 2.388 . S
H707 O708 0.760 . S
O708 Co704 2.009 . S
O708 Co705 2.126 . S
O708 Co706 2.053 . S
O708 H707 0.760 . S
H709 Co705 2.388 . S
H709 O710 0.760 . S
H709 Co711 2.400 . S
O710 Co705 2.053 . S
O710 Co706 2.126 . S
O710 H709 0.760 . S
O710 Co711 2.009 . S
Co711 H709 2.400 . S
Co711 O710 2.009 . S
Co711 O712 2.053 . S
Co711 O714 2.094 . S
Co711 O718 2.122 . S
Co711 O732 2.115 . S
Co711 O733 2.315 . S
O712 Co711 2.053 . S
O712 C724 1.259 . S
O713 Co705 2.047 . S
O713 C724 1.257 . S
O714 Co711 2.094 . S
O714 C725 1.253 . S
O715 Co706 2.063 . S
O715 C725 1.268 . S
O716 Co704 2.115 . S
O716 C726 1.281 . S
O717 Co704 2.315 . S
O717 C726 1.252 . S
O718 Co711 2.122 . S
O718 C727 1.272 . S
O719 Co705 2.113 . S
O719 C727 1.245 . S
C720 O728 1.259 . S
C720 O729 1.257 . S
C721 O730 1.268 . S
C721 O731 1.253 . S
C722 O732 1.281 . S
C722 O733 1.252 . S
C723 O734 1.272 . S
C723 O735 1.245 . S
C724 O712 1.259 . S
C724 O713 1.257 . S
C725 O714 1.253 . S
C725 O715 1.268 . S
C726 O716 1.281 . S
C726 O717 1.252 . S
C727 O718 1.272 . S
C727 O719 1.245 . S
O728 Co704 2.053 . S
O728 C720 1.259 . S
O729 Co706 2.047 . S
O729 C720 1.257 . S
O730 Co705 2.063 . S
O730 C721 1.268 . S
O731 Co704 2.094 . S
O731 C721 1.253 . S
O732 Co711 2.115 . S
O732 C722 1.281 . S
O733 Co711 2.315 . S
O733 C722 1.252 . S
O734 Co704 2.122 . S
O734 C723 1.272 . S
O735 Co706 2.113 . S
O735 C723 1.245 . S
Co736 H739 2.400 . S
Co736 O740 2.009 . S
Co736 O748 2.115 . S
Co736 O749 2.315 . S
Co736 O760 2.053 . S
Co736 O763 2.094 . S
Co736 O766 2.122 . S
Co737 O740 2.126 . S
Co737 H741 2.388 . S
Co737 O742 2.053 . S
Co737 O745 2.047 . S
Co737 O751 2.113 . S
Co737 O762 2.063 . S
Co738 H739 2.388 . S
Co738 O740 2.053 . S
Co738 O742 2.126 . S
Co738 O747 2.063 . S
Co738 O761 2.047 . S
Co738 O767 2.113 . S
H739 Co736 2.400 . S
H739 Co738 2.388 . S
H739 O740 0.760 . S
O740 Co736 2.009 . S
O740 Co737 2.126 . S
O740 Co738 2.053 . S
O740 H739 0.760 . S
H741 Co737 2.388 . S
H741 O742 0.760 . S
H741 Co743 2.400 . S
O742 Co737 2.053 . S
O742 Co738 2.126 . S
O742 H741 0.760 . S
O742 Co743 2.009 . S
Co743 H741 2.400 . S
Co743 O742 2.009 . S
Co743 O744 2.053 . S
Co743 O746 2.094 . S
Co743 O750 2.122 . S
Co743 O764 2.115 . S
Co743 O765 2.315 . S
O744 Co743 2.053 . S
O744 C756 1.259 . S
O745 Co737 2.047 . S
O745 C756 1.257 . S
O746 Co743 2.094 . S
O746 C757 1.253 . S
O747 Co738 2.063 . S
O747 C757 1.268 . S
O748 Co736 2.115 . S
O748 C758 1.281 . S
O749 Co736 2.315 . S
O749 C758 1.252 . S
O750 Co743 2.122 . S
O750 C759 1.272 . S
O751 Co737 2.113 . S
O751 C759 1.245 . S
C752 O760 1.259 . S
C752 O761 1.257 . S
C753 O762 1.268 . S
C753 O763 1.253 . S
C754 O764 1.281 . S
C754 O765 1.252 . S
C755 O766 1.272 . S
C755 O767 1.245 . S
C756 O744 1.259 . S
C756 O745 1.257 . S
C757 O746 1.253 . S
C757 O747 1.268 . S
C758 O748 1.281 . S
C758 O749 1.252 . S
C759 O750 1.272 . S
C759 O751 1.245 . S
O760 Co736 2.053 . S
O760 C752 1.259 . S
O761 Co738 2.047 . S
O761 C752 1.257 . S
O762 Co737 2.063 . S
O762 C753 1.268 . S
O763 Co736 2.094 . S
O763 C753 1.253 . S
O764 Co743 2.115 . S
O764 C754 1.281 . S
O765 Co743 2.315 . S
O765 C754 1.252 . S
O766 Co736 2.122 . S
O766 C755 1.272 . S
O767 Co738 2.113 . S
O767 C755 1.245 . S
Co768 H771 2.400 . S
Co768 O772 2.009 . S
Co768 O780 2.115 . S
Co768 O781 2.315 . S
Co768 O792 2.053 . S
Co768 O795 2.094 . S
Co768 O798 2.122 . S
Co769 O772 2.126 . S
Co769 H773 2.388 . S
Co769 O774 2.053 . S
Co769 O777 2.047 . S
Co769 O783 2.113 . S
Co769 O794 2.063 . S
Co770 H771 2.388 . S
Co770 O772 2.053 . S
Co770 O774 2.126 . S
Co770 O779 2.063 . S
Co770 O793 2.047 . S
Co770 O799 2.113 . S
H771 Co768 2.400 . S
H771 Co770 2.388 . S
H771 O772 0.760 . S
O772 Co768 2.009 . S
O772 Co769 2.126 . S
O772 Co770 2.053 . S
O772 H771 0.760 . S
H773 Co769 2.388 . S
H773 O774 0.760 . S
H773 Co775 2.400 . S
O774 Co769 2.053 . S
O774 Co770 2.126 . S
O774 H773 0.760 . S
O774 Co775 2.009 . S
Co775 H773 2.400 . S
Co775 O774 2.009 . S
Co775 O776 2.053 . S
Co775 O778 2.094 . S
Co775 O782 2.122 . S
Co775 O796 2.115 . S
Co775 O797 2.315 . S
O776 Co775 2.053 . S
O776 C788 1.259 . S
O777 Co769 2.047 . S
O777 C788 1.257 . S
O778 Co775 2.094 . S
O778 C789 1.253 . S
O779 Co770 2.063 . S
O779 C789 1.268 . S
O780 Co768 2.115 . S
O780 C790 1.281 . S
O781 Co768 2.315 . S
O781 C790 1.252 . S
O782 Co775 2.122 . S
O782 C791 1.272 . S
O783 Co769 2.113 . S
O783 C791 1.245 . S
C784 O792 1.259 . S
C784 O793 1.257 . S
C785 O794 1.268 . S
C785 O795 1.253 . S
C786 O796 1.281 . S
C786 O797 1.252 . S
C787 O798 1.272 . S
C787 O799 1.245 . S
C788 O776 1.259 . S
C788 O777 1.257 . S
C789 O778 1.253 . S
C789 O779 1.268 . S
C790 O780 1.281 . S
C790 O781 1.252 . S
C791 O782 1.272 . S
C791 O783 1.245 . S
O792 Co768 2.053 . S
O792 C784 1.259 . S
O793 Co770 2.047 . S
O793 C784 1.257 . S
O794 Co769 2.063 . S
O794 C785 1.268 . S
O795 Co768 2.094 . S
O795 C785 1.253 . S
O796 Co775 2.115 . S
O796 C786 1.281 . S
O797 Co775 2.315 . S
O797 C786 1.252 . S
O798 Co768 2.122 . S
O798 C787 1.272 . S
O799 Co770 2.113 . S
O799 C787 1.245 . S
Co800 H803 2.400 . S
Co800 O804 2.009 . S
Co800 O812 2.115 . S
Co800 O813 2.315 . S
Co800 O824 2.053 . S
Co800 O827 2.094 . S
Co800 O830 2.122 . S
Co801 O804 2.126 . S
Co801 H805 2.388 . S
Co801 O806 2.053 . S
Co801 O809 2.047 . S
Co801 O815 2.113 . S
Co801 O826 2.063 . S
Co802 H803 2.388 . S
Co802 O804 2.053 . S
Co802 O806 2.126 . S
Co802 O811 2.063 . S
Co802 O825 2.047 . S
Co802 O831 2.113 . S
H803 Co800 2.400 . S
H803 Co802 2.388 . S
H803 O804 0.760 . S
O804 Co800 2.009 . S
O804 Co801 2.126 . S
O804 Co802 2.053 . S
O804 H803 0.760 . S
H805 Co801 2.388 . S
H805 O806 0.760 . S
H805 Co807 2.400 . S
O806 Co801 2.053 . S
O806 Co802 2.126 . S
O806 H805 0.760 . S
O806 Co807 2.009 . S
Co807 H805 2.400 . S
Co807 O806 2.009 . S
Co807 O808 2.053 . S
Co807 O810 2.094 . S
Co807 O814 2.122 . S
Co807 O828 2.115 . S
Co807 O829 2.315 . S
O808 Co807 2.053 . S
O808 C820 1.259 . S
O809 Co801 2.047 . S
O809 C820 1.257 . S
O810 Co807 2.094 . S
O810 C821 1.253 . S
O811 Co802 2.063 . S
O811 C821 1.268 . S
O812 Co800 2.115 . S
O812 C822 1.281 . S
O813 Co800 2.315 . S
O813 C822 1.252 . S
O814 Co807 2.122 . S
O814 C823 1.272 . S
O815 Co801 2.113 . S
O815 C823 1.245 . S
C816 O824 1.259 . S
C816 O825 1.257 . S
C817 O826 1.268 . S
C817 O827 1.253 . S
C818 O828 1.281 1_554 S
C818 O829 1.252 1_554 S
C819 O830 1.272 . S
C819 O831 1.245 . S
C820 O808 1.259 . S
C820 O809 1.257 . S
C821 O810 1.253 . S
C821 O811 1.268 . S
C822 O812 1.281 . S
C822 O813 1.252 . S
C823 O814 1.272 . S
C823 O815 1.245 . S
O824 Co800 2.053 . S
O824 C816 1.259 . S
O825 Co802 2.047 . S
O825 C816 1.257 . S
O826 Co801 2.063 . S
O826 C817 1.268 . S
O827 Co800 2.094 . S
O827 C817 1.253 . S
O828 Co807 2.115 . S
O828 C818 1.281 1_556 S
O829 Co807 2.315 . S
O829 C818 1.252 1_556 S
O830 Co800 2.122 . S
O830 C819 1.272 . S
O831 Co802 2.113 . S
O831 C819 1.245 . S
Co832 H835 2.400 . S
Co832 O836 2.009 . S
Co832 O844 2.115 1_655 S
Co832 O845 2.315 1_655 S
Co832 O856 2.053 . S
Co832 O859 2.087 1_655 S
Co832 O862 2.122 . S
Co833 O836 2.126 . S
Co833 H837 2.388 . S
Co833 O838 2.053 . S
Co833 O841 2.047 . S
Co833 O847 2.113 . S
Co833 O858 2.063 . S
Co834 H835 2.388 . S
Co834 O836 2.053 . S
Co834 O838 2.126 . S
Co834 O843 2.063 . S
Co834 O857 2.047 1_545 S
Co834 O863 2.113 . S
H835 Co832 2.400 . S
H835 Co834 2.388 . S
H835 O836 0.760 . S
O836 Co832 2.009 . S
O836 Co833 2.126 . S
O836 Co834 2.053 . S
O836 H835 0.760 . S
H837 Co833 2.388 . S
H837 O838 0.760 . S
H837 Co839 2.400 . S
O838 Co833 2.053 . S
O838 Co834 2.126 . S
O838 H837 0.760 . S
O838 Co839 2.009 . S
Co839 H837 2.400 . S
Co839 O838 2.009 . S
Co839 O840 2.053 . S
Co839 O842 2.094 . S
Co839 O846 2.122 . S
Co839 O860 2.115 . S
Co839 O861 2.315 . S
O840 Co839 2.053 . S
O840 C852 1.259 . S
O841 Co833 2.047 . S
O841 C852 1.257 . S
O842 Co839 2.094 . S
O842 C853 1.253 . S
O843 Co834 2.063 . S
O843 C853 1.268 . S
O844 Co832 2.115 1_455 S
O844 C854 1.281 . S
O845 Co832 2.315 1_455 S
O845 C854 1.252 . S
O846 Co839 2.122 . S
O846 C855 1.272 . S
O847 Co833 2.113 . S
O847 C855 1.245 . S
C848 O856 1.259 1_565 S
C848 O857 1.257 . S
C849 O858 1.268 1_455 S
C849 O859 1.254 . S
C850 O860 1.281 . S
C850 O861 1.252 . S
C851 O862 1.272 . S
C851 O863 1.245 . S
C852 O840 1.259 . S
C852 O841 1.257 . S
C853 O842 1.253 . S
C853 O843 1.268 . S
C854 O844 1.281 . S
C854 O845 1.252 . S
C855 O846 1.272 . S
C855 O847 1.245 . S
O856 Co832 2.053 . S
O856 C848 1.259 1_545 S
O857 Co834 2.047 1_565 S
O857 C848 1.257 . S
O858 Co833 2.063 . S
O858 C849 1.268 1_655 S
O859 Co832 2.087 1_455 S
O859 C849 1.254 . S
O860 Co839 2.115 . S
O860 C850 1.281 . S
O861 Co839 2.315 . S
O861 C850 1.252 . S
O862 Co832 2.122 . S
O862 C851 1.272 . S
O863 Co834 2.113 . S
O863 C851 1.245 . S
Co864 H867 2.400 . S
Co864 O868 2.009 . S
Co864 O876 2.115 . S
Co864 O877 2.315 . S
Co864 O888 2.053 . S
Co864 O891 2.094 . S
Co864 O894 2.122 . S
Co865 O868 2.126 . S
Co865 H869 2.388 . S
Co865 O870 2.053 . S
Co865 O873 2.047 . S
Co865 O879 2.113 . S
Co865 O890 2.063 . S
Co866 H867 2.388 . S
Co866 O868 2.053 . S
Co866 O870 2.126 . S
Co866 O875 2.063 . S
Co866 O889 2.047 . S
Co866 O895 2.113 . S
H867 Co864 2.400 . S
H867 Co866 2.388 . S
H867 O868 0.760 . S
O868 Co864 2.009 . S
O868 Co865 2.126 . S
O868 Co866 2.053 . S
O868 H867 0.760 . S
H869 Co865 2.388 . S
H869 O870 0.760 . S
H869 Co871 2.400 . S
O870 Co865 2.053 . S
O870 Co866 2.126 . S
O870 H869 0.760 . S
O870 Co871 2.009 . S
Co871 H869 2.400 . S
Co871 O870 2.009 . S
Co871 O872 2.053 . S
Co871 O874 2.094 . S
Co871 O878 2.122 . S
Co871 O892 2.115 . S
Co871 O893 2.315 . S
O872 Co871 2.053 . S
O872 C884 1.259 . S
O873 Co865 2.047 . S
O873 C884 1.257 . S
O874 Co871 2.094 . S
O874 C885 1.253 . S
O875 Co866 2.063 . S
O875 C885 1.268 . S
O876 Co864 2.115 . S
O876 C886 1.281 . S
O877 Co864 2.315 . S
O877 C886 1.252 . S
O878 Co871 2.122 . S
O878 C887 1.272 . S
O879 Co865 2.113 . S
O879 C887 1.245 . S
C880 O888 1.259 . S
C880 O889 1.257 . S
C881 O890 1.268 . S
C881 O891 1.253 . S
C882 O892 1.281 . S
C882 O893 1.252 . S
C883 O894 1.272 . S
C883 O895 1.245 . S
C884 O872 1.259 . S
C884 O873 1.257 . S
C885 O874 1.253 . S
C885 O875 1.268 . S
C886 O876 1.281 . S
C886 O877 1.252 . S
C887 O878 1.272 . S
C887 O879 1.245 . S
O888 Co864 2.053 . S
O888 C880 1.259 . S
O889 Co866 2.047 . S
O889 C880 1.257 . S
O890 Co865 2.063 . S
O890 C881 1.268 . S
O891 Co864 2.094 . S
O891 C881 1.253 . S
O892 Co871 2.115 . S
O892 C882 1.281 . S
O893 Co871 2.315 . S
O893 C882 1.252 . S
O894 Co864 2.122 . S
O894 C883 1.272 . S
O895 Co866 2.113 . S
O895 C883 1.245 . S
Co896 H899 2.400 . S
Co896 O900 2.009 . S
Co896 O908 2.115 . S
Co896 O909 2.315 . S
Co896 O920 2.053 . S
Co896 O923 2.094 . S
Co896 O926 2.122 . S
Co897 O900 2.126 . S
Co897 H901 2.388 . S
Co897 O902 2.053 . S
Co897 O905 2.047 . S
Co897 O911 2.113 . S
Co897 O922 2.063 . S
Co898 H899 2.388 . S
Co898 O900 2.053 . S
Co898 O902 2.126 . S
Co898 O907 2.063 . S
Co898 O921 2.047 . S
Co898 O927 2.113 . S
H899 Co896 2.400 . S
H899 Co898 2.388 . S
H899 O900 0.760 . S
O900 Co896 2.009 . S
O900 Co897 2.126 . S
O900 Co898 2.053 . S
O900 H899 0.760 . S
H901 Co897 2.388 . S
H901 O902 0.760 . S
H901 Co903 2.400 . S
O902 Co897 2.053 . S
O902 Co898 2.126 . S
O902 H901 0.760 . S
O902 Co903 2.009 . S
Co903 H901 2.400 . S
Co903 O902 2.009 . S
Co903 O904 2.053 . S
Co903 O906 2.094 . S
Co903 O910 2.122 . S
Co903 O924 2.115 . S
Co903 O925 2.315 . S
O904 Co903 2.053 . S
O904 C916 1.259 . S
O905 Co897 2.047 . S
O905 C916 1.257 . S
O906 Co903 2.094 . S
O906 C917 1.253 . S
O907 Co898 2.063 . S
O907 C917 1.268 . S
O908 Co896 2.115 . S
O908 C918 1.281 . S
O909 Co896 2.315 . S
O909 C918 1.252 . S
O910 Co903 2.122 . S
O910 C919 1.272 . S
O911 Co897 2.113 . S
O911 C919 1.245 . S
C912 O920 1.259 . S
C912 O921 1.257 . S
C913 O922 1.268 . S
C913 O923 1.253 . S
C914 O924 1.281 1_554 S
C914 O925 1.252 1_554 S
C915 O926 1.272 . S
C915 O927 1.245 . S
C916 O904 1.259 . S
C916 O905 1.257 . S
C917 O906 1.253 . S
C917 O907 1.268 . S
C918 O908 1.281 . S
C918 O909 1.252 . S
C919 O910 1.272 . S
C919 O911 1.245 . S
O920 Co896 2.053 . S
O920 C912 1.259 . S
O921 Co898 2.047 . S
O921 C912 1.257 . S
O922 Co897 2.063 . S
O922 C913 1.268 . S
O923 Co896 2.094 . S
O923 C913 1.253 . S
O924 Co903 2.115 . S
O924 C914 1.281 1_556 S
O925 Co903 2.315 . S
O925 C914 1.252 1_556 S
O926 Co896 2.122 . S
O926 C915 1.272 . S
O927 Co898 2.113 . S
O927 C915 1.245 . S
Co928 H931 2.400 . S
Co928 O932 2.009 . S
Co928 O940 2.115 . S
Co928 O941 2.315 . S
Co928 O952 2.053 . S
Co928 O955 2.094 . S
Co928 O958 2.122 . S
Co929 O932 2.126 . S
Co929 H933 2.388 . S
Co929 O934 2.053 . S
Co929 O937 2.047 . S
Co929 O943 2.113 . S
Co929 O954 2.063 . S
Co930 H931 2.388 . S
Co930 O932 2.053 . S
Co930 O934 2.126 . S
Co930 O939 2.063 . S
Co930 O953 2.047 . S
Co930 O959 2.113 . S
H931 Co928 2.400 . S
H931 Co930 2.388 . S
H931 O932 0.760 . S
O932 Co928 2.009 . S
O932 Co929 2.126 . S
O932 Co930 2.053 . S
O932 H931 0.760 . S
H933 Co929 2.388 . S
H933 O934 0.760 . S
H933 Co935 2.400 . S
O934 Co929 2.053 . S
O934 Co930 2.126 . S
O934 H933 0.760 . S
O934 Co935 2.009 . S
Co935 H933 2.400 . S
Co935 O934 2.009 . S
Co935 O936 2.053 . S
Co935 O938 2.094 . S
Co935 O942 2.122 . S
Co935 O956 2.115 . S
Co935 O957 2.315 . S
O936 Co935 2.053 . S
O936 C948 1.259 . S
O937 Co929 2.047 . S
O937 C948 1.257 . S
O938 Co935 2.094 . S
O938 C949 1.253 . S
O939 Co930 2.063 . S
O939 C949 1.268 . S
O940 Co928 2.115 . S
O940 C950 1.281 . S
O941 Co928 2.315 . S
O941 C950 1.252 . S
O942 Co935 2.122 . S
O942 C951 1.272 . S
O943 Co929 2.113 . S
O943 C951 1.245 . S
C944 O952 1.259 . S
C944 O953 1.257 . S
C945 O954 1.268 . S
C945 O955 1.253 . S
C946 O956 1.281 . S
C946 O957 1.252 . S
C947 O958 1.272 . S
C947 O959 1.245 . S
C948 O936 1.259 . S
C948 O937 1.257 . S
C949 O938 1.253 . S
C949 O939 1.268 . S
C950 O940 1.281 . S
C950 O941 1.252 . S
C951 O942 1.272 . S
C951 O943 1.245 . S
O952 Co928 2.053 . S
O952 C944 1.259 . S
O953 Co930 2.047 . S
O953 C944 1.257 . S
O954 Co929 2.063 . S
O954 C945 1.268 . S
O955 Co928 2.094 . S
O955 C945 1.253 . S
O956 Co935 2.115 . S
O956 C946 1.281 . S
O957 Co935 2.315 . S
O957 C946 1.252 . S
O958 Co928 2.122 . S
O958 C947 1.272 . S
O959 Co930 2.113 . S
O959 C947 1.245 . S
Co960 H963 2.400 . S
Co960 O964 2.009 . S
Co960 O972 2.115 . S
Co960 O973 2.315 . S
Co960 O984 2.053 . S
Co960 O987 2.094 . S
Co960 O990 2.122 . S
Co961 O964 2.126 . S
Co961 H965 2.388 . S
Co961 O966 2.053 . S
Co961 O969 2.047 . S
Co961 O975 2.113 . S
Co961 O986 2.063 . S
Co962 H963 2.388 . S
Co962 O964 2.053 . S
Co962 O966 2.126 . S
Co962 O971 2.063 . S
Co962 O985 2.047 . S
Co962 O991 2.113 . S
H963 Co960 2.400 . S
H963 Co962 2.388 . S
H963 O964 0.760 . S
O964 Co960 2.009 . S
O964 Co961 2.126 . S
O964 Co962 2.053 . S
O964 H963 0.760 . S
H965 Co961 2.388 . S
H965 O966 0.760 . S
H965 Co967 2.400 . S
O966 Co961 2.053 . S
O966 Co962 2.126 . S
O966 H965 0.760 . S
O966 Co967 2.009 . S
Co967 H965 2.400 . S
Co967 O966 2.009 . S
Co967 O968 2.053 . S
Co967 O970 2.094 . S
Co967 O974 2.122 . S
Co967 O988 2.115 . S
Co967 O989 2.315 . S
O968 Co967 2.053 . S
O968 C980 1.259 . S
O969 Co961 2.047 . S
O969 C980 1.257 . S
O970 Co967 2.094 . S
O970 C981 1.253 . S
O971 Co962 2.063 . S
O971 C981 1.268 . S
O972 Co960 2.115 . S
O972 C982 1.281 . S
O973 Co960 2.315 . S
O973 C982 1.252 . S
O974 Co967 2.122 . S
O974 C983 1.272 . S
O975 Co961 2.113 . S
O975 C983 1.245 . S
C976 O984 1.259 . S
C976 O985 1.257 . S
C977 O986 1.268 . S
C977 O987 1.253 . S
C978 O988 1.281 . S
C978 O989 1.252 . S
C979 O990 1.272 . S
C979 O991 1.245 . S
C980 O968 1.259 . S
C980 O969 1.257 . S
C981 O970 1.253 . S
C981 O971 1.268 . S
C982 O972 1.281 . S
C982 O973 1.252 . S
C983 O974 1.272 . S
C983 O975 1.245 . S
O984 Co960 2.053 . S
O984 C976 1.259 . S
O985 Co962 2.047 . S
O985 C976 1.257 . S
O986 Co961 2.063 . S
O986 C977 1.268 . S
O987 Co960 2.094 . S
O987 C977 1.253 . S
O988 Co967 2.115 . S
O988 C978 1.281 . S
O989 Co967 2.315 . S
O989 C978 1.252 . S
O990 Co960 2.122 . S
O990 C979 1.272 . S
O991 Co962 2.113 . S
O991 C979 1.245 . S
Co992 H995 2.400 . S
Co992 O996 2.009 . S
Co992 O1004 2.115 . S
Co992 O1005 2.315 . S
Co992 O1016 2.053 . S
Co992 O1019 2.094 . S
Co992 O1022 2.122 . S
Co993 O996 2.126 . S
Co993 H997 2.388 . S
Co993 O998 2.053 . S
Co993 O1001 2.047 . S
Co993 O1007 2.113 . S
Co993 O1018 2.063 . S
Co994 H995 2.388 . S
Co994 O996 2.053 . S
Co994 O998 2.126 . S
Co994 O1003 2.063 . S
Co994 O1017 2.047 . S
Co994 O1023 2.113 . S
H995 Co992 2.400 . S
H995 Co994 2.388 . S
H995 O996 0.760 . S
O996 Co992 2.009 . S
O996 Co993 2.126 . S
O996 Co994 2.053 . S
O996 H995 0.760 . S
H997 Co993 2.388 . S
H997 O998 0.760 . S
H997 Co999 2.400 . S
O998 Co993 2.053 . S
O998 Co994 2.126 . S
O998 H997 0.760 . S
O998 Co999 2.009 . S
Co999 H997 2.400 . S
Co999 O998 2.009 . S
Co999 O1000 2.053 . S
Co999 O1002 2.094 . S
Co999 O1006 2.122 . S
Co999 O1020 2.115 . S
Co999 O1021 2.315 . S
O1000 Co999 2.053 . S
O1000 C1012 1.259 . S
O1001 Co993 2.047 . S
O1001 C1012 1.257 . S
O1002 Co999 2.094 . S
O1002 C1013 1.253 . S
O1003 Co994 2.063 . S
O1003 C1013 1.268 . S
O1004 Co992 2.115 . S
O1004 C1014 1.281 . S
O1005 Co992 2.315 . S
O1005 C1014 1.252 . S
O1006 Co999 2.122 . S
O1006 C1015 1.272 . S
O1007 Co993 2.113 . S
O1007 C1015 1.245 . S
C1008 O1016 1.259 . S
C1008 O1017 1.257 . S
C1009 O1018 1.268 . S
C1009 O1019 1.253 . S
C1010 O1020 1.281 . S
C1010 O1021 1.252 . S
C1011 O1022 1.272 . S
C1011 O1023 1.245 . S
C1012 O1000 1.259 . S
C1012 O1001 1.257 . S
C1013 O1002 1.253 . S
C1013 O1003 1.268 . S
C1014 O1004 1.281 . S
C1014 O1005 1.252 . S
C1015 O1006 1.272 . S
C1015 O1007 1.245 . S
O1016 Co992 2.053 . S
O1016 C1008 1.259 . S
O1017 Co994 2.047 . S
O1017 C1008 1.257 . S
O1018 Co993 2.063 . S
O1018 C1009 1.268 . S
O1019 Co992 2.094 . S
O1019 C1009 1.253 . S
O1020 Co999 2.115 . S
O1020 C1010 1.281 . S
O1021 Co999 2.315 . S
O1021 C1010 1.252 . S
O1022 Co992 2.122 . S
O1022 C1011 1.272 . S
O1023 Co994 2.113 . S
O1023 C1011 1.245 . S
Co1024 H1027 2.400 . S
Co1024 O1028 2.009 . S
Co1024 O1036 2.115 . S
Co1024 O1037 2.315 . S
Co1024 O1048 2.053 . S
Co1024 O1051 2.094 . S
Co1024 O1054 2.122 . S
Co1025 O1028 2.126 . S
Co1025 H1029 2.388 . S
Co1025 O1030 2.053 . S
Co1025 O1033 2.047 . S
Co1025 O1039 2.113 . S
Co1025 O1050 2.063 . S
Co1026 H1027 2.388 . S
Co1026 O1028 2.053 . S
Co1026 O1030 2.126 . S
Co1026 O1035 2.063 . S
Co1026 O1049 2.047 . S
Co1026 O1055 2.113 . S
H1027 Co1024 2.400 . S
H1027 Co1026 2.388 . S
H1027 O1028 0.760 . S
O1028 Co1024 2.009 . S
O1028 Co1025 2.126 . S
O1028 Co1026 2.053 . S
O1028 H1027 0.760 . S
H1029 Co1025 2.388 . S
H1029 O1030 0.760 . S
H1029 Co1031 2.400 . S
O1030 Co1025 2.053 . S
O1030 Co1026 2.126 . S
O1030 H1029 0.760 . S
O1030 Co1031 2.009 . S
Co1031 H1029 2.400 . S
Co1031 O1030 2.009 . S
Co1031 O1032 2.053 . S
Co1031 O1034 2.094 . S
Co1031 O1038 2.122 . S
Co1031 O1052 2.115 1_554 S
Co1031 O1053 2.315 1_554 S
O1032 Co1031 2.053 . S
O1032 C1044 1.259 . S
O1033 Co1025 2.047 . S
O1033 C1044 1.257 . S
O1034 Co1031 2.094 . S
O1034 C1045 1.253 . S
O1035 Co1026 2.063 . S
O1035 C1045 1.268 . S
O1036 Co1024 2.115 . S
O1036 C1046 1.281 . S
O1037 Co1024 2.315 . S
O1037 C1046 1.252 . S
O1038 Co1031 2.122 . S
O1038 C1047 1.272 . S
O1039 Co1025 2.113 . S
O1039 C1047 1.245 . S
C1040 O1048 1.259 . S
C1040 O1049 1.257 . S
C1041 O1050 1.268 . S
C1041 O1051 1.253 . S
C1042 O1052 1.281 . S
C1042 O1053 1.252 . S
C1043 O1054 1.272 . S
C1043 O1055 1.245 . S
C1044 O1032 1.259 . S
C1044 O1033 1.257 . S
C1045 O1034 1.253 . S
C1045 O1035 1.268 . S
C1046 O1036 1.281 . S
C1046 O1037 1.252 . S
C1047 O1038 1.272 . S
C1047 O1039 1.245 . S
O1048 Co1024 2.053 . S
O1048 C1040 1.259 . S
O1049 Co1026 2.047 . S
O1049 C1040 1.257 . S
O1050 Co1025 2.063 . S
O1050 C1041 1.268 . S
O1051 Co1024 2.094 . S
O1051 C1041 1.253 . S
O1052 Co1031 2.115 1_556 S
O1052 C1042 1.281 . S
O1053 Co1031 2.315 1_556 S
O1053 C1042 1.252 . S
O1054 Co1024 2.122 . S
O1054 C1043 1.272 . S
O1055 Co1026 2.113 . S
O1055 C1043 1.245 . S
Co1056 H1059 2.400 . S
Co1056 O1060 2.009 . S
Co1056 O1068 2.115 . S
Co1056 O1069 2.315 . S
Co1056 O1080 2.053 . S
Co1056 O1083 2.094 . S
Co1056 O1086 2.122 . S
Co1057 O1060 2.126 . S
Co1057 H1061 2.388 . S
Co1057 O1062 2.053 . S
Co1057 O1065 2.047 . S
Co1057 O1071 2.113 . S
Co1057 O1082 2.063 . S
Co1058 H1059 2.388 . S
Co1058 O1060 2.053 . S
Co1058 O1062 2.126 . S
Co1058 O1067 2.063 . S
Co1058 O1081 2.047 . S
Co1058 O1087 2.113 . S
H1059 Co1056 2.400 . S
H1059 Co1058 2.388 . S
H1059 O1060 0.760 . S
O1060 Co1056 2.009 . S
O1060 Co1057 2.126 . S
O1060 Co1058 2.053 . S
O1060 H1059 0.760 . S
H1061 Co1057 2.388 . S
H1061 O1062 0.760 . S
H1061 Co1063 2.400 . S
O1062 Co1057 2.053 . S
O1062 Co1058 2.126 . S
O1062 H1061 0.760 . S
O1062 Co1063 2.009 . S
Co1063 H1061 2.400 . S
Co1063 O1062 2.009 . S
Co1063 O1064 2.053 . S
Co1063 O1066 2.094 . S
Co1063 O1070 2.122 . S
Co1063 O1084 2.115 . S
Co1063 O1085 2.315 . S
O1064 Co1063 2.053 . S
O1064 C1076 1.259 . S
O1065 Co1057 2.047 . S
O1065 C1076 1.257 . S
O1066 Co1063 2.094 . S
O1066 C1077 1.253 . S
O1067 Co1058 2.063 . S
O1067 C1077 1.268 . S
O1068 Co1056 2.115 . S
O1068 C1078 1.281 . S
O1069 Co1056 2.315 . S
O1069 C1078 1.252 . S
O1070 Co1063 2.122 . S
O1070 C1079 1.272 . S
O1071 Co1057 2.113 . S
O1071 C1079 1.245 . S
C1072 O1080 1.259 . S
C1072 O1081 1.257 . S
C1073 O1082 1.268 . S
C1073 O1083 1.253 . S
C1074 O1084 1.281 . S
C1074 O1085 1.252 . S
C1075 O1086 1.272 . S
C1075 O1087 1.245 . S
C1076 O1064 1.259 . S
C1076 O1065 1.257 . S
C1077 O1066 1.253 . S
C1077 O1067 1.268 . S
C1078 O1068 1.281 . S
C1078 O1069 1.252 . S
C1079 O1070 1.272 . S
C1079 O1071 1.245 . S
O1080 Co1056 2.053 . S
O1080 C1072 1.259 . S
O1081 Co1058 2.047 . S
O1081 C1072 1.257 . S
O1082 Co1057 2.063 . S
O1082 C1073 1.268 . S
O1083 Co1056 2.094 . S
O1083 C1073 1.253 . S
O1084 Co1063 2.115 . S
O1084 C1074 1.281 . S
O1085 Co1063 2.315 . S
O1085 C1074 1.252 . S
O1086 Co1056 2.122 . S
O1086 C1075 1.272 . S
O1087 Co1058 2.113 . S
O1087 C1075 1.245 . S
Co1088 H1091 2.400 . S
Co1088 O1092 2.009 . S
Co1088 O1100 2.115 1_556 S
Co1088 O1101 2.315 1_556 S
Co1088 O1112 2.053 . S
Co1088 O1115 2.094 . S
Co1088 O1118 2.122 . S
Co1089 O1092 2.126 . S
Co1089 H1093 2.388 . S
Co1089 O1094 2.053 . S
Co1089 O1097 2.047 . S
Co1089 O1103 2.113 . S
Co1089 O1114 2.063 . S
Co1090 H1091 2.388 . S
Co1090 O1092 2.053 . S
Co1090 O1094 2.126 . S
Co1090 O1099 2.063 . S
Co1090 O1113 2.047 . S
Co1090 O1119 2.113 . S
H1091 Co1088 2.400 . S
H1091 Co1090 2.388 . S
H1091 O1092 0.760 . S
O1092 Co1088 2.009 . S
O1092 Co1089 2.126 . S
O1092 Co1090 2.053 . S
O1092 H1091 0.760 . S
H1093 Co1089 2.388 . S
H1093 O1094 0.760 . S
H1093 Co1095 2.400 . S
O1094 Co1089 2.053 . S
O1094 Co1090 2.126 . S
O1094 H1093 0.760 . S
O1094 Co1095 2.009 . S
Co1095 H1093 2.400 . S
Co1095 O1094 2.009 . S
Co1095 O1096 2.053 . S
Co1095 O1098 2.094 . S
Co1095 O1102 2.122 . S
Co1095 O1116 2.115 . S
Co1095 O1117 2.315 . S
O1096 Co1095 2.053 . S
O1096 C1108 1.259 . S
O1097 Co1089 2.047 . S
O1097 C1108 1.257 . S
O1098 Co1095 2.094 . S
O1098 C1109 1.253 . S
O1099 Co1090 2.063 . S
O1099 C1109 1.268 . S
O1100 Co1088 2.115 1_554 S
O1100 C1110 1.281 . S
O1101 Co1088 2.315 1_554 S
O1101 C1110 1.252 . S
O1102 Co1095 2.122 . S
O1102 C1111 1.272 . S
O1103 Co1089 2.113 . S
O1103 C1111 1.245 . S
C1104 O1112 1.259 . S
C1104 O1113 1.257 . S
C1105 O1114 1.268 . S
C1105 O1115 1.253 . S
C1106 O1116 1.281 . S
C1106 O1117 1.252 . S
C1107 O1118 1.272 . S
C1107 O1119 1.245 . S
C1108 O1096 1.259 . S
C1108 O1097 1.257 . S
C1109 O1098 1.253 . S
C1109 O1099 1.268 . S
C1110 O1100 1.281 . S
C1110 O1101 1.252 . S
C1111 O1102 1.272 . S
C1111 O1103 1.245 . S
O1112 Co1088 2.053 . S
O1112 C1104 1.259 . S
O1113 Co1090 2.047 . S
O1113 C1104 1.257 . S
O1114 Co1089 2.063 . S
O1114 C1105 1.268 . S
O1115 Co1088 2.094 . S
O1115 C1105 1.253 . S
O1116 Co1095 2.115 . S
O1116 C1106 1.281 . S
O1117 Co1095 2.315 . S
O1117 C1106 1.252 . S
O1118 Co1088 2.122 . S
O1118 C1107 1.272 . S
O1119 Co1090 2.113 . S
O1119 C1107 1.245 . S
Co1120 H1123 2.400 . S
Co1120 O1124 2.009 . S
Co1120 O1132 2.115 . S
Co1120 O1133 2.315 . S
Co1120 O1144 2.053 . S
Co1120 O1147 2.094 . S
Co1120 O1150 2.122 . S
Co1121 O1124 2.126 . S
Co1121 H1125 2.388 . S
Co1121 O1126 2.053 . S
Co1121 O1129 2.047 . S
Co1121 O1135 2.113 . S
Co1121 O1146 2.063 . S
Co1122 H1123 2.388 . S
Co1122 O1124 2.053 . S
Co1122 O1126 2.126 . S
Co1122 O1131 2.063 . S
Co1122 O1145 2.047 . S
Co1122 O1151 2.113 . S
H1123 Co1120 2.400 . S
H1123 Co1122 2.388 . S
H1123 O1124 0.760 . S
O1124 Co1120 2.009 . S
O1124 Co1121 2.126 . S
O1124 Co1122 2.053 . S
O1124 H1123 0.760 . S
H1125 Co1121 2.388 . S
H1125 O1126 0.760 . S
H1125 Co1127 2.400 . S
O1126 Co1121 2.053 . S
O1126 Co1122 2.126 . S
O1126 H1125 0.760 . S
O1126 Co1127 2.009 . S
Co1127 H1125 2.400 . S
Co1127 O1126 2.009 . S
Co1127 O1128 2.053 . S
Co1127 O1130 2.094 . S
Co1127 O1134 2.122 . S
Co1127 O1148 2.115 . S
Co1127 O1149 2.315 . S
O1128 Co1127 2.053 . S
O1128 C1140 1.259 . S
O1129 Co1121 2.047 . S
O1129 C1140 1.257 . S
O1130 Co1127 2.094 . S
O1130 C1141 1.253 . S
O1131 Co1122 2.063 . S
O1131 C1141 1.268 . S
O1132 Co1120 2.115 . S
O1132 C1142 1.281 . S
O1133 Co1120 2.315 . S
O1133 C1142 1.252 . S
O1134 Co1127 2.122 . S
O1134 C1143 1.272 . S
O1135 Co1121 2.113 . S
O1135 C1143 1.245 . S
C1136 O1144 1.259 . S
C1136 O1145 1.257 . S
C1137 O1146 1.268 . S
C1137 O1147 1.253 . S
C1138 O1148 1.281 . S
C1138 O1149 1.252 . S
C1139 O1150 1.272 . S
C1139 O1151 1.245 . S
C1140 O1128 1.259 . S
C1140 O1129 1.257 . S
C1141 O1130 1.253 . S
C1141 O1131 1.268 . S
C1142 O1132 1.281 . S
C1142 O1133 1.252 . S
C1143 O1134 1.272 . S
C1143 O1135 1.245 . S
O1144 Co1120 2.053 . S
O1144 C1136 1.259 . S
O1145 Co1122 2.047 . S
O1145 C1136 1.257 . S
O1146 Co1121 2.063 . S
O1146 C1137 1.268 . S
O1147 Co1120 2.094 . S
O1147 C1137 1.253 . S
O1148 Co1127 2.115 . S
O1148 C1138 1.281 . S
O1149 Co1127 2.315 . S
O1149 C1138 1.252 . S
O1150 Co1120 2.122 . S
O1150 C1139 1.272 . S
O1151 Co1122 2.113 . S
O1151 C1139 1.245 . S
Co1152 H1155 2.400 . S
Co1152 O1156 2.009 . S
Co1152 O1164 2.115 . S
Co1152 O1165 2.315 . S
Co1152 O1176 2.053 . S
Co1152 O1179 2.094 . S
Co1152 O1182 2.122 . S
Co1153 O1156 2.126 . S
Co1153 H1157 2.388 . S
Co1153 O1158 2.053 . S
Co1153 O1161 2.047 . S
Co1153 O1167 2.113 . S
Co1153 O1178 2.063 . S
Co1154 H1155 2.388 . S
Co1154 O1156 2.053 . S
Co1154 O1158 2.126 . S
Co1154 O1163 2.063 . S
Co1154 O1177 2.047 . S
Co1154 O1183 2.113 . S
H1155 Co1152 2.400 . S
H1155 Co1154 2.388 . S
H1155 O1156 0.760 . S
O1156 Co1152 2.009 . S
O1156 Co1153 2.126 . S
O1156 Co1154 2.053 . S
O1156 H1155 0.760 . S
H1157 Co1153 2.388 . S
H1157 O1158 0.760 . S
H1157 Co1159 2.400 . S
O1158 Co1153 2.053 . S
O1158 Co1154 2.126 . S
O1158 H1157 0.760 . S
O1158 Co1159 2.009 . S
Co1159 H1157 2.400 . S
Co1159 O1158 2.009 . S
Co1159 O1160 2.053 . S
Co1159 O1162 2.094 . S
Co1159 O1166 2.122 . S
Co1159 O1180 2.115 . S
Co1159 O1181 2.315 . S
O1160 Co1159 2.053 . S
O1160 C1172 1.259 . S
O1161 Co1153 2.047 . S
O1161 C1172 1.257 . S
O1162 Co1159 2.094 . S
O1162 C1173 1.253 . S
O1163 Co1154 2.063 . S
O1163 C1173 1.268 . S
O1164 Co1152 2.115 . S
O1164 C1174 1.281 . S
O1165 Co1152 2.315 . S
O1165 C1174 1.252 . S
O1166 Co1159 2.122 . S
O1166 C1175 1.272 . S
O1167 Co1153 2.113 . S
O1167 C1175 1.245 . S
C1168 O1176 1.259 . S
C1168 O1177 1.257 . S
C1169 O1178 1.268 . S
C1169 O1179 1.253 . S
C1170 O1180 1.281 . S
C1170 O1181 1.252 . S
C1171 O1182 1.272 . S
C1171 O1183 1.245 . S
C1172 O1160 1.259 . S
C1172 O1161 1.257 . S
C1173 O1162 1.253 . S
C1173 O1163 1.268 . S
C1174 O1164 1.281 . S
C1174 O1165 1.252 . S
C1175 O1166 1.272 . S
C1175 O1167 1.245 . S
O1176 Co1152 2.053 . S
O1176 C1168 1.259 . S
O1177 Co1154 2.047 . S
O1177 C1168 1.257 . S
O1178 Co1153 2.063 . S
O1178 C1169 1.268 . S
O1179 Co1152 2.094 . S
O1179 C1169 1.253 . S
O1180 Co1159 2.115 . S
O1180 C1170 1.281 . S
O1181 Co1159 2.315 . S
O1181 C1170 1.252 . S
O1182 Co1152 2.122 . S
O1182 C1171 1.272 . S
O1183 Co1154 2.113 . S
O1183 C1171 1.245 . S
Co1184 H1187 2.400 . S
Co1184 O1188 2.009 . S
Co1184 O1196 2.115 . S
Co1184 O1197 2.315 . S
Co1184 O1208 2.053 . S
Co1184 O1211 2.094 . S
Co1184 O1214 2.122 . S
Co1185 O1188 2.126 . S
Co1185 H1189 2.388 . S
Co1185 O1190 2.053 . S
Co1185 O1193 2.047 . S
Co1185 O1199 2.113 . S
Co1185 O1210 2.063 . S
Co1186 H1187 2.388 . S
Co1186 O1188 2.053 . S
Co1186 O1190 2.126 . S
Co1186 O1195 2.063 . S
Co1186 O1209 2.047 . S
Co1186 O1215 2.113 . S
H1187 Co1184 2.400 . S
H1187 Co1186 2.388 . S
H1187 O1188 0.760 . S
O1188 Co1184 2.009 . S
O1188 Co1185 2.126 . S
O1188 Co1186 2.053 . S
O1188 H1187 0.760 . S
H1189 Co1185 2.388 . S
H1189 O1190 0.760 . S
H1189 Co1191 2.400 . S
O1190 Co1185 2.053 . S
O1190 Co1186 2.126 . S
O1190 H1189 0.760 . S
O1190 Co1191 2.009 . S
Co1191 H1189 2.400 . S
Co1191 O1190 2.009 . S
Co1191 O1192 2.053 . S
Co1191 O1194 2.094 . S
Co1191 O1198 2.122 . S
Co1191 O1212 2.115 . S
Co1191 O1213 2.315 . S
O1192 Co1191 2.053 . S
O1192 C1204 1.259 . S
O1193 Co1185 2.047 . S
O1193 C1204 1.257 . S
O1194 Co1191 2.094 . S
O1194 C1205 1.253 . S
O1195 Co1186 2.063 . S
O1195 C1205 1.268 . S
O1196 Co1184 2.115 . S
O1196 C1206 1.281 . S
O1197 Co1184 2.315 . S
O1197 C1206 1.252 . S
O1198 Co1191 2.122 . S
O1198 C1207 1.272 . S
O1199 Co1185 2.113 . S
O1199 C1207 1.245 . S
C1200 O1208 1.259 . S
C1200 O1209 1.257 . S
C1201 O1210 1.268 . S
C1201 O1211 1.253 . S
C1202 O1212 1.281 . S
C1202 O1213 1.252 . S
C1203 O1214 1.272 . S
C1203 O1215 1.245 . S
C1204 O1192 1.259 . S
C1204 O1193 1.257 . S
C1205 O1194 1.253 . S
C1205 O1195 1.268 . S
C1206 O1196 1.281 . S
C1206 O1197 1.252 . S
C1207 O1198 1.272 . S
C1207 O1199 1.245 . S
O1208 Co1184 2.053 . S
O1208 C1200 1.259 . S
O1209 Co1186 2.047 . S
O1209 C1200 1.257 . S
O1210 Co1185 2.063 . S
O1210 C1201 1.268 . S
O1211 Co1184 2.094 . S
O1211 C1201 1.253 . S
O1212 Co1191 2.115 . S
O1212 C1202 1.281 . S
O1213 Co1191 2.315 . S
O1213 C1202 1.252 . S
O1214 Co1184 2.122 . S
O1214 C1203 1.272 . S
O1215 Co1186 2.113 . S
O1215 C1203 1.245 . S
Co1216 H1219 2.400 . S
Co1216 O1220 2.009 . S
Co1216 O1228 2.115 . S
Co1216 O1229 2.315 . S
Co1216 O1240 2.053 . S
Co1216 O1243 2.094 . S
Co1216 O1246 2.122 . S
Co1217 O1220 2.126 . S
Co1217 H1221 2.388 . S
Co1217 O1222 2.053 . S
Co1217 O1225 2.047 . S
Co1217 O1231 2.113 . S
Co1217 O1242 2.063 . S
Co1218 H1219 2.388 . S
Co1218 O1220 2.053 . S
Co1218 O1222 2.126 . S
Co1218 O1227 2.063 . S
Co1218 O1241 2.047 . S
Co1218 O1247 2.113 . S
H1219 Co1216 2.400 . S
H1219 Co1218 2.388 . S
H1219 O1220 0.760 . S
O1220 Co1216 2.009 . S
O1220 Co1217 2.126 . S
O1220 Co1218 2.053 . S
O1220 H1219 0.760 . S
H1221 Co1217 2.388 . S
H1221 O1222 0.760 . S
H1221 Co1223 2.400 . S
O1222 Co1217 2.053 . S
O1222 Co1218 2.126 . S
O1222 H1221 0.760 . S
O1222 Co1223 2.009 . S
Co1223 H1221 2.400 . S
Co1223 O1222 2.009 . S
Co1223 O1224 2.053 . S
Co1223 O1226 2.094 . S
Co1223 O1230 2.122 . S
Co1223 O1244 2.115 . S
Co1223 O1245 2.315 . S
O1224 Co1223 2.053 . S
O1224 C1236 1.259 . S
O1225 Co1217 2.047 . S
O1225 C1236 1.257 . S
O1226 Co1223 2.094 . S
O1226 C1237 1.253 . S
O1227 Co1218 2.063 . S
O1227 C1237 1.268 . S
O1228 Co1216 2.115 . S
O1228 C1238 1.281 . S
O1229 Co1216 2.315 . S
O1229 C1238 1.252 . S
O1230 Co1223 2.122 . S
O1230 C1239 1.272 . S
O1231 Co1217 2.113 . S
O1231 C1239 1.245 . S
C1232 O1240 1.259 . S
C1232 O1241 1.257 . S
C1233 O1242 1.268 . S
C1233 O1243 1.253 . S
C1234 O1244 1.281 . S
C1234 O1245 1.252 . S
C1235 O1246 1.272 . S
C1235 O1247 1.245 . S
C1236 O1224 1.259 . S
C1236 O1225 1.257 . S
C1237 O1226 1.253 . S
C1237 O1227 1.268 . S
C1238 O1228 1.281 . S
C1238 O1229 1.252 . S
C1239 O1230 1.272 . S
C1239 O1231 1.245 . S
O1240 Co1216 2.053 . S
O1240 C1232 1.259 . S
O1241 Co1218 2.047 . S
O1241 C1232 1.257 . S
O1242 Co1217 2.063 . S
O1242 C1233 1.268 . S
O1243 Co1216 2.094 . S
O1243 C1233 1.253 . S
O1244 Co1223 2.115 . S
O1244 C1234 1.281 . S
O1245 Co1223 2.315 . S
O1245 C1234 1.252 . S
O1246 Co1216 2.122 . S
O1246 C1235 1.272 . S
O1247 Co1218 2.113 . S
O1247 C1235 1.245 . S
Co1248 H1251 2.400 . S
Co1248 O1252 2.009 . S
Co1248 O1260 2.115 . S
Co1248 O1261 2.315 . S
Co1248 O1272 2.053 . S
Co1248 O1275 2.094 . S
Co1248 O1278 2.122 . S
Co1249 O1252 2.126 . S
Co1249 H1253 2.388 . S
Co1249 O1254 2.053 . S
Co1249 O1257 2.047 . S
Co1249 O1263 2.113 . S
Co1249 O1274 2.063 . S
Co1250 H1251 2.388 . S
Co1250 O1252 2.053 . S
Co1250 O1254 2.126 . S
Co1250 O1259 2.063 . S
Co1250 O1273 2.047 . S
Co1250 O1279 2.113 . S
H1251 Co1248 2.400 . S
H1251 Co1250 2.388 . S
H1251 O1252 0.760 . S
O1252 Co1248 2.009 . S
O1252 Co1249 2.126 . S
O1252 Co1250 2.053 . S
O1252 H1251 0.760 . S
H1253 Co1249 2.388 . S
H1253 O1254 0.760 . S
H1253 Co1255 2.400 . S
O1254 Co1249 2.053 . S
O1254 Co1250 2.126 . S
O1254 H1253 0.760 . S
O1254 Co1255 2.009 . S
Co1255 H1253 2.400 . S
Co1255 O1254 2.009 . S
Co1255 O1256 2.053 . S
Co1255 O1258 2.094 . S
Co1255 O1262 2.122 . S
Co1255 O1276 2.115 . S
Co1255 O1277 2.315 . S
O1256 Co1255 2.053 . S
O1256 C1268 1.259 . S
O1257 Co1249 2.047 . S
O1257 C1268 1.257 . S
O1258 Co1255 2.094 . S
O1258 C1269 1.253 . S
O1259 Co1250 2.063 . S
O1259 C1269 1.268 . S
O1260 Co1248 2.115 . S
O1260 C1270 1.281 . S
O1261 Co1248 2.315 . S
O1261 C1270 1.252 . S
O1262 Co1255 2.122 . S
O1262 C1271 1.272 . S
O1263 Co1249 2.113 . S
O1263 C1271 1.245 . S
C1264 O1272 1.259 . S
C1264 O1273 1.257 . S
C1265 O1274 1.268 . S
C1265 O1275 1.253 . S
C1266 O1276 1.281 . S
C1266 O1277 1.252 . S
C1267 O1278 1.272 . S
C1267 O1279 1.245 . S
C1268 O1256 1.259 . S
C1268 O1257 1.257 . S
C1269 O1258 1.253 . S
C1269 O1259 1.268 . S
C1270 O1260 1.281 . S
C1270 O1261 1.252 . S
C1271 O1262 1.272 . S
C1271 O1263 1.245 . S
O1272 Co1248 2.053 . S
O1272 C1264 1.259 . S
O1273 Co1250 2.047 . S
O1273 C1264 1.257 . S
O1274 Co1249 2.063 . S
O1274 C1265 1.268 . S
O1275 Co1248 2.094 . S
O1275 C1265 1.253 . S
O1276 Co1255 2.115 . S
O1276 C1266 1.281 . S
O1277 Co1255 2.315 . S
O1277 C1266 1.252 . S
O1278 Co1248 2.122 . S
O1278 C1267 1.272 . S
O1279 Co1250 2.113 . S
O1279 C1267 1.245 . S
Co1280 H1283 2.400 . S
Co1280 O1284 2.009 . S
Co1280 O1292 2.115 . S
Co1280 O1293 2.315 . S
Co1280 O1304 2.053 . S
Co1280 O1307 2.094 . S
Co1280 O1310 2.122 . S
Co1281 O1284 2.126 . S
Co1281 H1285 2.388 . S
Co1281 O1286 2.053 . S
Co1281 O1289 2.047 . S
Co1281 O1295 2.113 . S
Co1281 O1306 2.063 . S
Co1282 H1283 2.388 . S
Co1282 O1284 2.053 . S
Co1282 O1286 2.126 . S
Co1282 O1291 2.063 . S
Co1282 O1305 2.047 . S
Co1282 O1311 2.113 . S
H1283 Co1280 2.400 . S
H1283 Co1282 2.388 . S
H1283 O1284 0.760 . S
O1284 Co1280 2.009 . S
O1284 Co1281 2.126 . S
O1284 Co1282 2.053 . S
O1284 H1283 0.760 . S
H1285 Co1281 2.388 . S
H1285 O1286 0.760 . S
H1285 Co1287 2.400 . S
O1286 Co1281 2.053 . S
O1286 Co1282 2.126 . S
O1286 H1285 0.760 . S
O1286 Co1287 2.009 . S
Co1287 H1285 2.400 . S
Co1287 O1286 2.009 . S
Co1287 O1288 2.053 . S
Co1287 O1290 2.094 . S
Co1287 O1294 2.122 . S
Co1287 O1308 2.115 1_554 S
Co1287 O1309 2.315 1_554 S
O1288 Co1287 2.053 . S
O1288 C1300 1.259 . S
O1289 Co1281 2.047 . S
O1289 C1300 1.257 . S
O1290 Co1287 2.094 . S
O1290 C1301 1.253 . S
O1291 Co1282 2.063 . S
O1291 C1301 1.268 . S
O1292 Co1280 2.115 . S
O1292 C1302 1.281 . S
O1293 Co1280 2.315 . S
O1293 C1302 1.252 . S
O1294 Co1287 2.122 . S
O1294 C1303 1.272 . S
O1295 Co1281 2.113 . S
O1295 C1303 1.245 . S
C1296 O1304 1.259 . S
C1296 O1305 1.257 . S
C1297 O1306 1.268 . S
C1297 O1307 1.253 . S
C1298 O1308 1.281 . S
C1298 O1309 1.252 . S
C1299 O1310 1.272 . S
C1299 O1311 1.245 . S
C1300 O1288 1.259 . S
C1300 O1289 1.257 . S
C1301 O1290 1.253 . S
C1301 O1291 1.268 . S
C1302 O1292 1.281 . S
C1302 O1293 1.252 . S
C1303 O1294 1.272 . S
C1303 O1295 1.245 . S
O1304 Co1280 2.053 . S
O1304 C1296 1.259 . S
O1305 Co1282 2.047 . S
O1305 C1296 1.257 . S
O1306 Co1281 2.063 . S
O1306 C1297 1.268 . S
O1307 Co1280 2.094 . S
O1307 C1297 1.253 . S
O1308 Co1287 2.115 1_556 S
O1308 C1298 1.281 . S
O1309 Co1287 2.315 1_556 S
O1309 C1298 1.252 . S
O1310 Co1280 2.122 . S
O1310 C1299 1.272 . S
O1311 Co1282 2.113 . S
O1311 C1299 1.245 . S
Co1312 H1315 2.400 . S
Co1312 O1316 2.009 . S
Co1312 O1324 2.115 . S
Co1312 O1325 2.315 . S
Co1312 O1336 2.053 . S
Co1312 O1339 2.094 . S
Co1312 O1342 2.122 . S
Co1313 O1316 2.126 . S
Co1313 H1317 2.388 . S
Co1313 O1318 2.053 . S
Co1313 O1321 2.047 . S
Co1313 O1327 2.113 . S
Co1313 O1338 2.063 . S
Co1314 H1315 2.388 . S
Co1314 O1316 2.053 . S
Co1314 O1318 2.126 . S
Co1314 O1323 2.063 . S
Co1314 O1337 2.047 . S
Co1314 O1343 2.113 . S
H1315 Co1312 2.400 . S
H1315 Co1314 2.388 . S
H1315 O1316 0.760 . S
O1316 Co1312 2.009 . S
O1316 Co1313 2.126 . S
O1316 Co1314 2.053 . S
O1316 H1315 0.760 . S
H1317 Co1313 2.388 . S
H1317 O1318 0.760 . S
H1317 Co1319 2.400 . S
O1318 Co1313 2.053 . S
O1318 Co1314 2.126 . S
O1318 H1317 0.760 . S
O1318 Co1319 2.009 . S
Co1319 H1317 2.400 . S
Co1319 O1318 2.009 . S
Co1319 O1320 2.053 . S
Co1319 O1322 2.094 . S
Co1319 O1326 2.122 . S
Co1319 O1340 2.115 . S
Co1319 O1341 2.315 . S
O1320 Co1319 2.053 . S
O1320 C1332 1.259 . S
O1321 Co1313 2.047 . S
O1321 C1332 1.257 . S
O1322 Co1319 2.094 . S
O1322 C1333 1.253 . S
O1323 Co1314 2.063 . S
O1323 C1333 1.268 . S
O1324 Co1312 2.115 . S
O1324 C1334 1.281 . S
O1325 Co1312 2.315 . S
O1325 C1334 1.252 . S
O1326 Co1319 2.122 . S
O1326 C1335 1.272 . S
O1327 Co1313 2.113 . S
O1327 C1335 1.245 . S
C1328 O1336 1.259 . S
C1328 O1337 1.257 . S
C1329 O1338 1.268 . S
C1329 O1339 1.253 . S
C1330 O1340 1.281 . S
C1330 O1341 1.252 . S
C1331 O1342 1.272 . S
C1331 O1343 1.245 . S
C1332 O1320 1.259 . S
C1332 O1321 1.257 . S
C1333 O1322 1.253 . S
C1333 O1323 1.268 . S
C1334 O1324 1.281 . S
C1334 O1325 1.252 . S
C1335 O1326 1.272 . S
C1335 O1327 1.245 . S
O1336 Co1312 2.053 . S
O1336 C1328 1.259 . S
O1337 Co1314 2.047 . S
O1337 C1328 1.257 . S
O1338 Co1313 2.063 . S
O1338 C1329 1.268 . S
O1339 Co1312 2.094 . S
O1339 C1329 1.253 . S
O1340 Co1319 2.115 . S
O1340 C1330 1.281 . S
O1341 Co1319 2.315 . S
O1341 C1330 1.252 . S
O1342 Co1312 2.122 . S
O1342 C1331 1.272 . S
O1343 Co1314 2.113 . S
O1343 C1331 1.245 . S
Co1344 H1347 2.400 . S
Co1344 O1348 2.009 . S
Co1344 O1356 2.115 . S
Co1344 O1357 2.315 . S
Co1344 O1368 2.053 . S
Co1344 O1371 2.094 . S
Co1344 O1374 2.122 . S
Co1345 O1348 2.126 . S
Co1345 H1349 2.388 . S
Co1345 O1350 2.053 . S
Co1345 O1353 2.047 . S
Co1345 O1359 2.113 . S
Co1345 O1370 2.063 . S
Co1346 H1347 2.388 . S
Co1346 O1348 2.053 . S
Co1346 O1350 2.126 . S
Co1346 O1355 2.063 . S
Co1346 O1369 2.047 . S
Co1346 O1375 2.113 . S
H1347 Co1344 2.400 . S
H1347 Co1346 2.388 . S
H1347 O1348 0.760 . S
O1348 Co1344 2.009 . S
O1348 Co1345 2.126 . S
O1348 Co1346 2.053 . S
O1348 H1347 0.760 . S
H1349 Co1345 2.388 . S
H1349 O1350 0.760 . S
H1349 Co1351 2.400 . S
O1350 Co1345 2.053 . S
O1350 Co1346 2.126 . S
O1350 H1349 0.760 . S
O1350 Co1351 2.009 . S
Co1351 H1349 2.400 . S
Co1351 O1350 2.009 . S
Co1351 O1352 2.053 . S
Co1351 O1354 2.094 . S
Co1351 O1358 2.122 . S
Co1351 O1372 2.115 . S
Co1351 O1373 2.315 . S
O1352 Co1351 2.053 . S
O1352 C1364 1.259 . S
O1353 Co1345 2.047 . S
O1353 C1364 1.257 . S
O1354 Co1351 2.094 . S
O1354 C1365 1.253 . S
O1355 Co1346 2.063 . S
O1355 C1365 1.268 . S
O1356 Co1344 2.115 . S
O1356 C1366 1.281 . S
O1357 Co1344 2.315 . S
O1357 C1366 1.252 . S
O1358 Co1351 2.122 . S
O1358 C1367 1.272 . S
O1359 Co1345 2.113 . S
O1359 C1367 1.245 . S
C1360 O1368 1.259 . S
C1360 O1369 1.257 . S
C1361 O1370 1.268 . S
C1361 O1371 1.253 . S
C1362 O1372 1.281 . S
C1362 O1373 1.252 . S
C1363 O1374 1.272 . S
C1363 O1375 1.245 . S
C1364 O1352 1.259 . S
C1364 O1353 1.257 . S
C1365 O1354 1.253 . S
C1365 O1355 1.268 . S
C1366 O1356 1.281 . S
C1366 O1357 1.252 . S
C1367 O1358 1.272 . S
C1367 O1359 1.245 . S
O1368 Co1344 2.053 . S
O1368 C1360 1.259 . S
O1369 Co1346 2.047 . S
O1369 C1360 1.257 . S
O1370 Co1345 2.063 . S
O1370 C1361 1.268 . S
O1371 Co1344 2.094 . S
O1371 C1361 1.253 . S
O1372 Co1351 2.115 . S
O1372 C1362 1.281 . S
O1373 Co1351 2.315 . S
O1373 C1362 1.252 . S
O1374 Co1344 2.122 . S
O1374 C1363 1.272 . S
O1375 Co1346 2.113 . S
O1375 C1363 1.245 . S
Co1376 H1379 2.400 . S
Co1376 O1380 2.009 . S
Co1376 O1388 2.115 1_556 S
Co1376 O1389 2.315 1_556 S
Co1376 O1400 2.053 . S
Co1376 O1403 2.094 . S
Co1376 O1406 2.122 . S
Co1377 O1380 2.126 . S
Co1377 H1381 2.388 . S
Co1377 O1382 2.053 . S
Co1377 O1385 2.047 . S
Co1377 O1391 2.113 . S
Co1377 O1402 2.063 . S
Co1378 H1379 2.388 . S
Co1378 O1380 2.053 . S
Co1378 O1382 2.126 . S
Co1378 O1387 2.063 . S
Co1378 O1401 2.047 . S
Co1378 O1407 2.113 . S
H1379 Co1376 2.400 . S
H1379 Co1378 2.388 . S
H1379 O1380 0.760 . S
O1380 Co1376 2.009 . S
O1380 Co1377 2.126 . S
O1380 Co1378 2.053 . S
O1380 H1379 0.760 . S
H1381 Co1377 2.388 . S
H1381 O1382 0.760 . S
H1381 Co1383 2.400 . S
O1382 Co1377 2.053 . S
O1382 Co1378 2.126 . S
O1382 H1381 0.760 . S
O1382 Co1383 2.009 . S
Co1383 H1381 2.400 . S
Co1383 O1382 2.009 . S
Co1383 O1384 2.053 . S
Co1383 O1386 2.094 . S
Co1383 O1390 2.122 . S
Co1383 O1404 2.115 . S
Co1383 O1405 2.315 . S
O1384 Co1383 2.053 . S
O1384 C1396 1.259 . S
O1385 Co1377 2.047 . S
O1385 C1396 1.257 . S
O1386 Co1383 2.094 . S
O1386 C1397 1.253 . S
O1387 Co1378 2.063 . S
O1387 C1397 1.268 . S
O1388 Co1376 2.115 1_554 S
O1388 C1398 1.281 . S
O1389 Co1376 2.315 1_554 S
O1389 C1398 1.252 . S
O1390 Co1383 2.122 . S
O1390 C1399 1.272 . S
O1391 Co1377 2.113 . S
O1391 C1399 1.245 . S
C1392 O1400 1.259 . S
C1392 O1401 1.257 . S
C1393 O1402 1.268 . S
C1393 O1403 1.253 . S
C1394 O1404 1.281 . S
C1394 O1405 1.252 . S
C1395 O1406 1.272 . S
C1395 O1407 1.245 . S
C1396 O1384 1.259 . S
C1396 O1385 1.257 . S
C1397 O1386 1.253 . S
C1397 O1387 1.268 . S
C1398 O1388 1.281 . S
C1398 O1389 1.252 . S
C1399 O1390 1.272 . S
C1399 O1391 1.245 . S
O1400 Co1376 2.053 . S
O1400 C1392 1.259 . S
O1401 Co1378 2.047 . S
O1401 C1392 1.257 . S
O1402 Co1377 2.063 . S
O1402 C1393 1.268 . S
O1403 Co1376 2.094 . S
O1403 C1393 1.253 . S
O1404 Co1383 2.115 . S
O1404 C1394 1.281 . S
O1405 Co1383 2.315 . S
O1405 C1394 1.252 . S
O1406 Co1376 2.122 . S
O1406 C1395 1.272 . S
O1407 Co1378 2.113 . S
O1407 C1395 1.245 . S
Co1408 H1411 2.400 . S
Co1408 O1412 2.009 . S
Co1408 O1420 2.115 . S
Co1408 O1421 2.315 . S
Co1408 O1432 2.053 . S
Co1408 O1435 2.094 . S
Co1408 O1438 2.122 . S
Co1409 O1412 2.126 . S
Co1409 H1413 2.388 . S
Co1409 O1414 2.053 . S
Co1409 O1417 2.047 1_565 S
Co1409 O1423 2.113 . S
Co1409 O1434 2.063 . S
Co1410 H1411 2.388 . S
Co1410 O1412 2.053 . S
Co1410 O1414 2.126 . S
Co1410 O1419 2.063 . S
Co1410 O1433 2.047 . S
Co1410 O1439 2.113 . S
H1411 Co1408 2.400 . S
H1411 Co1410 2.388 . S
H1411 O1412 0.760 . S
O1412 Co1408 2.009 . S
O1412 Co1409 2.126 . S
O1412 Co1410 2.053 . S
O1412 H1411 0.760 . S
H1413 Co1409 2.388 . S
H1413 O1414 0.760 . S
H1413 Co1415 2.400 . S
O1414 Co1409 2.053 . S
O1414 Co1410 2.126 . S
O1414 H1413 0.760 . S
O1414 Co1415 2.009 . S
Co1415 H1413 2.400 . S
Co1415 O1414 2.009 . S
Co1415 O1416 2.053 . S
Co1415 O1418 2.094 . S
Co1415 O1422 2.122 . S
Co1415 O1436 2.115 . S
Co1415 O1437 2.315 . S
O1416 Co1415 2.053 . S
O1416 C1428 1.259 1_565 S
O1417 Co1409 2.047 1_545 S
O1417 C1428 1.257 . S
O1418 Co1415 2.094 . S
O1418 C1429 1.253 . S
O1419 Co1410 2.063 . S
O1419 C1429 1.268 . S
O1420 Co1408 2.115 . S
O1420 C1430 1.281 . S
O1421 Co1408 2.315 . S
O1421 C1430 1.252 . S
O1422 Co1415 2.122 . S
O1422 C1431 1.272 . S
O1423 Co1409 2.113 . S
O1423 C1431 1.245 . S
C1424 O1432 1.259 . S
C1424 O1433 1.257 . S
C1425 O1434 1.268 . S
C1425 O1435 1.253 . S
C1426 O1436 1.281 . S
C1426 O1437 1.252 . S
C1427 O1438 1.272 . S
C1427 O1439 1.245 . S
C1428 O1416 1.259 1_545 S
C1428 O1417 1.257 . S
C1429 O1418 1.253 . S
C1429 O1419 1.268 . S
C1430 O1420 1.281 . S
C1430 O1421 1.252 . S
C1431 O1422 1.272 . S
C1431 O1423 1.245 . S
O1432 Co1408 2.053 . S
O1432 C1424 1.259 . S
O1433 Co1410 2.047 . S
O1433 C1424 1.257 . S
O1434 Co1409 2.063 . S
O1434 C1425 1.268 . S
O1435 Co1408 2.094 . S
O1435 C1425 1.253 . S
O1436 Co1415 2.115 . S
O1436 C1426 1.281 . S
O1437 Co1415 2.315 . S
O1437 C1426 1.252 . S
O1438 Co1408 2.122 . S
O1438 C1427 1.272 . S
O1439 Co1410 2.113 . S
O1439 C1427 1.245 . S
Co1440 H1443 2.400 . S
Co1440 O1444 2.009 . S
Co1440 O1452 2.115 . S
Co1440 O1453 2.315 . S
Co1440 O1464 2.053 . S
Co1440 O1467 2.094 . S
Co1440 O1470 2.122 . S
Co1441 O1444 2.126 . S
Co1441 H1445 2.388 . S
Co1441 O1446 2.053 . S
Co1441 O1449 2.047 . S
Co1441 O1455 2.113 . S
Co1441 O1466 2.063 . S
Co1442 H1443 2.388 . S
Co1442 O1444 2.053 . S
Co1442 O1446 2.126 . S
Co1442 O1451 2.063 . S
Co1442 O1465 2.047 1_545 S
Co1442 O1471 2.113 . S
H1443 Co1440 2.400 . S
H1443 Co1442 2.388 . S
H1443 O1444 0.760 . S
O1444 Co1440 2.009 . S
O1444 Co1441 2.126 . S
O1444 Co1442 2.053 . S
O1444 H1443 0.760 . S
H1445 Co1441 2.388 . S
H1445 O1446 0.760 . S
H1445 Co1447 2.400 . S
O1446 Co1441 2.053 . S
O1446 Co1442 2.126 . S
O1446 H1445 0.760 . S
O1446 Co1447 2.009 . S
Co1447 H1445 2.400 . S
Co1447 O1446 2.009 . S
Co1447 O1448 2.053 . S
Co1447 O1450 2.094 . S
Co1447 O1454 2.122 . S
Co1447 O1468 2.115 . S
Co1447 O1469 2.315 . S
O1448 Co1447 2.053 . S
O1448 C1460 1.259 . S
O1449 Co1441 2.047 . S
O1449 C1460 1.257 . S
O1450 Co1447 2.094 . S
O1450 C1461 1.253 . S
O1451 Co1442 2.063 . S
O1451 C1461 1.268 . S
O1452 Co1440 2.115 . S
O1452 C1462 1.281 . S
O1453 Co1440 2.315 . S
O1453 C1462 1.252 . S
O1454 Co1447 2.122 . S
O1454 C1463 1.272 . S
O1455 Co1441 2.113 . S
O1455 C1463 1.245 . S
C1456 O1464 1.259 1_565 S
C1456 O1465 1.257 . S
C1457 O1466 1.268 . S
C1457 O1467 1.253 . S
C1458 O1468 1.281 . S
C1458 O1469 1.252 . S
C1459 O1470 1.272 . S
C1459 O1471 1.245 . S
C1460 O1448 1.259 . S
C1460 O1449 1.257 . S
C1461 O1450 1.253 . S
C1461 O1451 1.268 . S
C1462 O1452 1.281 . S
C1462 O1453 1.252 . S
C1463 O1454 1.272 . S
C1463 O1455 1.245 . S
O1464 Co1440 2.053 . S
O1464 C1456 1.259 1_545 S
O1465 Co1442 2.047 1_565 S
O1465 C1456 1.257 . S
O1466 Co1441 2.063 . S
O1466 C1457 1.268 . S
O1467 Co1440 2.094 . S
O1467 C1457 1.253 . S
O1468 Co1447 2.115 . S
O1468 C1458 1.281 . S
O1469 Co1447 2.315 . S
O1469 C1458 1.252 . S
O1470 Co1440 2.122 . S
O1470 C1459 1.272 . S
O1471 Co1442 2.113 . S
O1471 C1459 1.245 . S
Co1472 H1475 2.400 . S
Co1472 O1476 2.009 . S
Co1472 O1484 2.115 . S
Co1472 O1485 2.315 . S
Co1472 O1496 2.053 . S
Co1472 O1499 2.094 . S
Co1472 O1502 2.122 . S
Co1473 O1476 2.126 . S
Co1473 H1477 2.388 . S
Co1473 O1478 2.053 . S
Co1473 O1481 2.047 . S
Co1473 O1487 2.113 . S
Co1473 O1498 2.063 . S
Co1474 H1475 2.388 . S
Co1474 O1476 2.053 . S
Co1474 O1478 2.126 . S
Co1474 O1483 2.063 . S
Co1474 O1497 2.047 . S
Co1474 O1503 2.113 . S
H1475 Co1472 2.400 . S
H1475 Co1474 2.388 . S
H1475 O1476 0.760 . S
O1476 Co1472 2.009 . S
O1476 Co1473 2.126 . S
O1476 Co1474 2.053 . S
O1476 H1475 0.760 . S
H1477 Co1473 2.388 . S
H1477 O1478 0.760 . S
H1477 Co1479 2.400 . S
O1478 Co1473 2.053 . S
O1478 Co1474 2.126 . S
O1478 H1477 0.760 . S
O1478 Co1479 2.009 . S
Co1479 H1477 2.400 . S
Co1479 O1478 2.009 . S
Co1479 O1480 2.053 . S
Co1479 O1482 2.094 . S
Co1479 O1486 2.122 . S
Co1479 O1500 2.115 . S
Co1479 O1501 2.315 . S
O1480 Co1479 2.053 . S
O1480 C1492 1.259 . S
O1481 Co1473 2.047 . S
O1481 C1492 1.257 . S
O1482 Co1479 2.094 . S
O1482 C1493 1.253 . S
O1483 Co1474 2.063 . S
O1483 C1493 1.268 . S
O1484 Co1472 2.115 . S
O1484 C1494 1.281 . S
O1485 Co1472 2.315 . S
O1485 C1494 1.252 . S
O1486 Co1479 2.122 . S
O1486 C1495 1.272 . S
O1487 Co1473 2.113 . S
O1487 C1495 1.245 . S
C1488 O1496 1.259 . S
C1488 O1497 1.257 . S
C1489 O1498 1.268 . S
C1489 O1499 1.253 . S
C1490 O1500 1.281 . S
C1490 O1501 1.252 . S
C1491 O1502 1.272 . S
C1491 O1503 1.245 . S
C1492 O1480 1.259 . S
C1492 O1481 1.257 . S
C1493 O1482 1.253 . S
C1493 O1483 1.268 . S
C1494 O1484 1.281 . S
C1494 O1485 1.252 . S
C1495 O1486 1.272 . S
C1495 O1487 1.245 . S
O1496 Co1472 2.053 . S
O1496 C1488 1.259 . S
O1497 Co1474 2.047 . S
O1497 C1488 1.257 . S
O1498 Co1473 2.063 . S
O1498 C1489 1.268 . S
O1499 Co1472 2.094 . S
O1499 C1489 1.253 . S
O1500 Co1479 2.115 . S
O1500 C1490 1.281 . S
O1501 Co1479 2.315 . S
O1501 C1490 1.252 . S
O1502 Co1472 2.122 . S
O1502 C1491 1.272 . S
O1503 Co1474 2.113 . S
O1503 C1491 1.245 . S
Co1504 H1507 2.400 . S
Co1504 O1508 2.009 . S
Co1504 O1516 2.115 . S
Co1504 O1517 2.315 . S
Co1504 O1528 2.053 . S
Co1504 O1531 2.094 . S
Co1504 O1534 2.122 . S
Co1505 O1508 2.126 . S
Co1505 H1509 2.388 . S
Co1505 O1510 2.053 . S
Co1505 O1513 2.047 . S
Co1505 O1519 2.113 . S
Co1505 O1530 2.063 . S
Co1506 H1507 2.388 . S
Co1506 O1508 2.053 . S
Co1506 O1510 2.126 . S
Co1506 O1515 2.063 . S
Co1506 O1529 2.047 . S
Co1506 O1535 2.113 . S
H1507 Co1504 2.400 . S
H1507 Co1506 2.388 . S
H1507 O1508 0.760 . S
O1508 Co1504 2.009 . S
O1508 Co1505 2.126 . S
O1508 Co1506 2.053 . S
O1508 H1507 0.760 . S
H1509 Co1505 2.388 . S
H1509 O1510 0.760 . S
H1509 Co1511 2.400 . S
O1510 Co1505 2.053 . S
O1510 Co1506 2.126 . S
O1510 H1509 0.760 . S
O1510 Co1511 2.009 . S
Co1511 H1509 2.400 . S
Co1511 O1510 2.009 . S
Co1511 O1512 2.053 . S
Co1511 O1514 2.094 . S
Co1511 O1518 2.122 . S
Co1511 O1532 2.115 . S
Co1511 O1533 2.315 . S
O1512 Co1511 2.053 . S
O1512 C1524 1.259 . S
O1513 Co1505 2.047 . S
O1513 C1524 1.257 . S
O1514 Co1511 2.094 . S
O1514 C1525 1.253 . S
O1515 Co1506 2.063 . S
O1515 C1525 1.268 . S
O1516 Co1504 2.115 . S
O1516 C1526 1.281 . S
O1517 Co1504 2.315 . S
O1517 C1526 1.252 . S
O1518 Co1511 2.122 . S
O1518 C1527 1.272 . S
O1519 Co1505 2.113 . S
O1519 C1527 1.245 . S
C1520 O1528 1.259 . S
C1520 O1529 1.257 . S
C1521 O1530 1.268 . S
C1521 O1531 1.253 . S
C1522 O1532 1.281 . S
C1522 O1533 1.252 . S
C1523 O1534 1.272 . S
C1523 O1535 1.245 . S
C1524 O1512 1.259 . S
C1524 O1513 1.257 . S
C1525 O1514 1.253 . S
C1525 O1515 1.268 . S
C1526 O1516 1.281 . S
C1526 O1517 1.252 . S
C1527 O1518 1.272 . S
C1527 O1519 1.245 . S
O1528 Co1504 2.053 . S
O1528 C1520 1.259 . S
O1529 Co1506 2.047 . S
O1529 C1520 1.257 . S
O1530 Co1505 2.063 . S
O1530 C1521 1.268 . S
O1531 Co1504 2.094 . S
O1531 C1521 1.253 . S
O1532 Co1511 2.115 . S
O1532 C1522 1.281 . S
O1533 Co1511 2.315 . S
O1533 C1522 1.252 . S
O1534 Co1504 2.122 . S
O1534 C1523 1.272 . S
O1535 Co1506 2.113 . S
O1535 C1523 1.245 . S
C500 C18 2.982 . S
C596 C50 2.887 . S
C81 C438 3.442 . S
C469 C113 2.843 . S
C789 C144 3.202 . S
C1110 C183 2.459 . S
C215 C1427 2.800 1_545 S
C1139 C240 2.628 1_455 S
C279 C84 2.628 1_554 S
C305 C116 3.202 . S
C338 C19 2.459 . S
C375 C51 2.800 . S
C214 C272 2.887 . S
C245 C306 3.442 . S
C337 C149 2.843 . S
C182 C368 2.982 1_554 S
C402 C949 2.991 . S
C278 C439 2.697 . S
C308 C464 2.407 . S
C339 C497 2.823 1_545 S
C1334 C529 2.991 . S
C560 C1044 2.407 . S
C853 C471 2.823 1_545 S
C915 C594 2.697 1_655 S
C848 C246 2.982 . S
C944 C630 2.887 . S
C818 C661 3.442 . S
C691 C1042 2.459 . S
C1463 C723 2.800 1_545 S
C1271 C20 2.628 1_655 S
C755 C656 2.628 1_556 S
C470 C247 2.459 . S
C403 C631 2.800 . S
C722 C756 2.887 . S
C790 C17 3.442 . S
C404 C690 2.982 1_554 S
C593 C374 2.991 . S
C754 C819 2.697 . S
C340 C784 2.407 . S
C885 C1362 2.991 . S
C916 C1104 2.407 . S
C567 C950 2.697 1_455 S
C114 C1140 2.887 . S
C1078 C977 3.442 . S
C49 C1109 2.843 . S
C624 C565 3.202 . S
C1363 C1015 2.800 . S
C595 C176 2.628 1_456 S
C887 C980 2.628 . S
C913 C52 3.202 . S
C855 C115 2.800 1_545 S
C1014 C880 2.887 . S
C181 C914 3.442 . S
C629 C1041 2.843 . S
C1269 C498 2.991 1_545 S
C886 C1079 2.697 . S
C1043 C401 2.823 . S
C1462 C753 2.991 1_545 S
C1111 C373 2.823 . S
C1138 C307 2.697 1_455 S
C1264 C150 2.887 . S
C1234 C1173 3.442 . S
C1335 C1203 2.800 . S
C951 C692 2.628 1_654 S
C1168 C531 2.628 . S
C151 C499 2.800 1_545 S
C532 C1202 2.887 . S
C689 C566 3.442 . S
C854 C1137 2.991 1_545 S
C530 C1235 2.697 . S
C1426 C277 2.991 1_565 S
C791 C1270 2.697 1_455 S
C1428 C82 2.982 1_554 S
C1397 C721 2.843 . S
C208 C437 3.202 . S
C1526 C1175 2.459 . S
C724 C817 3.202 . S
C83 C1298 2.459 . S
C213 C1297 2.843 . S
C1174 C1328 2.982 . S
C820 C1392 2.407 . S
C1425 C1299 2.823 1_565 S
C1492 C1072 2.407 . S
C1461 C1399 2.823 1_545 S
C662 C1456 2.982 1_554 S
C979 C1490 2.459 . S
C663 C1398 2.459 . S
C978 C1364 2.982 . S
C432 C1300 2.407 . S
C1520 C1236 2.407 . S
C1525 C1201 2.843 . S
C1008 C1077 3.202 . S
C1204 C1233 3.202 . S
C1013 C1489 2.843 . S
C1361 C1491 2.823 . S
C1333 C1527 2.823 . S
C1142 C21 2.720 1_565 S
C788 C53 2.127 1_455 S
C1107 C86 2.032 . S
C1430 C118 1.061 . S
C147 C597 2.027 . S
C180 C435 2.212 . S
C212 C468 2.825 1_545 S
C243 C501 1.848 . S
C276 C1459 2.528 1_554 S
C947 C310 2.185 . S
C1237 C341 1.994 . S
C1494 C372 2.854 . S
C275 C1238 2.185 . S
C309 C1493 1.994 . S
C342 C1460 2.854 . S
C948 C371 2.528 1_554 S
C179 C405 1.848 . S
C436 C1205 2.127 . S
C467 C982 2.032 . S
C502 C726 1.061 . S
C534 C981 2.720 . S
C563 C660 2.212 . S
C1266 C241 2.720 1_545 S
C304 C625 2.127 1_655 S
C1047 C658 2.032 . S
C1458 C146 1.061 . S
C945 C119 2.027 . S
C823 C688 2.212 . S
C720 C336 2.825 1_565 S
C23 C849 1.848 . S
C1431 C752 2.528 1_554 S
C786 C599 2.185 . S
C465 C1073 1.994 . S
C1522 C400 2.854 . S
C759 C1074 2.185 . S
C785 C1521 1.994 . S
C466 C1424 2.854 . S
C407 C592 2.528 1_554 S
C695 C369 1.848 . S
C816 C1009 2.127 . S
C1170 C343 2.032 . S
C210 C850 1.061 . S
C1169 C882 2.720 . S
C80 C919 2.212 . S
C598 C693 2.720 . S
C564 C117 2.127 1_455 S
C1366 C54 1.061 . S
C627 C1141 2.027 . S
C1075 C244 2.212 . S
C1108 C1012 2.825 . S
C884 C1331 2.528 . S
C918 C1267 2.185 . S
C1045 C821 1.994 1_554 S
C852 C1302 2.854 . S
C883 C822 2.185 . S
C917 C1301 1.994 1_556 S
C1332 C1046 2.854 . S
C1268 C851 2.528 . S
C725 C1076 2.127 . S
C1206 C406 1.061 . S
C758 C85 2.720 1_565 S
C787 C1172 2.212 . S
C946 C177 2.720 . S
C145 C912 2.127 1_455 S
C626 C1330 1.061 . S
C55 C1265 2.027 . S
C16 C1239 2.212 . S
C1200 C1040 2.825 . S
C528 C1367 2.528 . S
C562 C1143 2.185 . S
C433 C1105 1.994 1_554 S
C496 C1394 2.854 . S
C434 C535 2.185 . S
C561 C1393 1.994 1_554 S
C1106 C1360 2.854 . S
C1136 C503 2.528 . S
C209 C1232 2.127 . S
C1010 C370 1.061 . S
C657 C274 2.720 1_565 S
C976 C311 2.212 . S
C1523 C22 2.032 . S
C533 C211 2.027 . S
C148 C1396 2.825 1_545 S
C1429 C659 1.848 . S
C1171 C1365 1.848 . S
C694 C1395 2.032 . S
C242 C1495 2.032 . S
C881 C727 2.027 . S
C112 C1296 2.825 1_565 S
C87 C1457 1.848 . S
C983 C1329 1.848 . S
C178 C1303 2.032 . S
C757 C1011 2.027 . S
C1524 C628 2.825 . S
C1207 C273 2.027 . S
C1488 C48 2.825 . S
