# Generated by pormake.
# Topology uni, (4)-cn, num edge types: 1
# Building blocks:
#     Node 0, Type 0, BuildingBlock: CEKHIL_clean_sbu_0, # of connection points: 4
#     Node 1, Type 0, BuildingBlock: CEKHIL_clean_sbu_0, # of connection points: 4
#     Node 2, Type 0, BuildingBlock: CEKHIL_clean_sbu_0, # of connection points: 4
#     Node 3, Type 0, BuildingBlock: CEKHIL_clean_sbu_0, # of connection points: 4
#     Node 4, Type 0, BuildingBlock: CEKHIL_clean_sbu_0, # of connection points: 4
#     Node 5, Type 0, BuildingBlock: CEKHIL_clean_sbu_0, # of connection points: 4
#     Edge 6, Type (0, 0), BuildingBlock: EZIPEK_clean_linker_0, # of connection points: 2
#     Edge 7, Type (0, 0), BuildingBlock: EZIPEK_clean_linker_0, # of connection points: 2
#     Edge 8, Type (0, 0), BuildingBlock: EZIPEK_clean_linker_0, # of connection points: 2
#     Edge 9, Type (0, 0), BuildingBlock: EZIPEK_clean_linker_0, # of connection points: 2
#     Edge 10, Type (0, 0), BuildingBlock: EZIPEK_clean_linker_0, # of connection points: 2
#     Edge 11, Type (0, 0), BuildingBlock: EZIPEK_clean_linker_0, # of connection points: 2
#     Edge 12, Type (0, 0), BuildingBlock: EZIPEK_clean_linker_0, # of connection points: 2
#     Edge 13, Type (0, 0), BuildingBlock: EZIPEK_clean_linker_0, # of connection points: 2
#     Edge 14, Type (0, 0), BuildingBlock: EZIPEK_clean_linker_0, # of connection points: 2
#     Edge 15, Type (0, 0), BuildingBlock: EZIPEK_clean_linker_0, # of connection points: 2
#     Edge 16, Type (0, 0), BuildingBlock: EZIPEK_clean_linker_0, # of connection points: 2
#     Edge 17, Type (0, 0), BuildingBlock: EZIPEK_clean_linker_0, # of connection points: 2
# Relax obj value: 0.073
# Max RMSD: 0.104
# Mean RMSD: 0.096
data_MOF--net-uni--node1-CEKHIL_clean_sbu_0--edge1-EZIPEK_clean_linker_0
_symmetry_space_group_name_H-M    P1
_symmetry_Int_Tables_number       1
_symmetry_cell_setting            triclinic
loop_
_symmetry_equiv_pos_as_xyz
'x, y, z'
_cell_length_a     28.054564
_cell_length_b     27.824759
_cell_length_c     16.860949
_cell_angle_alpha  90.0452
_cell_angle_beta   89.99312
_cell_angle_gamma 121.14232
loop_
_atom_site_label
_atom_site_type_symbol
_atom_site_fract_x
_atom_site_fract_y
_atom_site_fract_z
_atom_type_partial_charge
Co0 Co 0.6751 0.0288 0.06506 0.0
O1 O 0.71165 1.00266 0.13577 0.0
O2 O 0.64493 0.94923 0.05074 0.0
C3 C 0.75521 0.10691 0.02428 0.0
O4 O 0.62804 0.03689 0.97961 0.0
Co5 Co 0.67913 0.14107 0.08011 0.0
O6 O 0.64176 0.12367 0.97512 0.0
C7 C 0.60755 0.04766 0.18892 0.0
C8 C 0.68004 0.95331 0.10432 0.0
C9 C 0.62011 0.07411 0.94754 0.0
O10 O 0.61736 0.01404 0.14921 0.0
O11 O 0.63128 0.1003 0.17444 0.0
O12 O 0.73855 0.05823 0.99208 0.0
O13 O 0.72448 0.10686 0.08139 0.0
Co14 Co 0.68168 0.67279 0.22584 0.0
O15 O 0.74403 0.7053 0.29936 0.0
O16 O 0.72828 0.64147 0.20835 0.0
C17 C 0.68818 0.7548 0.19044 0.0
O18 O 0.62539 0.62993 0.13757 0.0
Co19 Co 0.57533 0.67901 0.2471 0.0
O20 O 0.55015 0.63859 0.14431 0.0
C21 C 0.5934 0.60361 0.34906 0.0
C22 C 0.75968 0.67372 0.26532 0.0
C23 C 0.57801 0.61982 0.11101 0.0
O24 O 0.63459 0.61168 0.30528 0.0
O25 O 0.56762 0.63003 0.33962 0.0
O26 O 0.72032 0.73945 0.15801 0.0
O27 O 0.65618 0.72245 0.24626 0.0
Co28 Co 0.03569 0.6687 0.39318 0.0
O29 O 1.00764 0.70312 0.32152 0.0
O30 O 0.9567 0.63694 0.40887 0.0
C31 C 0.11246 0.75071 0.43189 0.0
O32 O 0.0463 0.62316 0.47914 0.0
Co33 Co 0.14879 0.67601 0.37703 0.0
O34 O 0.1343 0.64239 0.48463 0.0
C35 C 0.05541 0.60085 0.27053 0.0
C36 C 0.95917 0.67082 0.35394 0.0
C37 C 0.085 0.61837 0.51219 0.0
O38 O 0.02165 0.61004 0.31035 0.0
O39 O 0.10782 0.62597 0.28427 0.0
O40 O 0.06427 0.73354 0.46458 0.0
O41 O 0.11254 0.71946 0.37528 0.0
Co42 Co 0.39823 0.03255 0.56374 0.0
O43 O 0.36459 0.06158 0.63523 0.0
O44 O 0.43193 0.11286 0.55014 0.0
C45 C 0.31657 0.95699 0.52219 0.0
O46 O 0.44234 0.02034 0.47743 0.0
Co47 Co 0.3866 0.91604 0.58089 0.0
O48 O 0.42842 0.93321 0.47965 0.0
C49 C 0.46145 0.00832 0.6887 0.0
C50 C 0.39755 0.11055 0.60373 0.0
C51 C 0.45032 0.98198 0.44925 0.0
O52 O 0.4553 0.04381 0.64735 0.0
O53 O 0.43409 0.95534 0.67591 0.0
O54 O 0.33469 1.00632 0.49138 0.0
O55 O 0.34633 0.9555 0.57943 0.0
Co56 Co 0.39666 0.39231 0.72636 0.0
O57 O 0.33316 0.35738 0.79791 0.0
O58 O 0.34926 0.42274 0.70958 0.0
C59 C 0.39185 0.31121 0.68847 0.0
O60 O 0.45369 0.4382 0.64054 0.0
Co61 Co 0.50396 0.38803 0.74402 0.0
O62 O 0.52292 0.42037 0.63555 0.0
C63 C 0.48516 0.46212 0.84918 0.0
C64 C 0.31737 0.38921 0.76506 0.0
C65 C 0.49749 0.44348 0.60753 0.0
O66 O 0.44181 0.45181 0.80883 0.0
O67 O 0.51283 0.43797 0.83622 0.0
O68 O 0.36008 0.32682 0.65547 0.0
O69 O 0.42319 0.34316 0.74515 0.0
Co70 Co 0.03975 0.39075 0.89448 0.0
O71 O 0.06833 0.35763 0.82134 0.0
O72 O 0.11879 0.42285 0.91031 0.0
C73 C 0.96313 0.30887 0.93295 0.0
O74 O 0.0276 0.43419 0.98206 0.0
Co75 Co 0.92595 0.38254 0.87404 0.0
O76 O 0.94259 0.42356 0.97632 0.0
C77 C 0.02017 0.45821 0.77043 0.0
C78 C 0.11666 0.38971 0.85434 0.0
C79 C 0.9901 0.44349 0.00887 0.0
O80 O 0.05379 0.45071 0.81355 0.0
O81 O 0.96738 0.43142 0.78091 0.0
O82 O 1.01155 0.32517 0.96421 0.0
O83 O 0.96326 0.34014 0.87627 0.0
C84 C 0.50962 0.98879 0.24203 0.0
C85 C 0.56742 0.02555 0.25616 0.0
C86 C 0.54808 0.0354 0.39549 0.0
C87 C 0.49043 0.99653 0.38253 0.0
N88 N 0.41724 0.92893 0.29721 0.0
N89 N 0.64291 0.074 0.34894 0.0
C90 C 0.47155 0.97072 0.30699 0.0
C91 C 0.58696 0.04606 0.33372 0.0
N92 N 0.49076 0.97344 0.16602 0.0
N93 N 0.56586 0.06255 0.46672 0.0
H94 H 0.67246 0.08158 0.30544 0.0
H95 H 0.65983 0.08489 0.40569 0.0
H96 H 0.53966 0.05396 0.51523 0.0
H97 H 0.60602 0.09633 0.47639 0.0
H98 H 0.4488 0.95235 0.15053 0.0
H99 H 0.51724 0.98538 0.1171 0.0
H100 H 0.4023 0.9042 0.24641 0.0
H101 H 0.38763 0.91609 0.34216 0.0
C102 C 0.60354 0.56665 0.48038 0.0
C103 C 0.57164 0.55946 0.41135 0.0
C104 C 0.49138 0.47513 0.46903 0.0
C105 C 0.52285 0.48287 0.53918 0.0
N106 N 0.60424 0.54278 0.61844 0.0
N107 N 0.48987 0.50204 0.3324 0.0
C108 C 0.57806 0.53001 0.54629 0.0
C109 C 0.51676 0.5124 0.40376 0.0
N110 N 0.65835 0.60855 0.48296 0.0
N111 N 0.43645 0.43359 0.46583 0.0
H112 H 0.50691 0.52853 0.28356 0.0
H113 H 0.45285 0.46516 0.31878 0.0
H114 H 0.41625 0.40451 0.51086 0.0
H115 H 0.40924 0.42996 0.42111 0.0
H116 H 0.68596 0.61172 0.52678 0.0
H117 H 0.6777 0.63816 0.43803 0.0
H118 H 0.6416 0.57979 0.63029 0.0
H119 H 0.58622 0.51922 0.66956 0.0
C120 C 0.06678 0.49544 0.63815 0.0
C121 C 0.04271 0.50233 0.70794 0.0
C122 C 0.04718 0.58605 0.65093 0.0
C123 C 0.0704 0.57871 0.58017 0.0
N124 N 0.09096 0.51973 0.49984 0.0
N125 N 0.01968 0.55914 0.78805 0.0
C126 C 0.07795 0.53204 0.57239 0.0
C127 C 0.03545 0.54896 0.71616 0.0
N128 N 0.07914 0.45394 0.63476 0.0
N129 N 0.03419 0.62708 0.65484 0.0
H130 H 1.01046 0.53285 0.83693 0.0
H131 H 0.02003 0.59575 0.80198 0.0
H132 H 0.04301 0.65598 0.6098 0.0
H133 H 1.0109 0.63039 0.70019 0.0
H134 H 0.10313 0.45092 0.59019 0.0
H135 H 0.0689 0.42448 0.67971 0.0
H136 H 0.09093 0.48308 0.48748 0.0
H137 H 0.09655 0.54336 0.44897 0.0
C138 C 0.53018 0.05869 0.8914 0.0
C139 C 0.57962 0.05702 0.88072 0.0
C140 C 0.5515 0.02381 0.74355 0.0
C141 C 0.50389 0.02885 0.75292 0.0
N142 N 0.44793 0.05243 0.83319 0.0
N143 N 0.63788 0.03775 0.79785 0.0
C144 C 0.49356 0.04717 0.82598 0.0
C145 C 0.59025 0.03921 0.80718 0.0
N146 N 0.51627 0.06728 0.96572 0.0
N147 N 0.55875 1.0028 0.67413 0.0
H148 H 0.66383 0.0422 0.84485 0.0
H149 H 0.65283 0.03342 0.74353 0.0
H150 H 0.53332 0.99422 0.62462 0.0
H151 H 0.5883 0.99137 0.66575 0.0
H152 H 0.47835 0.06337 0.97992 0.0
H153 H 0.54073 0.07364 0.01573 0.0
H154 H 0.44144 0.07244 0.88047 0.0
H155 H 0.41736 0.03904 0.78948 0.0
C156 C 0.5444 0.59827 0.969 0.0
C157 C 0.55199 0.57966 0.04384 0.0
C158 C 0.50477 0.48275 0.99386 0.0
C159 C 0.50367 0.50234 0.91665 0.0
N160 N 0.52791 0.57952 0.8278 0.0
N161 N 0.5441 0.50464 0.12598 0.0
C162 C 0.52449 0.56029 0.90343 0.0
C163 C 0.53364 0.52203 0.05573 0.0
N164 N 0.5562 0.65219 0.96049 0.0
N165 N 0.47615 0.42629 0.00876 0.0
H166 H 0.56256 0.53105 0.17456 0.0
H167 H 0.53802 0.46478 0.13445 0.0
H168 H 0.45338 0.39628 0.96533 0.0
H169 H 0.4702 0.40929 0.06545 0.0
H170 H 0.54602 0.66664 0.91012 0.0
H171 H 0.57254 0.68163 0.0062 0.0
H172 H 0.54852 0.62194 0.81309 0.0
H173 H 0.51379 0.55313 0.77842 0.0
C174 C 0.97784 0.46452 0.15073 0.0
C175 C 1.0047 0.48351 0.07604 0.0
C176 C 0.05529 0.58044 0.12603 0.0
C177 C 0.03381 0.56061 0.20306 0.0
N178 N 0.97964 0.48312 0.29182 0.0
N179 N 0.07333 0.55911 0.99423 0.0
C180 C 0.99599 0.50248 0.21624 0.0
C181 C 0.04481 0.54134 0.06427 0.0
N182 N 0.93503 0.41023 0.15917 0.0
N183 N 0.08388 0.6369 0.11114 0.0
H184 H 0.06531 0.53283 0.94569 0.0
H185 H 0.10777 0.59925 0.98593 0.0
H186 H 0.09117 0.66676 0.15446 0.0
H187 H 0.09547 0.65397 0.0545 0.0
H188 H 0.90979 0.39545 0.20929 0.0
H189 H 0.92197 0.3807 0.11367 0.0
H190 H 0.95736 0.44068 0.30654 0.0
H191 H 0.99199 0.50947 0.3412 0.0
C192 C 0.69103 0.84409 0.2277 0.0
C193 C 0.68913 0.8072 0.1676 0.0
C194 C 0.69102 0.87178 0.06653 0.0
C195 C 0.6846 0.90392 0.12658 0.0
N196 N 0.66799 0.91381 0.26448 0.0
N197 N 0.67773 0.7817 0.02882 0.0
C198 C 0.68181 0.88828 0.20729 0.0
C199 C 0.68668 0.81993 0.08664 0.0
N200 N 0.70421 0.83874 0.30393 0.0
N201 N 0.70354 0.89175 0.99064 0.0
H202 H 0.67289 0.74267 0.04054 0.0
H203 H 0.66948 0.78637 0.96999 0.0
H204 H 0.70918 0.93042 0.97385 0.0
H205 H 0.71424 0.87285 0.94641 0.0
H206 H 0.71137 0.86782 0.34829 0.0
H207 H 0.71438 0.8091 0.32089 0.0
H208 H 0.65962 0.89983 0.323 0.0
H209 H 0.65928 0.9452 0.25211 0.0
C210 C 0.91013 0.72412 0.32601 0.0
C211 C 0.90863 0.6723 0.33004 0.0
C212 C 0.80793 0.62202 0.30439 0.0
C213 C 0.81083 0.67377 0.29017 0.0
N214 N 0.86813 0.77417 0.27176 0.0
N215 N 0.85774 0.57243 0.30468 0.0
C216 C 0.86288 0.72494 0.2967 0.0
C217 C 0.85796 0.62134 0.3141 0.0
N218 N 0.95553 0.77233 0.35343 0.0
N219 N 0.75737 0.57359 0.31207 0.0
H220 H 0.89376 0.57035 0.30743 0.0
H221 H 0.82288 0.53524 0.28536 0.0
H222 H 0.71968 0.5725 0.30919 0.0
H223 H 0.75304 0.53572 0.33015 0.0
H224 H 0.95631 0.81002 0.35935 0.0
H225 H 0.99019 0.77353 0.37811 0.0
H226 H 0.90641 0.81159 0.26759 0.0
H227 H 0.83529 0.77665 0.24753 0.0
C228 C 0.18015 0.81621 0.53556 0.0
C229 C 0.164 0.80441 0.45483 0.0
C230 C 0.25006 0.89146 0.41664 0.0
C231 C 0.26309 0.90584 0.49792 0.0
N232 N 0.23095 0.88822 0.63386 0.0
N233 N 0.17758 0.83844 0.31996 0.0
C234 C 0.22535 0.87005 0.55719 0.0
C235 C 0.19726 0.8442 0.39566 0.0
N236 N 0.15422 0.77529 0.59154 0.0
N237 N 0.28866 0.92125 0.35932 0.0
H238 H 0.13824 0.80602 0.30264 0.0
H239 H 0.19772 0.86917 0.27661 0.0
H240 H 0.32818 0.95535 0.37172 0.0
H241 H 0.28345 0.90863 0.30016 0.0
H242 H 0.16805 0.78005 0.65 0.0
H243 H 0.12302 0.73458 0.57739 0.0
H244 H 0.20149 0.86558 0.67761 0.0
H245 H 0.26119 0.92861 0.65174 0.0
C246 C 0.38643 0.22064 0.72579 0.0
C247 C 0.39098 0.25869 0.66582 0.0
C248 C 0.39095 0.19474 0.565 0.0
C249 C 0.39465 0.16118 0.6254 0.0
N250 N 0.40753 0.14994 0.76417 0.0
N251 N 0.40917 0.28672 0.52847 0.0
C252 C 0.39546 0.17618 0.70614 0.0
C253 C 0.39627 0.24699 0.58534 0.0
N254 N 0.37129 0.22537 0.80111 0.0
N255 N 0.38008 0.1759 0.48845 0.0
H256 H 0.41596 0.32628 0.54155 0.0
H257 H 0.41911 0.2826 0.47029 0.0
H258 H 0.37341 0.13688 0.47128 0.0
H259 H 0.37159 0.19626 0.44375 0.0
H260 H 0.36221 0.19548 0.845 0.0
H261 H 0.36164 0.25552 0.81741 0.0
H262 H 0.41413 0.163 0.82318 0.0
H263 H 0.41711 0.11924 0.75183 0.0
C264 C 0.16635 0.3372 0.82493 0.0
C265 C 0.16738 0.38876 0.82991 0.0
C266 C 0.26813 0.43989 0.80484 0.0
C267 C 0.26581 0.38845 0.7899 0.0
N268 N 0.20916 0.28815 0.76971 0.0
N269 N 0.21754 0.48869 0.80567 0.0
C270 C 0.21393 0.33701 0.79556 0.0
C271 C 0.21782 0.44001 0.81451 0.0
N272 N 0.12104 0.2886 0.85147 0.0
N273 N 0.31842 0.48855 0.81336 0.0
H274 H 0.18128 0.49034 0.80852 0.0
H275 H 0.25223 0.52613 0.78672 0.0
H276 H 0.35632 0.49008 0.81085 0.0
H277 H 0.32226 0.52615 0.83187 0.0
H278 H 0.12055 0.25103 0.85673 0.0
H279 H 0.08611 0.28691 0.87601 0.0
H280 H 0.17104 0.2506 0.76492 0.0
H281 H 0.24224 0.28617 0.74529 0.0
C282 C 0.89708 0.24355 0.03897 0.0
C283 C 0.91101 0.25635 0.95751 0.0
C284 C 0.81998 0.17533 0.92096 0.0
C285 C 0.80869 0.15872 1.00155 0.0
N286 N 0.84331 0.17114 0.13587 0.0
N287 N 0.8909 0.22434 0.82145 0.0
C288 C 0.84916 0.19119 0.0603 0.0
C289 C 0.87397 0.21933 0.89857 0.0
N290 N 0.92799 0.28203 0.09615 0.0
N291 N 0.77842 0.1511 0.86601 0.0
H292 H 0.93121 0.25355 0.8029 0.0
H293 H 0.86701 0.19512 0.77783 0.0
H294 H 0.73763 0.1218 0.88165 0.0
H295 H 0.78305 0.16515 0.80763 0.0
H296 H 0.91601 0.27712 0.15551 0.0
H297 H 0.96242 0.32142 0.08355 0.0
H298 H 0.87437 0.1905 0.17874 0.0
H299 H 0.81019 0.13217 0.15355 0.0
loop_
_geom_bond_atom_site_label_1
_geom_bond_atom_site_label_2
_geom_bond_distance
_geom_bond_site_symmetry_2
_ccdc_geom_bond_type
Co0 O1 2.216 1_545 S
Co0 O2 2.091 1_545 S
Co0 O4 2.004 1_554 S
Co0 O10 2.021 1_545 S
Co0 O12 2.137 1_554 S
Co0 O13 2.244 . S
O1 Co0 2.216 1_565 S
O1 C8 1.247 . S
O2 Co0 2.091 1_565 S
O2 C8 1.261 . S
C3 O12 1.247 1_554 S
C3 O13 1.272 . S
O4 Co0 2.004 1_556 S
O4 C9 1.259 . S
Co5 O6 2.061 1_554 S
Co5 O11 2.052 . S
Co5 O13 2.135 . S
O6 Co5 2.061 1_556 S
O6 C9 1.235 . S
C7 O10 1.238 1_545 S
C7 O11 1.241 . S
C8 O1 1.247 . S
C8 O2 1.261 . S
C9 O4 1.259 . S
C9 O6 1.235 . S
O10 Co0 2.021 1_565 S
O10 C7 1.238 1_565 S
O11 Co5 2.052 . S
O11 C7 1.241 . S
O12 Co0 2.137 1_556 S
O12 C3 1.247 1_556 S
O13 Co0 2.244 . S
O13 C3 1.272 . S
O13 Co5 2.135 . S
Co14 O15 2.216 . S
Co14 O16 2.091 . S
Co14 O18 2.004 . S
Co14 O24 2.021 . S
Co14 O26 2.137 . S
Co14 O27 2.244 . S
O15 Co14 2.216 . S
O15 C22 1.247 . S
O16 Co14 2.091 . S
O16 C22 1.261 . S
C17 O26 1.247 . S
C17 O27 1.272 . S
O18 Co14 2.004 . S
O18 C23 1.259 . S
Co19 O20 2.061 . S
Co19 O25 2.052 . S
Co19 O27 2.135 . S
O20 Co19 2.061 . S
O20 C23 1.235 . S
C21 O24 1.238 . S
C21 O25 1.241 . S
C22 O15 1.247 . S
C22 O16 1.261 . S
C23 O18 1.259 . S
C23 O20 1.235 . S
O24 Co14 2.021 . S
O24 C21 1.238 . S
O25 Co19 2.052 . S
O25 C21 1.241 . S
O26 Co14 2.137 . S
O26 C17 1.247 . S
O27 Co14 2.244 . S
O27 C17 1.272 . S
O27 Co19 2.135 . S
Co28 O29 2.216 1_455 S
Co28 O30 2.091 1_455 S
Co28 O32 2.004 . S
Co28 O38 2.021 1_455 S
Co28 O40 2.137 . S
Co28 O41 2.244 . S
O29 Co28 2.216 1_655 S
O29 C36 1.247 . S
O30 Co28 2.091 1_655 S
O30 C36 1.261 . S
C31 O40 1.247 . S
C31 O41 1.272 . S
O32 Co28 2.004 . S
O32 C37 1.259 . S
Co33 O34 2.061 . S
Co33 O39 2.052 . S
Co33 O41 2.135 . S
O34 Co33 2.061 . S
O34 C37 1.235 . S
C35 O38 1.238 1_455 S
C35 O39 1.241 . S
C36 O29 1.247 . S
C36 O30 1.261 . S
C37 O32 1.259 . S
C37 O34 1.235 . S
O38 Co28 2.021 1_655 S
O38 C35 1.238 1_655 S
O39 Co33 2.052 . S
O39 C35 1.241 . S
O40 Co28 2.137 . S
O40 C31 1.247 . S
O41 Co28 2.244 . S
O41 C31 1.272 . S
O41 Co33 2.135 . S
Co42 O43 2.216 . S
Co42 O44 2.091 . S
Co42 O46 2.004 . S
Co42 O52 2.021 . S
Co42 O54 2.137 1_545 S
Co42 O55 2.244 1_545 S
O43 Co42 2.216 . S
O43 C50 1.247 . S
O44 Co42 2.091 . S
O44 C50 1.261 . S
C45 O54 1.247 . S
C45 O55 1.272 . S
O46 Co42 2.004 . S
O46 C51 1.259 . S
Co47 O48 2.061 . S
Co47 O53 2.052 . S
Co47 O55 2.135 . S
O48 Co47 2.061 . S
O48 C51 1.235 1_565 S
C49 O52 1.238 . S
C49 O53 1.241 1_545 S
C50 O43 1.247 . S
C50 O44 1.261 . S
C51 O46 1.259 . S
C51 O48 1.235 1_545 S
O52 Co42 2.021 . S
O52 C49 1.238 . S
O53 Co47 2.052 . S
O53 C49 1.241 1_565 S
O54 Co42 2.137 1_565 S
O54 C45 1.247 . S
O55 Co42 2.244 1_565 S
O55 C45 1.272 . S
O55 Co47 2.135 . S
Co56 O57 2.216 . S
Co56 O58 2.091 . S
Co56 O60 2.004 . S
Co56 O66 2.021 . S
Co56 O68 2.137 . S
Co56 O69 2.244 . S
O57 Co56 2.216 . S
O57 C64 1.247 . S
O58 Co56 2.091 . S
O58 C64 1.261 . S
C59 O68 1.247 . S
C59 O69 1.272 . S
O60 Co56 2.004 . S
O60 C65 1.259 . S
Co61 O62 2.061 . S
Co61 O67 2.052 . S
Co61 O69 2.135 . S
O62 Co61 2.061 . S
O62 C65 1.235 . S
C63 O66 1.238 . S
C63 O67 1.241 . S
C64 O57 1.247 . S
C64 O58 1.261 . S
C65 O60 1.259 . S
C65 O62 1.235 . S
O66 Co56 2.021 . S
O66 C63 1.238 . S
O67 Co61 2.052 . S
O67 C63 1.241 . S
O68 Co56 2.137 . S
O68 C59 1.247 . S
O69 Co56 2.244 . S
O69 C59 1.272 . S
O69 Co61 2.135 . S
Co70 O71 2.216 . S
Co70 O72 2.091 . S
Co70 O74 2.004 1_556 S
Co70 O80 2.021 . S
Co70 O82 2.137 1_455 S
Co70 O83 2.244 1_455 S
O71 Co70 2.216 . S
O71 C78 1.247 . S
O72 Co70 2.091 . S
O72 C78 1.261 . S
C73 O82 1.247 . S
C73 O83 1.272 . S
O74 Co70 2.004 1_554 S
O74 C79 1.259 . S
Co75 O76 2.061 . S
Co75 O81 2.052 . S
Co75 O83 2.135 . S
O76 Co75 2.061 . S
O76 C79 1.235 1_656 S
C77 O80 1.238 . S
C77 O81 1.241 1_455 S
C78 O71 1.247 . S
C78 O72 1.261 . S
C79 O74 1.259 . S
C79 O76 1.235 1_454 S
O80 Co70 2.021 . S
O80 C77 1.238 . S
O81 Co75 2.052 . S
O81 C77 1.241 1_655 S
O82 Co70 2.137 1_655 S
O82 C73 1.247 . S
O83 Co70 2.244 1_655 S
O83 C73 1.272 . S
O83 Co75 2.135 . S
C84 C85 1.363 1_565 S
C84 C90 1.379 . S
C84 N92 1.356 . S
C85 C84 1.363 1_545 S
C85 C91 1.363 . S
C86 C87 1.363 . S
C86 C91 1.379 . S
C86 N93 1.356 . S
C87 C86 1.363 . S
C87 C90 1.363 1_545 S
N88 C90 1.356 . S
N88 H100 0.984 . S
N88 H101 0.985 . S
N89 C91 1.356 . S
N89 H94 0.984 . S
N89 H95 0.985 . S
C90 C84 1.379 . S
C90 C87 1.363 1_565 S
C90 N88 1.356 . S
C91 C85 1.363 . S
C91 C86 1.379 . S
C91 N89 1.356 . S
N92 C84 1.356 . S
N92 H98 0.984 . S
N92 H99 0.984 . S
N93 C86 1.356 . S
N93 H96 0.984 . S
N93 H97 0.985 . S
H94 N89 0.984 . S
H95 N89 0.985 . S
H96 N93 0.984 . S
H97 N93 0.985 . S
H98 N92 0.984 . S
H99 N92 0.984 . S
H100 N88 0.984 . S
H101 N88 0.985 . S
C102 C103 1.363 . S
C102 C108 1.379 . S
C102 N110 1.356 . S
C103 C102 1.363 . S
C103 C109 1.363 . S
C104 C105 1.363 . S
C104 C109 1.379 . S
C104 N111 1.356 . S
C105 C104 1.363 . S
C105 C108 1.363 . S
N106 C108 1.356 . S
N106 H118 0.984 . S
N106 H119 0.985 . S
N107 C109 1.356 . S
N107 H112 0.984 . S
N107 H113 0.985 . S
C108 C102 1.379 . S
C108 C105 1.363 . S
C108 N106 1.356 . S
C109 C103 1.363 . S
C109 C104 1.379 . S
C109 N107 1.356 . S
N110 C102 1.356 . S
N110 H116 0.984 . S
N110 H117 0.984 . S
N111 C104 1.356 . S
N111 H114 0.984 . S
N111 H115 0.985 . S
H112 N107 0.984 . S
H113 N107 0.985 . S
H114 N111 0.984 . S
H115 N111 0.985 . S
H116 N110 0.984 . S
H117 N110 0.984 . S
H118 N106 0.984 . S
H119 N106 0.985 . S
C120 C121 1.363 . S
C120 C126 1.379 . S
C120 N128 1.356 . S
C121 C120 1.363 . S
C121 C127 1.343 1_455 S
C122 C123 1.363 . S
C122 C127 1.387 1_455 S
C122 N129 1.356 1_455 S
C123 C122 1.363 . S
C123 C126 1.363 . S
N124 C126 1.356 . S
N124 H136 0.984 . S
N124 H137 0.985 . S
N125 C127 1.364 . S
N125 H130 0.984 . S
N125 H131 0.985 . S
C126 C120 1.379 . S
C126 C123 1.363 . S
C126 N124 1.356 . S
C127 C121 1.343 1_655 S
C127 C122 1.387 1_655 S
C127 N125 1.364 . S
N128 C120 1.356 . S
N128 H134 0.984 . S
N128 H135 0.984 . S
N129 C122 1.356 1_655 S
N129 H132 0.984 . S
N129 H133 0.985 . S
H130 N125 0.984 . S
H131 N125 0.985 . S
H132 N129 0.984 . S
H133 N129 0.985 . S
H134 N128 0.984 . S
H135 N128 0.984 . S
H136 N124 0.984 . S
H137 N124 0.985 . S
C138 C139 1.363 . S
C138 C144 1.379 . S
C138 N146 1.356 . S
C139 C138 1.363 . S
C139 C145 1.363 1_545 S
C140 C141 1.363 1_565 S
C140 C145 1.379 . S
C140 N147 1.356 . S
C141 C140 1.363 1_545 S
C141 C144 1.363 . S
N142 C144 1.356 . S
N142 H154 0.984 . S
N142 H155 0.985 . S
N143 C145 1.356 . S
N143 H148 0.984 . S
N143 H149 0.985 . S
C144 C138 1.379 . S
C144 C141 1.363 . S
C144 N142 1.356 . S
C145 C139 1.363 1_565 S
C145 C140 1.379 . S
C145 N143 1.356 . S
N146 C138 1.356 . S
N146 H152 0.984 . S
N146 H153 0.984 . S
N147 C140 1.356 . S
N147 H150 0.984 . S
N147 H151 0.985 . S
H148 N143 0.984 . S
H149 N143 0.985 . S
H150 N147 0.984 . S
H151 N147 0.985 . S
H152 N146 0.984 . S
H153 N146 0.984 . S
H154 N142 0.984 . S
H155 N142 0.985 . S
C156 C157 1.363 1_556 S
C156 C162 1.379 . S
C156 N164 1.356 1_556 S
C157 C156 1.363 1_554 S
C157 C163 1.363 1_554 S
C158 C159 1.363 . S
C158 C163 1.379 . S
C158 N165 1.356 . S
C159 C158 1.363 . S
C159 C162 1.363 . S
N160 C162 1.356 . S
N160 H172 0.984 . S
N160 H173 0.985 . S
N161 C163 1.356 1_554 S
N161 H166 0.984 . S
N161 H167 0.985 . S
C162 C156 1.379 . S
C162 C159 1.363 . S
C162 N160 1.356 . S
C163 C157 1.363 1_556 S
C163 C158 1.379 . S
C163 N161 1.356 1_556 S
N164 C156 1.356 1_554 S
N164 H170 0.984 . S
N164 H171 0.984 . S
N165 C158 1.356 . S
N165 H168 0.984 . S
N165 H169 0.985 . S
H166 N161 0.984 . S
H167 N161 0.985 . S
H168 N165 0.984 . S
H169 N165 0.985 . S
H170 N164 0.984 . S
H171 N164 0.984 . S
H172 N160 0.984 . S
H173 N160 0.985 . S
C174 C175 1.363 1_655 S
C174 C180 1.379 . S
C174 N182 1.356 . S
C175 C174 1.363 1_455 S
C175 C181 1.363 . S
C176 C177 1.363 . S
C176 C181 1.379 . S
C176 N183 1.356 . S
C177 C176 1.363 . S
C177 C180 1.363 1_455 S
N178 C180 1.356 . S
N178 H190 0.984 . S
N178 H191 0.985 . S
N179 C181 1.356 . S
N179 H184 0.984 . S
N179 H185 0.985 . S
C180 C174 1.379 . S
C180 C177 1.363 1_655 S
C180 N178 1.356 . S
C181 C175 1.363 . S
C181 C176 1.379 . S
C181 N179 1.356 . S
N182 C174 1.356 . S
N182 H188 0.984 . S
N182 H189 0.984 . S
N183 C176 1.356 . S
N183 H186 0.984 . S
N183 H187 0.985 . S
H184 N179 0.984 . S
H185 N179 0.985 . S
H186 N183 0.984 . S
H187 N183 0.985 . S
H188 N182 0.984 . S
H189 N182 0.984 . S
H190 N178 0.984 . S
H191 N178 0.985 . S
C192 C193 1.363 . S
C192 C198 1.379 . S
C192 N200 1.356 . S
C193 C192 1.363 . S
C193 C199 1.363 . S
C194 C195 1.363 . S
C194 C199 1.379 . S
C194 N201 1.356 . S
C195 C194 1.363 . S
C195 C198 1.363 . S
N196 C198 1.356 . S
N196 H208 0.984 . S
N196 H209 0.985 . S
N197 C199 1.356 . S
N197 H202 0.984 . S
N197 H203 0.985 . S
C198 C192 1.379 . S
C198 C195 1.363 . S
C198 N196 1.356 . S
C199 C193 1.363 . S
C199 C194 1.379 . S
C199 N197 1.356 . S
N200 C192 1.356 . S
N200 H206 0.984 . S
N200 H207 0.984 . S
N201 C194 1.356 . S
N201 H204 0.984 . S
N201 H205 0.985 . S
H202 N197 0.984 . S
H203 N197 0.985 . S
H204 N201 0.984 . S
H205 N201 0.985 . S
H206 N200 0.984 . S
H207 N200 0.984 . S
H208 N196 0.984 . S
H209 N196 0.985 . S
C210 C211 1.363 . S
C210 C216 1.379 . S
C210 N218 1.356 . S
C211 C210 1.363 . S
C211 C217 1.363 . S
C212 C213 1.363 . S
C212 C217 1.379 . S
C212 N219 1.356 . S
C213 C212 1.363 . S
C213 C216 1.363 . S
N214 C216 1.356 . S
N214 H226 0.984 . S
N214 H227 0.985 . S
N215 C217 1.356 . S
N215 H220 0.984 . S
N215 H221 0.985 . S
C216 C210 1.379 . S
C216 C213 1.363 . S
C216 N214 1.356 . S
C217 C211 1.363 . S
C217 C212 1.379 . S
C217 N215 1.356 . S
N218 C210 1.356 . S
N218 H224 0.984 . S
N218 H225 0.984 . S
N219 C212 1.356 . S
N219 H222 0.984 . S
N219 H223 0.985 . S
H220 N215 0.984 . S
H221 N215 0.985 . S
H222 N219 0.984 . S
H223 N219 0.985 . S
H224 N218 0.984 . S
H225 N218 0.984 . S
H226 N214 0.984 . S
H227 N214 0.985 . S
C228 C229 1.363 . S
C228 C234 1.379 . S
C228 N236 1.356 . S
C229 C228 1.363 . S
C229 C235 1.363 . S
C230 C231 1.363 . S
C230 C235 1.379 . S
C230 N237 1.356 . S
C231 C230 1.363 . S
C231 C234 1.363 . S
N232 C234 1.356 . S
N232 H244 0.984 . S
N232 H245 0.985 . S
N233 C235 1.356 . S
N233 H238 0.984 . S
N233 H239 0.985 . S
C234 C228 1.379 . S
C234 C231 1.363 . S
C234 N232 1.356 . S
C235 C229 1.363 . S
C235 C230 1.379 . S
C235 N233 1.356 . S
N236 C228 1.356 . S
N236 H242 0.984 . S
N236 H243 0.984 . S
N237 C230 1.356 . S
N237 H240 0.984 . S
N237 H241 0.985 . S
H238 N233 0.984 . S
H239 N233 0.985 . S
H240 N237 0.984 . S
H241 N237 0.985 . S
H242 N236 0.984 . S
H243 N236 0.984 . S
H244 N232 0.984 . S
H245 N232 0.985 . S
C246 C247 1.363 . S
C246 C252 1.379 . S
C246 N254 1.356 . S
C247 C246 1.363 . S
C247 C253 1.363 . S
C248 C249 1.363 . S
C248 C253 1.379 . S
C248 N255 1.356 . S
C249 C248 1.363 . S
C249 C252 1.363 . S
N250 C252 1.356 . S
N250 H262 0.984 . S
N250 H263 0.985 . S
N251 C253 1.356 . S
N251 H256 0.984 . S
N251 H257 0.985 . S
C252 C246 1.379 . S
C252 C249 1.363 . S
C252 N250 1.356 . S
C253 C247 1.363 . S
C253 C248 1.379 . S
C253 N251 1.356 . S
N254 C246 1.356 . S
N254 H260 0.984 . S
N254 H261 0.984 . S
N255 C248 1.356 . S
N255 H258 0.984 . S
N255 H259 0.985 . S
H256 N251 0.984 . S
H257 N251 0.985 . S
H258 N255 0.984 . S
H259 N255 0.985 . S
H260 N254 0.984 . S
H261 N254 0.984 . S
H262 N250 0.984 . S
H263 N250 0.985 . S
C264 C265 1.363 . S
C264 C270 1.379 . S
C264 N272 1.356 . S
C265 C264 1.363 . S
C265 C271 1.363 . S
C266 C267 1.363 . S
C266 C271 1.379 . S
C266 N273 1.356 . S
C267 C266 1.363 . S
C267 C270 1.363 . S
N268 C270 1.356 . S
N268 H280 0.984 . S
N268 H281 0.985 . S
N269 C271 1.356 . S
N269 H274 0.984 . S
N269 H275 0.985 . S
C270 C264 1.379 . S
C270 C267 1.363 . S
C270 N268 1.356 . S
C271 C265 1.363 . S
C271 C266 1.379 . S
C271 N269 1.356 . S
N272 C264 1.356 . S
N272 H278 0.984 . S
N272 H279 0.984 . S
N273 C266 1.356 . S
N273 H276 0.984 . S
N273 H277 0.985 . S
H274 N269 0.984 . S
H275 N269 0.985 . S
H276 N273 0.984 . S
H277 N273 0.985 . S
H278 N272 0.984 . S
H279 N272 0.984 . S
H280 N268 0.984 . S
H281 N268 0.985 . S
C282 C283 1.363 1_554 S
C282 C288 1.379 . S
C282 N290 1.356 . S
C283 C282 1.363 1_556 S
C283 C289 1.363 . S
C284 C285 1.363 . S
C284 C289 1.379 . S
C284 N291 1.356 . S
C285 C284 1.363 . S
C285 C288 1.363 1_556 S
N286 C288 1.356 . S
N286 H298 0.984 . S
N286 H299 0.985 . S
N287 C289 1.356 . S
N287 H292 0.984 . S
N287 H293 0.985 . S
C288 C282 1.379 . S
C288 C285 1.363 1_554 S
C288 N286 1.356 . S
C289 C283 1.363 . S
C289 C284 1.379 . S
C289 N287 1.356 . S
N290 C282 1.356 . S
N290 H296 0.984 . S
N290 H297 0.984 . S
N291 C284 1.356 . S
N291 H294 0.984 . S
N291 H295 0.985 . S
H292 N287 0.984 . S
H293 N287 0.985 . S
H294 N291 0.984 . S
H295 N291 0.985 . S
H296 N290 0.984 . S
H297 N290 0.984 . S
H298 N286 0.984 . S
H299 N286 0.985 . S
C85 C7 1.615 . S
C87 C51 1.642 . S
C103 C21 1.570 . S
C105 C65 1.595 . S
C121 C77 1.595 . S
C123 C37 1.620 . S
C139 C9 1.642 . S
C141 C49 1.614 . S
C157 C23 1.595 . S
C159 C63 1.570 . S
C175 C79 1.620 . S
C177 C35 1.595 . S
C193 C17 1.431 . S
C195 C8 1.425 . S
C211 C36 1.407 . S
C213 C22 1.405 . S
C229 C31 1.453 . S
C231 C45 1.454 . S
C247 C59 1.431 . S
C249 C50 1.425 . S
C265 C78 1.407 . S
C267 C64 1.405 . S
C283 C73 1.453 . S
C285 C3 1.454 1_556 S
