# Generated by pormake.
# Topology whw, (6)-cn, num edge types: 1
# Building blocks:
#     Node 0, Type 0, BuildingBlock: JUFBIX_clean_sbu_0, # of connection points: 6
#     Node 1, Type 0, BuildingBlock: JUFBIX_clean_sbu_0, # of connection points: 6
#     Node 2, Type 0, BuildingBlock: JUFBIX_clean_sbu_0, # of connection points: 6
#     Node 3, Type 0, BuildingBlock: JUFBIX_clean_sbu_0, # of connection points: 6
#     Node 4, Type 0, BuildingBlock: JUFBIX_clean_sbu_0, # of connection points: 6
#     Node 5, Type 0, BuildingBlock: JUFBIX_clean_sbu_0, # of connection points: 6
#     Node 6, Type 0, BuildingBlock: JUFBIX_clean_sbu_0, # of connection points: 6
#     Node 7, Type 0, BuildingBlock: JUFBIX_clean_sbu_0, # of connection points: 6
#     Node 8, Type 0, BuildingBlock: JUFBIX_clean_sbu_0, # of connection points: 6
#     Node 9, Type 0, BuildingBlock: JUFBIX_clean_sbu_0, # of connection points: 6
#     Node 10, Type 0, BuildingBlock: JUFBIX_clean_sbu_0, # of connection points: 6
#     Node 11, Type 0, BuildingBlock: JUFBIX_clean_sbu_0, # of connection points: 6
#     Node 12, Type 0, BuildingBlock: JUFBIX_clean_sbu_0, # of connection points: 6
#     Node 13, Type 0, BuildingBlock: JUFBIX_clean_sbu_0, # of connection points: 6
#     Node 14, Type 0, BuildingBlock: JUFBIX_clean_sbu_0, # of connection points: 6
#     Node 15, Type 0, BuildingBlock: JUFBIX_clean_sbu_0, # of connection points: 6
#     Edge 16, Type (0, 0), BuildingBlock: OJICUG_clean_linker_0, # of connection points: 2
#     Edge 17, Type (0, 0), BuildingBlock: OJICUG_clean_linker_0, # of connection points: 2
#     Edge 18, Type (0, 0), BuildingBlock: OJICUG_clean_linker_0, # of connection points: 2
#     Edge 19, Type (0, 0), BuildingBlock: OJICUG_clean_linker_0, # of connection points: 2
#     Edge 20, Type (0, 0), BuildingBlock: OJICUG_clean_linker_0, # of connection points: 2
#     Edge 21, Type (0, 0), BuildingBlock: OJICUG_clean_linker_0, # of connection points: 2
#     Edge 22, Type (0, 0), BuildingBlock: OJICUG_clean_linker_0, # of connection points: 2
#     Edge 23, Type (0, 0), BuildingBlock: OJICUG_clean_linker_0, # of connection points: 2
#     Edge 24, Type (0, 0), BuildingBlock: OJICUG_clean_linker_0, # of connection points: 2
#     Edge 25, Type (0, 0), BuildingBlock: OJICUG_clean_linker_0, # of connection points: 2
#     Edge 26, Type (0, 0), BuildingBlock: OJICUG_clean_linker_0, # of connection points: 2
#     Edge 27, Type (0, 0), BuildingBlock: OJICUG_clean_linker_0, # of connection points: 2
#     Edge 28, Type (0, 0), BuildingBlock: OJICUG_clean_linker_0, # of connection points: 2
#     Edge 29, Type (0, 0), BuildingBlock: OJICUG_clean_linker_0, # of connection points: 2
#     Edge 30, Type (0, 0), BuildingBlock: OJICUG_clean_linker_0, # of connection points: 2
#     Edge 31, Type (0, 0), BuildingBlock: OJICUG_clean_linker_0, # of connection points: 2
#     Edge 32, Type (0, 0), BuildingBlock: OJICUG_clean_linker_0, # of connection points: 2
#     Edge 33, Type (0, 0), BuildingBlock: OJICUG_clean_linker_0, # of connection points: 2
#     Edge 34, Type (0, 0), BuildingBlock: OJICUG_clean_linker_0, # of connection points: 2
#     Edge 35, Type (0, 0), BuildingBlock: OJICUG_clean_linker_0, # of connection points: 2
#     Edge 36, Type (0, 0), BuildingBlock: OJICUG_clean_linker_0, # of connection points: 2
#     Edge 37, Type (0, 0), BuildingBlock: OJICUG_clean_linker_0, # of connection points: 2
#     Edge 38, Type (0, 0), BuildingBlock: OJICUG_clean_linker_0, # of connection points: 2
#     Edge 39, Type (0, 0), BuildingBlock: OJICUG_clean_linker_0, # of connection points: 2
#     Edge 40, Type (0, 0), BuildingBlock: OJICUG_clean_linker_0, # of connection points: 2
#     Edge 41, Type (0, 0), BuildingBlock: OJICUG_clean_linker_0, # of connection points: 2
#     Edge 42, Type (0, 0), BuildingBlock: OJICUG_clean_linker_0, # of connection points: 2
#     Edge 43, Type (0, 0), BuildingBlock: OJICUG_clean_linker_0, # of connection points: 2
#     Edge 44, Type (0, 0), BuildingBlock: OJICUG_clean_linker_0, # of connection points: 2
#     Edge 45, Type (0, 0), BuildingBlock: OJICUG_clean_linker_0, # of connection points: 2
#     Edge 46, Type (0, 0), BuildingBlock: OJICUG_clean_linker_0, # of connection points: 2
#     Edge 47, Type (0, 0), BuildingBlock: OJICUG_clean_linker_0, # of connection points: 2
#     Edge 48, Type (0, 0), BuildingBlock: OJICUG_clean_linker_0, # of connection points: 2
#     Edge 49, Type (0, 0), BuildingBlock: OJICUG_clean_linker_0, # of connection points: 2
#     Edge 50, Type (0, 0), BuildingBlock: OJICUG_clean_linker_0, # of connection points: 2
#     Edge 51, Type (0, 0), BuildingBlock: OJICUG_clean_linker_0, # of connection points: 2
#     Edge 52, Type (0, 0), BuildingBlock: OJICUG_clean_linker_0, # of connection points: 2
#     Edge 53, Type (0, 0), BuildingBlock: OJICUG_clean_linker_0, # of connection points: 2
#     Edge 54, Type (0, 0), BuildingBlock: OJICUG_clean_linker_0, # of connection points: 2
#     Edge 55, Type (0, 0), BuildingBlock: OJICUG_clean_linker_0, # of connection points: 2
#     Edge 56, Type (0, 0), BuildingBlock: OJICUG_clean_linker_0, # of connection points: 2
#     Edge 57, Type (0, 0), BuildingBlock: OJICUG_clean_linker_0, # of connection points: 2
#     Edge 58, Type (0, 0), BuildingBlock: OJICUG_clean_linker_0, # of connection points: 2
#     Edge 59, Type (0, 0), BuildingBlock: OJICUG_clean_linker_0, # of connection points: 2
#     Edge 60, Type (0, 0), BuildingBlock: OJICUG_clean_linker_0, # of connection points: 2
#     Edge 61, Type (0, 0), BuildingBlock: OJICUG_clean_linker_0, # of connection points: 2
#     Edge 62, Type (0, 0), BuildingBlock: OJICUG_clean_linker_0, # of connection points: 2
#     Edge 63, Type (0, 0), BuildingBlock: OJICUG_clean_linker_0, # of connection points: 2
# Relax obj value: 0.954
# Max RMSD: 0.268
# Mean RMSD: 0.261
data_MOF--net-whw--node1-JUFBIX_clean_sbu_0--edge1-OJICUG_clean_linker_0
_symmetry_space_group_name_H-M    P1
_symmetry_Int_Tables_number       1
_symmetry_cell_setting            triclinic
loop_
_symmetry_equiv_pos_as_xyz
'x, y, z'
_cell_length_a     36.986281
_cell_length_b     37.076338
_cell_length_c     19.875244
_cell_angle_alpha  82.516086
_cell_angle_beta   89.217008
_cell_angle_gamma 86.694806
loop_
_atom_site_label
_atom_site_type_symbol
_atom_site_fract_x
_atom_site_fract_y
_atom_site_fract_z
_atom_type_partial_charge
Co0 Co 0.01645 0.10877 0.15869 0.0
C1 C 0.98983 0.05198 0.10548 0.0
Co2 Co 0.96389 0.124 0.11293 0.0
C3 C 0.06656 0.11487 0.26107 0.0
C4 C 0.08665 0.07347 0.20264 0.0
N5 N 0.05852 0.0979 0.20785 0.0
N6 N 0.0985 0.10271 0.28874 0.0
C7 C 0.11137 0.07619 0.25323 0.0
H8 H 0.04896 0.13557 0.2804 0.0
H9 H 0.08898 0.05494 0.16484 0.0
C10 C 0.9918 0.17897 0.16548 0.0
N11 N 0.92253 0.13552 0.06314 0.0
C12 C 0.92134 0.12844 0.99864 0.0
C13 C 0.8966 0.16206 0.06806 0.0
N14 N 0.89836 0.15165 0.96083 0.0
C15 C 0.88192 0.1723 1.00467 0.0
C16 C 0.95326 0.1065 0.24765 0.0
O17 O 0.01885 0.1566 0.17154 0.0
O18 O 0.96298 0.17065 0.13915 0.0
O19 O 0.93593 0.10982 0.19212 0.0
O20 O 0.98784 0.10195 0.24463 0.0
O21 O 0.96515 0.07627 0.08682 0.0
H22 H 0.8928 0.17686 0.11131 0.0
H23 H 0.94232 0.11199 0.97644 0.0
O24 O 0.01449 0.0594 0.14438 0.0
O25 O 0.04429 0.1192 0.07412 0.0
O26 O 0.99206 0.14155 0.03335 0.0
C27 C 0.02611 0.13723 1.02549 0.0
H28 H 0.13675 0.06042 0.26267 0.0
H29 H 0.86527 0.19699 0.98987 0.0
Co30 Co 0.14577 0.73241 0.47114 0.0
C31 C 0.20659 0.71373 0.39768 0.0
Co32 Co 0.13466 0.69825 0.38547 0.0
C33 C 0.12135 0.78163 0.57366 0.0
C34 C 0.17531 0.75959 0.59349 0.0
N35 N 0.14853 0.76021 0.5481 0.0
N36 N 0.12995 0.79408 0.63296 0.0
C37 C 0.16424 0.78003 0.64463 0.0
H38 H 0.09524 0.78749 0.54962 0.0
H39 H 0.20091 0.74415 0.59109 0.0
C40 C 0.07593 0.71466 0.45664 0.0
N41 N 0.12562 0.67245 0.30808 0.0
C42 C 0.10089 0.67834 0.25622 0.0
C43 C 0.14541 0.64263 0.2942 0.0
N44 N 0.10482 0.65349 0.21074 0.0
C45 C 0.13298 0.63114 0.23576 0.0
C46 C 0.14761 0.6565 0.50768 0.0
O47 O 0.09699 0.73118 0.48973 0.0
O48 O 0.08665 0.70012 0.40517 0.0
O49 O 0.13984 0.65477 0.44579 0.0
O50 O 0.15287 0.68721 0.52772 0.0
O51 O 0.18366 0.69678 0.36853 0.0
H52 H 0.16774 0.62987 0.32483 0.0
H53 H 0.08064 0.70077 0.25154 0.0
O54 O 0.19673 0.7319 0.44659 0.0
O55 O 0.13854 0.77599 0.41256 0.0
O56 O 0.1301 0.74274 0.32968 0.0
C57 C 0.13342 0.77348 0.35039 0.0
H58 H 0.18019 0.78301 0.68856 0.0
H59 H 0.14388 0.60748 0.21411 0.0
Co60 Co 0.47968 0.88018 0.71553 0.0
C61 C 0.5075 0.94219 0.65214 0.0
Co62 Co 0.53299 0.86949 0.6703 0.0
C63 C 0.42116 0.87667 0.8151 0.0
C64 C 0.40563 0.90711 0.72001 0.0
N65 N 0.43413 0.88856 0.75292 0.0
N66 N 0.38581 0.88688 0.82171 0.0
C67 C 0.37571 0.9057 0.76203 0.0
H68 H 0.43689 0.85976 0.85399 0.0
H69 H 0.40634 0.92024 0.66816 0.0
C70 C 0.50235 0.80865 0.72578 0.0
N71 N 0.57773 0.86391 0.63062 0.0
C72 C 0.58562 0.88265 0.57043 0.0
C73 C 0.60867 0.8447 0.65043 0.0
N74 N 0.62001 0.87626 0.55067 0.0
C75 C 0.63472 0.85186 0.60058 0.0
C76 C 0.53901 0.87335 0.809 0.0
O77 O 0.47633 0.83066 0.73767 0.0
O78 O 0.53107 0.82012 0.69669 0.0
O79 O 0.55638 0.87272 0.75366 0.0
O80 O 0.5045 0.88021 0.80551 0.0
O81 O 0.53385 0.92006 0.64273 0.0
H82 H 0.61182 0.82621 0.69704 0.0
H83 H 0.56549 0.89916 0.53937 0.0
O84 O 0.48189 0.93108 0.69088 0.0
O85 O 0.45678 0.87679 0.62631 0.0
O86 O 0.50998 0.86339 0.58488 0.0
C87 C 0.47589 0.86747 0.57654 0.0
H88 H 0.34864 0.91707 0.74965 0.0
H89 H 0.66166 0.83887 0.59965 0.0
Co90 Co 0.3709 0.19307 0.87358 0.0
C91 C 0.43283 0.21563 0.91793 0.0
Co92 Co 0.36444 0.2424 0.9225 0.0
C93 C 0.35655 0.1496 0.775 0.0
C94 C 0.39031 0.11818 0.84972 0.0
N95 N 0.37443 0.15167 0.8324 0.0
N96 N 0.36049 0.11652 0.75434 0.0
C97 C 0.38212 0.0965 0.80106 0.0
H98 H 0.34224 0.17291 0.74679 0.0
H99 H 0.40704 0.11025 0.89398 0.0
C100 C 0.30067 0.222 0.87156 0.0
N101 N 0.35739 0.28415 0.96261 0.0
C102 C 0.3658 0.289 1.02621 0.0
C103 C 0.3394 0.31545 0.93658 0.0
N104 N 0.35339 0.32191 0.04146 0.0
C105 C 0.33701 0.33885 0.98499 0.0
C106 C 0.38172 0.25709 0.78234 0.0
O107 O 0.32047 0.19453 0.86024 0.0
O108 O 0.31424 0.24592 0.90188 0.0
O109 O 0.37533 0.27189 0.83605 0.0
O110 O 0.37768 0.22299 0.78548 0.0
O111 O 0.41274 0.23991 0.94115 0.0
H112 H 0.32782 0.32051 0.88631 0.0
H113 H 0.38066 0.26861 0.0607 0.0
O114 O 0.41985 0.19214 0.88547 0.0
O115 O 0.36797 0.16335 0.96009 0.0
O116 O 0.35781 0.21183 1.01063 0.0
C117 C 0.36578 0.17751 1.015 0.0
H118 H 0.39257 0.06882 0.79873 0.0
H119 H 0.32346 0.36572 0.97965 0.0
Co120 Co 0.02644 0.84892 0.96699 0.0
C121 C -9e-05 0.79728 0.90263 0.0
Co122 Co 0.97686 0.86658 0.91401 0.0
C123 C 0.07364 0.8461 0.07628 0.0
C124 C 0.09879 0.81933 0.99733 0.0
N125 N 0.0676 0.83618 1.01513 0.0
N126 N 0.10738 0.83611 0.09856 0.0
C127 C 0.1233 0.81902 0.04882 0.0
H128 H 0.05315 0.86021 0.10383 0.0
H129 H 0.10333 0.80805 0.95019 0.0
C130 C 0.00353 0.92135 0.97433 0.0
N131 N 0.93577 0.88075 0.86414 0.0
C132 C 0.92772 0.86833 0.80596 0.0
C133 C 0.90737 0.90365 0.87627 0.0
N134 N 0.89539 0.8819 0.78171 0.0
C135 C 0.88228 0.90446 0.82506 0.0
C136 C 0.96265 0.83767 0.04892 0.0
O137 O 0.02607 0.89574 0.99658 0.0
O138 O 0.98068 0.91548 0.93068 0.0
O139 O 0.94733 0.85662 0.99764 0.0
O140 O -0.00318 0.83099 0.04556 0.0
O141 O 0.97255 0.81943 0.89752 0.0
H142 H 0.90475 0.91814 0.92009 0.0
H143 H 0.94509 0.84926 0.78185 0.0
O144 O 0.02699 0.80351 0.93681 0.0
O145 O 0.05621 0.8638 0.88931 0.0
O146 O 0.00723 0.8727 0.82886 0.0
C147 C 0.04175 0.86706 0.83108 0.0
H148 H 0.15013 0.80571 0.05033 0.0
H149 H 0.85611 0.91919 0.82129 0.0
Co150 Co 0.38133 0.78294 0.16202 0.0
C151 C 0.42177 0.78254 0.04631 0.0
Co152 Co 0.36526 0.7411 0.09474 0.0
C153 C 0.41325 0.81096 0.28465 0.0
C154 C 0.38205 0.85193 0.22152 0.0
N155 N 0.39435 0.81674 0.22472 0.0
N156 N 0.4126 0.84086 0.31846 0.0
C157 C 0.39289 0.86647 0.27808 0.0
H158 H 0.42604 0.78487 0.30473 0.0
H159 H 0.36524 0.86626 0.18149 0.0
C160 C 0.3227 0.74348 0.21005 0.0
N161 N 0.35705 0.70575 0.03396 0.0
C162 C 0.38302 0.68778 0.99896 0.0
C163 C 0.32574 0.69515 1.0113 0.0
N164 N 0.36934 0.66688 0.95477 0.0
C165 C 0.33307 0.67159 0.9634 0.0
C166 C 0.41201 0.7137 0.19725 0.0
O167 O 0.34348 0.76848 0.21927 0.0
O168 O 0.32622 0.72731 0.15668 0.0
O169 O 0.39545 0.70593 0.14599 0.0
O170 O 0.41148 0.74652 0.20954 0.0
O171 O 0.40281 0.75627 0.03744 0.0
H172 H 0.29917 0.7046 1.02728 0.0
H173 H 0.41166 0.69096 1.00447 0.0
O174 O 0.41855 0.79691 0.10136 0.0
O175 O 0.35049 0.81804 0.11042 0.0
O176 O 0.3353 0.77773 0.04444 0.0
C177 C 0.33547 0.81079 0.05657 0.0
H178 H 0.38646 0.89401 0.28883 0.0
H179 H 0.31278 0.6593 0.93659 0.0
Co180 Co 0.46867 0.12883 0.38283 0.0
C181 C 0.50542 0.17399 0.28851 0.0
Co182 Co 0.51323 0.10248 0.332 0.0
C183 C 0.40046 0.13373 0.44344 0.0
C184 C 0.42785 0.1823 0.45112 0.0
N185 N 0.43024 0.15127 0.42268 0.0
N186 N 0.38106 0.15051 0.48902 0.0
C187 C 0.39752 0.18184 0.49221 0.0
H188 H 0.39627 0.10613 0.43426 0.0
H189 H 0.44891 0.20151 0.44894 0.0
C190 C 0.4798 0.05591 0.42959 0.0
N191 N 0.5507 0.07889 0.2902 0.0
C192 C 0.55882 0.08467 0.22366 0.0
C193 C 0.57883 0.05785 0.31873 0.0
N194 N 0.59129 0.06905 0.20937 0.0
C195 C 0.60416 0.05221 0.26909 0.0
C196 C 0.53374 0.12822 0.4559 0.0
O197 O 0.46057 0.08424 0.4389 0.0
O198 O 0.50118 0.05728 0.37904 0.0
O199 O 0.54548 0.10935 0.40948 0.0
O200 O 0.50087 0.14046 0.4521 0.0
O201 O 0.52674 0.14644 0.28599 0.0
H202 H 0.5821 0.04974 0.37266 0.0
H203 H 0.54316 0.10353 0.18754 0.0
O204 O 0.47819 0.17198 0.32843 0.0
O205 O 0.43593 0.11951 0.31516 0.0
O206 O 0.47981 0.09883 0.25427 0.0
C207 C 0.4467 0.11079 0.25847 0.0
H208 H 0.39164 0.20006 0.52985 0.0
H209 H 0.63114 0.03955 0.27706 0.0
Co210 Co 0.1104 0.23947 0.64918 0.0
C211 C 0.17036 0.25769 0.71512 0.0
Co212 Co 0.1004 0.28841 0.69899 0.0
C213 C 0.11339 0.19245 0.5441 0.0
C214 C 0.13761 0.16702 0.63665 0.0
N215 N 0.11964 0.19789 0.60848 0.0
N216 N 0.12705 0.15951 0.53064 0.0
C217 C 0.14215 0.14337 0.58902 0.0
H218 H 0.09915 0.21245 0.50791 0.0
H219 H 0.14768 0.1624 0.68808 0.0
C220 C 0.04348 0.2718 0.62901 0.0
N221 N 0.09413 0.33011 0.73959 0.0
C222 C 0.11158 0.33509 0.7961 0.0
C223 C 0.08094 0.36364 0.71354 0.0
N224 N 0.11153 0.37043 0.80515 0.0
C225 C 0.0915 0.38858 0.75408 0.0
C226 C 0.11433 0.30514 0.56017 0.0
O227 O 0.06248 0.24302 0.62115 0.0
O228 O 0.05343 0.293 0.66949 0.0
O229 O 0.11199 0.31841 0.61597 0.0
O230 O 0.12003 0.27057 0.56321 0.0
O231 O 0.14911 0.28379 0.72832 0.0
H232 H 0.06643 0.36984 0.66627 0.0
H233 H 0.12507 0.31298 0.82895 0.0
O234 O 0.15952 0.23599 0.67659 0.0
O235 O 0.09782 0.20937 0.73393 0.0
O236 O 0.086 0.25864 0.78187 0.0
C237 C 0.08689 0.22397 0.78579 0.0
H238 H 0.15628 0.11679 0.59648 0.0
H239 H 0.08575 0.41775 0.74544 0.0
Co240 Co 0.88556 0.29166 0.67295 0.0
C241 C 0.92453 0.29644 0.55482 0.0
Co242 Co 0.87297 0.24895 0.60548 0.0
C243 C 0.91438 0.32005 0.79652 0.0
C244 C 0.88372 0.36089 0.73204 0.0
N245 N 0.89628 0.32575 0.73589 0.0
N246 N 0.9131 0.34994 0.83021 0.0
C247 C 0.89372 0.3755 0.78911 0.0
H248 H 0.92719 0.29405 0.81704 0.0
H249 H 0.86752 0.37511 0.69101 0.0
C250 C 0.83232 0.24584 0.72397 0.0
N251 N 0.8664 0.21341 0.54459 0.0
C252 C 0.89228 0.19766 0.50605 0.0
C253 C 0.83549 0.19957 0.52739 0.0
N254 N 0.87879 0.17491 0.46506 0.0
C255 C 0.84289 0.17623 0.47927 0.0
C256 C 0.92238 0.22489 0.70491 0.0
O257 O 0.85037 0.27297 0.73257 0.0
O258 O 0.83649 0.23082 0.6695 0.0
O259 O 0.90667 0.21606 0.65358 0.0
O260 O 0.91948 0.25774 0.71709 0.0
O261 O 0.90822 0.26828 0.54595 0.0
H262 H 0.80908 0.20637 0.54781 0.0
H263 H 0.92057 0.20353 0.50702 0.0
O264 O 0.92022 0.30996 0.61053 0.0
O265 O 0.85109 0.32437 0.62488 0.0
O266 O 0.83934 0.28318 0.55839 0.0
C267 C 0.8368 0.31619 0.57104 0.0
H268 H 0.88711 0.40307 0.79953 0.0
H269 H 0.82292 0.16146 0.45657 0.0
Co270 Co 0.60928 0.73168 0.14845 0.0
C271 C 0.66621 0.75548 0.21625 0.0
Co272 Co 0.59453 0.78004 0.19756 0.0
C273 C 0.60953 0.68087 0.05024 0.0
C274 C 0.64881 0.6648 0.12791 0.0
N275 N 0.62282 0.69091 0.1073 0.0
N276 N 0.62631 0.64983 0.03438 0.0
C277 C 0.65122 0.63961 0.08269 0.0
H278 H 0.58801 0.69606 1.02059 0.0
H279 H 0.66482 0.66391 0.17327 0.0
C280 C 0.54072 0.75806 0.12563 0.0
N281 N 0.58284 0.82108 0.23789 0.0
C282 C 0.60684 0.84517 0.25116 0.0
C283 C 0.55234 0.83018 0.27089 0.0
N284 N 0.59376 0.86727 0.29525 0.0
C285 C 0.55903 0.85859 0.30634 0.0
C286 C 0.60952 0.79836 0.05934 0.0
O287 O 0.5618 0.7305 0.11959 0.0
O288 O 0.54854 0.78063 0.16499 0.0
O289 O 0.60522 0.81143 0.11523 0.0
O290 O 0.61701 0.76397 0.06244 0.0
O291 O 0.64244 0.77912 0.23088 0.0
H292 H 0.52828 0.81476 0.27481 0.0
H293 H 0.63506 0.84358 0.23614 0.0
O294 O 0.65787 0.73323 0.17662 0.0
O295 O 0.59853 0.70015 0.23351 0.0
O296 O 0.58095 0.74891 0.27918 0.0
C297 C 0.5849 0.71424 0.28422 0.0
H298 H 0.66903 0.61524 0.08595 0.0
H299 H 0.5415 0.86822 0.34513 0.0
Co300 Co 0.65068 0.23464 0.95254 0.0
C301 C 0.71657 0.20811 0.90216 0.0
Co302 Co 0.6467 0.20032 0.86482 0.0
C303 C 0.62113 0.27322 0.06946 0.0
C304 C 0.67789 0.27862 0.05454 0.0
N305 N 0.64991 0.26262 1.0303 0.0
N306 N 0.63009 0.295 0.11662 0.0
C307 C 0.66609 0.29805 0.10653 0.0
H308 H 0.59385 0.26521 0.06344 0.0
H309 H 0.70524 0.27703 0.03476 0.0
C310 C 0.58278 0.22729 0.90786 0.0
N311 N 0.6414 0.17424 0.7865 0.0
C312 C 0.61651 0.17891 0.73495 0.0
C313 C 0.6622 0.14496 0.77303 0.0
N314 N 0.62112 0.1538 0.69021 0.0
C315 C 0.65011 0.13262 0.71504 0.0
C316 C 0.64414 0.15969 0.9898 0.0
O317 O 0.6005 0.23921 0.95344 0.0
O318 O 0.5986 0.21015 0.86407 0.0
O319 O 0.64062 0.15777 0.92655 0.0
O320 O 0.64948 0.19009 1.01076 0.0
O321 O 0.69603 0.19144 0.86724 0.0
H322 H 0.68459 0.1328 0.80415 0.0
H323 H 0.59531 0.20041 0.73045 0.0
O324 O 0.70295 0.22854 0.94495 0.0
O325 O 0.65205 0.27792 0.8914 0.0
O326 O 0.65324 0.24363 0.80781 0.0
C327 C 0.65519 0.27458 0.82863 0.0
H328 H 0.68307 0.31402 0.1336 0.0
H329 H 0.66157 0.10898 0.69403 0.0
Co330 Co 0.87028 0.70087 0.37924 0.0
C331 C 0.92929 0.72129 0.4345 0.0
Co332 Co 0.86111 0.75197 0.42227 0.0
C333 C 0.85759 0.65729 0.28018 0.0
C334 C 0.88763 0.62485 0.35925 0.0
N335 N 0.87443 0.65915 0.33876 0.0
N336 N 0.85874 0.62344 0.26306 0.0
C337 C 0.87846 0.60277 0.3118 0.0
H338 H 0.84511 0.68092 0.24957 0.0
H339 H 0.90244 0.61641 0.40571 0.0
C340 C 0.79955 0.73151 0.36693 0.0
N341 N 0.85399 0.79388 0.46217 0.0
C342 C 0.86417 0.79876 0.52484 0.0
C343 C 0.8352 0.82503 0.43798 0.0
N344 N 0.85214 0.8315 0.54149 0.0
C345 C 0.8341 0.84833 0.48669 0.0
C346 C 0.88364 0.76444 0.28533 0.0
O347 O 0.82088 0.70517 0.3554 0.0
O348 O 0.81101 0.7552 0.40052 0.0
O349 O 0.87205 0.78117 0.33438 0.0
O350 O 0.88345 0.72974 0.2937 0.0
O351 O 0.90948 0.74926 0.44346 0.0
H352 H 0.82239 0.83009 0.38878 0.0
H353 H 0.88015 0.77847 0.55761 0.0
O354 O 0.9177 0.69677 0.40293 0.0
O355 O 0.86108 0.67187 0.46386 0.0
O356 O 0.85405 0.72154 0.51166 0.0
C357 C 0.85985 0.68681 0.51788 0.0
H358 H 0.88612 0.57411 0.3125 0.0
H359 H 0.82034 0.87508 0.48268 0.0
Co360 Co 0.51174 0.5985 0.65717 0.0
C361 C 0.48645 0.54156 0.60241 0.0
Co362 Co 0.45996 0.6137 0.6081 0.0
C363 C 0.55566 0.60031 0.76973 0.0
C364 C 0.58355 0.56744 0.70281 0.0
N365 N 0.55253 0.58761 0.70992 0.0
N366 N 0.58696 0.58895 0.80116 0.0
C367 C 0.60503 0.5684 0.75907 0.0
H368 H 0.53542 0.61856 0.7892 0.0
H369 H 0.59008 0.55308 0.65981 0.0
C370 C 0.487 0.66872 0.66223 0.0
N371 N 0.41959 0.62498 0.55598 0.0
C372 C 0.41892 0.61724 0.49189 0.0
C373 C 0.3924 0.65028 0.56042 0.0
N374 N 0.39455 0.63864 0.45394 0.0
C375 C 0.37714 0.65902 0.49715 0.0
C376 C 0.44652 0.59653 0.74202 0.0
O377 O 0.5136 0.64592 0.67123 0.0
O378 O 0.45875 0.66074 0.63335 0.0
O379 O 0.43032 0.60025 0.68537 0.0
O380 O 0.48106 0.5913 0.74112 0.0
O381 O 0.46168 0.56563 0.58294 0.0
H382 H 0.38757 0.66506 0.60346 0.0
H383 H 0.44052 0.60139 0.47008 0.0
O384 O 0.51064 0.54927 0.642 0.0
O385 O 0.54134 0.60945 0.5742 0.0
O386 O 0.48948 0.6306 0.52995 0.0
C387 C 0.52371 0.62687 0.52409 0.0
H388 H 0.63157 0.55493 0.76836 0.0
H389 H 0.359 0.68255 0.48183 0.0
Co390 Co 0.97878 0.38803 0.2277 0.0
C391 C 0.00445 0.45086 0.16245 0.0
Co392 Co 0.03216 0.37927 0.18173 0.0
C393 C 0.92046 0.38306 0.32783 0.0
C394 C 0.90417 0.41317 0.23289 0.0
N395 N 0.93309 0.39526 0.26551 0.0
N396 N 0.88494 0.39247 0.3348 0.0
C397 C 0.87437 0.41108 0.27522 0.0
H398 H 0.9366 0.36654 0.36661 0.0
H399 H 0.90452 0.42637 0.18107 0.0
C400 C 0.00361 0.31725 0.2385 0.0
N401 N 0.07712 0.37446 0.14302 0.0
C402 C 0.08554 0.3921 0.08217 0.0
C403 C 0.10833 0.35704 0.16651 0.0
N404 N 0.12063 0.38666 0.06565 0.0
C405 C 0.13517 0.36417 0.11844 0.0
C406 C 0.03812 0.38327 0.31972 0.0
O407 O 0.97668 0.33831 0.24976 0.0
O408 O 0.03187 0.32991 0.2096 0.0
O409 O 0.05527 0.38414 0.26403 0.0
O410 O 0.00345 0.38839 0.31724 0.0
O411 O 0.03145 0.42959 0.15248 0.0
H412 H 0.11126 0.34003 0.21486 0.0
H413 H 0.06553 0.40732 0.04889 0.0
O414 O 0.97979 0.43912 0.203 0.0
O415 O 0.95613 0.38434 0.13882 0.0
O416 O 0.00954 0.37182 0.09705 0.0
C417 C 0.9754 0.37539 0.08901 0.0
H418 H 0.84709 0.42191 0.26314 0.0
H419 H 0.16273 0.35259 0.12099 0.0
Co420 Co 0.52645 0.33871 0.46655 0.0
C421 C 0.50082 0.2864 0.3996 0.0
Co422 Co 0.4769 0.35494 0.41054 0.0
C423 C 0.57916 0.33831 0.56893 0.0
C424 C 0.59814 0.3075 0.49044 0.0
N425 N 0.56876 0.32598 0.51199 0.0
N426 N 0.61408 0.32857 0.58414 0.0
C427 C 0.62597 0.30884 0.53482 0.0
H428 H 0.5612 0.3544 0.59811 0.0
H429 H 0.59944 0.29451 0.4447 0.0
C430 C 0.50318 0.41049 0.47273 0.0
N431 N 0.4354 0.36941 0.36267 0.0
C432 C 0.42673 0.35829 0.30369 0.0
C433 C 0.4068 0.39123 0.37828 0.0
N434 N 0.39387 0.37173 0.28221 0.0
C435 C 0.38095 0.39271 0.32832 0.0
C436 C 0.46305 0.32677 0.54725 0.0
O437 O 0.52702 0.38588 0.49365 0.0
O438 O 0.47978 0.40347 0.43098 0.0
O439 O 0.448 0.34248 0.49289 0.0
O440 O 0.49761 0.32262 0.54784 0.0
O441 O 0.47357 0.30851 0.39057 0.0
H442 H 0.40452 0.40437 0.42378 0.0
H443 H 0.4439 0.34004 0.27731 0.0
O444 O 0.52607 0.29255 0.43836 0.0
O445 O 0.55532 0.35236 0.3863 0.0
O446 O 0.50659 0.36346 0.32548 0.0
C447 C 0.54098 0.35705 0.32785 0.0
H448 H 0.65247 0.29525 0.53164 0.0
H449 H 0.35442 0.40671 0.32724 0.0
Co450 Co 0.95764 0.63331 0.89097 0.0
C451 C -0.00492 0.67969 0.8 0.0
Co452 Co 0.00343 0.60825 0.84133 0.0
C453 C 0.88891 0.63636 0.95113 0.0
C454 C 0.91461 0.68614 0.95637 0.0
N455 N 0.91801 0.65475 0.92923 0.0
N456 N 0.86924 0.65291 0.99673 0.0
C457 C 0.88452 0.68507 0.99799 0.0
H458 H 0.88558 0.60843 0.943 0.0
H459 H 0.93501 0.70608 0.95328 0.0
C460 C 0.96957 0.56028 0.9358 0.0
N461 N 0.04262 0.58537 0.80239 0.0
C462 C 0.05355 0.59086 0.73718 0.0
C463 C 0.06958 0.56423 0.83498 0.0
N464 N 0.08647 0.5746 0.72793 0.0
C465 C 0.09682 0.55796 0.78937 0.0
C466 C 0.021 0.63277 0.96863 0.0
O467 O 0.94966 0.58812 0.94539 0.0
O468 O 0.99109 0.56248 0.88546 0.0
O469 O 0.03369 0.61457 0.92197 0.0
O470 O 0.98816 0.64493 0.96316 0.0
O471 O 0.01707 0.65256 0.79814 0.0
H472 H 0.07071 0.55629 0.88921 0.0
H473 H 0.03933 0.60945 0.69852 0.0
O474 O 0.96722 0.67699 0.83829 0.0
O475 O 0.92645 0.6241 0.82045 0.0
O476 O 0.97182 0.60538 0.76047 0.0
C477 C 0.93845 0.61691 0.76339 0.0
H478 H 0.87827 0.70353 0.03507 0.0
H479 H 0.12322 0.54466 0.8012 0.0
C480 C 0.07142 0.14378 0.92618 0.0
C481 C 0.0436 0.15857 0.96523 0.0
H482 H 0.1063 0.15225 0.83803 0.0
C483 C 0.03118 0.19504 0.94541 0.0
H484 H 0.08162 0.11584 0.93967 0.0
C485 C 0.04591 0.21612 0.88878 0.0
C486 C 0.07301 0.2013 0.8484 0.0
H487 H 0.01003 0.20754 0.97438 0.0
H488 H 0.03534 0.24398 0.87566 0.0
C489 C 0.08548 0.16468 0.86779 0.0
C490 C 0.16186 0.80553 0.25115 0.0
C491 C 0.13408 0.80511 0.29974 0.0
H492 H 0.17552 0.81775 0.1467 0.0
C493 C 0.10197 0.82606 0.28569 0.0
H494 H 0.18714 0.78969 0.26219 0.0
C495 C 0.09495 0.84164 0.21939 0.0
C496 C 0.11984 0.8354 0.16702 0.0
H497 H 0.08046 0.82614 0.3233 0.0
H498 H 0.06828 0.85436 0.20907 0.0
C499 C 0.15487 0.82102 0.18481 0.0
C500 C 0.46264 0.83101 0.4048 0.0
C501 C 0.42782 0.84552 0.38455 0.0
H502 H 0.5052 0.82717 0.47893 0.0
C503 C 0.40883 0.86696 0.42893 0.0
H504 H 0.47834 0.8147 0.37228 0.0
C505 C 0.42392 0.87361 0.49097 0.0
C506 C 0.4591 0.85995 0.51053 0.0
H507 H 0.38196 0.87859 0.41568 0.0
H508 H 0.40816 0.89009 0.52317 0.0
C509 C 0.47815 0.83848 0.46611 0.0
C510 C 0.32814 0.13388 0.64712 0.0
C511 C 0.3538 0.11053 0.6858 0.0
H512 H 0.31818 0.16706 0.5516 0.0
C513 C 0.38017 0.09102 0.65183 0.0
H514 H 0.3063 0.1479 0.6719 0.0
C515 C 0.38606 0.10113 0.58299 0.0
C516 C 0.36545 0.13051 0.54761 0.0
H517 H 0.39984 0.07223 0.67957 0.0
H518 H 0.41004 0.08971 0.56016 0.0
C519 C 0.33471 0.14486 0.57847 0.0
C520 C 0.89218 0.82005 0.19477 0.0
C521 C 0.90207 0.7839 0.22312 0.0
H522 H 0.90226 0.86504 0.11693 0.0
C523 C 0.93175 0.76626 0.19297 0.0
H524 H 0.86969 0.83477 0.21635 0.0
C525 C 0.95122 0.78405 0.138 0.0
C526 C 0.94121 0.81992 0.10885 0.0
H527 H 0.94068 0.73868 0.21315 0.0
H528 H 0.97407 0.76932 0.11751 0.0
C529 C 0.91094 0.83749 0.13762 0.0
C530 C 0.94522 0.2072 0.82082 0.0
C531 C 0.92832 0.19714 0.76389 0.0
H532 H 0.94668 0.20153 0.92925 0.0
C533 C 0.90552 0.16761 0.77246 0.0
H534 H 0.96306 0.2296 0.81571 0.0
C535 C 0.89566 0.15222 0.83748 0.0
C536 C 0.90889 0.16592 0.89388 0.0
H537 H 0.89206 0.15915 0.72953 0.0
H538 H 0.87648 0.13103 0.84384 0.0
C539 C 0.93518 0.19197 0.88544 0.0
C540 C 0.56424 0.16451 0.61947 0.0
C541 C 0.59975 0.14886 0.6301 0.0
H542 H 0.51615 0.17042 0.55817 0.0
C543 C 0.61355 0.12703 0.58088 0.0
H544 H 0.55211 0.18129 0.65531 0.0
C545 C 0.59272 0.12066 0.52466 0.0
C546 C 0.55704 0.13575 0.51482 0.0
H547 H 0.64075 0.1147 0.58535 0.0
H548 H 0.6046 0.10355 0.48905 0.0
C549 C 0.54338 0.15803 0.56327 0.0
C550 C 0.64831 0.8559 0.44961 0.0
C551 C 0.6315 0.88407 0.48129 0.0
H552 H 0.64862 0.8283 0.36235 0.0
C553 C 0.61443 0.91404 0.44052 0.0
H554 H 0.66242 0.83287 0.47912 0.0
C555 C 0.6053 0.91086 0.3738 0.0
C556 C 0.61546 0.87882 0.34668 0.0
H557 H 0.60262 0.93696 0.46344 0.0
H558 H 0.58677 0.93117 0.3466 0.0
C559 C 0.64022 0.85326 0.38233 0.0
C560 C 0.54256 0.70517 0.38516 0.0
C561 C 0.57104 0.69112 0.34669 0.0
H562 H 0.50572 0.6961 0.46911 0.0
C563 C 0.58487 0.65514 0.36832 0.0
H564 H 0.53087 0.73249 0.37051 0.0
C565 C 0.57076 0.63421 0.42689 0.0
C566 C 0.54162 0.64827 0.46401 0.0
H567 H 0.60677 0.64324 0.34025 0.0
H568 H 0.582 0.60678 0.44199 0.0
C569 C 0.52792 0.68408 0.44189 0.0
C570 C 0.62385 0.32845 0.76874 0.0
C571 C 0.65565 0.30619 0.77733 0.0
H572 H 0.58504 0.35404 0.69806 0.0
C573 C 0.67955 0.3042 0.72257 0.0
H574 H 0.60539 0.33078 0.81099 0.0
C575 C 0.66788 0.31717 0.65723 0.0
C576 C 0.63205 0.33145 0.64691 0.0
H577 H 0.70477 0.28774 0.729 0.0
H578 H 0.68527 0.31167 0.61516 0.0
C579 C 0.61194 0.34111 0.70333 0.0
C580 C 0.97761 0.3461 0.97935 0.0
C581 C 0.95875 0.36807 1.02303 0.0
H582 H 0.97785 0.3223 0.88567 0.0
C583 C 0.92402 0.38268 1.00256 0.0
H584 H 0.00431 0.33408 0.99305 0.0
C585 C 0.90917 0.37643 0.94013 0.0
C586 C 0.928 0.35451 0.89644 0.0
H587 H 0.90849 0.39961 0.03428 0.0
H588 H 0.88265 0.38874 0.92606 0.0
C589 C 0.96233 0.33905 0.91769 0.0
C590 C 0.82205 0.63828 0.16074 0.0
C591 C 0.84912 0.61573 0.19705 0.0
H592 H 0.80831 0.66956 0.06506 0.0
C593 C 0.87395 0.59546 0.16136 0.0
H594 H 0.80162 0.65309 0.18752 0.0
C595 C 0.87702 0.60416 0.09144 0.0
C596 C 0.85518 0.63295 0.057 0.0
H597 H 0.89472 0.57749 0.18783 0.0
H598 H 0.90014 0.59248 0.06652 0.0
C599 C 0.8257 0.64773 0.09088 0.0
C600 C 0.4106 0.29026 0.59811 0.0
C601 C 0.44057 0.31108 0.60721 0.0
H602 H 0.36927 0.25623 0.64505 0.0
C603 C 0.44969 0.31504 0.67438 0.0
H604 H 0.40295 0.28609 0.5474 0.0
C605 C 0.42934 0.29917 0.73029 0.0
C606 C 0.39999 0.27753 0.72138 0.0
H607 H 0.47264 0.33052 0.68378 0.0
H608 H 0.43759 0.30265 0.78103 0.0
C609 C 0.39118 0.27309 0.65423 0.0
C610 C 0.43099 0.67725 0.37479 0.0
C611 C 0.40351 0.65256 0.38604 0.0
H612 H 0.45743 0.71489 0.30271 0.0
C613 C 0.38623 0.64114 0.33126 0.0
H614 H 0.44517 0.68534 0.41722 0.0
C615 C 0.39377 0.65728 0.26558 0.0
C616 C 0.41818 0.68537 0.25498 0.0
H617 H 0.36575 0.62127 0.33967 0.0
H618 H 0.37753 0.65064 0.2244 0.0
C619 C 0.43851 0.69342 0.30954 0.0
C620 C 0.04895 0.66607 0.13713 0.0
C621 C 0.08426 0.65005 0.14879 0.0
H622 H 0.00175 0.67326 0.07317 0.0
C623 C 0.09874 0.62919 0.09864 0.0
H624 H 0.03637 0.68219 0.17359 0.0
C625 C 0.07877 0.62397 0.04065 0.0
C626 C 0.04327 0.63933 1.0297 0.0
H627 H 0.12587 0.6167 0.10374 0.0
H628 H 0.0912 0.60752 1.00449 0.0
C629 C 0.02889 0.66072 0.07905 0.0
C630 C 0.11201 0.41602 0.88472 0.0
C631 C 0.12704 0.38418 0.86194 0.0
H632 H 0.10102 0.44364 0.97105 0.0
C633 C 0.15269 0.36228 0.90293 0.0
H634 H 0.09347 0.43449 0.85354 0.0
C635 C 0.15598 0.36679 0.97093 0.0
C636 C 0.13413 0.39373 0.99749 0.0
H637 H 0.16699 0.33905 0.88505 0.0
H638 H 0.17137 0.3461 1.00389 0.0
C639 C 0.11636 0.42123 0.95219 0.0
C640 C 0.02982 0.25522 0.24103 0.0
C641 C -0.001 0.27871 0.2424 0.0
H642 H 0.05171 0.20514 0.213 0.0
C643 C 0.96477 0.26713 0.22839 0.0
H644 H 0.05634 0.26376 0.25257 0.0
C645 C 0.96212 0.23406 0.20401 0.0
C646 C -0.00639 0.21242 0.19506 0.0
H647 H 0.94059 0.28501 0.22961 0.0
H648 H 0.93582 0.22623 0.18964 0.0
C649 C 0.02716 0.22213 0.21728 0.0
C650 C 0.98219 0.74733 0.47893 0.0
C651 C 0.96542 0.71708 0.4608 0.0
H652 H 0.03293 0.76976 0.49314 0.0
C653 C 0.98451 0.68331 0.46193 0.0
H654 H 0.96736 0.77327 0.48059 0.0
C655 C 0.0215 0.68141 0.46924 0.0
C656 C 0.03882 0.71319 0.4759 0.0
H657 H 0.97146 0.65923 0.45135 0.0
H658 H 0.03681 0.6562 0.46305 0.0
C659 C 0.01933 0.74531 0.48675 0.0
C660 C 0.52252 0.71175 0.71382 0.0
C661 C 0.48913 0.70286 0.68935 0.0
H662 H 0.55258 0.75323 0.74756 0.0
C663 C 0.45839 0.72637 0.69244 0.0
H664 H 0.54647 0.69347 0.71391 0.0
C665 C 0.46185 0.76014 0.71361 0.0
C666 C 0.49618 0.77045 0.73035 0.0
H667 H 0.4322 0.71936 0.67589 0.0
H668 H 0.43847 0.77929 0.71055 0.0
C669 C 0.52603 0.74555 0.73412 0.0
C670 C 0.52596 0.21977 0.85272 0.0
C671 C 0.54393 0.22931 0.90884 0.0
H672 H 0.47607 0.20662 0.81345 0.0
C673 C 0.5249 0.23589 0.96783 0.0
H674 H 0.54014 0.21528 0.8062 0.0
C675 C 0.48807 0.23105 0.97165 0.0
C676 C 0.47093 0.21922 0.91689 0.0
H677 H 0.53853 0.24327 1.01152 0.0
H678 H 0.47321 0.23571 1.0174 0.0
C679 C 0.48962 0.21429 0.85709 0.0
C680 C 0.03655 0.75113 0.84741 0.0
C681 C 0.00363 0.77114 0.85424 0.0
H682 H 0.06192 0.70525 0.8081 0.0
C683 C 0.97535 0.76876 0.80866 0.0
H684 H 0.05989 0.75458 0.87781 0.0
C685 C 0.97777 0.74223 0.76561 0.0
C686 C 0.00626 0.71575 0.77533 0.0
H687 H 0.95039 0.78543 0.80938 0.0
H688 H 0.9537 0.73722 0.73848 0.0
C689 C 0.03835 0.72417 0.80491 0.0
C690 C 0.50227 0.80718 0.06182 0.0
C691 C 0.51409 0.77004 0.0734 0.0
H692 H 0.46083 0.84503 1.01883 0.0
C693 C 0.50186 0.74608 0.0306 0.0
H694 H 0.5136 0.82736 0.08891 0.0
C695 C 0.47219 0.75755 0.98923 0.0
C696 C 0.45296 0.78982 1.00154 0.0
H697 H 0.51301 0.71827 0.03306 0.0
H698 H 0.4593 0.73742 0.96428 0.0
C699 C 0.47314 0.81776 1.01914 0.0
C700 C 0.48853 0.23596 0.25087 0.0
C701 C 0.51717 0.20981 0.26318 0.0
H702 H 0.45695 0.27635 0.29557 0.0
C703 C 0.54729 0.21845 0.29861 0.0
H704 H 0.46644 0.2314 0.21825 0.0
C705 C 0.54193 0.24318 0.34524 0.0
C706 C 0.50792 0.26175 0.34906 0.0
H707 H 0.57152 0.20042 0.30298 0.0
H708 H 0.56343 0.24616 0.38021 0.0
C709 C 0.48243 0.2604 0.29754 0.0
C710 C 0.00477 0.26414 0.53088 0.0
C711 C 0.01646 0.28586 0.57841 0.0
H712 H 0.96269 0.258 0.46172 0.0
C713 C 0.00389 0.32279 0.57266 0.0
H714 H 0.01661 0.23693 0.52832 0.0
C715 C 0.97431 0.33449 0.53146 0.0
C716 C 0.95472 0.3072 0.50934 0.0
H717 H 0.01507 0.34174 0.60278 0.0
H718 H 0.96139 0.36112 0.53539 0.0
C719 C 0.97495 0.27685 0.49071 0.0
C720 C 0.02126 0.99173 0.09046 0.0
C721 C 0.99239 0.01765 0.07458 0.0
H722 H 0.04779 0.94135 0.0705 0.0
C723 C 0.96787 0.01212 1.02387 0.0
H724 H 0.04086 -0.00466 0.1287 0.0
C725 C 0.97214 0.98147 0.98976 0.0
C726 C 0.00098 0.95554 1.00566 0.0
H727 H 0.94553 0.03174 1.0098 0.0
H728 H 0.95255 0.97789 0.95149 0.0
C729 C 0.02546 0.96099 0.05649 0.0
C730 C 0.2526 0.69213 0.31769 0.0
C731 C 0.24204 0.71707 0.36325 0.0
H732 H 0.28555 0.68128 0.23221 0.0
C733 C 0.26058 0.74899 0.36193 0.0
H734 H 0.23884 0.6671 0.3177 0.0
C735 C 0.28723 0.75706 0.31263 0.0
C736 C 0.29565 0.73348 0.26355 0.0
H737 H 0.25276 0.76889 0.39556 0.0
H738 H 0.30016 0.78263 0.31129 0.0
C739 C 0.27891 0.70039 0.26795 0.0
C740 C 0.51983 0.00781 0.49389 0.0
C741 C 0.48551 0.02614 0.48617 0.0
H742 H 0.55446 0.96896 0.55434 0.0
C743 C 0.45956 0.01942 0.53786 0.0
H744 H 0.54088 0.01306 0.45606 0.0
C745 C 0.46748 -0.00597 0.59515 0.0
C746 C 0.50169 0.97519 0.60205 0.0
H747 H 0.43301 0.03331 0.53341 0.0
H748 H 0.44635 0.98814 0.6326 0.0
C749 C 0.52792 0.98303 0.55124 0.0
C750 C 0.25425 0.20622 0.7918 0.0
C751 C 0.26544 0.22961 0.83688 0.0
H752 H 0.21617 0.19722 0.71658 0.0
C753 C 0.24552 0.26277 0.84029 0.0
H754 H 0.26923 0.18067 0.78719 0.0
C755 C 0.21531 0.27246 0.79901 0.0
C756 C 0.20445 0.24927 0.7533 0.0
H757 H 0.2537 0.28162 0.87375 0.0
H758 H 0.2004 0.2981 0.80313 0.0
C759 C 0.22417 0.21599 0.75037 0.0
C760 C 0.76722 0.18737 0.83086 0.0
C761 C 0.75389 0.21148 0.87603 0.0
H762 H 0.80151 0.17986 0.74531 0.0
C763 C 0.77076 0.24419 0.87759 0.0
H764 H 0.75495 0.16168 0.82896 0.0
C765 C 0.79729 0.25455 0.82944 0.0
C766 C 0.80727 0.23245 0.77881 0.0
H767 H 0.76109 0.2634 0.91135 0.0
H768 H 0.8083 0.281 0.82944 0.0
C769 C 0.79334 0.19798 0.78203 0.0
C770 C 0.74238 0.76912 0.33435 0.0
C771 C 0.76422 0.73701 0.33218 0.0
H772 H 0.69475 0.80072 0.29753 0.0
C773 C 0.75411 0.71176 0.28983 0.0
H774 H 0.74975 0.78938 0.36559 0.0
C775 C 0.72303 0.7185 0.25029 0.0
C776 C 0.70109 0.75051 0.25251 0.0
H777 H 0.77051 0.6869 0.28634 0.0
H778 H 0.71596 0.69827 0.21877 0.0
C779 C 0.71109 0.77578 0.29489 0.0
C780 C 0.51919 0.48188 0.58779 0.0
C781 C 0.48976 0.50712 0.57182 0.0
H782 H 0.54691 0.432 0.56823 0.0
C783 C 0.46543 0.50083 0.52135 0.0
H784 H 0.53867 0.48608 0.62585 0.0
C785 C 0.47043 0.47007 0.48763 0.0
C786 C 0.49985 0.44484 0.50359 0.0
H787 H 0.44268 0.51992 0.5072 0.0
H788 H 0.45095 0.46589 0.44956 0.0
C789 C 0.52416 0.45109 0.55413 0.0
C790 C 0.01158 0.51373 0.99927 0.0
C791 C 0.97672 0.53098 0.99287 0.0
H792 H 0.04848 0.47733 0.05955 0.0
C793 C 0.95191 0.52422 0.04657 0.0
H794 H 0.03173 0.51875 0.95973 0.0
C795 C 0.96163 0.50016 0.10481 0.0
C796 C -0.00346 0.48276 0.11067 0.0
H797 H 0.92491 0.53709 0.04311 0.0
H798 H 0.9414 0.49423 0.14401 0.0
C799 C 0.0215 0.49044 0.05752 0.0
C800 C 0.12209 0.09262 0.40494 0.0
C801 C 0.11366 0.11619 0.34568 0.0
H802 H 0.13218 0.088 0.51143 0.0
C803 C 0.11372 0.15394 0.34635 0.0
H804 H 0.12161 0.06342 0.40531 0.0
C805 C 0.11981 0.16812 0.40636 0.0
C806 C 0.12551 0.14476 0.46727 0.0
H807 H 0.10729 0.17246 0.30077 0.0
H808 H 0.11893 0.1974 0.4052 0.0
C809 C 0.12787 0.1068 0.46552 0.0
C810 C 0.06924 0.82023 0.6723 0.0
C811 C 0.1075 0.81572 0.67738 0.0
H812 H 0.01876 0.83999 0.71457 0.0
C813 C 0.1233 0.83202 0.72963 0.0
H814 H 0.05541 0.8082 0.63386 0.0
C815 C 0.10215 0.85045 0.77588 0.0
C816 C 0.06397 0.85409 0.77228 0.0
H817 H 0.15236 0.83018 0.73598 0.0
H818 H 0.11592 0.86101 0.81627 0.0
C819 C 0.04798 0.83895 0.71874 0.0
C820 C 0.35359 0.8707 0.99988 0.0
C821 C 0.33355 0.83966 0.99758 0.0
H822 H 0.38767 0.90917 0.94416 0.0
C823 C 0.32365 0.83085 0.93378 0.0
H824 H 0.3615 0.87868 0.04784 0.0
C825 C 0.33839 0.84892 0.87443 0.0
C826 C 0.36302 0.87588 0.87841 0.0
H827 H 0.30809 0.80731 0.93006 0.0
H828 H 0.33343 0.83951 0.82622 0.0
C829 C 0.36897 0.88806 0.94075 0.0
C830 C 0.42969 0.11227 0.13262 0.0
C831 C 0.42287 0.12329 0.19697 0.0
H832 H 0.41638 0.11942 1.02642 0.0
C833 C 0.39461 0.1505 0.20128 0.0
H834 H 0.4513 0.09198 0.12628 0.0
C835 C 0.37514 0.1671 0.14357 0.0
C836 C 0.38217 0.15641 0.07914 0.0
H837 H 0.38852 0.1605 0.24923 0.0
H838 H 0.35511 0.189 0.14924 0.0
C839 C 0.40936 0.12811 0.07511 0.0
C840 C 0.86519 0.82042 0.66371 0.0
C841 C 0.85775 0.84502 0.60494 0.0
H842 H 0.88291 0.81345 0.76678 0.0
C843 C 0.85799 0.88269 0.60857 0.0
H844 H 0.86411 0.79134 0.66351 0.0
C845 C 0.86792 0.89527 0.66872 0.0
C846 C 0.8779 0.87031 0.72535 0.0
H847 H 0.85236 0.90231 0.56421 0.0
H848 H 0.87003 0.92419 0.66986 0.0
C849 C 0.87548 0.83296 0.72307 0.0
C850 C 0.87841 0.14097 0.36335 0.0
C851 C 0.89773 0.15488 0.41434 0.0
H852 H 0.8801 0.1146 0.27315 0.0
C853 C 0.93588 0.14915 0.41312 0.0
H854 H 0.84925 0.14472 0.36088 0.0
C855 C 0.9538 0.13119 0.36217 0.0
C856 C 0.93436 0.11835 0.31016 0.0
H857 H 0.95213 0.15896 0.45102 0.0
H858 H 0.98312 0.12881 0.36194 0.0
C859 C 0.89629 0.1233 0.31245 0.0
C860 C 0.65545 0.12431 0.10302 0.0
C861 C 0.63783 0.12807 0.04021 0.0
H862 H 0.65475 0.10068 0.20708 0.0
C863 C 0.60971 0.10544 0.03077 0.0
H864 H 0.67731 0.14146 0.1112 0.0
C865 C 0.59652 0.08255 0.08591 0.0
C866 C 0.61191 0.08145 0.15033 0.0
H867 H 0.59564 0.10804 0.98277 0.0
H868 H 0.57243 0.06806 0.07978 0.0
C869 C 0.64282 0.10077 0.15759 0.0
C870 C 0.55329 0.86958 0.93707 0.0
C871 C 0.55843 0.85677 0.8738 0.0
H872 H 0.56687 0.86299 0.04326 0.0
C873 C 0.58292 0.82607 0.87178 0.0
H874 H 0.53481 0.8929 0.94141 0.0
C875 C 0.60058 0.80812 0.93054 0.0
C876 C 0.59558 0.82074 0.99398 0.0
H877 H 0.58755 0.81487 0.8245 0.0
H878 H 0.61765 0.78377 0.9264 0.0
C879 C 0.57212 0.85238 0.99563 0.0
C880 C 0.63465 0.60248 0.87921 0.0
C881 C 0.59796 0.59921 0.86486 0.0
H882 H 0.67254 0.62147 0.94602 0.0
C883 C 0.57141 0.60951 0.91118 0.0
H884 H 0.65567 0.59479 0.84455 0.0
C885 C 0.58095 0.62548 0.96733 0.0
C886 C 0.6173 0.63052 0.9797 0.0
H887 H 0.543 0.60616 0.90315 0.0
H888 H 0.55989 0.63436 1.0009 0.0
C889 C 0.64428 0.61785 0.93676 0.0
C890 C 0.54743 0.33252 0.21189 0.0
C891 C 0.56329 0.34575 0.26773 0.0
H892 H 0.55522 0.30606 0.12151 0.0
C893 C 0.60145 0.34195 0.27149 0.0
H894 H 0.51822 0.33368 0.20746 0.0
C895 C 0.62275 0.32581 0.22247 0.0
C896 C 0.60715 0.31209 0.16694 0.0
H897 H 0.61512 0.35072 0.3139 0.0
H898 H 0.65174 0.3233 0.22965 0.0
C899 C 0.56885 0.31597 0.1627 0.0
C900 C 0.83849 0.35356 0.38862 0.0
C901 C 0.86249 0.38115 0.39188 0.0
H902 H 0.80916 0.31149 0.44523 0.0
C903 C 0.8681 0.39389 0.45384 0.0
H904 H 0.83377 0.34371 0.34071 0.0
C905 C 0.85305 0.37654 0.51333 0.0
C906 C 0.83377 0.34492 0.51184 0.0
H907 H 0.88629 0.41551 0.4567 0.0
H908 H 0.86079 0.38501 0.56097 0.0
C909 C 0.82411 0.33549 0.44835 0.0
C910 C 0.88802 0.65883 0.70494 0.0
C911 C 0.91566 0.63091 0.70091 0.0
H912 H 0.8495 0.69845 0.65262 0.0
C913 C 0.92267 0.62033 0.63627 0.0
H914 H 0.88189 0.66863 0.75306 0.0
C915 C 0.90289 0.63692 0.57852 0.0
C916 C 0.87607 0.66562 0.58239 0.0
H917 H 0.94386 0.59961 0.62999 0.0
H918 H 0.90999 0.62834 0.52979 0.0
C919 C 0.86914 0.67621 0.64696 0.0
C920 C 0.36821 0.38577 0.16833 0.0
C921 C 0.37566 0.36083 0.22621 0.0
H922 H 0.35562 0.39265 0.06246 0.0
C923 C 0.37133 0.3237 0.22482 0.0
H924 H 0.37198 0.41448 0.16887 0.0
C925 C 0.36194 0.31119 0.16493 0.0
C926 C 0.35729 0.33562 0.10508 0.0
H927 H 0.37712 0.30425 0.26947 0.0
H928 H 0.35967 0.28221 0.16501 0.0
C929 C 0.35907 0.37322 0.1078 0.0
C930 C 0.37013 0.63324 0.85233 0.0
C931 C 0.38871 0.64604 0.90553 0.0
H932 H 0.37302 0.60742 0.76148 0.0
C933 C 0.42669 0.6386 0.90765 0.0
H934 H 0.34116 0.63815 0.84725 0.0
C935 C 0.4452 0.62027 0.85775 0.0
C936 C 0.42658 0.60867 0.80344 0.0
H937 H 0.44246 0.64743 0.94729 0.0
H938 H 0.47442 0.61663 0.86022 0.0
C939 C 0.3886 0.61516 0.80252 0.0
C940 C 0.15634 0.62368 0.62413 0.0
C941 C 0.14123 0.62533 0.55931 0.0
H942 H 0.15061 0.60476 0.73 0.0
C943 C 0.11293 0.60285 0.54953 0.0
H944 H 0.17811 0.64082 0.63289 0.0
C945 C 0.09674 0.58303 0.60524 0.0
C946 C 0.1094 0.58455 0.67083 0.0
H947 H 0.10055 0.6038 0.50018 0.0
H948 H 0.07252 0.56896 0.59793 0.0
C949 C 0.1407 0.60305 0.67956 0.0
C950 C 0.07916 0.33227 0.37807 0.0
C951 C 0.05809 0.36504 0.38231 0.0
H952 H 0.11301 0.28799 0.42869 0.0
C953 C 0.05806 0.37921 0.44454 0.0
H954 H 0.07986 0.32022 0.33123 0.0
C955 C 0.07853 0.36118 0.50023 0.0
C956 C 0.09883 0.32774 0.49655 0.0
H957 H 0.0425 0.40429 0.45014 0.0
H958 H 0.07724 0.37292 0.54727 0.0
C959 C 0.09865 0.31376 0.43408 0.0
loop_
_geom_bond_atom_site_label_1
_geom_bond_atom_site_label_2
_geom_bond_distance
_geom_bond_site_symmetry_2
_ccdc_geom_bond_type
Co0 N5 2.057 . S
Co0 O17 2.021 . S
Co0 O20 2.062 1_455 S
Co0 O24 2.117 . S
Co0 O25 2.020 . S
C1 O21 1.259 1_455 S
C1 O24 1.258 . S
Co2 N11 2.057 1_554 S
Co2 O18 2.117 . S
Co2 O19 2.020 . S
Co2 O21 2.021 . S
Co2 O26 2.062 1_654 S
C3 N5 1.316 . S
C3 N6 1.347 . S
C3 H8 0.931 . S
C4 N5 1.375 . S
C4 C7 1.350 . S
C4 H9 0.930 . S
N5 Co0 2.057 . S
N5 C3 1.316 . S
N5 C4 1.375 . S
N6 C3 1.347 . S
N6 C7 1.373 . S
C7 C4 1.350 . S
C7 N6 1.373 . S
C7 H28 0.931 . S
H8 C3 0.931 . S
H9 C4 0.930 . S
C10 O17 1.259 . S
C10 O18 1.258 1_455 S
N11 Co2 2.057 1_556 S
N11 C12 1.316 . S
N11 C13 1.375 . S
C12 N11 1.316 . S
C12 N14 1.347 . S
C12 H23 0.931 . S
C13 N11 1.375 . S
C13 C15 1.350 . S
C13 H22 0.930 . S
N14 C12 1.347 . S
N14 C15 1.373 . S
C15 C13 1.350 . S
C15 N14 1.373 . S
C15 H29 0.931 . S
C16 O19 1.256 . S
C16 O20 1.255 . S
O17 Co0 2.021 . S
O17 C10 1.259 . S
O18 Co2 2.117 . S
O18 C10 1.258 1_655 S
O19 Co2 2.020 . S
O19 C16 1.256 . S
O20 Co0 2.062 1_655 S
O20 C16 1.255 . S
O21 C1 1.259 1_655 S
O21 Co2 2.021 . S
H22 C13 0.930 . S
H23 C12 0.931 . S
O24 Co0 2.117 . S
O24 C1 1.258 . S
O25 Co0 2.020 . S
O25 C27 1.256 1_554 S
O26 Co2 2.062 1_456 S
O26 C27 1.255 . S
C27 O25 1.256 1_556 S
C27 O26 1.255 . S
H28 C7 0.931 . S
H29 C15 0.931 . S
Co30 N35 2.057 . S
Co30 O47 2.021 . S
Co30 O50 2.062 . S
Co30 O54 2.117 . S
Co30 O55 2.020 . S
C31 O51 1.259 . S
C31 O54 1.258 . S
Co32 N41 2.057 . S
Co32 O48 2.117 . S
Co32 O49 2.020 . S
Co32 O51 2.021 . S
Co32 O56 2.062 . S
C33 N35 1.316 . S
C33 N36 1.347 . S
C33 H38 0.931 . S
C34 N35 1.375 . S
C34 C37 1.350 . S
C34 H39 0.930 . S
N35 Co30 2.057 . S
N35 C33 1.316 . S
N35 C34 1.375 . S
N36 C33 1.347 . S
N36 C37 1.373 . S
C37 C34 1.350 . S
C37 N36 1.373 . S
C37 H58 0.931 . S
H38 C33 0.931 . S
H39 C34 0.930 . S
C40 O47 1.259 . S
C40 O48 1.258 . S
N41 Co32 2.057 . S
N41 C42 1.316 . S
N41 C43 1.375 . S
C42 N41 1.316 . S
C42 N44 1.347 . S
C42 H53 0.931 . S
C43 N41 1.375 . S
C43 C45 1.350 . S
C43 H52 0.930 . S
N44 C42 1.347 . S
N44 C45 1.373 . S
C45 C43 1.350 . S
C45 N44 1.373 . S
C45 H59 0.931 . S
C46 O49 1.256 . S
C46 O50 1.255 . S
O47 Co30 2.021 . S
O47 C40 1.259 . S
O48 Co32 2.117 . S
O48 C40 1.258 . S
O49 Co32 2.020 . S
O49 C46 1.256 . S
O50 Co30 2.062 . S
O50 C46 1.255 . S
O51 C31 1.259 . S
O51 Co32 2.021 . S
H52 C43 0.930 . S
H53 C42 0.931 . S
O54 Co30 2.117 . S
O54 C31 1.258 . S
O55 Co30 2.020 . S
O55 C57 1.256 . S
O56 Co32 2.062 . S
O56 C57 1.255 . S
C57 O55 1.256 . S
C57 O56 1.255 . S
H58 C37 0.931 . S
H59 C45 0.931 . S
Co60 N65 2.057 . S
Co60 O77 2.021 . S
Co60 O80 2.062 . S
Co60 O84 2.117 . S
Co60 O85 2.020 . S
C61 O81 1.259 . S
C61 O84 1.258 . S
Co62 N71 2.057 . S
Co62 O78 2.117 . S
Co62 O79 2.020 . S
Co62 O81 2.021 . S
Co62 O86 2.062 . S
C63 N65 1.316 . S
C63 N66 1.347 . S
C63 H68 0.931 . S
C64 N65 1.375 . S
C64 C67 1.350 . S
C64 H69 0.930 . S
N65 Co60 2.057 . S
N65 C63 1.316 . S
N65 C64 1.375 . S
N66 C63 1.347 . S
N66 C67 1.373 . S
C67 C64 1.350 . S
C67 N66 1.373 . S
C67 H88 0.931 . S
H68 C63 0.931 . S
H69 C64 0.930 . S
C70 O77 1.259 . S
C70 O78 1.258 . S
N71 Co62 2.057 . S
N71 C72 1.316 . S
N71 C73 1.375 . S
C72 N71 1.316 . S
C72 N74 1.347 . S
C72 H83 0.931 . S
C73 N71 1.375 . S
C73 C75 1.350 . S
C73 H82 0.930 . S
N74 C72 1.347 . S
N74 C75 1.373 . S
C75 C73 1.350 . S
C75 N74 1.373 . S
C75 H89 0.931 . S
C76 O79 1.256 . S
C76 O80 1.255 . S
O77 Co60 2.021 . S
O77 C70 1.259 . S
O78 Co62 2.117 . S
O78 C70 1.258 . S
O79 Co62 2.020 . S
O79 C76 1.256 . S
O80 Co60 2.062 . S
O80 C76 1.255 . S
O81 C61 1.259 . S
O81 Co62 2.021 . S
H82 C73 0.930 . S
H83 C72 0.931 . S
O84 Co60 2.117 . S
O84 C61 1.258 . S
O85 Co60 2.020 . S
O85 C87 1.256 . S
O86 Co62 2.062 . S
O86 C87 1.255 . S
C87 O85 1.256 . S
C87 O86 1.255 . S
H88 C67 0.931 . S
H89 C75 0.931 . S
Co90 N95 2.057 . S
Co90 O107 2.021 . S
Co90 O110 2.062 . S
Co90 O114 2.117 . S
Co90 O115 2.020 . S
C91 O111 1.259 . S
C91 O114 1.258 . S
Co92 N101 2.057 . S
Co92 O108 2.117 . S
Co92 O109 2.020 . S
Co92 O111 2.021 . S
Co92 O116 2.062 . S
C93 N95 1.316 . S
C93 N96 1.347 . S
C93 H98 0.931 . S
C94 N95 1.375 . S
C94 C97 1.350 . S
C94 H99 0.930 . S
N95 Co90 2.057 . S
N95 C93 1.316 . S
N95 C94 1.375 . S
N96 C93 1.347 . S
N96 C97 1.373 . S
C97 C94 1.350 . S
C97 N96 1.373 . S
C97 H118 0.931 . S
H98 C93 0.931 . S
H99 C94 0.930 . S
C100 O107 1.259 . S
C100 O108 1.258 . S
N101 Co92 2.057 . S
N101 C102 1.316 1_556 S
N101 C103 1.375 . S
C102 N101 1.316 1_554 S
C102 N104 1.347 . S
C102 H113 0.931 . S
C103 N101 1.375 . S
C103 C105 1.350 1_556 S
C103 H112 0.930 . S
N104 C102 1.347 . S
N104 C105 1.373 . S
C105 C103 1.350 1_554 S
C105 N104 1.373 . S
C105 H119 0.931 . S
C106 O109 1.256 . S
C106 O110 1.255 . S
O107 Co90 2.021 . S
O107 C100 1.259 . S
O108 Co92 2.117 . S
O108 C100 1.258 . S
O109 Co92 2.020 . S
O109 C106 1.256 . S
O110 Co90 2.062 . S
O110 C106 1.255 . S
O111 C91 1.259 . S
O111 Co92 2.021 . S
H112 C103 0.930 . S
H113 C102 0.931 . S
O114 Co90 2.117 . S
O114 C91 1.258 . S
O115 Co90 2.020 . S
O115 C117 1.256 . S
O116 Co92 2.062 . S
O116 C117 1.255 . S
C117 O115 1.256 . S
C117 O116 1.255 . S
H118 C97 0.931 . S
H119 C105 0.931 . S
Co120 N125 2.057 1_556 S
Co120 O137 2.021 . S
Co120 O140 2.062 1_456 S
Co120 O144 2.117 . S
Co120 O145 2.020 . S
C121 O141 1.259 1_455 S
C121 O144 1.258 . S
Co122 N131 2.057 . S
Co122 O138 2.117 . S
Co122 O139 2.020 . S
Co122 O141 2.021 . S
Co122 O146 2.062 1_655 S
C123 N125 1.316 . S
C123 N126 1.347 . S
C123 H128 0.931 . S
C124 N125 1.375 . S
C124 C127 1.350 . S
C124 H129 0.930 . S
N125 Co120 2.057 1_554 S
N125 C123 1.316 . S
N125 C124 1.375 . S
N126 C123 1.347 . S
N126 C127 1.373 . S
C127 C124 1.350 . S
C127 N126 1.373 . S
C127 H148 0.931 . S
H128 C123 0.931 . S
H129 C124 0.930 . S
C130 O137 1.259 . S
C130 O138 1.258 1_455 S
N131 Co122 2.057 . S
N131 C132 1.316 . S
N131 C133 1.375 . S
C132 N131 1.316 . S
C132 N134 1.347 . S
C132 H143 0.931 . S
C133 N131 1.375 . S
C133 C135 1.350 . S
C133 H142 0.930 . S
N134 C132 1.347 . S
N134 C135 1.373 . S
C135 C133 1.350 . S
C135 N134 1.373 . S
C135 H149 0.931 . S
C136 O139 1.256 1_554 S
C136 O140 1.255 . S
O137 Co120 2.021 . S
O137 C130 1.259 . S
O138 Co122 2.117 . S
O138 C130 1.258 1_655 S
O139 Co122 2.020 . S
O139 C136 1.256 1_556 S
O140 Co120 2.062 1_654 S
O140 C136 1.255 . S
O141 C121 1.259 1_655 S
O141 Co122 2.021 . S
H142 C133 0.930 . S
H143 C132 0.931 . S
O144 Co120 2.117 . S
O144 C121 1.258 . S
O145 Co120 2.020 . S
O145 C147 1.256 . S
O146 Co122 2.062 1_455 S
O146 C147 1.255 . S
C147 O145 1.256 . S
C147 O146 1.255 . S
H148 C127 0.931 . S
H149 C135 0.931 . S
Co150 N155 2.057 . S
Co150 O167 2.021 . S
Co150 O170 2.062 . S
Co150 O174 2.117 . S
Co150 O175 2.020 . S
C151 O171 1.259 . S
C151 O174 1.258 . S
Co152 N161 2.057 . S
Co152 O168 2.117 . S
Co152 O169 2.020 . S
Co152 O171 2.021 . S
Co152 O176 2.062 . S
C153 N155 1.316 . S
C153 N156 1.347 . S
C153 H158 0.931 . S
C154 N155 1.375 . S
C154 C157 1.350 . S
C154 H159 0.930 . S
N155 Co150 2.057 . S
N155 C153 1.316 . S
N155 C154 1.375 . S
N156 C153 1.347 . S
N156 C157 1.373 . S
C157 C154 1.350 . S
C157 N156 1.373 . S
C157 H178 0.931 . S
H158 C153 0.931 . S
H159 C154 0.930 . S
C160 O167 1.259 . S
C160 O168 1.258 . S
N161 Co152 2.057 . S
N161 C162 1.316 1_554 S
N161 C163 1.375 . S
C162 N161 1.316 1_556 S
C162 N164 1.347 . S
C162 H173 0.931 . S
C163 N161 1.375 . S
C163 C165 1.350 1_554 S
C163 H172 0.930 . S
N164 C162 1.347 . S
N164 C165 1.373 . S
C165 C163 1.350 1_556 S
C165 N164 1.373 . S
C165 H179 0.931 . S
C166 O169 1.256 . S
C166 O170 1.255 . S
O167 Co150 2.021 . S
O167 C160 1.259 . S
O168 Co152 2.117 . S
O168 C160 1.258 . S
O169 Co152 2.020 . S
O169 C166 1.256 . S
O170 Co150 2.062 . S
O170 C166 1.255 . S
O171 C151 1.259 . S
O171 Co152 2.021 . S
H172 C163 0.930 . S
H173 C162 0.931 . S
O174 Co150 2.117 . S
O174 C151 1.258 . S
O175 Co150 2.020 . S
O175 C177 1.256 . S
O176 Co152 2.062 . S
O176 C177 1.255 . S
C177 O175 1.256 . S
C177 O176 1.255 . S
H178 C157 0.931 . S
H179 C165 0.931 . S
Co180 N185 2.057 . S
Co180 O197 2.021 . S
Co180 O200 2.062 . S
Co180 O204 2.117 . S
Co180 O205 2.020 . S
C181 O201 1.259 . S
C181 O204 1.258 . S
Co182 N191 2.057 . S
Co182 O198 2.117 . S
Co182 O199 2.020 . S
Co182 O201 2.021 . S
Co182 O206 2.062 . S
C183 N185 1.316 . S
C183 N186 1.347 . S
C183 H188 0.931 . S
C184 N185 1.375 . S
C184 C187 1.350 . S
C184 H189 0.930 . S
N185 Co180 2.057 . S
N185 C183 1.316 . S
N185 C184 1.375 . S
N186 C183 1.347 . S
N186 C187 1.373 . S
C187 C184 1.350 . S
C187 N186 1.373 . S
C187 H208 0.931 . S
H188 C183 0.931 . S
H189 C184 0.930 . S
C190 O197 1.259 . S
C190 O198 1.258 . S
N191 Co182 2.057 . S
N191 C192 1.316 . S
N191 C193 1.375 . S
C192 N191 1.316 . S
C192 N194 1.347 . S
C192 H203 0.931 . S
C193 N191 1.375 . S
C193 C195 1.350 . S
C193 H202 0.930 . S
N194 C192 1.347 . S
N194 C195 1.373 . S
C195 C193 1.350 . S
C195 N194 1.373 . S
C195 H209 0.931 . S
C196 O199 1.256 . S
C196 O200 1.255 . S
O197 Co180 2.021 . S
O197 C190 1.259 . S
O198 Co182 2.117 . S
O198 C190 1.258 . S
O199 Co182 2.020 . S
O199 C196 1.256 . S
O200 Co180 2.062 . S
O200 C196 1.255 . S
O201 C181 1.259 . S
O201 Co182 2.021 . S
H202 C193 0.930 . S
H203 C192 0.931 . S
O204 Co180 2.117 . S
O204 C181 1.258 . S
O205 Co180 2.020 . S
O205 C207 1.256 . S
O206 Co182 2.062 . S
O206 C207 1.255 . S
C207 O205 1.256 . S
C207 O206 1.255 . S
H208 C187 0.931 . S
H209 C195 0.931 . S
Co210 N215 2.057 . S
Co210 O227 2.021 . S
Co210 O230 2.062 . S
Co210 O234 2.117 . S
Co210 O235 2.020 . S
C211 O231 1.259 . S
C211 O234 1.258 . S
Co212 N221 2.057 . S
Co212 O228 2.117 . S
Co212 O229 2.020 . S
Co212 O231 2.021 . S
Co212 O236 2.062 . S
C213 N215 1.316 . S
C213 N216 1.347 . S
C213 H218 0.931 . S
C214 N215 1.375 . S
C214 C217 1.350 . S
C214 H219 0.930 . S
N215 Co210 2.057 . S
N215 C213 1.316 . S
N215 C214 1.375 . S
N216 C213 1.347 . S
N216 C217 1.373 . S
C217 C214 1.350 . S
C217 N216 1.373 . S
C217 H238 0.931 . S
H218 C213 0.931 . S
H219 C214 0.930 . S
C220 O227 1.259 . S
C220 O228 1.258 . S
N221 Co212 2.057 . S
N221 C222 1.316 . S
N221 C223 1.375 . S
C222 N221 1.316 . S
C222 N224 1.347 . S
C222 H233 0.931 . S
C223 N221 1.375 . S
C223 C225 1.350 . S
C223 H232 0.930 . S
N224 C222 1.347 . S
N224 C225 1.373 . S
C225 C223 1.350 . S
C225 N224 1.373 . S
C225 H239 0.931 . S
C226 O229 1.256 . S
C226 O230 1.255 . S
O227 Co210 2.021 . S
O227 C220 1.259 . S
O228 Co212 2.117 . S
O228 C220 1.258 . S
O229 Co212 2.020 . S
O229 C226 1.256 . S
O230 Co210 2.062 . S
O230 C226 1.255 . S
O231 C211 1.259 . S
O231 Co212 2.021 . S
H232 C223 0.930 . S
H233 C222 0.931 . S
O234 Co210 2.117 . S
O234 C211 1.258 . S
O235 Co210 2.020 . S
O235 C237 1.256 . S
O236 Co212 2.062 . S
O236 C237 1.255 . S
C237 O235 1.256 . S
C237 O236 1.255 . S
H238 C217 0.931 . S
H239 C225 0.931 . S
Co240 N245 2.057 . S
Co240 O257 2.021 . S
Co240 O260 2.062 . S
Co240 O264 2.117 . S
Co240 O265 2.020 . S
C241 O261 1.259 . S
C241 O264 1.258 . S
Co242 N251 2.057 . S
Co242 O258 2.117 . S
Co242 O259 2.020 . S
Co242 O261 2.021 . S
Co242 O266 2.062 . S
C243 N245 1.316 . S
C243 N246 1.347 . S
C243 H248 0.931 . S
C244 N245 1.375 . S
C244 C247 1.350 . S
C244 H249 0.930 . S
N245 Co240 2.057 . S
N245 C243 1.316 . S
N245 C244 1.375 . S
N246 C243 1.347 . S
N246 C247 1.373 . S
C247 C244 1.350 . S
C247 N246 1.373 . S
C247 H268 0.931 . S
H248 C243 0.931 . S
H249 C244 0.930 . S
C250 O257 1.259 . S
C250 O258 1.258 . S
N251 Co242 2.057 . S
N251 C252 1.316 . S
N251 C253 1.375 . S
C252 N251 1.316 . S
C252 N254 1.347 . S
C252 H263 0.931 . S
C253 N251 1.375 . S
C253 C255 1.350 . S
C253 H262 0.930 . S
N254 C252 1.347 . S
N254 C255 1.373 . S
C255 C253 1.350 . S
C255 N254 1.373 . S
C255 H269 0.931 . S
C256 O259 1.256 . S
C256 O260 1.255 . S
O257 Co240 2.021 . S
O257 C250 1.259 . S
O258 Co242 2.117 . S
O258 C250 1.258 . S
O259 Co242 2.020 . S
O259 C256 1.256 . S
O260 Co240 2.062 . S
O260 C256 1.255 . S
O261 C241 1.259 . S
O261 Co242 2.021 . S
H262 C253 0.930 . S
H263 C252 0.931 . S
O264 Co240 2.117 . S
O264 C241 1.258 . S
O265 Co240 2.020 . S
O265 C267 1.256 . S
O266 Co242 2.062 . S
O266 C267 1.255 . S
C267 O265 1.256 . S
C267 O266 1.255 . S
H268 C247 0.931 . S
H269 C255 0.931 . S
Co270 N275 2.057 . S
Co270 O287 2.021 . S
Co270 O290 2.062 . S
Co270 O294 2.117 . S
Co270 O295 2.020 . S
C271 O291 1.259 . S
C271 O294 1.258 . S
Co272 N281 2.057 . S
Co272 O288 2.117 . S
Co272 O289 2.020 . S
Co272 O291 2.021 . S
Co272 O296 2.062 . S
C273 N275 1.316 1_556 S
C273 N276 1.347 . S
C273 H278 0.931 . S
C274 N275 1.375 . S
C274 C277 1.350 1_554 S
C274 H279 0.930 . S
N275 Co270 2.057 . S
N275 C273 1.316 1_554 S
N275 C274 1.375 . S
N276 C273 1.347 . S
N276 C277 1.373 . S
C277 C274 1.350 1_556 S
C277 N276 1.373 . S
C277 H298 0.931 . S
H278 C273 0.931 . S
H279 C274 0.930 . S
C280 O287 1.259 . S
C280 O288 1.258 . S
N281 Co272 2.057 . S
N281 C282 1.316 . S
N281 C283 1.375 . S
C282 N281 1.316 . S
C282 N284 1.347 . S
C282 H293 0.931 . S
C283 N281 1.375 . S
C283 C285 1.350 . S
C283 H292 0.930 . S
N284 C282 1.347 . S
N284 C285 1.373 . S
C285 C283 1.350 . S
C285 N284 1.373 . S
C285 H299 0.931 . S
C286 O289 1.256 . S
C286 O290 1.255 . S
O287 Co270 2.021 . S
O287 C280 1.259 . S
O288 Co272 2.117 . S
O288 C280 1.258 . S
O289 Co272 2.020 . S
O289 C286 1.256 . S
O290 Co270 2.062 . S
O290 C286 1.255 . S
O291 C271 1.259 . S
O291 Co272 2.021 . S
H292 C283 0.930 . S
H293 C282 0.931 . S
O294 Co270 2.117 . S
O294 C271 1.258 . S
O295 Co270 2.020 . S
O295 C297 1.256 . S
O296 Co272 2.062 . S
O296 C297 1.255 . S
C297 O295 1.256 . S
C297 O296 1.255 . S
H298 C277 0.931 . S
H299 C285 0.931 . S
Co300 N305 2.057 . S
Co300 O317 2.021 . S
Co300 O320 2.062 . S
Co300 O324 2.117 . S
Co300 O325 2.020 . S
C301 O321 1.259 . S
C301 O324 1.258 . S
Co302 N311 2.057 . S
Co302 O318 2.117 . S
Co302 O319 2.020 . S
Co302 O321 2.021 . S
Co302 O326 2.062 . S
C303 N305 1.316 1_554 S
C303 N306 1.347 . S
C303 H308 0.931 . S
C304 N305 1.375 . S
C304 C307 1.350 1_556 S
C304 H309 0.930 . S
N305 Co300 2.057 . S
N305 C303 1.316 1_556 S
N305 C304 1.375 . S
N306 C303 1.347 . S
N306 C307 1.373 . S
C307 C304 1.350 1_554 S
C307 N306 1.373 . S
C307 H328 0.931 . S
H308 C303 0.931 . S
H309 C304 0.930 . S
C310 O317 1.259 . S
C310 O318 1.258 . S
N311 Co302 2.057 . S
N311 C312 1.316 . S
N311 C313 1.375 . S
C312 N311 1.316 . S
C312 N314 1.347 . S
C312 H323 0.931 . S
C313 N311 1.375 . S
C313 C315 1.350 . S
C313 H322 0.930 . S
N314 C312 1.347 . S
N314 C315 1.373 . S
C315 C313 1.350 . S
C315 N314 1.373 . S
C315 H329 0.931 . S
C316 O319 1.256 . S
C316 O320 1.255 . S
O317 Co300 2.021 . S
O317 C310 1.259 . S
O318 Co302 2.117 . S
O318 C310 1.258 . S
O319 Co302 2.020 . S
O319 C316 1.256 . S
O320 Co300 2.062 . S
O320 C316 1.255 . S
O321 C301 1.259 . S
O321 Co302 2.021 . S
H322 C313 0.930 . S
H323 C312 0.931 . S
O324 Co300 2.117 . S
O324 C301 1.258 . S
O325 Co300 2.020 . S
O325 C327 1.256 . S
O326 Co302 2.062 . S
O326 C327 1.255 . S
C327 O325 1.256 . S
C327 O326 1.255 . S
H328 C307 0.931 . S
H329 C315 0.931 . S
Co330 N335 2.057 . S
Co330 O347 2.021 . S
Co330 O350 2.062 . S
Co330 O354 2.117 . S
Co330 O355 2.020 . S
C331 O351 1.259 . S
C331 O354 1.258 . S
Co332 N341 2.057 . S
Co332 O348 2.117 . S
Co332 O349 2.020 . S
Co332 O351 2.021 . S
Co332 O356 2.062 . S
C333 N335 1.316 . S
C333 N336 1.347 . S
C333 H338 0.931 . S
C334 N335 1.375 . S
C334 C337 1.350 . S
C334 H339 0.930 . S
N335 Co330 2.057 . S
N335 C333 1.316 . S
N335 C334 1.375 . S
N336 C333 1.347 . S
N336 C337 1.373 . S
C337 C334 1.350 . S
C337 N336 1.373 . S
C337 H358 0.931 . S
H338 C333 0.931 . S
H339 C334 0.930 . S
C340 O347 1.259 . S
C340 O348 1.258 . S
N341 Co332 2.057 . S
N341 C342 1.316 . S
N341 C343 1.375 . S
C342 N341 1.316 . S
C342 N344 1.347 . S
C342 H353 0.931 . S
C343 N341 1.375 . S
C343 C345 1.350 . S
C343 H352 0.930 . S
N344 C342 1.347 . S
N344 C345 1.373 . S
C345 C343 1.350 . S
C345 N344 1.373 . S
C345 H359 0.931 . S
C346 O349 1.256 . S
C346 O350 1.255 . S
O347 Co330 2.021 . S
O347 C340 1.259 . S
O348 Co332 2.117 . S
O348 C340 1.258 . S
O349 Co332 2.020 . S
O349 C346 1.256 . S
O350 Co330 2.062 . S
O350 C346 1.255 . S
O351 C331 1.259 . S
O351 Co332 2.021 . S
H352 C343 0.930 . S
H353 C342 0.931 . S
O354 Co330 2.117 . S
O354 C331 1.258 . S
O355 Co330 2.020 . S
O355 C357 1.256 . S
O356 Co332 2.062 . S
O356 C357 1.255 . S
C357 O355 1.256 . S
C357 O356 1.255 . S
H358 C337 0.931 . S
H359 C345 0.931 . S
Co360 N365 2.057 . S
Co360 O377 2.021 . S
Co360 O380 2.062 . S
Co360 O384 2.117 . S
Co360 O385 2.020 . S
C361 O381 1.259 . S
C361 O384 1.258 . S
Co362 N371 2.057 . S
Co362 O378 2.117 . S
Co362 O379 2.020 . S
Co362 O381 2.021 . S
Co362 O386 2.062 . S
C363 N365 1.316 . S
C363 N366 1.347 . S
C363 H368 0.931 . S
C364 N365 1.375 . S
C364 C367 1.350 . S
C364 H369 0.930 . S
N365 Co360 2.057 . S
N365 C363 1.316 . S
N365 C364 1.375 . S
N366 C363 1.347 . S
N366 C367 1.373 . S
C367 C364 1.350 . S
C367 N366 1.373 . S
C367 H388 0.931 . S
H368 C363 0.931 . S
H369 C364 0.930 . S
C370 O377 1.259 . S
C370 O378 1.258 . S
N371 Co362 2.057 . S
N371 C372 1.316 . S
N371 C373 1.375 . S
C372 N371 1.316 . S
C372 N374 1.347 . S
C372 H383 0.931 . S
C373 N371 1.375 . S
C373 C375 1.350 . S
C373 H382 0.930 . S
N374 C372 1.347 . S
N374 C375 1.373 . S
C375 C373 1.350 . S
C375 N374 1.373 . S
C375 H389 0.931 . S
C376 O379 1.256 . S
C376 O380 1.255 . S
O377 Co360 2.021 . S
O377 C370 1.259 . S
O378 Co362 2.117 . S
O378 C370 1.258 . S
O379 Co362 2.020 . S
O379 C376 1.256 . S
O380 Co360 2.062 . S
O380 C376 1.255 . S
O381 C361 1.259 . S
O381 Co362 2.021 . S
H382 C373 0.930 . S
H383 C372 0.931 . S
O384 Co360 2.117 . S
O384 C361 1.258 . S
O385 Co360 2.020 . S
O385 C387 1.256 . S
O386 Co362 2.062 . S
O386 C387 1.255 . S
C387 O385 1.256 . S
C387 O386 1.255 . S
H388 C367 0.931 . S
H389 C375 0.931 . S
Co390 N395 2.057 . S
Co390 O407 2.021 . S
Co390 O410 2.062 1_655 S
Co390 O414 2.117 . S
Co390 O415 2.020 . S
C391 O411 1.259 . S
C391 O414 1.258 1_455 S
Co392 N401 2.057 . S
Co392 O408 2.117 . S
Co392 O409 2.020 . S
Co392 O411 2.021 . S
Co392 O416 2.062 1_455 S
C393 N395 1.316 . S
C393 N396 1.347 . S
C393 H398 0.931 . S
C394 N395 1.375 . S
C394 C397 1.350 . S
C394 H399 0.930 . S
N395 Co390 2.057 . S
N395 C393 1.316 . S
N395 C394 1.375 . S
N396 C393 1.347 . S
N396 C397 1.373 . S
C397 C394 1.350 . S
C397 N396 1.373 . S
C397 H418 0.931 . S
H398 C393 0.931 . S
H399 C394 0.930 . S
C400 O407 1.259 . S
C400 O408 1.258 1_655 S
N401 Co392 2.057 . S
N401 C402 1.316 1_554 S
N401 C403 1.375 . S
C402 N401 1.316 1_556 S
C402 N404 1.347 . S
C402 H413 0.931 . S
C403 N401 1.375 . S
C403 C405 1.350 1_554 S
C403 H412 0.930 . S
N404 C402 1.347 . S
N404 C405 1.373 . S
C405 C403 1.350 1_556 S
C405 N404 1.373 . S
C405 H419 0.931 . S
C406 O409 1.256 . S
C406 O410 1.255 . S
O407 Co390 2.021 . S
O407 C400 1.259 . S
O408 Co392 2.117 . S
O408 C400 1.258 1_455 S
O409 Co392 2.020 . S
O409 C406 1.256 . S
O410 Co390 2.062 1_455 S
O410 C406 1.255 . S
O411 C391 1.259 . S
O411 Co392 2.021 . S
H412 C403 0.930 . S
H413 C402 0.931 . S
O414 Co390 2.117 . S
O414 C391 1.258 1_655 S
O415 Co390 2.020 . S
O415 C417 1.256 . S
O416 Co392 2.062 1_655 S
O416 C417 1.255 . S
C417 O415 1.256 . S
C417 O416 1.255 . S
H418 C397 0.931 . S
H419 C405 0.931 . S
Co420 N425 2.057 . S
Co420 O437 2.021 . S
Co420 O440 2.062 . S
Co420 O444 2.117 . S
Co420 O445 2.020 . S
C421 O441 1.259 . S
C421 O444 1.258 . S
Co422 N431 2.057 . S
Co422 O438 2.117 . S
Co422 O439 2.020 . S
Co422 O441 2.021 . S
Co422 O446 2.062 . S
C423 N425 1.316 . S
C423 N426 1.347 . S
C423 H428 0.931 . S
C424 N425 1.375 . S
C424 C427 1.350 . S
C424 H429 0.930 . S
N425 Co420 2.057 . S
N425 C423 1.316 . S
N425 C424 1.375 . S
N426 C423 1.347 . S
N426 C427 1.373 . S
C427 C424 1.350 . S
C427 N426 1.373 . S
C427 H448 0.931 . S
H428 C423 0.931 . S
H429 C424 0.930 . S
C430 O437 1.259 . S
C430 O438 1.258 . S
N431 Co422 2.057 . S
N431 C432 1.316 . S
N431 C433 1.375 . S
C432 N431 1.316 . S
C432 N434 1.347 . S
C432 H443 0.931 . S
C433 N431 1.375 . S
C433 C435 1.350 . S
C433 H442 0.930 . S
N434 C432 1.347 . S
N434 C435 1.373 . S
C435 C433 1.350 . S
C435 N434 1.373 . S
C435 H449 0.931 . S
C436 O439 1.256 . S
C436 O440 1.255 . S
O437 Co420 2.021 . S
O437 C430 1.259 . S
O438 Co422 2.117 . S
O438 C430 1.258 . S
O439 Co422 2.020 . S
O439 C436 1.256 . S
O440 Co420 2.062 . S
O440 C436 1.255 . S
O441 C421 1.259 . S
O441 Co422 2.021 . S
H442 C433 0.930 . S
H443 C432 0.931 . S
O444 Co420 2.117 . S
O444 C421 1.258 . S
O445 Co420 2.020 . S
O445 C447 1.256 . S
O446 Co422 2.062 . S
O446 C447 1.255 . S
C447 O445 1.256 . S
C447 O446 1.255 . S
H448 C427 0.931 . S
H449 C435 0.931 . S
Co450 N455 2.057 . S
Co450 O467 2.021 . S
Co450 O470 2.062 1_655 S
Co450 O474 2.117 . S
Co450 O475 2.020 . S
C451 O471 1.259 . S
C451 O474 1.258 1_455 S
Co452 N461 2.057 . S
Co452 O468 2.117 . S
Co452 O469 2.020 . S
Co452 O471 2.021 . S
Co452 O476 2.062 1_455 S
C453 N455 1.316 1_554 S
C453 N456 1.347 . S
C453 H458 0.931 . S
C454 N455 1.375 . S
C454 C457 1.350 1_556 S
C454 H459 0.930 . S
N455 Co450 2.057 . S
N455 C453 1.316 1_556 S
N455 C454 1.375 . S
N456 C453 1.347 . S
N456 C457 1.373 . S
C457 C454 1.350 1_554 S
C457 N456 1.373 . S
C457 H478 0.931 . S
H458 C453 0.931 . S
H459 C454 0.930 . S
C460 O467 1.259 1_455 S
C460 O468 1.258 . S
N461 Co452 2.057 . S
N461 C462 1.316 . S
N461 C463 1.375 . S
C462 N461 1.316 . S
C462 N464 1.347 . S
C462 H473 0.931 . S
C463 N461 1.375 . S
C463 C465 1.350 . S
C463 H472 0.930 . S
N464 C462 1.347 . S
N464 C465 1.373 . S
C465 C463 1.350 . S
C465 N464 1.373 . S
C465 H479 0.931 . S
C466 O469 1.256 . S
C466 O470 1.255 . S
O467 Co450 2.021 . S
O467 C460 1.259 1_655 S
O468 Co452 2.117 . S
O468 C460 1.258 . S
O469 Co452 2.020 . S
O469 C466 1.256 . S
O470 Co450 2.062 1_455 S
O470 C466 1.255 . S
O471 C451 1.259 . S
O471 Co452 2.021 . S
H472 C463 0.930 . S
H473 C462 0.931 . S
O474 Co450 2.117 . S
O474 C451 1.258 1_655 S
O475 Co450 2.020 . S
O475 C477 1.256 . S
O476 Co452 2.062 1_655 S
O476 C477 1.255 . S
C477 O475 1.256 . S
C477 O476 1.255 . S
H478 C457 0.931 . S
H479 C465 0.931 . S
C480 C481 1.387 . S
C480 H484 0.950 . S
C480 C489 1.390 . S
C481 C480 1.387 . S
C481 C483 1.387 . S
H482 C489 0.950 . S
C483 C481 1.387 . S
C483 C485 1.390 . S
C483 H487 0.950 . S
H484 C480 0.950 . S
C485 C483 1.390 . S
C485 C486 1.387 . S
C485 H488 0.950 . S
C486 C485 1.387 . S
C486 C489 1.387 . S
H487 C483 0.950 . S
H488 C485 0.950 . S
C489 C480 1.390 . S
C489 H482 0.950 . S
C489 C486 1.387 . S
C490 C491 1.387 . S
C490 H494 0.950 . S
C490 C499 1.390 . S
C491 C490 1.387 . S
C491 C493 1.387 . S
H492 C499 0.950 . S
C493 C491 1.387 . S
C493 C495 1.390 . S
C493 H497 0.950 . S
H494 C490 0.950 . S
C495 C493 1.390 . S
C495 C496 1.387 . S
C495 H498 0.950 . S
C496 C495 1.387 . S
C496 C499 1.387 . S
H497 C493 0.950 . S
H498 C495 0.950 . S
C499 C490 1.390 . S
C499 H492 0.950 . S
C499 C496 1.387 . S
C500 C501 1.387 . S
C500 H504 0.950 . S
C500 C509 1.390 . S
C501 C500 1.387 . S
C501 C503 1.387 . S
H502 C509 0.950 . S
C503 C501 1.387 . S
C503 C505 1.390 . S
C503 H507 0.950 . S
H504 C500 0.950 . S
C505 C503 1.390 . S
C505 C506 1.387 . S
C505 H508 0.950 . S
C506 C505 1.387 . S
C506 C509 1.387 . S
H507 C503 0.950 . S
H508 C505 0.950 . S
C509 C500 1.390 . S
C509 H502 0.950 . S
C509 C506 1.387 . S
C510 C511 1.387 . S
C510 H514 0.950 . S
C510 C519 1.390 . S
C511 C510 1.387 . S
C511 C513 1.387 . S
H512 C519 0.950 . S
C513 C511 1.387 . S
C513 C515 1.390 . S
C513 H517 0.950 . S
H514 C510 0.950 . S
C515 C513 1.390 . S
C515 C516 1.387 . S
C515 H518 0.950 . S
C516 C515 1.387 . S
C516 C519 1.387 . S
H517 C513 0.950 . S
H518 C515 0.950 . S
C519 C510 1.390 . S
C519 H512 0.950 . S
C519 C516 1.387 . S
C520 C521 1.387 . S
C520 H524 0.950 . S
C520 C529 1.390 . S
C521 C520 1.387 . S
C521 C523 1.387 . S
H522 C529 0.950 . S
C523 C521 1.387 . S
C523 C525 1.390 . S
C523 H527 0.950 . S
H524 C520 0.950 . S
C525 C523 1.390 . S
C525 C526 1.387 . S
C525 H528 0.950 . S
C526 C525 1.387 . S
C526 C529 1.387 . S
H527 C523 0.950 . S
H528 C525 0.950 . S
C529 C520 1.390 . S
C529 H522 0.950 . S
C529 C526 1.387 . S
C530 C531 1.387 . S
C530 H534 0.950 . S
C530 C539 1.390 . S
C531 C530 1.387 . S
C531 C533 1.387 . S
H532 C539 0.950 . S
C533 C531 1.387 . S
C533 C535 1.390 . S
C533 H537 0.950 . S
H534 C530 0.950 . S
C535 C533 1.390 . S
C535 C536 1.387 . S
C535 H538 0.950 . S
C536 C535 1.387 . S
C536 C539 1.387 . S
H537 C533 0.950 . S
H538 C535 0.950 . S
C539 C530 1.390 . S
C539 H532 0.950 . S
C539 C536 1.387 . S
C540 C541 1.387 . S
C540 H544 0.950 . S
C540 C549 1.390 . S
C541 C540 1.387 . S
C541 C543 1.387 . S
H542 C549 0.950 . S
C543 C541 1.387 . S
C543 C545 1.390 . S
C543 H547 0.950 . S
H544 C540 0.950 . S
C545 C543 1.390 . S
C545 C546 1.387 . S
C545 H548 0.950 . S
C546 C545 1.387 . S
C546 C549 1.387 . S
H547 C543 0.950 . S
H548 C545 0.950 . S
C549 C540 1.390 . S
C549 H542 0.950 . S
C549 C546 1.387 . S
C550 C551 1.387 . S
C550 H554 0.950 . S
C550 C559 1.390 . S
C551 C550 1.387 . S
C551 C553 1.387 . S
H552 C559 0.950 . S
C553 C551 1.387 . S
C553 C555 1.390 . S
C553 H557 0.950 . S
H554 C550 0.950 . S
C555 C553 1.390 . S
C555 C556 1.387 . S
C555 H558 0.950 . S
C556 C555 1.387 . S
C556 C559 1.387 . S
H557 C553 0.950 . S
H558 C555 0.950 . S
C559 C550 1.390 . S
C559 H552 0.950 . S
C559 C556 1.387 . S
C560 C561 1.387 . S
C560 H564 0.950 . S
C560 C569 1.390 . S
C561 C560 1.387 . S
C561 C563 1.387 . S
H562 C569 0.950 . S
C563 C561 1.387 . S
C563 C565 1.390 . S
C563 H567 0.950 . S
H564 C560 0.950 . S
C565 C563 1.390 . S
C565 C566 1.387 . S
C565 H568 0.950 . S
C566 C565 1.387 . S
C566 C569 1.387 . S
H567 C563 0.950 . S
H568 C565 0.950 . S
C569 C560 1.390 . S
C569 H562 0.950 . S
C569 C566 1.387 . S
C570 C571 1.387 . S
C570 H574 0.950 . S
C570 C579 1.390 . S
C571 C570 1.387 . S
C571 C573 1.387 . S
H572 C579 0.950 . S
C573 C571 1.387 . S
C573 C575 1.390 . S
C573 H577 0.950 . S
H574 C570 0.950 . S
C575 C573 1.390 . S
C575 C576 1.387 . S
C575 H578 0.950 . S
C576 C575 1.387 . S
C576 C579 1.387 . S
H577 C573 0.950 . S
H578 C575 0.950 . S
C579 C570 1.390 . S
C579 H572 0.950 . S
C579 C576 1.387 . S
C580 C581 1.387 . S
C580 H584 0.950 1_556 S
C580 C589 1.390 . S
C581 C580 1.387 . S
C581 C583 1.387 . S
H582 C589 0.950 . S
C583 C581 1.387 . S
C583 C585 1.390 . S
C583 H587 0.950 . S
H584 C580 0.950 1_554 S
C585 C583 1.390 . S
C585 C586 1.387 . S
C585 H588 0.950 . S
C586 C585 1.387 . S
C586 C589 1.387 . S
H587 C583 0.950 . S
H588 C585 0.950 . S
C589 C580 1.390 . S
C589 H582 0.950 . S
C589 C586 1.387 . S
C590 C591 1.387 . S
C590 H594 0.950 . S
C590 C599 1.390 . S
C591 C590 1.387 . S
C591 C593 1.387 . S
H592 C599 0.950 . S
C593 C591 1.387 . S
C593 C595 1.390 . S
C593 H597 0.950 . S
H594 C590 0.950 . S
C595 C593 1.390 . S
C595 C596 1.387 . S
C595 H598 0.950 . S
C596 C595 1.387 . S
C596 C599 1.387 . S
H597 C593 0.950 . S
H598 C595 0.950 . S
C599 C590 1.390 . S
C599 H592 0.950 . S
C599 C596 1.387 . S
C600 C601 1.387 . S
C600 H604 0.950 . S
C600 C609 1.390 . S
C601 C600 1.387 . S
C601 C603 1.387 . S
H602 C609 0.950 . S
C603 C601 1.387 . S
C603 C605 1.390 . S
C603 H607 0.950 . S
H604 C600 0.950 . S
C605 C603 1.390 . S
C605 C606 1.387 . S
C605 H608 0.950 . S
C606 C605 1.387 . S
C606 C609 1.387 . S
H607 C603 0.950 . S
H608 C605 0.950 . S
C609 C600 1.390 . S
C609 H602 0.950 . S
C609 C606 1.387 . S
C610 C611 1.387 . S
C610 H614 0.950 . S
C610 C619 1.390 . S
C611 C610 1.387 . S
C611 C613 1.387 . S
H612 C619 0.950 . S
C613 C611 1.387 . S
C613 C615 1.390 . S
C613 H617 0.950 . S
H614 C610 0.950 . S
C615 C613 1.390 . S
C615 C616 1.387 . S
C615 H618 0.950 . S
C616 C615 1.387 . S
C616 C619 1.387 . S
H617 C613 0.950 . S
H618 C615 0.950 . S
C619 C610 1.390 . S
C619 H612 0.950 . S
C619 C616 1.387 . S
C620 C621 1.387 . S
C620 H624 0.950 . S
C620 C629 1.390 . S
C621 C620 1.387 . S
C621 C623 1.387 . S
H622 C629 0.950 . S
C623 C621 1.387 . S
C623 C625 1.390 . S
C623 H627 0.950 . S
H624 C620 0.950 . S
C625 C623 1.390 . S
C625 C626 1.387 . S
C625 H628 0.950 1_554 S
C626 C625 1.387 . S
C626 C629 1.387 . S
H627 C623 0.950 . S
H628 C625 0.950 1_556 S
C629 C620 1.390 . S
C629 H622 0.950 . S
C629 C626 1.387 . S
C630 C631 1.387 . S
C630 H634 0.950 . S
C630 C639 1.390 . S
C631 C630 1.387 . S
C631 C633 1.387 . S
H632 C639 0.950 . S
C633 C631 1.387 . S
C633 C635 1.390 . S
C633 H637 0.950 . S
H634 C630 0.950 . S
C635 C633 1.390 . S
C635 C636 1.387 . S
C635 H638 0.950 . S
C636 C635 1.387 . S
C636 C639 1.387 . S
H637 C633 0.950 . S
H638 C635 0.950 . S
C639 C630 1.390 . S
C639 H632 0.950 . S
C639 C636 1.387 . S
C640 C641 1.387 . S
C640 H644 0.950 . S
C640 C649 1.390 . S
C641 C640 1.387 . S
C641 C643 1.387 1_455 S
H642 C649 0.950 . S
C643 C641 1.387 1_655 S
C643 C645 1.390 . S
C643 H647 0.950 . S
H644 C640 0.950 . S
C645 C643 1.390 . S
C645 C646 1.387 1_655 S
C645 H648 0.950 . S
C646 C645 1.387 1_455 S
C646 C649 1.387 . S
H647 C643 0.950 . S
H648 C645 0.950 . S
C649 C640 1.390 . S
C649 H642 0.950 . S
C649 C646 1.387 . S
C650 C651 1.387 . S
C650 H654 0.950 . S
C650 C659 1.390 1_655 S
C651 C650 1.387 . S
C651 C653 1.387 . S
H652 C659 0.950 . S
C653 C651 1.387 . S
C653 C655 1.390 1_655 S
C653 H657 0.950 . S
H654 C650 0.950 . S
C655 C653 1.390 1_455 S
C655 C656 1.387 . S
C655 H658 0.950 . S
C656 C655 1.387 . S
C656 C659 1.387 . S
H657 C653 0.950 . S
H658 C655 0.950 . S
C659 C650 1.390 1_455 S
C659 H652 0.950 . S
C659 C656 1.387 . S
C660 C661 1.387 . S
C660 H664 0.950 . S
C660 C669 1.390 . S
C661 C660 1.387 . S
C661 C663 1.387 . S
H662 C669 0.950 . S
C663 C661 1.387 . S
C663 C665 1.390 . S
C663 H667 0.950 . S
H664 C660 0.950 . S
C665 C663 1.390 . S
C665 C666 1.387 . S
C665 H668 0.950 . S
C666 C665 1.387 . S
C666 C669 1.387 . S
H667 C663 0.950 . S
H668 C665 0.950 . S
C669 C660 1.390 . S
C669 H662 0.950 . S
C669 C666 1.387 . S
C670 C671 1.387 . S
C670 H674 0.950 . S
C670 C679 1.390 . S
C671 C670 1.387 . S
C671 C673 1.387 . S
H672 C679 0.950 . S
C673 C671 1.387 . S
C673 C675 1.390 . S
C673 H677 0.950 . S
H674 C670 0.950 . S
C675 C673 1.390 . S
C675 C676 1.387 . S
C675 H678 0.950 . S
C676 C675 1.387 . S
C676 C679 1.387 . S
H677 C673 0.950 . S
H678 C675 0.950 . S
C679 C670 1.390 . S
C679 H672 0.950 . S
C679 C676 1.387 . S
C680 C681 1.387 . S
C680 H684 0.950 . S
C680 C689 1.390 . S
C681 C680 1.387 . S
C681 C683 1.387 1_455 S
H682 C689 0.950 . S
C683 C681 1.387 1_655 S
C683 C685 1.390 . S
C683 H687 0.950 . S
H684 C680 0.950 . S
C685 C683 1.390 . S
C685 C686 1.387 1_655 S
C685 H688 0.950 . S
C686 C685 1.387 1_455 S
C686 C689 1.387 . S
H687 C683 0.950 . S
H688 C685 0.950 . S
C689 C680 1.390 . S
C689 H682 0.950 . S
C689 C686 1.387 . S
C690 C691 1.387 . S
C690 H694 0.950 . S
C690 C699 1.390 . S
C691 C690 1.387 . S
C691 C693 1.387 . S
H692 C699 0.950 . S
C693 C691 1.387 . S
C693 C695 1.390 . S
C693 H697 0.950 . S
H694 C690 0.950 . S
C695 C693 1.390 . S
C695 C696 1.387 . S
C695 H698 0.950 . S
C696 C695 1.387 . S
C696 C699 1.387 . S
H697 C693 0.950 . S
H698 C695 0.950 . S
C699 C690 1.390 . S
C699 H692 0.950 . S
C699 C696 1.387 . S
C700 C701 1.387 . S
C700 H704 0.950 . S
C700 C709 1.390 . S
C701 C700 1.387 . S
C701 C703 1.387 . S
H702 C709 0.950 . S
C703 C701 1.387 . S
C703 C705 1.390 . S
C703 H707 0.950 . S
H704 C700 0.950 . S
C705 C703 1.390 . S
C705 C706 1.387 . S
C705 H708 0.950 . S
C706 C705 1.387 . S
C706 C709 1.387 . S
H707 C703 0.950 . S
H708 C705 0.950 . S
C709 C700 1.390 . S
C709 H702 0.950 . S
C709 C706 1.387 . S
C710 C711 1.387 . S
C710 H714 0.950 . S
C710 C719 1.390 1_455 S
C711 C710 1.387 . S
C711 C713 1.387 . S
H712 C719 0.950 . S
C713 C711 1.387 . S
C713 C715 1.390 1_455 S
C713 H717 0.950 . S
H714 C710 0.950 . S
C715 C713 1.390 1_655 S
C715 C716 1.387 . S
C715 H718 0.950 . S
C716 C715 1.387 . S
C716 C719 1.387 . S
H717 C713 0.950 . S
H718 C715 0.950 . S
C719 C710 1.390 1_655 S
C719 H712 0.950 . S
C719 C716 1.387 . S
C720 C721 1.387 . S
C720 H724 0.950 . S
C720 C729 1.390 1_544 S
C721 C720 1.387 . S
C721 C723 1.387 1_455 S
H722 C729 0.950 . S
C723 C721 1.387 1_655 S
C723 C725 1.390 1_544 S
C723 H727 0.950 . S
H724 C720 0.950 . S
C725 C723 1.390 1_566 S
C725 C726 1.387 1_655 S
C725 H728 0.950 . S
C726 C725 1.387 1_455 S
C726 C729 1.387 . S
H727 C723 0.950 . S
H728 C725 0.950 . S
C729 C720 1.390 1_566 S
C729 H722 0.950 . S
C729 C726 1.387 . S
C730 C731 1.387 . S
C730 H734 0.950 . S
C730 C739 1.390 . S
C731 C730 1.387 . S
C731 C733 1.387 . S
H732 C739 0.950 . S
C733 C731 1.387 . S
C733 C735 1.390 . S
C733 H737 0.950 . S
H734 C730 0.950 . S
C735 C733 1.390 . S
C735 C736 1.387 . S
C735 H738 0.950 . S
C736 C735 1.387 . S
C736 C739 1.387 . S
H737 C733 0.950 . S
H738 C735 0.950 . S
C739 C730 1.390 . S
C739 H732 0.950 . S
C739 C736 1.387 . S
C740 C741 1.387 . S
C740 H744 0.950 . S
C740 C749 1.390 . S
C741 C740 1.387 . S
C741 C743 1.387 1_545 S
H742 C749 0.950 . S
C743 C741 1.387 1_565 S
C743 C745 1.390 . S
C743 H747 0.950 . S
H744 C740 0.950 . S
C745 C743 1.390 . S
C745 C746 1.387 . S
C745 H748 0.950 . S
C746 C745 1.387 . S
C746 C749 1.387 1_565 S
H747 C743 0.950 . S
H748 C745 0.950 . S
C749 C740 1.390 . S
C749 H742 0.950 . S
C749 C746 1.387 1_545 S
C750 C751 1.387 . S
C750 H754 0.950 . S
C750 C759 1.390 . S
C751 C750 1.387 . S
C751 C753 1.387 . S
H752 C759 0.950 . S
C753 C751 1.387 . S
C753 C755 1.390 . S
C753 H757 0.950 . S
H754 C750 0.950 . S
C755 C753 1.390 . S
C755 C756 1.387 . S
C755 H758 0.950 . S
C756 C755 1.387 . S
C756 C759 1.387 . S
H757 C753 0.950 . S
H758 C755 0.950 . S
C759 C750 1.390 . S
C759 H752 0.950 . S
C759 C756 1.387 . S
C760 C761 1.387 . S
C760 H764 0.950 . S
C760 C769 1.390 . S
C761 C760 1.387 . S
C761 C763 1.387 . S
H762 C769 0.950 . S
C763 C761 1.387 . S
C763 C765 1.390 . S
C763 H767 0.950 . S
H764 C760 0.950 . S
C765 C763 1.390 . S
C765 C766 1.387 . S
C765 H768 0.950 . S
C766 C765 1.387 . S
C766 C769 1.387 . S
H767 C763 0.950 . S
H768 C765 0.950 . S
C769 C760 1.390 . S
C769 H762 0.950 . S
C769 C766 1.387 . S
C770 C771 1.387 . S
C770 H774 0.950 . S
C770 C779 1.390 . S
C771 C770 1.387 . S
C771 C773 1.387 . S
H772 C779 0.950 . S
C773 C771 1.387 . S
C773 C775 1.390 . S
C773 H777 0.950 . S
H774 C770 0.950 . S
C775 C773 1.390 . S
C775 C776 1.387 . S
C775 H778 0.950 . S
C776 C775 1.387 . S
C776 C779 1.387 . S
H777 C773 0.950 . S
H778 C775 0.950 . S
C779 C770 1.390 . S
C779 H772 0.950 . S
C779 C776 1.387 . S
C780 C781 1.387 . S
C780 H784 0.950 . S
C780 C789 1.390 . S
C781 C780 1.387 . S
C781 C783 1.387 . S
H782 C789 0.950 . S
C783 C781 1.387 . S
C783 C785 1.390 . S
C783 H787 0.950 . S
H784 C780 0.950 . S
C785 C783 1.390 . S
C785 C786 1.387 . S
C785 H788 0.950 . S
C786 C785 1.387 . S
C786 C789 1.387 . S
H787 C783 0.950 . S
H788 C785 0.950 . S
C789 C780 1.390 . S
C789 H782 0.950 . S
C789 C786 1.387 . S
C790 C791 1.387 . S
C790 H794 0.950 . S
C790 C799 1.390 1_556 S
C791 C790 1.387 . S
C791 C793 1.387 1_455 S
H792 C799 0.950 . S
C793 C791 1.387 1_655 S
C793 C795 1.390 1_556 S
C793 H797 0.950 . S
H794 C790 0.950 . S
C795 C793 1.390 1_554 S
C795 C796 1.387 1_655 S
C795 H798 0.950 . S
C796 C795 1.387 1_455 S
C796 C799 1.387 . S
H797 C793 0.950 . S
H798 C795 0.950 . S
C799 C790 1.390 1_554 S
C799 H792 0.950 . S
C799 C796 1.387 . S
C800 C801 1.387 . S
C800 H804 0.950 . S
C800 C809 1.390 . S
C801 C800 1.387 . S
C801 C803 1.387 . S
H802 C809 0.950 . S
C803 C801 1.387 . S
C803 C805 1.390 . S
C803 H807 0.950 . S
H804 C800 0.950 . S
C805 C803 1.390 . S
C805 C806 1.387 . S
C805 H808 0.950 . S
C806 C805 1.387 . S
C806 C809 1.387 . S
H807 C803 0.950 . S
H808 C805 0.950 . S
C809 C800 1.390 . S
C809 H802 0.950 . S
C809 C806 1.387 . S
C810 C811 1.387 . S
C810 H814 0.950 . S
C810 C819 1.390 . S
C811 C810 1.387 . S
C811 C813 1.387 . S
H812 C819 0.950 . S
C813 C811 1.387 . S
C813 C815 1.390 . S
C813 H817 0.950 . S
H814 C810 0.950 . S
C815 C813 1.390 . S
C815 C816 1.387 . S
C815 H818 0.950 . S
C816 C815 1.387 . S
C816 C819 1.387 . S
H817 C813 0.950 . S
H818 C815 0.950 . S
C819 C810 1.390 . S
C819 H812 0.950 . S
C819 C816 1.387 . S
C820 C821 1.387 . S
C820 H824 0.951 1_556 S
C820 C829 1.389 . S
C821 C820 1.387 . S
C821 C823 1.387 . S
H822 C829 0.950 . S
C823 C821 1.387 . S
C823 C825 1.390 . S
C823 H827 0.950 . S
H824 C820 0.951 1_554 S
C825 C823 1.390 . S
C825 C826 1.387 . S
C825 H828 0.950 . S
C826 C825 1.387 . S
C826 C829 1.387 . S
H827 C823 0.950 . S
H828 C825 0.950 . S
C829 C820 1.389 . S
C829 H822 0.950 . S
C829 C826 1.387 . S
C830 C831 1.387 . S
C830 H834 0.950 . S
C830 C839 1.390 . S
C831 C830 1.387 . S
C831 C833 1.387 . S
H832 C839 0.950 . S
C833 C831 1.387 . S
C833 C835 1.390 . S
C833 H837 0.950 . S
H834 C830 0.950 . S
C835 C833 1.390 . S
C835 C836 1.387 . S
C835 H838 0.950 . S
C836 C835 1.387 . S
C836 C839 1.387 . S
H837 C833 0.950 . S
H838 C835 0.950 . S
C839 C830 1.390 . S
C839 H832 0.950 . S
C839 C836 1.387 . S
C840 C841 1.387 . S
C840 H844 0.950 . S
C840 C849 1.390 . S
C841 C840 1.387 . S
C841 C843 1.387 . S
H842 C849 0.950 . S
C843 C841 1.387 . S
C843 C845 1.390 . S
C843 H847 0.950 . S
H844 C840 0.950 . S
C845 C843 1.390 . S
C845 C846 1.387 . S
C845 H848 0.950 . S
C846 C845 1.387 . S
C846 C849 1.387 . S
H847 C843 0.950 . S
H848 C845 0.950 . S
C849 C840 1.390 . S
C849 H842 0.950 . S
C849 C846 1.387 . S
C850 C851 1.387 . S
C850 H854 0.950 . S
C850 C859 1.390 . S
C851 C850 1.387 . S
C851 C853 1.387 . S
H852 C859 0.950 . S
C853 C851 1.387 . S
C853 C855 1.390 . S
C853 H857 0.950 . S
H854 C850 0.950 . S
C855 C853 1.390 . S
C855 C856 1.387 . S
C855 H858 0.950 . S
C856 C855 1.387 . S
C856 C859 1.387 . S
H857 C853 0.950 . S
H858 C855 0.950 . S
C859 C850 1.390 . S
C859 H852 0.950 . S
C859 C856 1.387 . S
C860 C861 1.387 . S
C860 H864 0.950 . S
C860 C869 1.390 . S
C861 C860 1.387 . S
C861 C863 1.387 . S
H862 C869 0.950 . S
C863 C861 1.387 . S
C863 C865 1.390 . S
C863 H867 0.950 1_554 S
H864 C860 0.950 . S
C865 C863 1.390 . S
C865 C866 1.387 . S
C865 H868 0.950 . S
C866 C865 1.387 . S
C866 C869 1.387 . S
H867 C863 0.950 1_556 S
H868 C865 0.950 . S
C869 C860 1.390 . S
C869 H862 0.950 . S
C869 C866 1.387 . S
C870 C871 1.387 . S
C870 H874 0.950 . S
C870 C879 1.390 . S
C871 C870 1.387 . S
C871 C873 1.387 . S
H872 C879 0.950 . S
C873 C871 1.387 . S
C873 C875 1.390 . S
C873 H877 0.950 . S
H874 C870 0.950 . S
C875 C873 1.390 . S
C875 C876 1.387 . S
C875 H878 0.950 . S
C876 C875 1.387 . S
C876 C879 1.387 . S
H877 C873 0.950 . S
H878 C875 0.950 . S
C879 C870 1.390 . S
C879 H872 0.950 . S
C879 C876 1.387 . S
C880 C881 1.387 . S
C880 H884 0.950 . S
C880 C889 1.390 . S
C881 C880 1.387 . S
C881 C883 1.387 . S
H882 C889 0.950 . S
C883 C881 1.387 . S
C883 C885 1.390 . S
C883 H887 0.950 . S
H884 C880 0.950 . S
C885 C883 1.390 . S
C885 C886 1.387 . S
C885 H888 0.950 . S
C886 C885 1.387 . S
C886 C889 1.387 . S
H887 C883 0.950 . S
H888 C885 0.950 . S
C889 C880 1.390 . S
C889 H882 0.950 . S
C889 C886 1.387 . S
C890 C891 1.387 . S
C890 H894 0.950 . S
C890 C899 1.390 . S
C891 C890 1.387 . S
C891 C893 1.387 . S
H892 C899 0.950 . S
C893 C891 1.387 . S
C893 C895 1.390 . S
C893 H897 0.950 . S
H894 C890 0.950 . S
C895 C893 1.390 . S
C895 C896 1.387 . S
C895 H898 0.950 . S
C896 C895 1.387 . S
C896 C899 1.387 . S
H897 C893 0.950 . S
H898 C895 0.950 . S
C899 C890 1.390 . S
C899 H892 0.950 . S
C899 C896 1.387 . S
C900 C901 1.387 . S
C900 H904 0.950 . S
C900 C909 1.390 . S
C901 C900 1.387 . S
C901 C903 1.387 . S
H902 C909 0.950 . S
C903 C901 1.387 . S
C903 C905 1.390 . S
C903 H907 0.950 . S
H904 C900 0.950 . S
C905 C903 1.390 . S
C905 C906 1.387 . S
C905 H908 0.950 . S
C906 C905 1.387 . S
C906 C909 1.387 . S
H907 C903 0.950 . S
H908 C905 0.950 . S
C909 C900 1.390 . S
C909 H902 0.950 . S
C909 C906 1.387 . S
C910 C911 1.387 . S
C910 H914 0.950 . S
C910 C919 1.390 . S
C911 C910 1.387 . S
C911 C913 1.387 . S
H912 C919 0.950 . S
C913 C911 1.387 . S
C913 C915 1.390 . S
C913 H917 0.950 . S
H914 C910 0.950 . S
C915 C913 1.390 . S
C915 C916 1.387 . S
C915 H918 0.950 . S
C916 C915 1.387 . S
C916 C919 1.387 . S
H917 C913 0.950 . S
H918 C915 0.950 . S
C919 C910 1.390 . S
C919 H912 0.950 . S
C919 C916 1.387 . S
C920 C921 1.387 . S
C920 H924 0.950 . S
C920 C929 1.390 . S
C921 C920 1.387 . S
C921 C923 1.387 . S
H922 C929 0.950 . S
C923 C921 1.387 . S
C923 C925 1.390 . S
C923 H927 0.950 . S
H924 C920 0.950 . S
C925 C923 1.390 . S
C925 C926 1.387 . S
C925 H928 0.950 . S
C926 C925 1.387 . S
C926 C929 1.387 . S
H927 C923 0.950 . S
H928 C925 0.950 . S
C929 C920 1.390 . S
C929 H922 0.950 . S
C929 C926 1.387 . S
C930 C931 1.387 . S
C930 H934 0.950 . S
C930 C939 1.390 . S
C931 C930 1.387 . S
C931 C933 1.387 . S
H932 C939 0.950 . S
C933 C931 1.387 . S
C933 C935 1.390 . S
C933 H937 0.950 . S
H934 C930 0.950 . S
C935 C933 1.390 . S
C935 C936 1.387 . S
C935 H938 0.950 . S
C936 C935 1.387 . S
C936 C939 1.387 . S
H937 C933 0.950 . S
H938 C935 0.950 . S
C939 C930 1.390 . S
C939 H932 0.950 . S
C939 C936 1.387 . S
C940 C941 1.387 . S
C940 H944 0.950 . S
C940 C949 1.390 . S
C941 C940 1.387 . S
C941 C943 1.387 . S
H942 C949 0.950 . S
C943 C941 1.387 . S
C943 C945 1.390 . S
C943 H947 0.950 . S
H944 C940 0.950 . S
C945 C943 1.390 . S
C945 C946 1.387 . S
C945 H948 0.950 . S
C946 C945 1.387 . S
C946 C949 1.387 . S
H947 C943 0.950 . S
H948 C945 0.950 . S
C949 C940 1.390 . S
C949 H942 0.950 . S
C949 C946 1.387 . S
C950 C951 1.387 . S
C950 H954 0.950 . S
C950 C959 1.390 . S
C951 C950 1.387 . S
C951 C953 1.387 . S
H952 C959 0.950 . S
C953 C951 1.387 . S
C953 C955 1.390 . S
C953 H957 0.950 . S
H954 C950 0.950 . S
C955 C953 1.390 . S
C955 C956 1.387 . S
C955 H958 0.950 . S
C956 C955 1.387 . S
C956 C959 1.387 . S
H957 C953 0.950 . S
H958 C955 0.950 . S
C959 C950 1.390 . S
C959 H952 0.950 . S
C959 C956 1.387 . S
C481 C27 2.073 . S
C486 C237 2.029 . S
C491 C57 0.762 . S
C496 N126 0.752 . S
C501 N156 1.608 . S
C506 C87 1.738 . S
C511 N96 0.506 . S
C516 N186 0.571 . S
C521 C346 2.029 . S
C526 C136 2.073 . S
C531 C256 0.763 . S
C536 N14 0.754 . S
C541 N314 1.604 . S
C546 C196 1.739 . S
C551 N74 0.580 . S
C556 N284 0.499 . S
C561 C297 2.029 . S
C566 C387 2.073 . S
C571 C327 0.762 . S
C576 N426 0.760 . S
C581 C417 1.738 1_556 S
C586 N246 1.608 . S
C591 N336 0.505 . S
C596 N456 0.570 . S
C601 C436 2.073 . S
C606 C106 2.028 . S
C611 N374 0.754 . S
C616 C166 0.762 . S
C621 N44 1.607 . S
C626 C466 1.738 1_554 S
C631 N224 0.505 . S
C636 N404 0.577 . S
C641 C400 1.214 1_455 S
C646 C10 1.240 . S
C651 C331 1.072 . S
C656 C40 1.069 . S
C661 C370 1.240 . S
C666 C70 1.214 . S
C671 C310 1.069 . S
C676 C91 1.072 . S
C681 C121 1.240 . S
C686 C451 1.214 . S
C691 C280 1.072 . S
C696 C151 1.069 . S
C701 C181 1.218 . S
C706 C421 1.243 . S
C711 C220 1.072 . S
C716 C241 1.070 . S
C721 C1 1.107 . S
C726 C130 1.107 . S
C731 C31 1.323 . S
C736 C160 1.323 . S
C741 C190 1.534 . S
C746 C61 1.534 . S
C751 C100 1.283 . S
C756 C211 1.283 . S
C761 C301 1.323 . S
C766 C250 1.323 . S
C771 C340 1.289 . S
C776 C271 1.289 . S
C781 C361 1.107 . S
C786 C430 1.107 . S
C791 C460 1.535 . S
C796 C391 1.535 . S
C801 N6 0.996 . S
C806 N216 0.999 . S
C811 N36 2.194 . S
C816 C147 2.178 . S
C821 C177 1.239 1_556 S
C826 N66 1.222 . S
C831 C207 2.390 . S
C836 C117 2.348 1_554 S
C841 N344 0.998 . S
C846 N134 0.995 . S
C851 N254 2.193 . S
C856 C16 2.179 . S
C861 C316 1.239 1_554 S
C866 N194 1.223 . S
C871 C76 2.391 . S
C876 C286 2.346 1_556 S
C881 N366 0.997 . S
C886 N276 0.999 . S
C891 C447 2.178 . S
C896 N306 2.194 . S
C901 N396 1.224 . S
C906 C267 1.237 . S
C911 C477 2.391 . S
C916 C357 2.347 . S
C921 N434 0.995 . S
C926 N104 0.997 . S
C931 N164 2.194 . S
C936 C376 2.178 . S
C941 C46 1.238 . S
C946 N464 1.222 . S
C951 C406 2.390 . S
C956 C226 2.348 . S
