# Generated by pormake.
# Topology qtz-e, (6)-cn, num edge types: 1
# Building blocks:
#     Node 0, Type 0, BuildingBlock: KUMBUR_clean_sbu_1, # of connection points: 6
#     Node 1, Type 0, BuildingBlock: KUMBUR_clean_sbu_1, # of connection points: 6
#     Node 2, Type 0, BuildingBlock: KUMBUR_clean_sbu_1, # of connection points: 6
#     Node 3, Type 0, BuildingBlock: KUMBUR_clean_sbu_1, # of connection points: 6
#     Node 4, Type 0, BuildingBlock: KUMBUR_clean_sbu_1, # of connection points: 6
#     Node 5, Type 0, BuildingBlock: KUMBUR_clean_sbu_1, # of connection points: 6
#     Edge 6, Type (0, 0), BuildingBlock: ZUJKAS_clean_linker_0, # of connection points: 2
#     Edge 7, Type (0, 0), BuildingBlock: ZUJKAS_clean_linker_0, # of connection points: 2
#     Edge 8, Type (0, 0), BuildingBlock: ZUJKAS_clean_linker_0, # of connection points: 2
#     Edge 9, Type (0, 0), BuildingBlock: ZUJKAS_clean_linker_0, # of connection points: 2
#     Edge 10, Type (0, 0), BuildingBlock: ZUJKAS_clean_linker_0, # of connection points: 2
#     Edge 11, Type (0, 0), BuildingBlock: ZUJKAS_clean_linker_0, # of connection points: 2
#     Edge 12, Type (0, 0), BuildingBlock: ZUJKAS_clean_linker_0, # of connection points: 2
#     Edge 13, Type (0, 0), BuildingBlock: ZUJKAS_clean_linker_0, # of connection points: 2
#     Edge 14, Type (0, 0), BuildingBlock: ZUJKAS_clean_linker_0, # of connection points: 2
#     Edge 15, Type (0, 0), BuildingBlock: ZUJKAS_clean_linker_0, # of connection points: 2
#     Edge 16, Type (0, 0), BuildingBlock: ZUJKAS_clean_linker_0, # of connection points: 2
#     Edge 17, Type (0, 0), BuildingBlock: ZUJKAS_clean_linker_0, # of connection points: 2
#     Edge 18, Type (0, 0), BuildingBlock: ZUJKAS_clean_linker_0, # of connection points: 2
#     Edge 19, Type (0, 0), BuildingBlock: ZUJKAS_clean_linker_0, # of connection points: 2
#     Edge 20, Type (0, 0), BuildingBlock: ZUJKAS_clean_linker_0, # of connection points: 2
#     Edge 21, Type (0, 0), BuildingBlock: ZUJKAS_clean_linker_0, # of connection points: 2
#     Edge 22, Type (0, 0), BuildingBlock: ZUJKAS_clean_linker_0, # of connection points: 2
#     Edge 23, Type (0, 0), BuildingBlock: ZUJKAS_clean_linker_0, # of connection points: 2
# Relax obj value: 0.151
# Max RMSD: 0.208
# Mean RMSD: 0.208
data_MOF--net-qtz-e--node1-KUMBUR_clean_sbu_1--edge1-ZUJKAS_clean_linker_0
_symmetry_space_group_name_H-M    P1
_symmetry_Int_Tables_number       1
_symmetry_cell_setting            triclinic
loop_
_symmetry_equiv_pos_as_xyz
'x, y, z'
_cell_length_a     36.021913
_cell_length_b     35.989128
_cell_length_c     59.202251
_cell_angle_alpha  90.060124
_cell_angle_beta   89.876354
_cell_angle_gamma 119.93208
loop_
_atom_site_label
_atom_site_type_symbol
_atom_site_fract_x
_atom_site_fract_y
_atom_site_fract_z
_atom_type_partial_charge
Tb0 Tb 0.17081 0.34845 0.98997 0.0
C1 C 0.30844 0.54444 0.0153 0.0
N2 N 0.29432 0.50774 0.02745 0.0
C3 C 0.36336 0.5361 0.04461 0.0
C4 C 0.35142 0.57769 0.01652 0.0
C5 C 0.32099 0.50318 0.04211 0.0
C6 C 0.37898 0.57311 0.03141 0.0
C7 C 0.29167 0.58854 0.99113 0.0
C8 C 0.27882 0.55028 0.0032 0.0
C9 C 0.33507 0.62053 0.991 0.0
C10 C 0.36482 0.6153 0.00385 0.0
Tb11 Tb 0.22261 0.46072 0.0256 0.0
N12 N 0.23691 0.51919 0.00424 0.0
C13 C 0.26023 0.59417 0.98036 0.0
C14 C 0.20577 0.52643 -0.00429 0.0
C15 C 0.21703 0.56331 0.983 0.0
H16 H 0.30887 0.47514 0.05278 0.0
H17 H 0.19239 0.56804 0.9754 0.0
H18 H 0.06874 0.32171 0.98883 0.0
H19 H 0.25513 0.27778 0.03125 0.0
H20 H 0.1724 0.5031 -0.00187 0.0
H21 H 0.26883 0.62294 0.97072 0.0
H22 H 0.24886 0.32805 0.0059 0.0
H23 H 0.3836 0.53328 0.05713 0.0
H24 H 0.34566 0.65009 0.98173 0.0
H25 H 0.39785 0.64103 0.00438 0.0
H26 H 0.00091 0.26594 0.0059 0.0
H27 H 0.41189 0.59852 0.03341 0.0
H28 H 0.19125 0.22177 0.05115 0.0
N29 N 0.10668 0.2994 0.00494 0.0
C30 C 0.10735 0.26918 0.01839 0.0
C31 C 0.03065 0.26662 0.00961 0.0
C32 C 0.06952 0.23689 0.0285 0.0
C33 C 0.06908 0.29822 5e-05 0.0
C34 C 0.03087 0.2359 0.02396 0.0
N35 N 0.1826 0.30425 0.01292 0.0
C36 C 0.22098 0.30557 0.01526 0.0
C37 C 0.14862 0.24171 0.03696 0.0
C38 C 0.1466 0.27202 0.02273 0.0
C39 C 0.18835 0.24452 0.04039 0.0
C40 C 0.22454 0.27627 0.02929 0.0
H41 H 0.00108 0.21157 0.03141 0.0
H42 H 0.04284 0.18191 0.05086 0.0
H43 H 0.11198 0.18589 0.05814 0.0
O44 O 0.1822 0.30726 0.96921 0.0
O45 O 0.14739 0.35495 0.0232 0.0
O46 O 0.20808 0.40058 0.04232 0.0
O47 O 0.13138 0.32139 0.96135 0.0
O48 O 0.24112 0.38627 0.99276 0.0
O49 O 0.25136 0.41989 0.02716 0.0
O50 O 0.17789 0.4654 0.04669 0.0
O51 O 0.22793 0.46769 0.9885 0.0
O52 O 0.21383 0.40424 0.97023 0.0
O53 O 0.2452 0.50226 0.05347 0.0
O54 O 0.15513 0.42757 0.0167 0.0
O55 O 0.14268 0.3894 0.98311 0.0
C56 C 0.16925 0.36714 0.04205 0.0
C57 C 0.14048 0.27411 0.93526 0.0
C58 C 0.16117 0.24723 0.90236 0.0
C59 C 0.11776 0.22382 0.89604 0.0
C60 C 0.09752 0.25054 0.92852 0.0
C61 C 0.08629 0.22543 0.90907 0.0
C62 C 0.17235 0.27239 0.92215 0.0
C63 C 0.26618 0.40995 0.00932 0.0
C64 C 0.15175 0.30158 0.95546 0.0
C65 C 0.07155 0.20699 0.0429 0.0
C66 C 0.11097 0.20936 0.04709 0.0
C67 C 0.22792 0.44565 0.97071 0.0
C68 C 0.19942 0.48264 0.08463 0.0
C69 C 0.18416 0.50184 0.12156 0.0
C70 C 0.18815 0.46829 0.13124 0.0
C71 C 0.20503 0.45057 0.09463 0.0
C72 C 0.18902 0.50817 0.09807 0.0
C73 C 0.19856 0.44286 0.1178 0.0
C74 C 0.13517 0.41324 -0.00265 0.0
C75 C 0.2072 0.49201 0.06048 0.0
H76 H 0.10814 0.20479 0.88074 0.0
H77 H 0.0726 0.25155 0.93833 0.0
H78 H 0.05307 0.20742 0.90393 0.0
H79 H 0.20563 0.29079 0.92723 0.0
H80 H 0.18506 0.46285 0.14931 0.0
H81 H 0.21535 0.43234 0.08457 0.0
H82 H 0.18567 0.5336 0.09027 0.0
H83 H 0.20281 0.41795 0.12547 0.0
Tb84 Tb 0.81107 0.17289 0.32194 0.0
C85 C 0.75678 0.31086 0.34517 0.0
N86 N 0.78265 0.30201 0.35801 0.0
C87 C 0.82886 0.37703 0.36511 0.0
C88 C 0.76666 0.35347 0.34129 0.0
C89 C 0.81797 0.33427 0.36825 0.0
C90 C 0.80328 0.38672 0.35143 0.0
C91 C 0.69296 0.2848 0.32215 0.0
C92 C 0.72049 0.27689 0.33565 0.0
C93 C 0.70297 0.32724 0.31798 0.0
C94 C 0.73972 0.36148 0.32753 0.0
Tb95 Tb 0.7618 0.23113 0.36198 0.0
N96 N 0.71236 0.23618 0.33964 0.0
C97 C 0.65588 0.24982 0.31351 0.0
C98 C 0.67452 0.20213 0.33266 0.0
C99 C 0.6463 0.20832 0.3191 0.0
H100 H 0.83663 0.32674 0.3796 0.0
H101 H 0.61676 0.18107 0.31332 0.0
H102 H 0.73082 0.07795 0.30707 0.0
H103 H 0.95727 0.22071 0.3688 0.0
H104 H 0.66472 0.1702 0.33807 0.0
H105 H 0.63383 0.25449 0.3031 0.0
H106 H 0.90728 0.23322 0.34665 0.0
H107 H 0.85689 0.40248 0.37331 0.0
H108 H 0.68228 0.3339 0.30756 0.0
H109 H 0.74687 0.39402 0.32427 0.0
H110 H 0.70976 0.00198 0.31294 0.0
H111 H 0.81192 0.41991 0.34894 0.0
H112 H 0.94125 0.14673 0.37673 0.0
N113 N 0.78872 0.10192 0.32568 0.0
C114 C 0.81513 0.09242 0.33757 0.0
C115 C 0.73944 0.02712 0.31999 0.0
C116 C 0.80467 0.04957 0.3411 0.0
C117 C 0.75126 0.07015 0.31686 0.0
C118 C 0.76626 0.01676 0.33215 0.0
N119 N 0.86082 0.16691 0.34324 0.0
C120 C 0.89854 0.20072 0.35056 0.0
C121 C 0.88082 0.11738 0.35885 0.0
C122 C 0.85252 0.12597 0.34652 0.0
C123 C 0.91858 0.15194 0.36722 0.0
C124 C 0.92761 0.19376 0.36288 0.0
H125 H 0.75702 0.98339 0.33452 0.0
H126 H 0.82526 0.00817 0.35638 0.0
H127 H 0.89206 0.0675 0.37176 0.0
O128 O 0.86043 0.20703 0.29844 0.0
O129 O 0.79073 0.14802 0.35644 0.0
O130 O 0.80236 0.20766 0.37635 0.0
O131 O 0.81042 0.1428 0.29127 0.0
O132 O 0.85136 0.24143 0.32922 0.0
O133 O 0.83049 0.25323 0.36429 0.0
O134 O 0.71037 0.19912 0.38482 0.0
O135 O 0.78302 0.25658 0.32789 0.0
O136 O 0.77027 0.19651 0.30856 0.0
O137 O 0.76158 0.26292 0.39159 0.0
O138 O 0.7219 0.16217 0.35488 0.0
O139 O 0.7424 0.15002 0.31971 0.0
C140 C 0.79337 0.16755 0.37562 0.0
C141 C 0.87884 0.16569 0.27521 0.0
C142 C 0.93547 0.18162 0.24759 0.0
C143 C 0.94282 0.15074 0.25799 0.0
C144 C 0.88665 0.13498 0.28525 0.0
C145 C 0.91849 0.1276 0.27665 0.0
C146 C 0.90321 0.18882 0.25636 0.0
C147 C 0.85688 0.266 0.34684 0.0
C148 C 0.84638 0.17505 0.28439 0.0
C149 C 0.83269 0.0409 0.35351 0.0
C150 C 0.8707 0.07471 0.3623 0.0
C151 C 0.7807 0.23694 0.30886 0.0
C152 C 0.72874 0.21879 0.42293 0.0
C153 C 0.69398 0.19759 0.45974 0.0
C154 C 0.73216 0.20229 0.46888 0.0
C155 C 0.76673 0.22402 0.43237 0.0
C156 C 0.69242 0.20507 0.43655 0.0
C157 C 0.76817 0.21521 0.4552 0.0
C158 C 0.71548 0.13795 0.33691 0.0
C159 C 0.72706 0.23037 0.39937 0.0
H160 H 0.96696 0.14398 0.2515 0.0
H161 H 0.86823 0.11673 0.29969 0.0
H162 H 0.9243 0.10379 0.28445 0.0
H163 H 0.89744 0.21288 0.24875 0.0
H164 H 0.73473 0.19744 0.48672 0.0
H165 H 0.7954 0.23566 0.42219 0.0
H166 H 0.66325 0.20131 0.42912 0.0
H167 H 0.79761 0.21946 0.46244 0.0
Tb168 Tb 0.63487 0.81625 0.66107 0.0
C169 C 0.44288 0.74987 0.66581 0.0
N170 N 0.47369 0.78241 0.67812 0.0
C171 C 0.44368 0.82682 0.66886 0.0
C172 C 0.41255 0.75523 0.65343 0.0
C173 C 0.47301 0.81974 0.68089 0.0
C174 C 0.41383 0.79471 0.6547 0.0
C175 C 0.40832 0.67523 0.65507 0.0
C176 C 0.44111 0.71078 0.66655 0.0
C177 C 0.37927 0.68071 0.64161 0.0
C178 C 0.38135 0.72068 0.64082 0.0
Tb179 Tb 0.52261 0.76947 0.69569 0.0
N180 N 0.46933 0.70687 0.68011 0.0
C181 C 0.40451 0.63499 0.65839 0.0
C182 C 0.46279 0.66699 0.68519 0.0
C183 C 0.43121 0.63071 0.67396 0.0
H184 H 0.49557 0.84414 0.69206 0.0
H185 H 0.42697 0.5994 0.67768 0.0
H186 H 0.64003 0.72644 0.65177 0.0
H187 H 0.74636 0.96478 0.70147 0.0
H188 H 0.48147 0.66284 0.69812 0.0
H189 H 0.37974 0.60679 0.64993 0.0
H190 H 0.68452 0.91739 0.67741 0.0
H191 H 0.4441 0.85696 0.67048 0.0
H192 H 0.35417 0.65392 0.63242 0.0
H193 H 0.35795 0.72417 0.63097 0.0
H194 H 0.67925 0.69296 0.6675 0.0
H195 H 0.39116 0.80024 0.6454 0.0
H196 H 0.78928 0.93665 0.71953 0.0
N197 N 0.67144 0.78239 0.67241 0.0
C198 C 0.70533 0.80563 0.68632 0.0
C199 C 0.68642 0.7244 0.67327 0.0
C200 C 0.72976 0.78831 0.69515 0.0
C201 C 0.66339 0.74316 0.6648 0.0
C202 C 0.71925 0.74674 0.68883 0.0
N203 N 0.69187 0.8629 0.68238 0.0
C204 C 0.70294 0.90482 0.68532 0.0
C205 C 0.75179 0.87327 0.70503 0.0
C206 C 0.71644 0.84757 0.69112 0.0
C207 C 0.76228 0.91579 0.70897 0.0
C208 C 0.73804 0.93175 0.69884 0.0
H209 H 0.73722 0.73223 0.69524 0.0
H210 H 0.78328 0.80042 0.71669 0.0
H211 H 0.80249 0.87482 0.72539 0.0
O212 O 0.65351 0.86286 0.63485 0.0
O213 O 0.6333 0.82362 0.69793 0.0
O214 O 0.57435 0.7619 0.71012 0.0
O215 O 0.67679 0.81751 0.63612 0.0
O216 O 0.61009 0.86071 0.66556 0.0
O217 O 0.57159 0.83758 0.69902 0.0
O218 O 0.47631 0.73354 0.72045 0.0
O219 O 0.52943 0.7978 0.66221 0.0
O220 O 0.57343 0.77878 0.64401 0.0
O221 O 0.51865 0.80109 0.72461 0.0
O222 O 0.54913 0.72663 0.69063 0.0
O223 O 0.58745 0.74726 0.65696 0.0
C224 C 0.61469 0.7918 0.71231 0.0
C225 C 0.70232 0.86691 0.6045 0.0
C226 C 0.72186 0.91209 0.57085 0.0
C227 C 0.75026 0.89788 0.56455 0.0
C228 C 0.73098 0.85314 0.59776 0.0
C229 C 0.75472 0.86856 0.57793 0.0
C230 C 0.69776 0.89658 0.59088 0.0
C231 C 0.59031 0.86643 0.68293 0.0
C232 C 0.67681 0.84889 0.62534 0.0
C233 C 0.76438 0.81332 0.70957 0.0
C234 C 0.77541 0.85574 0.71448 0.0
C235 C 0.54406 0.79 0.64361 0.0
C236 C 0.50367 0.75742 0.75688 0.0
C237 C 0.48472 0.71405 0.79115 0.0
C238 C 0.5273 0.73871 0.79863 0.0
C239 C 0.54609 0.78163 0.76466 0.0
C240 C 0.47319 0.72374 0.77021 0.0
C241 C 0.55767 0.77233 0.78544 0.0
C242 C 0.56439 0.718 0.67232 0.0
C243 C 0.49138 0.76552 0.73446 0.0
H244 H 0.76896 0.90949 0.54917 0.0
H245 H 0.73506 0.83028 0.6078 0.0
H246 H 0.77663 0.85768 0.57289 0.0
H247 H 0.67564 0.90736 0.59571 0.0
H248 H 0.53699 0.73254 0.81485 0.0
H249 H 0.57043 0.80761 0.75469 0.0
H250 H 0.44065 0.70465 0.76406 0.0
H251 H 0.59032 0.79131 0.79136 0.0
Tb252 Tb 0.81402 0.63539 0.98861 0.0
C253 C 0.67557 0.44223 0.01469 0.0
N254 N 0.68564 0.47808 0.02687 0.0
C255 C 0.61143 0.45029 0.03586 0.0
C256 C 0.63268 0.40926 0.01223 0.0
C257 C 0.65442 0.48221 0.03773 0.0
C258 C 0.60047 0.41373 0.02297 0.0
C259 C 0.69926 0.40227 0.99156 0.0
C260 C 0.70852 0.43888 0.00444 0.0
C261 C 0.65653 0.36949 0.98891 0.0
C262 C 0.62333 0.37298 -0.00079 0.0
Tb263 Tb 0.75685 0.52778 0.02877 0.0
N264 N 0.74953 0.47188 0.00683 0.0
C265 C 0.73325 0.39953 0.98187 0.0
C266 C 0.7828 0.46792 -0.00144 0.0
C267 C 0.77521 0.43224 0.98565 0.0
H268 H 0.66309 0.50931 0.04865 0.0
H269 H 0.80182 0.42971 0.97891 0.0
H270 H 0.9104 0.65181 0.97547 0.0
H271 H 0.76116 0.73042 0.03525 0.0
H272 H 0.81529 0.4911 0.00231 0.0
H273 H 0.72751 0.3719 0.9719 0.0
H274 H 0.7511 0.66904 0.01273 0.0
H275 H 0.58681 0.45373 0.04451 0.0
H276 H 0.64882 0.3412 0.97902 0.0
H277 H 0.59055 0.34737 -0.00292 0.0
H278 H 0.98556 0.70741 0.9824 0.0
H279 H 0.56712 0.38907 0.02153 0.0
H280 H 0.83415 0.78895 0.04426 0.0
N281 N 0.88444 0.68449 0.99377 0.0
C282 C 0.89265 0.72002 0.00572 0.0
C283 C 0.95972 0.71128 0.98911 0.0
C284 C 0.93502 0.75274 0.0099 0.0
C285 C 0.91712 0.67967 0.98538 0.0
C286 C 0.96874 0.74799 0.00142 0.0
N287 N 0.81778 0.69002 0.01022 0.0
C288 C 0.78317 0.69302 0.01714 0.0
C289 C 0.86542 0.7593 0.02667 0.0
C290 C 0.85822 0.72299 0.01413 0.0
C291 C 0.83001 0.76155 0.03461 0.0
C292 C 0.78875 0.72844 0.02966 0.0
H293 H 0.00177 0.77243 0.00427 0.0
H294 H 0.97464 0.81446 0.02582 0.0
H295 H 0.91374 0.82034 0.04039 0.0
O296 O 0.78386 0.65568 0.96518 0.0
O297 O 0.83928 0.63927 0.02275 0.0
O298 O 0.77976 0.59197 0.04294 0.0
O299 O 0.84505 0.66177 0.95777 0.0
O300 O 0.74504 0.60573 -0.0048 0.0
O301 O 0.73458 0.57441 0.03048 0.0
O302 O 0.79207 0.51228 0.05164 0.0
O303 O 0.7311 0.52117 0.99451 0.0
O304 O 0.79016 0.5708 0.97546 0.0
O305 O 0.72662 0.49435 0.05827 0.0
O306 O 0.82547 0.55602 0.02077 0.0
O307 O 0.83733 0.58987 0.98595 0.0
C308 C 0.81984 0.62318 0.04204 0.0
C309 C 0.83004 0.71262 0.94122 0.0
C310 C 0.82182 0.7563 0.91219 0.0
C311 C 0.85766 0.7928 0.92115 0.0
C312 C 0.86566 0.74942 0.94985 0.0
C313 C 0.87924 0.78929 0.93988 0.0
C314 C 0.80813 0.71625 0.92252 0.0
C315 C 0.72064 0.5862 0.01282 0.0
C316 C 0.81563 0.66995 0.95097 0.0
C317 C 0.94231 0.7889 0.02245 0.0
C318 C 0.9076 0.7922 0.03077 0.0
C319 C 0.75008 0.54022 0.97564 0.0
C320 C 0.77047 0.50753 0.08987 0.0
C321 C 0.79124 0.49338 0.12666 0.0
C322 C 0.78038 0.52236 0.13649 0.0
C323 C 0.75923 0.53575 0.10004 0.0
C324 C 0.7872 0.48714 0.10311 0.0
C325 C 0.76499 0.54373 0.12318 0.0
C326 C 0.84941 0.57418 0.00274 0.0
C327 C 0.76056 0.49518 0.06606 0.0
H328 H 0.86961 0.824 0.91345 0.0
H329 H 0.88324 0.74739 0.96409 0.0
H330 H 0.90691 0.81753 0.94653 0.0
H331 H 0.78034 0.68775 0.9161 0.0
H332 H 0.78221 0.52745 0.15457 0.0
H333 H 0.74489 0.55062 0.0902 0.0
H334 H 0.79552 0.46517 0.0951 0.0
H335 H 0.75612 0.56543 0.13096 0.0
Tb336 Tb 0.17354 0.81352 0.32326 0.0
C337 C 0.24254 0.68427 0.34514 0.0
N338 N 0.21502 0.6909 0.35798 0.0
C339 C 0.17817 0.61705 0.36904 0.0
C340 C 0.23763 0.64303 0.343 0.0
C341 C 0.18243 0.65779 0.3695 0.0
C342 C 0.20511 0.60928 0.35531 0.0
C343 C 0.30448 0.71315 0.32034 0.0
C344 C 0.27593 0.71909 0.33419 0.0
C345 C 0.29905 0.67193 0.31773 0.0
C346 C 0.26588 0.63701 0.32914 0.0
Tb347 Tb 0.23111 0.76054 0.36111 0.0
N348 N 0.28009 0.75863 0.33698 0.0
C349 C 0.33794 0.74891 0.30973 0.0
C350 C 0.31419 0.79378 0.32764 0.0
C351 C 0.34304 0.78943 0.31358 0.0
H352 H 0.16201 0.66372 0.3805 0.0
H353 H 0.36963 0.81748 0.30601 0.0
H354 H 0.24953 0.91077 0.30792 0.0
H355 H 0.02661 0.75727 0.37081 0.0
H356 H 0.32036 0.82539 0.33128 0.0
H357 H 0.36054 0.74571 0.29894 0.0
H358 H 0.08006 0.74897 0.3491 0.0
H359 H 0.15473 0.59192 0.37967 0.0
H360 H 0.32067 0.6668 0.30716 0.0
H361 H 0.26251 0.60552 0.32724 0.0
H362 H 0.26537 0.98527 0.31334 0.0
H363 H 0.20112 0.5774 0.35472 0.0
H364 H 0.03663 0.82949 0.37773 0.0
N365 N 0.19172 0.88355 0.32697 0.0
C366 C 0.16358 0.89086 0.33874 0.0
C367 C 0.23671 0.95901 0.32065 0.0
C368 C 0.17093 0.9328 0.34191 0.0
C369 C 0.22788 0.91679 0.31782 0.0
C370 C 0.20812 0.96708 0.33275 0.0
N371 N 0.12202 0.81607 0.34471 0.0
C372 C 0.08593 0.7808 0.35247 0.0
C373 C 0.09704 0.86212 0.35977 0.0
C374 C 0.12726 0.85596 0.34767 0.0
C375 C 0.06067 0.82615 0.36835 0.0
C376 C 0.05502 0.78533 0.36458 0.0
H377 H 0.21497 -0.00018 0.33482 0.0
H378 H 0.14603 0.97111 0.35667 0.0
H379 H 0.08126 0.90924 0.37223 0.0
O380 O 0.12343 0.77803 0.30033 0.0
O381 O 0.18996 0.8362 0.35831 0.0
O382 O 0.18829 0.77939 0.37727 0.0
O383 O 0.17306 0.84209 0.29239 0.0
O384 O 0.1376 0.74431 0.33021 0.0
O385 O 0.16161 0.73284 0.36449 0.0
O386 O 0.2836 0.79594 0.38291 0.0
O387 O 0.21065 0.73558 0.32687 0.0
O388 O 0.21824 0.79521 0.30949 0.0
O389 O 0.23709 0.73046 0.38993 0.0
O390 O 0.26622 0.83005 0.35532 0.0
O391 O 0.24308 0.8418 0.32106 0.0
C392 C 0.1926 0.81788 0.37697 0.0
C393 C 0.10475 0.81869 0.27652 0.0
C394 C 0.05106 0.80481 0.24757 0.0
C395 C 0.04404 0.83638 0.25745 0.0
C396 C 0.09727 0.85006 0.28605 0.0
C397 C 0.06698 0.85872 0.27656 0.0
C398 C 0.08155 0.79611 0.25734 0.0
C399 C 0.13433 0.71966 0.34746 0.0
C400 C 0.13708 0.80947 0.28593 0.0
C401 C 0.14099 0.93911 0.35407 0.0
C402 C 0.1041 0.90387 0.36293 0.0
C403 C 0.21008 0.75557 0.30852 0.0
C404 C 0.2675 0.77472 0.4211 0.0
C405 C 0.30058 0.79421 0.45822 0.0
C406 C 0.26157 0.78758 0.46728 0.0
C407 C 0.22867 0.76777 0.43043 0.0
C408 C 0.30336 0.78826 0.43496 0.0
C409 C 0.22594 0.77462 0.4534 0.0
C410 C 0.26978 0.85523 0.3383 0.0
C411 C 0.27018 0.76463 0.3974 0.0
H412 H 0.02139 0.84442 0.25016 0.0
H413 H 0.115 0.86812 0.30064 0.0
H414 H 0.06155 0.88315 0.28393 0.0
H415 H 0.08721 0.77168 0.25011 0.0
H416 H 0.25816 0.79107 0.48522 0.0
H417 H 0.20041 0.75672 0.42001 0.0
H418 H 0.33313 0.79314 0.42769 0.0
H419 H 0.19587 0.76892 0.46053 0.0
Tb420 Tb 0.34863 0.17368 0.65718 0.0
C421 C 0.5357 0.20962 0.68167 0.0
N422 N 0.49957 0.18599 0.69406 0.0
C423 C 0.52108 0.13391 0.70135 0.0
C424 C 0.56551 0.19567 0.67813 0.0
C425 C 0.49249 0.14917 0.70439 0.0
C426 C 0.55751 0.157 0.68794 0.0
C427 C 0.5808 0.27463 0.66059 0.0
C428 C 0.54317 0.24853 0.67301 0.0
C429 C 0.61014 0.26044 0.65651 0.0
C430 C 0.6025 0.22104 0.66525 0.0
Tb431 Tb 0.45459 0.21328 0.6975 0.0
N432 N 0.51355 0.26078 0.67698 0.0
C433 C 0.58813 0.31453 0.653 0.0
C434 C 0.52218 0.30093 0.67094 0.0
C435 C 0.55902 0.32799 0.65853 0.0
H436 H 0.4653 0.13223 0.71547 0.0
H437 H 0.56526 0.35955 0.65356 0.0
H438 H 0.33657 0.25869 0.65347 0.0
H439 H 0.24872 0.01576 0.69393 0.0
H440 H 0.50187 0.31317 0.67618 0.0
H441 H 0.61672 0.33565 0.64346 0.0
H442 H 0.30977 0.06983 0.67258 0.0
H443 H 0.5152 0.10455 0.7095 0.0
H444 H 0.63913 0.27997 0.64689 0.0
H445 H 0.6257 0.21077 0.66223 0.0
H446 H 0.28286 0.27868 0.66495 0.0
H447 H 0.57963 0.14514 0.68565 0.0
H448 H 0.19345 0.0313 0.70828 0.0
N449 N 0.30195 0.19598 0.66744 0.0
C450 C 0.26592 0.16659 0.67833 0.0
C451 C 0.2778 0.24711 0.66888 0.0
C452 C 0.23448 0.17662 0.6852 0.0
C453 C 0.30828 0.23581 0.66254 0.0
C454 C 0.24073 0.21742 0.68027 0.0
N455 N 0.29348 0.11899 0.67696 0.0
C456 C 0.28802 0.07884 0.67982 0.0
C457 C 0.22512 0.09601 0.69509 0.0
C458 C 0.26176 0.12702 0.68344 0.0
C459 C 0.22111 0.05599 0.69939 0.0
C460 C 0.25242 0.04723 0.69147 0.0
H461 H 0.21726 0.22633 0.68523 0.0
H462 H 0.1736 0.15297 0.70236 0.0
H463 H 0.16522 0.08229 0.71087 0.0
O464 O 0.32067 0.12688 0.63092 0.0
O465 O 0.3472 0.19647 0.69153 0.0
O466 O 0.38929 0.17602 0.71036 0.0
O467 O 0.32379 0.18865 0.62894 0.0
O468 O 0.37493 0.13045 0.66146 0.0
O469 O 0.40308 0.14605 0.69744 0.0
O470 O 0.47605 0.26394 0.72082 0.0
O471 O 0.45951 0.19576 0.6626 0.0
O472 O 0.41303 0.20966 0.64263 0.0
O473 O 0.47776 0.20661 0.72893 0.0
O474 O 0.43239 0.25896 0.69018 0.0
O475 O 0.39788 0.2417 0.6553 0.0
C476 C 0.36215 0.19014 0.7104 0.0
C477 C 0.28969 0.14144 0.59719 0.0
C478 C 0.26161 0.09619 0.56357 0.0
C479 C 0.24697 0.12339 0.55556 0.0
C480 C 0.27463 0.16795 0.58869 0.0
C481 C 0.25352 0.15896 0.56803 0.0
C482 C 0.28337 0.10554 0.58445 0.0
C483 C 0.39123 0.1217 0.67925 0.0
C484 C 0.31173 0.15208 0.6193 0.0
C485 C 0.19818 0.14592 0.69695 0.0
C486 C 0.1935 0.10571 0.70186 0.0
C487 C 0.44363 0.19998 0.64346 0.0
C488 C 0.53261 0.27193 0.74382 0.0
C489 C 0.58184 0.32793 0.76935 0.0
C490 C 0.61608 0.32513 0.7597 0.0
C491 C 0.5671 0.26909 0.73467 0.0
C492 C 0.5401 0.30124 0.76125 0.0
C493 C 0.60862 0.29576 0.74249 0.0
C494 C 0.41753 0.26867 0.67209 0.0
C495 C 0.48882 0.24536 0.7352 0.0
H496 H 0.23083 0.11741 0.53942 0.0
H497 H 0.27901 0.19573 0.59806 0.0
H498 H 0.24218 0.17968 0.56163 0.0
H499 H 0.29487 0.08487 0.59078 0.0
H500 H 0.64847 0.34488 0.76586 0.0
H501 H 0.56212 0.24623 0.72162 0.0
H502 H 0.51351 0.30341 0.76841 0.0
H503 H 0.63504 0.29338 0.73534 0.0
H504 H 0.19748 0.67545 0.30058 0.0
H505 H 0.18866 0.64027 0.26415 0.0
H506 H 0.19872 0.75076 0.23013 0.0
H507 H 0.20802 0.78677 0.26663 0.0
H508 H 0.12233 0.64887 0.21979 0.0
H509 H 0.2954 0.69904 0.21287 0.0
H510 H 0.27033 0.68319 0.24026 0.0
H511 H 0.277 0.73116 0.22733 0.0
C512 C 0.1979 0.69244 0.28541 0.0
C513 C 0.20396 0.73414 0.28647 0.0
C514 C 0.19263 0.67216 0.26465 0.0
C515 C 0.19307 0.69306 0.24463 0.0
C516 C 0.19825 0.73428 0.24552 0.0
H517 H 0.22488 0.58908 0.11794 0.0
H518 H 0.2223 0.6398 0.14441 0.0
C519 C 0.20374 0.75478 0.26634 0.0
C520 C 0.18993 0.67202 0.22284 0.0
H521 H 0.24797 0.64549 0.18766 0.0
C522 C 0.1498 0.64854 0.21247 0.0
C523 C 0.22599 0.67224 0.21338 0.0
C524 C 0.2698 0.69788 0.22387 0.0
C525 C 0.14447 0.62346 0.19325 0.0
C526 C 0.18011 0.62152 0.18459 0.0
C527 C 0.22064 0.64688 0.19437 0.0
C528 C 0.17591 0.591 0.16666 0.0
C529 C 0.10073 0.59889 0.1826 0.0
C530 C 0.1501 0.5467 0.17021 0.0
C531 C 0.15128 0.51757 0.15503 0.0
C532 C 0.17855 0.53226 0.13613 0.0
C533 C 0.20309 0.57666 0.13217 0.0
C534 C 0.20183 0.60574 0.14733 0.0
H535 H 0.08127 0.61437 0.18614 0.0
H536 H 0.10308 0.59623 0.16402 0.0
H537 H 0.08352 0.56606 0.1898 0.0
H538 H 0.13054 0.53461 0.18527 0.0
H539 H 0.13173 0.48357 0.15842 0.0
H540 H 0.50164 0.17282 0.63823 0.0
H541 H 0.53341 0.16616 0.60315 0.0
H542 H 0.45928 0.20859 0.56532 0.0
H543 H 0.42724 0.21574 0.60044 0.0
H544 H 0.48085 0.11702 0.55784 0.0
H545 H 0.59843 0.29244 0.55451 0.0
H546 H 0.57666 0.26546 0.58104 0.0
H547 H 0.54334 0.27414 0.56186 0.0
C548 C 0.4922 0.18106 0.62253 0.0
C549 C 0.46246 0.19558 0.62218 0.0
C550 C 0.51005 0.17673 0.6025 0.0
C551 C 0.49851 0.18686 0.58183 0.0
C552 C 0.46836 0.20061 0.58125 0.0
H553 H 0.64223 0.23288 0.45756 0.0
H554 H 0.58698 0.22424 0.48426 0.0
C555 C 0.45033 0.20485 0.60131 0.0
C556 C 0.52023 0.18549 0.56106 0.0
H557 H 0.60507 0.24888 0.52724 0.0
C558 C 0.50775 0.14578 0.55091 0.0
C559 C 0.55501 0.22318 0.55221 0.0
C560 C 0.5695 0.26638 0.56288 0.0
C561 C 0.5299 0.14273 0.53211 0.0
C562 C 0.56589 0.18031 0.52377 0.0
C563 C 0.57744 0.22013 0.53364 0.0
C564 C 0.59376 0.17934 0.50568 0.0
C565 C 0.51458 0.09946 0.52138 0.0
C566 C 0.61531 0.15621 0.50862 0.0
C567 C 0.64658 0.16056 0.49315 0.0
C568 C 0.65724 0.18857 0.47465 0.0
C569 C 0.63445 0.21049 0.47138 0.0
C570 C 0.60299 0.20584 0.48672 0.0
H571 H 0.47998 0.07743 0.52475 0.0
H572 H 0.51991 0.10231 0.50283 0.0
H573 H 0.5326 0.08477 0.52867 0.0
H574 H 0.60934 0.13627 0.52339 0.0
H575 H 0.66319 0.14287 0.49602 0.0
H576 H 0.21562 0.50583 0.94905 0.0
H577 H 0.25064 0.54433 0.91415 0.0
H578 H 0.32164 0.47689 0.9112 0.0
H579 H 0.2842 0.43628 0.94472 0.0
H580 H 0.33018 0.59811 0.90725 0.0
H581 H 0.28802 0.46462 0.84758 0.0
H582 H 0.26243 0.4563 0.87479 0.0
H583 H 0.31366 0.4591 0.87216 0.0
C584 C 0.23875 0.49946 0.94087 0.0
C585 C 0.24823 0.46911 0.94982 0.0
C586 C 0.25844 0.52107 0.92086 0.0
C587 C 0.28836 0.51305 0.90976 0.0
C588 C 0.29768 0.48267 0.91886 0.0
H589 H 0.49347 0.65427 0.81559 0.0
H590 H 0.44218 0.60215 0.84251 0.0
C591 C 0.27695 0.46013 0.93833 0.0
C592 C 0.31252 0.53895 0.88986 0.0
H593 H 0.3481 0.53311 0.83707 0.0
C594 C 0.33339 0.58378 0.89178 0.0
C595 C 0.31712 0.5203 0.86968 0.0
C596 C 0.29372 0.47244 0.86586 0.0
C597 C 0.35955 0.61044 0.87443 0.0
C598 C 0.3649 0.59183 0.85458 0.0
C599 C 0.34386 0.54711 0.85241 0.0
C600 C 0.39321 0.61887 0.83621 0.0
C601 C 0.38229 0.65843 0.87768 0.0
C602 C 0.38199 0.64453 0.82343 0.0
C603 C 0.41124 0.67451 0.80823 0.0
C604 C 0.4522 0.67925 0.80556 0.0
C605 C 0.46247 0.6519 0.8176 0.0
C606 C 0.43313 0.62187 0.8328 0.0
H607 H 0.38069 0.66745 0.89546 0.0
H608 H 0.41645 0.67317 0.87261 0.0
H609 H 0.3671 0.67219 0.8668 0.0
H610 H 0.35116 0.6424 0.82583 0.0
H611 H 0.40241 0.6952 0.79931 0.0
H612 H 0.76783 0.2055 0.26572 0.0
H613 H 0.77994 0.24595 0.23054 0.0
H614 H 0.82479 0.36266 0.26875 0.0
H615 H 0.8126 0.32283 0.30385 0.0
H616 H 0.73864 0.2984 0.22267 0.0
H617 H 0.91622 0.39145 0.21694 0.0
H618 H 0.88769 0.34175 0.23253 0.0
H619 H 0.89382 0.3905 0.24428 0.0
C620 C 0.78051 0.23981 0.2666 0.0
C621 C 0.78888 0.26091 0.28754 0.0
C622 C 0.78759 0.26282 0.24653 0.0
C623 C 0.80382 0.30724 0.24715 0.0
C624 C 0.81294 0.32847 0.26798 0.0
H625 H 0.83845 0.51638 0.16586 0.0
H626 H 0.84484 0.46853 0.19283 0.0
C627 C 0.80548 0.30553 0.28801 0.0
C628 C 0.80711 0.33102 0.2263 0.0
H629 H 0.87773 0.4144 0.19343 0.0
C630 C 0.769 0.32329 0.21596 0.0
C631 C 0.84684 0.36361 0.21793 0.0
C632 C 0.8886 0.37227 0.22834 0.0
C633 C 0.76933 0.34881 0.19804 0.0
C634 C 0.80909 0.38205 0.1898 0.0
C635 C 0.84736 0.38883 0.19972 0.0
C636 C 0.81107 0.41185 0.17201 0.0
C637 C 0.72694 0.34137 0.18903 0.0
C638 C 0.79165 0.39621 0.151 0.0
C639 C 0.78681 0.42313 0.13584 0.0
C640 C 0.80231 0.46658 0.14118 0.0
C641 C 0.82508 0.4829 0.16146 0.0
C642 C 0.82921 0.4557 0.17679 0.0
H643 H 0.70014 0.32218 0.20089 0.0
H644 H 0.72791 0.37223 0.18579 0.0
H645 H 0.71978 0.32344 0.17288 0.0
H646 H 0.77839 0.36267 0.14675 0.0
H647 H 0.76886 0.40914 0.12052 0.0
H648 H 0.51076 0.84157 0.63554 0.0
H649 H 0.47906 0.84831 0.60059 0.0
H650 H 0.51191 0.76181 0.5674 0.0
H651 H 0.54397 0.75484 0.60262 0.0
H652 H 0.52495 0.83774 0.54092 0.0
H653 H 0.36352 0.74353 0.57976 0.0
H654 H 0.40136 0.78808 0.59645 0.0
H655 H 0.41029 0.74403 0.59101 0.0
C656 C 0.51125 0.82394 0.62084 0.0
C657 C 0.52883 0.79686 0.62187 0.0
C658 C 0.49343 0.82808 0.60087 0.0
C659 C 0.49266 0.80503 0.58164 0.0
C660 C 0.51218 0.77969 0.58219 0.0
H661 H 0.35292 0.75956 0.45678 0.0
H662 H 0.40631 0.76767 0.48467 0.0
C663 C 0.53031 0.77568 0.60225 0.0
C664 C 0.46846 0.80511 0.56167 0.0
H665 H 0.36758 0.77786 0.54495 0.0
C666 C 0.49053 0.82445 0.54164 0.0
C667 C 0.42358 0.7874 0.5628 0.0
C668 C 0.39813 0.76422 0.58357 0.0
C669 C 0.46871 0.82775 0.52279 0.0
C670 C 0.42403 0.81118 0.52424 0.0
C671 C 0.40201 0.79111 0.54413 0.0
C672 C 0.39864 0.81303 0.50527 0.0
C673 C 0.49344 0.8496 0.50168 0.0
C674 C 0.37723 0.83639 0.50756 0.0
C675 C 0.34677 0.83196 0.49164 0.0
C676 C 0.33702 0.80375 0.47332 0.0
C677 C 0.36011 0.78199 0.47053 0.0
C678 C 0.39067 0.78658 0.48642 0.0
H679 H 0.5286 0.86697 0.50457 0.0
H680 H 0.48595 0.82518 0.48834 0.0
H681 H 0.48384 0.87259 0.49532 0.0
H682 H 0.38291 0.85676 0.52214 0.0
H683 H 0.32993 0.84958 0.49404 0.0
H684 H 0.67061 0.47018 0.96877 0.0
H685 H 0.63569 0.4408 0.93256 0.0
H686 H 0.7416 0.5452 0.89772 0.0
H687 H 0.77742 0.57409 0.93371 0.0
H688 H 0.61117 0.47489 0.89543 0.0
H689 H 0.73861 0.43722 0.87279 0.0
H690 H 0.73188 0.45161 0.90108 0.0
H691 H 0.75814 0.4924 0.87992 0.0
C692 C 0.68659 0.48681 0.95342 0.0
C693 C 0.7274 0.52375 0.95404 0.0
C694 C 0.66635 0.47021 0.93277 0.0
C695 C 0.68649 0.49049 0.91253 0.0
C696 C 0.72601 0.52869 0.9132 0.0
H697 H 0.6444 0.41164 0.77313 0.0
H698 H 0.66498 0.45585 0.80725 0.0
C699 C 0.74645 0.54506 0.93377 0.0
C700 C 0.66793 0.47007 0.89066 0.0
H701 H 0.68778 0.42568 0.84466 0.0
C702 C 0.62781 0.46413 0.88425 0.0
C703 C 0.6897 0.45581 0.87631 0.0
C704 C 0.73176 0.45915 0.8829 0.0
C705 C 0.60919 0.44483 0.86353 0.0
C706 C 0.63125 0.43098 0.84914 0.0
C707 C 0.67127 0.43692 0.85564 0.0
C708 C 0.61316 0.40827 0.82766 0.0
C709 C 0.56642 0.43977 0.85708 0.0
C710 C 0.57651 0.36741 0.82775 0.0
C711 C 0.56474 0.3421 0.80829 0.0
C712 C 0.58979 0.35718 0.78859 0.0
C713 C 0.62493 0.39908 0.78819 0.0
C714 C 0.63651 0.42442 0.80758 0.0
H715 H 0.55922 0.46181 0.86686 0.0
H716 H 0.56539 0.44585 0.83877 0.0
H717 H 0.54086 0.40641 0.8607 0.0
H718 H 0.5586 0.35403 0.8432 0.0
H719 H 0.5377 0.30977 0.80909 0.0
H720 H 0.31181 0.39071 0.03897 0.0
H721 H 0.38959 0.41763 0.03818 0.0
H722 H 0.40073 0.4882 0.97732 0.0
H723 H 0.32343 0.4616 0.97823 0.0
H724 H 0.44677 0.42045 0.99139 0.0
H725 H 0.47867 0.57089 0.03497 0.0
H726 H 0.43407 0.51952 0.04288 0.0
H727 H 0.43356 0.54321 0.01619 0.0
C728 C 0.331 0.41151 0.02532 0.0
C729 C 0.31193 0.42355 0.00835 0.0
C730 C 0.37514 0.42666 0.02482 0.0
C731 C 0.40059 0.45441 0.00753 0.0
C732 C 0.3814 0.46619 0.99054 0.0
H733 H 0.67142 0.5606 0.97509 0.0
H734 H 0.59361 0.52829 0.97293 0.0
C735 C 0.33734 0.45081 0.99096 0.0
C736 C 0.44768 0.47398 0.00808 0.0
H737 H 0.53785 0.56495 0.0245 0.0
C738 C 0.46688 0.45194 -0.00132 0.0
C739 C 0.47358 0.51492 0.0176 0.0
C740 C 0.45421 0.53892 0.02854 0.0
C741 C 0.51168 0.47002 -0.00133 0.0
C742 C 0.53765 0.51152 0.00798 0.0
C743 C 0.5181 0.53326 0.01734 0.0
C744 C 0.58505 0.533 0.00884 0.0
C745 C 0.53033 0.44409 0.98896 0.0
C746 C 0.60644 0.54925 0.02945 0.0
C747 C 0.65101 0.56913 0.03057 0.0
C748 C 0.67477 0.57214 0.01121 0.0
C749 C 0.65369 0.55814 0.99036 0.0
C750 C 0.60918 0.53896 0.98916 0.0
H751 H 0.50739 0.40914 0.99031 0.0
H752 H 0.53733 0.45192 0.97076 0.0
H753 H 0.56049 0.45124 -0.00249 0.0
H754 H 0.58857 0.54569 0.04482 0.0
H755 H 0.66674 0.58043 0.04673 0.0
H756 H 0.09279 0.66609 0.38291 0.0
H757 H 0.04284 0.5886 0.38108 0.0
H758 H 0.04936 0.5938 0.30832 0.0
H759 H 0.09909 0.6711 0.31002 0.0
H760 H 0.96501 0.53842 0.32642 0.0
H761 H 0.0892 0.50788 0.36295 0.0
H762 H 0.07954 0.54553 0.37815 0.0
H763 H 0.10111 0.55787 0.34986 0.0
C764 C 0.08321 0.65069 0.36656 0.0
C765 C 0.10021 0.67435 0.34664 0.0
C766 C 0.05478 0.60655 0.36552 0.0
C767 C 0.04308 0.58551 0.34456 0.0
C768 C 0.05812 0.60949 0.32464 0.0
H769 H 0.88606 0.31425 0.30883 0.0
H770 H 0.93228 0.39201 0.30658 0.0
C771 C 0.08644 0.65361 0.32566 0.0
C772 C 0.01757 0.53818 0.34348 0.0
H773 H 0.02077 0.44825 0.35815 0.0
C774 C 0.97701 0.51856 0.33336 0.0
C775 C 0.03383 0.5125 0.35201 0.0
C776 C 0.0785 0.53184 0.36121 0.0
C777 C 0.95153 0.47368 0.33243 0.0
C778 C 0.96741 0.4481 0.34182 0.0
C779 C 0.00839 0.4679 0.35135 0.0
C780 C 0.94196 0.40079 0.3427 0.0
C781 C 0.90791 0.45451 0.32161 0.0
C782 C 0.93468 0.37971 0.36359 0.0
C783 C 0.90928 0.33522 0.36485 0.0
C784 C 0.89018 0.31135 0.34531 0.0
C785 C 0.89992 0.3321 0.32423 0.0
C786 C 0.92576 0.37653 0.32293 0.0
H787 H 0.8947 0.47651 0.32286 0.0
H788 H 0.91088 0.44896 0.30341 0.0
H789 H 0.88479 0.42342 0.32933 0.0
H790 H 0.94759 0.39782 0.37902 0.0
H791 H 0.90282 0.31973 0.38121 0.0
H792 H 0.42109 0.09985 0.64234 0.0
H793 H 0.45399 0.05458 0.64159 0.0
H794 H 0.4214 0.02337 0.7119 0.0
H795 H 0.38723 0.06744 0.71238 0.0
H796 H 0.52243 0.07022 0.6647 0.0
H797 H 0.39257 0.90866 0.68872 0.0
H798 H 0.38205 0.95085 0.68065 0.0
H799 H 0.39823 0.94799 0.70909 0.0
C800 C 0.41978 0.08219 0.65741 0.0
C801 C 0.40231 0.08753 0.67753 0.0
C802 C 0.43884 0.05657 0.65702 0.0
C803 C 0.4402 0.03543 0.67667 0.0
C804 C 0.42005 0.03851 0.69638 0.0
H805 H 0.57355 0.90322 0.71884 0.0
H806 H 0.54219 0.94985 0.71743 0.0
C807 C 0.40075 0.06391 0.6967 0.0
C808 C 0.46628 0.01392 0.67721 0.0
H809 H 0.46428 0.92163 0.69272 0.0
C810 C 0.50954 0.03755 0.6706 0.0
C811 C 0.4496 0.97132 0.68497 0.0
C812 C 0.40296 0.94314 0.69103 0.0
C813 C 0.53667 0.02006 0.67194 0.0
C814 C 0.52006 0.97778 0.67999 0.0
C815 C 0.47693 0.95413 0.6866 0.0
C816 C 0.54621 0.95656 0.68108 0.0
C817 C 0.58308 0.04716 0.66521 0.0
C818 C 0.56029 0.94624 0.66115 0.0
C819 C 0.57836 0.91973 0.66191 0.0
C820 C 0.58203 0.9027 0.68259 0.0
C821 C 0.57087 0.91571 0.70266 0.0
C822 C 0.55282 0.94219 0.70188 0.0
H823 H 0.59311 0.08177 0.66436 0.0
H824 H 0.60416 0.04286 0.67731 0.0
H825 H 0.58788 0.03698 0.64827 0.0
H826 H 0.55498 0.95658 0.6449 0.0
H827 H 0.58646 0.91009 0.64617 0.0
H828 H 0.55496 0.67517 0.63255 0.0
H829 H 0.53262 0.59892 0.62794 0.0
H830 H 0.52913 0.58429 0.70035 0.0
H831 H 0.55208 0.66014 0.70501 0.0
H832 H 0.56829 0.54427 0.67742 0.0
H833 H 0.4096 0.50086 0.64057 0.0
H834 H 0.45588 0.54242 0.62635 0.0
H835 H 0.44301 0.55161 0.65434 0.0
C836 C 0.54986 0.65568 0.64743 0.0
C837 C 0.55472 0.67333 0.66913 0.0
C838 C 0.53675 0.61215 0.64479 0.0
C839 C 0.52844 0.58583 0.66382 0.0
C840 C 0.53505 0.60395 0.68544 0.0
H841 H 0.43637 0.32729 0.70554 0.0
H842 H 0.46303 0.404 0.70149 0.0
C843 C 0.54806 0.64725 0.68808 0.0
C844 C 0.51222 0.5392 0.66156 0.0
H845 H 0.4241 0.44465 0.6465 0.0
C846 C 0.53691 0.5225 0.67049 0.0
C847 C 0.47135 0.51093 0.65241 0.0
C848 C 0.44314 0.52712 0.64299 0.0
C849 C 0.52152 0.47821 0.67094 0.0
C850 C 0.47992 0.44981 0.66267 0.0
C851 C 0.45584 0.46653 0.65295 0.0
C852 C 0.46031 0.4027 0.66496 0.0
C853 C 0.54996 0.46224 0.68033 0.0
C854 C 0.44771 0.37614 0.64582 0.0
C855 C 0.4319 0.33202 0.6481 0.0
C856 C 0.42855 0.31393 0.66958 0.0
C857 C 0.43919 0.34037 0.68875 0.0
C858 C 0.45467 0.38426 0.68646 0.0
H859 H 0.58432 0.48736 0.67953 0.0
H860 H 0.54165 0.45333 0.69833 0.0
H861 H 0.54556 0.4335 0.67103 0.0
H862 H 0.45139 0.38973 0.62909 0.0
H863 H 0.42395 0.31246 0.63303 0.0
H864 H 0.10532 0.42582 0.95711 0.0
H865 H 0.05586 0.45406 0.9527 0.0
H866 H 0.03577 0.44653 0.02476 0.0
H867 H 0.08419 0.41824 0.02927 0.0
H868 H 0.96248 0.42159 0.97433 0.0
H869 H 0.09657 0.57924 0.00247 0.0
H870 H 0.10524 0.53802 0.9904 0.0
H871 H 0.08704 0.53342 0.01905 0.0
C872 C 0.08925 0.429 0.97185 0.0
C873 C 0.09893 0.42048 0.99351 0.0
C874 C 0.06133 0.44529 0.96935 0.0
C875 C 0.04299 0.45291 0.98848 0.0
C876 C 0.05008 0.44123 0.00987 0.0
H877 H 0.896 0.5615 0.03475 0.0
H878 H 0.94696 0.53626 0.02865 0.0
C879 C 0.07777 0.42513 0.01237 0.0
C880 C 0.01949 0.47653 0.9868 0.0
H881 H 0.02711 0.57178 0.00155 0.0
C882 C 0.97668 0.45468 0.9798 0.0
C883 C 0.0383 0.51948 0.99428 0.0
C884 C 0.08442 0.54417 0.00185 0.0
C885 C 0.95152 0.47438 0.98088 0.0
C886 C 0.97011 0.51705 0.98883 0.0
C887 C 0.01324 0.5392 -0.00471 0.0
C888 C 0.94414 0.53784 0.99219 0.0
C889 C 0.90472 0.44887 0.97462 0.0
C890 C 0.92726 0.54865 0.97366 0.0
C891 C 0.89834 0.56327 0.97708 0.0
C892 C 0.8858 0.56695 -0.00091 0.0
C893 C 0.90485 0.55858 0.01761 0.0
C894 C 0.93393 0.54424 0.01417 0.0
H895 H 0.89387 0.41438 0.97196 0.0
H896 H 0.88465 0.45169 0.98804 0.0
H897 H 0.89924 0.46189 0.95879 0.0
H898 H 0.93526 0.54428 0.95659 0.0
H899 H 0.88411 0.56941 0.96249 0.0
H900 H 0.31131 0.89368 0.299 0.0
H901 H 0.38822 0.94411 0.29507 0.0
H902 H 0.40116 0.95265 0.36755 0.0
H903 H 0.32447 0.90251 0.37169 0.0
H904 H 0.45029 0.03253 0.31829 0.0
H905 H 0.47015 0.893 0.33998 0.0
H906 H 0.42036 0.887 0.32953 0.0
H907 H 0.43592 0.90266 0.35829 0.0
C908 C 0.33024 0.90754 0.31408 0.0
C909 C 0.31217 0.89382 0.33566 0.0
C910 C 0.37413 0.93608 0.31179 0.0
C911 C 0.40008 0.95121 0.33103 0.0
C912 C 0.38145 0.94076 0.35255 0.0
H913 H 0.66009 0.09014 0.37007 0.0
H914 H 0.58329 0.04032 0.366 0.0
C915 C 0.33773 0.91226 0.35487 0.0
C916 C 0.44701 0.97383 0.32886 0.0
H917 H 0.53343 0.96112 0.33828 0.0
C918 C 0.4686 0.01696 0.32232 0.0
C919 C 0.47037 0.95302 0.33418 0.0
C920 C 0.44816 0.90626 0.34074 0.0
C921 C 0.51349 0.0405 0.32185 0.0
C922 C 0.53689 0.01994 0.32768 0.0
C923 C 0.5152 0.97651 0.33367 0.0
C924 C 0.5839 0.04421 0.32953 0.0
C925 C 0.53572 0.08765 0.31616 0.0
C926 C 0.60964 0.06107 0.31026 0.0
C927 C 0.65356 0.08934 0.31251 0.0
C928 C 0.67198 0.10119 0.33409 0.0
C929 C 0.64654 0.08177 0.35326 0.0
C930 C 0.60279 0.05337 0.35097 0.0
H931 H 0.51292 0.09987 0.31486 0.0
H932 H 0.56002 0.10649 0.32922 0.0
H933 H 0.55266 0.09321 0.29976 0.0
H934 H 0.59544 0.05385 0.29358 0.0
H935 H 0.67244 0.10395 0.29747 0.0
H936 H 0.28868 0.14031 0.73356 0.0
H937 H 0.2664 0.15731 0.76963 0.0
H938 H 0.38359 0.27926 0.77145 0.0
H939 H 0.40569 0.26231 0.7354 0.0
H940 H 0.32035 0.18536 0.81359 0.0
H941 H 0.27879 0.30306 0.77759 0.0
H942 H 0.27959 0.26197 0.76039 0.0
H943 H 0.32892 0.30686 0.76973 0.0
C944 C 0.30952 0.17065 0.74175 0.0
C945 C 0.34887 0.19999 0.73197 0.0
C946 C 0.29694 0.18028 0.76229 0.0
C947 C 0.32337 0.21955 0.77313 0.0
C948 C 0.36275 0.24886 0.7633 0.0
H949 H 0.2383 0.31435 0.88794 0.0
H950 H 0.28667 0.31198 0.85937 0.0
C951 C 0.37541 0.23911 0.74283 0.0
C952 C 0.30929 0.22985 0.7946 0.0
H953 H 0.26495 0.28684 0.81617 0.0
C954 C 0.30857 0.20781 0.81426 0.0
C955 C 0.2948 0.25977 0.79546 0.0
C956 C 0.29527 0.28433 0.77472 0.0
C957 C 0.29232 0.21389 0.83467 0.0
C958 C 0.27516 0.24175 0.83522 0.0
C959 C 0.27792 0.26537 0.81577 0.0
C960 C 0.24989 0.24316 0.8548 0.0
C961 C 0.29351 0.19015 0.85539 0.0
C962 C 0.21354 0.20533 0.862 0.0
C963 C 0.18616 0.2066 0.87831 0.0
C964 C 0.19409 0.2458 0.88767 0.0
C965 C 0.23146 0.2836 0.88118 0.0
C966 C 0.25897 0.28231 0.86476 0.0
H967 H 0.32083 0.18404 0.85464 0.0
H968 H 0.29618 0.20824 0.87109 0.0
H969 H 0.26362 0.15859 0.85624 0.0
H970 H 0.20519 0.17486 0.85427 0.0
H971 H 0.15789 0.17688 0.88308 0.0
H972 H 0.02192 0.21738 0.24122 0.0
H973 H 0.06356 0.25302 0.20736 0.0
H974 H 0.94911 0.23569 0.17467 0.0
H975 H 0.90728 0.20017 0.20852 0.0
H976 H 0.05296 0.21785 0.1654 0.0
H977 H 0.0332 0.3609 0.16127 0.0
H978 H 0.02011 0.32785 0.18622 0.0
H979 H 0.98332 0.31133 0.1629 0.0
C980 C 0.00563 0.2213 0.22685 0.0
C981 C 0.96123 0.20581 0.22755 0.0
C982 C 0.02951 0.24185 0.20755 0.0
C983 C 0.00961 0.2475 0.18854 0.0
C984 C 0.9654 0.23263 0.18929 0.0
H985 H 0.08443 0.33403 0.05107 0.0
H986 H 0.04704 0.30461 0.08682 0.0
C987 C 0.94149 0.21221 0.20864 0.0
C988 C 0.0346 0.26626 0.16748 0.0
H989 H 0.06243 0.34605 0.1286 0.0
C990 C 0.05531 0.24609 0.15745 0.0
C991 C 0.03761 0.30308 0.15708 0.0
C992 C 0.01773 0.32733 0.16752 0.0
C993 C 0.07794 0.26096 0.13703 0.0
C994 C 0.08058 0.29748 0.12652 0.0
C995 C 0.06026 0.31797 0.13665 0.0
C996 C 0.10349 0.31442 0.10477 0.0
C997 C 0.09775 0.23667 0.12655 0.0
C998 C 0.14764 0.32944 0.10291 0.0
C999 C 0.16902 0.34596 0.08241 0.0
C1000 C 0.14676 0.34837 0.06355 0.0
C1001 C 0.10248 0.33274 0.06536 0.0
C1002 C 0.08111 0.31614 0.0858 0.0
H1003 H 0.08394 0.20381 0.13363 0.0
H1004 H 0.09323 0.23423 0.10795 0.0
H1005 H 0.13267 0.254 0.13003 0.0
H1006 H 0.16568 0.32893 0.11739 0.0
H1007 H 0.20305 0.35728 0.08135 0.0
H1008 H 0.66336 0.89535 0.53773 0.0
H1009 H 0.67055 0.94368 0.50657 0.0
H1010 H 0.78198 0.04636 0.53868 0.0
H1011 H 0.7751 -0.00206 0.5696 0.0
H1012 H 0.68045 0.03004 0.50176 0.0
H1013 H 0.82556 0.02131 0.47848 0.0
H1014 H 0.78633 0.98494 0.49844 0.0
H1015 H 0.82491 0.03852 0.50691 0.0
C1016 C 0.68836 0.92868 0.53846 0.0
C1017 C 0.71854 0.94323 0.55601 0.0
C1018 C 0.69258 0.95618 0.52066 0.0
C1019 C 0.72719 -0.00161 0.52018 0.0
C1020 C 0.75531 0.01379 0.53865 0.0
H1021 H 0.83309 0.19602 0.41629 0.0
H1022 H 0.81544 0.15592 0.45201 0.0
C1023 C 0.7512 0.98631 0.55635 0.0
C1024 C 0.73711 0.02445 0.49928 0.0
H1025 H 0.81073 0.06713 0.45661 0.0
C1026 C 0.7089 0.03821 0.49189 0.0
C1027 C 0.77409 0.03468 0.4863 0.0
C1028 C 0.80435 0.01885 0.49274 0.0
C1029 C 0.7172 0.06255 0.472 0.0
C1030 C 0.75433 0.07294 0.45921 0.0
C1031 C 0.78244 0.05924 0.46659 0.0
C1032 C 0.76426 0.09732 0.43781 0.0
C1033 C 0.6865 0.07725 0.46473 0.0
C1034 C 0.74194 0.07722 0.418 0.0
C1035 C 0.75223 0.09988 0.39762 0.0
C1036 C 0.7846 0.14315 0.39685 0.0
C1037 C 0.80743 0.16296 0.4166 0.0
C1038 C 0.79745 0.14013 0.43693 0.0
H1039 H 0.66277 0.07219 0.47812 0.0
H1040 H 0.70431 0.11175 0.46016 0.0
H1041 H 0.66897 0.05912 0.44946 0.0
H1042 H 0.71668 0.04397 0.4183 0.0
H1043 H 0.73427 0.08386 0.38256 0.0
H1044 H 0.61228 0.7208 0.7291 0.0
H1045 H 0.64865 0.71522 0.76264 0.0
H1046 H 0.70554 0.85148 0.77365 0.0
H1047 H 0.67106 0.85733 0.73918 0.0
H1048 H 0.7614 0.82876 0.78253 0.0
H1049 H 0.61153 0.71229 0.82551 0.0
H1050 H 0.61846 0.69025 0.79976 0.0
H1051 H 0.61119 0.73622 0.7989 0.0
C1052 C 0.63265 0.7495 0.73871 0.0
C1053 C 0.6386 0.78939 0.73183 0.0
C1054 C 0.65313 0.74627 0.75798 0.0
C1055 C 0.67865 0.78264 0.77123 0.0
C1056 C 0.68561 0.82283 0.76391 0.0
H1057 H 0.80478 0.8206 0.90163 0.0
H1058 H 0.77067 0.82779 0.8675 0.0
C1059 C 0.66598 0.82622 0.74425 0.0
C1060 C 0.69847 0.77885 0.79252 0.0
H1061 H 0.67688 0.72274 0.84202 0.0
C1062 C 0.74276 0.80585 0.79561 0.0
C1063 C 0.67423 0.74895 0.80971 0.0
C1064 C 0.62619 0.72065 0.8084 0.0
C1065 C 0.76349 0.80322 0.8151 0.0
C1066 C 0.73939 0.77276 0.83191 0.0
C1067 C 0.69522 0.74589 0.82897 0.0
C1068 C 0.75963 0.76822 0.85266 0.0
C1069 C 0.81119 0.83249 0.8175 0.0
C1070 C 0.76408 0.73202 0.8557 0.0
C1071 C 0.784 0.72799 0.87505 0.0
C1072 C 0.79945 0.75994 0.89187 0.0
C1073 C 0.79406 0.79579 0.88888 0.0
C1074 C 0.77441 0.7999 0.86944 0.0
H1075 H 0.82625 0.84968 0.80153 0.0
H1076 H 0.81743 0.85666 0.8308 0.0
H1077 H 0.82676 0.81395 0.8228 0.0
H1078 H 0.75277 0.70721 0.8429 0.0
H1079 H 0.78805 0.70025 0.87658 0.0
H1080 H 0.08204 0.7837 0.21027 0.0
H1081 H 0.04362 0.74956 0.17536 0.0
H1082 H 0.9286 0.74087 0.20269 0.0
H1083 H 0.96633 0.77419 0.23784 0.0
H1084 H 0.93484 0.66003 0.17588 0.0
H1085 H 0.98783 0.81785 0.13439 0.0
H1086 H 0.02349 0.81072 0.15297 0.0
H1087 H 0.97766 0.81115 0.16442 0.0
C1088 C 0.04838 0.77389 0.20904 0.0
C1089 C 0.02732 0.78189 0.22684 0.0
C1090 C 0.0266 0.75459 0.18905 0.0
C1091 C 0.98345 0.74292 0.18655 0.0
C1092 C 0.96198 0.74979 0.20439 0.0
H1093 H 0.78824 0.62343 0.08403 0.0
H1094 H 0.82877 0.64998 0.11929 0.0
C1095 C 0.98369 0.76911 0.22437 0.0
C1096 C 0.96117 0.72539 0.16491 0.0
H1097 H 0.94193 0.75582 0.11369 0.0
C1098 C 0.93645 0.68084 0.16221 0.0
C1099 C 0.96351 0.7528 0.14724 0.0
C1100 C 0.98947 0.80088 0.14968 0.0
C1101 C 0.91364 0.66292 0.14216 0.0
C1102 C 0.91533 0.69037 0.12461 0.0
C1103 C 0.94065 0.73493 0.12723 0.0
C1104 C 0.89072 0.67349 0.10346 0.0
C1105 C 0.8877 0.61482 0.13991 0.0
C1106 C 0.9122 0.67866 0.08292 0.0
C1107 C 0.88907 0.6627 0.06291 0.0
C1108 C 0.84403 0.64154 0.06311 0.0
C1109 C 0.82272 0.63782 0.08358 0.0
C1110 C 0.84584 0.65333 0.10365 0.0
H1111 H 0.89765 0.59837 0.15234 0.0
H1112 H 0.85355 0.60449 0.143 0.0
H1113 H 0.8905 0.60441 0.12263 0.0
H1114 H 0.94686 0.69455 0.08243 0.0
H1115 H 0.90647 0.66637 0.04735 0.0
H1116 H 0.31986 0.07214 0.55054 0.0
H1117 H 0.30955 0.01891 0.52141 0.0
H1118 H 0.17683 0.98408 0.51542 0.0
H1119 H 0.18678 0.0367 0.54439 0.0
H1120 H 0.23952 0.92202 0.51566 0.0
H1121 H 0.23952 0.03559 0.45202 0.0
H1122 H 0.26305 0.0526 0.47969 0.0
H1123 H 0.20594 0.02576 0.4764 0.0
C1124 C 0.28827 0.05228 0.54342 0.0
C1125 C 0.25423 0.05889 0.54951 0.0
C1126 C 0.28246 0.02206 0.52676 0.0
C1127 C 0.24258 -0.00189 0.51608 0.0
C1128 C 0.20795 0.00261 0.52329 0.0
H1129 H 0.13933 0.842 0.39644 0.0
H1130 H 0.15197 0.88405 0.43118 0.0
C1131 C 0.21371 0.03269 0.53981 0.0
C1132 C 0.23753 0.97126 0.49605 0.0
H1133 H 0.22035 0.96616 0.43914 0.0
C1134 C 0.23566 0.93168 0.49888 0.0
C1135 C 0.23248 0.98406 0.47424 0.0
C1136 C 0.23563 0.02695 0.47022 0.0
C1137 C 0.22759 0.90394 0.48045 0.0
C1138 C 0.22185 0.91649 0.45865 0.0
C1139 C 0.22442 0.95641 0.45586 0.0
C1140 C 0.21318 0.88892 0.43839 0.0
C1141 C 0.22414 0.86101 0.48453 0.0
C1142 C 0.24355 0.87817 0.43074 0.0
C1143 C 0.2364 0.85454 0.41085 0.0
C1144 C 0.19867 0.84089 0.39843 0.0
C1145 C 0.16844 0.85186 0.40591 0.0
C1146 C 0.17562 0.8757 0.42575 0.0
H1147 H 0.21891 0.8519 0.50267 0.0
H1148 H 0.19749 0.83559 0.47456 0.0
H1149 H 0.25443 0.86265 0.47914 0.0
H1150 H 0.27329 0.88903 0.43981 0.0
H1151 H 0.26088 0.8479 0.40487 0.0
loop_
_geom_bond_atom_site_label_1
_geom_bond_atom_site_label_2
_geom_bond_distance
_geom_bond_site_symmetry_2
_ccdc_geom_bond_type
Tb0 N29 2.617 . S
Tb0 N35 2.572 1_556 S
Tb0 O44 2.465 . S
Tb0 O45 2.387 1_556 S
Tb0 O47 2.428 . S
Tb0 O48 2.308 1_556 S
Tb0 O52 2.349 . S
Tb0 O55 2.393 . S
Tb0 C64 2.802 . S
C1 N2 1.379 . S
C1 C4 1.416 . S
C1 C8 1.424 . S
N2 C1 1.379 . S
N2 C5 1.334 . S
N2 Tb11 2.617 . S
C3 C5 1.390 . S
C3 C6 1.339 . S
C3 H23 0.930 . S
C4 C1 1.416 . S
C4 C6 1.416 . S
C4 C10 1.448 . S
C5 N2 1.334 . S
C5 C3 1.390 . S
C5 H16 0.930 . S
C6 C3 1.339 . S
C6 C4 1.416 . S
C6 H27 0.930 . S
C7 C8 1.413 . S
C7 C9 1.432 . S
C7 C13 1.416 1_554 S
C8 C1 1.424 . S
C8 C7 1.413 . S
C8 N12 1.361 . S
C9 C7 1.432 . S
C9 C10 1.340 . S
C9 H24 0.913 1_554 S
C10 C4 1.448 . S
C10 C9 1.340 . S
C10 H25 0.930 . S
Tb11 N2 2.617 . S
Tb11 N12 2.572 . S
Tb11 O46 2.349 . S
Tb11 O49 2.393 . S
Tb11 O50 2.465 . S
Tb11 O51 2.387 1_554 S
Tb11 O53 2.428 . S
Tb11 O54 2.308 . S
Tb11 C75 2.802 . S
N12 C8 1.361 . S
N12 Tb11 2.572 . S
N12 C14 1.340 . S
C13 C7 1.416 1_556 S
C13 C15 1.326 1_556 S
C13 H21 0.931 . S
C14 N12 1.340 . S
C14 C15 1.427 . S
C14 H20 0.930 . S
C15 C13 1.326 1_554 S
C15 C14 1.427 . S
C15 H17 0.918 1_554 S
H16 C5 0.930 . S
H17 C15 0.918 1_556 S
H18 C33 0.930 . S
H19 C40 0.929 . S
H20 C14 0.930 . S
H21 C13 0.931 . S
H22 C36 0.930 . S
H23 C3 0.930 . S
H24 C9 0.913 1_556 S
H25 C10 0.930 . S
H26 C31 0.930 . S
H27 C6 0.930 . S
H28 C39 0.931 . S
N29 Tb0 2.617 . S
N29 C30 1.379 1_556 S
N29 C33 1.334 . S
C30 N29 1.379 1_554 S
C30 C32 1.416 . S
C30 C38 1.424 . S
C31 H26 0.930 . S
C31 C33 1.390 . S
C31 C34 1.339 1_556 S
C32 C30 1.416 . S
C32 C34 1.416 . S
C32 C65 1.448 . S
C33 H18 0.930 . S
C33 N29 1.334 . S
C33 C31 1.390 . S
C34 C31 1.339 1_554 S
C34 C32 1.416 . S
C34 H41 0.930 1_455 S
N35 Tb0 2.572 1_554 S
N35 C36 1.340 . S
N35 C38 1.361 . S
C36 H22 0.930 . S
C36 N35 1.340 . S
C36 C40 1.407 . S
C37 C38 1.413 . S
C37 C39 1.416 . S
C37 C66 1.427 . S
C38 C30 1.424 . S
C38 N35 1.361 . S
C38 C37 1.413 . S
C39 H28 0.931 . S
C39 C37 1.416 . S
C39 C40 1.332 . S
C40 H19 0.929 . S
C40 C36 1.407 . S
C40 C39 1.332 . S
H41 C34 0.930 1_655 S
H42 C65 0.930 . S
H43 C66 0.929 . S
O44 Tb0 2.465 . S
O44 C64 1.264 . S
O45 Tb0 2.387 1_554 S
O45 C56 1.264 . S
O46 Tb11 2.349 . S
O46 C56 1.243 . S
O47 Tb0 2.428 . S
O47 C64 1.256 . S
O48 Tb0 2.308 1_554 S
O48 C63 1.266 . S
O49 Tb11 2.393 . S
O49 C63 1.248 . S
O50 Tb11 2.465 . S
O50 C75 1.264 . S
O51 Tb11 2.387 1_556 S
O51 C67 1.264 . S
O52 Tb0 2.349 . S
O52 C67 1.243 . S
O53 Tb11 2.428 . S
O53 C75 1.256 . S
O54 Tb11 2.308 . S
O54 C74 1.266 . S
O55 Tb0 2.393 . S
O55 C74 1.248 1_556 S
C56 O45 1.264 . S
C56 O46 1.243 . S
C57 C60 1.399 . S
C57 C62 1.383 . S
C57 C64 1.496 . S
C58 C59 1.399 . S
C58 C62 1.389 . S
C59 C58 1.399 . S
C59 C61 1.380 . S
C59 H76 0.929 . S
C60 C57 1.399 . S
C60 C61 1.392 . S
C60 H77 0.929 . S
C61 C59 1.380 . S
C61 C60 1.392 . S
C61 H78 0.929 . S
C62 C57 1.383 . S
C62 C58 1.389 . S
C62 H79 0.931 . S
C63 O48 1.266 . S
C63 O49 1.248 . S
C64 Tb0 2.802 . S
C64 O44 1.264 . S
C64 O47 1.256 . S
C64 C57 1.496 . S
C65 C32 1.448 . S
C65 H42 0.930 . S
C65 C66 1.328 . S
C66 C37 1.427 . S
C66 H43 0.929 . S
C66 C65 1.328 . S
C67 O51 1.264 . S
C67 O52 1.243 . S
C68 C71 1.399 . S
C68 C72 1.383 . S
C68 C75 1.496 . S
C69 C70 1.399 . S
C69 C72 1.389 . S
C70 C69 1.399 . S
C70 C73 1.380 . S
C70 H80 0.929 . S
C71 C68 1.399 . S
C71 C73 1.392 . S
C71 H81 0.929 . S
C72 C68 1.383 . S
C72 C69 1.389 . S
C72 H82 0.931 . S
C73 C70 1.380 . S
C73 C71 1.392 . S
C73 H83 0.929 . S
C74 O54 1.266 . S
C74 O55 1.248 1_554 S
C75 Tb11 2.802 . S
C75 O50 1.264 . S
C75 O53 1.256 . S
C75 C68 1.496 . S
H76 C59 0.929 . S
H77 C60 0.929 . S
H78 C61 0.929 . S
H79 C62 0.931 . S
H80 C70 0.929 . S
H81 C71 0.929 . S
H82 C72 0.931 . S
H83 C73 0.929 . S
Tb84 N113 2.617 . S
Tb84 N119 2.572 . S
Tb84 O128 2.465 . S
Tb84 O129 2.387 . S
Tb84 O131 2.428 . S
Tb84 O132 2.308 . S
Tb84 O136 2.349 . S
Tb84 O139 2.393 . S
Tb84 C148 2.802 . S
C85 N86 1.379 . S
C85 C88 1.416 . S
C85 C92 1.424 . S
N86 C85 1.379 . S
N86 C89 1.334 . S
N86 Tb95 2.617 . S
C87 C89 1.390 . S
C87 C90 1.339 . S
C87 H107 0.930 . S
C88 C85 1.416 . S
C88 C90 1.416 . S
C88 C94 1.448 . S
C89 N86 1.334 . S
C89 C87 1.390 . S
C89 H100 0.930 . S
C90 C87 1.339 . S
C90 C88 1.416 . S
C90 H111 0.930 . S
C91 C92 1.413 . S
C91 C93 1.427 . S
C91 C97 1.416 . S
C92 C85 1.424 . S
C92 C91 1.413 . S
C92 N96 1.361 . S
C93 C91 1.427 . S
C93 C94 1.328 . S
C93 H108 0.929 . S
C94 C88 1.448 . S
C94 C93 1.328 . S
C94 H109 0.930 . S
Tb95 N86 2.617 . S
Tb95 N96 2.572 . S
Tb95 O130 2.349 . S
Tb95 O133 2.393 . S
Tb95 O134 2.465 . S
Tb95 O135 2.387 . S
Tb95 O137 2.428 . S
Tb95 O138 2.308 . S
Tb95 C159 2.802 . S
N96 C92 1.361 . S
N96 Tb95 2.572 . S
N96 C98 1.340 . S
C97 C91 1.416 . S
C97 C99 1.332 . S
C97 H105 0.931 . S
C98 N96 1.340 . S
C98 C99 1.407 . S
C98 H104 0.930 . S
C99 C97 1.332 . S
C99 C98 1.407 . S
C99 H101 0.929 . S
H100 C89 0.930 . S
H101 C99 0.929 . S
H102 C117 0.930 . S
H103 C124 0.929 . S
H104 C98 0.930 . S
H105 C97 0.931 . S
H106 C120 0.930 . S
H107 C87 0.930 . S
H108 C93 0.929 . S
H109 C94 0.930 . S
H110 C115 0.930 . S
H111 C90 0.930 . S
H112 C123 0.931 . S
N113 Tb84 2.617 . S
N113 C114 1.379 . S
N113 C117 1.334 . S
C114 N113 1.379 . S
C114 C116 1.416 . S
C114 C122 1.424 . S
C115 H110 0.930 . S
C115 C117 1.390 . S
C115 C118 1.339 . S
C116 C114 1.416 . S
C116 C118 1.416 . S
C116 C149 1.448 . S
C117 H102 0.930 . S
C117 N113 1.334 . S
C117 C115 1.390 . S
C118 C115 1.339 . S
C118 C116 1.416 . S
C118 H125 0.930 1_545 S
N119 Tb84 2.572 . S
N119 C120 1.340 . S
N119 C122 1.361 . S
C120 H106 0.930 . S
C120 N119 1.340 . S
C120 C124 1.407 . S
C121 C122 1.413 . S
C121 C123 1.416 . S
C121 C150 1.427 . S
C122 C114 1.424 . S
C122 N119 1.361 . S
C122 C121 1.413 . S
C123 H112 0.931 . S
C123 C121 1.416 . S
C123 C124 1.332 . S
C124 H103 0.929 . S
C124 C120 1.407 . S
C124 C123 1.332 . S
H125 C118 0.930 1_565 S
H126 C149 0.930 . S
H127 C150 0.929 . S
O128 Tb84 2.465 . S
O128 C148 1.264 . S
O129 Tb84 2.387 . S
O129 C140 1.264 . S
O130 Tb95 2.349 . S
O130 C140 1.243 . S
O131 Tb84 2.428 . S
O131 C148 1.256 . S
O132 Tb84 2.308 . S
O132 C147 1.266 . S
O133 Tb95 2.393 . S
O133 C147 1.248 . S
O134 Tb95 2.465 . S
O134 C159 1.264 . S
O135 Tb95 2.387 . S
O135 C151 1.264 . S
O136 Tb84 2.349 . S
O136 C151 1.243 . S
O137 Tb95 2.428 . S
O137 C159 1.256 . S
O138 Tb95 2.308 . S
O138 C158 1.266 . S
O139 Tb84 2.393 . S
O139 C158 1.248 . S
C140 O129 1.264 . S
C140 O130 1.243 . S
C141 C144 1.399 . S
C141 C146 1.383 . S
C141 C148 1.496 . S
C142 C143 1.399 . S
C142 C146 1.389 . S
C143 C142 1.399 . S
C143 C145 1.380 . S
C143 H160 0.929 . S
C144 C141 1.399 . S
C144 C145 1.392 . S
C144 H161 0.929 . S
C145 C143 1.380 . S
C145 C144 1.392 . S
C145 H162 0.929 . S
C146 C141 1.383 . S
C146 C142 1.389 . S
C146 H163 0.931 . S
C147 O132 1.266 . S
C147 O133 1.248 . S
C148 Tb84 2.802 . S
C148 O128 1.264 . S
C148 O131 1.256 . S
C148 C141 1.496 . S
C149 C116 1.448 . S
C149 H126 0.930 . S
C149 C150 1.328 . S
C150 C121 1.427 . S
C150 H127 0.929 . S
C150 C149 1.328 . S
C151 O135 1.264 . S
C151 O136 1.243 . S
C152 C155 1.399 . S
C152 C156 1.383 . S
C152 C159 1.496 . S
C153 C154 1.399 . S
C153 C156 1.389 . S
C154 C153 1.399 . S
C154 C157 1.380 . S
C154 H164 0.929 . S
C155 C152 1.399 . S
C155 C157 1.392 . S
C155 H165 0.929 . S
C156 C152 1.383 . S
C156 C153 1.389 . S
C156 H166 0.931 . S
C157 C154 1.380 . S
C157 C155 1.392 . S
C157 H167 0.929 . S
C158 O138 1.266 . S
C158 O139 1.248 . S
C159 Tb95 2.802 . S
C159 O134 1.264 . S
C159 O137 1.256 . S
C159 C152 1.496 . S
H160 C143 0.929 . S
H161 C144 0.929 . S
H162 C145 0.929 . S
H163 C146 0.931 . S
H164 C154 0.929 . S
H165 C155 0.929 . S
H166 C156 0.931 . S
H167 C157 0.929 . S
Tb168 N197 2.617 . S
Tb168 N203 2.572 . S
Tb168 O212 2.465 . S
Tb168 O213 2.387 . S
Tb168 O215 2.428 . S
Tb168 O216 2.308 . S
Tb168 O220 2.349 . S
Tb168 O223 2.393 . S
Tb168 C232 2.802 . S
C169 N170 1.379 . S
C169 C172 1.416 . S
C169 C176 1.424 . S
N170 C169 1.379 . S
N170 C173 1.334 . S
N170 Tb179 2.617 . S
C171 C173 1.390 . S
C171 C174 1.339 . S
C171 H191 0.930 . S
C172 C169 1.416 . S
C172 C174 1.416 . S
C172 C178 1.448 . S
C173 N170 1.334 . S
C173 C171 1.390 . S
C173 H184 0.930 . S
C174 C171 1.339 . S
C174 C172 1.416 . S
C174 H195 0.930 . S
C175 C176 1.413 . S
C175 C177 1.427 . S
C175 C181 1.416 . S
C176 C169 1.424 . S
C176 C175 1.413 . S
C176 N180 1.361 . S
C177 C175 1.427 . S
C177 C178 1.328 . S
C177 H192 0.929 . S
C178 C172 1.448 . S
C178 C177 1.328 . S
C178 H193 0.930 . S
Tb179 N170 2.617 . S
Tb179 N180 2.572 . S
Tb179 O214 2.349 . S
Tb179 O217 2.393 . S
Tb179 O218 2.465 . S
Tb179 O219 2.387 . S
Tb179 O221 2.428 . S
Tb179 O222 2.308 . S
Tb179 C243 2.802 . S
N180 C176 1.361 . S
N180 Tb179 2.572 . S
N180 C182 1.340 . S
C181 C175 1.416 . S
C181 C183 1.332 . S
C181 H189 0.931 . S
C182 N180 1.340 . S
C182 C183 1.407 . S
C182 H188 0.930 . S
C183 C181 1.332 . S
C183 C182 1.407 . S
C183 H185 0.929 . S
H184 C173 0.930 . S
H185 C183 0.929 . S
H186 C201 0.930 . S
H187 C208 0.929 . S
H188 C182 0.930 . S
H189 C181 0.931 . S
H190 C204 0.930 . S
H191 C171 0.930 . S
H192 C177 0.929 . S
H193 C178 0.930 . S
H194 C199 0.930 . S
H195 C174 0.930 . S
H196 C207 0.931 . S
N197 Tb168 2.617 . S
N197 C198 1.379 . S
N197 C201 1.334 . S
C198 N197 1.379 . S
C198 C200 1.416 . S
C198 C206 1.424 . S
C199 H194 0.930 . S
C199 C201 1.390 . S
C199 C202 1.339 . S
C200 C198 1.416 . S
C200 C202 1.416 . S
C200 C233 1.448 . S
C201 H186 0.930 . S
C201 N197 1.334 . S
C201 C199 1.390 . S
C202 C199 1.339 . S
C202 C200 1.416 . S
C202 H209 0.930 . S
N203 Tb168 2.572 . S
N203 C204 1.340 . S
N203 C206 1.361 . S
C204 H190 0.930 . S
C204 N203 1.340 . S
C204 C208 1.407 . S
C205 C206 1.413 . S
C205 C207 1.416 . S
C205 C234 1.427 . S
C206 C198 1.424 . S
C206 N203 1.361 . S
C206 C205 1.413 . S
C207 H196 0.931 . S
C207 C205 1.416 . S
C207 C208 1.332 . S
C208 H187 0.929 . S
C208 C204 1.407 . S
C208 C207 1.332 . S
H209 C202 0.930 . S
H210 C233 0.930 . S
H211 C234 0.929 . S
O212 Tb168 2.465 . S
O212 C232 1.264 . S
O213 Tb168 2.387 . S
O213 C224 1.264 . S
O214 Tb179 2.349 . S
O214 C224 1.243 . S
O215 Tb168 2.428 . S
O215 C232 1.256 . S
O216 Tb168 2.308 . S
O216 C231 1.266 . S
O217 Tb179 2.393 . S
O217 C231 1.248 . S
O218 Tb179 2.465 . S
O218 C243 1.264 . S
O219 Tb179 2.387 . S
O219 C235 1.264 . S
O220 Tb168 2.349 . S
O220 C235 1.243 . S
O221 Tb179 2.428 . S
O221 C243 1.256 . S
O222 Tb179 2.308 . S
O222 C242 1.266 . S
O223 Tb168 2.393 . S
O223 C242 1.248 . S
C224 O213 1.264 . S
C224 O214 1.243 . S
C225 C228 1.399 . S
C225 C230 1.383 . S
C225 C232 1.496 . S
C226 C227 1.399 . S
C226 C230 1.389 . S
C227 C226 1.399 . S
C227 C229 1.380 . S
C227 H244 0.929 . S
C228 C225 1.399 . S
C228 C229 1.392 . S
C228 H245 0.929 . S
C229 C227 1.380 . S
C229 C228 1.392 . S
C229 H246 0.929 . S
C230 C225 1.383 . S
C230 C226 1.389 . S
C230 H247 0.931 . S
C231 O216 1.266 . S
C231 O217 1.248 . S
C232 Tb168 2.802 . S
C232 O212 1.264 . S
C232 O215 1.256 . S
C232 C225 1.496 . S
C233 C200 1.448 . S
C233 H210 0.930 . S
C233 C234 1.328 . S
C234 C205 1.427 . S
C234 H211 0.929 . S
C234 C233 1.328 . S
C235 O219 1.264 . S
C235 O220 1.243 . S
C236 C239 1.399 . S
C236 C240 1.383 . S
C236 C243 1.496 . S
C237 C238 1.399 . S
C237 C240 1.389 . S
C238 C237 1.399 . S
C238 C241 1.380 . S
C238 H248 0.929 . S
C239 C236 1.399 . S
C239 C241 1.392 . S
C239 H249 0.929 . S
C240 C236 1.383 . S
C240 C237 1.389 . S
C240 H250 0.931 . S
C241 C238 1.380 . S
C241 C239 1.392 . S
C241 H251 0.929 . S
C242 O222 1.266 . S
C242 O223 1.248 . S
C243 Tb179 2.802 . S
C243 O218 1.264 . S
C243 O221 1.256 . S
C243 C236 1.496 . S
H244 C227 0.929 . S
H245 C228 0.929 . S
H246 C229 0.929 . S
H247 C230 0.931 . S
H248 C238 0.929 . S
H249 C239 0.929 . S
H250 C240 0.931 . S
H251 C241 0.929 . S
Tb252 N281 2.617 . S
Tb252 N287 2.572 1_556 S
Tb252 O296 2.465 . S
Tb252 O297 2.387 1_556 S
Tb252 O299 2.428 . S
Tb252 O300 2.308 1_556 S
Tb252 O304 2.349 . S
Tb252 O307 2.393 . S
Tb252 C316 2.802 . S
C253 N254 1.379 . S
C253 C256 1.416 . S
C253 C260 1.424 . S
N254 C253 1.379 . S
N254 C257 1.334 . S
N254 Tb263 2.617 . S
C255 C257 1.390 . S
C255 C258 1.339 . S
C255 H275 0.930 . S
C256 C253 1.416 . S
C256 C258 1.416 . S
C256 C262 1.448 . S
C257 N254 1.334 . S
C257 C255 1.390 . S
C257 H268 0.930 . S
C258 C255 1.339 . S
C258 C256 1.416 . S
C258 H279 0.930 . S
C259 C260 1.413 . S
C259 C261 1.432 . S
C259 C265 1.416 1_554 S
C260 C253 1.424 . S
C260 C259 1.413 . S
C260 N264 1.361 . S
C261 C259 1.432 . S
C261 C262 1.340 . S
C261 H276 0.913 1_554 S
C262 C256 1.448 . S
C262 C261 1.340 . S
C262 H277 0.930 . S
Tb263 N254 2.617 . S
Tb263 N264 2.572 . S
Tb263 O298 2.349 . S
Tb263 O301 2.393 . S
Tb263 O302 2.465 . S
Tb263 O303 2.387 1_554 S
Tb263 O305 2.428 . S
Tb263 O306 2.308 . S
Tb263 C327 2.802 . S
N264 C260 1.361 . S
N264 Tb263 2.572 . S
N264 C266 1.340 . S
C265 C259 1.416 1_556 S
C265 C267 1.326 1_556 S
C265 H273 0.931 . S
C266 N264 1.340 . S
C266 C267 1.427 . S
C266 H272 0.930 . S
C267 C265 1.326 1_554 S
C267 C266 1.427 . S
C267 H269 0.918 1_554 S
H268 C257 0.930 . S
H269 C267 0.918 1_556 S
H270 C285 0.930 . S
H271 C292 0.929 . S
H272 C266 0.930 . S
H273 C265 0.931 . S
H274 C288 0.930 . S
H275 C255 0.930 . S
H276 C261 0.913 1_556 S
H277 C262 0.930 . S
H278 C283 0.930 . S
H279 C258 0.930 . S
H280 C291 0.931 . S
N281 Tb252 2.617 . S
N281 C282 1.379 1_556 S
N281 C285 1.334 . S
C282 N281 1.379 1_554 S
C282 C284 1.416 . S
C282 C290 1.424 . S
C283 H278 0.930 . S
C283 C285 1.390 . S
C283 C286 1.339 1_556 S
C284 C282 1.416 . S
C284 C286 1.416 . S
C284 C317 1.448 . S
C285 H270 0.930 . S
C285 N281 1.334 . S
C285 C283 1.390 . S
C286 C283 1.339 1_554 S
C286 C284 1.416 . S
C286 H293 0.930 1_655 S
N287 Tb252 2.572 1_554 S
N287 C288 1.340 . S
N287 C290 1.361 . S
C288 H274 0.930 . S
C288 N287 1.340 . S
C288 C292 1.407 . S
C289 C290 1.413 . S
C289 C291 1.416 . S
C289 C318 1.427 . S
C290 C282 1.424 . S
C290 N287 1.361 . S
C290 C289 1.413 . S
C291 H280 0.931 . S
C291 C289 1.416 . S
C291 C292 1.332 . S
C292 H271 0.929 . S
C292 C288 1.407 . S
C292 C291 1.332 . S
H293 C286 0.930 1_455 S
H294 C317 0.930 . S
H295 C318 0.929 . S
O296 Tb252 2.465 . S
O296 C316 1.264 . S
O297 Tb252 2.387 1_554 S
O297 C308 1.264 . S
O298 Tb263 2.349 . S
O298 C308 1.243 . S
O299 Tb252 2.428 . S
O299 C316 1.256 . S
O300 Tb252 2.308 1_554 S
O300 C315 1.266 . S
O301 Tb263 2.393 . S
O301 C315 1.248 . S
O302 Tb263 2.465 . S
O302 C327 1.264 . S
O303 Tb263 2.387 1_556 S
O303 C319 1.264 . S
O304 Tb252 2.349 . S
O304 C319 1.243 . S
O305 Tb263 2.428 . S
O305 C327 1.256 . S
O306 Tb263 2.308 . S
O306 C326 1.266 . S
O307 Tb252 2.393 . S
O307 C326 1.248 1_556 S
C308 O297 1.264 . S
C308 O298 1.243 . S
C309 C312 1.399 . S
C309 C314 1.383 . S
C309 C316 1.496 . S
C310 C311 1.399 . S
C310 C314 1.389 . S
C311 C310 1.399 . S
C311 C313 1.380 . S
C311 H328 0.929 . S
C312 C309 1.399 . S
C312 C313 1.392 . S
C312 H329 0.929 . S
C313 C311 1.380 . S
C313 C312 1.392 . S
C313 H330 0.929 . S
C314 C309 1.383 . S
C314 C310 1.389 . S
C314 H331 0.931 . S
C315 O300 1.266 . S
C315 O301 1.248 . S
C316 Tb252 2.802 . S
C316 O296 1.264 . S
C316 O299 1.256 . S
C316 C309 1.496 . S
C317 C284 1.448 . S
C317 H294 0.930 . S
C317 C318 1.328 . S
C318 C289 1.427 . S
C318 H295 0.929 . S
C318 C317 1.328 . S
C319 O303 1.264 . S
C319 O304 1.243 . S
C320 C323 1.399 . S
C320 C324 1.383 . S
C320 C327 1.496 . S
C321 C322 1.399 . S
C321 C324 1.389 . S
C322 C321 1.399 . S
C322 C325 1.380 . S
C322 H332 0.929 . S
C323 C320 1.399 . S
C323 C325 1.392 . S
C323 H333 0.929 . S
C324 C320 1.383 . S
C324 C321 1.389 . S
C324 H334 0.931 . S
C325 C322 1.380 . S
C325 C323 1.392 . S
C325 H335 0.929 . S
C326 O306 1.266 . S
C326 O307 1.248 1_554 S
C327 Tb263 2.802 . S
C327 O302 1.264 . S
C327 O305 1.256 . S
C327 C320 1.496 . S
H328 C311 0.929 . S
H329 C312 0.929 . S
H330 C313 0.929 . S
H331 C314 0.931 . S
H332 C322 0.929 . S
H333 C323 0.929 . S
H334 C324 0.931 . S
H335 C325 0.929 . S
Tb336 N365 2.617 . S
Tb336 N371 2.572 . S
Tb336 O380 2.465 . S
Tb336 O381 2.387 . S
Tb336 O383 2.428 . S
Tb336 O384 2.308 . S
Tb336 O388 2.349 . S
Tb336 O391 2.393 . S
Tb336 C400 2.802 . S
C337 N338 1.379 . S
C337 C340 1.416 . S
C337 C344 1.424 . S
N338 C337 1.379 . S
N338 C341 1.334 . S
N338 Tb347 2.617 . S
C339 C341 1.390 . S
C339 C342 1.339 . S
C339 H359 0.930 . S
C340 C337 1.416 . S
C340 C342 1.416 . S
C340 C346 1.448 . S
C341 N338 1.334 . S
C341 C339 1.390 . S
C341 H352 0.930 . S
C342 C339 1.339 . S
C342 C340 1.416 . S
C342 H363 0.930 . S
C343 C344 1.413 . S
C343 C345 1.427 . S
C343 C349 1.416 . S
C344 C337 1.424 . S
C344 C343 1.413 . S
C344 N348 1.361 . S
C345 C343 1.427 . S
C345 C346 1.328 . S
C345 H360 0.929 . S
C346 C340 1.448 . S
C346 C345 1.328 . S
C346 H361 0.930 . S
Tb347 N338 2.617 . S
Tb347 N348 2.572 . S
Tb347 O382 2.349 . S
Tb347 O385 2.393 . S
Tb347 O386 2.465 . S
Tb347 O387 2.387 . S
Tb347 O389 2.428 . S
Tb347 O390 2.308 . S
Tb347 C411 2.802 . S
N348 C344 1.361 . S
N348 Tb347 2.572 . S
N348 C350 1.340 . S
C349 C343 1.416 . S
C349 C351 1.332 . S
C349 H357 0.931 . S
C350 N348 1.340 . S
C350 C351 1.407 . S
C350 H356 0.930 . S
C351 C349 1.332 . S
C351 C350 1.407 . S
C351 H353 0.929 . S
H352 C341 0.930 . S
H353 C351 0.929 . S
H354 C369 0.930 . S
H355 C376 0.929 . S
H356 C350 0.930 . S
H357 C349 0.931 . S
H358 C372 0.930 . S
H359 C339 0.930 . S
H360 C345 0.929 . S
H361 C346 0.930 . S
H362 C367 0.930 . S
H363 C342 0.930 . S
H364 C375 0.931 . S
N365 Tb336 2.617 . S
N365 C366 1.379 . S
N365 C369 1.334 . S
C366 N365 1.379 . S
C366 C368 1.416 . S
C366 C374 1.424 . S
C367 H362 0.930 . S
C367 C369 1.390 . S
C367 C370 1.339 . S
C368 C366 1.416 . S
C368 C370 1.416 . S
C368 C401 1.448 . S
C369 H354 0.930 . S
C369 N365 1.334 . S
C369 C367 1.390 . S
C370 C367 1.339 . S
C370 C368 1.416 . S
C370 H377 0.930 1_565 S
N371 Tb336 2.572 . S
N371 C372 1.340 . S
N371 C374 1.361 . S
C372 H358 0.930 . S
C372 N371 1.340 . S
C372 C376 1.407 . S
C373 C374 1.413 . S
C373 C375 1.416 . S
C373 C402 1.427 . S
C374 C366 1.424 . S
C374 N371 1.361 . S
C374 C373 1.413 . S
C375 H364 0.931 . S
C375 C373 1.416 . S
C375 C376 1.332 . S
C376 H355 0.929 . S
C376 C372 1.407 . S
C376 C375 1.332 . S
H377 C370 0.930 1_545 S
H378 C401 0.930 . S
H379 C402 0.929 . S
O380 Tb336 2.465 . S
O380 C400 1.264 . S
O381 Tb336 2.387 . S
O381 C392 1.264 . S
O382 Tb347 2.349 . S
O382 C392 1.243 . S
O383 Tb336 2.428 . S
O383 C400 1.256 . S
O384 Tb336 2.308 . S
O384 C399 1.266 . S
O385 Tb347 2.393 . S
O385 C399 1.248 . S
O386 Tb347 2.465 . S
O386 C411 1.264 . S
O387 Tb347 2.387 . S
O387 C403 1.264 . S
O388 Tb336 2.349 . S
O388 C403 1.243 . S
O389 Tb347 2.428 . S
O389 C411 1.256 . S
O390 Tb347 2.308 . S
O390 C410 1.266 . S
O391 Tb336 2.393 . S
O391 C410 1.248 . S
C392 O381 1.264 . S
C392 O382 1.243 . S
C393 C396 1.399 . S
C393 C398 1.383 . S
C393 C400 1.496 . S
C394 C395 1.399 . S
C394 C398 1.389 . S
C395 C394 1.399 . S
C395 C397 1.380 . S
C395 H412 0.929 . S
C396 C393 1.399 . S
C396 C397 1.392 . S
C396 H413 0.929 . S
C397 C395 1.380 . S
C397 C396 1.392 . S
C397 H414 0.929 . S
C398 C393 1.383 . S
C398 C394 1.389 . S
C398 H415 0.931 . S
C399 O384 1.266 . S
C399 O385 1.248 . S
C400 Tb336 2.802 . S
C400 O380 1.264 . S
C400 O383 1.256 . S
C400 C393 1.496 . S
C401 C368 1.448 . S
C401 H378 0.930 . S
C401 C402 1.328 . S
C402 C373 1.427 . S
C402 H379 0.929 . S
C402 C401 1.328 . S
C403 O387 1.264 . S
C403 O388 1.243 . S
C404 C407 1.399 . S
C404 C408 1.383 . S
C404 C411 1.496 . S
C405 C406 1.399 . S
C405 C408 1.389 . S
C406 C405 1.399 . S
C406 C409 1.380 . S
C406 H416 0.929 . S
C407 C404 1.399 . S
C407 C409 1.392 . S
C407 H417 0.929 . S
C408 C404 1.383 . S
C408 C405 1.389 . S
C408 H418 0.931 . S
C409 C406 1.380 . S
C409 C407 1.392 . S
C409 H419 0.929 . S
C410 O390 1.266 . S
C410 O391 1.248 . S
C411 Tb347 2.802 . S
C411 O386 1.264 . S
C411 O389 1.256 . S
C411 C404 1.496 . S
H412 C395 0.929 . S
H413 C396 0.929 . S
H414 C397 0.929 . S
H415 C398 0.931 . S
H416 C406 0.929 . S
H417 C407 0.929 . S
H418 C408 0.931 . S
H419 C409 0.929 . S
Tb420 N449 2.617 . S
Tb420 N455 2.572 . S
Tb420 O464 2.465 . S
Tb420 O465 2.387 . S
Tb420 O467 2.428 . S
Tb420 O468 2.308 . S
Tb420 O472 2.349 . S
Tb420 O475 2.393 . S
Tb420 C484 2.802 . S
C421 N422 1.379 . S
C421 C424 1.416 . S
C421 C428 1.424 . S
N422 C421 1.379 . S
N422 C425 1.334 . S
N422 Tb431 2.617 . S
C423 C425 1.390 . S
C423 C426 1.339 . S
C423 H443 0.930 . S
C424 C421 1.416 . S
C424 C426 1.416 . S
C424 C430 1.448 . S
C425 N422 1.334 . S
C425 C423 1.390 . S
C425 H436 0.930 . S
C426 C423 1.339 . S
C426 C424 1.416 . S
C426 H447 0.930 . S
C427 C428 1.413 . S
C427 C429 1.427 . S
C427 C433 1.416 . S
C428 C421 1.424 . S
C428 C427 1.413 . S
C428 N432 1.361 . S
C429 C427 1.427 . S
C429 C430 1.328 . S
C429 H444 0.929 . S
C430 C424 1.448 . S
C430 C429 1.328 . S
C430 H445 0.930 . S
Tb431 N422 2.617 . S
Tb431 N432 2.572 . S
Tb431 O466 2.349 . S
Tb431 O469 2.393 . S
Tb431 O470 2.465 . S
Tb431 O471 2.387 . S
Tb431 O473 2.428 . S
Tb431 O474 2.308 . S
Tb431 C495 2.802 . S
N432 C428 1.361 . S
N432 Tb431 2.572 . S
N432 C434 1.340 . S
C433 C427 1.416 . S
C433 C435 1.332 . S
C433 H441 0.931 . S
C434 N432 1.340 . S
C434 C435 1.407 . S
C434 H440 0.930 . S
C435 C433 1.332 . S
C435 C434 1.407 . S
C435 H437 0.929 . S
H436 C425 0.930 . S
H437 C435 0.929 . S
H438 C453 0.930 . S
H439 C460 0.929 . S
H440 C434 0.930 . S
H441 C433 0.931 . S
H442 C456 0.930 . S
H443 C423 0.930 . S
H444 C429 0.929 . S
H445 C430 0.930 . S
H446 C451 0.930 . S
H447 C426 0.930 . S
H448 C459 0.931 . S
N449 Tb420 2.617 . S
N449 C450 1.379 . S
N449 C453 1.334 . S
C450 N449 1.379 . S
C450 C452 1.416 . S
C450 C458 1.424 . S
C451 H446 0.930 . S
C451 C453 1.390 . S
C451 C454 1.339 . S
C452 C450 1.416 . S
C452 C454 1.416 . S
C452 C485 1.448 . S
C453 H438 0.930 . S
C453 N449 1.334 . S
C453 C451 1.390 . S
C454 C451 1.339 . S
C454 C452 1.416 . S
C454 H461 0.930 . S
N455 Tb420 2.572 . S
N455 C456 1.340 . S
N455 C458 1.361 . S
C456 H442 0.930 . S
C456 N455 1.340 . S
C456 C460 1.407 . S
C457 C458 1.413 . S
C457 C459 1.416 . S
C457 C486 1.427 . S
C458 C450 1.424 . S
C458 N455 1.361 . S
C458 C457 1.413 . S
C459 H448 0.931 . S
C459 C457 1.416 . S
C459 C460 1.332 . S
C460 H439 0.929 . S
C460 C456 1.407 . S
C460 C459 1.332 . S
H461 C454 0.930 . S
H462 C485 0.930 . S
H463 C486 0.929 . S
O464 Tb420 2.465 . S
O464 C484 1.264 . S
O465 Tb420 2.387 . S
O465 C476 1.264 . S
O466 Tb431 2.349 . S
O466 C476 1.243 . S
O467 Tb420 2.428 . S
O467 C484 1.256 . S
O468 Tb420 2.308 . S
O468 C483 1.266 . S
O469 Tb431 2.393 . S
O469 C483 1.248 . S
O470 Tb431 2.465 . S
O470 C495 1.264 . S
O471 Tb431 2.387 . S
O471 C487 1.264 . S
O472 Tb420 2.349 . S
O472 C487 1.243 . S
O473 Tb431 2.428 . S
O473 C495 1.256 . S
O474 Tb431 2.308 . S
O474 C494 1.266 . S
O475 Tb420 2.393 . S
O475 C494 1.248 . S
C476 O465 1.264 . S
C476 O466 1.243 . S
C477 C480 1.399 . S
C477 C482 1.383 . S
C477 C484 1.496 . S
C478 C479 1.399 . S
C478 C482 1.389 . S
C479 C478 1.399 . S
C479 C481 1.380 . S
C479 H496 0.929 . S
C480 C477 1.399 . S
C480 C481 1.392 . S
C480 H497 0.929 . S
C481 C479 1.380 . S
C481 C480 1.392 . S
C481 H498 0.929 . S
C482 C477 1.383 . S
C482 C478 1.389 . S
C482 H499 0.931 . S
C483 O468 1.266 . S
C483 O469 1.248 . S
C484 Tb420 2.802 . S
C484 O464 1.264 . S
C484 O467 1.256 . S
C484 C477 1.496 . S
C485 C452 1.448 . S
C485 H462 0.930 . S
C485 C486 1.328 . S
C486 C457 1.427 . S
C486 H463 0.929 . S
C486 C485 1.328 . S
C487 O471 1.264 . S
C487 O472 1.243 . S
C488 C491 1.399 . S
C488 C492 1.383 . S
C488 C495 1.496 . S
C489 C490 1.399 . S
C489 C492 1.389 . S
C490 C489 1.399 . S
C490 C493 1.380 . S
C490 H500 0.929 . S
C491 C488 1.399 . S
C491 C493 1.392 . S
C491 H501 0.929 . S
C492 C488 1.383 . S
C492 C489 1.389 . S
C492 H502 0.931 . S
C493 C490 1.380 . S
C493 C491 1.392 . S
C493 H503 0.929 . S
C494 O474 1.266 . S
C494 O475 1.248 . S
C495 Tb431 2.802 . S
C495 O470 1.264 . S
C495 O473 1.256 . S
C495 C488 1.496 . S
H496 C479 0.929 . S
H497 C480 0.929 . S
H498 C481 0.929 . S
H499 C482 0.931 . S
H500 C490 0.929 . S
H501 C491 0.929 . S
H502 C492 0.931 . S
H503 C493 0.929 . S
H504 C512 0.929 . S
H505 C514 0.930 . S
H506 C516 0.930 . S
H507 C519 0.929 . S
H508 C522 0.930 . S
H509 C524 0.960 . S
H510 C524 0.960 . S
H511 C524 0.960 . S
C512 H504 0.929 . S
C512 C513 1.377 . S
C512 C514 1.384 . S
C513 C512 1.377 . S
C513 C519 1.390 . S
C514 H505 0.930 . S
C514 C512 1.384 . S
C514 C515 1.372 . S
C515 C514 1.372 . S
C515 C516 1.400 . S
C515 C520 1.490 . S
C516 H506 0.930 . S
C516 C515 1.400 . S
C516 C519 1.386 . S
H517 C533 0.930 . S
H518 C534 0.931 . S
C519 H507 0.929 . S
C519 C513 1.390 . S
C519 C516 1.386 . S
C520 C515 1.490 . S
C520 C522 1.395 . S
C520 C523 1.403 . S
H521 C527 0.930 . S
C522 H508 0.930 . S
C522 C520 1.395 . S
C522 C525 1.403 . S
C523 C520 1.403 . S
C523 C524 1.524 . S
C523 C527 1.400 . S
C524 H509 0.960 . S
C524 H510 0.960 . S
C524 H511 0.960 . S
C524 C523 1.524 . S
C525 C522 1.403 . S
C525 C526 1.392 . S
C525 C529 1.495 . S
C526 C525 1.392 . S
C526 C527 1.385 . S
C526 C528 1.478 . S
C527 H521 0.930 . S
C527 C523 1.400 . S
C527 C526 1.385 . S
C528 C526 1.478 . S
C528 C530 1.381 . S
C528 C534 1.383 . S
C529 C525 1.495 . S
C529 H535 0.959 . S
C529 H536 0.961 . S
C529 H537 0.960 . S
C530 C528 1.381 . S
C530 C531 1.394 . S
C530 H538 0.930 . S
C531 C530 1.394 . S
C531 C532 1.383 . S
C531 H539 0.929 . S
C532 C531 1.383 . S
C532 C533 1.377 . S
C533 H517 0.930 . S
C533 C532 1.377 . S
C533 C534 1.379 . S
C534 H518 0.931 . S
C534 C528 1.383 . S
C534 C533 1.379 . S
H535 C529 0.959 . S
H536 C529 0.961 . S
H537 C529 0.960 . S
H538 C530 0.930 . S
H539 C531 0.929 . S
H540 C548 0.929 . S
H541 C550 0.930 . S
H542 C552 0.930 . S
H543 C555 0.929 . S
H544 C558 0.930 . S
H545 C560 0.960 . S
H546 C560 0.960 . S
H547 C560 0.960 . S
C548 H540 0.929 . S
C548 C549 1.377 . S
C548 C550 1.384 . S
C549 C548 1.377 . S
C549 C555 1.390 . S
C550 H541 0.930 . S
C550 C548 1.384 . S
C550 C551 1.372 . S
C551 C550 1.372 . S
C551 C552 1.400 . S
C551 C556 1.490 . S
C552 H542 0.930 . S
C552 C551 1.400 . S
C552 C555 1.386 . S
H553 C569 0.930 . S
H554 C570 0.931 . S
C555 H543 0.929 . S
C555 C549 1.390 . S
C555 C552 1.386 . S
C556 C551 1.490 . S
C556 C558 1.395 . S
C556 C559 1.403 . S
H557 C563 0.930 . S
C558 H544 0.930 . S
C558 C556 1.395 . S
C558 C561 1.403 . S
C559 C556 1.403 . S
C559 C560 1.524 . S
C559 C563 1.400 . S
C560 H545 0.960 . S
C560 H546 0.960 . S
C560 H547 0.960 . S
C560 C559 1.524 . S
C561 C558 1.403 . S
C561 C562 1.392 . S
C561 C565 1.495 . S
C562 C561 1.392 . S
C562 C563 1.385 . S
C562 C564 1.478 . S
C563 H557 0.930 . S
C563 C559 1.400 . S
C563 C562 1.385 . S
C564 C562 1.478 . S
C564 C566 1.381 . S
C564 C570 1.383 . S
C565 C561 1.495 . S
C565 H571 0.959 . S
C565 H572 0.961 . S
C565 H573 0.960 . S
C566 C564 1.381 . S
C566 C567 1.394 . S
C566 H574 0.930 . S
C567 C566 1.394 . S
C567 C568 1.383 . S
C567 H575 0.929 . S
C568 C567 1.383 . S
C568 C569 1.377 . S
C569 H553 0.930 . S
C569 C568 1.377 . S
C569 C570 1.379 . S
C570 H554 0.931 . S
C570 C564 1.383 . S
C570 C569 1.379 . S
H571 C565 0.959 . S
H572 C565 0.961 . S
H573 C565 0.960 . S
H574 C566 0.930 . S
H575 C567 0.929 . S
H576 C584 0.929 . S
H577 C586 0.930 . S
H578 C588 0.930 . S
H579 C591 0.929 . S
H580 C594 0.930 . S
H581 C596 0.960 . S
H582 C596 0.960 . S
H583 C596 0.960 . S
C584 H576 0.929 . S
C584 C585 1.377 . S
C584 C586 1.384 . S
C585 C584 1.377 . S
C585 C591 1.390 . S
C586 H577 0.930 . S
C586 C584 1.384 . S
C586 C587 1.372 . S
C587 C586 1.372 . S
C587 C588 1.400 . S
C587 C592 1.490 . S
C588 H578 0.930 . S
C588 C587 1.400 . S
C588 C591 1.386 . S
H589 C605 0.930 . S
H590 C606 0.931 . S
C591 H579 0.929 . S
C591 C585 1.390 . S
C591 C588 1.386 . S
C592 C587 1.490 . S
C592 C594 1.395 . S
C592 C595 1.403 . S
H593 C599 0.930 . S
C594 H580 0.930 . S
C594 C592 1.395 . S
C594 C597 1.403 . S
C595 C592 1.403 . S
C595 C596 1.524 . S
C595 C599 1.400 . S
C596 H581 0.960 . S
C596 H582 0.960 . S
C596 H583 0.960 . S
C596 C595 1.524 . S
C597 C594 1.403 . S
C597 C598 1.392 . S
C597 C601 1.495 . S
C598 C597 1.392 . S
C598 C599 1.385 . S
C598 C600 1.478 . S
C599 H593 0.930 . S
C599 C595 1.400 . S
C599 C598 1.385 . S
C600 C598 1.478 . S
C600 C602 1.381 . S
C600 C606 1.383 . S
C601 C597 1.495 . S
C601 H607 0.959 . S
C601 H608 0.961 . S
C601 H609 0.960 . S
C602 C600 1.381 . S
C602 C603 1.394 . S
C602 H610 0.930 . S
C603 C602 1.394 . S
C603 C604 1.383 . S
C603 H611 0.929 . S
C604 C603 1.383 . S
C604 C605 1.377 . S
C605 H589 0.930 . S
C605 C604 1.377 . S
C605 C606 1.379 . S
C606 H590 0.931 . S
C606 C600 1.383 . S
C606 C605 1.379 . S
H607 C601 0.959 . S
H608 C601 0.961 . S
H609 C601 0.960 . S
H610 C602 0.930 . S
H611 C603 0.929 . S
H612 C620 0.929 . S
H613 C622 0.930 . S
H614 C624 0.930 . S
H615 C627 0.929 . S
H616 C630 0.930 . S
H617 C632 0.960 . S
H618 C632 0.960 . S
H619 C632 0.960 . S
C620 H612 0.929 . S
C620 C621 1.377 . S
C620 C622 1.384 . S
C621 C620 1.377 . S
C621 C627 1.390 . S
C622 H613 0.930 . S
C622 C620 1.384 . S
C622 C623 1.372 . S
C623 C622 1.372 . S
C623 C624 1.400 . S
C623 C628 1.490 . S
C624 H614 0.930 . S
C624 C623 1.400 . S
C624 C627 1.386 . S
H625 C641 0.930 . S
H626 C642 0.931 . S
C627 H615 0.929 . S
C627 C621 1.390 . S
C627 C624 1.386 . S
C628 C623 1.490 . S
C628 C630 1.395 . S
C628 C631 1.403 . S
H629 C635 0.930 . S
C630 H616 0.930 . S
C630 C628 1.395 . S
C630 C633 1.403 . S
C631 C628 1.403 . S
C631 C632 1.524 . S
C631 C635 1.400 . S
C632 H617 0.960 . S
C632 H618 0.960 . S
C632 H619 0.960 . S
C632 C631 1.524 . S
C633 C630 1.403 . S
C633 C634 1.392 . S
C633 C637 1.495 . S
C634 C633 1.392 . S
C634 C635 1.385 . S
C634 C636 1.478 . S
C635 H629 0.930 . S
C635 C631 1.400 . S
C635 C634 1.385 . S
C636 C634 1.478 . S
C636 C638 1.381 . S
C636 C642 1.383 . S
C637 C633 1.495 . S
C637 H643 0.959 . S
C637 H644 0.961 . S
C637 H645 0.960 . S
C638 C636 1.381 . S
C638 C639 1.394 . S
C638 H646 0.930 . S
C639 C638 1.394 . S
C639 C640 1.383 . S
C639 H647 0.929 . S
C640 C639 1.383 . S
C640 C641 1.377 . S
C641 H625 0.930 . S
C641 C640 1.377 . S
C641 C642 1.379 . S
C642 H626 0.931 . S
C642 C636 1.383 . S
C642 C641 1.379 . S
H643 C637 0.959 . S
H644 C637 0.961 . S
H645 C637 0.960 . S
H646 C638 0.930 . S
H647 C639 0.929 . S
H648 C656 0.929 . S
H649 C658 0.930 . S
H650 C660 0.930 . S
H651 C663 0.929 . S
H652 C666 0.930 . S
H653 C668 0.960 . S
H654 C668 0.960 . S
H655 C668 0.960 . S
C656 H648 0.929 . S
C656 C657 1.377 . S
C656 C658 1.384 . S
C657 C656 1.377 . S
C657 C663 1.390 . S
C658 H649 0.930 . S
C658 C656 1.384 . S
C658 C659 1.372 . S
C659 C658 1.372 . S
C659 C660 1.400 . S
C659 C664 1.490 . S
C660 H650 0.930 . S
C660 C659 1.400 . S
C660 C663 1.386 . S
H661 C677 0.930 . S
H662 C678 0.931 . S
C663 H651 0.929 . S
C663 C657 1.390 . S
C663 C660 1.386 . S
C664 C659 1.490 . S
C664 C666 1.395 . S
C664 C667 1.403 . S
H665 C671 0.930 . S
C666 H652 0.930 . S
C666 C664 1.395 . S
C666 C669 1.403 . S
C667 C664 1.403 . S
C667 C668 1.524 . S
C667 C671 1.400 . S
C668 H653 0.960 . S
C668 H654 0.960 . S
C668 H655 0.960 . S
C668 C667 1.524 . S
C669 C666 1.403 . S
C669 C670 1.392 . S
C669 C673 1.495 . S
C670 C669 1.392 . S
C670 C671 1.385 . S
C670 C672 1.478 . S
C671 H665 0.930 . S
C671 C667 1.400 . S
C671 C670 1.385 . S
C672 C670 1.478 . S
C672 C674 1.381 . S
C672 C678 1.383 . S
C673 C669 1.495 . S
C673 H679 0.959 . S
C673 H680 0.961 . S
C673 H681 0.960 . S
C674 C672 1.381 . S
C674 C675 1.394 . S
C674 H682 0.930 . S
C675 C674 1.394 . S
C675 C676 1.383 . S
C675 H683 0.929 . S
C676 C675 1.383 . S
C676 C677 1.377 . S
C677 H661 0.930 . S
C677 C676 1.377 . S
C677 C678 1.379 . S
C678 H662 0.931 . S
C678 C672 1.383 . S
C678 C677 1.379 . S
H679 C673 0.959 . S
H680 C673 0.961 . S
H681 C673 0.960 . S
H682 C674 0.930 . S
H683 C675 0.929 . S
H684 C692 0.929 . S
H685 C694 0.930 . S
H686 C696 0.930 . S
H687 C699 0.929 . S
H688 C702 0.930 . S
H689 C704 0.960 . S
H690 C704 0.960 . S
H691 C704 0.960 . S
C692 H684 0.929 . S
C692 C693 1.377 . S
C692 C694 1.384 . S
C693 C692 1.377 . S
C693 C699 1.390 . S
C694 H685 0.930 . S
C694 C692 1.384 . S
C694 C695 1.372 . S
C695 C694 1.372 . S
C695 C696 1.400 . S
C695 C700 1.490 . S
C696 H686 0.930 . S
C696 C695 1.400 . S
C696 C699 1.386 . S
H697 C713 0.930 . S
H698 C714 0.931 . S
C699 H687 0.929 . S
C699 C693 1.390 . S
C699 C696 1.386 . S
C700 C695 1.490 . S
C700 C702 1.395 . S
C700 C703 1.403 . S
H701 C707 0.930 . S
C702 H688 0.930 . S
C702 C700 1.395 . S
C702 C705 1.403 . S
C703 C700 1.403 . S
C703 C704 1.524 . S
C703 C707 1.400 . S
C704 H689 0.960 . S
C704 H690 0.960 . S
C704 H691 0.960 . S
C704 C703 1.524 . S
C705 C702 1.403 . S
C705 C706 1.392 . S
C705 C709 1.495 . S
C706 C705 1.392 . S
C706 C707 1.385 . S
C706 C708 1.478 . S
C707 H701 0.930 . S
C707 C703 1.400 . S
C707 C706 1.385 . S
C708 C706 1.478 . S
C708 C710 1.381 . S
C708 C714 1.383 . S
C709 C705 1.495 . S
C709 H715 0.959 . S
C709 H716 0.961 . S
C709 H717 0.960 . S
C710 C708 1.381 . S
C710 C711 1.394 . S
C710 H718 0.930 . S
C711 C710 1.394 . S
C711 C712 1.383 . S
C711 H719 0.929 . S
C712 C711 1.383 . S
C712 C713 1.377 . S
C713 H697 0.930 . S
C713 C712 1.377 . S
C713 C714 1.379 . S
C714 H698 0.931 . S
C714 C708 1.383 . S
C714 C713 1.379 . S
H715 C709 0.959 . S
H716 C709 0.961 . S
H717 C709 0.960 . S
H718 C710 0.930 . S
H719 C711 0.929 . S
H720 C728 0.929 . S
H721 C730 0.930 . S
H722 C732 0.930 . S
H723 C735 0.929 . S
H724 C738 0.930 . S
H725 C740 0.960 . S
H726 C740 0.960 . S
H727 C740 0.960 . S
C728 H720 0.929 . S
C728 C729 1.377 . S
C728 C730 1.384 . S
C729 C728 1.377 . S
C729 C735 1.390 . S
C730 H721 0.930 . S
C730 C728 1.384 . S
C730 C731 1.372 . S
C731 C730 1.372 . S
C731 C732 1.400 . S
C731 C736 1.490 . S
C732 H722 0.930 . S
C732 C731 1.400 . S
C732 C735 1.386 . S
H733 C749 0.930 1_556 S
H734 C750 0.931 1_556 S
C735 H723 0.929 . S
C735 C729 1.390 . S
C735 C732 1.386 . S
C736 C731 1.490 . S
C736 C738 1.395 . S
C736 C739 1.403 . S
H737 C743 0.930 . S
C738 H724 0.930 . S
C738 C736 1.395 . S
C738 C741 1.403 . S
C739 C736 1.403 . S
C739 C740 1.524 . S
C739 C743 1.400 . S
C740 H725 0.960 . S
C740 H726 0.960 . S
C740 H727 0.960 . S
C740 C739 1.524 . S
C741 C738 1.403 . S
C741 C742 1.392 . S
C741 C745 1.495 1_554 S
C742 C741 1.392 . S
C742 C743 1.385 . S
C742 C744 1.478 . S
C743 H737 0.930 . S
C743 C739 1.400 . S
C743 C742 1.385 . S
C744 C742 1.478 . S
C744 C746 1.381 . S
C744 C750 1.383 . S
C745 C741 1.495 1_556 S
C745 H751 0.959 . S
C745 H752 0.961 . S
C745 H753 0.960 1_556 S
C746 C744 1.381 . S
C746 C747 1.394 . S
C746 H754 0.930 . S
C747 C746 1.394 . S
C747 C748 1.383 . S
C747 H755 0.929 . S
C748 C747 1.383 . S
C748 C749 1.377 . S
C749 H733 0.930 1_554 S
C749 C748 1.377 . S
C749 C750 1.379 . S
C750 H734 0.931 1_554 S
C750 C744 1.383 . S
C750 C749 1.379 . S
H751 C745 0.959 . S
H752 C745 0.961 . S
H753 C745 0.960 1_554 S
H754 C746 0.930 . S
H755 C747 0.929 . S
H756 C764 0.929 . S
H757 C766 0.930 . S
H758 C768 0.930 . S
H759 C771 0.929 . S
H760 C774 0.930 . S
H761 C776 0.960 . S
H762 C776 0.960 . S
H763 C776 0.960 . S
C764 H756 0.929 . S
C764 C765 1.377 . S
C764 C766 1.384 . S
C765 C764 1.377 . S
C765 C771 1.390 . S
C766 H757 0.930 . S
C766 C764 1.384 . S
C766 C767 1.372 . S
C767 C766 1.372 . S
C767 C768 1.400 . S
C767 C772 1.490 . S
C768 H758 0.930 . S
C768 C767 1.400 . S
C768 C771 1.386 . S
H769 C785 0.930 . S
H770 C786 0.931 . S
C771 H759 0.929 . S
C771 C765 1.390 . S
C771 C768 1.386 . S
C772 C767 1.490 . S
C772 C774 1.395 1_455 S
C772 C775 1.403 . S
H773 C779 0.930 . S
C774 H760 0.930 . S
C774 C772 1.395 1_655 S
C774 C777 1.403 . S
C775 C772 1.403 . S
C775 C776 1.524 . S
C775 C779 1.400 . S
C776 H761 0.960 . S
C776 H762 0.960 . S
C776 H763 0.960 . S
C776 C775 1.524 . S
C777 C774 1.403 . S
C777 C778 1.392 . S
C777 C781 1.495 . S
C778 C777 1.392 . S
C778 C779 1.385 1_655 S
C778 C780 1.478 . S
C779 H773 0.930 . S
C779 C775 1.400 . S
C779 C778 1.385 1_455 S
C780 C778 1.478 . S
C780 C782 1.381 . S
C780 C786 1.383 . S
C781 C777 1.495 . S
C781 H787 0.959 . S
C781 H788 0.961 . S
C781 H789 0.960 . S
C782 C780 1.381 . S
C782 C783 1.394 . S
C782 H790 0.930 . S
C783 C782 1.394 . S
C783 C784 1.383 . S
C783 H791 0.929 . S
C784 C783 1.383 . S
C784 C785 1.377 . S
C785 H769 0.930 . S
C785 C784 1.377 . S
C785 C786 1.379 . S
C786 H770 0.931 . S
C786 C780 1.383 . S
C786 C785 1.379 . S
H787 C781 0.959 . S
H788 C781 0.961 . S
H789 C781 0.960 . S
H790 C782 0.930 . S
H791 C783 0.929 . S
H792 C800 0.929 . S
H793 C802 0.930 . S
H794 C804 0.930 . S
H795 C807 0.929 . S
H796 C810 0.930 . S
H797 C812 0.960 . S
H798 C812 0.960 . S
H799 C812 0.960 1_545 S
C800 H792 0.929 . S
C800 C801 1.377 . S
C800 C802 1.384 . S
C801 C800 1.377 . S
C801 C807 1.390 . S
C802 H793 0.930 . S
C802 C800 1.384 . S
C802 C803 1.372 . S
C803 C802 1.372 . S
C803 C804 1.400 . S
C803 C808 1.490 . S
C804 H794 0.930 . S
C804 C803 1.400 . S
C804 C807 1.386 . S
H805 C821 0.930 . S
H806 C822 0.931 . S
C807 H795 0.929 . S
C807 C801 1.390 . S
C807 C804 1.386 . S
C808 C803 1.490 . S
C808 C810 1.395 . S
C808 C811 1.403 1_545 S
H809 C815 0.930 . S
C810 H796 0.930 . S
C810 C808 1.395 . S
C810 C813 1.403 . S
C811 C808 1.403 1_565 S
C811 C812 1.524 . S
C811 C815 1.400 . S
C812 H797 0.960 . S
C812 H798 0.960 . S
C812 H799 0.960 1_565 S
C812 C811 1.524 . S
C813 C810 1.403 . S
C813 C814 1.392 1_545 S
C813 C817 1.495 . S
C814 C813 1.392 1_565 S
C814 C815 1.385 . S
C814 C816 1.478 . S
C815 H809 0.930 . S
C815 C811 1.400 . S
C815 C814 1.385 . S
C816 C814 1.478 . S
C816 C818 1.381 . S
C816 C822 1.383 . S
C817 C813 1.495 . S
C817 H823 0.959 . S
C817 H824 0.961 . S
C817 H825 0.960 1_545 S
C818 C816 1.381 . S
C818 C819 1.394 . S
C818 H826 0.930 . S
C819 C818 1.394 . S
C819 C820 1.383 . S
C819 H827 0.929 . S
C820 C819 1.383 . S
C820 C821 1.377 . S
C821 H805 0.930 . S
C821 C820 1.377 . S
C821 C822 1.379 . S
C822 H806 0.931 . S
C822 C816 1.383 . S
C822 C821 1.379 . S
H823 C817 0.959 . S
H824 C817 0.961 . S
H825 C817 0.960 1_565 S
H826 C818 0.930 . S
H827 C819 0.929 . S
H828 C836 0.929 . S
H829 C838 0.930 . S
H830 C840 0.930 . S
H831 C843 0.929 . S
H832 C846 0.930 . S
H833 C848 0.960 . S
H834 C848 0.960 . S
H835 C848 0.960 . S
C836 H828 0.929 . S
C836 C837 1.377 . S
C836 C838 1.384 . S
C837 C836 1.377 . S
C837 C843 1.390 . S
C838 H829 0.930 . S
C838 C836 1.384 . S
C838 C839 1.372 . S
C839 C838 1.372 . S
C839 C840 1.400 . S
C839 C844 1.490 . S
C840 H830 0.930 . S
C840 C839 1.400 . S
C840 C843 1.386 . S
H841 C857 0.930 . S
H842 C858 0.931 . S
C843 H831 0.929 . S
C843 C837 1.390 . S
C843 C840 1.386 . S
C844 C839 1.490 . S
C844 C846 1.395 . S
C844 C847 1.403 . S
H845 C851 0.930 . S
C846 H832 0.930 . S
C846 C844 1.395 . S
C846 C849 1.403 . S
C847 C844 1.403 . S
C847 C848 1.524 . S
C847 C851 1.400 . S
C848 H833 0.960 . S
C848 H834 0.960 . S
C848 H835 0.960 . S
C848 C847 1.524 . S
C849 C846 1.403 . S
C849 C850 1.392 . S
C849 C853 1.495 . S
C850 C849 1.392 . S
C850 C851 1.385 . S
C850 C852 1.478 . S
C851 H845 0.930 . S
C851 C847 1.400 . S
C851 C850 1.385 . S
C852 C850 1.478 . S
C852 C854 1.381 . S
C852 C858 1.383 . S
C853 C849 1.495 . S
C853 H859 0.959 . S
C853 H860 0.961 . S
C853 H861 0.960 . S
C854 C852 1.381 . S
C854 C855 1.394 . S
C854 H862 0.930 . S
C855 C854 1.394 . S
C855 C856 1.383 . S
C855 H863 0.929 . S
C856 C855 1.383 . S
C856 C857 1.377 . S
C857 H841 0.930 . S
C857 C856 1.377 . S
C857 C858 1.379 . S
C858 H842 0.931 . S
C858 C852 1.383 . S
C858 C857 1.379 . S
H859 C853 0.959 . S
H860 C853 0.961 . S
H861 C853 0.960 . S
H862 C854 0.930 . S
H863 C855 0.929 . S
H864 C872 0.929 . S
H865 C874 0.930 . S
H866 C876 0.930 . S
H867 C879 0.929 . S
H868 C882 0.930 . S
H869 C884 0.960 . S
H870 C884 0.960 . S
H871 C884 0.960 . S
C872 H864 0.929 . S
C872 C873 1.377 1_556 S
C872 C874 1.384 . S
C873 C872 1.377 1_554 S
C873 C879 1.390 . S
C874 H865 0.930 . S
C874 C872 1.384 . S
C874 C875 1.372 1_556 S
C875 C874 1.372 1_554 S
C875 C876 1.400 . S
C875 C880 1.490 . S
C876 H866 0.930 . S
C876 C875 1.400 . S
C876 C879 1.386 . S
H877 C893 0.930 . S
H878 C894 0.931 . S
C879 H867 0.929 . S
C879 C873 1.390 . S
C879 C876 1.386 . S
C880 C875 1.490 . S
C880 C882 1.395 1_454 S
C880 C883 1.403 . S
H881 C887 0.930 . S
C882 H868 0.930 . S
C882 C880 1.395 1_656 S
C882 C885 1.403 . S
C883 C880 1.403 . S
C883 C884 1.524 . S
C883 C887 1.400 . S
C884 H869 0.960 . S
C884 H870 0.960 . S
C884 H871 0.960 . S
C884 C883 1.524 . S
C885 C882 1.403 . S
C885 C886 1.392 1_556 S
C885 C889 1.495 . S
C886 C885 1.392 1_554 S
C886 C887 1.385 1_655 S
C886 C888 1.478 . S
C887 H881 0.930 . S
C887 C883 1.400 . S
C887 C886 1.385 1_455 S
C888 C886 1.478 . S
C888 C890 1.381 1_554 S
C888 C894 1.383 . S
C889 C885 1.495 . S
C889 H895 0.959 . S
C889 H896 0.961 . S
C889 H897 0.960 . S
C890 C888 1.381 1_556 S
C890 C891 1.394 . S
C890 H898 0.930 . S
C891 C890 1.394 . S
C891 C892 1.383 1_556 S
C891 H899 0.929 . S
C892 C891 1.383 1_554 S
C892 C893 1.377 . S
C893 H877 0.930 . S
C893 C892 1.377 . S
C893 C894 1.379 . S
C894 H878 0.931 . S
C894 C888 1.383 . S
C894 C893 1.379 . S
H895 C889 0.959 . S
H896 C889 0.961 . S
H897 C889 0.960 . S
H898 C890 0.930 . S
H899 C891 0.929 . S
H900 C908 0.929 . S
H901 C910 0.930 . S
H902 C912 0.930 . S
H903 C915 0.929 . S
H904 C918 0.930 . S
H905 C920 0.960 . S
H906 C920 0.960 . S
H907 C920 0.960 . S
C908 H900 0.929 . S
C908 C909 1.377 . S
C908 C910 1.384 . S
C909 C908 1.377 . S
C909 C915 1.390 . S
C910 H901 0.930 . S
C910 C908 1.384 . S
C910 C911 1.372 . S
C911 C910 1.372 . S
C911 C912 1.400 . S
C911 C916 1.490 . S
C912 H902 0.930 . S
C912 C911 1.400 . S
C912 C915 1.386 . S
H913 C929 0.930 . S
H914 C930 0.931 . S
C915 H903 0.929 . S
C915 C909 1.390 . S
C915 C912 1.386 . S
C916 C911 1.490 . S
C916 C918 1.395 1_565 S
C916 C919 1.403 . S
H917 C923 0.930 . S
C918 H904 0.930 . S
C918 C916 1.395 1_545 S
C918 C921 1.403 . S
C919 C916 1.403 . S
C919 C920 1.524 . S
C919 C923 1.400 . S
C920 H905 0.960 . S
C920 H906 0.960 . S
C920 H907 0.960 . S
C920 C919 1.524 . S
C921 C918 1.403 . S
C921 C922 1.392 . S
C921 C925 1.495 . S
C922 C921 1.392 . S
C922 C923 1.385 1_545 S
C922 C924 1.478 . S
C923 H917 0.930 . S
C923 C919 1.400 . S
C923 C922 1.385 1_565 S
C924 C922 1.478 . S
C924 C926 1.381 . S
C924 C930 1.383 . S
C925 C921 1.495 . S
C925 H931 0.959 . S
C925 H932 0.961 . S
C925 H933 0.960 . S
C926 C924 1.381 . S
C926 C927 1.394 . S
C926 H934 0.930 . S
C927 C926 1.394 . S
C927 C928 1.383 . S
C927 H935 0.929 . S
C928 C927 1.383 . S
C928 C929 1.377 . S
C929 H913 0.930 . S
C929 C928 1.377 . S
C929 C930 1.379 . S
C930 H914 0.931 . S
C930 C924 1.383 . S
C930 C929 1.379 . S
H931 C925 0.959 . S
H932 C925 0.961 . S
H933 C925 0.960 . S
H934 C926 0.930 . S
H935 C927 0.929 . S
H936 C944 0.929 . S
H937 C946 0.930 . S
H938 C948 0.930 . S
H939 C951 0.929 . S
H940 C954 0.930 . S
H941 C956 0.960 . S
H942 C956 0.960 . S
H943 C956 0.960 . S
C944 H936 0.929 . S
C944 C945 1.377 . S
C944 C946 1.384 . S
C945 C944 1.377 . S
C945 C951 1.390 . S
C946 H937 0.930 . S
C946 C944 1.384 . S
C946 C947 1.372 . S
C947 C946 1.372 . S
C947 C948 1.400 . S
C947 C952 1.490 . S
C948 H938 0.930 . S
C948 C947 1.400 . S
C948 C951 1.386 . S
H949 C965 0.930 . S
H950 C966 0.931 . S
C951 H939 0.929 . S
C951 C945 1.390 . S
C951 C948 1.386 . S
C952 C947 1.490 . S
C952 C954 1.395 . S
C952 C955 1.403 . S
H953 C959 0.930 . S
C954 H940 0.930 . S
C954 C952 1.395 . S
C954 C957 1.403 . S
C955 C952 1.403 . S
C955 C956 1.524 . S
C955 C959 1.400 . S
C956 H941 0.960 . S
C956 H942 0.960 . S
C956 H943 0.960 . S
C956 C955 1.524 . S
C957 C954 1.403 . S
C957 C958 1.392 . S
C957 C961 1.495 . S
C958 C957 1.392 . S
C958 C959 1.385 . S
C958 C960 1.478 . S
C959 H953 0.930 . S
C959 C955 1.400 . S
C959 C958 1.385 . S
C960 C958 1.478 . S
C960 C962 1.381 . S
C960 C966 1.383 . S
C961 C957 1.495 . S
C961 H967 0.959 . S
C961 H968 0.961 . S
C961 H969 0.960 . S
C962 C960 1.381 . S
C962 C963 1.394 . S
C962 H970 0.930 . S
C963 C962 1.394 . S
C963 C964 1.383 . S
C963 H971 0.929 . S
C964 C963 1.383 . S
C964 C965 1.377 . S
C965 H949 0.930 . S
C965 C964 1.377 . S
C965 C966 1.379 . S
C966 H950 0.931 . S
C966 C960 1.383 . S
C966 C965 1.379 . S
H967 C961 0.959 . S
H968 C961 0.961 . S
H969 C961 0.960 . S
H970 C962 0.930 . S
H971 C963 0.929 . S
H972 C980 0.929 . S
H973 C982 0.930 . S
H974 C984 0.930 . S
H975 C987 0.929 . S
H976 C990 0.930 . S
H977 C992 0.960 . S
H978 C992 0.960 . S
H979 C992 0.960 1_655 S
C980 H972 0.929 . S
C980 C981 1.377 1_455 S
C980 C982 1.384 . S
C981 C980 1.377 1_655 S
C981 C987 1.390 . S
C982 H973 0.930 . S
C982 C980 1.384 . S
C982 C983 1.372 . S
C983 C982 1.372 . S
C983 C984 1.400 1_455 S
C983 C988 1.490 . S
C984 H974 0.930 . S
C984 C983 1.400 1_655 S
C984 C987 1.386 . S
H985 C1001 0.930 . S
H986 C1002 0.931 . S
C987 H975 0.929 . S
C987 C981 1.390 . S
C987 C984 1.386 . S
C988 C983 1.490 . S
C988 C990 1.395 . S
C988 C991 1.403 . S
H989 C995 0.930 . S
C990 H976 0.930 . S
C990 C988 1.395 . S
C990 C993 1.403 . S
C991 C988 1.403 . S
C991 C992 1.524 . S
C991 C995 1.400 . S
C992 H977 0.960 . S
C992 H978 0.960 . S
C992 H979 0.960 1_455 S
C992 C991 1.524 . S
C993 C990 1.403 . S
C993 C994 1.392 . S
C993 C997 1.495 . S
C994 C993 1.392 . S
C994 C995 1.385 . S
C994 C996 1.478 . S
C995 H989 0.930 . S
C995 C991 1.400 . S
C995 C994 1.385 . S
C996 C994 1.478 . S
C996 C998 1.381 . S
C996 C1002 1.383 . S
C997 C993 1.495 . S
C997 H1003 0.959 . S
C997 H1004 0.961 . S
C997 H1005 0.960 . S
C998 C996 1.381 . S
C998 C999 1.394 . S
C998 H1006 0.930 . S
C999 C998 1.394 . S
C999 C1000 1.383 . S
C999 H1007 0.929 . S
C1000 C999 1.383 . S
C1000 C1001 1.377 . S
C1001 H985 0.930 . S
C1001 C1000 1.377 . S
C1001 C1002 1.379 . S
C1002 H986 0.931 . S
C1002 C996 1.383 . S
C1002 C1001 1.379 . S
H1003 C997 0.959 . S
H1004 C997 0.961 . S
H1005 C997 0.960 . S
H1006 C998 0.930 . S
H1007 C999 0.929 . S
H1008 C1016 0.929 . S
H1009 C1018 0.930 . S
H1010 C1020 0.930 . S
H1011 C1023 0.929 . S
H1012 C1026 0.930 . S
H1013 C1028 0.960 . S
H1014 C1028 0.960 . S
H1015 C1028 0.960 . S
C1016 H1008 0.929 . S
C1016 C1017 1.377 . S
C1016 C1018 1.384 . S
C1017 C1016 1.377 . S
C1017 C1023 1.390 1_565 S
C1018 H1009 0.930 . S
C1018 C1016 1.384 . S
C1018 C1019 1.372 1_565 S
C1019 C1018 1.372 1_545 S
C1019 C1020 1.400 . S
C1019 C1024 1.490 . S
C1020 H1010 0.930 . S
C1020 C1019 1.400 . S
C1020 C1023 1.386 . S
H1021 C1037 0.930 . S
H1022 C1038 0.931 . S
C1023 H1011 0.929 . S
C1023 C1017 1.390 1_545 S
C1023 C1020 1.386 . S
C1024 C1019 1.490 . S
C1024 C1026 1.395 . S
C1024 C1027 1.403 . S
H1025 C1031 0.930 . S
C1026 H1012 0.930 . S
C1026 C1024 1.395 . S
C1026 C1029 1.403 . S
C1027 C1024 1.403 . S
C1027 C1028 1.524 . S
C1027 C1031 1.400 . S
C1028 H1013 0.960 . S
C1028 H1014 0.960 . S
C1028 H1015 0.960 . S
C1028 C1027 1.524 . S
C1029 C1026 1.403 . S
C1029 C1030 1.392 . S
C1029 C1033 1.495 . S
C1030 C1029 1.392 . S
C1030 C1031 1.385 . S
C1030 C1032 1.478 . S
C1031 H1025 0.930 . S
C1031 C1027 1.400 . S
C1031 C1030 1.385 . S
C1032 C1030 1.478 . S
C1032 C1034 1.381 . S
C1032 C1038 1.383 . S
C1033 C1029 1.495 . S
C1033 H1039 0.959 . S
C1033 H1040 0.961 . S
C1033 H1041 0.960 . S
C1034 C1032 1.381 . S
C1034 C1035 1.394 . S
C1034 H1042 0.930 . S
C1035 C1034 1.394 . S
C1035 C1036 1.383 . S
C1035 H1043 0.929 . S
C1036 C1035 1.383 . S
C1036 C1037 1.377 . S
C1037 H1021 0.930 . S
C1037 C1036 1.377 . S
C1037 C1038 1.379 . S
C1038 H1022 0.931 . S
C1038 C1032 1.383 . S
C1038 C1037 1.379 . S
H1039 C1033 0.959 . S
H1040 C1033 0.961 . S
H1041 C1033 0.960 . S
H1042 C1034 0.930 . S
H1043 C1035 0.929 . S
H1044 C1052 0.929 . S
H1045 C1054 0.930 . S
H1046 C1056 0.930 . S
H1047 C1059 0.929 . S
H1048 C1062 0.930 . S
H1049 C1064 0.960 . S
H1050 C1064 0.960 . S
H1051 C1064 0.960 . S
C1052 H1044 0.929 . S
C1052 C1053 1.377 . S
C1052 C1054 1.384 . S
C1053 C1052 1.377 . S
C1053 C1059 1.390 . S
C1054 H1045 0.930 . S
C1054 C1052 1.384 . S
C1054 C1055 1.372 . S
C1055 C1054 1.372 . S
C1055 C1056 1.400 . S
C1055 C1060 1.490 . S
C1056 H1046 0.930 . S
C1056 C1055 1.400 . S
C1056 C1059 1.386 . S
H1057 C1073 0.930 . S
H1058 C1074 0.931 . S
C1059 H1047 0.929 . S
C1059 C1053 1.390 . S
C1059 C1056 1.386 . S
C1060 C1055 1.490 . S
C1060 C1062 1.395 . S
C1060 C1063 1.403 . S
H1061 C1067 0.930 . S
C1062 H1048 0.930 . S
C1062 C1060 1.395 . S
C1062 C1065 1.403 . S
C1063 C1060 1.403 . S
C1063 C1064 1.524 . S
C1063 C1067 1.400 . S
C1064 H1049 0.960 . S
C1064 H1050 0.960 . S
C1064 H1051 0.960 . S
C1064 C1063 1.524 . S
C1065 C1062 1.403 . S
C1065 C1066 1.392 . S
C1065 C1069 1.495 . S
C1066 C1065 1.392 . S
C1066 C1067 1.385 . S
C1066 C1068 1.478 . S
C1067 H1061 0.930 . S
C1067 C1063 1.400 . S
C1067 C1066 1.385 . S
C1068 C1066 1.478 . S
C1068 C1070 1.381 . S
C1068 C1074 1.383 . S
C1069 C1065 1.495 . S
C1069 H1075 0.959 . S
C1069 H1076 0.961 . S
C1069 H1077 0.960 . S
C1070 C1068 1.381 . S
C1070 C1071 1.394 . S
C1070 H1078 0.930 . S
C1071 C1070 1.394 . S
C1071 C1072 1.383 . S
C1071 H1079 0.929 . S
C1072 C1071 1.383 . S
C1072 C1073 1.377 . S
C1073 H1057 0.930 . S
C1073 C1072 1.377 . S
C1073 C1074 1.379 . S
C1074 H1058 0.931 . S
C1074 C1068 1.383 . S
C1074 C1073 1.379 . S
H1075 C1069 0.959 . S
H1076 C1069 0.961 . S
H1077 C1069 0.960 . S
H1078 C1070 0.930 . S
H1079 C1071 0.929 . S
H1080 C1088 0.929 . S
H1081 C1090 0.930 . S
H1082 C1092 0.930 . S
H1083 C1095 0.929 . S
H1084 C1098 0.930 . S
H1085 C1100 0.960 . S
H1086 C1100 0.960 . S
H1087 C1100 0.960 . S
C1088 H1080 0.929 . S
C1088 C1089 1.377 . S
C1088 C1090 1.384 . S
C1089 C1088 1.377 . S
C1089 C1095 1.390 1_455 S
C1090 H1081 0.930 . S
C1090 C1088 1.384 . S
C1090 C1091 1.372 1_455 S
C1091 C1090 1.372 1_655 S
C1091 C1092 1.400 . S
C1091 C1096 1.490 . S
C1092 H1082 0.930 . S
C1092 C1091 1.400 . S
C1092 C1095 1.386 . S
H1093 C1109 0.930 . S
H1094 C1110 0.931 . S
C1095 H1083 0.929 . S
C1095 C1089 1.390 1_655 S
C1095 C1092 1.386 . S
C1096 C1091 1.490 . S
C1096 C1098 1.395 . S
C1096 C1099 1.403 . S
H1097 C1103 0.930 . S
C1098 H1084 0.930 . S
C1098 C1096 1.395 . S
C1098 C1101 1.403 . S
C1099 C1096 1.403 . S
C1099 C1100 1.524 . S
C1099 C1103 1.400 . S
C1100 H1085 0.960 . S
C1100 H1086 0.960 . S
C1100 H1087 0.960 . S
C1100 C1099 1.524 . S
C1101 C1098 1.403 . S
C1101 C1102 1.392 . S
C1101 C1105 1.495 . S
C1102 C1101 1.392 . S
C1102 C1103 1.385 . S
C1102 C1104 1.478 . S
C1103 H1097 0.930 . S
C1103 C1099 1.400 . S
C1103 C1102 1.385 . S
C1104 C1102 1.478 . S
C1104 C1106 1.381 . S
C1104 C1110 1.383 . S
C1105 C1101 1.495 . S
C1105 H1111 0.959 . S
C1105 H1112 0.961 . S
C1105 H1113 0.960 . S
C1106 C1104 1.381 . S
C1106 C1107 1.394 . S
C1106 H1114 0.930 . S
C1107 C1106 1.394 . S
C1107 C1108 1.383 . S
C1107 H1115 0.929 . S
C1108 C1107 1.383 . S
C1108 C1109 1.377 . S
C1109 H1093 0.930 . S
C1109 C1108 1.377 . S
C1109 C1110 1.379 . S
C1110 H1094 0.931 . S
C1110 C1104 1.383 . S
C1110 C1109 1.379 . S
H1111 C1105 0.959 . S
H1112 C1105 0.961 . S
H1113 C1105 0.960 . S
H1114 C1106 0.930 . S
H1115 C1107 0.929 . S
H1116 C1124 0.929 . S
H1117 C1126 0.930 . S
H1118 C1128 0.930 . S
H1119 C1131 0.929 . S
H1120 C1134 0.930 . S
H1121 C1136 0.960 . S
H1122 C1136 0.960 . S
H1123 C1136 0.960 . S
C1124 H1116 0.929 . S
C1124 C1125 1.377 . S
C1124 C1126 1.384 1_545 S
C1125 C1124 1.377 . S
C1125 C1131 1.390 . S
C1126 H1117 0.930 . S
C1126 C1124 1.384 1_565 S
C1126 C1127 1.372 . S
C1127 C1126 1.372 . S
C1127 C1128 1.400 . S
C1127 C1132 1.490 . S
C1128 H1118 0.930 . S
C1128 C1127 1.400 . S
C1128 C1131 1.386 1_565 S
H1129 C1145 0.930 . S
H1130 C1146 0.931 . S
C1131 H1119 0.929 . S
C1131 C1125 1.390 . S
C1131 C1128 1.386 1_545 S
C1132 C1127 1.490 . S
C1132 C1134 1.395 . S
C1132 C1135 1.403 . S
H1133 C1139 0.930 . S
C1134 H1120 0.930 . S
C1134 C1132 1.395 . S
C1134 C1137 1.403 . S
C1135 C1132 1.403 . S
C1135 C1136 1.524 1_565 S
C1135 C1139 1.400 . S
C1136 H1121 0.960 . S
C1136 H1122 0.960 . S
C1136 H1123 0.960 . S
C1136 C1135 1.524 1_545 S
C1137 C1134 1.403 . S
C1137 C1138 1.392 . S
C1137 C1141 1.495 . S
C1138 C1137 1.392 . S
C1138 C1139 1.385 . S
C1138 C1140 1.478 . S
C1139 H1133 0.930 . S
C1139 C1135 1.400 . S
C1139 C1138 1.385 . S
C1140 C1138 1.478 . S
C1140 C1142 1.381 . S
C1140 C1146 1.383 . S
C1141 C1137 1.495 . S
C1141 H1147 0.959 . S
C1141 H1148 0.961 . S
C1141 H1149 0.960 . S
C1142 C1140 1.381 . S
C1142 C1143 1.394 . S
C1142 H1150 0.930 . S
C1143 C1142 1.394 . S
C1143 C1144 1.383 . S
C1143 H1151 0.929 . S
C1144 C1143 1.383 . S
C1144 C1145 1.377 . S
C1145 H1129 0.930 . S
C1145 C1144 1.377 . S
C1145 C1146 1.379 . S
C1146 H1130 0.931 . S
C1146 C1140 1.383 . S
C1146 C1145 1.379 . S
H1147 C1141 0.959 . S
H1148 C1141 0.961 . S
H1149 C1141 0.960 . S
H1150 C1142 0.930 . S
H1151 C1143 0.929 . S
C513 C403 1.064 . S
C532 C69 1.006 . S
C549 C487 1.064 . S
C568 C153 1.006 . S
C585 C67 1.067 . S
C604 C237 0.865 . S
C621 C151 1.064 . S
C640 C321 0.859 . S
C657 C235 1.063 . S
C676 C405 1.004 . S
C693 C319 1.069 . S
C712 C489 0.963 . S
C729 C63 1.146 . S
C748 C315 1.119 . S
C765 C399 1.146 . S
C784 C147 1.120 . S
C801 C483 1.157 . S
C820 C231 1.182 . S
C837 C242 1.474 . S
C856 C494 1.471 . S
C873 C74 1.473 . S
C892 C326 1.459 . S
C909 C410 1.473 . S
C928 C158 1.462 . S
C945 C476 0.994 . S
C964 C58 0.992 . S
C981 C142 0.952 . S
C1000 C56 1.024 . S
C1017 C226 0.929 . S
C1036 C140 0.955 . S
C1053 C224 0.983 . S
C1072 C310 0.904 . S
C1089 C394 0.929 . S
C1108 C308 0.959 . S
C1125 C478 0.936 . S
C1144 C392 0.986 . S
