# Generated by pormake.
# Topology toc-e, (7)-cn, num edge types: 1
# Building blocks:
#     Node 0, Type 0, BuildingBlock: NUHQUE_clean_sbu_2, # of connection points: 7
#     Node 1, Type 0, BuildingBlock: NUHQUE_clean_sbu_2, # of connection points: 7
#     Node 2, Type 0, BuildingBlock: NUHQUE_clean_sbu_2, # of connection points: 7
#     Node 3, Type 0, BuildingBlock: NUHQUE_clean_sbu_2, # of connection points: 7
#     Node 4, Type 0, BuildingBlock: NUHQUE_clean_sbu_2, # of connection points: 7
#     Node 5, Type 0, BuildingBlock: NUHQUE_clean_sbu_2, # of connection points: 7
#     Node 6, Type 0, BuildingBlock: NUHQUE_clean_sbu_2, # of connection points: 7
#     Node 7, Type 0, BuildingBlock: NUHQUE_clean_sbu_2, # of connection points: 7
#     Node 8, Type 0, BuildingBlock: NUHQUE_clean_sbu_2, # of connection points: 7
#     Node 9, Type 0, BuildingBlock: NUHQUE_clean_sbu_2, # of connection points: 7
#     Node 10, Type 0, BuildingBlock: NUHQUE_clean_sbu_2, # of connection points: 7
#     Node 11, Type 0, BuildingBlock: NUHQUE_clean_sbu_2, # of connection points: 7
#     Node 12, Type 0, BuildingBlock: NUHQUE_clean_sbu_2, # of connection points: 7
#     Node 13, Type 0, BuildingBlock: NUHQUE_clean_sbu_2, # of connection points: 7
#     Node 14, Type 0, BuildingBlock: NUHQUE_clean_sbu_2, # of connection points: 7
#     Node 15, Type 0, BuildingBlock: NUHQUE_clean_sbu_2, # of connection points: 7
#     Node 16, Type 0, BuildingBlock: NUHQUE_clean_sbu_2, # of connection points: 7
#     Node 17, Type 0, BuildingBlock: NUHQUE_clean_sbu_2, # of connection points: 7
#     Node 18, Type 0, BuildingBlock: NUHQUE_clean_sbu_2, # of connection points: 7
#     Node 19, Type 0, BuildingBlock: NUHQUE_clean_sbu_2, # of connection points: 7
#     Node 20, Type 0, BuildingBlock: NUHQUE_clean_sbu_2, # of connection points: 7
#     Node 21, Type 0, BuildingBlock: NUHQUE_clean_sbu_2, # of connection points: 7
#     Node 22, Type 0, BuildingBlock: NUHQUE_clean_sbu_2, # of connection points: 7
#     Node 23, Type 0, BuildingBlock: NUHQUE_clean_sbu_2, # of connection points: 7
#     Edge 24, Type (0, 0), BuildingBlock: MIFKUJ_clean_linker_0, # of connection points: 2
#     Edge 25, Type (0, 0), BuildingBlock: MIFKUJ_clean_linker_0, # of connection points: 2
#     Edge 26, Type (0, 0), BuildingBlock: MIFKUJ_clean_linker_0, # of connection points: 2
#     Edge 27, Type (0, 0), BuildingBlock: MIFKUJ_clean_linker_0, # of connection points: 2
#     Edge 28, Type (0, 0), BuildingBlock: MIFKUJ_clean_linker_0, # of connection points: 2
#     Edge 29, Type (0, 0), BuildingBlock: MIFKUJ_clean_linker_0, # of connection points: 2
#     Edge 30, Type (0, 0), BuildingBlock: MIFKUJ_clean_linker_0, # of connection points: 2
#     Edge 31, Type (0, 0), BuildingBlock: MIFKUJ_clean_linker_0, # of connection points: 2
#     Edge 32, Type (0, 0), BuildingBlock: MIFKUJ_clean_linker_0, # of connection points: 2
#     Edge 33, Type (0, 0), BuildingBlock: MIFKUJ_clean_linker_0, # of connection points: 2
#     Edge 34, Type (0, 0), BuildingBlock: MIFKUJ_clean_linker_0, # of connection points: 2
#     Edge 35, Type (0, 0), BuildingBlock: MIFKUJ_clean_linker_0, # of connection points: 2
#     Edge 36, Type (0, 0), BuildingBlock: MIFKUJ_clean_linker_0, # of connection points: 2
#     Edge 37, Type (0, 0), BuildingBlock: MIFKUJ_clean_linker_0, # of connection points: 2
#     Edge 38, Type (0, 0), BuildingBlock: MIFKUJ_clean_linker_0, # of connection points: 2
#     Edge 39, Type (0, 0), BuildingBlock: MIFKUJ_clean_linker_0, # of connection points: 2
#     Edge 40, Type (0, 0), BuildingBlock: MIFKUJ_clean_linker_0, # of connection points: 2
#     Edge 41, Type (0, 0), BuildingBlock: MIFKUJ_clean_linker_0, # of connection points: 2
#     Edge 42, Type (0, 0), BuildingBlock: MIFKUJ_clean_linker_0, # of connection points: 2
#     Edge 43, Type (0, 0), BuildingBlock: MIFKUJ_clean_linker_0, # of connection points: 2
#     Edge 44, Type (0, 0), BuildingBlock: MIFKUJ_clean_linker_0, # of connection points: 2
#     Edge 45, Type (0, 0), BuildingBlock: MIFKUJ_clean_linker_0, # of connection points: 2
#     Edge 46, Type (0, 0), BuildingBlock: MIFKUJ_clean_linker_0, # of connection points: 2
#     Edge 47, Type (0, 0), BuildingBlock: MIFKUJ_clean_linker_0, # of connection points: 2
#     Edge 48, Type (0, 0), BuildingBlock: MIFKUJ_clean_linker_0, # of connection points: 2
#     Edge 49, Type (0, 0), BuildingBlock: MIFKUJ_clean_linker_0, # of connection points: 2
#     Edge 50, Type (0, 0), BuildingBlock: MIFKUJ_clean_linker_0, # of connection points: 2
#     Edge 51, Type (0, 0), BuildingBlock: MIFKUJ_clean_linker_0, # of connection points: 2
#     Edge 52, Type (0, 0), BuildingBlock: MIFKUJ_clean_linker_0, # of connection points: 2
#     Edge 53, Type (0, 0), BuildingBlock: MIFKUJ_clean_linker_0, # of connection points: 2
#     Edge 54, Type (0, 0), BuildingBlock: MIFKUJ_clean_linker_0, # of connection points: 2
#     Edge 55, Type (0, 0), BuildingBlock: MIFKUJ_clean_linker_0, # of connection points: 2
#     Edge 56, Type (0, 0), BuildingBlock: MIFKUJ_clean_linker_0, # of connection points: 2
#     Edge 57, Type (0, 0), BuildingBlock: MIFKUJ_clean_linker_0, # of connection points: 2
#     Edge 58, Type (0, 0), BuildingBlock: MIFKUJ_clean_linker_0, # of connection points: 2
#     Edge 59, Type (0, 0), BuildingBlock: MIFKUJ_clean_linker_0, # of connection points: 2
#     Edge 60, Type (0, 0), BuildingBlock: MIFKUJ_clean_linker_0, # of connection points: 2
#     Edge 61, Type (0, 0), BuildingBlock: MIFKUJ_clean_linker_0, # of connection points: 2
#     Edge 62, Type (0, 0), BuildingBlock: MIFKUJ_clean_linker_0, # of connection points: 2
#     Edge 63, Type (0, 0), BuildingBlock: MIFKUJ_clean_linker_0, # of connection points: 2
#     Edge 64, Type (0, 0), BuildingBlock: MIFKUJ_clean_linker_0, # of connection points: 2
#     Edge 65, Type (0, 0), BuildingBlock: MIFKUJ_clean_linker_0, # of connection points: 2
#     Edge 66, Type (0, 0), BuildingBlock: MIFKUJ_clean_linker_0, # of connection points: 2
#     Edge 67, Type (0, 0), BuildingBlock: MIFKUJ_clean_linker_0, # of connection points: 2
#     Edge 68, Type (0, 0), BuildingBlock: MIFKUJ_clean_linker_0, # of connection points: 2
#     Edge 69, Type (0, 0), BuildingBlock: MIFKUJ_clean_linker_0, # of connection points: 2
#     Edge 70, Type (0, 0), BuildingBlock: MIFKUJ_clean_linker_0, # of connection points: 2
#     Edge 71, Type (0, 0), BuildingBlock: MIFKUJ_clean_linker_0, # of connection points: 2
#     Edge 72, Type (0, 0), BuildingBlock: MIFKUJ_clean_linker_0, # of connection points: 2
#     Edge 73, Type (0, 0), BuildingBlock: MIFKUJ_clean_linker_0, # of connection points: 2
#     Edge 74, Type (0, 0), BuildingBlock: MIFKUJ_clean_linker_0, # of connection points: 2
#     Edge 75, Type (0, 0), BuildingBlock: MIFKUJ_clean_linker_0, # of connection points: 2
#     Edge 76, Type (0, 0), BuildingBlock: MIFKUJ_clean_linker_0, # of connection points: 2
#     Edge 77, Type (0, 0), BuildingBlock: MIFKUJ_clean_linker_0, # of connection points: 2
#     Edge 78, Type (0, 0), BuildingBlock: MIFKUJ_clean_linker_0, # of connection points: 2
#     Edge 79, Type (0, 0), BuildingBlock: MIFKUJ_clean_linker_0, # of connection points: 2
#     Edge 80, Type (0, 0), BuildingBlock: MIFKUJ_clean_linker_0, # of connection points: 2
#     Edge 81, Type (0, 0), BuildingBlock: MIFKUJ_clean_linker_0, # of connection points: 2
#     Edge 82, Type (0, 0), BuildingBlock: MIFKUJ_clean_linker_0, # of connection points: 2
#     Edge 83, Type (0, 0), BuildingBlock: MIFKUJ_clean_linker_0, # of connection points: 2
#     Edge 84, Type (0, 0), BuildingBlock: MIFKUJ_clean_linker_0, # of connection points: 2
#     Edge 85, Type (0, 0), BuildingBlock: MIFKUJ_clean_linker_0, # of connection points: 2
#     Edge 86, Type (0, 0), BuildingBlock: MIFKUJ_clean_linker_0, # of connection points: 2
#     Edge 87, Type (0, 0), BuildingBlock: MIFKUJ_clean_linker_0, # of connection points: 2
#     Edge 88, Type (0, 0), BuildingBlock: MIFKUJ_clean_linker_0, # of connection points: 2
#     Edge 89, Type (0, 0), BuildingBlock: MIFKUJ_clean_linker_0, # of connection points: 2
#     Edge 90, Type (0, 0), BuildingBlock: MIFKUJ_clean_linker_0, # of connection points: 2
#     Edge 91, Type (0, 0), BuildingBlock: MIFKUJ_clean_linker_0, # of connection points: 2
#     Edge 92, Type (0, 0), BuildingBlock: MIFKUJ_clean_linker_0, # of connection points: 2
#     Edge 93, Type (0, 0), BuildingBlock: MIFKUJ_clean_linker_0, # of connection points: 2
#     Edge 94, Type (0, 0), BuildingBlock: MIFKUJ_clean_linker_0, # of connection points: 2
#     Edge 95, Type (0, 0), BuildingBlock: MIFKUJ_clean_linker_0, # of connection points: 2
#     Edge 96, Type (0, 0), BuildingBlock: MIFKUJ_clean_linker_0, # of connection points: 2
#     Edge 97, Type (0, 0), BuildingBlock: MIFKUJ_clean_linker_0, # of connection points: 2
#     Edge 98, Type (0, 0), BuildingBlock: MIFKUJ_clean_linker_0, # of connection points: 2
#     Edge 99, Type (0, 0), BuildingBlock: MIFKUJ_clean_linker_0, # of connection points: 2
#     Edge 100, Type (0, 0), BuildingBlock: MIFKUJ_clean_linker_0, # of connection points: 2
#     Edge 101, Type (0, 0), BuildingBlock: MIFKUJ_clean_linker_0, # of connection points: 2
#     Edge 102, Type (0, 0), BuildingBlock: MIFKUJ_clean_linker_0, # of connection points: 2
#     Edge 103, Type (0, 0), BuildingBlock: MIFKUJ_clean_linker_0, # of connection points: 2
#     Edge 104, Type (0, 0), BuildingBlock: MIFKUJ_clean_linker_0, # of connection points: 2
#     Edge 105, Type (0, 0), BuildingBlock: MIFKUJ_clean_linker_0, # of connection points: 2
#     Edge 106, Type (0, 0), BuildingBlock: MIFKUJ_clean_linker_0, # of connection points: 2
#     Edge 107, Type (0, 0), BuildingBlock: MIFKUJ_clean_linker_0, # of connection points: 2
# Relax obj value: 0.236
# Max RMSD: 0.246
# Mean RMSD: 0.246
data_MOF--net-toc-e--node1-NUHQUE_clean_sbu_2--edge1-MIFKUJ_clean_linker_0
_symmetry_space_group_name_H-M    P1
_symmetry_Int_Tables_number       1
_symmetry_cell_setting            triclinic
loop_
_symmetry_equiv_pos_as_xyz
'x, y, z'
_cell_length_a     67.183867
_cell_length_b     67.085832
_cell_length_c     66.928273
_cell_angle_alpha  90.176234
_cell_angle_beta   89.85681
_cell_angle_gamma 89.917471
loop_
_atom_site_label
_atom_site_type_symbol
_atom_site_fract_x
_atom_site_fract_y
_atom_site_fract_z
_atom_type_partial_charge
O0 O 0.17072 0.34766 0.67985 0.0
Tb1 Tb 0.15051 0.33711 0.65684 0.0
Eu2 Eu 0.12673 0.34642 0.59295 0.0
C3 C 0.1774 0.36595 0.682 0.0
O4 O 0.17126 0.38009 0.66995 0.0
C5 C 0.16338 0.32419 0.61327 0.0
O6 O 0.10291 0.33199 0.5739 0.0
C7 C 0.13686 0.37947 0.57577 0.0
C8 C 0.08427 0.33058 0.57979 0.0
O9 O 0.08 0.33276 0.59879 0.0
C10 C 0.1145 0.3573 0.64116 0.0
C11 C 0.1459 0.39903 0.57922 0.0
C12 C 0.15317 0.40479 0.59811 0.0
C13 C 0.16009 0.42435 0.60102 0.0
C14 C 0.15897 0.43806 0.58529 0.0
C15 C 0.15125 0.4326 0.56672 0.0
C16 C 0.14514 0.41291 0.56359 0.0
O17 O 0.1612 0.33925 0.62588 0.0
O18 O 0.15247 0.32436 0.59674 0.0
O19 O 0.15637 0.30608 0.66471 0.0
O20 O 0.12671 0.31659 0.66481 0.0
C21 C 0.13798 0.30135 0.6684 0.0
O22 O 0.12544 0.35115 0.62609 0.0
O23 O 0.12351 0.3554 0.65841 0.0
O24 O 0.11951 0.37664 0.58432 0.0
O25 O 0.14848 0.36366 0.57599 0.0
H26 H 0.1531 0.39433 0.61042 0.0
H27 H 0.16368 0.45335 0.58768 0.0
H28 H 0.13895 0.40863 0.54924 0.0
O29 O 0.64081 0.66677 0.16889 0.0
Tb30 Tb 0.65728 0.6474 0.14805 0.0
Eu31 Eu 0.66223 0.63732 0.09691 0.0
C32 C 0.63738 0.686 0.16645 0.0
O33 O 0.63984 0.69412 0.1488 0.0
C34 C 0.68561 0.67094 0.11833 0.0
O35 O 0.66304 0.61643 0.07036 0.0
C36 C 0.63006 0.65854 0.09537 0.0
C37 C 0.67529 0.60111 0.06968 0.0
O38 O 0.68943 0.5996 0.08311 0.0
C39 C 0.64722 0.6061 0.12863 0.0
C40 C 0.60816 0.65866 0.09336 0.0
C41 C 0.59697 0.66221 0.11075 0.0
C42 C 0.57641 0.66481 0.10983 0.0
C43 C 0.56679 0.66371 0.09138 0.0
C44 C 0.57753 0.66028 0.07376 0.0
C45 C 0.59834 0.65762 0.0747 0.0
O46 O 0.6695 0.67182 0.12977 0.0
O47 O 0.68837 0.65606 0.10571 0.0
O48 O 0.66576 0.64011 0.17823 0.0
O49 O 0.68724 0.63612 0.15516 0.0
C50 C 0.6838 0.63456 0.1743 0.0
O51 O 0.66087 0.60966 0.11518 0.0
O52 O 0.63987 0.62068 0.13978 0.0
O53 O 0.64125 0.65512 0.07954 0.0
O54 O 0.63729 0.65102 0.11199 0.0
H55 H 0.60434 0.66355 0.1251 0.0
H56 H 0.55074 0.66548 0.0907 0.0
H57 H 0.60678 0.65551 0.06104 0.0
O58 O 0.33477 0.14006 0.66792 0.0
Tb59 Tb 0.35394 0.15932 0.64944 0.0
Eu60 Eu 0.37092 0.16702 0.59701 0.0
C61 C 0.31512 0.14184 0.66807 0.0
O62 O 0.30639 0.15207 0.6539 0.0
C63 C 0.33116 0.18557 0.61719 0.0
O64 O 0.39257 0.17556 0.57207 0.0
C65 C 0.36053 0.13054 0.58887 0.0
C66 C 0.41158 0.1791 0.57566 0.0
O67 O 0.41755 0.18054 0.59424 0.0
C68 C 0.39717 0.15538 0.63406 0.0
C69 C 0.34873 0.11192 0.58929 0.0
C70 C 0.34276 0.10348 0.60756 0.0
C71 C 0.33457 0.08425 0.60807 0.0
C72 C 0.33206 0.07364 0.59019 0.0
C73 C 0.33832 0.08147 0.57182 0.0
C74 C 0.34653 0.1008 0.57148 0.0
O75 O 0.33073 0.16965 0.62878 0.0
O76 O 0.34585 0.18862 0.60438 0.0
O77 O 0.36388 0.18947 0.65796 0.0
O78 O 0.35555 0.16863 0.68033 0.0
C79 C 0.36189 0.18654 0.67714 0.0
O80 O 0.3927 0.17043 0.62242 0.0
O81 O 0.38271 0.14487 0.64237 0.0
O82 O 0.35545 0.1456 0.57743 0.0
O83 O 0.37031 0.13578 0.60498 0.0
H84 H 0.34542 0.11136 0.62147 0.0
H85 H 0.32682 0.05839 0.59085 0.0
H86 H 0.35194 0.10689 0.5575 0.0
O87 O 0.86001 0.83282 0.17454 0.0
Tb88 Tb 0.84187 0.84967 0.15366 0.0
Eu89 Eu 0.85161 0.86571 0.09536 0.0
C90 C 0.85634 0.81356 0.17526 0.0
O91 O 0.84428 0.80601 0.16179 0.0
C92 C 0.82313 0.8364 0.11482 0.0
O93 O 0.84742 0.89379 0.07783 0.0
C94 C 0.87626 0.84354 0.07548 0.0
C95 C 0.83624 0.90902 0.08287 0.0
O96 O 0.82464 0.90824 0.09865 0.0
C97 C 0.86225 0.8878 0.13647 0.0
C98 C 0.89813 0.84198 0.07637 0.0
C99 C 0.90757 0.8383 0.09474 0.0
C100 C 0.92828 0.83778 0.09592 0.0
C101 C 0.9397 0.84149 0.07882 0.0
C102 C 0.93064 0.84587 0.06048 0.0
C103 C 0.90974 0.84572 0.05925 0.0
O104 O 0.83975 0.83486 0.12498 0.0
O105 O 0.82238 0.85008 0.10083 0.0
O106 O 0.81664 0.83831 0.17078 0.0
O107 O 0.8158 0.86801 0.16038 0.0
C108 C 0.80632 0.85466 0.1706 0.0
O109 O 0.86919 0.87632 0.12209 0.0
O110 O 0.85412 0.87968 0.1524 0.0
O111 O 0.86924 0.86035 0.06845 0.0
O112 O 0.86651 0.83725 0.09125 0.0
H113 H 0.89891 0.83594 0.10822 0.0
H114 H 0.95581 0.84126 0.07994 0.0
H115 H 0.90251 0.84914 0.0452 0.0
O116 O 0.16666 0.13631 0.84089 0.0
Tb117 Tb 0.14831 0.15446 0.86138 0.0
Eu118 Eu 0.12888 0.16265 0.90983 0.0
C119 C 0.18626 0.13834 0.84117 0.0
O120 O 0.19426 0.14802 0.85619 0.0
C121 C 0.1695 0.17948 0.89398 0.0
O122 O 0.10776 0.1722 0.93435 0.0
C123 C 0.14018 0.12705 0.91974 0.0
C124 C 0.08932 0.17796 0.93106 0.0
O125 O 0.08344 0.18137 0.9127 0.0
C126 C 0.10365 0.14799 0.87261 0.0
C127 C 0.15401 0.11011 0.92179 0.0
C128 C 0.16393 0.10244 0.90493 0.0
C129 C 0.17259 0.08342 0.90543 0.0
C130 C 0.17211 0.07247 0.92325 0.0
C131 C 0.16238 0.07993 0.94026 0.0
C132 C 0.15362 0.09893 0.93957 0.0
O133 O 0.17013 0.16235 0.88429 0.0
O134 O 0.15345 0.18457 0.90399 0.0
O135 O 0.15385 0.17184 0.83481 0.0
O136 O 0.13421 0.18373 0.85676 0.0
C137 C 0.14272 0.18688 0.83957 0.0
O138 O 0.10578 0.16268 0.88547 0.0
O139 O 0.1194 0.13895 0.86468 0.0
O140 O 0.14074 0.14207 0.93236 0.0
O141 O 0.13413 0.1319 0.90177 0.0
H142 H 0.16348 0.1105 0.89091 0.0
H143 H 0.17789 0.05736 0.92347 0.0
H144 H 0.14508 0.10425 0.95229 0.0
O145 O 0.86499 0.66754 0.34296 0.0
Tb146 Tb 0.84703 0.64832 0.36213 0.0
Eu147 Eu 0.84238 0.63555 0.41315 0.0
C148 C 0.86739 0.68684 0.34575 0.0
O149 O 0.86248 0.69491 0.36296 0.0
C150 C 0.81886 0.66982 0.39298 0.0
O151 O 0.84153 0.61491 0.44033 0.0
C152 C 0.87354 0.65832 0.4144 0.0
C153 C 0.83633 0.59594 0.43876 0.0
O154 O 0.82888 0.58935 0.42189 0.0
C155 C 0.85829 0.60673 0.37873 0.0
C156 C 0.89519 0.65967 0.41757 0.0
C157 C 0.90705 0.66658 0.40169 0.0
C158 C 0.92759 0.66928 0.40412 0.0
C159 C 0.93619 0.66487 0.42264 0.0
C160 C 0.92458 0.65823 0.43864 0.0
C161 C 0.90403 0.65561 0.4362 0.0
O162 O 0.8354 0.67137 0.38235 0.0
O163 O 0.816 0.65436 0.40479 0.0
O164 O 0.83682 0.64426 0.33178 0.0
O165 O 0.81727 0.63635 0.3555 0.0
C166 C 0.81944 0.63718 0.33615 0.0
O167 O 0.84493 0.60922 0.39278 0.0
O168 O 0.86504 0.62182 0.3682 0.0
O169 O 0.86184 0.65539 0.42992 0.0
O170 O 0.8676 0.64914 0.39814 0.0
H171 H 0.90021 0.6701 0.38746 0.0
H172 H 0.95212 0.6664 0.42471 0.0
H173 H 0.89507 0.65069 0.44873 0.0
O174 O 0.33463 0.35365 0.83715 0.0
Tb175 Tb 0.35589 0.34476 0.85996 0.0
Eu176 Eu 0.36846 0.34505 0.91186 0.0
C177 C 0.32971 0.37183 0.8318 0.0
O178 O 0.33765 0.38725 0.84091 0.0
C179 C 0.3311 0.32252 0.8932 0.0
O180 O 0.38998 0.33994 0.93744 0.0
C181 C 0.35528 0.38088 0.91691 0.0
C182 C 0.40806 0.33264 0.93491 0.0
O183 O 0.41287 0.32436 0.91776 0.0
C184 C 0.39589 0.35709 0.87569 0.0
C185 C 0.3477 0.40142 0.91973 0.0
C186 C 0.3413 0.4122 0.90295 0.0
C187 C 0.3367 0.43249 0.90454 0.0
C188 C 0.33849 0.44206 0.92309 0.0
C189 C 0.34529 0.43179 0.94 0.0
C190 C 0.34948 0.41127 0.93836 0.0
O191 O 0.33111 0.33683 0.87969 0.0
O192 O 0.34515 0.3213 0.90691 0.0
O193 O 0.37009 0.33257 0.83367 0.0
O194 O 0.36703 0.31392 0.85927 0.0
C195 C 0.37376 0.31508 0.84098 0.0
O196 O 0.39349 0.34369 0.88967 0.0
O197 O 0.38023 0.36506 0.86703 0.0
O198 O 0.35863 0.36884 0.932 0.0
O199 O 0.3578 0.37293 0.8991 0.0
H200 H 0.34056 0.40504 0.88842 0.0
H201 H 0.3355 0.45792 0.92414 0.0
H202 H 0.35524 0.40334 0.9512 0.0
O203 O 0.6439 0.83693 0.33957 0.0
Tb204 Tb 0.65916 0.85514 0.3623 0.0
Eu205 Eu 0.65837 0.871 0.41434 0.0
C206 C 0.65044 0.81844 0.33713 0.0
O207 O 0.66344 0.81167 0.3501 0.0
C208 C 0.68337 0.83742 0.39675 0.0
O209 O 0.6578 0.8928 0.44018 0.0
C210 C 0.62723 0.8483 0.41536 0.0
C211 C 0.67144 0.90671 0.44225 0.0
O212 O 0.68671 0.90701 0.42995 0.0
C213 C 0.6452 0.89797 0.37702 0.0
C214 C 0.60543 0.8465 0.41716 0.0
C215 C 0.59509 0.83979 0.40023 0.0
C216 C 0.57463 0.83632 0.401 0.0
C217 C 0.56443 0.83953 0.41897 0.0
C218 C 0.57443 0.84571 0.43627 0.0
C219 C 0.59504 0.84949 0.43531 0.0
O220 O 0.66636 0.83546 0.38725 0.0
O221 O 0.6858 0.85273 0.40874 0.0
O222 O 0.6847 0.84731 0.34396 0.0
O223 O 0.68279 0.87671 0.35512 0.0
C224 C 0.69337 0.86446 0.34442 0.0
O225 O 0.65664 0.89638 0.39286 0.0
O226 O 0.64079 0.88246 0.3654 0.0
O227 O 0.63792 0.85228 0.43134 0.0
O228 O 0.63409 0.85652 0.39892 0.0
H229 H 0.60308 0.837 0.38639 0.0
H230 H 0.54842 0.83755 0.41947 0.0
H231 H 0.60292 0.8541 0.44864 0.0
O232 O 0.66632 0.16994 0.36516 0.0
Tb233 Tb 0.64546 0.15441 0.34529 0.0
Eu234 Eu 0.59261 0.13391 0.33867 0.0
C235 C 0.66696 0.18956 0.36378 0.0
O236 O 0.65233 0.19848 0.35447 0.0
C237 C 0.6107 0.17472 0.32222 0.0
O238 O 0.56988 0.11149 0.3281 0.0
C239 C 0.58201 0.1421 0.37519 0.0
C240 C 0.57303 0.09262 0.33239 0.0
O241 O 0.58994 0.08763 0.34078 0.0
C242 C 0.63192 0.11058 0.34975 0.0
C243 C 0.58236 0.1541 0.39369 0.0
C244 C 0.60029 0.16228 0.40052 0.0
C245 C 0.60141 0.17075 0.41961 0.0
C246 C 0.58432 0.17158 0.43169 0.0
C247 C 0.56633 0.1628 0.42558 0.0
C248 C 0.56541 0.15439 0.40624 0.0
O249 O 0.6207 0.17485 0.33918 0.0
O250 O 0.59889 0.15967 0.31793 0.0
O251 O 0.66909 0.16463 0.32551 0.0
O252 O 0.65414 0.13792 0.31811 0.0
C253 C 0.66825 0.15009 0.31283 0.0
O254 O 0.62 0.11474 0.33479 0.0
O255 O 0.64088 0.12516 0.35963 0.0
O256 O 0.57205 0.14856 0.35962 0.0
O257 O 0.59814 0.132 0.37047 0.0
H258 H 0.61368 0.16098 0.39152 0.0
H259 H 0.58551 0.17795 0.44654 0.0
H260 H 0.55193 0.14696 0.40139 0.0
O261 O 0.83281 0.17473 0.86392 0.0
Tb262 Tb 0.85164 0.15457 0.84654 0.0
Eu263 Eu 0.87568 0.08991 0.85009 0.0
C264 C 0.81388 0.17551 0.85885 0.0
O265 O 0.8073 0.16256 0.84567 0.0
C266 C 0.84003 0.11281 0.82957 0.0
O267 O 0.8993 0.07095 0.83534 0.0
C268 C 0.86469 0.07138 0.88214 0.0
C269 C 0.91809 0.07622 0.83602 0.0
O270 O 0.92246 0.09487 0.83975 0.0
C271 C 0.89005 0.13715 0.86093 0.0
C272 C 0.85497 0.07337 0.90168 0.0
C273 C 0.84649 0.09148 0.90822 0.0
C274 C 0.83938 0.09335 0.928 0.0
C275 C 0.84107 0.0769 0.9409 0.0
C276 C 0.84947 0.059 0.93442 0.0
C277 C 0.85631 0.05718 0.9148 0.0
O278 O 0.84184 0.12343 0.84609 0.0
O279 O 0.85076 0.09631 0.82781 0.0
O280 O 0.83921 0.16682 0.819 0.0
O281 O 0.87044 0.16417 0.8218 0.0
C282 C 0.85616 0.17012 0.81027 0.0
O283 O 0.87776 0.12255 0.8569 0.0
O284 O 0.88154 0.15477 0.86001 0.0
O285 O 0.88194 0.08043 0.88027 0.0
O286 O 0.85358 0.07214 0.86599 0.0
H287 H 0.84598 0.10409 0.89815 0.0
H288 H 0.83674 0.07817 0.95646 0.0
H289 H 0.86326 0.04337 0.90996 0.0
O290 O 0.83665 0.3362 0.36676 0.0
Tb291 Tb 0.85868 0.35433 0.35083 0.0
Eu292 Eu 0.91032 0.36828 0.34109 0.0
C293 C 0.83894 0.31723 0.37139 0.0
O294 O 0.8567 0.30909 0.37048 0.0
C295 C 0.88861 0.32932 0.32453 0.0
O296 O 0.93487 0.38965 0.33277 0.0
C297 C 0.92084 0.35677 0.37634 0.0
C298 C 0.93173 0.40738 0.32501 0.0
O299 O 0.91442 0.41166 0.31705 0.0
C300 C 0.87491 0.39609 0.35469 0.0
C301 C 0.92102 0.34337 0.39358 0.0
C302 C 0.90324 0.33482 0.40034 0.0
C303 C 0.90186 0.32739 0.41982 0.0
C304 C 0.91879 0.32744 0.4321 0.0
C305 C 0.93677 0.33575 0.42541 0.0
C306 C 0.9379 0.34335 0.40594 0.0
O307 O 0.87737 0.32947 0.34075 0.0
O308 O 0.90088 0.34393 0.32002 0.0
O309 O 0.85422 0.36424 0.31986 0.0
O310 O 0.83004 0.36454 0.34051 0.0
C311 C 0.83547 0.36866 0.32242 0.0
O312 O 0.88676 0.39184 0.33968 0.0
O313 O 0.86787 0.38168 0.36604 0.0
O314 O 0.93141 0.35245 0.36034 0.0
O315 O 0.90433 0.36659 0.37268 0.0
H316 H 0.88991 0.33586 0.39128 0.0
H317 H 0.9175 0.32271 0.44752 0.0
H318 H 0.9513 0.35099 0.40115 0.0
O319 O 0.66519 0.34235 0.87228 0.0
Tb320 Tb 0.64909 0.36132 0.85129 0.0
Eu321 Eu 0.63579 0.41159 0.8456 0.0
C322 C 0.68455 0.34386 0.87507 0.0
O323 O 0.69383 0.36 0.86913 0.0
C324 C 0.67251 0.39196 0.82529 0.0
O325 O 0.61466 0.43719 0.84058 0.0
C326 C 0.65073 0.41627 0.88067 0.0
C327 C 0.59782 0.43493 0.83083 0.0
O328 O 0.59487 0.41867 0.82028 0.0
C329 C 0.60599 0.37756 0.85784 0.0
C330 C 0.65931 0.41887 0.90077 0.0
C331 C 0.66703 0.4022 0.91072 0.0
C332 C 0.67325 0.40366 0.93063 0.0
C333 C 0.67238 0.42221 0.94035 0.0
C334 C 0.66458 0.43898 0.93075 0.0
C335 C 0.65801 0.43732 0.91088 0.0
O336 O 0.67296 0.38168 0.84207 0.0
O337 O 0.65755 0.40396 0.82149 0.0
O338 O 0.65143 0.33145 0.83929 0.0
O339 O 0.63771 0.35365 0.82139 0.0
C340 C 0.64293 0.33494 0.82233 0.0
O341 O 0.60989 0.39098 0.84431 0.0
O342 O 0.62028 0.36686 0.86608 0.0
O343 O 0.64906 0.43115 0.86801 0.0
O344 O 0.64503 0.39873 0.87393 0.0
H345 H 0.66744 0.38783 0.90326 0.0
H346 H 0.67641 0.42337 0.956 0.0
H347 H 0.65141 0.45012 0.9036 0.0
O348 O 0.67566 0.33769 0.14858 0.0
Tb349 Tb 0.6527 0.35549 0.16324 0.0
Eu350 Eu 0.58975 0.37769 0.16712 0.0
C351 C 0.67259 0.32095 0.13881 0.0
O352 O 0.6543 0.31511 0.13517 0.0
C353 C 0.61337 0.34127 0.18446 0.0
O354 O 0.57038 0.40251 0.17889 0.0
C355 C 0.57618 0.36782 0.13227 0.0
C356 C 0.57213 0.41975 0.16976 0.0
O357 O 0.58571 0.42156 0.15577 0.0
C358 C 0.63143 0.39315 0.15199 0.0
C359 C 0.57797 0.35567 0.11408 0.0
C360 C 0.59634 0.34769 0.10811 0.0
C361 C 0.59831 0.33857 0.0893 0.0
C362 C 0.58159 0.33733 0.07672 0.0
C363 C 0.56308 0.34532 0.08241 0.0
C364 C 0.56141 0.35428 0.10136 0.0
O365 O 0.62273 0.34308 0.16712 0.0
O366 O 0.59679 0.35152 0.18714 0.0
O367 O 0.6632 0.35182 0.19397 0.0
O368 O 0.66701 0.3796 0.17953 0.0
C369 C 0.67034 0.36974 0.1958 0.0
O370 O 0.62198 0.38674 0.16789 0.0
O371 O 0.64604 0.38185 0.14538 0.0
O372 O 0.58967 0.38174 0.13502 0.0
O373 O 0.57031 0.35908 0.14884 0.0
H374 H 0.60922 0.34938 0.11769 0.0
H375 H 0.58342 0.33149 0.06174 0.0
H376 H 0.54736 0.36072 0.1061 0.0
O377 O 0.6697 0.1707 0.64494 0.0
Tb378 Tb 0.65083 0.1492 0.66073 0.0
Eu379 Eu 0.64195 0.09938 0.66569 0.0
C380 C 0.68911 0.16863 0.64275 0.0
O381 O 0.69741 0.15134 0.64659 0.0
C382 C 0.67524 0.121 0.68954 0.0
O383 O 0.62287 0.0721 0.66962 0.0
C384 C 0.66332 0.09418 0.63374 0.0
C385 C 0.60559 0.0732 0.67887 0.0
O386 O 0.6012 0.0893 0.68922 0.0
C387 C 0.61037 0.13006 0.64795 0.0
C388 C 0.66204 0.08947 0.61212 0.0
C389 C 0.66678 0.10466 0.59852 0.0
C390 C 0.66615 0.10129 0.57783 0.0
C391 C 0.66041 0.08237 0.57089 0.0
C392 C 0.6571 0.0666 0.58406 0.0
C393 C 0.65782 0.07011 0.6048 0.0
O394 O 0.676 0.13225 0.67336 0.0
O395 O 0.66016 0.10878 0.6923 0.0
O396 O 0.64045 0.17803 0.67085 0.0
O397 O 0.63857 0.15354 0.69092 0.0
C398 C 0.63496 0.17248 0.68853 0.0
O399 O 0.61323 0.11568 0.66078 0.0
O400 O 0.62536 0.14112 0.64165 0.0
O401 O 0.65977 0.07986 0.64666 0.0
O402 O 0.65643 0.1117 0.63947 0.0
H403 H 0.67148 0.11902 0.60422 0.0
H404 H 0.65912 0.07946 0.55502 0.0
H405 H 0.6554 0.05786 0.61503 0.0
O406 O 0.83365 0.16149 0.14196 0.0
Tb407 Tb 0.85597 0.14334 0.15779 0.0
Eu408 Eu 0.9075 0.12823 0.16166 0.0
C409 C 0.83293 0.181 0.14439 0.0
O410 O 0.84782 0.18997 0.15314 0.0
C411 C 0.8892 0.16742 0.18135 0.0
O412 O 0.93107 0.1054 0.1691 0.0
C413 C 0.91437 0.13847 0.12498 0.0
C414 C 0.93064 0.08876 0.1586 0.0
O415 O 0.91655 0.08653 0.14521 0.0
C416 C 0.87148 0.10088 0.1516 0.0
C417 C 0.9158 0.15202 0.1077 0.0
C418 C 0.89902 0.16255 0.10093 0.0
C419 C 0.89948 0.17242 0.08248 0.0
C420 C 0.91725 0.17249 0.07139 0.0
C421 C 0.93382 0.16117 0.07722 0.0
C422 C 0.93307 0.15126 0.09572 0.0
O423 O 0.87666 0.16753 0.16608 0.0
O424 O 0.90193 0.1527 0.18389 0.0
O425 O 0.82876 0.13264 0.17152 0.0
O426 O 0.85429 0.13627 0.18983 0.0
C427 C 0.83574 0.13072 0.18942 0.0
O428 O 0.88433 0.10464 0.16579 0.0
O429 O 0.8633 0.11571 0.14167 0.0
O430 O 0.92838 0.13848 0.13869 0.0
O431 O 0.89666 0.13362 0.13174 0.0
H432 H 0.88521 0.16203 0.10933 0.0
H433 H 0.91763 0.18018 0.0572 0.0
H434 H 0.94538 0.14185 0.10024 0.0
O435 O 0.84067 0.33537 0.644 0.0
Tb436 Tb 0.85987 0.35789 0.65794 0.0
Eu437 Eu 0.86842 0.40876 0.66112 0.0
C438 C 0.82151 0.33809 0.64057 0.0
O439 O 0.81401 0.35614 0.64178 0.0
C440 C 0.83557 0.38766 0.68493 0.0
O441 O 0.88915 0.43474 0.66272 0.0
C442 C 0.84743 0.41262 0.62904 0.0
C443 C 0.90445 0.43446 0.67488 0.0
O444 O 0.90537 0.42096 0.68902 0.0
C445 C 0.90078 0.37633 0.64838 0.0
C446 C 0.84784 0.41847 0.6078 0.0
C447 C 0.83875 0.40551 0.59414 0.0
C448 C 0.8389 0.4095 0.57357 0.0
C449 C 0.8482 0.42706 0.56699 0.0
C450 C 0.85622 0.44095 0.58042 0.0
C451 C 0.8561 0.43661 0.601 0.0
O452 O 0.83493 0.37648 0.66864 0.0
O453 O 0.85026 0.40024 0.6876 0.0
O454 O 0.87199 0.3309 0.67085 0.0
O455 O 0.86882 0.35649 0.68942 0.0
C456 C 0.87468 0.33801 0.68866 0.0
O457 O 0.89636 0.39072 0.66082 0.0
O458 O 0.88642 0.36573 0.64013 0.0
O459 O 0.84908 0.4268 0.64259 0.0
O460 O 0.85641 0.3958 0.63386 0.0
H461 H 0.83143 0.39231 0.59981 0.0
H462 H 0.84916 0.43029 0.55119 0.0
H463 H 0.86242 0.44715 0.6115 0.0
O464 O 0.36043 0.66907 0.1708 0.0
Tb465 Tb 0.346 0.64905 0.14898 0.0
Eu466 Eu 0.33871 0.59856 0.13706 0.0
C467 C 0.34819 0.67935 0.18252 0.0
O468 O 0.329 0.67656 0.18005 0.0
C469 C 0.31802 0.61928 0.17435 0.0
O470 O 0.33297 0.57187 0.11686 0.0
C471 C 0.37312 0.59263 0.15281 0.0
C472 C 0.32558 0.57388 0.09875 0.0
O473 O 0.31748 0.5909 0.09363 0.0
C474 C 0.35402 0.63128 0.10699 0.0
C475 C 0.39276 0.58929 0.16183 0.0
C476 C 0.40078 0.60401 0.17436 0.0
C477 C 0.4202 0.60218 0.18165 0.0
C478 C 0.43151 0.58539 0.1763 0.0
C479 C 0.42397 0.57073 0.16344 0.0
C480 C 0.40429 0.57246 0.15658 0.0
O481 O 0.33329 0.63185 0.17418 0.0
O482 O 0.31525 0.60611 0.15991 0.0
O483 O 0.33709 0.6777 0.13729 0.0
O484 O 0.31552 0.65445 0.13879 0.0
C485 C 0.31876 0.67291 0.13369 0.0
O486 O 0.33921 0.61916 0.11075 0.0
O487 O 0.36326 0.64011 0.12208 0.0
O488 O 0.36633 0.61062 0.14904 0.0
O489 O 0.36098 0.57788 0.14858 0.0
H490 H 0.39216 0.61723 0.17793 0.0
H491 H 0.44681 0.58422 0.18128 0.0
H492 H 0.39839 0.56139 0.14636 0.0
O493 O 0.35918 0.8334 0.34755 0.0
Tb494 Tb 0.34809 0.85845 0.36587 0.0
Eu495 Eu 0.34328 0.90975 0.37815 0.0
C496 C 0.36947 0.83507 0.33078 0.0
O497 O 0.3763 0.85261 0.32546 0.0
C498 C 0.32654 0.88978 0.3384 0.0
O499 O 0.33501 0.93553 0.3984 0.0
C500 C 0.37897 0.91874 0.36681 0.0
C501 C 0.32572 0.9336 0.41563 0.0
O502 O 0.31657 0.91683 0.41981 0.0
C503 C 0.35733 0.87617 0.40752 0.0
C504 C 0.39516 0.92113 0.35222 0.0
C505 C 0.40152 0.90492 0.34056 0.0
C506 C 0.42014 0.90532 0.33105 0.0
C507 C 0.43175 0.92272 0.33227 0.0
C508 C 0.42539 0.93921 0.34352 0.0
C509 C 0.40691 0.93844 0.35325 0.0
O510 O 0.34161 0.87709 0.33969 0.0
O511 O 0.32231 0.9023 0.35305 0.0
O512 O 0.33199 0.83448 0.38026 0.0
O513 O 0.31614 0.86072 0.37245 0.0
C514 C 0.3148 0.84324 0.3807 0.0
O515 O 0.34263 0.88856 0.40398 0.0
O516 O 0.36581 0.86648 0.39245 0.0
O517 O 0.3645 0.93193 0.3674 0.0
O518 O 0.37356 0.90061 0.3719 0.0
H519 H 0.3928 0.89134 0.34031 0.0
H520 H 0.44653 0.92296 0.32572 0.0
H521 H 0.40244 0.95066 0.36293 0.0
O522 O 0.16363 0.86248 0.83833 0.0
Tb523 Tb 0.14169 0.84352 0.85302 0.0
Eu524 Eu 0.09167 0.84189 0.8622 0.0
C525 C 0.16241 0.86656 0.81913 0.0
O526 O 0.14579 0.86264 0.80963 0.0
C527 C 0.11177 0.81776 0.82812 0.0
O528 O 0.06509 0.83818 0.88246 0.0
C529 C 0.08861 0.87497 0.84248 0.0
C530 C 0.06687 0.82766 0.89893 0.0
O531 O 0.08272 0.81644 0.9014 0.0
C532 C 0.12414 0.85569 0.89465 0.0
C533 C 0.0858 0.89684 0.84399 0.0
C534 C 0.10108 0.90898 0.83644 0.0
C535 C 0.0995 0.92981 0.83698 0.0
C536 C 0.08234 0.9384 0.84532 0.0
C537 C 0.06652 0.92673 0.85234 0.0
C538 C 0.06821 0.90578 0.85155 0.0
O539 O 0.12311 0.83381 0.82784 0.0
O540 O 0.09872 0.81551 0.84261 0.0
O541 O 0.16819 0.82543 0.85 0.0
O542 O 0.14598 0.81635 0.87082 0.0
C543 C 0.16327 0.8121 0.86305 0.0
O544 O 0.10902 0.84406 0.89068 0.0
O545 O 0.13654 0.8613 0.88036 0.0
O546 O 0.07332 0.86323 0.84606 0.0
O547 O 0.10573 0.86776 0.84881 0.0
H548 H 0.11417 0.90209 0.82988 0.0
H549 H 0.0811 0.95447 0.84626 0.0
H550 H 0.05603 0.89661 0.85683 0.0
O551 O 0.14945 0.67967 0.34074 0.0
Tb552 Tb 0.16648 0.65689 0.3564 0.0
Eu553 Eu 0.15931 0.59285 0.37975 0.0
C554 C 0.14228 0.67668 0.32267 0.0
O555 O 0.14259 0.6586 0.31508 0.0
C556 C 0.17994 0.61417 0.34249 0.0
O557 O 0.17519 0.5763 0.40398 0.0
C558 C 0.12751 0.57342 0.36988 0.0
C559 C 0.17786 0.58417 0.42171 0.0
O560 O 0.17555 0.60344 0.4241 0.0
C561 C 0.15076 0.64015 0.3946 0.0
C562 C 0.10914 0.57588 0.35843 0.0
C563 C 0.10371 0.59461 0.35093 0.0
C564 C 0.08543 0.59705 0.34117 0.0
C565 C 0.07291 0.58046 0.33867 0.0
C566 C 0.07776 0.56185 0.34685 0.0
C567 C 0.09614 0.55963 0.35654 0.0
O568 O 0.16456 0.62637 0.34462 0.0
O569 O 0.18053 0.59786 0.35363 0.0
O570 O 0.1925 0.67044 0.34252 0.0
O571 O 0.19377 0.66252 0.37307 0.0
C572 C 0.20352 0.67063 0.35842 0.0
O573 O 0.15352 0.62564 0.38167 0.0
O574 O 0.15347 0.65778 0.38661 0.0
O575 O 0.12889 0.58431 0.38619 0.0
O576 O 0.14419 0.57239 0.35959 0.0
H577 H 0.11333 0.60736 0.35333 0.0
H578 H 0.05856 0.58247 0.33171 0.0
H579 H 0.10019 0.54538 0.36297 0.0
O580 O 0.32896 0.65432 0.84092 0.0
Tb581 Tb 0.35231 0.66994 0.85686 0.0
Eu582 Eu 0.41673 0.66034 0.87557 0.0
C583 C 0.33228 0.64295 0.82523 0.0
O584 O 0.35064 0.63833 0.82024 0.0
C585 C 0.39439 0.68333 0.84018 0.0
O586 O 0.43891 0.67032 0.89869 0.0
C587 C 0.4302 0.62634 0.86313 0.0
C588 C 0.43553 0.68005 0.91541 0.0
O589 O 0.41868 0.68964 0.91817 0.0
C590 C 0.37024 0.6519 0.8926 0.0
C591 C 0.42686 0.60766 0.85228 0.0
C592 C 0.40884 0.60363 0.84255 0.0
C593 C 0.4053 0.58453 0.83463 0.0
C594 C 0.41987 0.56958 0.83697 0.0
C595 C 0.438 0.57344 0.8466 0.0
C596 C 0.44144 0.59278 0.85388 0.0
O597 O 0.38173 0.66835 0.8423 0.0
O598 O 0.41127 0.6828 0.85051 0.0
O599 O 0.33716 0.69692 0.8473 0.0
O600 O 0.34758 0.69517 0.87706 0.0
C601 C 0.33795 0.70614 0.86436 0.0
O602 O 0.38391 0.65874 0.8804 0.0
O603 O 0.35236 0.65363 0.88514 0.0
O604 O 0.42034 0.62862 0.87999 0.0
O605 O 0.43239 0.6429 0.85287 0.0
H606 H 0.39742 0.61504 0.84182 0.0
H607 H 0.41648 0.55447 0.83239 0.0
H608 H 0.45531 0.59629 0.86132 0.0
O609 O 0.13946 0.84706 0.17344 0.0
Tb610 Tb 0.15761 0.86285 0.15128 0.0
Eu611 Eu 0.1646 0.91268 0.13785 0.0
C612 C 0.14916 0.84061 0.18931 0.0
O613 O 0.16795 0.84558 0.19103 0.0
C614 C 0.18851 0.89254 0.17209 0.0
O615 O 0.1665 0.93888 0.11648 0.0
C616 C 0.13275 0.91569 0.15965 0.0
C617 C 0.17309 0.93659 0.09803 0.0
O618 O 0.18128 0.91968 0.09257 0.0
C619 C 0.15034 0.8782 0.10843 0.0
C620 C 0.11105 0.91872 0.16137 0.0
C621 C 0.10023 0.90394 0.17143 0.0
C622 C 0.0797 0.90583 0.17435 0.0
C623 C 0.06997 0.92278 0.16702 0.0
C624 C 0.0804 0.93787 0.15702 0.0
C625 C 0.10116 0.93594 0.15438 0.0
O626 O 0.17197 0.88196 0.17404 0.0
O627 O 0.19071 0.90522 0.15724 0.0
O628 O 0.16523 0.83171 0.14749 0.0
O629 O 0.18703 0.85362 0.1404 0.0
C630 C 0.18329 0.83458 0.14134 0.0
O631 O 0.16422 0.89136 0.11199 0.0
O632 O 0.14117 0.86939 0.12346 0.0
O633 O 0.14431 0.93098 0.15562 0.0
O634 O 0.13895 0.89879 0.15183 0.0
H635 H 0.10789 0.89088 0.17708 0.0
H636 H 0.05399 0.92419 0.16886 0.0
H637 H 0.10941 0.94758 0.14685 0.0
O638 O 0.17524 0.6436 0.66718 0.0
Tb639 Tb 0.1542 0.66019 0.64905 0.0
Eu640 Eu 0.09276 0.65597 0.62485 0.0
C641 C 0.172 0.64199 0.68648 0.0
O642 O 0.15492 0.64814 0.69381 0.0
C643 C 0.11281 0.67745 0.66211 0.0
O644 O 0.07679 0.67003 0.59908 0.0
C645 C 0.0742 0.62407 0.63565 0.0
C646 C 0.07935 0.66095 0.58191 0.0
O647 O 0.09321 0.64729 0.58083 0.0
C648 C 0.13941 0.64373 0.61148 0.0
C649 C 0.07626 0.60545 0.6468 0.0
C650 C 0.0944 0.59936 0.65548 0.0
C651 C 0.09596 0.58031 0.66433 0.0
C652 C 0.07913 0.56783 0.66423 0.0
C653 C 0.06132 0.57386 0.65548 0.0
C654 C 0.05989 0.59263 0.6468 0.0
O655 O 0.124 0.66117 0.66164 0.0
O656 O 0.09745 0.67855 0.64979 0.0
O657 O 0.16954 0.68729 0.65817 0.0
O658 O 0.1577 0.68527 0.62899 0.0
C659 C 0.16743 0.69655 0.64128 0.0
O660 O 0.12507 0.64894 0.62373 0.0
O661 O 0.15676 0.64493 0.6201 0.0
O662 O 0.08467 0.62532 0.6191 0.0
O663 O 0.07312 0.64084 0.64585 0.0
H664 H 0.1072 0.60913 0.65484 0.0
H665 H 0.08003 0.55272 0.66985 0.0
H666 H 0.0461 0.59709 0.63966 0.0
O667 O 0.33459 0.85614 0.67499 0.0
Tb668 Tb 0.3561 0.83892 0.65769 0.0
Eu669 Eu 0.41931 0.84586 0.63722 0.0
C670 C 0.33613 0.85665 0.69459 0.0
O671 O 0.35214 0.84909 0.70287 0.0
C672 C 0.39748 0.82279 0.67278 0.0
O673 O 0.43927 0.83302 0.61336 0.0
C674 C 0.43561 0.87913 0.64764 0.0
C675 C 0.43364 0.83136 0.59467 0.0
O676 O 0.41468 0.83204 0.59031 0.0
C677 C 0.37319 0.85487 0.62104 0.0
C678 C 0.43341 0.89925 0.65588 0.0
C679 C 0.41517 0.90667 0.66343 0.0
C680 C 0.41353 0.92703 0.66844 0.0
C681 C 0.42976 0.93961 0.66455 0.0
C682 C 0.44819 0.93221 0.65844 0.0
C683 C 0.44991 0.91192 0.65398 0.0
O684 O 0.38556 0.83853 0.67193 0.0
O685 O 0.41407 0.82298 0.66192 0.0
O686 O 0.33718 0.81398 0.66562 0.0
O687 O 0.35468 0.81205 0.63948 0.0
C688 C 0.34156 0.80288 0.65029 0.0
O689 O 0.38678 0.85085 0.63437 0.0
O690 O 0.35526 0.85322 0.62834 0.0
O691 O 0.42739 0.8761 0.6301 0.0
O692 O 0.43493 0.86365 0.65967 0.0
H693 H 0.40252 0.89681 0.66514 0.0
H694 H 0.42808 0.95559 0.66631 0.0
H695 H 0.464 0.90598 0.64871 0.0
H696 H 0.13348 0.46896 0.56976 0.0
H697 H 0.13496 0.49626 0.54555 0.0
H698 H 0.16663 0.45809 0.50433 0.0
H699 H 0.16509 0.43069 0.52848 0.0
H700 H 0.18629 0.49443 0.5153 0.0
H701 H 0.12193 0.47088 0.49381 0.0
H702 H 0.08671 0.46181 0.49847 0.0
H703 H 0.07319 0.52173 0.5167 0.0
H704 H 0.10837 0.53111 0.51243 0.0
H705 H 0.18789 0.54484 0.42271 0.0
H706 H 0.18106 0.52129 0.44971 0.0
H707 H 0.15864 0.56921 0.48642 0.0
H708 H 0.16606 0.59304 0.45962 0.0
H709 H 0.13253 0.53137 0.48061 0.0
H710 H 0.19457 0.55533 0.50446 0.0
H711 H 0.22951 0.56614 0.50167 0.0
H712 H 0.24643 0.5076 0.48171 0.0
H713 H 0.21148 0.49654 0.48407 0.0
C714 C 0.14043 0.46634 0.55536 0.0
C715 C 0.14935 0.44785 0.55096 0.0
C716 C 0.14117 0.48187 0.54156 0.0
C717 C 0.15094 0.47914 0.52324 0.0
C718 C 0.15902 0.4604 0.51844 0.0
C719 C 0.15808 0.44478 0.53215 0.0
C720 C 0.15471 0.49632 0.51005 0.0
C721 C 0.17453 0.50235 0.50755 0.0
C722 C 0.13922 0.50723 0.50081 0.0
C723 C 0.11795 0.50162 0.50316 0.0
C724 C 0.11153 0.48208 0.49907 0.0
C725 C 0.09153 0.47689 0.50156 0.0
C726 C 0.07774 0.49115 0.50798 0.0
C727 C 0.0839 0.51067 0.51181 0.0
C728 C 0.10389 0.51593 0.50935 0.0
C729 C 0.18188 0.55043 0.43668 0.0
C730 C 0.17744 0.57077 0.43912 0.0
C731 C 0.17783 0.53697 0.45199 0.0
C732 C 0.16902 0.54356 0.46984 0.0
C733 C 0.16515 0.5639 0.47261 0.0
C734 C 0.1696 0.57747 0.45743 0.0
C735 C 0.16412 0.52893 0.48549 0.0
C736 C 0.14418 0.52347 0.48853 0.0
C737 C 0.17937 0.51872 0.49563 0.0
C738 C 0.20041 0.52518 0.49423 0.0
C739 C 0.20572 0.54483 0.49927 0.0
C740 C 0.22552 0.55098 0.49781 0.0
C741 C 0.24018 0.53758 0.49145 0.0
C742 C 0.23506 0.51797 0.4866 0.0
C743 C 0.21525 0.51174 0.48801 0.0
H744 H 0.25552 0.54237 0.49034 0.0
H745 H 0.06226 0.4871 0.50991 0.0
H746 H 0.44118 0.70315 0.94904 0.0
H747 H 0.46545 0.69735 0.97593 0.0
H748 H 0.48496 0.6434 0.94667 0.0
H749 H 0.46135 0.64925 0.91973 0.0
H750 H 0.47934 0.64153 0.99133 0.0
H751 H 0.5132 0.67737 0.9383 0.0
H752 H 0.51536 0.70481 0.91394 0.0
H753 H 0.51256 0.74762 0.96171 0.0
H754 H 0.51014 0.72038 0.98633 0.0
H755 H 0.57039 0.63007 0.04686 0.0
H756 H 0.54638 0.63085 0.01905 0.0
H757 H 0.53445 0.69289 0.03163 0.0
H758 H 0.55854 0.69217 0.05878 0.0
H759 H 0.53642 0.68833 0.99375 0.0
H760 H 0.50261 0.65324 0.04718 0.0
H761 H 0.49627 0.62658 0.07169 0.0
H762 H 0.49672 0.58294 0.02466 0.0
H763 H 0.50295 0.60935 0.99984 0.0
C764 C 0.45065 0.69009 0.94839 0.0
C765 C 0.44965 0.67693 0.93207 0.0
C766 C 0.46438 0.68671 0.96377 0.0
C767 C 0.47694 0.66992 0.96323 0.0
C768 C 0.47536 0.65638 0.94739 0.0
C769 C 0.46201 0.65993 0.93188 0.0
C770 C 0.49297 0.66736 0.97815 0.0
C771 C 0.49197 0.65159 0.99183 0.0
C772 C 0.50927 0.68055 0.97877 0.0
C773 C 0.51137 0.69689 0.96411 0.0
C774 C 0.51297 0.69265 0.94358 0.0
C775 C 0.51424 0.70815 0.92974 0.0
C776 C 0.51406 0.72795 0.93627 0.0
C777 C 0.51269 0.73228 0.95668 0.0
C778 C 0.51141 0.71682 0.97058 0.0
C779 C 0.56299 0.64394 0.04321 0.0
C780 C 0.56644 0.66115 0.0547 0.0
C781 C 0.54905 0.64431 0.02759 0.0
C782 C 0.53833 0.66187 0.0234 0.0
C783 C 0.54246 0.67917 0.03449 0.0
C784 C 0.55631 0.6788 0.04994 0.0
C785 C 0.5228 0.66268 0.00755 0.0
C786 C 0.52392 0.67811 0.99343 0.0
C787 C 0.50655 0.64919 0.00671 0.0
C788 C 0.5036 0.63323 0.0217 0.0
C789 C 0.50163 0.63793 0.0421 0.0
C790 C 0.49799 0.62287 0.05604 0.0
C791 C 0.49633 0.60306 0.04977 0.0
C792 C 0.49815 0.59827 0.02952 0.0
C793 C 0.50168 0.61328 0.0155 0.0
H794 H 0.49349 0.59144 0.06059 0.0
H795 H 0.51501 0.73994 0.92553 0.0
H796 H 0.36748 0.07657 0.54319 0.0
H797 H 0.36872 0.05144 0.51651 0.0
H798 H 0.3106 0.03038 0.53383 0.0
H799 H 0.30906 0.05561 0.56013 0.0
H800 H 0.3384 0.99951 0.52898 0.0
H801 H 0.31723 0.0596 0.49233 0.0
H802 H 0.32257 0.09418 0.48104 0.0
H803 H 0.37817 0.07709 0.45417 0.0
H804 H 0.37323 0.04246 0.46548 0.0
H805 H 0.30453 0.9385 0.45041 0.0
H806 H 0.31006 0.9632 0.47676 0.0
H807 H 0.3595 0.98733 0.4434 0.0
H808 H 0.35335 0.96339 0.41666 0.0
H809 H 0.34148 0.01629 0.45695 0.0
H810 H 0.3652 0.95851 0.48849 0.0
H811 H 0.36654 0.92397 0.50094 0.0
H812 H 0.31566 0.93509 0.53824 0.0
H813 H 0.31389 0.96968 0.52594 0.0
C814 C 0.35476 0.06692 0.54101 0.0
C815 C 0.33813 0.0682 0.55382 0.0
C816 C 0.35557 0.05241 0.52587 0.0
C817 C 0.33977 0.03894 0.5232 0.0
C818 C 0.32304 0.04048 0.53568 0.0
C819 C 0.32216 0.05499 0.55069 0.0
C820 C 0.34041 0.02319 0.50746 0.0
C821 C 0.33887 1.00312 0.5132 0.0
C822 C 0.34223 0.0278 0.48694 0.0
C823 C 0.34493 0.04852 0.47988 0.0
C824 C 0.33062 0.06326 0.48409 0.0
C825 C 0.33358 0.08285 0.47768 0.0
C826 C 0.35072 0.08784 0.46693 0.0
C827 C 0.36491 0.07322 0.46251 0.0
C828 C 0.36203 0.05361 0.46889 0.0
C829 C 0.31647 0.94918 0.44864 0.0
C830 C 0.32831 0.94911 0.4313 0.0
C831 C 0.31983 0.96317 0.46387 0.0
C832 C 0.33545 0.97707 0.46236 0.0
C833 C 0.34731 0.97691 0.44502 0.0
C834 C 0.34372 0.9632 0.42966 0.0
C835 C 0.33875 0.99239 0.47831 0.0
C836 C 0.34113 0.01244 0.47267 0.0
C837 C 0.3386 0.98762 0.49895 0.0
C838 C 0.33928 0.96667 0.50611 0.0
C839 C 0.35416 0.95355 0.49919 0.0
C840 C 0.35504 0.93397 0.50626 0.0
C841 C 0.34116 0.92732 0.5203 0.0
C842 C 0.32639 0.94025 0.52734 0.0
C843 C 0.32546 0.95987 0.52035 0.0
H844 H 0.3419 0.91216 0.52576 0.0
H845 H 0.35299 0.10302 0.46201 0.0
H846 H 0.07605 0.82538 0.9384 0.0
H847 H 0.0551 0.83436 0.96684 0.0
H848 H 0.00663 0.84767 0.92677 0.0
H849 H 0.02813 0.84004 0.8981 0.0
H850 H 0.0073 0.87421 0.95549 0.0
H851 H 0.01324 0.80054 0.95458 0.0
H852 H 0.03293 0.76948 0.95609 0.0
H853 H 0.05743 0.78763 0.01248 0.0
H854 H 0.03802 0.81885 0.0112 0.0
H855 H 0.92682 0.83231 0.02197 0.0
H856 H 0.95126 0.83556 0.99489 0.0
H857 H 0.98833 0.87173 0.0329 0.0
H858 H 0.96325 0.86985 0.05939 0.0
H859 H 0.9964 0.82372 0.00839 0.0
H860 H 0.99624 0.89697 0.00947 0.0
H861 H 0.97974 0.92982 0.00986 0.0
H862 H 0.94835 0.91473 0.95609 0.0
H863 H 0.96435 0.88152 0.95573 0.0
C864 C 0.06087 0.83008 0.93565 0.0
C865 C 0.05355 0.83164 0.91605 0.0
C866 C 0.0489 0.83522 0.95195 0.0
C867 C 0.02908 0.84121 0.94903 0.0
C868 C 0.02184 0.84299 0.92943 0.0
C869 C 0.03403 0.83845 0.91306 0.0
C870 C 0.01563 0.84508 0.9663 0.0
C871 C 0.00488 0.86308 0.96697 0.0
C872 C 0.01301 0.83102 0.98186 0.0
C873 C 0.0243 0.81205 0.98271 0.0
C874 C 0.02286 0.7979 0.96726 0.0
C875 C 0.03398 0.78028 0.96808 0.0
C876 C 0.04645 0.7766 0.98435 0.0
C877 C 0.04777 0.7905 0.99988 0.0
C878 C 0.03671 0.80814 0.99913 0.0
C879 C 0.9398 0.84157 0.02428 0.0
C880 C 0.94338 0.85048 0.04294 0.0
C881 C 0.95377 0.84337 0.00885 0.0
C882 C 0.97147 0.85407 0.01186 0.0
C883 C 0.9746 0.86378 0.03011 0.0
C884 C 0.96047 0.86234 0.04535 0.0
C885 C 0.98773 0.85241 0.99707 0.0
C886 C 0.99898 0.83483 0.99692 0.0
C887 C 0.99123 0.86706 0.98241 0.0
C888 C 0.98103 0.8866 0.9829 0.0
C889 C 0.98545 0.90047 0.99802 0.0
C890 C 0.97629 0.9192 0.99816 0.0
C891 C 0.96287 0.9243 0.9831 0.0
C892 C 0.95863 0.91069 0.96784 0.0
C893 C 0.96769 0.8919 0.96769 0.0
H894 H 0.95585 0.93884 0.98318 0.0
H895 H 0.05506 0.76297 0.98493 0.0
H896 H 0.15508 0.93005 0.06259 0.0
H897 H 0.14793 0.95417 0.03629 0.0
H898 H 0.17522 1.00056 0.07173 0.0
H899 H 0.18069 0.9766 0.09884 0.0
H900 H 0.14538 0.01555 0.05416 0.0
H901 H 0.19877 0.97119 0.02839 0.0
H902 H 0.21169 0.93809 0.01856 0.0
H903 H 0.1629 0.93055 0.97791 0.0
H904 H 0.14967 0.96354 0.98757 0.0
H905 H 0.17365 0.08509 0.97926 0.0
H906 H 0.17086 0.06073 0.00649 0.0
H907 H 0.14028 0.02021 0.96687 0.0
H908 H 0.14314 0.04452 0.9398 0.0
H909 H 0.16807 1.0009 0.98511 0.0
H910 H 0.11582 0.04296 0.00572 0.0
H911 H 0.09816 0.07401 0.01451 0.0
H912 H 0.13841 0.08379 0.06329 0.0
H913 H 0.15652 0.05292 0.05462 0.0
C914 C 0.15944 0.94546 0.06474 0.0
C915 C 0.16862 0.95153 0.08257 0.0
C916 C 0.15554 0.95922 0.04961 0.0
C917 C 0.16167 0.97916 0.05158 0.0
C918 C 0.17046 0.98527 0.06968 0.0
C919 C 0.17367 0.97162 0.08516 0.0
C920 C 0.15911 0.99369 0.03488 0.0
C921 C 0.15067 0.01243 0.03915 0.0
C922 C 0.16485 0.98934 0.0149 0.0
C923 C 0.17318 0.96975 0.00881 0.0
C924 C 0.19082 0.96246 0.01738 0.0
C925 C 0.19818 0.94372 0.01183 0.0
C926 C 0.18811 0.93222 0.99765 0.0
C927 C 0.1707 0.93947 0.98889 0.0
C928 C 0.16329 0.95819 0.99436 0.0
C929 C 0.16612 0.07108 0.97655 0.0
C930 C 0.15892 0.06646 0.95743 0.0
C931 C 0.16447 0.05718 0.99207 0.0
C932 C 0.15537 0.03855 0.98876 0.0
C933 C 0.14752 0.03434 0.9698 0.0
C934 C 0.14921 0.04818 0.95434 0.0
C935 C 0.15515 0.02302 0.00464 0.0
C936 C 0.16289 0.00407 1.00016 0.0
C937 C 0.14828 0.02698 0.02426 0.0
C938 C 0.13767 0.04573 0.02938 0.0
C939 C 0.12105 0.05184 0.01819 0.0
C940 C 0.11092 0.06938 0.02318 0.0
C941 C 0.11719 0.0809 0.03941 0.0
C942 C 0.13359 0.07487 0.0507 0.0
C943 C 0.14379 0.05734 0.04576 0.0
H944 H 0.10931 0.09446 0.04327 0.0
H945 H 0.19381 0.9177 0.99343 0.0
H946 H 0.94362 0.62496 0.45152 0.0
H947 H 0.96854 0.6237 0.47832 0.0
H948 H 0.95451 0.68449 0.49427 0.0
H949 H 0.92959 0.68565 0.4676 0.0
H950 H 0.99469 0.67793 0.48454 0.0
H951 H 0.94297 0.64757 0.52532 0.0
H952 H 0.91775 0.62209 0.53321 0.0
H953 H 0.96252 0.57641 0.53068 0.0
H954 H 0.98796 0.60158 0.52245 0.0
H955 H 0.05046 0.68931 0.57592 0.0
H956 H 0.02253 0.68722 0.55227 0.0
H957 H 0.04441 0.63055 0.53098 0.0
H958 H 0.07261 0.63286 0.55363 0.0
H959 H 1.00103 0.63336 0.54322 0.0
H960 H 0.05187 0.65932 0.50207 0.0
H961 H 0.07952 0.68179 0.4938 0.0
H962 H 0.03934 0.73159 0.4931 0.0
H963 H 0.0115 0.70949 0.50249 0.0
C964 C 0.94532 0.63768 0.46138 0.0
C965 C 0.93454 0.65527 0.45792 0.0
C966 C 0.9596 0.63703 0.47652 0.0
C967 C 0.96336 0.65404 0.48819 0.0
C968 C 0.95178 0.67122 0.48542 0.0
C969 C 0.93743 0.67182 0.47041 0.0
C970 C 0.98065 0.65473 0.5018 0.0
C971 C 0.9959 0.66842 0.49757 0.0
C972 C 0.98268 0.64157 0.51815 0.0
C973 C 0.96734 0.62645 0.52305 0.0
C974 C 0.94741 0.63207 0.52624 0.0
C975 C 0.93307 0.61769 0.53082 0.0
C976 C 0.93851 0.59764 0.53239 0.0
C977 C 0.95831 0.59194 0.52943 0.0
C978 C 0.9727 0.60626 0.52482 0.0
C979 C 0.04944 0.67661 0.56595 0.0
C980 C 0.06374 0.66133 0.56653 0.0
C981 C 0.03349 0.67536 0.55261 0.0
C982 C 0.03146 0.65863 0.54013 0.0
C983 C 0.04574 0.64347 0.54063 0.0
C984 C 0.06192 0.64496 0.55346 0.0
C985 C 0.01454 0.657 0.52628 0.0
C986 C 0.99961 0.64299 0.5303 0.0
C987 C 0.01307 0.6694 0.50938 0.0
C988 C 0.02963 0.68278 0.50338 0.0
C989 C 0.04894 0.67511 0.50051 0.0
C990 C 0.06467 0.68777 0.49554 0.0
C991 C 0.06121 0.70812 0.49287 0.0
C992 C 0.042 0.71583 0.49522 0.0
C993 C 0.02625 0.70324 0.50047 0.0
H994 H 0.07341 0.71789 0.48894 0.0
H995 H 0.92739 0.58653 0.53595 0.0
H996 H 0.33186 0.57994 0.05914 0.0
H997 H 0.3398 0.55536 0.03345 0.0
H998 H 0.33574 0.5084 0.0772 0.0
H999 H 0.32912 0.53333 0.10336 0.0
H1000 H 0.3651 0.50041 0.05308 0.0
H1001 H 0.29627 0.52215 0.04069 0.0
H1002 H 0.27082 0.54779 0.03382 0.0
H1003 H 0.30271 0.56569 0.98118 0.0
H1004 H 0.32842 0.54029 0.98784 0.0
H1005 H 0.33284 0.42407 0.97853 0.0
H1006 H 0.33448 0.44709 0.00728 0.0
H1007 H 0.3674 0.48909 0.97158 0.0
H1008 H 0.36669 0.46578 0.9434 0.0
H1009 H 0.32508 0.4996 0.9909 0.0
H1010 H 0.39284 0.48195 1.00074 0.0
H1011 H 0.42186 0.46005 0.00576 0.0
H1012 H 0.39622 0.43823 0.06028 0.0
H1013 H 0.36681 0.45978 0.05538 0.0
C1014 C 0.33248 0.56435 0.06328 0.0
C1015 C 0.3294 0.55851 0.08321 0.0
C1016 C 0.33699 0.55025 0.04852 0.0
C1017 C 0.33775 0.52982 0.05312 0.0
C1018 C 0.33506 0.524 0.07314 0.0
C1019 C 0.33113 0.53823 0.08808 0.0
C1020 C 0.34111 0.51456 0.03708 0.0
C1021 C 0.35607 0.50007 0.03967 0.0
C1022 C 0.33005 0.5145 0.01903 0.0
C1023 C 0.31429 0.5294 0.01483 0.0
C1024 C 0.29785 0.53158 0.02768 0.0
C1025 C 0.28339 0.54608 0.02382 0.0
C1026 C 0.28516 0.55838 0.00709 0.0
C1027 C 0.30135 0.55615 0.99413 0.0
C1028 C 0.31584 0.54169 0.99792 0.0
C1029 C 0.34096 0.43793 0.97707 0.0
C1030 C 0.34925 0.4434 0.95859 0.0
C1031 C 0.34185 0.45108 0.99345 0.0
C1032 C 0.35101 0.46982 0.99152 0.0
C1033 C 0.36028 0.47473 0.97343 0.0
C1034 C 0.35969 0.46151 0.95729 0.0
C1035 C 0.34858 0.4853 0.00724 0.0
C1036 C 0.33387 0.49985 0.00449 0.0
C1037 C 0.36021 0.48572 0.02479 0.0
C1038 C 0.37742 0.47215 0.02746 0.0
C1039 C 0.39318 0.47218 0.01359 0.0
C1040 C 0.40976 0.45993 0.01647 0.0
C1041 C 0.41083 0.44766 0.03327 0.0
C1042 C 0.39532 0.44767 0.04723 0.0
C1043 C 0.37868 0.45989 0.0444 0.0
H1044 H 0.42371 0.43824 0.03552 0.0
H1045 H 0.27398 0.56961 1.00416 0.0
H1046 H 0.54969 0.81799 0.45169 0.0
H1047 H 0.52575 0.82203 0.47878 0.0
H1048 H 0.54831 0.88104 0.49059 0.0
H1049 H 0.57237 0.87716 0.46289 0.0
H1050 H 0.54055 0.85801 0.52549 0.0
H1051 H 0.50695 0.87945 0.46812 0.0
H1052 H 0.49509 0.87958 0.43331 0.0
H1053 H 0.46243 0.82567 0.44389 0.0
H1054 H 0.47442 0.82495 0.47866 0.0
H1055 H 0.45907 0.86231 0.59343 0.0
H1056 H 0.48204 0.87128 0.56663 0.0
H1057 H 0.46444 0.81875 0.53367 0.0
H1058 H 0.44009 0.81078 0.55991 0.0
H1059 H 0.46939 0.84732 0.50891 0.0
H1060 H 0.51062 0.82436 0.56558 0.0
H1061 H 0.52176 0.82702 0.60062 0.0
H1062 H 0.53893 0.88788 0.59093 0.0
H1063 H 0.52779 0.88558 0.55588 0.0
C1064 C 0.5497 0.83179 0.46014 0.0
C1065 C 0.56274 0.84734 0.45506 0.0
C1066 C 0.53594 0.83411 0.47554 0.0
C1067 C 0.53494 0.85199 0.48636 0.0
C1068 C 0.54874 0.86719 0.48223 0.0
C1069 C 0.56254 0.86492 0.46657 0.0
C1070 C 0.51926 0.85433 0.50183 0.0
C1071 C 0.52494 0.85606 0.52187 0.0
C1072 C 0.49888 0.8519 0.49705 0.0
C1073 C 0.4918 0.85203 0.47601 0.0
C1074 C 0.49745 0.86747 0.46298 0.0
C1075 C 0.49065 0.86768 0.44325 0.0
C1076 C 0.47806 0.85261 0.43638 0.0
C1077 C 0.47222 0.83732 0.44923 0.0
C1078 C 0.47901 0.837 0.46896 0.0
C1079 C 0.46028 0.85261 0.5805 0.0
C1080 C 0.4483 0.83555 0.57888 0.0
C1081 C 0.47345 0.85771 0.5652 0.0
C1082 C 0.47559 0.84536 0.54834 0.0
C1083 C 0.46326 0.82846 0.54658 0.0
C1084 C 0.44951 0.82376 0.56161 0.0
C1085 C 0.4908 0.84973 0.53269 0.0
C1086 C 0.48497 0.84943 0.51255 0.0
C1087 C 0.51101 0.85376 0.53737 0.0
C1088 C 0.51829 0.85483 0.5582 0.0
C1089 C 0.51679 0.83829 0.57095 0.0
C1090 C 0.52308 0.83974 0.5908 0.0
C1091 C 0.53102 0.85762 0.598 0.0
C1092 C 0.53279 0.87405 0.58534 0.0
C1093 C 0.52653 0.87266 0.56548 0.0
H1094 H 0.53582 0.85874 0.61339 0.0
H1095 H 0.47281 0.85281 0.4211 0.0
H1096 H 0.45181 0.18208 0.57956 0.0
H1097 H 0.4772 0.17625 0.55449 0.0
H1098 H 0.43187 0.1711 0.50917 0.0
H1099 H 0.40608 0.17464 0.53496 0.0
H1100 H 0.45798 0.14514 0.5013 0.0
H1101 H 0.46652 0.21588 0.51911 0.0
H1102 H 0.47241 0.24325 0.54312 0.0
H1103 H 0.52689 0.21548 0.56174 0.0
H1104 H 0.52125 0.18791 0.53797 0.0
H1105 H 0.52576 0.16583 0.41874 0.0
H1106 H 0.4988 0.16562 0.44366 0.0
H1107 H 0.54166 0.15589 0.49041 0.0
H1108 H 0.56838 0.15516 0.46581 0.0
H1109 H 0.51739 0.18871 0.49737 0.0
H1110 H 0.51226 0.12045 0.48151 0.0
H1111 H 0.50851 0.08995 0.46128 0.0
H1112 H 0.45062 0.1093 0.4424 0.0
H1113 H 0.45415 0.14014 0.46227 0.0
C1114 C 0.44713 0.17978 0.56427 0.0
C1115 C 0.42679 0.17874 0.55938 0.0
C1116 C 0.46182 0.17669 0.54975 0.0
C1117 C 0.45673 0.17381 0.52958 0.0
C1118 C 0.43637 0.17334 0.52453 0.0
C1119 C 0.42157 0.1756 0.53928 0.0
C1120 C 0.47256 0.17087 0.51392 0.0
C1121 C 0.47071 0.155 0.50019 0.0
C1122 C 0.48988 0.18297 0.51292 0.0
C1123 C 0.49341 0.19983 0.52683 0.0
C1124 C 0.47974 0.21563 0.52834 0.0
C1125 C 0.48303 0.23116 0.54191 0.0
C1126 C 0.5 0.23109 0.55396 0.0
C1127 C 0.51376 0.21553 0.5524 0.0
C1128 C 0.51055 0.19998 0.53885 0.0
C1129 C 0.52942 0.16329 0.43427 0.0
C1130 C 0.54942 0.16108 0.4402 0.0
C1131 C 0.51398 0.16319 0.44851 0.0
C1132 C 0.51822 0.16095 0.46896 0.0
C1133 C 0.53802 0.15789 0.47478 0.0
C1134 C 0.55335 0.15772 0.46062 0.0
C1135 C 0.50243 0.16345 0.4845 0.0
C1136 C 0.50442 0.17912 0.49827 0.0
C1137 C 0.48553 0.15094 0.48574 0.0
C1138 C 0.48362 0.1328 0.47314 0.0
C1139 C 0.49886 0.11839 0.47279 0.0
C1140 C 0.49674 0.10098 0.46146 0.0
C1141 C 0.47935 0.09772 0.45053 0.0
C1142 C 0.46409 0.11188 0.45085 0.0
C1143 C 0.46615 0.12934 0.46214 0.0
H1144 H 0.47768 0.08418 0.44186 0.0
H1145 H 0.50249 0.2431 0.56449 0.0
H1146 H 0.88066 0.05247 0.95922 0.0
H1147 H 0.88206 0.0285 0.98699 0.0
H1148 H 0.82421 0.00614 0.97035 0.0
H1149 H 0.8229 0.03 0.94264 0.0
H1150 H 0.82915 0.01905 0.01199 0.0
H1151 H 0.8652 0.98015 0.95982 0.0
H1152 H 0.89384 0.97531 0.93715 0.0
H1153 H 0.93396 0.97962 0.98681 0.0
H1154 H 0.9056 0.98482 0.00972 0.0
H1155 H 0.80758 0.93294 0.06671 0.0
H1156 H 0.81299 0.96058 0.04353 0.0
H1157 H 0.87657 0.95506 0.05188 0.0
H1158 H 0.8711 0.92597 0.07271 0.0
H1159 H 0.87325 0.96003 0.01709 0.0
H1160 H 0.84608 0.99719 0.06944 0.0
H1161 H 0.8236 0.00696 0.09693 0.0
H1162 H 0.77547 0.01369 0.05535 0.0
H1163 H 0.79762 0.00372 0.02761 0.0
C1164 C 0.86854 0.04204 0.9613 0.0
C1165 C 0.85179 0.04269 0.94882 0.0
C1166 C 0.86929 0.0285 0.97714 0.0
C1167 C 0.85322 0.01563 0.98066 0.0
C1168 C 0.83672 0.016 0.96783 0.0
C1169 C 0.83603 0.02944 0.95199 0.0
C1170 C 0.85292 1.00238 0.99823 0.0
C1171 C 0.83865 0.00601 0.01315 0.0
C1172 C 0.86635 0.98634 1.00039 0.0
C1173 C 0.88327 0.98308 0.98645 0.0
C1174 C 0.88013 0.98025 0.96588 0.0
C1175 C 0.89632 0.97741 0.95299 0.0
C1176 C 0.91571 0.97721 0.96053 0.0
C1177 C 0.91895 0.97981 0.98098 0.0
C1178 C 0.90282 0.9827 0.99391 0.0
C1179 C 0.82263 0.93789 0.0637 0.0
C1180 C 0.83891 0.92757 0.07159 0.0
C1181 C 0.82578 0.95381 0.05059 0.0
C1182 C 0.84525 0.96027 0.04603 0.0
C1183 C 0.86142 0.9504 0.05485 0.0
C1184 C 0.85828 0.93392 0.06702 0.0
C1185 C 0.84882 0.9761 0.03085 0.0
C1186 C 0.86379 0.97311 0.01636 0.0
C1187 C 0.83695 0.99353 0.02985 0.0
C1188 C 0.82349 0.99957 0.04644 0.0
C1189 C 0.83067 1.00063 0.06616 0.0
C1190 C 0.81799 0.00623 0.08179 0.0
C1191 C 0.79811 0.01091 0.0779 0.0
C1192 C 0.79088 0.01005 0.05835 0.0
C1193 C 0.8035 0.00447 0.04265 0.0
H1194 H 0.78831 0.01523 0.09002 0.0
H1195 H 0.92821 0.975 0.95053 0.0
H1196 H 0.04716 0.34661 0.58399 0.0
H1197 H 0.02269 0.35267 0.55798 0.0
H1198 H 0.05994 0.32158 0.51538 0.0
H1199 H 0.08533 0.31715 0.54114 0.0
H1200 H 0.04626 0.3517 0.49783 0.0
H1201 H 0.00982 0.30236 0.5413 0.0
H1202 H 0.99186 0.29085 0.57139 0.0
H1203 H 0.95885 0.34569 0.57337 0.0
H1204 H 0.97651 0.35742 0.54328 0.0
H1205 H 0.97592 0.32431 0.4231 0.0
H1206 H 1.00162 0.32856 0.44882 0.0
H1207 H 0.95977 0.36131 0.48542 0.0
H1208 H 0.93409 0.35644 0.46012 0.0
H1209 H 0.97495 0.33534 0.5068 0.0
H1210 H 1.00229 0.38328 0.46451 0.0
H1211 H 0.01486 0.39901 0.43374 0.0
H1212 H 0.06226 0.35612 0.43059 0.0
H1213 H 0.0498 0.33991 0.4612 0.0
C1214 C 0.05005 0.34085 0.56914 0.0
C1215 C 0.06815 0.33125 0.56468 0.0
C1216 C 0.03589 0.34419 0.55421 0.0
C1217 C 0.03905 0.33721 0.5346 0.0
C1218 C 0.057 0.32717 0.5303 0.0
C1219 C 0.07147 0.32444 0.54509 0.0
C1220 C 0.02411 0.34067 0.5184 0.0
C1221 C 0.03071 0.34782 0.49972 0.0
C1222 C 0.00347 0.33712 0.52104 0.0
C1223 C 0.99453 0.33076 0.54018 0.0
C1224 C 0.99892 0.31202 0.54834 0.0
C1225 C 0.9887 0.30543 0.56531 0.0
C1226 C 0.97412 0.31748 0.57417 0.0
C1227 C 0.97005 0.33633 0.56641 0.0
C1228 C 0.98013 0.34294 0.54942 0.0
C1229 C 0.97237 0.33253 0.4366 0.0
C1230 C 0.95297 0.33963 0.4399 0.0
C1231 C 0.98708 0.33514 0.45121 0.0
C1232 C 0.9827 0.34526 0.46917 0.0
C1233 C 0.96354 0.35327 0.47186 0.0
C1234 C 0.94884 0.35041 0.45745 0.0
C1235 C 0.99719 0.34553 0.48603 0.0
C1236 C 0.9905 0.33925 0.50482 0.0
C1237 C 0.01747 0.35074 0.48366 0.0
C1238 C 0.02495 0.36022 0.46506 0.0
C1239 C 0.01526 0.37705 0.45715 0.0
C1240 C 0.0224 0.38609 0.43976 0.0
C1241 C 0.03931 0.37853 0.43018 0.0
C1242 C 0.04914 0.36194 0.43801 0.0
C1243 C 0.04205 0.35282 0.4554 0.0
H1244 H 0.04481 0.38556 0.41672 0.0
H1245 H 0.96586 0.31222 0.58698 0.0
H1246 H 0.63013 0.45453 0.94582 0.0
H1247 H 0.627 0.48107 0.97108 0.0
H1248 H 0.69044 0.49073 0.96828 0.0
H1249 H 0.69355 0.46383 0.94363 0.0
H1250 H 0.67724 0.48651 0.00656 0.0
H1251 H 0.65172 0.5231 0.94624 0.0
H1252 H 0.6262 0.52658 0.91997 0.0
H1253 H 0.58022 0.52784 0.96465 0.0
H1254 H 0.60544 0.52421 0.99112 0.0
H1255 H 0.70233 0.57506 0.05387 0.0
H1256 H 0.69597 0.54679 0.03174 0.0
H1257 H 0.63301 0.55988 0.03346 0.0
H1258 H 0.63962 0.58899 0.05449 0.0
H1259 H 0.63898 0.5493 0.99942 0.0
H1260 H 0.65535 0.5176 0.05824 0.0
H1261 H 0.67227 0.50849 0.08954 0.0
H1262 H 0.7241 0.49052 0.05635 0.0
H1263 H 0.7076 0.49978 0.02484 0.0
C1264 C 0.64326 0.46276 0.95026 0.0
C1265 C 0.66204 0.4575 0.94257 0.0
C1266 C 0.6415 0.47784 0.96474 0.0
C1267 C 0.65848 0.48805 0.97154 0.0
C1268 C 0.67713 0.48311 0.96331 0.0
C1269 C 0.6789 0.46792 0.94908 0.0
C1270 C 0.65738 0.50325 0.98782 0.0
C1271 C 0.66911 0.50039 0.00492 0.0
C1272 C 0.64533 0.52053 0.98663 0.0
C1273 C 0.63044 0.52329 0.97061 0.0
C1274 C 0.63617 0.5241 0.95043 0.0
C1275 C 0.62176 0.52609 0.93551 0.0
C1276 C 0.60161 0.5274 0.94063 0.0
C1277 C 0.59582 0.52682 0.96069 0.0
C1278 C 0.61016 0.52484 0.97564 0.0
C1279 C 0.68717 0.57197 0.04937 0.0
C1280 C 0.67152 0.58437 0.0557 0.0
C1281 C 0.68345 0.5556 0.03692 0.0
C1282 C 0.6639 0.55075 0.03111 0.0
C1283 C 0.64824 0.56318 0.03755 0.0
C1284 C 0.65203 0.57989 0.04955 0.0
C1285 C 0.66009 0.53328 0.01766 0.0
C1286 C 0.64722 0.53552 1.00125 0.0
C1287 C 0.66998 0.51478 0.02022 0.0
C1288 C 0.68028 0.50959 0.03914 0.0
C1289 C 0.67044 0.51191 0.05761 0.0
C1290 C 0.67994 0.50667 0.0754 0.0
C1291 C 0.69927 0.49898 0.07493 0.0
C1292 C 0.70913 0.4965 0.05668 0.0
C1293 C 0.6997 0.50173 0.03884 0.0
H1294 H 0.7066 0.4949 0.08872 0.0
H1295 H 0.59048 0.52889 0.92906 0.0
H1296 H 0.53459 0.37451 0.07685 0.0
H1297 H 0.50779 0.37507 0.05213 0.0
H1298 H 0.52739 0.31836 0.02902 0.0
H1299 H 0.55334 0.31687 0.0544 0.0
H1300 H 0.51882 0.35795 1.00054 0.0
H1301 H 0.49267 0.31039 0.05137 0.0
H1302 H 0.48417 0.30339 0.08654 0.0
H1303 H 0.44587 0.35469 0.08804 0.0
H1304 H 0.45441 0.36213 0.05295 0.0
H1305 H 0.44705 0.32075 0.93384 0.0
H1306 H 0.47296 0.32728 0.95845 0.0
H1307 H 0.4307 0.35938 0.99505 0.0
H1308 H 0.40456 0.35258 0.9706 0.0
H1309 H 0.45026 0.33655 0.01788 0.0
H1310 H 0.47553 0.38937 0.97719 0.0
H1311 H 0.48715 0.40856 0.94806 0.0
H1312 H 0.52452 0.35971 0.93007 0.0
H1313 H 0.51384 0.3406 0.95978 0.0
C1314 C 0.533 0.3619 0.06685 0.0
C1315 C 0.54621 0.34557 0.06783 0.0
C1316 C 0.51782 0.36242 0.05255 0.0
C1317 C 0.51574 0.34681 0.03874 0.0
C1318 C 0.52889 0.33061 0.03949 0.0
C1319 C 0.54378 0.32986 0.05401 0.0
C1320 C 0.49957 0.34703 0.02376 0.0
C1321 C 0.50389 0.35297 1.00419 0.0
C1322 C 0.47987 0.34179 0.02886 0.0
C1323 C 0.47429 0.33689 0.04966 0.0
C1324 C 0.48254 0.32023 0.05926 0.0
C1325 C 0.4777 0.31618 0.07916 0.0
C1326 C 0.46452 0.32861 0.08954 0.0
C1327 C 0.45608 0.34508 0.08 0.0
C1328 C 0.4609 0.3492 0.06011 0.0
C1329 C 0.44321 0.32914 0.94715 0.0
C1330 C 0.42361 0.3359 0.95034 0.0
C1331 C 0.45817 0.33315 0.96111 0.0
C1332 C 0.45395 0.3441 0.97855 0.0
C1333 C 0.4344 0.35093 0.98172 0.0
C1334 C 0.41941 0.34692 0.96777 0.0
C1335 C 0.46954 0.34681 0.99417 0.0
C1336 C 0.46515 0.34146 0.014 0.0
C1337 C 0.48899 0.35347 0.98951 0.0
C1338 C 0.49366 0.36348 0.97044 0.0
C1339 C 0.486 0.38262 0.96685 0.0
C1340 C 0.49261 0.39357 0.95041 0.0
C1341 C 0.50647 0.38532 0.93719 0.0
C1342 C 0.51376 0.36606 0.94034 0.0
C1343 C 0.50759 0.35523 0.95708 0.0
H1344 H 0.51167 0.39396 0.92462 0.0
H1345 H 0.46082 0.32547 0.10495 0.0
H1346 H 0.6369 0.92088 0.45861 0.0
H1347 H 0.63303 0.94751 0.48358 0.0
H1348 H 0.69674 0.95453 0.4859 0.0
H1349 H 0.70069 0.92842 0.46042 0.0
H1350 H 0.67498 0.95006 0.52489 0.0
H1351 H 0.67829 0.98839 0.46547 0.0
H1352 H 0.66989 0.99837 0.43113 0.0
H1353 H 0.60975 0.01057 0.44929 0.0
H1354 H 0.61772 1.00026 0.48377 0.0
H1355 H 0.68672 0.03982 0.5798 0.0
H1356 H 0.68762 0.01165 0.55663 0.0
H1357 H 0.62537 0.02052 0.54349 0.0
H1358 H 0.62488 0.04953 0.56604 0.0
H1359 H 0.64493 0.01595 0.51001 0.0
H1360 H 0.64457 0.9786 0.57177 0.0
H1361 H 0.65661 0.97067 0.60563 0.0
H1362 H 0.71483 0.95816 0.58208 0.0
H1363 H 0.70319 0.96621 0.54813 0.0
C1364 C 0.65008 0.92808 0.46447 0.0
C1365 C 0.66912 0.92247 0.45767 0.0
C1366 C 0.64783 0.94334 0.47865 0.0
C1367 C 0.6646 0.95296 0.48659 0.0
C1368 C 0.68362 0.94727 0.47997 0.0
C1369 C 0.68585 0.93237 0.46541 0.0
C1370 C 0.66229 0.96867 0.50213 0.0
C1371 C 0.66851 0.96452 0.52165 0.0
C1372 C 0.65364 0.98742 0.4979 0.0
C1373 C 0.64853 0.99325 0.47715 0.0
C1374 C 0.66319 0.99289 0.4621 0.0
C1375 C 0.65853 0.99868 0.44263 0.0
C1376 C 0.63931 0.00504 0.43802 0.0
C1377 C 0.62464 0.00558 0.45288 0.0
C1378 C 0.62922 0.99977 0.47241 0.0
C1379 C 0.67305 0.03522 0.57257 0.0
C1380 C 0.65557 0.04639 0.5752 0.0
C1381 C 0.67357 0.01916 0.55919 0.0
C1382 C 0.65647 0.0136 0.54843 0.0
C1383 C 0.63875 0.02437 0.55163 0.0
C1384 C 0.63835 0.04071 0.56477 0.0
C1385 C 0.65751 0.99737 0.53304 0.0
C1386 C 0.65107 1.0014 0.51344 0.0
C1387 C 0.66623 0.97856 0.53713 0.0
C1388 C 0.67303 0.97308 0.55744 0.0
C1389 C 0.65994 0.97418 0.57384 0.0
C1390 C 0.6667 0.96968 0.59304 0.0
C1391 C 0.68647 0.96394 0.59601 0.0
C1392 C 0.69951 0.96259 0.57977 0.0
C1393 C 0.69284 0.96707 0.56053 0.0
H1394 H 0.69169 0.96052 0.6109 0.0
H1395 H 0.63589 0.00968 0.42295 0.0
H1396 H 0.93253 0.15893 0.03618 0.0
H1397 H 0.95994 0.1592 0.0129 0.0
H1398 H 1.00143 0.15395 0.06179 0.0
H1399 H 0.97389 0.15642 0.08557 0.0
H1400 H 0.01528 0.17917 0.03959 0.0
H1401 H 0.98931 0.11485 0.0232 0.0
H1402 H 0.96445 0.08952 0.01371 0.0
H1403 H 0.953 0.12065 0.95897 0.0
H1404 H 0.97749 0.14632 0.96824 0.0
H1405 H 0.09526 0.16563 0.96951 0.0
H1406 H 0.07002 0.16001 0.9952 0.0
H1407 H 0.02464 0.1821 0.95554 0.0
H1408 H 0.0498 0.18787 0.92969 0.0
H1409 H 0.01524 0.14515 0.97372 0.0
H1410 H 0.03931 0.21064 0.99274 0.0
H1411 H 0.06552 0.23469 1.00187 0.0
H1412 H 0.08195 0.19832 0.0519 0.0
H1413 H 0.05598 0.17393 0.0429 0.0
C1414 C 0.94746 0.15829 0.04219 0.0
C1415 C 0.95086 0.15844 0.06298 0.0
C1416 C 0.96325 0.15779 0.02865 0.0
C1417 C 0.98296 0.15629 0.03536 0.0
C1418 C 0.9864 0.1552 0.05609 0.0
C1419 C 0.97057 0.15643 0.06975 0.0
C1420 C 0.99989 0.15791 0.02091 0.0
C1421 C 0.01537 0.17128 0.02543 0.0
C1422 C 1.00005 0.14805 1.00206 0.0
C1423 C 0.98516 0.13263 0.99653 0.0
C1424 C 0.98137 0.11639 0.00922 0.0
C1425 C 0.96734 0.10196 1.00386 0.0
C1426 C 0.95709 0.10351 0.98579 0.0
C1427 C 0.96089 0.11948 0.973 0.0
C1428 C 0.97486 0.13397 0.97829 0.0
C1429 C 0.07997 0.16964 0.96632 0.0
C1430 C 0.07456 0.17723 0.94752 0.0
C1431 C 0.06556 0.16631 0.98102 0.0
C1432 C 0.04547 0.17057 0.97723 0.0
C1433 C 0.04007 0.17864 0.9587 0.0
C1434 C 0.05449 0.18209 0.94402 0.0
C1435 C 0.03005 0.16644 0.99254 0.0
C1436 C 0.01502 0.15267 0.9881 0.0
C1437 C 0.03039 0.17564 0.01154 0.0
C1438 C 0.04585 0.19039 0.01705 0.0
C1439 C 0.04861 0.20771 0.00561 0.0
C1440 C 0.0634 0.22141 0.01077 0.0
C1441 C 0.07543 0.21801 0.02742 0.0
C1442 C 0.07264 0.20093 0.03899 0.0
C1443 C 0.05788 0.18717 0.03388 0.0
H1444 H 0.08688 0.22863 0.03139 0.0
H1445 H 0.94624 0.09233 0.98168 0.0
H1446 H 0.85235 0.55914 0.43382 0.0
H1447 H 0.86117 0.53486 0.45919 0.0
H1448 H 0.8382 0.57432 0.50493 0.0
H1449 H 0.83145 0.59962 0.47942 0.0
H1450 H 0.8668 0.55855 0.52018 0.0
H1451 H 0.81369 0.52507 0.48209 0.0
H1452 H 0.79653 0.50783 0.45437 0.0
H1453 H 0.84765 0.47046 0.44505 0.0
H1454 H 0.86513 0.48749 0.47257 0.0
H1455 H 0.84272 0.47841 0.58934 0.0
H1456 H 0.8453 0.50761 0.56741 0.0
H1457 H 0.88647 0.47565 0.52956 0.0
H1458 H 0.88417 0.44669 0.55154 0.0
H1459 H 0.85142 0.48698 0.51066 0.0
H1460 H 0.90251 0.51598 0.54953 0.0
H1461 H 0.91892 0.52808 0.58013 0.0
H1462 H 0.87252 0.57139 0.58864 0.0
H1463 H 0.85565 0.55933 0.55822 0.0
C1464 C 0.84928 0.56268 0.44932 0.0
C1465 C 0.84117 0.5813 0.45463 0.0
C1466 C 0.85403 0.54856 0.46391 0.0
C1467 C 0.84979 0.55217 0.48421 0.0
C1468 C 0.84167 0.57091 0.48949 0.0
C1469 C 0.83771 0.58542 0.4749 0.0
C1470 C 0.85425 0.53681 0.49995 0.0
C1471 C 0.86302 0.54298 0.51809 0.0
C1472 C 0.8504 0.51612 0.49726 0.0
C1473 C 0.84073 0.50766 0.47928 0.0
C1474 C 0.82137 0.51342 0.47389 0.0
C1475 C 0.81157 0.50361 0.4583 0.0
C1476 C 0.82098 0.48801 0.44809 0.0
C1477 C 0.84038 0.4825 0.45304 0.0
C1478 C 0.85023 0.49223 0.46859 0.0
C1479 C 0.85309 0.47801 0.57692 0.0
C1480 C 0.8632 0.46027 0.57211 0.0
C1481 C 0.85445 0.49465 0.5643 0.0
C1482 C 0.86591 0.49374 0.54671 0.0
C1483 C 0.87747 0.47668 0.54299 0.0
C1484 C 0.87625 0.46018 0.55563 0.0
C1485 C 0.86333 0.50892 0.53069 0.0
C1486 C 0.85503 0.50263 0.51259 0.0
C1487 C 0.86767 0.52933 0.53339 0.0
C1488 C 0.8777 0.5366 0.55171 0.0
C1489 C 0.89569 0.52795 0.55803 0.0
C1490 C 0.9051 0.53483 0.57532 0.0
C1491 C 0.89674 0.55045 0.58636 0.0
C1492 C 0.87896 0.55926 0.58009 0.0
C1493 C 0.86947 0.55242 0.56281 0.0
H1494 H 0.90405 0.55576 0.59974 0.0
H1495 H 0.81321 0.47998 0.43653 0.0
H1496 H 0.57821 0.45954 0.16794 0.0
H1497 H 0.55298 0.48536 0.16313 0.0
H1498 H 0.50676 0.44166 0.17229 0.0
H1499 H 0.53215 0.41556 0.17577 0.0
H1500 H 0.49932 0.46397 0.13972 0.0
H1501 H 0.51996 0.47825 0.20831 0.0
H1502 H 0.54495 0.4862 0.23408 0.0
H1503 H 0.56173 0.5389 0.20196 0.0
H1504 H 0.537 0.53115 0.17589 0.0
H1505 H 0.41756 0.53027 0.16367 0.0
H1506 H 0.44307 0.50416 0.16001 0.0
H1507 H 0.48669 0.54885 0.14514 0.0
H1508 H 0.46133 0.57476 0.14832 0.0
H1509 H 0.49668 0.52706 0.1784 0.0
H1510 H 0.47814 0.51669 0.11184 0.0
H1511 H 0.45736 0.51049 0.08221 0.0
H1512 H 0.44073 0.45329 0.10544 0.0
H1513 H 0.46117 0.45928 0.13544 0.0
C1514 C 0.56265 0.45551 0.16887 0.0
C1515 C 0.55708 0.4356 0.17189 0.0
C1516 C 0.54823 0.47029 0.16637 0.0
C1517 C 0.52791 0.46549 0.16739 0.0
C1518 C 0.52234 0.4457 0.17138 0.0
C1519 C 0.53682 0.43086 0.17367 0.0
C1520 C 0.51249 0.48094 0.16364 0.0
C1521 C 0.49846 0.4776 0.14844 0.0
C1522 C 0.51212 0.49925 0.17421 0.0
C1523 C 0.52672 0.50404 0.1901 0.0
C1524 C 0.52904 0.49149 0.20671 0.0
C1525 C 0.54315 0.49596 0.22137 0.0
C1526 C 0.55494 0.51302 0.21964 0.0
C1527 C 0.55259 0.52569 0.20328 0.0
C1528 C 0.53851 0.52128 0.18858 0.0
C1529 C 0.43242 0.53438 0.15896 0.0
C1530 C 0.43757 0.55454 0.15671 0.0
C1531 C 0.44699 0.5195 0.15691 0.0
C1532 C 0.46683 0.52463 0.15257 0.0
C1533 C 0.47154 0.54459 0.14868 0.0
C1534 C 0.45703 0.55936 0.15056 0.0
C1535 C 0.48307 0.50981 0.15493 0.0
C1536 C 0.49736 0.51335 0.16978 0.0
C1537 C 0.48397 0.49198 0.14367 0.0
C1538 C 0.47095 0.48859 0.12609 0.0
C1539 C 0.46979 0.50293 0.11083 0.0
C1540 C 0.45814 0.49941 0.09391 0.0
C1541 C 0.44766 0.48155 0.09199 0.0
C1542 C 0.44881 0.46716 0.10699 0.0
C1543 C 0.46042 0.47061 0.12397 0.0
H1544 H 0.4387 0.47882 0.07883 0.0
H1545 H 0.56587 0.51644 0.23099 0.0
H1546 H 0.53255 0.09864 0.33247 0.0
H1547 H 0.50676 0.07311 0.33633 0.0
H1548 H 0.55208 0.02736 0.33556 0.0
H1549 H 0.57735 0.05259 0.32967 0.0
H1550 H 0.52427 0.01283 0.31847 0.0
H1551 H 0.52788 0.04653 0.37994 0.0
H1552 H 0.52803 0.07433 0.40414 0.0
H1553 H 0.46721 0.08768 0.38997 0.0
H1554 H 0.46677 0.06024 0.36533 0.0
H1555 H 0.4634 0.93726 0.35721 0.0
H1556 H 0.48776 0.96425 0.35918 0.0
H1557 H 0.44324 0.0061 0.33936 0.0
H1558 H 0.41858 0.97906 0.33784 0.0
H1559 H 0.4708 0.02174 0.36899 0.0
H1560 H 0.47326 0.98284 0.30547 0.0
H1561 H 0.47696 0.95019 0.28873 0.0
H1562 H 0.5334 0.94151 0.31744 0.0
H1563 H 0.52991 0.974 0.33448 0.0
C1564 C 0.53687 0.08308 0.3326 0.0
C1565 C 0.55701 0.07758 0.33122 0.0
C1566 C 0.52217 0.06849 0.33521 0.0
C1567 C 0.52741 0.04822 0.33692 0.0
C1568 C 0.54748 0.0428 0.33449 0.0
C1569 C 0.56202 0.05727 0.33134 0.0
C1570 C 0.51214 0.03258 0.34099 0.0
C1571 C 0.51278 0.01487 0.32972 0.0
C1572 C 0.49717 0.03479 0.35587 0.0
C1573 C 0.49738 0.05148 0.37053 0.0
C1574 C 0.51459 0.05552 0.38179 0.0
C1575 C 0.51473 0.07119 0.39562 0.0
C1576 C 0.49769 0.0828 0.39851 0.0
C1577 C 0.48043 0.07872 0.38764 0.0
C1578 C 0.48023 0.06311 0.37373 0.0
C1579 C 0.45876 0.95227 0.3535 0.0
C1580 C 0.43926 0.95606 0.34693 0.0
C1581 C 0.47265 0.96768 0.35472 0.0
C1582 C 0.46741 0.9871 0.34903 0.0
C1583 C 0.44759 0.99119 0.34375 0.0
C1584 C 0.43357 0.97577 0.34277 0.0
C1585 C 0.48303 1.00251 0.34632 0.0
C1586 C 0.48239 0.02003 0.35781 0.0
C1587 C 0.49878 0.99969 0.33252 0.0
C1588 C 0.50131 0.9808 0.32124 0.0
C1589 C 0.48648 0.97398 0.30813 0.0
C1590 C 0.48852 0.95549 0.29864 0.0
C1591 C 0.5054 0.94379 0.30201 0.0
C1592 C 0.52034 0.9506 0.3148 0.0
C1593 C 0.51836 0.96906 0.32434 0.0
H1594 H 0.5069 0.92944 0.29472 0.0
H1595 H 0.49785 0.09495 0.40918 0.0
H1596 H 0.9532 0.07918 0.85603 0.0
H1597 H 0.97668 0.05267 0.86373 0.0
H1598 H 0.94131 0.01106 0.82974 0.0
H1599 H 0.91715 0.03759 0.82268 0.0
H1600 H 0.95354 0.99474 0.8645 0.0
H1601 H 0.98621 0.03342 0.81135 0.0
H1602 H 0.99775 0.06589 0.79854 0.0
H1603 H 0.03567 0.07291 0.84962 0.0
H1604 H 0.02419 0.04058 0.86284 0.0
H1605 H 0.02818 0.92115 0.83954 0.0
H1606 H 1.00097 0.94554 0.84227 0.0
H1607 H 0.03689 0.98173 0.88139 0.0
H1608 H 0.06375 0.95719 0.87924 0.0
H1609 H 0.025 1.00178 0.8471 0.0
H1610 H 0.99735 0.96653 0.90022 0.0
H1611 H 0.98457 0.93871 0.92044 0.0
H1612 H 0.93788 0.92891 0.87786 0.0
H1613 H 0.95056 0.95654 0.85719 0.0
C1614 C 0.95058 0.06452 0.84981 0.0
C1615 C 0.93352 0.06061 0.83833 0.0
C1616 C 0.96401 0.04928 0.85434 0.0
C1617 C 0.96102 0.02987 0.84702 0.0
C1618 C 0.944 0.02592 0.8355 0.0
C1619 C 0.93032 0.04112 0.83129 0.0
C1620 C 0.97571 0.01375 0.85122 0.0
C1621 C 0.9691 0.99609 0.86034 0.0
C1622 C 0.99624 0.01599 0.8469 0.0
C1623 C 0.00432 0.0346 0.83809 0.0
C1624 C 0.9971 0.04184 0.81978 0.0
C1625 C 0.00358 0.06025 0.81249 0.0
C1626 C 0.01742 0.07146 0.82327 0.0
C1627 C 0.02497 0.06419 0.84128 0.0
C1628 C 0.01852 0.04581 0.84865 0.0
C1629 C 0.0299 0.93384 0.84944 0.0
C1630 C 0.04816 0.93735 0.85901 0.0
C1631 C 0.01442 0.94787 0.85086 0.0
C1632 C 0.01705 0.96564 0.86176 0.0
C1633 C 0.03461 0.96826 0.87272 0.0
C1634 C 0.04989 0.95416 0.87156 0.0
C1635 C 0.00269 0.98242 0.85972 0.0
C1636 C 0.00941 1.00027 0.85108 0.0
C1637 C 0.98242 0.9806 0.86509 0.0
C1638 C 0.97511 0.96343 0.87696 0.0
C1639 C 0.98455 0.95825 0.89497 0.0
C1640 C 0.97727 0.94257 0.90658 0.0
C1641 C 0.96047 0.93199 0.9004 0.0
C1642 C 0.95093 0.93709 0.88259 0.0
C1643 C 0.95815 0.95276 0.87092 0.0
H1644 H 0.95481 0.9199 0.90945 0.0
H1645 H 0.02229 0.08577 0.81768 0.0
H1646 H 0.05336 0.55037 0.31622 0.0
H1647 H 0.02682 0.52561 0.31701 0.0
H1648 H 0.04109 0.5119 0.37825 0.0
H1649 H 0.06774 0.53677 0.37758 0.0
H1650 H 0.03548 0.47869 0.3579 0.0
H1651 H 0.99071 0.53366 0.37115 0.0
H1652 H 0.97817 0.5681 0.36765 0.0
H1653 H 0.97415 0.56019 0.3041 0.0
H1654 H 0.98578 0.52539 0.30739 0.0
H1655 H 0.95234 0.41328 0.35921 0.0
H1656 H 0.97453 0.44081 0.36751 0.0
H1657 H 0.96604 0.46526 0.30852 0.0
H1658 H 0.94238 0.43847 0.30086 0.0
H1659 H 0.96746 0.49427 0.33373 0.0
H1660 H 0.00971 0.43363 0.32648 0.0
H1661 H 0.0191 0.39955 0.33668 0.0
H1662 H 0.02747 0.41968 0.39704 0.0
H1663 H 0.018 0.45382 0.38721 0.0
C1664 C 0.05085 0.54213 0.32989 0.0
C1665 C 0.06274 0.54554 0.34681 0.0
C1666 C 0.03552 0.52809 0.33039 0.0
C1667 C 0.03162 0.51718 0.34784 0.0
C1668 C 0.04372 0.52022 0.36465 0.0
C1669 C 0.0591 0.53428 0.36417 0.0
C1670 C 0.01565 0.50184 0.34793 0.0
C1671 C 0.02053 0.48213 0.35286 0.0
C1672 C 0.99606 0.50626 0.34172 0.0
C1673 C 0.98915 0.52706 0.3395 0.0
C1674 C 0.98705 0.53928 0.35646 0.0
C1675 C 0.97992 0.55876 0.35454 0.0
C1676 C 0.97525 0.56629 0.33567 0.0
C1677 C 0.97767 0.55431 0.31871 0.0
C1678 C 0.98426 0.53463 0.32061 0.0
C1679 C 0.95537 0.42445 0.34796 0.0
C1680 C 0.94609 0.4235 0.32919 0.0
C1681 C 0.96812 0.44019 0.35269 0.0
C1682 C 0.97265 0.45484 0.33842 0.0
C1683 C 0.96303 0.45408 0.31976 0.0
C1684 C 0.94965 0.43869 0.31529 0.0
C1685 C 0.98753 0.4708 0.34269 0.0
C1686 C 0.98239 0.49073 0.33875 0.0
C1687 C 0.00673 0.4666 0.35051 0.0
C1688 C 0.01305 0.44621 0.35613 0.0
C1689 C 0.01357 0.43076 0.34191 0.0
C1690 C 0.01888 0.41144 0.34763 0.0
C1691 C 0.02385 0.40745 0.3675 0.0
C1692 C 0.02362 0.42278 0.38167 0.0
C1693 C 0.01832 0.44212 0.37602 0.0
H1694 H 0.02789 0.39247 0.37191 0.0
H1695 H 0.9699 0.58143 0.33418 0.0
H1696 H 0.44605 0.54137 0.82208 0.0
H1697 H 0.47092 0.51536 0.82662 0.0
H1698 H 0.48979 0.5428 0.88163 0.0
H1699 H 0.46382 0.56807 0.87827 0.0
H1700 H 0.51778 0.53653 0.84199 0.0
H1701 H 0.47833 0.5071 0.89344 0.0
H1702 H 0.44905 0.49219 0.90978 0.0
H1703 H 0.4488 0.44487 0.86647 0.0
H1704 H 0.47771 0.45983 0.84945 0.0
H1705 H 0.5985 0.46943 0.85266 0.0
H1706 H 0.57048 0.49122 0.86084 0.0
H1707 H 0.53135 0.45376 0.82622 0.0
H1708 H 0.55923 0.43164 0.81825 0.0
H1709 H 0.51382 0.46525 0.86107 0.0
H1710 H 0.54884 0.49694 0.80686 0.0
H1711 H 0.5782 0.51089 0.78972 0.0
H1712 H 0.5861 0.55304 0.83746 0.0
H1713 H 0.55689 0.53917 0.85499 0.0
C1714 C 0.45493 0.54163 0.83555 0.0
C1715 C 0.45285 0.5571 0.8497 0.0
C1716 C 0.46918 0.52668 0.83808 0.0
C1717 C 0.48192 0.52703 0.85459 0.0
C1718 C 0.47984 0.54215 0.86893 0.0
C1719 C 0.46522 0.55684 0.86671 0.0
C1720 C 0.49938 0.51365 0.85482 0.0
C1721 C 0.51707 0.52104 0.84658 0.0
C1722 C 0.49811 0.49335 0.86032 0.0
C1723 C 0.48002 0.48487 0.86989 0.0
C1724 C 0.47177 0.4938 0.88708 0.0
C1725 C 0.45529 0.48526 0.89654 0.0
C1726 C 0.447 0.46766 0.8891 0.0
C1727 C 0.45516 0.45858 0.87215 0.0
C1728 C 0.47158 0.46711 0.86256 0.0
C1729 C 0.58397 0.46588 0.84665 0.0
C1730 C 0.58118 0.44897 0.83451 0.0
C1731 C 0.56795 0.47832 0.85142 0.0
C1732 C 0.54885 0.47421 0.84401 0.0
C1733 C 0.54596 0.45721 0.8321 0.0
C1734 C 0.56197 0.44473 0.82735 0.0
C1735 C 0.53209 0.4881 0.84794 0.0
C1736 C 0.51457 0.48081 0.85678 0.0
C1737 C 0.53332 0.5085 0.84282 0.0
C1738 C 0.55084 0.51689 0.83232 0.0
C1739 C 0.55694 0.50909 0.81377 0.0
C1740 C 0.57353 0.517 0.80397 0.0
C1741 C 0.58404 0.53281 0.81252 0.0
C1742 C 0.57796 0.54078 0.83087 0.0
C1743 C 0.56138 0.53291 0.84073 0.0
H1744 H 0.59688 0.53891 0.80491 0.0
H1745 H 0.43434 0.46099 0.89654 0.0
H1746 H 0.08791 0.97714 0.16525 0.0
H1747 H 0.06404 0.00473 0.1626 0.0
H1748 H 0.02259 0.96582 0.1326 0.0
H1749 H 0.0466 0.93854 0.13465 0.0
H1750 H 0.01723 1.00201 0.11935 0.0
H1751 H 0.02028 0.97138 0.1826 0.0
H1752 H 0.03632 0.9581 0.21286 0.0
H1753 H 0.05579 0.01697 0.22884 0.0
H1754 H 0.04011 0.03056 0.19844 0.0
H1755 H 0.92793 0.04991 0.14751 0.0
H1756 H 0.95451 0.02513 0.14613 0.0
H1757 H 0.99554 0.06783 0.17109 0.0
H1758 H 0.96867 0.09265 0.1731 0.0
H1759 H 1.00123 0.03018 0.18619 0.0
H1760 H 0.99287 0.05874 0.11916 0.0
H1761 H 0.97168 0.06717 0.09031 0.0
H1762 H 0.95572 0.00556 0.08354 0.0
H1763 H 0.97668 0.9968 0.11244 0.0
C1764 C 0.07403 0.97474 0.1574 0.0
C1765 C 0.069 0.95566 0.1504 0.0
C1766 C 0.06029 0.99042 0.15608 0.0
C1767 C 0.04125 0.98721 0.14792 0.0
C1768 C 0.03705 0.96868 0.13913 0.0
C1769 C 0.05079 0.95308 0.14034 0.0
C1770 C 0.02504 1.0022 0.15056 0.0
C1771 C 0.01377 0.00815 0.13396 0.0
C1772 C 0.02007 0.00992 0.16968 0.0
C1773 C 0.02924 1.00195 0.18815 0.0
C1774 C 0.0281 0.98148 0.19251 0.0
C1775 C 0.03711 0.97389 0.20968 0.0
C1776 C 0.04712 0.98668 0.22274 0.0
C1777 C 0.04806 0.00709 0.21868 0.0
C1778 C 0.03911 0.01474 0.20148 0.0
C1779 C 0.94257 0.05399 0.15291 0.0
C1780 C 0.94629 0.07331 0.16022 0.0
C1781 C 0.95778 0.03982 0.152 0.0
C1782 C 0.97718 0.04477 0.15796 0.0
C1783 C 0.98073 0.06373 0.16623 0.0
C1784 C 0.96538 0.07789 0.1674 0.0
C1785 C 0.99383 0.0304 0.15492 0.0
C1786 C 0.005 0.02436 0.17151 0.0
C1787 C 0.99812 0.02197 0.13592 0.0
C1788 C 0.98634 0.02714 0.11795 0.0
C1789 C 0.98488 0.047 0.11147 0.0
C1790 C 0.97288 0.05184 0.09514 0.0
C1791 C 0.96236 0.03691 0.0851 0.0
C1792 C 0.9639 0.0171 0.0913 0.0
C1793 C 0.97588 0.01218 0.10762 0.0
H1794 H 0.95302 0.0407 0.07251 0.0
H1795 H 0.0541 0.98078 0.23603 0.0
H1796 H 0.93324 0.44733 0.70052 0.0
H1797 H 0.96187 0.46858 0.69245 0.0
H1798 H 0.94446 0.4691 0.6305 0.0
H1799 H 0.9155 0.44848 0.6385 0.0
H1800 H 0.99223 0.46497 0.646 0.0
H1801 H 0.93186 0.50561 0.63945 0.0
H1802 H 0.89818 0.51553 0.65041 0.0
H1803 H 0.92087 0.53056 0.70847 0.0
H1804 H 0.95466 0.52038 0.69787 0.0
H1805 H 0.04527 0.55667 0.62242 0.0
H1806 H 0.01926 0.53083 0.62156 0.0
H1807 H 0.01453 0.53373 0.68583 0.0
H1808 H 0.04065 0.55918 0.6867 0.0
H1809 H 0.97753 0.53534 0.66421 0.0
H1810 H 0.0404 0.49921 0.66609 0.0
H1811 H 0.07336 0.49129 0.65189 0.0
H1812 H 0.04575 0.4681 0.59895 0.0
H1813 H 0.0126 0.47648 0.61255 0.0
C1814 C 0.9356 0.45193 0.68519 0.0
C1815 C 0.92195 0.44675 0.67023 0.0
C1816 C 0.95202 0.4638 0.68057 0.0
C1817 C 0.95521 0.47017 0.66088 0.0
C1818 C 0.94223 0.46413 0.64573 0.0
C1819 C 0.92557 0.45267 0.65041 0.0
C1820 C 0.97013 0.48567 0.65689 0.0
C1821 C 0.98905 0.48041 0.64967 0.0
C1822 C 0.96579 0.50571 0.66158 0.0
C1823 C 0.94565 0.51203 0.66797 0.0
C1824 C 0.9296 0.51085 0.65461 0.0
C1825 C 0.91052 0.51655 0.66073 0.0
C1826 C 0.90737 0.52361 0.68015 0.0
C1827 C 0.92332 0.52504 0.69345 0.0
C1828 C 0.94244 0.51931 0.6874 0.0
C1829 C 0.03842 0.55186 0.63626 0.0
C1830 C 0.04462 0.55983 0.65463 0.0
C1831 C 0.02377 0.53712 0.63577 0.0
C1832 C 0.01516 0.53044 0.65364 0.0
C1833 C 0.02108 0.53877 0.67192 0.0
C1834 C 0.03588 0.55324 0.67243 0.0
C1835 C 0.99987 0.51477 0.65361 0.0
C1836 C 0.98078 0.51998 0.6602 0.0
C1837 C 0.00409 0.49485 0.64787 0.0
C1838 C 0.02399 0.48883 0.6402 0.0
C1839 C 0.04134 0.49265 0.65131 0.0
C1840 C 0.06007 0.48813 0.64335 0.0
C1841 C 0.06166 0.47941 0.62443 0.0
C1842 C 0.0445 0.47502 0.61353 0.0
C1843 C 0.02573 0.47967 0.62136 0.0
H1844 H 0.07617 0.47585 0.61832 0.0
H1845 H 0.89259 0.52802 0.68488 0.0
H1846 H 0.47848 0.93339 0.63046 0.0
H1847 H 0.50604 0.95745 0.62901 0.0
H1848 H 0.48343 0.9867 0.68185 0.0
H1849 H 0.45688 0.96235 0.6842 0.0
H1850 H 0.49397 0.01289 0.64845 0.0
H1851 H 0.51839 0.9593 0.69042 0.0
H1852 H 0.52487 0.92364 0.69642 0.0
H1853 H 0.56389 0.92171 0.64552 0.0
H1854 H 0.55736 0.95737 0.63905 0.0
H1855 H 0.56776 0.07176 0.694 0.0
H1856 H 0.54147 0.04819 0.68547 0.0
H1857 H 0.5814 0.01779 0.64494 0.0
H1858 H 0.60797 0.04096 0.65386 0.0
H1859 H 0.56251 0.99167 0.66598 0.0
H1860 H 0.53892 0.04704 0.62532 0.0
H1861 H 0.52804 0.08122 0.61735 0.0
H1862 H 0.48627 0.07986 0.66598 0.0
H1863 H 0.49633 0.04532 0.6737 0.0
C1864 C 0.47956 0.94479 0.64188 0.0
C1865 C 0.46536 0.94605 0.65733 0.0
C1866 C 0.49512 0.95862 0.64089 0.0
C1867 C 0.49646 0.97392 0.65518 0.0
C1868 C 0.48237 0.97518 0.67051 0.0
C1869 C 0.46719 0.96124 0.67177 0.0
C1870 C 0.51314 0.98813 0.65518 0.0
C1871 C 0.50901 0.00834 0.6522 0.0
C1872 C 0.53265 0.98202 0.65986 0.0
C1873 C 0.5373 0.9609 0.66417 0.0
C1874 C 0.52831 0.95124 0.68048 0.0
C1875 C 0.53197 0.93104 0.68396 0.0
C1876 C 0.54476 0.9204 0.67134 0.0
C1877 C 0.55398 0.92998 0.65527 0.0
C1878 C 0.55032 0.95018 0.6517 0.0
C1879 C 0.57101 0.05998 0.68338 0.0
C1880 C 0.59003 0.05814 0.67476 0.0
C1881 C 0.55585 0.04668 0.67826 0.0
C1882 C 0.55931 0.03144 0.66422 0.0
C1883 C 0.57834 0.02949 0.65572 0.0
C1884 C 0.59355 0.04269 0.66093 0.0
C1885 C 0.54347 0.01679 0.65942 0.0
C1886 C 0.54768 0.99637 0.66168 0.0
C1887 C 0.52393 0.02276 0.65418 0.0
C1888 C 0.51859 0.04378 0.65025 0.0
C1889 C 0.52757 0.05413 0.63443 0.0
C1890 C 0.52147 0.07352 0.62991 0.0
C1891 C 0.50673 0.08283 0.6414 0.0
C1892 C 0.49779 0.07266 0.65721 0.0
C1893 C 0.50356 0.05314 0.66155 0.0
H1894 H 0.50206 0.09783 0.638 0.0
H1895 H 0.54755 0.90475 0.67403 0.0
H1896 H 0.1874 0.31701 0.64606 0.0
H1897 H 0.21411 0.29255 0.6493 0.0
H1898 H 0.20666 0.27614 0.58733 0.0
H1899 H 0.17823 0.29849 0.58503 0.0
H1900 H 0.21534 0.24535 0.60284 0.0
H1901 H 0.2477 0.30992 0.61291 0.0
H1902 H 0.25306 0.34208 0.63009 0.0
H1903 H 0.26393 0.31143 0.68523 0.0
H1904 H 0.25844 0.27912 0.66843 0.0
H1905 H 0.31559 0.20801 0.5864 0.0
H1906 H 0.28687 0.23081 0.58754 0.0
H1907 H 0.27901 0.21831 0.65014 0.0
H1908 H 0.30719 0.19499 0.64894 0.0
H1909 H 0.27855 0.26233 0.63687 0.0
H1910 H 0.24773 0.19858 0.62676 0.0
H1911 H 0.24266 0.16614 0.61017 0.0
H1912 H 0.22947 0.19584 0.55501 0.0
H1913 H 0.23481 0.22849 0.57122 0.0
C1914 C 0.19105 0.30775 0.6333 0.0
C1915 C 0.18013 0.30947 0.61545 0.0
C1916 C 0.20687 0.29403 0.63498 0.0
C1917 C 0.21321 0.28251 0.61842 0.0
C1918 C 0.20236 0.28451 0.60052 0.0
C1919 C 0.18599 0.29749 0.59915 0.0
C1920 C 0.23074 0.26822 0.61949 0.0
C1921 C 0.2292 0.24946 0.61001 0.0
C1922 C 0.24894 0.27271 0.62947 0.0
C1923 C 0.25248 0.29213 0.63945 0.0
C1924 C 0.25117 0.31006 0.62871 0.0
C1925 C 0.25422 0.32831 0.63838 0.0
C1926 C 0.25877 0.3288 0.65875 0.0
C1927 C 0.26037 0.31104 0.66947 0.0
C1928 C 0.25731 0.29276 0.65987 0.0
C1929 C 0.30771 0.21005 0.60039 0.0
C1930 C 0.31366 0.19948 0.61753 0.0
C1931 C 0.29128 0.22312 0.60103 0.0
C1932 C 0.28071 0.22638 0.61894 0.0
C1933 C 0.28686 0.21613 0.63615 0.0
C1934 C 0.30292 0.20266 0.63539 0.0
C1935 C 0.2631 0.24021 0.61961 0.0
C1936 C 0.26465 0.25862 0.62953 0.0
C1937 C 0.24499 0.23554 0.60997 0.0
C1938 C 0.24195 0.21596 0.60013 0.0
C1939 C 0.24401 0.19819 0.61103 0.0
C1940 C 0.24102 0.17976 0.60171 0.0
C1941 C 0.23582 0.17892 0.58153 0.0
C1942 C 0.23355 0.19651 0.57063 0.0
C1943 C 0.23655 0.21498 0.57988 0.0
H1944 H 0.23348 0.16464 0.57435 0.0
H1945 H 0.2611 0.34294 0.66621 0.0
H1946 H 0.67783 0.70932 0.12998 0.0
H1947 H 0.70051 0.7379 0.12953 0.0
H1948 H 0.74724 0.70049 0.10602 0.0
H1949 H 0.72447 0.67187 0.10583 0.0
H1950 H 0.75259 0.72992 0.14548 0.0
H1951 H 0.73525 0.72448 0.0741 0.0
H1952 H 0.71033 0.72252 0.04717 0.0
H1953 H 0.68462 0.77788 0.06678 0.0
H1954 H 0.70921 0.77998 0.09405 0.0
H1955 H 0.82948 0.79765 0.12441 0.0
H1956 H 0.80554 0.77055 0.12576 0.0
H1957 H 0.75842 0.81148 0.11023 0.0
H1958 H 0.78287 0.83857 0.1077 0.0
H1959 H 0.75126 0.78061 0.09169 0.0
H1960 H 0.76621 0.78953 0.16034 0.0
H1961 H 0.78545 0.79272 0.19153 0.0
H1962 H 0.81019 0.7344 0.18251 0.0
H1963 H 0.79116 0.73079 0.15123 0.0
C1964 C 0.69291 0.70715 0.12464 0.0
C1965 C 0.69932 0.68831 0.11786 0.0
C1966 C 0.70583 0.72352 0.12439 0.0
C1967 C 0.72552 0.7213 0.11772 0.0
C1968 C 0.73208 0.7025 0.11118 0.0
C1969 C 0.71903 0.6862 0.11101 0.0
C1970 C 0.73926 0.73863 0.11772 0.0
C1971 C 0.7526 0.74091 0.13361 0.0
C1972 C 0.73845 0.75342 0.10278 0.0
C1973 C 0.72391 0.75227 0.08622 0.0
C1974 C 0.72416 0.73613 0.07279 0.0
C1975 C 0.71012 0.73501 0.05744 0.0
C1976 C 0.69586 0.75004 0.0553 0.0
C1977 C 0.69565 0.76624 0.06847 0.0
C1978 C 0.70964 0.76741 0.08386 0.0
C1979 C 0.81397 0.80096 0.12149 0.0
C1980 C 0.80802 0.82032 0.11617 0.0
C1981 C 0.80019 0.78539 0.1224 0.0
C1982 C 0.77989 0.78884 0.11864 0.0
C1983 C 0.77392 0.80827 0.11329 0.0
C1984 C 0.78787 0.82381 0.11189 0.0
C1985 C 0.76523 0.772 0.1194 0.0
C1986 C 0.75152 0.76977 0.10367 0.0
C1987 C 0.76527 0.75757 0.13493 0.0
C1988 C 0.77737 0.75997 0.15332 0.0
C1989 C 0.77592 0.77746 0.16488 0.0
C1990 C 0.78674 0.77933 0.18261 0.0
C1991 C 0.79904 0.76381 0.18896 0.0
C1992 C 0.80064 0.7464 0.17757 0.0
C1993 C 0.78981 0.74442 0.15986 0.0
H1994 H 0.80731 0.76526 0.20275 0.0
H1995 H 0.685 0.74915 0.04341 0.0
H1996 H 0.31584 0.3012 0.92479 0.0
H1997 H 0.28858 0.27707 0.92423 0.0
H1998 H 0.28212 0.28583 0.86068 0.0
H1999 H 0.30841 0.3109 0.86154 0.0
H2000 H 0.2482 0.28101 0.87258 0.0
H2001 H 0.30528 0.24245 0.88355 0.0
H2002 H 0.33692 0.23118 0.89832 0.0
H2003 H 0.30743 0.22058 0.95427 0.0
H2004 H 0.27564 0.23206 0.93991 0.0
H2005 H 0.19502 0.18686 0.863 0.0
H2006 H 0.22261 0.21082 0.86195 0.0
H2007 H 0.21067 0.22731 0.9231 0.0
H2008 H 0.18281 0.20364 0.9241 0.0
H2009 H 0.25408 0.2178 0.91036 0.0
H2010 H 0.19479 0.25709 0.89157 0.0
H2011 H 0.16592 0.26254 0.86952 0.0
H2012 H 0.20471 0.26499 0.81851 0.0
H2013 H 0.23378 0.25926 0.84023 0.0
C2014 C 0.30852 0.29804 0.91073 0.0
C2015 C 0.3143 0.30803 0.89324 0.0
C2016 C 0.29299 0.28405 0.91035 0.0
C2017 C 0.28334 0.27909 0.89231 0.0
C2018 C 0.28909 0.28923 0.87485 0.0
C2019 C 0.30423 0.30361 0.87535 0.0
C2020 C 0.26727 0.26347 0.89166 0.0
C2021 C 0.24974 0.26716 0.88073 0.0
C2022 C 0.26902 0.24501 0.90186 0.0
C2023 C 0.28812 0.23834 0.91072 0.0
C2024 C 0.30558 0.2379 0.89906 0.0
C2025 C 0.32353 0.23144 0.90735 0.0
C2026 C 0.32419 0.22523 0.92724 0.0
C2027 C 0.3069 0.22544 0.93888 0.0
C2028 C 0.2889 0.23191 0.93067 0.0
C2029 C 0.1985 0.19532 0.87632 0.0
C2030 C 0.18695 0.1931 0.89375 0.0
C2031 C 0.21415 0.20915 0.87564 0.0
C2032 C 0.21874 0.22083 0.89246 0.0
C2033 C 0.20743 0.21842 0.90997 0.0
C2034 C 0.19152 0.2049 0.91052 0.0
C2035 C 0.23518 0.23574 0.89182 0.0
C2036 C 0.25275 0.23179 0.90238 0.0
C2037 C 0.23391 0.25338 0.88036 0.0
C2038 C 0.21644 0.25756 0.86751 0.0
C2039 C 0.19715 0.25867 0.87565 0.0
C2040 C 0.18076 0.26183 0.8632 0.0
C2041 C 0.18348 0.26402 0.84262 0.0
C2042 C 0.20262 0.26325 0.83445 0.0
C2043 C 0.21906 0.26008 0.84682 0.0
H2044 H 0.17077 0.26633 0.833 0.0
H2045 H 0.33811 0.2202 0.93362 0.0
H2046 H 0.82046 0.70362 0.37035 0.0
H2047 H 0.79774 0.73196 0.37066 0.0
H2048 H 0.76265 0.70372 0.41655 0.0
H2049 H 0.78528 0.67501 0.41617 0.0
H2050 H 0.73952 0.71962 0.38688 0.0
H2051 H 0.79564 0.74254 0.42708 0.0
H2052 H 0.83129 0.74955 0.43237 0.0
H2053 H 0.83131 0.78926 0.38218 0.0
H2054 H 0.79572 0.78233 0.37646 0.0
H2055 H 0.6786 0.80113 0.41393 0.0
H2056 H 0.70172 0.77287 0.41306 0.0
H2057 H 0.74252 0.80742 0.37719 0.0
H2058 H 0.71983 0.83605 0.37927 0.0
H2059 H 0.76341 0.7882 0.40065 0.0
H2060 H 0.71098 0.76712 0.35803 0.0
H2061 H 0.67678 0.75946 0.34707 0.0
H2062 H 0.67085 0.71666 0.39421 0.0
H2063 H 0.70497 0.72407 0.40553 0.0
C2064 C 0.80798 0.70339 0.38062 0.0
C2065 C 0.80484 0.68702 0.39338 0.0
C2066 C 0.79501 0.7197 0.3808 0.0
C2067 C 0.77863 0.72018 0.39385 0.0
C2068 C 0.77524 0.70376 0.40641 0.0
C2069 C 0.78823 0.68736 0.40622 0.0
C2070 C 0.76491 0.73768 0.39421 0.0
C2071 C 0.74465 0.7346 0.39021 0.0
C2072 C 0.77176 0.75737 0.39752 0.0
C2073 C 0.79305 0.76181 0.40128 0.0
C2074 C 0.80327 0.75271 0.41713 0.0
C2075 C 0.82346 0.75667 0.42021 0.0
C2076 C 0.83356 0.76981 0.4076 0.0
C2077 C 0.82347 0.77908 0.39194 0.0
C2078 C 0.80329 0.77517 0.38879 0.0
C2079 C 0.69263 0.80265 0.40606 0.0
C2080 C 0.69763 0.82071 0.39686 0.0
C2081 C 0.70575 0.78642 0.4053 0.0
C2082 C 0.72383 0.78768 0.39468 0.0
C2083 C 0.72876 0.80591 0.38552 0.0
C2084 C 0.71583 0.82229 0.3867 0.0
C2085 C 0.73776 0.77024 0.39355 0.0
C2086 C 0.75811 0.77329 0.39735 0.0
C2087 C 0.73111 0.75059 0.38933 0.0
C2088 C 0.71046 0.74633 0.38277 0.0
C2089 C 0.70232 0.7562 0.36617 0.0
C2090 C 0.68297 0.75188 0.35986 0.0
C2091 C 0.67163 0.73769 0.37 0.0
C2092 C 0.67964 0.7277 0.3864 0.0
C2093 C 0.69899 0.73192 0.39275 0.0
H2094 H 0.65664 0.73443 0.36513 0.0
H2095 H 0.8492 0.77284 0.40999 0.0
H2096 H 0.59093 0.17993 0.28667 0.0
H2097 H 0.59336 0.20774 0.26335 0.0
H2098 H 0.63556 0.23668 0.30222 0.0
H2099 H 0.63249 0.20936 0.3259 0.0
H2100 H 0.61295 0.26362 0.28889 0.0
H2101 H 0.64945 0.21246 0.25688 0.0
H2102 H 0.65691 0.1792 0.24298 0.0
H2103 H 0.609 0.18545 0.2011 0.0
H2104 H 0.60108 0.21867 0.21494 0.0
H2105 H 0.63786 0.33716 0.21686 0.0
H2106 H 0.64069 0.30853 0.23921 0.0
H2107 H 0.59581 0.27766 0.20505 0.0
H2108 H 0.59436 0.30574 0.1817 0.0
H2109 H 0.62243 0.25181 0.21631 0.0
H2110 H 0.58733 0.30548 0.2524 0.0
H2111 H 0.58548 0.33958 0.26626 0.0
H2112 H 0.63811 0.32878 0.30088 0.0
H2113 H 0.64035 0.29469 0.2871 0.0
C2114 C 0.60067 0.19224 0.29037 0.0
C2115 C 0.61162 0.19218 0.30831 0.0
C2116 C 0.60221 0.20813 0.27684 0.0
C2117 C 0.61497 0.22432 0.28067 0.0
C2118 C 0.62564 0.22445 0.29872 0.0
C2119 C 0.62396 0.20865 0.31232 0.0
C2120 C 0.61693 0.24122 0.26608 0.0
C2121 C 0.61525 0.26094 0.27306 0.0
C2122 C 0.62003 0.23804 0.24533 0.0
C2123 C 0.62453 0.21797 0.2371 0.0
C2124 C 0.64038 0.20666 0.24483 0.0
C2125 C 0.64472 0.18783 0.23694 0.0
C2126 C 0.6334 0.18019 0.2212 0.0
C2127 C 0.61773 0.19138 0.21331 0.0
C2128 C 0.61332 0.21022 0.22117 0.0
C2129 C 0.62925 0.32395 0.21364 0.0
C2130 C 0.61645 0.3234 0.1971 0.0
C2131 C 0.63046 0.3077 0.22677 0.0
C2132 C 0.61816 0.29089 0.22421 0.0
C2133 C 0.60551 0.29032 0.20748 0.0
C2134 C 0.60468 0.30637 0.1941 0.0
C2135 C 0.61798 0.27412 0.23908 0.0
C2136 C 0.62005 0.25441 0.23215 0.0
C2137 C 0.61586 0.27734 0.25996 0.0
C2138 C 0.61406 0.29761 0.26864 0.0
C2139 C 0.5985 0.3104 0.26296 0.0
C2140 C 0.59739 0.32973 0.27078 0.0
C2141 C 0.61168 0.33635 0.28441 0.0
C2142 C 0.62705 0.32364 0.29032 0.0
C2143 C 0.62822 0.30431 0.28255 0.0
H2144 H 0.61083 0.35133 0.2904 0.0
H2145 H 0.6368 0.16562 0.21509 0.0
H2146 H 0.67631 0.10801 0.72849 0.0
H2147 H 0.70458 0.10871 0.75169 0.0
H2148 H 0.74168 0.13389 0.70566 0.0
H2149 H 0.71344 0.13368 0.68256 0.0
H2150 H 0.75976 0.10136 0.72712 0.0
H2151 H 0.72742 0.1638 0.73949 0.0
H2152 H 0.69857 0.18535 0.74694 0.0
H2153 H 0.69025 0.15567 0.8031 0.0
H2154 H 0.7189 0.1337 0.79583 0.0
H2155 H 0.84319 0.1192 0.78926 0.0
H2156 H 0.81617 0.12375 0.76515 0.0
H2157 H 0.77314 0.11845 0.81286 0.0
H2158 H 0.80031 0.11585 0.83705 0.0
H2159 H 0.758 0.14198 0.78914 0.0
H2160 H 0.78925 0.07788 0.77574 0.0
H2161 H 0.81742 0.05566 0.76744 0.0
H2162 H 0.82714 0.08756 0.71275 0.0
H2163 H 0.79916 0.11007 0.72083 0.0
C2164 C 0.69049 0.11366 0.72327 0.0
C2165 C 0.69253 0.12079 0.7036 0.0
C2166 C 0.70665 0.11411 0.73659 0.0
C2167 C 0.72533 0.1214 0.73049 0.0
C2168 C 0.72748 0.12819 0.71077 0.0
C2169 C 0.71125 0.12811 0.69757 0.0
C2170 C 0.74257 0.12202 0.74468 0.0
C2171 C 0.75948 0.11039 0.74059 0.0
C2172 C 0.74218 0.13357 0.76242 0.0
C2173 C 0.72519 0.14697 0.76703 0.0
C2174 C 0.71935 0.16176 0.75337 0.0
C2175 C 0.70305 0.17407 0.75756 0.0
C2176 C 0.69255 0.17184 0.77546 0.0
C2177 C 0.69839 0.15735 0.78923 0.0
C2178 C 0.71467 0.14498 0.78509 0.0
C2179 C 0.82794 0.11928 0.79455 0.0
C2180 C 0.82386 0.1171 0.81501 0.0
C2181 C 0.81239 0.1216 0.78071 0.0
C2182 C 0.79226 0.12069 0.78682 0.0
C2183 C 0.78833 0.1191 0.80746 0.0
C2184 C 0.80391 0.11756 0.82136 0.0
C2185 C 0.77536 0.12094 0.7719 0.0
C2186 C 0.75842 0.13281 0.77577 0.0
C2187 C 0.77567 0.10948 0.75396 0.0
C2188 C 0.79224 0.09574 0.74897 0.0
C2189 C 0.79745 0.08017 0.76198 0.0
C2190 C 0.81337 0.06754 0.75731 0.0
C2191 C 0.82409 0.07023 0.7396 0.0
C2192 C 0.81884 0.0855 0.72647 0.0
C2193 C 0.80294 0.09818 0.73107 0.0
H2194 H 0.83644 0.06045 0.73603 0.0
H2195 H 0.67992 0.18137 0.77868 0.0
H2196 H 0.86091 0.32157 0.29634 0.0
H2197 H 0.86061 0.29404 0.27219 0.0
H2198 H 0.91407 0.27021 0.29883 0.0
H2199 H 0.91486 0.29848 0.32221 0.0
H2200 H 0.91806 0.26804 0.26136 0.0
H2201 H 0.86396 0.24941 0.3049 0.0
H2202 H 0.83222 0.254 0.32298 0.0
H2203 H 0.80187 0.26344 0.26742 0.0
H2204 H 0.83346 0.2591 0.24902 0.0
H2205 H 0.91499 0.17367 0.21255 0.0
H2206 H 0.91448 0.20055 0.23723 0.0
H2207 H 0.864 0.22695 0.20769 0.0
H2208 H 0.86406 0.1999 0.18346 0.0
H2209 H 0.85816 0.22756 0.24661 0.0
H2210 H 0.91224 0.24633 0.20334 0.0
H2211 H 0.94393 0.24158 0.18525 0.0
H2212 H 0.97423 0.23183 0.24079 0.0
H2213 H 0.94266 0.23628 0.25919 0.0
C2214 C 0.87247 0.31031 0.29704 0.0
C2215 C 0.88783 0.31192 0.31111 0.0
C2216 C 0.87224 0.29449 0.28335 0.0
C2217 C 0.88711 0.27968 0.28382 0.0
C2218 C 0.90238 0.28133 0.2981 0.0
C2219 C 0.90281 0.29738 0.31153 0.0
C2220 C 0.88728 0.26298 0.26894 0.0
C2221 C 0.90501 0.259 0.25844 0.0
C2222 C 0.87015 0.25144 0.26453 0.0
C2223 C 0.85112 0.25404 0.27559 0.0
C2224 C 0.85054 0.25257 0.29655 0.0
C2225 C 0.83257 0.25509 0.30685 0.0
C2226 C 0.81504 0.25897 0.29635 0.0
C2227 C 0.81545 0.26037 0.27553 0.0
C2228 C 0.83338 0.25786 0.26515 0.0
C2229 C 0.90384 0.18525 0.21114 0.0
C2230 C 0.8897 0.1846 0.19563 0.0
C2231 C 0.90361 0.2007 0.22531 0.0
C2232 C 0.88935 0.21602 0.22425 0.0
C2233 C 0.87521 0.21539 0.20886 0.0
C2234 C 0.87539 0.19991 0.19478 0.0
C2235 C 0.88898 0.23256 0.23926 0.0
C2236 C 0.87121 0.23656 0.24968 0.0
C2237 C 0.90607 0.24409 0.24366 0.0
C2238 C 0.92506 0.24145 0.23262 0.0
C2239 C 0.92563 0.24303 0.21167 0.0
C2240 C 0.94358 0.24042 0.20137 0.0
C2241 C 0.96107 0.23636 0.21186 0.0
C2242 C 0.96067 0.23495 0.23268 0.0
C2243 C 0.94276 0.23754 0.24306 0.0
H2244 H 0.97495 0.23434 0.20385 0.0
H2245 H 0.80114 0.26089 0.30436 0.0
H2246 H 0.71129 0.38178 0.83306 0.0
H2247 H 0.73908 0.38023 0.80914 0.0
H2248 H 0.69944 0.397 0.76154 0.0
H2249 H 0.67182 0.39934 0.78537 0.0
H2250 H 0.73687 0.35651 0.76568 0.0
H2251 H 0.71605 0.42913 0.75524 0.0
H2252 H 0.7068 0.46125 0.77079 0.0
H2253 H 0.75926 0.4591 0.80728 0.0
H2254 H 0.76852 0.42671 0.79221 0.0
H2255 H 0.79888 0.37024 0.6806 0.0
H2256 H 0.77131 0.3703 0.7045 0.0
H2257 H 0.80689 0.40414 0.74608 0.0
H2258 H 0.8342 0.40476 0.72199 0.0
H2259 H 0.77169 0.41875 0.74633 0.0
H2260 H 0.79761 0.35246 0.75118 0.0
H2261 H 0.80865 0.31965 0.73863 0.0
H2262 H 0.74986 0.30789 0.71653 0.0
H2263 H 0.73853 0.34077 0.72872 0.0
C2264 C 0.70854 0.38523 0.81751 0.0
C2265 C 0.68944 0.39096 0.81113 0.0
C2266 C 0.72439 0.38428 0.80389 0.0
C2267 C 0.7213 0.38871 0.78365 0.0
C2268 C 0.70216 0.39387 0.77716 0.0
C2269 C 0.68643 0.39523 0.7908 0.0
C2270 C 0.73813 0.38835 0.76931 0.0
C2271 C 0.7444 0.37008 0.76122 0.0
C2272 C 0.74824 0.40597 0.76401 0.0
C2273 C 0.74278 0.42544 0.77286 0.0
C2274 C 0.72546 0.43542 0.76674 0.0
C2275 C 0.72024 0.45367 0.77544 0.0
C2276 C 0.73239 0.46218 0.79007 0.0
C2277 C 0.74981 0.45246 0.796 0.0
C2278 C 0.75503 0.43415 0.78742 0.0
C2279 C 0.80083 0.37772 0.69482 0.0
C2280 C 0.81875 0.38754 0.69934 0.0
C2281 C 0.78507 0.37763 0.70856 0.0
C2282 C 0.78705 0.38699 0.72729 0.0
C2283 C 0.80493 0.39683 0.73177 0.0
C2284 C 0.82057 0.39715 0.71796 0.0
C2285 C 0.77043 0.38685 0.7421 0.0
C2286 C 0.76421 0.40506 0.75051 0.0
C2287 C 0.76057 0.36905 0.74783 0.0
C2288 C 0.76727 0.34916 0.74071 0.0
C2289 C 0.78706 0.34293 0.74354 0.0
C2290 C 0.79337 0.32431 0.73651 0.0
C2291 C 0.77998 0.31171 0.72675 0.0
C2292 C 0.76023 0.31768 0.72407 0.0
C2293 C 0.75385 0.33629 0.73106 0.0
H2294 H 0.78489 0.29731 0.7213 0.0
H2295 H 0.72835 0.47633 0.79677 0.0
H2296 H 0.29708 0.58781 0.19023 0.0
H2297 H 0.27442 0.588 0.21886 0.0
H2298 H 0.28401 0.65121 0.2263 0.0
H2299 H 0.30786 0.65057 0.19876 0.0
H2300 H 0.27994 0.63953 0.26011 0.0
H2301 H 0.2389 0.62717 0.20427 0.0
H2302 H 0.22689 0.61129 0.1733 0.0
H2303 H 0.21885 0.556 0.20444 0.0
H2304 H 0.23106 0.5715 0.23556 0.0
H2305 H 0.1831 0.64465 0.31478 0.0
H2306 H 0.20675 0.64729 0.28679 0.0
H2307 H 0.23235 0.59072 0.30287 0.0
H2308 H 0.20964 0.58843 0.33134 0.0
H2309 H 0.21684 0.6014 0.25714 0.0
H2310 H 0.26006 0.61996 0.31424 0.0
H2311 H 0.26698 0.64167 0.34321 0.0
H2312 H 0.26463 0.69324 0.30546 0.0
H2313 H 0.25734 0.67184 0.27631 0.0
C2314 C 0.29442 0.60173 0.19803 0.0
C2315 C 0.30432 0.6192 0.19205 0.0
C2316 C 0.2812 0.60191 0.21437 0.0
C2317 C 0.27677 0.61976 0.22473 0.0
C2318 C 0.2869 0.63716 0.21882 0.0
C2319 C 0.3006 0.63682 0.2029 0.0
C2320 C 0.26181 0.62027 0.24169 0.0
C2321 C 0.2661 0.63129 0.25916 0.0
C2322 C 0.24335 0.60991 0.24088 0.0
C2323 C 0.2361 0.60045 0.2222 0.0
C2324 C 0.23471 0.61159 0.20448 0.0
C2325 C 0.22785 0.60266 0.18691 0.0
C2326 C 0.22216 0.58263 0.18689 0.0
C2327 C 0.22329 0.57151 0.20447 0.0
C2328 C 0.23017 0.58036 0.22209 0.0
C2329 C 0.19404 0.63299 0.31266 0.0
C2330 C 0.19458 0.61651 0.32568 0.0
C2331 C 0.20746 0.63443 0.29651 0.0
C2332 C 0.22139 0.61921 0.2927 0.0
C2333 C 0.22181 0.60268 0.30549 0.0
C2334 C 0.20877 0.60145 0.32186 0.0
C2335 C 0.23536 0.62018 0.27527 0.0
C2336 C 0.23076 0.60954 0.2578 0.0
C2337 C 0.25303 0.6316 0.27572 0.0
C2338 C 0.25795 0.64432 0.29316 0.0
C2339 C 0.26084 0.63594 0.31215 0.0
C2340 C 0.26487 0.64819 0.3286 0.0
C2341 C 0.26622 0.66882 0.32618 0.0
C2342 C 0.26359 0.67726 0.3073 0.0
C2343 C 0.25952 0.66507 0.29082 0.0
H2344 H 0.26932 0.67828 0.33893 0.0
H2345 H 0.21684 0.57575 0.17327 0.0
H2346 H 0.20874 0.92393 0.18894 0.0
H2347 H 0.23237 0.92292 0.21679 0.0
H2348 H 0.22614 0.85896 0.21966 0.0
H2349 H 0.20228 0.86013 0.19222 0.0
H2350 H 0.22794 0.87079 0.25531 0.0
H2351 H 0.26858 0.88306 0.19933 0.0
H2352 H 0.28029 0.89899 0.16833 0.0
H2353 H 0.28923 0.95405 0.19993 0.0
H2354 H 0.2773 0.9385 0.23111 0.0
H2355 H 0.31986 0.85927 0.31182 0.0
H2356 H 0.29679 0.85893 0.28336 0.0
H2357 H 0.28142 0.92022 0.2952 0.0
H2358 H 0.30396 0.92052 0.32394 0.0
H2359 H 0.29155 0.90812 0.25212 0.0
H2360 H 0.25041 0.88999 0.30978 0.0
H2361 H 0.24274 0.86867 0.33874 0.0
H2362 H 0.23949 0.81743 0.30031 0.0
H2363 H 0.24752 0.83839 0.27115 0.0
C2364 C 0.21246 0.90967 0.19552 0.0
C2365 C 0.20338 0.89213 0.18856 0.0
C2366 C 0.22606 0.90906 0.21144 0.0
C2367 C 0.23135 0.89081 0.22042 0.0
C2368 C 0.22231 0.87329 0.2133 0.0
C2369 C 0.20852 0.87396 0.19762 0.0
C2370 C 0.24629 0.88996 0.23712 0.0
C2371 C 0.24191 0.87883 0.25441 0.0
C2372 C 0.26476 0.90017 0.23619 0.0
C2373 C 0.27183 0.90968 0.2175 0.0
C2374 C 0.27288 0.89862 0.19964 0.0
C2375 C 0.27959 0.90757 0.18204 0.0
C2376 C 0.28544 0.92754 0.18214 0.0
C2377 C 0.28465 0.93859 0.19987 0.0
C2378 C 0.27793 0.92971 0.21751 0.0
C2379 C 0.31171 0.87273 0.30825 0.0
C2380 C 0.31385 0.88996 0.32014 0.0
C2381 C 0.29845 0.87248 0.29204 0.0
C2382 C 0.28733 0.88954 0.28715 0.0
C2383 C 0.28983 0.90689 0.29867 0.0
C2384 C 0.30273 0.90702 0.31512 0.0
C2385 C 0.27293 0.88935 0.27019 0.0
C2386 C 0.2775 0.9002 0.25289 0.0
C2387 C 0.25506 0.87821 0.2708 0.0
C2388 C 0.24981 0.86573 0.28831 0.0
C2389 C 0.24825 0.87415 0.30752 0.0
C2390 C 0.2438 0.86213 0.32397 0.0
C2391 C 0.2407 0.8417 0.32138 0.0
C2392 C 0.24194 0.83325 0.30231 0.0
C2393 C 0.24643 0.8452 0.28581 0.0
H2394 H 0.23729 0.83241 0.33414 0.0
H2395 H 0.29065 0.93444 0.1685 0.0
H2396 H 0.08554 0.70563 0.67375 0.0
H2397 H 0.08733 0.72909 0.70155 0.0
H2398 H 0.14588 0.70729 0.71624 0.0
H2399 H 0.14397 0.6835 0.68845 0.0
H2400 H 0.12726 0.71294 0.74956 0.0
H2401 H 0.13856 0.75366 0.69406 0.0
H2402 H 0.13424 0.76863 0.66077 0.0
H2403 H 0.07769 0.79268 0.67881 0.0
H2404 H 0.08154 0.7776 0.71216 0.0
H2405 H 0.1421 0.81231 0.80125 0.0
H2406 H 0.14402 0.78833 0.77355 0.0
H2407 H 0.08543 0.76682 0.78822 0.0
H2408 H 0.0836 0.79035 0.81636 0.0
H2409 H 0.10776 0.7837 0.74048 0.0
H2410 H 0.10046 0.73426 0.79783 0.0
H2411 H 0.11297 0.72309 0.83058 0.0
H2412 H 0.17234 0.71976 0.80683 0.0
H2413 H 0.16018 0.73134 0.77406 0.0
C2414 C 0.0989 0.70582 0.68276 0.0
C2415 C 0.1146 0.69242 0.67876 0.0
C2416 C 0.09993 0.71938 0.69874 0.0
C2417 C 0.11683 0.72029 0.7111 0.0
C2418 C 0.13259 0.70697 0.70712 0.0
C2419 C 0.1315 0.69328 0.69115 0.0
C2420 C 0.11777 0.73499 0.72815 0.0
C2421 C 0.12297 0.72838 0.74742 0.0
C2422 C 0.11285 0.75544 0.72566 0.0
C2423 C 0.11024 0.76429 0.70554 0.0
C2424 C 0.1251 0.76196 0.69087 0.0
C2425 C 0.12276 0.77051 0.672 0.0
C2426 C 0.10567 0.78155 0.66766 0.0
C2427 C 0.0909 0.78409 0.68219 0.0
C2428 C 0.09316 0.77555 0.70108 0.0
C2429 C 0.1296 0.80247 0.79863 0.0
C2430 C 0.11267 0.80331 0.81109 0.0
C2431 C 0.13077 0.78871 0.78279 0.0
C2432 C 0.11499 0.77557 0.77891 0.0
C2433 C 0.09795 0.77656 0.79111 0.0
C2434 C 0.09689 0.79009 0.80717 0.0
C2435 C 0.11606 0.76128 0.76174 0.0
C2436 C 0.11164 0.76813 0.74248 0.0
C2437 C 0.12238 0.7413 0.7641 0.0
C2438 C 0.12946 0.7339 0.78363 0.0
C2439 C 0.1162 0.73136 0.79967 0.0
C2440 C 0.12322 0.72491 0.81822 0.0
C2441 C 0.14345 0.72079 0.82081 0.0
C2442 C 0.15668 0.72302 0.80483 0.0
C2443 C 0.14974 0.72952 0.78628 0.0
H2444 H 0.14886 0.71581 0.83518 0.0
H2445 H 0.1039 0.78818 0.65305 0.0
H2446 H 0.36076 0.69485 0.81933 0.0
H2447 H 0.35809 0.71924 0.79252 0.0
H2448 H 0.42212 0.72504 0.79191 0.0
H2449 H 0.42427 0.70322 0.82073 0.0
H2450 H 0.4115 0.75764 0.78475 0.0
H2451 H 0.38444 0.6965 0.75496 0.0
H2452 H 0.36052 0.66872 0.75213 0.0
H2453 H 0.31225 0.71046 0.7474 0.0
H2454 H 0.33583 0.73845 0.75052 0.0
H2455 H 0.42565 0.79727 0.68787 0.0
H2456 H 0.42252 0.77382 0.71558 0.0
H2457 H 0.36069 0.78963 0.72238 0.0
H2458 H 0.36379 0.81325 0.69459 0.0
H2459 H 0.3669 0.74846 0.72662 0.0
H2460 H 0.39354 0.8086 0.7543 0.0
H2461 H 0.41679 0.83692 0.75649 0.0
H2462 H 0.46572 0.79644 0.7642 0.0
H2463 H 0.44278 0.76785 0.7618 0.0
C2464 C 0.37417 0.70182 0.8139 0.0
C2465 C 0.39261 0.69743 0.82282 0.0
C2466 C 0.37274 0.71546 0.79796 0.0
C2467 C 0.38992 0.72407 0.78935 0.0
C2468 C 0.40842 0.71912 0.79801 0.0
C2469 C 0.4097 0.7064 0.81461 0.0
C2470 C 0.38904 0.73854 0.77188 0.0
C2471 C 0.40197 0.75512 0.77195 0.0
C2472 C 0.37598 0.73644 0.7552 0.0
C2473 C 0.36189 0.71955 0.75322 0.0
C2474 C 0.36872 0.69973 0.75343 0.0
C2475 C 0.35521 0.68396 0.75178 0.0
C2476 C 0.33488 0.68782 0.74968 0.0
C2477 C 0.328 0.70748 0.74911 0.0
C2478 C 0.34142 0.72329 0.75083 0.0
C2479 C 0.4113 0.79575 0.69512 0.0
C2480 C 0.39501 0.80748 0.68899 0.0
C2481 C 0.40955 0.7823 0.7111 0.0
C2482 C 0.39142 0.77998 0.72141 0.0
C2483 C 0.3749 0.79111 0.71486 0.0
C2484 C 0.37672 0.80477 0.69898 0.0
C2485 C 0.39005 0.7665 0.73935 0.0
C2486 C 0.37657 0.75048 0.73942 0.0
C2487 C 0.40266 0.76893 0.7561 0.0
C2488 C 0.41646 0.78609 0.7577 0.0
C2489 C 0.40928 0.80574 0.75633 0.0
C2490 C 0.4224 0.82184 0.75763 0.0
C2491 C 0.44273 0.81848 0.76044 0.0
C2492 C 0.44997 0.79902 0.76201 0.0
C2493 C 0.43692 0.78286 0.7607 0.0
H2494 H 0.45286 0.83097 0.76144 0.0
H2495 H 0.32445 0.67559 0.74842 0.0
H2496 H 0.13366 0.586 0.64857 0.0
H2497 H 0.16051 0.56161 0.65032 0.0
H2498 H 0.12773 0.52889 0.69497 0.0
H2499 H 0.10268 0.55485 0.69569 0.0
H2500 H 0.16084 0.514 0.69575 0.0
H2501 H 0.11694 0.52701 0.63954 0.0
H2502 H 0.10264 0.5477 0.61271 0.0
H2503 H 0.16076 0.55519 0.58696 0.0
H2504 H 0.17538 0.53459 0.6137 0.0
H2505 H 0.13775 0.42727 0.63479 0.0
H2506 H 0.1413 0.45467 0.65871 0.0
H2507 H 0.19898 0.46842 0.63409 0.0
H2508 H 0.19566 0.44079 0.6105 0.0
H2509 H 0.16295 0.4939 0.62442 0.0
H2510 H 0.20059 0.46681 0.67865 0.0
H2511 H 0.20721 0.44141 0.70432 0.0
H2512 H 0.15166 0.45526 0.73304 0.0
H2513 H 0.14453 0.48056 0.70735 0.0
C2514 C 0.13271 0.57433 0.65967 0.0
C2515 C 0.11529 0.57161 0.67102 0.0
C2516 C 0.14799 0.5601 0.66042 0.0
C2517 C 0.14534 0.54245 0.67148 0.0
C2518 C 0.12989 0.54185 0.68561 0.0
C2519 C 0.1153 0.55665 0.68576 0.0
C2520 C 0.1553 0.52342 0.66541 0.0
C2521 C 0.16143 0.50971 0.68013 0.0
C2522 C 0.15604 0.51747 0.64502 0.0
C2523 C 0.14726 0.5295 0.6287 0.0
C2524 C 0.12664 0.53308 0.62813 0.0
C2525 C 0.11848 0.54478 0.61295 0.0
C2526 C 0.13079 0.55277 0.59813 0.0
C2527 C 0.15125 0.54899 0.59842 0.0
C2528 C 0.15948 0.5373 0.61358 0.0
C2529 C 0.15177 0.4352 0.63548 0.0
C2530 C 0.16632 0.43218 0.62068 0.0
C2531 C 0.15377 0.45094 0.64909 0.0
C2532 C 0.1703 0.4637 0.64794 0.0
C2533 C 0.18617 0.45869 0.63525 0.0
C2534 C 0.18428 0.44286 0.62182 0.0
C2535 C 0.16806 0.48459 0.65469 0.0
C2536 C 0.1631 0.49852 0.63999 0.0
C2537 C 0.1674 0.49017 0.67502 0.0
C2538 C 0.17199 0.47556 0.69099 0.0
C2539 C 0.18973 0.4644 0.69039 0.0
C2540 C 0.19359 0.45001 0.70495 0.0
C2541 C 0.17985 0.44668 0.72027 0.0
C2542 C 0.16229 0.45786 0.72115 0.0
C2543 C 0.15836 0.47226 0.70661 0.0
H2544 H 0.1828 0.43543 0.73143 0.0
H2545 H 0.12448 0.56188 0.58641 0.0
H2546 H 0.57828 0.64317 0.14395 0.0
H2547 H 0.55326 0.64251 0.17046 0.0
H2548 H 0.52305 0.69237 0.1435 0.0
H2549 H 0.54811 0.69313 0.11689 0.0
H2550 H 0.51757 0.68743 0.18824 0.0
H2551 H 0.51057 0.65535 0.12406 0.0
H2552 H 0.52287 0.63533 0.09569 0.0
H2553 H 0.53041 0.58488 0.13428 0.0
H2554 H 0.519 0.60496 0.16313 0.0
H2555 H 0.41902 0.64124 0.17066 0.0
H2556 H 0.44705 0.66376 0.17449 0.0
H2557 H 0.47373 0.62361 0.21681 0.0
H2558 H 0.44525 0.60135 0.21379 0.0
H2559 H 0.48256 0.62529 0.16859 0.0
H2560 H 0.48197 0.65934 0.23221 0.0
H2561 H 0.46782 0.68181 0.25777 0.0
H2562 H 0.46979 0.73052 0.21633 0.0
H2563 H 0.48368 0.70824 0.19041 0.0
C2564 C 0.5668 0.65453 0.14417 0.0
C2565 C 0.56471 0.66787 0.12821 0.0
C2566 C 0.55263 0.65424 0.15938 0.0
C2567 C 0.5363 0.66726 0.15871 0.0
C2568 C 0.53564 0.68229 0.14424 0.0
C2569 C 0.54973 0.68249 0.12892 0.0
C2570 C 0.51782 0.66162 0.16901 0.0
C2571 C 0.50986 0.67385 0.18408 0.0
C2572 C 0.50776 0.64406 0.16319 0.0
C2573 C 0.51431 0.63178 0.14584 0.0
C2574 C 0.51514 0.64009 0.12658 0.0
C2575 C 0.52191 0.62872 0.11039 0.0
C2576 C 0.52742 0.60884 0.11317 0.0
C2577 C 0.5262 0.60031 0.13217 0.0
C2578 C 0.51967 0.61171 0.14847 0.0
C2579 C 0.43007 0.63786 0.18192 0.0
C2580 C 0.43043 0.61917 0.19134 0.0
C2581 C 0.44611 0.65085 0.18415 0.0
C2582 C 0.46256 0.64509 0.19561 0.0
C2583 C 0.46112 0.62829 0.20792 0.0
C2584 C 0.44493 0.61547 0.20598 0.0
C2585 C 0.48238 0.6508 0.1883 0.0
C2586 C 0.49046 0.63864 0.17326 0.0
C2587 C 0.49201 0.66866 0.19379 0.0
C2588 C 0.48365 0.68206 0.2093 0.0
C2589 C 0.47916 0.67478 0.22847 0.0
C2590 C 0.47125 0.6875 0.24304 0.0
C2591 C 0.46784 0.70757 0.23866 0.0
C2592 C 0.47241 0.71497 0.2197 0.0
C2593 C 0.48032 0.7023 0.20507 0.0
H2594 H 0.46172 0.7174 0.24997 0.0
H2595 H 0.53258 0.60004 0.1006 0.0
H2596 H 0.41195 0.95536 0.69723 0.0
H2597 H 0.38861 0.98174 0.69723 0.0
H2598 H 0.34697 0.94473 0.66455 0.0
H2599 H 0.37364 0.92044 0.65926 0.0
H2600 H 0.34424 0.97318 0.64742 0.0
H2601 H 0.34342 0.97576 0.72007 0.0
H2602 H 0.3585 0.97534 0.75369 0.0
H2603 H 0.39393 0.02642 0.7388 0.0
H2604 H 0.37921 0.02711 0.70518 0.0
H2605 H 0.30227 0.06329 0.62121 0.0
H2606 H 0.30345 0.03561 0.64496 0.0
H2607 H 0.36382 0.05133 0.66006 0.0
H2608 H 0.3625 0.07918 0.63678 0.0
H2609 H 0.34487 0.03273 0.69128 0.0
H2610 H 0.35423 0.02132 0.61826 0.0
H2611 H 0.34174 0.02238 0.58358 0.0
H2612 H 0.29042 0.98841 0.6009 0.0
H2613 H 0.30266 0.98716 0.63565 0.0
C2614 C 0.39777 0.95279 0.68996 0.0
C2615 C 0.39529 0.93654 0.67692 0.0
C2616 C 0.38372 0.96794 0.69067 0.0
C2617 C 0.36534 0.96602 0.68083 0.0
C2618 C 0.36122 0.94746 0.67153 0.0
C2619 C 0.37633 0.93314 0.6689 0.0
C2620 C 0.3527 0.98418 0.67673 0.0
C2621 C 0.34383 0.98567 0.65769 0.0
C2622 C 0.35208 1.00136 0.68944 0.0
C2623 C 0.36005 1.00154 0.71013 0.0
C2624 C 0.35431 0.98697 0.72403 0.0
C2625 C 0.36286 0.98667 0.74307 0.0
C2626 C 0.37713 1.00086 0.74839 0.0
C2627 C 0.3828 0.0155 0.73473 0.0
C2628 C 0.37428 0.01592 0.71572 0.0
C2629 C 0.31541 0.06137 0.63035 0.0
C2630 C 0.33238 0.07318 0.62703 0.0
C2631 C 0.31612 0.04551 0.64381 0.0
C2632 C 0.33392 0.04108 0.65383 0.0
C2633 C 0.34996 0.05441 0.65242 0.0
C2634 C 0.34918 0.0704 0.63914 0.0
C2635 C 0.33743 0.02103 0.66243 0.0
C2636 C 0.34455 0.01946 0.68198 0.0
C2637 C 0.33639 0.00373 0.65042 0.0
C2638 C 0.32924 0.00429 0.62951 0.0
C2639 C 0.34028 0.01411 0.61463 0.0
C2640 C 0.33326 0.01473 0.59498 0.0
C2641 C 0.31527 0.00553 0.59006 0.0
C2642 C 0.30433 0.99557 0.60474 0.0
C2643 C 0.31131 0.99486 0.62439 0.0
H2644 H 0.30983 0.00609 0.57486 0.0
H2645 H 0.38381 1.00051 0.76308 0.0
H2646 H 0.92382 0.85948 0.13009 0.0
H2647 H 0.94784 0.861 0.15761 0.0
H2648 H 0.97982 0.8113 0.13203 0.0
H2649 H 0.95601 0.80982 0.10455 0.0
H2650 H 0.97341 0.83268 0.18631 0.0
H2651 H 0.02014 0.83587 0.1146 0.0
H2652 H 0.01912 0.84795 0.07979 0.0
H2653 H 0.9747 0.89117 0.09606 0.0
H2654 H 0.97563 0.87947 0.13096 0.0
H2655 H 0.08428 0.86588 0.16758 0.0
H2656 H 0.05792 0.84131 0.17021 0.0
H2657 H 0.02124 0.88371 0.20189 0.0
H2658 H 0.04796 0.90819 0.20019 0.0
H2659 H 0.02924 0.86199 0.1477 0.0
H2660 H 0.97777 0.85707 0.21686 0.0
H2661 H 0.98059 0.85217 0.25325 0.0
H2662 H 0.03524 0.81994 0.24475 0.0
H2663 H 0.03265 0.82445 0.20832 0.0
C2664 C 0.93543 0.8483 0.13094 0.0
C2665 C 0.93842 0.83476 0.11516 0.0
C2666 C 0.94902 0.84908 0.14671 0.0
C2667 C 0.96557 0.83632 0.1467 0.0
C2668 C 0.96705 0.82118 0.13228 0.0
C2669 C 0.9536 0.82047 0.11652 0.0
C2670 C 0.98375 0.84222 0.15738 0.0
C2671 C 0.98569 0.83913 0.17803 0.0
C2672 C 0.99961 0.85065 0.14648 0.0
C2673 C 0.99773 0.85657 0.12526 0.0
C2674 C 0.01002 0.8478 0.11067 0.0
C2675 C 0.00952 0.85464 0.09096 0.0
C2676 C 0.99691 0.87035 0.08575 0.0
C2677 C 0.98446 0.87899 0.10013 0.0
C2678 C 0.98489 0.8722 0.11984 0.0
C2679 C 0.07115 0.86966 0.17622 0.0
C2680 C 0.06778 0.88927 0.18286 0.0
C2681 C 0.05609 0.85547 0.17785 0.0
C2682 C 0.03747 0.86091 0.18573 0.0
C2683 C 0.03546 0.87925 0.19561 0.0
C2684 C 0.05062 0.89338 0.19425 0.0
C2685 C 0.01951 0.85204 0.17674 0.0
C2686 C 0.01735 0.85498 0.15616 0.0
C2687 C 0.00348 0.8442 0.18796 0.0
C2688 C 0.00506 0.84122 0.20984 0.0
C2689 C 0.99034 0.84885 0.22274 0.0
C2690 C 0.99191 0.84617 0.24339 0.0
C2691 C 0.00811 0.83579 0.25131 0.0
C2692 C 0.02274 0.82805 0.2386 0.0
C2693 C 0.02125 0.83071 0.21795 0.0
H2694 H 0.0093 0.83373 0.2673 0.0
H2695 H 0.99692 0.87591 0.0706 0.0
H2696 H 0.09653 0.96617 0.81853 0.0
H2697 H 0.12202 0.99134 0.81707 0.0
H2698 H 0.16613 0.94786 0.83455 0.0
H2699 H 0.13999 0.92321 0.83892 0.0
H2700 H 0.16742 0.9747 0.85897 0.0
H2701 H 0.16756 0.97947 0.78804 0.0
H2702 H 0.1528 0.98094 0.75437 0.0
H2703 H 0.12303 0.03558 0.76967 0.0
H2704 H 0.13733 0.03434 0.80348 0.0
H2705 H 0.20593 0.06134 0.89671 0.0
H2706 H 0.20807 0.03542 0.87091 0.0
H2707 H 0.15148 0.05463 0.8473 0.0
H2708 H 0.14979 0.08085 0.87226 0.0
H2709 H 0.17079 0.0366 0.81893 0.0
H2710 H 0.1552 0.02089 0.88954 0.0
H2711 H 0.16282 0.01808 0.92549 0.0
H2712 H 0.21544 0.98433 0.91179 0.0
H2713 H 0.20801 0.98676 0.87574 0.0
C2714 C 0.11165 0.96187 0.82208 0.0
C2715 C 0.11595 0.94289 0.82988 0.0
C2716 C 0.12648 0.97625 0.82058 0.0
C2717 C 0.14622 0.97169 0.82573 0.0
C2718 C 0.151 0.95189 0.8307 0.0
C2719 C 0.13598 0.93769 0.83308 0.0
C2720 C 0.16027 0.98815 0.8306 0.0
C2721 C 0.16882 0.98789 0.84973 0.0
C2722 C 0.16182 0.00571 0.81892 0.0
C2723 C 0.15366 0.00684 0.79832 0.0
C2724 C 0.15788 0.99181 0.78424 0.0
C2725 C 0.14956 0.99259 0.76512 0.0
C2726 C 0.13702 0.00836 0.75988 0.0
C2727 C 0.13281 0.02341 0.77372 0.0
C2728 C 0.14109 0.02271 0.79284 0.0
C2729 C 0.19445 0.06054 0.8854 0.0
C2730 C 0.17755 0.07285 0.88664 0.0
C2731 C 0.19562 0.0457 0.87072 0.0
C2732 C 0.17959 0.04262 0.85762 0.0
C2733 C 0.164 0.05657 0.85729 0.0
C2734 C 0.16303 0.07163 0.87163 0.0
C2735 C 0.1766 0.02316 0.84747 0.0
C2736 C 0.17025 0.02291 0.82749 0.0
C2737 C 0.17642 0.00517 0.85847 0.0
C2738 C 0.18126 0.00429 0.88002 0.0
C2739 C 0.16848 0.01302 0.89422 0.0
C2740 C 0.17273 0.01147 0.91459 0.0
C2741 C 0.18969 1.00122 0.92092 0.0
C2742 C 0.20237 0.99237 0.90687 0.0
C2743 C 0.19814 0.99379 0.88648 0.0
H2744 H 0.19293 1.00003 0.93671 0.0
H2745 H 0.13055 0.0089 0.7451 0.0
H2746 H 0.95903 0.69522 0.40467 0.0
H2747 H 0.98643 0.69561 0.38078 0.0
H2748 H 0.95279 0.65784 0.34103 0.0
H2749 H 0.92575 0.65654 0.36531 0.0
H2750 H 0.98387 0.63937 0.35687 0.0
H2751 H 0.97382 0.70207 0.32492 0.0
H2752 H 0.96759 0.73821 0.32295 0.0
H2753 H 0.02207 0.74976 0.3543 0.0
H2754 H 0.02847 0.71369 0.35682 0.0
H2755 H 0.06697 0.6098 0.30718 0.0
H2756 H 0.04184 0.63613 0.3063 0.0
H2757 H 0.05944 0.65537 0.36512 0.0
H2758 H 0.08446 0.62905 0.36619 0.0
H2759 H 0.03586 0.68573 0.3322 0.0
H2760 H 0.02597 0.62717 0.38156 0.0
H2761 H 0.03219 0.59182 0.38975 0.0
H2762 H 0.01752 0.57496 0.32964 0.0
H2763 H 0.01084 0.6102 0.32125 0.0
C2764 C 0.95724 0.68745 0.39057 0.0
C2765 C 0.9406 0.67519 0.3872 0.0
C2766 C 0.9728 0.688 0.37674 0.0
C2767 C 0.97178 0.67653 0.35922 0.0
C2768 C 0.9539 0.66675 0.35451 0.0
C2769 C 0.93843 0.66598 0.36845 0.0
C2770 C 0.99052 0.66998 0.34952 0.0
C2771 C 0.99484 0.64958 0.35079 0.0
C2772 C 0.00537 0.68333 0.34264 0.0
C2773 C 1.00158 0.70509 0.34113 0.0
C2774 C 0.9844 0.71228 0.33155 0.0
C2775 C 0.98085 0.73278 0.33032 0.0
C2776 C 0.99441 0.74627 0.33852 0.0
C2777 C 0.01157 0.73929 0.34795 0.0
C2778 C 0.01518 0.71881 0.34926 0.0
C2779 C 0.06623 0.62035 0.31944 0.0
C2780 C 0.0773 0.61712 0.33693 0.0
C2781 C 0.05199 0.6355 0.31884 0.0
C2782 C 0.04873 0.64752 0.33571 0.0
C2783 C 0.0619 0.64634 0.35188 0.0
C2784 C 0.07617 0.63119 0.3525 0.0
C2785 C 0.02855 0.65537 0.33935 0.0
C2786 C 0.0243 0.67575 0.33742 0.0
C2787 C 0.01367 0.64226 0.34618 0.0
C2788 C 0.01798 0.62117 0.35081 0.0
C2789 C 0.02406 0.61586 0.37013 0.0
C2790 C 0.02758 0.59588 0.37482 0.0
C2791 C 0.02504 0.58115 0.36027 0.0
C2792 C 0.0192 0.58638 0.34095 0.0
C2793 C 0.01554 0.60633 0.33622 0.0
H2794 H 0.02757 0.56567 0.36398 0.0
H2795 H 0.99163 0.76213 0.33754 0.0
H2796 H 0.35944 0.43458 0.87099 0.0
H2797 H 0.35934 0.46183 0.84679 0.0
H2798 H 0.30614 0.48574 0.87389 0.0
H2799 H 0.30628 0.45863 0.8983 0.0
H2800 H 0.31904 0.49109 0.82364 0.0
H2801 H 0.33499 0.50619 0.89815 0.0
H2802 H 0.35355 0.49786 0.92881 0.0
H2803 H 0.40692 0.48953 0.89428 0.0
H2804 H 0.38861 0.49788 0.86347 0.0
H2805 H 0.36898 0.59353 0.85081 0.0
H2806 H 0.34095 0.57072 0.84981 0.0
H2807 H 0.36882 0.53813 0.8017 0.0
H2808 H 0.39653 0.56146 0.80199 0.0
H2809 H 0.36383 0.53694 0.86049 0.0
H2810 H 0.33676 0.49933 0.78875 0.0
H2811 H 0.32424 0.50879 0.75549 0.0
H2812 H 0.29951 0.56263 0.78003 0.0
H2813 H 0.31153 0.55332 0.81351 0.0
C2814 C 0.34717 0.44507 0.87115 0.0
C2815 C 0.33296 0.44469 0.88658 0.0
C2816 C 0.34708 0.46056 0.85725 0.0
C2817 C 0.33267 0.47567 0.85854 0.0
C2818 C 0.31718 0.47402 0.8725 0.0
C2819 C 0.31738 0.45866 0.88653 0.0
C2820 C 0.33701 0.49537 0.84993 0.0
C2821 C 0.32869 0.50129 0.83164 0.0
C2822 C 0.3498 0.50841 0.86026 0.0
C2823 C 0.36043 0.50243 0.8786 0.0
C2824 C 0.35063 0.50237 0.89713 0.0
C2825 C 0.36112 0.49771 0.91452 0.0
C2826 C 0.38141 0.49309 0.91348 0.0
C2827 C 0.39122 0.49304 0.89505 0.0
C2828 C 0.3808 0.49776 0.87765 0.0
C2829 C 0.36854 0.58242 0.83904 0.0
C2830 C 0.38539 0.57857 0.82717 0.0
C2831 C 0.35238 0.56938 0.83842 0.0
C2832 C 0.35324 0.55228 0.82625 0.0
C2833 C 0.36796 0.55105 0.81142 0.0
C2834 C 0.38397 0.56429 0.81179 0.0
C2835 C 0.34534 0.53342 0.83438 0.0
C2836 C 0.35356 0.52726 0.85258 0.0
C2837 C 0.33302 0.52019 0.82352 0.0
C2838 C 0.32509 0.52562 0.80363 0.0
C2839 C 0.32846 0.51308 0.78709 0.0
C2840 C 0.32147 0.51843 0.7682 0.0
C2841 C 0.31101 0.53627 0.76567 0.0
C2842 C 0.30753 0.54878 0.78203 0.0
C2843 C 0.31446 0.54349 0.80097 0.0
H2844 H 0.30564 0.5404 0.75102 0.0
H2845 H 0.38956 0.48963 0.92697 0.0
H2846 H 0.44399 0.89906 0.29822 0.0
H2847 H 0.47043 0.87404 0.29682 0.0
H2848 H 0.4452 0.84472 0.34813 0.0
H2849 H 0.41902 0.86938 0.34974 0.0
H2850 H 0.48581 0.87787 0.34284 0.0
H2851 H 0.45233 0.8116 0.33682 0.0
H2852 H 0.43105 0.78883 0.3173 0.0
H2853 H 0.47077 0.79382 0.26718 0.0
H2854 H 0.49202 0.81703 0.28634 0.0
H2855 H 0.54489 0.80876 0.3975 0.0
H2856 H 0.51937 0.80868 0.37161 0.0
H2857 H 0.5537 0.85082 0.33739 0.0
H2858 H 0.57885 0.85162 0.36351 0.0
H2859 H 0.50965 0.8091 0.32885 0.0
H2860 H 0.5281 0.89159 0.33958 0.0
H2861 H 0.5457 0.91338 0.36354 0.0
H2862 H 0.53059 0.87372 0.41148 0.0
H2863 H 0.51276 0.85186 0.38784 0.0
C2864 C 0.44346 0.88663 0.3085 0.0
C2865 C 0.42976 0.88652 0.32442 0.0
C2866 C 0.45846 0.87222 0.30753 0.0
C2867 C 0.4597 0.85753 0.32233 0.0
C2868 C 0.44423 0.85561 0.33625 0.0
C2869 C 0.42926 0.86995 0.33723 0.0
C2870 C 0.47944 0.85003 0.32801 0.0
C2871 C 0.49122 0.86299 0.33937 0.0
C2872 C 0.48597 0.83041 0.32419 0.0
C2873 C 0.47354 0.81623 0.31285 0.0
C2874 C 0.45637 0.80802 0.32155 0.0
C2875 C 0.44435 0.79501 0.31059 0.0
C2876 C 0.44951 0.78994 0.29098 0.0
C2877 C 0.46675 0.79781 0.28234 0.0
C2878 C 0.47877 0.81091 0.29324 0.0
C2879 C 0.54731 0.81748 0.38411 0.0
C2880 C 0.5634 0.83081 0.38284 0.0
C2881 C 0.5329 0.81712 0.36917 0.0
C2882 C 0.53453 0.83007 0.35287 0.0
C2883 C 0.55221 0.8408 0.34997 0.0
C2884 C 0.56654 0.84132 0.36499 0.0
C2885 C 0.51611 0.83714 0.34331 0.0
C2886 C 0.50452 0.82419 0.33162 0.0
C2887 C 0.50914 0.85661 0.34755 0.0
C2888 C 0.51936 0.87 0.36191 0.0
C2889 C 0.52851 0.88758 0.35524 0.0
C2890 C 0.53853 0.89992 0.36876 0.0
C2891 C 0.53935 0.89488 0.389 0.0
C2892 C 0.53003 0.87756 0.39579 0.0
C2893 C 0.51999 0.86519 0.38234 0.0
H2894 H 0.54715 0.90442 0.39943 0.0
H2895 H 0.44018 0.77987 0.2825 0.0
H2896 H 0.66277 0.14241 0.58188 0.0
H2897 H 0.66789 0.16734 0.55614 0.0
H2898 H 0.68466 0.12091 0.51447 0.0
H2899 H 0.68338 0.09676 0.54084 0.0
H2900 H 0.69923 0.15017 0.50087 0.0
H2901 H 0.63033 0.14058 0.52701 0.0
H2902 H 0.60493 0.14291 0.55367 0.0
H2903 H 0.61775 0.20518 0.56117 0.0
H2904 H 0.6433 0.20314 0.53461 0.0
H2905 H 0.63107 0.14416 0.42402 0.0
H2906 H 0.65655 0.14529 0.44948 0.0
H2907 H 0.6414 0.2066 0.46238 0.0
H2908 H 0.61472 0.20491 0.43754 0.0
H2909 H 0.635 0.18552 0.49288 0.0
H2910 H 0.69422 0.18916 0.45109 0.0
H2911 H 0.71554 0.17977 0.42251 0.0
H2912 H 0.71457 0.11863 0.44113 0.0
H2913 H 0.69368 0.12767 0.47009 0.0
C2914 C 0.66833 0.13754 0.56749 0.0
C2915 C 0.6716 0.11719 0.56328 0.0
C2916 C 0.67091 0.15188 0.55259 0.0
C2917 C 0.67545 0.14602 0.53291 0.0
C2918 C 0.68067 0.12604 0.52931 0.0
C2919 C 0.67929 0.11196 0.54441 0.0
C2920 C 0.67209 0.15938 0.5155 0.0
C2921 C 0.6852 0.15798 0.49913 0.0
C2922 C 0.65421 0.1704 0.51326 0.0
C2923 C 0.63883 0.17166 0.52908 0.0
C2924 C 0.62772 0.15474 0.5344 0.0
C2925 C 0.61333 0.156 0.54948 0.0
C2926 C 0.60978 0.17417 0.55916 0.0
C2927 C 0.62056 0.19112 0.5537 0.0
C2928 C 0.63499 0.18992 0.53865 0.0
C2929 C 0.63384 0.15819 0.43157 0.0
C2930 C 0.62092 0.17441 0.42899 0.0
C2931 C 0.64863 0.15893 0.4461 0.0
C2932 C 0.65112 0.17611 0.45792 0.0
C2933 C 0.63981 0.19319 0.45348 0.0
C2934 C 0.6246 0.19226 0.43929 0.0
C2935 C 0.66107 0.17428 0.47763 0.0
C2936 C 0.64938 0.17834 0.4946 0.0
C2937 C 0.67958 0.16449 0.48005 0.0
C2938 C 0.69243 0.15915 0.46279 0.0
C2939 C 0.69856 0.17373 0.44909 0.0
C2940 C 0.71057 0.16845 0.43281 0.0
C2941 C 0.71627 0.14861 0.42989 0.0
C2942 C 0.71018 0.134 0.4434 0.0
C2943 C 0.69841 0.13922 0.45984 0.0
H2944 H 0.72546 0.14457 0.4172 0.0
H2945 H 0.59865 0.17511 0.57084 0.0
H2946 H 0.89247 0.20575 0.05983 0.0
H2947 H 0.87026 0.20593 0.03099 0.0
H2948 H 0.84219 0.1523 0.05226 0.0
H2949 H 0.86477 0.15152 0.08058 0.0
H2950 H 0.87844 0.16762 0.01028 0.0
H2951 H 0.797 0.14948 0.02646 0.0
H2952 H 0.77141 0.15842 0.05141 0.0
H2953 H 0.79749 0.21642 0.05823 0.0
H2954 H 0.8231 0.20793 0.03313 0.0
H2955 H 0.80958 0.10009 0.9553 0.0
H2956 H 0.80971 0.12702 0.97961 0.0
H2957 H 0.85241 0.15895 0.94367 0.0
H2958 H 0.85413 0.13091 0.92049 0.0
H2959 H 0.80743 0.16259 0.99087 0.0
H2960 H 0.89139 0.1727 0.9704 0.0
H2961 H 0.91799 0.15402 0.95292 0.0
H2962 H 0.88758 0.09899 0.96459 0.0
H2963 H 0.86107 0.11728 0.98244 0.0
C2964 C 0.88093 0.19453 0.05887 0.0
C2965 C 0.88085 0.17824 0.07208 0.0
C2966 C 0.8682 0.19471 0.04241 0.0
C2967 C 0.85485 0.17896 0.03937 0.0
C2968 C 0.85239 0.16462 0.05438 0.0
C2969 C 0.86532 0.16425 0.07068 0.0
C2970 C 0.84823 0.1741 0.01888 0.0
C2971 C 0.86296 0.16725 0.00567 0.0
C2972 C 0.82798 0.17234 0.01362 0.0
C2973 C 0.81198 0.17805 0.02789 0.0
C2974 C 0.79714 0.16423 0.0331 0.0
C2975 C 0.78268 0.16919 0.04733 0.0
C2976 C 0.78283 0.18797 0.05641 0.0
C2977 C 0.7974 0.20187 0.0512 0.0
C2978 C 0.81191 0.19698 0.03698 0.0
C2979 C 0.81879 0.113 0.95236 0.0
C2980 C 0.83279 0.11277 0.93666 0.0
C2981 C 0.81861 0.1286 0.96619 0.0
C2982 C 0.8319 0.14456 0.96406 0.0
C2983 C 0.84266 0.14633 0.94607 0.0
C2984 C 0.84348 0.13031 0.93264 0.0
C2985 C 0.83773 0.15625 0.98208 0.0
C2986 C 0.82297 0.16392 0.99499 0.0
C2987 C 0.85799 0.15751 0.9879 0.0
C2988 C 0.87409 0.14641 0.97741 0.0
C2989 C 0.89043 0.15662 0.96925 0.0
C2990 C 0.9055 0.14609 0.95931 0.0
C2991 C 0.90442 0.12535 0.95755 0.0
C2992 C 0.88837 0.11506 0.96589 0.0
C2993 C 0.87334 0.12549 0.97594 0.0
H2994 H 0.91602 0.11725 0.94975 0.0
H2995 H 0.77167 0.19176 0.06749 0.0
H2996 H 0.82375 0.4172 0.53596 0.0
H2997 H 0.82045 0.39364 0.50921 0.0
H2998 H 0.82607 0.34506 0.55104 0.0
H2999 H 0.8338 0.36856 0.57724 0.0
H3000 H 0.85127 0.33989 0.52608 0.0
H3001 H 0.78171 0.35661 0.51511 0.0
H3002 H 0.75404 0.38054 0.51123 0.0
H3003 H 0.78316 0.40638 0.46036 0.0
H3004 H 0.811 0.38279 0.46398 0.0
H3005 H 0.88729 0.29598 0.44161 0.0
H3006 H 0.85983 0.29812 0.46577 0.0
H3007 H 0.84654 0.35757 0.445 0.0
H3008 H 0.87261 0.3548 0.42018 0.0
H3009 H 0.81563 0.34529 0.46164 0.0
H3010 H 0.88619 0.34622 0.4818 0.0
H3011 H 0.91966 0.33165 0.48631 0.0
H3012 H 0.89433 0.28265 0.51866 0.0
H3013 H 0.86072 0.297 0.5144 0.0
C3014 C 0.82474 0.40153 0.5396 0.0
C3015 C 0.83041 0.39508 0.55878 0.0
C3016 C 0.82188 0.38787 0.52419 0.0
C3017 C 0.82292 0.3673 0.52786 0.0
C3018 C 0.82547 0.36083 0.54765 0.0
C3019 C 0.82972 0.37448 0.56282 0.0
C3020 C 0.82611 0.35309 0.51099 0.0
C3021 C 0.84285 0.34058 0.51228 0.0
C3022 C 0.81576 0.35435 0.49257 0.0
C3023 C 0.79839 0.36777 0.48976 0.0
C3024 C 0.78216 0.36732 0.50304 0.0
C3025 C 0.76646 0.38087 0.5009 0.0
C3026 C 0.76682 0.39493 0.48554 0.0
C3027 C 0.78282 0.39542 0.47219 0.0
C3028 C 0.79851 0.38189 0.47422 0.0
C3029 C 0.87777 0.30902 0.44164 0.0
C3030 C 0.88215 0.32532 0.42931 0.0
C3031 C 0.8622 0.31033 0.4555 0.0
C3032 C 0.85166 0.32833 0.45781 0.0
C3033 C 0.85447 0.34355 0.44372 0.0
C3034 C 0.8695 0.34198 0.42949 0.0
C3035 C 0.84123 0.33336 0.47675 0.0
C3036 C 0.82318 0.34392 0.47588 0.0
C3037 C 0.85092 0.33136 0.4954 0.0
C3038 C 0.87099 0.32246 0.4975 0.0
C3039 C 0.88779 0.33227 0.48975 0.0
C3040 C 0.90676 0.32408 0.49229 0.0
C3041 C 0.9091 0.30617 0.50263 0.0
C3042 C 0.89248 0.29646 0.51056 0.0
C3043 C 0.87348 0.30461 0.50811 0.0
H3044 H 0.92381 0.29987 0.50458 0.0
H3045 H 0.75472 0.40548 0.48399 0.0
H3046 H 0.70267 0.39718 0.95817 0.0
H3047 H 0.70062 0.37336 0.98574 0.0
H3048 H 0.64956 0.34597 0.95823 0.0
H3049 H 0.65139 0.36961 0.93079 0.0
H3050 H 0.64531 0.37267 0.99491 0.0
H3051 H 0.67738 0.31627 0.96695 0.0
H3052 H 0.70462 0.29787 0.95061 0.0
H3053 H 0.7416 0.30676 1.00209 0.0
H3054 H 0.71483 0.32609 0.01844 0.0
H3055 H 0.60897 0.30606 0.06681 0.0
H3056 H 0.63483 0.30671 0.04116 0.0
H3057 H 0.65864 0.36055 0.06688 0.0
H3058 H 0.63237 0.36059 0.09193 0.0
H3059 H 0.67859 0.31719 0.03078 0.0
H3060 H 0.64488 0.39178 0.03951 0.0
H3061 H 0.61532 0.40897 0.0534 0.0
H3062 H 0.57837 0.35989 0.03557 0.0
H3063 H 0.60782 0.34226 0.02205 0.0
C3064 C 0.69159 0.38548 0.95757 0.0
C3065 C 0.67693 0.38551 0.94261 0.0
C3066 C 0.69056 0.37179 0.97321 0.0
C3067 C 0.67489 0.35806 0.97397 0.0
C3068 C 0.66186 0.35639 0.95773 0.0
C3069 C 0.66294 0.36996 0.94205 0.0
C3070 C 0.66845 0.3504 0.99352 0.0
C3071 C 0.65266 0.36054 1.00269 0.0
C3072 C 0.678 0.33454 1.00353 0.0
C3073 C 0.69416 0.3229 0.99383 0.0
C3074 C 0.69142 0.3146 0.9747 0.0
C3075 C 0.70676 0.30393 0.96544 0.0
C3076 C 0.72482 0.30106 0.97532 0.0
C3077 C 0.7276 0.30899 0.99445 0.0
C3078 C 0.71236 0.31987 1.0037 0.0
C3079 C 0.62028 0.31754 0.06756 0.0
C3080 C 0.61817 0.33372 0.08083 0.0
C3081 C 0.63521 0.31773 0.05303 0.0
C3082 C 0.64827 0.33393 0.05191 0.0
C3083 C 0.64856 0.34797 0.0675 0.0
C3084 C 0.63345 0.34798 0.08185 0.0
C3085 C 0.65585 0.33984 0.03211 0.0
C3086 C 0.67159 0.32945 0.02294 0.0
C3087 C 0.64611 0.3553 0.02167 0.0
C3088 C 0.62847 0.36574 0.02991 0.0
C3089 C 0.63043 0.38468 0.03863 0.0
C3090 C 0.61374 0.39444 0.04651 0.0
C3091 C 0.595 0.38547 0.04546 0.0
C3092 C 0.59292 0.36674 0.03651 0.0
C3093 C 0.6096 0.35682 0.02884 0.0
H3094 H 0.58208 0.39304 0.05153 0.0
H3095 H 0.73665 0.2927 0.96815 0.0
H3096 H 0.86319 0.41681 0.38861 0.0
H3097 H 0.85812 0.45319 0.39119 0.0
H3098 H 0.867 0.4586 0.32757 0.0
H3099 H 0.87196 0.42288 0.32495 0.0
H3100 H 0.89075 0.48286 0.34581 0.0
H3101 H 0.82444 0.46594 0.34702 0.0
H3102 H 0.7917 0.45178 0.355 0.0
H3103 H 0.79049 0.48412 0.41032 0.0
H3104 H 0.82403 0.49746 0.40346 0.0
H3105 H 0.86319 0.58863 0.3421 0.0
H3106 H 0.86521 0.55242 0.33601 0.0
H3107 H 0.86752 0.54214 0.39956 0.0
H3108 H 0.86576 0.57802 0.40558 0.0
H3109 H 0.83663 0.52105 0.37875 0.0
H3110 H 0.90841 0.53687 0.37001 0.0
H3111 H 0.93427 0.5553 0.35151 0.0
H3112 H 0.91547 0.52788 0.29667 0.0
H3113 H 0.88927 0.50958 0.31476 0.0
C3114 C 0.86361 0.42579 0.37519 0.0
C3115 C 0.86831 0.41706 0.35666 0.0
C3116 C 0.86077 0.44653 0.37666 0.0
C3117 C 0.86251 0.45865 0.35958 0.0
C3118 C 0.86593 0.44966 0.34098 0.0
C3119 C 0.86876 0.42917 0.33954 0.0
C3120 C 0.86244 0.48078 0.361 0.0
C3121 C 0.87881 0.49112 0.35301 0.0
C3122 C 0.8466 0.49171 0.36975 0.0
C3123 C 0.82719 0.48231 0.37494 0.0
C3124 C 0.81765 0.4695 0.36127 0.0
C3125 C 0.79888 0.46163 0.36559 0.0
C3126 C 0.78919 0.46681 0.38333 0.0
C3127 C 0.79827 0.47982 0.39681 0.0
C3128 C 0.81724 0.48742 0.39277 0.0
C3129 C 0.86476 0.57862 0.35467 0.0
C3130 C 0.8642 0.586 0.37432 0.0
C3131 C 0.86572 0.55797 0.35121 0.0
C3132 C 0.86627 0.54461 0.36738 0.0
C3133 C 0.86687 0.55216 0.3869 0.0
C3134 C 0.86592 0.57263 0.39031 0.0
C3135 C 0.86519 0.52272 0.36435 0.0
C3136 C 0.84857 0.5125 0.37192 0.0
C3137 C 0.88014 0.51195 0.35413 0.0
C3138 C 0.89676 0.52204 0.3437 0.0
C3139 C 0.90979 0.5348 0.35401 0.0
C3140 C 0.9245 0.54522 0.34358 0.0
C3141 C 0.9264 0.54285 0.32291 0.0
C3142 C 0.9139 0.52976 0.31267 0.0
C3143 C 0.89914 0.51936 0.323 0.0
H3144 H 0.93741 0.55126 0.31474 0.0
H3145 H 0.77454 0.46091 0.38653 0.0
H3146 H 0.42412 0.32897 0.87041 0.0
H3147 H 0.45952 0.33398 0.86387 0.0
H3148 H 0.44947 0.39719 0.85799 0.0
H3149 H 0.41365 0.39215 0.86428 0.0
H3150 H 0.48358 0.35476 0.83233 0.0
H3151 H 0.48284 0.41711 0.88743 0.0
H3152 H 0.46065 0.43061 0.91367 0.0
H3153 H 0.44433 0.3712 0.9308 0.0
H3154 H 0.46651 0.35736 0.90475 0.0
H3155 H 0.57987 0.40706 0.86534 0.0
H3156 H 0.54362 0.40474 0.86678 0.0
H3157 H 0.54768 0.3407 0.86223 0.0
H3158 H 0.58428 0.34302 0.86098 0.0
H3159 H 0.51615 0.38636 0.89088 0.0
H3160 H 0.51334 0.32672 0.82762 0.0
H3161 H 0.533 0.31736 0.79777 0.0
H3162 H 0.55532 0.37715 0.79351 0.0
H3163 H 0.53573 0.38686 0.82318 0.0
C3164 C 0.42937 0.3439 0.86723 0.0
C3165 C 0.41623 0.36023 0.86796 0.0
C3166 C 0.44957 0.3467 0.86336 0.0
C3167 C 0.45711 0.36592 0.8605 0.0
C3168 C 0.44387 0.38221 0.8601 0.0
C3169 C 0.42347 0.37935 0.86365 0.0
C3170 C 0.47897 0.36893 0.86088 0.0
C3171 C 0.49074 0.36149 0.84519 0.0
C3172 C 0.48823 0.37821 0.8774 0.0
C3173 C 0.47628 0.38626 0.89418 0.0
C3174 C 0.47466 0.40695 0.89695 0.0
C3175 C 0.46199 0.41465 0.91169 0.0
C3176 C 0.45096 0.40176 0.92379 0.0
C3177 C 0.45277 0.38114 0.92133 0.0
C3178 C 0.4654 0.37337 0.90662 0.0
C3179 C 0.57304 0.39243 0.86521 0.0
C3180 C 0.58482 0.37518 0.86322 0.0
C3181 C 0.55233 0.39115 0.866 0.0
C3182 C 0.54293 0.37259 0.86441 0.0
C3183 C 0.55468 0.35519 0.86335 0.0
C3184 C 0.57554 0.35647 0.86287 0.0
C3185 C 0.5209 0.37163 0.86266 0.0
C3186 C 0.50906 0.37951 0.87809 0.0
C3187 C 0.51159 0.36322 0.84566 0.0
C3188 C 0.52324 0.35742 0.82773 0.0
C3189 C 0.52242 0.33785 0.82027 0.0
C3190 C 0.53356 0.33249 0.8034 0.0
C3191 C 0.54545 0.34663 0.79379 0.0
C3192 C 0.54619 0.36618 0.80101 0.0
C3193 C 0.53511 0.3716 0.81787 0.0
H3194 H 0.55404 0.34246 0.78073 0.0
H3195 H 0.44116 0.40775 0.93517 0.0
H3196 H 0.64145 0.91694 0.34046 0.0
H3197 H 0.63719 0.95307 0.33524 0.0
H3198 H 0.63039 0.9616 0.39881 0.0
H3199 H 0.6342 0.92591 0.40393 0.0
H3200 H 0.60712 0.98676 0.38052 0.0
H3201 H 0.67574 0.96767 0.37507 0.0
H3202 H 0.70381 0.94824 0.36127 0.0
H3203 H 0.6927 0.97245 0.30303 0.0
H3204 H 0.66434 0.99181 0.31644 0.0
H3205 H 0.63602 0.09108 0.38597 0.0
H3206 H 0.63687 0.05465 0.39123 0.0
H3207 H 0.63696 0.0454 0.32745 0.0
H3208 H 0.63603 0.08132 0.32223 0.0
H3209 H 0.66295 0.02049 0.34592 0.0
H3210 H 0.59695 0.04568 0.35695 0.0
H3211 H 0.56978 0.06402 0.37367 0.0
H3212 H 0.57639 0.02742 0.42565 0.0
H3213 H 0.60376 0.00917 0.40948 0.0
C3214 C 0.63841 0.92649 0.35318 0.0
C3215 C 0.63823 0.91856 0.37259 0.0
C3216 C 0.63622 0.94719 0.35026 0.0
C3217 C 0.63384 0.96026 0.36669 0.0
C3218 C 0.63226 0.95203 0.38587 0.0
C3219 C 0.63448 0.93153 0.38877 0.0
C3220 C 0.63451 0.9825 0.36442 0.0
C3221 C 0.61943 0.99421 0.37317 0.0
C3222 C 0.65051 0.99225 0.35474 0.0
C3223 C 0.6678 0.98101 0.3467 0.0
C3224 C 0.67923 0.96877 0.35929 0.0
C3225 C 0.69518 0.95777 0.35155 0.0
C3226 C 0.69999 0.95906 0.33127 0.0
C3227 C 0.68892 0.97143 0.31873 0.0
C3228 C 0.67291 0.98243 0.32639 0.0
C3229 C 0.6367 0.08123 0.37314 0.0
C3230 C 0.63603 0.0891 0.35368 0.0
C3231 C 0.63697 0.06041 0.37613 0.0
C3232 C 0.63675 0.04715 0.35972 0.0
C3233 C 0.63709 0.05516 0.34038 0.0
C3234 C 0.63658 0.07578 0.33741 0.0
C3235 C 0.6356 0.02497 0.36222 0.0
C3236 C 0.65063 0.0132 0.35343 0.0
C3237 C 0.61971 0.01527 0.37238 0.0
C3238 C 0.60303 0.02641 0.3821 0.0
C3239 C 0.5929 0.04174 0.37204 0.0
C3240 C 0.57734 0.05208 0.3814 0.0
C3241 C 0.57147 0.04698 0.40074 0.0
C3242 C 0.58106 0.03149 0.41072 0.0
C3243 C 0.59668 0.0212 0.40147 0.0
H3244 H 0.55943 0.05497 0.40796 0.0
H3245 H 0.71232 0.9505 0.3253 0.0
H3246 H 0.91804 0.16124 0.84489 0.0
H3247 H 0.95417 0.15835 0.84642 0.0
H3248 H 0.94852 0.10588 0.8831 0.0
H3249 H 0.91198 0.10912 0.88188 0.0
H3250 H 0.97866 0.1245 0.89581 0.0
H3251 H 0.9636 0.10301 0.83092 0.0
H3252 H 0.94794 0.10243 0.79767 0.0
H3253 H 0.97626 0.15788 0.78307 0.0
H3254 H 0.99184 0.15889 0.81642 0.0
H3255 H 0.08577 0.11106 0.87516 0.0
H3256 H 0.04972 0.10396 0.87318 0.0
H3257 H 0.03862 0.16528 0.85771 0.0
H3258 H 0.07423 0.17245 0.86023 0.0
H3259 H 0.01752 0.13489 0.83362 0.0
H3260 H 0.03559 0.14984 0.90321 0.0
H3261 H 0.05198 0.14176 0.93508 0.0
H3262 H 0.01769 0.08817 0.93981 0.0
H3263 H 1.00205 0.09505 0.90729 0.0
C3264 C 0.92447 0.14905 0.8533 0.0
C3265 C 0.9121 0.13511 0.86285 0.0
C3266 C 0.94524 0.14726 0.85399 0.0
C3267 C 0.9544 0.13143 0.86423 0.0
C3268 C 0.94203 0.11804 0.87474 0.0
C3269 C 0.9211 0.11983 0.87401 0.0
C3270 C 0.97678 0.12934 0.86407 0.0
C3271 C 0.9871 0.12644 0.88212 0.0
C3272 C 0.98813 0.13141 0.84626 0.0
C3273 C 0.97864 0.13114 0.82627 0.0
C3274 C 0.96627 0.11518 0.82071 0.0
C3275 C 0.95747 0.11475 0.80182 0.0
C3276 C 0.96104 0.13015 0.78828 0.0
C3277 C 0.97347 0.14599 0.7936 0.0
C3278 C 0.98231 0.14648 0.81249 0.0
C3279 C 0.07563 0.12285 0.87084 0.0
C3280 C 0.08286 0.14225 0.86752 0.0
C3281 C 0.05502 0.11884 0.86994 0.0
C3282 C 0.04135 0.13412 0.86542 0.0
C3283 C 0.04876 0.15323 0.86123 0.0
C3284 C 0.06917 0.1573 0.86256 0.0
C3285 C 0.01929 0.1308 0.8654 0.0
C3286 C 0.00904 0.13272 0.84725 0.0
C3287 C 0.00815 0.12681 0.883 0.0
C3288 C 0.01784 0.12282 0.90253 0.0
C3289 C 0.03179 0.13613 0.91078 0.0
C3290 C 0.0409 0.13181 0.92903 0.0
C3291 C 0.03578 0.1146 0.93952 0.0
C3292 C 0.02167 0.1015 0.93167 0.0
C3293 C 0.01278 0.10552 0.91325 0.0
H3294 H 0.04276 0.11141 0.95372 0.0
H3295 H 0.95423 0.12979 0.77365 0.0
H3296 H 0.87478 0.91109 0.10524 0.0
H3297 H 0.87513 0.94756 0.10363 0.0
H3298 H 0.85932 0.95053 0.16608 0.0
H3299 H 0.8574 0.91435 0.16725 0.0
H3300 H 0.83809 0.97511 0.14971 0.0
H3301 H 0.90944 0.96369 0.1421 0.0
H3302 H 0.94 0.95029 0.12647 0.0
H3303 H 0.92386 0.9771 0.07061 0.0
H3304 H 0.89316 0.99054 0.08589 0.0
H3305 H 0.87229 0.07016 0.17749 0.0
H3306 H 0.86929 0.03467 0.17031 0.0
H3307 H 0.85938 0.04762 0.10807 0.0
H3308 H 0.86211 0.08365 0.1153 0.0
H3309 H 0.89058 0.0165 0.11833 0.0
H3310 H 0.82168 0.0321 0.12909 0.0
H3311 H 0.7939 0.04812 0.14719 0.0
H3312 H 0.80792 0.01436 0.19972 0.0
H3313 H 0.83597 0.99833 0.18202 0.0
C3314 C 0.87141 0.91957 0.1186 0.0
C3315 C 0.86574 0.90975 0.13623 0.0
C3316 C 0.8718 0.94049 0.11773 0.0
C3317 C 0.86725 0.9521 0.1347 0.0
C3318 C 0.86263 0.94215 0.15261 0.0
C3319 C 0.86168 0.92133 0.15332 0.0
C3320 C 0.86613 0.97444 0.13383 0.0
C3321 C 0.84977 0.984 0.14297 0.0
C3322 C 0.88078 0.98644 0.12435 0.0
C3323 C 0.89894 0.97792 0.11507 0.0
C3324 C 0.91235 0.96656 0.12644 0.0
C3325 C 0.92971 0.95902 0.11766 0.0
C3326 C 0.93385 0.9628 0.09755 0.0
C3327 C 0.92063 0.97415 0.08617 0.0
C3328 C 0.90327 0.98176 0.09489 0.0
C3329 C 0.86923 0.06553 0.16228 0.0
C3330 C 0.86732 0.07969 0.14696 0.0
C3331 C 0.86755 0.04522 0.15821 0.0
C3332 C 0.86413 0.03851 0.13868 0.0
C3333 C 0.86203 0.05255 0.12325 0.0
C3334 C 0.8634 0.07307 0.12741 0.0
C3335 C 0.86311 0.01671 0.13482 0.0
C3336 C 0.87891 0.00736 0.12477 0.0
C3337 C 0.84816 0.00487 0.1437 0.0
C3338 C 0.83097 0.01407 0.15424 0.0
C3339 C 0.81889 0.02815 0.14453 0.0
C3340 C 0.80309 0.03723 0.15471 0.0
C3341 C 0.79916 0.03228 0.1746 0.0
C3342 C 0.81098 0.01818 0.18431 0.0
C3343 C 0.82681 0.00906 0.1742 0.0
H3344 H 0.78695 0.03936 0.18247 0.0
H3345 H 0.94732 0.95699 0.09079 0.0
H3346 H 0.9207 0.3564 0.61736 0.0
H3347 H 0.95718 0.35296 0.61332 0.0
H3348 H 0.9658 0.38255 0.66995 0.0
H3349 H 0.93026 0.38611 0.67389 0.0
H3350 H 0.98895 0.39886 0.64512 0.0
H3351 H 0.97145 0.33383 0.66252 0.0
H3352 H 0.95682 0.30027 0.66234 0.0
H3353 H 0.9897 0.28559 0.60926 0.0
H3354 H 0.00379 0.31947 0.60843 0.0
H3355 H 0.08772 0.35728 0.67163 0.0
H3356 H 0.05163 0.36172 0.66993 0.0
H3357 H 0.0561 0.37381 0.60694 0.0
H3358 H 0.09242 0.36972 0.60864 0.0
H3359 H 0.02715 0.3371 0.6314 0.0
H3360 H 0.04552 0.40815 0.62107 0.0
H3361 H 0.06367 0.43759 0.63327 0.0
H3362 H 0.03038 0.43622 0.68809 0.0
H3363 H 0.01283 0.40602 0.67667 0.0
C3364 C 0.93044 0.36197 0.62896 0.0
C3365 C 0.92244 0.3718 0.64578 0.0
C3366 C 0.95129 0.36004 0.62665 0.0
C3367 C 0.96441 0.36778 0.6412 0.0
C3368 C 0.95622 0.37679 0.65827 0.0
C3369 C 0.9357 0.37878 0.6605 0.0
C3370 C 0.98664 0.36735 0.63889 0.0
C3371 C 0.99715 0.38527 0.64193 0.0
C3372 C 0.99766 0.34962 0.63528 0.0
C3373 C 0.98821 0.32957 0.63502 0.0
C3374 C 0.97511 0.32374 0.6504 0.0
C3375 C 0.96697 0.30458 0.65054 0.0
C3376 C 0.97215 0.29088 0.63566 0.0
C3377 C 0.98554 0.29629 0.62066 0.0
C3378 C 0.9935 0.31554 0.62027 0.0
C3379 C 0.08114 0.36123 0.65743 0.0
C3380 C 0.09302 0.36283 0.64012 0.0
C3381 C 0.06045 0.36366 0.6565 0.0
C3382 C 0.05113 0.36784 0.63828 0.0
C3383 C 0.06297 0.37037 0.62114 0.0
C3384 C 0.08376 0.36812 0.62212 0.0
C3385 C 0.02898 0.36851 0.63715 0.0
C3386 C 0.01863 0.35064 0.63382 0.0
C3387 C 0.01808 0.38596 0.64172 0.0
C3388 C 0.02812 0.40459 0.64813 0.0
C3389 C 0.04229 0.41391 0.63585 0.0
C3390 C 0.05244 0.43078 0.64262 0.0
C3391 C 0.04819 0.43879 0.66146 0.0
C3392 C 0.03371 0.42997 0.67353 0.0
C3393 C 0.02373 0.41291 0.66695 0.0
H3394 H 0.05613 0.45178 0.66674 0.0
H3395 H 0.96593 0.27601 0.63586 0.0
H3396 H 0.63636 0.58553 0.16272 0.0
H3397 H 0.63189 0.54919 0.16567 0.0
H3398 H 0.64026 0.54279 0.10205 0.0
H3399 H 0.64461 0.5787 0.09908 0.0
H3400 H 0.61199 0.51797 0.11417 0.0
H3401 H 0.67816 0.53365 0.1329 0.0
H3402 H 0.70535 0.55024 0.15115 0.0
H3403 H 0.68368 0.52611 0.20641 0.0
H3404 H 0.65614 0.50961 0.18851 0.0
H3405 H 0.63849 0.41242 0.11626 0.0
H3406 H 0.63934 0.44876 0.11056 0.0
H3407 H 0.62602 0.45891 0.17283 0.0
H3408 H 0.62517 0.42309 0.17852 0.0
H3409 H 0.65727 0.48165 0.15978 0.0
H3410 H 0.59191 0.46319 0.13722 0.0
H3411 H 0.56689 0.44626 0.11641 0.0
H3412 H 0.59047 0.47492 0.06419 0.0
H3413 H 0.61578 0.49181 0.0848 0.0
C3414 C 0.63675 0.57638 0.14936 0.0
C3415 C 0.64086 0.58499 0.1307 0.0
C3416 C 0.63441 0.5556 0.15105 0.0
C3417 C 0.63598 0.54314 0.13409 0.0
C3418 C 0.63899 0.55195 0.11536 0.0
C3419 C 0.64151 0.57255 0.11371 0.0
C3420 C 0.6355 0.52092 0.13577 0.0
C3421 C 0.62201 0.51001 0.12401 0.0
C3422 C 0.64865 0.51044 0.14848 0.0
C3423 C 0.66491 0.52065 0.1594 0.0
C3424 C 0.67904 0.53209 0.14898 0.0
C3425 C 0.69455 0.54143 0.15925 0.0
C3426 C 0.69619 0.5393 0.17994 0.0
C3427 C 0.68234 0.5278 0.19039 0.0
C3428 C 0.66677 0.51845 0.18019 0.0
C3429 C 0.63564 0.42248 0.12863 0.0
C3430 C 0.63145 0.41488 0.14774 0.0
C3431 C 0.63608 0.4432 0.12538 0.0
C3432 C 0.63263 0.45662 0.14126 0.0
C3433 C 0.62872 0.44894 0.16034 0.0
C3434 C 0.62812 0.4284 0.16353 0.0
C3435 C 0.63348 0.47868 0.1385 0.0
C3436 C 0.64718 0.48959 0.14997 0.0
C3437 C 0.62085 0.48905 0.12512 0.0
C3438 C 0.60587 0.4786 0.11261 0.0
C3439 C 0.59185 0.46573 0.12132 0.0
C3440 C 0.5776 0.45617 0.10955 0.0
C3441 C 0.57712 0.45946 0.08896 0.0
C3442 C 0.59088 0.47234 0.08014 0.0
C3443 C 0.60519 0.48192 0.09189 0.0
H3444 H 0.56606 0.45207 0.07984 0.0
H3445 H 0.70824 0.54651 0.18786 0.0
H3446 H 0.58903 0.16507 0.64875 0.0
H3447 H 0.55269 0.16869 0.64513 0.0
H3448 H 0.5482 0.10646 0.62994 0.0
H3449 H 0.58414 0.10265 0.63417 0.0
H3450 H 0.52227 0.12973 0.60695 0.0
H3451 H 0.53731 0.11646 0.67386 0.0
H3452 H 0.55428 0.11963 0.70631 0.0
H3453 H 0.53128 0.17903 0.71315 0.0
H3454 H 0.51444 0.17633 0.68049 0.0
H3455 H 0.41656 0.11891 0.63533 0.0
H3456 H 0.45293 0.11319 0.63587 0.0
H3457 H 0.46262 0.17652 0.64041 0.0
H3458 H 0.4267 0.18226 0.63939 0.0
H3459 H 0.48586 0.15069 0.66807 0.0
H3460 H 0.46297 0.15313 0.5987 0.0
H3461 H 0.44471 0.13913 0.57 0.0
H3462 H 0.48251 0.08766 0.57012 0.0
H3463 H 0.50003 0.10044 0.59966 0.0
C3464 C 0.58032 0.15233 0.64405 0.0
C3465 C 0.58949 0.13364 0.64144 0.0
C3466 C 0.55951 0.15434 0.64215 0.0
C3467 C 0.54753 0.1378 0.63724 0.0
C3468 C 0.55694 0.11944 0.63357 0.0
C3469 C 0.57756 0.11731 0.63595 0.0
C3470 C 0.5252 0.13913 0.63753 0.0
C3471 C 0.51426 0.13429 0.62029 0.0
C3472 C 0.51464 0.1444 0.6551 0.0
C3473 C 0.52492 0.14634 0.67458 0.0
C3474 C 0.5361 0.13031 0.68215 0.0
C3475 C 0.54565 0.13199 0.7006 0.0
C3476 C 0.54394 0.14956 0.71174 0.0
C3477 C 0.53264 0.16547 0.70446 0.0
C3478 C 0.52311 0.16388 0.68597 0.0
C3479 C 0.42648 0.13154 0.6368 0.0
C3480 C 0.41871 0.15104 0.63743 0.0
C3481 C 0.44726 0.12828 0.63693 0.0
C3482 C 0.4606 0.14445 0.63802 0.0
C3483 C 0.45274 0.1638 0.6395 0.0
C3484 C 0.43215 0.16705 0.63896 0.0
C3485 C 0.48276 0.14168 0.63735 0.0
C3486 C 0.49376 0.14632 0.65459 0.0
C3487 C 0.49317 0.135 0.62003 0.0
C3488 C 0.48265 0.12767 0.60185 0.0
C3489 C 0.46719 0.13866 0.59294 0.0
C3490 C 0.45698 0.13096 0.57643 0.0
C3491 C 0.46253 0.11265 0.56818 0.0
C3492 C 0.47819 0.10185 0.57653 0.0
C3493 C 0.48815 0.10925 0.59329 0.0
H3494 H 0.45469 0.10682 0.55533 0.0
H3495 H 0.5513 0.15083 0.72605 0.0
H3496 H 0.34366 0.89668 0.43988 0.0
H3497 H 0.35093 0.89172 0.47494 0.0
H3498 H 0.3924 0.84501 0.45979 0.0
H3499 H 0.38476 0.84959 0.42396 0.0
H3500 H 0.34679 0.84972 0.49415 0.0
H3501 H 0.43074 0.86145 0.50297 0.0
H3502 H 0.45858 0.87874 0.48632 0.0
H3503 H 0.41814 0.92254 0.46327 0.0
H3504 H 0.39017 0.90581 0.48006 0.0
H3505 H 0.36795 0.82539 0.5941 0.0
H3506 H 0.37052 0.82705 0.55772 0.0
H3507 H 0.38593 0.88937 0.56191 0.0
H3508 H 0.38509 0.88707 0.59863 0.0
H3509 H 0.40496 0.8752 0.53183 0.0
H3510 H 0.33494 0.86867 0.5513 0.0
H3511 H 0.30678 0.85178 0.56788 0.0
H3512 H 0.31815 0.79879 0.53351 0.0
H3513 H 0.34645 0.81531 0.51687 0.0
C3514 C 0.35434 0.88528 0.44374 0.0
C3515 C 0.36341 0.87338 0.42886 0.0
C3516 C 0.35854 0.88254 0.46395 0.0
C3517 C 0.37223 0.86806 0.47006 0.0
C3518 C 0.38186 0.8564 0.45539 0.0
C3519 C 0.37746 0.85901 0.43493 0.0
C3520 C 0.37499 0.86459 0.49191 0.0
C3521 C 0.35963 0.85507 0.50237 0.0
C3522 C 0.39157 0.87186 0.50269 0.0
C3523 C 0.40828 0.88214 0.49251 0.0
C3524 C 0.42779 0.87477 0.49434 0.0
C3525 C 0.44361 0.88447 0.48488 0.0
C3526 C 0.44012 0.90162 0.47361 0.0
C3527 C 0.42082 0.90917 0.47188 0.0
C3528 C 0.40496 0.89955 0.48134 0.0
C3529 C 0.37224 0.83934 0.58723 0.0
C3530 C 0.37661 0.85601 0.59916 0.0
C3531 C 0.37346 0.84039 0.56635 0.0
C3532 C 0.37782 0.85852 0.55672 0.0
C3533 C 0.38251 0.87517 0.56875 0.0
C3534 C 0.382 0.87391 0.58977 0.0
C3535 C 0.37664 0.86027 0.5343 0.0
C3536 C 0.39222 0.86956 0.52368 0.0
C3537 C 0.36015 0.85286 0.52325 0.0
C3538 C 0.34288 0.84316 0.53298 0.0
C3539 C 0.33144 0.8534 0.54733 0.0
C3540 C 0.31547 0.84389 0.55674 0.0
C3541 C 0.31071 0.82421 0.55179 0.0
C3542 C 0.32185 0.81402 0.53735 0.0
C3543 C 0.33783 0.82346 0.52791 0.0
H3544 H 0.29837 0.81686 0.55912 0.0
H3545 H 0.4524 0.9091 0.4663 0.0
H3546 H 0.09616 0.85542 0.92386 0.0
H3547 H 0.1004 0.85901 0.95962 0.0
H3548 H 0.16265 0.87211 0.9509 0.0
H3549 H 0.15857 0.86759 0.91454 0.0
H3550 H 0.15827 0.84617 0.98056 0.0
H3551 H 0.12697 0.90934 0.96647 0.0
H3552 H 0.10131 0.93117 0.95181 0.0
H3553 H 0.05595 0.90074 0.98515 0.0
H3554 H 0.08133 0.87867 0.99992 0.0
H3555 H 0.17696 0.88043 0.07816 0.0
H3556 H 0.17158 0.87638 0.04255 0.0
H3557 H 0.11044 0.86027 0.05361 0.0
H3558 H 0.11576 0.86469 0.08989 0.0
H3559 H 0.11351 0.88731 0.02303 0.0
H3560 H 0.14364 0.82511 0.03791 0.0
H3561 H 0.16815 0.80215 0.05249 0.0
H3562 H 0.2146 0.82903 0.01758 0.0
H3563 H 0.1903 0.85238 1.00293 0.0
C3564 C 0.11081 0.85918 0.9294 0.0
C3565 C 0.12705 0.8611 0.91616 0.0
C3566 C 0.11316 0.86146 0.95002 0.0
C3567 C 0.13179 0.86614 0.95821 0.0
C3568 C 0.14806 0.86858 0.94504 0.0
C3569 C 0.1457 0.86617 0.92421 0.0
C3570 C 0.13422 0.8674 0.98051 0.0
C3571 C 0.14872 0.85549 0.98977 0.0
C3572 C 0.12126 0.87885 0.99282 0.0
C3573 C 0.10603 0.8923 0.9842 0.0
C3574 C 0.11151 0.90727 0.97061 0.0
C3575 C 0.09702 0.9197 0.96231 0.0
C3576 C 0.07701 0.91733 0.96753 0.0
C3577 C 0.07145 0.90258 0.98113 0.0
C3578 C 0.08589 0.89015 0.98952 0.0
C3579 C 0.16232 0.8759 0.07316 0.0
C3580 C 0.14676 0.87296 0.08701 0.0
C3581 C 0.15931 0.87346 0.05266 0.0
C3582 C 0.14065 0.86787 0.0452 0.0
C3583 C 0.12503 0.86456 0.05894 0.0
C3584 C 0.1281 0.86691 0.0797 0.0
C3585 C 0.13768 0.86623 0.02302 0.0
C3586 C 0.12309 0.87805 0.0138 0.0
C3587 C 0.15046 0.85458 0.01074 0.0
C3588 C 0.16517 0.84061 0.01946 0.0
C3589 C 0.1591 0.82624 0.03345 0.0
C3590 C 0.17298 0.81313 0.04171 0.0
C3591 C 0.19298 0.81415 0.03602 0.0
C3592 C 0.19911 0.82827 0.022 0.0
C3593 C 0.18528 0.84143 0.01369 0.0
H3594 H 0.20372 0.80399 0.04242 0.0
H3595 H 0.06581 0.92693 0.96105 0.0
H3596 H 0.12159 0.61355 0.58961 0.0
H3597 H 0.11974 0.61049 0.55296 0.0
H3598 H 0.15343 0.66491 0.547 0.0
H3599 H 0.15438 0.66829 0.58336 0.0
H3600 H 0.1263 0.66637 0.52106 0.0
H3601 H 0.17218 0.613 0.53893 0.0
H3602 H 0.18265 0.58167 0.55508 0.0
H3603 H 0.13475 0.55048 0.52658 0.0
H3604 H 0.12376 0.58167 0.51047 0.0
H3605 H 0.16476 0.66433 0.42384 0.0
H3606 H 0.15963 0.66244 0.45984 0.0
H3607 H 0.1239 0.60966 0.452 0.0
H3608 H 0.12954 0.61131 0.4156 0.0
H3609 H 0.14546 0.60506 0.48439 0.0
H3610 H 0.10354 0.65675 0.46236 0.0
H3611 H 0.09326 0.6874 0.44499 0.0
H3612 H 0.13354 0.72175 0.4809 0.0
H3613 H 0.14436 0.69126 0.49827 0.0
C3614 C 0.12843 0.62489 0.58039 0.0
C3615 C 0.13766 0.64146 0.58935 0.0
C3616 C 0.12759 0.62305 0.55936 0.0
C3617 C 0.13655 0.63741 0.54681 0.0
C3618 C 0.14615 0.65367 0.55601 0.0
C3619 C 0.14675 0.65561 0.57689 0.0
C3620 C 0.13602 0.63595 0.52422 0.0
C3621 C 0.13089 0.65301 0.51312 0.0
C3622 C 0.1409 0.6183 0.51345 0.0
C3623 C 0.14704 0.59971 0.52366 0.0
C3624 C 0.16375 0.5995 0.53627 0.0
C3625 C 0.16979 0.58176 0.54538 0.0
C3626 C 0.15934 0.56411 0.54184 0.0
C3627 C 0.14276 0.56418 0.52931 0.0
C3628 C 0.1366 0.58188 0.52023 0.0
C3629 C 0.15579 0.65227 0.42971 0.0
C3630 C 0.14764 0.63793 0.4167 0.0
C3631 C 0.15275 0.65125 0.45043 0.0
C3632 C 0.14097 0.63615 0.45896 0.0
C3633 C 0.13296 0.62158 0.44601 0.0
C3634 C 0.13619 0.62249 0.42513 0.0
C3635 C 0.13725 0.63588 0.48128 0.0
C3636 C 0.14118 0.61847 0.4923 0.0
C3637 C 0.1313 0.65321 0.492 0.0
C3638 C 0.12488 0.67164 0.48154 0.0
C3639 C 0.11038 0.67079 0.46642 0.0
C3640 C 0.10443 0.68816 0.45658 0.0
C3641 C 0.11277 0.7065 0.4618 0.0
C3642 C 0.12709 0.70752 0.47688 0.0
C3643 C 0.13312 0.6902 0.48674 0.0
H3644 H 0.10811 0.71993 0.4542 0.0
H3645 H 0.16412 0.55035 0.54876 0.0
H3646 H 0.34399 0.63187 0.91624 0.0
H3647 H 0.34532 0.62735 0.9523 0.0
H3648 H 0.40378 0.65389 0.95345 0.0
H3649 H 0.40316 0.65598 0.91671 0.0
H3650 H 0.40242 0.6303 0.98275 0.0
H3651 H 0.35553 0.68097 0.9629 0.0
H3652 H 0.32675 0.69433 0.94436 0.0
H3653 H 0.28856 0.65116 0.97206 0.0
H3654 H 0.31713 0.63741 0.99057 0.0
H3655 H 0.38713 0.65003 0.08962 0.0
H3656 H 0.39407 0.65408 0.05356 0.0
H3657 H 0.33916 0.62387 0.03973 0.0
H3658 H 0.33188 0.62078 0.07481 0.0
H3659 H 0.34147 0.65404 0.01728 0.0
H3660 H 0.3889 0.60279 0.03648 0.0
H3661 H 0.41793 0.58933 0.05448 0.0
H3662 H 0.45532 0.6341 0.02825 0.0
H3663 H 0.42643 0.64806 0.01037 0.0
C3664 C 0.35735 0.63634 0.92408 0.0
C3665 C 0.37326 0.64515 0.91366 0.0
C3666 C 0.35797 0.63407 0.94489 0.0
C3667 C 0.3741 0.64145 0.95609 0.0
C3668 C 0.3908 0.6486 0.94548 0.0
C3669 C 0.39045 0.65007 0.92446 0.0
C3670 C 0.37301 0.64243 0.97864 0.0
C3671 C 0.38916 0.63576 0.99025 0.0
C3672 C 0.35578 0.64951 0.98881 0.0
C3673 C 0.3385 0.65811 0.97804 0.0
C3674 C 0.341 0.67432 0.965 0.0
C3675 C 0.32473 0.68195 0.95449 0.0
C3676 C 0.30585 0.67358 0.95702 0.0
C3677 C 0.30318 0.65763 0.97012 0.0
C3678 C 0.3194 0.64994 0.98065 0.0
C3679 C 0.37654 0.64438 0.07884 0.0
C3680 C 0.35902 0.63485 0.08538 0.0
C3681 C 0.3806 0.64653 0.05816 0.0
C3682 C 0.36726 0.6391 0.04363 0.0
C3683 C 0.3498 0.62979 0.05033 0.0
C3684 C 0.34573 0.62784 0.07068 0.0
C3685 C 0.37055 0.64119 0.02142 0.0
C3686 C 0.3548 0.64868 0.00981 0.0
C3687 C 0.38815 0.63494 0.01139 0.0
C3688 C 0.40543 0.62666 0.02233 0.0
C3689 C 0.40326 0.60991 0.03473 0.0
C3690 C 0.4197 0.60217 0.04488 0.0
C3691 C 0.43844 0.61091 0.04258 0.0
C3692 C 0.44079 0.62739 0.03008 0.0
C3693 C 0.42438 0.63523 0.01996 0.0
H3694 H 0.45113 0.60488 0.05044 0.0
H3695 H 0.29328 0.67948 0.94884 0.0
H3696 H 0.16164 0.27214 0.68295 0.0
H3697 H 0.15467 0.25181 0.71219 0.0
H3698 H 0.09435 0.274 0.71381 0.0
H3699 H 0.1014 0.29477 0.68458 0.0
H3700 H 0.11331 0.27895 0.74957 0.0
H3701 H 0.10096 0.22353 0.70581 0.0
H3702 H 0.10763 0.20217 0.67645 0.0
H3703 H 0.16559 0.1881 0.69943 0.0
H3704 H 0.15937 0.20973 0.72868 0.0
H3705 H 0.10864 0.20889 0.83489 0.0
H3706 H 0.10088 0.2297 0.80562 0.0
H3707 H 0.16108 0.22204 0.78424 0.0
H3708 H 0.1687 0.20128 0.81299 0.0
H3709 H 0.13219 0.20801 0.75811 0.0
H3710 H 0.14608 0.26604 0.79958 0.0
H3711 H 0.1406 0.28847 0.82836 0.0
H3712 H 0.08041 0.29861 0.80952 0.0
H3713 H 0.08544 0.27604 0.78075 0.0
C3714 C 0.1467 0.27214 0.68908 0.0
C3715 C 0.13208 0.28501 0.68161 0.0
C3716 C 0.14271 0.26054 0.70582 0.0
C3717 C 0.12396 0.2614 0.71513 0.0
C3718 C 0.10889 0.27318 0.70682 0.0
C3719 C 0.11289 0.28485 0.69005 0.0
C3720 C 0.12112 0.25149 0.73458 0.0
C3721 C 0.11685 0.26329 0.75146 0.0
C3722 C 0.12592 0.23118 0.73698 0.0
C3723 C 0.12959 0.21796 0.71956 0.0
C3724 C 0.1151 0.21583 0.70459 0.0
C3725 C 0.11882 0.20374 0.68795 0.0
C3726 C 0.13698 0.1937 0.68612 0.0
C3727 C 0.15147 0.19576 0.70092 0.0
C3728 C 0.14783 0.20786 0.71757 0.0
C3729 C 0.1203 0.21231 0.82424 0.0
C3730 C 0.13916 0.20344 0.82589 0.0
C3731 C 0.11586 0.22405 0.80755 0.0
C3732 C 0.13036 0.22705 0.7927 0.0
C3733 C 0.14966 0.21966 0.79545 0.0
C3734 C 0.15401 0.20789 0.81188 0.0
C3735 C 0.12526 0.23566 0.77315 0.0
C3736 C 0.12797 0.22351 0.75624 0.0
C3737 C 0.11904 0.25562 0.77083 0.0
C3738 C 0.11604 0.26911 0.78818 0.0
C3739 C 0.13161 0.27287 0.8017 0.0
C3740 C 0.1286 0.28565 0.81797 0.0
C3741 C 0.11015 0.29487 0.82082 0.0
C3742 C 0.09468 0.2914 0.80734 0.0
C3743 C 0.0976 0.27863 0.79104 0.0
H3744 H 0.10786 0.30477 0.83342 0.0
H3745 H 0.13985 0.18437 0.67321 0.0
H3746 H 0.67525 0.6281 0.21297 0.0
H3747 H 0.69843 0.62477 0.24062 0.0
H3748 H 0.74785 0.62672 0.1994 0.0
H3749 H 0.72444 0.63015 0.17129 0.0
H3750 H 0.75147 0.59796 0.23161 0.0
H3751 H 0.73758 0.66732 0.22142 0.0
H3752 H 0.71616 0.69673 0.21637 0.0
H3753 H 0.68849 0.68702 0.2734 0.0
H3754 H 0.70955 0.65731 0.27866 0.0
H3755 H 0.82666 0.63069 0.29716 0.0
H3756 H 0.80254 0.62572 0.27053 0.0
H3757 H 0.7547 0.62761 0.31364 0.0
H3758 H 0.77908 0.63256 0.34067 0.0
H3759 H 0.74945 0.65326 0.28108 0.0
H3760 H 0.76471 0.58465 0.29191 0.0
H3761 H 0.78656 0.55554 0.29685 0.0
H3762 H 0.81213 0.56423 0.23867 0.0
H3763 H 0.79061 0.59358 0.23348 0.0
C3764 C 0.69104 0.62755 0.2097 0.0
C3765 C 0.69813 0.62955 0.19005 0.0
C3766 C 0.70424 0.62567 0.22553 0.0
C3767 C 0.72477 0.62582 0.22202 0.0
C3768 C 0.73198 0.62666 0.20231 0.0
C3769 C 0.71868 0.62859 0.18633 0.0
C3770 C 0.73844 0.62631 0.23923 0.0
C3771 C 0.75127 0.61014 0.24231 0.0
C3772 C 0.73764 0.64201 0.25339 0.0
C3773 C 0.72501 0.65995 0.25034 0.0
C3774 C 0.7268 0.67133 0.23281 0.0
C3775 C 0.71475 0.68808 0.22992 0.0
C3776 C 0.70094 0.69371 0.24453 0.0
C3777 C 0.69918 0.68261 0.26208 0.0
C3778 C 0.71119 0.66583 0.26503 0.0
C3779 C 0.81102 0.62976 0.30103 0.0
C3780 C 0.80464 0.632 0.3209 0.0
C3781 C 0.79728 0.62684 0.28581 0.0
C3782 C 0.77689 0.62616 0.29015 0.0
C3783 C 0.77043 0.62801 0.31007 0.0
C3784 C 0.78429 0.63073 0.32544 0.0
C3785 C 0.76252 0.62487 0.27353 0.0
C3786 C 0.74957 0.64097 0.27049 0.0
C3787 C 0.76327 0.60915 0.2594 0.0
C3788 C 0.77614 0.59141 0.26237 0.0
C3789 C 0.77509 0.58044 0.28022 0.0
C3790 C 0.7874 0.56388 0.28306 0.0
C3791 C 0.80075 0.55806 0.2681 0.0
C3792 C 0.80178 0.56876 0.25025 0.0
C3793 C 0.78951 0.58534 0.24734 0.0
H3794 H 0.81027 0.54523 0.27033 0.0
H3795 H 0.69164 0.7067 0.24228 0.0
H3796 H 0.40009 0.31865 0.81101 0.0
H3797 H 0.40542 0.29481 0.78392 0.0
H3798 H 0.36945 0.25159 0.81498 0.0
H3799 H 0.36437 0.27546 0.84251 0.0
H3800 H 0.40384 0.23601 0.78899 0.0
H3801 H 0.3419 0.27618 0.78548 0.0
H3802 H 0.32591 0.30898 0.79065 0.0
H3803 H 0.36756 0.33574 0.75006 0.0
H3804 H 0.3835 0.303 0.74437 0.0
H3805 H 0.35521 0.1806 0.71626 0.0
H3806 H 0.36345 0.20233 0.7441 0.0
H3807 H 0.3872 0.24588 0.70318 0.0
H3808 H 0.37866 0.22395 0.67481 0.0
H3809 H 0.36355 0.26266 0.73285 0.0
H3810 H 0.41898 0.21832 0.72971 0.0
H3811 H 0.43598 0.18583 0.727 0.0
H3812 H 0.4089 0.16693 0.78193 0.0
H3813 H 0.3915 0.19921 0.78484 0.0
C3814 C 0.39401 0.30377 0.81244 0.0
C3815 C 0.38169 0.29883 0.82864 0.0
C3816 C 0.39707 0.29019 0.79699 0.0
C3817 C 0.38758 0.27163 0.7974 0.0
C3818 C 0.37693 0.26587 0.81452 0.0
C3819 C 0.37405 0.27946 0.8302 0.0
C3820 C 0.38562 0.26021 0.77865 0.0
C3821 C 0.39499 0.24168 0.77672 0.0
C3822 C 0.37445 0.26798 0.76257 0.0
C3823 C 0.36379 0.28722 0.76445 0.0
C3824 C 0.34745 0.28905 0.77748 0.0
C3825 C 0.33842 0.30761 0.78052 0.0
C3826 C 0.34571 0.32444 0.77069 0.0
C3827 C 0.36188 0.32268 0.7576 0.0
C3828 C 0.3708 0.30411 0.75432 0.0
C3829 C 0.36219 0.1948 0.7131 0.0
C3830 C 0.36645 0.20058 0.69341 0.0
C3831 C 0.36698 0.20716 0.72907 0.0
C3832 C 0.37632 0.2255 0.72573 0.0
C3833 C 0.38016 0.23165 0.70602 0.0
C3834 C 0.3753 0.21919 0.68989 0.0
C3835 C 0.38159 0.23812 0.74309 0.0
C3836 C 0.37272 0.25697 0.74487 0.0
C3837 C 0.39326 0.23056 0.75901 0.0
C3838 C 0.40385 0.21117 0.75744 0.0
C3839 C 0.41655 0.2072 0.74116 0.0
C3840 C 0.42627 0.18882 0.73959 0.0
C3841 C 0.4235 0.17432 0.75427 0.0
C3842 C 0.41104 0.17818 0.77057 0.0
C3843 C 0.40126 0.19653 0.77221 0.0
H3844 H 0.43104 0.1601 0.75303 0.0
H3845 H 0.33882 0.33883 0.7732 0.0
H3846 H 0.79024 0.89091 0.17941 0.0
H3847 H 0.76896 0.89882 0.20818 0.0
H3848 H 0.76547 0.83625 0.22257 0.0
H3849 H 0.78668 0.82835 0.19394 0.0
H3850 H 0.73015 0.85528 0.22865 0.0
H3851 H 0.79967 0.86401 0.2448 0.0
H3852 H 0.83334 0.87813 0.24112 0.0
H3853 H 0.80993 0.93706 0.25033 0.0
H3854 H 0.77605 0.92326 0.25385 0.0
H3855 H 0.72018 0.83932 0.32854 0.0
H3856 H 0.73885 0.84459 0.29774 0.0
H3857 H 0.72026 0.90615 0.29695 0.0
H3858 H 0.70139 0.90093 0.32806 0.0
H3859 H 0.76299 0.8946 0.28221 0.0
H3860 H 0.69275 0.88155 0.2722 0.0
H3861 H 0.66145 0.86356 0.27886 0.0
H3862 H 0.68863 0.80867 0.25996 0.0
H3863 H 0.72021 0.82628 0.25352 0.0
C3864 C 0.78443 0.87884 0.18841 0.0
C3865 C 0.79006 0.85901 0.18459 0.0
C3866 C 0.77244 0.88339 0.20487 0.0
C3867 C 0.76592 0.86814 0.21759 0.0
C3868 C 0.77037 0.84822 0.2129 0.0
C3869 C 0.78243 0.8437 0.19655 0.0
C3870 C 0.75579 0.87276 0.23662 0.0
C3871 C 0.73723 0.86401 0.2403 0.0
C3872 C 0.76504 0.88431 0.25172 0.0
C3873 C 0.78531 0.89265 0.24926 0.0
C3874 C 0.80167 0.88 0.2458 0.0
C3875 C 0.8208 0.88793 0.24381 0.0
C3876 C 0.82376 0.90849 0.24539 0.0
C3877 C 0.8076 0.92115 0.24903 0.0
C3878 C 0.78843 0.91328 0.25103 0.0
C3879 C 0.72068 0.85417 0.32221 0.0
C3880 C 0.70927 0.86969 0.33042 0.0
C3881 C 0.73126 0.85713 0.30462 0.0
C3882 C 0.7305 0.87561 0.295 0.0
C3883 C 0.72086 0.89177 0.30424 0.0
C3884 C 0.71023 0.88881 0.322 0.0
C3885 C 0.73757 0.87686 0.27423 0.0
C3886 C 0.75557 0.88655 0.27028 0.0
C3887 C 0.72801 0.86582 0.25897 0.0
C3888 C 0.70891 0.85524 0.26251 0.0
C3889 C 0.69211 0.86563 0.26961 0.0
C3890 C 0.67431 0.85549 0.27333 0.0
C3891 C 0.67307 0.83498 0.26987 0.0
C3892 C 0.68961 0.82456 0.26264 0.0
C3893 C 0.70746 0.83462 0.25893 0.0
H3894 H 0.65928 0.82716 0.27276 0.0
H3895 H 0.83858 0.91461 0.24388 0.0
H3896 H 0.67844 0.11456 0.29548 0.0
H3897 H 0.70855 0.1078 0.27563 0.0
H3898 H 0.72341 0.17033 0.27717 0.0
H3899 H 0.69365 0.17707 0.29718 0.0
H3900 H 0.73047 0.15295 0.2399 0.0
H3901 H 0.74487 0.14192 0.30922 0.0
H3902 H 0.74052 0.12735 0.34272 0.0
H3903 H 0.74968 0.06871 0.31844 0.0
H3904 H 0.75385 0.08296 0.28473 0.0
H3905 H 0.83752 0.14547 0.22743 0.0
H3906 H 0.81041 0.14385 0.25213 0.0
H3907 H 0.77883 0.10258 0.21426 0.0
H3908 H 0.80538 0.1047 0.18939 0.0
H3909 H 0.78149 0.10914 0.27089 0.0
H3910 H 0.74767 0.12773 0.20014 0.0
H3911 H 0.75846 0.14129 0.16759 0.0
H3912 H 0.7918 0.18697 0.19757 0.0
H3913 H 0.7815 0.17337 0.23028 0.0
C3914 C 0.68791 0.12688 0.29115 0.0
C3915 C 0.6838 0.14632 0.29778 0.0
C3916 C 0.70514 0.123 0.27998 0.0
C3917 C 0.71827 0.13856 0.27516 0.0
C3918 C 0.71349 0.15813 0.28078 0.0
C3919 C 0.69649 0.16196 0.29216 0.0
C3920 C 0.73756 0.13443 0.26526 0.0
C3921 C 0.74152 0.14335 0.24673 0.0
C3922 C 0.7522 0.12213 0.27425 0.0
C3923 C 0.74941 0.11349 0.29443 0.0
C3924 C 0.74574 0.12591 0.311 0.0
C3925 C 0.74336 0.11771 0.33003 0.0
C3926 C 0.74475 0.09711 0.3327 0.0
C3927 C 0.74856 0.08466 0.31634 0.0
C3928 C 0.75094 0.09279 0.29727 0.0
C3929 C 0.82517 0.13543 0.22485 0.0
C3930 C 0.82328 0.12536 0.20655 0.0
C3931 C 0.80978 0.13445 0.23896 0.0
C3932 C 0.79269 0.12313 0.2349 0.0
C3933 C 0.79197 0.1113 0.21764 0.0
C3934 C 0.80706 0.11261 0.20342 0.0
C3935 C 0.77398 0.12734 0.24564 0.0
C3936 C 0.77023 0.11858 0.26418 0.0
C3937 C 0.75962 0.13999 0.23693 0.0
C3938 C 0.76362 0.14973 0.21754 0.0
C3939 C 0.75705 0.14085 0.19973 0.0
C3940 C 0.76332 0.14834 0.18129 0.0
C3941 C 0.77589 0.16492 0.18052 0.0
C3942 C 0.78212 0.1741 0.19819 0.0
C3943 C 0.77609 0.1665 0.21667 0.0
H3944 H 0.78065 0.17074 0.16622 0.0
H3945 H 0.74293 0.09078 0.34745 0.0
H3946 H 0.82813 0.19317 0.79247 0.0
H3947 H 0.83439 0.22211 0.77138 0.0
H3948 H 0.89703 0.20769 0.76991 0.0
H3949 H 0.89087 0.17899 0.79153 0.0
H3950 H 0.89238 0.24492 0.78052 0.0
H3951 H 0.86824 0.20435 0.7281 0.0
H3952 H 0.84596 0.18141 0.71005 0.0
H3953 H 0.79924 0.22514 0.712 0.0
H3954 H 0.82108 0.24817 0.7304 0.0
H3955 H 0.90254 0.30922 0.69024 0.0
H3956 H 0.90308 0.28141 0.71385 0.0
H3957 H 0.85557 0.30894 0.74751 0.0
H3958 H 0.8556 0.33728 0.72437 0.0
H3959 H 0.85441 0.26552 0.72056 0.0
H3960 H 0.88149 0.30501 0.77614 0.0
H3961 H 0.90696 0.32702 0.79082 0.0
H3962 H 0.95209 0.28329 0.77833 0.0
H3963 H 0.92688 0.26115 0.76328 0.0
C3964 C 0.84313 0.19584 0.78715 0.0
C3965 C 0.85905 0.18398 0.79362 0.0
C3966 C 0.84671 0.2124 0.77513 0.0
C3967 C 0.8662 0.2171 0.76916 0.0
C3968 C 0.88192 0.20441 0.77451 0.0
C3969 C 0.87836 0.18795 0.78668 0.0
C3970 C 0.8703 0.2361 0.75881 0.0
C3971 C 0.8842 0.24929 0.76727 0.0
C3972 C 0.85961 0.24188 0.7416 0.0
C3973 C 0.84625 0.22792 0.73082 0.0
C3974 C 0.85313 0.20899 0.72489 0.0
C3975 C 0.84059 0.19596 0.71456 0.0
C3976 C 0.82118 0.20177 0.70991 0.0
C3977 C 0.81425 0.2206 0.71562 0.0
C3978 C 0.82671 0.23366 0.72601 0.0
C3979 C 0.89294 0.30976 0.70326 0.0
C3980 C 0.87915 0.32528 0.70572 0.0
C3981 C 0.89323 0.29392 0.71666 0.0
C3982 C 0.87944 0.2933 0.73236 0.0
C3983 C 0.86654 0.30945 0.73563 0.0
C3984 C 0.86662 0.3256 0.7225 0.0
C3985 C 0.87599 0.27428 0.74259 0.0
C3986 C 0.86238 0.26105 0.73391 0.0
C3987 C 0.88726 0.26832 0.75925 0.0
C3988 C 0.90236 0.28157 0.76835 0.0
C3989 C 0.89688 0.3002 0.7763 0.0
C3990 C 0.91125 0.31267 0.78475 0.0
C3991 C 0.93114 0.30659 0.78544 0.0
C3992 C 0.93668 0.288 0.77775 0.0
C3993 C 0.92236 0.27548 0.76927 0.0
H3994 H 0.94225 0.31626 0.79199 0.0
H3995 H 0.81157 0.19167 0.70181 0.0
H3996 H 0.79926 0.38406 0.32959 0.0
H3997 H 0.77324 0.39094 0.30535 0.0
H3998 H 0.81387 0.37732 0.25721 0.0
H3999 H 0.84028 0.37012 0.28168 0.0
H4000 H 0.77293 0.41578 0.26387 0.0
H4001 H 0.79671 0.3441 0.24897 0.0
H4002 H 0.81071 0.31353 0.26398 0.0
H4003 H 0.76463 0.31401 0.30855 0.0
H4004 H 0.75056 0.34471 0.29393 0.0
H4005 H 0.69877 0.39761 0.19108 0.0
H4006 H 0.72805 0.40244 0.21163 0.0
H4007 H 0.70463 0.361 0.25504 0.0
H4008 H 0.67598 0.35473 0.23329 0.0
H4009 H 0.73945 0.35146 0.24935 0.0
H4010 H 0.71067 0.41563 0.26232 0.0
H4011 H 0.69545 0.44814 0.25442 0.0
H4012 H 0.7476 0.46481 0.22127 0.0
H4013 H 0.76306 0.43232 0.22881 0.0
C4014 C 0.80283 0.38292 0.31383 0.0
C4015 C 0.82159 0.37622 0.30741 0.0
C4016 C 0.788 0.38704 0.30004 0.0
C4017 C 0.79171 0.38449 0.27964 0.0
C4018 C 0.81088 0.37933 0.273 0.0
C4019 C 0.82586 0.37519 0.2869 0.0
C4020 C 0.77455 0.38388 0.26611 0.0
C4021 C 0.76575 0.40179 0.2601 0.0
C4022 C 0.76483 0.36564 0.2624 0.0
C4023 C 0.77266 0.34665 0.27042 0.0
C4024 C 0.78959 0.33764 0.26195 0.0
C4025 C 0.79755 0.32033 0.2704 0.0
C4026 C 0.78857 0.31186 0.28722 0.0
C4027 C 0.77156 0.3206 0.29554 0.0
C4028 C 0.76358 0.33792 0.28717 0.0
C4029 C 0.69965 0.38984 0.20522 0.0
C4030 C 0.6852 0.37577 0.21065 0.0
C4031 C 0.7164 0.39274 0.21708 0.0
C4032 C 0.71859 0.38228 0.23507 0.0
C4033 C 0.7034 0.36916 0.24115 0.0
C4034 C 0.68695 0.3657 0.22887 0.0
C4035 C 0.73753 0.38353 0.24643 0.0
C4036 C 0.74661 0.36562 0.25242 0.0
C4037 C 0.7472 0.40191 0.2505 0.0
C4038 C 0.73794 0.42147 0.24599 0.0
C4039 C 0.71883 0.42618 0.25324 0.0
C4040 C 0.71018 0.44461 0.24885 0.0
C4041 C 0.72053 0.45851 0.23731 0.0
C4042 C 0.73959 0.45403 0.23019 0.0
C4043 C 0.74832 0.43562 0.23455 0.0
H4044 H 0.7138 0.47277 0.23392 0.0
H4045 H 0.7948 0.29856 0.29382 0.0
H4046 H 0.61436 0.20614 0.68208 0.0
H4047 H 0.61001 0.23391 0.70533 0.0
H4048 H 0.63724 0.19921 0.75212 0.0
H4049 H 0.64109 0.17102 0.72886 0.0
H4050 H 0.60784 0.22416 0.7665 0.0
H4051 H 0.66548 0.22845 0.72451 0.0
H4052 H 0.68353 0.22801 0.69239 0.0
H4053 H 0.65045 0.27911 0.67281 0.0
H4054 H 0.63181 0.27956 0.70464 0.0
H4055 H 0.6545 0.29665 0.82475 0.0
H4056 H 0.64788 0.26966 0.80139 0.0
H4057 H 0.61677 0.3104 0.76266 0.0
H4058 H 0.62343 0.33788 0.7863 0.0
H4059 H 0.64475 0.28388 0.74318 0.0
H4060 H 0.58946 0.28029 0.78887 0.0
H4061 H 0.57393 0.27967 0.82228 0.0
H4062 H 0.60626 0.22633 0.83653 0.0
H4063 H 0.62219 0.22678 0.8033 0.0
C4064 C 0.61886 0.20425 0.6975 0.0
C4065 C 0.62819 0.18664 0.70376 0.0
C4066 C 0.61644 0.22011 0.71071 0.0
C4067 C 0.62375 0.21874 0.73024 0.0
C4068 C 0.63158 0.20054 0.73704 0.0
C4069 C 0.63373 0.18447 0.72382 0.0
C4070 C 0.6252 0.2369 0.74269 0.0
C4071 C 0.61596 0.23719 0.76146 0.0
C4072 C 0.63567 0.25394 0.73594 0.0
C4073 C 0.64709 0.25392 0.71689 0.0
C4074 C 0.66194 0.23951 0.71331 0.0
C4075 C 0.6723 0.23927 0.69516 0.0
C4076 C 0.66816 0.25352 0.68058 0.0
C4077 C 0.65364 0.26806 0.68412 0.0
C4078 C 0.64316 0.26831 0.7022 0.0
C4079 C 0.64625 0.29995 0.81126 0.0
C4080 C 0.63935 0.31931 0.80734 0.0
C4081 C 0.64243 0.28448 0.79798 0.0
C4082 C 0.63157 0.28801 0.78053 0.0
C4083 C 0.62506 0.30744 0.77619 0.0
C4084 C 0.62886 0.32305 0.78962 0.0
C4085 C 0.62735 0.27115 0.76698 0.0
C4086 C 0.63626 0.27101 0.74803 0.0
C4087 C 0.61691 0.25412 0.77373 0.0
C4088 C 0.60708 0.25363 0.79361 0.0
C4089 C 0.59334 0.26849 0.79916 0.0
C4090 C 0.58445 0.26816 0.81807 0.0
C4091 C 0.58912 0.25298 0.83153 0.0
C4092 C 0.60265 0.23807 0.82609 0.0
C4093 C 0.61158 0.23833 0.8072 0.0
H4094 H 0.58224 0.25276 0.84617 0.0
H4095 H 0.67621 0.25331 0.66655 0.0
H4096 H 0.32539 0.70904 0.11765 0.0
H4097 H 0.30166 0.73645 0.11512 0.0
H4098 H 0.25466 0.69781 0.13579 0.0
H4099 H 0.27845 0.67008 0.13807 0.0
H4100 H 0.24219 0.72425 0.10673 0.0
H4101 H 0.2777 0.72566 0.16859 0.0
H4102 H 0.30751 0.72522 0.19 0.0
H4103 H 0.32791 0.77955 0.16317 0.0
H4104 H 0.29837 0.78013 0.14132 0.0
H4105 H 0.17678 0.79544 0.14737 0.0
H4106 H 0.20009 0.76801 0.14266 0.0
H4107 H 0.245 0.80935 0.12256 0.0
H4108 H 0.22162 0.83718 0.12768 0.0
H4109 H 0.25905 0.78207 0.15 0.0
H4110 H 0.22159 0.78042 0.08876 0.0
H4111 H 0.19104 0.77987 0.06853 0.0
H4112 H 0.17312 0.72518 0.09634 0.0
H4113 H 0.20355 0.72545 0.1169 0.0
C4114 C 0.3099 0.70627 0.1212 0.0
C4115 C 0.30367 0.68761 0.12823 0.0
C4116 C 0.29642 0.72193 0.11983 0.0
C4117 C 0.2766 0.71918 0.12572 0.0
C4118 C 0.26998 0.70015 0.1313 0.0
C4119 C 0.2835 0.68437 0.13255 0.0
C4120 C 0.2633 0.73654 0.12751 0.0
C4121 C 0.24575 0.73683 0.11631 0.0
C4122 C 0.26822 0.75299 0.13986 0.0
C4123 C 0.28591 0.75282 0.15315 0.0
C4124 C 0.28862 0.73743 0.16713 0.0
C4125 C 0.30546 0.73716 0.17936 0.0
C4126 C 0.31963 0.75231 0.17791 0.0
C4127 C 0.31694 0.7678 0.16425 0.0
C4128 C 0.30015 0.76811 0.15194 0.0
C4129 C 0.19157 0.7987 0.1418 0.0
C4130 C 0.19743 0.81834 0.13767 0.0
C4131 C 0.20484 0.78301 0.13908 0.0
C4132 C 0.2241 0.78667 0.13194 0.0
C4133 C 0.2301 0.80631 0.12796 0.0
C4134 C 0.21679 0.82211 0.1308 0.0
C4135 C 0.23797 0.76985 0.1291 0.0
C4136 C 0.2556 0.7696 0.14024 0.0
C4137 C 0.233 0.75333 0.1169 0.0
C4138 C 0.21478 0.75304 0.10445 0.0
C4139 C 0.21108 0.76834 0.09065 0.0
C4140 C 0.19378 0.76807 0.07911 0.0
C4141 C 0.18009 0.75256 0.08118 0.0
C4142 C 0.18372 0.73721 0.09476 0.0
C4143 C 0.20102 0.73738 0.10633 0.0
H4144 H 0.1667 0.75241 0.07222 0.0
H4145 H 0.33266 0.75207 0.1874 0.0
H4146 H 0.30424 0.8229 0.41379 0.0
H4147 H 0.28175 0.79424 0.41404 0.0
H4148 H 0.26442 0.80759 0.35342 0.0
H4149 H 0.2856 0.83712 0.35388 0.0
H4150 H 0.23601 0.78847 0.36982 0.0
H4151 H 0.3073 0.77791 0.36598 0.0
H4152 H 0.34195 0.7803 0.3779 0.0
H4153 H 0.32619 0.74842 0.43118 0.0
H4154 H 0.29139 0.74605 0.41966 0.0
H4155 H 0.22102 0.69376 0.33022 0.0
H4156 H 0.24012 0.72404 0.33686 0.0
H4157 H 0.24202 0.70943 0.39955 0.0
H4158 H 0.22295 0.67906 0.39301 0.0
H4159 H 0.27687 0.72859 0.38474 0.0
H4160 H 0.20525 0.73663 0.38478 0.0
H4161 H 0.17166 0.73377 0.37025 0.0
H4162 H 0.18961 0.76999 0.32061 0.0
H4163 H 0.22341 0.77281 0.33469 0.0
C4164 C 0.29471 0.82028 0.401 0.0
C4165 C 0.2965 0.83202 0.38383 0.0
C4166 C 0.28214 0.80376 0.401 0.0
C4167 C 0.27215 0.79826 0.38342 0.0
C4168 C 0.27218 0.81138 0.36708 0.0
C4169 C 0.28418 0.82833 0.36737 0.0
C4170 C 0.26415 0.77782 0.38094 0.0
C4171 C 0.245 0.77542 0.373 0.0
C4172 C 0.27582 0.76069 0.38519 0.0
C4173 C 0.29674 0.76199 0.39206 0.0
C4174 C 0.31123 0.7715 0.38028 0.0
C4175 C 0.33088 0.77285 0.38696 0.0
C4176 C 0.33625 0.76456 0.40531 0.0
C4177 C 0.32199 0.75486 0.41699 0.0
C4178 C 0.30231 0.75351 0.41039 0.0
C4179 C 0.22611 0.69666 0.3453 0.0
C4180 C 0.22025 0.68436 0.36119 0.0
C4181 C 0.23688 0.71399 0.34908 0.0
C4182 C 0.24187 0.71915 0.36876 0.0
C4183 C 0.23805 0.70572 0.3843 0.0
C4184 C 0.22725 0.68838 0.38053 0.0
C4185 C 0.24898 0.73941 0.37338 0.0
C4186 C 0.26789 0.7417 0.38174 0.0
C4187 C 0.23726 0.75642 0.36913 0.0
C4188 C 0.2169 0.7548 0.36072 0.0
C4189 C 0.20208 0.74386 0.37069 0.0
C4190 C 0.183 0.74226 0.36255 0.0
C4191 C 0.17851 0.7517 0.34452 0.0
C4192 C 0.19311 0.7627 0.33457 0.0
C4193 C 0.21223 0.76431 0.34263 0.0
H4194 H 0.1637 0.75055 0.33831 0.0
H4195 H 0.35147 0.76562 0.41046 0.0
H4196 H 0.17076 0.79733 0.90037 0.0
H4197 H 0.19914 0.7758 0.90934 0.0
H4198 H 0.21404 0.76957 0.84684 0.0
H4199 H 0.18624 0.79111 0.83803 0.0
H4200 H 0.21965 0.73473 0.86777 0.0
H4201 H 0.23404 0.80622 0.87331 0.0
H4202 H 0.22954 0.8398 0.88778 0.0
H4203 H 0.24268 0.81697 0.94617 0.0
H4204 H 0.247 0.78318 0.93202 0.0
H4205 H 0.31661 0.72931 0.83935 0.0
H4206 H 0.28523 0.74578 0.84762 0.0
H4207 H 0.29457 0.73345 0.91011 0.0
H4208 H 0.32615 0.71688 0.90192 0.0
H4209 H 0.27477 0.77225 0.89975 0.0
H4210 H 0.26883 0.7016 0.89011 0.0
H4211 H 0.2747 0.66946 0.87309 0.0
H4212 H 0.24641 0.69168 0.82019 0.0
H4213 H 0.24065 0.72408 0.83677 0.0
C4214 C 0.17978 0.79075 0.88863 0.0
C4215 C 0.17652 0.79573 0.86856 0.0
C4216 C 0.19598 0.77863 0.89374 0.0
C4217 C 0.20871 0.77127 0.87874 0.0
C4218 C 0.20436 0.77505 0.85863 0.0
C4219 C 0.18852 0.78735 0.8536 0.0
C4220 C 0.22784 0.76155 0.88343 0.0
C4221 C 0.23165 0.74277 0.87502 0.0
C4222 C 0.24337 0.77197 0.89319 0.0
C4223 C 0.2405 0.79217 0.90169 0.0
C4224 C 0.23574 0.80834 0.88926 0.0
C4225 C 0.23327 0.8274 0.89739 0.0
C4226 C 0.23573 0.8305 0.9179 0.0
C4227 C 0.2407 0.81453 0.9303 0.0
C4228 C 0.24315 0.79543 0.92224 0.0
C4229 C 0.31237 0.73079 0.85492 0.0
C4230 C 0.32359 0.72166 0.86998 0.0
C4231 C 0.29441 0.74005 0.8596 0.0
C4232 C 0.28749 0.7403 0.87938 0.0
C4233 C 0.2997 0.7332 0.89475 0.0
C4234 C 0.31775 0.72388 0.89006 0.0
C4235 C 0.26664 0.74589 0.88332 0.0
C4236 C 0.26259 0.76381 0.89329 0.0
C4237 C 0.25089 0.7348 0.87477 0.0
C4238 C 0.25437 0.71532 0.86469 0.0
C4239 C 0.264 0.6997 0.8748 0.0
C4240 C 0.26728 0.68142 0.86523 0.0
C4241 C 0.26089 0.67853 0.84559 0.0
C4242 C 0.2513 0.69394 0.83543 0.0
C4243 C 0.248 0.71225 0.84491 0.0
H4244 H 0.26331 0.66432 0.83827 0.0
H4245 H 0.23385 0.84527 0.92416 0.0
H4246 H 0.17476 0.73395 0.65549 0.0
H4247 H 0.2049 0.75359 0.64836 0.0
H4248 H 0.22458 0.7082 0.60697 0.0
H4249 H 0.19408 0.6896 0.61276 0.0
H4250 H 0.24261 0.73091 0.65595 0.0
H4251 H 0.23416 0.72638 0.57911 0.0
H4252 H 0.2117 0.73294 0.55078 0.0
H4253 H 0.20343 0.79316 0.57115 0.0
H4254 H 0.22525 0.78663 0.60008 0.0
H4255 H 0.34065 0.76229 0.64636 0.0
H4256 H 0.31171 0.74271 0.63515 0.0
H4257 H 0.27977 0.79726 0.62294 0.0
H4258 H 0.30858 0.81654 0.6336 0.0
H4259 H 0.26824 0.76862 0.5976 0.0
H4260 H 0.27687 0.77818 0.66896 0.0
H4261 H 0.29571 0.77633 0.70051 0.0
H4262 H 0.30053 0.71279 0.69408 0.0
H4263 H 0.28202 0.71434 0.66227 0.0
C4264 C 0.18512 0.72886 0.64413 0.0
C4265 C 0.18216 0.7107 0.63428 0.0
C4266 C 0.20222 0.73994 0.64011 0.0
C4267 C 0.21655 0.73255 0.62668 0.0
C4268 C 0.21321 0.71465 0.6165 0.0
C4269 C 0.19589 0.70399 0.61996 0.0
C4270 C 0.23645 0.74134 0.62618 0.0
C4271 C 0.24837 0.73892 0.64311 0.0
C4272 C 0.24363 0.75191 0.6095 0.0
C4273 C 0.23092 0.75588 0.59195 0.0
C4274 C 0.22726 0.74089 0.57775 0.0
C4275 C 0.21468 0.74462 0.56156 0.0
C4276 C 0.20604 0.76343 0.55923 0.0
C4277 C 0.21002 0.77856 0.57305 0.0
C4278 C 0.2224 0.77482 0.58939 0.0
C4279 C 0.32757 0.76988 0.64076 0.0
C4280 C 0.32636 0.79067 0.64107 0.0
C4281 C 0.31119 0.75882 0.63431 0.0
C4282 C 0.29361 0.76864 0.6285 0.0
C4283 C 0.29321 0.78945 0.62729 0.0
C4284 C 0.30951 0.8004 0.63359 0.0
C4285 C 0.27465 0.75786 0.62728 0.0
C4286 C 0.26276 0.76008 0.6102 0.0
C4287 C 0.26726 0.7474 0.64404 0.0
C4288 C 0.27824 0.74639 0.6632 0.0
C4289 C 0.28206 0.76384 0.67423 0.0
C4290 C 0.29268 0.76284 0.69214 0.0
C4291 C 0.29936 0.74445 0.69927 0.0
C4292 C 0.29541 0.72702 0.6885 0.0
C4293 C 0.28488 0.72795 0.67053 0.0
H4294 H 0.30757 0.7437 0.71315 0.0
H4295 H 0.19636 0.7663 0.54666 0.0
H4296 H 0.84027 0.77823 0.18629 0.0
H4297 H 0.84681 0.75895 0.21637 0.0
H4298 H 0.89208 0.80094 0.23379 0.0
H4299 H 0.88497 0.82105 0.20385 0.0
H4300 H 0.8953 0.74839 0.23203 0.0
H4301 H 0.8668 0.81001 0.26149 0.0
H4302 H 0.84125 0.83647 0.26152 0.0
H4303 H 0.79527 0.79238 0.26666 0.0
H4304 H 0.82056 0.76564 0.2662 0.0
H4305 H 0.88218 0.72495 0.34588 0.0
H4306 H 0.88544 0.74753 0.31722 0.0
H4307 H 0.86422 0.70112 0.27807 0.0
H4308 H 0.86172 0.67837 0.3063 0.0
H4309 H 0.85274 0.75859 0.29194 0.0
H4310 H 0.88082 0.70103 0.24475 0.0
H4311 H 0.90471 0.67316 0.24159 0.0
H4312 H 0.94994 0.70872 0.26957 0.0
H4313 H 0.92608 0.73657 0.27334 0.0
C4314 C 0.85169 0.78342 0.19643 0.0
C4315 C 0.86205 0.80125 0.1927 0.0
C4316 C 0.85538 0.77234 0.21363 0.0
C4317 C 0.86979 0.7786 0.22732 0.0
C4318 C 0.88076 0.79599 0.22341 0.0
C4319 C 0.87673 0.80741 0.20633 0.0
C4320 C 0.87287 0.76687 0.24577 0.0
C4321 C 0.88625 0.75083 0.24527 0.0
C4322 C 0.86071 0.76976 0.26282 0.0
C4323 C 0.84556 0.78583 0.26357 0.0
C4324 C 0.85123 0.80595 0.26241 0.0
C4325 C 0.8368 0.82101 0.26254 0.0
C4326 C 0.81665 0.81611 0.26402 0.0
C4327 C 0.81089 0.79615 0.26546 0.0
C4328 C 0.82526 0.78105 0.26527 0.0
C4329 C 0.87869 0.71944 0.33107 0.0
C4330 C 0.87193 0.69979 0.32836 0.0
C4331 C 0.88051 0.73236 0.31472 0.0
C4332 C 0.87548 0.72593 0.29538 0.0
C4333 C 0.86894 0.70625 0.29265 0.0
C4334 C 0.86742 0.69325 0.30889 0.0
C4335 C 0.87543 0.7402 0.27838 0.0
C4336 C 0.86226 0.7565 0.27899 0.0
C4337 C 0.88755 0.73743 0.26128 0.0
C4338 C 0.90166 0.72063 0.25964 0.0
C4339 C 0.89582 0.70276 0.25041 0.0
C4340 C 0.90932 0.68699 0.24852 0.0
C4341 C 0.92881 0.68913 0.25546 0.0
C4342 C 0.9348 0.70702 0.26436 0.0
C4343 C 0.92126 0.72275 0.2665 0.0
H4344 H 0.93929 0.67696 0.25386 0.0
H4345 H 0.8055 0.82778 0.26411 0.0
H4346 H 0.31291 0.34262 0.80906 0.0
H4347 H 0.28857 0.34593 0.78254 0.0
H4348 H 0.28889 0.40983 0.78998 0.0
H4349 H 0.31328 0.40658 0.81708 0.0
H4350 H 0.25203 0.39767 0.78615 0.0
H4351 H 0.31073 0.38672 0.74791 0.0
H4352 H 0.34157 0.37177 0.73449 0.0
H4353 H 0.31053 0.31721 0.72226 0.0
H4354 H 0.27954 0.33174 0.73575 0.0
H4355 H 0.19306 0.40204 0.69432 0.0
H4356 H 0.2194 0.40737 0.71928 0.0
H4357 H 0.22256 0.34401 0.72938 0.0
H4358 H 0.19649 0.33856 0.70488 0.0
H4359 H 0.25933 0.36137 0.72189 0.0
H4360 H 0.20087 0.37295 0.76314 0.0
H4361 H 0.16963 0.39033 0.77178 0.0
H4362 H 0.20101 0.44592 0.77554 0.0
H4363 H 0.23242 0.42889 0.76666 0.0
C4364 C 0.30793 0.35745 0.8051 0.0
C4365 C 0.31513 0.37436 0.81528 0.0
C4366 C 0.29405 0.35933 0.78972 0.0
C4367 C 0.28705 0.37816 0.78393 0.0
C4368 C 0.29413 0.39513 0.79408 0.0
C4369 C 0.3081 0.39326 0.80955 0.0
C4370 C 0.27172 0.37979 0.7679 0.0
C4371 C 0.25385 0.39004 0.77195 0.0
C4372 C 0.27383 0.36973 0.74935 0.0
C4373 C 0.29282 0.36033 0.74291 0.0
C4374 C 0.31054 0.37144 0.74262 0.0
C4375 C 0.32801 0.36308 0.73487 0.0
C4376 C 0.32794 0.34363 0.72734 0.0
C4377 C 0.31051 0.33233 0.72794 0.0
C4378 C 0.293 0.34062 0.73564 0.0
C4379 C 0.19931 0.38929 0.70196 0.0
C4380 C 0.19268 0.36987 0.69752 0.0
C4381 C 0.2143 0.39237 0.71625 0.0
C4382 C 0.22294 0.37607 0.72617 0.0
C4383 C 0.21615 0.35679 0.72188 0.0
C4384 C 0.20117 0.35372 0.70785 0.0
C4385 C 0.23964 0.37863 0.74046 0.0
C4386 C 0.25773 0.36916 0.73604 0.0
C4387 C 0.23776 0.38952 0.75849 0.0
C4388 C 0.21894 0.39969 0.76403 0.0
C4389 C 0.20108 0.38891 0.76566 0.0
C4390 C 0.18335 0.39868 0.77063 0.0
C4391 C 0.18333 0.41922 0.77418 0.0
C4392 C 0.20105 0.43001 0.77281 0.0
C4393 C 0.21882 0.42031 0.7678 0.0
H4394 H 0.16958 0.42677 0.77799 0.0
H4395 H 0.34141 0.33728 0.7211 0.0
H4396 H 0.61249 0.71832 0.1708 0.0
H4397 H 0.60961 0.74075 0.19966 0.0
H4398 H 0.65475 0.70673 0.23032 0.0
H4399 H 0.65613 0.68339 0.20232 0.0
H4400 H 0.63174 0.71722 0.25643 0.0
H4401 H 0.66052 0.75722 0.2026 0.0
H4402 H 0.66021 0.77234 0.16901 0.0
H4403 H 0.60547 0.8025 0.18299 0.0
H4404 H 0.6054 0.78744 0.21658 0.0
H4405 H 0.67099 0.7862 0.32391 0.0
H4406 H 0.66462 0.76492 0.29532 0.0
H4407 H 0.61363 0.80074 0.27993 0.0
H4408 H 0.62023 0.82264 0.3089 0.0
H4409 H 0.63421 0.79042 0.24672 0.0
H4410 H 0.60823 0.75364 0.30208 0.0
H4411 H 0.60851 0.73835 0.33554 0.0
H4412 H 0.65846 0.70198 0.31863 0.0
H4413 H 0.65862 0.71719 0.28513 0.0
C4414 C 0.62157 0.71554 0.18386 0.0
C4415 C 0.63445 0.69902 0.18431 0.0
C4416 C 0.62017 0.72859 0.20032 0.0
C4417 C 0.63243 0.72608 0.21724 0.0
C4418 C 0.64507 0.70929 0.21766 0.0
C4419 C 0.64588 0.69585 0.20157 0.0
C4420 C 0.63234 0.74068 0.23451 0.0
C4421 C 0.63255 0.73319 0.25414 0.0
C4422 C 0.63256 0.76174 0.232 0.0
C4423 C 0.63288 0.7711 0.212 0.0
C4424 C 0.64842 0.76706 0.19847 0.0
C4425 C 0.6483 0.77561 0.17944 0.0
C4426 C 0.63281 0.78834 0.17386 0.0
C4427 C 0.61745 0.79263 0.18732 0.0
C4428 C 0.6175 0.78412 0.20636 0.0
C4429 C 0.6582 0.78952 0.31472 0.0
C4430 C 0.64584 0.80594 0.31914 0.0
C4431 C 0.65458 0.77724 0.29822 0.0
C4432 C 0.6383 0.78073 0.2856 0.0
C4433 C 0.62616 0.7975 0.28953 0.0
C4434 C 0.6299 0.81 0.30614 0.0
C4435 C 0.63439 0.76681 0.26839 0.0
C4436 C 0.63335 0.77443 0.24888 0.0
C4437 C 0.63355 0.74583 0.27097 0.0
C4438 C 0.63348 0.73663 0.29111 0.0
C4439 C 0.61935 0.74246 0.30553 0.0
C4440 C 0.61941 0.73379 0.3245 0.0
C4441 C 0.63348 0.71919 0.3292 0.0
C4442 C 0.64755 0.71326 0.31496 0.0
C4443 C 0.64754 0.72187 0.29596 0.0
H4444 H 0.63346 0.71244 0.34387 0.0
H4445 H 0.63272 0.79491 0.15911 0.0
H4446 H 0.32596 0.142 0.70756 0.0
H4447 H 0.30411 0.13858 0.73666 0.0
H4448 H 0.25476 0.12513 0.69773 0.0
H4449 H 0.27637 0.12982 0.66866 0.0
H4450 H 0.24164 0.14881 0.7236 0.0
H4451 H 0.28141 0.08907 0.7307 0.0
H4452 H 0.31261 0.06985 0.73365 0.0
H4453 H 0.32825 0.10313 0.78621 0.0
H4454 H 0.29726 0.12268 0.78345 0.0
H4455 H 0.17535 0.12449 0.80365 0.0
H4456 H 0.19683 0.1209 0.77406 0.0
H4457 H 0.24763 0.13876 0.80905 0.0
H4458 H 0.2266 0.14163 0.83851 0.0
H4459 H 0.25907 0.11115 0.78472 0.0
H4460 H 0.22081 0.17166 0.77711 0.0
H4461 H 0.18899 0.19006 0.77604 0.0
H4462 H 0.17068 0.15555 0.7252 0.0
H4463 H 0.20228 0.13674 0.72614 0.0
C4464 C 0.31057 0.13783 0.70525 0.0
C4465 C 0.303 0.13589 0.68577 0.0
C4466 C 0.29798 0.13586 0.72196 0.0
C4467 C 0.27762 0.13125 0.71967 0.0
C4468 C 0.27029 0.12871 0.70014 0.0
C4469 C 0.28273 0.13119 0.68346 0.0
C4470 C 0.26373 0.12998 0.73738 0.0
C4471 C 0.24541 0.14025 0.73678 0.0
C4472 C 0.26855 0.1193 0.75503 0.0
C4473 C 0.28709 0.10742 0.75678 0.0
C4474 C 0.29156 0.09234 0.74283 0.0
C4475 C 0.3092 0.08139 0.74448 0.0
C4476 C 0.32242 0.08529 0.76009 0.0
C4477 C 0.31801 0.10012 0.77412 0.0
C4478 C 0.3004 0.11113 0.77254 0.0
C4479 C 0.19115 0.12727 0.8051 0.0
C4480 C 0.19914 0.13339 0.82355 0.0
C4481 C 0.20345 0.12543 0.78809 0.0
C4482 C 0.22394 0.12993 0.78907 0.0
C4483 C 0.23196 0.13522 0.8077 0.0
C4484 C 0.2198 0.13689 0.82463 0.0
C4485 C 0.23709 0.12988 0.77083 0.0
C4486 C 0.25529 0.1195 0.7714 0.0
C4487 C 0.23222 0.14051 0.75322 0.0
C4488 C 0.21379 0.15263 0.75185 0.0
C4489 C 0.20999 0.168 0.76571 0.0
C4490 C 0.19199 0.17848 0.76514 0.0
C4491 C 0.17778 0.17386 0.75067 0.0
C4492 C 0.18167 0.15903 0.73647 0.0
C4493 C 0.19963 0.14847 0.737 0.0
H4494 H 0.16371 0.18171 0.75052 0.0
H4495 H 0.33607 0.07681 0.76133 0.0
H4496 H 0.20135 0.86303 0.83082 0.0
H4497 H 0.23098 0.86534 0.80974 0.0
H4498 H 0.1945 0.88306 0.75987 0.0
H4499 H 0.16475 0.88014 0.78074 0.0
H4500 H 0.21845 0.85479 0.74851 0.0
H4501 H 0.22777 0.91581 0.78566 0.0
H4502 H 0.23125 0.93658 0.81591 0.0
H4503 H 0.28208 0.90223 0.8339 0.0
H4504 H 0.27874 0.88107 0.8039 0.0
H4505 H 0.29983 0.87153 0.68286 0.0
H4506 H 0.2705 0.87747 0.70387 0.0
H4507 H 0.3039 0.85996 0.75594 0.0
H4508 H 0.33329 0.8546 0.73521 0.0
H4509 H 0.28113 0.88986 0.76538 0.0
H4510 H 0.27126 0.82767 0.73099 0.0
H4511 H 0.26853 0.80548 0.70166 0.0
H4512 H 0.2195 0.84014 0.67974 0.0
H4513 H 0.22211 0.8627 0.70881 0.0
C4514 C 0.19965 0.86785 0.81549 0.0
C4515 C 0.18063 0.87143 0.80749 0.0
C4516 C 0.21667 0.86919 0.80341 0.0
C4517 C 0.2151 0.87451 0.78316 0.0
C4518 C 0.19617 0.87887 0.7754 0.0
C4519 C 0.17915 0.87731 0.7874 0.0
C4520 C 0.2329 0.87419 0.7697 0.0
C4521 C 0.23202 0.86279 0.75205 0.0
C4522 C 0.25091 0.88404 0.77454 0.0
C4523 C 0.25289 0.89675 0.7926 0.0
C4524 C 0.23959 0.91259 0.79614 0.0
C4525 C 0.24156 0.92445 0.81324 0.0
C4526 C 0.25685 0.9207 0.82684 0.0
C4527 C 0.27023 0.9051 0.82336 0.0
C4528 C 0.26832 0.89319 0.80631 0.0
C4529 C 0.301 0.86922 0.69882 0.0
C4530 C 0.31892 0.8625 0.70731 0.0
C4531 C 0.28416 0.87247 0.71082 0.0
C4532 C 0.28482 0.8688 0.73149 0.0
C4533 C 0.30293 0.86286 0.74005 0.0
C4534 C 0.31977 0.85978 0.72813 0.0
C4535 C 0.26662 0.87052 0.74423 0.0
C4536 C 0.26747 0.88207 0.76176 0.0
C4537 C 0.24865 0.8606 0.73943 0.0
C4538 C 0.24703 0.84701 0.72196 0.0
C4539 C 0.26 0.83065 0.71984 0.0
C4540 C 0.25846 0.81799 0.70327 0.0
C4541 C 0.2439 0.82144 0.68881 0.0
C4542 C 0.2308 0.83751 0.69093 0.0
C4543 C 0.23229 0.85024 0.70745 0.0
H4544 H 0.24273 0.81162 0.67601 0.0
H4545 H 0.25835 0.92991 0.84006 0.0
H4546 H 0.16331 0.83235 0.22607 0.0
H4547 H 0.156 0.80363 0.24685 0.0
H4548 H 0.11 0.78541 0.20595 0.0
H4549 H 0.11755 0.81438 0.18453 0.0
H4550 H 0.10218 0.78097 0.25166 0.0
H4551 H 0.14605 0.76118 0.19926 0.0
H4552 H 0.17454 0.76424 0.1762 0.0
H4553 H 0.21484 0.7641 0.22588 0.0
H4554 H 0.18654 0.76144 0.24929 0.0
H4555 H 0.11778 0.67753 0.28995 0.0
H4556 H 0.11288 0.70532 0.26654 0.0
H4557 H 0.15193 0.742 0.30193 0.0
H4558 H 0.15634 0.71464 0.32569 0.0
H4559 H 0.15927 0.734 0.2549 0.0
H4560 H 0.11368 0.75777 0.30686 0.0
H4561 H 0.08467 0.75401 0.32916 0.0
H4562 H 0.04682 0.7447 0.2784 0.0
H4563 H 0.07572 0.74807 0.25579 0.0
C4564 C 0.15136 0.8225 0.22156 0.0
C4565 C 0.14113 0.8256 0.2035 0.0
C4566 C 0.14721 0.80604 0.23351 0.0
C4567 C 0.13265 0.79224 0.22786 0.0
C4568 C 0.12133 0.79591 0.21057 0.0
C4569 C 0.1256 0.81249 0.1984 0.0
C4570 C 0.13089 0.77338 0.23939 0.0
C4571 C 0.11445 0.77045 0.25204 0.0
C4572 C 0.14698 0.75972 0.24004 0.0
C4573 C 0.16412 0.76132 0.22606 0.0
C4574 C 0.16096 0.76203 0.20529 0.0
C4575 C 0.17709 0.76365 0.19215 0.0
C4576 C 0.19649 0.76442 0.19957 0.0
C4577 C 0.1998 0.76353 0.22016 0.0
C4578 C 0.18371 0.76196 0.23338 0.0
C4579 C 0.125 0.69165 0.29293 0.0
C4580 C 0.13733 0.69394 0.30975 0.0
C4581 C 0.1222 0.70748 0.27955 0.0
C4582 C 0.13201 0.72571 0.28255 0.0
C4583 C 0.14411 0.7281 0.29944 0.0
C4584 C 0.14653 0.71248 0.31306 0.0
C4585 C 0.13081 0.74186 0.26745 0.0
C4586 C 0.14682 0.74429 0.2542 0.0
C4587 C 0.11424 0.75484 0.26611 0.0
C4588 C 0.0969 0.75285 0.27967 0.0
C4589 C 0.09922 0.75465 0.30046 0.0
C4590 C 0.08279 0.75266 0.31316 0.0
C4591 C 0.06392 0.74903 0.30521 0.0
C4592 C 0.06145 0.74745 0.28454 0.0
C4593 C 0.07785 0.74941 0.27178 0.0
H4594 H 0.05121 0.74749 0.31506 0.0
H4595 H 0.20895 0.76566 0.18936 0.0
H4596 H 0.17669 0.65493 0.72462 0.0
H4597 H 0.2057 0.65065 0.74613 0.0
H4598 H 0.2338 0.61403 0.70115 0.0
H4599 H 0.20497 0.61892 0.67903 0.0
H4600 H 0.23014 0.60378 0.75179 0.0
H4601 H 0.25624 0.64496 0.69759 0.0
H4602 H 0.25396 0.67294 0.67389 0.0
H4603 H 0.24835 0.71416 0.72276 0.0
H4604 H 0.25003 0.68634 0.74676 0.0
H4605 H 0.32911 0.61255 0.79775 0.0
H4606 H 0.30232 0.60772 0.77315 0.0
H4607 H 0.27179 0.65935 0.79659 0.0
H4608 H 0.29803 0.66396 0.82132 0.0
H4609 H 0.27921 0.65898 0.7535 0.0
H4610 H 0.25219 0.62007 0.80718 0.0
H4611 H 0.25166 0.59347 0.83248 0.0
H4612 H 0.25755 0.54921 0.78636 0.0
H4613 H 0.25852 0.5756 0.76077 0.0
C4614 C 0.1889 0.64573 0.71936 0.0
C4615 C 0.18858 0.63723 0.70014 0.0
C4616 C 0.20548 0.64338 0.73165 0.0
C4617 C 0.22187 0.63216 0.72514 0.0
C4618 C 0.22129 0.62285 0.70634 0.0
C4619 C 0.20486 0.62563 0.69377 0.0
C4620 C 0.23975 0.63103 0.73792 0.0
C4621 C 0.24122 0.61552 0.75185 0.0
C4622 C 0.25375 0.64674 0.73833 0.0
C4623 C 0.25283 0.66351 0.72395 0.0
C4624 C 0.25416 0.65994 0.70328 0.0
C4625 C 0.25305 0.67578 0.68979 0.0
C4626 C 0.25082 0.69529 0.69682 0.0
C4627 C 0.24992 0.69902 0.71735 0.0
C4628 C 0.25093 0.68322 0.73089 0.0
C4629 C 0.31653 0.62268 0.79778 0.0
C4630 C 0.31561 0.63857 0.8115 0.0
C4631 C 0.30128 0.61991 0.78376 0.0
C4632 C 0.28516 0.63325 0.78305 0.0
C4633 C 0.28412 0.64892 0.79691 0.0
C4634 C 0.29906 0.65143 0.81112 0.0
C4635 C 0.26975 0.63163 0.76735 0.0
C4636 C 0.26856 0.64684 0.75306 0.0
C4637 C 0.25599 0.6157 0.76671 0.0
C4638 C 0.25581 0.59983 0.78208 0.0
C4639 C 0.25371 0.60469 0.80244 0.0
C4640 C 0.25324 0.58964 0.81684 0.0
C4641 C 0.25468 0.56966 0.81104 0.0
C4642 C 0.25649 0.56469 0.79083 0.0
C4643 C 0.25703 0.57969 0.77638 0.0
H4644 H 0.25429 0.55803 0.82221 0.0
H4645 H 0.24983 0.70751 0.68636 0.0
H4646 H 0.39818 0.828 0.30214 0.0
H4647 H 0.39976 0.80057 0.27792 0.0
H4648 H 0.34565 0.77613 0.30258 0.0
H4649 H 0.34483 0.80275 0.32754 0.0
H4650 H 0.36665 0.74694 0.29349 0.0
H4651 H 0.35017 0.80596 0.2554 0.0
H4652 H 0.35542 0.84008 0.24278 0.0
H4653 H 0.41128 0.82222 0.21698 0.0
H4654 H 0.40643 0.78804 0.22962 0.0
H4655 H 0.32571 0.69476 0.21253 0.0
H4656 H 0.33434 0.71979 0.23729 0.0
H4657 H 0.39379 0.72311 0.21323 0.0
H4658 H 0.38514 0.69761 0.18795 0.0
H4659 H 0.37551 0.76161 0.22142 0.0
H4660 H 0.38842 0.70078 0.25644 0.0
H4661 H 0.38067 0.66672 0.26779 0.0
H4662 H 0.32878 0.68846 0.29852 0.0
H4663 H 0.3361 0.72264 0.28716 0.0
C4664 C 0.38672 0.81666 0.30249 0.0
C4665 C 0.37135 0.81767 0.31682 0.0
C4666 C 0.3875 0.80101 0.28843 0.0
C4667 C 0.37252 0.78629 0.28781 0.0
C4668 C 0.35744 0.78712 0.30248 0.0
C4669 C 0.35696 0.80245 0.31684 0.0
C4670 C 0.37226 0.77014 0.27199 0.0
C4671 C 0.36846 0.75033 0.27776 0.0
C4672 C 0.37515 0.77405 0.25129 0.0
C4673 C 0.37803 0.79453 0.24363 0.0
C4674 C 0.36361 0.80936 0.24713 0.0
C4675 C 0.36651 0.82869 0.23996 0.0
C4676 C 0.3837 0.83333 0.22913 0.0
C4677 C 0.39799 0.81862 0.2254 0.0
C4678 C 0.39517 0.79926 0.23254 0.0
C4679 C 0.34072 0.70064 0.2124 0.0
C4680 C 0.35474 0.69399 0.19814 0.0
C4681 C 0.34563 0.71503 0.22671 0.0
C4682 C 0.36476 0.72336 0.22736 0.0
C4683 C 0.37891 0.71691 0.21312 0.0
C4684 C 0.37401 0.70223 0.19874 0.0
C4685 C 0.36947 0.73874 0.24302 0.0
C4686 C 0.37402 0.75832 0.23721 0.0
C4687 C 0.367 0.73472 0.26366 0.0
C4688 C 0.36277 0.71426 0.27087 0.0
C4689 C 0.37531 0.69829 0.26555 0.0
C4690 C 0.371 0.67896 0.27199 0.0
C4691 C 0.35424 0.67543 0.28385 0.0
C4692 C 0.34178 0.69123 0.28935 0.0
C4693 C 0.34602 0.71059 0.28295 0.0
H4694 H 0.35091 0.66045 0.2888 0.0
H4695 H 0.38592 0.8483 0.2236 0.0
H4696 H 0.78663 0.19343 0.83538 0.0
H4697 H 0.76561 0.22216 0.84307 0.0
H4698 H 0.79059 0.22524 0.90226 0.0
H4699 H 0.81241 0.19658 0.89434 0.0
H4700 H 0.74434 0.22734 0.89709 0.0
H4701 H 0.80631 0.25816 0.87707 0.0
H4702 H 0.83529 0.26265 0.85486 0.0
H4703 H 0.79641 0.27705 0.80616 0.0
H4704 H 0.76717 0.27238 0.82804 0.0
H4705 H 0.72166 0.3424 0.89164 0.0
H4706 H 0.74355 0.31326 0.89431 0.0
H4707 H 0.69697 0.27597 0.87063 0.0
H4708 H 0.67483 0.30479 0.86877 0.0
H4709 H 0.75575 0.29135 0.86192 0.0
H4710 H 0.69801 0.23963 0.88207 0.0
H4711 H 0.66912 0.23399 0.90426 0.0
H4712 H 0.70095 0.26021 0.95328 0.0
H4713 H 0.72971 0.2667 0.93111 0.0
C4714 C 0.78763 0.20013 0.8501 0.0
C4715 C 0.8011 0.19271 0.86431 0.0
C4716 C 0.77562 0.21658 0.85443 0.0
C4717 C 0.77649 0.22578 0.87322 0.0
C4718 C 0.78969 0.21828 0.88766 0.0
C4719 C 0.80217 0.20202 0.88313 0.0
C4720 C 0.76377 0.24348 0.87729 0.0
C4721 C 0.74697 0.24141 0.88959 0.0
C4722 C 0.76701 0.26176 0.86732 0.0
C4723 C 0.78455 0.26476 0.85416 0.0
C4724 C 0.80394 0.26212 0.86159 0.0
C4725 C 0.82041 0.26474 0.84907 0.0
C4726 C 0.81769 0.27008 0.8291 0.0
C4727 C 0.79849 0.27289 0.82162 0.0
C4728 C 0.78196 0.27029 0.83409 0.0
C4729 C 0.7159 0.32786 0.88761 0.0
C4730 C 0.69643 0.3259 0.88021 0.0
C4731 C 0.72844 0.31122 0.88907 0.0
C4732 C 0.72188 0.29226 0.883 0.0
C4733 C 0.70223 0.29019 0.87614 0.0
C4734 C 0.68957 0.30677 0.87498 0.0
C4735 C 0.73623 0.27529 0.88176 0.0
C4736 C 0.75327 0.27742 0.86972 0.0
C4737 C 0.73315 0.25704 0.89183 0.0
C4738 C 0.71577 0.25388 0.90495 0.0
C4739 C 0.6987 0.24437 0.89754 0.0
C4740 C 0.68236 0.24111 0.91007 0.0
C4741 C 0.68315 0.24689 0.93013 0.0
C4742 C 0.70027 0.25599 0.93768 0.0
C4743 C 0.71652 0.25962 0.92511 0.0
H4744 H 0.67055 0.24422 0.93986 0.0
H4745 H 0.83046 0.27209 0.81942 0.0
H4746 H 0.72974 0.17001 0.64084 0.0
H4747 H 0.75098 0.19941 0.63884 0.0
H4748 H 0.69914 0.23708 0.63476 0.0
H4749 H 0.67761 0.20762 0.63685 0.0
H4750 H 0.73134 0.24799 0.608 0.0
H4751 H 0.72011 0.23945 0.67853 0.0
H4752 H 0.71642 0.21814 0.70834 0.0
H4753 H 0.77593 0.1963 0.70031 0.0
H4754 H 0.78022 0.21788 0.67071 0.0
H4755 H 0.7815 0.33848 0.63273 0.0
H4756 H 0.75861 0.31024 0.6318 0.0
H4757 H 0.80746 0.26994 0.64241 0.0
H4758 H 0.83051 0.2982 0.64355 0.0
H4759 H 0.77541 0.2609 0.66606 0.0
H4760 H 0.78652 0.27421 0.59608 0.0
H4761 H 0.78766 0.29526 0.56596 0.0
H4762 H 0.72531 0.30803 0.57225 0.0
H4763 H 0.72385 0.28728 0.60259 0.0
C4764 C 0.72277 0.18448 0.63924 0.0
C4765 C 0.7019 0.18637 0.63899 0.0
C4766 C 0.73498 0.20132 0.63818 0.0
C4767 C 0.72668 0.22048 0.63681 0.0
C4768 C 0.70589 0.22244 0.63578 0.0
C4769 C 0.6936 0.20556 0.63697 0.0
C4770 C 0.73985 0.23834 0.63738 0.0
C4771 C 0.74079 0.25101 0.62077 0.0
C4772 C 0.7523 0.24218 0.65395 0.0
C4773 C 0.75048 0.23026 0.67247 0.0
C4774 C 0.73248 0.23023 0.68325 0.0
C4775 C 0.7303 0.21815 0.7001 0.0
C4776 C 0.74599 0.20595 0.70623 0.0
C4777 C 0.76392 0.20593 0.69561 0.0
C4778 C 0.76629 0.21819 0.6789 0.0
C4779 C 0.78747 0.32361 0.63464 0.0
C4780 C 0.80794 0.32068 0.63805 0.0
C4781 C 0.77431 0.30743 0.63411 0.0
C4782 C 0.78125 0.28786 0.6369 0.0
C4783 C 0.8017 0.28486 0.64021 0.0
C4784 C 0.8149 0.30105 0.64069 0.0
C4785 C 0.76717 0.27061 0.63649 0.0
C4786 C 0.76601 0.258 0.65322 0.0
C4787 C 0.75431 0.26703 0.62007 0.0
C4788 C 0.75512 0.27934 0.60171 0.0
C4789 C 0.77308 0.28162 0.59112 0.0
C4790 C 0.77378 0.29348 0.574 0.0
C4791 C 0.75658 0.30302 0.56722 0.0
C4792 C 0.73863 0.30066 0.57753 0.0
C4793 C 0.73785 0.28883 0.59468 0.0
H4794 H 0.75715 0.3122 0.55397 0.0
H4795 H 0.74423 0.19646 0.71917 0.0
H4796 H 0.81722 0.20794 0.1698 0.0
H4797 H 0.78801 0.22901 0.16533 0.0
H4798 H 0.77734 0.20196 0.10782 0.0
H4799 H 0.80663 0.18014 0.11257 0.0
H4800 H 0.77761 0.24491 0.10757 0.0
H4801 H 0.73718 0.19447 0.14093 0.0
H4802 H 0.72685 0.17005 0.16644 0.0
H4803 H 0.73951 0.21242 0.2129 0.0
H4804 H 0.74918 0.23734 0.18756 0.0
H4805 H 0.67493 0.28978 0.11209 0.0
H4806 H 0.70225 0.26555 0.10848 0.0
H4807 H 0.7358 0.29699 0.15334 0.0
H4808 H 0.70904 0.3215 0.15661 0.0
H4809 H 0.72211 0.24987 0.15639 0.0
H4810 H 0.75895 0.30151 0.12141 0.0
H4811 H 0.76373 0.32648 0.09489 0.0
H4812 H 0.75674 0.28104 0.05015 0.0
H4813 H 0.7516 0.25582 0.07645 0.0
C4814 C 0.80857 0.2063 0.15625 0.0
C4815 C 0.81427 0.19247 0.14147 0.0
C4816 C 0.79176 0.21828 0.15379 0.0
C4817 C 0.78036 0.21704 0.13631 0.0
C4818 C 0.78585 0.20309 0.1215 0.0
C4819 C 0.80252 0.19063 0.12421 0.0
C4820 C 0.76376 0.23148 0.13331 0.0
C4821 C 0.76524 0.24573 0.11799 0.0
C4822 C 0.74784 0.23297 0.14711 0.0
C4823 C 0.74412 0.2176 0.16243 0.0
C4824 C 0.73795 0.19847 0.15661 0.0
C4825 C 0.73195 0.18466 0.171 0.0
C4826 C 0.73252 0.18968 0.19128 0.0
C4827 C 0.73905 0.20856 0.1972 0.0
C4828 C 0.74465 0.22258 0.18282 0.0
C4829 C 0.6883 0.29174 0.12087 0.0
C4830 C 0.68976 0.30755 0.13465 0.0
C4831 C 0.70392 0.27796 0.11873 0.0
C4832 C 0.7211 0.27961 0.13051 0.0
C4833 C 0.72279 0.29562 0.14391 0.0
C4834 C 0.70743 0.30961 0.14575 0.0
C4835 C 0.73608 0.26333 0.13085 0.0
C4836 C 0.73433 0.24887 0.14578 0.0
C4837 C 0.75166 0.26172 0.11669 0.0
C4838 C 0.7545 0.27686 0.10088 0.0
C4839 C 0.7581 0.29689 0.10592 0.0
C4840 C 0.76098 0.31108 0.09093 0.0
C4841 C 0.76043 0.30537 0.07084 0.0
C4842 C 0.75708 0.28545 0.06571 0.0
C4843 C 0.75419 0.27121 0.08065 0.0
H4844 H 0.76268 0.31637 0.05925 0.0
H4845 H 0.72799 0.17892 0.20241 0.0
H4846 H 0.68004 0.22131 0.34269 0.0
H4847 H 0.7106 0.24035 0.34686 0.0
H4848 H 0.72708 0.20347 0.39673 0.0
H4849 H 0.69636 0.18354 0.39209 0.0
H4850 H 0.72915 0.25005 0.40102 0.0
H4851 H 0.75211 0.19462 0.36212 0.0
H4852 H 0.75125 0.17032 0.33448 0.0
H4853 H 0.75683 0.21778 0.29194 0.0
H4854 H 0.75727 0.24245 0.31934 0.0
H4855 H 0.83552 0.28301 0.39357 0.0
H4856 H 0.8068 0.26031 0.39532 0.0
H4857 H 0.77404 0.29873 0.35575 0.0
H4858 H 0.80224 0.32185 0.35462 0.0
H4859 H 0.78195 0.24888 0.349 0.0
H4860 H 0.75198 0.30381 0.38679 0.0
H4861 H 0.75147 0.32892 0.41376 0.0
H4862 H 0.75843 0.28272 0.45746 0.0
H4863 H 0.75939 0.25735 0.43065 0.0
C4864 C 0.69005 0.2172 0.35467 0.0
C4865 C 0.68564 0.20099 0.36726 0.0
C4866 C 0.7076 0.22811 0.35695 0.0
C4867 C 0.72111 0.22341 0.37213 0.0
C4868 C 0.71678 0.20737 0.38495 0.0
C4869 C 0.69932 0.19601 0.38231 0.0
C4870 C 0.73962 0.23552 0.37424 0.0
C4871 C 0.74089 0.24949 0.38987 0.0
C4872 C 0.75471 0.23521 0.3594 0.0
C4873 C 0.75445 0.22043 0.34282 0.0
C4874 C 0.75288 0.19992 0.34687 0.0
C4875 C 0.75252 0.18606 0.33123 0.0
C4876 C 0.75391 0.1925 0.31145 0.0
C4877 C 0.7557 0.21281 0.30727 0.0
C4878 C 0.75601 0.22675 0.32286 0.0
C4879 C 0.82205 0.28679 0.38555 0.0
C4880 C 0.82109 0.30437 0.37417 0.0
C4881 C 0.80568 0.27379 0.38653 0.0
C4882 C 0.78821 0.27788 0.37578 0.0
C4883 C 0.78724 0.29539 0.36438 0.0
C4884 C 0.80337 0.30864 0.36383 0.0
C4885 C 0.77134 0.26345 0.37566 0.0
C4886 C 0.77036 0.24916 0.36033 0.0
C4887 C 0.75642 0.26358 0.39062 0.0
C4888 C 0.75621 0.27876 0.40671 0.0
C4889 C 0.75378 0.29905 0.40212 0.0
C4890 C 0.75331 0.31332 0.41738 0.0
C4891 C 0.75504 0.30744 0.43731 0.0
C4892 C 0.75719 0.28726 0.44201 0.0
C4893 C 0.75773 0.27294 0.42679 0.0
H4894 H 0.75462 0.3185 0.44911 0.0
H4895 H 0.75368 0.18173 0.29937 0.0
loop_
_geom_bond_atom_site_label_1
_geom_bond_atom_site_label_2
_geom_bond_distance
_geom_bond_site_symmetry_2
_ccdc_geom_bond_type
O0 Tb1 2.292 . S
O0 C3 1.255 . S
Tb1 O0 2.292 . S
Tb1 O17 2.326 . S
Tb1 O19 2.500 . S
Tb1 O20 2.473 . S
Tb1 O23 2.324 . S
Eu2 O6 2.292 . S
Eu2 C7 2.852 . S
Eu2 O18 2.324 . S
Eu2 O22 2.326 . S
Eu2 O24 2.500 . S
Eu2 O25 2.473 . S
C3 O0 1.255 . S
C3 O4 1.247 . S
O4 C3 1.247 . S
C5 O17 1.242 . S
C5 O18 1.258 . S
O6 Eu2 2.292 . S
O6 C8 1.255 . S
C7 Eu2 2.852 . S
C7 C11 1.503 . S
C7 O24 1.273 . S
C7 O25 1.257 . S
C8 O6 1.255 . S
C8 O9 1.247 . S
O9 C8 1.247 . S
C10 O22 1.242 . S
C10 O23 1.258 . S
C11 C7 1.503 . S
C11 C12 1.379 . S
C11 C16 1.392 . S
C12 C11 1.379 . S
C12 C13 1.404 . S
C12 H26 0.929 . S
C13 C12 1.404 . S
C13 C14 1.389 . S
C14 C13 1.389 . S
C14 C15 1.399 . S
C14 H27 0.931 . S
C15 C14 1.399 . S
C15 C16 1.390 . S
C16 C11 1.392 . S
C16 C15 1.390 . S
C16 H28 0.929 . S
O17 Tb1 2.326 . S
O17 C5 1.242 . S
O18 Eu2 2.324 . S
O18 C5 1.258 . S
O19 Tb1 2.500 . S
O19 C21 1.273 . S
O20 Tb1 2.473 . S
O20 C21 1.257 . S
C21 O19 1.273 . S
C21 O20 1.257 . S
O22 Eu2 2.326 . S
O22 C10 1.242 . S
O23 Tb1 2.324 . S
O23 C10 1.258 . S
O24 Eu2 2.500 . S
O24 C7 1.273 . S
O25 Eu2 2.473 . S
O25 C7 1.257 . S
H26 C12 0.929 . S
H27 C14 0.931 . S
H28 C16 0.929 . S
O29 Tb30 2.292 . S
O29 C32 1.255 . S
Tb30 O29 2.292 . S
Tb30 O46 2.326 . S
Tb30 O48 2.500 . S
Tb30 O49 2.473 . S
Tb30 O52 2.324 . S
Eu31 O35 2.292 . S
Eu31 C36 2.852 . S
Eu31 O47 2.324 . S
Eu31 O51 2.326 . S
Eu31 O53 2.500 . S
Eu31 O54 2.473 . S
C32 O29 1.255 . S
C32 O33 1.247 . S
O33 C32 1.247 . S
C34 O46 1.242 . S
C34 O47 1.258 . S
O35 Eu31 2.292 . S
O35 C37 1.255 . S
C36 Eu31 2.852 . S
C36 C40 1.503 . S
C36 O53 1.273 . S
C36 O54 1.257 . S
C37 O35 1.255 . S
C37 O38 1.247 . S
O38 C37 1.247 . S
C39 O51 1.242 . S
C39 O52 1.258 . S
C40 C36 1.503 . S
C40 C41 1.379 . S
C40 C45 1.392 . S
C41 C40 1.379 . S
C41 C42 1.404 . S
C41 H55 0.929 . S
C42 C41 1.404 . S
C42 C43 1.389 . S
C43 C42 1.389 . S
C43 C44 1.399 . S
C43 H56 0.931 . S
C44 C43 1.399 . S
C44 C45 1.390 . S
C45 C40 1.392 . S
C45 C44 1.390 . S
C45 H57 0.929 . S
O46 Tb30 2.326 . S
O46 C34 1.242 . S
O47 Eu31 2.324 . S
O47 C34 1.258 . S
O48 Tb30 2.500 . S
O48 C50 1.273 . S
O49 Tb30 2.473 . S
O49 C50 1.257 . S
C50 O48 1.273 . S
C50 O49 1.257 . S
O51 Eu31 2.326 . S
O51 C39 1.242 . S
O52 Tb30 2.324 . S
O52 C39 1.258 . S
O53 Eu31 2.500 . S
O53 C36 1.273 . S
O54 Eu31 2.473 . S
O54 C36 1.257 . S
H55 C41 0.929 . S
H56 C43 0.931 . S
H57 C45 0.929 . S
O58 Tb59 2.292 . S
O58 C61 1.255 . S
Tb59 O58 2.292 . S
Tb59 O75 2.326 . S
Tb59 O77 2.500 . S
Tb59 O78 2.473 . S
Tb59 O81 2.324 . S
Eu60 O64 2.292 . S
Eu60 C65 2.852 . S
Eu60 O76 2.324 . S
Eu60 O80 2.326 . S
Eu60 O82 2.500 . S
Eu60 O83 2.473 . S
C61 O58 1.255 . S
C61 O62 1.247 . S
O62 C61 1.247 . S
C63 O75 1.242 . S
C63 O76 1.258 . S
O64 Eu60 2.292 . S
O64 C66 1.255 . S
C65 Eu60 2.852 . S
C65 C69 1.503 . S
C65 O82 1.273 . S
C65 O83 1.257 . S
C66 O64 1.255 . S
C66 O67 1.247 . S
O67 C66 1.247 . S
C68 O80 1.242 . S
C68 O81 1.258 . S
C69 C65 1.503 . S
C69 C70 1.379 . S
C69 C74 1.392 . S
C70 C69 1.379 . S
C70 C71 1.404 . S
C70 H84 0.929 . S
C71 C70 1.404 . S
C71 C72 1.389 . S
C72 C71 1.389 . S
C72 C73 1.399 . S
C72 H85 0.931 . S
C73 C72 1.399 . S
C73 C74 1.390 . S
C74 C69 1.392 . S
C74 C73 1.390 . S
C74 H86 0.929 . S
O75 Tb59 2.326 . S
O75 C63 1.242 . S
O76 Eu60 2.324 . S
O76 C63 1.258 . S
O77 Tb59 2.500 . S
O77 C79 1.273 . S
O78 Tb59 2.473 . S
O78 C79 1.257 . S
C79 O77 1.273 . S
C79 O78 1.257 . S
O80 Eu60 2.326 . S
O80 C68 1.242 . S
O81 Tb59 2.324 . S
O81 C68 1.258 . S
O82 Eu60 2.500 . S
O82 C65 1.273 . S
O83 Eu60 2.473 . S
O83 C65 1.257 . S
H84 C70 0.929 . S
H85 C72 0.931 . S
H86 C74 0.929 . S
O87 Tb88 2.292 . S
O87 C90 1.255 . S
Tb88 O87 2.292 . S
Tb88 O104 2.326 . S
Tb88 O106 2.500 . S
Tb88 O107 2.473 . S
Tb88 O110 2.324 . S
Eu89 O93 2.292 . S
Eu89 C94 2.852 . S
Eu89 O105 2.324 . S
Eu89 O109 2.326 . S
Eu89 O111 2.500 . S
Eu89 O112 2.473 . S
C90 O87 1.255 . S
C90 O91 1.247 . S
O91 C90 1.247 . S
C92 O104 1.242 . S
C92 O105 1.258 . S
O93 Eu89 2.292 . S
O93 C95 1.255 . S
C94 Eu89 2.852 . S
C94 C98 1.503 . S
C94 O111 1.273 . S
C94 O112 1.257 . S
C95 O93 1.255 . S
C95 O96 1.247 . S
O96 C95 1.247 . S
C97 O109 1.242 . S
C97 O110 1.258 . S
C98 C94 1.503 . S
C98 C99 1.379 . S
C98 C103 1.392 . S
C99 C98 1.379 . S
C99 C100 1.404 . S
C99 H113 0.929 . S
C100 C99 1.404 . S
C100 C101 1.389 . S
C101 C100 1.389 . S
C101 C102 1.399 . S
C101 H114 0.931 . S
C102 C101 1.399 . S
C102 C103 1.390 . S
C103 C98 1.392 . S
C103 C102 1.390 . S
C103 H115 0.929 . S
O104 Tb88 2.326 . S
O104 C92 1.242 . S
O105 Eu89 2.324 . S
O105 C92 1.258 . S
O106 Tb88 2.500 . S
O106 C108 1.273 . S
O107 Tb88 2.473 . S
O107 C108 1.257 . S
C108 O106 1.273 . S
C108 O107 1.257 . S
O109 Eu89 2.326 . S
O109 C97 1.242 . S
O110 Tb88 2.324 . S
O110 C97 1.258 . S
O111 Eu89 2.500 . S
O111 C94 1.273 . S
O112 Eu89 2.473 . S
O112 C94 1.257 . S
H113 C99 0.929 . S
H114 C101 0.931 . S
H115 C103 0.929 . S
O116 Tb117 2.292 . S
O116 C119 1.255 . S
Tb117 O116 2.292 . S
Tb117 O133 2.326 . S
Tb117 O135 2.500 . S
Tb117 O136 2.473 . S
Tb117 O139 2.324 . S
Eu118 O122 2.292 . S
Eu118 C123 2.852 . S
Eu118 O134 2.324 . S
Eu118 O138 2.326 . S
Eu118 O140 2.500 . S
Eu118 O141 2.473 . S
C119 O116 1.255 . S
C119 O120 1.247 . S
O120 C119 1.247 . S
C121 O133 1.242 . S
C121 O134 1.258 . S
O122 Eu118 2.292 . S
O122 C124 1.255 . S
C123 Eu118 2.852 . S
C123 C127 1.503 . S
C123 O140 1.273 . S
C123 O141 1.257 . S
C124 O122 1.255 . S
C124 O125 1.247 . S
O125 C124 1.247 . S
C126 O138 1.242 . S
C126 O139 1.258 . S
C127 C123 1.503 . S
C127 C128 1.379 . S
C127 C132 1.392 . S
C128 C127 1.379 . S
C128 C129 1.404 . S
C128 H142 0.929 . S
C129 C128 1.404 . S
C129 C130 1.389 . S
C130 C129 1.389 . S
C130 C131 1.399 . S
C130 H143 0.931 . S
C131 C130 1.399 . S
C131 C132 1.390 . S
C132 C127 1.392 . S
C132 C131 1.390 . S
C132 H144 0.929 . S
O133 Tb117 2.326 . S
O133 C121 1.242 . S
O134 Eu118 2.324 . S
O134 C121 1.258 . S
O135 Tb117 2.500 . S
O135 C137 1.273 . S
O136 Tb117 2.473 . S
O136 C137 1.257 . S
C137 O135 1.273 . S
C137 O136 1.257 . S
O138 Eu118 2.326 . S
O138 C126 1.242 . S
O139 Tb117 2.324 . S
O139 C126 1.258 . S
O140 Eu118 2.500 . S
O140 C123 1.273 . S
O141 Eu118 2.473 . S
O141 C123 1.257 . S
H142 C128 0.929 . S
H143 C130 0.931 . S
H144 C132 0.929 . S
O145 Tb146 2.292 . S
O145 C148 1.255 . S
Tb146 O145 2.292 . S
Tb146 O162 2.326 . S
Tb146 O164 2.500 . S
Tb146 O165 2.473 . S
Tb146 O168 2.324 . S
Eu147 O151 2.292 . S
Eu147 C152 2.852 . S
Eu147 O163 2.324 . S
Eu147 O167 2.326 . S
Eu147 O169 2.500 . S
Eu147 O170 2.473 . S
C148 O145 1.255 . S
C148 O149 1.247 . S
O149 C148 1.247 . S
C150 O162 1.242 . S
C150 O163 1.258 . S
O151 Eu147 2.292 . S
O151 C153 1.255 . S
C152 Eu147 2.852 . S
C152 C156 1.503 . S
C152 O169 1.273 . S
C152 O170 1.257 . S
C153 O151 1.255 . S
C153 O154 1.247 . S
O154 C153 1.247 . S
C155 O167 1.242 . S
C155 O168 1.258 . S
C156 C152 1.503 . S
C156 C157 1.379 . S
C156 C161 1.392 . S
C157 C156 1.379 . S
C157 C158 1.404 . S
C157 H171 0.929 . S
C158 C157 1.404 . S
C158 C159 1.389 . S
C159 C158 1.389 . S
C159 C160 1.399 . S
C159 H172 0.931 . S
C160 C159 1.399 . S
C160 C161 1.390 . S
C161 C156 1.392 . S
C161 C160 1.390 . S
C161 H173 0.929 . S
O162 Tb146 2.326 . S
O162 C150 1.242 . S
O163 Eu147 2.324 . S
O163 C150 1.258 . S
O164 Tb146 2.500 . S
O164 C166 1.273 . S
O165 Tb146 2.473 . S
O165 C166 1.257 . S
C166 O164 1.273 . S
C166 O165 1.257 . S
O167 Eu147 2.326 . S
O167 C155 1.242 . S
O168 Tb146 2.324 . S
O168 C155 1.258 . S
O169 Eu147 2.500 . S
O169 C152 1.273 . S
O170 Eu147 2.473 . S
O170 C152 1.257 . S
H171 C157 0.929 . S
H172 C159 0.931 . S
H173 C161 0.929 . S
O174 Tb175 2.292 . S
O174 C177 1.255 . S
Tb175 O174 2.292 . S
Tb175 O191 2.326 . S
Tb175 O193 2.500 . S
Tb175 O194 2.473 . S
Tb175 O197 2.324 . S
Eu176 O180 2.292 . S
Eu176 C181 2.852 . S
Eu176 O192 2.324 . S
Eu176 O196 2.326 . S
Eu176 O198 2.500 . S
Eu176 O199 2.473 . S
C177 O174 1.255 . S
C177 O178 1.247 . S
O178 C177 1.247 . S
C179 O191 1.242 . S
C179 O192 1.258 . S
O180 Eu176 2.292 . S
O180 C182 1.255 . S
C181 Eu176 2.852 . S
C181 C185 1.503 . S
C181 O198 1.273 . S
C181 O199 1.257 . S
C182 O180 1.255 . S
C182 O183 1.247 . S
O183 C182 1.247 . S
C184 O196 1.242 . S
C184 O197 1.258 . S
C185 C181 1.503 . S
C185 C186 1.379 . S
C185 C190 1.392 . S
C186 C185 1.379 . S
C186 C187 1.404 . S
C186 H200 0.929 . S
C187 C186 1.404 . S
C187 C188 1.389 . S
C188 C187 1.389 . S
C188 C189 1.399 . S
C188 H201 0.931 . S
C189 C188 1.399 . S
C189 C190 1.390 . S
C190 C185 1.392 . S
C190 C189 1.390 . S
C190 H202 0.929 . S
O191 Tb175 2.326 . S
O191 C179 1.242 . S
O192 Eu176 2.324 . S
O192 C179 1.258 . S
O193 Tb175 2.500 . S
O193 C195 1.273 . S
O194 Tb175 2.473 . S
O194 C195 1.257 . S
C195 O193 1.273 . S
C195 O194 1.257 . S
O196 Eu176 2.326 . S
O196 C184 1.242 . S
O197 Tb175 2.324 . S
O197 C184 1.258 . S
O198 Eu176 2.500 . S
O198 C181 1.273 . S
O199 Eu176 2.473 . S
O199 C181 1.257 . S
H200 C186 0.929 . S
H201 C188 0.931 . S
H202 C190 0.929 . S
O203 Tb204 2.292 . S
O203 C206 1.255 . S
Tb204 O203 2.292 . S
Tb204 O220 2.326 . S
Tb204 O222 2.500 . S
Tb204 O223 2.473 . S
Tb204 O226 2.324 . S
Eu205 O209 2.292 . S
Eu205 C210 2.852 . S
Eu205 O221 2.324 . S
Eu205 O225 2.326 . S
Eu205 O227 2.500 . S
Eu205 O228 2.473 . S
C206 O203 1.255 . S
C206 O207 1.247 . S
O207 C206 1.247 . S
C208 O220 1.242 . S
C208 O221 1.258 . S
O209 Eu205 2.292 . S
O209 C211 1.255 . S
C210 Eu205 2.852 . S
C210 C214 1.503 . S
C210 O227 1.273 . S
C210 O228 1.257 . S
C211 O209 1.255 . S
C211 O212 1.247 . S
O212 C211 1.247 . S
C213 O225 1.242 . S
C213 O226 1.258 . S
C214 C210 1.503 . S
C214 C215 1.379 . S
C214 C219 1.392 . S
C215 C214 1.379 . S
C215 C216 1.404 . S
C215 H229 0.929 . S
C216 C215 1.404 . S
C216 C217 1.389 . S
C217 C216 1.389 . S
C217 C218 1.399 . S
C217 H230 0.931 . S
C218 C217 1.399 . S
C218 C219 1.390 . S
C219 C214 1.392 . S
C219 C218 1.390 . S
C219 H231 0.929 . S
O220 Tb204 2.326 . S
O220 C208 1.242 . S
O221 Eu205 2.324 . S
O221 C208 1.258 . S
O222 Tb204 2.500 . S
O222 C224 1.273 . S
O223 Tb204 2.473 . S
O223 C224 1.257 . S
C224 O222 1.273 . S
C224 O223 1.257 . S
O225 Eu205 2.326 . S
O225 C213 1.242 . S
O226 Tb204 2.324 . S
O226 C213 1.258 . S
O227 Eu205 2.500 . S
O227 C210 1.273 . S
O228 Eu205 2.473 . S
O228 C210 1.257 . S
H229 C215 0.929 . S
H230 C217 0.931 . S
H231 C219 0.929 . S
O232 Tb233 2.292 . S
O232 C235 1.255 . S
Tb233 O232 2.292 . S
Tb233 O249 2.326 . S
Tb233 O251 2.500 . S
Tb233 O252 2.473 . S
Tb233 O255 2.324 . S
Eu234 O238 2.292 . S
Eu234 C239 2.852 . S
Eu234 O250 2.324 . S
Eu234 O254 2.326 . S
Eu234 O256 2.500 . S
Eu234 O257 2.473 . S
C235 O232 1.255 . S
C235 O236 1.247 . S
O236 C235 1.247 . S
C237 O249 1.242 . S
C237 O250 1.258 . S
O238 Eu234 2.292 . S
O238 C240 1.255 . S
C239 Eu234 2.852 . S
C239 C243 1.503 . S
C239 O256 1.273 . S
C239 O257 1.257 . S
C240 O238 1.255 . S
C240 O241 1.247 . S
O241 C240 1.247 . S
C242 O254 1.242 . S
C242 O255 1.258 . S
C243 C239 1.503 . S
C243 C244 1.379 . S
C243 C248 1.392 . S
C244 C243 1.379 . S
C244 C245 1.404 . S
C244 H258 0.929 . S
C245 C244 1.404 . S
C245 C246 1.389 . S
C246 C245 1.389 . S
C246 C247 1.399 . S
C246 H259 0.931 . S
C247 C246 1.399 . S
C247 C248 1.390 . S
C248 C243 1.392 . S
C248 C247 1.390 . S
C248 H260 0.929 . S
O249 Tb233 2.326 . S
O249 C237 1.242 . S
O250 Eu234 2.324 . S
O250 C237 1.258 . S
O251 Tb233 2.500 . S
O251 C253 1.273 . S
O252 Tb233 2.473 . S
O252 C253 1.257 . S
C253 O251 1.273 . S
C253 O252 1.257 . S
O254 Eu234 2.326 . S
O254 C242 1.242 . S
O255 Tb233 2.324 . S
O255 C242 1.258 . S
O256 Eu234 2.500 . S
O256 C239 1.273 . S
O257 Eu234 2.473 . S
O257 C239 1.257 . S
H258 C244 0.929 . S
H259 C246 0.931 . S
H260 C248 0.929 . S
O261 Tb262 2.292 . S
O261 C264 1.255 . S
Tb262 O261 2.292 . S
Tb262 O278 2.326 . S
Tb262 O280 2.500 . S
Tb262 O281 2.473 . S
Tb262 O284 2.324 . S
Eu263 O267 2.292 . S
Eu263 C268 2.852 . S
Eu263 O279 2.324 . S
Eu263 O283 2.326 . S
Eu263 O285 2.500 . S
Eu263 O286 2.473 . S
C264 O261 1.255 . S
C264 O265 1.247 . S
O265 C264 1.247 . S
C266 O278 1.242 . S
C266 O279 1.258 . S
O267 Eu263 2.292 . S
O267 C269 1.255 . S
C268 Eu263 2.852 . S
C268 C272 1.503 . S
C268 O285 1.273 . S
C268 O286 1.257 . S
C269 O267 1.255 . S
C269 O270 1.247 . S
O270 C269 1.247 . S
C271 O283 1.242 . S
C271 O284 1.258 . S
C272 C268 1.503 . S
C272 C273 1.379 . S
C272 C277 1.392 . S
C273 C272 1.379 . S
C273 C274 1.404 . S
C273 H287 0.929 . S
C274 C273 1.404 . S
C274 C275 1.389 . S
C275 C274 1.389 . S
C275 C276 1.399 . S
C275 H288 0.931 . S
C276 C275 1.399 . S
C276 C277 1.390 . S
C277 C272 1.392 . S
C277 C276 1.390 . S
C277 H289 0.929 . S
O278 Tb262 2.326 . S
O278 C266 1.242 . S
O279 Eu263 2.324 . S
O279 C266 1.258 . S
O280 Tb262 2.500 . S
O280 C282 1.273 . S
O281 Tb262 2.473 . S
O281 C282 1.257 . S
C282 O280 1.273 . S
C282 O281 1.257 . S
O283 Eu263 2.326 . S
O283 C271 1.242 . S
O284 Tb262 2.324 . S
O284 C271 1.258 . S
O285 Eu263 2.500 . S
O285 C268 1.273 . S
O286 Eu263 2.473 . S
O286 C268 1.257 . S
H287 C273 0.929 . S
H288 C275 0.931 . S
H289 C277 0.929 . S
O290 Tb291 2.292 . S
O290 C293 1.255 . S
Tb291 O290 2.292 . S
Tb291 O307 2.326 . S
Tb291 O309 2.500 . S
Tb291 O310 2.473 . S
Tb291 O313 2.324 . S
Eu292 O296 2.292 . S
Eu292 C297 2.852 . S
Eu292 O308 2.324 . S
Eu292 O312 2.326 . S
Eu292 O314 2.500 . S
Eu292 O315 2.473 . S
C293 O290 1.255 . S
C293 O294 1.247 . S
O294 C293 1.247 . S
C295 O307 1.242 . S
C295 O308 1.258 . S
O296 Eu292 2.292 . S
O296 C298 1.255 . S
C297 Eu292 2.852 . S
C297 C301 1.503 . S
C297 O314 1.273 . S
C297 O315 1.257 . S
C298 O296 1.255 . S
C298 O299 1.247 . S
O299 C298 1.247 . S
C300 O312 1.242 . S
C300 O313 1.258 . S
C301 C297 1.503 . S
C301 C302 1.379 . S
C301 C306 1.392 . S
C302 C301 1.379 . S
C302 C303 1.404 . S
C302 H316 0.929 . S
C303 C302 1.404 . S
C303 C304 1.389 . S
C304 C303 1.389 . S
C304 C305 1.399 . S
C304 H317 0.931 . S
C305 C304 1.399 . S
C305 C306 1.390 . S
C306 C301 1.392 . S
C306 C305 1.390 . S
C306 H318 0.929 . S
O307 Tb291 2.326 . S
O307 C295 1.242 . S
O308 Eu292 2.324 . S
O308 C295 1.258 . S
O309 Tb291 2.500 . S
O309 C311 1.273 . S
O310 Tb291 2.473 . S
O310 C311 1.257 . S
C311 O309 1.273 . S
C311 O310 1.257 . S
O312 Eu292 2.326 . S
O312 C300 1.242 . S
O313 Tb291 2.324 . S
O313 C300 1.258 . S
O314 Eu292 2.500 . S
O314 C297 1.273 . S
O315 Eu292 2.473 . S
O315 C297 1.257 . S
H316 C302 0.929 . S
H317 C304 0.931 . S
H318 C306 0.929 . S
O319 Tb320 2.292 . S
O319 C322 1.255 . S
Tb320 O319 2.292 . S
Tb320 O336 2.326 . S
Tb320 O338 2.500 . S
Tb320 O339 2.473 . S
Tb320 O342 2.324 . S
Eu321 O325 2.292 . S
Eu321 C326 2.852 . S
Eu321 O337 2.324 . S
Eu321 O341 2.326 . S
Eu321 O343 2.500 . S
Eu321 O344 2.473 . S
C322 O319 1.255 . S
C322 O323 1.247 . S
O323 C322 1.247 . S
C324 O336 1.242 . S
C324 O337 1.258 . S
O325 Eu321 2.292 . S
O325 C327 1.255 . S
C326 Eu321 2.852 . S
C326 C330 1.503 . S
C326 O343 1.273 . S
C326 O344 1.257 . S
C327 O325 1.255 . S
C327 O328 1.247 . S
O328 C327 1.247 . S
C329 O341 1.242 . S
C329 O342 1.258 . S
C330 C326 1.503 . S
C330 C331 1.379 . S
C330 C335 1.392 . S
C331 C330 1.379 . S
C331 C332 1.404 . S
C331 H345 0.929 . S
C332 C331 1.404 . S
C332 C333 1.389 . S
C333 C332 1.389 . S
C333 C334 1.399 . S
C333 H346 0.931 . S
C334 C333 1.399 . S
C334 C335 1.390 . S
C335 C330 1.392 . S
C335 C334 1.390 . S
C335 H347 0.929 . S
O336 Tb320 2.326 . S
O336 C324 1.242 . S
O337 Eu321 2.324 . S
O337 C324 1.258 . S
O338 Tb320 2.500 . S
O338 C340 1.273 . S
O339 Tb320 2.473 . S
O339 C340 1.257 . S
C340 O338 1.273 . S
C340 O339 1.257 . S
O341 Eu321 2.326 . S
O341 C329 1.242 . S
O342 Tb320 2.324 . S
O342 C329 1.258 . S
O343 Eu321 2.500 . S
O343 C326 1.273 . S
O344 Eu321 2.473 . S
O344 C326 1.257 . S
H345 C331 0.929 . S
H346 C333 0.931 . S
H347 C335 0.929 . S
O348 Tb349 2.292 . S
O348 C351 1.255 . S
Tb349 O348 2.292 . S
Tb349 O365 2.326 . S
Tb349 O367 2.500 . S
Tb349 O368 2.473 . S
Tb349 O371 2.324 . S
Eu350 O354 2.292 . S
Eu350 C355 2.852 . S
Eu350 O366 2.324 . S
Eu350 O370 2.326 . S
Eu350 O372 2.500 . S
Eu350 O373 2.473 . S
C351 O348 1.255 . S
C351 O352 1.247 . S
O352 C351 1.247 . S
C353 O365 1.242 . S
C353 O366 1.258 . S
O354 Eu350 2.292 . S
O354 C356 1.255 . S
C355 Eu350 2.852 . S
C355 C359 1.503 . S
C355 O372 1.273 . S
C355 O373 1.257 . S
C356 O354 1.255 . S
C356 O357 1.247 . S
O357 C356 1.247 . S
C358 O370 1.242 . S
C358 O371 1.258 . S
C359 C355 1.503 . S
C359 C360 1.379 . S
C359 C364 1.392 . S
C360 C359 1.379 . S
C360 C361 1.404 . S
C360 H374 0.929 . S
C361 C360 1.404 . S
C361 C362 1.389 . S
C362 C361 1.389 . S
C362 C363 1.399 . S
C362 H375 0.931 . S
C363 C362 1.399 . S
C363 C364 1.390 . S
C364 C359 1.392 . S
C364 C363 1.390 . S
C364 H376 0.929 . S
O365 Tb349 2.326 . S
O365 C353 1.242 . S
O366 Eu350 2.324 . S
O366 C353 1.258 . S
O367 Tb349 2.500 . S
O367 C369 1.273 . S
O368 Tb349 2.473 . S
O368 C369 1.257 . S
C369 O367 1.273 . S
C369 O368 1.257 . S
O370 Eu350 2.326 . S
O370 C358 1.242 . S
O371 Tb349 2.324 . S
O371 C358 1.258 . S
O372 Eu350 2.500 . S
O372 C355 1.273 . S
O373 Eu350 2.473 . S
O373 C355 1.257 . S
H374 C360 0.929 . S
H375 C362 0.931 . S
H376 C364 0.929 . S
O377 Tb378 2.292 . S
O377 C380 1.255 . S
Tb378 O377 2.292 . S
Tb378 O394 2.326 . S
Tb378 O396 2.500 . S
Tb378 O397 2.473 . S
Tb378 O400 2.324 . S
Eu379 O383 2.292 . S
Eu379 C384 2.852 . S
Eu379 O395 2.324 . S
Eu379 O399 2.326 . S
Eu379 O401 2.500 . S
Eu379 O402 2.473 . S
C380 O377 1.255 . S
C380 O381 1.247 . S
O381 C380 1.247 . S
C382 O394 1.242 . S
C382 O395 1.258 . S
O383 Eu379 2.292 . S
O383 C385 1.255 . S
C384 Eu379 2.852 . S
C384 C388 1.503 . S
C384 O401 1.273 . S
C384 O402 1.257 . S
C385 O383 1.255 . S
C385 O386 1.247 . S
O386 C385 1.247 . S
C387 O399 1.242 . S
C387 O400 1.258 . S
C388 C384 1.503 . S
C388 C389 1.379 . S
C388 C393 1.392 . S
C389 C388 1.379 . S
C389 C390 1.404 . S
C389 H403 0.929 . S
C390 C389 1.404 . S
C390 C391 1.389 . S
C391 C390 1.389 . S
C391 C392 1.399 . S
C391 H404 0.931 . S
C392 C391 1.399 . S
C392 C393 1.390 . S
C393 C388 1.392 . S
C393 C392 1.390 . S
C393 H405 0.929 . S
O394 Tb378 2.326 . S
O394 C382 1.242 . S
O395 Eu379 2.324 . S
O395 C382 1.258 . S
O396 Tb378 2.500 . S
O396 C398 1.273 . S
O397 Tb378 2.473 . S
O397 C398 1.257 . S
C398 O396 1.273 . S
C398 O397 1.257 . S
O399 Eu379 2.326 . S
O399 C387 1.242 . S
O400 Tb378 2.324 . S
O400 C387 1.258 . S
O401 Eu379 2.500 . S
O401 C384 1.273 . S
O402 Eu379 2.473 . S
O402 C384 1.257 . S
H403 C389 0.929 . S
H404 C391 0.931 . S
H405 C393 0.929 . S
O406 Tb407 2.292 . S
O406 C409 1.255 . S
Tb407 O406 2.292 . S
Tb407 O423 2.326 . S
Tb407 O425 2.500 . S
Tb407 O426 2.473 . S
Tb407 O429 2.324 . S
Eu408 O412 2.292 . S
Eu408 C413 2.852 . S
Eu408 O424 2.324 . S
Eu408 O428 2.326 . S
Eu408 O430 2.500 . S
Eu408 O431 2.473 . S
C409 O406 1.255 . S
C409 O410 1.247 . S
O410 C409 1.247 . S
C411 O423 1.242 . S
C411 O424 1.258 . S
O412 Eu408 2.292 . S
O412 C414 1.255 . S
C413 Eu408 2.852 . S
C413 C417 1.503 . S
C413 O430 1.273 . S
C413 O431 1.257 . S
C414 O412 1.255 . S
C414 O415 1.247 . S
O415 C414 1.247 . S
C416 O428 1.242 . S
C416 O429 1.258 . S
C417 C413 1.503 . S
C417 C418 1.379 . S
C417 C422 1.392 . S
C418 C417 1.379 . S
C418 C419 1.404 . S
C418 H432 0.929 . S
C419 C418 1.404 . S
C419 C420 1.389 . S
C420 C419 1.389 . S
C420 C421 1.399 . S
C420 H433 0.931 . S
C421 C420 1.399 . S
C421 C422 1.390 . S
C422 C417 1.392 . S
C422 C421 1.390 . S
C422 H434 0.929 . S
O423 Tb407 2.326 . S
O423 C411 1.242 . S
O424 Eu408 2.324 . S
O424 C411 1.258 . S
O425 Tb407 2.500 . S
O425 C427 1.273 . S
O426 Tb407 2.473 . S
O426 C427 1.257 . S
C427 O425 1.273 . S
C427 O426 1.257 . S
O428 Eu408 2.326 . S
O428 C416 1.242 . S
O429 Tb407 2.324 . S
O429 C416 1.258 . S
O430 Eu408 2.500 . S
O430 C413 1.273 . S
O431 Eu408 2.473 . S
O431 C413 1.257 . S
H432 C418 0.929 . S
H433 C420 0.931 . S
H434 C422 0.929 . S
O435 Tb436 2.292 . S
O435 C438 1.255 . S
Tb436 O435 2.292 . S
Tb436 O452 2.326 . S
Tb436 O454 2.500 . S
Tb436 O455 2.473 . S
Tb436 O458 2.324 . S
Eu437 O441 2.292 . S
Eu437 C442 2.852 . S
Eu437 O453 2.324 . S
Eu437 O457 2.326 . S
Eu437 O459 2.500 . S
Eu437 O460 2.473 . S
C438 O435 1.255 . S
C438 O439 1.247 . S
O439 C438 1.247 . S
C440 O452 1.242 . S
C440 O453 1.258 . S
O441 Eu437 2.292 . S
O441 C443 1.255 . S
C442 Eu437 2.852 . S
C442 C446 1.503 . S
C442 O459 1.273 . S
C442 O460 1.257 . S
C443 O441 1.255 . S
C443 O444 1.247 . S
O444 C443 1.247 . S
C445 O457 1.242 . S
C445 O458 1.258 . S
C446 C442 1.503 . S
C446 C447 1.379 . S
C446 C451 1.392 . S
C447 C446 1.379 . S
C447 C448 1.404 . S
C447 H461 0.929 . S
C448 C447 1.404 . S
C448 C449 1.389 . S
C449 C448 1.389 . S
C449 C450 1.399 . S
C449 H462 0.931 . S
C450 C449 1.399 . S
C450 C451 1.390 . S
C451 C446 1.392 . S
C451 C450 1.390 . S
C451 H463 0.929 . S
O452 Tb436 2.326 . S
O452 C440 1.242 . S
O453 Eu437 2.324 . S
O453 C440 1.258 . S
O454 Tb436 2.500 . S
O454 C456 1.273 . S
O455 Tb436 2.473 . S
O455 C456 1.257 . S
C456 O454 1.273 . S
C456 O455 1.257 . S
O457 Eu437 2.326 . S
O457 C445 1.242 . S
O458 Tb436 2.324 . S
O458 C445 1.258 . S
O459 Eu437 2.500 . S
O459 C442 1.273 . S
O460 Eu437 2.473 . S
O460 C442 1.257 . S
H461 C447 0.929 . S
H462 C449 0.931 . S
H463 C451 0.929 . S
O464 Tb465 2.292 . S
O464 C467 1.255 . S
Tb465 O464 2.292 . S
Tb465 O481 2.326 . S
Tb465 O483 2.500 . S
Tb465 O484 2.473 . S
Tb465 O487 2.324 . S
Eu466 O470 2.292 . S
Eu466 C471 2.852 . S
Eu466 O482 2.324 . S
Eu466 O486 2.326 . S
Eu466 O488 2.500 . S
Eu466 O489 2.473 . S
C467 O464 1.255 . S
C467 O468 1.247 . S
O468 C467 1.247 . S
C469 O481 1.242 . S
C469 O482 1.258 . S
O470 Eu466 2.292 . S
O470 C472 1.255 . S
C471 Eu466 2.852 . S
C471 C475 1.503 . S
C471 O488 1.273 . S
C471 O489 1.257 . S
C472 O470 1.255 . S
C472 O473 1.247 . S
O473 C472 1.247 . S
C474 O486 1.242 . S
C474 O487 1.258 . S
C475 C471 1.503 . S
C475 C476 1.379 . S
C475 C480 1.392 . S
C476 C475 1.379 . S
C476 C477 1.404 . S
C476 H490 0.929 . S
C477 C476 1.404 . S
C477 C478 1.389 . S
C478 C477 1.389 . S
C478 C479 1.399 . S
C478 H491 0.931 . S
C479 C478 1.399 . S
C479 C480 1.390 . S
C480 C475 1.392 . S
C480 C479 1.390 . S
C480 H492 0.929 . S
O481 Tb465 2.326 . S
O481 C469 1.242 . S
O482 Eu466 2.324 . S
O482 C469 1.258 . S
O483 Tb465 2.500 . S
O483 C485 1.273 . S
O484 Tb465 2.473 . S
O484 C485 1.257 . S
C485 O483 1.273 . S
C485 O484 1.257 . S
O486 Eu466 2.326 . S
O486 C474 1.242 . S
O487 Tb465 2.324 . S
O487 C474 1.258 . S
O488 Eu466 2.500 . S
O488 C471 1.273 . S
O489 Eu466 2.473 . S
O489 C471 1.257 . S
H490 C476 0.929 . S
H491 C478 0.931 . S
H492 C480 0.929 . S
O493 Tb494 2.292 . S
O493 C496 1.255 . S
Tb494 O493 2.292 . S
Tb494 O510 2.326 . S
Tb494 O512 2.500 . S
Tb494 O513 2.473 . S
Tb494 O516 2.324 . S
Eu495 O499 2.292 . S
Eu495 C500 2.852 . S
Eu495 O511 2.324 . S
Eu495 O515 2.326 . S
Eu495 O517 2.500 . S
Eu495 O518 2.473 . S
C496 O493 1.255 . S
C496 O497 1.247 . S
O497 C496 1.247 . S
C498 O510 1.242 . S
C498 O511 1.258 . S
O499 Eu495 2.292 . S
O499 C501 1.255 . S
C500 Eu495 2.852 . S
C500 C504 1.503 . S
C500 O517 1.273 . S
C500 O518 1.257 . S
C501 O499 1.255 . S
C501 O502 1.247 . S
O502 C501 1.247 . S
C503 O515 1.242 . S
C503 O516 1.258 . S
C504 C500 1.503 . S
C504 C505 1.379 . S
C504 C509 1.392 . S
C505 C504 1.379 . S
C505 C506 1.404 . S
C505 H519 0.929 . S
C506 C505 1.404 . S
C506 C507 1.389 . S
C507 C506 1.389 . S
C507 C508 1.399 . S
C507 H520 0.931 . S
C508 C507 1.399 . S
C508 C509 1.390 . S
C509 C504 1.392 . S
C509 C508 1.390 . S
C509 H521 0.929 . S
O510 Tb494 2.326 . S
O510 C498 1.242 . S
O511 Eu495 2.324 . S
O511 C498 1.258 . S
O512 Tb494 2.500 . S
O512 C514 1.273 . S
O513 Tb494 2.473 . S
O513 C514 1.257 . S
C514 O512 1.273 . S
C514 O513 1.257 . S
O515 Eu495 2.326 . S
O515 C503 1.242 . S
O516 Tb494 2.324 . S
O516 C503 1.258 . S
O517 Eu495 2.500 . S
O517 C500 1.273 . S
O518 Eu495 2.473 . S
O518 C500 1.257 . S
H519 C505 0.929 . S
H520 C507 0.931 . S
H521 C509 0.929 . S
O522 Tb523 2.292 . S
O522 C525 1.255 . S
Tb523 O522 2.292 . S
Tb523 O539 2.326 . S
Tb523 O541 2.500 . S
Tb523 O542 2.473 . S
Tb523 O545 2.324 . S
Eu524 O528 2.292 . S
Eu524 C529 2.852 . S
Eu524 O540 2.324 . S
Eu524 O544 2.326 . S
Eu524 O546 2.500 . S
Eu524 O547 2.473 . S
C525 O522 1.255 . S
C525 O526 1.247 . S
O526 C525 1.247 . S
C527 O539 1.242 . S
C527 O540 1.258 . S
O528 Eu524 2.292 . S
O528 C530 1.255 . S
C529 Eu524 2.852 . S
C529 C533 1.503 . S
C529 O546 1.273 . S
C529 O547 1.257 . S
C530 O528 1.255 . S
C530 O531 1.247 . S
O531 C530 1.247 . S
C532 O544 1.242 . S
C532 O545 1.258 . S
C533 C529 1.503 . S
C533 C534 1.379 . S
C533 C538 1.392 . S
C534 C533 1.379 . S
C534 C535 1.404 . S
C534 H548 0.929 . S
C535 C534 1.404 . S
C535 C536 1.389 . S
C536 C535 1.389 . S
C536 C537 1.399 . S
C536 H549 0.931 . S
C537 C536 1.399 . S
C537 C538 1.390 . S
C538 C533 1.392 . S
C538 C537 1.390 . S
C538 H550 0.929 . S
O539 Tb523 2.326 . S
O539 C527 1.242 . S
O540 Eu524 2.324 . S
O540 C527 1.258 . S
O541 Tb523 2.500 . S
O541 C543 1.273 . S
O542 Tb523 2.473 . S
O542 C543 1.257 . S
C543 O541 1.273 . S
C543 O542 1.257 . S
O544 Eu524 2.326 . S
O544 C532 1.242 . S
O545 Tb523 2.324 . S
O545 C532 1.258 . S
O546 Eu524 2.500 . S
O546 C529 1.273 . S
O547 Eu524 2.473 . S
O547 C529 1.257 . S
H548 C534 0.929 . S
H549 C536 0.931 . S
H550 C538 0.929 . S
O551 Tb552 2.292 . S
O551 C554 1.255 . S
Tb552 O551 2.292 . S
Tb552 O568 2.326 . S
Tb552 O570 2.500 . S
Tb552 O571 2.473 . S
Tb552 O574 2.324 . S
Eu553 O557 2.292 . S
Eu553 C558 2.852 . S
Eu553 O569 2.324 . S
Eu553 O573 2.326 . S
Eu553 O575 2.500 . S
Eu553 O576 2.473 . S
C554 O551 1.255 . S
C554 O555 1.247 . S
O555 C554 1.247 . S
C556 O568 1.242 . S
C556 O569 1.258 . S
O557 Eu553 2.292 . S
O557 C559 1.255 . S
C558 Eu553 2.852 . S
C558 C562 1.503 . S
C558 O575 1.273 . S
C558 O576 1.257 . S
C559 O557 1.255 . S
C559 O560 1.247 . S
O560 C559 1.247 . S
C561 O573 1.242 . S
C561 O574 1.258 . S
C562 C558 1.503 . S
C562 C563 1.379 . S
C562 C567 1.392 . S
C563 C562 1.379 . S
C563 C564 1.404 . S
C563 H577 0.929 . S
C564 C563 1.404 . S
C564 C565 1.389 . S
C565 C564 1.389 . S
C565 C566 1.399 . S
C565 H578 0.931 . S
C566 C565 1.399 . S
C566 C567 1.390 . S
C567 C562 1.392 . S
C567 C566 1.390 . S
C567 H579 0.929 . S
O568 Tb552 2.326 . S
O568 C556 1.242 . S
O569 Eu553 2.324 . S
O569 C556 1.258 . S
O570 Tb552 2.500 . S
O570 C572 1.273 . S
O571 Tb552 2.473 . S
O571 C572 1.257 . S
C572 O570 1.273 . S
C572 O571 1.257 . S
O573 Eu553 2.326 . S
O573 C561 1.242 . S
O574 Tb552 2.324 . S
O574 C561 1.258 . S
O575 Eu553 2.500 . S
O575 C558 1.273 . S
O576 Eu553 2.473 . S
O576 C558 1.257 . S
H577 C563 0.929 . S
H578 C565 0.931 . S
H579 C567 0.929 . S
O580 Tb581 2.292 . S
O580 C583 1.255 . S
Tb581 O580 2.292 . S
Tb581 O597 2.326 . S
Tb581 O599 2.500 . S
Tb581 O600 2.473 . S
Tb581 O603 2.324 . S
Eu582 O586 2.292 . S
Eu582 C587 2.852 . S
Eu582 O598 2.324 . S
Eu582 O602 2.326 . S
Eu582 O604 2.500 . S
Eu582 O605 2.473 . S
C583 O580 1.255 . S
C583 O584 1.247 . S
O584 C583 1.247 . S
C585 O597 1.242 . S
C585 O598 1.258 . S
O586 Eu582 2.292 . S
O586 C588 1.255 . S
C587 Eu582 2.852 . S
C587 C591 1.503 . S
C587 O604 1.273 . S
C587 O605 1.257 . S
C588 O586 1.255 . S
C588 O589 1.247 . S
O589 C588 1.247 . S
C590 O602 1.242 . S
C590 O603 1.258 . S
C591 C587 1.503 . S
C591 C592 1.379 . S
C591 C596 1.392 . S
C592 C591 1.379 . S
C592 C593 1.404 . S
C592 H606 0.929 . S
C593 C592 1.404 . S
C593 C594 1.389 . S
C594 C593 1.389 . S
C594 C595 1.399 . S
C594 H607 0.931 . S
C595 C594 1.399 . S
C595 C596 1.390 . S
C596 C591 1.392 . S
C596 C595 1.390 . S
C596 H608 0.929 . S
O597 Tb581 2.326 . S
O597 C585 1.242 . S
O598 Eu582 2.324 . S
O598 C585 1.258 . S
O599 Tb581 2.500 . S
O599 C601 1.273 . S
O600 Tb581 2.473 . S
O600 C601 1.257 . S
C601 O599 1.273 . S
C601 O600 1.257 . S
O602 Eu582 2.326 . S
O602 C590 1.242 . S
O603 Tb581 2.324 . S
O603 C590 1.258 . S
O604 Eu582 2.500 . S
O604 C587 1.273 . S
O605 Eu582 2.473 . S
O605 C587 1.257 . S
H606 C592 0.929 . S
H607 C594 0.931 . S
H608 C596 0.929 . S
O609 Tb610 2.292 . S
O609 C612 1.255 . S
Tb610 O609 2.292 . S
Tb610 O626 2.326 . S
Tb610 O628 2.500 . S
Tb610 O629 2.473 . S
Tb610 O632 2.324 . S
Eu611 O615 2.292 . S
Eu611 C616 2.852 . S
Eu611 O627 2.324 . S
Eu611 O631 2.326 . S
Eu611 O633 2.500 . S
Eu611 O634 2.473 . S
C612 O609 1.255 . S
C612 O613 1.247 . S
O613 C612 1.247 . S
C614 O626 1.242 . S
C614 O627 1.258 . S
O615 Eu611 2.292 . S
O615 C617 1.255 . S
C616 Eu611 2.852 . S
C616 C620 1.503 . S
C616 O633 1.273 . S
C616 O634 1.257 . S
C617 O615 1.255 . S
C617 O618 1.247 . S
O618 C617 1.247 . S
C619 O631 1.242 . S
C619 O632 1.258 . S
C620 C616 1.503 . S
C620 C621 1.379 . S
C620 C625 1.392 . S
C621 C620 1.379 . S
C621 C622 1.404 . S
C621 H635 0.929 . S
C622 C621 1.404 . S
C622 C623 1.389 . S
C623 C622 1.389 . S
C623 C624 1.399 . S
C623 H636 0.931 . S
C624 C623 1.399 . S
C624 C625 1.390 . S
C625 C620 1.392 . S
C625 C624 1.390 . S
C625 H637 0.929 . S
O626 Tb610 2.326 . S
O626 C614 1.242 . S
O627 Eu611 2.324 . S
O627 C614 1.258 . S
O628 Tb610 2.500 . S
O628 C630 1.273 . S
O629 Tb610 2.473 . S
O629 C630 1.257 . S
C630 O628 1.273 . S
C630 O629 1.257 . S
O631 Eu611 2.326 . S
O631 C619 1.242 . S
O632 Tb610 2.324 . S
O632 C619 1.258 . S
O633 Eu611 2.500 . S
O633 C616 1.273 . S
O634 Eu611 2.473 . S
O634 C616 1.257 . S
H635 C621 0.929 . S
H636 C623 0.931 . S
H637 C625 0.929 . S
O638 Tb639 2.292 . S
O638 C641 1.255 . S
Tb639 O638 2.292 . S
Tb639 O655 2.326 . S
Tb639 O657 2.500 . S
Tb639 O658 2.473 . S
Tb639 O661 2.324 . S
Eu640 O644 2.292 . S
Eu640 C645 2.852 . S
Eu640 O656 2.324 . S
Eu640 O660 2.326 . S
Eu640 O662 2.500 . S
Eu640 O663 2.473 . S
C641 O638 1.255 . S
C641 O642 1.247 . S
O642 C641 1.247 . S
C643 O655 1.242 . S
C643 O656 1.258 . S
O644 Eu640 2.292 . S
O644 C646 1.255 . S
C645 Eu640 2.852 . S
C645 C649 1.503 . S
C645 O662 1.273 . S
C645 O663 1.257 . S
C646 O644 1.255 . S
C646 O647 1.247 . S
O647 C646 1.247 . S
C648 O660 1.242 . S
C648 O661 1.258 . S
C649 C645 1.503 . S
C649 C650 1.379 . S
C649 C654 1.392 . S
C650 C649 1.379 . S
C650 C651 1.404 . S
C650 H664 0.929 . S
C651 C650 1.404 . S
C651 C652 1.389 . S
C652 C651 1.389 . S
C652 C653 1.399 . S
C652 H665 0.931 . S
C653 C652 1.399 . S
C653 C654 1.390 . S
C654 C649 1.392 . S
C654 C653 1.390 . S
C654 H666 0.929 . S
O655 Tb639 2.326 . S
O655 C643 1.242 . S
O656 Eu640 2.324 . S
O656 C643 1.258 . S
O657 Tb639 2.500 . S
O657 C659 1.273 . S
O658 Tb639 2.473 . S
O658 C659 1.257 . S
C659 O657 1.273 . S
C659 O658 1.257 . S
O660 Eu640 2.326 . S
O660 C648 1.242 . S
O661 Tb639 2.324 . S
O661 C648 1.258 . S
O662 Eu640 2.500 . S
O662 C645 1.273 . S
O663 Eu640 2.473 . S
O663 C645 1.257 . S
H664 C650 0.929 . S
H665 C652 0.931 . S
H666 C654 0.929 . S
O667 Tb668 2.292 . S
O667 C670 1.255 . S
Tb668 O667 2.292 . S
Tb668 O684 2.326 . S
Tb668 O686 2.500 . S
Tb668 O687 2.473 . S
Tb668 O690 2.324 . S
Eu669 O673 2.292 . S
Eu669 C674 2.852 . S
Eu669 O685 2.324 . S
Eu669 O689 2.326 . S
Eu669 O691 2.500 . S
Eu669 O692 2.473 . S
C670 O667 1.255 . S
C670 O671 1.247 . S
O671 C670 1.247 . S
C672 O684 1.242 . S
C672 O685 1.258 . S
O673 Eu669 2.292 . S
O673 C675 1.255 . S
C674 Eu669 2.852 . S
C674 C678 1.503 . S
C674 O691 1.273 . S
C674 O692 1.257 . S
C675 O673 1.255 . S
C675 O676 1.247 . S
O676 C675 1.247 . S
C677 O689 1.242 . S
C677 O690 1.258 . S
C678 C674 1.503 . S
C678 C679 1.379 . S
C678 C683 1.392 . S
C679 C678 1.379 . S
C679 C680 1.404 . S
C679 H693 0.929 . S
C680 C679 1.404 . S
C680 C681 1.389 . S
C681 C680 1.389 . S
C681 C682 1.399 . S
C681 H694 0.931 . S
C682 C681 1.399 . S
C682 C683 1.390 . S
C683 C678 1.392 . S
C683 C682 1.390 . S
C683 H695 0.929 . S
O684 Tb668 2.326 . S
O684 C672 1.242 . S
O685 Eu669 2.324 . S
O685 C672 1.258 . S
O686 Tb668 2.500 . S
O686 C688 1.273 . S
O687 Tb668 2.473 . S
O687 C688 1.257 . S
C688 O686 1.273 . S
C688 O687 1.257 . S
O689 Eu669 2.326 . S
O689 C677 1.242 . S
O690 Tb668 2.324 . S
O690 C677 1.258 . S
O691 Eu669 2.500 . S
O691 C674 1.273 . S
O692 Eu669 2.473 . S
O692 C674 1.257 . S
H693 C679 0.929 . S
H694 C681 0.931 . S
H695 C683 0.929 . S
H696 C714 0.951 . S
H697 C716 0.951 . S
H698 C718 0.950 . S
H699 C719 0.950 . S
H700 C721 0.950 . S
H701 C724 0.950 . S
H702 C725 0.950 . S
H703 C727 0.950 . S
H704 C728 0.950 . S
H705 C729 0.951 . S
H706 C731 0.951 . S
H707 C733 0.950 . S
H708 C734 0.950 . S
H709 C736 0.950 . S
H710 C739 0.950 . S
H711 C740 0.950 . S
H712 C742 0.950 . S
H713 C743 0.950 . S
C714 H696 0.951 . S
C714 C715 1.366 . S
C714 C716 1.388 . S
C715 C714 1.366 . S
C715 C719 1.385 . S
C716 H697 0.951 . S
C716 C714 1.388 . S
C716 C717 1.366 . S
C717 C716 1.366 . S
C717 C718 1.414 . S
C717 C720 1.499 . S
C718 H698 0.950 . S
C718 C717 1.414 . S
C718 C719 1.374 . S
C719 H699 0.950 . S
C719 C715 1.385 . S
C719 C718 1.374 . S
C720 C717 1.499 . S
C720 C721 1.373 . S
C720 C722 1.389 . S
C721 H700 0.950 . S
C721 C720 1.373 . S
C721 C737 1.377 . S
C722 C720 1.389 . S
C722 C723 1.524 . S
C722 C736 1.377 . S
C723 C722 1.524 . S
C723 C724 1.397 . S
C723 C728 1.363 . S
C724 H701 0.950 . S
C724 C723 1.397 . S
C724 C725 1.334 . S
C725 H702 0.950 . S
C725 C724 1.334 . S
C725 C726 1.287 . S
C726 C725 1.287 . S
C726 C727 1.524 . S
C726 H745 0.913 . S
C727 H703 0.950 . S
C727 C726 1.524 . S
C727 C728 1.415 . S
C728 H704 0.950 . S
C728 C723 1.363 . S
C728 C727 1.415 . S
C729 H705 0.951 . S
C729 C730 1.366 . S
C729 C731 1.388 . S
C730 C729 1.366 . S
C730 C734 1.385 . S
C731 H706 0.951 . S
C731 C729 1.388 . S
C731 C732 1.366 . S
C732 C731 1.366 . S
C732 C733 1.414 . S
C732 C735 1.499 . S
C733 H707 0.950 . S
C733 C732 1.414 . S
C733 C734 1.374 . S
C734 H708 0.950 . S
C734 C730 1.385 . S
C734 C733 1.374 . S
C735 C732 1.499 . S
C735 C736 1.373 . S
C735 C737 1.389 . S
C736 H709 0.950 . S
C736 C722 1.377 . S
C736 C735 1.373 . S
C737 C721 1.377 . S
C737 C735 1.389 . S
C737 C738 1.524 . S
C738 C737 1.524 . S
C738 C739 1.397 . S
C738 C743 1.363 . S
C739 H710 0.950 . S
C739 C738 1.397 . S
C739 C740 1.334 . S
C740 H711 0.950 . S
C740 C739 1.334 . S
C740 C741 1.287 . S
C741 C740 1.287 . S
C741 C742 1.524 . S
C741 H744 0.999 . S
C742 H712 0.950 . S
C742 C741 1.524 . S
C742 C743 1.415 . S
C743 H713 0.950 . S
C743 C738 1.363 . S
C743 C742 1.415 . S
H744 C741 0.999 . S
H745 C726 0.913 . S
H746 C764 0.951 . S
H747 C766 0.951 . S
H748 C768 0.950 . S
H749 C769 0.950 . S
H750 C771 0.950 . S
H751 C774 0.950 . S
H752 C775 0.950 . S
H753 C777 0.950 . S
H754 C778 0.950 . S
H755 C779 0.951 . S
H756 C781 0.951 . S
H757 C783 0.950 . S
H758 C784 0.950 . S
H759 C786 0.950 . S
H760 C789 0.950 . S
H761 C790 0.950 . S
H762 C792 0.950 . S
H763 C793 0.950 . S
C764 H746 0.951 . S
C764 C765 1.366 . S
C764 C766 1.388 . S
C765 C764 1.366 . S
C765 C769 1.385 . S
C766 H747 0.951 . S
C766 C764 1.388 . S
C766 C767 1.366 . S
C767 C766 1.366 . S
C767 C768 1.414 . S
C767 C770 1.499 . S
C768 H748 0.950 . S
C768 C767 1.414 . S
C768 C769 1.374 . S
C769 H749 0.950 . S
C769 C765 1.385 . S
C769 C768 1.374 . S
C770 C767 1.499 . S
C770 C771 1.373 . S
C770 C772 1.389 . S
C771 H750 0.950 . S
C771 C770 1.373 . S
C771 C787 1.377 1_556 S
C772 C770 1.389 . S
C772 C773 1.524 . S
C772 C786 1.377 1_556 S
C773 C772 1.524 . S
C773 C774 1.397 . S
C773 C778 1.363 . S
C774 H751 0.950 . S
C774 C773 1.397 . S
C774 C775 1.334 . S
C775 H752 0.950 . S
C775 C774 1.334 . S
C775 C776 1.287 . S
C776 C775 1.287 . S
C776 C777 1.524 . S
C776 H795 0.913 . S
C777 H753 0.950 . S
C777 C776 1.524 . S
C777 C778 1.415 . S
C778 H754 0.950 . S
C778 C773 1.363 . S
C778 C777 1.415 . S
C779 H755 0.951 . S
C779 C780 1.366 . S
C779 C781 1.388 . S
C780 C779 1.366 . S
C780 C784 1.385 . S
C781 H756 0.951 . S
C781 C779 1.388 . S
C781 C782 1.366 . S
C782 C781 1.366 . S
C782 C783 1.414 . S
C782 C785 1.499 . S
C783 H757 0.950 . S
C783 C782 1.414 . S
C783 C784 1.374 . S
C784 H758 0.950 . S
C784 C780 1.385 . S
C784 C783 1.374 . S
C785 C782 1.499 . S
C785 C786 1.373 . S
C785 C787 1.389 . S
C786 H759 0.950 . S
C786 C772 1.377 1_554 S
C786 C785 1.373 . S
C787 C771 1.377 1_554 S
C787 C785 1.389 . S
C787 C788 1.524 . S
C788 C787 1.524 . S
C788 C789 1.397 . S
C788 C793 1.363 . S
C789 H760 0.950 . S
C789 C788 1.397 . S
C789 C790 1.334 . S
C790 H761 0.950 . S
C790 C789 1.334 . S
C790 C791 1.287 . S
C791 C790 1.287 . S
C791 C792 1.524 . S
C791 H794 0.999 . S
C792 H762 0.950 . S
C792 C791 1.524 . S
C792 C793 1.415 . S
C793 H763 0.950 . S
C793 C788 1.363 . S
C793 C792 1.415 . S
H794 C791 0.999 . S
H795 C776 0.913 . S
H796 C814 0.951 . S
H797 C816 0.951 . S
H798 C818 0.952 . S
H799 C819 0.950 . S
H800 C821 0.950 . S
H801 C824 0.950 . S
H802 C825 0.950 . S
H803 C827 0.950 . S
H804 C828 0.950 . S
H805 C829 0.951 . S
H806 C831 0.951 . S
H807 C833 0.950 . S
H808 C834 0.950 . S
H809 C836 0.950 . S
H810 C839 0.950 . S
H811 C840 0.950 . S
H812 C842 0.950 . S
H813 C843 0.950 . S
C814 H796 0.951 . S
C814 C815 1.366 . S
C814 C816 1.388 . S
C815 C814 1.366 . S
C815 C819 1.385 . S
C816 H797 0.951 . S
C816 C814 1.388 . S
C816 C817 1.366 . S
C817 C816 1.366 . S
C817 C818 1.414 . S
C817 C820 1.499 1_545 S
C818 H798 0.952 . S
C818 C817 1.414 . S
C818 C819 1.374 . S
C819 H799 0.950 . S
C819 C815 1.385 . S
C819 C818 1.374 . S
C820 C817 1.499 1_565 S
C820 C821 1.373 . S
C820 C822 1.389 1_565 S
C821 H800 0.950 . S
C821 C820 1.373 . S
C821 C837 1.377 . S
C822 C820 1.389 1_545 S
C822 C823 1.524 . S
C822 C836 1.377 1_545 S
C823 C822 1.524 . S
C823 C824 1.397 . S
C823 C828 1.363 . S
C824 H801 0.950 . S
C824 C823 1.397 . S
C824 C825 1.334 . S
C825 H802 0.950 . S
C825 C824 1.334 . S
C825 C826 1.287 . S
C826 C825 1.287 . S
C826 C827 1.524 . S
C826 H845 0.913 . S
C827 H803 0.950 . S
C827 C826 1.524 . S
C827 C828 1.415 . S
C828 H804 0.950 . S
C828 C823 1.363 . S
C828 C827 1.415 . S
C829 H805 0.951 . S
C829 C830 1.366 . S
C829 C831 1.388 . S
C830 C829 1.366 . S
C830 C834 1.385 . S
C831 H806 0.951 . S
C831 C829 1.388 . S
C831 C832 1.366 . S
C832 C831 1.366 . S
C832 C833 1.414 . S
C832 C835 1.499 . S
C833 H807 0.950 . S
C833 C832 1.414 . S
C833 C834 1.374 . S
C834 H808 0.950 . S
C834 C830 1.385 . S
C834 C833 1.374 . S
C835 C832 1.499 . S
C835 C836 1.373 . S
C835 C837 1.389 . S
C836 H809 0.950 . S
C836 C822 1.377 1_565 S
C836 C835 1.373 . S
C837 C821 1.377 . S
C837 C835 1.389 . S
C837 C838 1.524 . S
C838 C837 1.524 . S
C838 C839 1.397 . S
C838 C843 1.363 . S
C839 H810 0.950 . S
C839 C838 1.397 . S
C839 C840 1.334 . S
C840 H811 0.950 . S
C840 C839 1.334 . S
C840 C841 1.287 . S
C841 C840 1.287 . S
C841 C842 1.524 . S
C841 H844 0.999 . S
C842 H812 0.950 . S
C842 C841 1.524 . S
C842 C843 1.415 . S
C843 H813 0.950 . S
C843 C838 1.363 . S
C843 C842 1.415 . S
H844 C841 0.999 . S
H845 C826 0.913 . S
H846 C864 0.951 . S
H847 C866 0.951 . S
H848 C868 0.950 . S
H849 C869 0.950 . S
H850 C871 0.950 . S
H851 C874 0.950 . S
H852 C875 0.950 . S
H853 C877 0.950 . S
H854 C878 0.950 . S
H855 C879 0.951 . S
H856 C881 0.951 . S
H857 C883 0.950 1_455 S
H858 C884 0.950 . S
H859 C886 0.950 . S
H860 C889 0.928 1_455 S
H861 C890 0.950 . S
H862 C892 0.950 . S
H863 C893 0.950 . S
C864 H846 0.951 . S
C864 C865 1.366 . S
C864 C866 1.388 . S
C865 C864 1.366 . S
C865 C869 1.385 . S
C866 H847 0.951 . S
C866 C864 1.388 . S
C866 C867 1.366 . S
C867 C866 1.366 . S
C867 C868 1.414 . S
C867 C870 1.499 . S
C868 H848 0.950 . S
C868 C867 1.414 . S
C868 C869 1.374 . S
C869 H849 0.950 . S
C869 C865 1.385 . S
C869 C868 1.374 . S
C870 C867 1.499 . S
C870 C871 1.373 . S
C870 C872 1.410 . S
C871 H850 0.950 . S
C871 C870 1.373 . S
C871 C887 1.392 . S
C872 C870 1.410 . S
C872 C873 1.524 1_556 S
C872 C886 1.356 1_556 S
C873 C872 1.524 1_554 S
C873 C874 1.394 1_554 S
C873 C878 1.365 . S
C874 H851 0.950 . S
C874 C873 1.394 1_556 S
C874 C875 1.334 . S
C875 H852 0.950 . S
C875 C874 1.334 . S
C875 C876 1.334 . S
C876 C875 1.334 . S
C876 C877 1.477 1_556 S
C876 H895 0.917 . S
C877 H853 0.950 . S
C877 C876 1.477 1_554 S
C877 C878 1.415 . S
C878 H854 0.950 . S
C878 C873 1.365 . S
C878 C877 1.415 . S
C879 H855 0.951 . S
C879 C880 1.366 . S
C879 C881 1.388 . S
C880 C879 1.366 . S
C880 C884 1.385 . S
C881 H856 0.951 . S
C881 C879 1.388 . S
C881 C882 1.366 . S
C882 C881 1.366 . S
C882 C883 1.414 . S
C882 C885 1.499 1_655 S
C883 H857 0.950 1_655 S
C883 C882 1.414 . S
C883 C884 1.374 . S
C884 H858 0.950 . S
C884 C880 1.385 . S
C884 C883 1.374 . S
C885 C882 1.499 1_455 S
C885 C886 1.373 . S
C885 C887 1.374 1_554 S
C886 H859 0.950 . S
C886 C872 1.356 1_554 S
C886 C885 1.373 . S
C887 C871 1.392 . S
C887 C885 1.374 1_556 S
C887 C888 1.525 1_455 S
C888 C887 1.525 1_655 S
C888 C889 1.405 1_556 S
C888 C893 1.363 . S
C889 H860 0.928 1_655 S
C889 C888 1.405 1_554 S
C889 C890 1.348 . S
C890 H861 0.950 . S
C890 C889 1.348 . S
C890 C891 1.287 . S
C891 C890 1.287 . S
C891 C892 1.524 1_554 S
C891 H894 0.999 1_554 S
C892 H862 0.950 . S
C892 C891 1.524 1_556 S
C892 C893 1.415 . S
C893 H863 0.950 . S
C893 C888 1.363 . S
C893 C892 1.415 . S
H894 C891 0.999 1_556 S
H895 C876 0.917 . S
H896 C914 0.951 . S
H897 C916 0.951 . S
H898 C918 0.950 . S
H899 C919 0.950 . S
H900 C921 0.950 . S
H901 C924 0.950 1_554 S
H902 C925 0.950 . S
H903 C927 0.950 . S
H904 C928 0.950 . S
H905 C929 0.951 . S
H906 C931 0.951 . S
H907 C933 0.950 1_565 S
H908 C934 0.950 . S
H909 C936 0.950 . S
H910 C939 0.950 1_556 S
H911 C940 0.950 . S
H912 C942 0.950 . S
H913 C943 0.950 . S
C914 H896 0.951 . S
C914 C915 1.366 . S
C914 C916 1.388 . S
C915 C914 1.366 . S
C915 C919 1.385 . S
C916 H897 0.951 . S
C916 C914 1.388 . S
C916 C917 1.366 . S
C917 C916 1.366 . S
C917 C918 1.414 . S
C917 C920 1.499 . S
C918 H898 0.950 . S
C918 C917 1.414 . S
C918 C919 1.374 . S
C919 H899 0.950 . S
C919 C915 1.385 . S
C919 C918 1.374 . S
C920 C917 1.499 . S
C920 C921 1.373 . S
C920 C922 1.389 1_554 S
C921 H900 0.950 . S
C921 C920 1.373 . S
C921 C937 1.377 1_565 S
C922 C920 1.389 1_556 S
C922 C923 1.524 . S
C922 C936 1.377 . S
C923 C922 1.524 . S
C923 C924 1.397 . S
C923 C928 1.363 . S
C924 H901 0.950 1_556 S
C924 C923 1.397 . S
C924 C925 1.334 . S
C925 H902 0.950 . S
C925 C924 1.334 . S
C925 C926 1.287 . S
C926 C925 1.287 . S
C926 C927 1.524 . S
C926 H945 0.913 . S
C927 H903 0.950 . S
C927 C926 1.524 . S
C927 C928 1.415 . S
C928 H904 0.950 . S
C928 C923 1.363 . S
C928 C927 1.415 . S
C929 H905 0.951 . S
C929 C930 1.366 . S
C929 C931 1.388 . S
C930 C929 1.366 . S
C930 C934 1.385 . S
C931 H906 0.951 . S
C931 C929 1.388 . S
C931 C932 1.366 . S
C932 C931 1.366 . S
C932 C933 1.414 . S
C932 C935 1.499 1_545 S
C933 H907 0.950 1_545 S
C933 C932 1.414 . S
C933 C934 1.374 . S
C934 H908 0.950 . S
C934 C930 1.385 . S
C934 C933 1.374 . S
C935 C932 1.499 1_565 S
C935 C936 1.373 . S
C935 C937 1.389 1_566 S
C936 H909 0.950 . S
C936 C922 1.377 . S
C936 C935 1.373 . S
C937 C921 1.377 1_545 S
C937 C935 1.389 1_544 S
C937 C938 1.524 . S
C938 C937 1.524 . S
C938 C939 1.397 . S
C938 C943 1.363 . S
C939 H910 0.950 1_554 S
C939 C938 1.397 . S
C939 C940 1.334 . S
C940 H911 0.950 . S
C940 C939 1.334 . S
C940 C941 1.287 . S
C941 C940 1.287 . S
C941 C942 1.524 . S
C941 H944 0.999 . S
C942 H912 0.950 . S
C942 C941 1.524 . S
C942 C943 1.415 . S
C943 H913 0.950 . S
C943 C938 1.363 . S
C943 C942 1.415 . S
H944 C941 0.999 . S
H945 C926 0.913 . S
H946 C964 0.951 . S
H947 C966 0.951 . S
H948 C968 0.950 . S
H949 C969 0.950 . S
H950 C971 0.950 . S
H951 C974 0.950 . S
H952 C975 0.950 . S
H953 C977 0.950 . S
H954 C978 0.950 . S
H955 C979 0.951 . S
H956 C981 0.951 . S
H957 C983 0.950 . S
H958 C984 0.950 . S
H959 C986 0.950 . S
H960 C989 0.950 . S
H961 C990 0.950 . S
H962 C992 0.950 . S
H963 C993 0.950 . S
C964 H946 0.951 . S
C964 C965 1.366 . S
C964 C966 1.388 . S
C965 C964 1.366 . S
C965 C969 1.385 . S
C966 H947 0.951 . S
C966 C964 1.388 . S
C966 C967 1.366 . S
C967 C966 1.366 . S
C967 C968 1.414 . S
C967 C970 1.499 1_655 S
C968 H948 0.950 . S
C968 C967 1.414 . S
C968 C969 1.374 . S
C969 H949 0.950 . S
C969 C965 1.385 . S
C969 C968 1.374 . S
C970 C967 1.499 1_455 S
C970 C971 1.373 . S
C970 C972 1.384 1_455 S
C971 H950 0.950 . S
C971 C970 1.373 . S
C971 C987 1.377 . S
C972 C970 1.384 1_655 S
C972 C973 1.571 . S
C972 C986 1.339 1_655 S
C973 C972 1.571 . S
C973 C974 1.397 . S
C973 C978 1.363 . S
C974 H951 0.950 . S
C974 C973 1.397 . S
C974 C975 1.334 . S
C975 H952 0.950 . S
C975 C974 1.334 . S
C975 C976 1.287 . S
C976 C975 1.287 . S
C976 C977 1.524 . S
C976 H995 0.913 . S
C977 H953 0.950 . S
C977 C976 1.524 . S
C977 C978 1.415 . S
C978 H954 0.950 . S
C978 C973 1.363 . S
C978 C977 1.415 . S
C979 H955 0.951 . S
C979 C980 1.366 . S
C979 C981 1.388 . S
C980 C979 1.366 . S
C980 C984 1.385 . S
C981 H956 0.951 . S
C981 C979 1.388 . S
C981 C982 1.366 . S
C982 C981 1.366 . S
C982 C983 1.414 . S
C982 C985 1.499 . S
C983 H957 0.950 . S
C983 C982 1.414 . S
C983 C984 1.374 . S
C984 H958 0.950 . S
C984 C980 1.385 . S
C984 C983 1.374 . S
C985 C982 1.499 . S
C985 C986 1.373 . S
C985 C987 1.389 . S
C986 H959 0.950 . S
C986 C972 1.339 1_455 S
C986 C985 1.373 . S
C987 C971 1.377 . S
C987 C985 1.389 . S
C987 C988 1.524 . S
C988 C987 1.524 . S
C988 C989 1.397 . S
C988 C993 1.363 . S
C989 H960 0.950 . S
C989 C988 1.397 . S
C989 C990 1.334 . S
C990 H961 0.950 . S
C990 C989 1.334 . S
C990 C991 1.287 . S
C991 C990 1.287 . S
C991 C992 1.524 . S
C991 H994 0.999 . S
C992 H962 0.950 . S
C992 C991 1.524 . S
C992 C993 1.415 . S
C993 H963 0.950 . S
C993 C988 1.363 . S
C993 C992 1.415 . S
H994 C991 0.999 . S
H995 C976 0.913 . S
H996 C1014 0.951 . S
H997 C1016 0.951 . S
H998 C1018 0.950 . S
H999 C1019 0.950 . S
H1000 C1021 0.950 . S
H1001 C1024 0.950 . S
H1002 C1025 0.950 . S
H1003 C1027 0.950 . S
H1004 C1028 0.950 . S
H1005 C1029 0.951 . S
H1006 C1031 0.951 . S
H1007 C1033 0.950 . S
H1008 C1034 0.950 . S
H1009 C1036 0.950 . S
H1010 C1039 0.950 . S
H1011 C1040 0.950 . S
H1012 C1042 0.950 . S
H1013 C1043 0.950 . S
C1014 H996 0.951 . S
C1014 C1015 1.366 . S
C1014 C1016 1.388 . S
C1015 C1014 1.366 . S
C1015 C1019 1.385 . S
C1016 H997 0.951 . S
C1016 C1014 1.388 . S
C1016 C1017 1.366 . S
C1017 C1016 1.366 . S
C1017 C1018 1.414 . S
C1017 C1020 1.499 . S
C1018 H998 0.950 . S
C1018 C1017 1.414 . S
C1018 C1019 1.374 . S
C1019 H999 0.950 . S
C1019 C1015 1.385 . S
C1019 C1018 1.374 . S
C1020 C1017 1.499 . S
C1020 C1021 1.373 . S
C1020 C1022 1.389 1_554 S
C1021 H1000 0.950 . S
C1021 C1020 1.373 . S
C1021 C1037 1.377 . S
C1022 C1020 1.389 1_556 S
C1022 C1023 1.524 . S
C1022 C1036 1.377 . S
C1023 C1022 1.524 . S
C1023 C1024 1.397 1_556 S
C1023 C1028 1.363 . S
C1024 H1001 0.950 . S
C1024 C1023 1.397 1_554 S
C1024 C1025 1.334 . S
C1025 H1002 0.950 . S
C1025 C1024 1.334 . S
C1025 C1026 1.287 1_554 S
C1026 C1025 1.287 1_556 S
C1026 C1027 1.524 . S
C1026 H1045 0.913 . S
C1027 H1003 0.950 . S
C1027 C1026 1.524 . S
C1027 C1028 1.415 . S
C1028 H1004 0.950 . S
C1028 C1023 1.363 . S
C1028 C1027 1.415 . S
C1029 H1005 0.951 . S
C1029 C1030 1.366 . S
C1029 C1031 1.388 . S
C1030 C1029 1.366 . S
C1030 C1034 1.385 . S
C1031 H1006 0.951 . S
C1031 C1029 1.388 . S
C1031 C1032 1.366 . S
C1032 C1031 1.366 . S
C1032 C1033 1.414 . S
C1032 C1035 1.499 . S
C1033 H1007 0.950 . S
C1033 C1032 1.414 . S
C1033 C1034 1.374 . S
C1034 H1008 0.950 . S
C1034 C1030 1.385 . S
C1034 C1033 1.374 . S
C1035 C1032 1.499 . S
C1035 C1036 1.373 . S
C1035 C1037 1.389 1_556 S
C1036 H1009 0.950 . S
C1036 C1022 1.377 . S
C1036 C1035 1.373 . S
C1037 C1021 1.377 . S
C1037 C1035 1.389 1_554 S
C1037 C1038 1.524 . S
C1038 C1037 1.524 . S
C1038 C1039 1.397 1_554 S
C1038 C1043 1.363 . S
C1039 H1010 0.950 . S
C1039 C1038 1.397 1_556 S
C1039 C1040 1.334 . S
C1040 H1011 0.950 . S
C1040 C1039 1.334 . S
C1040 C1041 1.287 1_556 S
C1041 C1040 1.287 1_554 S
C1041 C1042 1.524 . S
C1041 H1044 0.999 . S
C1042 H1012 0.950 . S
C1042 C1041 1.524 . S
C1042 C1043 1.415 . S
C1043 H1013 0.950 . S
C1043 C1038 1.363 . S
C1043 C1042 1.415 . S
H1044 C1041 0.999 . S
H1045 C1026 0.913 . S
H1046 C1064 0.951 . S
H1047 C1066 0.951 . S
H1048 C1068 0.950 . S
H1049 C1069 0.950 . S
H1050 C1071 0.950 . S
H1051 C1074 0.950 . S
H1052 C1075 0.950 . S
H1053 C1077 0.950 . S
H1054 C1078 0.950 . S
H1055 C1079 0.951 . S
H1056 C1081 0.951 . S
H1057 C1083 0.950 . S
H1058 C1084 0.950 . S
H1059 C1086 0.950 . S
H1060 C1089 0.950 . S
H1061 C1090 0.950 . S
H1062 C1092 0.950 . S
H1063 C1093 0.950 . S
C1064 H1046 0.951 . S
C1064 C1065 1.366 . S
C1064 C1066 1.388 . S
C1065 C1064 1.366 . S
C1065 C1069 1.385 . S
C1066 H1047 0.951 . S
C1066 C1064 1.388 . S
C1066 C1067 1.366 . S
C1067 C1066 1.366 . S
C1067 C1068 1.414 . S
C1067 C1070 1.499 . S
C1068 H1048 0.950 . S
C1068 C1067 1.414 . S
C1068 C1069 1.374 . S
C1069 H1049 0.950 . S
C1069 C1065 1.385 . S
C1069 C1068 1.374 . S
C1070 C1067 1.499 . S
C1070 C1071 1.373 . S
C1070 C1072 1.389 . S
C1071 H1050 0.950 . S
C1071 C1070 1.373 . S
C1071 C1087 1.377 . S
C1072 C1070 1.389 . S
C1072 C1073 1.524 . S
C1072 C1086 1.377 . S
C1073 C1072 1.524 . S
C1073 C1074 1.397 . S
C1073 C1078 1.363 . S
C1074 H1051 0.950 . S
C1074 C1073 1.397 . S
C1074 C1075 1.334 . S
C1075 H1052 0.950 . S
C1075 C1074 1.334 . S
C1075 C1076 1.287 . S
C1076 C1075 1.287 . S
C1076 C1077 1.524 . S
C1076 H1095 0.913 . S
C1077 H1053 0.950 . S
C1077 C1076 1.524 . S
C1077 C1078 1.415 . S
C1078 H1054 0.950 . S
C1078 C1073 1.363 . S
C1078 C1077 1.415 . S
C1079 H1055 0.951 . S
C1079 C1080 1.366 . S
C1079 C1081 1.388 . S
C1080 C1079 1.366 . S
C1080 C1084 1.385 . S
C1081 H1056 0.951 . S
C1081 C1079 1.388 . S
C1081 C1082 1.366 . S
C1082 C1081 1.366 . S
C1082 C1083 1.414 . S
C1082 C1085 1.499 . S
C1083 H1057 0.950 . S
C1083 C1082 1.414 . S
C1083 C1084 1.374 . S
C1084 H1058 0.950 . S
C1084 C1080 1.385 . S
C1084 C1083 1.374 . S
C1085 C1082 1.499 . S
C1085 C1086 1.373 . S
C1085 C1087 1.389 . S
C1086 H1059 0.950 . S
C1086 C1072 1.377 . S
C1086 C1085 1.373 . S
C1087 C1071 1.377 . S
C1087 C1085 1.389 . S
C1087 C1088 1.524 . S
C1088 C1087 1.524 . S
C1088 C1089 1.397 . S
C1088 C1093 1.363 . S
C1089 H1060 0.950 . S
C1089 C1088 1.397 . S
C1089 C1090 1.334 . S
C1090 H1061 0.950 . S
C1090 C1089 1.334 . S
C1090 C1091 1.287 . S
C1091 C1090 1.287 . S
C1091 C1092 1.524 . S
C1091 H1094 0.999 . S
C1092 H1062 0.950 . S
C1092 C1091 1.524 . S
C1092 C1093 1.415 . S
C1093 H1063 0.950 . S
C1093 C1088 1.363 . S
C1093 C1092 1.415 . S
H1094 C1091 0.999 . S
H1095 C1076 0.913 . S
H1096 C1114 0.951 . S
H1097 C1116 0.951 . S
H1098 C1118 0.950 . S
H1099 C1119 0.950 . S
H1100 C1121 0.950 . S
H1101 C1124 0.950 . S
H1102 C1125 0.950 . S
H1103 C1127 0.950 . S
H1104 C1128 0.950 . S
H1105 C1129 0.951 . S
H1106 C1131 0.951 . S
H1107 C1133 0.950 . S
H1108 C1134 0.950 . S
H1109 C1136 0.950 . S
H1110 C1139 0.950 . S
H1111 C1140 0.950 . S
H1112 C1142 0.950 . S
H1113 C1143 0.950 . S
C1114 H1096 0.951 . S
C1114 C1115 1.366 . S
C1114 C1116 1.388 . S
C1115 C1114 1.366 . S
C1115 C1119 1.385 . S
C1116 H1097 0.951 . S
C1116 C1114 1.388 . S
C1116 C1117 1.366 . S
C1117 C1116 1.366 . S
C1117 C1118 1.414 . S
C1117 C1120 1.499 . S
C1118 H1098 0.950 . S
C1118 C1117 1.414 . S
C1118 C1119 1.374 . S
C1119 H1099 0.950 . S
C1119 C1115 1.385 . S
C1119 C1118 1.374 . S
C1120 C1117 1.499 . S
C1120 C1121 1.373 . S
C1120 C1122 1.389 . S
C1121 H1100 0.950 . S
C1121 C1120 1.373 . S
C1121 C1137 1.377 . S
C1122 C1120 1.389 . S
C1122 C1123 1.524 . S
C1122 C1136 1.377 . S
C1123 C1122 1.524 . S
C1123 C1124 1.397 . S
C1123 C1128 1.363 . S
C1124 H1101 0.950 . S
C1124 C1123 1.397 . S
C1124 C1125 1.334 . S
C1125 H1102 0.950 . S
C1125 C1124 1.334 . S
C1125 C1126 1.287 . S
C1126 C1125 1.287 . S
C1126 C1127 1.524 . S
C1126 H1145 0.913 . S
C1127 H1103 0.950 . S
C1127 C1126 1.524 . S
C1127 C1128 1.415 . S
C1128 H1104 0.950 . S
C1128 C1123 1.363 . S
C1128 C1127 1.415 . S
C1129 H1105 0.951 . S
C1129 C1130 1.366 . S
C1129 C1131 1.388 . S
C1130 C1129 1.366 . S
C1130 C1134 1.385 . S
C1131 H1106 0.951 . S
C1131 C1129 1.388 . S
C1131 C1132 1.366 . S
C1132 C1131 1.366 . S
C1132 C1133 1.414 . S
C1132 C1135 1.499 . S
C1133 H1107 0.950 . S
C1133 C1132 1.414 . S
C1133 C1134 1.374 . S
C1134 H1108 0.950 . S
C1134 C1130 1.385 . S
C1134 C1133 1.374 . S
C1135 C1132 1.499 . S
C1135 C1136 1.373 . S
C1135 C1137 1.389 . S
C1136 H1109 0.950 . S
C1136 C1122 1.377 . S
C1136 C1135 1.373 . S
C1137 C1121 1.377 . S
C1137 C1135 1.389 . S
C1137 C1138 1.524 . S
C1138 C1137 1.524 . S
C1138 C1139 1.397 . S
C1138 C1143 1.363 . S
C1139 H1110 0.950 . S
C1139 C1138 1.397 . S
C1139 C1140 1.334 . S
C1140 H1111 0.950 . S
C1140 C1139 1.334 . S
C1140 C1141 1.287 . S
C1141 C1140 1.287 . S
C1141 C1142 1.524 . S
C1141 H1144 0.999 . S
C1142 H1112 0.950 . S
C1142 C1141 1.524 . S
C1142 C1143 1.415 . S
C1143 H1113 0.950 . S
C1143 C1138 1.363 . S
C1143 C1142 1.415 . S
H1144 C1141 0.999 . S
H1145 C1126 0.913 . S
H1146 C1164 0.951 . S
H1147 C1166 0.951 . S
H1148 C1168 0.950 . S
H1149 C1169 0.950 . S
H1150 C1171 0.950 . S
H1151 C1174 0.950 . S
H1152 C1175 0.950 . S
H1153 C1177 0.950 . S
H1154 C1178 0.950 1_554 S
H1155 C1179 0.951 . S
H1156 C1181 0.951 . S
H1157 C1183 0.950 . S
H1158 C1184 0.950 . S
H1159 C1186 0.950 . S
H1160 C1189 0.955 . S
H1161 C1190 0.950 . S
H1162 C1192 0.950 . S
H1163 C1193 0.950 . S
C1164 H1146 0.951 . S
C1164 C1165 1.366 . S
C1164 C1166 1.388 . S
C1165 C1164 1.366 . S
C1165 C1169 1.385 . S
C1166 H1147 0.951 . S
C1166 C1164 1.388 . S
C1166 C1167 1.366 . S
C1167 C1166 1.366 . S
C1167 C1168 1.414 . S
C1167 C1170 1.499 1_556 S
C1168 H1148 0.950 . S
C1168 C1167 1.414 . S
C1168 C1169 1.374 . S
C1169 H1149 0.950 . S
C1169 C1165 1.385 . S
C1169 C1168 1.374 . S
C1170 C1167 1.499 1_554 S
C1170 C1171 1.373 . S
C1170 C1172 1.389 1_545 S
C1171 H1150 0.950 . S
C1171 C1170 1.373 . S
C1171 C1187 1.391 . S
C1172 C1170 1.389 1_565 S
C1172 C1173 1.524 1_554 S
C1172 C1186 1.377 . S
C1173 C1172 1.524 1_556 S
C1173 C1174 1.397 . S
C1173 C1178 1.363 . S
C1174 H1151 0.950 . S
C1174 C1173 1.397 . S
C1174 C1175 1.334 . S
C1175 H1152 0.950 . S
C1175 C1174 1.334 . S
C1175 C1176 1.287 . S
C1176 C1175 1.287 . S
C1176 C1177 1.524 . S
C1176 H1195 0.913 . S
C1177 H1153 0.950 . S
C1177 C1176 1.524 . S
C1177 C1178 1.415 . S
C1178 H1154 0.950 1_556 S
C1178 C1173 1.363 . S
C1178 C1177 1.415 . S
C1179 H1155 0.951 . S
C1179 C1180 1.366 . S
C1179 C1181 1.388 . S
C1180 C1179 1.366 . S
C1180 C1184 1.385 . S
C1181 H1156 0.951 . S
C1181 C1179 1.388 . S
C1181 C1182 1.366 . S
C1182 C1181 1.366 . S
C1182 C1183 1.414 . S
C1182 C1185 1.499 . S
C1183 H1157 0.950 . S
C1183 C1182 1.414 . S
C1183 C1184 1.374 . S
C1184 H1158 0.950 . S
C1184 C1180 1.385 . S
C1184 C1183 1.374 . S
C1185 C1182 1.499 . S
C1185 C1186 1.373 . S
C1185 C1187 1.374 1_565 S
C1186 H1159 0.950 . S
C1186 C1172 1.377 . S
C1186 C1185 1.373 . S
C1187 C1171 1.391 . S
C1187 C1185 1.374 1_545 S
C1187 C1188 1.527 . S
C1188 C1187 1.527 . S
C1188 C1189 1.397 . S
C1188 C1193 1.363 . S
C1189 H1160 0.955 . S
C1189 C1188 1.397 . S
C1189 C1190 1.334 . S
C1190 H1161 0.950 . S
C1190 C1189 1.334 . S
C1190 C1191 1.287 . S
C1191 C1190 1.287 . S
C1191 C1192 1.524 . S
C1191 H1194 0.999 . S
C1192 H1162 0.950 . S
C1192 C1191 1.524 . S
C1192 C1193 1.415 . S
C1193 H1163 0.950 . S
C1193 C1188 1.363 . S
C1193 C1192 1.415 . S
H1194 C1191 0.999 . S
H1195 C1176 0.913 . S
H1196 C1214 0.951 . S
H1197 C1216 0.951 . S
H1198 C1218 0.950 . S
H1199 C1219 0.950 . S
H1200 C1221 0.950 . S
H1201 C1224 0.950 1_455 S
H1202 C1225 0.950 . S
H1203 C1227 0.950 . S
H1204 C1228 0.950 . S
H1205 C1229 0.951 . S
H1206 C1231 0.951 . S
H1207 C1233 0.950 . S
H1208 C1234 0.950 . S
H1209 C1236 0.950 . S
H1210 C1239 0.950 1_655 S
H1211 C1240 0.950 . S
H1212 C1242 0.950 . S
H1213 C1243 0.950 . S
C1214 H1196 0.951 . S
C1214 C1215 1.366 . S
C1214 C1216 1.388 . S
C1215 C1214 1.366 . S
C1215 C1219 1.385 . S
C1216 H1197 0.951 . S
C1216 C1214 1.388 . S
C1216 C1217 1.366 . S
C1217 C1216 1.366 . S
C1217 C1218 1.414 . S
C1217 C1220 1.499 . S
C1218 H1198 0.950 . S
C1218 C1217 1.414 . S
C1218 C1219 1.374 . S
C1219 H1199 0.950 . S
C1219 C1215 1.385 . S
C1219 C1218 1.374 . S
C1220 C1217 1.499 . S
C1220 C1221 1.373 . S
C1220 C1222 1.389 1_455 S
C1221 H1200 0.950 . S
C1221 C1220 1.373 . S
C1221 C1237 1.377 . S
C1222 C1220 1.389 1_655 S
C1222 C1223 1.524 . S
C1222 C1236 1.377 . S
C1223 C1222 1.524 . S
C1223 C1224 1.397 . S
C1223 C1228 1.363 . S
C1224 H1201 0.950 1_655 S
C1224 C1223 1.397 . S
C1224 C1225 1.334 . S
C1225 H1202 0.950 . S
C1225 C1224 1.334 . S
C1225 C1226 1.287 . S
C1226 C1225 1.287 . S
C1226 C1227 1.524 . S
C1226 H1245 0.913 . S
C1227 H1203 0.950 . S
C1227 C1226 1.524 . S
C1227 C1228 1.415 . S
C1228 H1204 0.950 . S
C1228 C1223 1.363 . S
C1228 C1227 1.415 . S
C1229 H1205 0.951 . S
C1229 C1230 1.366 . S
C1229 C1231 1.388 . S
C1230 C1229 1.366 . S
C1230 C1234 1.385 . S
C1231 H1206 0.951 . S
C1231 C1229 1.388 . S
C1231 C1232 1.366 . S
C1232 C1231 1.366 . S
C1232 C1233 1.414 . S
C1232 C1235 1.499 . S
C1233 H1207 0.950 . S
C1233 C1232 1.414 . S
C1233 C1234 1.374 . S
C1234 H1208 0.950 . S
C1234 C1230 1.385 . S
C1234 C1233 1.374 . S
C1235 C1232 1.499 . S
C1235 C1236 1.373 . S
C1235 C1237 1.389 1_655 S
C1236 H1209 0.950 . S
C1236 C1222 1.377 . S
C1236 C1235 1.373 . S
C1237 C1221 1.377 . S
C1237 C1235 1.389 1_455 S
C1237 C1238 1.524 . S
C1238 C1237 1.524 . S
C1238 C1239 1.397 . S
C1238 C1243 1.363 . S
C1239 H1210 0.950 1_455 S
C1239 C1238 1.397 . S
C1239 C1240 1.334 . S
C1240 H1211 0.950 . S
C1240 C1239 1.334 . S
C1240 C1241 1.287 . S
C1241 C1240 1.287 . S
C1241 C1242 1.524 . S
C1241 H1244 0.999 . S
C1242 H1212 0.950 . S
C1242 C1241 1.524 . S
C1242 C1243 1.415 . S
C1243 H1213 0.950 . S
C1243 C1238 1.363 . S
C1243 C1242 1.415 . S
H1244 C1241 0.999 . S
H1245 C1226 0.913 . S
H1246 C1264 0.951 . S
H1247 C1266 0.951 . S
H1248 C1268 0.950 . S
H1249 C1269 0.950 . S
H1250 C1271 0.950 . S
H1251 C1274 0.950 . S
H1252 C1275 0.950 . S
H1253 C1277 0.950 . S
H1254 C1278 0.950 1_554 S
H1255 C1279 0.951 . S
H1256 C1281 0.951 . S
H1257 C1283 0.950 . S
H1258 C1284 0.950 . S
H1259 C1286 0.950 . S
H1260 C1289 0.950 . S
H1261 C1290 0.950 . S
H1262 C1292 0.950 . S
H1263 C1293 0.950 . S
C1264 H1246 0.951 . S
C1264 C1265 1.366 . S
C1264 C1266 1.388 . S
C1265 C1264 1.366 . S
C1265 C1269 1.385 . S
C1266 H1247 0.951 . S
C1266 C1264 1.388 . S
C1266 C1267 1.366 . S
C1267 C1266 1.366 . S
C1267 C1268 1.414 . S
C1267 C1270 1.499 1_556 S
C1268 H1248 0.950 . S
C1268 C1267 1.414 . S
C1268 C1269 1.374 . S
C1269 H1249 0.950 . S
C1269 C1265 1.385 . S
C1269 C1268 1.374 . S
C1270 C1267 1.499 1_554 S
C1270 C1271 1.373 . S
C1270 C1272 1.389 . S
C1271 H1250 0.950 . S
C1271 C1270 1.373 . S
C1271 C1287 1.377 . S
C1272 C1270 1.389 . S
C1272 C1273 1.524 1_554 S
C1272 C1286 1.377 . S
C1273 C1272 1.524 1_556 S
C1273 C1274 1.397 . S
C1273 C1278 1.363 . S
C1274 H1251 0.950 . S
C1274 C1273 1.397 . S
C1274 C1275 1.334 . S
C1275 H1252 0.950 . S
C1275 C1274 1.334 . S
C1275 C1276 1.287 . S
C1276 C1275 1.287 . S
C1276 C1277 1.524 . S
C1276 H1295 0.913 . S
C1277 H1253 0.950 . S
C1277 C1276 1.524 . S
C1277 C1278 1.415 . S
C1278 H1254 0.950 1_556 S
C1278 C1273 1.363 . S
C1278 C1277 1.415 . S
C1279 H1255 0.951 . S
C1279 C1280 1.366 . S
C1279 C1281 1.388 . S
C1280 C1279 1.366 . S
C1280 C1284 1.385 . S
C1281 H1256 0.951 . S
C1281 C1279 1.388 . S
C1281 C1282 1.366 . S
C1282 C1281 1.366 . S
C1282 C1283 1.414 . S
C1282 C1285 1.499 . S
C1283 H1257 0.950 . S
C1283 C1282 1.414 . S
C1283 C1284 1.374 . S
C1284 H1258 0.950 . S
C1284 C1280 1.385 . S
C1284 C1283 1.374 . S
C1285 C1282 1.499 . S
C1285 C1286 1.373 . S
C1285 C1287 1.389 . S
C1286 H1259 0.950 . S
C1286 C1272 1.377 . S
C1286 C1285 1.373 . S
C1287 C1271 1.377 . S
C1287 C1285 1.389 . S
C1287 C1288 1.524 . S
C1288 C1287 1.524 . S
C1288 C1289 1.397 . S
C1288 C1293 1.363 . S
C1289 H1260 0.950 . S
C1289 C1288 1.397 . S
C1289 C1290 1.334 . S
C1290 H1261 0.950 . S
C1290 C1289 1.334 . S
C1290 C1291 1.287 . S
C1291 C1290 1.287 . S
C1291 C1292 1.524 . S
C1291 H1294 0.999 . S
C1292 H1262 0.950 . S
C1292 C1291 1.524 . S
C1292 C1293 1.415 . S
C1293 H1263 0.950 . S
C1293 C1288 1.363 . S
C1293 C1292 1.415 . S
H1294 C1291 0.999 . S
H1295 C1276 0.913 . S
H1296 C1314 0.951 . S
H1297 C1316 0.951 . S
H1298 C1318 0.950 1_556 S
H1299 C1319 0.950 . S
H1300 C1321 0.950 . S
H1301 C1324 0.950 . S
H1302 C1325 0.950 . S
H1303 C1327 0.950 . S
H1304 C1328 0.950 . S
H1305 C1329 0.951 . S
H1306 C1331 0.951 . S
H1307 C1333 0.950 . S
H1308 C1334 0.950 . S
H1309 C1336 0.950 . S
H1310 C1339 0.950 . S
H1311 C1340 0.950 . S
H1312 C1342 0.950 . S
H1313 C1343 0.950 . S
C1314 H1296 0.951 . S
C1314 C1315 1.366 . S
C1314 C1316 1.388 . S
C1315 C1314 1.366 . S
C1315 C1319 1.385 . S
C1316 H1297 0.951 . S
C1316 C1314 1.388 . S
C1316 C1317 1.366 . S
C1317 C1316 1.366 . S
C1317 C1318 1.414 . S
C1317 C1320 1.499 1_554 S
C1318 H1298 0.950 1_554 S
C1318 C1317 1.414 . S
C1318 C1319 1.374 . S
C1319 H1299 0.950 . S
C1319 C1315 1.385 . S
C1319 C1318 1.374 . S
C1320 C1317 1.499 1_556 S
C1320 C1321 1.373 . S
C1320 C1322 1.389 1_556 S
C1321 H1300 0.950 . S
C1321 C1320 1.373 . S
C1321 C1337 1.377 . S
C1322 C1320 1.389 1_554 S
C1322 C1323 1.524 . S
C1322 C1336 1.377 1_554 S
C1323 C1322 1.524 . S
C1323 C1324 1.397 . S
C1323 C1328 1.363 . S
C1324 H1301 0.950 . S
C1324 C1323 1.397 . S
C1324 C1325 1.334 . S
C1325 H1302 0.950 . S
C1325 C1324 1.334 . S
C1325 C1326 1.287 . S
C1326 C1325 1.287 . S
C1326 C1327 1.524 . S
C1326 H1345 0.913 . S
C1327 H1303 0.950 . S
C1327 C1326 1.524 . S
C1327 C1328 1.415 . S
C1328 H1304 0.950 . S
C1328 C1323 1.363 . S
C1328 C1327 1.415 . S
C1329 H1305 0.951 . S
C1329 C1330 1.366 . S
C1329 C1331 1.388 . S
C1330 C1329 1.366 . S
C1330 C1334 1.385 . S
C1331 H1306 0.951 . S
C1331 C1329 1.388 . S
C1331 C1332 1.366 . S
C1332 C1331 1.366 . S
C1332 C1333 1.414 . S
C1332 C1335 1.499 . S
C1333 H1307 0.950 . S
C1333 C1332 1.414 . S
C1333 C1334 1.374 . S
C1334 H1308 0.950 . S
C1334 C1330 1.385 . S
C1334 C1333 1.374 . S
C1335 C1332 1.499 . S
C1335 C1336 1.373 . S
C1335 C1337 1.389 . S
C1336 H1309 0.950 . S
C1336 C1322 1.377 1_556 S
C1336 C1335 1.373 . S
C1337 C1321 1.377 . S
C1337 C1335 1.389 . S
C1337 C1338 1.524 . S
C1338 C1337 1.524 . S
C1338 C1339 1.397 . S
C1338 C1343 1.363 . S
C1339 H1310 0.950 . S
C1339 C1338 1.397 . S
C1339 C1340 1.334 . S
C1340 H1311 0.950 . S
C1340 C1339 1.334 . S
C1340 C1341 1.287 . S
C1341 C1340 1.287 . S
C1341 C1342 1.524 . S
C1341 H1344 0.999 . S
C1342 H1312 0.950 . S
C1342 C1341 1.524 . S
C1342 C1343 1.415 . S
C1343 H1313 0.950 . S
C1343 C1338 1.363 . S
C1343 C1342 1.415 . S
H1344 C1341 0.999 . S
H1345 C1326 0.913 . S
H1346 C1364 0.951 . S
H1347 C1366 0.951 . S
H1348 C1368 0.950 . S
H1349 C1369 0.950 . S
H1350 C1371 0.950 . S
H1351 C1374 0.950 . S
H1352 C1375 0.950 . S
H1353 C1377 0.950 . S
H1354 C1378 0.950 . S
H1355 C1379 0.951 . S
H1356 C1381 0.951 . S
H1357 C1383 0.950 . S
H1358 C1384 0.950 . S
H1359 C1386 0.950 . S
H1360 C1389 0.950 . S
H1361 C1390 0.950 . S
H1362 C1392 0.950 . S
H1363 C1393 0.950 . S
C1364 H1346 0.951 . S
C1364 C1365 1.366 . S
C1364 C1366 1.388 . S
C1365 C1364 1.366 . S
C1365 C1369 1.385 . S
C1366 H1347 0.951 . S
C1366 C1364 1.388 . S
C1366 C1367 1.366 . S
C1367 C1366 1.366 . S
C1367 C1368 1.414 . S
C1367 C1370 1.499 . S
C1368 H1348 0.950 . S
C1368 C1367 1.414 . S
C1368 C1369 1.374 . S
C1369 H1349 0.950 . S
C1369 C1365 1.385 . S
C1369 C1368 1.374 . S
C1370 C1367 1.499 . S
C1370 C1371 1.373 . S
C1370 C1372 1.412 . S
C1371 H1350 0.950 . S
C1371 C1370 1.373 . S
C1371 C1387 1.386 . S
C1372 C1370 1.412 . S
C1372 C1373 1.522 1_565 S
C1372 C1386 1.354 1_565 S
C1373 C1372 1.522 1_545 S
C1373 C1374 1.397 . S
C1373 C1378 1.363 . S
C1374 H1351 0.950 . S
C1374 C1373 1.397 . S
C1374 C1375 1.334 . S
C1375 H1352 0.950 . S
C1375 C1374 1.334 . S
C1375 C1376 1.287 . S
C1376 C1375 1.287 . S
C1376 C1377 1.524 . S
C1376 H1395 0.913 . S
C1377 H1353 0.950 . S
C1377 C1376 1.524 . S
C1377 C1378 1.415 . S
C1378 H1354 0.950 . S
C1378 C1373 1.363 . S
C1378 C1377 1.415 . S
C1379 H1355 0.951 . S
C1379 C1380 1.366 . S
C1379 C1381 1.388 . S
C1380 C1379 1.366 . S
C1380 C1384 1.385 . S
C1381 H1356 0.951 . S
C1381 C1379 1.388 . S
C1381 C1382 1.366 . S
C1382 C1381 1.366 . S
C1382 C1383 1.414 . S
C1382 C1385 1.499 . S
C1383 H1357 0.950 . S
C1383 C1382 1.414 . S
C1383 C1384 1.374 . S
C1384 H1358 0.950 . S
C1384 C1380 1.385 . S
C1384 C1383 1.374 . S
C1385 C1382 1.499 . S
C1385 C1386 1.373 . S
C1385 C1387 1.379 1_545 S
C1386 H1359 0.950 . S
C1386 C1372 1.354 1_545 S
C1386 C1385 1.373 . S
C1387 C1371 1.386 . S
C1387 C1385 1.379 1_565 S
C1387 C1388 1.526 . S
C1388 C1387 1.526 . S
C1388 C1389 1.397 . S
C1388 C1393 1.363 . S
C1389 H1360 0.950 . S
C1389 C1388 1.397 . S
C1389 C1390 1.334 . S
C1390 H1361 0.950 . S
C1390 C1389 1.334 . S
C1390 C1391 1.287 . S
C1391 C1390 1.287 . S
C1391 C1392 1.524 . S
C1391 H1394 0.999 . S
C1392 H1362 0.950 . S
C1392 C1391 1.524 . S
C1392 C1393 1.415 . S
C1393 H1363 0.950 . S
C1393 C1388 1.363 . S
C1393 C1392 1.415 . S
H1394 C1391 0.999 . S
H1395 C1376 0.913 . S
H1396 C1414 0.951 . S
H1397 C1416 0.951 1_556 S
H1398 C1418 0.950 . S
H1399 C1419 0.950 . S
H1400 C1421 0.950 . S
H1401 C1424 0.950 . S
H1402 C1425 0.950 . S
H1403 C1427 0.950 . S
H1404 C1428 0.950 . S
H1405 C1429 0.951 . S
H1406 C1431 0.951 . S
H1407 C1433 0.950 . S
H1408 C1434 0.950 . S
H1409 C1436 0.950 . S
H1410 C1439 0.950 . S
H1411 C1440 0.950 . S
H1412 C1442 0.950 . S
H1413 C1443 0.950 . S
C1414 H1396 0.951 . S
C1414 C1415 1.366 . S
C1414 C1416 1.388 . S
C1415 C1414 1.366 . S
C1415 C1419 1.385 . S
C1416 H1397 0.951 1_554 S
C1416 C1414 1.388 . S
C1416 C1417 1.366 . S
C1417 C1416 1.366 . S
C1417 C1418 1.414 . S
C1417 C1420 1.499 1_554 S
C1418 H1398 0.950 . S
C1418 C1417 1.414 . S
C1418 C1419 1.374 . S
C1419 H1399 0.950 . S
C1419 C1415 1.385 . S
C1419 C1418 1.374 . S
C1420 C1417 1.499 1_556 S
C1420 C1421 1.380 1_556 S
C1420 C1422 1.389 . S
C1421 H1400 0.950 . S
C1421 C1420 1.380 1_554 S
C1421 C1437 1.370 1_654 S
C1422 C1420 1.389 . S
C1422 C1423 1.524 . S
C1422 C1436 1.377 1_655 S
C1423 C1422 1.524 . S
C1423 C1424 1.397 . S
C1423 C1428 1.363 . S
C1424 H1401 0.950 . S
C1424 C1423 1.397 . S
C1424 C1425 1.334 . S
C1425 H1402 0.950 . S
C1425 C1424 1.334 . S
C1425 C1426 1.287 . S
C1426 C1425 1.287 . S
C1426 C1427 1.524 . S
C1426 H1445 0.913 . S
C1427 H1403 0.950 . S
C1427 C1426 1.524 . S
C1427 C1428 1.415 . S
C1428 H1404 0.950 . S
C1428 C1423 1.363 . S
C1428 C1427 1.415 . S
C1429 H1405 0.951 . S
C1429 C1430 1.366 . S
C1429 C1431 1.388 . S
C1430 C1429 1.366 . S
C1430 C1434 1.385 . S
C1431 H1406 0.951 . S
C1431 C1429 1.388 . S
C1431 C1432 1.366 . S
C1432 C1431 1.366 . S
C1432 C1433 1.414 . S
C1432 C1435 1.499 . S
C1433 H1407 0.950 . S
C1433 C1432 1.414 . S
C1433 C1434 1.374 . S
C1434 H1408 0.950 . S
C1434 C1430 1.385 . S
C1434 C1433 1.374 . S
C1435 C1432 1.499 . S
C1435 C1436 1.373 . S
C1435 C1437 1.389 . S
C1436 H1409 0.950 . S
C1436 C1422 1.377 1_455 S
C1436 C1435 1.373 . S
C1437 C1421 1.370 1_456 S
C1437 C1435 1.389 . S
C1437 C1438 1.524 1_556 S
C1438 C1437 1.524 1_554 S
C1438 C1439 1.397 1_554 S
C1438 C1443 1.363 . S
C1439 H1410 0.950 . S
C1439 C1438 1.397 1_556 S
C1439 C1440 1.334 . S
C1440 H1411 0.950 . S
C1440 C1439 1.334 . S
C1440 C1441 1.287 1_556 S
C1441 C1440 1.287 1_554 S
C1441 C1442 1.524 . S
C1441 H1444 0.999 . S
C1442 H1412 0.950 . S
C1442 C1441 1.524 . S
C1442 C1443 1.415 . S
C1443 H1413 0.950 . S
C1443 C1438 1.363 . S
C1443 C1442 1.415 . S
H1444 C1441 0.999 . S
H1445 C1426 0.913 . S
H1446 C1464 0.951 . S
H1447 C1466 0.951 . S
H1448 C1468 0.950 . S
H1449 C1469 0.950 . S
H1450 C1471 0.950 . S
H1451 C1474 0.950 . S
H1452 C1475 0.950 . S
H1453 C1477 0.950 . S
H1454 C1478 0.950 . S
H1455 C1479 0.951 . S
H1456 C1481 0.951 . S
H1457 C1483 0.950 . S
H1458 C1484 0.950 . S
H1459 C1486 0.950 . S
H1460 C1489 0.950 . S
H1461 C1490 0.950 . S
H1462 C1492 0.950 . S
H1463 C1493 0.950 . S
C1464 H1446 0.951 . S
C1464 C1465 1.366 . S
C1464 C1466 1.388 . S
C1465 C1464 1.366 . S
C1465 C1469 1.385 . S
C1466 H1447 0.951 . S
C1466 C1464 1.388 . S
C1466 C1467 1.366 . S
C1467 C1466 1.366 . S
C1467 C1468 1.414 . S
C1467 C1470 1.499 . S
C1468 H1448 0.950 . S
C1468 C1467 1.414 . S
C1468 C1469 1.374 . S
C1469 H1449 0.950 . S
C1469 C1465 1.385 . S
C1469 C1468 1.374 . S
C1470 C1467 1.499 . S
C1470 C1471 1.373 . S
C1470 C1472 1.389 . S
C1471 H1450 0.950 . S
C1471 C1470 1.373 . S
C1471 C1487 1.377 . S
C1472 C1470 1.389 . S
C1472 C1473 1.524 . S
C1472 C1486 1.377 . S
C1473 C1472 1.524 . S
C1473 C1474 1.397 . S
C1473 C1478 1.363 . S
C1474 H1451 0.950 . S
C1474 C1473 1.397 . S
C1474 C1475 1.334 . S
C1475 H1452 0.950 . S
C1475 C1474 1.334 . S
C1475 C1476 1.287 . S
C1476 C1475 1.287 . S
C1476 C1477 1.524 . S
C1476 H1495 0.913 . S
C1477 H1453 0.950 . S
C1477 C1476 1.524 . S
C1477 C1478 1.415 . S
C1478 H1454 0.950 . S
C1478 C1473 1.363 . S
C1478 C1477 1.415 . S
C1479 H1455 0.951 . S
C1479 C1480 1.366 . S
C1479 C1481 1.388 . S
C1480 C1479 1.366 . S
C1480 C1484 1.385 . S
C1481 H1456 0.951 . S
C1481 C1479 1.388 . S
C1481 C1482 1.366 . S
C1482 C1481 1.366 . S
C1482 C1483 1.414 . S
C1482 C1485 1.499 . S
C1483 H1457 0.950 . S
C1483 C1482 1.414 . S
C1483 C1484 1.374 . S
C1484 H1458 0.950 . S
C1484 C1480 1.385 . S
C1484 C1483 1.374 . S
C1485 C1482 1.499 . S
C1485 C1486 1.373 . S
C1485 C1487 1.389 . S
C1486 H1459 0.950 . S
C1486 C1472 1.377 . S
C1486 C1485 1.373 . S
C1487 C1471 1.377 . S
C1487 C1485 1.389 . S
C1487 C1488 1.524 . S
C1488 C1487 1.524 . S
C1488 C1489 1.397 . S
C1488 C1493 1.363 . S
C1489 H1460 0.950 . S
C1489 C1488 1.397 . S
C1489 C1490 1.334 . S
C1490 H1461 0.950 . S
C1490 C1489 1.334 . S
C1490 C1491 1.287 . S
C1491 C1490 1.287 . S
C1491 C1492 1.524 . S
C1491 H1494 0.999 . S
C1492 H1462 0.950 . S
C1492 C1491 1.524 . S
C1492 C1493 1.415 . S
C1493 H1463 0.950 . S
C1493 C1488 1.363 . S
C1493 C1492 1.415 . S
H1494 C1491 0.999 . S
H1495 C1476 0.913 . S
H1496 C1514 0.951 . S
H1497 C1516 0.951 . S
H1498 C1518 0.950 . S
H1499 C1519 0.950 . S
H1500 C1521 0.950 . S
H1501 C1524 0.950 . S
H1502 C1525 0.950 . S
H1503 C1527 0.950 . S
H1504 C1528 0.950 . S
H1505 C1529 0.951 . S
H1506 C1531 0.951 . S
H1507 C1533 0.950 . S
H1508 C1534 0.950 . S
H1509 C1536 0.950 . S
H1510 C1539 0.950 . S
H1511 C1540 0.950 . S
H1512 C1542 0.950 . S
H1513 C1543 0.950 . S
C1514 H1496 0.951 . S
C1514 C1515 1.366 . S
C1514 C1516 1.388 . S
C1515 C1514 1.366 . S
C1515 C1519 1.385 . S
C1516 H1497 0.951 . S
C1516 C1514 1.388 . S
C1516 C1517 1.366 . S
C1517 C1516 1.366 . S
C1517 C1518 1.414 . S
C1517 C1520 1.499 . S
C1518 H1498 0.950 . S
C1518 C1517 1.414 . S
C1518 C1519 1.374 . S
C1519 H1499 0.950 . S
C1519 C1515 1.385 . S
C1519 C1518 1.374 . S
C1520 C1517 1.499 . S
C1520 C1521 1.373 . S
C1520 C1522 1.389 . S
C1521 H1500 0.950 . S
C1521 C1520 1.373 . S
C1521 C1537 1.377 . S
C1522 C1520 1.389 . S
C1522 C1523 1.524 . S
C1522 C1536 1.377 . S
C1523 C1522 1.524 . S
C1523 C1524 1.397 . S
C1523 C1528 1.363 . S
C1524 H1501 0.950 . S
C1524 C1523 1.397 . S
C1524 C1525 1.334 . S
C1525 H1502 0.950 . S
C1525 C1524 1.334 . S
C1525 C1526 1.287 . S
C1526 C1525 1.287 . S
C1526 C1527 1.524 . S
C1526 H1545 0.913 . S
C1527 H1503 0.950 . S
C1527 C1526 1.524 . S
C1527 C1528 1.415 . S
C1528 H1504 0.950 . S
C1528 C1523 1.363 . S
C1528 C1527 1.415 . S
C1529 H1505 0.951 . S
C1529 C1530 1.366 . S
C1529 C1531 1.388 . S
C1530 C1529 1.366 . S
C1530 C1534 1.385 . S
C1531 H1506 0.951 . S
C1531 C1529 1.388 . S
C1531 C1532 1.366 . S
C1532 C1531 1.366 . S
C1532 C1533 1.414 . S
C1532 C1535 1.499 . S
C1533 H1507 0.950 . S
C1533 C1532 1.414 . S
C1533 C1534 1.374 . S
C1534 H1508 0.950 . S
C1534 C1530 1.385 . S
C1534 C1533 1.374 . S
C1535 C1532 1.499 . S
C1535 C1536 1.373 . S
C1535 C1537 1.389 . S
C1536 H1509 0.950 . S
C1536 C1522 1.377 . S
C1536 C1535 1.373 . S
C1537 C1521 1.377 . S
C1537 C1535 1.389 . S
C1537 C1538 1.524 . S
C1538 C1537 1.524 . S
C1538 C1539 1.397 . S
C1538 C1543 1.363 . S
C1539 H1510 0.950 . S
C1539 C1538 1.397 . S
C1539 C1540 1.334 . S
C1540 H1511 0.950 . S
C1540 C1539 1.334 . S
C1540 C1541 1.287 . S
C1541 C1540 1.287 . S
C1541 C1542 1.524 . S
C1541 H1544 0.999 . S
C1542 H1512 0.950 . S
C1542 C1541 1.524 . S
C1542 C1543 1.415 . S
C1543 H1513 0.950 . S
C1543 C1538 1.363 . S
C1543 C1542 1.415 . S
H1544 C1541 0.999 . S
H1545 C1526 0.913 . S
H1546 C1564 0.951 . S
H1547 C1566 0.951 . S
H1548 C1568 0.950 . S
H1549 C1569 0.950 . S
H1550 C1571 0.954 . S
H1551 C1574 0.950 . S
H1552 C1575 0.950 . S
H1553 C1577 0.950 . S
H1554 C1578 0.950 . S
H1555 C1579 0.951 . S
H1556 C1581 0.951 . S
H1557 C1583 0.950 . S
H1558 C1584 0.950 . S
H1559 C1586 0.950 . S
H1560 C1589 0.950 . S
H1561 C1590 0.950 . S
H1562 C1592 0.950 . S
H1563 C1593 0.950 . S
C1564 H1546 0.951 . S
C1564 C1565 1.366 . S
C1564 C1566 1.388 . S
C1565 C1564 1.366 . S
C1565 C1569 1.385 . S
C1566 H1547 0.951 . S
C1566 C1564 1.388 . S
C1566 C1567 1.366 . S
C1567 C1566 1.366 . S
C1567 C1568 1.414 . S
C1567 C1570 1.499 . S
C1568 H1548 0.950 . S
C1568 C1567 1.414 . S
C1568 C1569 1.374 . S
C1569 H1549 0.950 . S
C1569 C1565 1.385 . S
C1569 C1568 1.374 . S
C1570 C1567 1.499 . S
C1570 C1571 1.343 1_545 S
C1570 C1572 1.389 . S
C1571 H1550 0.954 . S
C1571 C1570 1.343 1_565 S
C1571 C1587 1.405 . S
C1572 C1570 1.389 . S
C1572 C1573 1.524 . S
C1572 C1586 1.377 . S
C1573 C1572 1.524 . S
C1573 C1574 1.397 . S
C1573 C1578 1.363 . S
C1574 H1551 0.950 . S
C1574 C1573 1.397 . S
C1574 C1575 1.334 . S
C1575 H1552 0.950 . S
C1575 C1574 1.334 . S
C1575 C1576 1.287 . S
C1576 C1575 1.287 . S
C1576 C1577 1.524 . S
C1576 H1595 0.913 . S
C1577 H1553 0.950 . S
C1577 C1576 1.524 . S
C1577 C1578 1.415 . S
C1578 H1554 0.950 . S
C1578 C1573 1.363 . S
C1578 C1577 1.415 . S
C1579 H1555 0.951 . S
C1579 C1580 1.366 . S
C1579 C1581 1.388 . S
C1580 C1579 1.366 . S
C1580 C1584 1.385 . S
C1581 H1556 0.951 . S
C1581 C1579 1.388 . S
C1581 C1582 1.366 . S
C1582 C1581 1.366 . S
C1582 C1583 1.414 . S
C1582 C1585 1.499 . S
C1583 H1557 0.950 . S
C1583 C1582 1.414 . S
C1583 C1584 1.374 . S
C1584 H1558 0.950 . S
C1584 C1580 1.385 . S
C1584 C1583 1.374 . S
C1585 C1582 1.499 . S
C1585 C1586 1.373 1_565 S
C1585 C1587 1.389 . S
C1586 H1559 0.950 . S
C1586 C1572 1.377 . S
C1586 C1585 1.373 1_545 S
C1587 C1571 1.405 . S
C1587 C1585 1.389 . S
C1587 C1588 1.524 . S
C1588 C1587 1.524 . S
C1588 C1589 1.397 . S
C1588 C1593 1.363 . S
C1589 H1560 0.950 . S
C1589 C1588 1.397 . S
C1589 C1590 1.334 . S
C1590 H1561 0.950 . S
C1590 C1589 1.334 . S
C1590 C1591 1.287 . S
C1591 C1590 1.287 . S
C1591 C1592 1.524 . S
C1591 H1594 0.999 . S
C1592 H1562 0.950 . S
C1592 C1591 1.524 . S
C1592 C1593 1.415 . S
C1593 H1563 0.950 . S
C1593 C1588 1.363 . S
C1593 C1592 1.415 . S
H1594 C1591 0.999 . S
H1595 C1576 0.913 . S
H1596 C1614 0.951 . S
H1597 C1616 0.951 . S
H1598 C1618 0.950 . S
H1599 C1619 0.950 . S
H1600 C1621 0.950 . S
H1601 C1624 0.942 1_655 S
H1602 C1625 0.950 1_655 S
H1603 C1627 0.950 . S
H1604 C1628 0.950 . S
H1605 C1629 0.951 . S
H1606 C1631 0.951 . S
H1607 C1633 0.950 1_545 S
H1608 C1634 0.950 . S
H1609 C1636 0.950 . S
H1610 C1639 0.950 1_455 S
H1611 C1640 0.950 1_455 S
H1612 C1642 0.950 . S
H1613 C1643 0.950 . S
C1614 H1596 0.951 . S
C1614 C1615 1.366 . S
C1614 C1616 1.388 . S
C1615 C1614 1.366 . S
C1615 C1619 1.385 . S
C1616 H1597 0.951 . S
C1616 C1614 1.388 . S
C1616 C1617 1.366 . S
C1617 C1616 1.366 . S
C1617 C1618 1.414 . S
C1617 C1620 1.499 . S
C1618 H1598 0.950 . S
C1618 C1617 1.414 . S
C1618 C1619 1.374 . S
C1619 H1599 0.950 . S
C1619 C1615 1.385 . S
C1619 C1618 1.374 . S
C1620 C1617 1.499 . S
C1620 C1621 1.373 . S
C1620 C1622 1.389 1_655 S
C1621 H1600 0.950 . S
C1621 C1620 1.373 . S
C1621 C1637 1.377 1_545 S
C1622 C1620 1.389 1_455 S
C1622 C1623 1.524 . S
C1622 C1636 1.377 . S
C1623 C1622 1.524 . S
C1623 C1624 1.401 . S
C1623 C1628 1.363 . S
C1624 H1601 0.942 1_455 S
C1624 C1623 1.401 . S
C1624 C1625 1.337 . S
C1625 H1602 0.950 1_455 S
C1625 C1624 1.337 . S
C1625 C1626 1.287 . S
C1626 C1625 1.287 . S
C1626 C1627 1.524 . S
C1626 H1645 0.913 . S
C1627 H1603 0.950 . S
C1627 C1626 1.524 . S
C1627 C1628 1.415 . S
C1628 H1604 0.950 . S
C1628 C1623 1.363 . S
C1628 C1627 1.415 . S
C1629 H1605 0.951 . S
C1629 C1630 1.366 . S
C1629 C1631 1.388 . S
C1630 C1629 1.366 . S
C1630 C1634 1.385 . S
C1631 H1606 0.951 . S
C1631 C1629 1.388 . S
C1631 C1632 1.366 . S
C1632 C1631 1.366 . S
C1632 C1633 1.414 . S
C1632 C1635 1.499 1_565 S
C1633 H1607 0.950 1_565 S
C1633 C1632 1.414 . S
C1633 C1634 1.374 . S
C1634 H1608 0.950 . S
C1634 C1630 1.385 . S
C1634 C1633 1.374 . S
C1635 C1632 1.499 1_545 S
C1635 C1636 1.373 . S
C1635 C1637 1.389 1_445 S
C1636 H1609 0.950 . S
C1636 C1622 1.377 . S
C1636 C1635 1.373 . S
C1637 C1621 1.377 1_565 S
C1637 C1635 1.389 1_665 S
C1637 C1638 1.524 . S
C1638 C1637 1.524 . S
C1638 C1639 1.397 . S
C1638 C1643 1.363 . S
C1639 H1610 0.950 1_655 S
C1639 C1638 1.397 . S
C1639 C1640 1.334 . S
C1640 H1611 0.950 1_655 S
C1640 C1639 1.334 . S
C1640 C1641 1.287 . S
C1641 C1640 1.287 . S
C1641 C1642 1.524 . S
C1641 H1644 0.999 . S
C1642 H1612 0.950 . S
C1642 C1641 1.524 . S
C1642 C1643 1.415 . S
C1643 H1613 0.950 . S
C1643 C1638 1.363 . S
C1643 C1642 1.415 . S
H1644 C1641 0.999 . S
H1645 C1626 0.913 . S
H1646 C1664 0.951 . S
H1647 C1666 0.951 . S
H1648 C1668 0.950 . S
H1649 C1669 0.950 . S
H1650 C1671 0.950 . S
H1651 C1674 0.950 . S
H1652 C1675 0.950 . S
H1653 C1677 0.950 . S
H1654 C1678 0.950 . S
H1655 C1679 0.951 . S
H1656 C1681 0.951 . S
H1657 C1683 0.950 . S
H1658 C1684 0.950 . S
H1659 C1686 0.950 . S
H1660 C1689 0.950 1_655 S
H1661 C1690 0.950 . S
H1662 C1692 0.950 . S
H1663 C1693 0.950 . S
C1664 H1646 0.951 . S
C1664 C1665 1.366 . S
C1664 C1666 1.388 . S
C1665 C1664 1.366 . S
C1665 C1669 1.385 . S
C1666 H1647 0.951 . S
C1666 C1664 1.388 . S
C1666 C1667 1.366 . S
C1667 C1666 1.366 . S
C1667 C1668 1.414 . S
C1667 C1670 1.499 1_455 S
C1668 H1648 0.950 . S
C1668 C1667 1.414 . S
C1668 C1669 1.374 . S
C1669 H1649 0.950 . S
C1669 C1665 1.385 . S
C1669 C1668 1.374 . S
C1670 C1667 1.499 1_655 S
C1670 C1671 1.373 1_655 S
C1670 C1672 1.389 . S
C1671 H1650 0.950 . S
C1671 C1670 1.373 1_455 S
C1671 C1687 1.377 1_455 S
C1672 C1670 1.389 . S
C1672 C1673 1.524 . S
C1672 C1686 1.377 . S
C1673 C1672 1.524 . S
C1673 C1674 1.397 . S
C1673 C1678 1.363 . S
C1674 H1651 0.950 . S
C1674 C1673 1.397 . S
C1674 C1675 1.334 . S
C1675 H1652 0.950 . S
C1675 C1674 1.334 . S
C1675 C1676 1.287 . S
C1676 C1675 1.287 . S
C1676 C1677 1.524 . S
C1676 H1695 0.913 . S
C1677 H1653 0.950 . S
C1677 C1676 1.524 . S
C1677 C1678 1.415 . S
C1678 H1654 0.950 . S
C1678 C1673 1.363 . S
C1678 C1677 1.415 . S
C1679 H1655 0.951 . S
C1679 C1680 1.366 . S
C1679 C1681 1.388 . S
C1680 C1679 1.366 . S
C1680 C1684 1.385 . S
C1681 H1656 0.951 . S
C1681 C1679 1.388 . S
C1681 C1682 1.366 . S
C1682 C1681 1.366 . S
C1682 C1683 1.414 . S
C1682 C1685 1.499 . S
C1683 H1657 0.950 . S
C1683 C1682 1.414 . S
C1683 C1684 1.374 . S
C1684 H1658 0.950 . S
C1684 C1680 1.385 . S
C1684 C1683 1.374 . S
C1685 C1682 1.499 . S
C1685 C1686 1.373 . S
C1685 C1687 1.389 . S
C1686 H1659 0.950 . S
C1686 C1672 1.377 . S
C1686 C1685 1.373 . S
C1687 C1671 1.377 1_655 S
C1687 C1685 1.389 . S
C1687 C1688 1.524 . S
C1688 C1687 1.524 . S
C1688 C1689 1.397 1_655 S
C1688 C1693 1.363 1_655 S
C1689 H1660 0.950 1_455 S
C1689 C1688 1.397 1_455 S
C1689 C1690 1.334 . S
C1690 H1661 0.950 . S
C1690 C1689 1.334 . S
C1690 C1691 1.287 . S
C1691 C1690 1.287 . S
C1691 C1692 1.524 . S
C1691 H1694 0.999 . S
C1692 H1662 0.950 . S
C1692 C1691 1.524 . S
C1692 C1693 1.415 . S
C1693 H1663 0.950 . S
C1693 C1688 1.363 1_455 S
C1693 C1692 1.415 . S
H1694 C1691 0.999 . S
H1695 C1676 0.913 . S
H1696 C1714 0.951 . S
H1697 C1716 0.951 . S
H1698 C1718 0.950 . S
H1699 C1719 0.950 . S
H1700 C1721 0.950 . S
H1701 C1724 0.950 . S
H1702 C1725 0.950 . S
H1703 C1727 0.950 . S
H1704 C1728 0.950 . S
H1705 C1729 0.951 . S
H1706 C1731 0.951 . S
H1707 C1733 0.950 . S
H1708 C1734 0.950 . S
H1709 C1736 0.950 . S
H1710 C1739 0.950 . S
H1711 C1740 0.950 . S
H1712 C1742 0.950 . S
H1713 C1743 0.950 . S
C1714 H1696 0.951 . S
C1714 C1715 1.366 . S
C1714 C1716 1.388 . S
C1715 C1714 1.366 . S
C1715 C1719 1.385 . S
C1716 H1697 0.951 . S
C1716 C1714 1.388 . S
C1716 C1717 1.366 . S
C1717 C1716 1.366 . S
C1717 C1718 1.414 . S
C1717 C1720 1.499 . S
C1718 H1698 0.950 . S
C1718 C1717 1.414 . S
C1718 C1719 1.374 . S
C1719 H1699 0.950 . S
C1719 C1715 1.385 . S
C1719 C1718 1.374 . S
C1720 C1717 1.499 . S
C1720 C1721 1.373 . S
C1720 C1722 1.389 . S
C1721 H1700 0.950 . S
C1721 C1720 1.373 . S
C1721 C1737 1.377 . S
C1722 C1720 1.389 . S
C1722 C1723 1.524 . S
C1722 C1736 1.377 . S
C1723 C1722 1.524 . S
C1723 C1724 1.397 . S
C1723 C1728 1.363 . S
C1724 H1701 0.950 . S
C1724 C1723 1.397 . S
C1724 C1725 1.334 . S
C1725 H1702 0.950 . S
C1725 C1724 1.334 . S
C1725 C1726 1.287 . S
C1726 C1725 1.287 . S
C1726 C1727 1.524 . S
C1726 H1745 0.913 . S
C1727 H1703 0.950 . S
C1727 C1726 1.524 . S
C1727 C1728 1.415 . S
C1728 H1704 0.950 . S
C1728 C1723 1.363 . S
C1728 C1727 1.415 . S
C1729 H1705 0.951 . S
C1729 C1730 1.366 . S
C1729 C1731 1.388 . S
C1730 C1729 1.366 . S
C1730 C1734 1.385 . S
C1731 H1706 0.951 . S
C1731 C1729 1.388 . S
C1731 C1732 1.366 . S
C1732 C1731 1.366 . S
C1732 C1733 1.414 . S
C1732 C1735 1.499 . S
C1733 H1707 0.950 . S
C1733 C1732 1.414 . S
C1733 C1734 1.374 . S
C1734 H1708 0.950 . S
C1734 C1730 1.385 . S
C1734 C1733 1.374 . S
C1735 C1732 1.499 . S
C1735 C1736 1.373 . S
C1735 C1737 1.389 . S
C1736 H1709 0.950 . S
C1736 C1722 1.377 . S
C1736 C1735 1.373 . S
C1737 C1721 1.377 . S
C1737 C1735 1.389 . S
C1737 C1738 1.524 . S
C1738 C1737 1.524 . S
C1738 C1739 1.397 . S
C1738 C1743 1.363 . S
C1739 H1710 0.950 . S
C1739 C1738 1.397 . S
C1739 C1740 1.334 . S
C1740 H1711 0.950 . S
C1740 C1739 1.334 . S
C1740 C1741 1.287 . S
C1741 C1740 1.287 . S
C1741 C1742 1.524 . S
C1741 H1744 0.999 . S
C1742 H1712 0.950 . S
C1742 C1741 1.524 . S
C1742 C1743 1.415 . S
C1743 H1713 0.950 . S
C1743 C1738 1.363 . S
C1743 C1742 1.415 . S
H1744 C1741 0.999 . S
H1745 C1726 0.913 . S
H1746 C1764 0.951 . S
H1747 C1766 0.951 . S
H1748 C1768 0.950 1_655 S
H1749 C1769 0.950 . S
H1750 C1771 0.950 . S
H1751 C1774 0.950 . S
H1752 C1775 0.950 . S
H1753 C1777 0.950 1_545 S
H1754 C1778 0.950 . S
H1755 C1779 0.951 . S
H1756 C1781 0.951 . S
H1757 C1783 0.950 . S
H1758 C1784 0.950 . S
H1759 C1786 0.950 . S
H1760 C1789 0.950 . S
H1761 C1790 0.950 . S
H1762 C1792 0.950 1_565 S
H1763 C1793 0.950 . S
C1764 H1746 0.951 . S
C1764 C1765 1.366 . S
C1764 C1766 1.388 . S
C1765 C1764 1.366 . S
C1765 C1769 1.385 . S
C1766 H1747 0.951 . S
C1766 C1764 1.388 . S
C1766 C1767 1.366 . S
C1767 C1766 1.366 . S
C1767 C1768 1.414 . S
C1767 C1770 1.499 1_455 S
C1768 H1748 0.950 1_455 S
C1768 C1767 1.414 . S
C1768 C1769 1.374 . S
C1769 H1749 0.950 . S
C1769 C1765 1.385 . S
C1769 C1768 1.374 . S
C1770 C1767 1.499 1_655 S
C1770 C1771 1.373 . S
C1770 C1772 1.389 . S
C1771 H1750 0.950 . S
C1771 C1770 1.373 . S
C1771 C1787 1.377 1_565 S
C1772 C1770 1.389 . S
C1772 C1773 1.524 1_655 S
C1772 C1786 1.377 1_565 S
C1773 C1772 1.524 1_455 S
C1773 C1774 1.397 . S
C1773 C1778 1.363 1_565 S
C1774 H1751 0.950 . S
C1774 C1773 1.397 . S
C1774 C1775 1.334 . S
C1775 H1752 0.950 . S
C1775 C1774 1.334 . S
C1775 C1776 1.287 . S
C1776 C1775 1.287 . S
C1776 C1777 1.524 . S
C1776 H1795 0.913 . S
C1777 H1753 0.950 1_565 S
C1777 C1776 1.524 . S
C1777 C1778 1.415 1_565 S
C1778 H1754 0.950 . S
C1778 C1773 1.363 1_545 S
C1778 C1777 1.415 1_545 S
C1779 H1755 0.951 . S
C1779 C1780 1.366 . S
C1779 C1781 1.388 . S
C1780 C1779 1.366 . S
C1780 C1784 1.385 . S
C1781 H1756 0.951 . S
C1781 C1779 1.388 . S
C1781 C1782 1.366 . S
C1782 C1781 1.366 . S
C1782 C1783 1.414 . S
C1782 C1785 1.499 . S
C1783 H1757 0.950 . S
C1783 C1782 1.414 . S
C1783 C1784 1.374 . S
C1784 H1758 0.950 . S
C1784 C1780 1.385 . S
C1784 C1783 1.374 . S
C1785 C1782 1.499 . S
C1785 C1786 1.373 . S
C1785 C1787 1.389 . S
C1786 H1759 0.950 . S
C1786 C1772 1.377 1_545 S
C1786 C1785 1.373 . S
C1787 C1771 1.377 1_545 S
C1787 C1785 1.389 . S
C1787 C1788 1.524 . S
C1788 C1787 1.524 . S
C1788 C1789 1.397 . S
C1788 C1793 1.363 1_545 S
C1789 H1760 0.950 . S
C1789 C1788 1.397 . S
C1789 C1790 1.334 . S
C1790 H1761 0.950 . S
C1790 C1789 1.334 . S
C1790 C1791 1.287 . S
C1791 C1790 1.287 . S
C1791 C1792 1.524 . S
C1791 H1794 0.999 . S
C1792 H1762 0.950 1_545 S
C1792 C1791 1.524 . S
C1792 C1793 1.415 1_545 S
C1793 H1763 0.950 . S
C1793 C1788 1.363 1_565 S
C1793 C1792 1.415 1_565 S
H1794 C1791 0.999 . S
H1795 C1776 0.913 . S
H1796 C1814 0.951 . S
H1797 C1816 0.951 . S
H1798 C1818 0.950 . S
H1799 C1819 0.950 . S
H1800 C1821 0.952 . S
H1801 C1824 0.950 . S
H1802 C1825 0.950 . S
H1803 C1827 0.950 . S
H1804 C1828 0.950 . S
H1805 C1829 0.951 . S
H1806 C1831 0.951 . S
H1807 C1833 0.950 . S
H1808 C1834 0.950 . S
H1809 C1836 0.950 . S
H1810 C1839 0.950 . S
H1811 C1840 0.950 . S
H1812 C1842 0.950 . S
H1813 C1843 0.950 . S
C1814 H1796 0.951 . S
C1814 C1815 1.366 . S
C1814 C1816 1.388 . S
C1815 C1814 1.366 . S
C1815 C1819 1.385 . S
C1816 H1797 0.951 . S
C1816 C1814 1.388 . S
C1816 C1817 1.366 . S
C1817 C1816 1.366 . S
C1817 C1818 1.414 . S
C1817 C1820 1.499 . S
C1818 H1798 0.950 . S
C1818 C1817 1.414 . S
C1818 C1819 1.374 . S
C1819 H1799 0.950 . S
C1819 C1815 1.385 . S
C1819 C1818 1.374 . S
C1820 C1817 1.499 . S
C1820 C1821 1.349 1_655 S
C1820 C1822 1.389 . S
C1821 H1800 0.952 . S
C1821 C1820 1.349 1_455 S
C1821 C1837 1.399 . S
C1822 C1820 1.389 . S
C1822 C1823 1.524 . S
C1822 C1836 1.377 . S
C1823 C1822 1.524 . S
C1823 C1824 1.397 . S
C1823 C1828 1.363 . S
C1824 H1801 0.950 . S
C1824 C1823 1.397 . S
C1824 C1825 1.334 . S
C1825 H1802 0.950 . S
C1825 C1824 1.334 . S
C1825 C1826 1.287 . S
C1826 C1825 1.287 . S
C1826 C1827 1.524 . S
C1826 H1845 0.913 . S
C1827 H1803 0.950 . S
C1827 C1826 1.524 . S
C1827 C1828 1.415 . S
C1828 H1804 0.950 . S
C1828 C1823 1.363 . S
C1828 C1827 1.415 . S
C1829 H1805 0.951 . S
C1829 C1830 1.366 . S
C1829 C1831 1.388 . S
C1830 C1829 1.366 . S
C1830 C1834 1.385 . S
C1831 H1806 0.951 . S
C1831 C1829 1.388 . S
C1831 C1832 1.366 . S
C1832 C1831 1.366 . S
C1832 C1833 1.414 . S
C1832 C1835 1.499 . S
C1833 H1807 0.950 . S
C1833 C1832 1.414 . S
C1833 C1834 1.374 . S
C1834 H1808 0.950 . S
C1834 C1830 1.385 . S
C1834 C1833 1.374 . S
C1835 C1832 1.499 . S
C1835 C1836 1.373 1_455 S
C1835 C1837 1.389 . S
C1836 H1809 0.950 . S
C1836 C1822 1.377 . S
C1836 C1835 1.373 1_655 S
C1837 C1821 1.399 . S
C1837 C1835 1.389 . S
C1837 C1838 1.524 . S
C1838 C1837 1.524 . S
C1838 C1839 1.397 . S
C1838 C1843 1.363 . S
C1839 H1810 0.950 . S
C1839 C1838 1.397 . S
C1839 C1840 1.334 . S
C1840 H1811 0.950 . S
C1840 C1839 1.334 . S
C1840 C1841 1.287 . S
C1841 C1840 1.287 . S
C1841 C1842 1.524 . S
C1841 H1844 0.999 . S
C1842 H1812 0.950 . S
C1842 C1841 1.524 . S
C1842 C1843 1.415 . S
C1843 H1813 0.950 . S
C1843 C1838 1.363 . S
C1843 C1842 1.415 . S
H1844 C1841 0.999 . S
H1845 C1826 0.913 . S
H1846 C1864 0.951 . S
H1847 C1866 0.951 . S
H1848 C1868 0.950 1_545 S
H1849 C1869 0.950 . S
H1850 C1871 0.950 . S
H1851 C1874 0.950 . S
H1852 C1875 0.950 . S
H1853 C1877 0.950 . S
H1854 C1878 0.950 . S
H1855 C1879 0.951 . S
H1856 C1881 0.951 . S
H1857 C1883 0.950 . S
H1858 C1884 0.950 . S
H1859 C1886 0.950 . S
H1860 C1889 0.950 . S
H1861 C1890 0.950 . S
H1862 C1892 0.950 . S
H1863 C1893 0.950 . S
C1864 H1846 0.951 . S
C1864 C1865 1.366 . S
C1864 C1866 1.388 . S
C1865 C1864 1.366 . S
C1865 C1869 1.385 . S
C1866 H1847 0.951 . S
C1866 C1864 1.388 . S
C1866 C1867 1.366 . S
C1867 C1866 1.366 . S
C1867 C1868 1.414 . S
C1867 C1870 1.499 1_565 S
C1868 H1848 0.950 1_565 S
C1868 C1867 1.414 . S
C1868 C1869 1.374 . S
C1869 H1849 0.950 . S
C1869 C1865 1.385 . S
C1869 C1868 1.374 . S
C1870 C1867 1.499 1_545 S
C1870 C1871 1.373 . S
C1870 C1872 1.389 1_545 S
C1871 H1850 0.950 . S
C1871 C1870 1.373 . S
C1871 C1887 1.377 . S
C1872 C1870 1.389 1_565 S
C1872 C1873 1.524 . S
C1872 C1886 1.377 1_565 S
C1873 C1872 1.524 . S
C1873 C1874 1.397 . S
C1873 C1878 1.363 . S
C1874 H1851 0.950 . S
C1874 C1873 1.397 . S
C1874 C1875 1.334 . S
C1875 H1852 0.950 . S
C1875 C1874 1.334 . S
C1875 C1876 1.287 . S
C1876 C1875 1.287 . S
C1876 C1877 1.524 . S
C1876 H1895 0.913 . S
C1877 H1853 0.950 . S
C1877 C1876 1.524 . S
C1877 C1878 1.415 . S
C1878 H1854 0.950 . S
C1878 C1873 1.363 . S
C1878 C1877 1.415 . S
C1879 H1855 0.951 . S
C1879 C1880 1.366 . S
C1879 C1881 1.388 . S
C1880 C1879 1.366 . S
C1880 C1884 1.385 . S
C1881 H1856 0.951 . S
C1881 C1879 1.388 . S
C1881 C1882 1.366 . S
C1882 C1881 1.366 . S
C1882 C1883 1.414 . S
C1882 C1885 1.499 . S
C1883 H1857 0.950 . S
C1883 C1882 1.414 . S
C1883 C1884 1.374 . S
C1884 H1858 0.950 . S
C1884 C1880 1.385 . S
C1884 C1883 1.374 . S
C1885 C1882 1.499 . S
C1885 C1886 1.373 . S
C1885 C1887 1.389 . S
C1886 H1859 0.950 . S
C1886 C1872 1.377 1_545 S
C1886 C1885 1.373 . S
C1887 C1871 1.377 . S
C1887 C1885 1.389 . S
C1887 C1888 1.524 . S
C1888 C1887 1.524 . S
C1888 C1889 1.397 . S
C1888 C1893 1.363 . S
C1889 H1860 0.950 . S
C1889 C1888 1.397 . S
C1889 C1890 1.334 . S
C1890 H1861 0.950 . S
C1890 C1889 1.334 . S
C1890 C1891 1.287 . S
C1891 C1890 1.287 . S
C1891 C1892 1.524 . S
C1891 H1894 0.999 . S
C1892 H1862 0.950 . S
C1892 C1891 1.524 . S
C1892 C1893 1.415 . S
C1893 H1863 0.950 . S
C1893 C1888 1.363 . S
C1893 C1892 1.415 . S
H1894 C1891 0.999 . S
H1895 C1876 0.913 . S
H1896 C1914 0.951 . S
H1897 C1916 0.951 . S
H1898 C1918 0.950 . S
H1899 C1919 0.950 . S
H1900 C1921 0.950 . S
H1901 C1924 0.950 . S
H1902 C1925 0.950 . S
H1903 C1927 0.950 . S
H1904 C1928 0.950 . S
H1905 C1929 0.951 . S
H1906 C1931 0.951 . S
H1907 C1933 0.950 . S
H1908 C1934 0.950 . S
H1909 C1936 0.950 . S
H1910 C1939 0.950 . S
H1911 C1940 0.950 . S
H1912 C1942 0.950 . S
H1913 C1943 0.950 . S
C1914 H1896 0.951 . S
C1914 C1915 1.366 . S
C1914 C1916 1.388 . S
C1915 C1914 1.366 . S
C1915 C1919 1.385 . S
C1916 H1897 0.951 . S
C1916 C1914 1.388 . S
C1916 C1917 1.366 . S
C1917 C1916 1.366 . S
C1917 C1918 1.414 . S
C1917 C1920 1.499 . S
C1918 H1898 0.950 . S
C1918 C1917 1.414 . S
C1918 C1919 1.374 . S
C1919 H1899 0.950 . S
C1919 C1915 1.385 . S
C1919 C1918 1.374 . S
C1920 C1917 1.499 . S
C1920 C1921 1.373 . S
C1920 C1922 1.389 . S
C1921 H1900 0.950 . S
C1921 C1920 1.373 . S
C1921 C1937 1.377 . S
C1922 C1920 1.389 . S
C1922 C1923 1.524 . S
C1922 C1936 1.377 . S
C1923 C1922 1.524 . S
C1923 C1924 1.397 . S
C1923 C1928 1.363 . S
C1924 H1901 0.950 . S
C1924 C1923 1.397 . S
C1924 C1925 1.334 . S
C1925 H1902 0.950 . S
C1925 C1924 1.334 . S
C1925 C1926 1.287 . S
C1926 C1925 1.287 . S
C1926 C1927 1.524 . S
C1926 H1945 0.913 . S
C1927 H1903 0.950 . S
C1927 C1926 1.524 . S
C1927 C1928 1.415 . S
C1928 H1904 0.950 . S
C1928 C1923 1.363 . S
C1928 C1927 1.415 . S
C1929 H1905 0.951 . S
C1929 C1930 1.366 . S
C1929 C1931 1.388 . S
C1930 C1929 1.366 . S
C1930 C1934 1.385 . S
C1931 H1906 0.951 . S
C1931 C1929 1.388 . S
C1931 C1932 1.366 . S
C1932 C1931 1.366 . S
C1932 C1933 1.414 . S
C1932 C1935 1.499 . S
C1933 H1907 0.950 . S
C1933 C1932 1.414 . S
C1933 C1934 1.374 . S
C1934 H1908 0.950 . S
C1934 C1930 1.385 . S
C1934 C1933 1.374 . S
C1935 C1932 1.499 . S
C1935 C1936 1.373 . S
C1935 C1937 1.389 . S
C1936 H1909 0.950 . S
C1936 C1922 1.377 . S
C1936 C1935 1.373 . S
C1937 C1921 1.377 . S
C1937 C1935 1.389 . S
C1937 C1938 1.524 . S
C1938 C1937 1.524 . S
C1938 C1939 1.397 . S
C1938 C1943 1.363 . S
C1939 H1910 0.950 . S
C1939 C1938 1.397 . S
C1939 C1940 1.334 . S
C1940 H1911 0.950 . S
C1940 C1939 1.334 . S
C1940 C1941 1.287 . S
C1941 C1940 1.287 . S
C1941 C1942 1.524 . S
C1941 H1944 0.999 . S
C1942 H1912 0.950 . S
C1942 C1941 1.524 . S
C1942 C1943 1.415 . S
C1943 H1913 0.950 . S
C1943 C1938 1.363 . S
C1943 C1942 1.415 . S
H1944 C1941 0.999 . S
H1945 C1926 0.913 . S
H1946 C1964 0.951 . S
H1947 C1966 0.951 . S
H1948 C1968 0.950 . S
H1949 C1969 0.950 . S
H1950 C1971 0.950 . S
H1951 C1974 0.950 . S
H1952 C1975 0.950 . S
H1953 C1977 0.950 . S
H1954 C1978 0.950 . S
H1955 C1979 0.951 . S
H1956 C1981 0.951 . S
H1957 C1983 0.950 . S
H1958 C1984 0.950 . S
H1959 C1986 0.950 . S
H1960 C1989 0.950 . S
H1961 C1990 0.950 . S
H1962 C1992 0.950 . S
H1963 C1993 0.950 . S
C1964 H1946 0.951 . S
C1964 C1965 1.366 . S
C1964 C1966 1.388 . S
C1965 C1964 1.366 . S
C1965 C1969 1.385 . S
C1966 H1947 0.951 . S
C1966 C1964 1.388 . S
C1966 C1967 1.366 . S
C1967 C1966 1.366 . S
C1967 C1968 1.414 . S
C1967 C1970 1.499 . S
C1968 H1948 0.950 . S
C1968 C1967 1.414 . S
C1968 C1969 1.374 . S
C1969 H1949 0.950 . S
C1969 C1965 1.385 . S
C1969 C1968 1.374 . S
C1970 C1967 1.499 . S
C1970 C1971 1.373 . S
C1970 C1972 1.389 . S
C1971 H1950 0.950 . S
C1971 C1970 1.373 . S
C1971 C1987 1.377 . S
C1972 C1970 1.389 . S
C1972 C1973 1.524 . S
C1972 C1986 1.377 . S
C1973 C1972 1.524 . S
C1973 C1974 1.397 . S
C1973 C1978 1.363 . S
C1974 H1951 0.950 . S
C1974 C1973 1.397 . S
C1974 C1975 1.334 . S
C1975 H1952 0.950 . S
C1975 C1974 1.334 . S
C1975 C1976 1.287 . S
C1976 C1975 1.287 . S
C1976 C1977 1.524 . S
C1976 H1995 0.913 . S
C1977 H1953 0.950 . S
C1977 C1976 1.524 . S
C1977 C1978 1.415 . S
C1978 H1954 0.950 . S
C1978 C1973 1.363 . S
C1978 C1977 1.415 . S
C1979 H1955 0.951 . S
C1979 C1980 1.366 . S
C1979 C1981 1.388 . S
C1980 C1979 1.366 . S
C1980 C1984 1.385 . S
C1981 H1956 0.951 . S
C1981 C1979 1.388 . S
C1981 C1982 1.366 . S
C1982 C1981 1.366 . S
C1982 C1983 1.414 . S
C1982 C1985 1.499 . S
C1983 H1957 0.950 . S
C1983 C1982 1.414 . S
C1983 C1984 1.374 . S
C1984 H1958 0.950 . S
C1984 C1980 1.385 . S
C1984 C1983 1.374 . S
C1985 C1982 1.499 . S
C1985 C1986 1.373 . S
C1985 C1987 1.389 . S
C1986 H1959 0.950 . S
C1986 C1972 1.377 . S
C1986 C1985 1.373 . S
C1987 C1971 1.377 . S
C1987 C1985 1.389 . S
C1987 C1988 1.524 . S
C1988 C1987 1.524 . S
C1988 C1989 1.397 . S
C1988 C1993 1.363 . S
C1989 H1960 0.950 . S
C1989 C1988 1.397 . S
C1989 C1990 1.334 . S
C1990 H1961 0.950 . S
C1990 C1989 1.334 . S
C1990 C1991 1.287 . S
C1991 C1990 1.287 . S
C1991 C1992 1.524 . S
C1991 H1994 0.999 . S
C1992 H1962 0.950 . S
C1992 C1991 1.524 . S
C1992 C1993 1.415 . S
C1993 H1963 0.950 . S
C1993 C1988 1.363 . S
C1993 C1992 1.415 . S
H1994 C1991 0.999 . S
H1995 C1976 0.913 . S
H1996 C2014 0.951 . S
H1997 C2016 0.951 . S
H1998 C2018 0.950 . S
H1999 C2019 0.950 . S
H2000 C2021 0.950 . S
H2001 C2024 0.950 . S
H2002 C2025 0.950 . S
H2003 C2027 0.950 . S
H2004 C2028 0.950 . S
H2005 C2029 0.951 . S
H2006 C2031 0.951 . S
H2007 C2033 0.950 . S
H2008 C2034 0.950 . S
H2009 C2036 0.950 . S
H2010 C2039 0.950 . S
H2011 C2040 0.950 . S
H2012 C2042 0.950 . S
H2013 C2043 0.950 . S
C2014 H1996 0.951 . S
C2014 C2015 1.366 . S
C2014 C2016 1.388 . S
C2015 C2014 1.366 . S
C2015 C2019 1.385 . S
C2016 H1997 0.951 . S
C2016 C2014 1.388 . S
C2016 C2017 1.366 . S
C2017 C2016 1.366 . S
C2017 C2018 1.414 . S
C2017 C2020 1.499 . S
C2018 H1998 0.950 . S
C2018 C2017 1.414 . S
C2018 C2019 1.374 . S
C2019 H1999 0.950 . S
C2019 C2015 1.385 . S
C2019 C2018 1.374 . S
C2020 C2017 1.499 . S
C2020 C2021 1.373 . S
C2020 C2022 1.389 . S
C2021 H2000 0.950 . S
C2021 C2020 1.373 . S
C2021 C2037 1.377 . S
C2022 C2020 1.389 . S
C2022 C2023 1.524 . S
C2022 C2036 1.377 . S
C2023 C2022 1.524 . S
C2023 C2024 1.397 . S
C2023 C2028 1.363 . S
C2024 H2001 0.950 . S
C2024 C2023 1.397 . S
C2024 C2025 1.334 . S
C2025 H2002 0.950 . S
C2025 C2024 1.334 . S
C2025 C2026 1.287 . S
C2026 C2025 1.287 . S
C2026 C2027 1.524 . S
C2026 H2045 0.913 . S
C2027 H2003 0.950 . S
C2027 C2026 1.524 . S
C2027 C2028 1.415 . S
C2028 H2004 0.950 . S
C2028 C2023 1.363 . S
C2028 C2027 1.415 . S
C2029 H2005 0.951 . S
C2029 C2030 1.366 . S
C2029 C2031 1.388 . S
C2030 C2029 1.366 . S
C2030 C2034 1.385 . S
C2031 H2006 0.951 . S
C2031 C2029 1.388 . S
C2031 C2032 1.366 . S
C2032 C2031 1.366 . S
C2032 C2033 1.414 . S
C2032 C2035 1.499 . S
C2033 H2007 0.950 . S
C2033 C2032 1.414 . S
C2033 C2034 1.374 . S
C2034 H2008 0.950 . S
C2034 C2030 1.385 . S
C2034 C2033 1.374 . S
C2035 C2032 1.499 . S
C2035 C2036 1.373 . S
C2035 C2037 1.389 . S
C2036 H2009 0.950 . S
C2036 C2022 1.377 . S
C2036 C2035 1.373 . S
C2037 C2021 1.377 . S
C2037 C2035 1.389 . S
C2037 C2038 1.524 . S
C2038 C2037 1.524 . S
C2038 C2039 1.397 . S
C2038 C2043 1.363 . S
C2039 H2010 0.950 . S
C2039 C2038 1.397 . S
C2039 C2040 1.334 . S
C2040 H2011 0.950 . S
C2040 C2039 1.334 . S
C2040 C2041 1.287 . S
C2041 C2040 1.287 . S
C2041 C2042 1.524 . S
C2041 H2044 0.999 . S
C2042 H2012 0.950 . S
C2042 C2041 1.524 . S
C2042 C2043 1.415 . S
C2043 H2013 0.950 . S
C2043 C2038 1.363 . S
C2043 C2042 1.415 . S
H2044 C2041 0.999 . S
H2045 C2026 0.913 . S
H2046 C2064 0.951 . S
H2047 C2066 0.951 . S
H2048 C2068 0.950 . S
H2049 C2069 0.950 . S
H2050 C2071 0.950 . S
H2051 C2074 0.950 . S
H2052 C2075 0.950 . S
H2053 C2077 0.950 . S
H2054 C2078 0.950 . S
H2055 C2079 0.951 . S
H2056 C2081 0.951 . S
H2057 C2083 0.950 . S
H2058 C2084 0.950 . S
H2059 C2086 0.950 . S
H2060 C2089 0.950 . S
H2061 C2090 0.950 . S
H2062 C2092 0.950 . S
H2063 C2093 0.950 . S
C2064 H2046 0.951 . S
C2064 C2065 1.366 . S
C2064 C2066 1.388 . S
C2065 C2064 1.366 . S
C2065 C2069 1.385 . S
C2066 H2047 0.951 . S
C2066 C2064 1.388 . S
C2066 C2067 1.366 . S
C2067 C2066 1.366 . S
C2067 C2068 1.414 . S
C2067 C2070 1.499 . S
C2068 H2048 0.950 . S
C2068 C2067 1.414 . S
C2068 C2069 1.374 . S
C2069 H2049 0.950 . S
C2069 C2065 1.385 . S
C2069 C2068 1.374 . S
C2070 C2067 1.499 . S
C2070 C2071 1.373 . S
C2070 C2072 1.389 . S
C2071 H2050 0.950 . S
C2071 C2070 1.373 . S
C2071 C2087 1.377 . S
C2072 C2070 1.389 . S
C2072 C2073 1.524 . S
C2072 C2086 1.377 . S
C2073 C2072 1.524 . S
C2073 C2074 1.397 . S
C2073 C2078 1.363 . S
C2074 H2051 0.950 . S
C2074 C2073 1.397 . S
C2074 C2075 1.334 . S
C2075 H2052 0.950 . S
C2075 C2074 1.334 . S
C2075 C2076 1.287 . S
C2076 C2075 1.287 . S
C2076 C2077 1.524 . S
C2076 H2095 0.913 . S
C2077 H2053 0.950 . S
C2077 C2076 1.524 . S
C2077 C2078 1.415 . S
C2078 H2054 0.950 . S
C2078 C2073 1.363 . S
C2078 C2077 1.415 . S
C2079 H2055 0.951 . S
C2079 C2080 1.366 . S
C2079 C2081 1.388 . S
C2080 C2079 1.366 . S
C2080 C2084 1.385 . S
C2081 H2056 0.951 . S
C2081 C2079 1.388 . S
C2081 C2082 1.366 . S
C2082 C2081 1.366 . S
C2082 C2083 1.414 . S
C2082 C2085 1.499 . S
C2083 H2057 0.950 . S
C2083 C2082 1.414 . S
C2083 C2084 1.374 . S
C2084 H2058 0.950 . S
C2084 C2080 1.385 . S
C2084 C2083 1.374 . S
C2085 C2082 1.499 . S
C2085 C2086 1.373 . S
C2085 C2087 1.389 . S
C2086 H2059 0.950 . S
C2086 C2072 1.377 . S
C2086 C2085 1.373 . S
C2087 C2071 1.377 . S
C2087 C2085 1.389 . S
C2087 C2088 1.524 . S
C2088 C2087 1.524 . S
C2088 C2089 1.397 . S
C2088 C2093 1.363 . S
C2089 H2060 0.950 . S
C2089 C2088 1.397 . S
C2089 C2090 1.334 . S
C2090 H2061 0.950 . S
C2090 C2089 1.334 . S
C2090 C2091 1.287 . S
C2091 C2090 1.287 . S
C2091 C2092 1.524 . S
C2091 H2094 0.999 . S
C2092 H2062 0.950 . S
C2092 C2091 1.524 . S
C2092 C2093 1.415 . S
C2093 H2063 0.950 . S
C2093 C2088 1.363 . S
C2093 C2092 1.415 . S
H2094 C2091 0.999 . S
H2095 C2076 0.913 . S
H2096 C2114 0.951 . S
H2097 C2116 0.951 . S
H2098 C2118 0.950 . S
H2099 C2119 0.950 . S
H2100 C2121 0.950 . S
H2101 C2124 0.950 . S
H2102 C2125 0.950 . S
H2103 C2127 0.950 . S
H2104 C2128 0.950 . S
H2105 C2129 0.951 . S
H2106 C2131 0.951 . S
H2107 C2133 0.950 . S
H2108 C2134 0.950 . S
H2109 C2136 0.950 . S
H2110 C2139 0.950 . S
H2111 C2140 0.950 . S
H2112 C2142 0.950 . S
H2113 C2143 0.950 . S
C2114 H2096 0.951 . S
C2114 C2115 1.366 . S
C2114 C2116 1.388 . S
C2115 C2114 1.366 . S
C2115 C2119 1.385 . S
C2116 H2097 0.951 . S
C2116 C2114 1.388 . S
C2116 C2117 1.366 . S
C2117 C2116 1.366 . S
C2117 C2118 1.414 . S
C2117 C2120 1.499 . S
C2118 H2098 0.950 . S
C2118 C2117 1.414 . S
C2118 C2119 1.374 . S
C2119 H2099 0.950 . S
C2119 C2115 1.385 . S
C2119 C2118 1.374 . S
C2120 C2117 1.499 . S
C2120 C2121 1.373 . S
C2120 C2122 1.389 . S
C2121 H2100 0.950 . S
C2121 C2120 1.373 . S
C2121 C2137 1.377 . S
C2122 C2120 1.389 . S
C2122 C2123 1.524 . S
C2122 C2136 1.377 . S
C2123 C2122 1.524 . S
C2123 C2124 1.397 . S
C2123 C2128 1.363 . S
C2124 H2101 0.950 . S
C2124 C2123 1.397 . S
C2124 C2125 1.334 . S
C2125 H2102 0.950 . S
C2125 C2124 1.334 . S
C2125 C2126 1.287 . S
C2126 C2125 1.287 . S
C2126 C2127 1.524 . S
C2126 H2145 0.913 . S
C2127 H2103 0.950 . S
C2127 C2126 1.524 . S
C2127 C2128 1.415 . S
C2128 H2104 0.950 . S
C2128 C2123 1.363 . S
C2128 C2127 1.415 . S
C2129 H2105 0.951 . S
C2129 C2130 1.366 . S
C2129 C2131 1.388 . S
C2130 C2129 1.366 . S
C2130 C2134 1.385 . S
C2131 H2106 0.951 . S
C2131 C2129 1.388 . S
C2131 C2132 1.366 . S
C2132 C2131 1.366 . S
C2132 C2133 1.414 . S
C2132 C2135 1.499 . S
C2133 H2107 0.950 . S
C2133 C2132 1.414 . S
C2133 C2134 1.374 . S
C2134 H2108 0.950 . S
C2134 C2130 1.385 . S
C2134 C2133 1.374 . S
C2135 C2132 1.499 . S
C2135 C2136 1.373 . S
C2135 C2137 1.389 . S
C2136 H2109 0.950 . S
C2136 C2122 1.377 . S
C2136 C2135 1.373 . S
C2137 C2121 1.377 . S
C2137 C2135 1.389 . S
C2137 C2138 1.524 . S
C2138 C2137 1.524 . S
C2138 C2139 1.397 . S
C2138 C2143 1.363 . S
C2139 H2110 0.950 . S
C2139 C2138 1.397 . S
C2139 C2140 1.334 . S
C2140 H2111 0.950 . S
C2140 C2139 1.334 . S
C2140 C2141 1.287 . S
C2141 C2140 1.287 . S
C2141 C2142 1.524 . S
C2141 H2144 0.999 . S
C2142 H2112 0.950 . S
C2142 C2141 1.524 . S
C2142 C2143 1.415 . S
C2143 H2113 0.950 . S
C2143 C2138 1.363 . S
C2143 C2142 1.415 . S
H2144 C2141 0.999 . S
H2145 C2126 0.913 . S
H2146 C2164 0.951 . S
H2147 C2166 0.951 . S
H2148 C2168 0.950 . S
H2149 C2169 0.950 . S
H2150 C2171 0.950 . S
H2151 C2174 0.950 . S
H2152 C2175 0.950 . S
H2153 C2177 0.950 . S
H2154 C2178 0.950 . S
H2155 C2179 0.951 . S
H2156 C2181 0.951 . S
H2157 C2183 0.950 . S
H2158 C2184 0.950 . S
H2159 C2186 0.950 . S
H2160 C2189 0.950 . S
H2161 C2190 0.950 . S
H2162 C2192 0.950 . S
H2163 C2193 0.950 . S
C2164 H2146 0.951 . S
C2164 C2165 1.366 . S
C2164 C2166 1.388 . S
C2165 C2164 1.366 . S
C2165 C2169 1.385 . S
C2166 H2147 0.951 . S
C2166 C2164 1.388 . S
C2166 C2167 1.366 . S
C2167 C2166 1.366 . S
C2167 C2168 1.414 . S
C2167 C2170 1.499 . S
C2168 H2148 0.950 . S
C2168 C2167 1.414 . S
C2168 C2169 1.374 . S
C2169 H2149 0.950 . S
C2169 C2165 1.385 . S
C2169 C2168 1.374 . S
C2170 C2167 1.499 . S
C2170 C2171 1.373 . S
C2170 C2172 1.389 . S
C2171 H2150 0.950 . S
C2171 C2170 1.373 . S
C2171 C2187 1.377 . S
C2172 C2170 1.389 . S
C2172 C2173 1.524 . S
C2172 C2186 1.377 . S
C2173 C2172 1.524 . S
C2173 C2174 1.397 . S
C2173 C2178 1.363 . S
C2174 H2151 0.950 . S
C2174 C2173 1.397 . S
C2174 C2175 1.334 . S
C2175 H2152 0.950 . S
C2175 C2174 1.334 . S
C2175 C2176 1.287 . S
C2176 C2175 1.287 . S
C2176 C2177 1.524 . S
C2176 H2195 0.913 . S
C2177 H2153 0.950 . S
C2177 C2176 1.524 . S
C2177 C2178 1.415 . S
C2178 H2154 0.950 . S
C2178 C2173 1.363 . S
C2178 C2177 1.415 . S
C2179 H2155 0.951 . S
C2179 C2180 1.366 . S
C2179 C2181 1.388 . S
C2180 C2179 1.366 . S
C2180 C2184 1.385 . S
C2181 H2156 0.951 . S
C2181 C2179 1.388 . S
C2181 C2182 1.366 . S
C2182 C2181 1.366 . S
C2182 C2183 1.414 . S
C2182 C2185 1.499 . S
C2183 H2157 0.950 . S
C2183 C2182 1.414 . S
C2183 C2184 1.374 . S
C2184 H2158 0.950 . S
C2184 C2180 1.385 . S
C2184 C2183 1.374 . S
C2185 C2182 1.499 . S
C2185 C2186 1.373 . S
C2185 C2187 1.389 . S
C2186 H2159 0.950 . S
C2186 C2172 1.377 . S
C2186 C2185 1.373 . S
C2187 C2171 1.377 . S
C2187 C2185 1.389 . S
C2187 C2188 1.524 . S
C2188 C2187 1.524 . S
C2188 C2189 1.397 . S
C2188 C2193 1.363 . S
C2189 H2160 0.950 . S
C2189 C2188 1.397 . S
C2189 C2190 1.334 . S
C2190 H2161 0.950 . S
C2190 C2189 1.334 . S
C2190 C2191 1.287 . S
C2191 C2190 1.287 . S
C2191 C2192 1.524 . S
C2191 H2194 0.999 . S
C2192 H2162 0.950 . S
C2192 C2191 1.524 . S
C2192 C2193 1.415 . S
C2193 H2163 0.950 . S
C2193 C2188 1.363 . S
C2193 C2192 1.415 . S
H2194 C2191 0.999 . S
H2195 C2176 0.913 . S
H2196 C2214 0.951 . S
H2197 C2216 0.951 . S
H2198 C2218 0.950 . S
H2199 C2219 0.950 . S
H2200 C2221 0.950 . S
H2201 C2224 0.950 . S
H2202 C2225 0.950 . S
H2203 C2227 0.950 . S
H2204 C2228 0.950 . S
H2205 C2229 0.951 . S
H2206 C2231 0.951 . S
H2207 C2233 0.950 . S
H2208 C2234 0.950 . S
H2209 C2236 0.950 . S
H2210 C2239 0.950 . S
H2211 C2240 0.950 . S
H2212 C2242 0.950 . S
H2213 C2243 0.950 . S
C2214 H2196 0.951 . S
C2214 C2215 1.366 . S
C2214 C2216 1.388 . S
C2215 C2214 1.366 . S
C2215 C2219 1.385 . S
C2216 H2197 0.951 . S
C2216 C2214 1.388 . S
C2216 C2217 1.366 . S
C2217 C2216 1.366 . S
C2217 C2218 1.414 . S
C2217 C2220 1.499 . S
C2218 H2198 0.950 . S
C2218 C2217 1.414 . S
C2218 C2219 1.374 . S
C2219 H2199 0.950 . S
C2219 C2215 1.385 . S
C2219 C2218 1.374 . S
C2220 C2217 1.499 . S
C2220 C2221 1.373 . S
C2220 C2222 1.389 . S
C2221 H2200 0.950 . S
C2221 C2220 1.373 . S
C2221 C2237 1.377 . S
C2222 C2220 1.389 . S
C2222 C2223 1.524 . S
C2222 C2236 1.377 . S
C2223 C2222 1.524 . S
C2223 C2224 1.397 . S
C2223 C2228 1.363 . S
C2224 H2201 0.950 . S
C2224 C2223 1.397 . S
C2224 C2225 1.334 . S
C2225 H2202 0.950 . S
C2225 C2224 1.334 . S
C2225 C2226 1.287 . S
C2226 C2225 1.287 . S
C2226 C2227 1.524 . S
C2226 H2245 0.913 . S
C2227 H2203 0.950 . S
C2227 C2226 1.524 . S
C2227 C2228 1.415 . S
C2228 H2204 0.950 . S
C2228 C2223 1.363 . S
C2228 C2227 1.415 . S
C2229 H2205 0.951 . S
C2229 C2230 1.366 . S
C2229 C2231 1.388 . S
C2230 C2229 1.366 . S
C2230 C2234 1.385 . S
C2231 H2206 0.951 . S
C2231 C2229 1.388 . S
C2231 C2232 1.366 . S
C2232 C2231 1.366 . S
C2232 C2233 1.414 . S
C2232 C2235 1.499 . S
C2233 H2207 0.950 . S
C2233 C2232 1.414 . S
C2233 C2234 1.374 . S
C2234 H2208 0.950 . S
C2234 C2230 1.385 . S
C2234 C2233 1.374 . S
C2235 C2232 1.499 . S
C2235 C2236 1.373 . S
C2235 C2237 1.389 . S
C2236 H2209 0.950 . S
C2236 C2222 1.377 . S
C2236 C2235 1.373 . S
C2237 C2221 1.377 . S
C2237 C2235 1.389 . S
C2237 C2238 1.524 . S
C2238 C2237 1.524 . S
C2238 C2239 1.397 . S
C2238 C2243 1.363 . S
C2239 H2210 0.950 . S
C2239 C2238 1.397 . S
C2239 C2240 1.334 . S
C2240 H2211 0.950 . S
C2240 C2239 1.334 . S
C2240 C2241 1.287 . S
C2241 C2240 1.287 . S
C2241 C2242 1.524 . S
C2241 H2244 0.999 . S
C2242 H2212 0.950 . S
C2242 C2241 1.524 . S
C2242 C2243 1.415 . S
C2243 H2213 0.950 . S
C2243 C2238 1.363 . S
C2243 C2242 1.415 . S
H2244 C2241 0.999 . S
H2245 C2226 0.913 . S
H2246 C2264 0.951 . S
H2247 C2266 0.951 . S
H2248 C2268 0.950 . S
H2249 C2269 0.950 . S
H2250 C2271 0.950 . S
H2251 C2274 0.950 . S
H2252 C2275 0.950 . S
H2253 C2277 0.950 . S
H2254 C2278 0.950 . S
H2255 C2279 0.951 . S
H2256 C2281 0.951 . S
H2257 C2283 0.950 . S
H2258 C2284 0.950 . S
H2259 C2286 0.950 . S
H2260 C2289 0.950 . S
H2261 C2290 0.950 . S
H2262 C2292 0.950 . S
H2263 C2293 0.950 . S
C2264 H2246 0.951 . S
C2264 C2265 1.366 . S
C2264 C2266 1.388 . S
C2265 C2264 1.366 . S
C2265 C2269 1.385 . S
C2266 H2247 0.951 . S
C2266 C2264 1.388 . S
C2266 C2267 1.366 . S
C2267 C2266 1.366 . S
C2267 C2268 1.414 . S
C2267 C2270 1.499 . S
C2268 H2248 0.950 . S
C2268 C2267 1.414 . S
C2268 C2269 1.374 . S
C2269 H2249 0.950 . S
C2269 C2265 1.385 . S
C2269 C2268 1.374 . S
C2270 C2267 1.499 . S
C2270 C2271 1.373 . S
C2270 C2272 1.389 . S
C2271 H2250 0.950 . S
C2271 C2270 1.373 . S
C2271 C2287 1.377 . S
C2272 C2270 1.389 . S
C2272 C2273 1.524 . S
C2272 C2286 1.377 . S
C2273 C2272 1.524 . S
C2273 C2274 1.397 . S
C2273 C2278 1.363 . S
C2274 H2251 0.950 . S
C2274 C2273 1.397 . S
C2274 C2275 1.334 . S
C2275 H2252 0.950 . S
C2275 C2274 1.334 . S
C2275 C2276 1.287 . S
C2276 C2275 1.287 . S
C2276 C2277 1.524 . S
C2276 H2295 0.913 . S
C2277 H2253 0.950 . S
C2277 C2276 1.524 . S
C2277 C2278 1.415 . S
C2278 H2254 0.950 . S
C2278 C2273 1.363 . S
C2278 C2277 1.415 . S
C2279 H2255 0.951 . S
C2279 C2280 1.366 . S
C2279 C2281 1.388 . S
C2280 C2279 1.366 . S
C2280 C2284 1.385 . S
C2281 H2256 0.951 . S
C2281 C2279 1.388 . S
C2281 C2282 1.366 . S
C2282 C2281 1.366 . S
C2282 C2283 1.414 . S
C2282 C2285 1.499 . S
C2283 H2257 0.950 . S
C2283 C2282 1.414 . S
C2283 C2284 1.374 . S
C2284 H2258 0.950 . S
C2284 C2280 1.385 . S
C2284 C2283 1.374 . S
C2285 C2282 1.499 . S
C2285 C2286 1.373 . S
C2285 C2287 1.389 . S
C2286 H2259 0.950 . S
C2286 C2272 1.377 . S
C2286 C2285 1.373 . S
C2287 C2271 1.377 . S
C2287 C2285 1.389 . S
C2287 C2288 1.524 . S
C2288 C2287 1.524 . S
C2288 C2289 1.397 . S
C2288 C2293 1.363 . S
C2289 H2260 0.950 . S
C2289 C2288 1.397 . S
C2289 C2290 1.334 . S
C2290 H2261 0.950 . S
C2290 C2289 1.334 . S
C2290 C2291 1.287 . S
C2291 C2290 1.287 . S
C2291 C2292 1.524 . S
C2291 H2294 0.999 . S
C2292 H2262 0.950 . S
C2292 C2291 1.524 . S
C2292 C2293 1.415 . S
C2293 H2263 0.950 . S
C2293 C2288 1.363 . S
C2293 C2292 1.415 . S
H2294 C2291 0.999 . S
H2295 C2276 0.913 . S
H2296 C2314 0.951 . S
H2297 C2316 0.951 . S
H2298 C2318 0.950 . S
H2299 C2319 0.950 . S
H2300 C2321 0.950 . S
H2301 C2324 0.950 . S
H2302 C2325 0.950 . S
H2303 C2327 0.950 . S
H2304 C2328 0.950 . S
H2305 C2329 0.951 . S
H2306 C2331 0.951 . S
H2307 C2333 0.950 . S
H2308 C2334 0.950 . S
H2309 C2336 0.950 . S
H2310 C2339 0.950 . S
H2311 C2340 0.950 . S
H2312 C2342 0.950 . S
H2313 C2343 0.950 . S
C2314 H2296 0.951 . S
C2314 C2315 1.366 . S
C2314 C2316 1.388 . S
C2315 C2314 1.366 . S
C2315 C2319 1.385 . S
C2316 H2297 0.951 . S
C2316 C2314 1.388 . S
C2316 C2317 1.366 . S
C2317 C2316 1.366 . S
C2317 C2318 1.414 . S
C2317 C2320 1.499 . S
C2318 H2298 0.950 . S
C2318 C2317 1.414 . S
C2318 C2319 1.374 . S
C2319 H2299 0.950 . S
C2319 C2315 1.385 . S
C2319 C2318 1.374 . S
C2320 C2317 1.499 . S
C2320 C2321 1.373 . S
C2320 C2322 1.389 . S
C2321 H2300 0.950 . S
C2321 C2320 1.373 . S
C2321 C2337 1.377 . S
C2322 C2320 1.389 . S
C2322 C2323 1.524 . S
C2322 C2336 1.377 . S
C2323 C2322 1.524 . S
C2323 C2324 1.397 . S
C2323 C2328 1.363 . S
C2324 H2301 0.950 . S
C2324 C2323 1.397 . S
C2324 C2325 1.334 . S
C2325 H2302 0.950 . S
C2325 C2324 1.334 . S
C2325 C2326 1.287 . S
C2326 C2325 1.287 . S
C2326 C2327 1.524 . S
C2326 H2345 0.913 . S
C2327 H2303 0.950 . S
C2327 C2326 1.524 . S
C2327 C2328 1.415 . S
C2328 H2304 0.950 . S
C2328 C2323 1.363 . S
C2328 C2327 1.415 . S
C2329 H2305 0.951 . S
C2329 C2330 1.366 . S
C2329 C2331 1.388 . S
C2330 C2329 1.366 . S
C2330 C2334 1.385 . S
C2331 H2306 0.951 . S
C2331 C2329 1.388 . S
C2331 C2332 1.366 . S
C2332 C2331 1.366 . S
C2332 C2333 1.414 . S
C2332 C2335 1.499 . S
C2333 H2307 0.950 . S
C2333 C2332 1.414 . S
C2333 C2334 1.374 . S
C2334 H2308 0.950 . S
C2334 C2330 1.385 . S
C2334 C2333 1.374 . S
C2335 C2332 1.499 . S
C2335 C2336 1.373 . S
C2335 C2337 1.389 . S
C2336 H2309 0.950 . S
C2336 C2322 1.377 . S
C2336 C2335 1.373 . S
C2337 C2321 1.377 . S
C2337 C2335 1.389 . S
C2337 C2338 1.524 . S
C2338 C2337 1.524 . S
C2338 C2339 1.397 . S
C2338 C2343 1.363 . S
C2339 H2310 0.950 . S
C2339 C2338 1.397 . S
C2339 C2340 1.334 . S
C2340 H2311 0.950 . S
C2340 C2339 1.334 . S
C2340 C2341 1.287 . S
C2341 C2340 1.287 . S
C2341 C2342 1.524 . S
C2341 H2344 0.999 . S
C2342 H2312 0.950 . S
C2342 C2341 1.524 . S
C2342 C2343 1.415 . S
C2343 H2313 0.950 . S
C2343 C2338 1.363 . S
C2343 C2342 1.415 . S
H2344 C2341 0.999 . S
H2345 C2326 0.913 . S
H2346 C2364 0.951 . S
H2347 C2366 0.951 . S
H2348 C2368 0.950 . S
H2349 C2369 0.950 . S
H2350 C2371 0.950 . S
H2351 C2374 0.950 . S
H2352 C2375 0.950 . S
H2353 C2377 0.950 . S
H2354 C2378 0.950 . S
H2355 C2379 0.951 . S
H2356 C2381 0.951 . S
H2357 C2383 0.950 . S
H2358 C2384 0.950 . S
H2359 C2386 0.950 . S
H2360 C2389 0.950 . S
H2361 C2390 0.950 . S
H2362 C2392 0.950 . S
H2363 C2393 0.950 . S
C2364 H2346 0.951 . S
C2364 C2365 1.366 . S
C2364 C2366 1.388 . S
C2365 C2364 1.366 . S
C2365 C2369 1.385 . S
C2366 H2347 0.951 . S
C2366 C2364 1.388 . S
C2366 C2367 1.366 . S
C2367 C2366 1.366 . S
C2367 C2368 1.414 . S
C2367 C2370 1.499 . S
C2368 H2348 0.950 . S
C2368 C2367 1.414 . S
C2368 C2369 1.374 . S
C2369 H2349 0.950 . S
C2369 C2365 1.385 . S
C2369 C2368 1.374 . S
C2370 C2367 1.499 . S
C2370 C2371 1.373 . S
C2370 C2372 1.389 . S
C2371 H2350 0.950 . S
C2371 C2370 1.373 . S
C2371 C2387 1.377 . S
C2372 C2370 1.389 . S
C2372 C2373 1.524 . S
C2372 C2386 1.377 . S
C2373 C2372 1.524 . S
C2373 C2374 1.397 . S
C2373 C2378 1.363 . S
C2374 H2351 0.950 . S
C2374 C2373 1.397 . S
C2374 C2375 1.334 . S
C2375 H2352 0.950 . S
C2375 C2374 1.334 . S
C2375 C2376 1.287 . S
C2376 C2375 1.287 . S
C2376 C2377 1.524 . S
C2376 H2395 0.913 . S
C2377 H2353 0.950 . S
C2377 C2376 1.524 . S
C2377 C2378 1.415 . S
C2378 H2354 0.950 . S
C2378 C2373 1.363 . S
C2378 C2377 1.415 . S
C2379 H2355 0.951 . S
C2379 C2380 1.366 . S
C2379 C2381 1.388 . S
C2380 C2379 1.366 . S
C2380 C2384 1.385 . S
C2381 H2356 0.951 . S
C2381 C2379 1.388 . S
C2381 C2382 1.366 . S
C2382 C2381 1.366 . S
C2382 C2383 1.414 . S
C2382 C2385 1.499 . S
C2383 H2357 0.950 . S
C2383 C2382 1.414 . S
C2383 C2384 1.374 . S
C2384 H2358 0.950 . S
C2384 C2380 1.385 . S
C2384 C2383 1.374 . S
C2385 C2382 1.499 . S
C2385 C2386 1.373 . S
C2385 C2387 1.389 . S
C2386 H2359 0.950 . S
C2386 C2372 1.377 . S
C2386 C2385 1.373 . S
C2387 C2371 1.377 . S
C2387 C2385 1.389 . S
C2387 C2388 1.524 . S
C2388 C2387 1.524 . S
C2388 C2389 1.397 . S
C2388 C2393 1.363 . S
C2389 H2360 0.950 . S
C2389 C2388 1.397 . S
C2389 C2390 1.334 . S
C2390 H2361 0.950 . S
C2390 C2389 1.334 . S
C2390 C2391 1.287 . S
C2391 C2390 1.287 . S
C2391 C2392 1.524 . S
C2391 H2394 0.999 . S
C2392 H2362 0.950 . S
C2392 C2391 1.524 . S
C2392 C2393 1.415 . S
C2393 H2363 0.950 . S
C2393 C2388 1.363 . S
C2393 C2392 1.415 . S
H2394 C2391 0.999 . S
H2395 C2376 0.913 . S
H2396 C2414 0.951 . S
H2397 C2416 0.951 . S
H2398 C2418 0.950 . S
H2399 C2419 0.950 . S
H2400 C2421 0.950 . S
H2401 C2424 0.950 . S
H2402 C2425 0.950 . S
H2403 C2427 0.950 . S
H2404 C2428 0.950 . S
H2405 C2429 0.951 . S
H2406 C2431 0.951 . S
H2407 C2433 0.950 . S
H2408 C2434 0.950 . S
H2409 C2436 0.950 . S
H2410 C2439 0.950 . S
H2411 C2440 0.950 . S
H2412 C2442 0.950 . S
H2413 C2443 0.950 . S
C2414 H2396 0.951 . S
C2414 C2415 1.366 . S
C2414 C2416 1.388 . S
C2415 C2414 1.366 . S
C2415 C2419 1.385 . S
C2416 H2397 0.951 . S
C2416 C2414 1.388 . S
C2416 C2417 1.366 . S
C2417 C2416 1.366 . S
C2417 C2418 1.414 . S
C2417 C2420 1.499 . S
C2418 H2398 0.950 . S
C2418 C2417 1.414 . S
C2418 C2419 1.374 . S
C2419 H2399 0.950 . S
C2419 C2415 1.385 . S
C2419 C2418 1.374 . S
C2420 C2417 1.499 . S
C2420 C2421 1.373 . S
C2420 C2422 1.389 . S
C2421 H2400 0.950 . S
C2421 C2420 1.373 . S
C2421 C2437 1.377 . S
C2422 C2420 1.389 . S
C2422 C2423 1.524 . S
C2422 C2436 1.377 . S
C2423 C2422 1.524 . S
C2423 C2424 1.397 . S
C2423 C2428 1.363 . S
C2424 H2401 0.950 . S
C2424 C2423 1.397 . S
C2424 C2425 1.334 . S
C2425 H2402 0.950 . S
C2425 C2424 1.334 . S
C2425 C2426 1.287 . S
C2426 C2425 1.287 . S
C2426 C2427 1.524 . S
C2426 H2445 0.913 . S
C2427 H2403 0.950 . S
C2427 C2426 1.524 . S
C2427 C2428 1.415 . S
C2428 H2404 0.950 . S
C2428 C2423 1.363 . S
C2428 C2427 1.415 . S
C2429 H2405 0.951 . S
C2429 C2430 1.366 . S
C2429 C2431 1.388 . S
C2430 C2429 1.366 . S
C2430 C2434 1.385 . S
C2431 H2406 0.951 . S
C2431 C2429 1.388 . S
C2431 C2432 1.366 . S
C2432 C2431 1.366 . S
C2432 C2433 1.414 . S
C2432 C2435 1.499 . S
C2433 H2407 0.950 . S
C2433 C2432 1.414 . S
C2433 C2434 1.374 . S
C2434 H2408 0.950 . S
C2434 C2430 1.385 . S
C2434 C2433 1.374 . S
C2435 C2432 1.499 . S
C2435 C2436 1.373 . S
C2435 C2437 1.389 . S
C2436 H2409 0.950 . S
C2436 C2422 1.377 . S
C2436 C2435 1.373 . S
C2437 C2421 1.377 . S
C2437 C2435 1.389 . S
C2437 C2438 1.524 . S
C2438 C2437 1.524 . S
C2438 C2439 1.397 . S
C2438 C2443 1.363 . S
C2439 H2410 0.950 . S
C2439 C2438 1.397 . S
C2439 C2440 1.334 . S
C2440 H2411 0.950 . S
C2440 C2439 1.334 . S
C2440 C2441 1.287 . S
C2441 C2440 1.287 . S
C2441 C2442 1.524 . S
C2441 H2444 0.999 . S
C2442 H2412 0.950 . S
C2442 C2441 1.524 . S
C2442 C2443 1.415 . S
C2443 H2413 0.950 . S
C2443 C2438 1.363 . S
C2443 C2442 1.415 . S
H2444 C2441 0.999 . S
H2445 C2426 0.913 . S
H2446 C2464 0.951 . S
H2447 C2466 0.951 . S
H2448 C2468 0.950 . S
H2449 C2469 0.950 . S
H2450 C2471 0.950 . S
H2451 C2474 0.950 . S
H2452 C2475 0.950 . S
H2453 C2477 0.950 . S
H2454 C2478 0.950 . S
H2455 C2479 0.951 . S
H2456 C2481 0.951 . S
H2457 C2483 0.950 . S
H2458 C2484 0.950 . S
H2459 C2486 0.950 . S
H2460 C2489 0.950 . S
H2461 C2490 0.950 . S
H2462 C2492 0.950 . S
H2463 C2493 0.950 . S
C2464 H2446 0.951 . S
C2464 C2465 1.366 . S
C2464 C2466 1.388 . S
C2465 C2464 1.366 . S
C2465 C2469 1.385 . S
C2466 H2447 0.951 . S
C2466 C2464 1.388 . S
C2466 C2467 1.366 . S
C2467 C2466 1.366 . S
C2467 C2468 1.414 . S
C2467 C2470 1.499 . S
C2468 H2448 0.950 . S
C2468 C2467 1.414 . S
C2468 C2469 1.374 . S
C2469 H2449 0.950 . S
C2469 C2465 1.385 . S
C2469 C2468 1.374 . S
C2470 C2467 1.499 . S
C2470 C2471 1.373 . S
C2470 C2472 1.389 . S
C2471 H2450 0.950 . S
C2471 C2470 1.373 . S
C2471 C2487 1.377 . S
C2472 C2470 1.389 . S
C2472 C2473 1.524 . S
C2472 C2486 1.377 . S
C2473 C2472 1.524 . S
C2473 C2474 1.397 . S
C2473 C2478 1.363 . S
C2474 H2451 0.950 . S
C2474 C2473 1.397 . S
C2474 C2475 1.334 . S
C2475 H2452 0.950 . S
C2475 C2474 1.334 . S
C2475 C2476 1.287 . S
C2476 C2475 1.287 . S
C2476 C2477 1.524 . S
C2476 H2495 0.913 . S
C2477 H2453 0.950 . S
C2477 C2476 1.524 . S
C2477 C2478 1.415 . S
C2478 H2454 0.950 . S
C2478 C2473 1.363 . S
C2478 C2477 1.415 . S
C2479 H2455 0.951 . S
C2479 C2480 1.366 . S
C2479 C2481 1.388 . S
C2480 C2479 1.366 . S
C2480 C2484 1.385 . S
C2481 H2456 0.951 . S
C2481 C2479 1.388 . S
C2481 C2482 1.366 . S
C2482 C2481 1.366 . S
C2482 C2483 1.414 . S
C2482 C2485 1.499 . S
C2483 H2457 0.950 . S
C2483 C2482 1.414 . S
C2483 C2484 1.374 . S
C2484 H2458 0.950 . S
C2484 C2480 1.385 . S
C2484 C2483 1.374 . S
C2485 C2482 1.499 . S
C2485 C2486 1.373 . S
C2485 C2487 1.389 . S
C2486 H2459 0.950 . S
C2486 C2472 1.377 . S
C2486 C2485 1.373 . S
C2487 C2471 1.377 . S
C2487 C2485 1.389 . S
C2487 C2488 1.524 . S
C2488 C2487 1.524 . S
C2488 C2489 1.397 . S
C2488 C2493 1.363 . S
C2489 H2460 0.950 . S
C2489 C2488 1.397 . S
C2489 C2490 1.334 . S
C2490 H2461 0.950 . S
C2490 C2489 1.334 . S
C2490 C2491 1.287 . S
C2491 C2490 1.287 . S
C2491 C2492 1.524 . S
C2491 H2494 0.999 . S
C2492 H2462 0.950 . S
C2492 C2491 1.524 . S
C2492 C2493 1.415 . S
C2493 H2463 0.950 . S
C2493 C2488 1.363 . S
C2493 C2492 1.415 . S
H2494 C2491 0.999 . S
H2495 C2476 0.913 . S
H2496 C2514 0.951 . S
H2497 C2516 0.951 . S
H2498 C2518 0.950 . S
H2499 C2519 0.950 . S
H2500 C2521 0.950 . S
H2501 C2524 0.950 . S
H2502 C2525 0.950 . S
H2503 C2527 0.950 . S
H2504 C2528 0.950 . S
H2505 C2529 0.951 . S
H2506 C2531 0.951 . S
H2507 C2533 0.950 . S
H2508 C2534 0.950 . S
H2509 C2536 0.950 . S
H2510 C2539 0.950 . S
H2511 C2540 0.950 . S
H2512 C2542 0.950 . S
H2513 C2543 0.950 . S
C2514 H2496 0.951 . S
C2514 C2515 1.366 . S
C2514 C2516 1.388 . S
C2515 C2514 1.366 . S
C2515 C2519 1.385 . S
C2516 H2497 0.951 . S
C2516 C2514 1.388 . S
C2516 C2517 1.366 . S
C2517 C2516 1.366 . S
C2517 C2518 1.414 . S
C2517 C2520 1.499 . S
C2518 H2498 0.950 . S
C2518 C2517 1.414 . S
C2518 C2519 1.374 . S
C2519 H2499 0.950 . S
C2519 C2515 1.385 . S
C2519 C2518 1.374 . S
C2520 C2517 1.499 . S
C2520 C2521 1.373 . S
C2520 C2522 1.389 . S
C2521 H2500 0.950 . S
C2521 C2520 1.373 . S
C2521 C2537 1.377 . S
C2522 C2520 1.389 . S
C2522 C2523 1.524 . S
C2522 C2536 1.377 . S
C2523 C2522 1.524 . S
C2523 C2524 1.397 . S
C2523 C2528 1.363 . S
C2524 H2501 0.950 . S
C2524 C2523 1.397 . S
C2524 C2525 1.334 . S
C2525 H2502 0.950 . S
C2525 C2524 1.334 . S
C2525 C2526 1.287 . S
C2526 C2525 1.287 . S
C2526 C2527 1.524 . S
C2526 H2545 0.913 . S
C2527 H2503 0.950 . S
C2527 C2526 1.524 . S
C2527 C2528 1.415 . S
C2528 H2504 0.950 . S
C2528 C2523 1.363 . S
C2528 C2527 1.415 . S
C2529 H2505 0.951 . S
C2529 C2530 1.366 . S
C2529 C2531 1.388 . S
C2530 C2529 1.366 . S
C2530 C2534 1.385 . S
C2531 H2506 0.951 . S
C2531 C2529 1.388 . S
C2531 C2532 1.366 . S
C2532 C2531 1.366 . S
C2532 C2533 1.414 . S
C2532 C2535 1.499 . S
C2533 H2507 0.950 . S
C2533 C2532 1.414 . S
C2533 C2534 1.374 . S
C2534 H2508 0.950 . S
C2534 C2530 1.385 . S
C2534 C2533 1.374 . S
C2535 C2532 1.499 . S
C2535 C2536 1.373 . S
C2535 C2537 1.389 . S
C2536 H2509 0.950 . S
C2536 C2522 1.377 . S
C2536 C2535 1.373 . S
C2537 C2521 1.377 . S
C2537 C2535 1.389 . S
C2537 C2538 1.524 . S
C2538 C2537 1.524 . S
C2538 C2539 1.397 . S
C2538 C2543 1.363 . S
C2539 H2510 0.950 . S
C2539 C2538 1.397 . S
C2539 C2540 1.334 . S
C2540 H2511 0.950 . S
C2540 C2539 1.334 . S
C2540 C2541 1.287 . S
C2541 C2540 1.287 . S
C2541 C2542 1.524 . S
C2541 H2544 0.999 . S
C2542 H2512 0.950 . S
C2542 C2541 1.524 . S
C2542 C2543 1.415 . S
C2543 H2513 0.950 . S
C2543 C2538 1.363 . S
C2543 C2542 1.415 . S
H2544 C2541 0.999 . S
H2545 C2526 0.913 . S
H2546 C2564 0.951 . S
H2547 C2566 0.951 . S
H2548 C2568 0.950 . S
H2549 C2569 0.950 . S
H2550 C2571 0.950 . S
H2551 C2574 0.950 . S
H2552 C2575 0.950 . S
H2553 C2577 0.950 . S
H2554 C2578 0.950 . S
H2555 C2579 0.951 . S
H2556 C2581 0.951 . S
H2557 C2583 0.950 . S
H2558 C2584 0.950 . S
H2559 C2586 0.950 . S
H2560 C2589 0.950 . S
H2561 C2590 0.950 . S
H2562 C2592 0.950 . S
H2563 C2593 0.950 . S
C2564 H2546 0.951 . S
C2564 C2565 1.366 . S
C2564 C2566 1.388 . S
C2565 C2564 1.366 . S
C2565 C2569 1.385 . S
C2566 H2547 0.951 . S
C2566 C2564 1.388 . S
C2566 C2567 1.366 . S
C2567 C2566 1.366 . S
C2567 C2568 1.414 . S
C2567 C2570 1.499 . S
C2568 H2548 0.950 . S
C2568 C2567 1.414 . S
C2568 C2569 1.374 . S
C2569 H2549 0.950 . S
C2569 C2565 1.385 . S
C2569 C2568 1.374 . S
C2570 C2567 1.499 . S
C2570 C2571 1.373 . S
C2570 C2572 1.389 . S
C2571 H2550 0.950 . S
C2571 C2570 1.373 . S
C2571 C2587 1.377 . S
C2572 C2570 1.389 . S
C2572 C2573 1.524 . S
C2572 C2586 1.377 . S
C2573 C2572 1.524 . S
C2573 C2574 1.397 . S
C2573 C2578 1.363 . S
C2574 H2551 0.950 . S
C2574 C2573 1.397 . S
C2574 C2575 1.334 . S
C2575 H2552 0.950 . S
C2575 C2574 1.334 . S
C2575 C2576 1.287 . S
C2576 C2575 1.287 . S
C2576 C2577 1.524 . S
C2576 H2595 0.913 . S
C2577 H2553 0.950 . S
C2577 C2576 1.524 . S
C2577 C2578 1.415 . S
C2578 H2554 0.950 . S
C2578 C2573 1.363 . S
C2578 C2577 1.415 . S
C2579 H2555 0.951 . S
C2579 C2580 1.366 . S
C2579 C2581 1.388 . S
C2580 C2579 1.366 . S
C2580 C2584 1.385 . S
C2581 H2556 0.951 . S
C2581 C2579 1.388 . S
C2581 C2582 1.366 . S
C2582 C2581 1.366 . S
C2582 C2583 1.414 . S
C2582 C2585 1.499 . S
C2583 H2557 0.950 . S
C2583 C2582 1.414 . S
C2583 C2584 1.374 . S
C2584 H2558 0.950 . S
C2584 C2580 1.385 . S
C2584 C2583 1.374 . S
C2585 C2582 1.499 . S
C2585 C2586 1.373 . S
C2585 C2587 1.389 . S
C2586 H2559 0.950 . S
C2586 C2572 1.377 . S
C2586 C2585 1.373 . S
C2587 C2571 1.377 . S
C2587 C2585 1.389 . S
C2587 C2588 1.524 . S
C2588 C2587 1.524 . S
C2588 C2589 1.397 . S
C2588 C2593 1.363 . S
C2589 H2560 0.950 . S
C2589 C2588 1.397 . S
C2589 C2590 1.334 . S
C2590 H2561 0.950 . S
C2590 C2589 1.334 . S
C2590 C2591 1.287 . S
C2591 C2590 1.287 . S
C2591 C2592 1.524 . S
C2591 H2594 0.999 . S
C2592 H2562 0.950 . S
C2592 C2591 1.524 . S
C2592 C2593 1.415 . S
C2593 H2563 0.950 . S
C2593 C2588 1.363 . S
C2593 C2592 1.415 . S
H2594 C2591 0.999 . S
H2595 C2576 0.913 . S
H2596 C2614 0.951 . S
H2597 C2616 0.951 . S
H2598 C2618 0.950 . S
H2599 C2619 0.950 . S
H2600 C2621 0.950 . S
H2601 C2624 0.950 . S
H2602 C2625 0.950 . S
H2603 C2627 0.950 . S
H2604 C2628 0.950 . S
H2605 C2629 0.951 . S
H2606 C2631 0.951 . S
H2607 C2633 0.950 . S
H2608 C2634 0.950 . S
H2609 C2636 0.950 . S
H2610 C2639 0.950 . S
H2611 C2640 0.950 . S
H2612 C2642 0.950 . S
H2613 C2643 0.950 . S
C2614 H2596 0.951 . S
C2614 C2615 1.366 . S
C2614 C2616 1.388 . S
C2615 C2614 1.366 . S
C2615 C2619 1.385 . S
C2616 H2597 0.951 . S
C2616 C2614 1.388 . S
C2616 C2617 1.366 . S
C2617 C2616 1.366 . S
C2617 C2618 1.414 . S
C2617 C2620 1.499 . S
C2618 H2598 0.950 . S
C2618 C2617 1.414 . S
C2618 C2619 1.374 . S
C2619 H2599 0.950 . S
C2619 C2615 1.385 . S
C2619 C2618 1.374 . S
C2620 C2617 1.499 . S
C2620 C2621 1.373 . S
C2620 C2622 1.397 . S
C2621 H2600 0.950 . S
C2621 C2620 1.373 . S
C2621 C2637 1.368 1_565 S
C2622 C2620 1.397 . S
C2622 C2623 1.524 1_565 S
C2622 C2636 1.368 1_565 S
C2623 C2622 1.524 1_545 S
C2623 C2624 1.397 1_545 S
C2623 C2628 1.363 . S
C2624 H2601 0.950 . S
C2624 C2623 1.397 1_565 S
C2624 C2625 1.334 . S
C2625 H2602 0.950 . S
C2625 C2624 1.334 . S
C2625 C2626 1.287 1_565 S
C2626 C2625 1.287 1_545 S
C2626 C2627 1.524 . S
C2626 H2645 0.913 . S
C2627 H2603 0.950 . S
C2627 C2626 1.524 . S
C2627 C2628 1.415 . S
C2628 H2604 0.950 . S
C2628 C2623 1.363 . S
C2628 C2627 1.415 . S
C2629 H2605 0.951 . S
C2629 C2630 1.366 . S
C2629 C2631 1.388 . S
C2630 C2629 1.366 . S
C2630 C2634 1.385 . S
C2631 H2606 0.951 . S
C2631 C2629 1.388 . S
C2631 C2632 1.366 . S
C2632 C2631 1.366 . S
C2632 C2633 1.414 . S
C2632 C2635 1.499 . S
C2633 H2607 0.950 . S
C2633 C2632 1.414 . S
C2633 C2634 1.374 . S
C2634 H2608 0.950 . S
C2634 C2630 1.385 . S
C2634 C2633 1.374 . S
C2635 C2632 1.499 . S
C2635 C2636 1.373 . S
C2635 C2637 1.397 . S
C2636 H2609 0.950 . S
C2636 C2622 1.368 1_545 S
C2636 C2635 1.373 . S
C2637 C2621 1.368 1_545 S
C2637 C2635 1.397 . S
C2637 C2638 1.524 1_545 S
C2638 C2637 1.524 1_565 S
C2638 C2639 1.397 1_565 S
C2638 C2643 1.363 . S
C2639 H2610 0.950 . S
C2639 C2638 1.397 1_545 S
C2639 C2640 1.334 . S
C2640 H2611 0.950 . S
C2640 C2639 1.334 . S
C2640 C2641 1.287 1_545 S
C2641 C2640 1.287 1_565 S
C2641 C2642 1.524 . S
C2641 H2644 0.999 . S
C2642 H2612 0.950 . S
C2642 C2641 1.524 . S
C2642 C2643 1.415 . S
C2643 H2613 0.950 . S
C2643 C2638 1.363 . S
C2643 C2642 1.415 . S
H2644 C2641 0.999 . S
H2645 C2626 0.913 . S
H2646 C2664 0.951 . S
H2647 C2666 0.951 . S
H2648 C2668 0.950 . S
H2649 C2669 0.950 . S
H2650 C2671 0.950 . S
H2651 C2674 0.950 . S
H2652 C2675 0.950 . S
H2653 C2677 0.950 . S
H2654 C2678 0.950 . S
H2655 C2679 0.951 . S
H2656 C2681 0.951 . S
H2657 C2683 0.950 . S
H2658 C2684 0.950 . S
H2659 C2686 0.950 . S
H2660 C2689 0.950 . S
H2661 C2690 0.950 . S
H2662 C2692 0.950 . S
H2663 C2693 0.950 . S
C2664 H2646 0.951 . S
C2664 C2665 1.366 . S
C2664 C2666 1.388 . S
C2665 C2664 1.366 . S
C2665 C2669 1.385 . S
C2666 H2647 0.951 . S
C2666 C2664 1.388 . S
C2666 C2667 1.366 . S
C2667 C2666 1.366 . S
C2667 C2668 1.414 . S
C2667 C2670 1.499 . S
C2668 H2648 0.950 . S
C2668 C2667 1.414 . S
C2668 C2669 1.374 . S
C2669 H2649 0.950 . S
C2669 C2665 1.385 . S
C2669 C2668 1.374 . S
C2670 C2667 1.499 . S
C2670 C2671 1.373 . S
C2670 C2672 1.389 . S
C2671 H2650 0.950 . S
C2671 C2670 1.373 . S
C2671 C2687 1.377 1_655 S
C2672 C2670 1.389 . S
C2672 C2673 1.524 . S
C2672 C2686 1.377 1_655 S
C2673 C2672 1.524 . S
C2673 C2674 1.397 . S
C2673 C2678 1.363 . S
C2674 H2651 0.950 . S
C2674 C2673 1.397 . S
C2674 C2675 1.334 . S
C2675 H2652 0.950 . S
C2675 C2674 1.334 . S
C2675 C2676 1.287 . S
C2676 C2675 1.287 . S
C2676 C2677 1.524 . S
C2676 H2695 0.913 . S
C2677 H2653 0.950 . S
C2677 C2676 1.524 . S
C2677 C2678 1.415 . S
C2678 H2654 0.950 . S
C2678 C2673 1.363 . S
C2678 C2677 1.415 . S
C2679 H2655 0.951 . S
C2679 C2680 1.366 . S
C2679 C2681 1.388 . S
C2680 C2679 1.366 . S
C2680 C2684 1.385 . S
C2681 H2656 0.951 . S
C2681 C2679 1.388 . S
C2681 C2682 1.366 . S
C2682 C2681 1.366 . S
C2682 C2683 1.414 . S
C2682 C2685 1.499 . S
C2683 H2657 0.950 . S
C2683 C2682 1.414 . S
C2683 C2684 1.374 . S
C2684 H2658 0.950 . S
C2684 C2680 1.385 . S
C2684 C2683 1.374 . S
C2685 C2682 1.499 . S
C2685 C2686 1.373 . S
C2685 C2687 1.389 . S
C2686 H2659 0.950 . S
C2686 C2672 1.377 1_455 S
C2686 C2685 1.373 . S
C2687 C2671 1.377 1_455 S
C2687 C2685 1.389 . S
C2687 C2688 1.524 . S
C2688 C2687 1.524 . S
C2688 C2689 1.397 . S
C2688 C2693 1.363 . S
C2689 H2660 0.950 . S
C2689 C2688 1.397 . S
C2689 C2690 1.334 . S
C2690 H2661 0.950 . S
C2690 C2689 1.334 . S
C2690 C2691 1.287 . S
C2691 C2690 1.287 . S
C2691 C2692 1.524 . S
C2691 H2694 0.999 . S
C2692 H2662 0.950 . S
C2692 C2691 1.524 . S
C2692 C2693 1.415 . S
C2693 H2663 0.950 . S
C2693 C2688 1.363 . S
C2693 C2692 1.415 . S
H2694 C2691 0.999 . S
H2695 C2676 0.913 . S
H2696 C2714 0.951 . S
H2697 C2716 0.951 . S
H2698 C2718 0.950 . S
H2699 C2719 0.950 . S
H2700 C2721 0.950 . S
H2701 C2724 0.950 . S
H2702 C2725 0.950 . S
H2703 C2727 0.950 . S
H2704 C2728 0.950 . S
H2705 C2729 0.951 . S
H2706 C2731 0.951 . S
H2707 C2733 0.950 . S
H2708 C2734 0.950 . S
H2709 C2736 0.950 . S
H2710 C2739 0.950 . S
H2711 C2740 0.950 . S
H2712 C2742 0.950 . S
H2713 C2743 0.950 . S
C2714 H2696 0.951 . S
C2714 C2715 1.366 . S
C2714 C2716 1.388 . S
C2715 C2714 1.366 . S
C2715 C2719 1.385 . S
C2716 H2697 0.951 . S
C2716 C2714 1.388 . S
C2716 C2717 1.366 . S
C2717 C2716 1.366 . S
C2717 C2718 1.414 . S
C2717 C2720 1.499 . S
C2718 H2698 0.950 . S
C2718 C2717 1.414 . S
C2718 C2719 1.374 . S
C2719 H2699 0.950 . S
C2719 C2715 1.385 . S
C2719 C2718 1.374 . S
C2720 C2717 1.499 . S
C2720 C2721 1.373 . S
C2720 C2722 1.405 . S
C2721 H2700 0.950 . S
C2721 C2720 1.373 . S
C2721 C2737 1.360 1_565 S
C2722 C2720 1.405 . S
C2722 C2723 1.523 1_565 S
C2722 C2736 1.360 1_565 S
C2723 C2722 1.523 1_545 S
C2723 C2724 1.378 1_545 S
C2723 C2728 1.386 . S
C2724 H2701 0.950 . S
C2724 C2723 1.378 1_565 S
C2724 C2725 1.334 . S
C2725 H2702 0.950 . S
C2725 C2724 1.334 . S
C2725 C2726 1.287 1_565 S
C2726 C2725 1.287 1_545 S
C2726 C2727 1.524 . S
C2726 H2745 0.913 . S
C2727 H2703 0.950 . S
C2727 C2726 1.524 . S
C2727 C2728 1.415 . S
C2728 H2704 0.950 . S
C2728 C2723 1.386 . S
C2728 C2727 1.415 . S
C2729 H2705 0.951 . S
C2729 C2730 1.366 . S
C2729 C2731 1.388 . S
C2730 C2729 1.366 . S
C2730 C2734 1.385 . S
C2731 H2706 0.951 . S
C2731 C2729 1.388 . S
C2731 C2732 1.366 . S
C2732 C2731 1.366 . S
C2732 C2733 1.414 . S
C2732 C2735 1.499 . S
C2733 H2707 0.950 . S
C2733 C2732 1.414 . S
C2733 C2734 1.374 . S
C2734 H2708 0.950 . S
C2734 C2730 1.385 . S
C2734 C2733 1.374 . S
C2735 C2732 1.499 . S
C2735 C2736 1.373 . S
C2735 C2737 1.405 . S
C2736 H2709 0.950 . S
C2736 C2722 1.360 1_545 S
C2736 C2735 1.373 . S
C2737 C2721 1.360 1_545 S
C2737 C2735 1.405 . S
C2737 C2738 1.523 1_545 S
C2738 C2737 1.523 1_565 S
C2738 C2739 1.378 1_565 S
C2738 C2743 1.386 . S
C2739 H2710 0.950 . S
C2739 C2738 1.378 1_545 S
C2739 C2740 1.334 . S
C2740 H2711 0.950 . S
C2740 C2739 1.334 . S
C2740 C2741 1.287 1_545 S
C2741 C2740 1.287 1_565 S
C2741 C2742 1.524 . S
C2741 H2744 0.999 . S
C2742 H2712 0.950 . S
C2742 C2741 1.524 . S
C2742 C2743 1.415 . S
C2743 H2713 0.950 . S
C2743 C2738 1.386 . S
C2743 C2742 1.415 . S
H2744 C2741 0.999 . S
H2745 C2726 0.913 . S
H2746 C2764 0.951 . S
H2747 C2766 0.951 . S
H2748 C2768 0.950 . S
H2749 C2769 0.950 . S
H2750 C2771 0.950 . S
H2751 C2774 0.950 . S
H2752 C2775 0.950 . S
H2753 C2777 0.950 . S
H2754 C2778 0.950 . S
H2755 C2779 0.951 . S
H2756 C2781 0.951 . S
H2757 C2783 0.950 . S
H2758 C2784 0.950 . S
H2759 C2786 0.950 . S
H2760 C2789 0.950 . S
H2761 C2790 0.950 . S
H2762 C2792 0.950 . S
H2763 C2793 0.950 . S
C2764 H2746 0.951 . S
C2764 C2765 1.366 . S
C2764 C2766 1.388 . S
C2765 C2764 1.366 . S
C2765 C2769 1.385 . S
C2766 H2747 0.951 . S
C2766 C2764 1.388 . S
C2766 C2767 1.366 . S
C2767 C2766 1.366 . S
C2767 C2768 1.414 . S
C2767 C2770 1.499 . S
C2768 H2748 0.950 . S
C2768 C2767 1.414 . S
C2768 C2769 1.374 . S
C2769 H2749 0.950 . S
C2769 C2765 1.385 . S
C2769 C2768 1.374 . S
C2770 C2767 1.499 . S
C2770 C2771 1.373 . S
C2770 C2772 1.389 . S
C2771 H2750 0.950 . S
C2771 C2770 1.373 . S
C2771 C2787 1.377 1_655 S
C2772 C2770 1.389 . S
C2772 C2773 1.524 . S
C2772 C2786 1.377 1_655 S
C2773 C2772 1.524 . S
C2773 C2774 1.397 . S
C2773 C2778 1.363 1_655 S
C2774 H2751 0.950 . S
C2774 C2773 1.397 . S
C2774 C2775 1.334 . S
C2775 H2752 0.950 . S
C2775 C2774 1.334 . S
C2775 C2776 1.287 . S
C2776 C2775 1.287 . S
C2776 C2777 1.524 1_655 S
C2776 H2795 0.913 . S
C2777 H2753 0.950 . S
C2777 C2776 1.524 1_455 S
C2777 C2778 1.415 . S
C2778 H2754 0.950 . S
C2778 C2773 1.363 1_455 S
C2778 C2777 1.415 . S
C2779 H2755 0.951 . S
C2779 C2780 1.366 . S
C2779 C2781 1.388 . S
C2780 C2779 1.366 . S
C2780 C2784 1.385 . S
C2781 H2756 0.951 . S
C2781 C2779 1.388 . S
C2781 C2782 1.366 . S
C2782 C2781 1.366 . S
C2782 C2783 1.414 . S
C2782 C2785 1.499 . S
C2783 H2757 0.950 . S
C2783 C2782 1.414 . S
C2783 C2784 1.374 . S
C2784 H2758 0.950 . S
C2784 C2780 1.385 . S
C2784 C2783 1.374 . S
C2785 C2782 1.499 . S
C2785 C2786 1.373 . S
C2785 C2787 1.389 . S
C2786 H2759 0.950 . S
C2786 C2772 1.377 1_455 S
C2786 C2785 1.373 . S
C2787 C2771 1.377 1_455 S
C2787 C2785 1.389 . S
C2787 C2788 1.524 . S
C2788 C2787 1.524 . S
C2788 C2789 1.397 . S
C2788 C2793 1.363 1_455 S
C2789 H2760 0.950 . S
C2789 C2788 1.397 . S
C2789 C2790 1.334 . S
C2790 H2761 0.950 . S
C2790 C2789 1.334 . S
C2790 C2791 1.287 . S
C2791 C2790 1.287 . S
C2791 C2792 1.524 1_455 S
C2791 H2794 0.999 . S
C2792 H2762 0.950 . S
C2792 C2791 1.524 1_655 S
C2792 C2793 1.415 . S
C2793 H2763 0.950 . S
C2793 C2788 1.363 1_655 S
C2793 C2792 1.415 . S
H2794 C2791 0.999 . S
H2795 C2776 0.913 . S
H2796 C2814 0.951 . S
H2797 C2816 0.951 . S
H2798 C2818 0.950 . S
H2799 C2819 0.950 . S
H2800 C2821 0.950 . S
H2801 C2824 0.950 . S
H2802 C2825 0.950 . S
H2803 C2827 0.950 . S
H2804 C2828 0.950 . S
H2805 C2829 0.951 . S
H2806 C2831 0.951 . S
H2807 C2833 0.950 . S
H2808 C2834 0.950 . S
H2809 C2836 0.950 . S
H2810 C2839 0.950 . S
H2811 C2840 0.950 . S
H2812 C2842 0.950 . S
H2813 C2843 0.950 . S
C2814 H2796 0.951 . S
C2814 C2815 1.366 . S
C2814 C2816 1.388 . S
C2815 C2814 1.366 . S
C2815 C2819 1.385 . S
C2816 H2797 0.951 . S
C2816 C2814 1.388 . S
C2816 C2817 1.366 . S
C2817 C2816 1.366 . S
C2817 C2818 1.414 . S
C2817 C2820 1.499 . S
C2818 H2798 0.950 . S
C2818 C2817 1.414 . S
C2818 C2819 1.374 . S
C2819 H2799 0.950 . S
C2819 C2815 1.385 . S
C2819 C2818 1.374 . S
C2820 C2817 1.499 . S
C2820 C2821 1.373 . S
C2820 C2822 1.389 . S
C2821 H2800 0.950 . S
C2821 C2820 1.373 . S
C2821 C2837 1.377 . S
C2822 C2820 1.389 . S
C2822 C2823 1.524 . S
C2822 C2836 1.377 . S
C2823 C2822 1.524 . S
C2823 C2824 1.397 . S
C2823 C2828 1.363 . S
C2824 H2801 0.950 . S
C2824 C2823 1.397 . S
C2824 C2825 1.334 . S
C2825 H2802 0.950 . S
C2825 C2824 1.334 . S
C2825 C2826 1.287 . S
C2826 C2825 1.287 . S
C2826 C2827 1.524 . S
C2826 H2845 0.913 . S
C2827 H2803 0.950 . S
C2827 C2826 1.524 . S
C2827 C2828 1.415 . S
C2828 H2804 0.950 . S
C2828 C2823 1.363 . S
C2828 C2827 1.415 . S
C2829 H2805 0.951 . S
C2829 C2830 1.366 . S
C2829 C2831 1.388 . S
C2830 C2829 1.366 . S
C2830 C2834 1.385 . S
C2831 H2806 0.951 . S
C2831 C2829 1.388 . S
C2831 C2832 1.366 . S
C2832 C2831 1.366 . S
C2832 C2833 1.414 . S
C2832 C2835 1.499 . S
C2833 H2807 0.950 . S
C2833 C2832 1.414 . S
C2833 C2834 1.374 . S
C2834 H2808 0.950 . S
C2834 C2830 1.385 . S
C2834 C2833 1.374 . S
C2835 C2832 1.499 . S
C2835 C2836 1.373 . S
C2835 C2837 1.389 . S
C2836 H2809 0.950 . S
C2836 C2822 1.377 . S
C2836 C2835 1.373 . S
C2837 C2821 1.377 . S
C2837 C2835 1.389 . S
C2837 C2838 1.524 . S
C2838 C2837 1.524 . S
C2838 C2839 1.397 . S
C2838 C2843 1.363 . S
C2839 H2810 0.950 . S
C2839 C2838 1.397 . S
C2839 C2840 1.334 . S
C2840 H2811 0.950 . S
C2840 C2839 1.334 . S
C2840 C2841 1.287 . S
C2841 C2840 1.287 . S
C2841 C2842 1.524 . S
C2841 H2844 0.999 . S
C2842 H2812 0.950 . S
C2842 C2841 1.524 . S
C2842 C2843 1.415 . S
C2843 H2813 0.950 . S
C2843 C2838 1.363 . S
C2843 C2842 1.415 . S
H2844 C2841 0.999 . S
H2845 C2826 0.913 . S
H2846 C2864 0.951 . S
H2847 C2866 0.951 . S
H2848 C2868 0.950 . S
H2849 C2869 0.950 . S
H2850 C2871 0.950 . S
H2851 C2874 0.950 . S
H2852 C2875 0.950 . S
H2853 C2877 0.950 . S
H2854 C2878 0.950 . S
H2855 C2879 0.951 . S
H2856 C2881 0.951 . S
H2857 C2883 0.950 . S
H2858 C2884 0.950 . S
H2859 C2886 0.950 . S
H2860 C2889 0.950 . S
H2861 C2890 0.950 . S
H2862 C2892 0.950 . S
H2863 C2893 0.950 . S
C2864 H2846 0.951 . S
C2864 C2865 1.366 . S
C2864 C2866 1.388 . S
C2865 C2864 1.366 . S
C2865 C2869 1.385 . S
C2866 H2847 0.951 . S
C2866 C2864 1.388 . S
C2866 C2867 1.366 . S
C2867 C2866 1.366 . S
C2867 C2868 1.414 . S
C2867 C2870 1.499 . S
C2868 H2848 0.950 . S
C2868 C2867 1.414 . S
C2868 C2869 1.374 . S
C2869 H2849 0.950 . S
C2869 C2865 1.385 . S
C2869 C2868 1.374 . S
C2870 C2867 1.499 . S
C2870 C2871 1.373 . S
C2870 C2872 1.389 . S
C2871 H2850 0.950 . S
C2871 C2870 1.373 . S
C2871 C2887 1.377 . S
C2872 C2870 1.389 . S
C2872 C2873 1.524 . S
C2872 C2886 1.377 . S
C2873 C2872 1.524 . S
C2873 C2874 1.397 . S
C2873 C2878 1.363 . S
C2874 H2851 0.950 . S
C2874 C2873 1.397 . S
C2874 C2875 1.334 . S
C2875 H2852 0.950 . S
C2875 C2874 1.334 . S
C2875 C2876 1.287 . S
C2876 C2875 1.287 . S
C2876 C2877 1.524 . S
C2876 H2895 0.913 . S
C2877 H2853 0.950 . S
C2877 C2876 1.524 . S
C2877 C2878 1.415 . S
C2878 H2854 0.950 . S
C2878 C2873 1.363 . S
C2878 C2877 1.415 . S
C2879 H2855 0.951 . S
C2879 C2880 1.366 . S
C2879 C2881 1.388 . S
C2880 C2879 1.366 . S
C2880 C2884 1.385 . S
C2881 H2856 0.951 . S
C2881 C2879 1.388 . S
C2881 C2882 1.366 . S
C2882 C2881 1.366 . S
C2882 C2883 1.414 . S
C2882 C2885 1.499 . S
C2883 H2857 0.950 . S
C2883 C2882 1.414 . S
C2883 C2884 1.374 . S
C2884 H2858 0.950 . S
C2884 C2880 1.385 . S
C2884 C2883 1.374 . S
C2885 C2882 1.499 . S
C2885 C2886 1.373 . S
C2885 C2887 1.389 . S
C2886 H2859 0.950 . S
C2886 C2872 1.377 . S
C2886 C2885 1.373 . S
C2887 C2871 1.377 . S
C2887 C2885 1.389 . S
C2887 C2888 1.524 . S
C2888 C2887 1.524 . S
C2888 C2889 1.397 . S
C2888 C2893 1.363 . S
C2889 H2860 0.950 . S
C2889 C2888 1.397 . S
C2889 C2890 1.334 . S
C2890 H2861 0.950 . S
C2890 C2889 1.334 . S
C2890 C2891 1.287 . S
C2891 C2890 1.287 . S
C2891 C2892 1.524 . S
C2891 H2894 0.999 . S
C2892 H2862 0.950 . S
C2892 C2891 1.524 . S
C2892 C2893 1.415 . S
C2893 H2863 0.950 . S
C2893 C2888 1.363 . S
C2893 C2892 1.415 . S
H2894 C2891 0.999 . S
H2895 C2876 0.913 . S
H2896 C2914 0.951 . S
H2897 C2916 0.951 . S
H2898 C2918 0.950 . S
H2899 C2919 0.950 . S
H2900 C2921 0.950 . S
H2901 C2924 0.950 . S
H2902 C2925 0.950 . S
H2903 C2927 0.950 . S
H2904 C2928 0.950 . S
H2905 C2929 0.951 . S
H2906 C2931 0.951 . S
H2907 C2933 0.950 . S
H2908 C2934 0.950 . S
H2909 C2936 0.950 . S
H2910 C2939 0.950 . S
H2911 C2940 0.950 . S
H2912 C2942 0.950 . S
H2913 C2943 0.950 . S
C2914 H2896 0.951 . S
C2914 C2915 1.366 . S
C2914 C2916 1.388 . S
C2915 C2914 1.366 . S
C2915 C2919 1.385 . S
C2916 H2897 0.951 . S
C2916 C2914 1.388 . S
C2916 C2917 1.366 . S
C2917 C2916 1.366 . S
C2917 C2918 1.414 . S
C2917 C2920 1.499 . S
C2918 H2898 0.950 . S
C2918 C2917 1.414 . S
C2918 C2919 1.374 . S
C2919 H2899 0.950 . S
C2919 C2915 1.385 . S
C2919 C2918 1.374 . S
C2920 C2917 1.499 . S
C2920 C2921 1.373 . S
C2920 C2922 1.389 . S
C2921 H2900 0.950 . S
C2921 C2920 1.373 . S
C2921 C2937 1.377 . S
C2922 C2920 1.389 . S
C2922 C2923 1.524 . S
C2922 C2936 1.377 . S
C2923 C2922 1.524 . S
C2923 C2924 1.397 . S
C2923 C2928 1.363 . S
C2924 H2901 0.950 . S
C2924 C2923 1.397 . S
C2924 C2925 1.334 . S
C2925 H2902 0.950 . S
C2925 C2924 1.334 . S
C2925 C2926 1.287 . S
C2926 C2925 1.287 . S
C2926 C2927 1.524 . S
C2926 H2945 0.913 . S
C2927 H2903 0.950 . S
C2927 C2926 1.524 . S
C2927 C2928 1.415 . S
C2928 H2904 0.950 . S
C2928 C2923 1.363 . S
C2928 C2927 1.415 . S
C2929 H2905 0.951 . S
C2929 C2930 1.366 . S
C2929 C2931 1.388 . S
C2930 C2929 1.366 . S
C2930 C2934 1.385 . S
C2931 H2906 0.951 . S
C2931 C2929 1.388 . S
C2931 C2932 1.366 . S
C2932 C2931 1.366 . S
C2932 C2933 1.414 . S
C2932 C2935 1.499 . S
C2933 H2907 0.950 . S
C2933 C2932 1.414 . S
C2933 C2934 1.374 . S
C2934 H2908 0.950 . S
C2934 C2930 1.385 . S
C2934 C2933 1.374 . S
C2935 C2932 1.499 . S
C2935 C2936 1.373 . S
C2935 C2937 1.389 . S
C2936 H2909 0.950 . S
C2936 C2922 1.377 . S
C2936 C2935 1.373 . S
C2937 C2921 1.377 . S
C2937 C2935 1.389 . S
C2937 C2938 1.524 . S
C2938 C2937 1.524 . S
C2938 C2939 1.397 . S
C2938 C2943 1.363 . S
C2939 H2910 0.950 . S
C2939 C2938 1.397 . S
C2939 C2940 1.334 . S
C2940 H2911 0.950 . S
C2940 C2939 1.334 . S
C2940 C2941 1.287 . S
C2941 C2940 1.287 . S
C2941 C2942 1.524 . S
C2941 H2944 0.999 . S
C2942 H2912 0.950 . S
C2942 C2941 1.524 . S
C2942 C2943 1.415 . S
C2943 H2913 0.950 . S
C2943 C2938 1.363 . S
C2943 C2942 1.415 . S
H2944 C2941 0.999 . S
H2945 C2926 0.913 . S
H2946 C2964 0.951 . S
H2947 C2966 0.951 . S
H2948 C2968 0.950 . S
H2949 C2969 0.950 . S
H2950 C2971 0.950 . S
H2951 C2974 0.950 . S
H2952 C2975 0.950 . S
H2953 C2977 0.950 . S
H2954 C2978 0.950 . S
H2955 C2979 0.951 . S
H2956 C2981 0.951 . S
H2957 C2983 0.950 . S
H2958 C2984 0.950 . S
H2959 C2986 0.950 . S
H2960 C2989 0.950 . S
H2961 C2990 0.950 . S
H2962 C2992 0.950 . S
H2963 C2993 0.950 . S
C2964 H2946 0.951 . S
C2964 C2965 1.366 . S
C2964 C2966 1.388 . S
C2965 C2964 1.366 . S
C2965 C2969 1.385 . S
C2966 H2947 0.951 . S
C2966 C2964 1.388 . S
C2966 C2967 1.366 . S
C2967 C2966 1.366 . S
C2967 C2968 1.414 . S
C2967 C2970 1.499 . S
C2968 H2948 0.950 . S
C2968 C2967 1.414 . S
C2968 C2969 1.374 . S
C2969 H2949 0.950 . S
C2969 C2965 1.385 . S
C2969 C2968 1.374 . S
C2970 C2967 1.499 . S
C2970 C2971 1.373 . S
C2970 C2972 1.389 . S
C2971 H2950 0.950 . S
C2971 C2970 1.373 . S
C2971 C2987 1.377 1_554 S
C2972 C2970 1.389 . S
C2972 C2973 1.524 . S
C2972 C2986 1.377 1_554 S
C2973 C2972 1.524 . S
C2973 C2974 1.397 . S
C2973 C2978 1.363 . S
C2974 H2951 0.950 . S
C2974 C2973 1.397 . S
C2974 C2975 1.334 . S
C2975 H2952 0.950 . S
C2975 C2974 1.334 . S
C2975 C2976 1.287 . S
C2976 C2975 1.287 . S
C2976 C2977 1.524 . S
C2976 H2995 0.913 . S
C2977 H2953 0.950 . S
C2977 C2976 1.524 . S
C2977 C2978 1.415 . S
C2978 H2954 0.950 . S
C2978 C2973 1.363 . S
C2978 C2977 1.415 . S
C2979 H2955 0.951 . S
C2979 C2980 1.366 . S
C2979 C2981 1.388 . S
C2980 C2979 1.366 . S
C2980 C2984 1.385 . S
C2981 H2956 0.951 . S
C2981 C2979 1.388 . S
C2981 C2982 1.366 . S
C2982 C2981 1.366 . S
C2982 C2983 1.414 . S
C2982 C2985 1.499 . S
C2983 H2957 0.950 . S
C2983 C2982 1.414 . S
C2983 C2984 1.374 . S
C2984 H2958 0.950 . S
C2984 C2980 1.385 . S
C2984 C2983 1.374 . S
C2985 C2982 1.499 . S
C2985 C2986 1.373 . S
C2985 C2987 1.389 . S
C2986 H2959 0.950 . S
C2986 C2972 1.377 1_556 S
C2986 C2985 1.373 . S
C2987 C2971 1.377 1_556 S
C2987 C2985 1.389 . S
C2987 C2988 1.524 . S
C2988 C2987 1.524 . S
C2988 C2989 1.397 . S
C2988 C2993 1.363 . S
C2989 H2960 0.950 . S
C2989 C2988 1.397 . S
C2989 C2990 1.334 . S
C2990 H2961 0.950 . S
C2990 C2989 1.334 . S
C2990 C2991 1.287 . S
C2991 C2990 1.287 . S
C2991 C2992 1.524 . S
C2991 H2994 0.999 . S
C2992 H2962 0.950 . S
C2992 C2991 1.524 . S
C2992 C2993 1.415 . S
C2993 H2963 0.950 . S
C2993 C2988 1.363 . S
C2993 C2992 1.415 . S
H2994 C2991 0.999 . S
H2995 C2976 0.913 . S
H2996 C3014 0.951 . S
H2997 C3016 0.951 . S
H2998 C3018 0.950 . S
H2999 C3019 0.950 . S
H3000 C3021 0.950 . S
H3001 C3024 0.950 . S
H3002 C3025 0.950 . S
H3003 C3027 0.950 . S
H3004 C3028 0.950 . S
H3005 C3029 0.951 . S
H3006 C3031 0.951 . S
H3007 C3033 0.950 . S
H3008 C3034 0.950 . S
H3009 C3036 0.950 . S
H3010 C3039 0.950 . S
H3011 C3040 0.950 . S
H3012 C3042 0.950 . S
H3013 C3043 0.950 . S
C3014 H2996 0.951 . S
C3014 C3015 1.366 . S
C3014 C3016 1.388 . S
C3015 C3014 1.366 . S
C3015 C3019 1.385 . S
C3016 H2997 0.951 . S
C3016 C3014 1.388 . S
C3016 C3017 1.366 . S
C3017 C3016 1.366 . S
C3017 C3018 1.414 . S
C3017 C3020 1.499 . S
C3018 H2998 0.950 . S
C3018 C3017 1.414 . S
C3018 C3019 1.374 . S
C3019 H2999 0.950 . S
C3019 C3015 1.385 . S
C3019 C3018 1.374 . S
C3020 C3017 1.499 . S
C3020 C3021 1.373 . S
C3020 C3022 1.389 . S
C3021 H3000 0.950 . S
C3021 C3020 1.373 . S
C3021 C3037 1.377 . S
C3022 C3020 1.389 . S
C3022 C3023 1.524 . S
C3022 C3036 1.377 . S
C3023 C3022 1.524 . S
C3023 C3024 1.397 . S
C3023 C3028 1.363 . S
C3024 H3001 0.950 . S
C3024 C3023 1.397 . S
C3024 C3025 1.334 . S
C3025 H3002 0.950 . S
C3025 C3024 1.334 . S
C3025 C3026 1.287 . S
C3026 C3025 1.287 . S
C3026 C3027 1.524 . S
C3026 H3045 0.913 . S
C3027 H3003 0.950 . S
C3027 C3026 1.524 . S
C3027 C3028 1.415 . S
C3028 H3004 0.950 . S
C3028 C3023 1.363 . S
C3028 C3027 1.415 . S
C3029 H3005 0.951 . S
C3029 C3030 1.366 . S
C3029 C3031 1.388 . S
C3030 C3029 1.366 . S
C3030 C3034 1.385 . S
C3031 H3006 0.951 . S
C3031 C3029 1.388 . S
C3031 C3032 1.366 . S
C3032 C3031 1.366 . S
C3032 C3033 1.414 . S
C3032 C3035 1.499 . S
C3033 H3007 0.950 . S
C3033 C3032 1.414 . S
C3033 C3034 1.374 . S
C3034 H3008 0.950 . S
C3034 C3030 1.385 . S
C3034 C3033 1.374 . S
C3035 C3032 1.499 . S
C3035 C3036 1.373 . S
C3035 C3037 1.389 . S
C3036 H3009 0.950 . S
C3036 C3022 1.377 . S
C3036 C3035 1.373 . S
C3037 C3021 1.377 . S
C3037 C3035 1.389 . S
C3037 C3038 1.524 . S
C3038 C3037 1.524 . S
C3038 C3039 1.397 . S
C3038 C3043 1.363 . S
C3039 H3010 0.950 . S
C3039 C3038 1.397 . S
C3039 C3040 1.334 . S
C3040 H3011 0.950 . S
C3040 C3039 1.334 . S
C3040 C3041 1.287 . S
C3041 C3040 1.287 . S
C3041 C3042 1.524 . S
C3041 H3044 0.999 . S
C3042 H3012 0.950 . S
C3042 C3041 1.524 . S
C3042 C3043 1.415 . S
C3043 H3013 0.950 . S
C3043 C3038 1.363 . S
C3043 C3042 1.415 . S
H3044 C3041 0.999 . S
H3045 C3026 0.913 . S
H3046 C3064 0.951 . S
H3047 C3066 0.951 . S
H3048 C3068 0.950 . S
H3049 C3069 0.950 . S
H3050 C3071 0.950 . S
H3051 C3074 0.950 . S
H3052 C3075 0.950 . S
H3053 C3077 0.950 . S
H3054 C3078 0.950 1_554 S
H3055 C3079 0.951 . S
H3056 C3081 0.951 . S
H3057 C3083 0.950 . S
H3058 C3084 0.950 . S
H3059 C3086 0.950 . S
H3060 C3089 0.950 . S
H3061 C3090 0.950 . S
H3062 C3092 0.950 . S
H3063 C3093 0.950 1_556 S
C3064 H3046 0.951 . S
C3064 C3065 1.366 . S
C3064 C3066 1.388 . S
C3065 C3064 1.366 . S
C3065 C3069 1.385 . S
C3066 H3047 0.951 . S
C3066 C3064 1.388 . S
C3066 C3067 1.366 . S
C3067 C3066 1.366 . S
C3067 C3068 1.414 . S
C3067 C3070 1.499 . S
C3068 H3048 0.950 . S
C3068 C3067 1.414 . S
C3068 C3069 1.374 . S
C3069 H3049 0.950 . S
C3069 C3065 1.385 . S
C3069 C3068 1.374 . S
C3070 C3067 1.499 . S
C3070 C3071 1.373 . S
C3070 C3072 1.389 . S
C3071 H3050 0.950 . S
C3071 C3070 1.373 . S
C3071 C3087 1.377 1_556 S
C3072 C3070 1.389 . S
C3072 C3073 1.524 . S
C3072 C3086 1.377 1_556 S
C3073 C3072 1.524 . S
C3073 C3074 1.397 . S
C3073 C3078 1.363 . S
C3074 H3051 0.950 . S
C3074 C3073 1.397 . S
C3074 C3075 1.334 . S
C3075 H3052 0.950 . S
C3075 C3074 1.334 . S
C3075 C3076 1.287 . S
C3076 C3075 1.287 . S
C3076 C3077 1.524 . S
C3076 H3095 0.913 . S
C3077 H3053 0.950 . S
C3077 C3076 1.524 . S
C3077 C3078 1.415 . S
C3078 H3054 0.950 1_556 S
C3078 C3073 1.363 . S
C3078 C3077 1.415 . S
C3079 H3055 0.951 . S
C3079 C3080 1.366 . S
C3079 C3081 1.388 . S
C3080 C3079 1.366 . S
C3080 C3084 1.385 . S
C3081 H3056 0.951 . S
C3081 C3079 1.388 . S
C3081 C3082 1.366 . S
C3082 C3081 1.366 . S
C3082 C3083 1.414 . S
C3082 C3085 1.499 . S
C3083 H3057 0.950 . S
C3083 C3082 1.414 . S
C3083 C3084 1.374 . S
C3084 H3058 0.950 . S
C3084 C3080 1.385 . S
C3084 C3083 1.374 . S
C3085 C3082 1.499 . S
C3085 C3086 1.373 . S
C3085 C3087 1.389 . S
C3086 H3059 0.950 . S
C3086 C3072 1.377 1_554 S
C3086 C3085 1.373 . S
C3087 C3071 1.377 1_554 S
C3087 C3085 1.389 . S
C3087 C3088 1.524 . S
C3088 C3087 1.524 . S
C3088 C3089 1.397 . S
C3088 C3093 1.363 . S
C3089 H3060 0.950 . S
C3089 C3088 1.397 . S
C3089 C3090 1.334 . S
C3090 H3061 0.950 . S
C3090 C3089 1.334 . S
C3090 C3091 1.287 . S
C3091 C3090 1.287 . S
C3091 C3092 1.524 . S
C3091 H3094 0.999 . S
C3092 H3062 0.950 . S
C3092 C3091 1.524 . S
C3092 C3093 1.415 . S
C3093 H3063 0.950 1_554 S
C3093 C3088 1.363 . S
C3093 C3092 1.415 . S
H3094 C3091 0.999 . S
H3095 C3076 0.913 . S
H3096 C3114 0.951 . S
H3097 C3116 0.951 . S
H3098 C3118 0.950 . S
H3099 C3119 0.950 . S
H3100 C3121 0.950 . S
H3101 C3124 0.950 . S
H3102 C3125 0.950 . S
H3103 C3127 0.950 . S
H3104 C3128 0.950 . S
H3105 C3129 0.951 . S
H3106 C3131 0.951 . S
H3107 C3133 0.950 . S
H3108 C3134 0.950 . S
H3109 C3136 0.950 . S
H3110 C3139 0.950 . S
H3111 C3140 0.950 . S
H3112 C3142 0.950 . S
H3113 C3143 0.950 . S
C3114 H3096 0.951 . S
C3114 C3115 1.366 . S
C3114 C3116 1.388 . S
C3115 C3114 1.366 . S
C3115 C3119 1.385 . S
C3116 H3097 0.951 . S
C3116 C3114 1.388 . S
C3116 C3117 1.366 . S
C3117 C3116 1.366 . S
C3117 C3118 1.414 . S
C3117 C3120 1.499 . S
C3118 H3098 0.950 . S
C3118 C3117 1.414 . S
C3118 C3119 1.374 . S
C3119 H3099 0.950 . S
C3119 C3115 1.385 . S
C3119 C3118 1.374 . S
C3120 C3117 1.499 . S
C3120 C3121 1.373 . S
C3120 C3122 1.389 . S
C3121 H3100 0.950 . S
C3121 C3120 1.373 . S
C3121 C3137 1.377 . S
C3122 C3120 1.389 . S
C3122 C3123 1.524 . S
C3122 C3136 1.377 . S
C3123 C3122 1.524 . S
C3123 C3124 1.397 . S
C3123 C3128 1.363 . S
C3124 H3101 0.950 . S
C3124 C3123 1.397 . S
C3124 C3125 1.334 . S
C3125 H3102 0.950 . S
C3125 C3124 1.334 . S
C3125 C3126 1.287 . S
C3126 C3125 1.287 . S
C3126 C3127 1.524 . S
C3126 H3145 0.913 . S
C3127 H3103 0.950 . S
C3127 C3126 1.524 . S
C3127 C3128 1.415 . S
C3128 H3104 0.950 . S
C3128 C3123 1.363 . S
C3128 C3127 1.415 . S
C3129 H3105 0.951 . S
C3129 C3130 1.366 . S
C3129 C3131 1.388 . S
C3130 C3129 1.366 . S
C3130 C3134 1.385 . S
C3131 H3106 0.951 . S
C3131 C3129 1.388 . S
C3131 C3132 1.366 . S
C3132 C3131 1.366 . S
C3132 C3133 1.414 . S
C3132 C3135 1.499 . S
C3133 H3107 0.950 . S
C3133 C3132 1.414 . S
C3133 C3134 1.374 . S
C3134 H3108 0.950 . S
C3134 C3130 1.385 . S
C3134 C3133 1.374 . S
C3135 C3132 1.499 . S
C3135 C3136 1.373 . S
C3135 C3137 1.389 . S
C3136 H3109 0.950 . S
C3136 C3122 1.377 . S
C3136 C3135 1.373 . S
C3137 C3121 1.377 . S
C3137 C3135 1.389 . S
C3137 C3138 1.524 . S
C3138 C3137 1.524 . S
C3138 C3139 1.397 . S
C3138 C3143 1.363 . S
C3139 H3110 0.950 . S
C3139 C3138 1.397 . S
C3139 C3140 1.334 . S
C3140 H3111 0.950 . S
C3140 C3139 1.334 . S
C3140 C3141 1.287 . S
C3141 C3140 1.287 . S
C3141 C3142 1.524 . S
C3141 H3144 0.999 . S
C3142 H3112 0.950 . S
C3142 C3141 1.524 . S
C3142 C3143 1.415 . S
C3143 H3113 0.950 . S
C3143 C3138 1.363 . S
C3143 C3142 1.415 . S
H3144 C3141 0.999 . S
H3145 C3126 0.913 . S
H3146 C3164 0.951 . S
H3147 C3166 0.951 . S
H3148 C3168 0.950 . S
H3149 C3169 0.950 . S
H3150 C3171 0.950 . S
H3151 C3174 0.950 . S
H3152 C3175 0.950 . S
H3153 C3177 0.950 . S
H3154 C3178 0.950 . S
H3155 C3179 0.951 . S
H3156 C3181 0.951 . S
H3157 C3183 0.950 . S
H3158 C3184 0.950 . S
H3159 C3186 0.950 . S
H3160 C3189 0.950 . S
H3161 C3190 0.950 . S
H3162 C3192 0.950 . S
H3163 C3193 0.950 . S
C3164 H3146 0.951 . S
C3164 C3165 1.366 . S
C3164 C3166 1.388 . S
C3165 C3164 1.366 . S
C3165 C3169 1.385 . S
C3166 H3147 0.951 . S
C3166 C3164 1.388 . S
C3166 C3167 1.366 . S
C3167 C3166 1.366 . S
C3167 C3168 1.414 . S
C3167 C3170 1.499 . S
C3168 H3148 0.950 . S
C3168 C3167 1.414 . S
C3168 C3169 1.374 . S
C3169 H3149 0.950 . S
C3169 C3165 1.385 . S
C3169 C3168 1.374 . S
C3170 C3167 1.499 . S
C3170 C3171 1.373 . S
C3170 C3172 1.389 . S
C3171 H3150 0.950 . S
C3171 C3170 1.373 . S
C3171 C3187 1.377 . S
C3172 C3170 1.389 . S
C3172 C3173 1.524 . S
C3172 C3186 1.377 . S
C3173 C3172 1.524 . S
C3173 C3174 1.397 . S
C3173 C3178 1.363 . S
C3174 H3151 0.950 . S
C3174 C3173 1.397 . S
C3174 C3175 1.334 . S
C3175 H3152 0.950 . S
C3175 C3174 1.334 . S
C3175 C3176 1.287 . S
C3176 C3175 1.287 . S
C3176 C3177 1.524 . S
C3176 H3195 0.913 . S
C3177 H3153 0.950 . S
C3177 C3176 1.524 . S
C3177 C3178 1.415 . S
C3178 H3154 0.950 . S
C3178 C3173 1.363 . S
C3178 C3177 1.415 . S
C3179 H3155 0.951 . S
C3179 C3180 1.366 . S
C3179 C3181 1.388 . S
C3180 C3179 1.366 . S
C3180 C3184 1.385 . S
C3181 H3156 0.951 . S
C3181 C3179 1.388 . S
C3181 C3182 1.366 . S
C3182 C3181 1.366 . S
C3182 C3183 1.414 . S
C3182 C3185 1.499 . S
C3183 H3157 0.950 . S
C3183 C3182 1.414 . S
C3183 C3184 1.374 . S
C3184 H3158 0.950 . S
C3184 C3180 1.385 . S
C3184 C3183 1.374 . S
C3185 C3182 1.499 . S
C3185 C3186 1.373 . S
C3185 C3187 1.389 . S
C3186 H3159 0.950 . S
C3186 C3172 1.377 . S
C3186 C3185 1.373 . S
C3187 C3171 1.377 . S
C3187 C3185 1.389 . S
C3187 C3188 1.524 . S
C3188 C3187 1.524 . S
C3188 C3189 1.397 . S
C3188 C3193 1.363 . S
C3189 H3160 0.950 . S
C3189 C3188 1.397 . S
C3189 C3190 1.334 . S
C3190 H3161 0.950 . S
C3190 C3189 1.334 . S
C3190 C3191 1.287 . S
C3191 C3190 1.287 . S
C3191 C3192 1.524 . S
C3191 H3194 0.999 . S
C3192 H3162 0.950 . S
C3192 C3191 1.524 . S
C3192 C3193 1.415 . S
C3193 H3163 0.950 . S
C3193 C3188 1.363 . S
C3193 C3192 1.415 . S
H3194 C3191 0.999 . S
H3195 C3176 0.913 . S
H3196 C3214 0.951 . S
H3197 C3216 0.951 . S
H3198 C3218 0.950 . S
H3199 C3219 0.950 . S
H3200 C3221 0.950 . S
H3201 C3224 0.950 . S
H3202 C3225 0.950 . S
H3203 C3227 0.950 . S
H3204 C3228 0.950 . S
H3205 C3229 0.951 . S
H3206 C3231 0.951 . S
H3207 C3233 0.950 . S
H3208 C3234 0.950 . S
H3209 C3236 0.950 . S
H3210 C3239 0.950 . S
H3211 C3240 0.950 . S
H3212 C3242 0.950 . S
H3213 C3243 0.950 . S
C3214 H3196 0.951 . S
C3214 C3215 1.366 . S
C3214 C3216 1.388 . S
C3215 C3214 1.366 . S
C3215 C3219 1.385 . S
C3216 H3197 0.951 . S
C3216 C3214 1.388 . S
C3216 C3217 1.366 . S
C3217 C3216 1.366 . S
C3217 C3218 1.414 . S
C3217 C3220 1.499 . S
C3218 H3198 0.950 . S
C3218 C3217 1.414 . S
C3218 C3219 1.374 . S
C3219 H3199 0.950 . S
C3219 C3215 1.385 . S
C3219 C3218 1.374 . S
C3220 C3217 1.499 . S
C3220 C3221 1.373 . S
C3220 C3222 1.389 . S
C3221 H3200 0.950 . S
C3221 C3220 1.373 . S
C3221 C3237 1.377 1_565 S
C3222 C3220 1.389 . S
C3222 C3223 1.524 . S
C3222 C3236 1.377 1_565 S
C3223 C3222 1.524 . S
C3223 C3224 1.397 . S
C3223 C3228 1.363 . S
C3224 H3201 0.950 . S
C3224 C3223 1.397 . S
C3224 C3225 1.334 . S
C3225 H3202 0.950 . S
C3225 C3224 1.334 . S
C3225 C3226 1.287 . S
C3226 C3225 1.287 . S
C3226 C3227 1.524 . S
C3226 H3245 0.913 . S
C3227 H3203 0.950 . S
C3227 C3226 1.524 . S
C3227 C3228 1.415 . S
C3228 H3204 0.950 . S
C3228 C3223 1.363 . S
C3228 C3227 1.415 . S
C3229 H3205 0.951 . S
C3229 C3230 1.366 . S
C3229 C3231 1.388 . S
C3230 C3229 1.366 . S
C3230 C3234 1.385 . S
C3231 H3206 0.951 . S
C3231 C3229 1.388 . S
C3231 C3232 1.366 . S
C3232 C3231 1.366 . S
C3232 C3233 1.414 . S
C3232 C3235 1.499 . S
C3233 H3207 0.950 . S
C3233 C3232 1.414 . S
C3233 C3234 1.374 . S
C3234 H3208 0.950 . S
C3234 C3230 1.385 . S
C3234 C3233 1.374 . S
C3235 C3232 1.499 . S
C3235 C3236 1.373 . S
C3235 C3237 1.389 . S
C3236 H3209 0.950 . S
C3236 C3222 1.377 1_545 S
C3236 C3235 1.373 . S
C3237 C3221 1.377 1_545 S
C3237 C3235 1.389 . S
C3237 C3238 1.524 . S
C3238 C3237 1.524 . S
C3238 C3239 1.397 . S
C3238 C3243 1.363 . S
C3239 H3210 0.950 . S
C3239 C3238 1.397 . S
C3239 C3240 1.334 . S
C3240 H3211 0.950 . S
C3240 C3239 1.334 . S
C3240 C3241 1.287 . S
C3241 C3240 1.287 . S
C3241 C3242 1.524 . S
C3241 H3244 0.999 . S
C3242 H3212 0.950 . S
C3242 C3241 1.524 . S
C3242 C3243 1.415 . S
C3243 H3213 0.950 . S
C3243 C3238 1.363 . S
C3243 C3242 1.415 . S
H3244 C3241 0.999 . S
H3245 C3226 0.913 . S
H3246 C3264 0.951 . S
H3247 C3266 0.951 . S
H3248 C3268 0.950 . S
H3249 C3269 0.950 . S
H3250 C3271 0.950 . S
H3251 C3274 0.950 . S
H3252 C3275 0.950 . S
H3253 C3277 0.950 . S
H3254 C3278 0.950 . S
H3255 C3279 0.951 . S
H3256 C3281 0.951 . S
H3257 C3283 0.950 . S
H3258 C3284 0.950 . S
H3259 C3286 0.950 . S
H3260 C3289 0.950 . S
H3261 C3290 0.950 . S
H3262 C3292 0.950 . S
H3263 C3293 0.950 . S
C3264 H3246 0.951 . S
C3264 C3265 1.366 . S
C3264 C3266 1.388 . S
C3265 C3264 1.366 . S
C3265 C3269 1.385 . S
C3266 H3247 0.951 . S
C3266 C3264 1.388 . S
C3266 C3267 1.366 . S
C3267 C3266 1.366 . S
C3267 C3268 1.414 . S
C3267 C3270 1.499 . S
C3268 H3248 0.950 . S
C3268 C3267 1.414 . S
C3268 C3269 1.374 . S
C3269 H3249 0.950 . S
C3269 C3265 1.385 . S
C3269 C3268 1.374 . S
C3270 C3267 1.499 . S
C3270 C3271 1.373 . S
C3270 C3272 1.389 . S
C3271 H3250 0.950 . S
C3271 C3270 1.373 . S
C3271 C3287 1.377 1_655 S
C3272 C3270 1.389 . S
C3272 C3273 1.524 . S
C3272 C3286 1.377 1_655 S
C3273 C3272 1.524 . S
C3273 C3274 1.397 . S
C3273 C3278 1.363 . S
C3274 H3251 0.950 . S
C3274 C3273 1.397 . S
C3274 C3275 1.334 . S
C3275 H3252 0.950 . S
C3275 C3274 1.334 . S
C3275 C3276 1.287 . S
C3276 C3275 1.287 . S
C3276 C3277 1.524 . S
C3276 H3295 0.913 . S
C3277 H3253 0.950 . S
C3277 C3276 1.524 . S
C3277 C3278 1.415 . S
C3278 H3254 0.950 . S
C3278 C3273 1.363 . S
C3278 C3277 1.415 . S
C3279 H3255 0.951 . S
C3279 C3280 1.366 . S
C3279 C3281 1.388 . S
C3280 C3279 1.366 . S
C3280 C3284 1.385 . S
C3281 H3256 0.951 . S
C3281 C3279 1.388 . S
C3281 C3282 1.366 . S
C3282 C3281 1.366 . S
C3282 C3283 1.414 . S
C3282 C3285 1.499 . S
C3283 H3257 0.950 . S
C3283 C3282 1.414 . S
C3283 C3284 1.374 . S
C3284 H3258 0.950 . S
C3284 C3280 1.385 . S
C3284 C3283 1.374 . S
C3285 C3282 1.499 . S
C3285 C3286 1.373 . S
C3285 C3287 1.389 . S
C3286 H3259 0.950 . S
C3286 C3272 1.377 1_455 S
C3286 C3285 1.373 . S
C3287 C3271 1.377 1_455 S
C3287 C3285 1.389 . S
C3287 C3288 1.524 . S
C3288 C3287 1.524 . S
C3288 C3289 1.397 . S
C3288 C3293 1.363 . S
C3289 H3260 0.950 . S
C3289 C3288 1.397 . S
C3289 C3290 1.334 . S
C3290 H3261 0.950 . S
C3290 C3289 1.334 . S
C3290 C3291 1.287 . S
C3291 C3290 1.287 . S
C3291 C3292 1.524 . S
C3291 H3294 0.999 . S
C3292 H3262 0.950 . S
C3292 C3291 1.524 . S
C3292 C3293 1.415 . S
C3293 H3263 0.950 . S
C3293 C3288 1.363 . S
C3293 C3292 1.415 . S
H3294 C3291 0.999 . S
H3295 C3276 0.913 . S
H3296 C3314 0.951 . S
H3297 C3316 0.951 . S
H3298 C3318 0.950 . S
H3299 C3319 0.950 . S
H3300 C3321 0.950 . S
H3301 C3324 0.950 . S
H3302 C3325 0.950 . S
H3303 C3327 0.950 . S
H3304 C3328 0.950 . S
H3305 C3329 0.951 . S
H3306 C3331 0.951 . S
H3307 C3333 0.950 . S
H3308 C3334 0.950 . S
H3309 C3336 0.950 . S
H3310 C3339 0.950 . S
H3311 C3340 0.950 . S
H3312 C3342 0.950 . S
H3313 C3343 0.950 . S
C3314 H3296 0.951 . S
C3314 C3315 1.366 . S
C3314 C3316 1.388 . S
C3315 C3314 1.366 . S
C3315 C3319 1.385 . S
C3316 H3297 0.951 . S
C3316 C3314 1.388 . S
C3316 C3317 1.366 . S
C3317 C3316 1.366 . S
C3317 C3318 1.414 . S
C3317 C3320 1.499 . S
C3318 H3298 0.950 . S
C3318 C3317 1.414 . S
C3318 C3319 1.374 . S
C3319 H3299 0.950 . S
C3319 C3315 1.385 . S
C3319 C3318 1.374 . S
C3320 C3317 1.499 . S
C3320 C3321 1.373 . S
C3320 C3322 1.389 . S
C3321 H3300 0.950 . S
C3321 C3320 1.373 . S
C3321 C3337 1.377 1_565 S
C3322 C3320 1.389 . S
C3322 C3323 1.524 . S
C3322 C3336 1.377 1_565 S
C3323 C3322 1.524 . S
C3323 C3324 1.397 . S
C3323 C3328 1.363 . S
C3324 H3301 0.950 . S
C3324 C3323 1.397 . S
C3324 C3325 1.334 . S
C3325 H3302 0.950 . S
C3325 C3324 1.334 . S
C3325 C3326 1.287 . S
C3326 C3325 1.287 . S
C3326 C3327 1.524 . S
C3326 H3345 0.913 . S
C3327 H3303 0.950 . S
C3327 C3326 1.524 . S
C3327 C3328 1.415 . S
C3328 H3304 0.950 . S
C3328 C3323 1.363 . S
C3328 C3327 1.415 . S
C3329 H3305 0.951 . S
C3329 C3330 1.366 . S
C3329 C3331 1.388 . S
C3330 C3329 1.366 . S
C3330 C3334 1.385 . S
C3331 H3306 0.951 . S
C3331 C3329 1.388 . S
C3331 C3332 1.366 . S
C3332 C3331 1.366 . S
C3332 C3333 1.414 . S
C3332 C3335 1.499 . S
C3333 H3307 0.950 . S
C3333 C3332 1.414 . S
C3333 C3334 1.374 . S
C3334 H3308 0.950 . S
C3334 C3330 1.385 . S
C3334 C3333 1.374 . S
C3335 C3332 1.499 . S
C3335 C3336 1.373 . S
C3335 C3337 1.389 . S
C3336 H3309 0.950 . S
C3336 C3322 1.377 1_545 S
C3336 C3335 1.373 . S
C3337 C3321 1.377 1_545 S
C3337 C3335 1.389 . S
C3337 C3338 1.524 . S
C3338 C3337 1.524 . S
C3338 C3339 1.397 . S
C3338 C3343 1.363 . S
C3339 H3310 0.950 . S
C3339 C3338 1.397 . S
C3339 C3340 1.334 . S
C3340 H3311 0.950 . S
C3340 C3339 1.334 . S
C3340 C3341 1.287 . S
C3341 C3340 1.287 . S
C3341 C3342 1.524 . S
C3341 H3344 0.999 . S
C3342 H3312 0.950 . S
C3342 C3341 1.524 . S
C3342 C3343 1.415 . S
C3343 H3313 0.950 . S
C3343 C3338 1.363 . S
C3343 C3342 1.415 . S
H3344 C3341 0.999 . S
H3345 C3326 0.913 . S
H3346 C3364 0.951 . S
H3347 C3366 0.951 . S
H3348 C3368 0.950 . S
H3349 C3369 0.950 . S
H3350 C3371 0.950 . S
H3351 C3374 0.950 . S
H3352 C3375 0.950 . S
H3353 C3377 0.950 . S
H3354 C3378 0.950 . S
H3355 C3379 0.951 . S
H3356 C3381 0.951 . S
H3357 C3383 0.950 . S
H3358 C3384 0.950 . S
H3359 C3386 0.950 . S
H3360 C3389 0.950 . S
H3361 C3390 0.950 . S
H3362 C3392 0.950 . S
H3363 C3393 0.950 . S
C3364 H3346 0.951 . S
C3364 C3365 1.366 . S
C3364 C3366 1.388 . S
C3365 C3364 1.366 . S
C3365 C3369 1.385 . S
C3366 H3347 0.951 . S
C3366 C3364 1.388 . S
C3366 C3367 1.366 . S
C3367 C3366 1.366 . S
C3367 C3368 1.414 . S
C3367 C3370 1.499 . S
C3368 H3348 0.950 . S
C3368 C3367 1.414 . S
C3368 C3369 1.374 . S
C3369 H3349 0.950 . S
C3369 C3365 1.385 . S
C3369 C3368 1.374 . S
C3370 C3367 1.499 . S
C3370 C3371 1.373 . S
C3370 C3372 1.389 . S
C3371 H3350 0.950 . S
C3371 C3370 1.373 . S
C3371 C3387 1.377 1_655 S
C3372 C3370 1.389 . S
C3372 C3373 1.524 . S
C3372 C3386 1.377 1_655 S
C3373 C3372 1.524 . S
C3373 C3374 1.397 . S
C3373 C3378 1.363 . S
C3374 H3351 0.950 . S
C3374 C3373 1.397 . S
C3374 C3375 1.334 . S
C3375 H3352 0.950 . S
C3375 C3374 1.334 . S
C3375 C3376 1.287 . S
C3376 C3375 1.287 . S
C3376 C3377 1.524 . S
C3376 H3395 0.913 . S
C3377 H3353 0.950 . S
C3377 C3376 1.524 . S
C3377 C3378 1.415 . S
C3378 H3354 0.950 . S
C3378 C3373 1.363 . S
C3378 C3377 1.415 . S
C3379 H3355 0.951 . S
C3379 C3380 1.366 . S
C3379 C3381 1.388 . S
C3380 C3379 1.366 . S
C3380 C3384 1.385 . S
C3381 H3356 0.951 . S
C3381 C3379 1.388 . S
C3381 C3382 1.366 . S
C3382 C3381 1.366 . S
C3382 C3383 1.414 . S
C3382 C3385 1.499 . S
C3383 H3357 0.950 . S
C3383 C3382 1.414 . S
C3383 C3384 1.374 . S
C3384 H3358 0.950 . S
C3384 C3380 1.385 . S
C3384 C3383 1.374 . S
C3385 C3382 1.499 . S
C3385 C3386 1.373 . S
C3385 C3387 1.389 . S
C3386 H3359 0.950 . S
C3386 C3372 1.377 1_455 S
C3386 C3385 1.373 . S
C3387 C3371 1.377 1_455 S
C3387 C3385 1.389 . S
C3387 C3388 1.524 . S
C3388 C3387 1.524 . S
C3388 C3389 1.397 . S
C3388 C3393 1.363 . S
C3389 H3360 0.950 . S
C3389 C3388 1.397 . S
C3389 C3390 1.334 . S
C3390 H3361 0.950 . S
C3390 C3389 1.334 . S
C3390 C3391 1.287 . S
C3391 C3390 1.287 . S
C3391 C3392 1.524 . S
C3391 H3394 0.999 . S
C3392 H3362 0.950 . S
C3392 C3391 1.524 . S
C3392 C3393 1.415 . S
C3393 H3363 0.950 . S
C3393 C3388 1.363 . S
C3393 C3392 1.415 . S
H3394 C3391 0.999 . S
H3395 C3376 0.913 . S
H3396 C3414 0.951 . S
H3397 C3416 0.951 . S
H3398 C3418 0.950 . S
H3399 C3419 0.950 . S
H3400 C3421 0.950 . S
H3401 C3424 0.950 . S
H3402 C3425 0.950 . S
H3403 C3427 0.950 . S
H3404 C3428 0.950 . S
H3405 C3429 0.951 . S
H3406 C3431 0.951 . S
H3407 C3433 0.950 . S
H3408 C3434 0.950 . S
H3409 C3436 0.950 . S
H3410 C3439 0.950 . S
H3411 C3440 0.950 . S
H3412 C3442 0.950 . S
H3413 C3443 0.950 . S
C3414 H3396 0.951 . S
C3414 C3415 1.366 . S
C3414 C3416 1.388 . S
C3415 C3414 1.366 . S
C3415 C3419 1.385 . S
C3416 H3397 0.951 . S
C3416 C3414 1.388 . S
C3416 C3417 1.366 . S
C3417 C3416 1.366 . S
C3417 C3418 1.414 . S
C3417 C3420 1.499 . S
C3418 H3398 0.950 . S
C3418 C3417 1.414 . S
C3418 C3419 1.374 . S
C3419 H3399 0.950 . S
C3419 C3415 1.385 . S
C3419 C3418 1.374 . S
C3420 C3417 1.499 . S
C3420 C3421 1.373 . S
C3420 C3422 1.389 . S
C3421 H3400 0.950 . S
C3421 C3420 1.373 . S
C3421 C3437 1.377 . S
C3422 C3420 1.389 . S
C3422 C3423 1.524 . S
C3422 C3436 1.377 . S
C3423 C3422 1.524 . S
C3423 C3424 1.397 . S
C3423 C3428 1.363 . S
C3424 H3401 0.950 . S
C3424 C3423 1.397 . S
C3424 C3425 1.334 . S
C3425 H3402 0.950 . S
C3425 C3424 1.334 . S
C3425 C3426 1.287 . S
C3426 C3425 1.287 . S
C3426 C3427 1.524 . S
C3426 H3445 0.913 . S
C3427 H3403 0.950 . S
C3427 C3426 1.524 . S
C3427 C3428 1.415 . S
C3428 H3404 0.950 . S
C3428 C3423 1.363 . S
C3428 C3427 1.415 . S
C3429 H3405 0.951 . S
C3429 C3430 1.366 . S
C3429 C3431 1.388 . S
C3430 C3429 1.366 . S
C3430 C3434 1.385 . S
C3431 H3406 0.951 . S
C3431 C3429 1.388 . S
C3431 C3432 1.366 . S
C3432 C3431 1.366 . S
C3432 C3433 1.414 . S
C3432 C3435 1.499 . S
C3433 H3407 0.950 . S
C3433 C3432 1.414 . S
C3433 C3434 1.374 . S
C3434 H3408 0.950 . S
C3434 C3430 1.385 . S
C3434 C3433 1.374 . S
C3435 C3432 1.499 . S
C3435 C3436 1.373 . S
C3435 C3437 1.389 . S
C3436 H3409 0.950 . S
C3436 C3422 1.377 . S
C3436 C3435 1.373 . S
C3437 C3421 1.377 . S
C3437 C3435 1.389 . S
C3437 C3438 1.524 . S
C3438 C3437 1.524 . S
C3438 C3439 1.397 . S
C3438 C3443 1.363 . S
C3439 H3410 0.950 . S
C3439 C3438 1.397 . S
C3439 C3440 1.334 . S
C3440 H3411 0.950 . S
C3440 C3439 1.334 . S
C3440 C3441 1.287 . S
C3441 C3440 1.287 . S
C3441 C3442 1.524 . S
C3441 H3444 0.999 . S
C3442 H3412 0.950 . S
C3442 C3441 1.524 . S
C3442 C3443 1.415 . S
C3443 H3413 0.950 . S
C3443 C3438 1.363 . S
C3443 C3442 1.415 . S
H3444 C3441 0.999 . S
H3445 C3426 0.913 . S
H3446 C3464 0.951 . S
H3447 C3466 0.951 . S
H3448 C3468 0.950 . S
H3449 C3469 0.950 . S
H3450 C3471 0.950 . S
H3451 C3474 0.950 . S
H3452 C3475 0.950 . S
H3453 C3477 0.950 . S
H3454 C3478 0.950 . S
H3455 C3479 0.951 . S
H3456 C3481 0.951 . S
H3457 C3483 0.950 . S
H3458 C3484 0.950 . S
H3459 C3486 0.950 . S
H3460 C3489 0.950 . S
H3461 C3490 0.950 . S
H3462 C3492 0.950 . S
H3463 C3493 0.950 . S
C3464 H3446 0.951 . S
C3464 C3465 1.366 . S
C3464 C3466 1.388 . S
C3465 C3464 1.366 . S
C3465 C3469 1.385 . S
C3466 H3447 0.951 . S
C3466 C3464 1.388 . S
C3466 C3467 1.366 . S
C3467 C3466 1.366 . S
C3467 C3468 1.414 . S
C3467 C3470 1.499 . S
C3468 H3448 0.950 . S
C3468 C3467 1.414 . S
C3468 C3469 1.374 . S
C3469 H3449 0.950 . S
C3469 C3465 1.385 . S
C3469 C3468 1.374 . S
C3470 C3467 1.499 . S
C3470 C3471 1.373 . S
C3470 C3472 1.389 . S
C3471 H3450 0.950 . S
C3471 C3470 1.373 . S
C3471 C3487 1.377 . S
C3472 C3470 1.389 . S
C3472 C3473 1.524 . S
C3472 C3486 1.377 . S
C3473 C3472 1.524 . S
C3473 C3474 1.397 . S
C3473 C3478 1.363 . S
C3474 H3451 0.950 . S
C3474 C3473 1.397 . S
C3474 C3475 1.334 . S
C3475 H3452 0.950 . S
C3475 C3474 1.334 . S
C3475 C3476 1.287 . S
C3476 C3475 1.287 . S
C3476 C3477 1.524 . S
C3476 H3495 0.913 . S
C3477 H3453 0.950 . S
C3477 C3476 1.524 . S
C3477 C3478 1.415 . S
C3478 H3454 0.950 . S
C3478 C3473 1.363 . S
C3478 C3477 1.415 . S
C3479 H3455 0.951 . S
C3479 C3480 1.366 . S
C3479 C3481 1.388 . S
C3480 C3479 1.366 . S
C3480 C3484 1.385 . S
C3481 H3456 0.951 . S
C3481 C3479 1.388 . S
C3481 C3482 1.366 . S
C3482 C3481 1.366 . S
C3482 C3483 1.414 . S
C3482 C3485 1.499 . S
C3483 H3457 0.950 . S
C3483 C3482 1.414 . S
C3483 C3484 1.374 . S
C3484 H3458 0.950 . S
C3484 C3480 1.385 . S
C3484 C3483 1.374 . S
C3485 C3482 1.499 . S
C3485 C3486 1.373 . S
C3485 C3487 1.389 . S
C3486 H3459 0.950 . S
C3486 C3472 1.377 . S
C3486 C3485 1.373 . S
C3487 C3471 1.377 . S
C3487 C3485 1.389 . S
C3487 C3488 1.524 . S
C3488 C3487 1.524 . S
C3488 C3489 1.397 . S
C3488 C3493 1.363 . S
C3489 H3460 0.950 . S
C3489 C3488 1.397 . S
C3489 C3490 1.334 . S
C3490 H3461 0.950 . S
C3490 C3489 1.334 . S
C3490 C3491 1.287 . S
C3491 C3490 1.287 . S
C3491 C3492 1.524 . S
C3491 H3494 0.999 . S
C3492 H3462 0.950 . S
C3492 C3491 1.524 . S
C3492 C3493 1.415 . S
C3493 H3463 0.950 . S
C3493 C3488 1.363 . S
C3493 C3492 1.415 . S
H3494 C3491 0.999 . S
H3495 C3476 0.913 . S
H3496 C3514 0.951 . S
H3497 C3516 0.951 . S
H3498 C3518 0.950 . S
H3499 C3519 0.950 . S
H3500 C3521 0.950 . S
H3501 C3524 0.950 . S
H3502 C3525 0.950 . S
H3503 C3527 0.950 . S
H3504 C3528 0.950 . S
H3505 C3529 0.951 . S
H3506 C3531 0.951 . S
H3507 C3533 0.950 . S
H3508 C3534 0.950 . S
H3509 C3536 0.950 . S
H3510 C3539 0.950 . S
H3511 C3540 0.950 . S
H3512 C3542 0.950 . S
H3513 C3543 0.950 . S
C3514 H3496 0.951 . S
C3514 C3515 1.366 . S
C3514 C3516 1.388 . S
C3515 C3514 1.366 . S
C3515 C3519 1.385 . S
C3516 H3497 0.951 . S
C3516 C3514 1.388 . S
C3516 C3517 1.366 . S
C3517 C3516 1.366 . S
C3517 C3518 1.414 . S
C3517 C3520 1.499 . S
C3518 H3498 0.950 . S
C3518 C3517 1.414 . S
C3518 C3519 1.374 . S
C3519 H3499 0.950 . S
C3519 C3515 1.385 . S
C3519 C3518 1.374 . S
C3520 C3517 1.499 . S
C3520 C3521 1.373 . S
C3520 C3522 1.389 . S
C3521 H3500 0.950 . S
C3521 C3520 1.373 . S
C3521 C3537 1.377 . S
C3522 C3520 1.389 . S
C3522 C3523 1.524 . S
C3522 C3536 1.377 . S
C3523 C3522 1.524 . S
C3523 C3524 1.397 . S
C3523 C3528 1.363 . S
C3524 H3501 0.950 . S
C3524 C3523 1.397 . S
C3524 C3525 1.334 . S
C3525 H3502 0.950 . S
C3525 C3524 1.334 . S
C3525 C3526 1.287 . S
C3526 C3525 1.287 . S
C3526 C3527 1.524 . S
C3526 H3545 0.913 . S
C3527 H3503 0.950 . S
C3527 C3526 1.524 . S
C3527 C3528 1.415 . S
C3528 H3504 0.950 . S
C3528 C3523 1.363 . S
C3528 C3527 1.415 . S
C3529 H3505 0.951 . S
C3529 C3530 1.366 . S
C3529 C3531 1.388 . S
C3530 C3529 1.366 . S
C3530 C3534 1.385 . S
C3531 H3506 0.951 . S
C3531 C3529 1.388 . S
C3531 C3532 1.366 . S
C3532 C3531 1.366 . S
C3532 C3533 1.414 . S
C3532 C3535 1.499 . S
C3533 H3507 0.950 . S
C3533 C3532 1.414 . S
C3533 C3534 1.374 . S
C3534 H3508 0.950 . S
C3534 C3530 1.385 . S
C3534 C3533 1.374 . S
C3535 C3532 1.499 . S
C3535 C3536 1.373 . S
C3535 C3537 1.389 . S
C3536 H3509 0.950 . S
C3536 C3522 1.377 . S
C3536 C3535 1.373 . S
C3537 C3521 1.377 . S
C3537 C3535 1.389 . S
C3537 C3538 1.524 . S
C3538 C3537 1.524 . S
C3538 C3539 1.397 . S
C3538 C3543 1.363 . S
C3539 H3510 0.950 . S
C3539 C3538 1.397 . S
C3539 C3540 1.334 . S
C3540 H3511 0.950 . S
C3540 C3539 1.334 . S
C3540 C3541 1.287 . S
C3541 C3540 1.287 . S
C3541 C3542 1.524 . S
C3541 H3544 0.999 . S
C3542 H3512 0.950 . S
C3542 C3541 1.524 . S
C3542 C3543 1.415 . S
C3543 H3513 0.950 . S
C3543 C3538 1.363 . S
C3543 C3542 1.415 . S
H3544 C3541 0.999 . S
H3545 C3526 0.913 . S
H3546 C3564 0.951 . S
H3547 C3566 0.951 . S
H3548 C3568 0.950 . S
H3549 C3569 0.950 . S
H3550 C3571 0.950 . S
H3551 C3574 0.950 . S
H3552 C3575 0.950 . S
H3553 C3577 0.950 . S
H3554 C3578 0.950 . S
H3555 C3579 0.951 . S
H3556 C3581 0.951 . S
H3557 C3583 0.950 . S
H3558 C3584 0.950 . S
H3559 C3586 0.950 . S
H3560 C3589 0.950 . S
H3561 C3590 0.950 . S
H3562 C3592 0.950 . S
H3563 C3593 0.950 . S
C3564 H3546 0.951 . S
C3564 C3565 1.366 . S
C3564 C3566 1.388 . S
C3565 C3564 1.366 . S
C3565 C3569 1.385 . S
C3566 H3547 0.951 . S
C3566 C3564 1.388 . S
C3566 C3567 1.366 . S
C3567 C3566 1.366 . S
C3567 C3568 1.414 . S
C3567 C3570 1.499 . S
C3568 H3548 0.950 . S
C3568 C3567 1.414 . S
C3568 C3569 1.374 . S
C3569 H3549 0.950 . S
C3569 C3565 1.385 . S
C3569 C3568 1.374 . S
C3570 C3567 1.499 . S
C3570 C3571 1.373 . S
C3570 C3572 1.389 . S
C3571 H3550 0.950 . S
C3571 C3570 1.373 . S
C3571 C3587 1.377 1_556 S
C3572 C3570 1.389 . S
C3572 C3573 1.524 . S
C3572 C3586 1.377 1_556 S
C3573 C3572 1.524 . S
C3573 C3574 1.397 . S
C3573 C3578 1.363 . S
C3574 H3551 0.950 . S
C3574 C3573 1.397 . S
C3574 C3575 1.334 . S
C3575 H3552 0.950 . S
C3575 C3574 1.334 . S
C3575 C3576 1.287 . S
C3576 C3575 1.287 . S
C3576 C3577 1.524 . S
C3576 H3595 0.913 . S
C3577 H3553 0.950 . S
C3577 C3576 1.524 . S
C3577 C3578 1.415 . S
C3578 H3554 0.950 . S
C3578 C3573 1.363 . S
C3578 C3577 1.415 . S
C3579 H3555 0.951 . S
C3579 C3580 1.366 . S
C3579 C3581 1.388 . S
C3580 C3579 1.366 . S
C3580 C3584 1.385 . S
C3581 H3556 0.951 . S
C3581 C3579 1.388 . S
C3581 C3582 1.366 . S
C3582 C3581 1.366 . S
C3582 C3583 1.414 . S
C3582 C3585 1.499 . S
C3583 H3557 0.950 . S
C3583 C3582 1.414 . S
C3583 C3584 1.374 . S
C3584 H3558 0.950 . S
C3584 C3580 1.385 . S
C3584 C3583 1.374 . S
C3585 C3582 1.499 . S
C3585 C3586 1.373 . S
C3585 C3587 1.389 . S
C3586 H3559 0.950 . S
C3586 C3572 1.377 1_554 S
C3586 C3585 1.373 . S
C3587 C3571 1.377 1_554 S
C3587 C3585 1.389 . S
C3587 C3588 1.524 . S
C3588 C3587 1.524 . S
C3588 C3589 1.397 . S
C3588 C3593 1.363 . S
C3589 H3560 0.950 . S
C3589 C3588 1.397 . S
C3589 C3590 1.334 . S
C3590 H3561 0.950 . S
C3590 C3589 1.334 . S
C3590 C3591 1.287 . S
C3591 C3590 1.287 . S
C3591 C3592 1.524 . S
C3591 H3594 0.999 . S
C3592 H3562 0.950 . S
C3592 C3591 1.524 . S
C3592 C3593 1.415 . S
C3593 H3563 0.950 . S
C3593 C3588 1.363 . S
C3593 C3592 1.415 . S
H3594 C3591 0.999 . S
H3595 C3576 0.913 . S
H3596 C3614 0.951 . S
H3597 C3616 0.951 . S
H3598 C3618 0.950 . S
H3599 C3619 0.950 . S
H3600 C3621 0.950 . S
H3601 C3624 0.950 . S
H3602 C3625 0.950 . S
H3603 C3627 0.950 . S
H3604 C3628 0.950 . S
H3605 C3629 0.951 . S
H3606 C3631 0.951 . S
H3607 C3633 0.950 . S
H3608 C3634 0.950 . S
H3609 C3636 0.950 . S
H3610 C3639 0.950 . S
H3611 C3640 0.950 . S
H3612 C3642 0.950 . S
H3613 C3643 0.950 . S
C3614 H3596 0.951 . S
C3614 C3615 1.366 . S
C3614 C3616 1.388 . S
C3615 C3614 1.366 . S
C3615 C3619 1.385 . S
C3616 H3597 0.951 . S
C3616 C3614 1.388 . S
C3616 C3617 1.366 . S
C3617 C3616 1.366 . S
C3617 C3618 1.414 . S
C3617 C3620 1.499 . S
C3618 H3598 0.950 . S
C3618 C3617 1.414 . S
C3618 C3619 1.374 . S
C3619 H3599 0.950 . S
C3619 C3615 1.385 . S
C3619 C3618 1.374 . S
C3620 C3617 1.499 . S
C3620 C3621 1.373 . S
C3620 C3622 1.389 . S
C3621 H3600 0.950 . S
C3621 C3620 1.373 . S
C3621 C3637 1.377 . S
C3622 C3620 1.389 . S
C3622 C3623 1.524 . S
C3622 C3636 1.377 . S
C3623 C3622 1.524 . S
C3623 C3624 1.397 . S
C3623 C3628 1.363 . S
C3624 H3601 0.950 . S
C3624 C3623 1.397 . S
C3624 C3625 1.334 . S
C3625 H3602 0.950 . S
C3625 C3624 1.334 . S
C3625 C3626 1.287 . S
C3626 C3625 1.287 . S
C3626 C3627 1.524 . S
C3626 H3645 0.913 . S
C3627 H3603 0.950 . S
C3627 C3626 1.524 . S
C3627 C3628 1.415 . S
C3628 H3604 0.950 . S
C3628 C3623 1.363 . S
C3628 C3627 1.415 . S
C3629 H3605 0.951 . S
C3629 C3630 1.366 . S
C3629 C3631 1.388 . S
C3630 C3629 1.366 . S
C3630 C3634 1.385 . S
C3631 H3606 0.951 . S
C3631 C3629 1.388 . S
C3631 C3632 1.366 . S
C3632 C3631 1.366 . S
C3632 C3633 1.414 . S
C3632 C3635 1.499 . S
C3633 H3607 0.950 . S
C3633 C3632 1.414 . S
C3633 C3634 1.374 . S
C3634 H3608 0.950 . S
C3634 C3630 1.385 . S
C3634 C3633 1.374 . S
C3635 C3632 1.499 . S
C3635 C3636 1.373 . S
C3635 C3637 1.389 . S
C3636 H3609 0.950 . S
C3636 C3622 1.377 . S
C3636 C3635 1.373 . S
C3637 C3621 1.377 . S
C3637 C3635 1.389 . S
C3637 C3638 1.524 . S
C3638 C3637 1.524 . S
C3638 C3639 1.397 . S
C3638 C3643 1.363 . S
C3639 H3610 0.950 . S
C3639 C3638 1.397 . S
C3639 C3640 1.334 . S
C3640 H3611 0.950 . S
C3640 C3639 1.334 . S
C3640 C3641 1.287 . S
C3641 C3640 1.287 . S
C3641 C3642 1.524 . S
C3641 H3644 0.999 . S
C3642 H3612 0.950 . S
C3642 C3641 1.524 . S
C3642 C3643 1.415 . S
C3643 H3613 0.950 . S
C3643 C3638 1.363 . S
C3643 C3642 1.415 . S
H3644 C3641 0.999 . S
H3645 C3626 0.913 . S
H3646 C3664 0.951 . S
H3647 C3666 0.951 . S
H3648 C3668 0.950 . S
H3649 C3669 0.950 . S
H3650 C3671 0.950 . S
H3651 C3674 0.950 . S
H3652 C3675 0.950 . S
H3653 C3677 0.950 . S
H3654 C3678 0.950 . S
H3655 C3679 0.951 . S
H3656 C3681 0.951 . S
H3657 C3683 0.950 . S
H3658 C3684 0.950 . S
H3659 C3686 0.950 . S
H3660 C3689 0.950 . S
H3661 C3690 0.950 . S
H3662 C3692 0.950 . S
H3663 C3693 0.950 . S
C3664 H3646 0.951 . S
C3664 C3665 1.366 . S
C3664 C3666 1.388 . S
C3665 C3664 1.366 . S
C3665 C3669 1.385 . S
C3666 H3647 0.951 . S
C3666 C3664 1.388 . S
C3666 C3667 1.366 . S
C3667 C3666 1.366 . S
C3667 C3668 1.414 . S
C3667 C3670 1.499 . S
C3668 H3648 0.950 . S
C3668 C3667 1.414 . S
C3668 C3669 1.374 . S
C3669 H3649 0.950 . S
C3669 C3665 1.385 . S
C3669 C3668 1.374 . S
C3670 C3667 1.499 . S
C3670 C3671 1.373 . S
C3670 C3672 1.389 . S
C3671 H3650 0.950 . S
C3671 C3670 1.373 . S
C3671 C3687 1.377 1_556 S
C3672 C3670 1.389 . S
C3672 C3673 1.524 . S
C3672 C3686 1.377 1_556 S
C3673 C3672 1.524 . S
C3673 C3674 1.397 . S
C3673 C3678 1.363 . S
C3674 H3651 0.950 . S
C3674 C3673 1.397 . S
C3674 C3675 1.334 . S
C3675 H3652 0.950 . S
C3675 C3674 1.334 . S
C3675 C3676 1.287 . S
C3676 C3675 1.287 . S
C3676 C3677 1.524 . S
C3676 H3695 0.913 . S
C3677 H3653 0.950 . S
C3677 C3676 1.524 . S
C3677 C3678 1.415 . S
C3678 H3654 0.950 . S
C3678 C3673 1.363 . S
C3678 C3677 1.415 . S
C3679 H3655 0.951 . S
C3679 C3680 1.366 . S
C3679 C3681 1.388 . S
C3680 C3679 1.366 . S
C3680 C3684 1.385 . S
C3681 H3656 0.951 . S
C3681 C3679 1.388 . S
C3681 C3682 1.366 . S
C3682 C3681 1.366 . S
C3682 C3683 1.414 . S
C3682 C3685 1.499 . S
C3683 H3657 0.950 . S
C3683 C3682 1.414 . S
C3683 C3684 1.374 . S
C3684 H3658 0.950 . S
C3684 C3680 1.385 . S
C3684 C3683 1.374 . S
C3685 C3682 1.499 . S
C3685 C3686 1.373 . S
C3685 C3687 1.389 . S
C3686 H3659 0.950 . S
C3686 C3672 1.377 1_554 S
C3686 C3685 1.373 . S
C3687 C3671 1.377 1_554 S
C3687 C3685 1.389 . S
C3687 C3688 1.524 . S
C3688 C3687 1.524 . S
C3688 C3689 1.397 . S
C3688 C3693 1.363 . S
C3689 H3660 0.950 . S
C3689 C3688 1.397 . S
C3689 C3690 1.334 . S
C3690 H3661 0.950 . S
C3690 C3689 1.334 . S
C3690 C3691 1.287 . S
C3691 C3690 1.287 . S
C3691 C3692 1.524 . S
C3691 H3694 0.999 . S
C3692 H3662 0.950 . S
C3692 C3691 1.524 . S
C3692 C3693 1.415 . S
C3693 H3663 0.950 . S
C3693 C3688 1.363 . S
C3693 C3692 1.415 . S
H3694 C3691 0.999 . S
H3695 C3676 0.913 . S
H3696 C3714 0.951 . S
H3697 C3716 0.951 . S
H3698 C3718 0.950 . S
H3699 C3719 0.950 . S
H3700 C3721 0.950 . S
H3701 C3724 0.950 . S
H3702 C3725 0.950 . S
H3703 C3727 0.950 . S
H3704 C3728 0.950 . S
H3705 C3729 0.951 . S
H3706 C3731 0.951 . S
H3707 C3733 0.950 . S
H3708 C3734 0.950 . S
H3709 C3736 0.950 . S
H3710 C3739 0.950 . S
H3711 C3740 0.950 . S
H3712 C3742 0.950 . S
H3713 C3743 0.950 . S
C3714 H3696 0.951 . S
C3714 C3715 1.366 . S
C3714 C3716 1.388 . S
C3715 C3714 1.366 . S
C3715 C3719 1.385 . S
C3716 H3697 0.951 . S
C3716 C3714 1.388 . S
C3716 C3717 1.366 . S
C3717 C3716 1.366 . S
C3717 C3718 1.414 . S
C3717 C3720 1.499 . S
C3718 H3698 0.950 . S
C3718 C3717 1.414 . S
C3718 C3719 1.374 . S
C3719 H3699 0.950 . S
C3719 C3715 1.385 . S
C3719 C3718 1.374 . S
C3720 C3717 1.499 . S
C3720 C3721 1.373 . S
C3720 C3722 1.389 . S
C3721 H3700 0.950 . S
C3721 C3720 1.373 . S
C3721 C3737 1.377 . S
C3722 C3720 1.389 . S
C3722 C3723 1.524 . S
C3722 C3736 1.377 . S
C3723 C3722 1.524 . S
C3723 C3724 1.397 . S
C3723 C3728 1.363 . S
C3724 H3701 0.950 . S
C3724 C3723 1.397 . S
C3724 C3725 1.334 . S
C3725 H3702 0.950 . S
C3725 C3724 1.334 . S
C3725 C3726 1.287 . S
C3726 C3725 1.287 . S
C3726 C3727 1.524 . S
C3726 H3745 0.913 . S
C3727 H3703 0.950 . S
C3727 C3726 1.524 . S
C3727 C3728 1.415 . S
C3728 H3704 0.950 . S
C3728 C3723 1.363 . S
C3728 C3727 1.415 . S
C3729 H3705 0.951 . S
C3729 C3730 1.366 . S
C3729 C3731 1.388 . S
C3730 C3729 1.366 . S
C3730 C3734 1.385 . S
C3731 H3706 0.951 . S
C3731 C3729 1.388 . S
C3731 C3732 1.366 . S
C3732 C3731 1.366 . S
C3732 C3733 1.414 . S
C3732 C3735 1.499 . S
C3733 H3707 0.950 . S
C3733 C3732 1.414 . S
C3733 C3734 1.374 . S
C3734 H3708 0.950 . S
C3734 C3730 1.385 . S
C3734 C3733 1.374 . S
C3735 C3732 1.499 . S
C3735 C3736 1.373 . S
C3735 C3737 1.389 . S
C3736 H3709 0.950 . S
C3736 C3722 1.377 . S
C3736 C3735 1.373 . S
C3737 C3721 1.377 . S
C3737 C3735 1.389 . S
C3737 C3738 1.524 . S
C3738 C3737 1.524 . S
C3738 C3739 1.397 . S
C3738 C3743 1.363 . S
C3739 H3710 0.950 . S
C3739 C3738 1.397 . S
C3739 C3740 1.334 . S
C3740 H3711 0.950 . S
C3740 C3739 1.334 . S
C3740 C3741 1.287 . S
C3741 C3740 1.287 . S
C3741 C3742 1.524 . S
C3741 H3744 0.999 . S
C3742 H3712 0.950 . S
C3742 C3741 1.524 . S
C3742 C3743 1.415 . S
C3743 H3713 0.950 . S
C3743 C3738 1.363 . S
C3743 C3742 1.415 . S
H3744 C3741 0.999 . S
H3745 C3726 0.913 . S
H3746 C3764 0.951 . S
H3747 C3766 0.951 . S
H3748 C3768 0.950 . S
H3749 C3769 0.950 . S
H3750 C3771 0.950 . S
H3751 C3774 0.950 . S
H3752 C3775 0.950 . S
H3753 C3777 0.950 . S
H3754 C3778 0.950 . S
H3755 C3779 0.951 . S
H3756 C3781 0.951 . S
H3757 C3783 0.950 . S
H3758 C3784 0.950 . S
H3759 C3786 0.950 . S
H3760 C3789 0.950 . S
H3761 C3790 0.950 . S
H3762 C3792 0.950 . S
H3763 C3793 0.950 . S
C3764 H3746 0.951 . S
C3764 C3765 1.366 . S
C3764 C3766 1.388 . S
C3765 C3764 1.366 . S
C3765 C3769 1.385 . S
C3766 H3747 0.951 . S
C3766 C3764 1.388 . S
C3766 C3767 1.366 . S
C3767 C3766 1.366 . S
C3767 C3768 1.414 . S
C3767 C3770 1.499 . S
C3768 H3748 0.950 . S
C3768 C3767 1.414 . S
C3768 C3769 1.374 . S
C3769 H3749 0.950 . S
C3769 C3765 1.385 . S
C3769 C3768 1.374 . S
C3770 C3767 1.499 . S
C3770 C3771 1.373 . S
C3770 C3772 1.389 . S
C3771 H3750 0.950 . S
C3771 C3770 1.373 . S
C3771 C3787 1.377 . S
C3772 C3770 1.389 . S
C3772 C3773 1.524 . S
C3772 C3786 1.377 . S
C3773 C3772 1.524 . S
C3773 C3774 1.397 . S
C3773 C3778 1.363 . S
C3774 H3751 0.950 . S
C3774 C3773 1.397 . S
C3774 C3775 1.334 . S
C3775 H3752 0.950 . S
C3775 C3774 1.334 . S
C3775 C3776 1.287 . S
C3776 C3775 1.287 . S
C3776 C3777 1.524 . S
C3776 H3795 0.913 . S
C3777 H3753 0.950 . S
C3777 C3776 1.524 . S
C3777 C3778 1.415 . S
C3778 H3754 0.950 . S
C3778 C3773 1.363 . S
C3778 C3777 1.415 . S
C3779 H3755 0.951 . S
C3779 C3780 1.366 . S
C3779 C3781 1.388 . S
C3780 C3779 1.366 . S
C3780 C3784 1.385 . S
C3781 H3756 0.951 . S
C3781 C3779 1.388 . S
C3781 C3782 1.366 . S
C3782 C3781 1.366 . S
C3782 C3783 1.414 . S
C3782 C3785 1.499 . S
C3783 H3757 0.950 . S
C3783 C3782 1.414 . S
C3783 C3784 1.374 . S
C3784 H3758 0.950 . S
C3784 C3780 1.385 . S
C3784 C3783 1.374 . S
C3785 C3782 1.499 . S
C3785 C3786 1.373 . S
C3785 C3787 1.389 . S
C3786 H3759 0.950 . S
C3786 C3772 1.377 . S
C3786 C3785 1.373 . S
C3787 C3771 1.377 . S
C3787 C3785 1.389 . S
C3787 C3788 1.524 . S
C3788 C3787 1.524 . S
C3788 C3789 1.397 . S
C3788 C3793 1.363 . S
C3789 H3760 0.950 . S
C3789 C3788 1.397 . S
C3789 C3790 1.334 . S
C3790 H3761 0.950 . S
C3790 C3789 1.334 . S
C3790 C3791 1.287 . S
C3791 C3790 1.287 . S
C3791 C3792 1.524 . S
C3791 H3794 0.999 . S
C3792 H3762 0.950 . S
C3792 C3791 1.524 . S
C3792 C3793 1.415 . S
C3793 H3763 0.950 . S
C3793 C3788 1.363 . S
C3793 C3792 1.415 . S
H3794 C3791 0.999 . S
H3795 C3776 0.913 . S
H3796 C3814 0.951 . S
H3797 C3816 0.951 . S
H3798 C3818 0.950 . S
H3799 C3819 0.950 . S
H3800 C3821 0.950 . S
H3801 C3824 0.950 . S
H3802 C3825 0.950 . S
H3803 C3827 0.950 . S
H3804 C3828 0.950 . S
H3805 C3829 0.951 . S
H3806 C3831 0.951 . S
H3807 C3833 0.950 . S
H3808 C3834 0.950 . S
H3809 C3836 0.950 . S
H3810 C3839 0.950 . S
H3811 C3840 0.950 . S
H3812 C3842 0.950 . S
H3813 C3843 0.950 . S
C3814 H3796 0.951 . S
C3814 C3815 1.366 . S
C3814 C3816 1.388 . S
C3815 C3814 1.366 . S
C3815 C3819 1.385 . S
C3816 H3797 0.951 . S
C3816 C3814 1.388 . S
C3816 C3817 1.366 . S
C3817 C3816 1.366 . S
C3817 C3818 1.414 . S
C3817 C3820 1.499 . S
C3818 H3798 0.950 . S
C3818 C3817 1.414 . S
C3818 C3819 1.374 . S
C3819 H3799 0.950 . S
C3819 C3815 1.385 . S
C3819 C3818 1.374 . S
C3820 C3817 1.499 . S
C3820 C3821 1.373 . S
C3820 C3822 1.389 . S
C3821 H3800 0.950 . S
C3821 C3820 1.373 . S
C3821 C3837 1.377 . S
C3822 C3820 1.389 . S
C3822 C3823 1.524 . S
C3822 C3836 1.377 . S
C3823 C3822 1.524 . S
C3823 C3824 1.397 . S
C3823 C3828 1.363 . S
C3824 H3801 0.950 . S
C3824 C3823 1.397 . S
C3824 C3825 1.334 . S
C3825 H3802 0.950 . S
C3825 C3824 1.334 . S
C3825 C3826 1.287 . S
C3826 C3825 1.287 . S
C3826 C3827 1.524 . S
C3826 H3845 0.913 . S
C3827 H3803 0.950 . S
C3827 C3826 1.524 . S
C3827 C3828 1.415 . S
C3828 H3804 0.950 . S
C3828 C3823 1.363 . S
C3828 C3827 1.415 . S
C3829 H3805 0.951 . S
C3829 C3830 1.366 . S
C3829 C3831 1.388 . S
C3830 C3829 1.366 . S
C3830 C3834 1.385 . S
C3831 H3806 0.951 . S
C3831 C3829 1.388 . S
C3831 C3832 1.366 . S
C3832 C3831 1.366 . S
C3832 C3833 1.414 . S
C3832 C3835 1.499 . S
C3833 H3807 0.950 . S
C3833 C3832 1.414 . S
C3833 C3834 1.374 . S
C3834 H3808 0.950 . S
C3834 C3830 1.385 . S
C3834 C3833 1.374 . S
C3835 C3832 1.499 . S
C3835 C3836 1.373 . S
C3835 C3837 1.389 . S
C3836 H3809 0.950 . S
C3836 C3822 1.377 . S
C3836 C3835 1.373 . S
C3837 C3821 1.377 . S
C3837 C3835 1.389 . S
C3837 C3838 1.524 . S
C3838 C3837 1.524 . S
C3838 C3839 1.397 . S
C3838 C3843 1.363 . S
C3839 H3810 0.950 . S
C3839 C3838 1.397 . S
C3839 C3840 1.334 . S
C3840 H3811 0.950 . S
C3840 C3839 1.334 . S
C3840 C3841 1.287 . S
C3841 C3840 1.287 . S
C3841 C3842 1.524 . S
C3841 H3844 0.999 . S
C3842 H3812 0.950 . S
C3842 C3841 1.524 . S
C3842 C3843 1.415 . S
C3843 H3813 0.950 . S
C3843 C3838 1.363 . S
C3843 C3842 1.415 . S
H3844 C3841 0.999 . S
H3845 C3826 0.913 . S
H3846 C3864 0.951 . S
H3847 C3866 0.951 . S
H3848 C3868 0.950 . S
H3849 C3869 0.950 . S
H3850 C3871 0.950 . S
H3851 C3874 0.950 . S
H3852 C3875 0.950 . S
H3853 C3877 0.950 . S
H3854 C3878 0.950 . S
H3855 C3879 0.951 . S
H3856 C3881 0.951 . S
H3857 C3883 0.950 . S
H3858 C3884 0.950 . S
H3859 C3886 0.950 . S
H3860 C3889 0.950 . S
H3861 C3890 0.950 . S
H3862 C3892 0.950 . S
H3863 C3893 0.950 . S
C3864 H3846 0.951 . S
C3864 C3865 1.366 . S
C3864 C3866 1.388 . S
C3865 C3864 1.366 . S
C3865 C3869 1.385 . S
C3866 H3847 0.951 . S
C3866 C3864 1.388 . S
C3866 C3867 1.366 . S
C3867 C3866 1.366 . S
C3867 C3868 1.414 . S
C3867 C3870 1.499 . S
C3868 H3848 0.950 . S
C3868 C3867 1.414 . S
C3868 C3869 1.374 . S
C3869 H3849 0.950 . S
C3869 C3865 1.385 . S
C3869 C3868 1.374 . S
C3870 C3867 1.499 . S
C3870 C3871 1.373 . S
C3870 C3872 1.389 . S
C3871 H3850 0.950 . S
C3871 C3870 1.373 . S
C3871 C3887 1.377 . S
C3872 C3870 1.389 . S
C3872 C3873 1.524 . S
C3872 C3886 1.377 . S
C3873 C3872 1.524 . S
C3873 C3874 1.397 . S
C3873 C3878 1.363 . S
C3874 H3851 0.950 . S
C3874 C3873 1.397 . S
C3874 C3875 1.334 . S
C3875 H3852 0.950 . S
C3875 C3874 1.334 . S
C3875 C3876 1.287 . S
C3876 C3875 1.287 . S
C3876 C3877 1.524 . S
C3876 H3895 0.913 . S
C3877 H3853 0.950 . S
C3877 C3876 1.524 . S
C3877 C3878 1.415 . S
C3878 H3854 0.950 . S
C3878 C3873 1.363 . S
C3878 C3877 1.415 . S
C3879 H3855 0.951 . S
C3879 C3880 1.366 . S
C3879 C3881 1.388 . S
C3880 C3879 1.366 . S
C3880 C3884 1.385 . S
C3881 H3856 0.951 . S
C3881 C3879 1.388 . S
C3881 C3882 1.366 . S
C3882 C3881 1.366 . S
C3882 C3883 1.414 . S
C3882 C3885 1.499 . S
C3883 H3857 0.950 . S
C3883 C3882 1.414 . S
C3883 C3884 1.374 . S
C3884 H3858 0.950 . S
C3884 C3880 1.385 . S
C3884 C3883 1.374 . S
C3885 C3882 1.499 . S
C3885 C3886 1.373 . S
C3885 C3887 1.389 . S
C3886 H3859 0.950 . S
C3886 C3872 1.377 . S
C3886 C3885 1.373 . S
C3887 C3871 1.377 . S
C3887 C3885 1.389 . S
C3887 C3888 1.524 . S
C3888 C3887 1.524 . S
C3888 C3889 1.397 . S
C3888 C3893 1.363 . S
C3889 H3860 0.950 . S
C3889 C3888 1.397 . S
C3889 C3890 1.334 . S
C3890 H3861 0.950 . S
C3890 C3889 1.334 . S
C3890 C3891 1.287 . S
C3891 C3890 1.287 . S
C3891 C3892 1.524 . S
C3891 H3894 0.999 . S
C3892 H3862 0.950 . S
C3892 C3891 1.524 . S
C3892 C3893 1.415 . S
C3893 H3863 0.950 . S
C3893 C3888 1.363 . S
C3893 C3892 1.415 . S
H3894 C3891 0.999 . S
H3895 C3876 0.913 . S
H3896 C3914 0.951 . S
H3897 C3916 0.951 . S
H3898 C3918 0.950 . S
H3899 C3919 0.950 . S
H3900 C3921 0.950 . S
H3901 C3924 0.950 . S
H3902 C3925 0.950 . S
H3903 C3927 0.950 . S
H3904 C3928 0.950 . S
H3905 C3929 0.951 . S
H3906 C3931 0.951 . S
H3907 C3933 0.950 . S
H3908 C3934 0.950 . S
H3909 C3936 0.950 . S
H3910 C3939 0.950 . S
H3911 C3940 0.950 . S
H3912 C3942 0.950 . S
H3913 C3943 0.950 . S
C3914 H3896 0.951 . S
C3914 C3915 1.366 . S
C3914 C3916 1.388 . S
C3915 C3914 1.366 . S
C3915 C3919 1.385 . S
C3916 H3897 0.951 . S
C3916 C3914 1.388 . S
C3916 C3917 1.366 . S
C3917 C3916 1.366 . S
C3917 C3918 1.414 . S
C3917 C3920 1.499 . S
C3918 H3898 0.950 . S
C3918 C3917 1.414 . S
C3918 C3919 1.374 . S
C3919 H3899 0.950 . S
C3919 C3915 1.385 . S
C3919 C3918 1.374 . S
C3920 C3917 1.499 . S
C3920 C3921 1.373 . S
C3920 C3922 1.389 . S
C3921 H3900 0.950 . S
C3921 C3920 1.373 . S
C3921 C3937 1.377 . S
C3922 C3920 1.389 . S
C3922 C3923 1.524 . S
C3922 C3936 1.377 . S
C3923 C3922 1.524 . S
C3923 C3924 1.397 . S
C3923 C3928 1.363 . S
C3924 H3901 0.950 . S
C3924 C3923 1.397 . S
C3924 C3925 1.334 . S
C3925 H3902 0.950 . S
C3925 C3924 1.334 . S
C3925 C3926 1.287 . S
C3926 C3925 1.287 . S
C3926 C3927 1.524 . S
C3926 H3945 0.913 . S
C3927 H3903 0.950 . S
C3927 C3926 1.524 . S
C3927 C3928 1.415 . S
C3928 H3904 0.950 . S
C3928 C3923 1.363 . S
C3928 C3927 1.415 . S
C3929 H3905 0.951 . S
C3929 C3930 1.366 . S
C3929 C3931 1.388 . S
C3930 C3929 1.366 . S
C3930 C3934 1.385 . S
C3931 H3906 0.951 . S
C3931 C3929 1.388 . S
C3931 C3932 1.366 . S
C3932 C3931 1.366 . S
C3932 C3933 1.414 . S
C3932 C3935 1.499 . S
C3933 H3907 0.950 . S
C3933 C3932 1.414 . S
C3933 C3934 1.374 . S
C3934 H3908 0.950 . S
C3934 C3930 1.385 . S
C3934 C3933 1.374 . S
C3935 C3932 1.499 . S
C3935 C3936 1.373 . S
C3935 C3937 1.389 . S
C3936 H3909 0.950 . S
C3936 C3922 1.377 . S
C3936 C3935 1.373 . S
C3937 C3921 1.377 . S
C3937 C3935 1.389 . S
C3937 C3938 1.524 . S
C3938 C3937 1.524 . S
C3938 C3939 1.397 . S
C3938 C3943 1.363 . S
C3939 H3910 0.950 . S
C3939 C3938 1.397 . S
C3939 C3940 1.334 . S
C3940 H3911 0.950 . S
C3940 C3939 1.334 . S
C3940 C3941 1.287 . S
C3941 C3940 1.287 . S
C3941 C3942 1.524 . S
C3941 H3944 0.999 . S
C3942 H3912 0.950 . S
C3942 C3941 1.524 . S
C3942 C3943 1.415 . S
C3943 H3913 0.950 . S
C3943 C3938 1.363 . S
C3943 C3942 1.415 . S
H3944 C3941 0.999 . S
H3945 C3926 0.913 . S
H3946 C3964 0.951 . S
H3947 C3966 0.951 . S
H3948 C3968 0.950 . S
H3949 C3969 0.950 . S
H3950 C3971 0.950 . S
H3951 C3974 0.950 . S
H3952 C3975 0.950 . S
H3953 C3977 0.950 . S
H3954 C3978 0.950 . S
H3955 C3979 0.951 . S
H3956 C3981 0.951 . S
H3957 C3983 0.950 . S
H3958 C3984 0.950 . S
H3959 C3986 0.950 . S
H3960 C3989 0.950 . S
H3961 C3990 0.950 . S
H3962 C3992 0.950 . S
H3963 C3993 0.950 . S
C3964 H3946 0.951 . S
C3964 C3965 1.366 . S
C3964 C3966 1.388 . S
C3965 C3964 1.366 . S
C3965 C3969 1.385 . S
C3966 H3947 0.951 . S
C3966 C3964 1.388 . S
C3966 C3967 1.366 . S
C3967 C3966 1.366 . S
C3967 C3968 1.414 . S
C3967 C3970 1.499 . S
C3968 H3948 0.950 . S
C3968 C3967 1.414 . S
C3968 C3969 1.374 . S
C3969 H3949 0.950 . S
C3969 C3965 1.385 . S
C3969 C3968 1.374 . S
C3970 C3967 1.499 . S
C3970 C3971 1.373 . S
C3970 C3972 1.389 . S
C3971 H3950 0.950 . S
C3971 C3970 1.373 . S
C3971 C3987 1.377 . S
C3972 C3970 1.389 . S
C3972 C3973 1.524 . S
C3972 C3986 1.377 . S
C3973 C3972 1.524 . S
C3973 C3974 1.397 . S
C3973 C3978 1.363 . S
C3974 H3951 0.950 . S
C3974 C3973 1.397 . S
C3974 C3975 1.334 . S
C3975 H3952 0.950 . S
C3975 C3974 1.334 . S
C3975 C3976 1.287 . S
C3976 C3975 1.287 . S
C3976 C3977 1.524 . S
C3976 H3995 0.913 . S
C3977 H3953 0.950 . S
C3977 C3976 1.524 . S
C3977 C3978 1.415 . S
C3978 H3954 0.950 . S
C3978 C3973 1.363 . S
C3978 C3977 1.415 . S
C3979 H3955 0.951 . S
C3979 C3980 1.366 . S
C3979 C3981 1.388 . S
C3980 C3979 1.366 . S
C3980 C3984 1.385 . S
C3981 H3956 0.951 . S
C3981 C3979 1.388 . S
C3981 C3982 1.366 . S
C3982 C3981 1.366 . S
C3982 C3983 1.414 . S
C3982 C3985 1.499 . S
C3983 H3957 0.950 . S
C3983 C3982 1.414 . S
C3983 C3984 1.374 . S
C3984 H3958 0.950 . S
C3984 C3980 1.385 . S
C3984 C3983 1.374 . S
C3985 C3982 1.499 . S
C3985 C3986 1.373 . S
C3985 C3987 1.389 . S
C3986 H3959 0.950 . S
C3986 C3972 1.377 . S
C3986 C3985 1.373 . S
C3987 C3971 1.377 . S
C3987 C3985 1.389 . S
C3987 C3988 1.524 . S
C3988 C3987 1.524 . S
C3988 C3989 1.397 . S
C3988 C3993 1.363 . S
C3989 H3960 0.950 . S
C3989 C3988 1.397 . S
C3989 C3990 1.334 . S
C3990 H3961 0.950 . S
C3990 C3989 1.334 . S
C3990 C3991 1.287 . S
C3991 C3990 1.287 . S
C3991 C3992 1.524 . S
C3991 H3994 0.999 . S
C3992 H3962 0.950 . S
C3992 C3991 1.524 . S
C3992 C3993 1.415 . S
C3993 H3963 0.950 . S
C3993 C3988 1.363 . S
C3993 C3992 1.415 . S
H3994 C3991 0.999 . S
H3995 C3976 0.913 . S
H3996 C4014 0.951 . S
H3997 C4016 0.951 . S
H3998 C4018 0.950 . S
H3999 C4019 0.950 . S
H4000 C4021 0.950 . S
H4001 C4024 0.950 . S
H4002 C4025 0.950 . S
H4003 C4027 0.950 . S
H4004 C4028 0.950 . S
H4005 C4029 0.951 . S
H4006 C4031 0.951 . S
H4007 C4033 0.950 . S
H4008 C4034 0.950 . S
H4009 C4036 0.950 . S
H4010 C4039 0.950 . S
H4011 C4040 0.950 . S
H4012 C4042 0.950 . S
H4013 C4043 0.950 . S
C4014 H3996 0.951 . S
C4014 C4015 1.366 . S
C4014 C4016 1.388 . S
C4015 C4014 1.366 . S
C4015 C4019 1.385 . S
C4016 H3997 0.951 . S
C4016 C4014 1.388 . S
C4016 C4017 1.366 . S
C4017 C4016 1.366 . S
C4017 C4018 1.414 . S
C4017 C4020 1.499 . S
C4018 H3998 0.950 . S
C4018 C4017 1.414 . S
C4018 C4019 1.374 . S
C4019 H3999 0.950 . S
C4019 C4015 1.385 . S
C4019 C4018 1.374 . S
C4020 C4017 1.499 . S
C4020 C4021 1.373 . S
C4020 C4022 1.389 . S
C4021 H4000 0.950 . S
C4021 C4020 1.373 . S
C4021 C4037 1.377 . S
C4022 C4020 1.389 . S
C4022 C4023 1.524 . S
C4022 C4036 1.377 . S
C4023 C4022 1.524 . S
C4023 C4024 1.397 . S
C4023 C4028 1.363 . S
C4024 H4001 0.950 . S
C4024 C4023 1.397 . S
C4024 C4025 1.334 . S
C4025 H4002 0.950 . S
C4025 C4024 1.334 . S
C4025 C4026 1.287 . S
C4026 C4025 1.287 . S
C4026 C4027 1.524 . S
C4026 H4045 0.913 . S
C4027 H4003 0.950 . S
C4027 C4026 1.524 . S
C4027 C4028 1.415 . S
C4028 H4004 0.950 . S
C4028 C4023 1.363 . S
C4028 C4027 1.415 . S
C4029 H4005 0.951 . S
C4029 C4030 1.366 . S
C4029 C4031 1.388 . S
C4030 C4029 1.366 . S
C4030 C4034 1.385 . S
C4031 H4006 0.951 . S
C4031 C4029 1.388 . S
C4031 C4032 1.366 . S
C4032 C4031 1.366 . S
C4032 C4033 1.414 . S
C4032 C4035 1.499 . S
C4033 H4007 0.950 . S
C4033 C4032 1.414 . S
C4033 C4034 1.374 . S
C4034 H4008 0.950 . S
C4034 C4030 1.385 . S
C4034 C4033 1.374 . S
C4035 C4032 1.499 . S
C4035 C4036 1.373 . S
C4035 C4037 1.389 . S
C4036 H4009 0.950 . S
C4036 C4022 1.377 . S
C4036 C4035 1.373 . S
C4037 C4021 1.377 . S
C4037 C4035 1.389 . S
C4037 C4038 1.524 . S
C4038 C4037 1.524 . S
C4038 C4039 1.397 . S
C4038 C4043 1.363 . S
C4039 H4010 0.950 . S
C4039 C4038 1.397 . S
C4039 C4040 1.334 . S
C4040 H4011 0.950 . S
C4040 C4039 1.334 . S
C4040 C4041 1.287 . S
C4041 C4040 1.287 . S
C4041 C4042 1.524 . S
C4041 H4044 0.999 . S
C4042 H4012 0.950 . S
C4042 C4041 1.524 . S
C4042 C4043 1.415 . S
C4043 H4013 0.950 . S
C4043 C4038 1.363 . S
C4043 C4042 1.415 . S
H4044 C4041 0.999 . S
H4045 C4026 0.913 . S
H4046 C4064 0.951 . S
H4047 C4066 0.951 . S
H4048 C4068 0.950 . S
H4049 C4069 0.950 . S
H4050 C4071 0.950 . S
H4051 C4074 0.950 . S
H4052 C4075 0.950 . S
H4053 C4077 0.950 . S
H4054 C4078 0.950 . S
H4055 C4079 0.951 . S
H4056 C4081 0.951 . S
H4057 C4083 0.950 . S
H4058 C4084 0.950 . S
H4059 C4086 0.950 . S
H4060 C4089 0.950 . S
H4061 C4090 0.950 . S
H4062 C4092 0.950 . S
H4063 C4093 0.950 . S
C4064 H4046 0.951 . S
C4064 C4065 1.366 . S
C4064 C4066 1.388 . S
C4065 C4064 1.366 . S
C4065 C4069 1.385 . S
C4066 H4047 0.951 . S
C4066 C4064 1.388 . S
C4066 C4067 1.366 . S
C4067 C4066 1.366 . S
C4067 C4068 1.414 . S
C4067 C4070 1.499 . S
C4068 H4048 0.950 . S
C4068 C4067 1.414 . S
C4068 C4069 1.374 . S
C4069 H4049 0.950 . S
C4069 C4065 1.385 . S
C4069 C4068 1.374 . S
C4070 C4067 1.499 . S
C4070 C4071 1.373 . S
C4070 C4072 1.389 . S
C4071 H4050 0.950 . S
C4071 C4070 1.373 . S
C4071 C4087 1.377 . S
C4072 C4070 1.389 . S
C4072 C4073 1.524 . S
C4072 C4086 1.377 . S
C4073 C4072 1.524 . S
C4073 C4074 1.397 . S
C4073 C4078 1.363 . S
C4074 H4051 0.950 . S
C4074 C4073 1.397 . S
C4074 C4075 1.334 . S
C4075 H4052 0.950 . S
C4075 C4074 1.334 . S
C4075 C4076 1.287 . S
C4076 C4075 1.287 . S
C4076 C4077 1.524 . S
C4076 H4095 0.913 . S
C4077 H4053 0.950 . S
C4077 C4076 1.524 . S
C4077 C4078 1.415 . S
C4078 H4054 0.950 . S
C4078 C4073 1.363 . S
C4078 C4077 1.415 . S
C4079 H4055 0.951 . S
C4079 C4080 1.366 . S
C4079 C4081 1.388 . S
C4080 C4079 1.366 . S
C4080 C4084 1.385 . S
C4081 H4056 0.951 . S
C4081 C4079 1.388 . S
C4081 C4082 1.366 . S
C4082 C4081 1.366 . S
C4082 C4083 1.414 . S
C4082 C4085 1.499 . S
C4083 H4057 0.950 . S
C4083 C4082 1.414 . S
C4083 C4084 1.374 . S
C4084 H4058 0.950 . S
C4084 C4080 1.385 . S
C4084 C4083 1.374 . S
C4085 C4082 1.499 . S
C4085 C4086 1.373 . S
C4085 C4087 1.389 . S
C4086 H4059 0.950 . S
C4086 C4072 1.377 . S
C4086 C4085 1.373 . S
C4087 C4071 1.377 . S
C4087 C4085 1.389 . S
C4087 C4088 1.524 . S
C4088 C4087 1.524 . S
C4088 C4089 1.397 . S
C4088 C4093 1.363 . S
C4089 H4060 0.950 . S
C4089 C4088 1.397 . S
C4089 C4090 1.334 . S
C4090 H4061 0.950 . S
C4090 C4089 1.334 . S
C4090 C4091 1.287 . S
C4091 C4090 1.287 . S
C4091 C4092 1.524 . S
C4091 H4094 0.999 . S
C4092 H4062 0.950 . S
C4092 C4091 1.524 . S
C4092 C4093 1.415 . S
C4093 H4063 0.950 . S
C4093 C4088 1.363 . S
C4093 C4092 1.415 . S
H4094 C4091 0.999 . S
H4095 C4076 0.913 . S
H4096 C4114 0.951 . S
H4097 C4116 0.951 . S
H4098 C4118 0.950 . S
H4099 C4119 0.950 . S
H4100 C4121 0.950 . S
H4101 C4124 0.950 . S
H4102 C4125 0.950 . S
H4103 C4127 0.950 . S
H4104 C4128 0.950 . S
H4105 C4129 0.951 . S
H4106 C4131 0.951 . S
H4107 C4133 0.950 . S
H4108 C4134 0.950 . S
H4109 C4136 0.950 . S
H4110 C4139 0.950 . S
H4111 C4140 0.950 . S
H4112 C4142 0.950 . S
H4113 C4143 0.950 . S
C4114 H4096 0.951 . S
C4114 C4115 1.366 . S
C4114 C4116 1.388 . S
C4115 C4114 1.366 . S
C4115 C4119 1.385 . S
C4116 H4097 0.951 . S
C4116 C4114 1.388 . S
C4116 C4117 1.366 . S
C4117 C4116 1.366 . S
C4117 C4118 1.414 . S
C4117 C4120 1.499 . S
C4118 H4098 0.950 . S
C4118 C4117 1.414 . S
C4118 C4119 1.374 . S
C4119 H4099 0.950 . S
C4119 C4115 1.385 . S
C4119 C4118 1.374 . S
C4120 C4117 1.499 . S
C4120 C4121 1.373 . S
C4120 C4122 1.389 . S
C4121 H4100 0.950 . S
C4121 C4120 1.373 . S
C4121 C4137 1.377 . S
C4122 C4120 1.389 . S
C4122 C4123 1.524 . S
C4122 C4136 1.377 . S
C4123 C4122 1.524 . S
C4123 C4124 1.397 . S
C4123 C4128 1.363 . S
C4124 H4101 0.950 . S
C4124 C4123 1.397 . S
C4124 C4125 1.334 . S
C4125 H4102 0.950 . S
C4125 C4124 1.334 . S
C4125 C4126 1.287 . S
C4126 C4125 1.287 . S
C4126 C4127 1.524 . S
C4126 H4145 0.913 . S
C4127 H4103 0.950 . S
C4127 C4126 1.524 . S
C4127 C4128 1.415 . S
C4128 H4104 0.950 . S
C4128 C4123 1.363 . S
C4128 C4127 1.415 . S
C4129 H4105 0.951 . S
C4129 C4130 1.366 . S
C4129 C4131 1.388 . S
C4130 C4129 1.366 . S
C4130 C4134 1.385 . S
C4131 H4106 0.951 . S
C4131 C4129 1.388 . S
C4131 C4132 1.366 . S
C4132 C4131 1.366 . S
C4132 C4133 1.414 . S
C4132 C4135 1.499 . S
C4133 H4107 0.950 . S
C4133 C4132 1.414 . S
C4133 C4134 1.374 . S
C4134 H4108 0.950 . S
C4134 C4130 1.385 . S
C4134 C4133 1.374 . S
C4135 C4132 1.499 . S
C4135 C4136 1.373 . S
C4135 C4137 1.389 . S
C4136 H4109 0.950 . S
C4136 C4122 1.377 . S
C4136 C4135 1.373 . S
C4137 C4121 1.377 . S
C4137 C4135 1.389 . S
C4137 C4138 1.524 . S
C4138 C4137 1.524 . S
C4138 C4139 1.397 . S
C4138 C4143 1.363 . S
C4139 H4110 0.950 . S
C4139 C4138 1.397 . S
C4139 C4140 1.334 . S
C4140 H4111 0.950 . S
C4140 C4139 1.334 . S
C4140 C4141 1.287 . S
C4141 C4140 1.287 . S
C4141 C4142 1.524 . S
C4141 H4144 0.999 . S
C4142 H4112 0.950 . S
C4142 C4141 1.524 . S
C4142 C4143 1.415 . S
C4143 H4113 0.950 . S
C4143 C4138 1.363 . S
C4143 C4142 1.415 . S
H4144 C4141 0.999 . S
H4145 C4126 0.913 . S
H4146 C4164 0.951 . S
H4147 C4166 0.951 . S
H4148 C4168 0.950 . S
H4149 C4169 0.950 . S
H4150 C4171 0.950 . S
H4151 C4174 0.950 . S
H4152 C4175 0.950 . S
H4153 C4177 0.950 . S
H4154 C4178 0.950 . S
H4155 C4179 0.951 . S
H4156 C4181 0.951 . S
H4157 C4183 0.950 . S
H4158 C4184 0.950 . S
H4159 C4186 0.950 . S
H4160 C4189 0.950 . S
H4161 C4190 0.950 . S
H4162 C4192 0.950 . S
H4163 C4193 0.950 . S
C4164 H4146 0.951 . S
C4164 C4165 1.366 . S
C4164 C4166 1.388 . S
C4165 C4164 1.366 . S
C4165 C4169 1.385 . S
C4166 H4147 0.951 . S
C4166 C4164 1.388 . S
C4166 C4167 1.366 . S
C4167 C4166 1.366 . S
C4167 C4168 1.414 . S
C4167 C4170 1.499 . S
C4168 H4148 0.950 . S
C4168 C4167 1.414 . S
C4168 C4169 1.374 . S
C4169 H4149 0.950 . S
C4169 C4165 1.385 . S
C4169 C4168 1.374 . S
C4170 C4167 1.499 . S
C4170 C4171 1.373 . S
C4170 C4172 1.389 . S
C4171 H4150 0.950 . S
C4171 C4170 1.373 . S
C4171 C4187 1.377 . S
C4172 C4170 1.389 . S
C4172 C4173 1.524 . S
C4172 C4186 1.377 . S
C4173 C4172 1.524 . S
C4173 C4174 1.397 . S
C4173 C4178 1.363 . S
C4174 H4151 0.950 . S
C4174 C4173 1.397 . S
C4174 C4175 1.334 . S
C4175 H4152 0.950 . S
C4175 C4174 1.334 . S
C4175 C4176 1.287 . S
C4176 C4175 1.287 . S
C4176 C4177 1.524 . S
C4176 H4195 0.913 . S
C4177 H4153 0.950 . S
C4177 C4176 1.524 . S
C4177 C4178 1.415 . S
C4178 H4154 0.950 . S
C4178 C4173 1.363 . S
C4178 C4177 1.415 . S
C4179 H4155 0.951 . S
C4179 C4180 1.366 . S
C4179 C4181 1.388 . S
C4180 C4179 1.366 . S
C4180 C4184 1.385 . S
C4181 H4156 0.951 . S
C4181 C4179 1.388 . S
C4181 C4182 1.366 . S
C4182 C4181 1.366 . S
C4182 C4183 1.414 . S
C4182 C4185 1.499 . S
C4183 H4157 0.950 . S
C4183 C4182 1.414 . S
C4183 C4184 1.374 . S
C4184 H4158 0.950 . S
C4184 C4180 1.385 . S
C4184 C4183 1.374 . S
C4185 C4182 1.499 . S
C4185 C4186 1.373 . S
C4185 C4187 1.389 . S
C4186 H4159 0.950 . S
C4186 C4172 1.377 . S
C4186 C4185 1.373 . S
C4187 C4171 1.377 . S
C4187 C4185 1.389 . S
C4187 C4188 1.524 . S
C4188 C4187 1.524 . S
C4188 C4189 1.397 . S
C4188 C4193 1.363 . S
C4189 H4160 0.950 . S
C4189 C4188 1.397 . S
C4189 C4190 1.334 . S
C4190 H4161 0.950 . S
C4190 C4189 1.334 . S
C4190 C4191 1.287 . S
C4191 C4190 1.287 . S
C4191 C4192 1.524 . S
C4191 H4194 0.999 . S
C4192 H4162 0.950 . S
C4192 C4191 1.524 . S
C4192 C4193 1.415 . S
C4193 H4163 0.950 . S
C4193 C4188 1.363 . S
C4193 C4192 1.415 . S
H4194 C4191 0.999 . S
H4195 C4176 0.913 . S
H4196 C4214 0.951 . S
H4197 C4216 0.951 . S
H4198 C4218 0.950 . S
H4199 C4219 0.950 . S
H4200 C4221 0.950 . S
H4201 C4224 0.950 . S
H4202 C4225 0.950 . S
H4203 C4227 0.950 . S
H4204 C4228 0.950 . S
H4205 C4229 0.951 . S
H4206 C4231 0.951 . S
H4207 C4233 0.950 . S
H4208 C4234 0.950 . S
H4209 C4236 0.950 . S
H4210 C4239 0.950 . S
H4211 C4240 0.950 . S
H4212 C4242 0.950 . S
H4213 C4243 0.950 . S
C4214 H4196 0.951 . S
C4214 C4215 1.366 . S
C4214 C4216 1.388 . S
C4215 C4214 1.366 . S
C4215 C4219 1.385 . S
C4216 H4197 0.951 . S
C4216 C4214 1.388 . S
C4216 C4217 1.366 . S
C4217 C4216 1.366 . S
C4217 C4218 1.414 . S
C4217 C4220 1.499 . S
C4218 H4198 0.950 . S
C4218 C4217 1.414 . S
C4218 C4219 1.374 . S
C4219 H4199 0.950 . S
C4219 C4215 1.385 . S
C4219 C4218 1.374 . S
C4220 C4217 1.499 . S
C4220 C4221 1.373 . S
C4220 C4222 1.389 . S
C4221 H4200 0.950 . S
C4221 C4220 1.373 . S
C4221 C4237 1.377 . S
C4222 C4220 1.389 . S
C4222 C4223 1.524 . S
C4222 C4236 1.377 . S
C4223 C4222 1.524 . S
C4223 C4224 1.397 . S
C4223 C4228 1.363 . S
C4224 H4201 0.950 . S
C4224 C4223 1.397 . S
C4224 C4225 1.334 . S
C4225 H4202 0.950 . S
C4225 C4224 1.334 . S
C4225 C4226 1.287 . S
C4226 C4225 1.287 . S
C4226 C4227 1.524 . S
C4226 H4245 0.913 . S
C4227 H4203 0.950 . S
C4227 C4226 1.524 . S
C4227 C4228 1.415 . S
C4228 H4204 0.950 . S
C4228 C4223 1.363 . S
C4228 C4227 1.415 . S
C4229 H4205 0.951 . S
C4229 C4230 1.366 . S
C4229 C4231 1.388 . S
C4230 C4229 1.366 . S
C4230 C4234 1.385 . S
C4231 H4206 0.951 . S
C4231 C4229 1.388 . S
C4231 C4232 1.366 . S
C4232 C4231 1.366 . S
C4232 C4233 1.414 . S
C4232 C4235 1.499 . S
C4233 H4207 0.950 . S
C4233 C4232 1.414 . S
C4233 C4234 1.374 . S
C4234 H4208 0.950 . S
C4234 C4230 1.385 . S
C4234 C4233 1.374 . S
C4235 C4232 1.499 . S
C4235 C4236 1.373 . S
C4235 C4237 1.389 . S
C4236 H4209 0.950 . S
C4236 C4222 1.377 . S
C4236 C4235 1.373 . S
C4237 C4221 1.377 . S
C4237 C4235 1.389 . S
C4237 C4238 1.524 . S
C4238 C4237 1.524 . S
C4238 C4239 1.397 . S
C4238 C4243 1.363 . S
C4239 H4210 0.950 . S
C4239 C4238 1.397 . S
C4239 C4240 1.334 . S
C4240 H4211 0.950 . S
C4240 C4239 1.334 . S
C4240 C4241 1.287 . S
C4241 C4240 1.287 . S
C4241 C4242 1.524 . S
C4241 H4244 0.999 . S
C4242 H4212 0.950 . S
C4242 C4241 1.524 . S
C4242 C4243 1.415 . S
C4243 H4213 0.950 . S
C4243 C4238 1.363 . S
C4243 C4242 1.415 . S
H4244 C4241 0.999 . S
H4245 C4226 0.913 . S
H4246 C4264 0.951 . S
H4247 C4266 0.951 . S
H4248 C4268 0.950 . S
H4249 C4269 0.950 . S
H4250 C4271 0.950 . S
H4251 C4274 0.950 . S
H4252 C4275 0.950 . S
H4253 C4277 0.950 . S
H4254 C4278 0.950 . S
H4255 C4279 0.951 . S
H4256 C4281 0.951 . S
H4257 C4283 0.950 . S
H4258 C4284 0.950 . S
H4259 C4286 0.950 . S
H4260 C4289 0.950 . S
H4261 C4290 0.950 . S
H4262 C4292 0.950 . S
H4263 C4293 0.950 . S
C4264 H4246 0.951 . S
C4264 C4265 1.366 . S
C4264 C4266 1.388 . S
C4265 C4264 1.366 . S
C4265 C4269 1.385 . S
C4266 H4247 0.951 . S
C4266 C4264 1.388 . S
C4266 C4267 1.366 . S
C4267 C4266 1.366 . S
C4267 C4268 1.414 . S
C4267 C4270 1.499 . S
C4268 H4248 0.950 . S
C4268 C4267 1.414 . S
C4268 C4269 1.374 . S
C4269 H4249 0.950 . S
C4269 C4265 1.385 . S
C4269 C4268 1.374 . S
C4270 C4267 1.499 . S
C4270 C4271 1.373 . S
C4270 C4272 1.389 . S
C4271 H4250 0.950 . S
C4271 C4270 1.373 . S
C4271 C4287 1.377 . S
C4272 C4270 1.389 . S
C4272 C4273 1.524 . S
C4272 C4286 1.377 . S
C4273 C4272 1.524 . S
C4273 C4274 1.397 . S
C4273 C4278 1.363 . S
C4274 H4251 0.950 . S
C4274 C4273 1.397 . S
C4274 C4275 1.334 . S
C4275 H4252 0.950 . S
C4275 C4274 1.334 . S
C4275 C4276 1.287 . S
C4276 C4275 1.287 . S
C4276 C4277 1.524 . S
C4276 H4295 0.913 . S
C4277 H4253 0.950 . S
C4277 C4276 1.524 . S
C4277 C4278 1.415 . S
C4278 H4254 0.950 . S
C4278 C4273 1.363 . S
C4278 C4277 1.415 . S
C4279 H4255 0.951 . S
C4279 C4280 1.366 . S
C4279 C4281 1.388 . S
C4280 C4279 1.366 . S
C4280 C4284 1.385 . S
C4281 H4256 0.951 . S
C4281 C4279 1.388 . S
C4281 C4282 1.366 . S
C4282 C4281 1.366 . S
C4282 C4283 1.414 . S
C4282 C4285 1.499 . S
C4283 H4257 0.950 . S
C4283 C4282 1.414 . S
C4283 C4284 1.374 . S
C4284 H4258 0.950 . S
C4284 C4280 1.385 . S
C4284 C4283 1.374 . S
C4285 C4282 1.499 . S
C4285 C4286 1.373 . S
C4285 C4287 1.389 . S
C4286 H4259 0.950 . S
C4286 C4272 1.377 . S
C4286 C4285 1.373 . S
C4287 C4271 1.377 . S
C4287 C4285 1.389 . S
C4287 C4288 1.524 . S
C4288 C4287 1.524 . S
C4288 C4289 1.397 . S
C4288 C4293 1.363 . S
C4289 H4260 0.950 . S
C4289 C4288 1.397 . S
C4289 C4290 1.334 . S
C4290 H4261 0.950 . S
C4290 C4289 1.334 . S
C4290 C4291 1.287 . S
C4291 C4290 1.287 . S
C4291 C4292 1.524 . S
C4291 H4294 0.999 . S
C4292 H4262 0.950 . S
C4292 C4291 1.524 . S
C4292 C4293 1.415 . S
C4293 H4263 0.950 . S
C4293 C4288 1.363 . S
C4293 C4292 1.415 . S
H4294 C4291 0.999 . S
H4295 C4276 0.913 . S
H4296 C4314 0.951 . S
H4297 C4316 0.951 . S
H4298 C4318 0.950 . S
H4299 C4319 0.950 . S
H4300 C4321 0.950 . S
H4301 C4324 0.950 . S
H4302 C4325 0.950 . S
H4303 C4327 0.950 . S
H4304 C4328 0.950 . S
H4305 C4329 0.951 . S
H4306 C4331 0.951 . S
H4307 C4333 0.950 . S
H4308 C4334 0.950 . S
H4309 C4336 0.950 . S
H4310 C4339 0.950 . S
H4311 C4340 0.950 . S
H4312 C4342 0.950 . S
H4313 C4343 0.950 . S
C4314 H4296 0.951 . S
C4314 C4315 1.366 . S
C4314 C4316 1.388 . S
C4315 C4314 1.366 . S
C4315 C4319 1.385 . S
C4316 H4297 0.951 . S
C4316 C4314 1.388 . S
C4316 C4317 1.366 . S
C4317 C4316 1.366 . S
C4317 C4318 1.414 . S
C4317 C4320 1.499 . S
C4318 H4298 0.950 . S
C4318 C4317 1.414 . S
C4318 C4319 1.374 . S
C4319 H4299 0.950 . S
C4319 C4315 1.385 . S
C4319 C4318 1.374 . S
C4320 C4317 1.499 . S
C4320 C4321 1.373 . S
C4320 C4322 1.389 . S
C4321 H4300 0.950 . S
C4321 C4320 1.373 . S
C4321 C4337 1.377 . S
C4322 C4320 1.389 . S
C4322 C4323 1.524 . S
C4322 C4336 1.377 . S
C4323 C4322 1.524 . S
C4323 C4324 1.397 . S
C4323 C4328 1.363 . S
C4324 H4301 0.950 . S
C4324 C4323 1.397 . S
C4324 C4325 1.334 . S
C4325 H4302 0.950 . S
C4325 C4324 1.334 . S
C4325 C4326 1.287 . S
C4326 C4325 1.287 . S
C4326 C4327 1.524 . S
C4326 H4345 0.913 . S
C4327 H4303 0.950 . S
C4327 C4326 1.524 . S
C4327 C4328 1.415 . S
C4328 H4304 0.950 . S
C4328 C4323 1.363 . S
C4328 C4327 1.415 . S
C4329 H4305 0.951 . S
C4329 C4330 1.366 . S
C4329 C4331 1.388 . S
C4330 C4329 1.366 . S
C4330 C4334 1.385 . S
C4331 H4306 0.951 . S
C4331 C4329 1.388 . S
C4331 C4332 1.366 . S
C4332 C4331 1.366 . S
C4332 C4333 1.414 . S
C4332 C4335 1.499 . S
C4333 H4307 0.950 . S
C4333 C4332 1.414 . S
C4333 C4334 1.374 . S
C4334 H4308 0.950 . S
C4334 C4330 1.385 . S
C4334 C4333 1.374 . S
C4335 C4332 1.499 . S
C4335 C4336 1.373 . S
C4335 C4337 1.389 . S
C4336 H4309 0.950 . S
C4336 C4322 1.377 . S
C4336 C4335 1.373 . S
C4337 C4321 1.377 . S
C4337 C4335 1.389 . S
C4337 C4338 1.524 . S
C4338 C4337 1.524 . S
C4338 C4339 1.397 . S
C4338 C4343 1.363 . S
C4339 H4310 0.950 . S
C4339 C4338 1.397 . S
C4339 C4340 1.334 . S
C4340 H4311 0.950 . S
C4340 C4339 1.334 . S
C4340 C4341 1.287 . S
C4341 C4340 1.287 . S
C4341 C4342 1.524 . S
C4341 H4344 0.999 . S
C4342 H4312 0.950 . S
C4342 C4341 1.524 . S
C4342 C4343 1.415 . S
C4343 H4313 0.950 . S
C4343 C4338 1.363 . S
C4343 C4342 1.415 . S
H4344 C4341 0.999 . S
H4345 C4326 0.913 . S
H4346 C4364 0.951 . S
H4347 C4366 0.951 . S
H4348 C4368 0.950 . S
H4349 C4369 0.950 . S
H4350 C4371 0.950 . S
H4351 C4374 0.950 . S
H4352 C4375 0.950 . S
H4353 C4377 0.950 . S
H4354 C4378 0.950 . S
H4355 C4379 0.951 . S
H4356 C4381 0.951 . S
H4357 C4383 0.950 . S
H4358 C4384 0.950 . S
H4359 C4386 0.950 . S
H4360 C4389 0.950 . S
H4361 C4390 0.950 . S
H4362 C4392 0.950 . S
H4363 C4393 0.950 . S
C4364 H4346 0.951 . S
C4364 C4365 1.366 . S
C4364 C4366 1.388 . S
C4365 C4364 1.366 . S
C4365 C4369 1.385 . S
C4366 H4347 0.951 . S
C4366 C4364 1.388 . S
C4366 C4367 1.366 . S
C4367 C4366 1.366 . S
C4367 C4368 1.414 . S
C4367 C4370 1.499 . S
C4368 H4348 0.950 . S
C4368 C4367 1.414 . S
C4368 C4369 1.374 . S
C4369 H4349 0.950 . S
C4369 C4365 1.385 . S
C4369 C4368 1.374 . S
C4370 C4367 1.499 . S
C4370 C4371 1.373 . S
C4370 C4372 1.389 . S
C4371 H4350 0.950 . S
C4371 C4370 1.373 . S
C4371 C4387 1.377 . S
C4372 C4370 1.389 . S
C4372 C4373 1.524 . S
C4372 C4386 1.377 . S
C4373 C4372 1.524 . S
C4373 C4374 1.397 . S
C4373 C4378 1.363 . S
C4374 H4351 0.950 . S
C4374 C4373 1.397 . S
C4374 C4375 1.334 . S
C4375 H4352 0.950 . S
C4375 C4374 1.334 . S
C4375 C4376 1.287 . S
C4376 C4375 1.287 . S
C4376 C4377 1.524 . S
C4376 H4395 0.913 . S
C4377 H4353 0.950 . S
C4377 C4376 1.524 . S
C4377 C4378 1.415 . S
C4378 H4354 0.950 . S
C4378 C4373 1.363 . S
C4378 C4377 1.415 . S
C4379 H4355 0.951 . S
C4379 C4380 1.366 . S
C4379 C4381 1.388 . S
C4380 C4379 1.366 . S
C4380 C4384 1.385 . S
C4381 H4356 0.951 . S
C4381 C4379 1.388 . S
C4381 C4382 1.366 . S
C4382 C4381 1.366 . S
C4382 C4383 1.414 . S
C4382 C4385 1.499 . S
C4383 H4357 0.950 . S
C4383 C4382 1.414 . S
C4383 C4384 1.374 . S
C4384 H4358 0.950 . S
C4384 C4380 1.385 . S
C4384 C4383 1.374 . S
C4385 C4382 1.499 . S
C4385 C4386 1.373 . S
C4385 C4387 1.389 . S
C4386 H4359 0.950 . S
C4386 C4372 1.377 . S
C4386 C4385 1.373 . S
C4387 C4371 1.377 . S
C4387 C4385 1.389 . S
C4387 C4388 1.524 . S
C4388 C4387 1.524 . S
C4388 C4389 1.397 . S
C4388 C4393 1.363 . S
C4389 H4360 0.950 . S
C4389 C4388 1.397 . S
C4389 C4390 1.334 . S
C4390 H4361 0.950 . S
C4390 C4389 1.334 . S
C4390 C4391 1.287 . S
C4391 C4390 1.287 . S
C4391 C4392 1.524 . S
C4391 H4394 0.999 . S
C4392 H4362 0.950 . S
C4392 C4391 1.524 . S
C4392 C4393 1.415 . S
C4393 H4363 0.950 . S
C4393 C4388 1.363 . S
C4393 C4392 1.415 . S
H4394 C4391 0.999 . S
H4395 C4376 0.913 . S
H4396 C4414 0.951 . S
H4397 C4416 0.951 . S
H4398 C4418 0.950 . S
H4399 C4419 0.950 . S
H4400 C4421 0.950 . S
H4401 C4424 0.950 . S
H4402 C4425 0.950 . S
H4403 C4427 0.950 . S
H4404 C4428 0.950 . S
H4405 C4429 0.951 . S
H4406 C4431 0.951 . S
H4407 C4433 0.950 . S
H4408 C4434 0.950 . S
H4409 C4436 0.950 . S
H4410 C4439 0.950 . S
H4411 C4440 0.950 . S
H4412 C4442 0.950 . S
H4413 C4443 0.950 . S
C4414 H4396 0.951 . S
C4414 C4415 1.366 . S
C4414 C4416 1.388 . S
C4415 C4414 1.366 . S
C4415 C4419 1.385 . S
C4416 H4397 0.951 . S
C4416 C4414 1.388 . S
C4416 C4417 1.366 . S
C4417 C4416 1.366 . S
C4417 C4418 1.414 . S
C4417 C4420 1.499 . S
C4418 H4398 0.950 . S
C4418 C4417 1.414 . S
C4418 C4419 1.374 . S
C4419 H4399 0.950 . S
C4419 C4415 1.385 . S
C4419 C4418 1.374 . S
C4420 C4417 1.499 . S
C4420 C4421 1.373 . S
C4420 C4422 1.389 . S
C4421 H4400 0.950 . S
C4421 C4420 1.373 . S
C4421 C4437 1.377 . S
C4422 C4420 1.389 . S
C4422 C4423 1.524 . S
C4422 C4436 1.377 . S
C4423 C4422 1.524 . S
C4423 C4424 1.397 . S
C4423 C4428 1.363 . S
C4424 H4401 0.950 . S
C4424 C4423 1.397 . S
C4424 C4425 1.334 . S
C4425 H4402 0.950 . S
C4425 C4424 1.334 . S
C4425 C4426 1.287 . S
C4426 C4425 1.287 . S
C4426 C4427 1.524 . S
C4426 H4445 0.913 . S
C4427 H4403 0.950 . S
C4427 C4426 1.524 . S
C4427 C4428 1.415 . S
C4428 H4404 0.950 . S
C4428 C4423 1.363 . S
C4428 C4427 1.415 . S
C4429 H4405 0.951 . S
C4429 C4430 1.366 . S
C4429 C4431 1.388 . S
C4430 C4429 1.366 . S
C4430 C4434 1.385 . S
C4431 H4406 0.951 . S
C4431 C4429 1.388 . S
C4431 C4432 1.366 . S
C4432 C4431 1.366 . S
C4432 C4433 1.414 . S
C4432 C4435 1.499 . S
C4433 H4407 0.950 . S
C4433 C4432 1.414 . S
C4433 C4434 1.374 . S
C4434 H4408 0.950 . S
C4434 C4430 1.385 . S
C4434 C4433 1.374 . S
C4435 C4432 1.499 . S
C4435 C4436 1.373 . S
C4435 C4437 1.389 . S
C4436 H4409 0.950 . S
C4436 C4422 1.377 . S
C4436 C4435 1.373 . S
C4437 C4421 1.377 . S
C4437 C4435 1.389 . S
C4437 C4438 1.524 . S
C4438 C4437 1.524 . S
C4438 C4439 1.397 . S
C4438 C4443 1.363 . S
C4439 H4410 0.950 . S
C4439 C4438 1.397 . S
C4439 C4440 1.334 . S
C4440 H4411 0.950 . S
C4440 C4439 1.334 . S
C4440 C4441 1.287 . S
C4441 C4440 1.287 . S
C4441 C4442 1.524 . S
C4441 H4444 0.999 . S
C4442 H4412 0.950 . S
C4442 C4441 1.524 . S
C4442 C4443 1.415 . S
C4443 H4413 0.950 . S
C4443 C4438 1.363 . S
C4443 C4442 1.415 . S
H4444 C4441 0.999 . S
H4445 C4426 0.913 . S
H4446 C4464 0.951 . S
H4447 C4466 0.951 . S
H4448 C4468 0.950 . S
H4449 C4469 0.950 . S
H4450 C4471 0.950 . S
H4451 C4474 0.950 . S
H4452 C4475 0.950 . S
H4453 C4477 0.950 . S
H4454 C4478 0.950 . S
H4455 C4479 0.951 . S
H4456 C4481 0.951 . S
H4457 C4483 0.950 . S
H4458 C4484 0.950 . S
H4459 C4486 0.950 . S
H4460 C4489 0.950 . S
H4461 C4490 0.950 . S
H4462 C4492 0.950 . S
H4463 C4493 0.950 . S
C4464 H4446 0.951 . S
C4464 C4465 1.366 . S
C4464 C4466 1.388 . S
C4465 C4464 1.366 . S
C4465 C4469 1.385 . S
C4466 H4447 0.951 . S
C4466 C4464 1.388 . S
C4466 C4467 1.366 . S
C4467 C4466 1.366 . S
C4467 C4468 1.414 . S
C4467 C4470 1.499 . S
C4468 H4448 0.950 . S
C4468 C4467 1.414 . S
C4468 C4469 1.374 . S
C4469 H4449 0.950 . S
C4469 C4465 1.385 . S
C4469 C4468 1.374 . S
C4470 C4467 1.499 . S
C4470 C4471 1.373 . S
C4470 C4472 1.389 . S
C4471 H4450 0.950 . S
C4471 C4470 1.373 . S
C4471 C4487 1.377 . S
C4472 C4470 1.389 . S
C4472 C4473 1.524 . S
C4472 C4486 1.377 . S
C4473 C4472 1.524 . S
C4473 C4474 1.397 . S
C4473 C4478 1.363 . S
C4474 H4451 0.950 . S
C4474 C4473 1.397 . S
C4474 C4475 1.334 . S
C4475 H4452 0.950 . S
C4475 C4474 1.334 . S
C4475 C4476 1.287 . S
C4476 C4475 1.287 . S
C4476 C4477 1.524 . S
C4476 H4495 0.913 . S
C4477 H4453 0.950 . S
C4477 C4476 1.524 . S
C4477 C4478 1.415 . S
C4478 H4454 0.950 . S
C4478 C4473 1.363 . S
C4478 C4477 1.415 . S
C4479 H4455 0.951 . S
C4479 C4480 1.366 . S
C4479 C4481 1.388 . S
C4480 C4479 1.366 . S
C4480 C4484 1.385 . S
C4481 H4456 0.951 . S
C4481 C4479 1.388 . S
C4481 C4482 1.366 . S
C4482 C4481 1.366 . S
C4482 C4483 1.414 . S
C4482 C4485 1.499 . S
C4483 H4457 0.950 . S
C4483 C4482 1.414 . S
C4483 C4484 1.374 . S
C4484 H4458 0.950 . S
C4484 C4480 1.385 . S
C4484 C4483 1.374 . S
C4485 C4482 1.499 . S
C4485 C4486 1.373 . S
C4485 C4487 1.389 . S
C4486 H4459 0.950 . S
C4486 C4472 1.377 . S
C4486 C4485 1.373 . S
C4487 C4471 1.377 . S
C4487 C4485 1.389 . S
C4487 C4488 1.524 . S
C4488 C4487 1.524 . S
C4488 C4489 1.397 . S
C4488 C4493 1.363 . S
C4489 H4460 0.950 . S
C4489 C4488 1.397 . S
C4489 C4490 1.334 . S
C4490 H4461 0.950 . S
C4490 C4489 1.334 . S
C4490 C4491 1.287 . S
C4491 C4490 1.287 . S
C4491 C4492 1.524 . S
C4491 H4494 0.999 . S
C4492 H4462 0.950 . S
C4492 C4491 1.524 . S
C4492 C4493 1.415 . S
C4493 H4463 0.950 . S
C4493 C4488 1.363 . S
C4493 C4492 1.415 . S
H4494 C4491 0.999 . S
H4495 C4476 0.913 . S
H4496 C4514 0.951 . S
H4497 C4516 0.951 . S
H4498 C4518 0.950 . S
H4499 C4519 0.950 . S
H4500 C4521 0.950 . S
H4501 C4524 0.950 . S
H4502 C4525 0.950 . S
H4503 C4527 0.950 . S
H4504 C4528 0.950 . S
H4505 C4529 0.951 . S
H4506 C4531 0.951 . S
H4507 C4533 0.950 . S
H4508 C4534 0.950 . S
H4509 C4536 0.950 . S
H4510 C4539 0.950 . S
H4511 C4540 0.950 . S
H4512 C4542 0.950 . S
H4513 C4543 0.950 . S
C4514 H4496 0.951 . S
C4514 C4515 1.366 . S
C4514 C4516 1.388 . S
C4515 C4514 1.366 . S
C4515 C4519 1.385 . S
C4516 H4497 0.951 . S
C4516 C4514 1.388 . S
C4516 C4517 1.366 . S
C4517 C4516 1.366 . S
C4517 C4518 1.414 . S
C4517 C4520 1.499 . S
C4518 H4498 0.950 . S
C4518 C4517 1.414 . S
C4518 C4519 1.374 . S
C4519 H4499 0.950 . S
C4519 C4515 1.385 . S
C4519 C4518 1.374 . S
C4520 C4517 1.499 . S
C4520 C4521 1.373 . S
C4520 C4522 1.389 . S
C4521 H4500 0.950 . S
C4521 C4520 1.373 . S
C4521 C4537 1.377 . S
C4522 C4520 1.389 . S
C4522 C4523 1.524 . S
C4522 C4536 1.377 . S
C4523 C4522 1.524 . S
C4523 C4524 1.397 . S
C4523 C4528 1.363 . S
C4524 H4501 0.950 . S
C4524 C4523 1.397 . S
C4524 C4525 1.334 . S
C4525 H4502 0.950 . S
C4525 C4524 1.334 . S
C4525 C4526 1.287 . S
C4526 C4525 1.287 . S
C4526 C4527 1.524 . S
C4526 H4545 0.913 . S
C4527 H4503 0.950 . S
C4527 C4526 1.524 . S
C4527 C4528 1.415 . S
C4528 H4504 0.950 . S
C4528 C4523 1.363 . S
C4528 C4527 1.415 . S
C4529 H4505 0.951 . S
C4529 C4530 1.366 . S
C4529 C4531 1.388 . S
C4530 C4529 1.366 . S
C4530 C4534 1.385 . S
C4531 H4506 0.951 . S
C4531 C4529 1.388 . S
C4531 C4532 1.366 . S
C4532 C4531 1.366 . S
C4532 C4533 1.414 . S
C4532 C4535 1.499 . S
C4533 H4507 0.950 . S
C4533 C4532 1.414 . S
C4533 C4534 1.374 . S
C4534 H4508 0.950 . S
C4534 C4530 1.385 . S
C4534 C4533 1.374 . S
C4535 C4532 1.499 . S
C4535 C4536 1.373 . S
C4535 C4537 1.389 . S
C4536 H4509 0.950 . S
C4536 C4522 1.377 . S
C4536 C4535 1.373 . S
C4537 C4521 1.377 . S
C4537 C4535 1.389 . S
C4537 C4538 1.524 . S
C4538 C4537 1.524 . S
C4538 C4539 1.397 . S
C4538 C4543 1.363 . S
C4539 H4510 0.950 . S
C4539 C4538 1.397 . S
C4539 C4540 1.334 . S
C4540 H4511 0.950 . S
C4540 C4539 1.334 . S
C4540 C4541 1.287 . S
C4541 C4540 1.287 . S
C4541 C4542 1.524 . S
C4541 H4544 0.999 . S
C4542 H4512 0.950 . S
C4542 C4541 1.524 . S
C4542 C4543 1.415 . S
C4543 H4513 0.950 . S
C4543 C4538 1.363 . S
C4543 C4542 1.415 . S
H4544 C4541 0.999 . S
H4545 C4526 0.913 . S
H4546 C4564 0.951 . S
H4547 C4566 0.951 . S
H4548 C4568 0.950 . S
H4549 C4569 0.950 . S
H4550 C4571 0.950 . S
H4551 C4574 0.950 . S
H4552 C4575 0.950 . S
H4553 C4577 0.950 . S
H4554 C4578 0.950 . S
H4555 C4579 0.951 . S
H4556 C4581 0.951 . S
H4557 C4583 0.950 . S
H4558 C4584 0.950 . S
H4559 C4586 0.950 . S
H4560 C4589 0.950 . S
H4561 C4590 0.950 . S
H4562 C4592 0.950 . S
H4563 C4593 0.950 . S
C4564 H4546 0.951 . S
C4564 C4565 1.366 . S
C4564 C4566 1.388 . S
C4565 C4564 1.366 . S
C4565 C4569 1.385 . S
C4566 H4547 0.951 . S
C4566 C4564 1.388 . S
C4566 C4567 1.366 . S
C4567 C4566 1.366 . S
C4567 C4568 1.414 . S
C4567 C4570 1.499 . S
C4568 H4548 0.950 . S
C4568 C4567 1.414 . S
C4568 C4569 1.374 . S
C4569 H4549 0.950 . S
C4569 C4565 1.385 . S
C4569 C4568 1.374 . S
C4570 C4567 1.499 . S
C4570 C4571 1.373 . S
C4570 C4572 1.389 . S
C4571 H4550 0.950 . S
C4571 C4570 1.373 . S
C4571 C4587 1.377 . S
C4572 C4570 1.389 . S
C4572 C4573 1.524 . S
C4572 C4586 1.377 . S
C4573 C4572 1.524 . S
C4573 C4574 1.397 . S
C4573 C4578 1.363 . S
C4574 H4551 0.950 . S
C4574 C4573 1.397 . S
C4574 C4575 1.334 . S
C4575 H4552 0.950 . S
C4575 C4574 1.334 . S
C4575 C4576 1.287 . S
C4576 C4575 1.287 . S
C4576 C4577 1.524 . S
C4576 H4595 0.913 . S
C4577 H4553 0.950 . S
C4577 C4576 1.524 . S
C4577 C4578 1.415 . S
C4578 H4554 0.950 . S
C4578 C4573 1.363 . S
C4578 C4577 1.415 . S
C4579 H4555 0.951 . S
C4579 C4580 1.366 . S
C4579 C4581 1.388 . S
C4580 C4579 1.366 . S
C4580 C4584 1.385 . S
C4581 H4556 0.951 . S
C4581 C4579 1.388 . S
C4581 C4582 1.366 . S
C4582 C4581 1.366 . S
C4582 C4583 1.414 . S
C4582 C4585 1.499 . S
C4583 H4557 0.950 . S
C4583 C4582 1.414 . S
C4583 C4584 1.374 . S
C4584 H4558 0.950 . S
C4584 C4580 1.385 . S
C4584 C4583 1.374 . S
C4585 C4582 1.499 . S
C4585 C4586 1.373 . S
C4585 C4587 1.389 . S
C4586 H4559 0.950 . S
C4586 C4572 1.377 . S
C4586 C4585 1.373 . S
C4587 C4571 1.377 . S
C4587 C4585 1.389 . S
C4587 C4588 1.524 . S
C4588 C4587 1.524 . S
C4588 C4589 1.397 . S
C4588 C4593 1.363 . S
C4589 H4560 0.950 . S
C4589 C4588 1.397 . S
C4589 C4590 1.334 . S
C4590 H4561 0.950 . S
C4590 C4589 1.334 . S
C4590 C4591 1.287 . S
C4591 C4590 1.287 . S
C4591 C4592 1.524 . S
C4591 H4594 0.999 . S
C4592 H4562 0.950 . S
C4592 C4591 1.524 . S
C4592 C4593 1.415 . S
C4593 H4563 0.950 . S
C4593 C4588 1.363 . S
C4593 C4592 1.415 . S
H4594 C4591 0.999 . S
H4595 C4576 0.913 . S
H4596 C4614 0.951 . S
H4597 C4616 0.951 . S
H4598 C4618 0.950 . S
H4599 C4619 0.950 . S
H4600 C4621 0.950 . S
H4601 C4624 0.950 . S
H4602 C4625 0.950 . S
H4603 C4627 0.950 . S
H4604 C4628 0.950 . S
H4605 C4629 0.951 . S
H4606 C4631 0.951 . S
H4607 C4633 0.950 . S
H4608 C4634 0.950 . S
H4609 C4636 0.950 . S
H4610 C4639 0.950 . S
H4611 C4640 0.950 . S
H4612 C4642 0.950 . S
H4613 C4643 0.950 . S
C4614 H4596 0.951 . S
C4614 C4615 1.366 . S
C4614 C4616 1.388 . S
C4615 C4614 1.366 . S
C4615 C4619 1.385 . S
C4616 H4597 0.951 . S
C4616 C4614 1.388 . S
C4616 C4617 1.366 . S
C4617 C4616 1.366 . S
C4617 C4618 1.414 . S
C4617 C4620 1.499 . S
C4618 H4598 0.950 . S
C4618 C4617 1.414 . S
C4618 C4619 1.374 . S
C4619 H4599 0.950 . S
C4619 C4615 1.385 . S
C4619 C4618 1.374 . S
C4620 C4617 1.499 . S
C4620 C4621 1.373 . S
C4620 C4622 1.389 . S
C4621 H4600 0.950 . S
C4621 C4620 1.373 . S
C4621 C4637 1.377 . S
C4622 C4620 1.389 . S
C4622 C4623 1.524 . S
C4622 C4636 1.377 . S
C4623 C4622 1.524 . S
C4623 C4624 1.397 . S
C4623 C4628 1.363 . S
C4624 H4601 0.950 . S
C4624 C4623 1.397 . S
C4624 C4625 1.334 . S
C4625 H4602 0.950 . S
C4625 C4624 1.334 . S
C4625 C4626 1.287 . S
C4626 C4625 1.287 . S
C4626 C4627 1.524 . S
C4626 H4645 0.913 . S
C4627 H4603 0.950 . S
C4627 C4626 1.524 . S
C4627 C4628 1.415 . S
C4628 H4604 0.950 . S
C4628 C4623 1.363 . S
C4628 C4627 1.415 . S
C4629 H4605 0.951 . S
C4629 C4630 1.366 . S
C4629 C4631 1.388 . S
C4630 C4629 1.366 . S
C4630 C4634 1.385 . S
C4631 H4606 0.951 . S
C4631 C4629 1.388 . S
C4631 C4632 1.366 . S
C4632 C4631 1.366 . S
C4632 C4633 1.414 . S
C4632 C4635 1.499 . S
C4633 H4607 0.950 . S
C4633 C4632 1.414 . S
C4633 C4634 1.374 . S
C4634 H4608 0.950 . S
C4634 C4630 1.385 . S
C4634 C4633 1.374 . S
C4635 C4632 1.499 . S
C4635 C4636 1.373 . S
C4635 C4637 1.389 . S
C4636 H4609 0.950 . S
C4636 C4622 1.377 . S
C4636 C4635 1.373 . S
C4637 C4621 1.377 . S
C4637 C4635 1.389 . S
C4637 C4638 1.524 . S
C4638 C4637 1.524 . S
C4638 C4639 1.397 . S
C4638 C4643 1.363 . S
C4639 H4610 0.950 . S
C4639 C4638 1.397 . S
C4639 C4640 1.334 . S
C4640 H4611 0.950 . S
C4640 C4639 1.334 . S
C4640 C4641 1.287 . S
C4641 C4640 1.287 . S
C4641 C4642 1.524 . S
C4641 H4644 0.999 . S
C4642 H4612 0.950 . S
C4642 C4641 1.524 . S
C4642 C4643 1.415 . S
C4643 H4613 0.950 . S
C4643 C4638 1.363 . S
C4643 C4642 1.415 . S
H4644 C4641 0.999 . S
H4645 C4626 0.913 . S
H4646 C4664 0.951 . S
H4647 C4666 0.951 . S
H4648 C4668 0.950 . S
H4649 C4669 0.950 . S
H4650 C4671 0.950 . S
H4651 C4674 0.950 . S
H4652 C4675 0.950 . S
H4653 C4677 0.950 . S
H4654 C4678 0.950 . S
H4655 C4679 0.951 . S
H4656 C4681 0.951 . S
H4657 C4683 0.950 . S
H4658 C4684 0.950 . S
H4659 C4686 0.950 . S
H4660 C4689 0.950 . S
H4661 C4690 0.950 . S
H4662 C4692 0.950 . S
H4663 C4693 0.950 . S
C4664 H4646 0.951 . S
C4664 C4665 1.366 . S
C4664 C4666 1.388 . S
C4665 C4664 1.366 . S
C4665 C4669 1.385 . S
C4666 H4647 0.951 . S
C4666 C4664 1.388 . S
C4666 C4667 1.366 . S
C4667 C4666 1.366 . S
C4667 C4668 1.414 . S
C4667 C4670 1.499 . S
C4668 H4648 0.950 . S
C4668 C4667 1.414 . S
C4668 C4669 1.374 . S
C4669 H4649 0.950 . S
C4669 C4665 1.385 . S
C4669 C4668 1.374 . S
C4670 C4667 1.499 . S
C4670 C4671 1.373 . S
C4670 C4672 1.389 . S
C4671 H4650 0.950 . S
C4671 C4670 1.373 . S
C4671 C4687 1.377 . S
C4672 C4670 1.389 . S
C4672 C4673 1.524 . S
C4672 C4686 1.377 . S
C4673 C4672 1.524 . S
C4673 C4674 1.397 . S
C4673 C4678 1.363 . S
C4674 H4651 0.950 . S
C4674 C4673 1.397 . S
C4674 C4675 1.334 . S
C4675 H4652 0.950 . S
C4675 C4674 1.334 . S
C4675 C4676 1.287 . S
C4676 C4675 1.287 . S
C4676 C4677 1.524 . S
C4676 H4695 0.913 . S
C4677 H4653 0.950 . S
C4677 C4676 1.524 . S
C4677 C4678 1.415 . S
C4678 H4654 0.950 . S
C4678 C4673 1.363 . S
C4678 C4677 1.415 . S
C4679 H4655 0.951 . S
C4679 C4680 1.366 . S
C4679 C4681 1.388 . S
C4680 C4679 1.366 . S
C4680 C4684 1.385 . S
C4681 H4656 0.951 . S
C4681 C4679 1.388 . S
C4681 C4682 1.366 . S
C4682 C4681 1.366 . S
C4682 C4683 1.414 . S
C4682 C4685 1.499 . S
C4683 H4657 0.950 . S
C4683 C4682 1.414 . S
C4683 C4684 1.374 . S
C4684 H4658 0.950 . S
C4684 C4680 1.385 . S
C4684 C4683 1.374 . S
C4685 C4682 1.499 . S
C4685 C4686 1.373 . S
C4685 C4687 1.389 . S
C4686 H4659 0.950 . S
C4686 C4672 1.377 . S
C4686 C4685 1.373 . S
C4687 C4671 1.377 . S
C4687 C4685 1.389 . S
C4687 C4688 1.524 . S
C4688 C4687 1.524 . S
C4688 C4689 1.397 . S
C4688 C4693 1.363 . S
C4689 H4660 0.950 . S
C4689 C4688 1.397 . S
C4689 C4690 1.334 . S
C4690 H4661 0.950 . S
C4690 C4689 1.334 . S
C4690 C4691 1.287 . S
C4691 C4690 1.287 . S
C4691 C4692 1.524 . S
C4691 H4694 0.999 . S
C4692 H4662 0.950 . S
C4692 C4691 1.524 . S
C4692 C4693 1.415 . S
C4693 H4663 0.950 . S
C4693 C4688 1.363 . S
C4693 C4692 1.415 . S
H4694 C4691 0.999 . S
H4695 C4676 0.913 . S
H4696 C4714 0.951 . S
H4697 C4716 0.951 . S
H4698 C4718 0.950 . S
H4699 C4719 0.950 . S
H4700 C4721 0.950 . S
H4701 C4724 0.950 . S
H4702 C4725 0.950 . S
H4703 C4727 0.950 . S
H4704 C4728 0.950 . S
H4705 C4729 0.951 . S
H4706 C4731 0.951 . S
H4707 C4733 0.950 . S
H4708 C4734 0.950 . S
H4709 C4736 0.950 . S
H4710 C4739 0.950 . S
H4711 C4740 0.950 . S
H4712 C4742 0.950 . S
H4713 C4743 0.950 . S
C4714 H4696 0.951 . S
C4714 C4715 1.366 . S
C4714 C4716 1.388 . S
C4715 C4714 1.366 . S
C4715 C4719 1.385 . S
C4716 H4697 0.951 . S
C4716 C4714 1.388 . S
C4716 C4717 1.366 . S
C4717 C4716 1.366 . S
C4717 C4718 1.414 . S
C4717 C4720 1.499 . S
C4718 H4698 0.950 . S
C4718 C4717 1.414 . S
C4718 C4719 1.374 . S
C4719 H4699 0.950 . S
C4719 C4715 1.385 . S
C4719 C4718 1.374 . S
C4720 C4717 1.499 . S
C4720 C4721 1.373 . S
C4720 C4722 1.389 . S
C4721 H4700 0.950 . S
C4721 C4720 1.373 . S
C4721 C4737 1.377 . S
C4722 C4720 1.389 . S
C4722 C4723 1.524 . S
C4722 C4736 1.377 . S
C4723 C4722 1.524 . S
C4723 C4724 1.397 . S
C4723 C4728 1.363 . S
C4724 H4701 0.950 . S
C4724 C4723 1.397 . S
C4724 C4725 1.334 . S
C4725 H4702 0.950 . S
C4725 C4724 1.334 . S
C4725 C4726 1.287 . S
C4726 C4725 1.287 . S
C4726 C4727 1.524 . S
C4726 H4745 0.913 . S
C4727 H4703 0.950 . S
C4727 C4726 1.524 . S
C4727 C4728 1.415 . S
C4728 H4704 0.950 . S
C4728 C4723 1.363 . S
C4728 C4727 1.415 . S
C4729 H4705 0.951 . S
C4729 C4730 1.366 . S
C4729 C4731 1.388 . S
C4730 C4729 1.366 . S
C4730 C4734 1.385 . S
C4731 H4706 0.951 . S
C4731 C4729 1.388 . S
C4731 C4732 1.366 . S
C4732 C4731 1.366 . S
C4732 C4733 1.414 . S
C4732 C4735 1.499 . S
C4733 H4707 0.950 . S
C4733 C4732 1.414 . S
C4733 C4734 1.374 . S
C4734 H4708 0.950 . S
C4734 C4730 1.385 . S
C4734 C4733 1.374 . S
C4735 C4732 1.499 . S
C4735 C4736 1.373 . S
C4735 C4737 1.389 . S
C4736 H4709 0.950 . S
C4736 C4722 1.377 . S
C4736 C4735 1.373 . S
C4737 C4721 1.377 . S
C4737 C4735 1.389 . S
C4737 C4738 1.524 . S
C4738 C4737 1.524 . S
C4738 C4739 1.397 . S
C4738 C4743 1.363 . S
C4739 H4710 0.950 . S
C4739 C4738 1.397 . S
C4739 C4740 1.334 . S
C4740 H4711 0.950 . S
C4740 C4739 1.334 . S
C4740 C4741 1.287 . S
C4741 C4740 1.287 . S
C4741 C4742 1.524 . S
C4741 H4744 0.999 . S
C4742 H4712 0.950 . S
C4742 C4741 1.524 . S
C4742 C4743 1.415 . S
C4743 H4713 0.950 . S
C4743 C4738 1.363 . S
C4743 C4742 1.415 . S
H4744 C4741 0.999 . S
H4745 C4726 0.913 . S
H4746 C4764 0.951 . S
H4747 C4766 0.951 . S
H4748 C4768 0.950 . S
H4749 C4769 0.950 . S
H4750 C4771 0.950 . S
H4751 C4774 0.950 . S
H4752 C4775 0.950 . S
H4753 C4777 0.950 . S
H4754 C4778 0.950 . S
H4755 C4779 0.951 . S
H4756 C4781 0.951 . S
H4757 C4783 0.950 . S
H4758 C4784 0.950 . S
H4759 C4786 0.950 . S
H4760 C4789 0.950 . S
H4761 C4790 0.950 . S
H4762 C4792 0.950 . S
H4763 C4793 0.950 . S
C4764 H4746 0.951 . S
C4764 C4765 1.366 . S
C4764 C4766 1.388 . S
C4765 C4764 1.366 . S
C4765 C4769 1.385 . S
C4766 H4747 0.951 . S
C4766 C4764 1.388 . S
C4766 C4767 1.366 . S
C4767 C4766 1.366 . S
C4767 C4768 1.414 . S
C4767 C4770 1.499 . S
C4768 H4748 0.950 . S
C4768 C4767 1.414 . S
C4768 C4769 1.374 . S
C4769 H4749 0.950 . S
C4769 C4765 1.385 . S
C4769 C4768 1.374 . S
C4770 C4767 1.499 . S
C4770 C4771 1.373 . S
C4770 C4772 1.389 . S
C4771 H4750 0.950 . S
C4771 C4770 1.373 . S
C4771 C4787 1.377 . S
C4772 C4770 1.389 . S
C4772 C4773 1.524 . S
C4772 C4786 1.377 . S
C4773 C4772 1.524 . S
C4773 C4774 1.397 . S
C4773 C4778 1.363 . S
C4774 H4751 0.950 . S
C4774 C4773 1.397 . S
C4774 C4775 1.334 . S
C4775 H4752 0.950 . S
C4775 C4774 1.334 . S
C4775 C4776 1.287 . S
C4776 C4775 1.287 . S
C4776 C4777 1.524 . S
C4776 H4795 0.913 . S
C4777 H4753 0.950 . S
C4777 C4776 1.524 . S
C4777 C4778 1.415 . S
C4778 H4754 0.950 . S
C4778 C4773 1.363 . S
C4778 C4777 1.415 . S
C4779 H4755 0.951 . S
C4779 C4780 1.366 . S
C4779 C4781 1.388 . S
C4780 C4779 1.366 . S
C4780 C4784 1.385 . S
C4781 H4756 0.951 . S
C4781 C4779 1.388 . S
C4781 C4782 1.366 . S
C4782 C4781 1.366 . S
C4782 C4783 1.414 . S
C4782 C4785 1.499 . S
C4783 H4757 0.950 . S
C4783 C4782 1.414 . S
C4783 C4784 1.374 . S
C4784 H4758 0.950 . S
C4784 C4780 1.385 . S
C4784 C4783 1.374 . S
C4785 C4782 1.499 . S
C4785 C4786 1.373 . S
C4785 C4787 1.389 . S
C4786 H4759 0.950 . S
C4786 C4772 1.377 . S
C4786 C4785 1.373 . S
C4787 C4771 1.377 . S
C4787 C4785 1.389 . S
C4787 C4788 1.524 . S
C4788 C4787 1.524 . S
C4788 C4789 1.397 . S
C4788 C4793 1.363 . S
C4789 H4760 0.950 . S
C4789 C4788 1.397 . S
C4789 C4790 1.334 . S
C4790 H4761 0.950 . S
C4790 C4789 1.334 . S
C4790 C4791 1.287 . S
C4791 C4790 1.287 . S
C4791 C4792 1.524 . S
C4791 H4794 0.999 . S
C4792 H4762 0.950 . S
C4792 C4791 1.524 . S
C4792 C4793 1.415 . S
C4793 H4763 0.950 . S
C4793 C4788 1.363 . S
C4793 C4792 1.415 . S
H4794 C4791 0.999 . S
H4795 C4776 0.913 . S
H4796 C4814 0.951 . S
H4797 C4816 0.951 . S
H4798 C4818 0.950 . S
H4799 C4819 0.950 . S
H4800 C4821 0.950 . S
H4801 C4824 0.950 . S
H4802 C4825 0.950 . S
H4803 C4827 0.950 . S
H4804 C4828 0.950 . S
H4805 C4829 0.951 . S
H4806 C4831 0.951 . S
H4807 C4833 0.950 . S
H4808 C4834 0.950 . S
H4809 C4836 0.950 . S
H4810 C4839 0.950 . S
H4811 C4840 0.950 . S
H4812 C4842 0.950 . S
H4813 C4843 0.950 . S
C4814 H4796 0.951 . S
C4814 C4815 1.366 . S
C4814 C4816 1.388 . S
C4815 C4814 1.366 . S
C4815 C4819 1.385 . S
C4816 H4797 0.951 . S
C4816 C4814 1.388 . S
C4816 C4817 1.366 . S
C4817 C4816 1.366 . S
C4817 C4818 1.414 . S
C4817 C4820 1.499 . S
C4818 H4798 0.950 . S
C4818 C4817 1.414 . S
C4818 C4819 1.374 . S
C4819 H4799 0.950 . S
C4819 C4815 1.385 . S
C4819 C4818 1.374 . S
C4820 C4817 1.499 . S
C4820 C4821 1.373 . S
C4820 C4822 1.389 . S
C4821 H4800 0.950 . S
C4821 C4820 1.373 . S
C4821 C4837 1.377 . S
C4822 C4820 1.389 . S
C4822 C4823 1.524 . S
C4822 C4836 1.377 . S
C4823 C4822 1.524 . S
C4823 C4824 1.397 . S
C4823 C4828 1.363 . S
C4824 H4801 0.950 . S
C4824 C4823 1.397 . S
C4824 C4825 1.334 . S
C4825 H4802 0.950 . S
C4825 C4824 1.334 . S
C4825 C4826 1.287 . S
C4826 C4825 1.287 . S
C4826 C4827 1.524 . S
C4826 H4845 0.913 . S
C4827 H4803 0.950 . S
C4827 C4826 1.524 . S
C4827 C4828 1.415 . S
C4828 H4804 0.950 . S
C4828 C4823 1.363 . S
C4828 C4827 1.415 . S
C4829 H4805 0.951 . S
C4829 C4830 1.366 . S
C4829 C4831 1.388 . S
C4830 C4829 1.366 . S
C4830 C4834 1.385 . S
C4831 H4806 0.951 . S
C4831 C4829 1.388 . S
C4831 C4832 1.366 . S
C4832 C4831 1.366 . S
C4832 C4833 1.414 . S
C4832 C4835 1.499 . S
C4833 H4807 0.950 . S
C4833 C4832 1.414 . S
C4833 C4834 1.374 . S
C4834 H4808 0.950 . S
C4834 C4830 1.385 . S
C4834 C4833 1.374 . S
C4835 C4832 1.499 . S
C4835 C4836 1.373 . S
C4835 C4837 1.389 . S
C4836 H4809 0.950 . S
C4836 C4822 1.377 . S
C4836 C4835 1.373 . S
C4837 C4821 1.377 . S
C4837 C4835 1.389 . S
C4837 C4838 1.524 . S
C4838 C4837 1.524 . S
C4838 C4839 1.397 . S
C4838 C4843 1.363 . S
C4839 H4810 0.950 . S
C4839 C4838 1.397 . S
C4839 C4840 1.334 . S
C4840 H4811 0.950 . S
C4840 C4839 1.334 . S
C4840 C4841 1.287 . S
C4841 C4840 1.287 . S
C4841 C4842 1.524 . S
C4841 H4844 0.999 . S
C4842 H4812 0.950 . S
C4842 C4841 1.524 . S
C4842 C4843 1.415 . S
C4843 H4813 0.950 . S
C4843 C4838 1.363 . S
C4843 C4842 1.415 . S
H4844 C4841 0.999 . S
H4845 C4826 0.913 . S
H4846 C4864 0.951 . S
H4847 C4866 0.951 . S
H4848 C4868 0.950 . S
H4849 C4869 0.950 . S
H4850 C4871 0.950 . S
H4851 C4874 0.950 . S
H4852 C4875 0.950 . S
H4853 C4877 0.950 . S
H4854 C4878 0.950 . S
H4855 C4879 0.951 . S
H4856 C4881 0.951 . S
H4857 C4883 0.950 . S
H4858 C4884 0.950 . S
H4859 C4886 0.950 . S
H4860 C4889 0.950 . S
H4861 C4890 0.950 . S
H4862 C4892 0.950 . S
H4863 C4893 0.950 . S
C4864 H4846 0.951 . S
C4864 C4865 1.366 . S
C4864 C4866 1.388 . S
C4865 C4864 1.366 . S
C4865 C4869 1.385 . S
C4866 H4847 0.951 . S
C4866 C4864 1.388 . S
C4866 C4867 1.366 . S
C4867 C4866 1.366 . S
C4867 C4868 1.414 . S
C4867 C4870 1.499 . S
C4868 H4848 0.950 . S
C4868 C4867 1.414 . S
C4868 C4869 1.374 . S
C4869 H4849 0.950 . S
C4869 C4865 1.385 . S
C4869 C4868 1.374 . S
C4870 C4867 1.499 . S
C4870 C4871 1.373 . S
C4870 C4872 1.389 . S
C4871 H4850 0.950 . S
C4871 C4870 1.373 . S
C4871 C4887 1.377 . S
C4872 C4870 1.389 . S
C4872 C4873 1.524 . S
C4872 C4886 1.377 . S
C4873 C4872 1.524 . S
C4873 C4874 1.397 . S
C4873 C4878 1.363 . S
C4874 H4851 0.950 . S
C4874 C4873 1.397 . S
C4874 C4875 1.334 . S
C4875 H4852 0.950 . S
C4875 C4874 1.334 . S
C4875 C4876 1.287 . S
C4876 C4875 1.287 . S
C4876 C4877 1.524 . S
C4876 H4895 0.913 . S
C4877 H4853 0.950 . S
C4877 C4876 1.524 . S
C4877 C4878 1.415 . S
C4878 H4854 0.950 . S
C4878 C4873 1.363 . S
C4878 C4877 1.415 . S
C4879 H4855 0.951 . S
C4879 C4880 1.366 . S
C4879 C4881 1.388 . S
C4880 C4879 1.366 . S
C4880 C4884 1.385 . S
C4881 H4856 0.951 . S
C4881 C4879 1.388 . S
C4881 C4882 1.366 . S
C4882 C4881 1.366 . S
C4882 C4883 1.414 . S
C4882 C4885 1.499 . S
C4883 H4857 0.950 . S
C4883 C4882 1.414 . S
C4883 C4884 1.374 . S
C4884 H4858 0.950 . S
C4884 C4880 1.385 . S
C4884 C4883 1.374 . S
C4885 C4882 1.499 . S
C4885 C4886 1.373 . S
C4885 C4887 1.389 . S
C4886 H4859 0.950 . S
C4886 C4872 1.377 . S
C4886 C4885 1.373 . S
C4887 C4871 1.377 . S
C4887 C4885 1.389 . S
C4887 C4888 1.524 . S
C4888 C4887 1.524 . S
C4888 C4889 1.397 . S
C4888 C4893 1.363 . S
C4889 H4860 0.950 . S
C4889 C4888 1.397 . S
C4889 C4890 1.334 . S
C4890 H4861 0.950 . S
C4890 C4889 1.334 . S
C4890 C4891 1.287 . S
C4891 C4890 1.287 . S
C4891 C4892 1.524 . S
C4891 H4894 0.999 . S
C4892 H4862 0.950 . S
C4892 C4891 1.524 . S
C4892 C4893 1.415 . S
C4893 H4863 0.950 . S
C4893 C4888 1.363 . S
C4893 C4892 1.415 . S
H4894 C4891 0.999 . S
H4895 C4876 0.913 . S
C715 C15 1.911 . S
C730 C559 2.073 . S
C765 C588 2.073 . S
C780 C44 1.911 . S
C815 C73 1.912 . S
C830 C501 2.073 . S
C865 C530 2.073 . S
C880 C102 1.911 . S
C915 C617 2.073 . S
C930 C131 1.911 . S
C965 C160 1.912 . S
C980 C646 2.073 . S
C1015 C472 2.073 . S
C1030 C189 1.911 . S
C1065 C218 1.911 . S
C1080 C675 2.073 . S
C1115 C66 2.073 . S
C1130 C247 1.911 . S
C1165 C276 1.911 . S
C1180 C95 2.073 . S
C1215 C8 2.073 . S
C1230 C305 1.911 . S
C1265 C334 1.911 . S
C1280 C37 2.073 . S
C1315 C363 1.912 . S
C1330 C182 2.073 . S
C1365 C211 2.073 . S
C1380 C392 1.912 . S
C1415 C421 1.911 . S
C1430 C124 2.073 . S
C1465 C153 2.073 . S
C1480 C450 1.911 . S
C1515 C356 2.073 . S
C1530 C479 1.911 . S
C1565 C240 2.073 . S
C1580 C508 1.912 . S
C1615 C269 2.073 . S
C1630 C537 1.911 . S
C1665 C566 1.912 . S
C1680 C298 2.073 . S
C1715 C595 1.911 . S
C1730 C327 2.073 . S
C1765 C624 1.912 . S
C1780 C414 2.073 . S
C1815 C443 2.073 . S
C1830 C653 1.912 . S
C1865 C682 1.912 . S
C1880 C385 2.073 . S
C1915 C5 2.476 . S
C1930 C63 2.476 . S
C1965 C34 2.477 . S
C1980 C92 2.476 . S
C2015 C179 2.477 . S
C2030 C121 2.477 . S
C2065 C150 2.476 . S
C2080 C208 2.476 . S
C2115 C237 2.477 . S
C2130 C353 2.477 . S
C2165 C382 2.477 . S
C2180 C266 2.477 . S
C2215 C295 2.476 . S
C2230 C411 2.476 . S
C2265 C324 2.477 . S
C2280 C440 2.476 . S
C2315 C469 2.477 . S
C2330 C556 2.477 . S
C2365 C614 2.477 . S
C2380 C498 2.477 . S
C2415 C643 2.477 . S
C2430 C527 2.477 . S
C2465 C585 2.476 . S
C2480 C672 2.476 . S
C2515 C651 1.584 . S
C2530 C13 1.583 . S
C2565 C42 1.584 . S
C2580 C477 1.583 . S
C2615 C680 1.583 . S
C2630 C71 1.584 . S
C2665 C100 1.584 . S
C2680 C622 1.583 . S
C2715 C535 1.583 . S
C2730 C129 1.584 . S
C2765 C158 1.583 . S
C2780 C564 1.584 . S
C2815 C187 1.584 . S
C2830 C593 1.583 . S
C2865 C506 1.583 . S
C2880 C216 1.584 . S
C2915 C390 1.584 . S
C2930 C245 1.583 . S
C2965 C419 1.583 . S
C2980 C274 1.584 . S
C3015 C448 1.583 . S
C3030 C303 1.584 . S
C3065 C332 1.583 . S
C3080 C361 1.584 . S
C3115 C300 1.278 . S
C3130 C155 1.278 . S
C3165 C184 1.278 . S
C3180 C329 1.279 . S
C3215 C213 1.279 . S
C3230 C242 1.278 . S
C3265 C271 1.278 . S
C3280 C126 1.278 . S
C3315 C97 1.277 . S
C3330 C416 1.278 . S
C3365 C445 1.278 . S
C3380 C10 1.278 . S
C3415 C39 1.279 . S
C3430 C358 1.278 . S
C3465 C387 1.278 . S
C3480 C68 1.278 . S
C3515 C503 1.277 . S
C3530 C677 1.279 . S
C3565 C532 1.277 . S
C3580 C619 1.279 . S
C3615 C648 1.278 . S
C3630 C561 1.278 . S
C3665 C590 1.279 . S
C3680 C474 1.277 . S
C3715 C21 1.044 . S
C3730 C137 1.044 . S
C3765 C50 1.045 . S
C3780 C166 1.045 . S
C3815 C195 1.046 . S
C3830 C79 1.046 . S
C3865 C108 1.046 . S
C3880 C224 1.046 . S
C3915 C253 1.046 . S
C3930 C427 1.046 . S
C3965 C282 1.044 . S
C3980 C456 1.044 . S
C4015 C311 1.045 . S
C4030 C369 1.045 . S
C4065 C398 1.046 . S
C4080 C340 1.046 . S
C4115 C485 1.046 . S
C4130 C630 1.046 . S
C4165 C514 1.046 . S
C4180 C572 1.047 . S
C4215 C543 1.046 . S
C4230 C601 1.046 . S
C4265 C659 1.045 . S
C4280 C688 1.045 . S
C4315 C90 0.670 . S
C4330 C148 0.670 . S
C4365 C177 0.670 . S
C4380 C3 0.670 . S
C4415 C32 0.671 . S
C4430 C206 0.671 . S
C4465 C61 0.671 . S
C4480 C119 0.670 . S
C4515 C525 0.671 . S
C4530 C670 0.670 . S
C4565 C612 0.670 . S
C4580 C554 0.670 . S
C4615 C641 0.670 . S
C4630 C583 0.670 . S
C4665 C496 0.671 . S
C4680 C467 0.671 . S
C4715 C264 0.670 . S
C4730 C322 0.670 . S
C4765 C380 0.670 . S
C4780 C438 0.671 . S
C4815 C409 0.670 . S
C4830 C351 0.670 . S
C4865 C235 0.670 . S
C4880 C293 0.670 . S
