# Generated by pormake.
# Topology dia, (4)-cn, num edge types: 1
# Building blocks:
#     Node 0, Type 0, BuildingBlock: GALJAG_clean_sbu_0, # of connection points: 4
#     Node 1, Type 0, BuildingBlock: GALJAG_clean_sbu_0, # of connection points: 4
#     Node 2, Type 0, BuildingBlock: GALJAG_clean_sbu_0, # of connection points: 4
#     Node 3, Type 0, BuildingBlock: GALJAG_clean_sbu_0, # of connection points: 4
#     Node 4, Type 0, BuildingBlock: GALJAG_clean_sbu_0, # of connection points: 4
#     Node 5, Type 0, BuildingBlock: GALJAG_clean_sbu_0, # of connection points: 4
#     Node 6, Type 0, BuildingBlock: GALJAG_clean_sbu_0, # of connection points: 4
#     Node 7, Type 0, BuildingBlock: GALJAG_clean_sbu_0, # of connection points: 4
#     Edge 8, Type (0, 0), BuildingBlock: XIVTED_clean_linker_0, # of connection points: 2
#     Edge 9, Type (0, 0), BuildingBlock: XIVTED_clean_linker_0, # of connection points: 2
#     Edge 10, Type (0, 0), BuildingBlock: XIVTED_clean_linker_0, # of connection points: 2
#     Edge 11, Type (0, 0), BuildingBlock: XIVTED_clean_linker_0, # of connection points: 2
#     Edge 12, Type (0, 0), BuildingBlock: XIVTED_clean_linker_0, # of connection points: 2
#     Edge 13, Type (0, 0), BuildingBlock: XIVTED_clean_linker_0, # of connection points: 2
#     Edge 14, Type (0, 0), BuildingBlock: XIVTED_clean_linker_0, # of connection points: 2
#     Edge 15, Type (0, 0), BuildingBlock: XIVTED_clean_linker_0, # of connection points: 2
#     Edge 16, Type (0, 0), BuildingBlock: XIVTED_clean_linker_0, # of connection points: 2
#     Edge 17, Type (0, 0), BuildingBlock: XIVTED_clean_linker_0, # of connection points: 2
#     Edge 18, Type (0, 0), BuildingBlock: XIVTED_clean_linker_0, # of connection points: 2
#     Edge 19, Type (0, 0), BuildingBlock: XIVTED_clean_linker_0, # of connection points: 2
#     Edge 20, Type (0, 0), BuildingBlock: XIVTED_clean_linker_0, # of connection points: 2
#     Edge 21, Type (0, 0), BuildingBlock: XIVTED_clean_linker_0, # of connection points: 2
#     Edge 22, Type (0, 0), BuildingBlock: XIVTED_clean_linker_0, # of connection points: 2
#     Edge 23, Type (0, 0), BuildingBlock: XIVTED_clean_linker_0, # of connection points: 2
# Relax obj value: 0.058
# Max RMSD: 0.096
# Mean RMSD: 0.096
data_MOF--net-dia--node1-GALJAG_clean_sbu_0--edge1-XIVTED_clean_linker_0
_symmetry_space_group_name_H-M    P1
_symmetry_Int_Tables_number       1
_symmetry_cell_setting            triclinic
loop_
_symmetry_equiv_pos_as_xyz
'x, y, z'
_cell_length_a     23.688247
_cell_length_b     40.144901
_cell_length_c     40.330142
_cell_angle_alpha  90.03814
_cell_angle_beta   90.216325
_cell_angle_gamma 90.264212
loop_
_atom_site_label
_atom_site_type_symbol
_atom_site_fract_x
_atom_site_fract_y
_atom_site_fract_z
_atom_type_partial_charge
In0 In 0.09948 0.12068 0.62023 0.0
O1 O 0.17431 0.14653 0.5953 0.0
O2 O 0.09124 0.16052 0.58073 0.0
C3 C 0.14717 0.07743 0.6628 0.0
C4 C 0.05409 0.16351 0.66392 0.0
C5 C 0.05349 0.07707 0.57709 0.0
O6 O 0.17636 0.09614 0.64428 0.0
O7 O 0.09447 0.08069 0.65974 0.0
O8 O 0.02354 0.09511 0.59571 0.0
O9 O 0.10604 0.08117 0.58037 0.0
C10 C 0.14366 0.16468 0.57707 0.0
O11 O 0.02387 0.14495 0.64566 0.0
O12 O 0.10659 0.16031 0.66003 0.0
In13 In 0.85648 0.3722 0.87002 0.0
O14 O 0.93162 0.3471 0.84504 0.0
O15 O 0.84872 0.33167 0.83111 0.0
C16 C 0.90361 0.41594 0.9126 0.0
C17 C 0.8104 0.41514 0.82652 0.0
C18 C 0.81114 0.32962 0.91416 0.0
O19 O 0.93307 0.39709 0.8945 0.0
O20 O 0.85095 0.41264 0.90904 0.0
O21 O 0.78092 0.34782 0.89573 0.0
O22 O 0.86364 0.33298 0.91014 0.0
C23 C 0.90119 0.32823 0.82722 0.0
O24 O 0.7805 0.39683 0.84505 0.0
O25 O 0.86298 0.41164 0.83004 0.0
In26 In 0.60248 0.12354 0.11988 0.0
O27 O 0.52674 0.14783 0.14523 0.0
O28 O 0.60951 0.16219 0.16055 0.0
C29 C 0.55851 0.08085 0.07513 0.0
C30 C 0.64792 0.16815 0.07786 0.0
C31 C 0.64725 0.0793 0.16247 0.0
O32 O 0.52764 0.09852 0.09362 0.0
O33 O 0.6109 0.08487 0.07935 0.0
O34 O 0.67773 0.09856 0.14524 0.0
O35 O 0.5948 0.08247 0.15805 0.0
C36 C 0.55699 0.1657 0.16416 0.0
O37 O 0.67812 0.14918 0.09553 0.0
O38 O 0.59539 0.16453 0.08158 0.0
In39 In 0.85274 0.87129 0.36726 0.0
O40 O 0.77742 0.89625 0.34188 0.0
O41 O 0.86031 0.9122 0.3289 0.0
C42 C 0.80685 0.8271 0.40959 0.0
C43 C 0.89876 0.8289 0.32341 0.0
C44 C 0.89821 0.91387 0.41157 0.0
O45 O 0.77682 0.84605 0.39181 0.0
O46 O 0.85938 0.83053 0.40581 0.0
O47 O 0.92835 0.89592 0.39296 0.0
O48 O 0.84567 0.91023 0.40769 0.0
C49 C 0.80786 0.91541 0.32453 0.0
O50 O 0.92867 0.84693 0.34235 0.0
O51 O 0.84618 0.83236 0.32674 0.0
In52 In 0.10992 0.62246 0.11982 0.0
O53 O 0.18656 0.64717 0.09541 0.0
O54 O 0.10432 0.66157 0.07962 0.0
C55 C 0.15317 0.57891 0.16372 0.0
C56 C 0.06451 0.66662 0.16214 0.0
C57 C 0.06343 0.57913 0.07661 0.0
O58 O 0.1843 0.59665 0.14533 0.0
O59 O 0.10087 0.58331 0.15985 0.0
O60 O 0.03376 0.59797 0.0946 0.0
O61 O 0.11605 0.58224 0.08057 0.0
C62 C 0.15694 0.66524 0.0765 0.0
O63 O 0.03439 0.64807 0.14382 0.0
O64 O 0.11705 0.66276 0.15901 0.0
In65 In 0.35124 0.37091 0.37105 0.0
O66 O 0.42634 0.34532 0.34646 0.0
O67 O 0.34332 0.3306 0.33197 0.0
C68 C 0.3969 0.41469 0.41413 0.0
C69 C 0.3077 0.41426 0.32711 0.0
C70 C 0.30537 0.32803 0.41466 0.0
O71 O 0.427 0.39585 0.39637 0.0
O72 O 0.34436 0.41131 0.41002 0.0
O73 O 0.27526 0.346 0.39592 0.0
O74 O 0.35791 0.33184 0.41123 0.0
C75 C 0.39578 0.32677 0.32837 0.0
O76 O 0.27664 0.3965 0.34554 0.0
O77 O 0.36003 0.40997 0.33096 0.0
In78 In 0.3572 0.87187 0.86838 0.0
O79 O 0.43299 0.84724 0.84331 0.0
O80 O 0.35026 0.83156 0.82931 0.0
C81 C 0.40153 0.91641 0.91122 0.0
C82 C 0.30993 0.91433 0.8249 0.0
C83 C 0.31252 0.82852 0.91199 0.0
O84 O 0.43228 0.89812 0.89327 0.0
O85 O 0.34914 0.91206 0.90742 0.0
O86 O 0.28213 0.84632 0.89328 0.0
O87 O 0.36501 0.83269 0.9086 0.0
C88 C 0.40274 0.82835 0.82538 0.0
O89 O 0.2806 0.89586 0.84357 0.0
O90 O 0.36262 0.91123 0.82825 0.0
In91 In 0.60783 0.62182 0.61941 0.0
O92 O 0.5328 0.64677 0.64479 0.0
O93 O 0.61583 0.66224 0.65841 0.0
C94 C 0.56161 0.57797 0.57657 0.0
C95 C 0.65296 0.66461 0.57541 0.0
C96 C 0.65387 0.57883 0.66284 0.0
O97 O 0.5317 0.59676 0.59448 0.0
O98 O 0.61417 0.58141 0.58045 0.0
O99 O 0.68379 0.59724 0.64442 0.0
O100 O 0.60129 0.58225 0.65924 0.0
C101 C 0.56341 0.66559 0.66256 0.0
O102 O 0.68325 0.64636 0.59376 0.0
O103 O 0.60047 0.66121 0.57945 0.0
H104 H 0.36301 0.28767 0.45708 0.0
H105 H 0.08529 0.20574 0.5355 0.0
H106 H 0.19395 0.31411 0.42719 0.0
H107 H 0.25469 0.17894 0.56438 0.0
H108 H 0.12404 0.24581 0.49602 0.0
H109 H 0.32391 0.24808 0.49679 0.0
C110 C 0.31758 0.28514 0.45889 0.0
C111 C 0.28163 0.30419 0.43879 0.0
C112 C 0.15278 0.2312 0.51097 0.0
C113 C 0.23652 0.25884 0.48426 0.0
C114 C 0.13069 0.2083 0.53353 0.0
C115 C 0.16688 0.18898 0.55322 0.0
C116 C 0.21153 0.23482 0.50808 0.0
C117 C 0.2253 0.19333 0.54965 0.0
C118 C 0.29528 0.26251 0.48158 0.0
C119 C 0.22315 0.2999 0.44221 0.0
N120 N 0.24581 0.2158 0.5275 0.0
N121 N 0.20239 0.27765 0.46452 0.0
H122 H 0.76542 0.56609 0.67558 0.0
H123 H 0.69886 0.42793 0.81384 0.0
H124 H 0.59699 0.53722 0.70458 0.0
H125 H 0.86728 0.45663 0.78467 0.0
H126 H 0.66057 0.46788 0.77391 0.0
H127 H 0.8037 0.52611 0.71548 0.0
C128 C 0.73654 0.55134 0.69035 0.0
C129 C 0.67799 0.55495 0.68679 0.0
C130 C 0.70591 0.46544 0.77624 0.0
C131 C 0.72134 0.50921 0.73244 0.0
C132 C 0.72774 0.44264 0.79902 0.0
C133 C 0.78628 0.43899 0.80255 0.0
C134 C 0.74293 0.48471 0.75687 0.0
C135 C 0.82183 0.45866 0.78274 0.0
C136 C 0.75836 0.52853 0.71312 0.0
C137 C 0.64244 0.53523 0.70654 0.0
N138 N 0.79961 0.48066 0.76077 0.0
N139 N 0.66466 0.51322 0.7285 0.0
H140 H 0.61774 0.04099 0.03311 0.0
H141 H 0.34244 0.95773 0.95184 0.0
H142 H 0.44767 0.06654 0.06104 0.0
H143 H 0.51245 0.93119 0.92473 0.0
H144 H 0.38021 -0.0018 0.99137 0.0
H145 H 0.58003 0.00128 0.99277 0.0
C146 C 0.57239 0.03825 0.03073 0.0
C147 C 0.53573 0.05706 0.05049 0.0
C148 C 0.40933 0.98357 0.9768 0.0
C149 C 0.49225 0.01158 0.00432 0.0
C150 C 0.38779 0.96044 0.9542 0.0
C151 C 0.42442 0.94104 0.935 0.0
C152 C 0.46798 0.98739 0.98027 0.0
C153 C 0.48275 0.94562 0.93907 0.0
C154 C 0.5509 0.01555 0.00768 0.0
C155 C 0.47741 0.05252 0.04633 0.0
N156 N 0.50275 0.96832 0.96129 0.0
N157 N 0.45746 0.03021 0.02371 0.0
H158 H 0.84187 0.78821 0.28052 0.0
H159 H 0.12168 0.70871 0.2036 0.0
H160 H 0.01031 0.81607 0.31121 0.0
H161 H 0.9531 0.67998 0.17398 0.0
H162 H 0.08179 0.7487 0.24257 0.0
H163 H 0.88189 0.74904 0.24082 0.0
C164 C 0.88735 0.78608 0.27889 0.0
C165 C 0.92288 0.80537 0.29921 0.0
C166 C 0.05347 0.73368 0.22756 0.0
C167 C 0.96901 0.76054 0.25379 0.0
C168 C 0.07621 0.71083 0.2053 0.0
C169 C 0.04059 0.69097 0.18557 0.0
C170 C -0.00537 0.73672 0.23015 0.0
C171 C -0.01795 0.69479 0.18876 0.0
C172 C 0.91017 0.7637 0.2562 0.0
C173 C -0.01857 0.80163 0.29602 0.0
N174 N 0.96088 0.71721 0.21066 0.0
N175 N 0.00269 0.77962 0.27374 0.0
H176 H 0.19799 0.92628 0.8128 0.0
H177 H 0.2592 0.06511 0.6744 0.0
H178 H 0.36532 0.9561 0.7826 0.0
H179 H 0.09195 0.03522 0.7047 0.0
H180 H 0.29907 0.02513 0.71376 0.0
H181 H 0.15822 0.96593 0.7731 0.0
C182 C 0.22632 0.94116 0.7978 0.0
C183 C 0.28499 0.93793 0.80098 0.0
C184 C 0.25364 0.02732 0.71179 0.0
C185 C 0.23994 0.98332 0.75556 0.0
C186 C 0.23091 0.05013 0.68934 0.0
C187 C 0.17223 0.05347 0.68632 0.0
C188 C 0.21739 0.00773 0.73135 0.0
C189 C 0.13747 0.03345 0.70625 0.0
C190 C 0.20365 0.96379 0.77514 0.0
C191 C 0.31981 0.95781 0.78094 0.0
N192 N 0.16057 0.01145 0.72791 0.0
N193 N 0.29676 0.97966 0.7591 0.0
H194 H 0.01544 0.42776 0.92595 0.0
H195 H 0.95176 0.56756 0.06282 0.0
H196 H 0.84772 0.45871 0.95333 0.0
H197 H 0.11959 0.53649 0.03581 0.0
H198 H 0.91274 0.52785 0.02266 0.0
H199 H 0.05463 0.46762 0.96594 0.0
C200 C -0.01309 0.44297 0.94036 0.0
C201 C 0.9283 0.43995 0.93635 0.0
C202 C 0.95811 0.52972 0.02552 0.0
C203 C 0.97266 0.48553 0.9821 0.0
C204 C -0.01964 0.55237 0.04844 0.0
C205 C 0.03894 0.55529 0.05262 0.0
C206 C -0.00524 0.50987 0.00667 0.0
C207 C 0.07412 0.53503 0.03336 0.0
C208 C 0.00925 0.4657 0.96319 0.0
C209 C 0.8932 0.46023 0.95565 0.0
N210 N 0.05149 0.51318 0.01123 0.0
N211 N 0.91592 0.48214 0.97768 0.0
H212 H 0.33745 0.28482 0.28733 0.0
H213 H 0.61492 0.20605 0.20684 0.0
H214 H 0.50687 0.3135 0.31526 0.0
H215 H 0.44568 0.17852 0.17743 0.0
H216 H 0.57603 0.24486 0.24725 0.0
H217 H 0.37616 0.24514 0.24763 0.0
C218 C 0.38286 0.28274 0.28512 0.0
C219 C 0.41906 0.30251 0.30459 0.0
C220 C 0.54733 0.23036 0.232 0.0
C221 C 0.46366 0.25712 0.25914 0.0
C222 C 0.5695 0.20818 0.2089 0.0
C223 C 0.53342 0.18907 0.18872 0.0
C224 C 0.48857 0.23351 0.235 0.0
C225 C 0.47497 0.19281 0.19248 0.0
C226 C 0.40492 0.26008 0.26243 0.0
C227 C 0.47748 0.29876 0.30071 0.0
N228 N 0.45434 0.21463 0.21518 0.0
N229 N 0.49798 0.27652 0.2784 0.0
H230 H 0.69543 0.81482 0.42337 0.0
H231 H 0.76418 0.67648 0.56101 0.0
H232 H 0.86415 0.78437 0.44986 0.0
H233 H 0.59529 0.70623 0.53409 0.0
H234 H 0.8017 0.71574 0.52015 0.0
H235 H 0.65769 0.7749 0.46357 0.0
C236 C 0.72449 0.7997 0.43762 0.0
C237 C 0.78296 0.80291 0.43333 0.0
C238 C 0.75642 0.71368 0.52318 0.0
C239 C 0.74025 0.75727 0.47933 0.0
C240 C 0.73504 0.69128 0.5465 0.0
C241 C 0.67659 0.68814 0.55094 0.0
C242 C 0.71906 0.73307 0.50419 0.0
C243 C 0.64068 0.70789 0.53147 0.0
C244 C 0.70297 0.77693 0.46056 0.0
C245 C 0.81875 0.78272 0.45241 0.0
N246 N 0.66249 0.72952 0.50897 0.0
N247 N 0.79684 0.7608 0.47459 0.0
H248 H 0.09336 0.539 0.20565 0.0
H249 H 0.36736 0.45408 0.28505 0.0
H250 H 0.26373 0.56364 0.17678 0.0
H251 H 0.19705 0.42941 0.31402 0.0
H252 H 0.33017 0.4942 0.24523 0.0
H253 H 0.13048 0.49878 0.24542 0.0
C254 C 0.13865 0.53594 0.2077 0.0
C255 C 0.17558 0.55468 0.18789 0.0
C256 C 0.30086 0.48004 0.26026 0.0
C257 C 0.21838 0.50863 0.23339 0.0
C258 C 0.32206 0.45711 0.28302 0.0
C259 C 0.28518 0.4384 0.30288 0.0
C260 C 0.24229 0.48435 0.2573 0.0
C261 C 0.22694 0.44333 0.29919 0.0
C262 C 0.15981 0.51296 0.23042 0.0
C263 C 0.23381 0.54971 0.19158 0.0
N264 N 0.20727 0.46586 0.27683 0.0
N265 N 0.25343 0.52713 0.2139 0.0
H266 H 0.8688 0.28827 0.9557 0.0
H267 H 0.59039 0.21119 0.038 0.0
H268 H 0.69985 0.31755 0.9284 0.0
H269 H 0.75925 0.18065 0.06406 0.0
H270 H 0.62973 0.25095 -0.00154 0.0
H271 H 0.82953 0.24937 -0.0039 0.0
C272 C 0.82337 0.2865 0.95822 0.0
C273 C 0.78748 0.30613 0.93865 0.0
C274 C 0.65824 0.23559 0.01282 0.0
C275 C 0.74221 0.26163 0.98489 0.0
C276 C 0.63582 0.21289 0.03541 0.0
C277 C 0.67166 0.19256 0.0543 0.0
C278 C 0.717 0.23803 0.00902 0.0
C279 C 0.73013 0.19584 0.04997 0.0
C280 C 0.80099 0.26428 0.98131 0.0
C281 C 0.72901 0.30285 0.94298 0.0
N282 N 0.75099 0.21813 0.02775 0.0
N283 N 0.70818 0.281 0.96564 0.0
H284 H 0.86603 0.95912 0.28565 0.0
H285 H 0.58906 0.03546 0.20121 0.0
H286 H 0.6968 0.92695 0.30921 0.0
H287 H 0.75829 0.06778 0.17784 0.0
H288 H 0.62771 0.99552 0.24074 0.0
H289 H 0.82736 -0.00098 0.24609 0.0
C290 C 0.82066 0.96047 0.28249 0.0
C291 C 0.78451 0.93969 0.30073 0.0
C292 C 0.65645 0.01131 0.22699 0.0
C293 C 0.73994 0.98533 0.25542 0.0
C294 C 0.63442 0.03414 0.2044 0.0
C295 C 0.67057 0.05497 0.18623 0.0
C296 C 0.71512 0.00928 0.2315 0.0
C297 C 0.72894 0.05217 0.19134 0.0
C298 C 0.79862 0.98327 0.25988 0.0
C299 C 0.72614 0.94251 0.29566 0.0
N300 N 0.74942 0.02974 0.21353 0.0
N301 N 0.70565 0.96492 0.27344 0.0
H302 H 0.0096 0.92703 0.42484 0.0
H303 H 0.942 0.06312 0.56474 0.0
H304 H 0.84091 0.95436 0.45395 0.0
H305 H 0.11058 0.03618 0.53504 0.0
H306 H 0.90395 0.02304 0.52459 0.0
H307 H 0.04752 0.96661 0.46548 0.0
C308 C -0.01942 0.94136 0.4398 0.0
C309 C 0.92207 0.93746 0.43603 0.0
C310 C 0.94927 0.02589 0.52687 0.0
C311 C 0.965 0.98275 0.48253 0.0
C312 C 0.97096 0.04877 0.54977 0.0
C313 C 0.02948 0.05298 0.55318 0.0
C314 C -0.01358 0.00713 0.50726 0.0
C315 C 0.06515 0.03373 0.5332 0.0
C316 C 0.0022 0.96395 0.46299 0.0
C317 C 0.88634 0.95662 0.45604 0.0
N318 N 0.04306 0.01167 0.5111 0.0
N319 N 0.90836 0.97844 0.47841 0.0
H320 H 0.01236 0.31571 0.81381 0.0
H321 H 0.94277 0.17562 0.67754 0.0
H322 H 0.84325 0.28554 0.78675 0.0
H323 H 0.11175 0.20559 0.70508 0.0
H324 H 0.90527 0.21563 0.71757 0.0
H325 H 0.04968 0.27531 0.77415 0.0
C326 C -0.01688 0.30057 0.79952 0.0
C327 C 0.92467 0.30396 0.80354 0.0
C328 C 0.95056 0.21344 0.71486 0.0
C329 C 0.96692 0.25774 0.75815 0.0
C330 C 0.97193 0.19061 0.69202 0.0
C331 C 0.0304 0.18732 0.688 0.0
C332 C -0.01202 0.2331 0.73377 0.0
C333 C 0.06634 0.20734 0.70739 0.0
C334 C 0.00439 0.27752 0.77689 0.0
C335 C 0.88865 0.28373 0.78442 0.0
N336 N 0.04456 0.22937 0.72941 0.0
N337 N 0.91034 0.2615 0.76255 0.0
H338 H 0.62186 0.70834 0.70273 0.0
H339 H 0.34477 0.78559 0.78512 0.0
H340 H 0.45241 0.67773 0.67699 0.0
H341 H 0.51402 0.81634 0.81117 0.0
H342 H 0.38353 0.74598 0.74546 0.0
H343 H 0.58332 0.74802 0.74249 0.0
C344 C 0.57648 0.70998 0.70545 0.0
C345 C 0.54022 0.68971 0.68654 0.0
C346 C 0.41227 0.76135 0.75981 0.0
C347 C 0.49581 0.73511 0.73205 0.0
C348 C 0.39017 0.784 0.78249 0.0
C349 C 0.42628 0.8043 0.80146 0.0
C350 C 0.47099 0.75893 0.75602 0.0
C351 C 0.4847 0.80116 0.79703 0.0
C352 C 0.55452 0.73265 0.72817 0.0
C353 C 0.48184 0.69289 0.69107 0.0
N354 N 0.50526 0.77889 0.77474 0.0
N355 N 0.46144 0.71517 0.71338 0.0
H356 H 0.26867 0.67891 0.06471 0.0
H357 H 0.20133 0.81437 0.92403 0.0
H358 H 0.10034 0.70561 0.03363 0.0
H359 H 0.37011 0.7882 0.9547 0.0
H360 H 0.16358 0.77447 0.96413 0.0
H361 H 0.30703 0.71872 0.02455 0.0
C362 C 0.23984 0.69314 0.04943 0.0
C363 C 0.18129 0.68898 0.05248 0.0
C364 C 0.20889 0.77744 0.9621 0.0
C365 C 0.22468 0.73449 0.00657 0.0
C366 C 0.23042 0.80022 0.93922 0.0
C367 C 0.28889 0.80458 0.93606 0.0
C368 C 0.24614 0.75889 0.98198 0.0
C369 C 0.3247 0.7856 0.95634 0.0
C370 C 0.2617 0.71585 0.02653 0.0
C371 C 0.14579 0.70804 0.0321 0.0
N372 N 0.30276 0.76359 0.97844 0.0
N373 N 0.16803 0.72994 0.01004 0.0
H374 H 0.33959 0.45754 0.45414 0.0
H375 H 0.61869 0.53517 0.53646 0.0
H376 H 0.50828 0.42685 0.42857 0.0
H377 H 0.4501 0.56575 0.56236 0.0
H378 H 0.57898 0.4954 0.49686 0.0
H379 H 0.37919 0.49733 0.49379 0.0
C380 C 0.38503 0.45918 0.45688 0.0
C381 C 0.42076 0.43885 0.43805 0.0
C382 C 0.5506 0.51078 0.51117 0.0
C383 C 0.46638 0.48438 0.48344 0.0
C384 C 0.57324 0.5335 0.53381 0.0
C385 C 0.53758 0.55379 0.55272 0.0
C386 C 0.49181 0.50828 0.50736 0.0
C387 C 0.47908 0.55057 0.54827 0.0
C388 C 0.4076 0.48192 0.47954 0.0
C389 C 0.47924 0.44205 0.4426 0.0
N390 N 0.45799 0.52823 0.52603 0.0
N391 N 0.50024 0.46439 0.46485 0.0
loop_
_geom_bond_atom_site_label_1
_geom_bond_atom_site_label_2
_geom_bond_distance
_geom_bond_site_symmetry_2
_ccdc_geom_bond_type
In0 O1 2.294 . S
In0 O2 2.326 . S
In0 O6 2.266 . S
In0 O7 2.326 . S
In0 O8 2.266 . S
In0 O9 2.326 . S
In0 O11 2.294 . S
In0 O12 2.326 . S
O1 In0 2.294 . S
O1 C10 1.240 . S
O2 In0 2.326 . S
O2 C10 1.252 . S
C3 O6 1.252 . S
C3 O7 1.260 . S
C4 O11 1.240 . S
C4 O12 1.252 . S
C5 O8 1.252 . S
C5 O9 1.260 . S
O6 In0 2.266 . S
O6 C3 1.252 . S
O7 In0 2.326 . S
O7 C3 1.260 . S
O8 In0 2.266 . S
O8 C5 1.252 . S
O9 In0 2.326 . S
O9 C5 1.260 . S
C10 O1 1.240 . S
C10 O2 1.252 . S
O11 In0 2.294 . S
O11 C4 1.240 . S
O12 In0 2.326 . S
O12 C4 1.252 . S
In13 O14 2.294 . S
In13 O15 2.326 . S
In13 O19 2.266 . S
In13 O20 2.326 . S
In13 O21 2.266 . S
In13 O22 2.326 . S
In13 O24 2.294 . S
In13 O25 2.326 . S
O14 In13 2.294 . S
O14 C23 1.240 . S
O15 In13 2.326 . S
O15 C23 1.252 . S
C16 O19 1.252 . S
C16 O20 1.260 . S
C17 O24 1.240 . S
C17 O25 1.252 . S
C18 O21 1.252 . S
C18 O22 1.260 . S
O19 In13 2.266 . S
O19 C16 1.252 . S
O20 In13 2.326 . S
O20 C16 1.260 . S
O21 In13 2.266 . S
O21 C18 1.252 . S
O22 In13 2.326 . S
O22 C18 1.260 . S
C23 O14 1.240 . S
C23 O15 1.252 . S
O24 In13 2.294 . S
O24 C17 1.240 . S
O25 In13 2.326 . S
O25 C17 1.252 . S
In26 O27 2.294 . S
In26 O28 2.326 . S
In26 O32 2.266 . S
In26 O33 2.326 . S
In26 O34 2.266 . S
In26 O35 2.326 . S
In26 O37 2.294 . S
In26 O38 2.326 . S
O27 In26 2.294 . S
O27 C36 1.240 . S
O28 In26 2.326 . S
O28 C36 1.252 . S
C29 O32 1.252 . S
C29 O33 1.260 . S
C30 O37 1.240 . S
C30 O38 1.252 . S
C31 O34 1.252 . S
C31 O35 1.260 . S
O32 In26 2.266 . S
O32 C29 1.252 . S
O33 In26 2.326 . S
O33 C29 1.260 . S
O34 In26 2.266 . S
O34 C31 1.252 . S
O35 In26 2.326 . S
O35 C31 1.260 . S
C36 O27 1.240 . S
C36 O28 1.252 . S
O37 In26 2.294 . S
O37 C30 1.240 . S
O38 In26 2.326 . S
O38 C30 1.252 . S
In39 O40 2.294 . S
In39 O41 2.326 . S
In39 O45 2.266 . S
In39 O46 2.326 . S
In39 O47 2.266 . S
In39 O48 2.326 . S
In39 O50 2.294 . S
In39 O51 2.326 . S
O40 In39 2.294 . S
O40 C49 1.240 . S
O41 In39 2.326 . S
O41 C49 1.252 . S
C42 O45 1.252 . S
C42 O46 1.260 . S
C43 O50 1.240 . S
C43 O51 1.252 . S
C44 O47 1.252 . S
C44 O48 1.260 . S
O45 In39 2.266 . S
O45 C42 1.252 . S
O46 In39 2.326 . S
O46 C42 1.260 . S
O47 In39 2.266 . S
O47 C44 1.252 . S
O48 In39 2.326 . S
O48 C44 1.260 . S
C49 O40 1.240 . S
C49 O41 1.252 . S
O50 In39 2.294 . S
O50 C43 1.240 . S
O51 In39 2.326 . S
O51 C43 1.252 . S
In52 O53 2.294 . S
In52 O54 2.326 . S
In52 O58 2.266 . S
In52 O59 2.326 . S
In52 O60 2.266 . S
In52 O61 2.326 . S
In52 O63 2.294 . S
In52 O64 2.326 . S
O53 In52 2.294 . S
O53 C62 1.240 . S
O54 In52 2.326 . S
O54 C62 1.252 . S
C55 O58 1.252 . S
C55 O59 1.260 . S
C56 O63 1.240 . S
C56 O64 1.252 . S
C57 O60 1.252 . S
C57 O61 1.260 . S
O58 In52 2.266 . S
O58 C55 1.252 . S
O59 In52 2.326 . S
O59 C55 1.260 . S
O60 In52 2.266 . S
O60 C57 1.252 . S
O61 In52 2.326 . S
O61 C57 1.260 . S
C62 O53 1.240 . S
C62 O54 1.252 . S
O63 In52 2.294 . S
O63 C56 1.240 . S
O64 In52 2.326 . S
O64 C56 1.252 . S
In65 O66 2.294 . S
In65 O67 2.326 . S
In65 O71 2.266 . S
In65 O72 2.326 . S
In65 O73 2.266 . S
In65 O74 2.326 . S
In65 O76 2.294 . S
In65 O77 2.326 . S
O66 In65 2.294 . S
O66 C75 1.240 . S
O67 In65 2.326 . S
O67 C75 1.252 . S
C68 O71 1.252 . S
C68 O72 1.260 . S
C69 O76 1.240 . S
C69 O77 1.252 . S
C70 O73 1.252 . S
C70 O74 1.260 . S
O71 In65 2.266 . S
O71 C68 1.252 . S
O72 In65 2.326 . S
O72 C68 1.260 . S
O73 In65 2.266 . S
O73 C70 1.252 . S
O74 In65 2.326 . S
O74 C70 1.260 . S
C75 O66 1.240 . S
C75 O67 1.252 . S
O76 In65 2.294 . S
O76 C69 1.240 . S
O77 In65 2.326 . S
O77 C69 1.252 . S
In78 O79 2.294 . S
In78 O80 2.326 . S
In78 O84 2.266 . S
In78 O85 2.326 . S
In78 O86 2.266 . S
In78 O87 2.326 . S
In78 O89 2.294 . S
In78 O90 2.326 . S
O79 In78 2.294 . S
O79 C88 1.240 . S
O80 In78 2.326 . S
O80 C88 1.252 . S
C81 O84 1.252 . S
C81 O85 1.260 . S
C82 O89 1.240 . S
C82 O90 1.252 . S
C83 O86 1.252 . S
C83 O87 1.260 . S
O84 In78 2.266 . S
O84 C81 1.252 . S
O85 In78 2.326 . S
O85 C81 1.260 . S
O86 In78 2.266 . S
O86 C83 1.252 . S
O87 In78 2.326 . S
O87 C83 1.260 . S
C88 O79 1.240 . S
C88 O80 1.252 . S
O89 In78 2.294 . S
O89 C82 1.240 . S
O90 In78 2.326 . S
O90 C82 1.252 . S
In91 O92 2.294 . S
In91 O93 2.326 . S
In91 O97 2.266 . S
In91 O98 2.326 . S
In91 O99 2.266 . S
In91 O100 2.326 . S
In91 O102 2.294 . S
In91 O103 2.326 . S
O92 In91 2.294 . S
O92 C101 1.240 . S
O93 In91 2.326 . S
O93 C101 1.252 . S
C94 O97 1.252 . S
C94 O98 1.260 . S
C95 O102 1.240 . S
C95 O103 1.252 . S
C96 O99 1.252 . S
C96 O100 1.260 . S
O97 In91 2.266 . S
O97 C94 1.252 . S
O98 In91 2.326 . S
O98 C94 1.260 . S
O99 In91 2.266 . S
O99 C96 1.252 . S
O100 In91 2.326 . S
O100 C96 1.260 . S
C101 O92 1.240 . S
C101 O93 1.252 . S
O102 In91 2.294 . S
O102 C95 1.240 . S
O103 In91 2.326 . S
O103 C95 1.252 . S
H104 C110 0.930 . S
H105 C114 0.930 . S
H106 C119 0.929 . S
H107 C117 0.929 . S
H108 C112 0.929 . S
H109 C118 0.929 . S
C110 H104 0.930 . S
C110 C111 1.367 . S
C110 C118 1.378 . S
C111 C110 1.367 . S
C111 C119 1.433 . S
C112 H108 0.929 . S
C112 C114 1.378 . S
C112 C116 1.350 . S
C113 C116 1.463 . S
C113 C118 1.350 . S
C113 N121 1.427 . S
C114 H105 0.930 . S
C114 C112 1.378 . S
C114 C115 1.367 . S
C115 C114 1.367 . S
C115 C117 1.433 . S
C116 C112 1.350 . S
C116 C113 1.463 . S
C116 N120 1.427 . S
C117 H107 0.929 . S
C117 C115 1.433 . S
C117 N120 1.384 . S
C118 H109 0.929 . S
C118 C110 1.378 . S
C118 C113 1.350 . S
C119 H106 0.929 . S
C119 C111 1.433 . S
C119 N121 1.384 . S
N120 C116 1.427 . S
N120 C117 1.384 . S
N121 C113 1.427 . S
N121 C119 1.384 . S
H122 C128 0.930 . S
H123 C132 0.930 . S
H124 C137 0.929 . S
H125 C135 0.929 . S
H126 C130 0.929 . S
H127 C136 0.929 . S
C128 H122 0.930 . S
C128 C129 1.367 . S
C128 C136 1.378 . S
C129 C128 1.367 . S
C129 C137 1.433 . S
C130 H126 0.929 . S
C130 C132 1.378 . S
C130 C134 1.350 . S
C131 C134 1.463 . S
C131 C136 1.350 . S
C131 N139 1.427 . S
C132 H123 0.930 . S
C132 C130 1.378 . S
C132 C133 1.367 . S
C133 C132 1.367 . S
C133 C135 1.433 . S
C134 C130 1.350 . S
C134 C131 1.463 . S
C134 N138 1.427 . S
C135 H125 0.929 . S
C135 C133 1.433 . S
C135 N138 1.384 . S
C136 H127 0.929 . S
C136 C128 1.378 . S
C136 C131 1.350 . S
C137 H124 0.929 . S
C137 C129 1.433 . S
C137 N139 1.384 . S
N138 C134 1.427 . S
N138 C135 1.384 . S
N139 C131 1.427 . S
N139 C137 1.384 . S
H140 C146 0.930 . S
H141 C150 0.930 . S
H142 C155 0.929 . S
H143 C153 0.929 . S
H144 C148 0.929 . S
H145 C154 0.929 1_556 S
C146 H140 0.930 . S
C146 C147 1.367 . S
C146 C154 1.378 . S
C147 C146 1.367 . S
C147 C155 1.433 . S
C148 H144 0.929 . S
C148 C150 1.378 1_554 S
C148 C152 1.350 1_554 S
C149 C152 1.463 1_544 S
C149 C154 1.350 . S
C149 N157 1.433 . S
C150 H141 0.930 . S
C150 C148 1.378 1_556 S
C150 C151 1.367 . S
C151 C150 1.367 . S
C151 C153 1.433 . S
C152 C148 1.350 1_556 S
C152 C149 1.463 1_566 S
C152 N156 1.427 . S
C153 H143 0.929 . S
C153 C151 1.433 . S
C153 N156 1.384 . S
C154 H145 0.929 1_554 S
C154 C146 1.378 . S
C154 C149 1.350 . S
C155 H142 0.929 . S
C155 C147 1.433 . S
C155 N157 1.405 . S
N156 C152 1.427 . S
N156 C153 1.384 . S
N157 C149 1.433 . S
N157 C155 1.405 . S
H158 C164 0.930 . S
H159 C168 0.930 . S
H160 C173 0.929 . S
H161 C171 0.929 . S
H162 C166 0.929 . S
H163 C172 0.929 . S
C164 H158 0.930 . S
C164 C165 1.367 . S
C164 C172 1.378 . S
C165 C164 1.367 . S
C165 C173 1.433 1_655 S
C166 H162 0.929 . S
C166 C168 1.378 . S
C166 C170 1.350 . S
C167 C170 1.463 1_655 S
C167 C172 1.350 . S
C167 N175 1.427 1_655 S
C168 H159 0.930 . S
C168 C166 1.378 . S
C168 C169 1.367 . S
C169 C168 1.367 . S
C169 C171 1.433 1_455 S
C170 C166 1.350 . S
C170 C167 1.463 1_455 S
C170 N174 1.427 1_455 S
C171 H161 0.929 . S
C171 C169 1.433 1_655 S
C171 N174 1.384 . S
C172 H163 0.929 . S
C172 C164 1.378 . S
C172 C167 1.350 . S
C173 H160 0.929 . S
C173 C165 1.433 1_455 S
C173 N175 1.384 . S
N174 C170 1.427 1_655 S
N174 C171 1.384 . S
N175 C167 1.427 1_455 S
N175 C173 1.384 . S
H176 C182 0.930 . S
H177 C186 0.930 . S
H178 C191 0.929 . S
H179 C189 0.929 . S
H180 C184 0.929 . S
H181 C190 0.929 . S
C182 H176 0.930 . S
C182 C183 1.367 . S
C182 C190 1.378 . S
C183 C182 1.367 . S
C183 C191 1.433 . S
C184 H180 0.929 . S
C184 C186 1.378 . S
C184 C188 1.350 . S
C185 C188 1.463 1_565 S
C185 C190 1.350 . S
C185 N193 1.427 . S
C186 H177 0.930 . S
C186 C184 1.378 . S
C186 C187 1.367 . S
C187 C186 1.367 . S
C187 C189 1.433 . S
C188 C184 1.350 . S
C188 C185 1.463 1_545 S
C188 N192 1.427 1_545 S
C189 H179 0.929 . S
C189 C187 1.433 . S
C189 N192 1.384 1_545 S
C190 H181 0.929 . S
C190 C182 1.378 . S
C190 C185 1.350 . S
C191 H178 0.929 . S
C191 C183 1.433 . S
C191 N193 1.384 . S
N192 C188 1.427 1_565 S
N192 C189 1.384 1_565 S
N193 C185 1.427 . S
N193 C191 1.384 . S
H194 C200 0.930 . S
H195 C204 0.930 . S
H196 C209 0.929 . S
H197 C207 0.929 . S
H198 C202 0.949 . S
H199 C208 0.929 1_554 S
C200 H194 0.930 . S
C200 C201 1.367 . S
C200 C208 1.378 1_655 S
C201 C200 1.367 . S
C201 C209 1.433 . S
C202 H198 0.949 . S
C202 C204 1.378 1_655 S
C202 C206 1.350 1_655 S
C203 C206 1.463 1_656 S
C203 C208 1.350 1_655 S
C203 N211 1.427 . S
C204 H195 0.930 . S
C204 C202 1.378 1_455 S
C204 C205 1.367 . S
C205 C204 1.367 . S
C205 C207 1.433 . S
C206 C202 1.350 1_455 S
C206 C203 1.463 1_454 S
C206 N210 1.427 . S
C207 H197 0.929 . S
C207 C205 1.433 . S
C207 N210 1.384 . S
C208 H199 0.929 1_556 S
C208 C200 1.378 1_455 S
C208 C203 1.350 1_455 S
C209 H196 0.929 . S
C209 C201 1.433 . S
C209 N211 1.384 . S
N210 C206 1.427 . S
N210 C207 1.384 . S
N211 C203 1.427 . S
N211 C209 1.384 . S
H212 C218 0.930 . S
H213 C222 0.930 . S
H214 C227 0.929 . S
H215 C225 0.929 . S
H216 C220 0.929 . S
H217 C226 0.929 . S
C218 H212 0.930 . S
C218 C219 1.367 . S
C218 C226 1.378 . S
C219 C218 1.367 . S
C219 C227 1.433 . S
C220 H216 0.929 . S
C220 C222 1.378 . S
C220 C224 1.350 . S
C221 C224 1.463 . S
C221 C226 1.350 . S
C221 N229 1.427 . S
C222 H213 0.930 . S
C222 C220 1.378 . S
C222 C223 1.367 . S
C223 C222 1.367 . S
C223 C225 1.433 . S
C224 C220 1.350 . S
C224 C221 1.463 . S
C224 N228 1.427 . S
C225 H215 0.929 . S
C225 C223 1.433 . S
C225 N228 1.384 . S
C226 H217 0.929 . S
C226 C218 1.378 . S
C226 C221 1.350 . S
C227 H214 0.929 . S
C227 C219 1.433 . S
C227 N229 1.384 . S
N228 C224 1.427 . S
N228 C225 1.384 . S
N229 C221 1.427 . S
N229 C227 1.384 . S
H230 C236 0.930 . S
H231 C240 0.930 . S
H232 C245 0.929 . S
H233 C243 0.929 . S
H234 C238 0.929 . S
H235 C244 0.929 . S
C236 H230 0.930 . S
C236 C237 1.367 . S
C236 C244 1.378 . S
C237 C236 1.367 . S
C237 C245 1.433 . S
C238 H234 0.929 . S
C238 C240 1.378 . S
C238 C242 1.350 . S
C239 C242 1.463 . S
C239 C244 1.350 . S
C239 N247 1.427 . S
C240 H231 0.930 . S
C240 C238 1.378 . S
C240 C241 1.367 . S
C241 C240 1.367 . S
C241 C243 1.433 . S
C242 C238 1.350 . S
C242 C239 1.463 . S
C242 N246 1.427 . S
C243 H233 0.929 . S
C243 C241 1.433 . S
C243 N246 1.384 . S
C244 H235 0.929 . S
C244 C236 1.378 . S
C244 C239 1.350 . S
C245 H232 0.929 . S
C245 C237 1.433 . S
C245 N247 1.384 . S
N246 C242 1.427 . S
N246 C243 1.384 . S
N247 C239 1.427 . S
N247 C245 1.384 . S
H248 C254 0.930 . S
H249 C258 0.930 . S
H250 C263 0.929 . S
H251 C261 0.929 . S
H252 C256 0.929 . S
H253 C262 0.929 . S
C254 H248 0.930 . S
C254 C255 1.367 . S
C254 C262 1.378 . S
C255 C254 1.367 . S
C255 C263 1.433 . S
C256 H252 0.929 . S
C256 C258 1.378 . S
C256 C260 1.350 . S
C257 C260 1.463 . S
C257 C262 1.350 . S
C257 N265 1.427 . S
C258 H249 0.930 . S
C258 C256 1.378 . S
C258 C259 1.367 . S
C259 C258 1.367 . S
C259 C261 1.433 . S
C260 C256 1.350 . S
C260 C257 1.463 . S
C260 N264 1.427 . S
C261 H251 0.929 . S
C261 C259 1.433 . S
C261 N264 1.384 . S
C262 H253 0.929 . S
C262 C254 1.378 . S
C262 C257 1.350 . S
C263 H250 0.929 . S
C263 C255 1.433 . S
C263 N265 1.384 . S
N264 C260 1.427 . S
N264 C261 1.384 . S
N265 C257 1.427 . S
N265 C263 1.384 . S
H266 C272 0.930 . S
H267 C276 0.930 . S
H268 C281 0.929 . S
H269 C279 0.929 . S
H270 C274 0.929 . S
H271 C280 0.929 . S
C272 H266 0.930 . S
C272 C273 1.367 . S
C272 C280 1.378 . S
C273 C272 1.367 . S
C273 C281 1.433 . S
C274 H270 0.929 . S
C274 C276 1.378 . S
C274 C278 1.350 . S
C275 C278 1.463 1_556 S
C275 C280 1.350 . S
C275 N283 1.427 . S
C276 H267 0.930 . S
C276 C274 1.378 . S
C276 C277 1.367 . S
C277 C276 1.367 . S
C277 C279 1.433 . S
C278 C274 1.350 . S
C278 C275 1.463 1_554 S
C278 N282 1.427 . S
C279 H269 0.929 . S
C279 C277 1.433 . S
C279 N282 1.384 . S
C280 H271 0.929 . S
C280 C272 1.378 . S
C280 C275 1.350 . S
C281 H268 0.929 . S
C281 C273 1.433 . S
C281 N283 1.384 . S
N282 C278 1.427 . S
N282 C279 1.384 . S
N283 C275 1.427 . S
N283 C281 1.384 . S
H284 C290 0.930 . S
H285 C294 0.930 . S
H286 C299 0.929 . S
H287 C297 0.929 . S
H288 C292 0.929 . S
H289 C298 0.929 1_545 S
C290 H284 0.930 . S
C290 C291 1.367 . S
C290 C298 1.378 . S
C291 C290 1.367 . S
C291 C299 1.433 . S
C292 H288 0.929 . S
C292 C294 1.378 1_565 S
C292 C296 1.350 1_565 S
C293 C296 1.463 1_565 S
C293 C298 1.350 . S
C293 N301 1.427 . S
C294 H285 0.930 . S
C294 C292 1.378 1_545 S
C294 C295 1.367 . S
C295 C294 1.367 . S
C295 C297 1.433 . S
C296 C292 1.350 1_545 S
C296 C293 1.463 1_545 S
C296 N300 1.427 . S
C297 H287 0.929 . S
C297 C295 1.433 . S
C297 N300 1.384 . S
C298 H289 0.929 1_565 S
C298 C290 1.378 . S
C298 C293 1.350 . S
C299 H286 0.929 . S
C299 C291 1.433 . S
C299 N301 1.384 . S
N300 C296 1.427 . S
N300 C297 1.384 . S
N301 C293 1.427 . S
N301 C299 1.384 . S
H302 C308 0.930 . S
H303 C312 0.930 . S
H304 C317 0.929 . S
H305 C315 0.929 . S
H306 C310 0.929 . S
H307 C316 0.929 . S
C308 H302 0.930 . S
C308 C309 1.367 1_455 S
C308 C316 1.378 . S
C309 C308 1.367 1_655 S
C309 C317 1.433 . S
C310 H306 0.929 . S
C310 C312 1.378 . S
C310 C314 1.350 1_655 S
C311 C314 1.463 1_665 S
C311 C316 1.350 1_655 S
C311 N319 1.427 . S
C312 H303 0.930 . S
C312 C310 1.378 . S
C312 C313 1.367 1_655 S
C313 C312 1.367 1_455 S
C313 C315 1.433 . S
C314 C310 1.350 1_455 S
C314 C311 1.463 1_445 S
C314 N318 1.427 . S
C315 H305 0.929 . S
C315 C313 1.433 . S
C315 N318 1.384 . S
C316 H307 0.929 . S
C316 C308 1.378 . S
C316 C311 1.350 1_455 S
C317 H304 0.929 . S
C317 C309 1.433 . S
C317 N319 1.384 . S
N318 C314 1.427 . S
N318 C315 1.384 . S
N319 C311 1.427 . S
N319 C317 1.384 . S
H320 C326 0.930 . S
H321 C330 0.930 . S
H322 C335 0.929 . S
H323 C333 0.929 . S
H324 C328 0.933 . S
H325 C334 0.933 . S
C326 H320 0.930 . S
C326 C327 1.367 . S
C326 C334 1.378 . S
C327 C326 1.367 . S
C327 C335 1.433 . S
C328 H324 0.933 . S
C328 C330 1.378 . S
C328 C332 1.350 . S
C329 C332 1.463 1_655 S
C329 C334 1.350 . S
C329 N337 1.427 . S
C330 H321 0.930 . S
C330 C328 1.378 . S
C330 C331 1.367 . S
C331 C330 1.367 . S
C331 C333 1.433 . S
C332 C328 1.350 . S
C332 C329 1.463 1_455 S
C332 N336 1.427 . S
C333 H323 0.929 . S
C333 C331 1.433 . S
C333 N336 1.384 . S
C334 H325 0.933 . S
C334 C326 1.378 . S
C334 C329 1.350 . S
C335 H322 0.929 . S
C335 C327 1.433 . S
C335 N337 1.384 . S
N336 C332 1.427 . S
N336 C333 1.384 . S
N337 C329 1.427 . S
N337 C335 1.384 . S
H338 C344 0.930 . S
H339 C348 0.930 . S
H340 C353 0.929 . S
H341 C351 0.929 . S
H342 C346 0.929 . S
H343 C352 0.929 . S
C344 H338 0.930 . S
C344 C345 1.367 . S
C344 C352 1.378 . S
C345 C344 1.367 . S
C345 C353 1.433 . S
C346 H342 0.929 . S
C346 C348 1.378 . S
C346 C350 1.350 . S
C347 C350 1.463 . S
C347 C352 1.350 . S
C347 N355 1.427 . S
C348 H339 0.930 . S
C348 C346 1.378 . S
C348 C349 1.367 . S
C349 C348 1.367 . S
C349 C351 1.433 . S
C350 C346 1.350 . S
C350 C347 1.463 . S
C350 N354 1.427 . S
C351 H341 0.929 . S
C351 C349 1.433 . S
C351 N354 1.384 . S
C352 H343 0.929 . S
C352 C344 1.378 . S
C352 C347 1.350 . S
C353 H340 0.929 . S
C353 C345 1.433 . S
C353 N355 1.384 . S
N354 C350 1.427 . S
N354 C351 1.384 . S
N355 C347 1.427 . S
N355 C353 1.384 . S
H356 C362 0.930 . S
H357 C366 0.930 . S
H358 C371 0.929 . S
H359 C369 0.929 . S
H360 C364 0.929 . S
H361 C370 0.929 . S
C362 H356 0.930 . S
C362 C363 1.367 . S
C362 C370 1.378 . S
C363 C362 1.367 . S
C363 C371 1.433 . S
C364 H360 0.929 . S
C364 C366 1.378 . S
C364 C368 1.350 . S
C365 C368 1.463 1_554 S
C365 C370 1.350 . S
C365 N373 1.427 . S
C366 H357 0.930 . S
C366 C364 1.378 . S
C366 C367 1.367 . S
C367 C366 1.367 . S
C367 C369 1.433 . S
C368 C364 1.350 . S
C368 C365 1.463 1_556 S
C368 N372 1.427 1_556 S
C369 H359 0.929 . S
C369 C367 1.433 . S
C369 N372 1.384 1_556 S
C370 H361 0.929 . S
C370 C362 1.378 . S
C370 C365 1.350 . S
C371 H358 0.929 . S
C371 C363 1.433 . S
C371 N373 1.384 . S
N372 C368 1.427 1_554 S
N372 C369 1.384 1_554 S
N373 C365 1.427 . S
N373 C371 1.384 . S
H374 C380 0.930 . S
H375 C384 0.930 . S
H376 C389 0.929 . S
H377 C387 0.929 . S
H378 C382 0.929 . S
H379 C388 0.929 . S
C380 H374 0.930 . S
C380 C381 1.367 . S
C380 C388 1.378 . S
C381 C380 1.367 . S
C381 C389 1.433 . S
C382 H378 0.929 . S
C382 C384 1.378 . S
C382 C386 1.350 . S
C383 C386 1.463 . S
C383 C388 1.350 . S
C383 N391 1.427 . S
C384 H375 0.930 . S
C384 C382 1.378 . S
C384 C385 1.367 . S
C385 C384 1.367 . S
C385 C387 1.433 . S
C386 C382 1.350 . S
C386 C383 1.463 . S
C386 N390 1.427 . S
C387 H377 0.929 . S
C387 C385 1.433 . S
C387 N390 1.384 . S
C388 H379 0.929 . S
C388 C380 1.378 . S
C388 C383 1.350 . S
C389 H376 0.929 . S
C389 C381 1.433 . S
C389 N391 1.384 . S
N390 C386 1.427 . S
N390 C387 1.384 . S
N391 C383 1.427 . S
N391 C389 1.384 . S
C111 C70 1.513 . S
C115 C10 1.515 . S
C129 C96 1.515 . S
C133 C17 1.515 . S
C147 C29 1.513 . S
C151 C81 1.515 . S
C165 C43 1.514 . S
C169 C56 1.514 . S
C183 C82 1.516 . S
C187 C3 1.513 . S
C201 C16 1.516 . S
C205 C57 1.514 . S
C219 C75 1.514 . S
C223 C36 1.514 . S
C237 C42 1.515 . S
C241 C95 1.515 . S
C255 C55 1.513 . S
C259 C69 1.515 . S
C273 C18 1.513 . S
C277 C30 1.515 . S
C291 C49 1.514 . S
C295 C31 1.515 . S
C309 C44 1.515 . S
C313 C5 1.515 . S
C327 C23 1.515 . S
C331 C4 1.514 . S
C345 C101 1.515 . S
C349 C88 1.514 . S
C363 C62 1.516 . S
C367 C83 1.513 . S
C381 C68 1.513 . S
C385 C94 1.515 . S
