# Generated by pormake.
# Topology wlh, (5)-cn, num edge types: 1
# Building blocks:
#     Node 0, Type 0, BuildingBlock: BEQFEK_clean_sbu_0, # of connection points: 5
#     Node 1, Type 0, BuildingBlock: BEQFEK_clean_sbu_0, # of connection points: 5
#     Node 2, Type 0, BuildingBlock: BEQFEK_clean_sbu_0, # of connection points: 5
#     Node 3, Type 0, BuildingBlock: BEQFEK_clean_sbu_0, # of connection points: 5
#     Node 4, Type 0, BuildingBlock: BEQFEK_clean_sbu_0, # of connection points: 5
#     Node 5, Type 0, BuildingBlock: BEQFEK_clean_sbu_0, # of connection points: 5
#     Node 6, Type 0, BuildingBlock: BEQFEK_clean_sbu_0, # of connection points: 5
#     Node 7, Type 0, BuildingBlock: BEQFEK_clean_sbu_0, # of connection points: 5
#     Node 8, Type 0, BuildingBlock: BEQFEK_clean_sbu_0, # of connection points: 5
#     Node 9, Type 0, BuildingBlock: BEQFEK_clean_sbu_0, # of connection points: 5
#     Node 10, Type 0, BuildingBlock: BEQFEK_clean_sbu_0, # of connection points: 5
#     Node 11, Type 0, BuildingBlock: BEQFEK_clean_sbu_0, # of connection points: 5
#     Node 12, Type 0, BuildingBlock: BEQFEK_clean_sbu_0, # of connection points: 5
#     Node 13, Type 0, BuildingBlock: BEQFEK_clean_sbu_0, # of connection points: 5
#     Node 14, Type 0, BuildingBlock: BEQFEK_clean_sbu_0, # of connection points: 5
#     Node 15, Type 0, BuildingBlock: BEQFEK_clean_sbu_0, # of connection points: 5
#     Node 16, Type 0, BuildingBlock: BEQFEK_clean_sbu_0, # of connection points: 5
#     Node 17, Type 0, BuildingBlock: BEQFEK_clean_sbu_0, # of connection points: 5
#     Node 18, Type 0, BuildingBlock: BEQFEK_clean_sbu_0, # of connection points: 5
#     Node 19, Type 0, BuildingBlock: BEQFEK_clean_sbu_0, # of connection points: 5
#     Node 20, Type 0, BuildingBlock: BEQFEK_clean_sbu_0, # of connection points: 5
#     Node 21, Type 0, BuildingBlock: BEQFEK_clean_sbu_0, # of connection points: 5
#     Node 22, Type 0, BuildingBlock: BEQFEK_clean_sbu_0, # of connection points: 5
#     Node 23, Type 0, BuildingBlock: BEQFEK_clean_sbu_0, # of connection points: 5
#     Node 24, Type 0, BuildingBlock: BEQFEK_clean_sbu_0, # of connection points: 5
#     Node 25, Type 0, BuildingBlock: BEQFEK_clean_sbu_0, # of connection points: 5
#     Node 26, Type 0, BuildingBlock: BEQFEK_clean_sbu_0, # of connection points: 5
#     Node 27, Type 0, BuildingBlock: BEQFEK_clean_sbu_0, # of connection points: 5
#     Node 28, Type 0, BuildingBlock: BEQFEK_clean_sbu_0, # of connection points: 5
#     Node 29, Type 0, BuildingBlock: BEQFEK_clean_sbu_0, # of connection points: 5
#     Node 30, Type 0, BuildingBlock: BEQFEK_clean_sbu_0, # of connection points: 5
#     Node 31, Type 0, BuildingBlock: BEQFEK_clean_sbu_0, # of connection points: 5
#     Node 32, Type 0, BuildingBlock: BEQFEK_clean_sbu_0, # of connection points: 5
#     Node 33, Type 0, BuildingBlock: BEQFEK_clean_sbu_0, # of connection points: 5
#     Node 34, Type 0, BuildingBlock: BEQFEK_clean_sbu_0, # of connection points: 5
#     Node 35, Type 0, BuildingBlock: BEQFEK_clean_sbu_0, # of connection points: 5
#     Edge 36, Type (0, 0), BuildingBlock: KIFKEQ_clean_linker_1, # of connection points: 2
#     Edge 37, Type (0, 0), BuildingBlock: KIFKEQ_clean_linker_1, # of connection points: 2
#     Edge 38, Type (0, 0), BuildingBlock: KIFKEQ_clean_linker_1, # of connection points: 2
#     Edge 39, Type (0, 0), BuildingBlock: KIFKEQ_clean_linker_1, # of connection points: 2
#     Edge 40, Type (0, 0), BuildingBlock: KIFKEQ_clean_linker_1, # of connection points: 2
#     Edge 41, Type (0, 0), BuildingBlock: KIFKEQ_clean_linker_1, # of connection points: 2
#     Edge 42, Type (0, 0), BuildingBlock: KIFKEQ_clean_linker_1, # of connection points: 2
#     Edge 43, Type (0, 0), BuildingBlock: KIFKEQ_clean_linker_1, # of connection points: 2
#     Edge 44, Type (0, 0), BuildingBlock: KIFKEQ_clean_linker_1, # of connection points: 2
#     Edge 45, Type (0, 0), BuildingBlock: KIFKEQ_clean_linker_1, # of connection points: 2
#     Edge 46, Type (0, 0), BuildingBlock: KIFKEQ_clean_linker_1, # of connection points: 2
#     Edge 47, Type (0, 0), BuildingBlock: KIFKEQ_clean_linker_1, # of connection points: 2
#     Edge 48, Type (0, 0), BuildingBlock: KIFKEQ_clean_linker_1, # of connection points: 2
#     Edge 49, Type (0, 0), BuildingBlock: KIFKEQ_clean_linker_1, # of connection points: 2
#     Edge 50, Type (0, 0), BuildingBlock: KIFKEQ_clean_linker_1, # of connection points: 2
#     Edge 51, Type (0, 0), BuildingBlock: KIFKEQ_clean_linker_1, # of connection points: 2
#     Edge 52, Type (0, 0), BuildingBlock: KIFKEQ_clean_linker_1, # of connection points: 2
#     Edge 53, Type (0, 0), BuildingBlock: KIFKEQ_clean_linker_1, # of connection points: 2
#     Edge 54, Type (0, 0), BuildingBlock: KIFKEQ_clean_linker_1, # of connection points: 2
#     Edge 55, Type (0, 0), BuildingBlock: KIFKEQ_clean_linker_1, # of connection points: 2
#     Edge 56, Type (0, 0), BuildingBlock: KIFKEQ_clean_linker_1, # of connection points: 2
#     Edge 57, Type (0, 0), BuildingBlock: KIFKEQ_clean_linker_1, # of connection points: 2
#     Edge 58, Type (0, 0), BuildingBlock: KIFKEQ_clean_linker_1, # of connection points: 2
#     Edge 59, Type (0, 0), BuildingBlock: KIFKEQ_clean_linker_1, # of connection points: 2
#     Edge 60, Type (0, 0), BuildingBlock: KIFKEQ_clean_linker_1, # of connection points: 2
#     Edge 61, Type (0, 0), BuildingBlock: KIFKEQ_clean_linker_1, # of connection points: 2
#     Edge 62, Type (0, 0), BuildingBlock: KIFKEQ_clean_linker_1, # of connection points: 2
#     Edge 63, Type (0, 0), BuildingBlock: KIFKEQ_clean_linker_1, # of connection points: 2
#     Edge 64, Type (0, 0), BuildingBlock: KIFKEQ_clean_linker_1, # of connection points: 2
#     Edge 65, Type (0, 0), BuildingBlock: KIFKEQ_clean_linker_1, # of connection points: 2
#     Edge 66, Type (0, 0), BuildingBlock: KIFKEQ_clean_linker_1, # of connection points: 2
#     Edge 67, Type (0, 0), BuildingBlock: KIFKEQ_clean_linker_1, # of connection points: 2
#     Edge 68, Type (0, 0), BuildingBlock: KIFKEQ_clean_linker_1, # of connection points: 2
#     Edge 69, Type (0, 0), BuildingBlock: KIFKEQ_clean_linker_1, # of connection points: 2
#     Edge 70, Type (0, 0), BuildingBlock: KIFKEQ_clean_linker_1, # of connection points: 2
#     Edge 71, Type (0, 0), BuildingBlock: KIFKEQ_clean_linker_1, # of connection points: 2
#     Edge 72, Type (0, 0), BuildingBlock: KIFKEQ_clean_linker_1, # of connection points: 2
#     Edge 73, Type (0, 0), BuildingBlock: KIFKEQ_clean_linker_1, # of connection points: 2
#     Edge 74, Type (0, 0), BuildingBlock: KIFKEQ_clean_linker_1, # of connection points: 2
#     Edge 75, Type (0, 0), BuildingBlock: KIFKEQ_clean_linker_1, # of connection points: 2
#     Edge 76, Type (0, 0), BuildingBlock: KIFKEQ_clean_linker_1, # of connection points: 2
#     Edge 77, Type (0, 0), BuildingBlock: KIFKEQ_clean_linker_1, # of connection points: 2
#     Edge 78, Type (0, 0), BuildingBlock: KIFKEQ_clean_linker_1, # of connection points: 2
#     Edge 79, Type (0, 0), BuildingBlock: KIFKEQ_clean_linker_1, # of connection points: 2
#     Edge 80, Type (0, 0), BuildingBlock: KIFKEQ_clean_linker_1, # of connection points: 2
#     Edge 81, Type (0, 0), BuildingBlock: KIFKEQ_clean_linker_1, # of connection points: 2
#     Edge 82, Type (0, 0), BuildingBlock: KIFKEQ_clean_linker_1, # of connection points: 2
#     Edge 83, Type (0, 0), BuildingBlock: KIFKEQ_clean_linker_1, # of connection points: 2
#     Edge 84, Type (0, 0), BuildingBlock: KIFKEQ_clean_linker_1, # of connection points: 2
#     Edge 85, Type (0, 0), BuildingBlock: KIFKEQ_clean_linker_1, # of connection points: 2
#     Edge 86, Type (0, 0), BuildingBlock: KIFKEQ_clean_linker_1, # of connection points: 2
#     Edge 87, Type (0, 0), BuildingBlock: KIFKEQ_clean_linker_1, # of connection points: 2
#     Edge 88, Type (0, 0), BuildingBlock: KIFKEQ_clean_linker_1, # of connection points: 2
#     Edge 89, Type (0, 0), BuildingBlock: KIFKEQ_clean_linker_1, # of connection points: 2
#     Edge 90, Type (0, 0), BuildingBlock: KIFKEQ_clean_linker_1, # of connection points: 2
#     Edge 91, Type (0, 0), BuildingBlock: KIFKEQ_clean_linker_1, # of connection points: 2
#     Edge 92, Type (0, 0), BuildingBlock: KIFKEQ_clean_linker_1, # of connection points: 2
#     Edge 93, Type (0, 0), BuildingBlock: KIFKEQ_clean_linker_1, # of connection points: 2
#     Edge 94, Type (0, 0), BuildingBlock: KIFKEQ_clean_linker_1, # of connection points: 2
#     Edge 95, Type (0, 0), BuildingBlock: KIFKEQ_clean_linker_1, # of connection points: 2
#     Edge 96, Type (0, 0), BuildingBlock: KIFKEQ_clean_linker_1, # of connection points: 2
#     Edge 97, Type (0, 0), BuildingBlock: KIFKEQ_clean_linker_1, # of connection points: 2
#     Edge 98, Type (0, 0), BuildingBlock: KIFKEQ_clean_linker_1, # of connection points: 2
#     Edge 99, Type (0, 0), BuildingBlock: KIFKEQ_clean_linker_1, # of connection points: 2
#     Edge 100, Type (0, 0), BuildingBlock: KIFKEQ_clean_linker_1, # of connection points: 2
#     Edge 101, Type (0, 0), BuildingBlock: KIFKEQ_clean_linker_1, # of connection points: 2
#     Edge 102, Type (0, 0), BuildingBlock: KIFKEQ_clean_linker_1, # of connection points: 2
#     Edge 103, Type (0, 0), BuildingBlock: KIFKEQ_clean_linker_1, # of connection points: 2
#     Edge 104, Type (0, 0), BuildingBlock: KIFKEQ_clean_linker_1, # of connection points: 2
#     Edge 105, Type (0, 0), BuildingBlock: KIFKEQ_clean_linker_1, # of connection points: 2
#     Edge 106, Type (0, 0), BuildingBlock: KIFKEQ_clean_linker_1, # of connection points: 2
#     Edge 107, Type (0, 0), BuildingBlock: KIFKEQ_clean_linker_1, # of connection points: 2
#     Edge 108, Type (0, 0), BuildingBlock: KIFKEQ_clean_linker_1, # of connection points: 2
#     Edge 109, Type (0, 0), BuildingBlock: KIFKEQ_clean_linker_1, # of connection points: 2
#     Edge 110, Type (0, 0), BuildingBlock: KIFKEQ_clean_linker_1, # of connection points: 2
#     Edge 111, Type (0, 0), BuildingBlock: KIFKEQ_clean_linker_1, # of connection points: 2
#     Edge 112, Type (0, 0), BuildingBlock: KIFKEQ_clean_linker_1, # of connection points: 2
#     Edge 113, Type (0, 0), BuildingBlock: KIFKEQ_clean_linker_1, # of connection points: 2
#     Edge 114, Type (0, 0), BuildingBlock: KIFKEQ_clean_linker_1, # of connection points: 2
#     Edge 115, Type (0, 0), BuildingBlock: KIFKEQ_clean_linker_1, # of connection points: 2
#     Edge 116, Type (0, 0), BuildingBlock: KIFKEQ_clean_linker_1, # of connection points: 2
#     Edge 117, Type (0, 0), BuildingBlock: KIFKEQ_clean_linker_1, # of connection points: 2
#     Edge 118, Type (0, 0), BuildingBlock: KIFKEQ_clean_linker_1, # of connection points: 2
#     Edge 119, Type (0, 0), BuildingBlock: KIFKEQ_clean_linker_1, # of connection points: 2
#     Edge 120, Type (0, 0), BuildingBlock: KIFKEQ_clean_linker_1, # of connection points: 2
#     Edge 121, Type (0, 0), BuildingBlock: KIFKEQ_clean_linker_1, # of connection points: 2
#     Edge 122, Type (0, 0), BuildingBlock: KIFKEQ_clean_linker_1, # of connection points: 2
#     Edge 123, Type (0, 0), BuildingBlock: KIFKEQ_clean_linker_1, # of connection points: 2
#     Edge 124, Type (0, 0), BuildingBlock: KIFKEQ_clean_linker_1, # of connection points: 2
#     Edge 125, Type (0, 0), BuildingBlock: KIFKEQ_clean_linker_1, # of connection points: 2
# Relax obj value: 0.225
# Max RMSD: 0.166
# Mean RMSD: 0.166
data_MOF--net-wlh--node1-BEQFEK_clean_sbu_0--edge1-KIFKEQ_clean_linker_1
_symmetry_space_group_name_H-M    P1
_symmetry_Int_Tables_number       1
_symmetry_cell_setting            triclinic
loop_
_symmetry_equiv_pos_as_xyz
'x, y, z'
_cell_length_a     44.641369
_cell_length_b     44.642032
_cell_length_c     134.74172
_cell_angle_alpha  90.001034
_cell_angle_beta   89.997425
_cell_angle_gamma 120.01981
loop_
_atom_site_label
_atom_site_type_symbol
_atom_site_fract_x
_atom_site_fract_y
_atom_site_fract_z
_atom_type_partial_charge
Co0 Co 0.0907 0.20668 0.20114 0.0
Co1 Co 0.06744 0.26164 0.197 0.0
C2 C 0.02457 0.18981 0.19017 0.0
O3 O 0.04649 0.1829 0.19394 0.0
O4 O 0.02876 0.22017 0.19054 0.0
C5 C 0.10343 0.15647 0.19283 0.0
O6 O 0.08513 0.1595 0.18569 0.0
C7 C 0.04998 0.30812 0.18635 0.0
C8 C 0.06402 0.35001 0.19727 0.0
C9 C 0.05097 0.33953 0.18776 0.0
N10 N 0.06179 0.30064 0.19462 0.0
N11 N 0.07 0.32569 0.20113 0.0
C12 C 0.04049 0.2865 0.17714 0.0
H13 H 0.0528 0.27021 0.17713 0.0
H14 H 0.04861 0.30308 0.17042 0.0
H15 H 0.01203 0.26906 0.17693 0.0
C16 C 0.15331 0.25899 0.19098 0.0
N17 N 0.12177 0.24848 0.19481 0.0
N18 N 0.11211 0.27108 0.19256 0.0
C19 C 0.13741 0.29671 0.1871 0.0
C20 C 0.16415 0.28955 0.18584 0.0
C21 C 0.17296 0.24018 0.19227 0.0
H22 H 0.16871 0.22899 0.19983 0.0
H23 H 0.16367 0.21893 0.18676 0.0
H24 H 0.2011 0.25776 0.19111 0.0
O25 O 0.07881 0.21394 0.21478 0.0
O26 O 0.06103 0.25143 0.2115 0.0
H27 H 0.12858 0.33945 0.18841 0.0
H28 H 0.15929 0.34485 0.17885 0.0
C29 C 0.13492 0.326 0.18258 0.0
H30 H 0.11387 0.31563 0.17701 0.0
H31 H 0.08004 0.32634 0.20817 0.0
O32 O 0.10967 0.17459 0.20067 0.0
C33 C 0.06566 0.2322 0.21758 0.0
Co34 Co 0.78964 0.88898 0.20263 0.0
Co35 Co 0.73733 0.81048 0.1981 0.0
C36 C 0.80872 0.84294 0.19074 0.0
O37 O 0.81446 0.871 0.19481 0.0
O38 O 0.77903 0.81581 0.19113 0.0
C39 C 0.83074 0.95163 0.19332 0.0
O40 O 0.81996 0.92973 0.18586 0.0
C41 C 0.69156 0.74586 0.18751 0.0
C42 C 0.65118 0.71689 0.19875 0.0
C43 C 0.6609 0.71478 0.18911 0.0
N44 N 0.69931 0.76507 0.19581 0.0
N45 N 0.67517 0.74755 0.20251 0.0
C46 C 0.71211 0.75859 0.17813 0.0
H47 H 0.72784 0.78724 0.17815 0.0
H48 H 0.69479 0.74987 0.17157 0.0
H49 H 0.73004 0.74821 0.17761 0.0
C50 C 0.73414 0.8968 0.19344 0.0
N51 N 0.74654 0.87676 0.19682 0.0
N52 N 0.72542 0.84447 0.1942 0.0
C53 C 0.69917 0.84326 0.18885 0.0
C54 C 0.7042 0.87653 0.18811 0.0
C55 C 0.75036 0.93486 0.19527 0.0
H56 H 0.76441 0.94193 0.20244 0.0
H57 H 0.76866 0.94926 0.18918 0.0
H58 H 0.73031 0.94264 0.19538 0.0
O59 O 0.78467 0.86938 0.21613 0.0
O60 O 0.74889 0.81396 0.21252 0.0
H61 H 0.65887 0.79026 0.18938 0.0
H62 H 0.65143 0.81613 0.18049 0.0
C63 C 0.67136 0.81148 0.18389 0.0
H64 H 0.68301 0.80328 0.17799 0.0
H65 H 0.67488 0.75672 0.20961 0.0
O66 O 0.82048 0.94005 0.20205 0.0
C67 C 0.76772 0.83762 0.21872 0.0
Co68 Co 0.10989 0.90459 0.20146 0.0
Co69 Co 0.18834 0.92746 0.19814 0.0
C70 C 0.16002 0.97001 0.19048 0.0
O71 O 0.13051 0.94819 0.1939 0.0
O72 O 0.18607 0.9659 0.19145 0.0
C73 C 0.04783 0.88723 0.19199 0.0
O74 O 0.06981 0.89952 0.18457 0.0
C75 C 0.25335 0.94634 0.18806 0.0
C76 C 0.28007 0.93056 0.19887 0.0
C77 C 0.28354 0.94522 0.18957 0.0
N78 N 0.23313 0.93313 0.1961 0.0
N79 N 0.24925 0.92381 0.20256 0.0
C80 C 0.24245 0.95728 0.17889 0.0
H81 H 0.21385 0.94262 0.17817 0.0
H82 H 0.25434 0.95312 0.17218 0.0
H83 H 0.25084 0.98519 0.17946 0.0
C84 C 0.10086 0.84016 0.19238 0.0
N85 N 0.12107 0.87265 0.19577 0.0
N86 N 0.15363 0.88274 0.19378 0.0
C87 C 0.15502 0.85714 0.18884 0.0
C88 C 0.12166 0.82937 0.18779 0.0
C89 C 0.06214 0.82095 0.19283 0.0
H90 H 0.0533 0.82718 0.19981 0.0
H91 H 0.05191 0.82867 0.18643 0.0
H92 H 0.05124 0.79261 0.19244 0.0
O93 O 0.12822 0.91798 0.21521 0.0
O94 O 0.18349 0.9343 0.21246 0.0
H95 H 0.20581 0.8654 0.19152 0.0
H96 H 0.18262 0.83425 0.1819 0.0
C97 C 0.18763 0.85906 0.18523 0.0
H98 H 0.20001 0.87991 0.17962 0.0
H99 H 0.23908 0.91258 0.20944 0.0
O100 O 0.05912 0.88629 0.2006 0.0
C101 C 0.15933 0.93067 0.21827 0.0
Co102 Co 0.20523 0.09197 0.2992 0.0
Co103 Co 0.26125 0.06952 0.3024 0.0
C104 C 0.19043 0.02644 0.3101 0.0
O105 O 0.18274 0.04814 0.3066 0.0
O106 O 0.22078 0.03086 0.30926 0.0
C107 C 0.15329 0.10296 0.30739 0.0
O108 O 0.15403 0.08232 0.31419 0.0
C109 C 0.30835 0.05158 0.31229 0.0
C110 C 0.35052 0.06772 0.30134 0.0
C111 C 0.33981 0.05314 0.31067 0.0
N112 N 0.30078 0.06445 0.30429 0.0
N113 N 0.32603 0.07401 0.29775 0.0
C114 C 0.28686 0.04052 0.32153 0.0
H115 H 0.27289 0.0551 0.32236 0.0
H116 H 0.30318 0.04468 0.32818 0.0
H117 H 0.26737 0.0126 0.32097 0.0
C118 C 0.25945 0.15571 0.3086 0.0
N119 N 0.24794 0.12361 0.30503 0.0
N120 N 0.27106 0.11422 0.30678 0.0
C121 C 0.29812 0.14022 0.31161 0.0
C122 C 0.29166 0.16737 0.31289 0.0
C123 C 0.23836 0.17331 0.30868 0.0
H124 H 0.21617 0.15921 0.31379 0.0
H125 H 0.2533 0.20051 0.31121 0.0
H126 H 0.22808 0.1725 0.30113 0.0
O127 O 0.21055 0.07926 0.28542 0.0
O128 O 0.24913 0.06245 0.28809 0.0
H129 H 0.3496 0.16447 0.31797 0.0
H130 H 0.32253 0.11875 0.32044 0.0
C131 C 0.32977 0.13935 0.3148 0.0
H132 H 0.34106 0.13317 0.30834 0.0
H133 H 0.32667 0.08507 0.29088 0.0
O134 O 0.17327 0.11105 0.2999 0.0
C135 C 0.22871 0.06636 0.28231 0.0
Co136 Co 0.90502 0.11277 0.29782 0.0
Co137 Co 0.92642 0.19055 0.30217 0.0
C138 C 0.96994 0.16298 0.30918 0.0
O139 O 0.94894 0.13406 0.30526 0.0
O140 O 0.96502 0.18866 0.30881 0.0
C141 C 0.88868 0.05105 0.30713 0.0
O142 O 0.9003 0.07311 0.31454 0.0
C143 C 0.94953 0.25954 0.31079 0.0
C144 C 0.91181 0.27229 0.3043 0.0
C145 C 0.939 0.28406 0.31098 0.0
N146 N 0.92884 0.23405 0.30452 0.0
N147 N 0.9067 0.24212 0.30056 0.0
C148 C 0.97993 0.26105 0.31596 0.0
H149 H 0.99393 0.25309 0.31077 0.0
H150 H 0.97067 0.24278 0.32231 0.0
H151 H 0.99832 0.2875 0.31864 0.0
C152 C 0.84133 0.10083 0.30774 0.0
N153 N 0.87285 0.12235 0.30395 0.0
N154 N 0.88261 0.15425 0.30665 0.0
C155 C 0.85797 0.15374 0.3126 0.0
C156 C 0.83106 0.11981 0.31348 0.0
C157 C 0.82094 0.06273 0.30578 0.0
H158 H 0.82775 0.05668 0.29842 0.0
H159 H 0.82663 0.04876 0.31161 0.0
H160 H 0.79278 0.05346 0.306 0.0
O161 O 0.91727 0.13216 0.28425 0.0
O162 O 0.93376 0.18709 0.28766 0.0
H163 H 0.85354 0.1991 0.3134 0.0
H164 H 0.84539 0.17628 0.32498 0.0
C165 C 0.86177 0.18438 0.31821 0.0
H166 H 0.88916 0.20154 0.32036 0.0
H167 H 0.8874 0.22647 0.29552 0.0
O168 O 0.88777 0.06214 0.29848 0.0
C169 C 0.93003 0.16362 0.28154 0.0
Co170 Co 0.88953 0.7917 0.29813 0.0
Co171 Co 0.81093 0.73961 0.30288 0.0
C172 C 0.84347 0.8114 0.30984 0.0
O173 O 0.87143 0.81679 0.30578 0.0
O174 O 0.81627 0.78171 0.30962 0.0
C175 C 0.95243 0.83301 0.30736 0.0
O176 O 0.93066 0.82259 0.31485 0.0
C177 C 0.74574 0.6914 0.31326 0.0
C178 C 0.71635 0.65495 0.30118 0.0
C179 C 0.71446 0.66196 0.31109 0.0
N180 N 0.76541 0.70115 0.30501 0.0
N181 N 0.74766 0.67916 0.29784 0.0
C182 C 0.75566 0.71142 0.32277 0.0
H183 H 0.78254 0.73342 0.32241 0.0
H184 H 0.75349 0.69443 0.32905 0.0
H185 H 0.73759 0.7212 0.32423 0.0
C186 C 0.89738 0.7366 0.30752 0.0
N187 N 0.87728 0.74888 0.30411 0.0
N188 N 0.8451 0.72809 0.30689 0.0
C189 C 0.84405 0.70227 0.31242 0.0
C190 C 0.8773 0.70717 0.31308 0.0
C191 C 0.93528 0.75241 0.30547 0.0
H192 H 0.94193 0.76601 0.29823 0.0
H193 H 0.95023 0.77105 0.31144 0.0
H194 H 0.9428 0.73217 0.30539 0.0
O195 O 0.86994 0.78614 0.28463 0.0
O196 O 0.8146 0.75083 0.28841 0.0
H197 H 0.79126 0.66154 0.31226 0.0
H198 H 0.81747 0.65629 0.32155 0.0
C199 C 0.81254 0.67531 0.31768 0.0
H200 H 0.80428 0.68807 0.32321 0.0
H201 H 0.75685 0.68085 0.29062 0.0
O202 O 0.94065 0.82252 0.29866 0.0
C203 C 0.83811 0.7692 0.28213 0.0
Co204 Co 0.89842 0.78973 0.79721 0.0
Co205 Co 0.92666 0.73916 0.80179 0.0
C206 C 0.96505 0.81089 0.80868 0.0
O207 O 0.94196 0.81578 0.80475 0.0
O208 O 0.96298 0.78142 0.80843 0.0
C209 C 0.87602 0.82982 0.80663 0.0
O210 O 0.88721 0.8189 0.81404 0.0
C211 C 0.94889 0.69556 0.81205 0.0
C212 C 0.93144 0.65156 0.80168 0.0
C213 C 0.94752 0.66401 0.81076 0.0
N214 N 0.93437 0.70141 0.8041 0.0
N215 N 0.92414 0.67511 0.79791 0.0
C216 C 0.96108 0.71854 0.82099 0.0
H217 H 0.98895 0.7378 0.8201 0.0
H218 H 0.94671 0.73274 0.82173 0.0
H219 H 0.95762 0.7033 0.82783 0.0
C220 C 0.83566 0.73255 0.80644 0.0
N221 N 0.8685 0.74654 0.80318 0.0
N222 N 0.88109 0.72676 0.80594 0.0
C223 C 0.85695 0.70021 0.81137 0.0
C224 C 0.82742 0.70302 0.81181 0.0
C225 C 0.813 0.74801 0.80494 0.0
H226 H 0.81985 0.7631 0.79795 0.0
H227 H 0.81633 0.76524 0.81129 0.0
H228 H 0.78536 0.72752 0.80468 0.0
O229 O 0.91268 0.78465 0.78364 0.0
O230 O 0.93361 0.75003 0.78735 0.0
H231 H 0.86767 0.65869 0.81057 0.0
H232 H 0.83902 0.65464 0.82058 0.0
C233 C 0.86219 0.67315 0.81629 0.0
H234 H 0.88476 0.68572 0.82134 0.0
H235 H 0.91166 0.67298 0.79118 0.0
O236 O 0.8774 0.81985 0.79787 0.0
C237 C 0.92802 0.76817 0.7811 0.0
Co238 Co 0.20887 0.11084 0.7973 0.0
Co239 Co 0.26264 0.18902 0.8019 0.0
C240 C 0.19133 0.15822 0.80912 0.0
O241 O 0.18501 0.12998 0.80506 0.0
O242 O 0.22129 0.18497 0.80875 0.0
C243 C 0.16501 0.04855 0.80648 0.0
O244 O 0.17587 0.07031 0.81397 0.0
C245 C 0.30791 0.25477 0.81207 0.0
C246 C 0.35261 0.2795 0.80187 0.0
C247 C 0.33999 0.28436 0.81076 0.0
N248 N 0.30186 0.23365 0.80428 0.0
N249 N 0.32866 0.2486 0.79821 0.0
C250 C 0.28441 0.24528 0.82087 0.0
H251 H 0.26983 0.21681 0.82188 0.0
H252 H 0.29928 0.25766 0.82772 0.0
H253 H 0.26547 0.25408 0.81959 0.0
C254 C 0.26276 0.1013 0.80686 0.0
N255 N 0.25133 0.1219 0.80328 0.0
N256 N 0.27284 0.15405 0.80592 0.0
C257 C 0.29833 0.1547 0.8115 0.0
C258 C 0.29252 0.12116 0.81233 0.0
C259 C 0.24567 0.06313 0.80508 0.0
H260 H 0.23226 0.05639 0.79781 0.0
H261 H 0.22655 0.04922 0.81104 0.0
H262 H 0.26506 0.05448 0.80524 0.0
O263 O 0.2148 0.13079 0.78382 0.0
O264 O 0.25153 0.18598 0.78744 0.0
H265 H 0.34266 0.20541 0.81103 0.0
H266 H 0.3418 0.18013 0.82161 0.0
C267 C 0.32575 0.18624 0.81665 0.0
H268 H 0.3135 0.19808 0.82109 0.0
H269 H 0.3307 0.23756 0.7916 0.0
O270 O 0.1766 0.05997 0.79782 0.0
C271 C 0.2324 0.16251 0.78124 0.0
Co272 Co 0.89051 0.09495 0.79818 0.0
Co273 Co 0.81264 0.07262 0.80232 0.0
C274 C 0.84102 0.02971 0.8095 0.0
O275 O 0.87004 0.05136 0.80575 0.0
O276 O 0.815 0.03409 0.80897 0.0
C277 C 0.95251 0.11287 0.8075 0.0
O278 O 0.93058 0.10131 0.81495 0.0
C279 C 0.74686 0.05331 0.81223 0.0
C280 C 0.72391 0.07546 0.80215 0.0
C281 C 0.71809 0.05718 0.81093 0.0
N282 N 0.76848 0.06841 0.80454 0.0
N283 N 0.75458 0.08155 0.79854 0.0
C284 C 0.75525 0.03812 0.82097 0.0
H285 H 0.78364 0.05142 0.82213 0.0
H286 H 0.7426 0.04033 0.8278 0.0
H287 H 0.74597 0.01038 0.8195 0.0
C288 C 0.90126 0.15894 0.80775 0.0
N289 N 0.88027 0.12698 0.80416 0.0
N290 N 0.84813 0.11711 0.80661 0.0
C291 C 0.84786 0.14235 0.81209 0.0
C292 C 0.88164 0.16957 0.81304 0.0
C293 C 0.93949 0.17952 0.80601 0.0
H294 H 0.94616 0.17257 0.79878 0.0
H295 H 0.9531 0.17415 0.81203 0.0
H296 H 0.94857 0.20766 0.80611 0.0
O297 O 0.87129 0.08186 0.78458 0.0
O298 O 0.81627 0.06517 0.78788 0.0
H299 H 0.79831 0.13856 0.81118 0.0
H300 H 0.82275 0.16104 0.8221 0.0
C301 C 0.8163 0.13921 0.81697 0.0
H302 H 0.80293 0.11463 0.82118 0.0
H303 H 0.76624 0.09499 0.79202 0.0
O304 O 0.94118 0.11304 0.79884 0.0
C305 C 0.83985 0.06884 0.78181 0.0
Co306 Co 0.78943 0.89827 0.70265 0.0
Co307 Co 0.73847 0.92612 0.69816 0.0
C308 C 0.81006 0.96474 0.69114 0.0
O309 O 0.81513 0.94175 0.69506 0.0
O310 O 0.78054 0.96258 0.69145 0.0
C311 C 0.82993 0.87629 0.69321 0.0
O312 O 0.81905 0.88748 0.68579 0.0
C313 C 0.69437 0.9481 0.68804 0.0
C314 C 0.65045 0.93014 0.69846 0.0
C315 C 0.66272 0.94646 0.68941 0.0
N316 N 0.70046 0.93351 0.69594 0.0
N317 N 0.67419 0.92297 0.70216 0.0
C318 C 0.71725 0.96063 0.67909 0.0
H319 H 0.73156 0.9464 0.67826 0.0
H320 H 0.70191 0.9573 0.67227 0.0
H321 H 0.73643 0.9885 0.68002 0.0
C322 C 0.73238 0.83537 0.69342 0.0
N323 N 0.74621 0.86816 0.69671 0.0
N324 N 0.72625 0.8806 0.694 0.0
C325 C 0.69975 0.85641 0.68856 0.0
C326 C 0.70278 0.82701 0.68807 0.0
C327 C 0.74815 0.81295 0.69483 0.0
H328 H 0.76327 0.81977 0.70182 0.0
H329 H 0.76542 0.81657 0.68847 0.0
H330 H 0.72785 0.78524 0.69506 0.0
O331 O 0.78448 0.91254 0.71622 0.0
O332 O 0.74958 0.9332 0.71259 0.0
H333 H 0.65798 0.86674 0.68944 0.0
H334 H 0.65412 0.83837 0.67937 0.0
C335 C 0.67253 0.86151 0.68369 0.0
H336 H 0.68496 0.8842 0.67867 0.0
H337 H 0.67224 0.91039 0.70886 0.0
O338 O 0.81978 0.87751 0.70196 0.0
C339 C 0.76791 0.92775 0.71881 0.0
Co340 Co 0.09531 0.89065 0.70176 0.0
Co341 Co 0.07276 0.81275 0.69765 0.0
C342 C 0.0299 0.84119 0.69049 0.0
O343 O 0.05163 0.87018 0.69423 0.0
O344 O 0.03421 0.81512 0.691 0.0
C345 C 0.11329 0.95242 0.69234 0.0
O346 O 0.10175 0.9303 0.68493 0.0
C347 C 0.05313 0.74676 0.68784 0.0
C348 C 0.07557 0.72403 0.69789 0.0
C349 C 0.05702 0.71801 0.68916 0.0
N350 N 0.06848 0.76855 0.69547 0.0
N351 N 0.08179 0.7548 0.70146 0.0
C352 C 0.03768 0.75493 0.67912 0.0
H353 H 0.01001 0.7458 0.68067 0.0
H354 H 0.05103 0.78328 0.67788 0.0
H355 H 0.03957 0.74203 0.6723 0.0
C356 C 0.15915 0.90119 0.69214 0.0
N357 N 0.12722 0.88027 0.69576 0.0
N358 N 0.11722 0.84812 0.6933 0.0
C359 C 0.14233 0.84774 0.68778 0.0
C360 C 0.1696 0.88148 0.68681 0.0
C361 C 0.17986 0.93941 0.69387 0.0
H362 H 0.17296 0.94615 0.7011 0.0
H363 H 0.17459 0.95307 0.68785 0.0
H364 H 0.20797 0.94836 0.69377 0.0
O365 O 0.08235 0.87161 0.71538 0.0
O366 O 0.06548 0.81655 0.71208 0.0
H367 H 0.13846 0.79817 0.68865 0.0
H368 H 0.16068 0.82254 0.6777 0.0
C369 C 0.13899 0.81615 0.68288 0.0
H370 H 0.11429 0.80278 0.67873 0.0
H371 H 0.09543 0.76661 0.70794 0.0
O372 O 0.11346 0.9413 0.70103 0.0
C373 C 0.06928 0.84017 0.71815 0.0
Co374 Co 0.1104 0.20835 0.70198 0.0
Co375 Co 0.18861 0.26221 0.6974 0.0
C376 C 0.15786 0.19079 0.69024 0.0
O377 O 0.12954 0.18442 0.69426 0.0
O378 O 0.18457 0.22077 0.69062 0.0
C379 C 0.04795 0.16425 0.69286 0.0
O380 O 0.06962 0.17481 0.68535 0.0
C381 C 0.25414 0.30732 0.68713 0.0
C382 C 0.27924 0.35202 0.69731 0.0
C383 C 0.28381 0.33937 0.68839 0.0
N384 N 0.23324 0.30135 0.69497 0.0
N385 N 0.24842 0.32814 0.70103 0.0
C386 C 0.24434 0.28381 0.67833 0.0
H387 H 0.25323 0.2649 0.67953 0.0
H388 H 0.21583 0.26919 0.6774 0.0
H389 H 0.25646 0.29868 0.67145 0.0
C390 C 0.10084 0.26214 0.69235 0.0
N391 N 0.12145 0.25074 0.69595 0.0
N392 N 0.15363 0.27232 0.69334 0.0
C393 C 0.15429 0.29783 0.68777 0.0
C394 C 0.12074 0.29195 0.6869 0.0
C395 C 0.06265 0.24498 0.69408 0.0
H396 H 0.05585 0.23162 0.70136 0.0
H397 H 0.04886 0.22581 0.68812 0.0
H398 H 0.05393 0.26431 0.69388 0.0
O399 O 0.13038 0.21447 0.71547 0.0
O400 O 0.18556 0.25135 0.71187 0.0
H401 H 0.20507 0.34205 0.68832 0.0
H402 H 0.17984 0.34167 0.67779 0.0
C403 C 0.18588 0.32539 0.68267 0.0
H404 H 0.19765 0.31324 0.67815 0.0
H405 H 0.23758 0.33022 0.70768 0.0
O406 O 0.0595 0.17609 0.70149 0.0
C407 C 0.16207 0.23221 0.71807 0.0
Co408 Co 0.76318 0.54159 0.53412 0.0
Co409 Co 0.73674 0.59408 0.53019 0.0
C410 C 0.69653 0.5225 0.52302 0.0
O411 O 0.71935 0.51669 0.5267 0.0
O412 O 0.69937 0.55229 0.52353 0.0
C413 C 0.78357 0.4997 0.52455 0.0
O414 O 0.77155 0.50979 0.51716 0.0
C415 C 0.72006 0.64263 0.52011 0.0
C416 C 0.72608 0.67813 0.53237 0.0
C417 C 0.71797 0.67183 0.5224 0.0
N418 N 0.72943 0.63237 0.52835 0.0
N419 N 0.73302 0.65374 0.53564 0.0
C420 C 0.71079 0.62327 0.51049 0.0
H421 H 0.68289 0.61294 0.50896 0.0
H422 H 0.71631 0.60168 0.51076 0.0
H423 H 0.72559 0.6408 0.5043 0.0
C424 C 0.82638 0.59808 0.52492 0.0
N425 N 0.79366 0.58477 0.52822 0.0
N426 N 0.78214 0.60582 0.52585 0.0
C427 C 0.80708 0.63277 0.5207 0.0
C428 C 0.83578 0.62864 0.51998 0.0
C429 C 0.84797 0.58128 0.52608 0.0
H430 H 0.84148 0.5664 0.5331 0.0
H431 H 0.843 0.56355 0.51974 0.0
H432 H 0.87593 0.6009 0.52606 0.0
O433 O 0.75005 0.54671 0.54784 0.0
O434 O 0.73046 0.58275 0.54461 0.0
H435 H 0.795 0.67327 0.52226 0.0
H436 H 0.82853 0.68223 0.51328 0.0
C437 C 0.80364 0.66178 0.51642 0.0
H438 H 0.78397 0.65157 0.51044 0.0
H439 H 0.74005 0.65157 0.54288 0.0
O440 O 0.78329 0.5107 0.53326 0.0
C441 C 0.73582 0.56395 0.55067 0.0
Co442 Co 0.45711 0.22245 0.5353 0.0
Co443 Co 0.40546 0.14352 0.531 0.0
C444 C 0.47631 0.17605 0.52348 0.0
O445 O 0.48182 0.20412 0.5275 0.0
O446 O 0.44675 0.14876 0.52389 0.0
C447 C 0.49816 0.28497 0.52579 0.0
O448 O 0.48727 0.26297 0.51835 0.0
C449 C 0.35944 0.07652 0.52141 0.0
C450 C 0.31775 0.05149 0.53256 0.0
C451 C 0.32815 0.04665 0.52331 0.0
N452 N 0.36683 0.09816 0.52913 0.0
N453 N 0.34185 0.08303 0.53577 0.0
C454 C 0.38355 0.08358 0.51286 0.0
H455 H 0.39012 0.10867 0.50939 0.0
H456 H 0.37263 0.06272 0.50724 0.0
H457 H 0.40799 0.08601 0.51571 0.0
C458 C 0.39979 0.22851 0.52643 0.0
N459 N 0.41359 0.20944 0.52963 0.0
N460 N 0.39325 0.17699 0.52701 0.0
C461 C 0.36645 0.17472 0.52175 0.0
C462 C 0.36971 0.20726 0.52126 0.0
C463 C 0.41609 0.26682 0.52772 0.0
H464 H 0.43144 0.27521 0.53466 0.0
H465 H 0.4333 0.28002 0.52131 0.0
H466 H 0.39611 0.27465 0.52794 0.0
O467 O 0.45288 0.20353 0.54889 0.0
O468 O 0.41773 0.14795 0.54535 0.0
H469 H 0.32422 0.12291 0.52286 0.0
H470 H 0.32049 0.14716 0.51268 0.0
C471 C 0.33879 0.14232 0.51702 0.0
H472 H 0.35081 0.13149 0.51206 0.0
H473 H 0.34125 0.09429 0.5425 0.0
O474 O 0.48779 0.27357 0.53452 0.0
C475 C 0.43636 0.17179 0.55151 0.0
Co476 Co 0.77775 0.23947 0.53468 0.0
Co477 Co 0.85637 0.26428 0.53082 0.0
C478 C 0.8257 0.3042 0.52291 0.0
O479 O 0.79706 0.28221 0.52677 0.0
O480 O 0.85243 0.30108 0.52362 0.0
C481 C 0.71539 0.22008 0.52522 0.0
O482 O 0.73727 0.23147 0.51776 0.0
C483 C 0.92192 0.28354 0.52085 0.0
C484 C 0.9486 0.26866 0.53194 0.0
C485 C 0.95225 0.2828 0.52255 0.0
N486 N 0.90149 0.27061 0.52887 0.0
N487 N 0.9176 0.26183 0.53548 0.0
C488 C 0.91115 0.29389 0.51154 0.0
H489 H 0.88257 0.27914 0.51077 0.0
H490 H 0.92319 0.28937 0.50493 0.0
H491 H 0.91947 0.32181 0.51194 0.0
C492 C 0.76983 0.17492 0.52604 0.0
N493 N 0.78964 0.20779 0.52919 0.0
N494 N 0.82216 0.21864 0.52693 0.0
C495 C 0.82389 0.19314 0.52204 0.0
C496 C 0.7908 0.16463 0.52131 0.0
C497 C 0.73117 0.15486 0.52681 0.0
H498 H 0.72261 0.16195 0.53369 0.0
H499 H 0.7199 0.16087 0.5203 0.0
H500 H 0.72108 0.12662 0.52685 0.0
O501 O 0.79669 0.25432 0.5483 0.0
O502 O 0.85212 0.2726 0.5451 0.0
H503 H 0.87553 0.20313 0.52421 0.0
H504 H 0.85192 0.17123 0.5148 0.0
C505 C 0.85654 0.19595 0.5181 0.0
H506 H 0.86776 0.21658 0.51239 0.0
H507 H 0.90728 0.2509 0.54238 0.0
O508 O 0.72682 0.2203 0.5339 0.0
C509 C 0.82822 0.26846 0.55109 0.0
Co510 Co 0.87493 0.43271 0.63125 0.0
Co511 Co 0.92869 0.40799 0.63527 0.0
C512 C 0.85731 0.36672 0.64246 0.0
O513 O 0.85085 0.38901 0.63872 0.0
O514 O 0.88731 0.37012 0.64193 0.0
C515 C 0.83204 0.45162 0.6408 0.0
O516 O 0.84247 0.43977 0.64816 0.0
C517 C 0.97389 0.38702 0.64515 0.0
C518 C 0.01878 0.4078 0.63501 0.0
C519 C 0.00612 0.38991 0.64383 0.0
N520 N 0.96781 0.40232 0.63744 0.0
N521 N 0.99468 0.41461 0.63139 0.0
C522 C 0.95039 0.37257 0.65394 0.0
H523 H 0.93576 0.38636 0.65504 0.0
H524 H 0.96525 0.3748 0.66077 0.0
H525 H 0.93151 0.34486 0.65258 0.0
C526 C 0.92923 0.49552 0.64101 0.0
N527 N 0.91753 0.46364 0.63726 0.0
N528 N 0.93905 0.45278 0.63967 0.0
C529 C 0.96479 0.47729 0.64527 0.0
C530 C 0.95913 0.50503 0.64635 0.0
C531 C 0.91238 0.51694 0.63949 0.0
H532 H 0.89869 0.51069 0.63226 0.0
H533 H 0.8936 0.5117 0.64555 0.0
H534 H 0.93197 0.54492 0.63969 0.0
O535 O 0.88059 0.41975 0.6176 0.0
O536 O 0.91752 0.40121 0.62083 0.0
H537 H 0.00893 0.4707 0.6444 0.0
H538 H 0.00892 0.49505 0.65511 0.0
C539 C 0.99246 0.47296 0.65017 0.0
H540 H 0.98041 0.4488 0.65459 0.0
H541 H 0.99675 0.42802 0.62484 0.0
O542 O 0.84323 0.45182 0.63208 0.0
C543 C 0.89823 0.40593 0.61478 0.0
Co544 Co 0.57158 0.44469 0.63065 0.0
Co545 Co 0.59546 0.52277 0.63534 0.0
C546 C 0.63595 0.49235 0.64272 0.0
O547 O 0.61448 0.46417 0.63852 0.0
O548 O 0.63231 0.51884 0.64243 0.0
C549 C 0.55223 0.3825 0.63996 0.0
O550 O 0.56295 0.40442 0.64741 0.0
C551 C 0.619 0.59169 0.64418 0.0
C552 C 0.58342 0.6061 0.63705 0.0
C553 C 0.60934 0.61691 0.64412 0.0
N554 N 0.599 0.5668 0.63767 0.0
N555 N 0.57815 0.57585 0.63334 0.0
C556 C 0.64793 0.59193 0.64987 0.0
H557 H 0.66207 0.58318 0.645 0.0
H558 H 0.63708 0.57371 0.65621 0.0
H559 H 0.66659 0.61817 0.65264 0.0
C560 C 0.5077 0.4345 0.63999 0.0
N561 N 0.5398 0.45539 0.63648 0.0
N562 N 0.5505 0.48731 0.63937 0.0
C563 C 0.52584 0.48739 0.64518 0.0
C564 C 0.49795 0.45385 0.64576 0.0
C565 C 0.48636 0.39662 0.6378 0.0
H566 H 0.49369 0.39062 0.63052 0.0
H567 H 0.49051 0.3817 0.64368 0.0
H568 H 0.45842 0.38843 0.63773 0.0
O569 O 0.58577 0.46457 0.61721 0.0
O570 O 0.60424 0.51974 0.62088 0.0
H571 H 0.52383 0.53405 0.64614 0.0
H572 H 0.51326 0.50996 0.65755 0.0
C573 C 0.53043 0.51804 0.65096 0.0
H574 H 0.55771 0.53398 0.65338 0.0
H575 H 0.55958 0.56083 0.62805 0.0
O576 O 0.55287 0.39386 0.63124 0.0
C577 C 0.60007 0.49633 0.61467 0.0
Co578 Co 0.55788 0.1266 0.63095 0.0
Co579 Co 0.4797 0.07305 0.63557 0.0
C580 C 0.51043 0.14467 0.64253 0.0
O581 O 0.53879 0.15089 0.63856 0.0
O582 O 0.48372 0.11467 0.64221 0.0
C583 C 0.62015 0.16947 0.6402 0.0
O584 O 0.59824 0.15873 0.64765 0.0
C585 C 0.4138 0.02809 0.64573 0.0
C586 C 0.38976 0.98256 0.63582 0.0
C587 C 0.38454 0.99568 0.64456 0.0
N588 N 0.4351 0.03383 0.63801 0.0
N589 N 0.42055 0.00654 0.63211 0.0
C590 C 0.42286 0.05215 0.65438 0.0
H591 H 0.45128 0.06686 0.65548 0.0
H592 H 0.41022 0.03773 0.66127 0.0
H593 H 0.41403 0.07094 0.65285 0.0
C594 C 0.56726 0.07274 0.64058 0.0
N595 N 0.54671 0.08426 0.63701 0.0
N596 N 0.5146 0.06299 0.63974 0.0
C597 C 0.51396 0.03767 0.6454 0.0
C598 C 0.54746 0.04328 0.64617 0.0
C599 C 0.60526 0.08923 0.63858 0.0
H600 H 0.61172 0.10255 0.63129 0.0
H601 H 0.61984 0.1083 0.64449 0.0
H602 H 0.61342 0.06947 0.63863 0.0
O603 O 0.53815 0.1204 0.61745 0.0
O604 O 0.48292 0.08374 0.62107 0.0
H605 H 0.46355 0.9929 0.6451 0.0
H606 H 0.48879 0.99526 0.65586 0.0
C607 C 0.4825 0.01056 0.65065 0.0
H608 H 0.4703 0.023 0.65484 0.0
H609 H 0.43184 0.00416 0.62559 0.0
O610 O 0.60875 0.15843 0.63151 0.0
C611 C 0.50645 0.10273 0.61486 0.0
Co612 Co 0.56883 0.12612 0.13115 0.0
Co613 Co 0.59336 0.07252 0.13596 0.0
C614 C 0.63402 0.14414 0.14294 0.0
O615 O 0.61198 0.15031 0.13888 0.0
O616 O 0.63082 0.11417 0.14266 0.0
C617 C 0.54912 0.16908 0.14028 0.0
O618 O 0.56016 0.15839 0.14778 0.0
C619 C 0.61354 0.02693 0.14616 0.0
C620 C 0.59094 0.9812 0.13632 0.0
C621 C 0.60943 0.99411 0.14504 0.0
N622 N 0.5983 0.03306 0.13843 0.0
N623 N 0.58495 0.00567 0.13256 0.0
C624 C 0.62902 0.05098 0.15479 0.0
H625 H 0.61595 0.06633 0.15586 0.0
H626 H 0.62681 0.03648 0.1617 0.0
H627 H 0.65678 0.06919 0.15326 0.0
C628 C 0.50535 0.07222 0.14071 0.0
N629 N 0.53751 0.08378 0.1372 0.0
N630 N 0.54835 0.06259 0.14001 0.0
C631 C 0.52358 0.03731 0.14567 0.0
C632 C 0.49564 0.04283 0.14634 0.0
C633 C 0.48384 0.08864 0.13862 0.0
H634 H 0.49085 0.10189 0.13132 0.0
H635 H 0.48821 0.10776 0.1445 0.0
H636 H 0.45591 0.06884 0.13864 0.0
O637 O 0.58272 0.11972 0.11769 0.0
O638 O 0.60101 0.08298 0.12147 0.0
H639 H 0.52878 0.99229 0.14556 0.0
H640 H 0.5066 0.99557 0.15635 0.0
C641 C 0.52796 0.01041 0.15103 0.0
H642 H 0.55282 0.02298 0.15512 0.0
H643 H 0.57129 0.0035 0.12606 0.0
O644 O 0.54972 0.15802 0.13161 0.0
C645 C 0.59664 0.10187 0.11518 0.0
Co646 Co 0.87068 0.44557 0.13214 0.0
Co647 Co 0.92432 0.52431 0.136 0.0
C648 C 0.85383 0.49294 0.14412 0.0
O649 O 0.84723 0.46442 0.14019 0.0
O650 O 0.88361 0.51978 0.14337 0.0
C651 C 0.82845 0.38292 0.14157 0.0
O652 O 0.83896 0.40463 0.14907 0.0
C653 C 0.97416 0.58894 0.1461 0.0
C654 C 0.0068 0.61998 0.13355 0.0
C655 C 0.00233 0.62088 0.14369 0.0
N656 N 0.96274 0.5699 0.13777 0.0
N657 N 0.98247 0.58859 0.1303 0.0
C658 C 0.9567 0.5777 0.15598 0.0
H659 H 0.93365 0.55148 0.15554 0.0
H660 H 0.97478 0.57723 0.16153 0.0
H661 H 0.94906 0.59651 0.1586 0.0
C662 C 0.92811 0.43801 0.14025 0.0
N663 N 0.91463 0.45776 0.13742 0.0
N664 N 0.93656 0.49033 0.13958 0.0
C665 C 0.96457 0.49214 0.14401 0.0
C666 C 0.96007 0.45907 0.14462 0.0
C667 C 0.90939 0.39934 0.13948 0.0
H668 H 0.89354 0.39085 0.13263 0.0
H669 H 0.89226 0.38811 0.14602 0.0
H670 H 0.92734 0.38904 0.13936 0.0
O671 O 0.87407 0.46447 0.11855 0.0
O672 O 0.91088 0.51993 0.1218 0.0
H673 H 0.01708 0.52061 0.14953 0.0
H674 H 0.98804 0.5345 0.15413 0.0
C675 C 0.99537 0.52484 0.14752 0.0
H676 H 0.00412 0.54474 0.14161 0.0
H677 H 0.97905 0.58004 0.12296 0.0
O678 O 0.8393 0.3946 0.13288 0.0
C679 C 0.8911 0.49607 0.1158 0.0
Co680 Co 0.55419 0.43064 0.13202 0.0
Co681 Co 0.47537 0.40539 0.13573 0.0
C682 C 0.50571 0.36441 0.1431 0.0
O683 O 0.53455 0.38699 0.13948 0.0
O684 O 0.47895 0.36754 0.14245 0.0
C685 C 0.61598 0.44972 0.14171 0.0
O686 O 0.59361 0.4378 0.14905 0.0
C687 C 0.40914 0.38495 0.14553 0.0
C688 C 0.38404 0.40298 0.13484 0.0
C689 C 0.37942 0.38692 0.14396 0.0
N690 N 0.43023 0.3991 0.13769 0.0
N691 N 0.41502 0.4097 0.13131 0.0
C692 C 0.41877 0.37239 0.15462 0.0
H693 H 0.44726 0.38676 0.15564 0.0
H694 H 0.40611 0.37554 0.16131 0.0
H695 H 0.41028 0.34456 0.15369 0.0
C696 C 0.56169 0.49443 0.14102 0.0
N697 N 0.54203 0.46164 0.13781 0.0
N698 N 0.50947 0.45056 0.14006 0.0
C699 C 0.50756 0.47579 0.14506 0.0
C700 C 0.54059 0.50443 0.14581 0.0
C701 C 0.60032 0.51483 0.14015 0.0
H702 H 0.60877 0.50792 0.13321 0.0
H703 H 0.61194 0.50892 0.14659 0.0
H704 H 0.61022 0.54302 0.14014 0.0
O705 O 0.53592 0.41747 0.11829 0.0
O706 O 0.48032 0.39894 0.12132 0.0
H707 H 0.47941 0.49677 0.15273 0.0
H708 H 0.4625 0.45077 0.15422 0.0
C709 C 0.47476 0.47274 0.14895 0.0
H710 H 0.4566 0.46739 0.14271 0.0
H711 H 0.42602 0.42194 0.12459 0.0
O712 O 0.60507 0.44986 0.13298 0.0
C713 C 0.50458 0.4038 0.11536 0.0
Co714 Co 0.45941 0.23669 0.03596 0.0
Co715 Co 0.40664 0.26201 0.03084 0.0
C716 C 0.4777 0.30095 0.02354 0.0
O717 O 0.48361 0.27923 0.02794 0.0
O718 O 0.44786 0.29809 0.02368 0.0
C719 C 0.50095 0.2154 0.02686 0.0
O720 O 0.48996 0.22602 0.01933 0.0
C721 C 0.3613 0.28561 0.02188 0.0
C722 C 0.31172 0.25101 0.02937 0.0
C723 C 0.32652 0.27634 0.02213 0.0
N724 N 0.36641 0.26596 0.02848 0.0
N725 N 0.33675 0.24569 0.03301 0.0
C726 C 0.38974 0.31382 0.01593 0.0
H727 H 0.41333 0.32769 0.02055 0.0
H728 H 0.39583 0.30228 0.00949 0.0
H729 H 0.38248 0.33283 0.01326 0.0
C730 C 0.40501 0.17301 0.02672 0.0
N731 N 0.41677 0.20531 0.03013 0.0
N732 N 0.39629 0.21664 0.02702 0.0
C733 C 0.37155 0.19219 0.02116 0.0
C734 C 0.3764 0.16379 0.02078 0.0
C735 C 0.42067 0.15102 0.0291 0.0
H736 H 0.434 0.15845 0.03638 0.0
H737 H 0.43956 0.15429 0.02326 0.0
H738 H 0.40037 0.12327 0.02927 0.0
O739 O 0.4539 0.25162 0.0493 0.0
O740 O 0.41837 0.27119 0.04529 0.0
H741 H 0.32371 0.19176 0.01987 0.0
H742 H 0.33705 0.17995 0.00864 0.0
C743 C 0.34633 0.19744 0.01517 0.0
H744 H 0.35852 0.22468 0.01263 0.0
H745 H 0.3334 0.2275 0.03841 0.0
O746 O 0.49069 0.21698 0.03556 0.0
C747 C 0.43699 0.26668 0.05164 0.0
Co748 Co 0.76062 0.21933 0.03561 0.0
Co749 Co 0.73701 0.14117 0.03097 0.0
C750 C 0.69458 0.17044 0.02434 0.0
O751 O 0.71636 0.19887 0.02836 0.0
O752 O 0.6987 0.14421 0.02442 0.0
C753 C 0.77398 0.28219 0.02727 0.0
O754 O 0.75644 0.26082 0.02005 0.0
C755 C 0.71313 0.07184 0.02234 0.0
C756 C 0.75008 0.05852 0.02909 0.0
C757 C 0.72315 0.0469 0.02233 0.0
N758 N 0.73384 0.09735 0.0286 0.0
N759 N 0.75553 0.08895 0.0327 0.0
C760 C 0.68324 0.07079 0.01698 0.0
H761 H 0.66965 0.0798 0.02198 0.0
H762 H 0.69301 0.08845 0.0105 0.0
H763 H 0.66438 0.04426 0.01446 0.0
C764 C 0.82285 0.23015 0.02521 0.0
N765 N 0.79159 0.20893 0.02917 0.0
N766 N 0.78115 0.17693 0.02643 0.0
C767 C 0.80524 0.17704 0.02032 0.0
C768 C 0.83242 0.21085 0.01934 0.0
C769 C 0.84332 0.26834 0.027 0.0
H770 H 0.83868 0.27438 0.03463 0.0
H771 H 0.83521 0.28173 0.02162 0.0
H772 H 0.87141 0.2782 0.02599 0.0
O773 O 0.74878 0.1998 0.04914 0.0
O774 O 0.73013 0.14458 0.04552 0.0
H775 H 0.80835 0.13095 0.01947 0.0
H776 H 0.81695 0.15395 0.00789 0.0
C777 C 0.80065 0.14615 0.01467 0.0
H778 H 0.77314 0.12951 0.01255 0.0
H779 H 0.77472 0.10451 0.03778 0.0
O780 O 0.77954 0.27033 0.03523 0.0
C781 C 0.73501 0.16816 0.05176 0.0
Co782 Co 0.77828 0.53991 0.03433 0.0
Co783 Co 0.85675 0.59626 0.03135 0.0
C784 C 0.82973 0.52479 0.0242 0.0
O785 O 0.79978 0.51681 0.02729 0.0
O786 O 0.85544 0.55518 0.02518 0.0
C787 C 0.71681 0.49448 0.02474 0.0
O788 O 0.73916 0.50362 0.01743 0.0
C789 C 0.92259 0.64189 0.02152 0.0
C790 C 0.94713 0.68648 0.03175 0.0
C791 C 0.95209 0.67395 0.02286 0.0
N792 N 0.90137 0.63574 0.02928 0.0
N793 N 0.9162 0.66244 0.03539 0.0
C794 C 0.91319 0.61854 0.01269 0.0
H795 H 0.8847 0.60389 0.01168 0.0
H796 H 0.92556 0.63355 0.00586 0.0
H797 H 0.9221 0.59967 0.01392 0.0
C798 C 0.76895 0.59311 0.02411 0.0
N799 N 0.78934 0.58218 0.02818 0.0
N800 N 0.82192 0.6051 0.02637 0.0
C801 C 0.82312 0.63114 0.02094 0.0
C802 C 0.78953 0.62413 0.01929 0.0
C803 C 0.73032 0.57456 0.02486 0.0
H804 H 0.72175 0.56077 0.03205 0.0
H805 H 0.71901 0.55562 0.01871 0.0
H806 H 0.7206 0.59302 0.0242 0.0
O807 O 0.79566 0.54623 0.04819 0.0
O808 O 0.851 0.58571 0.04578 0.0
H809 H 0.87295 0.67581 0.02305 0.0
H810 H 0.85012 0.67826 0.01229 0.0
C811 C 0.85555 0.66083 0.01685 0.0
H812 H 0.86908 0.65081 0.0122 0.0
H813 H 0.90505 0.66438 0.04198 0.0
O814 O 0.72767 0.50724 0.03333 0.0
C815 C 0.82637 0.56519 0.05148 0.0
Co816 Co 0.43338 0.87695 0.8692 0.0
Co817 Co 0.40833 0.93035 0.86492 0.0
C818 C 0.3673 0.85867 0.85793 0.0
O819 O 0.3897 0.85251 0.86174 0.0
O820 O 0.37053 0.88862 0.85835 0.0
C821 C 0.45253 0.83423 0.85974 0.0
O822 O 0.44093 0.8449 0.85237 0.0
C823 C 0.38732 0.97508 0.85475 0.0
C824 C 0.40775 0.02025 0.86477 0.0
C825 C 0.39009 0.0073 0.85593 0.0
N826 N 0.40248 0.96928 0.86256 0.0
N827 N 0.41455 0.99633 0.86853 0.0
C828 C 0.37315 0.9513 0.84601 0.0
H829 H 0.38694 0.9366 0.84506 0.0
H830 H 0.37563 0.96597 0.83911 0.0
H831 H 0.34538 0.9325 0.84732 0.0
C832 C 0.49614 0.9311 0.85939 0.0
N833 N 0.4642 0.91941 0.8631 0.0
N834 N 0.45322 0.94073 0.86057 0.0
C835 C 0.47771 0.96631 0.85492 0.0
C836 C 0.50555 0.96077 0.85394 0.0
C837 C 0.51771 0.91449 0.86106 0.0
H838 H 0.51132 0.90092 0.86831 0.0
H839 H 0.51278 0.89565 0.85504 0.0
H840 H 0.54565 0.93422 0.8609 0.0
O841 O 0.42028 0.88301 0.88279 0.0
O842 O 0.40156 0.91969 0.87941 0.0
H843 H 0.47073 0.01024 0.85559 0.0
H844 H 0.49546 0.01019 0.84499 0.0
C845 C 0.47328 0.99373 0.84989 0.0
H846 H 0.44926 0.98144 0.84542 0.0
H847 H 0.42783 0.99864 0.87512 0.0
O848 O 0.45256 0.84526 0.86846 0.0
C849 C 0.40635 0.90064 0.88553 0.0
Co850 Co 0.12757 0.55795 0.86898 0.0
Co851 Co 0.07355 0.48008 0.86411 0.0
C852 C 0.14486 0.51086 0.85691 0.0
O853 O 0.15137 0.53903 0.86107 0.0
O854 O 0.11481 0.48422 0.85722 0.0
C855 C 0.17062 0.62062 0.85992 0.0
O856 O 0.15966 0.59906 0.85238 0.0
C857 C 0.02827 0.41449 0.85383 0.0
C858 C 0.98277 0.39041 0.86375 0.0
C859 C 0.99584 0.38527 0.85499 0.0
N860 N 0.0341 0.4357 0.86158 0.0
N861 N 0.00681 0.42114 0.86748 0.0
C862 C 0.05231 0.42359 0.84517 0.0
H863 H 0.06681 0.45201 0.84404 0.0
H864 H 0.0379 0.4108 0.83829 0.0
H865 H 0.07127 0.41501 0.84672 0.0
C866 C 0.07371 0.56817 0.85971 0.0
N867 N 0.08511 0.5473 0.86309 0.0
N868 N 0.06367 0.51537 0.86025 0.0
C869 C 0.03837 0.51518 0.85469 0.0
C870 C 0.04416 0.54877 0.85411 0.0
C871 C 0.09048 0.6061 0.86185 0.0
H872 H 0.10388 0.61213 0.86912 0.0
H873 H 0.10954 0.62085 0.85595 0.0
H874 H 0.07087 0.61446 0.86192 0.0
O875 O 0.12165 0.53745 0.88237 0.0
O876 O 0.08466 0.48248 0.87856 0.0
H877 H 0.99323 0.46503 0.8548 0.0
H878 H 0.99628 0.49082 0.8441 0.0
C879 C 0.01121 0.48408 0.84932 0.0
H880 H 0.02355 0.47177 0.84512 0.0
H881 H 0.00451 0.43234 0.87403 0.0
O882 O 0.15964 0.60884 0.86859 0.0
C883 C 0.10391 0.50562 0.88483 0.0
Co884 Co 0.44421 0.57193 0.86849 0.0
Co885 Co 0.52242 0.59609 0.86398 0.0
C886 C 0.49239 0.63729 0.85687 0.0
O887 O 0.46401 0.61547 0.86091 0.0
O888 O 0.51885 0.63358 0.85713 0.0
C889 C 0.38235 0.55305 0.85906 0.0
O890 O 0.40451 0.56439 0.85167 0.0
C891 C 0.5914 0.61942 0.8552 0.0
C892 C 0.60595 0.58437 0.86261 0.0
C893 C 0.61671 0.60991 0.85543 0.0
N894 N 0.5665 0.5997 0.86175 0.0
N895 N 0.57562 0.57916 0.86624 0.0
C896 C 0.5915 0.64792 0.84932 0.0
H897 H 0.58283 0.6624 0.85408 0.0
H898 H 0.57314 0.6366 0.84303 0.0
H899 H 0.61767 0.6664 0.84647 0.0
C900 C 0.43441 0.50864 0.85883 0.0
N901 N 0.45513 0.54058 0.86247 0.0
N902 N 0.48716 0.55143 0.85968 0.0
C903 C 0.48753 0.52704 0.85381 0.0
C904 C 0.45404 0.49917 0.85309 0.0
C905 C 0.39646 0.48712 0.86091 0.0
H906 H 0.39018 0.49406 0.86821 0.0
H907 H 0.38172 0.49153 0.85503 0.0
H908 H 0.38832 0.4592 0.86087 0.0
O909 O 0.46347 0.58505 0.88202 0.0
O910 O 0.51875 0.60374 0.87846 0.0
H911 H 0.5345 0.52553 0.85312 0.0
H912 H 0.51086 0.51453 0.84162 0.0
C913 C 0.51852 0.53181 0.84819 0.0
H914 H 0.53435 0.55908 0.84574 0.0
H915 H 0.56061 0.56085 0.87159 0.0
O916 O 0.39344 0.55319 0.86778 0.0
C917 C 0.49513 0.59914 0.88465 0.0
Co918 Co 0.53993 0.76129 0.9653 0.0
Co919 Co 0.59265 0.7352 0.9692 0.0
C920 C 0.52151 0.69477 0.97648 0.0
O921 O 0.51546 0.71737 0.97275 0.0
O922 O 0.5514 0.69782 0.97599 0.0
C923 C 0.4981 0.78146 0.97497 0.0
O924 O 0.50833 0.76944 0.98234 0.0
C925 C 0.63996 0.7149 0.97836 0.0
C926 C 0.68268 0.73564 0.96744 0.0
C927 C 0.67228 0.71869 0.97647 0.0
N928 N 0.63202 0.72959 0.97087 0.0
N929 N 0.65758 0.74177 0.96435 0.0
C930 C 0.6158 0.6957 0.98673 0.0
H931 H 0.59026 0.67646 0.98366 0.0
H932 H 0.61192 0.71403 0.99135 0.0
H933 H 0.62543 0.68188 0.9914 0.0
C934 C 0.59634 0.8245 0.97456 0.0
N935 N 0.58305 0.7919 0.97117 0.0
N936 N 0.60383 0.78015 0.97362 0.0
C937 C 0.63039 0.80461 0.97898 0.0
C938 C 0.62651 0.83347 0.97969 0.0
C939 C 0.57964 0.84619 0.97341 0.0
H940 H 0.56462 0.83964 0.96641 0.0
H941 H 0.56205 0.84138 0.97978 0.0
H942 H 0.59933 0.87412 0.97339 0.0
O943 O 0.54495 0.74831 0.95157 0.0
O944 O 0.58098 0.72874 0.95481 0.0
H945 H 0.67392 0.79726 0.97755 0.0
H946 H 0.67605 0.82286 0.98817 0.0
C947 C 0.65855 0.80027 0.98352 0.0
H948 H 0.64699 0.77653 0.98813 0.0
H949 H 0.658 0.75456 0.95783 0.0
O950 O 0.50894 0.78119 0.96625 0.0
C951 C 0.56216 0.73404 0.94875 0.0
Co952 Co 0.2383 0.77672 0.9648 0.0
Co953 Co 0.26256 0.85484 0.9694 0.0
C954 C 0.30306 0.82409 0.9767 0.0
O955 O 0.28122 0.79578 0.97263 0.0
O956 O 0.29975 0.85077 0.9763 0.0
C957 C 0.21914 0.71399 0.97388 0.0
O958 O 0.23028 0.73555 0.98142 0.0
C959 C 0.2825 0.92051 0.97954 0.0
C960 C 0.26263 0.94501 0.96923 0.0
C961 C 0.27978 0.94994 0.97819 0.0
N962 N 0.26783 0.89941 0.97173 0.0
N963 N 0.25606 0.91422 0.96559 0.0
C964 C 0.29629 0.91112 0.98841 0.0
H965 H 0.28272 0.88263 0.98936 0.0
H966 H 0.29317 0.92316 0.99525 0.0
H967 H 0.3242 0.92038 0.98727 0.0
C968 C 0.17461 0.76714 0.97426 0.0
N969 N 0.20675 0.78773 0.97073 0.0
N970 N 0.21736 0.81988 0.97337 0.0
C971 C 0.1924 0.82054 0.97888 0.0
C972 C 0.16462 0.78702 0.97968 0.0
C973 C 0.15349 0.72899 0.97247 0.0
H974 H 0.16024 0.72225 0.96521 0.0
H975 H 0.15856 0.71503 0.97844 0.0
H976 H 0.12545 0.72038 0.97258 0.0
O977 O 0.25261 0.79678 0.95132 0.0
O978 O 0.27081 0.85187 0.95499 0.0
H979 H 0.19885 0.87126 0.97837 0.0
H980 H 0.17417 0.846 0.98892 0.0
C981 C 0.19643 0.85208 0.98401 0.0
H982 H 0.22042 0.86389 0.9885 0.0
H983 H 0.24325 0.90315 0.95895 0.0
O984 O 0.21936 0.72577 0.96525 0.0
C985 C 0.26667 0.82852 0.94877 0.0
Co986 Co 0.22232 0.45457 0.9642 0.0
Co987 Co 0.14331 0.4032 0.96847 0.0
C988 C 0.1759 0.47469 0.97558 0.0
O989 O 0.2041 0.4799 0.97174 0.0
O990 O 0.14855 0.44518 0.97518 0.0
C991 C 0.28466 0.49577 0.97373 0.0
O992 O 0.2625 0.48511 0.98112 0.0
C993 C 0.07667 0.35869 0.97834 0.0
C994 C 0.05113 0.31528 0.96774 0.0
C995 C 0.04657 0.3272 0.97679 0.0
N996 N 0.09782 0.36501 0.97055 0.0
N997 N 0.08235 0.33903 0.96422 0.0
C998 C 0.08657 0.38123 0.98736 0.0
H999 H 0.11508 0.39558 0.98829 0.0
H1000 H 0.07428 0.36563 0.99411 0.0
H1001 H 0.07786 0.4004 0.98643 0.0
C1002 C 0.22821 0.3977 0.97345 0.0
N1003 N 0.20919 0.41137 0.97011 0.0
N1004 N 0.1767 0.39117 0.97273 0.0
C1005 C 0.17439 0.36463 0.97815 0.0
C1006 C 0.20692 0.3679 0.97872 0.0
C1007 C 0.2665 0.41379 0.97216 0.0
H1008 H 0.27489 0.42879 0.96515 0.0
H1009 H 0.27981 0.43127 0.97851 0.0
H1010 H 0.27419 0.3937 0.97204 0.0
O1011 O 0.20349 0.44961 0.95058 0.0
O1012 O 0.14783 0.41441 0.95403 0.0
H1013 H 0.12243 0.32262 0.9771 0.0
H1014 H 0.1467 0.31879 0.98725 0.0
C1015 C 0.14196 0.33715 0.98291 0.0
H1016 H 0.13135 0.34935 0.98789 0.0
H1017 H 0.09332 0.33733 0.95756 0.0
O1018 O 0.27343 0.48518 0.96499 0.0
C1019 C 0.17182 0.43287 0.94789 0.0
Co1020 Co 0.2397 0.4615 0.46487 0.0
Co1021 Co 0.2639 0.40768 0.46969 0.0
C1022 C 0.30463 0.47887 0.4768 0.0
O1023 O 0.28294 0.48526 0.4726 0.0
O1024 O 0.30109 0.44875 0.47662 0.0
C1025 C 0.22006 0.50389 0.47424 0.0
O1026 O 0.23108 0.49281 0.48165 0.0
C1027 C 0.28708 0.3618 0.47845 0.0
C1028 C 0.2512 0.31209 0.47121 0.0
C1029 C 0.27717 0.32686 0.47827 0.0
N1030 N 0.26719 0.36706 0.47198 0.0
N1031 N 0.24614 0.33732 0.4676 0.0
C1032 C 0.31607 0.39021 0.48419 0.0
H1033 H 0.33003 0.41346 0.47944 0.0
H1034 H 0.3053 0.39707 0.49066 0.0
H1035 H 0.33484 0.38253 0.48679 0.0
C1036 C 0.17612 0.40798 0.47434 0.0
N1037 N 0.2082 0.4192 0.47083 0.0
N1038 N 0.21912 0.3983 0.47384 0.0
C1039 C 0.19467 0.37381 0.47975 0.0
C1040 C 0.16667 0.37928 0.48027 0.0
C1041 C 0.15444 0.42398 0.47195 0.0
H1042 H 0.1618 0.437 0.46462 0.0
H1043 H 0.15819 0.44323 0.47772 0.0
H1044 H 0.12659 0.40395 0.47187 0.0
O1045 O 0.25326 0.45531 0.45141 0.0
O1046 O 0.27201 0.41893 0.45519 0.0
H1047 H 0.19275 0.32522 0.48092 0.0
H1048 H 0.18267 0.33944 0.49229 0.0
C1049 C 0.19955 0.34813 0.48563 0.0
H1050 H 0.22694 0.35965 0.48796 0.0
H1051 H 0.22761 0.33406 0.46233 0.0
O1052 O 0.22077 0.49339 0.4655 0.0
C1053 C 0.2675 0.43776 0.44891 0.0
Co1054 Co 0.54199 0.77948 0.46579 0.0
Co1055 Co 0.595 0.85845 0.46959 0.0
C1056 C 0.52419 0.82673 0.47747 0.0
O1057 O 0.518 0.79819 0.47365 0.0
O1058 O 0.55386 0.85373 0.47676 0.0
C1059 C 0.49994 0.71697 0.4753 0.0
O1060 O 0.51033 0.73886 0.48276 0.0
C1061 C 0.64399 0.92336 0.47973 0.0
C1062 C 0.67707 0.95449 0.46725 0.0
C1063 C 0.67208 0.95541 0.47736 0.0
N1064 N 0.63312 0.90422 0.4714 0.0
N1065 N 0.65309 0.92297 0.46398 0.0
C1066 C 0.62606 0.91208 0.48954 0.0
H1067 H 0.6039 0.88529 0.48914 0.0
H1068 H 0.6443 0.91311 0.49529 0.0
H1069 H 0.61691 0.93001 0.49186 0.0
C1070 C 0.5994 0.77261 0.4742 0.0
N1071 N 0.58583 0.79212 0.47121 0.0
N1072 N 0.60741 0.82475 0.4734 0.0
C1073 C 0.63521 0.82682 0.47805 0.0
C1074 C 0.63097 0.79387 0.47874 0.0
C1075 C 0.58108 0.73396 0.47343 0.0
H1076 H 0.56529 0.7253 0.46657 0.0
H1077 H 0.56398 0.72255 0.47997 0.0
H1078 H 0.59936 0.72405 0.47331 0.0
O1079 O 0.54569 0.79807 0.45216 0.0
O1080 O 0.58213 0.8537 0.45532 0.0
H1081 H 0.67464 0.87959 0.47585 0.0
H1082 H 0.68709 0.85558 0.48399 0.0
C1083 C 0.66545 0.85961 0.48174 0.0
H1084 H 0.65731 0.86903 0.48823 0.0
H1085 H 0.65009 0.91437 0.45665 0.0
O1086 O 0.51083 0.72848 0.4666 0.0
C1087 C 0.56263 0.82958 0.44934 0.0
Co1088 Co 0.22329 0.76196 0.465 0.0
Co1089 Co 0.14488 0.7377 0.46946 0.0
C1090 C 0.1753 0.69727 0.47691 0.0
O1091 O 0.20358 0.71892 0.4728 0.0
O1092 O 0.14871 0.70076 0.47656 0.0
C1093 C 0.2853 0.7812 0.47448 0.0
O1094 O 0.26315 0.77004 0.48187 0.0
C1095 C 0.07538 0.71398 0.47802 0.0
C1096 C 0.06117 0.74926 0.4706 0.0
C1097 C 0.05001 0.72343 0.47771 0.0
N1098 N 0.10066 0.734 0.4716 0.0
N1099 N 0.09172 0.75468 0.4671 0.0
C1100 C 0.07492 0.68517 0.48383 0.0
H1101 H 0.08441 0.67128 0.47912 0.0
H1102 H 0.09246 0.69611 0.49031 0.0
H1103 H 0.04848 0.66627 0.48641 0.0
C1104 C 0.23282 0.82555 0.47444 0.0
N1105 N 0.21221 0.79352 0.47083 0.0
N1106 N 0.18011 0.78268 0.47356 0.0
C1107 C 0.17959 0.80719 0.47933 0.0
C1108 C 0.21303 0.83511 0.48006 0.0
C1109 C 0.27093 0.84686 0.47261 0.0
H1110 H 0.27775 0.83993 0.46539 0.0
H1111 H 0.28507 0.8423 0.47864 0.0
H1112 H 0.27924 0.87483 0.47263 0.0
O1113 O 0.2038 0.74786 0.45148 0.0
O1114 O 0.14852 0.72923 0.45505 0.0
H1115 H 0.13256 0.80859 0.47997 0.0
H1116 H 0.15622 0.81992 0.49146 0.0
C1117 C 0.14858 0.80246 0.48493 0.0
H1118 H 0.13281 0.77525 0.48744 0.0
H1119 H 0.107 0.77319 0.46183 0.0
O1120 O 0.27417 0.7808 0.46574 0.0
C1121 C 0.17208 0.73352 0.44888 0.0
Co1122 Co 0.12451 0.56735 0.3687 0.0
Co1123 Co 0.07234 0.59424 0.36468 0.0
C1124 C 0.14351 0.63343 0.35726 0.0
O1125 O 0.14924 0.61069 0.36104 0.0
O1126 O 0.11392 0.631 0.35785 0.0
C1127 C 0.16642 0.5466 0.35924 0.0
O1128 O 0.15611 0.55821 0.35179 0.0
C1129 C 0.02724 0.61544 0.35477 0.0
C1130 C 0.98358 0.59692 0.36531 0.0
C1131 C 0.99538 0.61326 0.35623 0.0
N1132 N 0.03388 0.6011 0.36262 0.0
N1133 N 0.00777 0.59025 0.36892 0.0
C1134 C 0.04977 0.62819 0.34575 0.0
H1135 H 0.06426 0.61418 0.34482 0.0
H1136 H 0.03415 0.62477 0.33899 0.0
H1137 H 0.06879 0.65611 0.34668 0.0
C1138 C 0.06759 0.50426 0.35953 0.0
N1139 N 0.08116 0.53693 0.3629 0.0
N1140 N 0.06057 0.54891 0.36044 0.0
C1141 C 0.03381 0.52449 0.35513 0.0
C1142 C 0.0374 0.49547 0.35444 0.0
C1143 C 0.08416 0.48243 0.36062 0.0
H1144 H 0.09919 0.48884 0.36762 0.0
H1145 H 0.10174 0.4873 0.35425 0.0
H1146 H 0.06438 0.45453 0.36061 0.0
O1147 O 0.11985 0.58151 0.38235 0.0
O1148 O 0.08388 0.60118 0.37908 0.0
H1149 H 0.99149 0.53381 0.35652 0.0
H1150 H 0.98722 0.50575 0.34633 0.0
C1151 C 0.00575 0.529 0.35059 0.0
H1152 H 0.01736 0.55172 0.34558 0.0
H1153 H 0.00622 0.57774 0.3756 0.0
O1154 O 0.15538 0.54707 0.36793 0.0
C1155 C 0.10285 0.59606 0.38514 0.0
Co1156 Co 0.43024 0.55418 0.36832 0.0
Co1157 Co 0.40461 0.47551 0.3644 0.0
C1158 C 0.36437 0.50677 0.35701 0.0
O1159 O 0.38689 0.53541 0.36074 0.0
O1160 O 0.36739 0.47995 0.35759 0.0
C1161 C 0.44985 0.61671 0.35902 0.0
O1162 O 0.43804 0.59491 0.35154 0.0
C1163 C 0.38607 0.41108 0.35388 0.0
C1164 C 0.39614 0.38145 0.36522 0.0
C1165 C 0.38506 0.37978 0.35551 0.0
N1166 N 0.39711 0.43004 0.36222 0.0
N1167 N 0.40296 0.41216 0.36899 0.0
C1168 C 0.37926 0.42423 0.34442 0.0
H1169 H 0.39329 0.45294 0.34439 0.0
H1170 H 0.38732 0.4147 0.33791 0.0
H1171 H 0.35117 0.41496 0.34383 0.0
C1172 C 0.49418 0.56174 0.35937 0.0
N1173 N 0.46131 0.54202 0.36253 0.0
N1174 N 0.45032 0.50945 0.3603 0.0
C1175 C 0.47584 0.50761 0.35543 0.0
C1176 C 0.50441 0.54068 0.35466 0.0
C1177 C 0.5144 0.60039 0.36019 0.0
H1178 H 0.50769 0.60885 0.36715 0.0
H1179 H 0.50813 0.61182 0.35377 0.0
H1180 H 0.54263 0.61051 0.3601 0.0
O1181 O 0.41651 0.53532 0.38197 0.0
O1182 O 0.3976 0.47973 0.37881 0.0
H1183 H 0.46372 0.45524 0.35767 0.0
H1184 H 0.49873 0.47918 0.34908 0.0
C1185 C 0.47329 0.47487 0.35168 0.0
H1186 H 0.45466 0.46472 0.34544 0.0
H1187 H 0.41194 0.42108 0.37614 0.0
O1188 O 0.44977 0.60512 0.36766 0.0
C1189 C 0.4025 0.50387 0.38482 0.0
Co1190 Co 0.44337 0.87258 0.36898 0.0
Co1191 Co 0.52182 0.926 0.36477 0.0
C1192 C 0.49132 0.85454 0.35768 0.0
O1193 O 0.46276 0.8483 0.36151 0.0
O1194 O 0.51805 0.8845 0.35812 0.0
C1195 C 0.38144 0.82967 0.35952 0.0
O1196 O 0.40363 0.84011 0.35213 0.0
C1197 C 0.58811 0.97118 0.35489 0.0
C1198 C 0.61234 0.01579 0.36513 0.0
C1199 C 0.61759 0.00328 0.35627 0.0
N1200 N 0.56666 0.96504 0.36259 0.0
N1201 N 0.58132 0.99176 0.36869 0.0
C1202 C 0.579 0.9478 0.34607 0.0
H1203 H 0.55055 0.93296 0.34502 0.0
H1204 H 0.59139 0.96282 0.33924 0.0
H1205 H 0.58809 0.9291 0.34735 0.0
C1206 C 0.43487 0.92682 0.35922 0.0
N1207 N 0.45508 0.9151 0.36292 0.0
N1208 N 0.4874 0.93641 0.36039 0.0
C1209 C 0.48856 0.96201 0.35475 0.0
C1210 C 0.45517 0.95649 0.35377 0.0
C1211 C 0.39671 0.91026 0.36095 0.0
H1212 H 0.38967 0.89686 0.36822 0.0
H1213 H 0.38267 0.89122 0.35498 0.0
H1214 H 0.3885 0.92997 0.36076 0.0
O1215 O 0.46217 0.87852 0.38261 0.0
O1216 O 0.51759 0.91512 0.37923 0.0
H1217 H 0.53938 0.00612 0.35542 0.0
H1218 H 0.5148 0.00556 0.3447 0.0
C1219 C 0.52047 0.98936 0.34973 0.0
H1220 H 0.53242 0.97702 0.34537 0.0
H1221 H 0.56995 0.99374 0.37524 0.0
O1222 O 0.39251 0.84093 0.36822 0.0
C1223 C 0.49371 0.89616 0.38535 0.0
H1224 H 0.06992 0.09315 0.18448 0.0
H1225 H 0.16697 0.16635 0.19796 0.0
H1226 H 0.09059 0.05285 0.1821 0.0
H1227 H 0.18948 0.12744 0.19478 0.0
H1228 H 0.19801 0.0299 0.20017 0.0
H1229 H 0.18849 0.07877 0.19982 0.0
H1230 H 0.12301 0.03532 0.17396 0.0
H1231 H 0.13003 0.9847 0.17512 0.0
C1232 C 0.09602 0.10072 0.1868 0.0
C1233 C 0.11672 0.13252 0.19151 0.0
C1234 C 0.10826 0.07784 0.18528 0.0
C1235 C 0.1421 0.08666 0.18812 0.0
C1236 C 0.16311 0.11915 0.19264 0.0
C1237 C 0.15033 0.14159 0.19446 0.0
C1238 C 0.18257 0.03156 0.19421 0.0
C1239 C 0.1648 0.0038 0.18765 0.0
C1240 C 0.17694 0.05964 0.194 0.0
C1241 C 0.15401 0.06088 0.18704 0.0
C1242 C 0.13958 0.03476 0.17973 0.0
C1243 C 0.1442 0.00606 0.1802 0.0
H1244 H 0.95962 0.17739 0.19428 0.0
H1245 H 0.01556 0.13471 0.17945 0.0
H1246 H 0.90677 0.12059 0.19369 0.0
H1247 H 0.96307 0.07838 0.17875 0.0
H1248 H 0.86038 0.98217 0.17574 0.0
H1249 H 0.90191 0.04293 0.17266 0.0
H1250 H 0.89522 0.06644 0.20339 0.0
H1251 H 0.85345 0.00549 0.20651 0.0
C1252 C 0.96021 0.15626 0.19051 0.0
C1253 C 0.99153 0.16027 0.18691 0.0
C1254 C 0.93015 0.12372 0.19029 0.0
C1255 C 0.93096 0.09504 0.18629 0.0
C1256 C 0.96158 0.10001 0.18184 0.0
C1257 C 0.99164 0.13226 0.18222 0.0
C1258 C 0.86743 0.0003 0.18184 0.0
C1259 C 0.85398 0.98894 0.19142 0.0
C1260 C 0.89117 0.0351 0.18005 0.0
C1261 C 0.90177 0.05938 0.18777 0.0
C1262 C 0.88717 0.04834 0.19726 0.0
C1263 C 0.86356 0.01341 0.19907 0.0
H1264 H 0.82209 0.78998 0.19279 0.0
H1265 H 0.86454 0.89352 0.18121 0.0
H1266 H 0.87924 0.79503 0.19157 0.0
H1267 H 0.92125 0.89846 0.17989 0.0
H1268 H 0.99356 0.85194 0.20482 0.0
H1269 H 0.93281 0.83422 0.20201 0.0
H1270 H 0.95743 0.87567 0.17229 0.0
H1271 H 0.01804 0.89341 0.17505 0.0
C1272 C 0.84328 0.81321 0.1896 0.0
C1273 C 0.83903 0.84141 0.18711 0.0
C1274 C 0.87602 0.81626 0.18902 0.0
C1275 C 0.90472 0.84729 0.18576 0.0
C1276 C 0.89962 0.87418 0.18239 0.0
C1277 C 0.86715 0.87136 0.18313 0.0
C1278 C 0.98594 0.85698 0.19766 0.0
C1279 C 0.01067 0.87445 0.19021 0.0
C1280 C 0.95111 0.84649 0.19601 0.0
C1281 C 0.94042 0.85353 0.18692 0.0
C1282 C 0.96498 0.87002 0.17937 0.0
C1283 C 0.99969 0.88021 0.18098 0.0
H1284 H 0.02989 0.20016 0.29949 0.0
H1285 H 0.98418 0.13393 0.32485 0.0
H1286 H 0.0785 0.1902 0.30011 0.0
H1287 H 0.03445 0.12635 0.32623 0.0
H1288 H 0.08968 0.0705 0.3156 0.0
H1289 H 0.0505 0.09255 0.31798 0.0
H1290 H 0.12705 0.19105 0.30556 0.0
H1291 H 0.16501 0.16735 0.30245 0.0
C1292 C 0.0314 0.18505 0.30556 0.0
C1293 C 0.0036 0.16786 0.31214 0.0
C1294 C 0.05931 0.17918 0.30594 0.0
C1295 C 0.06022 0.15652 0.31306 0.0
C1296 C 0.0341 0.14275 0.32037 0.0
C1297 C 0.00562 0.14767 0.31976 0.0
C1298 C 0.09798 0.09684 0.31336 0.0
C1299 C 0.13007 0.11711 0.30874 0.0
C1300 C 0.07573 0.10984 0.31487 0.0
C1301 C 0.08545 0.14395 0.31209 0.0
C1302 C 0.11819 0.16452 0.30767 0.0
C1303 C 0.14005 0.15104 0.30588 0.0
H1304 H 0.89404 0.86756 0.31925 0.0
H1305 H 0.79099 0.8252 0.3073 0.0
H1306 H 0.89952 0.9246 0.32008 0.0
H1307 H 0.79659 0.88268 0.30802 0.0
H1308 H 0.89465 0.02192 0.32422 0.0
H1309 H 0.87685 0.96145 0.32725 0.0
H1310 H 0.83642 0.93567 0.29744 0.0
H1311 H 0.85421 0.99634 0.29437 0.0
C1312 C 0.87208 0.87028 0.31714 0.0
C1313 C 0.8421 0.84206 0.31322 0.0
C1314 C 0.87523 0.90295 0.3176 0.0
C1315 C 0.84865 0.90813 0.31399 0.0
C1316 C 0.81759 0.87939 0.31076 0.0
C1317 C 0.8142 0.84647 0.31047 0.0
C1318 C 0.8817 0.00336 0.31833 0.0
C1319 C 0.8762 0.01399 0.30901 0.0
C1320 C 0.87148 0.96873 0.32008 0.0
C1321 C 0.8552 0.94387 0.3126 0.0
C1322 C 0.84852 0.95422 0.30339 0.0
C1323 C 0.85905 0.98899 0.3016 0.0
H1324 H 0.17802 0.96184 0.30553 0.0
H1325 H 0.13651 0.01656 0.32158 0.0
H1326 H 0.12136 0.90889 0.30622 0.0
H1327 H 0.08027 0.96402 0.32234 0.0
H1328 H 0.00586 0.85618 0.294 0.0
H1329 H 0.06694 0.89762 0.29703 0.0
H1330 H 0.04459 0.90283 0.32795 0.0
H1331 H 0.98368 0.86169 0.32496 0.0
C1332 C 0.15722 0.96212 0.30959 0.0
C1333 C 0.16148 0.99318 0.31349 0.0
C1334 C 0.12472 0.93201 0.30986 0.0
C1335 C 0.09631 0.93248 0.3142 0.0
C1336 C 0.10165 0.96276 0.31897 0.0
C1337 C 0.13386 0.99287 0.31856 0.0
C1338 C 0.01405 0.8659 0.30146 0.0
C1339 C 0.98984 0.85604 0.3092 0.0
C1340 C 0.04908 0.88933 0.30322 0.0
C1341 C 0.06051 0.90345 0.31274 0.0
C1342 C 0.03649 0.89252 0.32054 0.0
C1343 C 0.00158 0.86899 0.3188 0.0
H1344 H 0.78632 0.96518 0.80622 0.0
H1345 H 0.88775 0.01962 0.81955 0.0
H1346 H 0.78794 0.91112 0.80693 0.0
H1347 H 0.88917 0.96582 0.82042 0.0
H1348 H 0.84488 0.85305 0.79361 0.0
H1349 H 0.82831 0.89681 0.79672 0.0
H1350 H 0.86113 0.90461 0.82721 0.0
H1351 H 0.87761 0.86098 0.82415 0.0
C1352 C 0.80825 0.96527 0.80969 0.0
C1353 C 0.83694 0.99646 0.81283 0.0
C1354 C 0.80935 0.93448 0.80999 0.0
C1355 C 0.83883 0.93442 0.81363 0.0
C1356 C 0.86605 0.96505 0.81762 0.0
C1357 C 0.86523 0.99584 0.81714 0.0
C1358 C 0.84813 0.86378 0.801 0.0
C1359 C 0.86298 0.85389 0.80859 0.0
C1360 C 0.83833 0.88856 0.80281 0.0
C1361 C 0.84348 0.90407 0.81221 0.0
C1362 C 0.85702 0.89315 0.81989 0.0
C1363 C 0.86648 0.8682 0.81811 0.0
H1364 H 0.12848 0.01975 0.82339 0.0
H1365 H 0.14398 0.99399 0.79362 0.0
H1366 H 0.08369 0.95982 0.82613 0.0
H1367 H 0.09908 0.93379 0.79644 0.0
H1368 H 0.97145 0.86885 0.81721 0.0
H1369 H 0.02399 0.92524 0.81811 0.0
H1370 H 0.0838 0.88007 0.80746 0.0
H1371 H 0.03107 0.82327 0.80671 0.0
C1372 C 0.12262 0.00124 0.81746 0.0
C1373 C 0.13954 0.01168 0.80824 0.0
C1374 C 0.09698 0.96693 0.81905 0.0
C1375 C 0.08801 0.94222 0.81152 0.0
C1376 C 0.10582 0.95229 0.80242 0.0
C1377 C 0.13124 0.98677 0.80077 0.0
C1378 C 0.996 0.87074 0.8154 0.0
C1379 C 0.99725 0.84177 0.81189 0.0
C1380 C 0.02606 0.90301 0.8159 0.0
C1381 C 0.05784 0.90702 0.81274 0.0
C1382 C 0.05951 0.87763 0.80986 0.0
C1383 C 0.02946 0.84513 0.80955 0.0
H1384 H 0.17818 0.21115 0.80665 0.0
H1385 H 0.13618 0.10888 0.81914 0.0
H1386 H 0.12106 0.20622 0.80781 0.0
H1387 H 0.07952 0.10406 0.82041 0.0
H1388 H 0.98245 0.10868 0.82467 0.0
H1389 H 0.04319 0.12731 0.82758 0.0
H1390 H 0.06755 0.16576 0.79754 0.0
H1391 H 0.00668 0.14718 0.79459 0.0
C1392 C 0.15711 0.1883 0.81004 0.0
C1393 C 0.16142 0.16034 0.81279 0.0
C1394 C 0.1244 0.1853 0.81059 0.0
C1395 C 0.09582 0.15459 0.81408 0.0
C1396 C 0.10106 0.12809 0.81773 0.0
C1397 C 0.1335 0.13085 0.81702 0.0
C1398 C 0.00077 0.12142 0.8187 0.0
C1399 C 0.9897 0.12607 0.80935 0.0
C1400 C 0.03555 0.13213 0.82039 0.0
C1401 C 0.06007 0.14803 0.81281 0.0
C1402 C 0.04927 0.15398 0.80358 0.0
C1403 C 0.01438 0.14298 0.80185 0.0
H1404 H 0.02002 0.8881 0.68047 0.0
H1405 H 0.96526 0.78656 0.69373 0.0
H1406 H 0.96631 0.88967 0.67957 0.0
H1407 H 0.91128 0.78833 0.69298 0.0
H1408 H 0.85296 0.845 0.70624 0.0
H1409 H 0.89681 0.82852 0.70317 0.0
H1410 H 0.90527 0.86193 0.67273 0.0
H1411 H 0.86156 0.87832 0.67574 0.0
C1412 C 0.99619 0.8656 0.68285 0.0
C1413 C 0.9967 0.83723 0.68716 0.0
C1414 C 0.96545 0.86649 0.68236 0.0
C1415 C 0.93474 0.83929 0.68632 0.0
C1416 C 0.9347 0.80974 0.68995 0.0
C1417 C 0.96545 0.80856 0.69027 0.0
C1418 C 0.86387 0.84841 0.69887 0.0
C1419 C 0.85412 0.86338 0.69128 0.0
C1420 C 0.8887 0.83866 0.69708 0.0
C1421 C 0.90441 0.84398 0.68771 0.0
C1422 C 0.89366 0.85768 0.68003 0.0
C1423 C 0.86865 0.8671 0.68178 0.0
H1424 H 0.10917 0.98191 0.67508 0.0
H1425 H 0.1475 0.00689 0.70515 0.0
H1426 H 0.12768 0.04255 0.67203 0.0
H1427 H 0.16596 0.06766 0.70207 0.0
H1428 H 0.21099 0.178 0.69277 0.0
H1429 H 0.20634 0.12099 0.69171 0.0
H1430 H 0.10415 0.07883 0.67909 0.0
H1431 H 0.10868 0.13538 0.68026 0.0
C1432 C 0.12185 0.00038 0.68102 0.0
C1433 C 0.12647 0.98955 0.69041 0.0
C1434 C 0.1325 0.0351 0.67924 0.0
C1435 C 0.14831 0.05979 0.68679 0.0
C1436 C 0.15425 0.04923 0.69606 0.0
C1437 C 0.14331 0.0144 0.69787 0.0
C1438 C 0.18819 0.15682 0.6894 0.0
C1439 C 0.16014 0.16091 0.68662 0.0
C1440 C 0.18536 0.12417 0.68891 0.0
C1441 C 0.15472 0.09546 0.68544 0.0
C1442 C 0.12813 0.10048 0.68175 0.0
C1443 C 0.13072 0.13285 0.68241 0.0
H1444 H 0.82255 0.03081 0.69313 0.0
H1445 H 0.86764 0.97101 0.68241 0.0
H1446 H 0.87936 0.0835 0.69223 0.0
H1447 H 0.92403 0.02347 0.68138 0.0
H1448 H 0.9936 0.14379 0.70577 0.0
H1449 H 0.93328 0.09907 0.70305 0.0
H1450 H 0.95868 0.08284 0.67337 0.0
H1451 H 0.01875 0.12743 0.67602 0.0
C1452 C 0.84429 0.02915 0.69021 0.0
C1453 C 0.84081 0.9969 0.68785 0.0
C1454 C 0.87681 0.05918 0.68981 0.0
C1455 C 0.90608 0.05744 0.68684 0.0
C1456 C 0.9019 0.02561 0.68366 0.0
C1457 C 0.86963 0.99559 0.68423 0.0
C1458 C 0.98622 0.13091 0.69864 0.0
C1459 C 0.011 0.1389 0.69116 0.0
C1460 C 0.95166 0.10558 0.69705 0.0
C1461 C 0.94137 0.08757 0.68799 0.0
C1462 C 0.96595 0.09627 0.68042 0.0
C1463 C 0.00034 0.1218 0.68197 0.0
H1464 H 0.77971 0.46604 0.50731 0.0
H1465 H 0.81765 0.47945 0.53743 0.0
H1466 H 0.79757 0.42335 0.50439 0.0
H1467 H 0.83551 0.43662 0.53447 0.0
H1468 H 0.87931 0.36996 0.52538 0.0
H1469 H 0.87544 0.42271 0.52421 0.0
H1470 H 0.77321 0.36348 0.51156 0.0
H1471 H 0.77695 0.31103 0.51284 0.0
C1472 C 0.79222 0.46019 0.51328 0.0
C1473 C 0.79688 0.47581 0.52265 0.0
C1474 C 0.80247 0.43577 0.51159 0.0
C1475 C 0.81794 0.4267 0.51919 0.0
C1476 C 0.82403 0.44344 0.52843 0.0
C1477 C 0.81347 0.46767 0.53016 0.0
C1478 C 0.85666 0.36856 0.52198 0.0
C1479 C 0.82837 0.3365 0.51922 0.0
C1480 C 0.85427 0.39862 0.52143 0.0
C1481 C 0.82385 0.39707 0.51792 0.0
C1482 C 0.79703 0.36553 0.51426 0.0
C1483 C 0.79916 0.33549 0.51497 0.0
H1484 H 0.52001 0.33943 0.53873 0.0
H1485 H 0.53162 0.31439 0.5085 0.0
H1486 H 0.56385 0.39986 0.53573 0.0
H1487 H 0.57534 0.37459 0.50557 0.0
H1488 H 0.631 0.5105 0.52593 0.0
H1489 H 0.57798 0.45391 0.52526 0.0
H1490 H 0.63584 0.40922 0.51276 0.0
H1491 H 0.68863 0.46539 0.51357 0.0
C1492 C 0.53162 0.34687 0.53143 0.0
C1493 C 0.52262 0.32206 0.5239 0.0
C1494 C 0.55644 0.3815 0.52968 0.0
C1495 C 0.57295 0.39186 0.52041 0.0
C1496 C 0.56311 0.36727 0.51279 0.0
C1497 C 0.53807 0.3328 0.5145 0.0
C1498 C 0.63205 0.48883 0.52269 0.0
C1499 C 0.66384 0.49222 0.5198 0.0
C1500 C 0.60184 0.45642 0.52242 0.0
C1501 C 0.60293 0.42717 0.51906 0.0
C1502 C 0.63418 0.43133 0.51534 0.0
C1503 C 0.6644 0.46348 0.51579 0.0
H1504 H 0.68579 0.22577 0.50819 0.0
H1505 H 0.66104 0.18548 0.53807 0.0
H1506 H 0.62528 0.20828 0.50535 0.0
H1507 H 0.60033 0.16792 0.53518 0.0
H1508 H 0.5325 0.22685 0.5141 0.0
H1509 H 0.58926 0.23178 0.51295 0.0
H1510 H 0.54685 0.12821 0.52455 0.0
H1511 H 0.48965 0.12311 0.52558 0.0
C1512 C 0.66739 0.21284 0.51412 0.0
C1513 C 0.67826 0.20734 0.5234 0.0
C1514 C 0.63274 0.20282 0.51247 0.0
C1515 C 0.60814 0.1867 0.52002 0.0
C1516 C 0.6187 0.17991 0.52918 0.0
C1517 C 0.65349 0.19029 0.53087 0.0
C1518 C 0.53504 0.20466 0.51604 0.0
C1519 C 0.50678 0.17463 0.51993 0.0
C1520 C 0.56753 0.20748 0.5154 0.0
C1521 C 0.5725 0.18053 0.51879 0.0
C1522 C 0.54371 0.14946 0.52198 0.0
C1523 C 0.51095 0.1464 0.52245 0.0
H1524 H 0.64271 0.44301 0.65244 0.0
H1525 H 0.70158 0.5465 0.64063 0.0
H1526 H 0.69536 0.43964 0.65372 0.0
H1527 H 0.75455 0.54297 0.64178 0.0
H1528 H 0.81175 0.48608 0.62809 0.0
H1529 H 0.76873 0.5036 0.6312 0.0
H1530 H 0.7552 0.4642 0.66111 0.0
H1531 H 0.79808 0.44669 0.65805 0.0
C1532 C 0.66718 0.46552 0.65047 0.0
C1533 C 0.66817 0.49497 0.64642 0.0
C1534 C 0.69733 0.46359 0.65119 0.0
C1535 C 0.72893 0.49088 0.64772 0.0
C1536 C 0.73041 0.52147 0.64442 0.0
C1537 C 0.70023 0.52364 0.64387 0.0
C1538 C 0.79986 0.4815 0.63535 0.0
C1539 C 0.80796 0.46459 0.64277 0.0
C1540 C 0.77554 0.49188 0.63717 0.0
C1541 C 0.75871 0.48529 0.64641 0.0
C1542 C 0.76773 0.46951 0.65392 0.0
C1543 C 0.79224 0.45944 0.65214 0.0
H1544 H 0.55949 0.2009 0.65227 0.0
H1545 H 0.45707 0.15695 0.63974 0.0
H1546 H 0.56345 0.25727 0.65321 0.0
H1547 H 0.4612 0.21378 0.64054 0.0
H1548 H 0.55597 0.35306 0.65726 0.0
H1549 H 0.53843 0.29264 0.66028 0.0
H1550 H 0.50179 0.26748 0.6301 0.0
H1551 H 0.51939 0.3281 0.62702 0.0
C1552 C 0.53733 0.20311 0.65006 0.0
C1553 C 0.508 0.17469 0.64594 0.0
C1554 C 0.53959 0.23537 0.65058 0.0
C1555 C 0.51279 0.23994 0.64682 0.0
C1556 C 0.48232 0.21094 0.6434 0.0
C1557 C 0.47979 0.1784 0.64306 0.0
C1558 C 0.54385 0.33463 0.65128 0.0
C1559 C 0.53944 0.34542 0.64185 0.0
C1560 C 0.53377 0.30004 0.65303 0.0
C1561 C 0.51871 0.27541 0.64544 0.0
C1562 C 0.51295 0.28588 0.63613 0.0
C1563 C 0.52337 0.32061 0.63433 0.0
H1564 H 0.67434 0.19115 0.62718 0.0
H1565 H 0.64991 0.20252 0.6575 0.0
H1566 H 0.73494 0.23443 0.63016 0.0
H1567 H 0.71031 0.24562 0.66043 0.0
H1568 H 0.84556 0.30132 0.63952 0.0
H1569 H 0.78906 0.24822 0.64041 0.0
H1570 H 0.74502 0.306 0.65339 0.0
H1571 H 0.80106 0.3588 0.65238 0.0
C1572 C 0.68195 0.20259 0.63449 0.0
C1573 C 0.65727 0.19375 0.64206 0.0
C1574 C 0.71667 0.22707 0.63623 0.0
C1575 C 0.72727 0.24332 0.64554 0.0
C1576 C 0.70281 0.23357 0.65318 0.0
C1577 C 0.66822 0.20893 0.65148 0.0
C1578 C 0.82407 0.3023 0.64292 0.0
C1579 C 0.82752 0.33405 0.64587 0.0
C1580 C 0.79172 0.27206 0.64331 0.0
C1581 C 0.76265 0.27313 0.64686 0.0
C1582 C 0.76699 0.30435 0.65067 0.0
C1583 C 0.79906 0.33457 0.6501 0.0
H1584 H 0.55108 0.20131 0.15763 0.0
H1585 H 0.5173 0.19122 0.12713 0.0
H1586 H 0.53297 0.24375 0.16057 0.0
H1587 H 0.4992 0.2339 0.13012 0.0
H1588 H 0.55351 0.35654 0.15332 0.0
H1589 H 0.55789 0.30435 0.15403 0.0
H1590 H 0.45767 0.24639 0.14011 0.0
H1591 H 0.45314 0.29888 0.13951 0.0
C1592 C 0.53949 0.20789 0.15156 0.0
C1593 C 0.53601 0.19319 0.1421 0.0
C1594 C 0.52909 0.23218 0.15328 0.0
C1595 C 0.51466 0.24211 0.14559 0.0
C1596 C 0.50985 0.22641 0.13622 0.0
C1597 C 0.52055 0.20226 0.13448 0.0
C1598 C 0.53182 0.33235 0.15078 0.0
C1599 C 0.50299 0.33167 0.14638 0.0
C1600 C 0.53435 0.30247 0.15116 0.0
C1601 C 0.50831 0.27142 0.147 0.0
C1602 C 0.47824 0.2701 0.14327 0.0
C1603 C 0.47544 0.29998 0.14306 0.0
H1604 H 0.80842 0.32912 0.12851 0.0
H1605 H 0.79458 0.35246 0.15872 0.0
H1606 H 0.7658 0.26821 0.13132 0.0
H1607 H 0.75209 0.29172 0.16148 0.0
H1608 H 0.70003 0.15715 0.14041 0.0
H1609 H 0.75244 0.21416 0.14156 0.0
H1610 H 0.69224 0.2562 0.15412 0.0
H1611 H 0.64015 0.19967 0.15283 0.0
C1612 C 0.79657 0.32121 0.13576 0.0
C1613 C 0.80455 0.34566 0.14334 0.0
C1614 C 0.77248 0.28631 0.1374 0.0
C1615 C 0.75572 0.27529 0.14663 0.0
C1616 C 0.76457 0.29955 0.1543 0.0
C1617 C 0.78886 0.33432 0.15269 0.0
C1618 C 0.69837 0.17831 0.14377 0.0
C1619 C 0.66616 0.17417 0.14652 0.0
C1620 C 0.72821 0.21095 0.14432 0.0
C1621 C 0.72627 0.23961 0.14782 0.0
C1622 C 0.69456 0.23457 0.15143 0.0
C1623 C 0.66474 0.20222 0.15071 0.0
H1624 H 0.67088 0.48406 0.12903 0.0
H1625 H 0.64496 0.44523 0.15904 0.0
H1626 H 0.73149 0.50208 0.13224 0.0
H1627 H 0.70543 0.46329 0.1622 0.0
H1628 H 0.79826 0.44394 0.15415 0.0
H1629 H 0.74181 0.43971 0.15525 0.0
H1630 H 0.78461 0.54203 0.14268 0.0
H1631 H 0.84147 0.54639 0.14168 0.0
C1632 C 0.67816 0.47969 0.13633 0.0
C1633 C 0.65307 0.46284 0.14373 0.0
C1634 C 0.7129 0.49036 0.1382 0.0
C1635 C 0.72315 0.48413 0.14749 0.0
C1636 C 0.69823 0.46831 0.15498 0.0
C1637 C 0.6636 0.45795 0.15314 0.0
C1638 C 0.79591 0.46608 0.15201 0.0
C1639 C 0.82412 0.49544 0.14782 0.0
C1640 C 0.76358 0.46366 0.15262 0.0
C1641 C 0.75875 0.49035 0.14891 0.0
C1642 C 0.78762 0.52095 0.14549 0.0
C1643 C 0.8202 0.52362 0.14504 0.0
H1644 H 0.62927 0.11791 0.02804 0.0
H1645 H 0.6866 0.21759 0.01385 0.0
H1646 H 0.57664 0.12225 0.02732 0.0
H1647 H 0.63434 0.22179 0.01299 0.0
H1648 H 0.52306 0.18396 0.04013 0.0
H1649 H 0.56498 0.16486 0.03716 0.0
H1650 H 0.57338 0.19617 0.0065 0.0
H1651 H 0.53167 0.21526 0.00942 0.0
C1652 C 0.63023 0.13998 0.02438 0.0
C1653 C 0.66184 0.16744 0.021 0.0
C1654 C 0.6003 0.14267 0.02408 0.0
C1655 C 0.60155 0.17252 0.0202 0.0
C1656 C 0.63253 0.1984 0.01598 0.0
C1657 C 0.66245 0.19601 0.01645 0.0
C1658 C 0.5336 0.18643 0.03274 0.0
C1659 C 0.52441 0.20154 0.02505 0.0
C1660 C 0.55728 0.17514 0.03101 0.0
C1661 C 0.57236 0.17902 0.02158 0.0
C1662 C 0.56222 0.19299 0.01383 0.0
C1663 C 0.53839 0.20397 0.01553 0.0
H1664 H 0.80293 0.48057 0.0086 0.0
H1665 H 0.86601 0.50291 0.03477 0.0
H1666 H 0.79649 0.42311 0.00771 0.0
H1667 H 0.85697 0.44467 0.03463 0.0
H1668 H 0.83656 0.33592 0.03309 0.0
H1669 H 0.85938 0.3974 0.02987 0.0
H1670 H 0.76265 0.37292 0.01566 0.0
H1671 H 0.74175 0.31193 0.01813 0.0
C1672 C 0.81619 0.47334 0.014 0.0
C1673 C 0.83523 0.496 0.02168 0.0
C1674 C 0.81188 0.44012 0.01367 0.0
C1675 C 0.82502 0.42835 0.02132 0.0
C1676 C 0.84647 0.45235 0.02855 0.0
C1677 C 0.85182 0.48597 0.02864 0.0
C1678 C 0.82046 0.34401 0.02925 0.0
C1679 C 0.7874 0.31944 0.0259 0.0
C1680 C 0.83343 0.37925 0.0274 0.0
C1681 C 0.8131 0.39068 0.02244 0.0
C1682 C 0.77981 0.36563 0.0192 0.0
C1683 C 0.76742 0.33049 0.02076 0.0
H1684 H 0.66209 0.47663 0.03728 0.0
H1685 H 0.68753 0.45798 0.00783 0.0
H1686 H 0.60132 0.43399 0.03434 0.0
H1687 H 0.62686 0.41551 0.00492 0.0
H1688 H 0.49101 0.3674 0.02507 0.0
H1689 H 0.54825 0.41938 0.0237 0.0
H1690 H 0.5901 0.35702 0.01267 0.0
H1691 H 0.53334 0.30541 0.01415 0.0
C1692 C 0.65468 0.4637 0.03016 0.0
C1693 C 0.67967 0.47034 0.02284 0.0
C1694 C 0.61984 0.43959 0.02843 0.0
C1695 C 0.60939 0.4215 0.01938 0.0
C1696 C 0.63422 0.429 0.01196 0.0
C1697 C 0.66896 0.45328 0.01365 0.0
C1698 C 0.5122 0.36513 0.02198 0.0
C1699 C 0.50792 0.3325 0.01974 0.0
C1700 C 0.54497 0.39475 0.02131 0.0
C1701 C 0.57365 0.39213 0.01821 0.0
C1702 C 0.56849 0.35989 0.01505 0.0
C1703 C 0.53599 0.33033 0.01588 0.0
H1704 H 0.54639 0.70267 0.85955 0.0
H1705 H 0.44363 0.64507 0.84718 0.0
H1706 H 0.54301 0.75579 0.85876 0.0
H1707 H 0.44041 0.69788 0.84626 0.0
H1708 H 0.44843 0.80121 0.84237 0.0
H1709 H 0.4657 0.75823 0.83922 0.0
H1710 H 0.50318 0.76958 0.8693 0.0
H1711 H 0.48589 0.81274 0.8725 0.0
C1712 C 0.52375 0.70168 0.85626 0.0
C1713 C 0.49523 0.66989 0.85343 0.0
C1714 C 0.52165 0.73192 0.85593 0.0
C1715 C 0.4913 0.73082 0.85257 0.0
C1716 C 0.46418 0.69956 0.84885 0.0
C1717 C 0.46602 0.66933 0.84935 0.0
C1718 C 0.46069 0.79487 0.8483 0.0
C1719 C 0.46539 0.81005 0.85774 0.0
C1720 C 0.47062 0.7703 0.84647 0.0
C1721 C 0.48579 0.76062 0.854 0.0
C1722 C 0.49192 0.77689 0.86331 0.0
C1723 C 0.48168 0.80129 0.86518 0.0
H1724 H 0.30168 0.8462 0.86095 0.0
H1725 H 0.35991 0.80261 0.84804 0.0
H1726 H 0.24891 0.78941 0.86008 0.0
H1727 H 0.30743 0.74629 0.84703 0.0
H1728 H 0.19226 0.67438 0.8731 0.0
H1729 H 0.2355 0.73511 0.87026 0.0
H1730 H 0.24706 0.71144 0.83992 0.0
H1731 H 0.20399 0.65093 0.84271 0.0
C1732 C 0.30288 0.82484 0.85754 0.0
C1733 C 0.33475 0.82864 0.85456 0.0
C1734 C 0.27284 0.79232 0.85716 0.0
C1735 C 0.27422 0.76344 0.8536 0.0
C1736 C 0.30554 0.7681 0.84977 0.0
C1737 C 0.33558 0.80034 0.85033 0.0
C1738 C 0.20379 0.68222 0.86581 0.0
C1739 C 0.19502 0.65779 0.85817 0.0
C1740 C 0.22824 0.71702 0.86415 0.0
C1741 C 0.24456 0.72793 0.85486 0.0
C1742 C 0.23495 0.7037 0.84716 0.0
C1743 C 0.21032 0.66905 0.84878 0.0
H1744 H 0.35321 0.55756 0.84179 0.0
H1745 H 0.32768 0.51902 0.87183 0.0
H1746 H 0.29275 0.53977 0.83871 0.0
H1747 H 0.26706 0.50121 0.8687 0.0
H1748 H 0.1569 0.45717 0.85919 0.0
H1749 H 0.21364 0.46121 0.85814 0.0
H1750 H 0.2571 0.56415 0.84596 0.0
H1751 H 0.20081 0.56025 0.84714 0.0
C1752 C 0.33465 0.54495 0.84771 0.0
C1753 C 0.34528 0.54008 0.8571 0.0
C1754 C 0.30004 0.53473 0.84592 0.0
C1755 C 0.27526 0.51907 0.85345 0.0
C1756 C 0.28558 0.51283 0.86272 0.0
C1757 C 0.32032 0.52337 0.86455 0.0
C1758 C 0.17831 0.48003 0.85592 0.0
C1759 C 0.17465 0.50845 0.85327 0.0
C1760 C 0.2108 0.4825 0.85543 0.0
C1761 C 0.23978 0.51315 0.85209 0.0
C1762 C 0.23521 0.54016 0.84853 0.0
C1763 C 0.203 0.53794 0.84919 0.0
H1764 H 0.30944 0.77467 0.9865 0.0
H1765 H 0.36893 0.87778 0.97448 0.0
H1766 H 0.36181 0.7708 0.98782 0.0
H1767 H 0.42162 0.87378 0.97569 0.0
H1768 H 0.47832 0.81621 0.96222 0.0
H1769 H 0.43559 0.83415 0.96525 0.0
H1770 H 0.42151 0.79487 0.99519 0.0
H1771 H 0.46413 0.77694 0.9922 0.0
C1772 C 0.334 0.79699 0.98449 0.0
C1773 C 0.33522 0.82647 0.98038 0.0
C1774 C 0.36398 0.79479 0.98524 0.0
C1775 C 0.39568 0.82183 0.98173 0.0
C1776 C 0.39741 0.85246 0.97836 0.0
C1777 C 0.36739 0.85491 0.97778 0.0
C1778 C 0.46639 0.81176 0.96948 0.0
C1779 C 0.47427 0.79477 0.97692 0.0
C1780 C 0.44222 0.82237 0.97125 0.0
C1781 C 0.4253 0.81593 0.98047 0.0
C1782 C 0.43411 0.80006 0.98801 0.0
C1783 C 0.45848 0.78977 0.98628 0.0
H1784 H 0.2243 0.68383 0.99086 0.0
H1785 H 0.1855 0.66012 0.96081 0.0
H1786 H 0.20712 0.62333 0.99353 0.0
H1787 H 0.16825 0.59939 0.96353 0.0
H1788 H 0.22649 0.53116 0.9849 0.0
H1789 H 0.23133 0.58791 0.98594 0.0
H1790 H 0.1282 0.5454 0.97399 0.0
H1791 H 0.12318 0.4882 0.97308 0.0
C1792 C 0.21178 0.66566 0.98485 0.0
C1793 C 0.20661 0.67684 0.97557 0.0
C1794 C 0.20193 0.63102 0.9864 0.0
C1795 C 0.18632 0.6067 0.97875 0.0
C1796 C 0.17986 0.61754 0.9696 0.0
C1797 C 0.19006 0.65234 0.968 0.0
C1798 C 0.20438 0.53368 0.98285 0.0
C1799 C 0.17448 0.50538 0.97892 0.0
C1800 C 0.20716 0.56617 0.98342 0.0
C1801 C 0.18029 0.57109 0.97993 0.0
C1802 C 0.14939 0.54229 0.97665 0.0
C1803 C 0.14636 0.50954 0.97625 0.0
H1804 H 0.51009 0.62936 0.97375 0.0
H1805 H 0.46423 0.68662 0.98589 0.0
H1806 H 0.45371 0.57609 0.97448 0.0
H1807 H 0.40829 0.63359 0.98675 0.0
H1808 H 0.31378 0.52932 0.99102 0.0
H1809 H 0.3739 0.57317 0.99401 0.0
H1810 H 0.39969 0.5615 0.96392 0.0
H1811 H 0.33935 0.51753 0.96087 0.0
C1812 C 0.4883 0.63029 0.97695 0.0
C1813 C 0.4914 0.66203 0.97975 0.0
C1814 C 0.45602 0.59993 0.97725 0.0
C1815 C 0.42661 0.60084 0.98056 0.0
C1816 C 0.43051 0.63207 0.98421 0.0
C1817 C 0.46253 0.66242 0.98373 0.0
C1818 C 0.33229 0.53576 0.98506 0.0
C1819 C 0.32172 0.52024 0.97566 0.0
C1820 C 0.36671 0.56086 0.9868 0.0
C1821 C 0.39141 0.5707 0.97921 0.0
C1822 C 0.38123 0.5541 0.96994 0.0
C1823 C 0.34665 0.5292 0.96817 0.0
H1824 H 0.22394 0.69055 0.48702 0.0
H1825 H 0.12212 0.63155 0.47416 0.0
H1826 H 0.22834 0.63841 0.48802 0.0
H1827 H 0.12668 0.57911 0.47502 0.0
H1828 H 0.18671 0.52508 0.46139 0.0
H1829 H 0.16796 0.56711 0.46462 0.0
H1830 H 0.20405 0.5779 0.49484 0.0
H1831 H 0.22278 0.53604 0.49166 0.0
C1832 C 0.20196 0.66609 0.48477 0.0
C1833 C 0.17272 0.66497 0.48052 0.0
C1834 C 0.20448 0.63625 0.48532 0.0
C1835 C 0.17804 0.60484 0.48146 0.0
C1836 C 0.14755 0.60312 0.47795 0.0
C1837 C 0.14476 0.63297 0.47758 0.0
C1838 C 0.19033 0.53618 0.46874 0.0
C1839 C 0.20662 0.52758 0.47622 0.0
C1840 C 0.17924 0.55992 0.47063 0.0
C1841 C 0.18451 0.57568 0.48 0.0
C1842 C 0.19975 0.5662 0.48756 0.0
C1843 C 0.21053 0.54228 0.48571 0.0
H1844 H 0.466 0.68688 0.49247 0.0
H1845 H 0.47984 0.66289 0.46233 0.0
H1846 H 0.42327 0.62626 0.4953 0.0
H1847 H 0.43698 0.6021 0.46521 0.0
H1848 H 0.37048 0.49125 0.47443 0.0
H1849 H 0.42315 0.54806 0.47557 0.0
H1850 H 0.36341 0.59102 0.48786 0.0
H1851 H 0.31106 0.5347 0.48658 0.0
C1852 C 0.46024 0.66863 0.48648 0.0
C1853 C 0.47598 0.67975 0.47713 0.0
C1854 C 0.43581 0.63391 0.48812 0.0
C1855 C 0.42687 0.60951 0.48049 0.0
C1856 C 0.44371 0.62031 0.47127 0.0
C1857 C 0.46795 0.65515 0.46958 0.0
C1858 C 0.36897 0.51257 0.47774 0.0
C1859 C 0.33683 0.50875 0.48041 0.0
C1860 C 0.39896 0.5451 0.47828 0.0
C1861 C 0.39723 0.57396 0.4817 0.0
C1862 C 0.36557 0.56923 0.48524 0.0
C1863 C 0.3356 0.537 0.48453 0.0
H1864 H 0.34002 0.81465 0.46167 0.0
H1865 H 0.31454 0.77784 0.49187 0.0
H1866 H 0.40075 0.83319 0.46492 0.0
H1867 H 0.37509 0.79639 0.49508 0.0
H1868 H 0.46872 0.77781 0.48755 0.0
H1869 H 0.41189 0.77283 0.48839 0.0
H1870 H 0.45375 0.8743 0.47531 0.0
H1871 H 0.51099 0.87942 0.47458 0.0
C1872 C 0.34741 0.81081 0.46901 0.0
C1873 C 0.32242 0.79441 0.47647 0.0
C1874 C 0.38221 0.82177 0.47091 0.0
C1875 C 0.39261 0.81629 0.48027 0.0
C1876 C 0.36778 0.80085 0.4878 0.0
C1877 C 0.3331 0.79019 0.48593 0.0
C1878 C 0.46606 0.79963 0.48524 0.0
C1879 C 0.49415 0.82897 0.481 0.0
C1880 C 0.43352 0.79677 0.4857 0.0
C1881 C 0.42834 0.82298 0.48177 0.0
C1882 C 0.45704 0.85358 0.47828 0.0
C1883 C 0.48983 0.8567 0.47799 0.0
H1884 H 0.29872 0.45332 0.3599 0.0
H1885 H 0.35674 0.55568 0.3473 0.0
H1886 H 0.24582 0.45708 0.35909 0.0
H1887 H 0.30412 0.55928 0.34637 0.0
H1888 H 0.18771 0.51364 0.37224 0.0
H1889 H 0.23143 0.49684 0.36936 0.0
H1890 H 0.24402 0.5341 0.33922 0.0
H1891 H 0.20046 0.55084 0.34205 0.0
C1892 C 0.29988 0.47597 0.35657 0.0
C1893 C 0.33174 0.50423 0.35366 0.0
C1894 C 0.26974 0.4783 0.35623 0.0
C1895 C 0.27098 0.50863 0.35278 0.0
C1896 C 0.30231 0.53553 0.34903 0.0
C1897 C 0.33244 0.53346 0.34954 0.0
C1898 C 0.19954 0.51789 0.36498 0.0
C1899 C 0.19089 0.53392 0.35742 0.0
C1900 C 0.2243 0.50797 0.36329 0.0
C1901 C 0.24109 0.51417 0.35406 0.0
C1902 C 0.23159 0.52914 0.34642 0.0
C1903 C 0.20665 0.53873 0.34806 0.0
H1904 H 0.4423 0.79854 0.34785 0.0
H1905 H 0.5448 0.84228 0.36031 0.0
H1906 H 0.43866 0.74239 0.34657 0.0
H1907 H 0.54101 0.78565 0.35915 0.0
H1908 H 0.44601 0.64705 0.3419 0.0
H1909 H 0.46361 0.70764 0.33918 0.0
H1910 H 0.50105 0.73129 0.36933 0.0
H1911 H 0.48346 0.67054 0.37208 0.0
C1912 C 0.46453 0.79634 0.34998 0.0
C1913 C 0.4938 0.82462 0.35418 0.0
C1914 C 0.46246 0.76421 0.34927 0.0
C1915 C 0.4894 0.75961 0.35288 0.0
C1916 C 0.51978 0.78851 0.3564 0.0
C1917 C 0.52211 0.82093 0.35695 0.0
C1918 C 0.45835 0.66519 0.34793 0.0
C1919 C 0.46294 0.65393 0.35726 0.0
C1920 C 0.46845 0.69988 0.34635 0.0
C1921 C 0.48369 0.72413 0.35403 0.0
C1922 C 0.48974 0.71321 0.36323 0.0
C1923 C 0.47933 0.67838 0.36484 0.0
H1924 H 0.32673 0.80929 0.37226 0.0
H1925 H 0.35236 0.79527 0.34232 0.0
H1926 H 0.26619 0.76604 0.3692 0.0
H1927 H 0.29198 0.75215 0.33932 0.0
H1928 H 0.20007 0.63995 0.34782 0.0
H1929 H 0.25644 0.69233 0.34672 0.0
H1930 H 0.21275 0.752 0.35858 0.0
H1931 H 0.15595 0.69936 0.35956 0.0
C1932 C 0.3194 0.79726 0.36501 0.0
C1933 C 0.34438 0.80537 0.35758 0.0
C1934 C 0.28471 0.7728 0.36323 0.0
C1935 C 0.27445 0.75581 0.35401 0.0
C1936 C 0.29923 0.76479 0.34649 0.0
C1937 C 0.33379 0.78944 0.34824 0.0
C1938 C 0.20224 0.66447 0.34983 0.0
C1939 C 0.17376 0.66566 0.35379 0.0
C1940 C 0.2345 0.69445 0.34922 0.0
C1941 C 0.239 0.72611 0.3527 0.0
C1942 C 0.20996 0.72781 0.35594 0.0
C1943 C 0.17744 0.69781 0.35639 0.0
H1944 H 0.34165 0.4184 0.14748 0.0
H1945 H 0.34678 0.32675 0.15455 0.0
H1946 H 0.28897 0.3967 0.1575 0.0
H1947 H 0.29472 0.30541 0.16464 0.0
H1948 H 0.17991 0.25936 0.17094 0.0
H1949 H 0.23237 0.2843 0.1609 0.0
H1950 H 0.2693 0.38256 0.17561 0.0
H1951 H 0.21658 0.35715 0.18582 0.0
C1952 C 0.33167 0.39379 0.15125 0.0
C1953 C 0.34857 0.3745 0.15037 0.0
C1954 C 0.3017 0.38151 0.15701 0.0
C1955 C 0.28777 0.34939 0.16184 0.0
C1956 C 0.30477 0.33018 0.16096 0.0
C1957 C 0.33485 0.3426 0.15529 0.0
C1958 C 0.19923 0.28631 0.17201 0.0
C1959 C 0.19442 0.30636 0.17916 0.0
C1960 C 0.22926 0.30054 0.16629 0.0
C1961 C 0.25508 0.33525 0.16756 0.0
C1962 C 0.24973 0.35576 0.17446 0.0
C1963 C 0.21964 0.34134 0.18027 0.0
H1964 H 0.73506 0.92157 0.17311 0.0
H1965 H 0.63665 0.86145 0.18774 0.0
H1966 H 0.71082 0.94875 0.16267 0.0
H1967 H 0.61198 0.88885 0.17726 0.0
H1968 H 0.57622 0.92533 0.14941 0.0
H1969 H 0.59728 0.89431 0.15962 0.0
H1970 H 0.69141 0.99054 0.16542 0.0
H1971 H 0.67091 0.02114 0.15501 0.0
C1972 C 0.70811 0.91415 0.17404 0.0
C1973 C 0.68769 0.88968 0.18123 0.0
C1974 C 0.69427 0.92979 0.16811 0.0
C1975 C 0.65963 0.92133 0.16924 0.0
C1976 C 0.63875 0.89581 0.1762 0.0
C1977 C 0.65274 0.88013 0.18218 0.0
C1978 C 0.60137 0.93978 0.1529 0.0
C1979 C 0.62167 0.97575 0.15156 0.0
C1980 C 0.61329 0.92208 0.1588 0.0
C1981 C 0.64598 0.93997 0.16332 0.0
C1982 C 0.6662 0.97596 0.16197 0.0
C1983 C 0.65423 0.99362 0.15613 0.0
H1984 H 0.08289 0.76203 0.1935 0.0
H1985 H 0.13403 0.82673 0.1682 0.0
H1986 H 0.05615 0.71116 0.18277 0.0
H1987 H 0.10893 0.77581 0.15745 0.0
H1988 H 0.02071 0.68755 0.14006 0.0
H1989 H 0.05323 0.73759 0.15079 0.0
H1990 H 0.06419 0.67225 0.17246 0.0
H1991 H 0.03116 0.62224 0.16173 0.0
C1992 C 0.08873 0.76516 0.18564 0.0
C1993 C 0.10995 0.79815 0.18161 0.0
C1994 C 0.07374 0.73605 0.17949 0.0
C1995 C 0.08001 0.73939 0.1692 0.0
C1996 C 0.1029 0.77236 0.1653 0.0
C1997 C 0.11763 0.80146 0.17145 0.0
C1998 C 0.03012 0.684 0.14712 0.0
C1999 C 0.02264 0.65096 0.1502 0.0
C2000 C 0.049 0.71267 0.15325 0.0
C2001 C 0.06129 0.709 0.16252 0.0
C2002 C 0.05448 0.67593 0.16547 0.0
C2003 C 0.03534 0.6472 0.15936 0.0
H2004 H 0.41008 0.33534 0.35514 0.0
H2005 H 0.33575 0.35592 0.34076 0.0
H2006 H 0.39229 0.2851 0.34439 0.0
H2007 H 0.31878 0.30653 0.32991 0.0
H2008 H 0.31618 0.23311 0.30632 0.0
H2009 H 0.34235 0.28615 0.31626 0.0
H2010 H 0.3389 0.22727 0.34211 0.0
H2011 H 0.31246 0.17428 0.33214 0.0
C2012 C 0.39023 0.32941 0.34962 0.0
C2013 C 0.375 0.35025 0.34865 0.0
C2014 C 0.38006 0.30064 0.34348 0.0
C2015 C 0.35444 0.29213 0.33623 0.0
C2016 C 0.33922 0.31296 0.33526 0.0
C2017 C 0.34919 0.34152 0.34145 0.0
C2018 C 0.32143 0.23173 0.31411 0.0
C2019 C 0.3121 0.19979 0.31853 0.0
C2020 C 0.33624 0.26195 0.31979 0.0
C2021 C 0.34231 0.26078 0.32998 0.0
C2022 C 0.3347 0.229 0.33427 0.0
C2023 C 0.31963 0.19873 0.32858 0.0
H2024 H 0.64975 0.97501 0.3457 0.0
H2025 H 0.65656 0.07251 0.35285 0.0
H2026 H 0.70098 0.00489 0.33535 0.0
H2027 H 0.70904 0.10283 0.34279 0.0
H2028 H 0.78146 0.13843 0.31504 0.0
H2029 H 0.72937 0.11115 0.32547 0.0
H2030 H 0.76229 0.04276 0.3377 0.0
H2031 H 0.81368 0.06974 0.32726 0.0
C2032 C 0.66186 0.00279 0.34494 0.0
C2033 C 0.64862 0.02132 0.3499 0.0
C2034 C 0.69165 0.02003 0.33914 0.0
C2035 C 0.70916 0.05628 0.33825 0.0
C2036 C 0.69594 0.07487 0.34323 0.0
C2037 C 0.66606 0.05755 0.34904 0.0
C2038 C 0.77746 0.11773 0.32003 0.0
C2039 C 0.80107 0.10569 0.32026 0.0
C2040 C 0.74779 0.10216 0.326 0.0
C2041 C 0.74144 0.07441 0.3323 0.0
C2042 C 0.76591 0.06341 0.33274 0.0
C2043 C 0.79536 0.07887 0.32679 0.0
H2044 H 0.86049 0.63915 0.31406 0.0
H2045 H 0.92448 0.73902 0.32755 0.0
H2046 H 0.88795 0.61461 0.32457 0.0
H2047 H 0.95186 0.71493 0.33796 0.0
H2048 H 0.02276 0.67276 0.3453 0.0
H2049 H 0.99198 0.69307 0.33488 0.0
H2050 H 0.89496 0.60239 0.3425 0.0
H2051 H 0.92607 0.58155 0.35277 0.0
C2052 C 0.88007 0.65562 0.31936 0.0
C2053 C 0.89068 0.69092 0.31998 0.0
C2054 C 0.89578 0.6417 0.32536 0.0
C2055 C 0.92241 0.663 0.33198 0.0
C2056 C 0.93199 0.69804 0.33278 0.0
C2057 C 0.91627 0.7118 0.32685 0.0
C2058 C 0.99498 0.65677 0.34459 0.0
C2059 C 0.97688 0.62527 0.3497 0.0
C2060 C 0.97726 0.66864 0.33874 0.0
C2061 C 0.94102 0.64934 0.33789 0.0
C2062 C 0.9229 0.61765 0.34294 0.0
C2063 C 0.94066 0.60587 0.34886 0.0
H2064 H 0.82552 0.70787 0.83175 0.0
H2065 H 0.76149 0.65715 0.80634 0.0
H2066 H 0.77436 0.68346 0.84238 0.0
H2067 H 0.71011 0.63108 0.81694 0.0
H2068 H 0.6238 0.62748 0.8357 0.0
H2069 H 0.67496 0.64774 0.82541 0.0
H2070 H 0.72919 0.63394 0.84999 0.0
H2071 H 0.67857 0.61619 0.8605 0.0
C2072 C 0.8004 0.6907 0.82853 0.0
C2073 C 0.79712 0.68416 0.81831 0.0
C2074 C 0.77107 0.6766 0.83459 0.0
C2075 C 0.73791 0.6554 0.83053 0.0
C2076 C 0.73506 0.64784 0.8203 0.0
C2077 C 0.7644 0.66236 0.81424 0.0
C2078 C 0.64697 0.62983 0.839 0.0
C2079 C 0.64761 0.62168 0.84904 0.0
C2080 C 0.67614 0.64061 0.83302 0.0
C2081 C 0.70645 0.64269 0.83685 0.0
C2082 C 0.70664 0.63339 0.84682 0.0
C2083 C 0.67755 0.623 0.85284 0.0
H2084 H 0.26103 0.0738 0.82682 0.0
H2085 H 0.36061 0.13839 0.81323 0.0
H2086 H 0.28581 0.04744 0.83737 0.0
H2087 H 0.3858 0.11183 0.82383 0.0
H2088 H 0.42117 0.07621 0.85185 0.0
H2089 H 0.39916 0.106 0.84147 0.0
H2090 H 0.30798 0.00799 0.83495 0.0
H2091 H 0.32932 0.97862 0.84555 0.0
C2092 C 0.2883 0.08225 0.8261 0.0
C2093 C 0.30892 0.10776 0.81917 0.0
C2094 C 0.30248 0.06713 0.83211 0.0
C2095 C 0.33765 0.07718 0.83134 0.0
C2096 C 0.35863 0.10362 0.82462 0.0
C2097 C 0.34431 0.11879 0.81857 0.0
C2098 C 0.39646 0.06112 0.84817 0.0
C2099 C 0.37726 0.02502 0.84936 0.0
C2100 C 0.38401 0.07812 0.84218 0.0
C2101 C 0.35186 0.05935 0.83739 0.0
C2102 C 0.33274 0.02324 0.8386 0.0
C2103 C 0.34522 0.00629 0.84455 0.0
H2104 H 0.86448 0.22052 0.81333 0.0
H2105 H 0.92936 0.1871 0.82753 0.0
H2106 H 0.89123 0.27341 0.82345 0.0
H2107 H 0.95591 0.23938 0.83762 0.0
H2108 H 0.02459 0.35239 0.84504 0.0
H2109 H 0.99525 0.30073 0.8348 0.0
H2110 H 0.89724 0.29449 0.84085 0.0
H2111 H 0.927 0.34723 0.85085 0.0
C2112 C 0.88417 0.2244 0.81869 0.0
C2113 C 0.8952 0.20011 0.81961 0.0
C2114 C 0.89946 0.25454 0.82448 0.0
C2115 C 0.92603 0.26078 0.83123 0.0
C2116 C 0.93612 0.23577 0.83232 0.0
C2117 C 0.92088 0.20581 0.82657 0.0
C2118 C 0.99693 0.34056 0.84399 0.0
C2119 C 0.9782 0.35431 0.84856 0.0
C2120 C 0.98 0.31058 0.83826 0.0
C2121 C 0.94388 0.29345 0.83703 0.0
C2122 C 0.92512 0.30728 0.84157 0.0
C2123 C 0.94211 0.3373 0.84734 0.0
H2124 H 0.61479 0.67861 0.63929 0.0
H2125 H 0.62823 0.62399 0.66375 0.0
H2126 H 0.63273 0.72903 0.6499 0.0
H2127 H 0.64868 0.67497 0.67412 0.0
H2128 H 0.65797 0.76076 0.69354 0.0
H2129 H 0.63196 0.70953 0.68287 0.0
H2130 H 0.68233 0.77447 0.65739 0.0
H2131 H 0.70668 0.82546 0.66808 0.0
C2132 C 0.62212 0.67758 0.64689 0.0
C2133 C 0.62131 0.64774 0.65056 0.0
C2134 C 0.63263 0.70656 0.65296 0.0
C2135 C 0.64257 0.70636 0.66287 0.0
C2136 C 0.64105 0.67615 0.66657 0.0
C2137 C 0.63015 0.64709 0.66053 0.0
C2138 C 0.66276 0.76384 0.68562 0.0
C2139 C 0.68398 0.79672 0.68156 0.0
C2140 C 0.64829 0.7346 0.67951 0.0
C2141 C 0.65529 0.73769 0.66925 0.0
C2142 C 0.6759 0.77099 0.66521 0.0
C2143 C 0.68997 0.80022 0.67131 0.0
H2144 H 0.22055 0.86434 0.6864 0.0
H2145 H 0.1867 0.92902 0.6723 0.0
H2146 H 0.27321 0.89107 0.67618 0.0
H2147 H 0.23874 0.95554 0.66211 0.0
H2148 H 0.35165 0.02436 0.65454 0.0
H2149 H 0.30012 0.99499 0.66483 0.0
H2150 H 0.29399 0.89705 0.65876 0.0
H2151 H 0.34659 0.92684 0.6487 0.0
C2152 C 0.22429 0.88398 0.68104 0.0
C2153 C 0.19996 0.89498 0.68018 0.0
C2154 C 0.2543 0.89926 0.6752 0.0
C2155 C 0.26036 0.92578 0.66844 0.0
C2156 C 0.23528 0.9358 0.66741 0.0
C2157 C 0.20545 0.92057 0.67321 0.0
C2158 C 0.33986 0.99671 0.65558 0.0
C2159 C 0.35361 0.97802 0.65099 0.0
C2160 C 0.30996 0.97976 0.66135 0.0
C2161 C 0.29291 0.94365 0.6626 0.0
C2162 C 0.30673 0.92492 0.65803 0.0
C2163 C 0.33667 0.94193 0.65222 0.0
H2164 H 0.13773 0.35997 0.68614 0.0
H2165 H 0.07371 0.2607 0.67233 0.0
H2166 H 0.11108 0.38524 0.67561 0.0
H2167 H 0.04728 0.28555 0.66184 0.0
H2168 H 0.97783 0.32877 0.654 0.0
H2169 H 0.00751 0.3073 0.66441 0.0
H2170 H 0.10521 0.39902 0.658 0.0
H2171 H 0.0751 0.42114 0.6478 0.0
C2172 C 0.11826 0.34377 0.68077 0.0
C2173 C 0.1074 0.30843 0.68008 0.0
C2174 C 0.10305 0.35812 0.67475 0.0
C2175 C 0.07672 0.33724 0.66799 0.0
C2176 C 0.06687 0.30214 0.66712 0.0
C2177 C 0.08204 0.28792 0.6731 0.0
C2178 C 0.0055 0.34474 0.65498 0.0
C2179 C 0.02405 0.37697 0.65026 0.0
C2180 C 0.02262 0.33219 0.66082 0.0
C2181 C 0.05874 0.35145 0.66202 0.0
C2182 C 0.07733 0.38376 0.65731 0.0
C2183 C 0.06015 0.39628 0.65142 0.0
H2184 H 0.90143 0.67344 0.52594 0.0
H2185 H 0.83916 0.62558 0.50002 0.0
H2186 H 0.95366 0.69974 0.51568 0.0
H2187 H 0.89115 0.65021 0.48973 0.0
H2188 H 0.98876 0.71802 0.47234 0.0
H2189 H 0.93737 0.69986 0.48253 0.0
H2190 H 0.98905 0.68326 0.50728 0.0
H2191 H 0.04101 0.70395 0.49732 0.0
C2192 C 0.8991 0.66895 0.518 0.0
C2193 C 0.86662 0.64788 0.51369 0.0
C2194 C 0.92893 0.68357 0.51213 0.0
C2195 C 0.92681 0.67686 0.50185 0.0
C2196 C 0.8939 0.65642 0.49756 0.0
C2197 C 0.86409 0.6422 0.50343 0.0
C2198 C 0.98906 0.7105 0.47997 0.0
C2199 C 0.01856 0.71122 0.4839 0.0
C2200 C 0.95952 0.69986 0.4858 0.0
C2201 C 0.95876 0.68969 0.49573 0.0
C2202 C 0.9886 0.69108 0.4997 0.0
C2203 C 0.01823 0.70211 0.4939 0.0
H2204 H 0.28168 0.27032 0.47316 0.0
H2205 H 0.29675 0.33801 0.49787 0.0
H2206 H 0.29922 0.23701 0.48354 0.0
H2207 H 0.31681 0.30661 0.50801 0.0
H2208 H 0.32534 0.22887 0.52702 0.0
H2209 H 0.29953 0.25484 0.51659 0.0
H2210 H 0.34871 0.24026 0.49082 0.0
H2211 H 0.37286 0.21289 0.50128 0.0
C2212 C 0.28929 0.27842 0.48077 0.0
C2213 C 0.28903 0.30758 0.48457 0.0
C2214 C 0.29956 0.25947 0.48671 0.0
C2215 C 0.30982 0.26923 0.49661 0.0
C2216 C 0.3089 0.29807 0.50045 0.0
C2217 C 0.29824 0.31674 0.49454 0.0
C2218 C 0.32987 0.23069 0.51909 0.0
C2219 C 0.35071 0.21884 0.51488 0.0
C2220 C 0.31552 0.2459 0.51312 0.0
C2221 C 0.32229 0.25007 0.50284 0.0
C2222 C 0.34247 0.23713 0.49865 0.0
C2223 C 0.35641 0.22154 0.50462 0.0
H2224 H 0.68899 0.02171 0.4738 0.0
H2225 H 0.70136 0.95729 0.49535 0.0
H2226 H 0.72115 0.07192 0.48449 0.0
H2227 H 0.73417 0.00751 0.50603 0.0
H2228 H 0.75352 0.09724 0.52713 0.0
H2229 H 0.72659 0.04621 0.51646 0.0
H2230 H 0.77668 0.11089 0.49093 0.0
H2231 H 0.80181 0.16193 0.50161 0.0
C2232 C 0.69874 0.0184 0.48084 0.0
C2233 C 0.69195 0.98556 0.48389 0.0
C2234 C 0.71743 0.04718 0.48694 0.0
C2235 C 0.73027 0.04384 0.49616 0.0
C2236 C 0.72406 0.01095 0.49909 0.0
C2237 C 0.70506 0.9821 0.49301 0.0
C2238 C 0.7587 0.10034 0.51924 0.0
C2239 C 0.77917 0.13337 0.51514 0.0
C2240 C 0.74361 0.07114 0.51312 0.0
C2241 C 0.74906 0.07441 0.50279 0.0
C2242 C 0.77124 0.10745 0.49881 0.0
C2243 C 0.78603 0.13664 0.50493 0.0
H2244 H 0.02701 0.55645 0.64689 0.0
H2245 H 0.92853 0.51964 0.66135 0.0
H2246 H 0.05236 0.60831 0.65746 0.0
H2247 H 0.95349 0.57081 0.6719 0.0
H2248 H 0.99509 0.68348 0.67946 0.0
H2249 H 0.97375 0.63196 0.66922 0.0
H2250 H 0.06727 0.62868 0.67499 0.0
H2251 H 0.08924 0.68132 0.68501 0.0
C2252 C 0.01104 0.55934 0.65243 0.0
C2253 C 0.97586 0.5345 0.65328 0.0
C2254 C 0.02543 0.58887 0.65846 0.0
C2255 C 0.00475 0.59386 0.66541 0.0
C2256 C 0.96989 0.56814 0.66647 0.0
C2257 C 0.95562 0.53882 0.66047 0.0
C2258 C 0.01146 0.67229 0.67837 0.0
C2259 C 0.04416 0.68687 0.68285 0.0
C2260 C 0.99899 0.64239 0.67264 0.0
C2261 C 0.01881 0.62619 0.67131 0.0
C2262 C 0.05157 0.64078 0.67579 0.0
C2263 C 0.06402 0.67072 0.68157 0.0
H2264 H 0.44933 0.47385 0.64731 0.0
H2265 H 0.47912 0.4031 0.65939 0.0
H2266 H 0.39684 0.44702 0.6576 0.0
H2267 H 0.42738 0.37658 0.66968 0.0
H2268 H 0.31483 0.31042 0.67758 0.0
H2269 H 0.36601 0.3398 0.66719 0.0
H2270 H 0.37599 0.43836 0.67488 0.0
H2271 H 0.32352 0.40857 0.68497 0.0
C2272 C 0.44471 0.45278 0.65224 0.0
C2273 C 0.46775 0.44004 0.65246 0.0
C2274 C 0.41481 0.43747 0.65812 0.0
C2275 C 0.40765 0.40928 0.66434 0.0
C2276 C 0.43158 0.39758 0.66478 0.0
C2277 C 0.46124 0.41278 0.65891 0.0
C2278 C 0.32731 0.33823 0.67685 0.0
C2279 C 0.31462 0.35709 0.6819 0.0
C2280 C 0.35709 0.35519 0.67104 0.0
C2281 C 0.37518 0.39147 0.67022 0.0
C2282 C 0.36245 0.41038 0.67526 0.0
C2283 C 0.33258 0.39335 0.68109 0.0
H2284 H 0.52919 0.97494 0.64735 0.0
H2285 H 0.59613 0.07509 0.66031 0.0
H2286 H 0.55612 0.94977 0.65782 0.0
H2287 H 0.62296 0.05038 0.67069 0.0
H2288 H 0.69131 0.00577 0.67835 0.0
H2289 H 0.66148 0.02686 0.66783 0.0
H2290 H 0.56336 0.93785 0.67561 0.0
H2291 H 0.59351 0.91612 0.68594 0.0
C2292 C 0.54938 0.99137 0.65251 0.0
C2293 C 0.56096 0.02691 0.65298 0.0
C2294 C 0.56478 0.97709 0.65849 0.0
C2295 C 0.59202 0.99824 0.66496 0.0
C2296 C 0.60263 0.03357 0.66561 0.0
C2297 C 0.58724 0.04771 0.65969 0.0
C2298 C 0.66348 0.99027 0.67764 0.0
C2299 C 0.6448 0.95896 0.68281 0.0
C2300 C 0.64631 0.00262 0.67174 0.0
C2301 C 0.61005 0.98404 0.67091 0.0
C2302 C 0.59134 0.95256 0.67603 0.0
C2303 C 0.60856 0.94027 0.68198 0.0
H2304 H 0.32347 0.91576 0.1865 0.0
H2305 H 0.31322 0.00357 0.17815 0.0
H2306 H 0.37538 0.93763 0.17614 0.0
H2307 H 0.36411 0.02477 0.16764 0.0
H2308 H 0.47796 0.07461 0.16028 0.0
H2309 H 0.42644 0.04955 0.17067 0.0
H2310 H 0.39415 0.94877 0.15817 0.0
H2311 H 0.44618 0.97428 0.14766 0.0
C2312 C 0.33211 0.93951 0.18237 0.0
C2313 C 0.31396 0.95764 0.18299 0.0
C2314 C 0.36163 0.95187 0.1764 0.0
C2315 C 0.37378 0.98289 0.17108 0.0
C2316 C 0.3555 0.00089 0.1717 0.0
C2317 C 0.32599 0.98847 0.17761 0.0
C2318 C 0.45976 0.04713 0.15973 0.0
C2319 C 0.46563 0.02637 0.1531 0.0
C2320 C 0.43028 0.03279 0.16566 0.0
C2321 C 0.40601 0.99729 0.16513 0.0
C2322 C 0.41248 0.9762 0.15875 0.0
C2323 C 0.44211 0.9907 0.15275 0.0
H2324 H 0.98843 0.42099 0.13802 0.0
H2325 H 0.97827 0.47144 0.16405 0.0
H2326 H 0.01383 0.39379 0.14816 0.0
H2327 H 0.00469 0.4452 0.17416 0.0
H2328 H 0.07769 0.40929 0.18714 0.0
H2329 H 0.06088 0.4423 0.17629 0.0
H2330 H 0.98545 0.34769 0.16209 0.0
H2331 H 0.00085 0.31459 0.17316 0.0
C2332 C 0.99201 0.42649 0.1459 0.0
C2333 C 0.98084 0.44765 0.15032 0.0
C2334 C 0.00655 0.41104 0.15168 0.0
C2335 C 0.01082 0.41712 0.16195 0.0
C2336 C 0.00178 0.44018 0.16625 0.0
C2337 C 0.98675 0.45521 0.16048 0.0
C2338 C 0.05758 0.39551 0.18168 0.0
C2339 C 0.04136 0.35927 0.18086 0.0
C2340 C 0.04805 0.41445 0.17548 0.0
C2341 C 0.02227 0.39757 0.16826 0.0
C2342 C 0.00605 0.36142 0.16742 0.0
C2343 C 0.01519 0.34245 0.17372 0.0
H2344 H 0.5766 0.57111 0.13936 0.0
H2345 H 0.53061 0.50914 0.16551 0.0
H2346 H 0.60402 0.62344 0.14962 0.0
H2347 H 0.55713 0.56153 0.17577 0.0
H2348 H 0.5915 0.66971 0.18919 0.0
H2349 H 0.55838 0.61962 0.17845 0.0
H2350 H 0.65202 0.64232 0.16297 0.0
H2351 H 0.68533 0.69116 0.17392 0.0
C2352 C 0.57209 0.56884 0.1473 0.0
C2353 C 0.55205 0.53625 0.1517 0.0
C2354 C 0.5877 0.59867 0.15315 0.0
C2355 C 0.58296 0.59643 0.16349 0.0
C2356 C 0.5611 0.56398 0.16781 0.0
C2357 C 0.54589 0.53408 0.16196 0.0
C2358 C 0.60506 0.6641 0.18348 0.0
C2359 C 0.64106 0.68522 0.18227 0.0
C2360 C 0.58604 0.63545 0.17733 0.0
C2361 C 0.60259 0.62745 0.1698 0.0
C2362 C 0.6385 0.64845 0.16857 0.0
C2363 C 0.65758 0.67676 0.1748 0.0
H2364 H 0.24947 0.98901 0.98138 0.0
H2365 H 0.33946 0.98171 0.98912 0.0
H2366 H 0.27136 0.04156 0.9914 0.0
H2367 H 0.36045 0.03294 0.99943 0.0
H2368 H 0.40901 0.14574 0.0072 0.0
H2369 H 0.38446 0.09415 0.99686 0.0
H2370 H 0.28289 0.06263 0.00867 0.0
H2371 H 0.30788 0.11503 0.019 0.0
C2372 C 0.27369 0.99839 0.98532 0.0
C2373 C 0.29238 0.98081 0.98462 0.0
C2374 C 0.28608 0.02831 0.9911 0.0
C2375 C 0.31762 0.04144 0.99622 0.0
C2376 C 0.33619 0.02371 0.99552 0.0
C2377 C 0.32384 0.9939 0.98975 0.0
C2378 C 0.38145 0.1277 0.00759 0.0
C2379 C 0.36033 0.13386 0.01399 0.0
C2380 C 0.36738 0.09813 0.0017 0.0
C2381 C 0.33181 0.07394 0.00207 0.0
C2382 C 0.31039 0.0808 0.00821 0.0
C2383 C 0.32458 0.11064 0.01412 0.0
H2384 H 0.88092 0.19083 0.01745 0.0
H2385 H 0.85066 0.26169 0.00573 0.0
H2386 H 0.93318 0.218 0.00709 0.0
H2387 H 0.90236 0.28869 0.99541 0.0
H2388 H 0.01583 0.35561 0.98797 0.0
H2389 H 0.96417 0.32553 0.99818 0.0
H2390 H 0.95356 0.22741 0.98963 0.0
H2391 H 0.00627 0.25779 0.97966 0.0
C2392 C 0.88534 0.21195 0.01258 0.0
C2393 C 0.86223 0.22462 0.01248 0.0
C2394 C 0.91514 0.22748 0.00665 0.0
C2395 C 0.92218 0.25588 0.00055 0.0
C2396 C 0.89818 0.26748 0.00021 0.0
C2397 C 0.86855 0.252 0.0061 0.0
C2398 C 0.00303 0.32771 0.98845 0.0
C2399 C 0.01557 0.30912 0.98319 0.0
C2400 C 0.97304 0.31039 0.99417 0.0
C2401 C 0.95469 0.27405 0.9947 0.0
C2402 C 0.96729 0.25542 0.98946 0.0
C2403 C 0.99731 0.2728 0.98371 0.0
H2404 H 0.80113 0.69023 0.0203 0.0
H2405 H 0.74993 0.59645 0.00303 0.0
H2406 H 0.77584 0.71645 0.00959 0.0
H2407 H 0.72452 0.62215 0.99242 0.0
H2408 H 0.70812 0.68817 0.97005 0.0
H2409 H 0.74107 0.66886 0.98002 0.0
H2410 H 0.71587 0.70614 0.00652 0.0
H2411 H 0.68358 0.72613 0.99649 0.0
C2412 C 0.78481 0.67552 0.01414 0.0
C2413 C 0.77734 0.64149 0.01243 0.0
C2414 C 0.77018 0.69031 0.00807 0.0
C2415 C 0.74819 0.67131 0.00017 0.0
C2416 C 0.74164 0.63757 0.99836 0.0
C2417 C 0.75598 0.62279 0.00446 0.0
C2418 C 0.70975 0.69227 0.97801 0.0
C2419 C 0.69252 0.70765 0.98256 0.0
C2420 C 0.72849 0.68118 0.98371 0.0
C2421 C 0.73077 0.68572 0.99406 0.0
C2422 C 0.71463 0.70236 0.99856 0.0
C2423 C 0.69569 0.71327 0.99286 0.0
H2424 H 0.68383 0.99566 0.82086 0.0
H2425 H 0.68145 0.08952 0.81499 0.0
H2426 H 0.6325 0.9747 0.83117 0.0
H2427 H 0.629 0.06791 0.82508 0.0
H2428 H 0.55692 0.02867 0.8532 0.0
H2429 H 0.60874 0.05366 0.84262 0.0
H2430 H 0.57133 0.95422 0.82854 0.0
H2431 H 0.52021 0.92962 0.8391 0.0
C2432 C 0.67264 0.01206 0.82189 0.0
C2433 C 0.68711 0.04457 0.8173 0.0
C2434 C 0.64285 0.9998 0.82767 0.0
C2435 C 0.62662 0.01963 0.82892 0.0
C2436 C 0.6411 0.05221 0.82433 0.0
C2437 C 0.67094 0.06445 0.81851 0.0
C2438 C 0.55982 0.01249 0.84774 0.0
C2439 C 0.53501 0.97727 0.847 0.0
C2440 C 0.58933 0.02668 0.8417 0.0
C2441 C 0.59435 0.00575 0.83485 0.0
C2442 C 0.56866 0.97082 0.83389 0.0
C2443 C 0.53936 0.95676 0.83991 0.0
H2444 H 0.91748 0.59487 0.81426 0.0
H2445 H 0.00647 0.69299 0.82199 0.0
H2446 H 0.93921 0.56502 0.82472 0.0
H2447 H 0.02755 0.66345 0.83264 0.0
H2448 H 0.07622 0.59831 0.8402 0.0
H2449 H 0.05157 0.62535 0.82989 0.0
H2450 H 0.95074 0.55771 0.84251 0.0
H2451 H 0.97584 0.53059 0.85292 0.0
C2452 C 0.94148 0.61005 0.81828 0.0
C2453 C 0.95999 0.64629 0.81745 0.0
C2454 C 0.95376 0.593 0.82431 0.0
C2455 C 0.98506 0.61189 0.8295 0.0
C2456 C 0.00345 0.64816 0.82868 0.0
C2457 C 0.9911 0.66516 0.82269 0.0
C2458 C 0.04882 0.58934 0.84079 0.0
C2459 C 0.02793 0.56274 0.84741 0.0
C2460 C 0.03471 0.60484 0.83491 0.0
C2461 C 0.99932 0.59401 0.83549 0.0
C2462 C 0.97811 0.56654 0.84189 0.0
C2463 C 0.99236 0.55103 0.84783 0.0
H2464 H 0.47416 0.45061 0.85166 0.0
H2465 H 0.40382 0.48045 0.83929 0.0
H2466 H 0.44753 0.39805 0.84141 0.0
H2467 H 0.37752 0.42864 0.82903 0.0
H2468 H 0.31112 0.31584 0.82138 0.0
H2469 H 0.34054 0.36734 0.83164 0.0
H2470 H 0.43904 0.3768 0.82416 0.0
H2471 H 0.40919 0.32402 0.81419 0.0
C2472 C 0.45326 0.44601 0.84667 0.0
C2473 C 0.44056 0.46907 0.84636 0.0
C2474 C 0.43805 0.41606 0.8408 0.0
C2475 C 0.41001 0.40888 0.83452 0.0
C2476 C 0.3984 0.43286 0.83398 0.0
C2477 C 0.41349 0.46257 0.83983 0.0
C2478 C 0.33893 0.32829 0.82212 0.0
C2479 C 0.35775 0.31537 0.81717 0.0
C2480 C 0.35591 0.35824 0.82787 0.0
C2481 C 0.39219 0.37628 0.8287 0.0
C2482 C 0.41106 0.36332 0.82376 0.0
C2483 C 0.394 0.33326 0.818 0.0
H2484 H 0.67022 0.89937 0.97375 0.0
H2485 H 0.6247 0.83638 0.99971 0.0
H2486 H 0.69681 0.95138 0.98409 0.0
H2487 H 0.64971 0.88817 0.0101 0.0
H2488 H 0.71899 0.98592 0.02736 0.0
H2489 H 0.70012 0.93464 0.01705 0.0
H2490 H 0.6801 0.98599 0.99289 0.0
H2491 H 0.70138 0.03782 0.00294 0.0
C2492 C 0.66628 0.89683 0.98171 0.0
C2493 C 0.64577 0.86422 0.98601 0.0
C2494 C 0.68108 0.92653 0.98763 0.0
C2495 C 0.67515 0.92413 0.99795 0.0
C2496 C 0.65528 0.89111 0.00222 0.0
C2497 C 0.64085 0.86143 0.9963 0.0
C2498 C 0.71055 0.98617 0.01984 0.0
C2499 C 0.71051 0.01551 0.01609 0.0
C2500 C 0.69952 0.9567 0.01394 0.0
C2501 C 0.68822 0.95591 0.00414 0.0
C2502 C 0.68881 0.98559 0.00037 0.0
C2503 C 0.70019 0.01514 0.00623 0.0
H2504 H 0.98423 0.64516 0.01261 0.0
H2505 H 0.99057 0.74297 0.01895 0.0
H2506 H 0.03526 0.67438 0.00213 0.0
H2507 H 0.04273 0.77263 0.00868 0.0
H2508 H 0.11397 0.80454 0.98046 0.0
H2509 H 0.06209 0.77832 0.99102 0.0
H2510 H 0.09695 0.71354 0.00468 0.0
H2511 H 0.14821 0.73957 0.99417 0.0
C2512 C 0.99622 0.67286 0.01164 0.0
C2513 C 0.98296 0.69168 0.01642 0.0
C2514 C 0.02584 0.68972 0.00576 0.0
C2515 C 0.04308 0.72585 0.00459 0.0
C2516 C 0.0298 0.74474 0.00936 0.0
C2517 C 0.00014 0.72781 0.01528 0.0
C2518 C 0.11048 0.78493 0.98581 0.0
C2519 C 0.13467 0.77369 0.98646 0.0
C2520 C 0.08094 0.76997 0.99184 0.0
C2521 C 0.07523 0.74352 0.99858 0.0
C2522 C 0.10017 0.73325 0.99941 0.0
C2523 C 0.12953 0.74817 0.99341 0.0
H2524 H 0.22768 0.32264 0.9732 0.0
H2525 H 0.21338 0.37242 0.99868 0.0
H2526 H 0.25375 0.29723 0.98376 0.0
H2527 H 0.24087 0.34867 0.00926 0.0
H2528 H 0.27074 0.28215 0.02726 0.0
H2529 H 0.23747 0.29954 0.01682 0.0
H2530 H 0.30578 0.31459 0.99221 0.0
H2531 H 0.33712 0.29466 0.00242 0.0
C2532 C 0.22988 0.32774 0.98111 0.0
C2533 C 0.21846 0.3491 0.98521 0.0
C2534 C 0.24517 0.31363 0.98715 0.0
C2535 C 0.24985 0.32115 0.99738 0.0
C2536 C 0.23735 0.34185 0.00146 0.0
C2537 C 0.22168 0.35556 0.99543 0.0
C2538 C 0.27858 0.28918 0.01961 0.0
C2539 C 0.30736 0.28822 0.01578 0.0
C2540 C 0.25964 0.29937 0.01363 0.0
C2541 C 0.26904 0.30886 0.00367 0.0
C2542 C 0.29753 0.30728 0.99981 0.0
C2543 C 0.31617 0.2967 0.00576 0.0
H2544 H 0.98164 0.33993 0.51058 0.0
H2545 H 0.99318 0.25408 0.5203 0.0
H2546 H 0.03315 0.36081 0.50036 0.0
H2547 H 0.04576 0.27574 0.51026 0.0
H2548 H 0.11883 0.31051 0.48234 0.0
H2549 H 0.06619 0.28525 0.49259 0.0
H2550 H 0.09518 0.3871 0.50363 0.0
H2551 H 0.14724 0.4119 0.49348 0.0
C2552 C 0.99481 0.32515 0.5104 0.0
C2553 C 0.98294 0.29495 0.51608 0.0
C2554 C 0.0247 0.33743 0.50466 0.0
C2555 C 0.04359 0.31997 0.50453 0.0
C2556 C 0.03158 0.28956 0.51015 0.0
C2557 C 0.00166 0.27732 0.51593 0.0
C2558 C 0.11388 0.32724 0.48705 0.0
C2559 C 0.13654 0.36312 0.48701 0.0
C2560 C 0.0839 0.31289 0.4929 0.0
C2561 C 0.07626 0.33431 0.49878 0.0
C2562 C 0.09983 0.37003 0.49899 0.0
C2563 C 0.12963 0.38424 0.49318 0.0
H2564 H 0.64626 0.80585 0.49833 0.0
H2565 H 0.66074 0.75641 0.47276 0.0
H2566 H 0.67176 0.78014 0.50894 0.0
H2567 H 0.68426 0.72881 0.48337 0.0
H2568 H 0.74533 0.70001 0.50434 0.0
H2569 H 0.72961 0.73432 0.49371 0.0
H2570 H 0.65382 0.72453 0.51542 0.0
H2571 H 0.67035 0.69103 0.52606 0.0
C2572 C 0.65529 0.78972 0.49499 0.0
C2573 C 0.65111 0.78256 0.48479 0.0
C2574 C 0.66944 0.77458 0.50106 0.0
C2575 C 0.67942 0.75175 0.49706 0.0
C2576 C 0.67697 0.74626 0.48673 0.0
C2577 C 0.66317 0.76174 0.48066 0.0
C2578 C 0.72494 0.70479 0.50672 0.0
C2579 C 0.70837 0.69221 0.51588 0.0
C2580 C 0.71606 0.72463 0.50068 0.0
C2581 C 0.69034 0.73219 0.50367 0.0
C2582 C 0.67415 0.71981 0.51292 0.0
C2583 C 0.68332 0.70033 0.519 0.0
H2584 H 0.26014 0.85107 0.49464 0.0
H2585 H 0.19584 0.88584 0.48078 0.0
H2586 H 0.2858 0.9021 0.5053 0.0
H2587 H 0.22151 0.93731 0.49153 0.0
H2588 H 0.31215 0.04305 0.50361 0.0
H2589 H 0.28114 0.99083 0.49342 0.0
H2590 H 0.26844 0.92775 0.51913 0.0
H2591 H 0.29981 0.97996 0.52925 0.0
C2592 C 0.25148 0.86972 0.49393 0.0
C2593 C 0.22632 0.86489 0.48688 0.0
C2594 C 0.26594 0.89874 0.50006 0.0
C2595 C 0.25569 0.92369 0.49923 0.0
C2596 C 0.23006 0.91859 0.49227 0.0
C2597 C 0.21526 0.88919 0.48618 0.0
C2598 C 0.30303 0.01798 0.50702 0.0
C2599 C 0.30913 0.0154 0.51712 0.0
C2600 C 0.28487 0.98815 0.50124 0.0
C2601 C 0.27258 0.95526 0.50548 0.0
C2602 C 0.27799 0.95278 0.51565 0.0
C2603 C 0.29584 0.98256 0.52143 0.0
H2604 H 0.94281 0.34521 0.30633 0.0
H2605 H 0.9605 0.29192 0.33034 0.0
H2606 H 0.96198 0.396 0.31689 0.0
H2607 H 0.9821 0.34321 0.34063 0.0
H2608 H 0.99379 0.42938 0.36025 0.0
H2609 H 0.96631 0.3778 0.34975 0.0
H2610 H 0.01278 0.44189 0.32384 0.0
H2611 H 0.03863 0.49325 0.3344 0.0
C2612 C 0.9513 0.34455 0.31382 0.0
C2613 C 0.95137 0.31502 0.31737 0.0
C2614 C 0.96251 0.37373 0.31986 0.0
C2615 C 0.974 0.37398 0.32961 0.0
C2616 C 0.97327 0.34403 0.3332 0.0
C2617 C 0.96169 0.3148 0.3272 0.0
C2618 C 0.99745 0.43219 0.35228 0.0
C2619 C 0.01801 0.46492 0.34806 0.0
C2620 C 0.9821 0.40275 0.34627 0.0
C2621 C 0.98757 0.40552 0.33592 0.0
C2622 C 0.00754 0.43867 0.33173 0.0
C2623 C 0.02248 0.4681 0.33776 0.0
H2624 H 0.57162 0.57827 0.36067 0.0
H2625 H 0.50801 0.52897 0.33505 0.0
H2626 H 0.62286 0.60601 0.35013 0.0
H2627 H 0.55938 0.55469 0.32449 0.0
H2628 H 0.64765 0.6425 0.30724 0.0
H2629 H 0.59741 0.60955 0.31786 0.0
H2630 H 0.66308 0.60114 0.33997 0.0
H2631 H 0.71333 0.63507 0.32939 0.0
C2632 C 0.5688 0.57302 0.35277 0.0
C2633 C 0.53595 0.55219 0.34861 0.0
C2634 C 0.59818 0.58857 0.34673 0.0
C2635 C 0.59533 0.58312 0.3364 0.0
C2636 C 0.56253 0.56029 0.33237 0.0
C2637 C 0.53313 0.54512 0.33841 0.0
C2638 C 0.65121 0.63366 0.3144 0.0
C2639 C 0.68436 0.64204 0.31763 0.0
C2640 C 0.62241 0.61445 0.32046 0.0
C2641 C 0.62603 0.60257 0.32982 0.0
C2642 C 0.65931 0.61044 0.33293 0.0
C2643 C 0.68818 0.63005 0.3269 0.0
H2644 H 0.40932 0.08365 0.31374 0.0
H2645 H 0.31197 0.99444 0.3219 0.0
H2646 H 0.44007 0.06222 0.32398 0.0
H2647 H 0.34236 0.97358 0.33225 0.0
H2648 H 0.4078 0.92525 0.33928 0.0
H2649 H 0.3814 0.95024 0.32883 0.0
H2650 H 0.44705 0.05034 0.34213 0.0
H2651 H 0.47347 0.02489 0.35271 0.0
C2652 C 0.39453 0.05967 0.3178 0.0
C2653 C 0.35824 0.041 0.31717 0.0
C2654 C 0.41208 0.04756 0.32369 0.0
C2655 C 0.3936 0.01625 0.3289 0.0
C2656 C 0.35731 0.9977 0.32827 0.0
C2657 C 0.33984 0.0099 0.32245 0.0
C2658 C 0.41656 0.95259 0.33997 0.0
C2659 C 0.44226 0.97315 0.34686 0.0
C2660 C 0.40145 0.96688 0.33401 0.0
C2661 C 0.4118 0.00212 0.33478 0.0
C2662 C 0.43862 0.0231 0.34138 0.0
C2663 C 0.45371 0.00865 0.34742 0.0
H2664 H 0.93319 0.12266 0.26687 0.0
H2665 H 0.9644 0.22897 0.27369 0.0
H2666 H 0.96768 0.14149 0.25174 0.0
H2667 H 0.99945 0.24774 0.2587 0.0
H2668 H 0.03242 0.26375 0.22578 0.0
H2669 H 0.99782 0.24737 0.24085 0.0
H2670 H 0.02856 0.17178 0.2473 0.0
H2671 H 0.06259 0.18755 0.23208 0.0
C2672 C 0.94702 0.14999 0.2651 0.0
C2673 C 0.94602 0.17425 0.27154 0.0
C2674 C 0.9672 0.16084 0.25648 0.0
C2675 C 0.98687 0.19621 0.25409 0.0
C2676 C 0.9846 0.22031 0.26029 0.0
C2677 C 0.96441 0.20948 0.2689 0.0
C2678 C 0.03229 0.24398 0.23048 0.0
C2679 C 0.05021 0.22684 0.22765 0.0
C2680 C 0.01237 0.23458 0.23914 0.0
C2681 C 0.0099 0.20784 0.24522 0.0
C2682 C 0.0292 0.1919 0.24266 0.0
C2683 C 0.04912 0.20129 0.23399 0.0
H2684 H 0.73738 0.77243 0.22662 0.0
H2685 H 0.81296 0.87886 0.23315 0.0
H2686 H 0.75439 0.75394 0.24152 0.0
H2687 H 0.82941 0.86029 0.2482 0.0
H2688 H 0.77269 0.73864 0.27437 0.0
H2689 H 0.75383 0.75513 0.25944 0.0
H2690 H 0.86006 0.82957 0.25243 0.0
H2691 H 0.879 0.81364 0.26749 0.0
C2692 C 0.75719 0.792 0.23132 0.0
C2693 C 0.77389 0.82718 0.22863 0.0
C2694 C 0.76695 0.78134 0.23989 0.0
C2695 C 0.79363 0.80556 0.24599 0.0
C2696 C 0.8093 0.84087 0.24354 0.0
C2697 C 0.79953 0.85157 0.23497 0.0
C2698 C 0.79215 0.7582 0.26959 0.0
C2699 C 0.82741 0.77492 0.27219 0.0
C2700 C 0.78128 0.76766 0.26101 0.0
C2701 C 0.80536 0.79405 0.25481 0.0
C2702 C 0.84075 0.80969 0.25716 0.0
C2703 C 0.85165 0.80021 0.26574 0.0
H2704 H 0.11746 0.93519 0.23247 0.0
H2705 H 0.22371 0.96377 0.22661 0.0
H2706 H 0.13562 0.96935 0.2477 0.0
H2707 H 0.24185 0.99872 0.24153 0.0
H2708 H 0.1828 0.06305 0.26814 0.0
H2709 H 0.16601 0.0289 0.25291 0.0
H2710 H 0.24117 0.99722 0.25899 0.0
H2711 H 0.25876 0.03215 0.27392 0.0
C2712 C 0.1446 0.94839 0.23447 0.0
C2713 C 0.16906 0.94665 0.22828 0.0
C2714 C 0.1551 0.96841 0.24313 0.0
C2715 C 0.1903 0.98724 0.2458 0.0
C2716 C 0.21451 0.98442 0.23979 0.0
C2717 C 0.20404 0.9643 0.23119 0.0
C2718 C 0.1962 0.04933 0.26612 0.0
C2719 C 0.22215 0.05042 0.27229 0.0
C2720 C 0.18622 0.02932 0.25746 0.0
C2721 C 0.20187 0.00984 0.25477 0.0
C2722 C 0.22868 0.01202 0.26075 0.0
C2723 C 0.23878 0.03213 0.26936 0.0
H2724 H 0.96431 0.7391 0.77344 0.0
H2725 H 0.93087 0.81234 0.76644 0.0
H2726 H 0.00055 0.75681 0.75872 0.0
H2727 H 0.96654 0.82937 0.75151 0.0
H2728 H 0.06322 0.88078 0.7324 0.0
H2729 H 0.02759 0.86144 0.74733 0.0
H2730 H 0.00047 0.75596 0.74099 0.0
H2731 H 0.0367 0.77527 0.72626 0.0
C2732 C 0.9641 0.7585 0.76866 0.0
C2733 C 0.94472 0.77439 0.77119 0.0
C2734 C 0.98496 0.76867 0.76019 0.0
C2735 C 0.98691 0.7949 0.75399 0.0
C2736 C 0.96629 0.80966 0.75625 0.0
C2737 C 0.94543 0.79953 0.76475 0.0
C2738 C 0.05021 0.85355 0.73429 0.0
C2739 C 0.05283 0.82963 0.72808 0.0
C2740 C 0.02935 0.84238 0.74278 0.0
C2741 C 0.01064 0.80705 0.74528 0.0
C2742 C 0.01456 0.78337 0.73932 0.0
C2743 C 0.03541 0.79451 0.73085 0.0
H2744 H 0.18763 0.12168 0.76666 0.0
H2745 H 0.26286 0.22796 0.77349 0.0
H2746 H 0.17127 0.14067 0.75169 0.0
H2747 H 0.24591 0.24687 0.75866 0.0
H2748 H 0.1213 0.18726 0.73262 0.0
H2749 H 0.14037 0.17114 0.74762 0.0
H2750 H 0.24644 0.24653 0.74075 0.0
H2751 H 0.22743 0.26323 0.7259 0.0
C2752 C 0.20102 0.14903 0.76492 0.0
C2753 C 0.22651 0.17324 0.77133 0.0
C2754 C 0.19129 0.15997 0.7564 0.0
C2755 C 0.20683 0.19536 0.75406 0.0
C2756 C 0.23344 0.21942 0.76021 0.0
C2757 C 0.24317 0.20851 0.76873 0.0
C2758 C 0.14863 0.20086 0.73439 0.0
C2759 C 0.17279 0.22648 0.728 0.0
C2760 C 0.15962 0.19128 0.74293 0.0
C2761 C 0.19501 0.20709 0.74531 0.0
C2762 C 0.21899 0.23384 0.73917 0.0
C2763 C 0.20803 0.24342 0.73063 0.0
H2764 H 0.8805 0.06315 0.76749 0.0
H2765 H 0.77483 0.03575 0.77378 0.0
H2766 H 0.86121 0.02757 0.75256 0.0
H2767 H 0.75558 0.99958 0.75904 0.0
H2768 H 0.81254 0.93102 0.73337 0.0
H2769 H 0.82954 0.96659 0.74832 0.0
H2770 H 0.75617 0.99975 0.74131 0.0
H2771 H 0.73851 0.9636 0.72657 0.0
C2772 C 0.85324 0.04995 0.76564 0.0
C2773 C 0.82926 0.05233 0.77188 0.0
C2774 C 0.8421 0.02913 0.75714 0.0
C2775 C 0.80675 0.0102 0.75467 0.0
C2776 C 0.78301 0.01384 0.76067 0.0
C2777 C 0.79411 0.03467 0.76915 0.0
C2778 C 0.79956 0.94537 0.73511 0.0
C2779 C 0.7742 0.94444 0.72872 0.0
C2780 C 0.80966 0.96617 0.74362 0.0
C2781 C 0.79465 0.98653 0.74594 0.0
C2782 C 0.76822 0.98437 0.73979 0.0
C2783 C 0.75809 0.96356 0.7313 0.0
H2784 H 0.60225 0.45514 0.5999 0.0
H2785 H 0.63712 0.56198 0.60713 0.0
H2786 H 0.637 0.47357 0.58482 0.0
H2787 H 0.67238 0.58032 0.59217 0.0
H2788 H 0.73144 0.51785 0.56489 0.0
H2789 H 0.69786 0.50239 0.58021 0.0
H2790 H 0.66994 0.58041 0.57432 0.0
H2791 H 0.70405 0.59644 0.55917 0.0
C2792 C 0.61699 0.48252 0.59824 0.0
C2793 C 0.61684 0.50703 0.60477 0.0
C2794 C 0.6373 0.49312 0.58964 0.0
C2795 C 0.65795 0.52847 0.58735 0.0
C2796 C 0.65673 0.55289 0.59368 0.0
C2797 C 0.63643 0.54232 0.60227 0.0
C2798 C 0.71869 0.53216 0.56695 0.0
C2799 C 0.72041 0.55831 0.56075 0.0
C2800 C 0.69904 0.52297 0.57568 0.0
C2801 C 0.68071 0.53976 0.57842 0.0
C2802 C 0.68378 0.56699 0.57246 0.0
C2803 C 0.70338 0.57616 0.56375 0.0
H2804 H 0.44103 0.07253 0.60711 0.0
H2805 H 0.54748 0.14708 0.60023 0.0
H2806 H 0.42231 0.08943 0.59225 0.0
H2807 H 0.52868 0.16337 0.5852 0.0
H2808 H 0.40558 0.10684 0.55953 0.0
H2809 H 0.42255 0.08828 0.57441 0.0
H2810 H 0.49861 0.19446 0.5809 0.0
H2811 H 0.48223 0.21309 0.56584 0.0
C2812 C 0.46056 0.09205 0.60234 0.0
C2813 C 0.49581 0.10853 0.60492 0.0
C2814 C 0.44976 0.10176 0.59379 0.0
C2815 C 0.47393 0.12814 0.5876 0.0
C2816 C 0.5093 0.14352 0.58994 0.0
C2817 C 0.52012 0.13383 0.59849 0.0
C2818 C 0.42564 0.12637 0.56418 0.0
C2819 C 0.44264 0.16151 0.56144 0.0
C2820 C 0.43535 0.11566 0.57274 0.0
C2821 C 0.46229 0.13979 0.57879 0.0
C2822 C 0.47828 0.1751 0.57629 0.0
C2823 C 0.46855 0.18584 0.56772 0.0
H2824 H 0.85363 0.40342 0.60033 0.0
H2825 H 0.92796 0.37085 0.60671 0.0
H2826 H 0.83698 0.36898 0.58517 0.0
H2827 H 0.91063 0.3358 0.59175 0.0
H2828 H 0.89299 0.30204 0.55921 0.0
H2829 H 0.91165 0.33743 0.57408 0.0
H2830 H 0.80569 0.30853 0.58043 0.0
H2831 H 0.78698 0.27376 0.56532 0.0
C2832 C 0.86674 0.3893 0.59845 0.0
C2833 C 0.89211 0.38993 0.60478 0.0
C2834 C 0.85684 0.36915 0.58982 0.0
C2835 C 0.87205 0.34914 0.58731 0.0
C2836 C 0.89844 0.35096 0.59341 0.0
C2837 C 0.90841 0.37115 0.60202 0.0
C2838 C 0.87351 0.30281 0.56382 0.0
C2839 C 0.83842 0.28506 0.56102 0.0
C2840 C 0.88428 0.32316 0.57238 0.0
C2841 C 0.86026 0.32622 0.57841 0.0
C2842 C 0.82499 0.30737 0.57584 0.0
C2843 C 0.81418 0.28703 0.56724 0.0
H2844 H 0.69935 0.10278 0.05958 0.0
H2845 H 0.73321 0.20965 0.06648 0.0
H2846 H 0.66401 0.08463 0.07453 0.0
H2847 H 0.69833 0.19141 0.08154 0.0
H2848 H 0.6298 0.06955 0.10742 0.0
H2849 H 0.6653 0.08526 0.09252 0.0
H2850 H 0.63675 0.16211 0.08553 0.0
H2851 H 0.60172 0.14693 0.10055 0.0
C2852 C 0.69986 0.1225 0.06437 0.0
C2853 C 0.71905 0.15772 0.06176 0.0
C2854 C 0.67951 0.11203 0.07296 0.0
C2855 C 0.67783 0.13651 0.07915 0.0
C2856 C 0.69837 0.17182 0.0768 0.0
C2857 C 0.71875 0.18231 0.06823 0.0
C2858 C 0.63063 0.08947 0.10265 0.0
C2859 C 0.61297 0.10709 0.10525 0.0
C2860 C 0.65105 0.09848 0.09409 0.0
C2861 C 0.65436 0.12534 0.08791 0.0
C2862 C 0.63542 0.14185 0.09026 0.0
C2863 C 0.61495 0.13282 0.09881 0.0
H2864 H 0.78317 0.51877 0.06544 0.0
H2865 H 0.88983 0.59707 0.06043 0.0
H2866 H 0.79985 0.50244 0.08087 0.0
H2867 H 0.90652 0.58001 0.0756 0.0
H2868 H 0.92033 0.56123 0.10805 0.0
H2869 H 0.90368 0.57964 0.09314 0.0
H2870 H 0.8302 0.47308 0.0861 0.0
H2871 H 0.84607 0.45459 0.10129 0.0
C2872 C 0.81008 0.53282 0.06767 0.0
C2873 C 0.83512 0.55922 0.06165 0.0
C2874 C 0.81972 0.52311 0.07646 0.0
C2875 C 0.85462 0.53951 0.07941 0.0
C2876 C 0.87938 0.5669 0.07361 0.0
C2877 C 0.86975 0.57671 0.06487 0.0
C2878 C 0.90086 0.54157 0.10329 0.0
C2879 C 0.8845 0.50635 0.10592 0.0
C2880 C 0.89132 0.5522 0.0947 0.0
C2881 C 0.86533 0.52792 0.08844 0.0
C2882 C 0.8498 0.49257 0.09086 0.0
C2883 C 0.85924 0.4819 0.09951 0.0
H2884 H 0.47945 0.2685 0.06664 0.0
H2885 H 0.40913 0.30483 0.05882 0.0
H2886 H 0.49569 0.30367 0.08164 0.0
H2887 H 0.42597 0.3405 0.07369 0.0
H2888 H 0.44065 0.37281 0.10666 0.0
H2889 H 0.42268 0.33843 0.09155 0.0
H2890 H 0.52842 0.3647 0.08609 0.0
H2891 H 0.5464 0.39855 0.10136 0.0
C2892 C 0.46715 0.28366 0.06815 0.0
C2893 C 0.44299 0.2838 0.06148 0.0
C2894 C 0.47682 0.3042 0.0767 0.0
C2895 C 0.46256 0.32537 0.0788 0.0
C2896 C 0.4374 0.32445 0.07233 0.0
C2897 C 0.42772 0.30392 0.06379 0.0
C2898 C 0.46024 0.37173 0.10218 0.0
C2899 C 0.495 0.38836 0.10528 0.0
C2900 C 0.44987 0.35197 0.09349 0.0
C2901 C 0.474 0.34834 0.08767 0.0
C2902 C 0.50903 0.36631 0.09052 0.0
C2903 C 0.51943 0.38611 0.09921 0.0
H2904 H 0.27148 0.78821 0.93417 0.0
H2905 H 0.3011 0.89405 0.94109 0.0
H2906 H 0.30691 0.80779 0.91921 0.0
H2907 H 0.33707 0.91357 0.9263 0.0
H2908 H 0.40307 0.85572 0.89997 0.0
H2909 H 0.36807 0.83893 0.91501 0.0
H2910 H 0.33626 0.91365 0.90847 0.0
H2911 H 0.3718 0.93104 0.89359 0.0
C2912 C 0.28516 0.81559 0.93246 0.0
C2913 C 0.28343 0.83951 0.93888 0.0
C2914 C 0.30587 0.82687 0.92394 0.0
C2915 C 0.32533 0.86233 0.92164 0.0
C2916 C 0.32239 0.88608 0.92782 0.0
C2917 C 0.30169 0.87482 0.93633 0.0
C2918 C 0.38915 0.86905 0.90183 0.0
C2919 C 0.39023 0.89467 0.89551 0.0
C2920 C 0.36868 0.85907 0.91039 0.0
C2921 C 0.34882 0.87449 0.91287 0.0
C2922 C 0.35124 0.90126 0.90682 0.0
C2923 C 0.3717 0.91125 0.89826 0.0
H2924 H 0.14858 0.5457 0.89953 0.0
H2925 H 0.07351 0.43977 0.89228 0.0
H2926 H 0.16467 0.52597 0.9144 0.0
H2927 H 0.0902 0.42012 0.907 0.0
H2928 H 0.10705 0.40218 0.93972 0.0
H2929 H 0.0889 0.41959 0.92485 0.0
H2930 H 0.19533 0.49532 0.91852 0.0
H2931 H 0.21355 0.47849 0.93357 0.0
C2932 C 0.13519 0.51826 0.90115 0.0
C2933 C 0.10977 0.49438 0.89466 0.0
C2934 C 0.14477 0.5069 0.90962 0.0
C2935 C 0.12916 0.4714 0.91182 0.0
C2936 C 0.10271 0.44765 0.90556 0.0
C2937 C 0.09312 0.45898 0.8971 0.0
C2938 C 0.12672 0.42222 0.9351 0.0
C2939 C 0.1618 0.43905 0.93791 0.0
C2940 C 0.11625 0.4322 0.92655 0.0
C2941 C 0.14057 0.45923 0.92056 0.0
C2942 C 0.17583 0.47494 0.9231 0.0
C2943 C 0.18633 0.46495 0.93166 0.0
H2944 H 0.59447 0.70204 0.94031 0.0
H2945 H 0.51609 0.72966 0.93452 0.0
H2946 H 0.57839 0.66782 0.92519 0.0
H2947 H 0.5006 0.69599 0.91921 0.0
H2948 H 0.45358 0.60086 0.89938 0.0
H2949 H 0.47174 0.63522 0.91454 0.0
H2950 H 0.57861 0.67039 0.90738 0.0
H2951 H 0.56053 0.63549 0.89236 0.0
C2952 C 0.57423 0.70139 0.93572 0.0
C2953 C 0.55646 0.71854 0.93869 0.0
C2954 C 0.56503 0.68172 0.92702 0.0
C2955 C 0.53786 0.67871 0.92105 0.0
C2956 C 0.52113 0.69712 0.92377 0.0
C2957 C 0.53034 0.71683 0.93248 0.0
C2958 C 0.48093 0.61544 0.90111 0.0
C2959 C 0.50555 0.61538 0.89461 0.0
C2960 C 0.49137 0.63553 0.90975 0.0
C2961 C 0.52668 0.65604 0.91211 0.0
C2962 C 0.5512 0.65484 0.90582 0.0
C2963 C 0.54078 0.63475 0.8972 0.0
H2964 H 0.39841 0.54582 0.39901 0.0
H2965 H 0.37006 0.43955 0.39331 0.0
H2966 H 0.36473 0.52797 0.41431 0.0
H2967 H 0.33586 0.42173 0.40845 0.0
H2968 H 0.30376 0.40835 0.44137 0.0
H2969 H 0.33859 0.42455 0.42634 0.0
H2970 H 0.30376 0.49627 0.41887 0.0
H2971 H 0.26943 0.48065 0.43403 0.0
C2972 C 0.3854 0.51874 0.40107 0.0
C2973 C 0.38691 0.49415 0.39488 0.0
C2974 C 0.36571 0.50843 0.40978 0.0
C2975 C 0.3471 0.47332 0.41253 0.0
C2976 C 0.34991 0.44898 0.40658 0.0
C2977 C 0.36957 0.45926 0.39788 0.0
C2978 C 0.30309 0.42724 0.43647 0.0
C2979 C 0.28383 0.44328 0.43897 0.0
C2980 C 0.32313 0.43654 0.42783 0.0
C2981 C 0.32441 0.4621 0.42146 0.0
C2982 C 0.304 0.47707 0.42374 0.0
C2983 C 0.28394 0.46777 0.43237 0.0
H2984 H 0.55866 0.92669 0.39337 0.0
H2985 H 0.45197 0.85197 0.39992 0.0
H2986 H 0.57675 0.9103 0.40843 0.0
H2987 H 0.47013 0.83624 0.41518 0.0
H2988 H 0.5164 0.78763 0.43516 0.0
H2989 H 0.49999 0.80557 0.41998 0.0
H2990 H 0.57601 0.91206 0.42615 0.0
H2991 H 0.59307 0.89418 0.44112 0.0
C2992 C 0.53893 0.90724 0.39811 0.0
C2993 C 0.50381 0.89055 0.39538 0.0
C2994 C 0.54937 0.89783 0.40678 0.0
C2995 C 0.52496 0.87159 0.41296 0.0
C2996 C 0.48969 0.85599 0.41046 0.0
C2997 C 0.47923 0.86536 0.40178 0.0
C2998 C 0.53004 0.8148 0.4332 0.0
C2999 C 0.55604 0.83941 0.4394 0.0
C3000 C 0.52029 0.82515 0.42455 0.0
C3001 C 0.53632 0.86033 0.42191 0.0
C3002 C 0.56321 0.88474 0.42792 0.0
C3003 C 0.57298 0.87443 0.43653 0.0
H3004 H 0.10665 0.69746 0.44118 0.0
H3005 H 0.21328 0.73034 0.43426 0.0
H3006 H 0.08816 0.66205 0.42628 0.0
H3007 H 0.19471 0.69546 0.41919 0.0
H3008 H 0.14902 0.60046 0.39936 0.0
H3009 H 0.16516 0.63471 0.41456 0.0
H3010 H 0.08825 0.664 0.40849 0.0
H3011 H 0.07151 0.6292 0.39348 0.0
C3012 C 0.12626 0.6977 0.43639 0.0
C3013 C 0.16151 0.71677 0.43897 0.0
C3014 C 0.1156 0.67731 0.42782 0.0
C3015 C 0.13988 0.67549 0.42158 0.0
C3016 C 0.17524 0.69564 0.42394 0.0
C3017 C 0.18593 0.71603 0.43253 0.0
C3018 C 0.1351 0.61367 0.40135 0.0
C3019 C 0.109 0.61207 0.39515 0.0
C3020 C 0.14469 0.63371 0.41001 0.0
C3021 C 0.12839 0.65258 0.41268 0.0
C3022 C 0.10129 0.64974 0.4067 0.0
C3023 C 0.0917 0.62973 0.39806 0.0
loop_
_geom_bond_atom_site_label_1
_geom_bond_atom_site_label_2
_geom_bond_distance
_geom_bond_site_symmetry_2
_ccdc_geom_bond_type
Co0 O3 1.970 . S
Co0 N17 1.989 . S
Co0 O25 1.967 . S
Co0 O32 1.920 . S
Co1 O4 1.966 . S
Co1 N10 2.022 . S
Co1 N18 1.993 . S
Co1 O26 1.941 . S
C2 O3 1.258 . S
C2 O4 1.263 . S
O3 Co0 1.970 . S
O3 C2 1.258 . S
O4 Co1 1.966 . S
O4 C2 1.263 . S
C5 O6 1.235 . S
C5 O32 1.289 . S
O6 C5 1.235 . S
C7 C9 1.400 . S
C7 N10 1.351 . S
C7 C12 1.501 . S
C8 C9 1.387 . S
C8 N11 1.341 . S
C9 C7 1.400 . S
C9 C8 1.387 . S
N10 Co1 2.022 . S
N10 C7 1.351 . S
N10 N11 1.365 . S
N11 C8 1.341 . S
N11 N10 1.365 . S
N11 H31 0.862 . S
C12 C7 1.501 . S
C12 H13 0.961 . S
C12 H14 0.961 . S
C12 H15 0.960 1_455 S
H13 C12 0.961 . S
H14 C12 0.961 . S
H15 C12 0.960 1_655 S
C16 N17 1.342 . S
C16 C20 1.401 . S
C16 C21 1.499 . S
N17 Co0 1.989 . S
N17 C16 1.342 . S
N17 N18 1.388 . S
N18 Co1 1.993 . S
N18 N17 1.388 . S
N18 C19 1.346 . S
C19 N18 1.346 . S
C19 C20 1.396 . S
C19 C29 1.510 . S
C20 C16 1.401 . S
C20 C19 1.396 . S
C21 C16 1.499 . S
C21 H22 0.959 . S
C21 H23 0.960 . S
C21 H24 0.961 . S
H22 C21 0.959 . S
H23 C21 0.960 . S
H24 C21 0.961 . S
O25 Co0 1.967 . S
O25 C33 1.258 . S
O26 Co1 1.941 . S
O26 C33 1.266 . S
H27 C29 0.959 . S
H28 C29 0.961 . S
C29 C19 1.510 . S
C29 H27 0.959 . S
C29 H28 0.961 . S
C29 H30 0.960 . S
H30 C29 0.960 . S
H31 N11 0.862 . S
O32 Co0 1.920 . S
O32 C5 1.289 . S
C33 O25 1.258 . S
C33 O26 1.266 . S
Co34 O37 1.970 . S
Co34 N51 1.989 . S
Co34 O59 1.967 . S
Co34 O66 1.920 . S
Co35 O38 1.966 . S
Co35 N44 2.022 . S
Co35 N52 1.993 . S
Co35 O60 1.941 . S
C36 O37 1.258 . S
C36 O38 1.263 . S
O37 Co34 1.970 . S
O37 C36 1.258 . S
O38 Co35 1.966 . S
O38 C36 1.263 . S
C39 O40 1.235 . S
C39 O66 1.289 . S
O40 C39 1.235 . S
C41 C43 1.400 . S
C41 N44 1.351 . S
C41 C46 1.501 . S
C42 C43 1.387 . S
C42 N45 1.341 . S
C43 C41 1.400 . S
C43 C42 1.387 . S
N44 Co35 2.022 . S
N44 C41 1.351 . S
N44 N45 1.365 . S
N45 C42 1.341 . S
N45 N44 1.365 . S
N45 H65 0.862 . S
C46 C41 1.501 . S
C46 H47 0.961 . S
C46 H48 0.961 . S
C46 H49 0.960 . S
H47 C46 0.961 . S
H48 C46 0.961 . S
H49 C46 0.960 . S
C50 N51 1.342 . S
C50 C54 1.401 . S
C50 C55 1.499 . S
N51 Co34 1.989 . S
N51 C50 1.342 . S
N51 N52 1.388 . S
N52 Co35 1.993 . S
N52 N51 1.388 . S
N52 C53 1.346 . S
C53 N52 1.346 . S
C53 C54 1.396 . S
C53 C63 1.510 . S
C54 C50 1.401 . S
C54 C53 1.396 . S
C55 C50 1.499 . S
C55 H56 0.959 . S
C55 H57 0.960 . S
C55 H58 0.961 . S
H56 C55 0.959 . S
H57 C55 0.960 . S
H58 C55 0.961 . S
O59 Co34 1.967 . S
O59 C67 1.258 . S
O60 Co35 1.941 . S
O60 C67 1.266 . S
H61 C63 0.959 . S
H62 C63 0.961 . S
C63 C53 1.510 . S
C63 H61 0.959 . S
C63 H62 0.961 . S
C63 H64 0.960 . S
H64 C63 0.960 . S
H65 N45 0.862 . S
O66 Co34 1.920 . S
O66 C39 1.289 . S
C67 O59 1.258 . S
C67 O60 1.266 . S
Co68 O71 1.970 . S
Co68 N85 1.989 . S
Co68 O93 1.967 . S
Co68 O100 1.920 . S
Co69 O72 1.966 . S
Co69 N78 2.022 . S
Co69 N86 1.993 . S
Co69 O94 1.941 . S
C70 O71 1.258 . S
C70 O72 1.263 . S
O71 Co68 1.970 . S
O71 C70 1.258 . S
O72 Co69 1.966 . S
O72 C70 1.263 . S
C73 O74 1.235 . S
C73 O100 1.289 . S
O74 C73 1.235 . S
C75 C77 1.400 . S
C75 N78 1.351 . S
C75 C80 1.501 . S
C76 C77 1.387 . S
C76 N79 1.341 . S
C77 C75 1.400 . S
C77 C76 1.387 . S
N78 Co69 2.022 . S
N78 C75 1.351 . S
N78 N79 1.365 . S
N79 C76 1.341 . S
N79 N78 1.365 . S
N79 H99 0.862 . S
C80 C75 1.501 . S
C80 H81 0.961 . S
C80 H82 0.961 . S
C80 H83 0.960 1_565 S
H81 C80 0.961 . S
H82 C80 0.961 . S
H83 C80 0.960 1_545 S
C84 N85 1.342 . S
C84 C88 1.401 . S
C84 C89 1.499 . S
N85 Co68 1.989 . S
N85 C84 1.342 . S
N85 N86 1.388 . S
N86 Co69 1.993 . S
N86 N85 1.388 . S
N86 C87 1.346 . S
C87 N86 1.346 . S
C87 C88 1.396 . S
C87 C97 1.510 . S
C88 C84 1.401 . S
C88 C87 1.396 . S
C89 C84 1.499 . S
C89 H90 0.959 . S
C89 H91 0.960 . S
C89 H92 0.961 . S
H90 C89 0.959 . S
H91 C89 0.960 . S
H92 C89 0.961 . S
O93 Co68 1.967 . S
O93 C101 1.258 . S
O94 Co69 1.941 . S
O94 C101 1.266 . S
H95 C97 0.959 . S
H96 C97 0.961 . S
C97 C87 1.510 . S
C97 H95 0.959 . S
C97 H96 0.961 . S
C97 H98 0.960 . S
H98 C97 0.960 . S
H99 N79 0.862 . S
O100 Co68 1.920 . S
O100 C73 1.289 . S
C101 O93 1.258 . S
C101 O94 1.266 . S
Co102 O105 1.970 . S
Co102 N119 1.989 . S
Co102 O127 1.967 . S
Co102 O134 1.920 . S
Co103 O106 1.966 . S
Co103 N112 2.022 . S
Co103 N120 1.993 . S
Co103 O128 1.941 . S
C104 O105 1.258 . S
C104 O106 1.263 . S
O105 Co102 1.970 . S
O105 C104 1.258 . S
O106 Co103 1.966 . S
O106 C104 1.263 . S
C107 O108 1.235 . S
C107 O134 1.289 . S
O108 C107 1.235 . S
C109 C111 1.400 . S
C109 N112 1.351 . S
C109 C114 1.501 . S
C110 C111 1.387 . S
C110 N113 1.341 . S
C111 C109 1.400 . S
C111 C110 1.387 . S
N112 Co103 2.022 . S
N112 C109 1.351 . S
N112 N113 1.365 . S
N113 C110 1.341 . S
N113 N112 1.365 . S
N113 H133 0.862 . S
C114 C109 1.501 . S
C114 H115 0.961 . S
C114 H116 0.961 . S
C114 H117 0.960 1_545 S
H115 C114 0.961 . S
H116 C114 0.961 . S
H117 C114 0.960 1_565 S
C118 N119 1.342 . S
C118 C122 1.401 . S
C118 C123 1.499 . S
N119 Co102 1.989 . S
N119 C118 1.342 . S
N119 N120 1.388 . S
N120 Co103 1.993 . S
N120 N119 1.388 . S
N120 C121 1.346 . S
C121 N120 1.346 . S
C121 C122 1.396 . S
C121 C131 1.510 . S
C122 C118 1.401 . S
C122 C121 1.396 . S
C123 C118 1.499 . S
C123 H124 0.959 . S
C123 H125 0.960 . S
C123 H126 0.961 . S
H124 C123 0.959 . S
H125 C123 0.960 . S
H126 C123 0.961 . S
O127 Co102 1.967 . S
O127 C135 1.258 . S
O128 Co103 1.941 . S
O128 C135 1.266 . S
H129 C131 0.959 . S
H130 C131 0.961 . S
C131 C121 1.510 . S
C131 H129 0.959 . S
C131 H130 0.961 . S
C131 H132 0.960 . S
H132 C131 0.960 . S
H133 N113 0.862 . S
O134 Co102 1.920 . S
O134 C107 1.289 . S
C135 O127 1.258 . S
C135 O128 1.266 . S
Co136 O139 1.970 . S
Co136 N153 1.989 . S
Co136 O161 1.967 . S
Co136 O168 1.920 . S
Co137 O140 1.966 . S
Co137 N146 2.022 . S
Co137 N154 1.993 . S
Co137 O162 1.941 . S
C138 O139 1.258 . S
C138 O140 1.263 . S
O139 Co136 1.970 . S
O139 C138 1.258 . S
O140 Co137 1.966 . S
O140 C138 1.263 . S
C141 O142 1.235 . S
C141 O168 1.289 . S
O142 C141 1.235 . S
C143 C145 1.400 . S
C143 N146 1.351 . S
C143 C148 1.501 . S
C144 C145 1.387 . S
C144 N147 1.341 . S
C145 C143 1.400 . S
C145 C144 1.387 . S
N146 Co137 2.022 . S
N146 C143 1.351 . S
N146 N147 1.365 . S
N147 C144 1.341 . S
N147 N146 1.365 . S
N147 H167 0.862 . S
C148 C143 1.501 . S
C148 H149 0.961 . S
C148 H150 0.961 . S
C148 H151 0.960 1_655 S
H149 C148 0.961 . S
H150 C148 0.961 . S
H151 C148 0.960 1_455 S
C152 N153 1.342 . S
C152 C156 1.401 . S
C152 C157 1.499 . S
N153 Co136 1.989 . S
N153 C152 1.342 . S
N153 N154 1.388 . S
N154 Co137 1.993 . S
N154 N153 1.388 . S
N154 C155 1.346 . S
C155 N154 1.346 . S
C155 C156 1.396 . S
C155 C165 1.510 . S
C156 C152 1.401 . S
C156 C155 1.396 . S
C157 C152 1.499 . S
C157 H158 0.959 . S
C157 H159 0.960 . S
C157 H160 0.961 . S
H158 C157 0.959 . S
H159 C157 0.960 . S
H160 C157 0.961 . S
O161 Co136 1.967 . S
O161 C169 1.258 . S
O162 Co137 1.941 . S
O162 C169 1.266 . S
H163 C165 0.959 . S
H164 C165 0.961 . S
C165 C155 1.510 . S
C165 H163 0.959 . S
C165 H164 0.961 . S
C165 H166 0.960 . S
H166 C165 0.960 . S
H167 N147 0.862 . S
O168 Co136 1.920 . S
O168 C141 1.289 . S
C169 O161 1.258 . S
C169 O162 1.266 . S
Co170 O173 1.970 . S
Co170 N187 1.989 . S
Co170 O195 1.967 . S
Co170 O202 1.920 . S
Co171 O174 1.966 . S
Co171 N180 2.022 . S
Co171 N188 1.993 . S
Co171 O196 1.941 . S
C172 O173 1.258 . S
C172 O174 1.263 . S
O173 Co170 1.970 . S
O173 C172 1.258 . S
O174 Co171 1.966 . S
O174 C172 1.263 . S
C175 O176 1.235 . S
C175 O202 1.289 . S
O176 C175 1.235 . S
C177 C179 1.400 . S
C177 N180 1.351 . S
C177 C182 1.501 . S
C178 C179 1.387 . S
C178 N181 1.341 . S
C179 C177 1.400 . S
C179 C178 1.387 . S
N180 Co171 2.022 . S
N180 C177 1.351 . S
N180 N181 1.365 . S
N181 C178 1.341 . S
N181 N180 1.365 . S
N181 H201 0.862 . S
C182 C177 1.501 . S
C182 H183 0.961 . S
C182 H184 0.961 . S
C182 H185 0.960 . S
H183 C182 0.961 . S
H184 C182 0.961 . S
H185 C182 0.960 . S
C186 N187 1.342 . S
C186 C190 1.401 . S
C186 C191 1.499 . S
N187 Co170 1.989 . S
N187 C186 1.342 . S
N187 N188 1.388 . S
N188 Co171 1.993 . S
N188 N187 1.388 . S
N188 C189 1.346 . S
C189 N188 1.346 . S
C189 C190 1.396 . S
C189 C199 1.510 . S
C190 C186 1.401 . S
C190 C189 1.396 . S
C191 C186 1.499 . S
C191 H192 0.959 . S
C191 H193 0.960 . S
C191 H194 0.961 . S
H192 C191 0.959 . S
H193 C191 0.960 . S
H194 C191 0.961 . S
O195 Co170 1.967 . S
O195 C203 1.258 . S
O196 Co171 1.941 . S
O196 C203 1.266 . S
H197 C199 0.959 . S
H198 C199 0.961 . S
C199 C189 1.510 . S
C199 H197 0.959 . S
C199 H198 0.961 . S
C199 H200 0.960 . S
H200 C199 0.960 . S
H201 N181 0.862 . S
O202 Co170 1.920 . S
O202 C175 1.289 . S
C203 O195 1.258 . S
C203 O196 1.266 . S
Co204 O207 1.970 . S
Co204 N221 1.989 . S
Co204 O229 1.967 . S
Co204 O236 1.920 . S
Co205 O208 1.966 . S
Co205 N214 2.022 . S
Co205 N222 1.993 . S
Co205 O230 1.941 . S
C206 O207 1.258 . S
C206 O208 1.263 . S
O207 Co204 1.970 . S
O207 C206 1.258 . S
O208 Co205 1.966 . S
O208 C206 1.263 . S
C209 O210 1.235 . S
C209 O236 1.289 . S
O210 C209 1.235 . S
C211 C213 1.400 . S
C211 N214 1.351 . S
C211 C216 1.501 . S
C212 C213 1.387 . S
C212 N215 1.341 . S
C213 C211 1.400 . S
C213 C212 1.387 . S
N214 Co205 2.022 . S
N214 C211 1.351 . S
N214 N215 1.365 . S
N215 C212 1.341 . S
N215 N214 1.365 . S
N215 H235 0.862 . S
C216 C211 1.501 . S
C216 H217 0.961 . S
C216 H218 0.961 . S
C216 H219 0.960 1_655 S
H217 C216 0.961 . S
H218 C216 0.961 . S
H219 C216 0.960 1_455 S
C220 N221 1.342 . S
C220 C224 1.401 . S
C220 C225 1.499 . S
N221 Co204 1.989 . S
N221 C220 1.342 . S
N221 N222 1.388 . S
N222 Co205 1.993 . S
N222 N221 1.388 . S
N222 C223 1.346 . S
C223 N222 1.346 . S
C223 C224 1.396 . S
C223 C233 1.510 . S
C224 C220 1.401 . S
C224 C223 1.396 . S
C225 C220 1.499 . S
C225 H226 0.959 . S
C225 H227 0.960 . S
C225 H228 0.961 . S
H226 C225 0.959 . S
H227 C225 0.960 . S
H228 C225 0.961 . S
O229 Co204 1.967 . S
O229 C237 1.258 . S
O230 Co205 1.941 . S
O230 C237 1.266 . S
H231 C233 0.959 . S
H232 C233 0.961 . S
C233 C223 1.510 . S
C233 H231 0.959 . S
C233 H232 0.961 . S
C233 H234 0.960 . S
H234 C233 0.960 . S
H235 N215 0.862 . S
O236 Co204 1.920 . S
O236 C209 1.289 . S
C237 O229 1.258 . S
C237 O230 1.266 . S
Co238 O241 1.970 . S
Co238 N255 1.989 . S
Co238 O263 1.967 . S
Co238 O270 1.920 . S
Co239 O242 1.966 . S
Co239 N248 2.022 . S
Co239 N256 1.993 . S
Co239 O264 1.941 . S
C240 O241 1.258 . S
C240 O242 1.263 . S
O241 Co238 1.970 . S
O241 C240 1.258 . S
O242 Co239 1.966 . S
O242 C240 1.263 . S
C243 O244 1.235 . S
C243 O270 1.289 . S
O244 C243 1.235 . S
C245 C247 1.400 . S
C245 N248 1.351 . S
C245 C250 1.501 . S
C246 C247 1.387 . S
C246 N249 1.341 . S
C247 C245 1.400 . S
C247 C246 1.387 . S
N248 Co239 2.022 . S
N248 C245 1.351 . S
N248 N249 1.365 . S
N249 C246 1.341 . S
N249 N248 1.365 . S
N249 H269 0.862 . S
C250 C245 1.501 . S
C250 H251 0.961 . S
C250 H252 0.961 . S
C250 H253 0.960 . S
H251 C250 0.961 . S
H252 C250 0.961 . S
H253 C250 0.960 . S
C254 N255 1.342 . S
C254 C258 1.401 . S
C254 C259 1.499 . S
N255 Co238 1.989 . S
N255 C254 1.342 . S
N255 N256 1.388 . S
N256 Co239 1.993 . S
N256 N255 1.388 . S
N256 C257 1.346 . S
C257 N256 1.346 . S
C257 C258 1.396 . S
C257 C267 1.510 . S
C258 C254 1.401 . S
C258 C257 1.396 . S
C259 C254 1.499 . S
C259 H260 0.959 . S
C259 H261 0.960 . S
C259 H262 0.961 . S
H260 C259 0.959 . S
H261 C259 0.960 . S
H262 C259 0.961 . S
O263 Co238 1.967 . S
O263 C271 1.258 . S
O264 Co239 1.941 . S
O264 C271 1.266 . S
H265 C267 0.959 . S
H266 C267 0.961 . S
C267 C257 1.510 . S
C267 H265 0.959 . S
C267 H266 0.961 . S
C267 H268 0.960 . S
H268 C267 0.960 . S
H269 N249 0.862 . S
O270 Co238 1.920 . S
O270 C243 1.289 . S
C271 O263 1.258 . S
C271 O264 1.266 . S
Co272 O275 1.970 . S
Co272 N289 1.989 . S
Co272 O297 1.967 . S
Co272 O304 1.920 . S
Co273 O276 1.966 . S
Co273 N282 2.022 . S
Co273 N290 1.993 . S
Co273 O298 1.941 . S
C274 O275 1.258 . S
C274 O276 1.263 . S
O275 Co272 1.970 . S
O275 C274 1.258 . S
O276 Co273 1.966 . S
O276 C274 1.263 . S
C277 O278 1.235 . S
C277 O304 1.289 . S
O278 C277 1.235 . S
C279 C281 1.400 . S
C279 N282 1.351 . S
C279 C284 1.501 . S
C280 C281 1.387 . S
C280 N283 1.341 . S
C281 C279 1.400 . S
C281 C280 1.387 . S
N282 Co273 2.022 . S
N282 C279 1.351 . S
N282 N283 1.365 . S
N283 C280 1.341 . S
N283 N282 1.365 . S
N283 H303 0.862 . S
C284 C279 1.501 . S
C284 H285 0.961 . S
C284 H286 0.961 . S
C284 H287 0.960 1_545 S
H285 C284 0.961 . S
H286 C284 0.961 . S
H287 C284 0.960 1_565 S
C288 N289 1.342 . S
C288 C292 1.401 . S
C288 C293 1.499 . S
N289 Co272 1.989 . S
N289 C288 1.342 . S
N289 N290 1.388 . S
N290 Co273 1.993 . S
N290 N289 1.388 . S
N290 C291 1.346 . S
C291 N290 1.346 . S
C291 C292 1.396 . S
C291 C301 1.510 . S
C292 C288 1.401 . S
C292 C291 1.396 . S
C293 C288 1.499 . S
C293 H294 0.959 . S
C293 H295 0.960 . S
C293 H296 0.961 . S
H294 C293 0.959 . S
H295 C293 0.960 . S
H296 C293 0.961 . S
O297 Co272 1.967 . S
O297 C305 1.258 . S
O298 Co273 1.941 . S
O298 C305 1.266 . S
H299 C301 0.959 . S
H300 C301 0.961 . S
C301 C291 1.510 . S
C301 H299 0.959 . S
C301 H300 0.961 . S
C301 H302 0.960 . S
H302 C301 0.960 . S
H303 N283 0.862 . S
O304 Co272 1.920 . S
O304 C277 1.289 . S
C305 O297 1.258 . S
C305 O298 1.266 . S
Co306 O309 1.970 . S
Co306 N323 1.989 . S
Co306 O331 1.967 . S
Co306 O338 1.920 . S
Co307 O310 1.966 . S
Co307 N316 2.022 . S
Co307 N324 1.993 . S
Co307 O332 1.941 . S
C308 O309 1.258 . S
C308 O310 1.263 . S
O309 Co306 1.970 . S
O309 C308 1.258 . S
O310 Co307 1.966 . S
O310 C308 1.263 . S
C311 O312 1.235 . S
C311 O338 1.289 . S
O312 C311 1.235 . S
C313 C315 1.400 . S
C313 N316 1.351 . S
C313 C318 1.501 . S
C314 C315 1.387 . S
C314 N317 1.341 . S
C315 C313 1.400 . S
C315 C314 1.387 . S
N316 Co307 2.022 . S
N316 C313 1.351 . S
N316 N317 1.365 . S
N317 C314 1.341 . S
N317 N316 1.365 . S
N317 H337 0.862 . S
C318 C313 1.501 . S
C318 H319 0.961 . S
C318 H320 0.961 . S
C318 H321 0.960 1_565 S
H319 C318 0.961 . S
H320 C318 0.961 . S
H321 C318 0.960 1_545 S
C322 N323 1.342 . S
C322 C326 1.401 . S
C322 C327 1.499 . S
N323 Co306 1.989 . S
N323 C322 1.342 . S
N323 N324 1.388 . S
N324 Co307 1.993 . S
N324 N323 1.388 . S
N324 C325 1.346 . S
C325 N324 1.346 . S
C325 C326 1.396 . S
C325 C335 1.510 . S
C326 C322 1.401 . S
C326 C325 1.396 . S
C327 C322 1.499 . S
C327 H328 0.959 . S
C327 H329 0.960 . S
C327 H330 0.961 . S
H328 C327 0.959 . S
H329 C327 0.960 . S
H330 C327 0.961 . S
O331 Co306 1.967 . S
O331 C339 1.258 . S
O332 Co307 1.941 . S
O332 C339 1.266 . S
H333 C335 0.959 . S
H334 C335 0.961 . S
C335 C325 1.510 . S
C335 H333 0.959 . S
C335 H334 0.961 . S
C335 H336 0.960 . S
H336 C335 0.960 . S
H337 N317 0.862 . S
O338 Co306 1.920 . S
O338 C311 1.289 . S
C339 O331 1.258 . S
C339 O332 1.266 . S
Co340 O343 1.970 . S
Co340 N357 1.989 . S
Co340 O365 1.967 . S
Co340 O372 1.920 . S
Co341 O344 1.966 . S
Co341 N350 2.022 . S
Co341 N358 1.993 . S
Co341 O366 1.941 . S
C342 O343 1.258 . S
C342 O344 1.263 . S
O343 Co340 1.970 . S
O343 C342 1.258 . S
O344 Co341 1.966 . S
O344 C342 1.263 . S
C345 O346 1.235 . S
C345 O372 1.289 . S
O346 C345 1.235 . S
C347 C349 1.400 . S
C347 N350 1.351 . S
C347 C352 1.501 . S
C348 C349 1.387 . S
C348 N351 1.341 . S
C349 C347 1.400 . S
C349 C348 1.387 . S
N350 Co341 2.022 . S
N350 C347 1.351 . S
N350 N351 1.365 . S
N351 C348 1.341 . S
N351 N350 1.365 . S
N351 H371 0.862 . S
C352 C347 1.501 . S
C352 H353 0.961 . S
C352 H354 0.961 . S
C352 H355 0.960 1_455 S
H353 C352 0.961 . S
H354 C352 0.961 . S
H355 C352 0.960 1_655 S
C356 N357 1.342 . S
C356 C360 1.401 . S
C356 C361 1.499 . S
N357 Co340 1.989 . S
N357 C356 1.342 . S
N357 N358 1.388 . S
N358 Co341 1.993 . S
N358 N357 1.388 . S
N358 C359 1.346 . S
C359 N358 1.346 . S
C359 C360 1.396 . S
C359 C369 1.510 . S
C360 C356 1.401 . S
C360 C359 1.396 . S
C361 C356 1.499 . S
C361 H362 0.959 . S
C361 H363 0.960 . S
C361 H364 0.961 . S
H362 C361 0.959 . S
H363 C361 0.960 . S
H364 C361 0.961 . S
O365 Co340 1.967 . S
O365 C373 1.258 . S
O366 Co341 1.941 . S
O366 C373 1.266 . S
H367 C369 0.959 . S
H368 C369 0.961 . S
C369 C359 1.510 . S
C369 H367 0.959 . S
C369 H368 0.961 . S
C369 H370 0.960 . S
H370 C369 0.960 . S
H371 N351 0.862 . S
O372 Co340 1.920 . S
O372 C345 1.289 . S
C373 O365 1.258 . S
C373 O366 1.266 . S
Co374 O377 1.970 . S
Co374 N391 1.989 . S
Co374 O399 1.967 . S
Co374 O406 1.920 . S
Co375 O378 1.966 . S
Co375 N384 2.022 . S
Co375 N392 1.993 . S
Co375 O400 1.941 . S
C376 O377 1.258 . S
C376 O378 1.263 . S
O377 Co374 1.970 . S
O377 C376 1.258 . S
O378 Co375 1.966 . S
O378 C376 1.263 . S
C379 O380 1.235 . S
C379 O406 1.289 . S
O380 C379 1.235 . S
C381 C383 1.400 . S
C381 N384 1.351 . S
C381 C386 1.501 . S
C382 C383 1.387 . S
C382 N385 1.341 . S
C383 C381 1.400 . S
C383 C382 1.387 . S
N384 Co375 2.022 . S
N384 C381 1.351 . S
N384 N385 1.365 . S
N385 C382 1.341 . S
N385 N384 1.365 . S
N385 H405 0.862 . S
C386 C381 1.501 . S
C386 H387 0.961 . S
C386 H388 0.961 . S
C386 H389 0.960 . S
H387 C386 0.961 . S
H388 C386 0.961 . S
H389 C386 0.960 . S
C390 N391 1.342 . S
C390 C394 1.401 . S
C390 C395 1.499 . S
N391 Co374 1.989 . S
N391 C390 1.342 . S
N391 N392 1.388 . S
N392 Co375 1.993 . S
N392 N391 1.388 . S
N392 C393 1.346 . S
C393 N392 1.346 . S
C393 C394 1.396 . S
C393 C403 1.510 . S
C394 C390 1.401 . S
C394 C393 1.396 . S
C395 C390 1.499 . S
C395 H396 0.959 . S
C395 H397 0.960 . S
C395 H398 0.961 . S
H396 C395 0.959 . S
H397 C395 0.960 . S
H398 C395 0.961 . S
O399 Co374 1.967 . S
O399 C407 1.258 . S
O400 Co375 1.941 . S
O400 C407 1.266 . S
H401 C403 0.959 . S
H402 C403 0.961 . S
C403 C393 1.510 . S
C403 H401 0.959 . S
C403 H402 0.961 . S
C403 H404 0.960 . S
H404 C403 0.960 . S
H405 N385 0.862 . S
O406 Co374 1.920 . S
O406 C379 1.289 . S
C407 O399 1.258 . S
C407 O400 1.266 . S
Co408 O411 1.970 . S
Co408 N425 1.989 . S
Co408 O433 1.967 . S
Co408 O440 1.920 . S
Co409 O412 1.966 . S
Co409 N418 2.022 . S
Co409 N426 1.993 . S
Co409 O434 1.941 . S
C410 O411 1.258 . S
C410 O412 1.263 . S
O411 Co408 1.970 . S
O411 C410 1.258 . S
O412 Co409 1.966 . S
O412 C410 1.263 . S
C413 O414 1.235 . S
C413 O440 1.289 . S
O414 C413 1.235 . S
C415 C417 1.400 . S
C415 N418 1.351 . S
C415 C420 1.501 . S
C416 C417 1.387 . S
C416 N419 1.341 . S
C417 C415 1.400 . S
C417 C416 1.387 . S
N418 Co409 2.022 . S
N418 C415 1.351 . S
N418 N419 1.365 . S
N419 C416 1.341 . S
N419 N418 1.365 . S
N419 H439 0.862 . S
C420 C415 1.501 . S
C420 H421 0.961 . S
C420 H422 0.961 . S
C420 H423 0.960 . S
H421 C420 0.961 . S
H422 C420 0.961 . S
H423 C420 0.960 . S
C424 N425 1.342 . S
C424 C428 1.401 . S
C424 C429 1.499 . S
N425 Co408 1.989 . S
N425 C424 1.342 . S
N425 N426 1.388 . S
N426 Co409 1.993 . S
N426 N425 1.388 . S
N426 C427 1.346 . S
C427 N426 1.346 . S
C427 C428 1.396 . S
C427 C437 1.510 . S
C428 C424 1.401 . S
C428 C427 1.396 . S
C429 C424 1.499 . S
C429 H430 0.959 . S
C429 H431 0.960 . S
C429 H432 0.961 . S
H430 C429 0.959 . S
H431 C429 0.960 . S
H432 C429 0.961 . S
O433 Co408 1.967 . S
O433 C441 1.258 . S
O434 Co409 1.941 . S
O434 C441 1.266 . S
H435 C437 0.959 . S
H436 C437 0.961 . S
C437 C427 1.510 . S
C437 H435 0.959 . S
C437 H436 0.961 . S
C437 H438 0.960 . S
H438 C437 0.960 . S
H439 N419 0.862 . S
O440 Co408 1.920 . S
O440 C413 1.289 . S
C441 O433 1.258 . S
C441 O434 1.266 . S
Co442 O445 1.970 . S
Co442 N459 1.989 . S
Co442 O467 1.967 . S
Co442 O474 1.920 . S
Co443 O446 1.966 . S
Co443 N452 2.022 . S
Co443 N460 1.993 . S
Co443 O468 1.941 . S
C444 O445 1.258 . S
C444 O446 1.263 . S
O445 Co442 1.970 . S
O445 C444 1.258 . S
O446 Co443 1.966 . S
O446 C444 1.263 . S
C447 O448 1.235 . S
C447 O474 1.289 . S
O448 C447 1.235 . S
C449 C451 1.400 . S
C449 N452 1.351 . S
C449 C454 1.501 . S
C450 C451 1.387 . S
C450 N453 1.341 . S
C451 C449 1.400 . S
C451 C450 1.387 . S
N452 Co443 2.022 . S
N452 C449 1.351 . S
N452 N453 1.365 . S
N453 C450 1.341 . S
N453 N452 1.365 . S
N453 H473 0.862 . S
C454 C449 1.501 . S
C454 H455 0.961 . S
C454 H456 0.961 . S
C454 H457 0.960 . S
H455 C454 0.961 . S
H456 C454 0.961 . S
H457 C454 0.960 . S
C458 N459 1.342 . S
C458 C462 1.401 . S
C458 C463 1.499 . S
N459 Co442 1.989 . S
N459 C458 1.342 . S
N459 N460 1.388 . S
N460 Co443 1.993 . S
N460 N459 1.388 . S
N460 C461 1.346 . S
C461 N460 1.346 . S
C461 C462 1.396 . S
C461 C471 1.510 . S
C462 C458 1.401 . S
C462 C461 1.396 . S
C463 C458 1.499 . S
C463 H464 0.959 . S
C463 H465 0.960 . S
C463 H466 0.961 . S
H464 C463 0.959 . S
H465 C463 0.960 . S
H466 C463 0.961 . S
O467 Co442 1.967 . S
O467 C475 1.258 . S
O468 Co443 1.941 . S
O468 C475 1.266 . S
H469 C471 0.959 . S
H470 C471 0.961 . S
C471 C461 1.510 . S
C471 H469 0.959 . S
C471 H470 0.961 . S
C471 H472 0.960 . S
H472 C471 0.960 . S
H473 N453 0.862 . S
O474 Co442 1.920 . S
O474 C447 1.289 . S
C475 O467 1.258 . S
C475 O468 1.266 . S
Co476 O479 1.970 . S
Co476 N493 1.989 . S
Co476 O501 1.967 . S
Co476 O508 1.920 . S
Co477 O480 1.966 . S
Co477 N486 2.022 . S
Co477 N494 1.993 . S
Co477 O502 1.941 . S
C478 O479 1.258 . S
C478 O480 1.263 . S
O479 Co476 1.970 . S
O479 C478 1.258 . S
O480 Co477 1.966 . S
O480 C478 1.263 . S
C481 O482 1.235 . S
C481 O508 1.289 . S
O482 C481 1.235 . S
C483 C485 1.400 . S
C483 N486 1.351 . S
C483 C488 1.501 . S
C484 C485 1.387 . S
C484 N487 1.341 . S
C485 C483 1.400 . S
C485 C484 1.387 . S
N486 Co477 2.022 . S
N486 C483 1.351 . S
N486 N487 1.365 . S
N487 C484 1.341 . S
N487 N486 1.365 . S
N487 H507 0.862 . S
C488 C483 1.501 . S
C488 H489 0.961 . S
C488 H490 0.961 . S
C488 H491 0.960 . S
H489 C488 0.961 . S
H490 C488 0.961 . S
H491 C488 0.960 . S
C492 N493 1.342 . S
C492 C496 1.401 . S
C492 C497 1.499 . S
N493 Co476 1.989 . S
N493 C492 1.342 . S
N493 N494 1.388 . S
N494 Co477 1.993 . S
N494 N493 1.388 . S
N494 C495 1.346 . S
C495 N494 1.346 . S
C495 C496 1.396 . S
C495 C505 1.510 . S
C496 C492 1.401 . S
C496 C495 1.396 . S
C497 C492 1.499 . S
C497 H498 0.959 . S
C497 H499 0.960 . S
C497 H500 0.961 . S
H498 C497 0.959 . S
H499 C497 0.960 . S
H500 C497 0.961 . S
O501 Co476 1.967 . S
O501 C509 1.258 . S
O502 Co477 1.941 . S
O502 C509 1.266 . S
H503 C505 0.959 . S
H504 C505 0.961 . S
C505 C495 1.510 . S
C505 H503 0.959 . S
C505 H504 0.961 . S
C505 H506 0.960 . S
H506 C505 0.960 . S
H507 N487 0.862 . S
O508 Co476 1.920 . S
O508 C481 1.289 . S
C509 O501 1.258 . S
C509 O502 1.266 . S
Co510 O513 1.970 . S
Co510 N527 1.989 . S
Co510 O535 1.967 . S
Co510 O542 1.920 . S
Co511 O514 1.966 . S
Co511 N520 2.022 . S
Co511 N528 1.993 . S
Co511 O536 1.941 . S
C512 O513 1.258 . S
C512 O514 1.263 . S
O513 Co510 1.970 . S
O513 C512 1.258 . S
O514 Co511 1.966 . S
O514 C512 1.263 . S
C515 O516 1.235 . S
C515 O542 1.289 . S
O516 C515 1.235 . S
C517 C519 1.400 . S
C517 N520 1.351 . S
C517 C522 1.501 . S
C518 C519 1.387 1_455 S
C518 N521 1.341 1_455 S
C519 C517 1.400 . S
C519 C518 1.387 1_655 S
N520 Co511 2.022 . S
N520 C517 1.351 . S
N520 N521 1.365 . S
N521 C518 1.341 1_655 S
N521 N520 1.365 . S
N521 H541 0.862 1_655 S
C522 C517 1.501 . S
C522 H523 0.961 . S
C522 H524 0.961 . S
C522 H525 0.960 . S
H523 C522 0.961 . S
H524 C522 0.961 . S
H525 C522 0.960 . S
C526 N527 1.342 . S
C526 C530 1.401 . S
C526 C531 1.499 . S
N527 Co510 1.989 . S
N527 C526 1.342 . S
N527 N528 1.388 . S
N528 Co511 1.993 . S
N528 N527 1.388 . S
N528 C529 1.346 . S
C529 N528 1.346 . S
C529 C530 1.396 . S
C529 C539 1.510 . S
C530 C526 1.401 . S
C530 C529 1.396 . S
C531 C526 1.499 . S
C531 H532 0.959 . S
C531 H533 0.960 . S
C531 H534 0.961 . S
H532 C531 0.959 . S
H533 C531 0.960 . S
H534 C531 0.961 . S
O535 Co510 1.967 . S
O535 C543 1.258 . S
O536 Co511 1.941 . S
O536 C543 1.266 . S
H537 C539 0.959 1_455 S
H538 C539 0.961 . S
C539 C529 1.510 . S
C539 H537 0.959 1_655 S
C539 H538 0.961 . S
C539 H540 0.960 . S
H540 C539 0.960 . S
H541 N521 0.862 1_455 S
O542 Co510 1.920 . S
O542 C515 1.289 . S
C543 O535 1.258 . S
C543 O536 1.266 . S
Co544 O547 1.970 . S
Co544 N561 1.989 . S
Co544 O569 1.967 . S
Co544 O576 1.920 . S
Co545 O548 1.966 . S
Co545 N554 2.022 . S
Co545 N562 1.993 . S
Co545 O570 1.941 . S
C546 O547 1.258 . S
C546 O548 1.263 . S
O547 Co544 1.970 . S
O547 C546 1.258 . S
O548 Co545 1.966 . S
O548 C546 1.263 . S
C549 O550 1.235 . S
C549 O576 1.289 . S
O550 C549 1.235 . S
C551 C553 1.400 . S
C551 N554 1.351 . S
C551 C556 1.501 . S
C552 C553 1.387 . S
C552 N555 1.341 . S
C553 C551 1.400 . S
C553 C552 1.387 . S
N554 Co545 2.022 . S
N554 C551 1.351 . S
N554 N555 1.365 . S
N555 C552 1.341 . S
N555 N554 1.365 . S
N555 H575 0.862 . S
C556 C551 1.501 . S
C556 H557 0.961 . S
C556 H558 0.961 . S
C556 H559 0.960 . S
H557 C556 0.961 . S
H558 C556 0.961 . S
H559 C556 0.960 . S
C560 N561 1.342 . S
C560 C564 1.401 . S
C560 C565 1.499 . S
N561 Co544 1.989 . S
N561 C560 1.342 . S
N561 N562 1.388 . S
N562 Co545 1.993 . S
N562 N561 1.388 . S
N562 C563 1.346 . S
C563 N562 1.346 . S
C563 C564 1.396 . S
C563 C573 1.510 . S
C564 C560 1.401 . S
C564 C563 1.396 . S
C565 C560 1.499 . S
C565 H566 0.959 . S
C565 H567 0.960 . S
C565 H568 0.961 . S
H566 C565 0.959 . S
H567 C565 0.960 . S
H568 C565 0.961 . S
O569 Co544 1.967 . S
O569 C577 1.258 . S
O570 Co545 1.941 . S
O570 C577 1.266 . S
H571 C573 0.959 . S
H572 C573 0.961 . S
C573 C563 1.510 . S
C573 H571 0.959 . S
C573 H572 0.961 . S
C573 H574 0.960 . S
H574 C573 0.960 . S
H575 N555 0.862 . S
O576 Co544 1.920 . S
O576 C549 1.289 . S
C577 O569 1.258 . S
C577 O570 1.266 . S
Co578 O581 1.970 . S
Co578 N595 1.989 . S
Co578 O603 1.967 . S
Co578 O610 1.920 . S
Co579 O582 1.966 . S
Co579 N588 2.022 . S
Co579 N596 1.993 . S
Co579 O604 1.941 . S
C580 O581 1.258 . S
C580 O582 1.263 . S
O581 Co578 1.970 . S
O581 C580 1.258 . S
O582 Co579 1.966 . S
O582 C580 1.263 . S
C583 O584 1.235 . S
C583 O610 1.289 . S
O584 C583 1.235 . S
C585 C587 1.400 . S
C585 N588 1.351 . S
C585 C590 1.501 . S
C586 C587 1.387 1_565 S
C586 N589 1.341 1_565 S
C587 C585 1.400 . S
C587 C586 1.387 1_545 S
N588 Co579 2.022 . S
N588 C585 1.351 . S
N588 N589 1.365 . S
N589 C586 1.341 1_545 S
N589 N588 1.365 . S
N589 H609 0.862 1_545 S
C590 C585 1.501 . S
C590 H591 0.961 . S
C590 H592 0.961 . S
C590 H593 0.960 . S
H591 C590 0.961 . S
H592 C590 0.961 . S
H593 C590 0.960 . S
C594 N595 1.342 . S
C594 C598 1.401 . S
C594 C599 1.499 . S
N595 Co578 1.989 . S
N595 C594 1.342 . S
N595 N596 1.388 . S
N596 Co579 1.993 . S
N596 N595 1.388 . S
N596 C597 1.346 . S
C597 N596 1.346 . S
C597 C598 1.396 . S
C597 C607 1.510 . S
C598 C594 1.401 . S
C598 C597 1.396 . S
C599 C594 1.499 . S
C599 H600 0.959 . S
C599 H601 0.960 . S
C599 H602 0.961 . S
H600 C599 0.959 . S
H601 C599 0.960 . S
H602 C599 0.961 . S
O603 Co578 1.967 . S
O603 C611 1.258 . S
O604 Co579 1.941 . S
O604 C611 1.266 . S
H605 C607 0.959 1_565 S
H606 C607 0.961 . S
C607 C597 1.510 . S
C607 H605 0.959 1_545 S
C607 H606 0.961 . S
C607 H608 0.960 . S
H608 C607 0.960 . S
H609 N589 0.862 1_565 S
O610 Co578 1.920 . S
O610 C583 1.289 . S
C611 O603 1.258 . S
C611 O604 1.266 . S
Co612 O615 1.970 . S
Co612 N629 1.989 . S
Co612 O637 1.967 . S
Co612 O644 1.920 . S
Co613 O616 1.966 . S
Co613 N622 2.022 . S
Co613 N630 1.993 . S
Co613 O638 1.941 . S
C614 O615 1.258 . S
C614 O616 1.263 . S
O615 Co612 1.970 . S
O615 C614 1.258 . S
O616 Co613 1.966 . S
O616 C614 1.263 . S
C617 O618 1.235 . S
C617 O644 1.289 . S
O618 C617 1.235 . S
C619 C621 1.400 . S
C619 N622 1.351 . S
C619 C624 1.501 . S
C620 C621 1.387 1_565 S
C620 N623 1.341 1_565 S
C621 C619 1.400 . S
C621 C620 1.387 1_545 S
N622 Co613 2.022 . S
N622 C619 1.351 . S
N622 N623 1.365 . S
N623 C620 1.341 1_545 S
N623 N622 1.365 . S
N623 H643 0.862 1_545 S
C624 C619 1.501 . S
C624 H625 0.961 . S
C624 H626 0.961 . S
C624 H627 0.960 . S
H625 C624 0.961 . S
H626 C624 0.961 . S
H627 C624 0.960 . S
C628 N629 1.342 . S
C628 C632 1.401 . S
C628 C633 1.499 . S
N629 Co612 1.989 . S
N629 C628 1.342 . S
N629 N630 1.388 . S
N630 Co613 1.993 . S
N630 N629 1.388 . S
N630 C631 1.346 . S
C631 N630 1.346 . S
C631 C632 1.396 . S
C631 C641 1.510 . S
C632 C628 1.401 . S
C632 C631 1.396 . S
C633 C628 1.499 . S
C633 H634 0.959 . S
C633 H635 0.960 . S
C633 H636 0.961 . S
H634 C633 0.959 . S
H635 C633 0.960 . S
H636 C633 0.961 . S
O637 Co612 1.967 . S
O637 C645 1.258 . S
O638 Co613 1.941 . S
O638 C645 1.266 . S
H639 C641 0.959 1_565 S
H640 C641 0.961 . S
C641 C631 1.510 . S
C641 H639 0.959 1_545 S
C641 H640 0.961 . S
C641 H642 0.960 . S
H642 C641 0.960 . S
H643 N623 0.862 1_565 S
O644 Co612 1.920 . S
O644 C617 1.289 . S
C645 O637 1.258 . S
C645 O638 1.266 . S
Co646 O649 1.970 . S
Co646 N663 1.989 . S
Co646 O671 1.967 . S
Co646 O678 1.920 . S
Co647 O650 1.966 . S
Co647 N656 2.022 . S
Co647 N664 1.993 . S
Co647 O672 1.941 . S
C648 O649 1.258 . S
C648 O650 1.263 . S
O649 Co646 1.970 . S
O649 C648 1.258 . S
O650 Co647 1.966 . S
O650 C648 1.263 . S
C651 O652 1.235 . S
C651 O678 1.289 . S
O652 C651 1.235 . S
C653 C655 1.400 . S
C653 N656 1.351 . S
C653 C658 1.501 . S
C654 C655 1.387 1_455 S
C654 N657 1.341 1_455 S
C655 C653 1.400 . S
C655 C654 1.387 1_655 S
N656 Co647 2.022 . S
N656 C653 1.351 . S
N656 N657 1.365 . S
N657 C654 1.341 1_655 S
N657 N656 1.365 . S
N657 H677 0.862 1_655 S
C658 C653 1.501 . S
C658 H659 0.961 . S
C658 H660 0.961 . S
C658 H661 0.960 . S
H659 C658 0.961 . S
H660 C658 0.961 . S
H661 C658 0.960 . S
C662 N663 1.342 . S
C662 C666 1.401 . S
C662 C667 1.499 . S
N663 Co646 1.989 . S
N663 C662 1.342 . S
N663 N664 1.388 . S
N664 Co647 1.993 . S
N664 N663 1.388 . S
N664 C665 1.346 . S
C665 N664 1.346 . S
C665 C666 1.396 . S
C665 C675 1.510 . S
C666 C662 1.401 . S
C666 C665 1.396 . S
C667 C662 1.499 . S
C667 H668 0.959 . S
C667 H669 0.960 . S
C667 H670 0.961 . S
H668 C667 0.959 . S
H669 C667 0.960 . S
H670 C667 0.961 . S
O671 Co646 1.967 . S
O671 C679 1.258 . S
O672 Co647 1.941 . S
O672 C679 1.266 . S
H673 C675 0.959 1_455 S
H674 C675 0.961 . S
C675 C665 1.510 . S
C675 H673 0.959 1_655 S
C675 H674 0.961 . S
C675 H676 0.960 . S
H676 C675 0.960 . S
H677 N657 0.862 1_455 S
O678 Co646 1.920 . S
O678 C651 1.289 . S
C679 O671 1.258 . S
C679 O672 1.266 . S
Co680 O683 1.970 . S
Co680 N697 1.989 . S
Co680 O705 1.967 . S
Co680 O712 1.920 . S
Co681 O684 1.966 . S
Co681 N690 2.022 . S
Co681 N698 1.993 . S
Co681 O706 1.941 . S
C682 O683 1.258 . S
C682 O684 1.263 . S
O683 Co680 1.970 . S
O683 C682 1.258 . S
O684 Co681 1.966 . S
O684 C682 1.263 . S
C685 O686 1.235 . S
C685 O712 1.289 . S
O686 C685 1.235 . S
C687 C689 1.400 . S
C687 N690 1.351 . S
C687 C692 1.501 . S
C688 C689 1.387 . S
C688 N691 1.341 . S
C689 C687 1.400 . S
C689 C688 1.387 . S
N690 Co681 2.022 . S
N690 C687 1.351 . S
N690 N691 1.365 . S
N691 C688 1.341 . S
N691 N690 1.365 . S
N691 H711 0.862 . S
C692 C687 1.501 . S
C692 H693 0.961 . S
C692 H694 0.961 . S
C692 H695 0.960 . S
H693 C692 0.961 . S
H694 C692 0.961 . S
H695 C692 0.960 . S
C696 N697 1.342 . S
C696 C700 1.401 . S
C696 C701 1.499 . S
N697 Co680 1.989 . S
N697 C696 1.342 . S
N697 N698 1.388 . S
N698 Co681 1.993 . S
N698 N697 1.388 . S
N698 C699 1.346 . S
C699 N698 1.346 . S
C699 C700 1.396 . S
C699 C709 1.510 . S
C700 C696 1.401 . S
C700 C699 1.396 . S
C701 C696 1.499 . S
C701 H702 0.959 . S
C701 H703 0.960 . S
C701 H704 0.961 . S
H702 C701 0.959 . S
H703 C701 0.960 . S
H704 C701 0.961 . S
O705 Co680 1.967 . S
O705 C713 1.258 . S
O706 Co681 1.941 . S
O706 C713 1.266 . S
H707 C709 0.959 . S
H708 C709 0.961 . S
C709 C699 1.510 . S
C709 H707 0.959 . S
C709 H708 0.961 . S
C709 H710 0.960 . S
H710 C709 0.960 . S
H711 N691 0.862 . S
O712 Co680 1.920 . S
O712 C685 1.289 . S
C713 O705 1.258 . S
C713 O706 1.266 . S
Co714 O717 1.970 . S
Co714 N731 1.989 . S
Co714 O739 1.967 . S
Co714 O746 1.920 . S
Co715 O718 1.966 . S
Co715 N724 2.022 . S
Co715 N732 1.993 . S
Co715 O740 1.941 . S
C716 O717 1.258 . S
C716 O718 1.263 . S
O717 Co714 1.970 . S
O717 C716 1.258 . S
O718 Co715 1.966 . S
O718 C716 1.263 . S
C719 O720 1.235 . S
C719 O746 1.289 . S
O720 C719 1.235 . S
C721 C723 1.400 . S
C721 N724 1.351 . S
C721 C726 1.501 . S
C722 C723 1.387 . S
C722 N725 1.341 . S
C723 C721 1.400 . S
C723 C722 1.387 . S
N724 Co715 2.022 . S
N724 C721 1.351 . S
N724 N725 1.365 . S
N725 C722 1.341 . S
N725 N724 1.365 . S
N725 H745 0.862 . S
C726 C721 1.501 . S
C726 H727 0.961 . S
C726 H728 0.961 . S
C726 H729 0.960 . S
H727 C726 0.961 . S
H728 C726 0.961 . S
H729 C726 0.960 . S
C730 N731 1.342 . S
C730 C734 1.401 . S
C730 C735 1.499 . S
N731 Co714 1.989 . S
N731 C730 1.342 . S
N731 N732 1.388 . S
N732 Co715 1.993 . S
N732 N731 1.388 . S
N732 C733 1.346 . S
C733 N732 1.346 . S
C733 C734 1.396 . S
C733 C743 1.510 . S
C734 C730 1.401 . S
C734 C733 1.396 . S
C735 C730 1.499 . S
C735 H736 0.959 . S
C735 H737 0.960 . S
C735 H738 0.961 . S
H736 C735 0.959 . S
H737 C735 0.960 . S
H738 C735 0.961 . S
O739 Co714 1.967 . S
O739 C747 1.258 . S
O740 Co715 1.941 . S
O740 C747 1.266 . S
H741 C743 0.959 . S
H742 C743 0.961 . S
C743 C733 1.510 . S
C743 H741 0.959 . S
C743 H742 0.961 . S
C743 H744 0.960 . S
H744 C743 0.960 . S
H745 N725 0.862 . S
O746 Co714 1.920 . S
O746 C719 1.289 . S
C747 O739 1.258 . S
C747 O740 1.266 . S
Co748 O751 1.970 . S
Co748 N765 1.989 . S
Co748 O773 1.967 . S
Co748 O780 1.920 . S
Co749 O752 1.966 . S
Co749 N758 2.022 . S
Co749 N766 1.993 . S
Co749 O774 1.941 . S
C750 O751 1.258 . S
C750 O752 1.263 . S
O751 Co748 1.970 . S
O751 C750 1.258 . S
O752 Co749 1.966 . S
O752 C750 1.263 . S
C753 O754 1.235 . S
C753 O780 1.289 . S
O754 C753 1.235 . S
C755 C757 1.400 . S
C755 N758 1.351 . S
C755 C760 1.501 . S
C756 C757 1.387 . S
C756 N759 1.341 . S
C757 C755 1.400 . S
C757 C756 1.387 . S
N758 Co749 2.022 . S
N758 C755 1.351 . S
N758 N759 1.365 . S
N759 C756 1.341 . S
N759 N758 1.365 . S
N759 H779 0.862 . S
C760 C755 1.501 . S
C760 H761 0.961 . S
C760 H762 0.961 . S
C760 H763 0.960 . S
H761 C760 0.961 . S
H762 C760 0.961 . S
H763 C760 0.960 . S
C764 N765 1.342 . S
C764 C768 1.401 . S
C764 C769 1.499 . S
N765 Co748 1.989 . S
N765 C764 1.342 . S
N765 N766 1.388 . S
N766 Co749 1.993 . S
N766 N765 1.388 . S
N766 C767 1.346 . S
C767 N766 1.346 . S
C767 C768 1.396 . S
C767 C777 1.510 . S
C768 C764 1.401 . S
C768 C767 1.396 . S
C769 C764 1.499 . S
C769 H770 0.959 . S
C769 H771 0.960 . S
C769 H772 0.961 . S
H770 C769 0.959 . S
H771 C769 0.960 . S
H772 C769 0.961 . S
O773 Co748 1.967 . S
O773 C781 1.258 . S
O774 Co749 1.941 . S
O774 C781 1.266 . S
H775 C777 0.959 . S
H776 C777 0.961 . S
C777 C767 1.510 . S
C777 H775 0.959 . S
C777 H776 0.961 . S
C777 H778 0.960 . S
H778 C777 0.960 . S
H779 N759 0.862 . S
O780 Co748 1.920 . S
O780 C753 1.289 . S
C781 O773 1.258 . S
C781 O774 1.266 . S
Co782 O785 1.970 . S
Co782 N799 1.989 . S
Co782 O807 1.967 . S
Co782 O814 1.920 . S
Co783 O786 1.966 . S
Co783 N792 2.022 . S
Co783 N800 1.993 . S
Co783 O808 1.941 . S
C784 O785 1.258 . S
C784 O786 1.263 . S
O785 Co782 1.970 . S
O785 C784 1.258 . S
O786 Co783 1.966 . S
O786 C784 1.263 . S
C787 O788 1.235 . S
C787 O814 1.289 . S
O788 C787 1.235 . S
C789 C791 1.400 . S
C789 N792 1.351 . S
C789 C794 1.501 . S
C790 C791 1.387 . S
C790 N793 1.341 . S
C791 C789 1.400 . S
C791 C790 1.387 . S
N792 Co783 2.022 . S
N792 C789 1.351 . S
N792 N793 1.365 . S
N793 C790 1.341 . S
N793 N792 1.365 . S
N793 H813 0.862 . S
C794 C789 1.501 . S
C794 H795 0.961 . S
C794 H796 0.961 . S
C794 H797 0.960 . S
H795 C794 0.961 . S
H796 C794 0.961 . S
H797 C794 0.960 . S
C798 N799 1.342 . S
C798 C802 1.401 . S
C798 C803 1.499 . S
N799 Co782 1.989 . S
N799 C798 1.342 . S
N799 N800 1.388 . S
N800 Co783 1.993 . S
N800 N799 1.388 . S
N800 C801 1.346 . S
C801 N800 1.346 . S
C801 C802 1.396 . S
C801 C811 1.510 . S
C802 C798 1.401 . S
C802 C801 1.396 . S
C803 C798 1.499 . S
C803 H804 0.959 . S
C803 H805 0.960 . S
C803 H806 0.961 . S
H804 C803 0.959 . S
H805 C803 0.960 . S
H806 C803 0.961 . S
O807 Co782 1.967 . S
O807 C815 1.258 . S
O808 Co783 1.941 . S
O808 C815 1.266 . S
H809 C811 0.959 . S
H810 C811 0.961 . S
C811 C801 1.510 . S
C811 H809 0.959 . S
C811 H810 0.961 . S
C811 H812 0.960 . S
H812 C811 0.960 . S
H813 N793 0.862 . S
O814 Co782 1.920 . S
O814 C787 1.289 . S
C815 O807 1.258 . S
C815 O808 1.266 . S
Co816 O819 1.970 . S
Co816 N833 1.989 . S
Co816 O841 1.967 . S
Co816 O848 1.920 . S
Co817 O820 1.966 . S
Co817 N826 2.022 . S
Co817 N834 1.993 . S
Co817 O842 1.941 . S
C818 O819 1.258 . S
C818 O820 1.263 . S
O819 Co816 1.970 . S
O819 C818 1.258 . S
O820 Co817 1.966 . S
O820 C818 1.263 . S
C821 O822 1.235 . S
C821 O848 1.289 . S
O822 C821 1.235 . S
C823 C825 1.400 . S
C823 N826 1.351 . S
C823 C828 1.501 . S
C824 C825 1.387 1_545 S
C824 N827 1.341 1_545 S
C825 C823 1.400 . S
C825 C824 1.387 1_565 S
N826 Co817 2.022 . S
N826 C823 1.351 . S
N826 N827 1.365 . S
N827 C824 1.341 1_565 S
N827 N826 1.365 . S
N827 H847 0.862 1_565 S
C828 C823 1.501 . S
C828 H829 0.961 . S
C828 H830 0.961 . S
C828 H831 0.960 . S
H829 C828 0.961 . S
H830 C828 0.961 . S
H831 C828 0.960 . S
C832 N833 1.342 . S
C832 C836 1.401 . S
C832 C837 1.499 . S
N833 Co816 1.989 . S
N833 C832 1.342 . S
N833 N834 1.388 . S
N834 Co817 1.993 . S
N834 N833 1.388 . S
N834 C835 1.346 . S
C835 N834 1.346 . S
C835 C836 1.396 . S
C835 C845 1.510 . S
C836 C832 1.401 . S
C836 C835 1.396 . S
C837 C832 1.499 . S
C837 H838 0.959 . S
C837 H839 0.960 . S
C837 H840 0.961 . S
H838 C837 0.959 . S
H839 C837 0.960 . S
H840 C837 0.961 . S
O841 Co816 1.967 . S
O841 C849 1.258 . S
O842 Co817 1.941 . S
O842 C849 1.266 . S
H843 C845 0.959 1_545 S
H844 C845 0.961 . S
C845 C835 1.510 . S
C845 H843 0.959 1_565 S
C845 H844 0.961 . S
C845 H846 0.960 . S
H846 C845 0.960 . S
H847 N827 0.862 1_545 S
O848 Co816 1.920 . S
O848 C821 1.289 . S
C849 O841 1.258 . S
C849 O842 1.266 . S
Co850 O853 1.970 . S
Co850 N867 1.989 . S
Co850 O875 1.967 . S
Co850 O882 1.920 . S
Co851 O854 1.966 . S
Co851 N860 2.022 . S
Co851 N868 1.993 . S
Co851 O876 1.941 . S
C852 O853 1.258 . S
C852 O854 1.263 . S
O853 Co850 1.970 . S
O853 C852 1.258 . S
O854 Co851 1.966 . S
O854 C852 1.263 . S
C855 O856 1.235 . S
C855 O882 1.289 . S
O856 C855 1.235 . S
C857 C859 1.400 . S
C857 N860 1.351 . S
C857 C862 1.501 . S
C858 C859 1.387 1_655 S
C858 N861 1.341 1_655 S
C859 C857 1.400 . S
C859 C858 1.387 1_455 S
N860 Co851 2.022 . S
N860 C857 1.351 . S
N860 N861 1.365 . S
N861 C858 1.341 1_455 S
N861 N860 1.365 . S
N861 H881 0.862 1_455 S
C862 C857 1.501 . S
C862 H863 0.961 . S
C862 H864 0.961 . S
C862 H865 0.960 . S
H863 C862 0.961 . S
H864 C862 0.961 . S
H865 C862 0.960 . S
C866 N867 1.342 . S
C866 C870 1.401 . S
C866 C871 1.499 . S
N867 Co850 1.989 . S
N867 C866 1.342 . S
N867 N868 1.388 . S
N868 Co851 1.993 . S
N868 N867 1.388 . S
N868 C869 1.346 . S
C869 N868 1.346 . S
C869 C870 1.396 . S
C869 C879 1.510 . S
C870 C866 1.401 . S
C870 C869 1.396 . S
C871 C866 1.499 . S
C871 H872 0.959 . S
C871 H873 0.960 . S
C871 H874 0.961 . S
H872 C871 0.959 . S
H873 C871 0.960 . S
H874 C871 0.961 . S
O875 Co850 1.967 . S
O875 C883 1.258 . S
O876 Co851 1.941 . S
O876 C883 1.266 . S
H877 C879 0.959 1_655 S
H878 C879 0.961 . S
C879 C869 1.510 . S
C879 H877 0.959 1_455 S
C879 H878 0.961 . S
C879 H880 0.960 . S
H880 C879 0.960 . S
H881 N861 0.862 1_655 S
O882 Co850 1.920 . S
O882 C855 1.289 . S
C883 O875 1.258 . S
C883 O876 1.266 . S
Co884 O887 1.970 . S
Co884 N901 1.989 . S
Co884 O909 1.967 . S
Co884 O916 1.920 . S
Co885 O888 1.966 . S
Co885 N894 2.022 . S
Co885 N902 1.993 . S
Co885 O910 1.941 . S
C886 O887 1.258 . S
C886 O888 1.263 . S
O887 Co884 1.970 . S
O887 C886 1.258 . S
O888 Co885 1.966 . S
O888 C886 1.263 . S
C889 O890 1.235 . S
C889 O916 1.289 . S
O890 C889 1.235 . S
C891 C893 1.400 . S
C891 N894 1.351 . S
C891 C896 1.501 . S
C892 C893 1.387 . S
C892 N895 1.341 . S
C893 C891 1.400 . S
C893 C892 1.387 . S
N894 Co885 2.022 . S
N894 C891 1.351 . S
N894 N895 1.365 . S
N895 C892 1.341 . S
N895 N894 1.365 . S
N895 H915 0.862 . S
C896 C891 1.501 . S
C896 H897 0.961 . S
C896 H898 0.961 . S
C896 H899 0.960 . S
H897 C896 0.961 . S
H898 C896 0.961 . S
H899 C896 0.960 . S
C900 N901 1.342 . S
C900 C904 1.401 . S
C900 C905 1.499 . S
N901 Co884 1.989 . S
N901 C900 1.342 . S
N901 N902 1.388 . S
N902 Co885 1.993 . S
N902 N901 1.388 . S
N902 C903 1.346 . S
C903 N902 1.346 . S
C903 C904 1.396 . S
C903 C913 1.510 . S
C904 C900 1.401 . S
C904 C903 1.396 . S
C905 C900 1.499 . S
C905 H906 0.959 . S
C905 H907 0.960 . S
C905 H908 0.961 . S
H906 C905 0.959 . S
H907 C905 0.960 . S
H908 C905 0.961 . S
O909 Co884 1.967 . S
O909 C917 1.258 . S
O910 Co885 1.941 . S
O910 C917 1.266 . S
H911 C913 0.959 . S
H912 C913 0.961 . S
C913 C903 1.510 . S
C913 H911 0.959 . S
C913 H912 0.961 . S
C913 H914 0.960 . S
H914 C913 0.960 . S
H915 N895 0.862 . S
O916 Co884 1.920 . S
O916 C889 1.289 . S
C917 O909 1.258 . S
C917 O910 1.266 . S
Co918 O921 1.970 . S
Co918 N935 1.989 . S
Co918 O943 1.967 . S
Co918 O950 1.920 . S
Co919 O922 1.966 . S
Co919 N928 2.022 . S
Co919 N936 1.993 . S
Co919 O944 1.941 . S
C920 O921 1.258 . S
C920 O922 1.263 . S
O921 Co918 1.970 . S
O921 C920 1.258 . S
O922 Co919 1.966 . S
O922 C920 1.263 . S
C923 O924 1.235 . S
C923 O950 1.289 . S
O924 C923 1.235 . S
C925 C927 1.400 . S
C925 N928 1.351 . S
C925 C930 1.501 . S
C926 C927 1.387 . S
C926 N929 1.341 . S
C927 C925 1.400 . S
C927 C926 1.387 . S
N928 Co919 2.022 . S
N928 C925 1.351 . S
N928 N929 1.365 . S
N929 C926 1.341 . S
N929 N928 1.365 . S
N929 H949 0.862 . S
C930 C925 1.501 . S
C930 H931 0.961 . S
C930 H932 0.961 . S
C930 H933 0.960 . S
H931 C930 0.961 . S
H932 C930 0.961 . S
H933 C930 0.960 . S
C934 N935 1.342 . S
C934 C938 1.401 . S
C934 C939 1.499 . S
N935 Co918 1.989 . S
N935 C934 1.342 . S
N935 N936 1.388 . S
N936 Co919 1.993 . S
N936 N935 1.388 . S
N936 C937 1.346 . S
C937 N936 1.346 . S
C937 C938 1.396 . S
C937 C947 1.510 . S
C938 C934 1.401 . S
C938 C937 1.396 . S
C939 C934 1.499 . S
C939 H940 0.959 . S
C939 H941 0.960 . S
C939 H942 0.961 . S
H940 C939 0.959 . S
H941 C939 0.960 . S
H942 C939 0.961 . S
O943 Co918 1.967 . S
O943 C951 1.258 . S
O944 Co919 1.941 . S
O944 C951 1.266 . S
H945 C947 0.959 . S
H946 C947 0.961 . S
C947 C937 1.510 . S
C947 H945 0.959 . S
C947 H946 0.961 . S
C947 H948 0.960 . S
H948 C947 0.960 . S
H949 N929 0.862 . S
O950 Co918 1.920 . S
O950 C923 1.289 . S
C951 O943 1.258 . S
C951 O944 1.266 . S
Co952 O955 1.970 . S
Co952 N969 1.989 . S
Co952 O977 1.967 . S
Co952 O984 1.920 . S
Co953 O956 1.966 . S
Co953 N962 2.022 . S
Co953 N970 1.993 . S
Co953 O978 1.941 . S
C954 O955 1.258 . S
C954 O956 1.263 . S
O955 Co952 1.970 . S
O955 C954 1.258 . S
O956 Co953 1.966 . S
O956 C954 1.263 . S
C957 O958 1.235 . S
C957 O984 1.289 . S
O958 C957 1.235 . S
C959 C961 1.400 . S
C959 N962 1.351 . S
C959 C964 1.501 . S
C960 C961 1.387 . S
C960 N963 1.341 . S
C961 C959 1.400 . S
C961 C960 1.387 . S
N962 Co953 2.022 . S
N962 C959 1.351 . S
N962 N963 1.365 . S
N963 C960 1.341 . S
N963 N962 1.365 . S
N963 H983 0.862 . S
C964 C959 1.501 . S
C964 H965 0.961 . S
C964 H966 0.961 . S
C964 H967 0.960 . S
H965 C964 0.961 . S
H966 C964 0.961 . S
H967 C964 0.960 . S
C968 N969 1.342 . S
C968 C972 1.401 . S
C968 C973 1.499 . S
N969 Co952 1.989 . S
N969 C968 1.342 . S
N969 N970 1.388 . S
N970 Co953 1.993 . S
N970 N969 1.388 . S
N970 C971 1.346 . S
C971 N970 1.346 . S
C971 C972 1.396 . S
C971 C981 1.510 . S
C972 C968 1.401 . S
C972 C971 1.396 . S
C973 C968 1.499 . S
C973 H974 0.959 . S
C973 H975 0.960 . S
C973 H976 0.961 . S
H974 C973 0.959 . S
H975 C973 0.960 . S
H976 C973 0.961 . S
O977 Co952 1.967 . S
O977 C985 1.258 . S
O978 Co953 1.941 . S
O978 C985 1.266 . S
H979 C981 0.959 . S
H980 C981 0.961 . S
C981 C971 1.510 . S
C981 H979 0.959 . S
C981 H980 0.961 . S
C981 H982 0.960 . S
H982 C981 0.960 . S
H983 N963 0.862 . S
O984 Co952 1.920 . S
O984 C957 1.289 . S
C985 O977 1.258 . S
C985 O978 1.266 . S
Co986 O989 1.970 . S
Co986 N1003 1.989 . S
Co986 O1011 1.967 . S
Co986 O1018 1.920 . S
Co987 O990 1.966 . S
Co987 N996 2.022 . S
Co987 N1004 1.993 . S
Co987 O1012 1.941 . S
C988 O989 1.258 . S
C988 O990 1.263 . S
O989 Co986 1.970 . S
O989 C988 1.258 . S
O990 Co987 1.966 . S
O990 C988 1.263 . S
C991 O992 1.235 . S
C991 O1018 1.289 . S
O992 C991 1.235 . S
C993 C995 1.400 . S
C993 N996 1.351 . S
C993 C998 1.501 . S
C994 C995 1.387 . S
C994 N997 1.341 . S
C995 C993 1.400 . S
C995 C994 1.387 . S
N996 Co987 2.022 . S
N996 C993 1.351 . S
N996 N997 1.365 . S
N997 C994 1.341 . S
N997 N996 1.365 . S
N997 H1017 0.862 . S
C998 C993 1.501 . S
C998 H999 0.961 . S
C998 H1000 0.961 . S
C998 H1001 0.960 . S
H999 C998 0.961 . S
H1000 C998 0.961 . S
H1001 C998 0.960 . S
C1002 N1003 1.342 . S
C1002 C1006 1.401 . S
C1002 C1007 1.499 . S
N1003 Co986 1.989 . S
N1003 C1002 1.342 . S
N1003 N1004 1.388 . S
N1004 Co987 1.993 . S
N1004 N1003 1.388 . S
N1004 C1005 1.346 . S
C1005 N1004 1.346 . S
C1005 C1006 1.396 . S
C1005 C1015 1.510 . S
C1006 C1002 1.401 . S
C1006 C1005 1.396 . S
C1007 C1002 1.499 . S
C1007 H1008 0.959 . S
C1007 H1009 0.960 . S
C1007 H1010 0.961 . S
H1008 C1007 0.959 . S
H1009 C1007 0.960 . S
H1010 C1007 0.961 . S
O1011 Co986 1.967 . S
O1011 C1019 1.258 . S
O1012 Co987 1.941 . S
O1012 C1019 1.266 . S
H1013 C1015 0.959 . S
H1014 C1015 0.961 . S
C1015 C1005 1.510 . S
C1015 H1013 0.959 . S
C1015 H1014 0.961 . S
C1015 H1016 0.960 . S
H1016 C1015 0.960 . S
H1017 N997 0.862 . S
O1018 Co986 1.920 . S
O1018 C991 1.289 . S
C1019 O1011 1.258 . S
C1019 O1012 1.266 . S
Co1020 O1023 1.970 . S
Co1020 N1037 1.989 . S
Co1020 O1045 1.967 . S
Co1020 O1052 1.920 . S
Co1021 O1024 1.966 . S
Co1021 N1030 2.022 . S
Co1021 N1038 1.993 . S
Co1021 O1046 1.941 . S
C1022 O1023 1.258 . S
C1022 O1024 1.263 . S
O1023 Co1020 1.970 . S
O1023 C1022 1.258 . S
O1024 Co1021 1.966 . S
O1024 C1022 1.263 . S
C1025 O1026 1.235 . S
C1025 O1052 1.289 . S
O1026 C1025 1.235 . S
C1027 C1029 1.400 . S
C1027 N1030 1.351 . S
C1027 C1032 1.501 . S
C1028 C1029 1.387 . S
C1028 N1031 1.341 . S
C1029 C1027 1.400 . S
C1029 C1028 1.387 . S
N1030 Co1021 2.022 . S
N1030 C1027 1.351 . S
N1030 N1031 1.365 . S
N1031 C1028 1.341 . S
N1031 N1030 1.365 . S
N1031 H1051 0.862 . S
C1032 C1027 1.501 . S
C1032 H1033 0.961 . S
C1032 H1034 0.961 . S
C1032 H1035 0.960 . S
H1033 C1032 0.961 . S
H1034 C1032 0.961 . S
H1035 C1032 0.960 . S
C1036 N1037 1.342 . S
C1036 C1040 1.401 . S
C1036 C1041 1.499 . S
N1037 Co1020 1.989 . S
N1037 C1036 1.342 . S
N1037 N1038 1.388 . S
N1038 Co1021 1.993 . S
N1038 N1037 1.388 . S
N1038 C1039 1.346 . S
C1039 N1038 1.346 . S
C1039 C1040 1.396 . S
C1039 C1049 1.510 . S
C1040 C1036 1.401 . S
C1040 C1039 1.396 . S
C1041 C1036 1.499 . S
C1041 H1042 0.959 . S
C1041 H1043 0.960 . S
C1041 H1044 0.961 . S
H1042 C1041 0.959 . S
H1043 C1041 0.960 . S
H1044 C1041 0.961 . S
O1045 Co1020 1.967 . S
O1045 C1053 1.258 . S
O1046 Co1021 1.941 . S
O1046 C1053 1.266 . S
H1047 C1049 0.959 . S
H1048 C1049 0.961 . S
C1049 C1039 1.510 . S
C1049 H1047 0.959 . S
C1049 H1048 0.961 . S
C1049 H1050 0.960 . S
H1050 C1049 0.960 . S
H1051 N1031 0.862 . S
O1052 Co1020 1.920 . S
O1052 C1025 1.289 . S
C1053 O1045 1.258 . S
C1053 O1046 1.266 . S
Co1054 O1057 1.970 . S
Co1054 N1071 1.989 . S
Co1054 O1079 1.967 . S
Co1054 O1086 1.920 . S
Co1055 O1058 1.966 . S
Co1055 N1064 2.022 . S
Co1055 N1072 1.993 . S
Co1055 O1080 1.941 . S
C1056 O1057 1.258 . S
C1056 O1058 1.263 . S
O1057 Co1054 1.970 . S
O1057 C1056 1.258 . S
O1058 Co1055 1.966 . S
O1058 C1056 1.263 . S
C1059 O1060 1.235 . S
C1059 O1086 1.289 . S
O1060 C1059 1.235 . S
C1061 C1063 1.400 . S
C1061 N1064 1.351 . S
C1061 C1066 1.501 . S
C1062 C1063 1.387 . S
C1062 N1065 1.341 . S
C1063 C1061 1.400 . S
C1063 C1062 1.387 . S
N1064 Co1055 2.022 . S
N1064 C1061 1.351 . S
N1064 N1065 1.365 . S
N1065 C1062 1.341 . S
N1065 N1064 1.365 . S
N1065 H1085 0.862 . S
C1066 C1061 1.501 . S
C1066 H1067 0.961 . S
C1066 H1068 0.961 . S
C1066 H1069 0.960 . S
H1067 C1066 0.961 . S
H1068 C1066 0.961 . S
H1069 C1066 0.960 . S
C1070 N1071 1.342 . S
C1070 C1074 1.401 . S
C1070 C1075 1.499 . S
N1071 Co1054 1.989 . S
N1071 C1070 1.342 . S
N1071 N1072 1.388 . S
N1072 Co1055 1.993 . S
N1072 N1071 1.388 . S
N1072 C1073 1.346 . S
C1073 N1072 1.346 . S
C1073 C1074 1.396 . S
C1073 C1083 1.510 . S
C1074 C1070 1.401 . S
C1074 C1073 1.396 . S
C1075 C1070 1.499 . S
C1075 H1076 0.959 . S
C1075 H1077 0.960 . S
C1075 H1078 0.961 . S
H1076 C1075 0.959 . S
H1077 C1075 0.960 . S
H1078 C1075 0.961 . S
O1079 Co1054 1.967 . S
O1079 C1087 1.258 . S
O1080 Co1055 1.941 . S
O1080 C1087 1.266 . S
H1081 C1083 0.959 . S
H1082 C1083 0.961 . S
C1083 C1073 1.510 . S
C1083 H1081 0.959 . S
C1083 H1082 0.961 . S
C1083 H1084 0.960 . S
H1084 C1083 0.960 . S
H1085 N1065 0.862 . S
O1086 Co1054 1.920 . S
O1086 C1059 1.289 . S
C1087 O1079 1.258 . S
C1087 O1080 1.266 . S
Co1088 O1091 1.970 . S
Co1088 N1105 1.989 . S
Co1088 O1113 1.967 . S
Co1088 O1120 1.920 . S
Co1089 O1092 1.966 . S
Co1089 N1098 2.022 . S
Co1089 N1106 1.993 . S
Co1089 O1114 1.941 . S
C1090 O1091 1.258 . S
C1090 O1092 1.263 . S
O1091 Co1088 1.970 . S
O1091 C1090 1.258 . S
O1092 Co1089 1.966 . S
O1092 C1090 1.263 . S
C1093 O1094 1.235 . S
C1093 O1120 1.289 . S
O1094 C1093 1.235 . S
C1095 C1097 1.400 . S
C1095 N1098 1.351 . S
C1095 C1100 1.501 . S
C1096 C1097 1.387 . S
C1096 N1099 1.341 . S
C1097 C1095 1.400 . S
C1097 C1096 1.387 . S
N1098 Co1089 2.022 . S
N1098 C1095 1.351 . S
N1098 N1099 1.365 . S
N1099 C1096 1.341 . S
N1099 N1098 1.365 . S
N1099 H1119 0.862 . S
C1100 C1095 1.501 . S
C1100 H1101 0.961 . S
C1100 H1102 0.961 . S
C1100 H1103 0.960 . S
H1101 C1100 0.961 . S
H1102 C1100 0.961 . S
H1103 C1100 0.960 . S
C1104 N1105 1.342 . S
C1104 C1108 1.401 . S
C1104 C1109 1.499 . S
N1105 Co1088 1.989 . S
N1105 C1104 1.342 . S
N1105 N1106 1.388 . S
N1106 Co1089 1.993 . S
N1106 N1105 1.388 . S
N1106 C1107 1.346 . S
C1107 N1106 1.346 . S
C1107 C1108 1.396 . S
C1107 C1117 1.510 . S
C1108 C1104 1.401 . S
C1108 C1107 1.396 . S
C1109 C1104 1.499 . S
C1109 H1110 0.959 . S
C1109 H1111 0.960 . S
C1109 H1112 0.961 . S
H1110 C1109 0.959 . S
H1111 C1109 0.960 . S
H1112 C1109 0.961 . S
O1113 Co1088 1.967 . S
O1113 C1121 1.258 . S
O1114 Co1089 1.941 . S
O1114 C1121 1.266 . S
H1115 C1117 0.959 . S
H1116 C1117 0.961 . S
C1117 C1107 1.510 . S
C1117 H1115 0.959 . S
C1117 H1116 0.961 . S
C1117 H1118 0.960 . S
H1118 C1117 0.960 . S
H1119 N1099 0.862 . S
O1120 Co1088 1.920 . S
O1120 C1093 1.289 . S
C1121 O1113 1.258 . S
C1121 O1114 1.266 . S
Co1122 O1125 1.970 . S
Co1122 N1139 1.989 . S
Co1122 O1147 1.967 . S
Co1122 O1154 1.920 . S
Co1123 O1126 1.966 . S
Co1123 N1132 2.022 . S
Co1123 N1140 1.993 . S
Co1123 O1148 1.941 . S
C1124 O1125 1.258 . S
C1124 O1126 1.263 . S
O1125 Co1122 1.970 . S
O1125 C1124 1.258 . S
O1126 Co1123 1.966 . S
O1126 C1124 1.263 . S
C1127 O1128 1.235 . S
C1127 O1154 1.289 . S
O1128 C1127 1.235 . S
C1129 C1131 1.400 . S
C1129 N1132 1.351 . S
C1129 C1134 1.501 . S
C1130 C1131 1.387 1_655 S
C1130 N1133 1.341 1_655 S
C1131 C1129 1.400 . S
C1131 C1130 1.387 1_455 S
N1132 Co1123 2.022 . S
N1132 C1129 1.351 . S
N1132 N1133 1.365 . S
N1133 C1130 1.341 1_455 S
N1133 N1132 1.365 . S
N1133 H1153 0.862 1_455 S
C1134 C1129 1.501 . S
C1134 H1135 0.961 . S
C1134 H1136 0.961 . S
C1134 H1137 0.960 . S
H1135 C1134 0.961 . S
H1136 C1134 0.961 . S
H1137 C1134 0.960 . S
C1138 N1139 1.342 . S
C1138 C1142 1.401 . S
C1138 C1143 1.499 . S
N1139 Co1122 1.989 . S
N1139 C1138 1.342 . S
N1139 N1140 1.388 . S
N1140 Co1123 1.993 . S
N1140 N1139 1.388 . S
N1140 C1141 1.346 . S
C1141 N1140 1.346 . S
C1141 C1142 1.396 . S
C1141 C1151 1.510 . S
C1142 C1138 1.401 . S
C1142 C1141 1.396 . S
C1143 C1138 1.499 . S
C1143 H1144 0.959 . S
C1143 H1145 0.960 . S
C1143 H1146 0.961 . S
H1144 C1143 0.959 . S
H1145 C1143 0.960 . S
H1146 C1143 0.961 . S
O1147 Co1122 1.967 . S
O1147 C1155 1.258 . S
O1148 Co1123 1.941 . S
O1148 C1155 1.266 . S
H1149 C1151 0.959 1_655 S
H1150 C1151 0.961 . S
C1151 C1141 1.510 . S
C1151 H1149 0.959 1_455 S
C1151 H1150 0.961 . S
C1151 H1152 0.960 . S
H1152 C1151 0.960 . S
H1153 N1133 0.862 1_655 S
O1154 Co1122 1.920 . S
O1154 C1127 1.289 . S
C1155 O1147 1.258 . S
C1155 O1148 1.266 . S
Co1156 O1159 1.970 . S
Co1156 N1173 1.989 . S
Co1156 O1181 1.967 . S
Co1156 O1188 1.920 . S
Co1157 O1160 1.966 . S
Co1157 N1166 2.022 . S
Co1157 N1174 1.993 . S
Co1157 O1182 1.941 . S
C1158 O1159 1.258 . S
C1158 O1160 1.263 . S
O1159 Co1156 1.970 . S
O1159 C1158 1.258 . S
O1160 Co1157 1.966 . S
O1160 C1158 1.263 . S
C1161 O1162 1.235 . S
C1161 O1188 1.289 . S
O1162 C1161 1.235 . S
C1163 C1165 1.400 . S
C1163 N1166 1.351 . S
C1163 C1168 1.501 . S
C1164 C1165 1.387 . S
C1164 N1167 1.341 . S
C1165 C1163 1.400 . S
C1165 C1164 1.387 . S
N1166 Co1157 2.022 . S
N1166 C1163 1.351 . S
N1166 N1167 1.365 . S
N1167 C1164 1.341 . S
N1167 N1166 1.365 . S
N1167 H1187 0.862 . S
C1168 C1163 1.501 . S
C1168 H1169 0.961 . S
C1168 H1170 0.961 . S
C1168 H1171 0.960 . S
H1169 C1168 0.961 . S
H1170 C1168 0.961 . S
H1171 C1168 0.960 . S
C1172 N1173 1.342 . S
C1172 C1176 1.401 . S
C1172 C1177 1.499 . S
N1173 Co1156 1.989 . S
N1173 C1172 1.342 . S
N1173 N1174 1.388 . S
N1174 Co1157 1.993 . S
N1174 N1173 1.388 . S
N1174 C1175 1.346 . S
C1175 N1174 1.346 . S
C1175 C1176 1.396 . S
C1175 C1185 1.510 . S
C1176 C1172 1.401 . S
C1176 C1175 1.396 . S
C1177 C1172 1.499 . S
C1177 H1178 0.959 . S
C1177 H1179 0.960 . S
C1177 H1180 0.961 . S
H1178 C1177 0.959 . S
H1179 C1177 0.960 . S
H1180 C1177 0.961 . S
O1181 Co1156 1.967 . S
O1181 C1189 1.258 . S
O1182 Co1157 1.941 . S
O1182 C1189 1.266 . S
H1183 C1185 0.959 . S
H1184 C1185 0.961 . S
C1185 C1175 1.510 . S
C1185 H1183 0.959 . S
C1185 H1184 0.961 . S
C1185 H1186 0.960 . S
H1186 C1185 0.960 . S
H1187 N1167 0.862 . S
O1188 Co1156 1.920 . S
O1188 C1161 1.289 . S
C1189 O1181 1.258 . S
C1189 O1182 1.266 . S
Co1190 O1193 1.970 . S
Co1190 N1207 1.989 . S
Co1190 O1215 1.967 . S
Co1190 O1222 1.920 . S
Co1191 O1194 1.966 . S
Co1191 N1200 2.022 . S
Co1191 N1208 1.993 . S
Co1191 O1216 1.941 . S
C1192 O1193 1.258 . S
C1192 O1194 1.263 . S
O1193 Co1190 1.970 . S
O1193 C1192 1.258 . S
O1194 Co1191 1.966 . S
O1194 C1192 1.263 . S
C1195 O1196 1.235 . S
C1195 O1222 1.289 . S
O1196 C1195 1.235 . S
C1197 C1199 1.400 . S
C1197 N1200 1.351 . S
C1197 C1202 1.501 . S
C1198 C1199 1.387 1_545 S
C1198 N1201 1.341 1_545 S
C1199 C1197 1.400 . S
C1199 C1198 1.387 1_565 S
N1200 Co1191 2.022 . S
N1200 C1197 1.351 . S
N1200 N1201 1.365 . S
N1201 C1198 1.341 1_565 S
N1201 N1200 1.365 . S
N1201 H1221 0.862 1_565 S
C1202 C1197 1.501 . S
C1202 H1203 0.961 . S
C1202 H1204 0.961 . S
C1202 H1205 0.960 . S
H1203 C1202 0.961 . S
H1204 C1202 0.961 . S
H1205 C1202 0.960 . S
C1206 N1207 1.342 . S
C1206 C1210 1.401 . S
C1206 C1211 1.499 . S
N1207 Co1190 1.989 . S
N1207 C1206 1.342 . S
N1207 N1208 1.388 . S
N1208 Co1191 1.993 . S
N1208 N1207 1.388 . S
N1208 C1209 1.346 . S
C1209 N1208 1.346 . S
C1209 C1210 1.396 . S
C1209 C1219 1.510 . S
C1210 C1206 1.401 . S
C1210 C1209 1.396 . S
C1211 C1206 1.499 . S
C1211 H1212 0.959 . S
C1211 H1213 0.960 . S
C1211 H1214 0.961 . S
H1212 C1211 0.959 . S
H1213 C1211 0.960 . S
H1214 C1211 0.961 . S
O1215 Co1190 1.967 . S
O1215 C1223 1.258 . S
O1216 Co1191 1.941 . S
O1216 C1223 1.266 . S
H1217 C1219 0.959 1_545 S
H1218 C1219 0.961 . S
C1219 C1209 1.510 . S
C1219 H1217 0.959 1_565 S
C1219 H1218 0.961 . S
C1219 H1220 0.960 . S
H1220 C1219 0.960 . S
H1221 N1201 0.862 1_545 S
O1222 Co1190 1.920 . S
O1222 C1195 1.289 . S
C1223 O1215 1.258 . S
C1223 O1216 1.266 . S
H1224 C1232 0.950 . S
H1225 C1237 0.950 . S
H1226 C1234 0.950 . S
H1227 C1236 0.950 . S
H1228 C1238 0.950 . S
H1229 C1240 0.950 . S
H1230 C1242 0.950 . S
H1231 C1243 0.950 . S
C1232 H1224 0.950 . S
C1232 C1233 1.386 . S
C1232 C1234 1.391 . S
C1233 C1232 1.386 . S
C1233 C1237 1.393 . S
C1234 H1226 0.950 . S
C1234 C1232 1.391 . S
C1234 C1235 1.400 . S
C1235 C1234 1.400 . S
C1235 C1236 1.398 . S
C1235 C1241 1.491 . S
C1236 H1227 0.950 . S
C1236 C1235 1.398 . S
C1236 C1237 1.391 . S
C1237 H1225 0.950 . S
C1237 C1233 1.393 . S
C1237 C1236 1.391 . S
C1238 H1228 0.950 . S
C1238 C1239 1.386 1_545 S
C1238 C1240 1.391 . S
C1239 C1238 1.386 1_565 S
C1239 C1243 1.393 . S
C1240 H1229 0.950 . S
C1240 C1238 1.391 . S
C1240 C1241 1.400 . S
C1241 C1235 1.491 . S
C1241 C1240 1.400 . S
C1241 C1242 1.398 . S
C1242 H1230 0.950 . S
C1242 C1241 1.398 . S
C1242 C1243 1.391 1_545 S
C1243 H1231 0.950 . S
C1243 C1239 1.393 . S
C1243 C1242 1.391 1_565 S
H1244 C1252 0.950 1_455 S
H1245 C1257 0.950 . S
H1246 C1254 0.950 . S
H1247 C1256 0.950 . S
H1248 C1258 0.950 1_565 S
H1249 C1260 0.950 . S
H1250 C1262 0.950 . S
H1251 C1263 0.950 . S
C1252 H1244 0.950 1_655 S
C1252 C1253 1.386 1_655 S
C1252 C1254 1.391 . S
C1253 C1252 1.386 1_455 S
C1253 C1257 1.393 1_455 S
C1254 H1246 0.950 . S
C1254 C1252 1.391 . S
C1254 C1255 1.400 . S
C1255 C1254 1.400 . S
C1255 C1256 1.398 . S
C1255 C1261 1.491 . S
C1256 H1247 0.950 . S
C1256 C1255 1.398 . S
C1256 C1257 1.391 . S
C1257 H1245 0.950 . S
C1257 C1253 1.393 1_655 S
C1257 C1256 1.391 . S
C1258 H1248 0.950 1_545 S
C1258 C1259 1.386 1_545 S
C1258 C1260 1.391 . S
C1259 C1258 1.386 1_565 S
C1259 C1263 1.393 1_565 S
C1260 H1249 0.950 . S
C1260 C1258 1.391 . S
C1260 C1261 1.400 . S
C1261 C1255 1.491 . S
C1261 C1260 1.400 . S
C1261 C1262 1.398 . S
C1262 H1250 0.950 . S
C1262 C1261 1.398 . S
C1262 C1263 1.391 . S
C1263 H1251 0.950 . S
C1263 C1259 1.393 1_545 S
C1263 C1262 1.391 . S
H1264 C1272 0.950 . S
H1265 C1277 0.950 . S
H1266 C1274 0.950 . S
H1267 C1276 0.950 . S
H1268 C1278 0.950 . S
H1269 C1280 0.950 . S
H1270 C1282 0.950 . S
H1271 C1283 0.950 . S
C1272 H1264 0.950 . S
C1272 C1273 1.386 . S
C1272 C1274 1.391 . S
C1273 C1272 1.386 . S
C1273 C1277 1.393 . S
C1274 H1266 0.950 . S
C1274 C1272 1.391 . S
C1274 C1275 1.400 . S
C1275 C1274 1.400 . S
C1275 C1276 1.398 . S
C1275 C1281 1.491 . S
C1276 H1267 0.950 . S
C1276 C1275 1.398 . S
C1276 C1277 1.391 . S
C1277 H1265 0.950 . S
C1277 C1273 1.393 . S
C1277 C1276 1.391 . S
C1278 H1268 0.950 . S
C1278 C1279 1.386 . S
C1278 C1280 1.391 1_455 S
C1279 C1278 1.386 . S
C1279 C1283 1.393 1_455 S
C1280 H1269 0.950 . S
C1280 C1278 1.391 1_655 S
C1280 C1281 1.400 . S
C1281 C1275 1.491 . S
C1281 C1280 1.400 . S
C1281 C1282 1.398 . S
C1282 H1270 0.950 . S
C1282 C1281 1.398 . S
C1282 C1283 1.391 . S
C1283 H1271 0.950 . S
C1283 C1279 1.393 1_655 S
C1283 C1282 1.391 . S
H1284 C1292 0.950 . S
H1285 C1297 0.950 . S
H1286 C1294 0.950 . S
H1287 C1296 0.950 . S
H1288 C1298 0.950 . S
H1289 C1300 0.950 . S
H1290 C1302 0.950 . S
H1291 C1303 0.950 . S
C1292 H1284 0.950 . S
C1292 C1293 1.386 1_455 S
C1292 C1294 1.391 . S
C1293 C1292 1.386 1_655 S
C1293 C1297 1.393 . S
C1294 H1286 0.950 . S
C1294 C1292 1.391 . S
C1294 C1295 1.400 . S
C1295 C1294 1.400 . S
C1295 C1296 1.398 . S
C1295 C1301 1.491 . S
C1296 H1287 0.950 . S
C1296 C1295 1.398 . S
C1296 C1297 1.391 1_455 S
C1297 H1285 0.950 . S
C1297 C1293 1.393 . S
C1297 C1296 1.391 1_655 S
C1298 H1288 0.950 . S
C1298 C1299 1.386 . S
C1298 C1300 1.391 . S
C1299 C1298 1.386 . S
C1299 C1303 1.393 . S
C1300 H1289 0.950 . S
C1300 C1298 1.391 . S
C1300 C1301 1.400 . S
C1301 C1295 1.491 . S
C1301 C1300 1.400 . S
C1301 C1302 1.398 . S
C1302 H1290 0.950 . S
C1302 C1301 1.398 . S
C1302 C1303 1.391 . S
C1303 H1291 0.950 . S
C1303 C1299 1.393 . S
C1303 C1302 1.391 . S
H1304 C1312 0.950 . S
H1305 C1317 0.950 . S
H1306 C1314 0.950 . S
H1307 C1316 0.950 . S
H1308 C1318 0.950 . S
H1309 C1320 0.950 . S
H1310 C1322 0.950 . S
H1311 C1323 0.962 . S
C1312 H1304 0.950 . S
C1312 C1313 1.386 . S
C1312 C1314 1.391 . S
C1313 C1312 1.386 . S
C1313 C1317 1.393 . S
C1314 H1306 0.950 . S
C1314 C1312 1.391 . S
C1314 C1315 1.400 . S
C1315 C1314 1.400 . S
C1315 C1316 1.398 . S
C1315 C1321 1.491 . S
C1316 H1307 0.950 . S
C1316 C1315 1.398 . S
C1316 C1317 1.391 . S
C1317 H1305 0.950 . S
C1317 C1313 1.393 . S
C1317 C1316 1.391 . S
C1318 H1308 0.950 . S
C1318 C1319 1.386 1_565 S
C1318 C1320 1.391 . S
C1319 C1318 1.386 1_545 S
C1319 C1323 1.414 . S
C1320 H1309 0.950 . S
C1320 C1318 1.391 . S
C1320 C1321 1.400 . S
C1321 C1315 1.491 . S
C1321 C1320 1.400 . S
C1321 C1322 1.398 . S
C1322 H1310 0.950 . S
C1322 C1321 1.398 . S
C1322 C1323 1.358 1_565 S
C1323 H1311 0.962 . S
C1323 C1319 1.414 . S
C1323 C1322 1.358 1_545 S
H1324 C1332 0.950 . S
H1325 C1337 0.950 . S
H1326 C1334 0.950 . S
H1327 C1336 0.950 . S
H1328 C1338 0.950 . S
H1329 C1340 0.950 . S
H1330 C1342 0.950 . S
H1331 C1343 0.950 . S
C1332 H1324 0.950 . S
C1332 C1333 1.386 1_565 S
C1332 C1334 1.391 . S
C1333 C1332 1.386 1_545 S
C1333 C1337 1.393 . S
C1334 H1326 0.950 . S
C1334 C1332 1.391 . S
C1334 C1335 1.400 . S
C1335 C1334 1.400 . S
C1335 C1336 1.398 . S
C1335 C1341 1.491 . S
C1336 H1327 0.950 . S
C1336 C1335 1.398 . S
C1336 C1337 1.391 1_565 S
C1337 H1325 0.950 . S
C1337 C1333 1.393 . S
C1337 C1336 1.391 1_545 S
C1338 H1328 0.950 . S
C1338 C1339 1.386 . S
C1338 C1340 1.391 1_655 S
C1339 C1338 1.386 . S
C1339 C1343 1.393 1_655 S
C1340 H1329 0.950 . S
C1340 C1338 1.391 1_455 S
C1340 C1341 1.400 . S
C1341 C1335 1.491 . S
C1341 C1340 1.400 . S
C1341 C1342 1.398 . S
C1342 H1330 0.950 . S
C1342 C1341 1.398 . S
C1342 C1343 1.391 . S
C1343 H1331 0.950 . S
C1343 C1339 1.393 1_455 S
C1343 C1342 1.391 . S
H1344 C1352 0.950 . S
H1345 C1357 0.950 . S
H1346 C1354 0.950 . S
H1347 C1356 0.950 . S
H1348 C1358 0.950 . S
H1349 C1360 0.950 . S
H1350 C1362 0.950 . S
H1351 C1363 0.950 . S
C1352 H1344 0.950 . S
C1352 C1353 1.386 1_565 S
C1352 C1354 1.391 . S
C1353 C1352 1.386 1_545 S
C1353 C1357 1.393 . S
C1354 H1346 0.950 . S
C1354 C1352 1.391 . S
C1354 C1355 1.400 . S
C1355 C1354 1.400 . S
C1355 C1356 1.398 . S
C1355 C1361 1.491 . S
C1356 H1347 0.950 . S
C1356 C1355 1.398 . S
C1356 C1357 1.391 1_565 S
C1357 H1345 0.950 . S
C1357 C1353 1.393 . S
C1357 C1356 1.391 1_545 S
C1358 H1348 0.950 . S
C1358 C1359 1.386 . S
C1358 C1360 1.391 . S
C1359 C1358 1.386 . S
C1359 C1363 1.393 . S
C1360 H1349 0.950 . S
C1360 C1358 1.391 . S
C1360 C1361 1.400 . S
C1361 C1355 1.491 . S
C1361 C1360 1.400 . S
C1361 C1362 1.398 . S
C1362 H1350 0.950 . S
C1362 C1361 1.398 . S
C1362 C1363 1.391 . S
C1363 H1351 0.950 . S
C1363 C1359 1.393 . S
C1363 C1362 1.391 . S
H1364 C1372 0.950 . S
H1365 C1377 0.950 1_545 S
H1366 C1374 0.950 . S
H1367 C1376 0.950 . S
H1368 C1378 0.950 . S
H1369 C1380 0.950 . S
H1370 C1382 0.950 . S
H1371 C1383 0.950 . S
C1372 H1364 0.950 . S
C1372 C1373 1.386 1_565 S
C1372 C1374 1.391 . S
C1373 C1372 1.386 1_545 S
C1373 C1377 1.393 1_545 S
C1374 H1366 0.950 . S
C1374 C1372 1.391 . S
C1374 C1375 1.400 . S
C1375 C1374 1.400 . S
C1375 C1376 1.398 . S
C1375 C1381 1.491 . S
C1376 H1367 0.950 . S
C1376 C1375 1.398 . S
C1376 C1377 1.391 . S
C1377 H1365 0.950 1_565 S
C1377 C1373 1.393 1_565 S
C1377 C1376 1.391 . S
C1378 H1368 0.950 . S
C1378 C1379 1.386 . S
C1378 C1380 1.391 1_655 S
C1379 C1378 1.386 . S
C1379 C1383 1.393 1_655 S
C1380 H1369 0.950 . S
C1380 C1378 1.391 1_455 S
C1380 C1381 1.400 . S
C1381 C1375 1.491 . S
C1381 C1380 1.400 . S
C1381 C1382 1.398 . S
C1382 H1370 0.950 . S
C1382 C1381 1.398 . S
C1382 C1383 1.391 . S
C1383 H1371 0.950 . S
C1383 C1379 1.393 1_455 S
C1383 C1382 1.391 . S
H1384 C1392 0.950 . S
H1385 C1397 0.950 . S
H1386 C1394 0.950 . S
H1387 C1396 0.950 . S
H1388 C1398 0.950 1_655 S
H1389 C1400 0.950 . S
H1390 C1402 0.950 . S
H1391 C1403 0.950 . S
C1392 H1384 0.950 . S
C1392 C1393 1.386 . S
C1392 C1394 1.391 . S
C1393 C1392 1.386 . S
C1393 C1397 1.393 . S
C1394 H1386 0.950 . S
C1394 C1392 1.391 . S
C1394 C1395 1.400 . S
C1395 C1394 1.400 . S
C1395 C1396 1.398 . S
C1395 C1401 1.491 . S
C1396 H1387 0.950 . S
C1396 C1395 1.398 . S
C1396 C1397 1.391 . S
C1397 H1385 0.950 . S
C1397 C1393 1.393 . S
C1397 C1396 1.391 . S
C1398 H1388 0.950 1_455 S
C1398 C1399 1.386 1_455 S
C1398 C1400 1.391 . S
C1399 C1398 1.386 1_655 S
C1399 C1403 1.393 1_655 S
C1400 H1389 0.950 . S
C1400 C1398 1.391 . S
C1400 C1401 1.400 . S
C1401 C1395 1.491 . S
C1401 C1400 1.400 . S
C1401 C1402 1.398 . S
C1402 H1390 0.950 . S
C1402 C1401 1.398 . S
C1402 C1403 1.391 . S
C1403 H1391 0.950 . S
C1403 C1399 1.393 1_455 S
C1403 C1402 1.391 . S
H1404 C1412 0.950 . S
H1405 C1417 0.948 1_455 S
H1406 C1414 0.950 . S
H1407 C1416 0.950 . S
H1408 C1418 0.950 . S
H1409 C1420 0.950 . S
H1410 C1422 0.950 . S
H1411 C1423 0.950 . S
C1412 H1404 0.950 . S
C1412 C1413 1.386 1_655 S
C1412 C1414 1.391 . S
C1413 C1412 1.386 1_455 S
C1413 C1417 1.392 1_455 S
C1414 H1406 0.950 . S
C1414 C1412 1.391 . S
C1414 C1415 1.400 . S
C1415 C1414 1.400 . S
C1415 C1416 1.398 . S
C1415 C1421 1.491 . S
C1416 H1407 0.950 . S
C1416 C1415 1.398 . S
C1416 C1417 1.393 . S
C1417 H1405 0.948 1_655 S
C1417 C1413 1.392 1_655 S
C1417 C1416 1.393 . S
C1418 H1408 0.950 . S
C1418 C1419 1.386 . S
C1418 C1420 1.391 . S
C1419 C1418 1.386 . S
C1419 C1423 1.393 . S
C1420 H1409 0.950 . S
C1420 C1418 1.391 . S
C1420 C1421 1.400 . S
C1421 C1415 1.491 . S
C1421 C1420 1.400 . S
C1421 C1422 1.398 . S
C1422 H1410 0.950 . S
C1422 C1421 1.398 . S
C1422 C1423 1.391 . S
C1423 H1411 0.950 . S
C1423 C1419 1.393 . S
C1423 C1422 1.391 . S
H1424 C1432 0.950 1_565 S
H1425 C1437 0.950 . S
H1426 C1434 0.950 . S
H1427 C1436 0.950 . S
H1428 C1438 0.950 . S
H1429 C1440 0.950 . S
H1430 C1442 0.950 . S
H1431 C1443 0.950 . S
C1432 H1424 0.950 1_545 S
C1432 C1433 1.386 1_545 S
C1432 C1434 1.391 . S
C1433 C1432 1.386 1_565 S
C1433 C1437 1.393 1_565 S
C1434 H1426 0.950 . S
C1434 C1432 1.391 . S
C1434 C1435 1.400 . S
C1435 C1434 1.400 . S
C1435 C1436 1.398 . S
C1435 C1441 1.491 . S
C1436 H1427 0.950 . S
C1436 C1435 1.398 . S
C1436 C1437 1.391 . S
C1437 H1425 0.950 . S
C1437 C1433 1.393 1_545 S
C1437 C1436 1.391 . S
C1438 H1428 0.950 . S
C1438 C1439 1.386 . S
C1438 C1440 1.391 . S
C1439 C1438 1.386 . S
C1439 C1443 1.393 . S
C1440 H1429 0.950 . S
C1440 C1438 1.391 . S
C1440 C1441 1.400 . S
C1441 C1435 1.491 . S
C1441 C1440 1.400 . S
C1441 C1442 1.398 . S
C1442 H1430 0.950 . S
C1442 C1441 1.398 . S
C1442 C1443 1.391 . S
C1443 H1431 0.950 . S
C1443 C1439 1.393 . S
C1443 C1442 1.391 . S
H1444 C1452 0.950 . S
H1445 C1457 0.950 . S
H1446 C1454 0.950 . S
H1447 C1456 0.950 . S
H1448 C1458 0.968 . S
H1449 C1460 0.950 . S
H1450 C1462 0.950 . S
H1451 C1463 0.950 . S
C1452 H1444 0.950 . S
C1452 C1453 1.386 1_545 S
C1452 C1454 1.391 . S
C1453 C1452 1.386 1_565 S
C1453 C1457 1.393 . S
C1454 H1446 0.950 . S
C1454 C1452 1.391 . S
C1454 C1455 1.400 . S
C1455 C1454 1.400 . S
C1455 C1456 1.398 . S
C1455 C1461 1.491 . S
C1456 H1447 0.950 . S
C1456 C1455 1.398 . S
C1456 C1457 1.391 1_545 S
C1457 H1445 0.950 . S
C1457 C1453 1.393 . S
C1457 C1456 1.391 1_565 S
C1458 H1448 0.968 . S
C1458 C1459 1.379 . S
C1458 C1460 1.379 1_455 S
C1459 C1458 1.379 . S
C1459 C1463 1.393 1_455 S
C1460 H1449 0.950 . S
C1460 C1458 1.379 1_655 S
C1460 C1461 1.400 . S
C1461 C1455 1.491 . S
C1461 C1460 1.400 . S
C1461 C1462 1.398 . S
C1462 H1450 0.950 . S
C1462 C1461 1.398 . S
C1462 C1463 1.391 . S
C1463 H1451 0.950 . S
C1463 C1459 1.393 1_655 S
C1463 C1462 1.391 . S
H1464 C1472 0.950 . S
H1465 C1477 0.950 . S
H1466 C1474 0.950 . S
H1467 C1476 0.950 . S
H1468 C1478 0.950 . S
H1469 C1480 0.950 . S
H1470 C1482 0.950 . S
H1471 C1483 0.950 . S
C1472 H1464 0.950 . S
C1472 C1473 1.386 . S
C1472 C1474 1.391 . S
C1473 C1472 1.386 . S
C1473 C1477 1.393 . S
C1474 H1466 0.950 . S
C1474 C1472 1.391 . S
C1474 C1475 1.400 . S
C1475 C1474 1.400 . S
C1475 C1476 1.398 . S
C1475 C1481 1.491 . S
C1476 H1467 0.950 . S
C1476 C1475 1.398 . S
C1476 C1477 1.391 . S
C1477 H1465 0.950 . S
C1477 C1473 1.393 . S
C1477 C1476 1.391 . S
C1478 H1468 0.950 . S
C1478 C1479 1.386 . S
C1478 C1480 1.391 . S
C1479 C1478 1.386 . S
C1479 C1483 1.393 . S
C1480 H1469 0.950 . S
C1480 C1478 1.391 . S
C1480 C1481 1.400 . S
C1481 C1475 1.491 . S
C1481 C1480 1.400 . S
C1481 C1482 1.398 . S
C1482 H1470 0.950 . S
C1482 C1481 1.398 . S
C1482 C1483 1.391 . S
C1483 H1471 0.950 . S
C1483 C1479 1.393 . S
C1483 C1482 1.391 . S
H1484 C1492 0.950 . S
H1485 C1497 0.950 . S
H1486 C1494 0.950 . S
H1487 C1496 0.950 . S
H1488 C1498 0.950 . S
H1489 C1500 0.950 . S
H1490 C1502 0.950 . S
H1491 C1503 0.950 . S
C1492 H1484 0.950 . S
C1492 C1493 1.386 . S
C1492 C1494 1.391 . S
C1493 C1492 1.386 . S
C1493 C1497 1.393 . S
C1494 H1486 0.950 . S
C1494 C1492 1.391 . S
C1494 C1495 1.400 . S
C1495 C1494 1.400 . S
C1495 C1496 1.398 . S
C1495 C1501 1.491 . S
C1496 H1487 0.950 . S
C1496 C1495 1.398 . S
C1496 C1497 1.391 . S
C1497 H1485 0.950 . S
C1497 C1493 1.393 . S
C1497 C1496 1.391 . S
C1498 H1488 0.950 . S
C1498 C1499 1.386 . S
C1498 C1500 1.391 . S
C1499 C1498 1.386 . S
C1499 C1503 1.393 . S
C1500 H1489 0.950 . S
C1500 C1498 1.391 . S
C1500 C1501 1.400 . S
C1501 C1495 1.491 . S
C1501 C1500 1.400 . S
C1501 C1502 1.398 . S
C1502 H1490 0.950 . S
C1502 C1501 1.398 . S
C1502 C1503 1.391 . S
C1503 H1491 0.950 . S
C1503 C1499 1.393 . S
C1503 C1502 1.391 . S
H1504 C1512 0.950 . S
H1505 C1517 0.950 . S
H1506 C1514 0.950 . S
H1507 C1516 0.950 . S
H1508 C1518 0.950 . S
H1509 C1520 0.950 . S
H1510 C1522 0.950 . S
H1511 C1523 0.950 . S
C1512 H1504 0.950 . S
C1512 C1513 1.386 . S
C1512 C1514 1.391 . S
C1513 C1512 1.386 . S
C1513 C1517 1.393 . S
C1514 H1506 0.950 . S
C1514 C1512 1.391 . S
C1514 C1515 1.400 . S
C1515 C1514 1.400 . S
C1515 C1516 1.398 . S
C1515 C1521 1.491 . S
C1516 H1507 0.950 . S
C1516 C1515 1.398 . S
C1516 C1517 1.391 . S
C1517 H1505 0.950 . S
C1517 C1513 1.393 . S
C1517 C1516 1.391 . S
C1518 H1508 0.950 . S
C1518 C1519 1.386 . S
C1518 C1520 1.391 . S
C1519 C1518 1.386 . S
C1519 C1523 1.393 . S
C1520 H1509 0.950 . S
C1520 C1518 1.391 . S
C1520 C1521 1.400 . S
C1521 C1515 1.491 . S
C1521 C1520 1.400 . S
C1521 C1522 1.398 . S
C1522 H1510 0.950 . S
C1522 C1521 1.398 . S
C1522 C1523 1.391 . S
C1523 H1511 0.950 . S
C1523 C1519 1.393 . S
C1523 C1522 1.391 . S
H1524 C1532 0.950 . S
H1525 C1537 0.950 . S
H1526 C1534 0.950 . S
H1527 C1536 0.950 . S
H1528 C1538 0.950 . S
H1529 C1540 0.950 . S
H1530 C1542 0.950 . S
H1531 C1543 0.950 . S
C1532 H1524 0.950 . S
C1532 C1533 1.386 . S
C1532 C1534 1.391 . S
C1533 C1532 1.386 . S
C1533 C1537 1.393 . S
C1534 H1526 0.950 . S
C1534 C1532 1.391 . S
C1534 C1535 1.400 . S
C1535 C1534 1.400 . S
C1535 C1536 1.398 . S
C1535 C1541 1.491 . S
C1536 H1527 0.950 . S
C1536 C1535 1.398 . S
C1536 C1537 1.391 . S
C1537 H1525 0.950 . S
C1537 C1533 1.393 . S
C1537 C1536 1.391 . S
C1538 H1528 0.950 . S
C1538 C1539 1.386 . S
C1538 C1540 1.391 . S
C1539 C1538 1.386 . S
C1539 C1543 1.393 . S
C1540 H1529 0.950 . S
C1540 C1538 1.391 . S
C1540 C1541 1.400 . S
C1541 C1535 1.491 . S
C1541 C1540 1.400 . S
C1541 C1542 1.398 . S
C1542 H1530 0.950 . S
C1542 C1541 1.398 . S
C1542 C1543 1.391 . S
C1543 H1531 0.950 . S
C1543 C1539 1.393 . S
C1543 C1542 1.391 . S
H1544 C1552 0.950 . S
H1545 C1557 0.950 . S
H1546 C1554 0.950 . S
H1547 C1556 0.950 . S
H1548 C1558 0.950 . S
H1549 C1560 0.950 . S
H1550 C1562 0.950 . S
H1551 C1563 0.950 . S
C1552 H1544 0.950 . S
C1552 C1553 1.386 . S
C1552 C1554 1.391 . S
C1553 C1552 1.386 . S
C1553 C1557 1.393 . S
C1554 H1546 0.950 . S
C1554 C1552 1.391 . S
C1554 C1555 1.400 . S
C1555 C1554 1.400 . S
C1555 C1556 1.398 . S
C1555 C1561 1.491 . S
C1556 H1547 0.950 . S
C1556 C1555 1.398 . S
C1556 C1557 1.391 . S
C1557 H1545 0.950 . S
C1557 C1553 1.393 . S
C1557 C1556 1.391 . S
C1558 H1548 0.950 . S
C1558 C1559 1.386 . S
C1558 C1560 1.391 . S
C1559 C1558 1.386 . S
C1559 C1563 1.393 . S
C1560 H1549 0.950 . S
C1560 C1558 1.391 . S
C1560 C1561 1.400 . S
C1561 C1555 1.491 . S
C1561 C1560 1.400 . S
C1561 C1562 1.398 . S
C1562 H1550 0.950 . S
C1562 C1561 1.398 . S
C1562 C1563 1.391 . S
C1563 H1551 0.950 . S
C1563 C1559 1.393 . S
C1563 C1562 1.391 . S
H1564 C1572 0.950 . S
H1565 C1577 0.950 . S
H1566 C1574 0.950 . S
H1567 C1576 0.950 . S
H1568 C1578 0.950 . S
H1569 C1580 0.950 . S
H1570 C1582 0.950 . S
H1571 C1583 0.950 . S
C1572 H1564 0.950 . S
C1572 C1573 1.386 . S
C1572 C1574 1.391 . S
C1573 C1572 1.386 . S
C1573 C1577 1.393 . S
C1574 H1566 0.950 . S
C1574 C1572 1.391 . S
C1574 C1575 1.400 . S
C1575 C1574 1.400 . S
C1575 C1576 1.398 . S
C1575 C1581 1.491 . S
C1576 H1567 0.950 . S
C1576 C1575 1.398 . S
C1576 C1577 1.391 . S
C1577 H1565 0.950 . S
C1577 C1573 1.393 . S
C1577 C1576 1.391 . S
C1578 H1568 0.950 . S
C1578 C1579 1.386 . S
C1578 C1580 1.391 . S
C1579 C1578 1.386 . S
C1579 C1583 1.393 . S
C1580 H1569 0.950 . S
C1580 C1578 1.391 . S
C1580 C1581 1.400 . S
C1581 C1575 1.491 . S
C1581 C1580 1.400 . S
C1581 C1582 1.398 . S
C1582 H1570 0.950 . S
C1582 C1581 1.398 . S
C1582 C1583 1.391 . S
C1583 H1571 0.950 . S
C1583 C1579 1.393 . S
C1583 C1582 1.391 . S
H1584 C1592 0.950 . S
H1585 C1597 0.950 . S
H1586 C1594 0.950 . S
H1587 C1596 0.950 . S
H1588 C1598 0.950 . S
H1589 C1600 0.950 . S
H1590 C1602 0.950 . S
H1591 C1603 0.950 . S
C1592 H1584 0.950 . S
C1592 C1593 1.386 . S
C1592 C1594 1.391 . S
C1593 C1592 1.386 . S
C1593 C1597 1.393 . S
C1594 H1586 0.950 . S
C1594 C1592 1.391 . S
C1594 C1595 1.400 . S
C1595 C1594 1.400 . S
C1595 C1596 1.398 . S
C1595 C1601 1.491 . S
C1596 H1587 0.950 . S
C1596 C1595 1.398 . S
C1596 C1597 1.391 . S
C1597 H1585 0.950 . S
C1597 C1593 1.393 . S
C1597 C1596 1.391 . S
C1598 H1588 0.950 . S
C1598 C1599 1.386 . S
C1598 C1600 1.391 . S
C1599 C1598 1.386 . S
C1599 C1603 1.393 . S
C1600 H1589 0.950 . S
C1600 C1598 1.391 . S
C1600 C1601 1.400 . S
C1601 C1595 1.491 . S
C1601 C1600 1.400 . S
C1601 C1602 1.398 . S
C1602 H1590 0.950 . S
C1602 C1601 1.398 . S
C1602 C1603 1.391 . S
C1603 H1591 0.950 . S
C1603 C1599 1.393 . S
C1603 C1602 1.391 . S
H1604 C1612 0.950 . S
H1605 C1617 0.950 . S
H1606 C1614 0.950 . S
H1607 C1616 0.950 . S
H1608 C1618 0.950 . S
H1609 C1620 0.950 . S
H1610 C1622 0.950 . S
H1611 C1623 0.950 . S
C1612 H1604 0.950 . S
C1612 C1613 1.386 . S
C1612 C1614 1.391 . S
C1613 C1612 1.386 . S
C1613 C1617 1.393 . S
C1614 H1606 0.950 . S
C1614 C1612 1.391 . S
C1614 C1615 1.400 . S
C1615 C1614 1.400 . S
C1615 C1616 1.398 . S
C1615 C1621 1.491 . S
C1616 H1607 0.950 . S
C1616 C1615 1.398 . S
C1616 C1617 1.391 . S
C1617 H1605 0.950 . S
C1617 C1613 1.393 . S
C1617 C1616 1.391 . S
C1618 H1608 0.950 . S
C1618 C1619 1.386 . S
C1618 C1620 1.391 . S
C1619 C1618 1.386 . S
C1619 C1623 1.393 . S
C1620 H1609 0.950 . S
C1620 C1618 1.391 . S
C1620 C1621 1.400 . S
C1621 C1615 1.491 . S
C1621 C1620 1.400 . S
C1621 C1622 1.398 . S
C1622 H1610 0.950 . S
C1622 C1621 1.398 . S
C1622 C1623 1.391 . S
C1623 H1611 0.950 . S
C1623 C1619 1.393 . S
C1623 C1622 1.391 . S
H1624 C1632 0.950 . S
H1625 C1637 0.950 . S
H1626 C1634 0.950 . S
H1627 C1636 0.950 . S
H1628 C1638 0.950 . S
H1629 C1640 0.950 . S
H1630 C1642 0.950 . S
H1631 C1643 0.950 . S
C1632 H1624 0.950 . S
C1632 C1633 1.386 . S
C1632 C1634 1.391 . S
C1633 C1632 1.386 . S
C1633 C1637 1.393 . S
C1634 H1626 0.950 . S
C1634 C1632 1.391 . S
C1634 C1635 1.400 . S
C1635 C1634 1.400 . S
C1635 C1636 1.398 . S
C1635 C1641 1.491 . S
C1636 H1627 0.950 . S
C1636 C1635 1.398 . S
C1636 C1637 1.391 . S
C1637 H1625 0.950 . S
C1637 C1633 1.393 . S
C1637 C1636 1.391 . S
C1638 H1628 0.950 . S
C1638 C1639 1.386 . S
C1638 C1640 1.391 . S
C1639 C1638 1.386 . S
C1639 C1643 1.393 . S
C1640 H1629 0.950 . S
C1640 C1638 1.391 . S
C1640 C1641 1.400 . S
C1641 C1635 1.491 . S
C1641 C1640 1.400 . S
C1641 C1642 1.398 . S
C1642 H1630 0.950 . S
C1642 C1641 1.398 . S
C1642 C1643 1.391 . S
C1643 H1631 0.950 . S
C1643 C1639 1.393 . S
C1643 C1642 1.391 . S
H1644 C1652 0.950 . S
H1645 C1657 0.950 . S
H1646 C1654 0.950 . S
H1647 C1656 0.950 . S
H1648 C1658 0.950 . S
H1649 C1660 0.950 . S
H1650 C1662 0.950 . S
H1651 C1663 0.950 . S
C1652 H1644 0.950 . S
C1652 C1653 1.386 . S
C1652 C1654 1.391 . S
C1653 C1652 1.386 . S
C1653 C1657 1.393 . S
C1654 H1646 0.950 . S
C1654 C1652 1.391 . S
C1654 C1655 1.400 . S
C1655 C1654 1.400 . S
C1655 C1656 1.398 . S
C1655 C1661 1.491 . S
C1656 H1647 0.950 . S
C1656 C1655 1.398 . S
C1656 C1657 1.391 . S
C1657 H1645 0.950 . S
C1657 C1653 1.393 . S
C1657 C1656 1.391 . S
C1658 H1648 0.950 . S
C1658 C1659 1.386 . S
C1658 C1660 1.391 . S
C1659 C1658 1.386 . S
C1659 C1663 1.393 . S
C1660 H1649 0.950 . S
C1660 C1658 1.391 . S
C1660 C1661 1.400 . S
C1661 C1655 1.491 . S
C1661 C1660 1.400 . S
C1661 C1662 1.398 . S
C1662 H1650 0.950 . S
C1662 C1661 1.398 . S
C1662 C1663 1.391 . S
C1663 H1651 0.950 . S
C1663 C1659 1.393 . S
C1663 C1662 1.391 . S
H1664 C1672 0.950 . S
H1665 C1677 0.950 . S
H1666 C1674 0.950 . S
H1667 C1676 0.950 . S
H1668 C1678 0.950 . S
H1669 C1680 0.950 . S
H1670 C1682 0.950 . S
H1671 C1683 0.950 . S
C1672 H1664 0.950 . S
C1672 C1673 1.386 . S
C1672 C1674 1.391 . S
C1673 C1672 1.386 . S
C1673 C1677 1.393 . S
C1674 H1666 0.950 . S
C1674 C1672 1.391 . S
C1674 C1675 1.400 . S
C1675 C1674 1.400 . S
C1675 C1676 1.398 . S
C1675 C1681 1.491 . S
C1676 H1667 0.950 . S
C1676 C1675 1.398 . S
C1676 C1677 1.391 . S
C1677 H1665 0.950 . S
C1677 C1673 1.393 . S
C1677 C1676 1.391 . S
C1678 H1668 0.950 . S
C1678 C1679 1.386 . S
C1678 C1680 1.391 . S
C1679 C1678 1.386 . S
C1679 C1683 1.393 . S
C1680 H1669 0.950 . S
C1680 C1678 1.391 . S
C1680 C1681 1.400 . S
C1681 C1675 1.491 . S
C1681 C1680 1.400 . S
C1681 C1682 1.398 . S
C1682 H1670 0.950 . S
C1682 C1681 1.398 . S
C1682 C1683 1.391 . S
C1683 H1671 0.950 . S
C1683 C1679 1.393 . S
C1683 C1682 1.391 . S
H1684 C1692 0.950 . S
H1685 C1697 0.950 . S
H1686 C1694 0.950 . S
H1687 C1696 0.950 . S
H1688 C1698 0.950 . S
H1689 C1700 0.950 . S
H1690 C1702 0.950 . S
H1691 C1703 0.950 . S
C1692 H1684 0.950 . S
C1692 C1693 1.386 . S
C1692 C1694 1.391 . S
C1693 C1692 1.386 . S
C1693 C1697 1.393 . S
C1694 H1686 0.950 . S
C1694 C1692 1.391 . S
C1694 C1695 1.400 . S
C1695 C1694 1.400 . S
C1695 C1696 1.398 . S
C1695 C1701 1.491 . S
C1696 H1687 0.950 . S
C1696 C1695 1.398 . S
C1696 C1697 1.391 . S
C1697 H1685 0.950 . S
C1697 C1693 1.393 . S
C1697 C1696 1.391 . S
C1698 H1688 0.950 . S
C1698 C1699 1.386 . S
C1698 C1700 1.391 . S
C1699 C1698 1.386 . S
C1699 C1703 1.393 . S
C1700 H1689 0.950 . S
C1700 C1698 1.391 . S
C1700 C1701 1.400 . S
C1701 C1695 1.491 . S
C1701 C1700 1.400 . S
C1701 C1702 1.398 . S
C1702 H1690 0.950 . S
C1702 C1701 1.398 . S
C1702 C1703 1.391 . S
C1703 H1691 0.950 . S
C1703 C1699 1.393 . S
C1703 C1702 1.391 . S
H1704 C1712 0.950 . S
H1705 C1717 0.950 . S
H1706 C1714 0.950 . S
H1707 C1716 0.950 . S
H1708 C1718 0.950 . S
H1709 C1720 0.950 . S
H1710 C1722 0.950 . S
H1711 C1723 0.950 . S
C1712 H1704 0.950 . S
C1712 C1713 1.386 . S
C1712 C1714 1.391 . S
C1713 C1712 1.386 . S
C1713 C1717 1.393 . S
C1714 H1706 0.950 . S
C1714 C1712 1.391 . S
C1714 C1715 1.400 . S
C1715 C1714 1.400 . S
C1715 C1716 1.398 . S
C1715 C1721 1.491 . S
C1716 H1707 0.950 . S
C1716 C1715 1.398 . S
C1716 C1717 1.391 . S
C1717 H1705 0.950 . S
C1717 C1713 1.393 . S
C1717 C1716 1.391 . S
C1718 H1708 0.950 . S
C1718 C1719 1.386 . S
C1718 C1720 1.391 . S
C1719 C1718 1.386 . S
C1719 C1723 1.393 . S
C1720 H1709 0.950 . S
C1720 C1718 1.391 . S
C1720 C1721 1.400 . S
C1721 C1715 1.491 . S
C1721 C1720 1.400 . S
C1721 C1722 1.398 . S
C1722 H1710 0.950 . S
C1722 C1721 1.398 . S
C1722 C1723 1.391 . S
C1723 H1711 0.950 . S
C1723 C1719 1.393 . S
C1723 C1722 1.391 . S
H1724 C1732 0.950 . S
H1725 C1737 0.950 . S
H1726 C1734 0.950 . S
H1727 C1736 0.950 . S
H1728 C1738 0.950 . S
H1729 C1740 0.950 . S
H1730 C1742 0.950 . S
H1731 C1743 0.950 . S
C1732 H1724 0.950 . S
C1732 C1733 1.386 . S
C1732 C1734 1.391 . S
C1733 C1732 1.386 . S
C1733 C1737 1.393 . S
C1734 H1726 0.950 . S
C1734 C1732 1.391 . S
C1734 C1735 1.400 . S
C1735 C1734 1.400 . S
C1735 C1736 1.398 . S
C1735 C1741 1.491 . S
C1736 H1727 0.950 . S
C1736 C1735 1.398 . S
C1736 C1737 1.391 . S
C1737 H1725 0.950 . S
C1737 C1733 1.393 . S
C1737 C1736 1.391 . S
C1738 H1728 0.950 . S
C1738 C1739 1.386 . S
C1738 C1740 1.391 . S
C1739 C1738 1.386 . S
C1739 C1743 1.393 . S
C1740 H1729 0.950 . S
C1740 C1738 1.391 . S
C1740 C1741 1.400 . S
C1741 C1735 1.491 . S
C1741 C1740 1.400 . S
C1741 C1742 1.398 . S
C1742 H1730 0.950 . S
C1742 C1741 1.398 . S
C1742 C1743 1.391 . S
C1743 H1731 0.950 . S
C1743 C1739 1.393 . S
C1743 C1742 1.391 . S
H1744 C1752 0.950 . S
H1745 C1757 0.950 . S
H1746 C1754 0.950 . S
H1747 C1756 0.950 . S
H1748 C1758 0.950 . S
H1749 C1760 0.950 . S
H1750 C1762 0.950 . S
H1751 C1763 0.950 . S
C1752 H1744 0.950 . S
C1752 C1753 1.386 . S
C1752 C1754 1.391 . S
C1753 C1752 1.386 . S
C1753 C1757 1.393 . S
C1754 H1746 0.950 . S
C1754 C1752 1.391 . S
C1754 C1755 1.400 . S
C1755 C1754 1.400 . S
C1755 C1756 1.398 . S
C1755 C1761 1.491 . S
C1756 H1747 0.950 . S
C1756 C1755 1.398 . S
C1756 C1757 1.391 . S
C1757 H1745 0.950 . S
C1757 C1753 1.393 . S
C1757 C1756 1.391 . S
C1758 H1748 0.950 . S
C1758 C1759 1.386 . S
C1758 C1760 1.391 . S
C1759 C1758 1.386 . S
C1759 C1763 1.393 . S
C1760 H1749 0.950 . S
C1760 C1758 1.391 . S
C1760 C1761 1.400 . S
C1761 C1755 1.491 . S
C1761 C1760 1.400 . S
C1761 C1762 1.398 . S
C1762 H1750 0.950 . S
C1762 C1761 1.398 . S
C1762 C1763 1.391 . S
C1763 H1751 0.950 . S
C1763 C1759 1.393 . S
C1763 C1762 1.391 . S
H1764 C1772 0.950 . S
H1765 C1777 0.950 . S
H1766 C1774 0.950 . S
H1767 C1776 0.950 . S
H1768 C1778 0.950 . S
H1769 C1780 0.950 . S
H1770 C1782 0.950 . S
H1771 C1783 0.950 . S
C1772 H1764 0.950 . S
C1772 C1773 1.386 . S
C1772 C1774 1.391 . S
C1773 C1772 1.386 . S
C1773 C1777 1.393 . S
C1774 H1766 0.950 . S
C1774 C1772 1.391 . S
C1774 C1775 1.400 . S
C1775 C1774 1.400 . S
C1775 C1776 1.398 . S
C1775 C1781 1.491 . S
C1776 H1767 0.950 . S
C1776 C1775 1.398 . S
C1776 C1777 1.391 . S
C1777 H1765 0.950 . S
C1777 C1773 1.393 . S
C1777 C1776 1.391 . S
C1778 H1768 0.950 . S
C1778 C1779 1.386 . S
C1778 C1780 1.391 . S
C1779 C1778 1.386 . S
C1779 C1783 1.393 . S
C1780 H1769 0.950 . S
C1780 C1778 1.391 . S
C1780 C1781 1.400 . S
C1781 C1775 1.491 . S
C1781 C1780 1.400 . S
C1781 C1782 1.398 . S
C1782 H1770 0.950 . S
C1782 C1781 1.398 . S
C1782 C1783 1.391 . S
C1783 H1771 0.950 . S
C1783 C1779 1.393 . S
C1783 C1782 1.391 . S
H1784 C1792 0.950 . S
H1785 C1797 0.950 . S
H1786 C1794 0.950 . S
H1787 C1796 0.950 . S
H1788 C1798 0.950 . S
H1789 C1800 0.950 . S
H1790 C1802 0.950 . S
H1791 C1803 0.950 . S
C1792 H1784 0.950 . S
C1792 C1793 1.386 . S
C1792 C1794 1.391 . S
C1793 C1792 1.386 . S
C1793 C1797 1.393 . S
C1794 H1786 0.950 . S
C1794 C1792 1.391 . S
C1794 C1795 1.400 . S
C1795 C1794 1.400 . S
C1795 C1796 1.398 . S
C1795 C1801 1.491 . S
C1796 H1787 0.950 . S
C1796 C1795 1.398 . S
C1796 C1797 1.391 . S
C1797 H1785 0.950 . S
C1797 C1793 1.393 . S
C1797 C1796 1.391 . S
C1798 H1788 0.950 . S
C1798 C1799 1.386 . S
C1798 C1800 1.391 . S
C1799 C1798 1.386 . S
C1799 C1803 1.393 . S
C1800 H1789 0.950 . S
C1800 C1798 1.391 . S
C1800 C1801 1.400 . S
C1801 C1795 1.491 . S
C1801 C1800 1.400 . S
C1801 C1802 1.398 . S
C1802 H1790 0.950 . S
C1802 C1801 1.398 . S
C1802 C1803 1.391 . S
C1803 H1791 0.950 . S
C1803 C1799 1.393 . S
C1803 C1802 1.391 . S
H1804 C1812 0.950 . S
H1805 C1817 0.950 . S
H1806 C1814 0.950 . S
H1807 C1816 0.950 . S
H1808 C1818 0.950 . S
H1809 C1820 0.950 . S
H1810 C1822 0.950 . S
H1811 C1823 0.950 . S
C1812 H1804 0.950 . S
C1812 C1813 1.386 . S
C1812 C1814 1.391 . S
C1813 C1812 1.386 . S
C1813 C1817 1.393 . S
C1814 H1806 0.950 . S
C1814 C1812 1.391 . S
C1814 C1815 1.400 . S
C1815 C1814 1.400 . S
C1815 C1816 1.398 . S
C1815 C1821 1.491 . S
C1816 H1807 0.950 . S
C1816 C1815 1.398 . S
C1816 C1817 1.391 . S
C1817 H1805 0.950 . S
C1817 C1813 1.393 . S
C1817 C1816 1.391 . S
C1818 H1808 0.950 . S
C1818 C1819 1.386 . S
C1818 C1820 1.391 . S
C1819 C1818 1.386 . S
C1819 C1823 1.393 . S
C1820 H1809 0.950 . S
C1820 C1818 1.391 . S
C1820 C1821 1.400 . S
C1821 C1815 1.491 . S
C1821 C1820 1.400 . S
C1821 C1822 1.398 . S
C1822 H1810 0.950 . S
C1822 C1821 1.398 . S
C1822 C1823 1.391 . S
C1823 H1811 0.950 . S
C1823 C1819 1.393 . S
C1823 C1822 1.391 . S
H1824 C1832 0.950 . S
H1825 C1837 0.950 . S
H1826 C1834 0.950 . S
H1827 C1836 0.950 . S
H1828 C1838 0.950 . S
H1829 C1840 0.950 . S
H1830 C1842 0.950 . S
H1831 C1843 0.950 . S
C1832 H1824 0.950 . S
C1832 C1833 1.386 . S
C1832 C1834 1.391 . S
C1833 C1832 1.386 . S
C1833 C1837 1.393 . S
C1834 H1826 0.950 . S
C1834 C1832 1.391 . S
C1834 C1835 1.400 . S
C1835 C1834 1.400 . S
C1835 C1836 1.398 . S
C1835 C1841 1.491 . S
C1836 H1827 0.950 . S
C1836 C1835 1.398 . S
C1836 C1837 1.391 . S
C1837 H1825 0.950 . S
C1837 C1833 1.393 . S
C1837 C1836 1.391 . S
C1838 H1828 0.950 . S
C1838 C1839 1.386 . S
C1838 C1840 1.391 . S
C1839 C1838 1.386 . S
C1839 C1843 1.393 . S
C1840 H1829 0.950 . S
C1840 C1838 1.391 . S
C1840 C1841 1.400 . S
C1841 C1835 1.491 . S
C1841 C1840 1.400 . S
C1841 C1842 1.398 . S
C1842 H1830 0.950 . S
C1842 C1841 1.398 . S
C1842 C1843 1.391 . S
C1843 H1831 0.950 . S
C1843 C1839 1.393 . S
C1843 C1842 1.391 . S
H1844 C1852 0.950 . S
H1845 C1857 0.950 . S
H1846 C1854 0.950 . S
H1847 C1856 0.950 . S
H1848 C1858 0.950 . S
H1849 C1860 0.950 . S
H1850 C1862 0.950 . S
H1851 C1863 0.950 . S
C1852 H1844 0.950 . S
C1852 C1853 1.386 . S
C1852 C1854 1.391 . S
C1853 C1852 1.386 . S
C1853 C1857 1.393 . S
C1854 H1846 0.950 . S
C1854 C1852 1.391 . S
C1854 C1855 1.400 . S
C1855 C1854 1.400 . S
C1855 C1856 1.398 . S
C1855 C1861 1.491 . S
C1856 H1847 0.950 . S
C1856 C1855 1.398 . S
C1856 C1857 1.391 . S
C1857 H1845 0.950 . S
C1857 C1853 1.393 . S
C1857 C1856 1.391 . S
C1858 H1848 0.950 . S
C1858 C1859 1.386 . S
C1858 C1860 1.391 . S
C1859 C1858 1.386 . S
C1859 C1863 1.393 . S
C1860 H1849 0.950 . S
C1860 C1858 1.391 . S
C1860 C1861 1.400 . S
C1861 C1855 1.491 . S
C1861 C1860 1.400 . S
C1861 C1862 1.398 . S
C1862 H1850 0.950 . S
C1862 C1861 1.398 . S
C1862 C1863 1.391 . S
C1863 H1851 0.950 . S
C1863 C1859 1.393 . S
C1863 C1862 1.391 . S
H1864 C1872 0.950 . S
H1865 C1877 0.950 . S
H1866 C1874 0.950 . S
H1867 C1876 0.950 . S
H1868 C1878 0.950 . S
H1869 C1880 0.950 . S
H1870 C1882 0.950 . S
H1871 C1883 0.950 . S
C1872 H1864 0.950 . S
C1872 C1873 1.386 . S
C1872 C1874 1.391 . S
C1873 C1872 1.386 . S
C1873 C1877 1.393 . S
C1874 H1866 0.950 . S
C1874 C1872 1.391 . S
C1874 C1875 1.400 . S
C1875 C1874 1.400 . S
C1875 C1876 1.398 . S
C1875 C1881 1.491 . S
C1876 H1867 0.950 . S
C1876 C1875 1.398 . S
C1876 C1877 1.391 . S
C1877 H1865 0.950 . S
C1877 C1873 1.393 . S
C1877 C1876 1.391 . S
C1878 H1868 0.950 . S
C1878 C1879 1.386 . S
C1878 C1880 1.391 . S
C1879 C1878 1.386 . S
C1879 C1883 1.393 . S
C1880 H1869 0.950 . S
C1880 C1878 1.391 . S
C1880 C1881 1.400 . S
C1881 C1875 1.491 . S
C1881 C1880 1.400 . S
C1881 C1882 1.398 . S
C1882 H1870 0.950 . S
C1882 C1881 1.398 . S
C1882 C1883 1.391 . S
C1883 H1871 0.950 . S
C1883 C1879 1.393 . S
C1883 C1882 1.391 . S
H1884 C1892 0.950 . S
H1885 C1897 0.950 . S
H1886 C1894 0.950 . S
H1887 C1896 0.950 . S
H1888 C1898 0.950 . S
H1889 C1900 0.950 . S
H1890 C1902 0.950 . S
H1891 C1903 0.950 . S
C1892 H1884 0.950 . S
C1892 C1893 1.386 . S
C1892 C1894 1.391 . S
C1893 C1892 1.386 . S
C1893 C1897 1.393 . S
C1894 H1886 0.950 . S
C1894 C1892 1.391 . S
C1894 C1895 1.400 . S
C1895 C1894 1.400 . S
C1895 C1896 1.398 . S
C1895 C1901 1.491 . S
C1896 H1887 0.950 . S
C1896 C1895 1.398 . S
C1896 C1897 1.391 . S
C1897 H1885 0.950 . S
C1897 C1893 1.393 . S
C1897 C1896 1.391 . S
C1898 H1888 0.950 . S
C1898 C1899 1.386 . S
C1898 C1900 1.391 . S
C1899 C1898 1.386 . S
C1899 C1903 1.393 . S
C1900 H1889 0.950 . S
C1900 C1898 1.391 . S
C1900 C1901 1.400 . S
C1901 C1895 1.491 . S
C1901 C1900 1.400 . S
C1901 C1902 1.398 . S
C1902 H1890 0.950 . S
C1902 C1901 1.398 . S
C1902 C1903 1.391 . S
C1903 H1891 0.950 . S
C1903 C1899 1.393 . S
C1903 C1902 1.391 . S
H1904 C1912 0.950 . S
H1905 C1917 0.950 . S
H1906 C1914 0.950 . S
H1907 C1916 0.950 . S
H1908 C1918 0.950 . S
H1909 C1920 0.950 . S
H1910 C1922 0.950 . S
H1911 C1923 0.950 . S
C1912 H1904 0.950 . S
C1912 C1913 1.386 . S
C1912 C1914 1.391 . S
C1913 C1912 1.386 . S
C1913 C1917 1.393 . S
C1914 H1906 0.950 . S
C1914 C1912 1.391 . S
C1914 C1915 1.400 . S
C1915 C1914 1.400 . S
C1915 C1916 1.398 . S
C1915 C1921 1.491 . S
C1916 H1907 0.950 . S
C1916 C1915 1.398 . S
C1916 C1917 1.391 . S
C1917 H1905 0.950 . S
C1917 C1913 1.393 . S
C1917 C1916 1.391 . S
C1918 H1908 0.950 . S
C1918 C1919 1.386 . S
C1918 C1920 1.391 . S
C1919 C1918 1.386 . S
C1919 C1923 1.393 . S
C1920 H1909 0.950 . S
C1920 C1918 1.391 . S
C1920 C1921 1.400 . S
C1921 C1915 1.491 . S
C1921 C1920 1.400 . S
C1921 C1922 1.398 . S
C1922 H1910 0.950 . S
C1922 C1921 1.398 . S
C1922 C1923 1.391 . S
C1923 H1911 0.950 . S
C1923 C1919 1.393 . S
C1923 C1922 1.391 . S
H1924 C1932 0.950 . S
H1925 C1937 0.950 . S
H1926 C1934 0.950 . S
H1927 C1936 0.950 . S
H1928 C1938 0.950 . S
H1929 C1940 0.950 . S
H1930 C1942 0.950 . S
H1931 C1943 0.950 . S
C1932 H1924 0.950 . S
C1932 C1933 1.386 . S
C1932 C1934 1.391 . S
C1933 C1932 1.386 . S
C1933 C1937 1.393 . S
C1934 H1926 0.950 . S
C1934 C1932 1.391 . S
C1934 C1935 1.400 . S
C1935 C1934 1.400 . S
C1935 C1936 1.398 . S
C1935 C1941 1.491 . S
C1936 H1927 0.950 . S
C1936 C1935 1.398 . S
C1936 C1937 1.391 . S
C1937 H1925 0.950 . S
C1937 C1933 1.393 . S
C1937 C1936 1.391 . S
C1938 H1928 0.950 . S
C1938 C1939 1.386 . S
C1938 C1940 1.391 . S
C1939 C1938 1.386 . S
C1939 C1943 1.393 . S
C1940 H1929 0.950 . S
C1940 C1938 1.391 . S
C1940 C1941 1.400 . S
C1941 C1935 1.491 . S
C1941 C1940 1.400 . S
C1941 C1942 1.398 . S
C1942 H1930 0.950 . S
C1942 C1941 1.398 . S
C1942 C1943 1.391 . S
C1943 H1931 0.950 . S
C1943 C1939 1.393 . S
C1943 C1942 1.391 . S
H1944 C1952 0.950 . S
H1945 C1957 0.950 . S
H1946 C1954 0.950 . S
H1947 C1956 0.950 . S
H1948 C1958 0.950 . S
H1949 C1960 0.950 . S
H1950 C1962 0.950 . S
H1951 C1963 0.950 . S
C1952 H1944 0.950 . S
C1952 C1953 1.386 . S
C1952 C1954 1.391 . S
C1953 C1952 1.386 . S
C1953 C1957 1.393 . S
C1954 H1946 0.950 . S
C1954 C1952 1.391 . S
C1954 C1955 1.400 . S
C1955 C1954 1.400 . S
C1955 C1956 1.398 . S
C1955 C1961 1.491 . S
C1956 H1947 0.950 . S
C1956 C1955 1.398 . S
C1956 C1957 1.391 . S
C1957 H1945 0.950 . S
C1957 C1953 1.393 . S
C1957 C1956 1.391 . S
C1958 H1948 0.950 . S
C1958 C1959 1.386 . S
C1958 C1960 1.391 . S
C1959 C1958 1.386 . S
C1959 C1963 1.393 . S
C1960 H1949 0.950 . S
C1960 C1958 1.391 . S
C1960 C1961 1.400 . S
C1961 C1955 1.491 . S
C1961 C1960 1.400 . S
C1961 C1962 1.398 . S
C1962 H1950 0.950 . S
C1962 C1961 1.398 . S
C1962 C1963 1.391 . S
C1963 H1951 0.950 . S
C1963 C1959 1.393 . S
C1963 C1962 1.391 . S
H1964 C1972 0.950 . S
H1965 C1977 0.950 . S
H1966 C1974 0.950 . S
H1967 C1976 0.950 . S
H1968 C1978 0.950 . S
H1969 C1980 0.950 . S
H1970 C1982 0.950 . S
H1971 C1983 0.950 . S
C1972 H1964 0.950 . S
C1972 C1973 1.386 . S
C1972 C1974 1.391 . S
C1973 C1972 1.386 . S
C1973 C1977 1.393 . S
C1974 H1966 0.950 . S
C1974 C1972 1.391 . S
C1974 C1975 1.400 . S
C1975 C1974 1.400 . S
C1975 C1976 1.398 . S
C1975 C1981 1.491 . S
C1976 H1967 0.950 . S
C1976 C1975 1.398 . S
C1976 C1977 1.391 . S
C1977 H1965 0.950 . S
C1977 C1973 1.393 . S
C1977 C1976 1.391 . S
C1978 H1968 0.950 . S
C1978 C1979 1.386 . S
C1978 C1980 1.391 . S
C1979 C1978 1.386 . S
C1979 C1983 1.393 1_565 S
C1980 H1969 0.950 . S
C1980 C1978 1.391 . S
C1980 C1981 1.400 . S
C1981 C1975 1.491 . S
C1981 C1980 1.400 . S
C1981 C1982 1.398 . S
C1982 H1970 0.950 . S
C1982 C1981 1.398 . S
C1982 C1983 1.391 1_565 S
C1983 H1971 0.950 . S
C1983 C1979 1.393 1_545 S
C1983 C1982 1.391 1_545 S
H1984 C1992 0.950 . S
H1985 C1997 0.950 . S
H1986 C1994 0.950 . S
H1987 C1996 0.950 . S
H1988 C1998 0.950 . S
H1989 C2000 0.950 . S
H1990 C2002 0.950 . S
H1991 C2003 0.950 . S
C1992 H1984 0.950 . S
C1992 C1993 1.386 . S
C1992 C1994 1.391 . S
C1993 C1992 1.386 . S
C1993 C1997 1.393 . S
C1994 H1986 0.950 . S
C1994 C1992 1.391 . S
C1994 C1995 1.400 . S
C1995 C1994 1.400 . S
C1995 C1996 1.398 . S
C1995 C2001 1.491 . S
C1996 H1987 0.950 . S
C1996 C1995 1.398 . S
C1996 C1997 1.391 . S
C1997 H1985 0.950 . S
C1997 C1993 1.393 . S
C1997 C1996 1.391 . S
C1998 H1988 0.950 . S
C1998 C1999 1.386 . S
C1998 C2000 1.391 . S
C1999 C1998 1.386 . S
C1999 C2003 1.393 . S
C2000 H1989 0.950 . S
C2000 C1998 1.391 . S
C2000 C2001 1.400 . S
C2001 C1995 1.491 . S
C2001 C2000 1.400 . S
C2001 C2002 1.398 . S
C2002 H1990 0.950 . S
C2002 C2001 1.398 . S
C2002 C2003 1.391 . S
C2003 H1991 0.950 . S
C2003 C1999 1.393 . S
C2003 C2002 1.391 . S
H2004 C2012 0.950 . S
H2005 C2017 0.950 . S
H2006 C2014 0.950 . S
H2007 C2016 0.950 . S
H2008 C2018 0.950 . S
H2009 C2020 0.950 . S
H2010 C2022 0.950 . S
H2011 C2023 0.950 . S
C2012 H2004 0.950 . S
C2012 C2013 1.386 . S
C2012 C2014 1.391 . S
C2013 C2012 1.386 . S
C2013 C2017 1.393 . S
C2014 H2006 0.950 . S
C2014 C2012 1.391 . S
C2014 C2015 1.400 . S
C2015 C2014 1.400 . S
C2015 C2016 1.398 . S
C2015 C2021 1.491 . S
C2016 H2007 0.950 . S
C2016 C2015 1.398 . S
C2016 C2017 1.391 . S
C2017 H2005 0.950 . S
C2017 C2013 1.393 . S
C2017 C2016 1.391 . S
C2018 H2008 0.950 . S
C2018 C2019 1.386 . S
C2018 C2020 1.391 . S
C2019 C2018 1.386 . S
C2019 C2023 1.393 . S
C2020 H2009 0.950 . S
C2020 C2018 1.391 . S
C2020 C2021 1.400 . S
C2021 C2015 1.491 . S
C2021 C2020 1.400 . S
C2021 C2022 1.398 . S
C2022 H2010 0.950 . S
C2022 C2021 1.398 . S
C2022 C2023 1.391 . S
C2023 H2011 0.950 . S
C2023 C2019 1.393 . S
C2023 C2022 1.391 . S
H2024 C2032 0.950 . S
H2025 C2037 0.950 . S
H2026 C2034 0.950 . S
H2027 C2036 0.950 . S
H2028 C2038 0.950 . S
H2029 C2040 0.950 . S
H2030 C2042 0.950 . S
H2031 C2043 0.950 . S
C2032 H2024 0.950 . S
C2032 C2033 1.386 . S
C2032 C2034 1.391 . S
C2033 C2032 1.386 . S
C2033 C2037 1.393 . S
C2034 H2026 0.950 . S
C2034 C2032 1.391 . S
C2034 C2035 1.400 . S
C2035 C2034 1.400 . S
C2035 C2036 1.398 . S
C2035 C2041 1.491 . S
C2036 H2027 0.950 . S
C2036 C2035 1.398 . S
C2036 C2037 1.391 . S
C2037 H2025 0.950 . S
C2037 C2033 1.393 . S
C2037 C2036 1.391 . S
C2038 H2028 0.950 . S
C2038 C2039 1.386 . S
C2038 C2040 1.391 . S
C2039 C2038 1.386 . S
C2039 C2043 1.393 . S
C2040 H2029 0.950 . S
C2040 C2038 1.391 . S
C2040 C2041 1.400 . S
C2041 C2035 1.491 . S
C2041 C2040 1.400 . S
C2041 C2042 1.398 . S
C2042 H2030 0.950 . S
C2042 C2041 1.398 . S
C2042 C2043 1.391 . S
C2043 H2031 0.950 . S
C2043 C2039 1.393 . S
C2043 C2042 1.391 . S
H2044 C2052 0.950 . S
H2045 C2057 0.950 . S
H2046 C2054 0.950 . S
H2047 C2056 0.950 . S
H2048 C2058 0.950 . S
H2049 C2060 0.950 1_455 S
H2050 C2062 0.950 . S
H2051 C2063 0.950 . S
C2052 H2044 0.950 . S
C2052 C2053 1.386 . S
C2052 C2054 1.391 . S
C2053 C2052 1.386 . S
C2053 C2057 1.393 . S
C2054 H2046 0.950 . S
C2054 C2052 1.391 . S
C2054 C2055 1.400 . S
C2055 C2054 1.400 . S
C2055 C2056 1.398 . S
C2055 C2061 1.491 . S
C2056 H2047 0.950 . S
C2056 C2055 1.398 . S
C2056 C2057 1.391 . S
C2057 H2045 0.950 . S
C2057 C2053 1.393 . S
C2057 C2056 1.391 . S
C2058 H2048 0.950 . S
C2058 C2059 1.386 1_455 S
C2058 C2060 1.391 1_455 S
C2059 C2058 1.386 1_655 S
C2059 C2063 1.393 . S
C2060 H2049 0.950 1_655 S
C2060 C2058 1.391 1_655 S
C2060 C2061 1.400 . S
C2061 C2055 1.491 . S
C2061 C2060 1.400 . S
C2061 C2062 1.398 . S
C2062 H2050 0.950 . S
C2062 C2061 1.398 . S
C2062 C2063 1.391 . S
C2063 H2051 0.950 . S
C2063 C2059 1.393 . S
C2063 C2062 1.391 . S
H2064 C2072 0.950 . S
H2065 C2077 0.950 . S
H2066 C2074 0.950 . S
H2067 C2076 0.950 . S
H2068 C2078 0.950 . S
H2069 C2080 0.950 . S
H2070 C2082 0.950 . S
H2071 C2083 0.950 . S
C2072 H2064 0.950 . S
C2072 C2073 1.386 . S
C2072 C2074 1.391 . S
C2073 C2072 1.386 . S
C2073 C2077 1.393 . S
C2074 H2066 0.950 . S
C2074 C2072 1.391 . S
C2074 C2075 1.400 . S
C2075 C2074 1.400 . S
C2075 C2076 1.398 . S
C2075 C2081 1.491 . S
C2076 H2067 0.950 . S
C2076 C2075 1.398 . S
C2076 C2077 1.391 . S
C2077 H2065 0.950 . S
C2077 C2073 1.393 . S
C2077 C2076 1.391 . S
C2078 H2068 0.950 . S
C2078 C2079 1.386 . S
C2078 C2080 1.391 . S
C2079 C2078 1.386 . S
C2079 C2083 1.393 . S
C2080 H2069 0.950 . S
C2080 C2078 1.391 . S
C2080 C2081 1.400 . S
C2081 C2075 1.491 . S
C2081 C2080 1.400 . S
C2081 C2082 1.398 . S
C2082 H2070 0.950 . S
C2082 C2081 1.398 . S
C2082 C2083 1.391 . S
C2083 H2071 0.950 . S
C2083 C2079 1.393 . S
C2083 C2082 1.391 . S
H2084 C2092 0.950 . S
H2085 C2097 0.950 . S
H2086 C2094 0.950 . S
H2087 C2096 0.950 . S
H2088 C2098 0.950 . S
H2089 C2100 0.950 . S
H2090 C2102 0.950 1_565 S
H2091 C2103 0.950 . S
C2092 H2084 0.950 . S
C2092 C2093 1.386 . S
C2092 C2094 1.391 . S
C2093 C2092 1.386 . S
C2093 C2097 1.393 . S
C2094 H2086 0.950 . S
C2094 C2092 1.391 . S
C2094 C2095 1.400 . S
C2095 C2094 1.400 . S
C2095 C2096 1.398 . S
C2095 C2101 1.491 . S
C2096 H2087 0.950 . S
C2096 C2095 1.398 . S
C2096 C2097 1.391 . S
C2097 H2085 0.950 . S
C2097 C2093 1.393 . S
C2097 C2096 1.391 . S
C2098 H2088 0.950 . S
C2098 C2099 1.386 . S
C2098 C2100 1.391 . S
C2099 C2098 1.386 . S
C2099 C2103 1.393 1_545 S
C2100 H2089 0.950 . S
C2100 C2098 1.391 . S
C2100 C2101 1.400 . S
C2101 C2095 1.491 . S
C2101 C2100 1.400 . S
C2101 C2102 1.398 . S
C2102 H2090 0.950 1_545 S
C2102 C2101 1.398 . S
C2102 C2103 1.391 1_545 S
C2103 H2091 0.950 . S
C2103 C2099 1.393 1_565 S
C2103 C2102 1.391 1_565 S
H2104 C2112 0.950 . S
H2105 C2117 0.950 . S
H2106 C2114 0.950 . S
H2107 C2116 0.950 . S
H2108 C2118 0.950 1_455 S
H2109 C2120 0.950 . S
H2110 C2122 0.950 . S
H2111 C2123 0.950 . S
C2112 H2104 0.950 . S
C2112 C2113 1.386 . S
C2112 C2114 1.391 . S
C2113 C2112 1.386 . S
C2113 C2117 1.393 . S
C2114 H2106 0.950 . S
C2114 C2112 1.391 . S
C2114 C2115 1.400 . S
C2115 C2114 1.400 . S
C2115 C2116 1.398 . S
C2115 C2121 1.491 . S
C2116 H2107 0.950 . S
C2116 C2115 1.398 . S
C2116 C2117 1.391 . S
C2117 H2105 0.950 . S
C2117 C2113 1.393 . S
C2117 C2116 1.391 . S
C2118 H2108 0.950 1_655 S
C2118 C2119 1.386 . S
C2118 C2120 1.391 . S
C2119 C2118 1.386 . S
C2119 C2123 1.393 . S
C2120 H2109 0.950 . S
C2120 C2118 1.391 . S
C2120 C2121 1.400 . S
C2121 C2115 1.491 . S
C2121 C2120 1.400 . S
C2121 C2122 1.398 . S
C2122 H2110 0.950 . S
C2122 C2121 1.398 . S
C2122 C2123 1.391 . S
C2123 H2111 0.950 . S
C2123 C2119 1.393 . S
C2123 C2122 1.391 . S
H2124 C2132 0.950 . S
H2125 C2137 0.950 . S
H2126 C2134 0.950 . S
H2127 C2136 0.950 . S
H2128 C2138 0.950 . S
H2129 C2140 0.950 . S
H2130 C2142 0.950 . S
H2131 C2143 0.950 . S
C2132 H2124 0.950 . S
C2132 C2133 1.386 . S
C2132 C2134 1.391 . S
C2133 C2132 1.386 . S
C2133 C2137 1.393 . S
C2134 H2126 0.950 . S
C2134 C2132 1.391 . S
C2134 C2135 1.400 . S
C2135 C2134 1.400 . S
C2135 C2136 1.398 . S
C2135 C2141 1.491 . S
C2136 H2127 0.950 . S
C2136 C2135 1.398 . S
C2136 C2137 1.391 . S
C2137 H2125 0.950 . S
C2137 C2133 1.393 . S
C2137 C2136 1.391 . S
C2138 H2128 0.950 . S
C2138 C2139 1.386 . S
C2138 C2140 1.391 . S
C2139 C2138 1.386 . S
C2139 C2143 1.393 . S
C2140 H2129 0.950 . S
C2140 C2138 1.391 . S
C2140 C2141 1.400 . S
C2141 C2135 1.491 . S
C2141 C2140 1.400 . S
C2141 C2142 1.398 . S
C2142 H2130 0.950 . S
C2142 C2141 1.398 . S
C2142 C2143 1.391 . S
C2143 H2131 0.950 . S
C2143 C2139 1.393 . S
C2143 C2142 1.391 . S
H2144 C2152 0.950 . S
H2145 C2157 0.950 . S
H2146 C2154 0.950 . S
H2147 C2156 0.950 . S
H2148 C2158 0.950 . S
H2149 C2160 0.950 . S
H2150 C2162 0.950 . S
H2151 C2163 0.950 . S
C2152 H2144 0.950 . S
C2152 C2153 1.386 . S
C2152 C2154 1.391 . S
C2153 C2152 1.386 . S
C2153 C2157 1.393 . S
C2154 H2146 0.950 . S
C2154 C2152 1.391 . S
C2154 C2155 1.400 . S
C2155 C2154 1.400 . S
C2155 C2156 1.398 . S
C2155 C2161 1.491 . S
C2156 H2147 0.950 . S
C2156 C2155 1.398 . S
C2156 C2157 1.391 . S
C2157 H2145 0.950 . S
C2157 C2153 1.393 . S
C2157 C2156 1.391 . S
C2158 H2148 0.950 . S
C2158 C2159 1.386 1_545 S
C2158 C2160 1.391 1_545 S
C2159 C2158 1.386 1_565 S
C2159 C2163 1.393 . S
C2160 H2149 0.950 . S
C2160 C2158 1.391 1_565 S
C2160 C2161 1.400 . S
C2161 C2155 1.491 . S
C2161 C2160 1.400 . S
C2161 C2162 1.398 . S
C2162 H2150 0.950 . S
C2162 C2161 1.398 . S
C2162 C2163 1.391 . S
C2163 H2151 0.950 . S
C2163 C2159 1.393 . S
C2163 C2162 1.391 . S
H2164 C2172 0.950 . S
H2165 C2177 0.950 . S
H2166 C2174 0.950 . S
H2167 C2176 0.950 . S
H2168 C2178 0.950 . S
H2169 C2180 0.949 . S
H2170 C2182 0.950 . S
H2171 C2183 0.950 . S
C2172 H2164 0.950 . S
C2172 C2173 1.386 . S
C2172 C2174 1.391 . S
C2173 C2172 1.386 . S
C2173 C2177 1.393 . S
C2174 H2166 0.950 . S
C2174 C2172 1.391 . S
C2174 C2175 1.400 . S
C2175 C2174 1.400 . S
C2175 C2176 1.398 . S
C2175 C2181 1.491 . S
C2176 H2167 0.950 . S
C2176 C2175 1.398 . S
C2176 C2177 1.391 . S
C2177 H2165 0.950 . S
C2177 C2173 1.393 . S
C2177 C2176 1.391 . S
C2178 H2168 0.950 . S
C2178 C2179 1.386 1_655 S
C2178 C2180 1.391 1_655 S
C2179 C2178 1.386 1_455 S
C2179 C2183 1.393 . S
C2180 H2169 0.949 . S
C2180 C2178 1.391 1_455 S
C2180 C2181 1.400 . S
C2181 C2175 1.491 . S
C2181 C2180 1.400 . S
C2181 C2182 1.398 . S
C2182 H2170 0.950 . S
C2182 C2181 1.398 . S
C2182 C2183 1.391 . S
C2183 H2171 0.950 . S
C2183 C2179 1.393 . S
C2183 C2182 1.391 . S
H2184 C2192 0.950 . S
H2185 C2197 0.950 . S
H2186 C2194 0.950 . S
H2187 C2196 0.950 . S
H2188 C2198 0.953 . S
H2189 C2200 0.950 . S
H2190 C2202 0.950 . S
H2191 C2203 0.950 . S
C2192 H2184 0.950 . S
C2192 C2193 1.386 . S
C2192 C2194 1.391 . S
C2193 C2192 1.386 . S
C2193 C2197 1.393 . S
C2194 H2186 0.950 . S
C2194 C2192 1.391 . S
C2194 C2195 1.400 . S
C2195 C2194 1.400 . S
C2195 C2196 1.398 . S
C2195 C2201 1.491 . S
C2196 H2187 0.950 . S
C2196 C2195 1.398 . S
C2196 C2197 1.391 . S
C2197 H2185 0.950 . S
C2197 C2193 1.393 . S
C2197 C2196 1.391 . S
C2198 H2188 0.953 . S
C2198 C2199 1.386 . S
C2198 C2200 1.391 1_455 S
C2199 C2198 1.386 . S
C2199 C2203 1.393 . S
C2200 H2189 0.950 . S
C2200 C2198 1.391 1_655 S
C2200 C2201 1.400 . S
C2201 C2195 1.491 . S
C2201 C2200 1.400 . S
C2201 C2202 1.398 . S
C2202 H2190 0.950 . S
C2202 C2201 1.398 . S
C2202 C2203 1.391 1_655 S
C2203 H2191 0.950 . S
C2203 C2199 1.393 . S
C2203 C2202 1.391 1_455 S
H2204 C2212 0.950 . S
H2205 C2217 0.950 . S
H2206 C2214 0.950 . S
H2207 C2216 0.950 . S
H2208 C2218 0.950 . S
H2209 C2220 0.950 . S
H2210 C2222 0.950 . S
H2211 C2223 0.950 . S
C2212 H2204 0.950 . S
C2212 C2213 1.386 . S
C2212 C2214 1.391 . S
C2213 C2212 1.386 . S
C2213 C2217 1.393 . S
C2214 H2206 0.950 . S
C2214 C2212 1.391 . S
C2214 C2215 1.400 . S
C2215 C2214 1.400 . S
C2215 C2216 1.398 . S
C2215 C2221 1.491 . S
C2216 H2207 0.950 . S
C2216 C2215 1.398 . S
C2216 C2217 1.391 . S
C2217 H2205 0.950 . S
C2217 C2213 1.393 . S
C2217 C2216 1.391 . S
C2218 H2208 0.950 . S
C2218 C2219 1.386 . S
C2218 C2220 1.391 . S
C2219 C2218 1.386 . S
C2219 C2223 1.393 . S
C2220 H2209 0.950 . S
C2220 C2218 1.391 . S
C2220 C2221 1.400 . S
C2221 C2215 1.491 . S
C2221 C2220 1.400 . S
C2221 C2222 1.398 . S
C2222 H2210 0.950 . S
C2222 C2221 1.398 . S
C2222 C2223 1.391 . S
C2223 H2211 0.950 . S
C2223 C2219 1.393 . S
C2223 C2222 1.391 . S
H2224 C2232 0.950 . S
H2225 C2237 0.950 . S
H2226 C2234 0.950 . S
H2227 C2236 0.950 . S
H2228 C2238 0.950 . S
H2229 C2240 0.950 . S
H2230 C2242 0.950 . S
H2231 C2243 0.950 . S
C2232 H2224 0.950 . S
C2232 C2233 1.386 1_545 S
C2232 C2234 1.391 . S
C2233 C2232 1.386 1_565 S
C2233 C2237 1.393 . S
C2234 H2226 0.950 . S
C2234 C2232 1.391 . S
C2234 C2235 1.400 . S
C2235 C2234 1.400 . S
C2235 C2236 1.398 1_545 S
C2235 C2241 1.491 . S
C2236 H2227 0.950 . S
C2236 C2235 1.398 1_565 S
C2236 C2237 1.391 . S
C2237 H2225 0.950 . S
C2237 C2233 1.393 . S
C2237 C2236 1.391 . S
C2238 H2228 0.950 . S
C2238 C2239 1.386 . S
C2238 C2240 1.391 . S
C2239 C2238 1.386 . S
C2239 C2243 1.393 . S
C2240 H2229 0.950 . S
C2240 C2238 1.391 . S
C2240 C2241 1.400 . S
C2241 C2235 1.491 . S
C2241 C2240 1.400 . S
C2241 C2242 1.398 . S
C2242 H2230 0.950 . S
C2242 C2241 1.398 . S
C2242 C2243 1.391 . S
C2243 H2231 0.950 . S
C2243 C2239 1.393 . S
C2243 C2242 1.391 . S
H2244 C2252 0.950 . S
H2245 C2257 0.950 . S
H2246 C2254 0.950 . S
H2247 C2256 0.950 . S
H2248 C2258 0.950 . S
H2249 C2260 0.947 1_655 S
H2250 C2262 0.950 . S
H2251 C2263 0.950 . S
C2252 H2244 0.950 . S
C2252 C2253 1.386 1_455 S
C2252 C2254 1.391 . S
C2253 C2252 1.386 1_655 S
C2253 C2257 1.393 . S
C2254 H2246 0.950 . S
C2254 C2252 1.391 . S
C2254 C2255 1.400 . S
C2255 C2254 1.400 . S
C2255 C2256 1.398 1_455 S
C2255 C2261 1.491 . S
C2256 H2247 0.950 . S
C2256 C2255 1.398 1_655 S
C2256 C2257 1.391 . S
C2257 H2245 0.950 . S
C2257 C2253 1.393 . S
C2257 C2256 1.391 . S
C2258 H2248 0.950 . S
C2258 C2259 1.386 . S
C2258 C2260 1.391 . S
C2259 C2258 1.386 . S
C2259 C2263 1.393 . S
C2260 H2249 0.947 1_455 S
C2260 C2258 1.391 . S
C2260 C2261 1.403 . S
C2261 C2255 1.491 . S
C2261 C2260 1.403 . S
C2261 C2262 1.398 . S
C2262 H2250 0.950 . S
C2262 C2261 1.398 . S
C2262 C2263 1.391 . S
C2263 H2251 0.950 . S
C2263 C2259 1.393 . S
C2263 C2262 1.391 . S
H2264 C2272 0.950 . S
H2265 C2277 0.950 . S
H2266 C2274 0.950 . S
H2267 C2276 0.950 . S
H2268 C2278 0.950 . S
H2269 C2280 0.950 . S
H2270 C2282 0.950 . S
H2271 C2283 0.950 . S
C2272 H2264 0.950 . S
C2272 C2273 1.386 . S
C2272 C2274 1.391 . S
C2273 C2272 1.386 . S
C2273 C2277 1.393 . S
C2274 H2266 0.950 . S
C2274 C2272 1.391 . S
C2274 C2275 1.400 . S
C2275 C2274 1.400 . S
C2275 C2276 1.398 . S
C2275 C2281 1.491 . S
C2276 H2267 0.950 . S
C2276 C2275 1.398 . S
C2276 C2277 1.391 . S
C2277 H2265 0.950 . S
C2277 C2273 1.393 . S
C2277 C2276 1.391 . S
C2278 H2268 0.950 . S
C2278 C2279 1.386 . S
C2278 C2280 1.391 . S
C2279 C2278 1.386 . S
C2279 C2283 1.393 . S
C2280 H2269 0.950 . S
C2280 C2278 1.391 . S
C2280 C2281 1.400 . S
C2281 C2275 1.491 . S
C2281 C2280 1.400 . S
C2281 C2282 1.398 . S
C2282 H2270 0.950 . S
C2282 C2281 1.398 . S
C2282 C2283 1.391 . S
C2283 H2271 0.950 . S
C2283 C2279 1.393 . S
C2283 C2282 1.391 . S
H2284 C2292 0.950 . S
H2285 C2297 0.950 . S
H2286 C2294 0.950 . S
H2287 C2296 0.950 . S
H2288 C2298 0.950 1_545 S
H2289 C2300 0.950 . S
H2290 C2302 0.950 . S
H2291 C2303 0.950 . S
C2292 H2284 0.950 . S
C2292 C2293 1.386 1_565 S
C2292 C2294 1.391 . S
C2293 C2292 1.386 1_545 S
C2293 C2297 1.393 . S
C2294 H2286 0.950 . S
C2294 C2292 1.391 . S
C2294 C2295 1.400 . S
C2295 C2294 1.400 . S
C2295 C2296 1.398 1_565 S
C2295 C2301 1.491 . S
C2296 H2287 0.950 . S
C2296 C2295 1.398 1_545 S
C2296 C2297 1.391 . S
C2297 H2285 0.950 . S
C2297 C2293 1.393 . S
C2297 C2296 1.391 . S
C2298 H2288 0.950 1_565 S
C2298 C2299 1.386 . S
C2298 C2300 1.391 1_565 S
C2299 C2298 1.386 . S
C2299 C2303 1.393 . S
C2300 H2289 0.950 . S
C2300 C2298 1.391 1_545 S
C2300 C2301 1.400 1_545 S
C2301 C2295 1.491 . S
C2301 C2300 1.400 1_565 S
C2301 C2302 1.398 . S
C2302 H2290 0.950 . S
C2302 C2301 1.398 . S
C2302 C2303 1.391 . S
C2303 H2291 0.950 . S
C2303 C2299 1.393 . S
C2303 C2302 1.391 . S
H2304 C2312 0.950 . S
H2305 C2317 0.950 1_545 S
H2306 C2314 0.950 . S
H2307 C2316 0.950 . S
H2308 C2318 0.950 . S
H2309 C2320 0.950 . S
H2310 C2322 0.950 . S
H2311 C2323 0.950 . S
C2312 H2304 0.950 . S
C2312 C2313 1.386 . S
C2312 C2314 1.391 . S
C2313 C2312 1.386 . S
C2313 C2317 1.393 . S
C2314 H2306 0.950 . S
C2314 C2312 1.391 . S
C2314 C2315 1.400 . S
C2315 C2314 1.400 . S
C2315 C2316 1.398 1_565 S
C2315 C2321 1.491 . S
C2316 H2307 0.950 . S
C2316 C2315 1.398 1_545 S
C2316 C2317 1.391 1_545 S
C2317 H2305 0.950 1_565 S
C2317 C2313 1.393 . S
C2317 C2316 1.391 1_565 S
C2318 H2308 0.950 . S
C2318 C2319 1.386 . S
C2318 C2320 1.391 . S
C2319 C2318 1.386 . S
C2319 C2323 1.393 1_545 S
C2320 H2309 0.950 . S
C2320 C2318 1.391 . S
C2320 C2321 1.400 1_545 S
C2321 C2315 1.491 . S
C2321 C2320 1.400 1_565 S
C2321 C2322 1.398 . S
C2322 H2310 0.950 . S
C2322 C2321 1.398 . S
C2322 C2323 1.391 . S
C2323 H2311 0.950 . S
C2323 C2319 1.393 1_565 S
C2323 C2322 1.391 . S
H2324 C2332 0.950 . S
H2325 C2337 0.950 . S
H2326 C2334 0.950 . S
H2327 C2336 0.950 . S
H2328 C2338 0.950 . S
H2329 C2340 0.950 . S
H2330 C2342 0.955 . S
H2331 C2343 0.950 . S
C2332 H2324 0.950 . S
C2332 C2333 1.386 . S
C2332 C2334 1.391 . S
C2333 C2332 1.386 . S
C2333 C2337 1.393 1_655 S
C2334 H2326 0.950 . S
C2334 C2332 1.391 . S
C2334 C2335 1.400 1_655 S
C2335 C2334 1.400 1_455 S
C2335 C2336 1.398 . S
C2335 C2341 1.491 . S
C2336 H2327 0.950 . S
C2336 C2335 1.398 . S
C2336 C2337 1.391 . S
C2337 H2325 0.950 . S
C2337 C2333 1.393 1_455 S
C2337 C2336 1.391 . S
C2338 H2328 0.950 . S
C2338 C2339 1.386 . S
C2338 C2340 1.391 . S
C2339 C2338 1.386 . S
C2339 C2343 1.393 . S
C2340 H2329 0.950 . S
C2340 C2338 1.391 . S
C2340 C2341 1.400 . S
C2341 C2335 1.491 . S
C2341 C2340 1.400 . S
C2341 C2342 1.399 1_455 S
C2342 H2330 0.955 . S
C2342 C2341 1.399 1_655 S
C2342 C2343 1.384 1_655 S
C2343 H2331 0.950 . S
C2343 C2339 1.393 . S
C2343 C2342 1.384 1_455 S
H2344 C2352 0.950 . S
H2345 C2357 0.950 . S
H2346 C2354 0.950 . S
H2347 C2356 0.950 . S
H2348 C2358 0.950 . S
H2349 C2360 0.950 . S
H2350 C2362 0.950 . S
H2351 C2363 0.950 . S
C2352 H2344 0.950 . S
C2352 C2353 1.386 . S
C2352 C2354 1.391 . S
C2353 C2352 1.386 . S
C2353 C2357 1.393 . S
C2354 H2346 0.950 . S
C2354 C2352 1.391 . S
C2354 C2355 1.400 . S
C2355 C2354 1.400 . S
C2355 C2356 1.398 . S
C2355 C2361 1.491 . S
C2356 H2347 0.950 . S
C2356 C2355 1.398 . S
C2356 C2357 1.391 . S
C2357 H2345 0.950 . S
C2357 C2353 1.393 . S
C2357 C2356 1.391 . S
C2358 H2348 0.950 . S
C2358 C2359 1.386 . S
C2358 C2360 1.391 . S
C2359 C2358 1.386 . S
C2359 C2363 1.393 . S
C2360 H2349 0.950 . S
C2360 C2358 1.391 . S
C2360 C2361 1.400 . S
C2361 C2355 1.491 . S
C2361 C2360 1.400 . S
C2361 C2362 1.398 . S
C2362 H2350 0.950 . S
C2362 C2361 1.398 . S
C2362 C2363 1.391 . S
C2363 H2351 0.950 . S
C2363 C2359 1.393 . S
C2363 C2362 1.391 . S
H2364 C2372 0.950 . S
H2365 C2377 0.950 . S
H2366 C2374 0.954 . S
H2367 C2376 0.950 . S
H2368 C2378 0.950 . S
H2369 C2380 0.950 . S
H2370 C2382 0.950 . S
H2371 C2383 0.950 . S
C2372 H2364 0.950 . S
C2372 C2373 1.386 . S
C2372 C2374 1.386 1_566 S
C2373 C2372 1.386 . S
C2373 C2377 1.393 . S
C2374 H2366 0.954 . S
C2374 C2372 1.386 1_544 S
C2374 C2375 1.397 . S
C2375 C2374 1.397 . S
C2375 C2376 1.351 1_554 S
C2375 C2381 1.550 . S
C2376 H2367 0.950 . S
C2376 C2375 1.351 1_556 S
C2376 C2377 1.391 1_545 S
C2377 H2365 0.950 . S
C2377 C2373 1.393 . S
C2377 C2376 1.391 1_565 S
C2378 H2368 0.950 . S
C2378 C2379 1.386 . S
C2378 C2380 1.391 . S
C2379 C2378 1.386 . S
C2379 C2383 1.393 . S
C2380 H2369 0.950 . S
C2380 C2378 1.391 . S
C2380 C2381 1.400 . S
C2381 C2375 1.550 . S
C2381 C2380 1.400 . S
C2381 C2382 1.398 . S
C2382 H2370 0.950 . S
C2382 C2381 1.398 . S
C2382 C2383 1.391 . S
C2383 H2371 0.950 . S
C2383 C2379 1.393 . S
C2383 C2382 1.391 . S
H2384 C2392 0.950 . S
H2385 C2397 0.950 . S
H2386 C2394 0.950 . S
H2387 C2396 0.950 . S
H2388 C2398 0.950 . S
H2389 C2400 1.013 . S
H2390 C2402 0.950 . S
H2391 C2403 0.950 . S
C2392 H2384 0.950 . S
C2392 C2393 1.386 . S
C2392 C2394 1.391 . S
C2393 C2392 1.386 . S
C2393 C2397 1.393 . S
C2394 H2386 0.950 . S
C2394 C2392 1.391 . S
C2394 C2395 1.400 . S
C2395 C2394 1.400 . S
C2395 C2396 1.398 . S
C2395 C2401 1.550 . S
C2396 H2387 0.950 . S
C2396 C2395 1.398 . S
C2396 C2397 1.391 . S
C2397 H2385 0.950 . S
C2397 C2393 1.393 . S
C2397 C2396 1.391 . S
C2398 H2388 0.950 . S
C2398 C2399 1.386 . S
C2398 C2400 1.336 1_456 S
C2399 C2398 1.386 . S
C2399 C2403 1.393 . S
C2400 H2389 1.013 . S
C2400 C2398 1.336 1_654 S
C2400 C2401 1.400 . S
C2401 C2395 1.550 . S
C2401 C2400 1.400 . S
C2401 C2402 1.343 1_554 S
C2402 H2390 0.950 . S
C2402 C2401 1.343 1_556 S
C2402 C2403 1.391 1_655 S
C2403 H2391 0.950 . S
C2403 C2399 1.393 . S
C2403 C2402 1.391 1_455 S
H2404 C2412 0.950 . S
H2405 C2417 0.950 . S
H2406 C2414 0.950 . S
H2407 C2416 0.950 1_556 S
H2408 C2418 0.950 . S
H2409 C2420 0.950 . S
H2410 C2422 0.950 . S
H2411 C2423 0.922 1_554 S
C2412 H2404 0.950 . S
C2412 C2413 1.386 . S
C2412 C2414 1.391 . S
C2413 C2412 1.386 . S
C2413 C2417 1.393 . S
C2414 H2406 0.950 . S
C2414 C2412 1.391 . S
C2414 C2415 1.400 . S
C2415 C2414 1.400 . S
C2415 C2416 1.398 . S
C2415 C2421 1.541 . S
C2416 H2407 0.950 1_554 S
C2416 C2415 1.398 . S
C2416 C2417 1.391 . S
C2417 H2405 0.950 . S
C2417 C2413 1.393 . S
C2417 C2416 1.391 . S
C2418 H2408 0.950 . S
C2418 C2419 1.386 . S
C2418 C2420 1.391 . S
C2419 C2418 1.386 . S
C2419 C2423 1.460 . S
C2420 H2409 0.950 . S
C2420 C2418 1.391 . S
C2420 C2421 1.312 1_556 S
C2421 C2415 1.541 . S
C2421 C2420 1.312 1_554 S
C2421 C2422 1.437 . S
C2422 H2410 0.950 . S
C2422 C2421 1.437 . S
C2422 C2423 1.355 1_554 S
C2423 H2411 0.922 1_556 S
C2423 C2419 1.460 . S
C2423 C2422 1.355 1_556 S
H2424 C2432 0.950 1_565 S
H2425 C2437 0.950 . S
H2426 C2434 0.950 . S
H2427 C2436 0.950 . S
H2428 C2438 0.950 . S
H2429 C2440 0.950 . S
H2430 C2442 0.950 . S
H2431 C2443 0.950 . S
C2432 H2424 0.950 1_545 S
C2432 C2433 1.386 . S
C2432 C2434 1.391 1_545 S
C2433 C2432 1.386 . S
C2433 C2437 1.393 . S
C2434 H2426 0.950 . S
C2434 C2432 1.391 1_565 S
C2434 C2435 1.400 1_565 S
C2435 C2434 1.400 1_545 S
C2435 C2436 1.398 . S
C2435 C2441 1.491 . S
C2436 H2427 0.950 . S
C2436 C2435 1.398 . S
C2436 C2437 1.391 . S
C2437 H2425 0.950 . S
C2437 C2433 1.393 . S
C2437 C2436 1.391 . S
C2438 H2428 0.950 . S
C2438 C2439 1.386 1_545 S
C2438 C2440 1.391 . S
C2439 C2438 1.386 1_565 S
C2439 C2443 1.393 . S
C2440 H2429 0.950 . S
C2440 C2438 1.391 . S
C2440 C2441 1.400 . S
C2441 C2435 1.491 . S
C2441 C2440 1.400 . S
C2441 C2442 1.398 1_545 S
C2442 H2430 0.950 . S
C2442 C2441 1.398 1_565 S
C2442 C2443 1.391 . S
C2443 H2431 0.950 . S
C2443 C2439 1.393 . S
C2443 C2442 1.391 . S
H2444 C2452 0.950 . S
H2445 C2457 0.950 1_455 S
H2446 C2454 0.950 . S
H2447 C2456 0.950 . S
H2448 C2458 0.950 . S
H2449 C2460 0.950 . S
H2450 C2462 0.950 . S
H2451 C2463 0.950 . S
C2452 H2444 0.950 . S
C2452 C2453 1.386 . S
C2452 C2454 1.391 . S
C2453 C2452 1.386 . S
C2453 C2457 1.393 . S
C2454 H2446 0.950 . S
C2454 C2452 1.391 . S
C2454 C2455 1.400 . S
C2455 C2454 1.400 . S
C2455 C2456 1.398 1_655 S
C2455 C2461 1.491 . S
C2456 H2447 0.950 . S
C2456 C2455 1.398 1_455 S
C2456 C2457 1.391 1_455 S
C2457 H2445 0.950 1_655 S
C2457 C2453 1.393 . S
C2457 C2456 1.391 1_655 S
C2458 H2448 0.950 . S
C2458 C2459 1.386 . S
C2458 C2460 1.391 . S
C2459 C2458 1.386 . S
C2459 C2463 1.393 1_455 S
C2460 H2449 0.950 . S
C2460 C2458 1.391 . S
C2460 C2461 1.400 1_455 S
C2461 C2455 1.491 . S
C2461 C2460 1.400 1_655 S
C2461 C2462 1.398 . S
C2462 H2450 0.950 . S
C2462 C2461 1.398 . S
C2462 C2463 1.391 . S
C2463 H2451 0.950 . S
C2463 C2459 1.393 1_655 S
C2463 C2462 1.391 . S
H2464 C2472 0.950 . S
H2465 C2477 0.950 . S
H2466 C2474 0.950 . S
H2467 C2476 0.950 . S
H2468 C2478 0.950 . S
H2469 C2480 0.950 . S
H2470 C2482 0.950 . S
H2471 C2483 0.950 . S
C2472 H2464 0.950 . S
C2472 C2473 1.386 . S
C2472 C2474 1.391 . S
C2473 C2472 1.386 . S
C2473 C2477 1.393 . S
C2474 H2466 0.950 . S
C2474 C2472 1.391 . S
C2474 C2475 1.400 . S
C2475 C2474 1.400 . S
C2475 C2476 1.398 . S
C2475 C2481 1.491 . S
C2476 H2467 0.950 . S
C2476 C2475 1.398 . S
C2476 C2477 1.391 . S
C2477 H2465 0.950 . S
C2477 C2473 1.393 . S
C2477 C2476 1.391 . S
C2478 H2468 0.950 . S
C2478 C2479 1.386 . S
C2478 C2480 1.391 . S
C2479 C2478 1.386 . S
C2479 C2483 1.393 . S
C2480 H2469 0.950 . S
C2480 C2478 1.391 . S
C2480 C2481 1.400 . S
C2481 C2475 1.491 . S
C2481 C2480 1.400 . S
C2481 C2482 1.398 . S
C2482 H2470 0.950 . S
C2482 C2481 1.398 . S
C2482 C2483 1.391 . S
C2483 H2471 0.950 . S
C2483 C2479 1.393 . S
C2483 C2482 1.391 . S
H2484 C2492 0.950 . S
H2485 C2497 0.950 . S
H2486 C2494 0.950 . S
H2487 C2496 0.950 1_554 S
H2488 C2498 0.946 . S
H2489 C2500 0.950 . S
H2490 C2502 0.950 . S
H2491 C2503 0.950 1_556 S
C2492 H2484 0.950 . S
C2492 C2493 1.386 . S
C2492 C2494 1.391 . S
C2493 C2492 1.386 . S
C2493 C2497 1.393 . S
C2494 H2486 0.950 . S
C2494 C2492 1.391 . S
C2494 C2495 1.400 . S
C2495 C2494 1.400 . S
C2495 C2496 1.398 . S
C2495 C2501 1.546 . S
C2496 H2487 0.950 1_556 S
C2496 C2495 1.398 . S
C2496 C2497 1.391 . S
C2497 H2485 0.950 . S
C2497 C2493 1.393 . S
C2497 C2496 1.391 . S
C2498 H2488 0.946 . S
C2498 C2499 1.410 . S
C2498 C2500 1.371 1_545 S
C2499 C2498 1.410 . S
C2499 C2503 1.393 . S
C2500 H2489 0.950 . S
C2500 C2498 1.371 1_565 S
C2500 C2501 1.309 1_554 S
C2501 C2495 1.546 . S
C2501 C2500 1.309 1_556 S
C2501 C2502 1.437 . S
C2502 H2490 0.950 . S
C2502 C2501 1.437 . S
C2502 C2503 1.391 1_566 S
C2503 H2491 0.950 1_554 S
C2503 C2499 1.393 . S
C2503 C2502 1.391 1_544 S
H2504 C2512 0.950 . S
H2505 C2517 0.950 . S
H2506 C2514 1.003 . S
H2507 C2516 0.950 . S
H2508 C2518 0.950 . S
H2509 C2520 0.950 . S
H2510 C2522 0.950 . S
H2511 C2523 0.950 . S
C2512 H2504 0.950 . S
C2512 C2513 1.386 . S
C2512 C2514 1.343 1_654 S
C2513 C2512 1.386 . S
C2513 C2517 1.393 . S
C2514 H2506 1.003 . S
C2514 C2512 1.343 1_456 S
C2514 C2515 1.400 . S
C2515 C2514 1.400 . S
C2515 C2516 1.344 1_556 S
C2515 C2521 1.550 . S
C2516 H2507 0.950 . S
C2516 C2515 1.344 1_554 S
C2516 C2517 1.391 1_455 S
C2517 H2505 0.950 . S
C2517 C2513 1.393 . S
C2517 C2516 1.391 1_655 S
C2518 H2508 0.950 . S
C2518 C2519 1.386 . S
C2518 C2520 1.391 . S
C2519 C2518 1.386 . S
C2519 C2523 1.393 . S
C2520 H2509 0.950 . S
C2520 C2518 1.391 . S
C2520 C2521 1.400 . S
C2521 C2515 1.550 . S
C2521 C2520 1.400 . S
C2521 C2522 1.398 . S
C2522 H2510 0.950 . S
C2522 C2521 1.398 . S
C2522 C2523 1.391 . S
C2523 H2511 0.950 . S
C2523 C2519 1.393 . S
C2523 C2522 1.391 . S
H2524 C2532 0.950 . S
H2525 C2537 0.950 . S
H2526 C2534 0.950 . S
H2527 C2536 0.950 1_554 S
H2528 C2538 0.950 . S
H2529 C2540 0.950 . S
H2530 C2542 0.950 . S
H2531 C2543 0.925 1_556 S
C2532 H2524 0.950 . S
C2532 C2533 1.386 . S
C2532 C2534 1.391 . S
C2533 C2532 1.386 . S
C2533 C2537 1.393 . S
C2534 H2526 0.950 . S
C2534 C2532 1.391 . S
C2534 C2535 1.400 . S
C2535 C2534 1.400 . S
C2535 C2536 1.398 . S
C2535 C2541 1.543 . S
C2536 H2527 0.950 1_556 S
C2536 C2535 1.398 . S
C2536 C2537 1.391 . S
C2537 H2525 0.950 . S
C2537 C2533 1.393 . S
C2537 C2536 1.391 . S
C2538 H2528 0.950 . S
C2538 C2539 1.386 . S
C2538 C2540 1.391 . S
C2539 C2538 1.386 . S
C2539 C2543 1.451 . S
C2540 H2529 0.950 . S
C2540 C2538 1.391 . S
C2540 C2541 1.308 1_554 S
C2541 C2535 1.543 . S
C2541 C2540 1.308 1_556 S
C2541 C2542 1.440 . S
C2542 H2530 0.950 . S
C2542 C2541 1.440 . S
C2542 C2543 1.359 1_556 S
C2543 H2531 0.925 1_554 S
C2543 C2539 1.451 . S
C2543 C2542 1.359 1_554 S
H2544 C2552 0.950 . S
H2545 C2557 0.950 . S
H2546 C2554 0.950 . S
H2547 C2556 0.950 . S
H2548 C2558 0.950 . S
H2549 C2560 0.950 . S
H2550 C2562 0.950 . S
H2551 C2563 0.950 . S
C2552 H2544 0.950 . S
C2552 C2553 1.386 . S
C2552 C2554 1.391 1_655 S
C2553 C2552 1.386 . S
C2553 C2557 1.393 . S
C2554 H2546 0.950 . S
C2554 C2552 1.391 1_455 S
C2554 C2555 1.400 . S
C2555 C2554 1.400 . S
C2555 C2556 1.398 . S
C2555 C2561 1.491 . S
C2556 H2547 0.950 . S
C2556 C2555 1.398 . S
C2556 C2557 1.391 1_455 S
C2557 H2545 0.950 . S
C2557 C2553 1.393 . S
C2557 C2556 1.391 1_655 S
C2558 H2548 0.950 . S
C2558 C2559 1.386 . S
C2558 C2560 1.391 . S
C2559 C2558 1.386 . S
C2559 C2563 1.393 . S
C2560 H2549 0.950 . S
C2560 C2558 1.391 . S
C2560 C2561 1.400 . S
C2561 C2555 1.491 . S
C2561 C2560 1.400 . S
C2561 C2562 1.398 . S
C2562 H2550 0.950 . S
C2562 C2561 1.398 . S
C2562 C2563 1.391 . S
C2563 H2551 0.950 . S
C2563 C2559 1.393 . S
C2563 C2562 1.391 . S
H2564 C2572 0.950 . S
H2565 C2577 0.950 . S
H2566 C2574 0.950 . S
H2567 C2576 0.950 . S
H2568 C2578 0.950 . S
H2569 C2580 0.950 . S
H2570 C2582 0.950 . S
H2571 C2583 0.950 . S
C2572 H2564 0.950 . S
C2572 C2573 1.386 . S
C2572 C2574 1.391 . S
C2573 C2572 1.386 . S
C2573 C2577 1.393 . S
C2574 H2566 0.950 . S
C2574 C2572 1.391 . S
C2574 C2575 1.400 . S
C2575 C2574 1.400 . S
C2575 C2576 1.398 . S
C2575 C2581 1.491 . S
C2576 H2567 0.950 . S
C2576 C2575 1.398 . S
C2576 C2577 1.391 . S
C2577 H2565 0.950 . S
C2577 C2573 1.393 . S
C2577 C2576 1.391 . S
C2578 H2568 0.950 . S
C2578 C2579 1.386 . S
C2578 C2580 1.391 . S
C2579 C2578 1.386 . S
C2579 C2583 1.393 . S
C2580 H2569 0.950 . S
C2580 C2578 1.391 . S
C2580 C2581 1.400 . S
C2581 C2575 1.491 . S
C2581 C2580 1.400 . S
C2581 C2582 1.398 . S
C2582 H2570 0.950 . S
C2582 C2581 1.398 . S
C2582 C2583 1.391 . S
C2583 H2571 0.950 . S
C2583 C2579 1.393 . S
C2583 C2582 1.391 . S
H2584 C2592 0.950 . S
H2585 C2597 0.950 . S
H2586 C2594 0.950 . S
H2587 C2596 0.950 . S
H2588 C2598 0.950 . S
H2589 C2600 0.950 . S
H2590 C2602 0.950 . S
H2591 C2603 0.950 . S
C2592 H2584 0.950 . S
C2592 C2593 1.386 . S
C2592 C2594 1.391 . S
C2593 C2592 1.386 . S
C2593 C2597 1.393 . S
C2594 H2586 0.950 . S
C2594 C2592 1.391 . S
C2594 C2595 1.400 . S
C2595 C2594 1.400 . S
C2595 C2596 1.398 . S
C2595 C2601 1.491 . S
C2596 H2587 0.950 . S
C2596 C2595 1.398 . S
C2596 C2597 1.391 . S
C2597 H2585 0.950 . S
C2597 C2593 1.393 . S
C2597 C2596 1.391 . S
C2598 H2588 0.950 . S
C2598 C2599 1.386 . S
C2598 C2600 1.391 1_545 S
C2599 C2598 1.386 . S
C2599 C2603 1.393 . S
C2600 H2589 0.950 . S
C2600 C2598 1.391 1_565 S
C2600 C2601 1.400 . S
C2601 C2595 1.491 . S
C2601 C2600 1.400 . S
C2601 C2602 1.398 . S
C2602 H2590 0.950 . S
C2602 C2601 1.398 . S
C2602 C2603 1.391 1_565 S
C2603 H2591 0.950 . S
C2603 C2599 1.393 . S
C2603 C2602 1.391 1_545 S
H2604 C2612 0.950 . S
H2605 C2617 0.950 . S
H2606 C2614 0.950 . S
H2607 C2616 0.950 . S
H2608 C2618 0.950 . S
H2609 C2620 0.954 1_655 S
H2610 C2622 0.950 . S
H2611 C2623 0.950 . S
C2612 H2604 0.950 . S
C2612 C2613 1.386 . S
C2612 C2614 1.391 . S
C2613 C2612 1.386 . S
C2613 C2617 1.393 . S
C2614 H2606 0.950 . S
C2614 C2612 1.391 . S
C2614 C2615 1.400 . S
C2615 C2614 1.400 . S
C2615 C2616 1.398 . S
C2615 C2621 1.491 . S
C2616 H2607 0.950 . S
C2616 C2615 1.398 . S
C2616 C2617 1.391 . S
C2617 H2605 0.950 . S
C2617 C2613 1.393 . S
C2617 C2616 1.391 . S
C2618 H2608 0.950 . S
C2618 C2619 1.386 . S
C2618 C2620 1.391 . S
C2619 C2618 1.386 . S
C2619 C2623 1.393 . S
C2620 H2609 0.954 1_455 S
C2620 C2618 1.391 . S
C2620 C2621 1.400 1_455 S
C2621 C2615 1.491 . S
C2621 C2620 1.400 1_655 S
C2621 C2622 1.398 1_655 S
C2622 H2610 0.950 . S
C2622 C2621 1.398 1_455 S
C2622 C2623 1.391 . S
C2623 H2611 0.950 . S
C2623 C2619 1.393 . S
C2623 C2622 1.391 . S
H2624 C2632 0.950 . S
H2625 C2637 0.950 . S
H2626 C2634 0.950 . S
H2627 C2636 0.950 . S
H2628 C2638 0.950 . S
H2629 C2640 0.950 . S
H2630 C2642 0.950 . S
H2631 C2643 0.950 . S
C2632 H2624 0.950 . S
C2632 C2633 1.386 . S
C2632 C2634 1.391 . S
C2633 C2632 1.386 . S
C2633 C2637 1.393 . S
C2634 H2626 0.950 . S
C2634 C2632 1.391 . S
C2634 C2635 1.400 . S
C2635 C2634 1.400 . S
C2635 C2636 1.398 . S
C2635 C2641 1.491 . S
C2636 H2627 0.950 . S
C2636 C2635 1.398 . S
C2636 C2637 1.391 . S
C2637 H2625 0.950 . S
C2637 C2633 1.393 . S
C2637 C2636 1.391 . S
C2638 H2628 0.950 . S
C2638 C2639 1.386 . S
C2638 C2640 1.391 . S
C2639 C2638 1.386 . S
C2639 C2643 1.393 . S
C2640 H2629 0.950 . S
C2640 C2638 1.391 . S
C2640 C2641 1.400 . S
C2641 C2635 1.491 . S
C2641 C2640 1.400 . S
C2641 C2642 1.398 . S
C2642 H2630 0.950 . S
C2642 C2641 1.398 . S
C2642 C2643 1.391 . S
C2643 H2631 0.950 . S
C2643 C2639 1.393 . S
C2643 C2642 1.391 . S
H2644 C2652 0.950 . S
H2645 C2657 0.950 1_565 S
H2646 C2654 0.950 . S
H2647 C2656 0.950 . S
H2648 C2658 0.950 . S
H2649 C2660 0.950 . S
H2650 C2662 0.950 . S
H2651 C2663 0.950 . S
C2652 H2644 0.950 . S
C2652 C2653 1.386 . S
C2652 C2654 1.391 . S
C2653 C2652 1.386 . S
C2653 C2657 1.393 . S
C2654 H2646 0.950 . S
C2654 C2652 1.391 . S
C2654 C2655 1.400 . S
C2655 C2654 1.400 . S
C2655 C2656 1.398 1_545 S
C2655 C2661 1.491 . S
C2656 H2647 0.950 . S
C2656 C2655 1.398 1_565 S
C2656 C2657 1.391 1_565 S
C2657 H2645 0.950 1_545 S
C2657 C2653 1.393 . S
C2657 C2656 1.391 1_545 S
C2658 H2648 0.950 . S
C2658 C2659 1.386 . S
C2658 C2660 1.391 . S
C2659 C2658 1.386 . S
C2659 C2663 1.393 1_565 S
C2660 H2649 0.950 . S
C2660 C2658 1.391 . S
C2660 C2661 1.400 1_565 S
C2661 C2655 1.491 . S
C2661 C2660 1.400 1_545 S
C2661 C2662 1.398 . S
C2662 H2650 0.950 . S
C2662 C2661 1.398 . S
C2662 C2663 1.391 . S
C2663 H2651 0.950 . S
C2663 C2659 1.393 1_545 S
C2663 C2662 1.391 . S
H2664 C2672 0.950 . S
H2665 C2677 0.950 . S
H2666 C2674 0.950 . S
H2667 C2676 0.950 . S
H2668 C2678 0.950 . S
H2669 C2680 0.950 . S
H2670 C2682 0.950 . S
H2671 C2683 0.950 . S
C2672 H2664 0.950 . S
C2672 C2673 1.386 . S
C2672 C2674 1.391 . S
C2673 C2672 1.386 . S
C2673 C2677 1.393 . S
C2674 H2666 0.950 . S
C2674 C2672 1.391 . S
C2674 C2675 1.400 . S
C2675 C2674 1.400 . S
C2675 C2676 1.398 . S
C2675 C2681 1.491 1_655 S
C2676 H2667 0.950 . S
C2676 C2675 1.398 . S
C2676 C2677 1.391 . S
C2677 H2665 0.950 . S
C2677 C2673 1.393 . S
C2677 C2676 1.391 . S
C2678 H2668 0.950 . S
C2678 C2679 1.386 . S
C2678 C2680 1.391 . S
C2679 C2678 1.386 . S
C2679 C2683 1.393 . S
C2680 H2669 0.950 . S
C2680 C2678 1.391 . S
C2680 C2681 1.400 . S
C2681 C2675 1.491 1_455 S
C2681 C2680 1.400 . S
C2681 C2682 1.398 . S
C2682 H2670 0.950 . S
C2682 C2681 1.398 . S
C2682 C2683 1.391 . S
C2683 H2671 0.950 . S
C2683 C2679 1.393 . S
C2683 C2682 1.391 . S
H2684 C2692 0.950 . S
H2685 C2697 0.950 . S
H2686 C2694 0.950 . S
H2687 C2696 0.950 . S
H2688 C2698 0.950 . S
H2689 C2700 0.950 . S
H2690 C2702 0.950 . S
H2691 C2703 0.950 . S
C2692 H2684 0.950 . S
C2692 C2693 1.386 . S
C2692 C2694 1.391 . S
C2693 C2692 1.386 . S
C2693 C2697 1.393 . S
C2694 H2686 0.950 . S
C2694 C2692 1.391 . S
C2694 C2695 1.400 . S
C2695 C2694 1.400 . S
C2695 C2696 1.398 . S
C2695 C2701 1.491 . S
C2696 H2687 0.950 . S
C2696 C2695 1.398 . S
C2696 C2697 1.391 . S
C2697 H2685 0.950 . S
C2697 C2693 1.393 . S
C2697 C2696 1.391 . S
C2698 H2688 0.950 . S
C2698 C2699 1.386 . S
C2698 C2700 1.391 . S
C2699 C2698 1.386 . S
C2699 C2703 1.393 . S
C2700 H2689 0.950 . S
C2700 C2698 1.391 . S
C2700 C2701 1.400 . S
C2701 C2695 1.491 . S
C2701 C2700 1.400 . S
C2701 C2702 1.398 . S
C2702 H2690 0.950 . S
C2702 C2701 1.398 . S
C2702 C2703 1.391 . S
C2703 H2691 0.950 . S
C2703 C2699 1.393 . S
C2703 C2702 1.391 . S
H2704 C2712 0.950 . S
H2705 C2717 0.950 . S
H2706 C2714 0.950 . S
H2707 C2716 0.950 1_545 S
H2708 C2718 0.950 . S
H2709 C2720 0.950 . S
H2710 C2722 0.950 1_565 S
H2711 C2723 0.950 . S
C2712 H2704 0.950 . S
C2712 C2713 1.386 . S
C2712 C2714 1.391 . S
C2713 C2712 1.386 . S
C2713 C2717 1.393 . S
C2714 H2706 0.950 . S
C2714 C2712 1.391 . S
C2714 C2715 1.400 . S
C2715 C2714 1.400 . S
C2715 C2716 1.398 . S
C2715 C2721 1.491 1_565 S
C2716 H2707 0.950 1_565 S
C2716 C2715 1.398 . S
C2716 C2717 1.391 . S
C2717 H2705 0.950 . S
C2717 C2713 1.393 . S
C2717 C2716 1.391 . S
C2718 H2708 0.950 . S
C2718 C2719 1.386 . S
C2718 C2720 1.391 . S
C2719 C2718 1.386 . S
C2719 C2723 1.393 . S
C2720 H2709 0.950 . S
C2720 C2718 1.391 . S
C2720 C2721 1.400 . S
C2721 C2715 1.491 1_545 S
C2721 C2720 1.400 . S
C2721 C2722 1.398 . S
C2722 H2710 0.950 1_545 S
C2722 C2721 1.398 . S
C2722 C2723 1.391 . S
C2723 H2711 0.950 . S
C2723 C2719 1.393 . S
C2723 C2722 1.391 . S
H2724 C2732 0.950 . S
H2725 C2737 0.950 . S
H2726 C2734 0.950 . S
H2727 C2736 0.950 . S
H2728 C2738 0.950 . S
H2729 C2740 0.950 . S
H2730 C2742 0.950 . S
H2731 C2743 0.950 . S
C2732 H2724 0.950 . S
C2732 C2733 1.386 . S
C2732 C2734 1.391 . S
C2733 C2732 1.386 . S
C2733 C2737 1.393 . S
C2734 H2726 0.950 . S
C2734 C2732 1.391 . S
C2734 C2735 1.400 . S
C2735 C2734 1.400 . S
C2735 C2736 1.398 . S
C2735 C2741 1.491 1_655 S
C2736 H2727 0.950 . S
C2736 C2735 1.398 . S
C2736 C2737 1.391 . S
C2737 H2725 0.950 . S
C2737 C2733 1.393 . S
C2737 C2736 1.391 . S
C2738 H2728 0.950 . S
C2738 C2739 1.386 . S
C2738 C2740 1.391 . S
C2739 C2738 1.386 . S
C2739 C2743 1.393 . S
C2740 H2729 0.950 . S
C2740 C2738 1.391 . S
C2740 C2741 1.400 . S
C2741 C2735 1.491 1_455 S
C2741 C2740 1.400 . S
C2741 C2742 1.398 . S
C2742 H2730 0.950 . S
C2742 C2741 1.398 . S
C2742 C2743 1.391 . S
C2743 H2731 0.950 . S
C2743 C2739 1.393 . S
C2743 C2742 1.391 . S
H2744 C2752 0.950 . S
H2745 C2757 0.950 . S
H2746 C2754 0.950 . S
H2747 C2756 0.950 . S
H2748 C2758 0.950 . S
H2749 C2760 0.950 . S
H2750 C2762 0.950 . S
H2751 C2763 0.950 . S
C2752 H2744 0.950 . S
C2752 C2753 1.386 . S
C2752 C2754 1.391 . S
C2753 C2752 1.386 . S
C2753 C2757 1.393 . S
C2754 H2746 0.950 . S
C2754 C2752 1.391 . S
C2754 C2755 1.400 . S
C2755 C2754 1.400 . S
C2755 C2756 1.398 . S
C2755 C2761 1.491 . S
C2756 H2747 0.950 . S
C2756 C2755 1.398 . S
C2756 C2757 1.391 . S
C2757 H2745 0.950 . S
C2757 C2753 1.393 . S
C2757 C2756 1.391 . S
C2758 H2748 0.950 . S
C2758 C2759 1.386 . S
C2758 C2760 1.391 . S
C2759 C2758 1.386 . S
C2759 C2763 1.393 . S
C2760 H2749 0.950 . S
C2760 C2758 1.391 . S
C2760 C2761 1.400 . S
C2761 C2755 1.491 . S
C2761 C2760 1.400 . S
C2761 C2762 1.398 . S
C2762 H2750 0.950 . S
C2762 C2761 1.398 . S
C2762 C2763 1.391 . S
C2763 H2751 0.950 . S
C2763 C2759 1.393 . S
C2763 C2762 1.391 . S
H2764 C2772 0.950 . S
H2765 C2777 0.950 . S
H2766 C2774 0.950 . S
H2767 C2776 0.950 1_565 S
H2768 C2778 0.950 . S
H2769 C2780 0.950 . S
H2770 C2782 0.950 1_545 S
H2771 C2783 0.950 . S
C2772 H2764 0.950 . S
C2772 C2773 1.386 . S
C2772 C2774 1.391 . S
C2773 C2772 1.386 . S
C2773 C2777 1.393 . S
C2774 H2766 0.950 . S
C2774 C2772 1.391 . S
C2774 C2775 1.400 . S
C2775 C2774 1.400 . S
C2775 C2776 1.398 . S
C2775 C2781 1.491 1_545 S
C2776 H2767 0.950 1_545 S
C2776 C2775 1.398 . S
C2776 C2777 1.391 . S
C2777 H2765 0.950 . S
C2777 C2773 1.393 . S
C2777 C2776 1.391 . S
C2778 H2768 0.950 . S
C2778 C2779 1.386 . S
C2778 C2780 1.391 . S
C2779 C2778 1.386 . S
C2779 C2783 1.393 . S
C2780 H2769 0.950 . S
C2780 C2778 1.391 . S
C2780 C2781 1.400 . S
C2781 C2775 1.491 1_565 S
C2781 C2780 1.400 . S
C2781 C2782 1.398 . S
C2782 H2770 0.950 1_565 S
C2782 C2781 1.398 . S
C2782 C2783 1.391 . S
C2783 H2771 0.950 . S
C2783 C2779 1.393 . S
C2783 C2782 1.391 . S
H2784 C2792 0.950 . S
H2785 C2797 0.950 . S
H2786 C2794 0.950 . S
H2787 C2796 0.950 . S
H2788 C2798 0.950 . S
H2789 C2800 0.950 . S
H2790 C2802 0.950 . S
H2791 C2803 0.950 . S
C2792 H2784 0.950 . S
C2792 C2793 1.386 . S
C2792 C2794 1.391 . S
C2793 C2792 1.386 . S
C2793 C2797 1.393 . S
C2794 H2786 0.950 . S
C2794 C2792 1.391 . S
C2794 C2795 1.400 . S
C2795 C2794 1.400 . S
C2795 C2796 1.398 . S
C2795 C2801 1.491 . S
C2796 H2787 0.950 . S
C2796 C2795 1.398 . S
C2796 C2797 1.391 . S
C2797 H2785 0.950 . S
C2797 C2793 1.393 . S
C2797 C2796 1.391 . S
C2798 H2788 0.950 . S
C2798 C2799 1.386 . S
C2798 C2800 1.391 . S
C2799 C2798 1.386 . S
C2799 C2803 1.393 . S
C2800 H2789 0.950 . S
C2800 C2798 1.391 . S
C2800 C2801 1.400 . S
C2801 C2795 1.491 . S
C2801 C2800 1.400 . S
C2801 C2802 1.398 . S
C2802 H2790 0.950 . S
C2802 C2801 1.398 . S
C2802 C2803 1.391 . S
C2803 H2791 0.950 . S
C2803 C2799 1.393 . S
C2803 C2802 1.391 . S
H2804 C2812 0.950 . S
H2805 C2817 0.950 . S
H2806 C2814 0.950 . S
H2807 C2816 0.950 . S
H2808 C2818 0.950 . S
H2809 C2820 0.950 . S
H2810 C2822 0.950 . S
H2811 C2823 0.950 . S
C2812 H2804 0.950 . S
C2812 C2813 1.386 . S
C2812 C2814 1.391 . S
C2813 C2812 1.386 . S
C2813 C2817 1.393 . S
C2814 H2806 0.950 . S
C2814 C2812 1.391 . S
C2814 C2815 1.400 . S
C2815 C2814 1.400 . S
C2815 C2816 1.398 . S
C2815 C2821 1.491 . S
C2816 H2807 0.950 . S
C2816 C2815 1.398 . S
C2816 C2817 1.391 . S
C2817 H2805 0.950 . S
C2817 C2813 1.393 . S
C2817 C2816 1.391 . S
C2818 H2808 0.950 . S
C2818 C2819 1.386 . S
C2818 C2820 1.391 . S
C2819 C2818 1.386 . S
C2819 C2823 1.393 . S
C2820 H2809 0.950 . S
C2820 C2818 1.391 . S
C2820 C2821 1.400 . S
C2821 C2815 1.491 . S
C2821 C2820 1.400 . S
C2821 C2822 1.398 . S
C2822 H2810 0.950 . S
C2822 C2821 1.398 . S
C2822 C2823 1.391 . S
C2823 H2811 0.950 . S
C2823 C2819 1.393 . S
C2823 C2822 1.391 . S
H2824 C2832 0.950 . S
H2825 C2837 0.950 . S
H2826 C2834 0.950 . S
H2827 C2836 0.950 . S
H2828 C2838 0.950 . S
H2829 C2840 0.950 . S
H2830 C2842 0.950 . S
H2831 C2843 0.950 . S
C2832 H2824 0.950 . S
C2832 C2833 1.386 . S
C2832 C2834 1.391 . S
C2833 C2832 1.386 . S
C2833 C2837 1.393 . S
C2834 H2826 0.950 . S
C2834 C2832 1.391 . S
C2834 C2835 1.400 . S
C2835 C2834 1.400 . S
C2835 C2836 1.398 . S
C2835 C2841 1.491 . S
C2836 H2827 0.950 . S
C2836 C2835 1.398 . S
C2836 C2837 1.391 . S
C2837 H2825 0.950 . S
C2837 C2833 1.393 . S
C2837 C2836 1.391 . S
C2838 H2828 0.950 . S
C2838 C2839 1.386 . S
C2838 C2840 1.391 . S
C2839 C2838 1.386 . S
C2839 C2843 1.393 . S
C2840 H2829 0.950 . S
C2840 C2838 1.391 . S
C2840 C2841 1.400 . S
C2841 C2835 1.491 . S
C2841 C2840 1.400 . S
C2841 C2842 1.398 . S
C2842 H2830 0.950 . S
C2842 C2841 1.398 . S
C2842 C2843 1.391 . S
C2843 H2831 0.950 . S
C2843 C2839 1.393 . S
C2843 C2842 1.391 . S
H2844 C2852 0.950 . S
H2845 C2857 0.950 . S
H2846 C2854 0.950 . S
H2847 C2856 0.950 . S
H2848 C2858 0.950 . S
H2849 C2860 0.950 . S
H2850 C2862 0.950 . S
H2851 C2863 0.950 . S
C2852 H2844 0.950 . S
C2852 C2853 1.386 . S
C2852 C2854 1.391 . S
C2853 C2852 1.386 . S
C2853 C2857 1.393 . S
C2854 H2846 0.950 . S
C2854 C2852 1.391 . S
C2854 C2855 1.400 . S
C2855 C2854 1.400 . S
C2855 C2856 1.398 . S
C2855 C2861 1.491 . S
C2856 H2847 0.950 . S
C2856 C2855 1.398 . S
C2856 C2857 1.391 . S
C2857 H2845 0.950 . S
C2857 C2853 1.393 . S
C2857 C2856 1.391 . S
C2858 H2848 0.950 . S
C2858 C2859 1.386 . S
C2858 C2860 1.391 . S
C2859 C2858 1.386 . S
C2859 C2863 1.393 . S
C2860 H2849 0.950 . S
C2860 C2858 1.391 . S
C2860 C2861 1.400 . S
C2861 C2855 1.491 . S
C2861 C2860 1.400 . S
C2861 C2862 1.398 . S
C2862 H2850 0.950 . S
C2862 C2861 1.398 . S
C2862 C2863 1.391 . S
C2863 H2851 0.950 . S
C2863 C2859 1.393 . S
C2863 C2862 1.391 . S
H2864 C2872 0.950 . S
H2865 C2877 0.950 . S
H2866 C2874 0.950 . S
H2867 C2876 0.950 . S
H2868 C2878 0.950 . S
H2869 C2880 0.950 . S
H2870 C2882 0.950 . S
H2871 C2883 0.950 . S
C2872 H2864 0.950 . S
C2872 C2873 1.386 . S
C2872 C2874 1.391 . S
C2873 C2872 1.386 . S
C2873 C2877 1.393 . S
C2874 H2866 0.950 . S
C2874 C2872 1.391 . S
C2874 C2875 1.400 . S
C2875 C2874 1.400 . S
C2875 C2876 1.398 . S
C2875 C2881 1.491 . S
C2876 H2867 0.950 . S
C2876 C2875 1.398 . S
C2876 C2877 1.391 . S
C2877 H2865 0.950 . S
C2877 C2873 1.393 . S
C2877 C2876 1.391 . S
C2878 H2868 0.950 . S
C2878 C2879 1.386 . S
C2878 C2880 1.391 . S
C2879 C2878 1.386 . S
C2879 C2883 1.393 . S
C2880 H2869 0.950 . S
C2880 C2878 1.391 . S
C2880 C2881 1.400 . S
C2881 C2875 1.491 . S
C2881 C2880 1.400 . S
C2881 C2882 1.398 . S
C2882 H2870 0.950 . S
C2882 C2881 1.398 . S
C2882 C2883 1.391 . S
C2883 H2871 0.950 . S
C2883 C2879 1.393 . S
C2883 C2882 1.391 . S
H2884 C2892 0.950 . S
H2885 C2897 0.950 . S
H2886 C2894 0.950 . S
H2887 C2896 0.950 . S
H2888 C2898 0.950 . S
H2889 C2900 0.950 . S
H2890 C2902 0.950 . S
H2891 C2903 0.950 . S
C2892 H2884 0.950 . S
C2892 C2893 1.386 . S
C2892 C2894 1.391 . S
C2893 C2892 1.386 . S
C2893 C2897 1.393 . S
C2894 H2886 0.950 . S
C2894 C2892 1.391 . S
C2894 C2895 1.400 . S
C2895 C2894 1.400 . S
C2895 C2896 1.398 . S
C2895 C2901 1.491 . S
C2896 H2887 0.950 . S
C2896 C2895 1.398 . S
C2896 C2897 1.391 . S
C2897 H2885 0.950 . S
C2897 C2893 1.393 . S
C2897 C2896 1.391 . S
C2898 H2888 0.950 . S
C2898 C2899 1.386 . S
C2898 C2900 1.391 . S
C2899 C2898 1.386 . S
C2899 C2903 1.393 . S
C2900 H2889 0.950 . S
C2900 C2898 1.391 . S
C2900 C2901 1.400 . S
C2901 C2895 1.491 . S
C2901 C2900 1.400 . S
C2901 C2902 1.398 . S
C2902 H2890 0.950 . S
C2902 C2901 1.398 . S
C2902 C2903 1.391 . S
C2903 H2891 0.950 . S
C2903 C2899 1.393 . S
C2903 C2902 1.391 . S
H2904 C2912 0.950 . S
H2905 C2917 0.950 . S
H2906 C2914 0.950 . S
H2907 C2916 0.950 . S
H2908 C2918 0.950 . S
H2909 C2920 0.950 . S
H2910 C2922 0.950 . S
H2911 C2923 0.950 . S
C2912 H2904 0.950 . S
C2912 C2913 1.386 . S
C2912 C2914 1.391 . S
C2913 C2912 1.386 . S
C2913 C2917 1.393 . S
C2914 H2906 0.950 . S
C2914 C2912 1.391 . S
C2914 C2915 1.400 . S
C2915 C2914 1.400 . S
C2915 C2916 1.398 . S
C2915 C2921 1.491 . S
C2916 H2907 0.950 . S
C2916 C2915 1.398 . S
C2916 C2917 1.391 . S
C2917 H2905 0.950 . S
C2917 C2913 1.393 . S
C2917 C2916 1.391 . S
C2918 H2908 0.950 . S
C2918 C2919 1.386 . S
C2918 C2920 1.391 . S
C2919 C2918 1.386 . S
C2919 C2923 1.393 . S
C2920 H2909 0.950 . S
C2920 C2918 1.391 . S
C2920 C2921 1.400 . S
C2921 C2915 1.491 . S
C2921 C2920 1.400 . S
C2921 C2922 1.398 . S
C2922 H2910 0.950 . S
C2922 C2921 1.398 . S
C2922 C2923 1.391 . S
C2923 H2911 0.950 . S
C2923 C2919 1.393 . S
C2923 C2922 1.391 . S
H2924 C2932 0.950 . S
H2925 C2937 0.950 . S
H2926 C2934 0.950 . S
H2927 C2936 0.950 . S
H2928 C2938 0.950 . S
H2929 C2940 0.950 . S
H2930 C2942 0.950 . S
H2931 C2943 0.950 . S
C2932 H2924 0.950 . S
C2932 C2933 1.386 . S
C2932 C2934 1.391 . S
C2933 C2932 1.386 . S
C2933 C2937 1.393 . S
C2934 H2926 0.950 . S
C2934 C2932 1.391 . S
C2934 C2935 1.400 . S
C2935 C2934 1.400 . S
C2935 C2936 1.398 . S
C2935 C2941 1.491 . S
C2936 H2927 0.950 . S
C2936 C2935 1.398 . S
C2936 C2937 1.391 . S
C2937 H2925 0.950 . S
C2937 C2933 1.393 . S
C2937 C2936 1.391 . S
C2938 H2928 0.950 . S
C2938 C2939 1.386 . S
C2938 C2940 1.391 . S
C2939 C2938 1.386 . S
C2939 C2943 1.393 . S
C2940 H2929 0.950 . S
C2940 C2938 1.391 . S
C2940 C2941 1.400 . S
C2941 C2935 1.491 . S
C2941 C2940 1.400 . S
C2941 C2942 1.398 . S
C2942 H2930 0.950 . S
C2942 C2941 1.398 . S
C2942 C2943 1.391 . S
C2943 H2931 0.950 . S
C2943 C2939 1.393 . S
C2943 C2942 1.391 . S
H2944 C2952 0.950 . S
H2945 C2957 0.950 . S
H2946 C2954 0.950 . S
H2947 C2956 0.950 . S
H2948 C2958 0.950 . S
H2949 C2960 0.950 . S
H2950 C2962 0.950 . S
H2951 C2963 0.950 . S
C2952 H2944 0.950 . S
C2952 C2953 1.386 . S
C2952 C2954 1.391 . S
C2953 C2952 1.386 . S
C2953 C2957 1.393 . S
C2954 H2946 0.950 . S
C2954 C2952 1.391 . S
C2954 C2955 1.400 . S
C2955 C2954 1.400 . S
C2955 C2956 1.398 . S
C2955 C2961 1.491 . S
C2956 H2947 0.950 . S
C2956 C2955 1.398 . S
C2956 C2957 1.391 . S
C2957 H2945 0.950 . S
C2957 C2953 1.393 . S
C2957 C2956 1.391 . S
C2958 H2948 0.950 . S
C2958 C2959 1.386 . S
C2958 C2960 1.391 . S
C2959 C2958 1.386 . S
C2959 C2963 1.393 . S
C2960 H2949 0.950 . S
C2960 C2958 1.391 . S
C2960 C2961 1.400 . S
C2961 C2955 1.491 . S
C2961 C2960 1.400 . S
C2961 C2962 1.398 . S
C2962 H2950 0.950 . S
C2962 C2961 1.398 . S
C2962 C2963 1.391 . S
C2963 H2951 0.950 . S
C2963 C2959 1.393 . S
C2963 C2962 1.391 . S
H2964 C2972 0.950 . S
H2965 C2977 0.950 . S
H2966 C2974 0.950 . S
H2967 C2976 0.950 . S
H2968 C2978 0.950 . S
H2969 C2980 0.950 . S
H2970 C2982 0.950 . S
H2971 C2983 0.950 . S
C2972 H2964 0.950 . S
C2972 C2973 1.386 . S
C2972 C2974 1.391 . S
C2973 C2972 1.386 . S
C2973 C2977 1.393 . S
C2974 H2966 0.950 . S
C2974 C2972 1.391 . S
C2974 C2975 1.400 . S
C2975 C2974 1.400 . S
C2975 C2976 1.398 . S
C2975 C2981 1.491 . S
C2976 H2967 0.950 . S
C2976 C2975 1.398 . S
C2976 C2977 1.391 . S
C2977 H2965 0.950 . S
C2977 C2973 1.393 . S
C2977 C2976 1.391 . S
C2978 H2968 0.950 . S
C2978 C2979 1.386 . S
C2978 C2980 1.391 . S
C2979 C2978 1.386 . S
C2979 C2983 1.393 . S
C2980 H2969 0.950 . S
C2980 C2978 1.391 . S
C2980 C2981 1.400 . S
C2981 C2975 1.491 . S
C2981 C2980 1.400 . S
C2981 C2982 1.398 . S
C2982 H2970 0.950 . S
C2982 C2981 1.398 . S
C2982 C2983 1.391 . S
C2983 H2971 0.950 . S
C2983 C2979 1.393 . S
C2983 C2982 1.391 . S
H2984 C2992 0.950 . S
H2985 C2997 0.950 . S
H2986 C2994 0.950 . S
H2987 C2996 0.950 . S
H2988 C2998 0.950 . S
H2989 C3000 0.950 . S
H2990 C3002 0.950 . S
H2991 C3003 0.950 . S
C2992 H2984 0.950 . S
C2992 C2993 1.386 . S
C2992 C2994 1.391 . S
C2993 C2992 1.386 . S
C2993 C2997 1.393 . S
C2994 H2986 0.950 . S
C2994 C2992 1.391 . S
C2994 C2995 1.400 . S
C2995 C2994 1.400 . S
C2995 C2996 1.398 . S
C2995 C3001 1.491 . S
C2996 H2987 0.950 . S
C2996 C2995 1.398 . S
C2996 C2997 1.391 . S
C2997 H2985 0.950 . S
C2997 C2993 1.393 . S
C2997 C2996 1.391 . S
C2998 H2988 0.950 . S
C2998 C2999 1.386 . S
C2998 C3000 1.391 . S
C2999 C2998 1.386 . S
C2999 C3003 1.393 . S
C3000 H2989 0.950 . S
C3000 C2998 1.391 . S
C3000 C3001 1.400 . S
C3001 C2995 1.491 . S
C3001 C3000 1.400 . S
C3001 C3002 1.398 . S
C3002 H2990 0.950 . S
C3002 C3001 1.398 . S
C3002 C3003 1.391 . S
C3003 H2991 0.950 . S
C3003 C2999 1.393 . S
C3003 C3002 1.391 . S
H3004 C3012 0.950 . S
H3005 C3017 0.950 . S
H3006 C3014 0.950 . S
H3007 C3016 0.950 . S
H3008 C3018 0.950 . S
H3009 C3020 0.950 . S
H3010 C3022 0.950 . S
H3011 C3023 0.950 . S
C3012 H3004 0.950 . S
C3012 C3013 1.386 . S
C3012 C3014 1.391 . S
C3013 C3012 1.386 . S
C3013 C3017 1.393 . S
C3014 H3006 0.950 . S
C3014 C3012 1.391 . S
C3014 C3015 1.400 . S
C3015 C3014 1.400 . S
C3015 C3016 1.398 . S
C3015 C3021 1.491 . S
C3016 H3007 0.950 . S
C3016 C3015 1.398 . S
C3016 C3017 1.391 . S
C3017 H3005 0.950 . S
C3017 C3013 1.393 . S
C3017 C3016 1.391 . S
C3018 H3008 0.950 . S
C3018 C3019 1.386 . S
C3018 C3020 1.391 . S
C3019 C3018 1.386 . S
C3019 C3023 1.393 . S
C3020 H3009 0.950 . S
C3020 C3018 1.391 . S
C3020 C3021 1.400 . S
C3021 C3015 1.491 . S
C3021 C3020 1.400 . S
C3021 C3022 1.398 . S
C3022 H3010 0.950 . S
C3022 C3021 1.398 . S
C3022 C3023 1.391 . S
C3023 H3011 0.950 . S
C3023 C3019 1.393 . S
C3023 C3022 1.391 . S
C1233 C5 1.161 . S
C1239 C70 1.197 . S
C1253 C2 1.220 . S
C1259 C39 1.164 . S
C1273 C36 1.222 . S
C1279 C73 1.190 . S
C1293 C138 1.224 . S
C1299 C107 1.187 . S
C1313 C172 1.205 . S
C1319 C141 1.152 . S
C1333 C104 1.223 . S
C1339 C175 1.189 . S
C1353 C274 1.197 . S
C1359 C209 1.163 . S
C1373 C243 1.156 . S
C1379 C206 1.213 . S
C1393 C240 1.203 . S
C1399 C277 1.182 . S
C1413 C342 1.214 . S
C1419 C311 1.156 . S
C1433 C345 1.164 . S
C1439 C376 1.219 . S
C1453 C308 1.202 . S
C1459 C379 1.152 . S
C1473 C413 1.188 . S
C1479 C478 1.209 . S
C1493 C447 1.165 . S
C1499 C410 1.220 . S
C1513 C481 1.192 . S
C1519 C444 1.220 . S
C1533 C546 1.203 . S
C1539 C515 1.181 . S
C1553 C580 1.203 . S
C1559 C549 1.152 . S
C1573 C583 1.173 . S
C1579 C512 1.224 . S
C1593 C617 1.153 . S
C1599 C682 1.209 . S
C1613 C651 1.189 . S
C1619 C614 1.210 . S
C1633 C685 1.176 . S
C1639 C648 1.200 . S
C1653 C750 1.206 . S
C1659 C719 1.152 . S
C1673 C784 1.224 . S
C1679 C753 1.177 . S
C1693 C787 1.191 . S
C1699 C716 1.213 . S
C1713 C886 1.218 . S
C1719 C821 1.162 . S
C1733 C818 1.215 . S
C1739 C855 1.192 . S
C1753 C889 1.186 . S
C1759 C852 1.207 . S
C1773 C954 1.197 . S
C1779 C923 1.165 . S
C1793 C957 1.192 . S
C1799 C988 1.217 . S
C1813 C920 1.219 . S
C1819 C991 1.163 . S
C1833 C1090 1.217 . S
C1839 C1025 1.160 . S
C1853 C1059 1.156 . S
C1859 C1022 1.213 . S
C1873 C1093 1.167 . S
C1879 C1056 1.197 . S
C1893 C1158 1.203 . S
C1899 C1127 1.152 . S
C1913 C1192 1.198 . S
C1919 C1161 1.171 . S
C1933 C1195 1.175 . S
C1939 C1124 1.199 . S
C1953 C689 1.558 . S
C1959 C20 1.569 . S
C1973 C54 1.562 . S
C1979 C621 1.574 1_565 S
C1993 C88 1.555 . S
C1999 C655 1.558 1_455 S
C2013 C1165 1.563 . S
C2019 C122 1.572 . S
C2033 C1199 1.573 1_545 S
C2039 C156 1.567 . S
C2053 C190 1.568 . S
C2059 C1131 1.557 1_655 S
C2073 C224 1.554 . S
C2079 C893 1.559 . S
C2093 C258 1.570 . S
C2099 C825 1.559 1_545 S
C2113 C292 1.563 . S
C2119 C859 1.574 1_655 S
C2133 C553 1.561 . S
C2139 C326 1.553 . S
C2153 C360 1.561 . S
C2159 C587 1.573 1_565 S
C2173 C394 1.557 . S
C2179 C519 1.572 1_455 S
C2193 C428 1.553 . S
C2199 C1097 1.564 . S
C2213 C1029 1.569 . S
C2219 C462 1.572 . S
C2233 C1063 1.573 . S
C2239 C496 1.569 . S
C2253 C530 1.556 . S
C2259 C349 1.557 . S
C2273 C564 1.555 . S
C2279 C383 1.558 . S
C2293 C598 1.570 . S
C2299 C315 1.558 . S
C2313 C77 1.574 . S
C2319 C632 1.565 . S
C2333 C666 1.572 . S
C2339 C9 1.562 . S
C2353 C700 1.572 . S
C2359 C43 1.562 . S
C2373 C961 1.574 . S
C2379 C734 1.563 . S
C2393 C768 1.554 . S
C2399 C995 1.569 . S
C2413 C802 1.571 . S
C2419 C927 1.570 . S
C2433 C281 1.574 . S
C2439 C836 1.561 . S
C2453 C213 1.555 . S
C2459 C870 1.561 . S
C2473 C904 1.562 . S
C2479 C247 1.555 . S
C2493 C938 1.553 . S
C2499 C757 1.565 . S
C2513 C791 1.569 . S
C2519 C972 1.554 . S
C2533 C1006 1.553 . S
C2539 C723 1.562 . S
C2553 C485 1.558 . S
C2559 C1040 1.570 . S
C2573 C1074 1.555 . S
C2579 C417 1.557 . S
C2593 C1108 1.572 . S
C2599 C451 1.561 . S
C2613 C145 1.563 . S
C2619 C1142 1.553 . S
C2633 C1176 1.569 . S
C2639 C179 1.572 . S
C2653 C111 1.573 . S
C2659 C1210 1.558 . S
C2673 C169 1.392 . S
C2679 C33 1.394 . S
C2693 C67 1.386 . S
C2699 C203 1.391 . S
C2713 C101 1.376 . S
C2719 C135 1.368 . S
C2733 C237 1.391 . S
C2739 C373 1.394 . S
C2753 C271 1.375 . S
C2759 C407 1.383 . S
C2773 C305 1.381 . S
C2779 C339 1.387 . S
C2793 C577 1.375 . S
C2799 C441 1.367 . S
C2813 C611 1.371 . S
C2819 C475 1.379 . S
C2833 C543 1.392 . S
C2839 C509 1.388 . S
C2853 C781 1.388 . S
C2859 C645 1.381 . S
C2873 C815 1.366 . S
C2879 C679 1.361 . S
C2893 C747 1.359 . S
C2899 C713 1.358 . S
C2913 C985 1.369 . S
C2919 C849 1.363 . S
C2933 C883 1.394 . S
C2939 C1019 1.393 . S
C2953 C951 1.358 . S
C2959 C917 1.360 . S
C2973 C1189 1.364 . S
C2979 C1053 1.359 . S
C2993 C1223 1.393 . S
C2999 C1087 1.394 . S
C3013 C1121 1.385 . S
C3019 C1155 1.391 . S
