# Generated by pormake.
# Topology umf, (4)-cn, num edge types: 1
# Building blocks:
#     Node 0, Type 0, BuildingBlock: ESEHIV_clean_sbu_0, # of connection points: 4
#     Node 1, Type 0, BuildingBlock: ESEHIV_clean_sbu_0, # of connection points: 4
#     Node 2, Type 0, BuildingBlock: ESEHIV_clean_sbu_0, # of connection points: 4
#     Node 3, Type 0, BuildingBlock: ESEHIV_clean_sbu_0, # of connection points: 4
#     Node 4, Type 0, BuildingBlock: ESEHIV_clean_sbu_0, # of connection points: 4
#     Node 5, Type 0, BuildingBlock: ESEHIV_clean_sbu_0, # of connection points: 4
#     Node 6, Type 0, BuildingBlock: ESEHIV_clean_sbu_0, # of connection points: 4
#     Node 7, Type 0, BuildingBlock: ESEHIV_clean_sbu_0, # of connection points: 4
#     Edge 8, Type (0, 0), BuildingBlock: CIFDUS_clean_linker_0, # of connection points: 2
#     Edge 9, Type (0, 0), BuildingBlock: CIFDUS_clean_linker_0, # of connection points: 2
#     Edge 10, Type (0, 0), BuildingBlock: CIFDUS_clean_linker_0, # of connection points: 2
#     Edge 11, Type (0, 0), BuildingBlock: CIFDUS_clean_linker_0, # of connection points: 2
#     Edge 12, Type (0, 0), BuildingBlock: CIFDUS_clean_linker_0, # of connection points: 2
#     Edge 13, Type (0, 0), BuildingBlock: CIFDUS_clean_linker_0, # of connection points: 2
#     Edge 14, Type (0, 0), BuildingBlock: CIFDUS_clean_linker_0, # of connection points: 2
#     Edge 15, Type (0, 0), BuildingBlock: CIFDUS_clean_linker_0, # of connection points: 2
#     Edge 16, Type (0, 0), BuildingBlock: CIFDUS_clean_linker_0, # of connection points: 2
#     Edge 17, Type (0, 0), BuildingBlock: CIFDUS_clean_linker_0, # of connection points: 2
#     Edge 18, Type (0, 0), BuildingBlock: CIFDUS_clean_linker_0, # of connection points: 2
#     Edge 19, Type (0, 0), BuildingBlock: CIFDUS_clean_linker_0, # of connection points: 2
#     Edge 20, Type (0, 0), BuildingBlock: CIFDUS_clean_linker_0, # of connection points: 2
#     Edge 21, Type (0, 0), BuildingBlock: CIFDUS_clean_linker_0, # of connection points: 2
#     Edge 22, Type (0, 0), BuildingBlock: CIFDUS_clean_linker_0, # of connection points: 2
#     Edge 23, Type (0, 0), BuildingBlock: CIFDUS_clean_linker_0, # of connection points: 2
# Relax obj value: 0.067
# Max RMSD: 0.105
# Mean RMSD: 0.105
data_MOF--net-umf--node1-ESEHIV_clean_sbu_0--edge1-CIFDUS_clean_linker_0
_symmetry_space_group_name_H-M    P1
_symmetry_Int_Tables_number       1
_symmetry_cell_setting            triclinic
loop_
_symmetry_equiv_pos_as_xyz
'x, y, z'
_cell_length_a     30.418741
_cell_length_b     30.168692
_cell_length_c     44.115073
_cell_angle_alpha  90.651485
_cell_angle_beta   90.434447
_cell_angle_gamma 90.690418
loop_
_atom_site_label
_atom_site_type_symbol
_atom_site_fract_x
_atom_site_fract_y
_atom_site_fract_z
_atom_type_partial_charge
Cu0 Cu 0.0408 0.27812 0.18635 0.0
N1 N 1.00941 0.22499 0.18598 0.0
N2 N 0.99405 0.15268 0.18757 0.0
C3 C 0.02579 0.1842 0.18949 0.0
C4 C 0.95628 0.17464 0.18268 0.0
C5 C 0.9659 0.2192 0.18161 0.0
O6 O 0.08605 0.27419 0.2175 0.0
C7 C 0.02952 0.29223 0.12531 0.0
O8 O 0.98862 0.29285 0.13463 0.0
H9 H 0.06036 0.17778 0.19277 0.0
H10 H 0.94277 0.24553 0.17782 0.0
N11 N 1.00305 0.32243 0.19895 0.0
N12 N 0.97483 0.38881 0.20874 0.0
C13 C 1.00562 0.36609 0.19333 0.0
C14 C 0.96973 0.31736 0.21852 0.0
C15 C 0.95209 0.35819 0.22448 0.0
C16 C 0.12054 0.25078 0.2169 0.0
O17 O 0.13146 0.23047 0.1916 0.0
H18 H 0.03086 0.38103 0.17946 0.0
H19 H 0.95992 0.28629 0.22857 0.0
O20 O 0.06013 0.28824 0.14498 0.0
H21 H 0.92389 0.15974 0.18029 0.0
H22 H 0.92522 0.36489 0.23974 0.0
Cu23 Cu 0.75878 0.05159 0.69108 0.0
N24 N 0.80402 1.01134 0.69707 0.0
N25 N 0.87345 0.98898 0.7027 0.0
C26 C 0.84657 0.02374 0.69874 0.0
C27 C 0.84643 0.95308 0.70339 0.0
C28 C 0.80359 0.967 0.69989 0.0
O29 O 0.7784 0.10391 0.71439 0.0
C30 C 0.74655 0.02725 0.6305 0.0
O31 O 0.74062 0.98851 0.64324 0.0
H32 H 0.85746 0.05777 0.69627 0.0
H33 H 0.77442 0.94618 0.69904 0.0
N34 N 0.70436 0.0301 0.70492 0.0
N35 N 0.63153 0.02082 0.70979 0.0
C36 C 0.6642 0.04448 0.69669 0.0
C37 C 0.69681 0.99641 0.72401 0.0
C38 C 0.65202 0.99053 0.72698 0.0
C39 C 0.78219 0.09912 0.743 0.0
O40 O 0.76735 0.06221 0.75495 0.0
H41 H 0.65909 0.07129 0.681 0.0
H42 H 0.72208 0.97752 0.73514 0.0
O43 O 0.7544 0.06104 0.64747 0.0
H44 H 0.85669 0.91916 0.70618 0.0
H45 H 0.63582 0.96632 0.74112 0.0
Cu46 Cu 0.92653 0.7714 0.17718 0.0
N47 N 0.96218 0.81962 0.18787 0.0
N48 N 0.98198 0.89108 0.18966 0.0
C49 C 0.95768 0.85954 0.17526 0.0
C50 C 1.00369 0.86964 0.21181 0.0
C51 C 0.99146 0.82552 0.21063 0.0
O52 O 0.87304 0.77958 0.20043 0.0
C53 C 0.91245 0.74953 0.11109 0.0
O54 O 0.89728 0.70949 0.1165 0.0
H55 H 0.93562 0.86526 0.15642 0.0
H56 H 1.00198 0.80029 0.22612 0.0
N57 N 0.95227 0.72011 0.19167 0.0
N58 N 0.97069 0.64974 0.19921 0.0
C59 C 0.95718 0.67978 0.17874 0.0
C60 C 0.96296 0.71515 0.22106 0.0
C61 C 0.9748 0.67212 0.22572 0.0
C62 C 0.84983 0.81433 0.19947 0.0
O63 O 0.85587 0.84246 0.17734 0.0
H64 H 0.94821 0.67184 0.15554 0.0
H65 H 0.95941 0.74037 0.23842 0.0
O66 O 0.92261 0.77561 0.13303 0.0
H67 H 0.025 0.88492 0.22877 0.0
H68 H 0.98369 0.65791 0.2473 0.0
Cu69 Cu 0.2446 0.9813 0.6833 0.0
N70 N 0.19795 0.01968 0.69161 0.0
N71 N 0.12907 0.04094 0.70104 0.0
C72 C 0.1583 1.00775 0.70245 0.0
C73 C 0.15153 0.0757 0.68962 0.0
C74 C 0.19394 0.06246 0.68377 0.0
O75 O 0.23328 0.92613 0.70489 0.0
C76 C 0.26092 1.0049 0.62318 0.0
O77 O 0.27397 0.04189 0.63661 0.0
H78 H 0.15043 0.97503 0.71051 0.0
H79 H 0.21933 0.08211 0.67317 0.0
N80 N 0.29823 1.00611 0.69688 0.0
N81 N 0.37059 0.01694 0.70412 0.0
C82 C 0.33874 0.98907 0.69343 0.0
C83 C 0.30467 0.04593 0.71035 0.0
C84 C 0.34918 0.05274 0.71477 0.0
C85 C 0.19936 0.90149 0.7006 0.0
O86 O 0.17221 0.91005 0.67817 0.0
H87 H 0.34475 0.95735 0.68262 0.0
H88 H 0.27884 0.06867 0.71628 0.0
O89 O 0.24741 0.97286 0.63944 0.0
H90 H 0.13763 0.10749 0.6841 0.0
H91 H 0.36455 0.08165 0.72527 0.0
Cu92 Cu 0.06904 0.76492 0.89768 0.0
N93 N 0.09983 0.81694 0.90912 0.0
N94 N 0.11091 0.89051 0.91176 0.0
C95 C 0.08095 0.85716 0.90991 0.0
C96 C 0.15032 0.87041 0.91228 0.0
C97 C 0.14342 0.8251 0.91053 0.0
O98 O 0.06434 0.77212 0.85366 0.0
C99 C 0.02108 0.77089 0.94999 0.0
O100 O 0.06065 0.78228 0.95955 0.0
H101 H 0.04599 0.86189 0.90677 0.0
H102 H 0.16854 0.80031 0.90821 0.0
N103 N 0.09842 0.71169 0.9055 0.0
N104 N 0.1125 0.63897 0.90429 0.0
C105 C 0.08419 0.67107 0.89639 0.0
C106 C 0.13674 0.70491 0.92009 0.0
C107 C 0.14571 0.66014 0.9191 0.0
C108 C 0.10137 0.76884 0.84032 0.0
O109 O 0.13499 0.75444 0.85607 0.0
H110 H 0.05416 0.66533 0.88353 0.0
H111 H 0.15689 0.73057 0.93062 0.0
O112 O 0.01517 0.76208 0.92184 0.0
H113 H 0.18195 0.88724 0.9126 0.0
H114 H 0.17434 0.64432 0.92864 0.0
Cu115 Cu 0.26413 0.05134 0.38234 0.0
N116 N 0.21178 0.02037 0.37524 0.0
N117 N 0.13902 1.00962 0.37423 0.0
C118 C 0.17302 0.03256 0.38679 0.0
C119 C 0.15754 0.98101 0.35444 0.0
C120 C 0.20243 0.98774 0.35511 0.0
O121 O 0.26221 0.10332 0.35673 0.0
C122 C 0.26617 0.02816 0.44253 0.0
O123 O 0.26098 0.98912 0.42937 0.0
H124 H 0.17004 0.05891 0.40341 0.0
H125 H 0.2261 0.97135 0.34089 0.0
N126 N 0.31215 0.01906 0.36932 0.0
N127 N 0.38276 1.00184 0.36419 0.0
C128 C 0.35208 0.01912 0.38263 0.0
C129 C 0.31775 1.00111 0.34158 0.0
C130 C 0.36127 0.99023 0.3384 0.0
C131 C 0.23211 0.13222 0.35719 0.0
O132 O 0.20389 0.13235 0.37958 0.0
H133 H 0.35925 0.03538 0.40415 0.0
H134 H 0.29294 0.99969 0.32393 0.0
O135 O 0.26919 0.06231 0.42584 0.0
H136 H 0.13999 0.95849 0.33927 0.0
H137 H 0.37648 0.97749 0.31802 0.0
Cu138 Cu 0.01872 0.25815 0.88283 0.0
N139 N 0.06227 0.21478 0.87982 0.0
N140 N 0.09621 0.14918 0.88126 0.0
C141 C 0.0573 0.17048 0.88279 0.0
C142 C 0.12661 0.18158 0.87727 0.0
C143 C 0.10569 0.22176 0.87647 0.0
O144 O 0.96813 0.23895 0.85801 0.0
C145 C 0.03539 0.27351 0.94432 0.0
O146 O 0.07554 0.27851 0.93404 0.0
H147 H 0.02579 0.15436 0.88616 0.0
H148 H 0.12127 0.25398 0.87447 0.0
N149 N 0.04029 0.31323 0.86959 0.0
N150 N 0.0576 0.38565 0.86886 0.0
C151 C 0.03445 0.35332 0.88283 0.0
C152 C 0.06757 0.32065 0.84627 0.0
C153 C 0.0785 0.36516 0.84587 0.0
C154 C 0.93941 0.21236 0.86855 0.0
O155 O 0.94329 0.19981 0.89687 0.0
H156 H 0.01478 0.35845 0.90289 0.0
H157 H 0.07942 0.29525 0.83099 0.0
O158 O 1.00435 0.26453 0.92556 0.0
H159 H 0.16176 0.1769 0.87596 0.0
H160 H 0.10014 0.38124 0.8299 0.0
Cu161 Cu 0.75405 0.98293 0.38881 0.0
N162 N 0.80738 1.01298 0.38494 0.0
N163 N 0.87959 0.02368 0.37966 0.0
C164 C 0.84654 0.99364 0.38124 0.0
C165 C 0.86033 0.0636 0.38258 0.0
C166 C 0.81576 0.05686 0.38589 0.0
O167 O 0.75546 0.93278 0.36064 0.0
C168 C 0.74349 1.00435 0.44923 0.0
O169 O 0.74426 0.04385 0.437 0.0
H170 H 0.85074 0.95815 0.38044 0.0
H171 H 0.79128 0.08216 0.389 0.0
N172 N 0.70851 0.01819 0.37522 0.0
N173 N 0.64023 0.03684 0.36245 0.0
C174 C 0.66546 1.01011 0.37941 0.0
C175 C 0.71071 0.05115 0.35497 0.0
C176 C 0.66856 0.06287 0.34712 0.0
C177 C 0.77747 0.8974 0.363 0.0
O178 O 0.79779 0.88901 0.38865 0.0
H179 H 0.65303 0.98306 0.39293 0.0
H180 H 0.74072 0.06396 0.34524 0.0
O181 O 0.74606 0.97042 0.43179 0.0
H182 H 0.87708 0.09542 0.3822 0.0
H183 H 0.65951 0.08741 0.33056 0.0
H184 H 0.99335 0.44854 0.16542 0.0
H185 H 0.94664 0.43565 0.25708 0.0
H186 H 0.94031 0.51567 0.26166 0.0
H187 H 0.94891 0.58899 0.24027 0.0
H188 H 0.99636 0.6043 0.14916 0.0
H189 H 1.00136 0.52342 0.14352 0.0
C190 C 0.98199 0.46337 0.18638 0.0
C191 C 0.97037 0.43614 0.21083 0.0
C192 C 0.9786 0.50966 0.18895 0.0
C193 C 0.95512 0.45571 0.23776 0.0
C194 C 0.95179 0.50152 0.2405 0.0
C195 C 0.9609 0.57473 0.21929 0.0
C196 C 0.97294 0.60246 0.19532 0.0
C197 C 0.96363 0.52871 0.21633 0.0
C198 C 0.98698 0.58346 0.16791 0.0
C199 C 0.98996 0.53735 0.16476 0.0
H200 H 0.43426 0.07944 0.699 0.0
H201 H 0.41285 0.93898 0.70953 0.0
H202 H 0.49229 0.92749 0.71177 0.0
H203 H 0.56799 0.9577 0.71198 0.0
H204 H 0.58934 0.09803 0.70062 0.0
H205 H 0.50997 0.10929 0.69738 0.0
C206 C 0.44699 0.04636 0.70193 0.0
C207 C 0.41756 1.01015 0.70431 0.0
C208 C 0.49276 0.04 0.70303 0.0
C209 C 0.43469 0.96736 0.70745 0.0
C210 C 0.48014 0.96082 0.7089 0.0
C211 C 0.55524 0.99075 0.70892 0.0
C212 C 0.58465 0.02701 0.70674 0.0
C213 C 0.5095 0.99693 0.70692 0.0
C214 C 0.56755 0.06953 0.70217 0.0
C215 C 0.52212 0.07601 0.70047 0.0
H216 H 0.12965 0.43814 0.86691 0.0
H217 H 0.99223 0.43749 0.88963 0.0
H218 H 0.99655 0.51685 0.90215 0.0
H219 H 0.03974 0.58699 0.90612 0.0
H220 H 0.17814 0.58592 0.88631 0.0
H221 H 0.17335 0.50699 0.87309 0.0
C222 C 0.10066 0.45549 0.87449 0.0
C223 C 0.06058 0.43208 0.8771 0.0
C224 C 0.10367 0.50087 0.88215 0.0
C225 C 0.02344 0.45476 0.88754 0.0
C226 C 0.0259 0.50015 0.89457 0.0
C227 C 0.06871 0.56935 0.89882 0.0
C228 C 0.10922 0.59225 0.89703 0.0
C229 C 0.06582 0.52364 0.89187 0.0
C230 C 0.14672 0.56894 0.88801 0.0
C231 C 0.14393 0.52387 0.88036 0.0
H232 H 0.44251 0.02382 0.3225 0.0
H233 H 0.42755 0.98796 0.41611 0.0
H234 H 0.50713 0.99607 0.42423 0.0
H235 H 0.58075 1.01398 0.4044 0.0
H236 H 0.59448 0.05158 0.3109 0.0
H237 H 0.51542 0.04262 0.30297 0.0
C238 C 0.45681 0.01718 0.34454 0.0
C239 C 0.42954 1.00472 0.36861 0.0
C240 C 0.50218 0.02271 0.34906 0.0
C241 C 0.44817 0.99744 0.3973 0.0
C242 C 0.49351 1.00211 0.4019 0.0
C243 C 0.56633 0.02005 0.38231 0.0
C244 C 0.59337 0.03346 0.3583 0.0
C245 C 0.52081 1.01486 0.37794 0.0
C246 C 0.57431 0.04184 0.32985 0.0
C247 C 0.52916 0.03636 0.32523 0.0
H248 H 0.09578 0.28402 0.98981 0.0
H249 H 0.95601 0.27293 0.97306 0.0
H250 H 0.94226 0.27963 1.02739 0.0
H251 H 0.96975 0.28715 0.07949 0.0
H252 H 0.10946 0.29601 0.0968 0.0
H253 H 0.12338 0.29194 0.04223 0.0
C254 C 0.06226 0.28319 0.99799 0.0
C255 C 0.02695 0.27797 0.9773 0.0
C256 C 0.0546 0.28672 1.02932 0.0
C257 C 0.98379 0.27682 0.9884 0.0
C258 C 0.9759 0.2807 1.01949 0.0
C259 C 1.00332 0.28848 0.07142 0.0
C260 C 0.03855 0.292 0.09229 0.0
C261 C 1.01104 0.2855 0.04013 0.0
C262 C 0.08176 0.29337 0.08129 0.0
C263 C 0.08971 0.29097 0.05009 0.0
H264 H 0.7394 0.9597 0.58914 0.0
H265 H 0.75105 0.10224 0.59612 0.0
H266 H 0.75001 0.10734 0.54085 0.0
H267 H 0.74688 0.07149 0.49073 0.0
H268 H 0.73693 0.92891 0.48339 0.0
H269 H 0.73612 0.92373 0.53876 0.0
C270 C 0.74159 0.99196 0.57863 0.0
C271 C 0.74527 0.03059 0.59689 0.0
C272 C 0.7413 0.99462 0.54679 0.0
C273 C 0.74824 0.072 0.58274 0.0
C274 C 0.74763 0.07493 0.5511 0.0
C275 C 0.74436 0.03918 0.50114 0.0
C276 C 0.74188 1.00059 0.4828 0.0
C277 C 0.74432 0.03647 0.53293 0.0
C278 C 0.73886 0.95912 0.49686 0.0
C279 C 0.73842 0.95616 0.52854 0.0
H280 H 0.90681 0.70094 0.05762 0.0
H281 H 0.94543 0.82945 0.09384 0.0
H282 H 0.97692 0.84938 0.04546 0.0
H283 H 1.00252 0.8273 0.99522 0.0
H284 H 0.96451 0.7003 0.95736 0.0
H285 H 0.92312 0.6832 1.00355 0.0
C286 C 0.9214 0.73357 0.05477 0.0
C287 C 0.92439 0.76319 0.07977 0.0
C288 C 0.93976 0.74514 1.02653 0.0
C289 C 0.94309 0.80555 0.07537 0.0
C290 C 0.96122 0.81713 0.0476 0.0
C291 C 0.98408 0.79639 0.99677 0.0
C292 C 0.98646 0.76511 0.97304 0.0
C293 C 0.96103 0.78674 1.02339 0.0
C294 C 0.96264 0.72512 0.97523 0.0
C295 C 0.93947 0.71517 1.00181 0.0
H296 H 0.25153 0.9621 0.48266 0.0
H297 H 0.28357 0.10164 0.47809 0.0
H298 H 0.28544 0.10635 0.53352 0.0
H299 H 0.27754 0.0709 0.58315 0.0
H300 H 0.24391 0.93168 0.5875 0.0
H301 H 0.24317 0.92684 0.53214 0.0
C302 C 0.25903 0.99361 0.49371 0.0
C303 C 0.2675 0.03149 0.47615 0.0
C304 C 0.25975 0.99611 0.52554 0.0
C305 C 0.27691 0.072 0.49098 0.0
C306 C 0.27801 0.07468 0.52269 0.0
C307 C 0.27016 0.03941 0.57205 0.0
C308 C 0.26089 1.00164 0.58956 0.0
C309 C 0.26944 0.03696 0.54019 0.0
C310 C 0.25115 0.96124 0.57467 0.0
C311 C 0.25073 0.95846 0.54299 0.0
H312 H 0.19463 0.20171 0.22552 0.0
H313 H 0.09635 0.2757 0.27403 0.0
H314 H 0.12502 0.24903 0.32205 0.0
H315 H 0.17267 0.19835 0.35006 0.0
H316 H 0.27155 0.12489 0.30186 0.0
H317 H 0.24841 0.15816 0.25432 0.0
C318 C 0.1799 0.21257 0.2466 0.0
C319 C 0.14295 0.24022 0.24597 0.0
C320 C 0.19648 0.19695 0.27436 0.0
C321 C 0.12462 0.25422 0.27364 0.0
C322 C 0.14091 0.23885 0.30124 0.0
C323 C 0.18967 0.19015 0.32925 0.0
C324 C 0.22343 0.15868 0.32961 0.0
C325 C 0.17602 0.20922 0.30183 0.0
C326 C 0.24533 0.14884 0.30238 0.0
C327 C 0.23196 0.16771 0.27505 0.0
H328 H 0.92525 0.2233 0.80727 0.0
H329 H 0.87301 0.15724 0.88579 0.0
H330 H 0.8178 0.11986 0.85424 0.0
H331 H 0.78724 0.10162 0.80428 0.0
H332 H 0.83876 0.16567 0.72496 0.0
H333 H 0.89062 0.20849 0.75687 0.0
C334 C 0.90153 0.20106 0.81751 0.0
C335 C 0.90375 0.19296 0.84897 0.0
C336 C 0.86962 0.17918 0.79907 0.0
C337 C 0.87253 0.16404 0.86173 0.0
C338 C 0.84079 0.14254 0.84368 0.0
C339 C 0.80944 0.12531 0.7939 0.0
C340 C 0.80912 0.13019 0.76219 0.0
C341 C 0.83949 0.14925 0.81231 0.0
C342 C 0.83805 0.1613 0.74929 0.0
C343 C 0.86797 0.18559 0.76755 0.0
H344 H 0.75315 0.91513 0.30481 0.0
H345 H 0.82324 0.81985 0.35847 0.0
H346 H 0.84723 0.78217 0.31222 0.0
H347 H 0.85489 0.78115 0.2567 0.0
H348 H 0.78851 0.87944 0.20341 0.0
H349 H 0.75612 0.91063 0.24933 0.0
C350 C 0.7731 0.8857 0.3065 0.0
C351 C 0.78655 0.8706 0.33523 0.0
C352 C 0.78771 0.86483 0.27979 0.0
C353 C 0.81248 0.8324 0.33677 0.0
C354 C 0.82634 0.81087 0.31028 0.0
C355 C 0.83259 0.80881 0.25501 0.0
C356 C 0.82424 0.82796 0.22654 0.0
C357 C 0.8151 0.82747 0.28167 0.0
C358 C 0.7956 0.86409 0.22495 0.0
C359 C 0.77719 0.88207 0.25125 0.0
H360 H 0.11675 0.87896 0.71919 0.0
H361 H 0.25396 0.85242 0.73532 0.0
H362 H 0.23457 0.80494 0.7778 0.0
H363 H 0.17991 0.77604 0.81253 0.0
H364 H 0.04283 0.80713 0.80034 0.0
H365 H 0.06078 0.84732 0.75383 0.0
C366 C 0.14228 0.86207 0.7317 0.0
C367 C 0.18681 0.8689 0.72399 0.0
C368 C 0.13091 0.83596 0.75686 0.0
C369 C 0.21957 0.84761 0.74077 0.0
C370 C 0.20847 0.82054 0.76508 0.0
C371 C 0.15363 0.79108 0.79963 0.0
C372 C 0.10996 0.78849 0.81007 0.0
C373 C 0.1644 0.81522 0.77367 0.0
C374 C 0.07666 0.80845 0.79289 0.0
C375 C 0.08699 0.83161 0.76636 0.0
H376 H 0.94082 0.08971 0.16349 0.0
H377 H 0.05976 0.10908 0.21617 0.0
H378 H 0.06817 0.02899 0.21989 0.0
H379 H 0.04041 0.95358 0.20932 0.0
H380 H 0.91815 0.93593 0.15974 0.0
H381 H 0.91277 1.01517 0.1536 0.0
C382 C 0.96834 0.07657 0.1761 0.0
C383 C 0.9994 0.10548 0.18963 0.0
C384 C 0.97259 0.03066 0.17859 0.0
C385 C 0.0355 0.08766 0.20525 0.0
C386 C 0.04023 0.04183 0.20755 0.0
C387 C 1.01245 0.96693 0.19732 0.0
C388 C 0.97996 0.93826 0.185 0.0
C389 C 1.00876 1.01301 0.19446 0.0
C390 C 0.94429 0.95655 0.16909 0.0
C391 C 0.94082 1.00217 0.16575 0.0
H392 H 0.0779 0.96797 0.69346 0.0
H393 H 0.07451 0.10647 0.71855 0.0
H394 H 0.99441 0.102 0.72295 0.0
H395 H 0.92557 0.05931 0.71792 0.0
H396 H 0.92926 0.92149 0.69058 0.0
H397 H 1.00931 0.92482 0.68987 0.0
C398 C 0.05982 0.99704 0.70041 0.0
C399 C 0.08226 0.03755 0.70572 0.0
C400 C 0.01384 0.9943 0.70253 0.0
C401 C 0.05803 0.07504 0.7141 0.0
C402 C 1.01227 0.07244 0.71669 0.0
C403 C 0.94367 0.03 0.71155 0.0
C404 C 0.92098 0.99028 0.70403 0.0
C405 C 0.9898 0.03238 0.71053 0.0
C406 C 0.94549 0.95244 0.69668 0.0
C407 C 0.9914 0.95439 0.69605 0.0
H408 H 0.04498 0.08751 0.90896 0.0
H409 H 0.16619 0.10404 0.85985 0.0
H410 H 0.18225 0.02587 0.86607 0.0
H411 H 0.16193 0.95224 0.88491 0.0
H412 H 0.04005 0.93437 0.93266 0.0
H413 H 0.02398 1.0132 0.92714 0.0
C414 C 0.0747 0.07404 0.89935 0.0
C415 C 0.10441 0.10217 0.88413 0.0
C416 C 0.0837 0.0286 0.90277 0.0
C417 C 0.143 0.08376 0.87215 0.0
C418 C 0.15218 0.03881 0.87555 0.0
C419 C 0.13211 0.96566 0.89443 0.0
C420 C 0.10237 0.93739 0.90935 0.0
C421 C 0.12291 1.01094 0.89092 0.0
C422 C 0.06339 0.95531 0.92096 0.0
C423 C 0.05423 1.00043 0.91785 0.0
H424 H 0.94754 0.07638 0.39711 0.0
H425 H 0.91593 0.95005 0.35495 0.0
H426 H 0.99384 0.93353 0.35094 0.0
H427 H 0.0709 0.95507 0.35916 0.0
H428 H 0.10199 0.08384 0.3982 0.0
H429 H 0.02442 0.09885 0.40384 0.0
C430 C 0.95758 0.04547 0.38672 0.0
C431 C 0.92573 1.01455 0.37648 0.0
C432 C 1.00247 0.03635 0.3841 0.0
C433 C 0.93956 0.97427 0.3635 0.0
C434 C 0.9842 0.96483 0.36103 0.0
C435 C 0.0609 0.98658 0.36868 0.0
C436 C 0.09278 0.01798 0.3783 0.0
C437 C 0.01595 0.99565 0.37126 0.0
C438 C 0.07873 0.05841 0.39103 0.0
C439 C 0.03412 0.06736 0.39405 0.0
loop_
_geom_bond_atom_site_label_1
_geom_bond_atom_site_label_2
_geom_bond_distance
_geom_bond_site_symmetry_2
_ccdc_geom_bond_type
Cu0 N1 1.999 . S
Cu0 O6 1.974 . S
Cu0 N11 1.985 . S
Cu0 O20 1.959 . S
N1 Cu0 1.999 . S
N1 C3 1.263 . S
N1 C5 1.385 1_455 S
N2 C3 1.358 . S
N2 C4 1.400 . S
C3 N1 1.263 . S
C3 N2 1.358 . S
C3 H9 0.930 . S
C4 N2 1.400 . S
C4 C5 1.350 1_455 S
C4 H21 0.930 1_455 S
C5 N1 1.385 1_655 S
C5 C4 1.350 1_655 S
C5 H10 0.933 . S
O6 Cu0 1.974 . S
O6 C16 1.282 . S
C7 O8 1.261 . S
C7 O20 1.251 . S
O8 C7 1.261 . S
H9 C3 0.930 . S
H10 C5 0.933 . S
N11 Cu0 1.985 . S
N11 C13 1.335 . S
N11 C14 1.390 . S
N12 C13 1.345 . S
N12 C15 1.336 . S
C13 N11 1.335 . S
C13 N12 1.345 . S
C13 H18 0.930 . S
C14 N11 1.390 . S
C14 C15 1.346 . S
C14 H19 0.930 . S
C15 N12 1.336 . S
C15 C14 1.346 . S
C15 H22 0.929 . S
C16 O6 1.282 . S
C16 O17 1.216 . S
O17 C16 1.216 . S
H18 C13 0.930 . S
H19 C14 0.930 . S
O20 Cu0 1.959 . S
O20 C7 1.251 . S
H21 C4 0.930 1_655 S
H22 C15 0.929 . S
Cu23 N24 1.999 . S
Cu23 O29 1.974 . S
Cu23 N34 1.985 . S
Cu23 O43 1.959 . S
N24 Cu23 1.999 . S
N24 C26 1.263 . S
N24 C28 1.385 1_545 S
N25 C26 1.358 . S
N25 C27 1.400 . S
C26 N24 1.263 . S
C26 N25 1.358 . S
C26 H32 0.930 . S
C27 N25 1.400 . S
C27 C28 1.350 1_545 S
C27 H44 0.930 1_545 S
C28 N24 1.385 1_565 S
C28 C27 1.350 1_565 S
C28 H33 0.933 . S
O29 Cu23 1.974 . S
O29 C39 1.282 . S
C30 O31 1.261 . S
C30 O43 1.251 . S
O31 C30 1.261 . S
H32 C26 0.930 . S
H33 C28 0.933 . S
N34 Cu23 1.985 . S
N34 C36 1.335 . S
N34 C37 1.390 . S
N35 C36 1.345 . S
N35 C38 1.336 . S
C36 N34 1.335 . S
C36 N35 1.345 . S
C36 H41 0.930 . S
C37 N34 1.390 . S
C37 C38 1.346 . S
C37 H42 0.930 . S
C38 N35 1.336 . S
C38 C37 1.346 . S
C38 H45 0.929 . S
C39 O29 1.282 . S
C39 O40 1.216 . S
O40 C39 1.216 . S
H41 C36 0.930 . S
H42 C37 0.930 . S
O43 Cu23 1.959 . S
O43 C30 1.251 . S
H44 C27 0.930 1_565 S
H45 C38 0.929 . S
Cu46 N47 1.999 . S
Cu46 O52 1.974 . S
Cu46 N57 1.985 . S
Cu46 O66 1.959 . S
N47 Cu46 1.999 . S
N47 C49 1.263 . S
N47 C51 1.385 1_655 S
N48 C49 1.358 . S
N48 C50 1.400 . S
C49 N47 1.263 . S
C49 N48 1.358 . S
C49 H55 0.930 . S
C50 N48 1.400 . S
C50 C51 1.350 1_655 S
C50 H67 0.930 1_655 S
C51 N47 1.385 1_455 S
C51 C50 1.350 1_455 S
C51 H56 0.933 . S
O52 Cu46 1.974 . S
O52 C62 1.282 . S
C53 O54 1.261 . S
C53 O66 1.251 . S
O54 C53 1.261 . S
H55 C49 0.930 . S
H56 C51 0.933 . S
N57 Cu46 1.985 . S
N57 C59 1.335 . S
N57 C60 1.390 . S
N58 C59 1.345 . S
N58 C61 1.336 . S
C59 N57 1.335 . S
C59 N58 1.345 . S
C59 H64 0.930 . S
C60 N57 1.390 . S
C60 C61 1.346 . S
C60 H65 0.930 . S
C61 N58 1.336 . S
C61 C60 1.346 . S
C61 H68 0.929 . S
C62 O52 1.282 . S
C62 O63 1.216 . S
O63 C62 1.216 . S
H64 C59 0.930 . S
H65 C60 0.930 . S
O66 Cu46 1.959 . S
O66 C53 1.251 . S
H67 C50 0.930 1_455 S
H68 C61 0.929 . S
Cu69 N70 1.999 . S
Cu69 O75 1.974 . S
Cu69 N80 1.985 . S
Cu69 O89 1.959 . S
N70 Cu69 1.999 . S
N70 C72 1.263 . S
N70 C74 1.385 1_565 S
N71 C72 1.358 . S
N71 C73 1.400 . S
C72 N70 1.263 . S
C72 N71 1.358 . S
C72 H78 0.930 . S
C73 N71 1.400 . S
C73 C74 1.350 1_565 S
C73 H90 0.930 1_565 S
C74 N70 1.385 1_545 S
C74 C73 1.350 1_545 S
C74 H79 0.933 . S
O75 Cu69 1.974 . S
O75 C85 1.282 . S
C76 O77 1.261 . S
C76 O89 1.251 . S
O77 C76 1.261 . S
H78 C72 0.930 . S
H79 C74 0.933 . S
N80 Cu69 1.985 . S
N80 C82 1.335 . S
N80 C83 1.390 . S
N81 C82 1.345 . S
N81 C84 1.336 . S
C82 N80 1.335 . S
C82 N81 1.345 . S
C82 H87 0.930 . S
C83 N80 1.390 . S
C83 C84 1.346 . S
C83 H88 0.930 . S
C84 N81 1.336 . S
C84 C83 1.346 . S
C84 H91 0.929 . S
C85 O75 1.282 . S
C85 O86 1.216 . S
O86 C85 1.216 . S
H87 C82 0.930 . S
H88 C83 0.930 . S
O89 Cu69 1.959 . S
O89 C76 1.251 . S
H90 C73 0.930 1_545 S
H91 C84 0.929 . S
Cu92 N93 1.999 . S
Cu92 O98 1.974 . S
Cu92 N103 1.985 . S
Cu92 O112 1.959 . S
N93 Cu92 1.999 . S
N93 C95 1.263 . S
N93 C97 1.385 1_455 S
N94 C95 1.358 . S
N94 C96 1.400 . S
C95 N93 1.263 . S
C95 N94 1.358 . S
C95 H101 0.930 . S
C96 N94 1.400 . S
C96 C97 1.350 1_455 S
C96 H113 0.930 1_455 S
C97 N93 1.385 1_655 S
C97 C96 1.350 1_655 S
C97 H102 0.933 . S
O98 Cu92 1.974 . S
O98 C108 1.282 . S
C99 O100 1.261 . S
C99 O112 1.251 . S
O100 C99 1.261 . S
H101 C95 0.930 . S
H102 C97 0.933 . S
N103 Cu92 1.985 . S
N103 C105 1.335 . S
N103 C106 1.390 . S
N104 C105 1.345 . S
N104 C107 1.336 . S
C105 N103 1.335 . S
C105 N104 1.345 . S
C105 H110 0.930 . S
C106 N103 1.390 . S
C106 C107 1.346 . S
C106 H111 0.930 . S
C107 N104 1.336 . S
C107 C106 1.346 . S
C107 H114 0.929 . S
C108 O98 1.282 . S
C108 O109 1.216 . S
O109 C108 1.216 . S
H110 C105 0.930 . S
H111 C106 0.930 . S
O112 Cu92 1.959 . S
O112 C99 1.251 . S
H113 C96 0.930 1_655 S
H114 C107 0.929 . S
Cu115 N116 1.999 . S
Cu115 O121 1.974 . S
Cu115 N126 1.985 . S
Cu115 O135 1.959 . S
N116 Cu115 1.999 . S
N116 C118 1.263 . S
N116 C120 1.385 1_545 S
N117 C118 1.358 . S
N117 C119 1.400 . S
C118 N116 1.263 . S
C118 N117 1.358 . S
C118 H124 0.930 . S
C119 N117 1.400 . S
C119 C120 1.350 1_545 S
C119 H136 0.930 1_545 S
C120 N116 1.385 1_565 S
C120 C119 1.350 1_565 S
C120 H125 0.933 . S
O121 Cu115 1.974 . S
O121 C131 1.282 . S
C122 O123 1.261 . S
C122 O135 1.251 . S
O123 C122 1.261 . S
H124 C118 0.930 . S
H125 C120 0.933 . S
N126 Cu115 1.985 . S
N126 C128 1.335 . S
N126 C129 1.390 . S
N127 C128 1.345 . S
N127 C130 1.336 . S
C128 N126 1.335 . S
C128 N127 1.345 . S
C128 H133 0.930 . S
C129 N126 1.390 . S
C129 C130 1.346 . S
C129 H134 0.930 . S
C130 N127 1.336 . S
C130 C129 1.346 . S
C130 H137 0.929 . S
C131 O121 1.282 . S
C131 O132 1.216 . S
O132 C131 1.216 . S
H133 C128 0.930 . S
H134 C129 0.930 . S
O135 Cu115 1.959 . S
O135 C122 1.251 . S
H136 C119 0.930 1_565 S
H137 C130 0.929 . S
Cu138 N139 1.999 . S
Cu138 O144 1.974 . S
Cu138 N149 1.985 . S
Cu138 O158 1.959 . S
N139 Cu138 1.999 . S
N139 C141 1.263 . S
N139 C143 1.385 1_655 S
N140 C141 1.358 . S
N140 C142 1.400 . S
C141 N139 1.263 . S
C141 N140 1.358 . S
C141 H147 0.930 . S
C142 N140 1.400 . S
C142 C143 1.350 1_655 S
C142 H159 0.930 1_655 S
C143 N139 1.385 1_455 S
C143 C142 1.350 1_455 S
C143 H148 0.933 . S
O144 Cu138 1.974 . S
O144 C154 1.282 . S
C145 O146 1.261 . S
C145 O158 1.251 . S
O146 C145 1.261 . S
H147 C141 0.930 . S
H148 C143 0.933 . S
N149 Cu138 1.985 . S
N149 C151 1.335 . S
N149 C152 1.390 . S
N150 C151 1.345 . S
N150 C153 1.336 . S
C151 N149 1.335 . S
C151 N150 1.345 . S
C151 H156 0.930 . S
C152 N149 1.390 . S
C152 C153 1.346 . S
C152 H157 0.930 . S
C153 N150 1.336 . S
C153 C152 1.346 . S
C153 H160 0.929 . S
C154 O144 1.282 . S
C154 O155 1.216 . S
O155 C154 1.216 . S
H156 C151 0.930 . S
H157 C152 0.930 . S
O158 Cu138 1.959 . S
O158 C145 1.251 . S
H159 C142 0.930 1_455 S
H160 C153 0.929 . S
Cu161 N162 1.999 . S
Cu161 O167 1.974 . S
Cu161 N172 1.985 . S
Cu161 O181 1.959 . S
N162 Cu161 1.999 . S
N162 C164 1.263 . S
N162 C166 1.385 1_565 S
N163 C164 1.358 . S
N163 C165 1.400 . S
C164 N162 1.263 . S
C164 N163 1.358 . S
C164 H170 0.930 . S
C165 N163 1.400 . S
C165 C166 1.350 1_565 S
C165 H182 0.930 1_565 S
C166 N162 1.385 1_545 S
C166 C165 1.350 1_545 S
C166 H171 0.933 . S
O167 Cu161 1.974 . S
O167 C177 1.282 . S
C168 O169 1.261 . S
C168 O181 1.251 . S
O169 C168 1.261 . S
H170 C164 0.930 . S
H171 C166 0.933 . S
N172 Cu161 1.985 . S
N172 C174 1.335 . S
N172 C175 1.390 . S
N173 C174 1.345 . S
N173 C176 1.336 . S
C174 N172 1.335 . S
C174 N173 1.345 . S
C174 H179 0.930 . S
C175 N172 1.390 . S
C175 C176 1.346 . S
C175 H180 0.930 . S
C176 N173 1.336 . S
C176 C175 1.346 . S
C176 H183 0.929 . S
C177 O167 1.282 . S
C177 O178 1.216 . S
O178 C177 1.216 . S
H179 C174 0.930 . S
H180 C175 0.930 . S
O181 Cu161 1.959 . S
O181 C168 1.251 . S
H182 C165 0.930 1_545 S
H183 C176 0.929 . S
H184 C190 0.930 . S
H185 C193 0.930 . S
H186 C194 0.927 1_655 S
H187 C195 0.930 . S
H188 C198 0.930 . S
H189 C199 0.927 1_455 S
C190 H184 0.930 . S
C190 C191 1.355 . S
C190 C192 1.415 . S
C191 C190 1.355 . S
C191 C193 1.419 . S
C192 C190 1.415 . S
C192 C197 1.425 1_455 S
C192 C199 1.407 1_455 S
C193 H185 0.930 . S
C193 C191 1.419 . S
C193 C194 1.368 . S
C194 H186 0.927 1_455 S
C194 C193 1.368 . S
C194 C197 1.407 1_455 S
C195 H187 0.930 . S
C195 C196 1.355 . S
C195 C197 1.415 . S
C196 C195 1.355 . S
C196 C198 1.419 . S
C197 C192 1.425 1_655 S
C197 C194 1.407 1_655 S
C197 C195 1.415 . S
C198 H188 0.930 . S
C198 C196 1.419 . S
C198 C199 1.368 . S
C199 H189 0.927 1_655 S
C199 C192 1.407 1_655 S
C199 C198 1.368 . S
H200 C206 0.924 1_545 S
H201 C209 0.930 . S
H202 C210 0.930 . S
H203 C211 0.924 1_565 S
H204 C214 0.930 . S
H205 C215 0.930 . S
C206 H200 0.924 1_565 S
C206 C207 1.363 . S
C206 C208 1.412 1_565 S
C207 C206 1.363 . S
C207 C209 1.419 . S
C208 C206 1.412 1_545 S
C208 C213 1.425 1_545 S
C208 C215 1.409 . S
C209 H201 0.930 . S
C209 C207 1.419 . S
C209 C210 1.362 . S
C210 H202 0.930 . S
C210 C209 1.362 . S
C210 C213 1.409 . S
C211 H203 0.924 1_545 S
C211 C212 1.363 . S
C211 C213 1.412 1_545 S
C212 C211 1.363 . S
C212 C214 1.419 . S
C213 C208 1.425 1_565 S
C213 C210 1.409 . S
C213 C211 1.412 1_565 S
C214 H204 0.930 . S
C214 C212 1.419 . S
C214 C215 1.362 . S
C215 H205 0.930 . S
C215 C208 1.409 . S
C215 C214 1.362 . S
H216 C222 0.933 . S
H217 C225 0.930 . S
H218 C226 0.930 . S
H219 C227 0.933 . S
H220 C230 0.930 . S
H221 C231 0.930 . S
C222 H216 0.933 . S
C222 C223 1.349 1_455 S
C222 C224 1.416 . S
C223 C222 1.349 1_655 S
C223 C225 1.419 . S
C224 C222 1.416 . S
C224 C229 1.425 1_455 S
C224 C231 1.409 . S
C225 H217 0.930 . S
C225 C223 1.419 . S
C225 C226 1.362 . S
C226 H218 0.930 . S
C226 C225 1.362 . S
C226 C229 1.409 . S
C227 H219 0.933 . S
C227 C228 1.349 1_655 S
C227 C229 1.416 . S
C228 C227 1.349 1_455 S
C228 C230 1.419 . S
C229 C224 1.425 1_655 S
C229 C226 1.409 . S
C229 C227 1.416 . S
C230 H220 0.930 . S
C230 C228 1.419 . S
C230 C231 1.362 . S
C231 H221 0.930 . S
C231 C224 1.409 . S
C231 C230 1.362 . S
H232 C238 0.930 1_565 S
H233 C241 0.930 . S
H234 C242 0.930 . S
H235 C243 0.930 1_545 S
H236 C246 0.930 . S
H237 C247 0.930 . S
C238 H232 0.930 1_545 S
C238 C239 1.355 . S
C238 C240 1.415 1_545 S
C239 C238 1.355 . S
C239 C241 1.419 . S
C240 C238 1.415 1_565 S
C240 C245 1.425 1_565 S
C240 C247 1.409 . S
C241 H233 0.930 . S
C241 C239 1.419 . S
C241 C242 1.362 . S
C242 H234 0.930 . S
C242 C241 1.362 . S
C242 C245 1.409 . S
C243 H235 0.930 1_565 S
C243 C244 1.355 . S
C243 C245 1.415 1_565 S
C244 C243 1.355 . S
C244 C246 1.419 . S
C245 C240 1.425 1_545 S
C245 C242 1.409 . S
C245 C243 1.415 1_545 S
C246 H236 0.930 . S
C246 C244 1.419 . S
C246 C247 1.362 . S
C247 H237 0.930 . S
C247 C240 1.409 . S
C247 C246 1.362 . S
H248 C254 0.930 . S
H249 C257 0.930 . S
H250 C258 0.930 . S
H251 C259 0.930 . S
H252 C262 0.930 . S
H253 C263 0.930 . S
C254 H248 0.930 . S
C254 C255 1.355 . S
C254 C256 1.433 . S
C255 C254 1.355 . S
C255 C257 1.419 1_655 S
C256 C254 1.433 . S
C256 C261 1.424 1_656 S
C256 C263 1.391 1_556 S
C257 H249 0.930 . S
C257 C255 1.419 1_455 S
C257 C258 1.362 . S
C258 H250 0.930 . S
C258 C257 1.362 . S
C258 C261 1.391 1_556 S
C259 H251 0.930 . S
C259 C260 1.355 . S
C259 C261 1.433 . S
C260 C259 1.355 . S
C260 C262 1.419 1_455 S
C261 C256 1.424 1_454 S
C261 C258 1.391 1_554 S
C261 C259 1.433 . S
C262 H252 0.930 . S
C262 C260 1.419 1_655 S
C262 C263 1.362 . S
C263 H253 0.930 . S
C263 C256 1.391 1_554 S
C263 C262 1.362 . S
H264 C270 0.930 . S
H265 C273 0.930 . S
H266 C274 0.930 . S
H267 C275 0.930 . S
H268 C278 0.930 . S
H269 C279 0.930 . S
C270 H264 0.930 . S
C270 C271 1.355 1_565 S
C270 C272 1.415 . S
C271 C270 1.355 1_545 S
C271 C273 1.419 . S
C272 C270 1.415 . S
C272 C277 1.425 1_565 S
C272 C279 1.409 . S
C273 H265 0.930 . S
C273 C271 1.419 . S
C273 C274 1.362 . S
C274 H266 0.930 . S
C274 C273 1.362 . S
C274 C277 1.409 . S
C275 H267 0.930 . S
C275 C276 1.355 1_545 S
C275 C277 1.415 . S
C276 C275 1.355 1_565 S
C276 C278 1.419 . S
C277 C272 1.425 1_545 S
C277 C274 1.409 . S
C277 C275 1.415 . S
C278 H268 0.930 . S
C278 C276 1.419 . S
C278 C279 1.362 . S
C279 H269 0.930 . S
C279 C272 1.409 . S
C279 C278 1.362 . S
H280 C286 0.930 . S
H281 C289 0.930 . S
H282 C290 0.930 . S
H283 C291 0.930 . S
H284 C294 0.930 . S
H285 C295 0.930 . S
C286 H280 0.930 . S
C286 C287 1.355 . S
C286 C288 1.415 . S
C287 C286 1.355 . S
C287 C289 1.419 1_655 S
C288 C286 1.415 . S
C288 C293 1.425 1_654 S
C288 C295 1.409 1_554 S
C289 H281 0.930 . S
C289 C287 1.419 1_455 S
C289 C290 1.362 . S
C290 H282 0.930 . S
C290 C289 1.362 . S
C290 C293 1.409 1_554 S
C291 H283 0.930 . S
C291 C292 1.355 . S
C291 C293 1.415 . S
C292 C291 1.355 . S
C292 C294 1.419 1_455 S
C293 C288 1.425 1_456 S
C293 C290 1.409 1_556 S
C293 C291 1.415 . S
C294 H284 0.930 . S
C294 C292 1.419 1_655 S
C294 C295 1.362 . S
C295 H285 0.930 . S
C295 C288 1.409 1_556 S
C295 C294 1.362 . S
H296 C302 0.935 . S
H297 C305 0.930 . S
H298 C306 0.930 . S
H299 C307 0.935 . S
H300 C310 0.930 . S
H301 C311 0.930 . S
C302 H296 0.935 . S
C302 C303 1.355 . S
C302 C304 1.415 1_545 S
C303 C302 1.355 . S
C303 C305 1.419 . S
C304 C302 1.415 1_565 S
C304 C309 1.425 1_565 S
C304 C311 1.409 . S
C305 H297 0.930 . S
C305 C303 1.419 . S
C305 C306 1.362 . S
C306 H298 0.930 . S
C306 C305 1.362 . S
C306 C309 1.409 . S
C307 H299 0.935 . S
C307 C308 1.355 . S
C307 C309 1.415 1_565 S
C308 C307 1.355 . S
C308 C310 1.419 . S
C309 C304 1.425 1_545 S
C309 C306 1.409 . S
C309 C307 1.415 1_545 S
C310 H300 0.930 . S
C310 C308 1.419 . S
C310 C311 1.362 . S
C311 H301 0.930 . S
C311 C304 1.409 . S
C311 C310 1.362 . S
H312 C318 0.930 . S
H313 C321 0.930 . S
H314 C322 0.930 . S
H315 C323 0.930 . S
H316 C326 0.930 . S
H317 C327 0.930 . S
C318 H312 0.930 . S
C318 C319 1.355 . S
C318 C320 1.415 . S
C319 C318 1.355 . S
C319 C321 1.419 . S
C320 C318 1.415 . S
C320 C325 1.425 . S
C320 C327 1.409 . S
C321 H313 0.930 . S
C321 C319 1.419 . S
C321 C322 1.362 . S
C322 H314 0.930 . S
C322 C321 1.362 . S
C322 C325 1.409 . S
C323 H315 0.930 . S
C323 C324 1.355 . S
C323 C325 1.415 . S
C324 C323 1.355 . S
C324 C326 1.419 . S
C325 C320 1.425 . S
C325 C322 1.409 . S
C325 C323 1.415 . S
C326 H316 0.930 . S
C326 C324 1.419 . S
C326 C327 1.362 . S
C327 H317 0.930 . S
C327 C320 1.409 . S
C327 C326 1.362 . S
H328 C334 0.930 . S
H329 C337 0.930 . S
H330 C338 0.930 . S
H331 C339 0.930 . S
H332 C342 0.930 . S
H333 C343 0.930 . S
C334 H328 0.930 . S
C334 C335 1.355 . S
C334 C336 1.415 . S
C335 C334 1.355 . S
C335 C337 1.419 . S
C336 C334 1.415 . S
C336 C341 1.425 . S
C336 C343 1.409 . S
C337 H329 0.930 . S
C337 C335 1.419 . S
C337 C338 1.362 . S
C338 H330 0.930 . S
C338 C337 1.362 . S
C338 C341 1.409 . S
C339 H331 0.930 . S
C339 C340 1.355 . S
C339 C341 1.415 . S
C340 C339 1.355 . S
C340 C342 1.419 . S
C341 C336 1.425 . S
C341 C338 1.409 . S
C341 C339 1.415 . S
C342 H332 0.930 . S
C342 C340 1.419 . S
C342 C343 1.362 . S
C343 H333 0.930 . S
C343 C336 1.409 . S
C343 C342 1.362 . S
H344 C350 0.930 . S
H345 C353 0.930 . S
H346 C354 0.930 . S
H347 C355 0.930 . S
H348 C358 0.930 . S
H349 C359 0.930 . S
C350 H344 0.930 . S
C350 C351 1.355 . S
C350 C352 1.415 . S
C351 C350 1.355 . S
C351 C353 1.419 . S
C352 C350 1.415 . S
C352 C357 1.425 . S
C352 C359 1.409 . S
C353 H345 0.930 . S
C353 C351 1.419 . S
C353 C354 1.362 . S
C354 H346 0.930 . S
C354 C353 1.362 . S
C354 C357 1.409 . S
C355 H347 0.930 . S
C355 C356 1.355 . S
C355 C357 1.415 . S
C356 C355 1.355 . S
C356 C358 1.419 . S
C357 C352 1.425 . S
C357 C354 1.409 . S
C357 C355 1.415 . S
C358 H348 0.930 . S
C358 C356 1.419 . S
C358 C359 1.362 . S
C359 H349 0.930 . S
C359 C352 1.409 . S
C359 C358 1.362 . S
H360 C366 0.930 . S
H361 C369 0.930 . S
H362 C370 0.930 . S
H363 C371 0.930 . S
H364 C374 0.930 . S
H365 C375 0.930 . S
C366 H360 0.930 . S
C366 C367 1.355 . S
C366 C368 1.415 . S
C367 C366 1.355 . S
C367 C369 1.419 . S
C368 C366 1.415 . S
C368 C373 1.425 . S
C368 C375 1.409 . S
C369 H361 0.930 . S
C369 C367 1.419 . S
C369 C370 1.362 . S
C370 H362 0.930 . S
C370 C369 1.362 . S
C370 C373 1.409 . S
C371 H363 0.930 . S
C371 C372 1.355 . S
C371 C373 1.415 . S
C372 C371 1.355 . S
C372 C374 1.419 . S
C373 C368 1.425 . S
C373 C370 1.409 . S
C373 C371 1.415 . S
C374 H364 0.930 . S
C374 C372 1.419 . S
C374 C375 1.362 . S
C375 H365 0.930 . S
C375 C368 1.409 . S
C375 C374 1.362 . S
H376 C382 0.930 1_655 S
H377 C385 0.930 . S
H378 C386 0.930 . S
H379 C387 0.930 1_455 S
H380 C390 0.930 . S
H381 C391 0.930 . S
C382 H376 0.930 1_455 S
C382 C383 1.355 . S
C382 C384 1.415 1_455 S
C383 C382 1.355 . S
C383 C385 1.419 . S
C384 C382 1.415 1_655 S
C384 C389 1.425 1_645 S
C384 C391 1.409 . S
C385 H377 0.930 . S
C385 C383 1.419 . S
C385 C386 1.362 1_545 S
C386 H378 0.930 . S
C386 C385 1.362 1_565 S
C386 C389 1.409 . S
C387 H379 0.930 1_655 S
C387 C388 1.355 . S
C387 C389 1.415 1_655 S
C388 C387 1.355 . S
C388 C390 1.419 . S
C389 C384 1.425 1_465 S
C389 C386 1.409 . S
C389 C387 1.415 1_455 S
C390 H380 0.930 . S
C390 C388 1.419 . S
C390 C391 1.362 1_565 S
C391 H381 0.930 . S
C391 C384 1.409 . S
C391 C390 1.362 1_545 S
H392 C398 0.930 . S
H393 C401 0.930 . S
H394 C402 0.930 . S
H395 C403 0.930 . S
H396 C406 0.930 . S
H397 C407 0.930 . S
C398 H392 0.930 . S
C398 C399 1.355 . S
C398 C400 1.415 1_455 S
C399 C398 1.355 . S
C399 C401 1.419 1_565 S
C400 C398 1.415 1_655 S
C400 C405 1.425 1_665 S
C400 C407 1.409 . S
C401 H393 0.930 . S
C401 C399 1.419 1_545 S
C401 C402 1.362 . S
C402 H394 0.930 . S
C402 C401 1.362 . S
C402 C405 1.409 . S
C403 H395 0.930 . S
C403 C404 1.355 . S
C403 C405 1.415 1_655 S
C404 C403 1.355 . S
C404 C406 1.419 1_545 S
C405 C400 1.425 1_445 S
C405 C402 1.409 . S
C405 C403 1.415 1_455 S
C406 H396 0.930 . S
C406 C404 1.419 1_565 S
C406 C407 1.362 . S
C407 H397 0.930 . S
C407 C400 1.409 . S
C407 C406 1.362 . S
H408 C414 0.930 . S
H409 C417 0.930 . S
H410 C418 0.930 . S
H411 C419 0.930 . S
H412 C422 0.930 . S
H413 C423 0.930 . S
C414 H408 0.930 . S
C414 C415 1.355 . S
C414 C416 1.415 1_545 S
C415 C414 1.355 . S
C415 C417 1.419 1_655 S
C416 C414 1.415 1_565 S
C416 C421 1.425 1_665 S
C416 C423 1.409 . S
C417 H409 0.930 . S
C417 C415 1.419 1_455 S
C417 C418 1.362 . S
C418 H410 0.930 . S
C418 C417 1.362 . S
C418 C421 1.409 . S
C419 H411 0.930 . S
C419 C420 1.355 . S
C419 C421 1.415 1_565 S
C420 C419 1.355 . S
C420 C422 1.419 1_455 S
C421 C416 1.425 1_445 S
C421 C418 1.409 . S
C421 C419 1.415 1_545 S
C422 H412 0.930 . S
C422 C420 1.419 1_655 S
C422 C423 1.362 . S
C423 H413 0.930 . S
C423 C416 1.409 . S
C423 C422 1.362 . S
H424 C430 0.930 . S
H425 C433 0.930 . S
H426 C434 0.930 . S
H427 C435 0.930 . S
H428 C438 0.930 . S
H429 C439 0.930 . S
C430 H424 0.930 . S
C430 C431 1.355 . S
C430 C432 1.415 . S
C431 C430 1.355 . S
C431 C433 1.419 . S
C432 C430 1.415 . S
C432 C437 1.425 1_665 S
C432 C439 1.409 1_665 S
C433 H425 0.930 . S
C433 C431 1.419 . S
C433 C434 1.362 . S
C434 H426 0.930 . S
C434 C433 1.362 . S
C434 C437 1.409 1_665 S
C435 H427 0.930 . S
C435 C436 1.355 . S
C435 C437 1.415 . S
C436 C435 1.355 . S
C436 C438 1.419 . S
C437 C432 1.425 1_445 S
C437 C434 1.409 1_445 S
C437 C435 1.415 . S
C438 H428 0.930 . S
C438 C436 1.419 . S
C438 C439 1.362 . S
C439 H429 0.930 . S
C439 C432 1.409 1_445 S
C439 C438 1.362 . S
C191 N12 1.703 . S
C196 N58 1.743 . S
C207 N81 1.736 . S
C212 N35 1.731 . S
C223 N150 1.738 . S
C228 N104 1.729 . S
C239 N127 1.745 . S
C244 N173 1.706 . S
C255 C145 1.642 . S
C260 C7 1.645 . S
C271 C30 1.626 . S
C276 C168 1.654 . S
C287 C53 1.637 . S
C292 C99 1.650 . S
C303 C122 1.622 . S
C308 C76 1.660 . S
C319 C16 1.673 . S
C324 C131 1.669 . S
C335 C154 1.633 . S
C340 C39 1.646 . S
C351 C177 1.627 . S
C356 C62 1.635 . S
C367 C85 1.626 . S
C372 C108 1.629 . S
C383 N2 1.417 . S
C388 N48 1.396 . S
C399 N71 1.312 . S
C404 N25 1.314 . S
C415 N140 1.313 . S
C420 N94 1.313 . S
C431 N163 1.368 . S
C436 N117 1.340 . S
