# Generated by pormake.
# Topology dft, (4)-cn, num edge types: 1
# Building blocks:
#     Node 0, Type 0, BuildingBlock: UXUYUI_clean_sbu_0, # of connection points: 4
#     Node 1, Type 0, BuildingBlock: UXUYUI_clean_sbu_0, # of connection points: 4
#     Node 2, Type 0, BuildingBlock: UXUYUI_clean_sbu_0, # of connection points: 4
#     Node 3, Type 0, BuildingBlock: UXUYUI_clean_sbu_0, # of connection points: 4
#     Node 4, Type 0, BuildingBlock: UXUYUI_clean_sbu_0, # of connection points: 4
#     Node 5, Type 0, BuildingBlock: UXUYUI_clean_sbu_0, # of connection points: 4
#     Node 6, Type 0, BuildingBlock: UXUYUI_clean_sbu_0, # of connection points: 4
#     Node 7, Type 0, BuildingBlock: UXUYUI_clean_sbu_0, # of connection points: 4
#     Edge 8, Type (0, 0), BuildingBlock: KIFKEQ_clean_linker_1, # of connection points: 2
#     Edge 9, Type (0, 0), BuildingBlock: KIFKEQ_clean_linker_1, # of connection points: 2
#     Edge 10, Type (0, 0), BuildingBlock: KIFKEQ_clean_linker_1, # of connection points: 2
#     Edge 11, Type (0, 0), BuildingBlock: KIFKEQ_clean_linker_1, # of connection points: 2
#     Edge 12, Type (0, 0), BuildingBlock: KIFKEQ_clean_linker_1, # of connection points: 2
#     Edge 13, Type (0, 0), BuildingBlock: KIFKEQ_clean_linker_1, # of connection points: 2
#     Edge 14, Type (0, 0), BuildingBlock: KIFKEQ_clean_linker_1, # of connection points: 2
#     Edge 15, Type (0, 0), BuildingBlock: KIFKEQ_clean_linker_1, # of connection points: 2
#     Edge 16, Type (0, 0), BuildingBlock: KIFKEQ_clean_linker_1, # of connection points: 2
#     Edge 17, Type (0, 0), BuildingBlock: KIFKEQ_clean_linker_1, # of connection points: 2
#     Edge 18, Type (0, 0), BuildingBlock: KIFKEQ_clean_linker_1, # of connection points: 2
#     Edge 19, Type (0, 0), BuildingBlock: KIFKEQ_clean_linker_1, # of connection points: 2
#     Edge 20, Type (0, 0), BuildingBlock: KIFKEQ_clean_linker_1, # of connection points: 2
#     Edge 21, Type (0, 0), BuildingBlock: KIFKEQ_clean_linker_1, # of connection points: 2
#     Edge 22, Type (0, 0), BuildingBlock: KIFKEQ_clean_linker_1, # of connection points: 2
#     Edge 23, Type (0, 0), BuildingBlock: KIFKEQ_clean_linker_1, # of connection points: 2
# Relax obj value: 0.226
# Max RMSD: 0.178
# Mean RMSD: 0.177
data_MOF--net-dft--node1-UXUYUI_clean_sbu_0--edge1-KIFKEQ_clean_linker_1
_symmetry_space_group_name_H-M    P1
_symmetry_Int_Tables_number       1
_symmetry_cell_setting            triclinic
loop_
_symmetry_equiv_pos_as_xyz
'x, y, z'
_cell_length_a     51.00562
_cell_length_b     50.91875
_cell_length_c     58.972449
_cell_angle_alpha  90.00317
_cell_angle_beta   90.005884
_cell_angle_gamma 90.002834
loop_
_atom_site_label
_atom_site_type_symbol
_atom_site_fract_x
_atom_site_fract_y
_atom_site_fract_z
_atom_type_partial_charge
Li0 Li 0.27557 0.01693 0.19463 0.0
Li1 Li 0.31372 0.98923 0.20056 0.0
Li2 Li 0.29029 0.99093 0.16305 0.0
Li3 Li 0.2706 0.96803 0.19561 0.0
C4 C 0.31413 0.0456 0.17899 0.0
N5 N 0.32139 0.09937 0.1798 0.0
C6 C 0.33201 0.05679 0.19412 0.0
C7 C 0.30017 0.06172 0.16408 0.0
C8 C 0.33536 0.08402 0.19431 0.0
C9 C 0.30404 0.08887 0.16482 0.0
C10 C 0.28702 0.98552 0.24219 0.0
C11 C 0.29379 0.95249 0.27093 0.0
N12 N 0.29622 0.97169 0.28683 0.0
C13 C 0.28922 0.0049 0.25887 0.0
C14 C 0.28901 0.95908 0.24832 0.0
C15 C 0.29403 -0.00247 0.28131 0.0
C16 C 0.23591 0.05515 0.19361 0.0
N17 N 0.25925 0.04894 0.20332 0.0
C18 C 0.25786 0.08772 0.22614 0.0
C19 C 0.27044 0.0647 0.21923 0.0
C20 C 0.23364 0.09454 0.21647 0.0
C21 C 0.22277 0.07802 0.19987 0.0
H22 H 0.22726 0.04211 0.18127 0.0
H23 H 0.28906 0.05932 0.22663 0.0
C24 C 0.36545 0.97195 0.20316 0.0
N25 N 0.34731 0.98668 0.21423 0.0
C26 C 0.39106 0.97045 0.21122 0.0
C27 C 0.37919 -8e-05 0.24169 0.0
C28 C 0.3536 0.00049 0.23322 0.0
C29 C 0.39826 0.98481 0.23055 0.0
H30 H 0.36019 0.9619 0.18767 0.0
H31 H 0.33905 0.01274 0.24129 0.0
C32 C 0.23854 0.99152 0.1561 0.0
N33 N 0.20825 0.98621 0.11751 0.0
C34 C 0.22484 0.96821 0.15205 0.0
C35 C 0.23661 0.01223 0.14062 0.0
C36 C 0.20967 0.96589 0.13243 0.0
C37 C 0.22128 0.00913 0.12117 0.0
C38 C 0.31165 0.93418 0.17991 0.0
C39 C 0.31013 0.91911 0.16013 0.0
C40 C 0.32144 0.92286 0.19978 0.0
C41 C 0.31795 0.89282 0.16069 0.0
C42 C 0.32908 0.89651 0.19964 0.0
N43 N 0.32715 0.88215 0.18027 0.0
C44 C 0.30941 0.00876 0.1208 0.0
C45 C 0.28228 0.97108 0.11861 0.0
C46 C 0.31168 0.00952 0.09721 0.0
N47 N 0.29458 0.98996 0.13095 0.0
C48 C 0.28388 0.97117 0.09499 0.0
C49 C 0.29856 0.99072 0.08395 0.0
H50 H 0.31935 0.0233 0.13101 0.0
H51 H 0.27075 0.95624 0.12709 0.0
C52 C 0.22885 0.94793 0.2201 0.0
N53 N 0.24786 0.9406 0.20527 0.0
C54 C 0.21074 0.9296 0.22806 0.0
C55 C 0.23213 0.8964 0.20536 0.0
C56 C 0.24971 0.91545 0.1977 0.0
C57 C 0.21223 0.90337 0.22072 0.0
H58 H 0.22769 0.96817 0.22561 0.0
H59 H 0.26457 0.9101 0.18558 0.0
O60 O 0.31025 0.019 0.17881 0.0
O61 O 0.28216 0.99246 0.22014 0.0
O62 O 0.25371 0.99405 0.17512 0.0
O63 O 0.30403 0.95997 0.17962 0.0
H64 H 0.34309 0.04462 0.20567 0.0
H65 H 0.28633 0.05339 0.15221 0.0
H66 H 0.34904 0.09296 0.20601 0.0
H67 H 0.29322 0.10159 0.15349 0.0
H68 H 0.29544 0.93209 0.27587 0.0
H69 H 0.2874 0.02544 0.25455 0.0
H70 H 0.28663 0.94376 0.23585 0.0
H71 H 0.29598 0.01235 0.29434 0.0
H72 H 0.26694 0.10002 0.2389 0.0
H73 H 0.20392 0.08233 0.19228 0.0
H74 H 0.40538 0.95912 0.20183 0.0
H75 H 0.38413 0.01147 0.25651 0.0
H76 H 0.22602 0.95199 0.16384 0.0
H77 H 0.24703 0.03042 0.14347 0.0
H78 H 0.19906 0.94792 0.12903 0.0
H79 H 0.21978 0.02493 0.10898 0.0
H80 H 0.30292 0.92757 0.14454 0.0
H81 H 0.32352 0.93434 0.21506 0.0
H82 H 0.31673 0.88091 0.14553 0.0
H83 H 0.33665 0.88752 0.21492 0.0
H84 H 0.32362 0.02465 0.08948 0.0
H85 H 0.27319 0.95645 0.0855 0.0
H86 H 0.19546 0.93606 0.23951 0.0
H87 H 0.23423 0.87641 0.19937 0.0
Li88 Li 0.9929 0.29367 0.66427 0.0
Li89 Li 0.99304 0.31798 0.70002 0.0
Li90 Li 0.01472 0.27548 0.69697 0.0
Li91 Li 0.96703 0.27935 0.69708 0.0
C92 C 0.03846 0.31985 0.66479 0.0
N93 N 0.06734 0.34359 0.63086 0.0
C94 C 0.03894 0.34721 0.66292 0.0
C95 C 0.05277 0.30457 0.64947 0.0
C96 C 0.05366 0.35884 0.64565 0.0
C97 C 0.06719 0.31694 0.6324 0.0
C98 C 0.93701 0.31209 0.67543 0.0
C99 C 0.89271 0.3168 0.68914 0.0
N100 N 0.88351 0.30963 0.6684 0.0
C101 C 0.92713 0.30485 0.65422 0.0
C102 C 0.91969 0.31823 0.69302 0.0
C103 C 0.90001 0.3037 0.65102 0.0
C104 C 0.99075 0.27321 0.62013 0.0
N105 N 0.99362 0.29584 0.63206 0.0
C106 C -0.00099 0.32035 0.59781 0.0
C107 C -0.00306 0.31928 0.62141 0.0
C108 C -0.00316 0.29715 0.58499 0.0
C109 C 0.99215 0.27342 0.59652 0.0
H110 H 0.98734 0.25494 0.62897 0.0
H111 H -0.00156 0.3371 0.63127 0.0
C112 C 0.01802 0.35975 0.72297 0.0
N113 N 0.99528 0.35182 0.71309 0.0
C114 C 0.02004 0.38492 0.73217 0.0
C115 C 0.97513 0.39306 0.721 0.0
C116 C 0.974 0.36777 0.71204 0.0
C117 C -0.00155 0.40202 0.73104 0.0
H118 H 0.03467 0.34661 0.72342 0.0
H119 H 0.9563 0.36104 0.70385 0.0
C120 C -0.00185 0.23299 0.67602 0.0
N121 N 0.01816 0.18258 0.67654 0.0
C122 C 0.98669 0.21378 0.68974 0.0
C123 C 0.01966 0.22652 0.66243 0.0
C124 C -0.00289 0.18841 0.68978 0.0
C125 C 0.02954 0.20094 0.66299 0.0
C126 C 0.9962 0.30051 0.74158 0.0
C127 C 0.02118 0.29975 0.75131 0.0
C128 C 0.97629 0.31494 0.75209 0.0
C129 C 0.02585 0.31355 0.77138 0.0
C130 C 0.98177 0.32852 0.77212 0.0
N131 N 0.00623 0.32755 0.78127 0.0
C132 C 0.0674 0.25678 0.69899 0.0
C133 C 0.03649 0.23502 0.72243 0.0
C134 C 0.08711 0.23942 0.70578 0.0
N135 N 0.04264 0.25398 0.70713 0.0
C136 C 0.05546 0.21714 0.72952 0.0
C137 C 0.08108 0.21906 0.72098 0.0
H138 H 0.07179 0.27223 0.68704 0.0
H139 H 0.01667 0.23355 0.72882 0.0
C140 C 0.92142 0.24878 0.69069 0.0
N141 N 0.93623 0.26159 0.70634 0.0
C142 C 0.90039 0.23317 0.69759 0.0
C143 C 0.91003 0.2447 0.7365 0.0
C144 C 0.9308 0.2601 0.72885 0.0
C145 C 0.89485 0.23056 0.72082 0.0
H146 H 0.92656 0.24996 0.67293 0.0
H147 H 0.94315 0.27013 0.74093 0.0
O148 O 0.02408 0.30809 0.68153 0.0
O149 O 0.96349 0.31295 0.679 0.0
O150 O 0.98866 0.25812 0.67615 0.0
O151 O 0.99134 0.2875 0.72173 0.0
H152 H 0.0279 0.35936 0.67454 0.0
H153 H 0.05245 0.28337 0.65054 0.0
H154 H 0.05414 0.37999 0.64395 0.0
H155 H 0.07821 0.30535 0.62033 0.0
H156 H 0.87909 0.32131 0.70265 0.0
H157 H 0.94023 0.30001 0.64042 0.0
H158 H 0.92701 0.32362 0.70961 0.0
H159 H 0.89208 0.29804 0.63472 0.0
H160 H 0.00277 0.33912 0.58983 0.0
H161 H 0.98947 0.25513 0.58746 0.0
H162 H 0.03834 0.39103 0.73984 0.0
H163 H 0.95821 0.40576 0.71932 0.0
H164 H 0.97015 0.21847 0.70047 0.0
H165 H 0.02881 0.24117 0.65177 0.0
H166 H 0.98854 0.17338 0.70041 0.0
H167 H 0.04629 0.19571 0.65269 0.0
H168 H 0.03687 0.28885 0.74334 0.0
H169 H 0.95692 0.31599 0.74466 0.0
H170 H 0.04512 0.31322 0.77905 0.0
H171 H 0.96661 0.33992 0.78034 0.0
H172 H 0.10664 0.2415 0.6988 0.0
H173 H 0.05015 0.20199 0.74156 0.0
H174 H 0.8894 0.2223 0.68499 0.0
H175 H 0.90627 0.24337 0.75454 0.0
Li176 Li 0.67823 0.00775 0.19971 0.0
Li177 Li 0.71878 0.98088 0.19621 0.0
Li178 Li 0.72253 0.02852 0.19988 0.0
Li179 Li 0.70633 0.0092 0.1662 0.0
C180 C 0.71773 0.011 0.24178 0.0
N181 N 0.74132 0.02982 0.28069 0.0
C182 C 0.74063 -0.00073 0.24995 0.0
C183 C 0.70679 0.03227 0.2534 0.0
C184 C 0.75225 0.00907 0.26967 0.0
C185 C 0.71903 0.04152 0.27303 0.0
C186 C 0.68171 0.95299 0.17793 0.0
C187 C 0.69061 0.90966 0.16333 0.0
N188 N 0.67444 0.89925 0.17932 0.0
C189 C 0.66512 0.94189 0.19417 0.0
C190 C 0.6945 0.93679 0.16232 0.0
C191 C 0.66171 0.91467 0.1946 0.0
C192 C 0.6248 0.00348 0.19409 0.0
N193 N 0.64336 0.00732 0.21024 0.0
C194 C 0.61106 0.00539 0.23955 0.0
C195 C 0.63712 0.00839 0.23264 0.0
C196 C 0.59152 0.00092 0.22321 0.0
C197 C 0.59863 0.00034 0.2002 0.0
H198 H 0.63049 0.00212 0.17647 0.0
H199 H 0.65241 0.01083 0.24515 0.0
C200 C 0.75508 0.9391 0.19396 0.0
N201 N 0.73369 0.94833 0.20509 0.0
C202 C 0.76685 0.91569 0.20074 0.0
C203 C 0.73445 0.91176 0.23048 0.0
C204 C 0.72318 0.93521 0.223 0.0
C205 C 0.75666 0.90181 0.21934 0.0
H206 H 0.76333 0.95014 0.18009 0.0
H207 H 0.70625 0.94319 0.23164 0.0
C208 C 0.68597 0.05705 0.16648 0.0
N209 N 0.67647 0.09162 0.13132 0.0
C210 C 0.70445 0.07629 0.16099 0.0
C211 C 0.6626 0.05548 0.1542 0.0
C212 C 0.69928 0.09359 0.14314 0.0
C213 C 0.65819 0.07309 0.13643 0.0
C214 C 0.75817 0.00783 0.16134 0.0
C215 C 0.77314 0.03066 0.15888 0.0
C216 C 0.7599 0.98802 0.14498 0.0
C217 C 0.78952 0.03332 0.14003 0.0
C218 C 0.77647 0.99145 0.12635 0.0
N219 N 0.79081 0.01384 0.12429 0.0
C220 C 0.76833 0.04831 0.21888 0.0
C221 C 0.73373 0.07939 0.21791 0.0
C222 C 0.785 0.06659 0.2289 0.0
N223 N 0.74334 0.05504 0.21346 0.0
C224 C 0.74982 0.09841 0.22783 0.0
C225 C 0.77586 0.09208 0.23339 0.0
H226 H 0.77533 0.0287 0.21522 0.0
H227 H 0.71361 0.08403 0.2137 0.0
C228 C 0.68762 0.99548 0.12283 0.0
N229 N 0.70417 0.01217 0.13375 0.0
C230 C 0.68599 0.99565 0.0992 0.0
C231 C 0.71796 0.03066 0.09845 0.0
C232 C 0.71876 0.02999 0.12208 0.0
C233 C 0.70163 0.01312 0.08672 0.0
H234 H 0.67589 0.98178 0.13246 0.0
H235 H 0.73138 0.04345 0.13103 0.0
O236 O 0.70652 0.00222 0.22213 0.0
O237 O 0.68585 0.97952 0.17759 0.0
O238 O 0.69079 0.03979 0.18375 0.0
O239 O 0.74211 0.00483 0.17975 0.0
H240 H 0.74954 0.983 0.24101 0.0
H241 H 0.68932 0.04185 0.24708 0.0
H242 H 0.77004 0.00026 0.27614 0.0
H243 H 0.71089 0.05807 0.28211 0.0
H244 H 0.70048 0.89687 0.15142 0.0
H245 H 0.65525 0.95409 0.20652 0.0
H246 H 0.70744 0.94507 0.14966 0.0
H247 H 0.64904 0.90579 0.20715 0.0
H248 H 0.6064 0.00569 0.25747 0.0
H249 H 0.58414 -0.00274 0.18704 0.0
H250 H 0.78427 0.90898 0.19198 0.0
H251 H 0.72597 0.90161 0.24486 0.0
H252 H 0.72279 0.07759 0.17012 0.0
H253 H 0.64811 0.0407 0.1582 0.0
H254 H 0.71348 0.10847 0.13861 0.0
H255 H 0.64025 0.072 0.12669 0.0
H256 H 0.77192 0.04631 0.17121 0.0
H257 H 0.74822 0.97038 0.14642 0.0
H258 H 0.80112 0.05093 0.13787 0.0
H259 H 0.77783 0.97637 0.11349 0.0
H260 H 0.80502 0.06097 0.23264 0.0
H261 H 0.74195 0.11777 0.23123 0.0
H262 H 0.67319 0.98177 0.09076 0.0
H263 H 0.73004 0.0447 0.08943 0.0
Li264 Li 0.98124 0.72202 0.69746 0.0
Li265 Li 0.029 0.71955 0.69537 0.0
Li266 Li 0.00155 0.70517 0.66359 0.0
Li267 Li 0.00416 0.68014 0.69897 0.0
C268 C 0.99534 0.76545 0.67695 0.0
N269 N 0.97409 0.81522 0.68004 0.0
C270 C 0.00719 0.7844 0.69071 0.0
C271 C 0.97281 0.77185 0.66464 0.0
C272 C 0.99612 0.80945 0.69205 0.0
C273 C 0.96232 0.7971 0.66649 0.0
C274 C 0.00365 0.69692 0.74092 0.0
C275 C 0.02136 0.66895 0.77016 0.0
N276 N -0.00231 0.66902 0.78077 0.0
C277 C 0.97951 0.69676 0.75213 0.0
C278 C 0.02479 0.68298 0.75002 0.0
C279 C 0.97689 0.68254 0.77226 0.0
C280 C 0.928 0.7375 0.70231 0.0
N281 N 0.95299 0.74191 0.70931 0.0
C282 C 0.93882 0.77635 0.73387 0.0
C283 C 0.95868 0.76064 0.72495 0.0
C284 C 0.91279 0.77255 0.72676 0.0
C285 C 0.90747 0.75271 0.71084 0.0
H286 H 0.92399 0.72218 0.69014 0.0
H287 H 0.97875 0.76349 0.73034 0.0
C288 C 0.07392 0.74998 0.68652 0.0
N289 N 0.06029 0.73748 0.70311 0.0
C290 C 0.09635 0.76438 0.69188 0.0
C291 C 0.09019 0.75279 0.73129 0.0
C292 C 0.06793 0.73855 0.72515 0.0
C293 C 0.1046 0.76614 0.71457 0.0
H294 H 0.06713 0.74902 0.66916 0.0
H295 H 0.05641 0.72888 0.73804 0.0
C296 C 0.95722 0.6775 0.66547 0.0
N297 N 0.92778 0.65338 0.6321 0.0
C298 C 0.95757 0.65017 0.66324 0.0
C299 C 0.9418 0.69255 0.6508 0.0
C300 C 0.94255 0.63835 0.64626 0.0
C301 C 0.9271 0.67999 0.634 0.0
C302 C 0.05839 0.68729 0.67202 0.0
C303 C 0.06699 0.69477 0.65046 0.0
C304 C 0.07675 0.68099 0.68877 0.0
C305 C 0.09388 0.69602 0.64607 0.0
C306 C 0.10346 0.68253 0.68372 0.0
N307 N 0.1114 0.68995 0.66265 0.0
C308 C 0.00091 0.72637 0.61964 0.0
C309 C -0.00302 0.68004 0.62061 0.0
C310 C -0.00063 0.72631 0.59603 0.0
N311 N -0.0006 0.7035 0.6314 0.0
C312 C 0.99482 0.67909 0.59701 0.0
C313 C 0.99595 0.70248 0.58432 0.0
H314 H 0.00356 0.74469 0.6286 0.0
H315 H -0.00347 0.66206 0.63033 0.0
C316 C 0.9816 0.63782 0.7228 0.0
N317 N 0.00347 0.64608 0.71174 0.0
C318 C 0.98059 0.61262 0.73205 0.0
C319 C 0.02465 0.60505 0.71835 0.0
C320 C 0.0248 0.63038 0.70942 0.0
C321 C 0.00225 0.59579 0.72969 0.0
H322 H 0.96486 0.65076 0.72423 0.0
H323 H 0.04177 0.63736 0.70029 0.0
O324 O 0.00552 0.74064 0.67581 0.0
O325 O 0.00648 0.71035 0.72098 0.0
O326 O 0.97188 0.68946 0.68192 0.0
O327 O 0.03216 0.68633 0.67676 0.0
H328 H 0.02455 0.77975 0.70044 0.0
H329 H 0.96338 0.75737 0.65398 0.0
H330 H 0.00499 0.82428 0.70272 0.0
H331 H 0.94479 0.80227 0.65719 0.0
H332 H 0.03749 0.65792 0.77731 0.0
H333 H 0.96288 0.70727 0.74526 0.0
H334 H 0.04353 0.68265 0.74144 0.0
H335 H 0.9583 0.68216 0.78108 0.0
H336 H 0.94389 0.7916 0.74588 0.0
H337 H 0.88765 0.74885 0.70516 0.0
H338 H 0.10697 0.7742 0.67843 0.0
H339 H 0.09552 0.75404 0.74903 0.0
H340 H 0.96946 0.63821 0.67436 0.0
H341 H 0.94146 0.71373 0.65216 0.0
H342 H 0.9427 0.61723 0.64429 0.0
H343 H 0.91523 0.69141 0.62243 0.0
H344 H 0.05308 0.69974 0.6373 0.0
H345 H 0.07045 0.6754 0.70561 0.0
H346 H 0.10081 0.70187 0.62949 0.0
H347 H 0.11788 0.67792 0.69656 0.0
H348 H 0.00117 0.74479 0.58709 0.0
H349 H 0.99198 0.66023 0.58891 0.0
H350 H 0.96299 0.60631 0.74075 0.0
H351 H 0.04155 0.59256 0.7157 0.0
Li352 Li 0.26954 0.01945 0.80027 0.0
Li353 Li 0.28708 0.99652 0.83357 0.0
Li354 Li 0.31285 0.00122 0.79932 0.0
Li355 Li 0.27603 0.97311 0.79956 0.0
C356 C 0.29435 0.05031 0.83338 0.0
N357 N 0.28272 0.09203 0.86162 0.0
C358 C 0.26923 0.05287 0.84261 0.0
C359 C 0.31353 0.06898 0.8385 0.0
C360 C 0.26374 0.07409 0.85685 0.0
C361 C 0.30727 0.08994 0.85281 0.0
C362 C 0.23456 0.97417 0.82644 0.0
C363 C 0.22486 0.93453 0.84723 0.0
N364 N 0.20004 0.93486 0.83883 0.0
C365 C 0.20893 0.97413 0.81804 0.0
C366 C 0.2426 0.95421 0.84116 0.0
C367 C 0.19178 0.95408 0.82449 0.0
C368 C 0.22408 0.0393 0.78088 0.0
N369 N 0.24756 0.04683 0.78953 0.0
C370 C 0.23798 0.0919 0.78184 0.0
C371 C 0.25499 0.07249 0.78982 0.0
C372 C 0.21322 0.08472 0.77346 0.0
C373 C 0.20643 0.05801 0.77285 0.0
H374 H 0.21916 0.01869 0.7801 0.0
H375 H 0.27407 0.07794 0.79623 0.0
C376 C 0.31285 0.9927 0.87535 0.0
N377 N 0.28895 0.99623 0.86565 0.0
C378 C 0.3154 0.99263 0.89893 0.0
C379 C 0.26868 -0.0001 0.90201 0.0
C380 C 0.26706 -8e-05 0.87839 0.0
C381 C 0.29311 0.99622 0.91261 0.0
H382 H 0.32993 0.99006 0.86472 0.0
H383 H 0.24832 0.00283 0.87019 0.0
C384 C 0.29127 0.0148 0.75788 0.0
N385 N 0.30267 0.04774 0.72197 0.0
C386 C 0.28483 0.00741 0.73576 0.0
C387 C 0.30354 0.03895 0.76175 0.0
C388 C 0.29076 0.02433 0.71782 0.0
C389 C 0.30912 0.05532 0.74337 0.0
C390 C 0.32404 0.94963 0.81041 0.0
C391 C 0.32449 0.94328 0.78734 0.0
C392 C 0.3402 0.93601 0.82549 0.0
C393 C 0.34115 0.92337 0.77976 0.0
C394 C 0.35659 0.91622 0.81724 0.0
N395 N 0.35673 0.91036 0.79473 0.0
C396 C 0.36434 0.01735 0.80412 0.0
C397 C 0.35604 -0.00326 0.76877 0.0
C398 C 0.39082 0.0199 0.79883 0.0
N399 N 0.34768 0.00576 0.78923 0.0
C400 C 0.38247 -0.00132 0.76283 0.0
C401 C 0.40023 0.0102 0.77807 0.0
H402 H 0.35709 0.02403 0.82037 0.0
H403 H 0.34232 0.98754 0.75726 0.0
C404 C 0.2456 0.94492 0.76927 0.0
N405 N 0.2609 0.94193 0.78791 0.0
C406 C 0.23252 0.92341 0.76005 0.0
C407 C 0.25132 0.89606 0.7894 0.0
C408 C 0.26414 0.91815 0.79801 0.0
C409 C 0.23516 0.8986 0.77021 0.0
H410 H 0.24318 0.96419 0.76183 0.0
H411 H 0.27633 0.91642 0.81295 0.0
O412 O 0.30038 0.02965 0.81948 0.0
O413 O 0.25194 0.99318 0.81983 0.0
O414 O 0.28541 -0.00166 0.77552 0.0
O415 O 0.30807 0.96918 0.81833 0.0
H416 H 0.25405 0.03875 0.83879 0.0
H417 H 0.33307 0.06731 0.83147 0.0
H418 H 0.24439 0.07631 0.8641 0.0
H419 H 0.32194 0.10453 0.85691 0.0
H420 H 0.23089 0.9189 0.8585 0.0
H421 H 0.2023 0.98936 0.80665 0.0
H422 H 0.2625 0.95361 0.84749 0.0
H423 H 0.17191 0.95379 0.81809 0.0
H424 H 0.24396 0.11229 0.78258 0.0
H425 H 0.18777 0.05163 0.76603 0.0
H426 H 0.33467 0.99014 0.90633 0.0
H427 H 0.25093 0.0024 0.91184 0.0
H428 H 0.27535 0.98877 0.73248 0.0
H429 H 0.30877 0.04506 0.7787 0.0
H430 H 0.28587 0.01885 0.70061 0.0
H431 H 0.3186 0.07406 0.74612 0.0
H432 H 0.31217 0.95361 0.77539 0.0
H433 H 0.34009 0.94074 0.84339 0.0
H434 H 0.34171 0.91827 0.76196 0.0
H435 H 0.36922 0.90552 0.82872 0.0
H436 H 0.40395 0.02848 0.81122 0.0
H437 H 0.38899 0.99105 0.74664 0.0
H438 H 0.21987 0.92633 0.74552 0.0
H439 H 0.25395 0.87725 0.79767 0.0
Li440 Li 0.00834 0.31516 0.29953 0.0
Li441 Li 0.01081 0.29004 0.33481 0.0
Li442 Li 0.03392 0.27601 0.30047 0.0
Li443 Li 0.98626 0.27286 0.30322 0.0
C444 C 0.06591 0.30814 0.3208 0.0
N445 N 0.1198 0.3051 0.32468 0.0
C446 C 0.07732 0.29967 0.34107 0.0
C447 C 0.08191 0.31523 0.30255 0.0
C448 C 0.10461 0.29825 0.34269 0.0
C449 C 0.10911 0.31349 0.30483 0.0
C450 C 0.96601 0.31695 0.33742 0.0
C451 C 0.94052 0.31383 0.37177 0.0
N452 N 0.94077 0.34045 0.37358 0.0
C453 C 0.96597 0.34429 0.33959 0.0
C454 C 0.95311 0.30158 0.35359 0.0
C455 C 0.95309 0.3558 0.358 0.0
C456 C 0.98245 0.35757 0.2783 0.0
N457 N 0.00554 0.34949 0.28744 0.0
C458 C 0.02477 0.39154 0.28104 0.0
C459 C 0.02656 0.36577 0.28884 0.0
C460 C 0.00106 0.40065 0.27178 0.0
C461 C 0.9798 0.38318 0.27021 0.0
H462 H 0.96598 0.34421 0.27765 0.0
H463 H 0.04453 0.35893 0.29651 0.0
C464 C 0.01425 0.26954 0.37908 0.0
N465 N 0.01247 0.29216 0.36698 0.0
C466 C 0.01402 0.27022 0.40272 0.0
C467 C 0.01061 0.31752 0.40103 0.0
C468 C 0.01144 0.31594 0.3774 0.0
C469 C 0.01162 0.29441 0.41408 0.0
H470 H 0.01575 0.25094 0.37035 0.0
H471 H 0.01064 0.33366 0.36735 0.0
C472 C 0.00198 0.29854 0.25793 0.0
N473 N 0.98976 0.32646 0.21917 0.0
C474 C 0.97652 0.29785 0.24916 0.0
C475 C 0.02124 0.31336 0.24694 0.0
C476 C 0.97074 0.3121 0.22954 0.0
C477 C 0.01466 0.32738 0.22739 0.0
C478 C 0.00367 0.22961 0.32206 0.0
C479 C 0.01375 0.21095 0.30701 0.0
C480 C 0.98309 0.22277 0.33656 0.0
C481 C 0.00292 0.18576 0.30662 0.0
C482 C 0.97276 0.19739 0.33561 0.0
N483 N 0.98279 0.17956 0.32078 0.0
C484 C 0.07965 0.24505 0.30413 0.0
C485 C 0.06908 0.25863 0.26678 0.0
C486 C 0.10107 0.23071 0.29614 0.0
N487 N 0.06416 0.25851 0.28941 0.0
C488 C 0.09025 0.24456 0.25805 0.0
C489 C 0.10637 0.23007 0.27277 0.0
H490 H 0.07497 0.245 0.32202 0.0
H491 H 0.05626 0.26921 0.25543 0.0
C492 C 0.93316 0.25583 0.30465 0.0
N493 N 0.95685 0.25233 0.29455 0.0
C494 C 0.91209 0.23958 0.29903 0.0
C495 C 0.94008 0.21695 0.27232 0.0
C496 C 0.96055 0.23366 0.27841 0.0
C497 C 0.91551 0.21963 0.28284 0.0
H498 H 0.93068 0.27102 0.31723 0.0
H499 H 0.97956 0.23159 0.27048 0.0
O500 O 0.03923 0.3092 0.31874 0.0
O501 O 0.97868 0.30531 0.3196 0.0
O502 O 0.00794 0.28502 0.27731 0.0
O503 O 0.01356 0.25457 0.32231 0.0
H504 H 0.06524 0.29404 0.35534 0.0
H505 H 0.07339 0.3216 0.28667 0.0
H506 H 0.11371 0.29163 0.35824 0.0
H507 H 0.12172 0.31871 0.29079 0.0
H508 H 0.93064 0.30215 0.38449 0.0
H509 H 0.97594 0.35652 0.32734 0.0
H510 H 0.95319 0.28039 0.35233 0.0
H511 H 0.95298 0.37692 0.35994 0.0
H512 H 0.04148 0.40445 0.28304 0.0
H513 H 0.96123 0.38933 0.26307 0.0
H514 H 0.01571 0.25191 0.41194 0.0
H515 H 0.00855 0.33663 0.40886 0.0
H516 H 0.96132 0.28664 0.25751 0.0
H517 H 0.04096 0.31438 0.25364 0.0
H518 H 0.95111 0.31181 0.22261 0.0
H519 H 0.02932 0.33908 0.21881 0.0
H520 H 0.02954 0.21595 0.29556 0.0
H521 H 0.97497 0.23701 0.34821 0.0
H522 H 0.01043 0.17116 0.29498 0.0
H523 H 0.9567 0.19188 0.34661 0.0
H524 H 0.11276 0.21951 0.30804 0.0
H525 H 0.09377 0.24477 0.23994 0.0
H526 H 0.89351 0.24224 0.30762 0.0
H527 H 0.94344 0.20213 0.25947 0.0
Li528 Li 0.70991 -0.0008 0.83672 0.0
Li529 Li 0.7259 0.97336 0.80444 0.0
Li530 Li 0.72181 0.01985 0.80157 0.0
Li531 Li 0.68364 0.99381 0.80278 0.0
C532 C 0.76339 0.01834 0.82821 0.0
N533 N 0.79993 0.05671 0.83823 0.0
C534 C 0.78901 0.01626 0.82001 0.0
C535 C 0.75638 0.03992 0.84156 0.0
C536 C 0.80719 0.03588 0.82524 0.0
C537 C 0.77513 0.0591 0.84644 0.0
C538 C 0.69953 0.94599 0.83905 0.0
C539 C 0.68434 0.90865 0.8605 0.0
N540 N 0.70877 0.90569 0.86939 0.0
C541 C 0.72449 0.94259 0.84841 0.0
C542 C 0.67928 0.92893 0.84515 0.0
C543 C 0.72876 0.92209 0.86371 0.0
C544 C 0.68493 0.00545 0.87877 0.0
N545 N 0.70857 0.00141 0.86876 0.0
C546 C 0.72977 -0.00045 0.90482 0.0
C547 C 0.73077 -0.00169 0.88121 0.0
C548 C 0.70561 0.00366 0.91576 0.0
C549 C 0.68297 0.00661 0.90237 0.0
H550 H 0.66758 0.00755 0.86837 0.0
H551 H 0.74928 0.99484 0.8728 0.0
C552 C 0.77022 0.95059 0.78595 0.0
N553 N 0.74659 0.94438 0.79505 0.0
C554 C 0.78733 0.93084 0.779 0.0
C555 C 0.7549 0.89858 0.7899 0.0
C556 C 0.73845 0.91901 0.79679 0.0
C557 C 0.77984 0.90443 0.78115 0.0
H558 H 0.77569 0.97095 0.78399 0.0
H559 H 0.71925 0.91461 0.80355 0.0
C560 C 0.67514 0.04634 0.81165 0.0
N561 N 0.64374 0.08578 0.79441 0.0
C562 C 0.6745 0.05113 0.78831 0.0
C563 C 0.6598 0.06157 0.8262 0.0
C564 C 0.6585 0.07117 0.77993 0.0
C565 C 0.64406 0.08144 0.81716 0.0
C566 C 0.70419 0.97631 0.76203 0.0
C567 C 0.71105 0.98162 0.73956 0.0
C568 C 0.6906 0.95322 0.7672 0.0
C569 C 0.70419 0.96374 0.7226 0.0
C570 C 0.6841 0.93583 0.74977 0.0
N571 N 0.69098 0.9414 0.72801 0.0
C572 C 0.75546 0.04449 0.77141 0.0
C573 C 0.73564 0.07408 0.79733 0.0
C574 C 0.77064 0.06466 0.76231 0.0
N575 N 0.73865 0.04949 0.78873 0.0
C576 C 0.75036 0.09489 0.78866 0.0
C577 C 0.76843 0.09017 0.77116 0.0
H578 H 0.75755 0.02465 0.76511 0.0
H579 H 0.72245 0.07738 0.8114 0.0
C580 C 0.63089 0.98559 0.81 0.0
N581 N 0.64834 0.99152 0.79341 0.0
C582 C 0.60408 0.98695 0.80571 0.0
C583 C 0.61373 -0.00033 0.76706 0.0
C584 C 0.64043 -0.00186 0.77214 0.0
C585 C 0.59523 0.99461 0.78414 0.0
H586 H 0.63787 0.98069 0.8268 0.0
H587 H 0.65477 0.00326 0.75939 0.0
O588 O 0.745 -0.00018 0.82268 0.0
O589 O 0.69465 0.96605 0.8242 0.0
O590 O 0.69029 0.02656 0.82031 0.0
O591 O 0.71105 0.99368 0.77872 0.0
H592 H 0.79486 -0.00027 0.8097 0.0
H593 H 0.73653 0.04212 0.84773 0.0
H594 H 0.82706 0.03455 0.81895 0.0
H595 H 0.76992 0.07598 0.85663 0.0
H596 H 0.66884 0.89529 0.86537 0.0
H597 H 0.74045 0.95552 0.8439 0.0
H598 H 0.65983 0.93135 0.83809 0.0
H599 H 0.74798 0.91922 0.87107 0.0
H600 H 0.74779 -0.00246 0.91435 0.0
H601 H 0.66387 0.00937 0.91002 0.0
H602 H 0.80613 0.93619 0.77181 0.0
H603 H 0.74839 0.87845 0.79176 0.0
H604 H 0.68612 0.03948 0.77674 0.0
H605 H 0.66001 0.05801 0.8443 0.0
H606 H 0.65779 0.07507 0.76191 0.0
H607 H 0.63207 0.09338 0.82824 0.0
H608 H 0.72161 -0.0006 0.73528 0.0
H609 H 0.68505 0.94871 0.78444 0.0
H610 H 0.70939 0.96761 0.70513 0.0
H611 H 0.6736 0.9179 0.75354 0.0
H612 H 0.78421 0.06027 0.7487 0.0
H613 H 0.74836 0.11421 0.79614 0.0
H614 H 0.59041 0.98259 0.81925 0.0
H615 H 0.60766 0.0059 0.75031 0.0
Li616 Li 0.95612 0.72008 0.30051 0.0
Li617 Li 0.00378 0.72422 0.30052 0.0
Li618 Li 0.98228 0.68138 0.29887 0.0
Li619 Li 0.98197 0.70736 0.33378 0.0
C620 C 0.98567 0.69706 0.25673 0.0
N621 N 0.99635 0.66851 0.21796 0.0
C622 C 0.01045 0.69844 0.24668 0.0
C623 C 0.96628 0.68123 0.247 0.0
C624 C 0.01546 0.68386 0.22708 0.0
C625 C 0.97209 0.66691 0.22743 0.0
C626 C 0.98702 0.76755 0.32037 0.0
C627 C 0.01831 0.80009 0.33265 0.0
N628 N 0.00664 0.8181 0.31892 0.0
C629 C 0.97526 0.78639 0.30645 0.0
C630 C 0.00863 0.77446 0.33367 0.0
C631 C 0.98549 0.81184 0.30595 0.0
C632 C 0.91075 0.75135 0.30566 0.0
N633 N 0.92487 0.73676 0.29072 0.0
C634 C 0.89616 0.74859 0.26046 0.0
C635 C 0.91793 0.73496 0.26854 0.0
C636 C 0.88157 0.76447 0.27531 0.0
C637 C 0.88884 0.7654 0.29829 0.0
H638 H 0.91697 0.75263 0.32316 0.0
H639 H 0.92965 0.72344 0.25701 0.0
C640 C 0.05701 0.74003 0.29676 0.0
N641 N 0.03212 0.7449 0.28974 0.0
C642 C 0.07767 0.75569 0.28911 0.0
C643 C 0.04665 0.78081 0.26696 0.0
C644 C 0.02667 0.76451 0.27486 0.0
C645 C 0.0726 0.77656 0.27412 0.0
H646 H 0.06085 0.72395 0.30824 0.0
H647 H 0.00671 0.76763 0.2693 0.0
C648 C 0.92624 0.68823 0.32307 0.0
N649 N 0.87269 0.6911 0.32965 0.0
C650 C 0.9162 0.6975 0.34361 0.0
C651 C 0.90906 0.68029 0.30591 0.0
C652 C 0.88906 0.69881 0.3466 0.0
C653 C 0.88205 0.68195 0.30955 0.0
C654 C 0.02758 0.68145 0.3342 0.0
C655 C 0.02803 0.65421 0.33716 0.0
C656 C 0.04194 0.69752 0.34887 0.0
C657 C 0.04273 0.64351 0.35489 0.0
C658 C 0.05634 0.68607 0.36642 0.0
N659 N 0.05644 0.65953 0.36905 0.0
C660 C 0.0074 0.63882 0.27712 0.0
C661 C 0.96416 0.63031 0.28992 0.0
C662 C 0.00978 0.61312 0.26914 0.0
N663 N 0.98485 0.64679 0.28729 0.0
C664 C 0.9657 0.60446 0.28226 0.0
C665 C 0.98881 0.5955 0.27186 0.0
H666 H 0.02363 0.65236 0.27547 0.0
H667 H 0.94665 0.63707 0.29839 0.0
C668 C 0.98039 0.72863 0.37794 0.0
N669 N 0.98252 0.70591 0.36601 0.0
C670 C 0.98112 0.72826 0.40159 0.0
C671 C 0.98608 0.68109 0.40026 0.0
C672 C 0.98471 0.68234 0.37664 0.0
C673 C 0.98437 0.70429 0.41315 0.0
H674 H 0.97794 0.74704 0.36909 0.0
H675 H 0.98567 0.6645 0.36675 0.0
O676 O 0.98049 0.7109 0.27611 0.0
O677 O 0.9776 0.74241 0.3208 0.0
O678 O 0.95274 0.68731 0.31963 0.0
O679 O 0.01315 0.69231 0.31705 0.0
H680 H 0.02574 0.71046 0.254 0.0
H681 H 0.94711 0.67963 0.25472 0.0
H682 H 0.03457 0.68467 0.21917 0.0
H683 H 0.95734 0.65443 0.21984 0.0
H684 H 0.03512 0.80567 0.34274 0.0
H685 H 0.95863 0.78136 0.29594 0.0
H686 H 0.01797 0.76011 0.34451 0.0
H687 H 0.97668 0.82659 0.29516 0.0
H688 H 0.89107 0.74706 0.24268 0.0
H689 H 0.87839 0.77767 0.31025 0.0
H690 H 0.0974 0.75131 0.29473 0.0
H691 H 0.04169 0.7968 0.25565 0.0
H692 H 0.92919 0.70381 0.35704 0.0
H693 H 0.91651 0.67334 0.28981 0.0
H694 H 0.881 0.70603 0.36238 0.0
H695 H 0.86853 0.67607 0.29636 0.0
H696 H 0.01697 0.64147 0.32604 0.0
H697 H 0.04174 0.71863 0.34688 0.0
H698 H 0.04317 0.62248 0.35744 0.0
H699 H 0.06741 0.69828 0.37799 0.0
H700 H 0.0279 0.60707 0.26112 0.0
H701 H 0.94926 0.59142 0.28517 0.0
H702 H 0.97891 0.7466 0.41067 0.0
H703 H 0.98884 0.66214 0.40822 0.0
H704 H 0.30211 0.94964 0.05405 0.0
H705 H 0.29728 0.03432 0.05678 0.0
H706 H 0.30135 0.9514 0.0128 0.0
H707 H 0.29792 0.03614 0.01554 0.0
H708 H 0.26738 0.02764 0.94304 0.0
H709 H 0.26959 0.02621 0.98424 0.0
H710 H 0.32693 0.9639 0.98035 0.0
H711 H 0.3237 0.96438 0.93915 0.0
C712 C 0.30098 0.96864 0.04586 0.0
C713 C 0.29963 0.99183 0.05877 0.0
C714 C 0.30089 0.96967 0.02219 0.0
C715 C 0.29953 0.99392 0.01083 0.0
C716 C 0.29863 0.01712 0.02373 0.0
C717 C 0.29862 0.01609 0.0474 0.0
C718 C 0.28027 0.01344 0.95096 0.0
C719 C 0.29525 0.99603 0.93775 0.0
C720 C 0.28181 0.01287 0.9746 0.0
C721 C 0.29846 0.99495 0.98564 0.0
C722 C 0.31368 0.97774 0.97243 0.0
C723 C 0.31206 0.97825 0.94877 0.0
H724 H 0.98151 0.33577 0.55504 0.0
H725 H 0.01872 0.25943 0.55763 0.0
H726 H 0.98615 0.33592 0.51383 0.0
H727 H 0.02186 0.25922 0.51644 0.0
H728 H 0.98802 0.25884 0.4425 0.0
H729 H 0.98556 0.25998 0.48371 0.0
H730 H 0.02671 0.33395 0.48434 0.0
H731 H 0.03066 0.33235 0.4431 0.0
C732 C 0.99081 0.31911 0.54696 0.0
C733 C -0.00039 0.29752 0.55982 0.0
C734 C 0.99331 0.3192 0.52335 0.0
C735 C 0.00422 0.29753 0.51208 0.0
C736 C 0.01309 0.27602 0.52479 0.0
C737 C 0.01107 0.27612 0.54839 0.0
C738 C -0.00295 0.27515 0.45131 0.0
C739 C 0.00974 0.2954 0.4393 0.0
C740 C 0.99542 0.27585 0.47492 0.0
C741 C 0.00595 0.29703 0.48708 0.0
C742 C 0.01826 0.31751 0.47525 0.0
C743 C 0.02036 0.3166 0.45162 0.0
H744 H 0.67471 0.03561 0.9421 0.0
H745 H 0.73307 0.97423 0.94658 0.0
H746 H 0.67297 0.03784 0.98342 0.0
H747 H 0.73179 0.97712 0.98779 0.0
H748 H 0.74397 0.01314 0.05862 0.0
H749 H 0.74429 0.01095 0.01725 0.0
H750 H 0.65965 0.00893 0.01677 0.0
H751 H 0.65932 0.01133 0.05826 0.0
C752 C 0.68701 0.02245 0.95184 0.0
C753 C 0.70413 0.00482 0.94094 0.0
C754 C 0.68604 0.02381 0.9755 0.0
C755 C 0.70235 0.00776 0.98877 0.0
C756 C 0.7193 0.99001 0.97795 0.0
C757 C 0.72008 0.98845 0.95433 0.0
C758 C 0.72544 0.01246 0.04966 0.0
C759 C 0.70162 0.01245 0.06161 0.0
C760 C 0.72563 0.01096 0.02602 0.0
C761 C 0.702 0.00969 0.01384 0.0
C762 C 0.67814 0.01004 0.02576 0.0
C763 C 0.67796 0.01122 0.04945 0.0
H764 H 0.00619 0.74096 0.44168 0.0
H765 H 0.96636 0.66589 0.44216 0.0
H766 H 0.00794 0.74021 0.48295 0.0
H767 H 0.96965 0.66472 0.48342 0.0
H768 H 0.01362 0.66472 0.55454 0.0
H769 H 0.00992 0.66449 0.51328 0.0
H770 H 0.97091 0.73957 0.51538 0.0
H771 H 0.97307 0.73936 0.55663 0.0
C772 C -0.00234 0.72437 0.45046 0.0
C773 C 0.98599 0.70355 0.4384 0.0
C774 C -0.00113 0.72391 0.47412 0.0
C775 C 0.98894 0.70242 0.48624 0.0
C776 C 0.97764 0.68141 0.47436 0.0
C777 C 0.97594 0.68207 0.45071 0.0
C778 C 0.00377 0.68099 0.54635 0.0
C779 C 0.99371 0.70211 0.5591 0.0
C780 C 0.00184 0.68087 0.5227 0.0
C781 C 0.99026 0.70206 0.51127 0.0
C782 C 0.9802 0.72314 0.52385 0.0
C783 C 0.98165 0.72305 0.5475 0.0
H784 H 0.43163 0.94357 0.23648 0.0
H785 H 0.42771 0.02816 0.23967 0.0
H786 H 0.4792 0.94552 0.24067 0.0
H787 H 0.47528 0.03027 0.24322 0.0
H788 H 0.56229 0.02716 0.25505 0.0
H789 H 0.51566 0.0213 0.26342 0.0
H790 H 0.51198 0.95865 0.21404 0.0
H791 H 0.55841 0.96381 0.20647 0.0
C792 C 0.44097 0.96254 0.23843 0.0
C793 C 0.42611 0.98572 0.23749 0.0
C794 C 0.46818 0.9637 0.24074 0.0
C795 C 0.48109 0.98807 0.24185 0.0
C796 C 0.46598 0.01117 0.24257 0.0
C797 C 0.43872 0.00998 0.24049 0.0
C798 C 0.55155 0.01182 0.24636 0.0
C799 C 0.56389 0.99619 0.22987 0.0
C800 C 0.52483 0.00859 0.25102 0.0
C801 C 0.51004 0.98957 0.23936 0.0
C802 C 0.52276 0.97326 0.22359 0.0
C803 C 0.54934 0.97649 0.21896 0.0
H804 H 0.96226 0.43152 0.75404 0.0
H805 H 0.03962 0.43533 0.72437 0.0
H806 H 0.96321 0.47893 0.7603 0.0
H807 H 0.04059 0.48247 0.73067 0.0
H808 H 0.04061 0.56675 0.75045 0.0
H809 H 0.04043 0.51945 0.7574 0.0
H810 H 0.96074 0.51506 0.73284 0.0
H811 H 0.96095 0.56205 0.7258 0.0
C812 C 0.97958 0.44242 0.74914 0.0
C813 C 0.00072 0.42975 0.73844 0.0
C814 C 0.98014 0.46952 0.75276 0.0
C815 C 0.00186 0.48445 0.74579 0.0
C816 C 0.02369 0.4715 0.73648 0.0
C817 C 0.02312 0.44443 0.73284 0.0
C818 C 0.02298 0.55568 0.74677 0.0
C819 C 0.0009 0.56808 0.73732 0.0
C820 C 0.02286 0.52865 0.75081 0.0
C821 C 0.00065 0.51352 0.74552 0.0
C822 C 0.97805 0.5262 0.73739 0.0
C823 C 0.97818 0.55318 0.73332 0.0
H824 H 0.56601 0.97924 0.74741 0.0
H825 H 0.56066 0.01979 0.81158 0.0
H826 H 0.51887 0.98565 0.74154 0.0
H827 H 0.51381 0.02556 0.80606 0.0
H828 H 0.43448 0.05067 0.78454 0.0
H829 H 0.48222 0.04902 0.78238 0.0
H830 H 0.47803 0.96867 0.75912 0.0
H831 H 0.43028 0.9704 0.76114 0.0
C832 C 0.55478 0.98962 0.76017 0.0
C833 C 0.5669 -0.00121 0.78005 0.0
C834 C 0.52784 0.99316 0.75688 0.0
C835 C 0.51267 0.00618 0.77331 0.0
C836 C 0.525 0.01578 0.79293 0.0
C837 C 0.55177 0.01214 0.79626 0.0
C838 C 0.44378 0.03278 0.77871 0.0
C839 C 0.42872 0.01057 0.77329 0.0
C840 C 0.47107 0.03182 0.77749 0.0
C841 C 0.48385 0.00859 0.7709 0.0
C842 C 0.46874 0.9869 0.7641 0.0
C843 C 0.44139 0.98789 0.76527 0.0
H844 H 0.95898 0.43253 0.27962 0.0
H845 H 0.03656 0.43239 0.25013 0.0
H846 H 0.95619 0.47972 0.27402 0.0
H847 H 0.03381 0.47988 0.24475 0.0
H848 H 0.03146 0.5638 0.27778 0.0
H849 H 0.03404 0.51657 0.27217 0.0
H850 H 0.95474 0.51615 0.24644 0.0
H851 H 0.9522 0.56363 0.25187 0.0
C852 C 0.97519 0.44245 0.27141 0.0
C853 C -0.00191 0.42871 0.2655 0.0
C854 C 0.97358 0.46954 0.2682 0.0
C855 C 0.99485 0.48353 0.25907 0.0
C856 C 0.01726 0.46965 0.25212 0.0
C857 C 0.01884 0.4425 0.25525 0.0
C858 C 0.01481 0.5538 0.27035 0.0
C859 C 0.99153 0.56744 0.26549 0.0
C860 C 0.01629 0.52669 0.26712 0.0
C861 C 0.99452 0.51263 0.25902 0.0
C862 C 0.9717 0.52644 0.25304 0.0
C863 C 0.97023 0.55358 0.2562 0.0
H864 H 0.10434 0.19847 0.23552 0.0
H865 H 0.15604 0.22299 0.28956 0.0
H866 H 0.13782 0.16871 0.2215 0.0
H867 H 0.18983 0.19315 0.27538 0.0
H868 H 0.22563 0.1107 0.26007 0.0
H869 H 0.19718 0.1461 0.27312 0.0
H870 H 0.18019 0.16671 0.20355 0.0
H871 H 0.20835 0.13104 0.19057 0.0
C872 C 0.12307 0.19787 0.24416 0.0
C873 C 0.12755 0.21312 0.26363 0.0
C874 C 0.14232 0.18081 0.2361 0.0
C875 C 0.16656 0.17859 0.24727 0.0
C876 C 0.17125 0.19418 0.26654 0.0
C877 C 0.15192 0.21125 0.27466 0.0
C878 C 0.21619 0.12312 0.24759 0.0
C879 C 0.21898 0.11796 0.22431 0.0
C880 C 0.19991 0.14344 0.25505 0.0
C881 C 0.18619 0.15907 0.23938 0.0
C882 C 0.19004 0.15467 0.21607 0.0
C883 C 0.20619 0.13429 0.20862 0.0
H884 H 0.89926 0.19584 0.75567 0.0
H885 H 0.84554 0.22206 0.70373 0.0
H886 H 0.86767 0.16291 0.76781 0.0
H887 H 0.81401 0.18849 0.71564 0.0
H888 H 0.75569 0.14112 0.76103 0.0
H889 H 0.78541 0.17628 0.74906 0.0
H890 H 0.85033 0.12185 0.75092 0.0
H891 H 0.82089 0.08703 0.76328 0.0
C892 C 0.88056 0.19476 0.74701 0.0
C893 C 0.87484 0.21158 0.72878 0.0
C894 C 0.8626 0.17569 0.7538 0.0
C895 C 0.83848 0.17302 0.74255 0.0
C896 C 0.83243 0.19021 0.72466 0.0
C897 C 0.85052 0.20925 0.71775 0.0
C898 C 0.77633 0.13676 0.75891 0.0
C899 C 0.78598 0.11135 0.76305 0.0
C900 C 0.79326 0.15679 0.75191 0.0
C901 C 0.82017 0.15179 0.74918 0.0
C902 C 0.82973 0.12633 0.75314 0.0
C903 C 0.81282 0.10633 0.75997 0.0
H904 H 0.83388 0.77499 0.29495 0.0
H905 H 0.88102 0.79259 0.23599 0.0
H906 H 0.80005 0.80515 0.2813 0.0
H907 H 0.84743 0.82245 0.22244 0.0
H908 H 0.77604 0.86106 0.19436 0.0
H909 H 0.80311 0.82468 0.20765 0.0
H910 H 0.79539 0.85271 0.27649 0.0
H911 H 0.76814 0.88892 0.26319 0.0
C912 C 0.83698 0.78522 0.27907 0.0
C913 C 0.86011 0.78134 0.26654 0.0
C914 C 0.81762 0.80245 0.27126 0.0
C915 C 0.82101 0.81612 0.25075 0.0
C916 C 0.84393 0.81183 0.23806 0.0
C917 C 0.86323 0.79468 0.24585 0.0
C918 C 0.77997 0.85928 0.21234 0.0
C919 C 0.77021 0.87796 0.22771 0.0
C920 C 0.79547 0.83849 0.21996 0.0
C921 C 0.80164 0.83598 0.24309 0.0
C922 C 0.7908 0.85393 0.25859 0.0
C923 C 0.7752 0.8747 0.25097 0.0
H924 H 0.11684 0.81467 0.698 0.0
H925 H 0.14299 0.75608 0.74595 0.0
H926 H 0.15154 0.844 0.71051 0.0
H927 H 0.17777 0.78564 0.7586 0.0
H928 H 0.20835 0.86159 0.79446 0.0
H929 H 0.17975 0.82718 0.77982 0.0
H930 H 0.19909 0.8501 0.71129 0.0
H931 H 0.22769 0.88455 0.72595 0.0
C932 C 0.13032 0.80783 0.7109 0.0
C933 C 0.1271 0.78305 0.72101 0.0
C934 C 0.15023 0.82467 0.71809 0.0
C935 C 0.16738 0.81715 0.73557 0.0
C936 C 0.16463 0.79211 0.74529 0.0
C937 C 0.14471 0.77521 0.73807 0.0
C938 C 0.20691 0.85893 0.77628 0.0
C939 C 0.22009 0.87591 0.76135 0.0
C940 C 0.19053 0.8392 0.76789 0.0
C941 C 0.18701 0.83606 0.7444 0.0
C942 C 0.20105 0.85235 0.72948 0.0
C943 C 0.21741 0.87206 0.73787 0.0
H944 H 0.83195 0.90086 0.79064 0.0
H945 H 0.76902 0.86026 0.75638 0.0
H946 H 0.86274 0.86724 0.77818 0.0
H947 H 0.79984 0.8262 0.74423 0.0
H948 H 0.87138 0.79354 0.70343 0.0
H949 H 0.83787 0.82349 0.71764 0.0
H950 H 0.87267 0.82018 0.78434 0.0
H951 H 0.906 0.78998 0.77026 0.0
C952 C 0.82471 0.88469 0.78048 0.0
C953 C 0.79813 0.88325 0.77437 0.0
C954 C 0.84228 0.8653 0.77354 0.0
C955 C 0.83368 0.84408 0.76025 0.0
C956 C 0.80703 0.84244 0.75434 0.0
C957 C 0.78938 0.86179 0.76143 0.0
C958 C 0.87163 0.79883 0.72122 0.0
C959 C 0.89148 0.78951 0.73568 0.0
C960 C 0.85243 0.81599 0.72934 0.0
C961 C 0.85275 0.82428 0.75207 0.0
C962 C 0.87219 0.81445 0.76666 0.0
C963 C 0.8913 0.79722 0.75857 0.0
H964 H 0.18985 0.8632 0.19651 0.0
H965 H 0.19066 0.89868 0.26311 0.0
H966 H 0.15789 0.83116 0.20953 0.0
H967 H 0.1574 0.86776 0.27567 0.0
H968 H 0.11507 0.79434 0.29817 0.0
H969 H 0.15003 0.82312 0.28517 0.0
H970 H 0.11296 0.82837 0.21941 0.0
H971 H 0.07901 0.79822 0.23192 0.0
C972 C 0.18331 0.86415 0.21396 0.0
C973 C 0.19288 0.88359 0.22874 0.0
C974 C 0.16465 0.84597 0.22134 0.0
C975 C 0.15491 0.84691 0.24364 0.0
C976 C 0.16465 0.86622 0.25847 0.0
C977 C 0.18347 0.88424 0.25115 0.0
C978 C 0.11461 0.80124 0.28081 0.0
C979 C 0.09415 0.79393 0.26612 0.0
C980 C 0.13449 0.81808 0.27345 0.0
C981 C 0.1343 0.82822 0.25126 0.0
C982 C 0.11395 0.82073 0.23652 0.0
C983 C 0.09421 0.80372 0.24382 0.0
H984 H 0.13183 0.22827 0.73374 0.0
H985 H 0.0757 0.16595 0.72323 0.0
H986 H 0.1643 0.19609 0.74623 0.0
H987 H 0.10814 0.13378 0.7353 0.0
H988 H 0.16098 0.08753 0.78261 0.0
H989 H 0.12968 0.12027 0.76952 0.0
H990 H 0.19157 0.16019 0.73321 0.0
H991 H 0.22301 0.12752 0.74666 0.0
C992 C 0.12656 0.20766 0.73388 0.0
C993 C 0.1012 0.19961 0.72772 0.0
C994 C 0.14515 0.18923 0.74098 0.0
C995 C 0.13876 0.16237 0.74192 0.0
C996 C 0.11353 0.15435 0.73526 0.0
C997 C 0.09495 0.17276 0.72831 0.0
C998 C 0.16785 0.10321 0.77172 0.0
C999 C 0.1944 0.10491 0.76558 0.0
C1000 C 0.14992 0.12195 0.76417 0.0
C1001 C 0.15808 0.14276 0.75018 0.0
C1002 C 0.1847 0.14458 0.74417 0.0
C1003 C 0.2027 0.12587 0.75184 0.0
H1004 H 0.86367 0.23153 0.27626 0.0
H1005 H 0.91819 0.1666 0.27668 0.0
H1006 H 0.82808 0.20142 0.26659 0.0
H1007 H 0.88293 0.13675 0.26624 0.0
H1008 H 0.81083 0.08573 0.26802 0.0
H1009 H 0.84326 0.11719 0.28163 0.0
H1010 H 0.81412 0.17484 0.23414 0.0
H1011 H 0.7816 0.14338 0.22061 0.0
C1012 C 0.86803 0.21083 0.27437 0.0
C1013 C 0.89375 0.20145 0.27715 0.0
C1014 C 0.8477 0.19364 0.26863 0.0
C1015 C 0.85268 0.1667 0.26566 0.0
C1016 C 0.87837 0.15733 0.26868 0.0
C1017 C 0.89865 0.17449 0.27436 0.0
C1018 C 0.81133 0.10515 0.26053 0.0
C1019 C 0.79383 0.11201 0.24311 0.0
C1020 C 0.82991 0.12315 0.2683 0.0
C1021 C 0.83143 0.14842 0.2588 0.0
C1022 C 0.81329 0.15561 0.24196 0.0
C1023 C 0.79466 0.1376 0.23421 0.0
loop_
_geom_bond_atom_site_label_1
_geom_bond_atom_site_label_2
_geom_bond_distance
_geom_bond_site_symmetry_2
_ccdc_geom_bond_type
Li0 N17 1.990 . S
Li0 O60 1.956 . S
Li0 O61 1.970 . S
Li0 O62 1.977 . S
Li1 N25 1.990 1_545 S
Li1 O60 1.982 . S
Li1 O61 1.956 . S
Li1 O63 1.949 1_545 S
Li2 N47 1.990 . S
Li2 O60 1.961 . S
Li2 O62 1.957 . S
Li2 O63 1.970 1_545 S
Li3 N53 1.990 . S
Li3 O61 1.961 1_565 S
Li3 O62 1.954 1_565 S
Li3 O63 1.956 . S
C4 C6 1.348 . S
C4 C7 1.356 . S
C4 O60 1.325 . S
N5 C8 1.314 . S
N5 C9 1.279 . S
C6 C4 1.348 . S
C6 C8 1.353 . S
C6 H64 0.929 . S
C7 C4 1.356 . S
C7 C9 1.358 . S
C7 H65 0.930 . S
C8 N5 1.314 . S
C8 C6 1.353 . S
C8 H66 0.930 . S
C9 N5 1.279 . S
C9 C7 1.358 . S
C9 H67 0.930 . S
C10 C13 1.376 . S
C10 C14 1.329 1_545 S
C10 O61 1.326 . S
C11 N12 1.290 . S
C11 C14 1.358 . S
C11 H68 0.930 . S
N12 C11 1.290 . S
N12 C15 1.304 1_565 S
C13 C10 1.376 . S
C13 C15 1.353 . S
C13 H69 0.929 . S
C14 C10 1.329 1_565 S
C14 C11 1.358 . S
C14 H70 0.930 . S
C15 N12 1.304 1_545 S
C15 C13 1.353 . S
C15 H71 0.930 . S
C16 N17 1.314 . S
C16 C21 1.353 . S
C16 H22 0.930 . S
N17 Li0 1.990 . S
N17 C16 1.314 . S
N17 C19 1.279 . S
C18 C19 1.358 . S
C18 C20 1.356 . S
C18 H72 0.930 . S
C19 N17 1.279 . S
C19 C18 1.358 . S
C19 H23 0.930 . S
C20 C18 1.356 . S
C20 C21 1.348 . S
C21 C16 1.353 . S
C21 C20 1.348 . S
C21 H73 0.929 . S
H22 C16 0.930 . S
H23 C19 0.930 . S
C24 N25 1.314 . S
C24 C26 1.353 . S
C24 H30 0.930 . S
N25 Li1 1.990 1_565 S
N25 C24 1.314 . S
N25 C28 1.279 1_565 S
C26 C24 1.353 . S
C26 C29 1.336 1_565 S
C26 H74 0.929 . S
C27 C28 1.358 . S
C27 C29 1.364 . S
C27 H75 0.930 . S
C28 N25 1.279 1_545 S
C28 C27 1.358 . S
C28 H31 0.930 . S
C29 C26 1.336 1_545 S
C29 C27 1.364 . S
H30 C24 0.930 . S
H31 C28 0.930 . S
C32 C34 1.313 1_545 S
C32 C35 1.391 . S
C32 O62 1.325 . S
N33 C36 1.314 1_545 S
N33 C37 1.279 . S
C34 C32 1.313 1_565 S
C34 C36 1.353 . S
C34 H76 0.929 . S
C35 C32 1.391 . S
C35 C37 1.358 . S
C35 H77 0.930 . S
C36 N33 1.314 1_565 S
C36 C34 1.353 . S
C36 H78 0.930 . S
C37 N33 1.279 . S
C37 C35 1.358 . S
C37 H79 0.930 . S
C38 C39 1.348 . S
C38 C40 1.356 . S
C38 O63 1.325 . S
C39 C38 1.348 . S
C39 C41 1.353 . S
C39 H80 0.929 . S
C40 C38 1.356 . S
C40 C42 1.358 . S
C40 H81 0.930 . S
C41 C39 1.353 . S
C41 N43 1.314 . S
C41 H82 0.930 . S
C42 C40 1.358 . S
C42 N43 1.279 . S
C42 H83 0.930 . S
N43 C41 1.314 . S
N43 C42 1.279 . S
C44 C46 1.353 . S
C44 N47 1.314 . S
C44 H50 0.930 . S
C45 N47 1.279 1_565 S
C45 C48 1.358 . S
C45 H51 0.930 . S
C46 C44 1.353 . S
C46 C49 1.359 . S
C46 H84 0.929 . S
N47 Li2 1.990 . S
N47 C44 1.314 . S
N47 C45 1.279 1_545 S
C48 C45 1.358 . S
C48 C49 1.350 1_565 S
C48 H85 0.930 . S
C49 C46 1.359 . S
C49 C48 1.350 1_545 S
H50 C44 0.930 . S
H51 C45 0.930 . S
C52 N53 1.314 . S
C52 C54 1.353 . S
C52 H58 0.930 . S
N53 Li3 1.990 . S
N53 C52 1.314 . S
N53 C56 1.279 . S
C54 C52 1.353 . S
C54 C57 1.348 . S
C54 H86 0.929 . S
C55 C56 1.358 . S
C55 C57 1.356 . S
C55 H87 0.930 . S
C56 N53 1.279 . S
C56 C55 1.358 . S
C56 H59 0.930 . S
C57 C54 1.348 . S
C57 C55 1.356 . S
H58 C52 0.930 . S
H59 C56 0.930 . S
O60 Li0 1.956 . S
O60 Li1 1.982 . S
O60 Li2 1.961 . S
O60 C4 1.325 . S
O61 Li0 1.970 . S
O61 Li1 1.956 . S
O61 Li3 1.961 1_545 S
O61 C10 1.326 . S
O62 Li0 1.977 . S
O62 Li2 1.957 . S
O62 Li3 1.954 1_545 S
O62 C32 1.325 . S
O63 Li1 1.949 1_565 S
O63 Li2 1.970 1_565 S
O63 Li3 1.956 . S
O63 C38 1.325 . S
H64 C6 0.929 . S
H65 C7 0.930 . S
H66 C8 0.930 . S
H67 C9 0.930 . S
H68 C11 0.930 . S
H69 C13 0.929 . S
H70 C14 0.930 . S
H71 C15 0.930 . S
H72 C18 0.930 . S
H73 C21 0.929 . S
H74 C26 0.929 . S
H75 C27 0.930 . S
H76 C34 0.929 . S
H77 C35 0.930 . S
H78 C36 0.930 . S
H79 C37 0.930 . S
H80 C39 0.929 . S
H81 C40 0.930 . S
H82 C41 0.930 . S
H83 C42 0.930 . S
H84 C46 0.929 . S
H85 C48 0.930 . S
H86 C54 0.929 . S
H87 C55 0.930 . S
Li88 N105 1.990 . S
Li88 O148 1.956 . S
Li88 O149 1.970 1_455 S
Li88 O150 1.960 1_455 S
Li89 N113 1.991 . S
Li89 O148 1.957 1_655 S
Li89 O149 1.969 . S
Li89 O151 1.960 1_655 S
Li90 N135 1.990 . S
Li90 O148 1.961 . S
Li90 O150 1.949 1_455 S
Li90 O151 1.970 . S
Li91 N141 1.990 . S
Li91 O149 1.961 . S
Li91 O150 1.977 . S
Li91 O151 1.956 1_655 S
C92 C94 1.348 . S
C92 C95 1.356 . S
C92 O148 1.325 . S
N93 C96 1.314 . S
N93 C97 1.279 . S
C94 C92 1.348 . S
C94 C96 1.353 . S
C94 H152 0.929 . S
C95 C92 1.356 . S
C95 C97 1.358 . S
C95 H153 0.930 . S
C96 N93 1.314 . S
C96 C94 1.353 . S
C96 H154 0.930 . S
C97 N93 1.279 . S
C97 C95 1.358 . S
C97 H155 0.930 . S
C98 C101 1.348 . S
C98 C102 1.356 . S
C98 O149 1.325 . S
C99 N100 1.279 . S
C99 C102 1.358 . S
C99 H156 0.930 . S
N100 C99 1.279 . S
N100 C103 1.314 . S
C101 C98 1.348 . S
C101 C103 1.353 . S
C101 H157 0.929 . S
C102 C98 1.356 . S
C102 C99 1.358 . S
C102 H158 0.930 . S
C103 N100 1.314 . S
C103 C101 1.353 . S
C103 H159 0.930 . S
C104 N105 1.314 1_655 S
C104 C109 1.353 . S
C104 H110 0.930 . S
N105 Li88 1.990 . S
N105 C104 1.314 1_455 S
N105 C107 1.279 . S
C106 C107 1.358 . S
C106 C108 1.378 . S
C106 H160 0.930 . S
C107 N105 1.279 . S
C107 C106 1.358 . S
C107 H111 0.930 . S
C108 C106 1.378 . S
C108 C109 1.330 1_455 S
C109 C104 1.353 . S
C109 C108 1.330 1_655 S
C109 H161 0.929 . S
H110 C104 0.930 . S
H111 C107 0.930 . S
C112 N113 1.314 1_455 S
C112 C114 1.353 . S
C112 H118 0.930 . S
N113 Li89 1.991 . S
N113 C112 1.314 1_655 S
N113 C116 1.279 . S
C114 C112 1.353 . S
C114 C117 1.364 . S
C114 H162 0.929 . S
C115 C116 1.358 . S
C115 C117 1.337 1_655 S
C115 H163 0.930 . S
C116 N113 1.279 . S
C116 C115 1.358 . S
C116 H119 0.930 . S
C117 C114 1.364 . S
C117 C115 1.337 1_455 S
H118 C112 0.930 . S
H119 C116 0.930 . S
C120 C122 1.331 1_455 S
C120 C123 1.377 . S
C120 O150 1.324 1_455 S
N121 C124 1.314 1_455 S
N121 C125 1.279 . S
C122 C120 1.331 1_655 S
C122 C124 1.353 . S
C122 H164 0.929 . S
C123 C120 1.377 . S
C123 C125 1.358 . S
C123 H165 0.930 . S
C124 N121 1.314 1_655 S
C124 C122 1.353 . S
C124 H166 0.930 . S
C125 N121 1.279 . S
C125 C123 1.358 . S
C125 H167 0.930 . S
C126 C127 1.365 . S
C126 C128 1.336 1_455 S
C126 O151 1.326 . S
C127 C126 1.365 . S
C127 C129 1.353 . S
C127 H168 0.929 . S
C128 C126 1.336 1_655 S
C128 C130 1.358 . S
C128 H169 0.930 . S
C129 C127 1.353 . S
C129 N131 1.314 1_455 S
C129 H170 0.930 . S
C130 C128 1.358 . S
C130 N131 1.279 . S
C130 H171 0.930 . S
N131 C129 1.314 1_655 S
N131 C130 1.279 . S
C132 C134 1.353 . S
C132 N135 1.314 . S
C132 H138 0.930 . S
C133 N135 1.279 . S
C133 C136 1.358 . S
C133 H139 0.930 . S
C134 C132 1.353 . S
C134 C137 1.348 . S
C134 H172 0.929 . S
N135 Li90 1.990 . S
N135 C132 1.314 . S
N135 C133 1.279 . S
C136 C133 1.358 . S
C136 C137 1.356 . S
C136 H173 0.930 . S
C137 C134 1.348 . S
C137 C136 1.356 . S
H138 C132 0.930 . S
H139 C133 0.930 . S
C140 N141 1.314 . S
C140 C142 1.353 . S
C140 H146 0.930 . S
N141 Li91 1.990 . S
N141 C140 1.314 . S
N141 C144 1.279 . S
C142 C140 1.353 . S
C142 C145 1.348 . S
C142 H174 0.929 . S
C143 C144 1.358 . S
C143 C145 1.356 . S
C143 H175 0.930 . S
C144 N141 1.279 . S
C144 C143 1.358 . S
C144 H147 0.930 . S
C145 C142 1.348 . S
C145 C143 1.356 . S
H146 C140 0.930 . S
H147 C144 0.930 . S
O148 Li88 1.956 . S
O148 Li89 1.957 1_455 S
O148 Li90 1.961 . S
O148 C92 1.325 . S
O149 Li88 1.970 1_655 S
O149 Li89 1.969 . S
O149 Li91 1.961 . S
O149 C98 1.325 . S
O150 Li88 1.960 1_655 S
O150 Li90 1.949 1_655 S
O150 Li91 1.977 . S
O150 C120 1.324 1_655 S
O151 Li89 1.960 1_455 S
O151 Li90 1.970 . S
O151 Li91 1.956 1_455 S
O151 C126 1.326 . S
H152 C94 0.929 . S
H153 C95 0.930 . S
H154 C96 0.930 . S
H155 C97 0.930 . S
H156 C99 0.930 . S
H157 C101 0.929 . S
H158 C102 0.930 . S
H159 C103 0.930 . S
H160 C106 0.930 . S
H161 C109 0.929 . S
H162 C114 0.929 . S
H163 C115 0.930 . S
H164 C122 0.929 . S
H165 C123 0.930 . S
H166 C124 0.930 . S
H167 C125 0.930 . S
H168 C127 0.929 . S
H169 C128 0.930 . S
H170 C129 0.930 . S
H171 C130 0.930 . S
H172 C134 0.929 . S
H173 C136 0.930 . S
H174 C142 0.929 . S
H175 C143 0.930 . S
Li176 N193 1.990 . S
Li176 O236 1.956 . S
Li176 O237 1.970 1_545 S
Li176 O238 1.961 . S
Li177 N201 1.990 . S
Li177 O236 1.970 1_565 S
Li177 O237 1.956 . S
Li177 O239 1.961 1_565 S
Li178 N223 1.990 . S
Li178 O236 1.961 . S
Li178 O238 1.956 . S
Li178 O239 1.970 . S
Li179 N229 1.990 1_545 S
Li179 O237 1.961 1_545 S
Li179 O238 1.970 . S
Li179 O239 1.956 . S
C180 C182 1.348 1_545 S
C180 C183 1.356 . S
C180 O236 1.325 . S
N181 C184 1.314 1_545 S
N181 C185 1.279 . S
C182 C180 1.348 1_565 S
C182 C184 1.353 . S
C182 H240 0.929 . S
C183 C180 1.356 . S
C183 C185 1.358 . S
C183 H241 0.930 . S
C184 N181 1.314 1_565 S
C184 C182 1.353 . S
C184 H242 0.930 . S
C185 N181 1.279 . S
C185 C183 1.358 . S
C185 H243 0.930 . S
C186 C189 1.348 . S
C186 C190 1.356 . S
C186 O237 1.325 . S
C187 N188 1.279 . S
C187 C190 1.358 . S
C187 H244 0.930 . S
N188 C187 1.279 . S
N188 C191 1.314 . S
C189 C186 1.348 . S
C189 C191 1.353 . S
C189 H245 0.929 . S
C190 C186 1.356 . S
C190 C187 1.358 . S
C190 H246 0.930 . S
C191 N188 1.314 . S
C191 C189 1.353 . S
C191 H247 0.930 . S
C192 N193 1.314 . S
C192 C197 1.353 . S
C192 H198 0.930 . S
N193 Li176 1.990 . S
N193 C192 1.314 . S
N193 C195 1.279 1_545 S
C194 C195 1.358 . S
C194 C196 1.356 1_565 S
C194 H248 0.930 . S
C195 N193 1.279 1_565 S
C195 C194 1.358 . S
C195 H199 0.930 . S
C196 C194 1.356 1_545 S
C196 C197 1.348 . S
C197 C192 1.353 . S
C197 C196 1.348 . S
C197 H249 0.929 . S
H198 C192 0.930 . S
H199 C195 0.930 . S
C200 N201 1.314 . S
C200 C202 1.353 . S
C200 H206 0.930 . S
N201 Li177 1.990 . S
N201 C200 1.314 . S
N201 C204 1.279 . S
C202 C200 1.353 . S
C202 C205 1.348 . S
C202 H250 0.929 . S
C203 C204 1.358 . S
C203 C205 1.356 . S
C203 H251 0.930 . S
C204 N201 1.279 . S
C204 C203 1.358 . S
C204 H207 0.930 . S
C205 C202 1.348 . S
C205 C203 1.356 . S
H206 C200 0.930 . S
H207 C204 0.930 . S
C208 C210 1.348 . S
C208 C211 1.356 . S
C208 O238 1.325 . S
N209 C212 1.314 . S
N209 C213 1.279 . S
C210 C208 1.348 . S
C210 C212 1.353 . S
C210 H252 0.929 . S
C211 C208 1.356 . S
C211 C213 1.358 . S
C211 H253 0.930 . S
C212 N209 1.314 . S
C212 C210 1.353 . S
C212 H254 0.930 . S
C213 N209 1.279 . S
C213 C211 1.358 . S
C213 H255 0.930 . S
C214 C215 1.348 . S
C214 C216 1.356 1_545 S
C214 O239 1.325 . S
C215 C214 1.348 . S
C215 C217 1.353 . S
C215 H256 0.929 . S
C216 C214 1.356 1_565 S
C216 C218 1.358 . S
C216 H257 0.930 . S
C217 C215 1.353 . S
C217 N219 1.334 . S
C217 H258 0.930 . S
C218 C216 1.358 . S
C218 N219 1.260 1_565 S
C218 H259 0.930 . S
N219 C217 1.334 . S
N219 C218 1.260 1_545 S
C220 C222 1.353 . S
C220 N223 1.314 . S
C220 H226 0.930 . S
C221 N223 1.279 . S
C221 C224 1.358 . S
C221 H227 0.930 . S
C222 C220 1.353 . S
C222 C225 1.348 . S
C222 H260 0.929 . S
N223 Li178 1.990 . S
N223 C220 1.314 . S
N223 C221 1.279 . S
C224 C221 1.358 . S
C224 C225 1.356 . S
C224 H261 0.930 . S
C225 C222 1.348 . S
C225 C224 1.356 . S
H226 C220 0.930 . S
H227 C221 0.930 . S
C228 N229 1.316 . S
C228 C230 1.353 . S
C228 H234 0.930 . S
N229 Li179 1.990 1_565 S
N229 C228 1.316 . S
N229 C232 1.278 1_565 S
C230 C228 1.353 . S
C230 C233 1.348 1_565 S
C230 H262 0.929 . S
C231 C232 1.358 . S
C231 C233 1.356 . S
C231 H263 0.930 . S
C232 N229 1.278 1_545 S
C232 C231 1.358 . S
C232 H235 0.930 . S
C233 C230 1.348 1_545 S
C233 C231 1.356 . S
H234 C228 0.930 . S
H235 C232 0.930 . S
O236 Li176 1.956 . S
O236 Li177 1.970 1_545 S
O236 Li178 1.961 . S
O236 C180 1.325 . S
O237 Li176 1.970 1_565 S
O237 Li177 1.956 . S
O237 Li179 1.961 1_565 S
O237 C186 1.325 . S
O238 Li176 1.961 . S
O238 Li178 1.956 . S
O238 Li179 1.970 . S
O238 C208 1.325 . S
O239 Li177 1.961 1_545 S
O239 Li178 1.970 . S
O239 Li179 1.956 . S
O239 C214 1.325 . S
H240 C182 0.929 . S
H241 C183 0.930 . S
H242 C184 0.930 . S
H243 C185 0.930 . S
H244 C187 0.930 . S
H245 C189 0.929 . S
H246 C190 0.930 . S
H247 C191 0.930 . S
H248 C194 0.930 . S
H249 C197 0.929 . S
H250 C202 0.929 . S
H251 C203 0.930 . S
H252 C210 0.929 . S
H253 C211 0.930 . S
H254 C212 0.930 . S
H255 C213 0.930 . S
H256 C215 0.929 . S
H257 C216 0.930 . S
H258 C217 0.930 . S
H259 C218 0.930 . S
H260 C222 0.929 . S
H261 C224 0.930 . S
H262 C230 0.929 . S
H263 C231 0.930 . S
Li264 N281 1.990 . S
Li264 O324 1.956 1_655 S
Li264 O325 1.960 1_655 S
Li264 O326 1.961 . S
Li265 N289 1.990 . S
Li265 O324 1.970 . S
Li265 O325 1.968 . S
Li265 O327 1.961 . S
Li266 N311 1.990 1_455 S
Li266 O324 1.961 . S
Li266 O326 1.949 1_455 S
Li266 O327 1.978 . S
Li267 N317 1.990 . S
Li267 O325 1.962 . S
Li267 O326 1.970 1_455 S
Li267 O327 1.956 . S
C268 C270 1.348 . S
C268 C271 1.356 1_455 S
C268 O324 1.325 . S
N269 C272 1.314 1_655 S
N269 C273 1.279 . S
C270 C268 1.348 . S
C270 C272 1.353 . S
C270 H328 0.929 . S
C271 C268 1.356 1_655 S
C271 C273 1.358 . S
C271 H329 0.930 . S
C272 N269 1.314 1_455 S
C272 C270 1.353 . S
C272 H330 0.930 . S
C273 N269 1.279 . S
C273 C271 1.358 . S
C273 H331 0.930 . S
C274 C277 1.348 1_455 S
C274 C278 1.356 . S
C274 O325 1.326 . S
C275 N276 1.279 . S
C275 C278 1.358 . S
C275 H332 0.930 . S
N276 C275 1.279 . S
N276 C279 1.314 1_455 S
C277 C274 1.348 1_655 S
C277 C279 1.353 . S
C277 H333 0.929 . S
C278 C274 1.356 . S
C278 C275 1.358 . S
C278 H334 0.930 . S
C279 N276 1.314 1_655 S
C279 C277 1.353 . S
C279 H335 0.930 . S
C280 N281 1.314 . S
C280 C285 1.353 . S
C280 H286 0.930 . S
N281 Li264 1.990 . S
N281 C280 1.314 . S
N281 C283 1.279 . S
C282 C283 1.358 . S
C282 C284 1.356 . S
C282 H336 0.930 . S
C283 N281 1.279 . S
C283 C282 1.358 . S
C283 H287 0.930 . S
C284 C282 1.356 . S
C284 C285 1.348 . S
C285 C280 1.353 . S
C285 C284 1.348 . S
C285 H337 0.929 . S
H286 C280 0.930 . S
H287 C283 0.930 . S
C288 N289 1.314 . S
C288 C290 1.353 . S
C288 H294 0.930 . S
N289 Li265 1.990 . S
N289 C288 1.314 . S
N289 C292 1.279 . S
C290 C288 1.353 . S
C290 C293 1.348 . S
C290 H338 0.929 . S
C291 C292 1.358 . S
C291 C293 1.356 . S
C291 H339 0.930 . S
C292 N289 1.279 . S
C292 C291 1.358 . S
C292 H295 0.930 . S
C293 C290 1.348 . S
C293 C291 1.356 . S
H294 C288 0.930 . S
H295 C292 0.930 . S
C296 C298 1.348 . S
C296 C299 1.356 . S
C296 O326 1.325 . S
N297 C300 1.314 . S
N297 C301 1.279 . S
C298 C296 1.348 . S
C298 C300 1.353 . S
C298 H340 0.929 . S
C299 C296 1.356 . S
C299 C301 1.358 . S
C299 H341 0.930 . S
C300 N297 1.314 . S
C300 C298 1.353 . S
C300 H342 0.930 . S
C301 N297 1.279 . S
C301 C299 1.358 . S
C301 H343 0.930 . S
C302 C303 1.348 . S
C302 C304 1.356 . S
C302 O327 1.325 . S
C303 C302 1.348 . S
C303 C305 1.353 . S
C303 H344 0.929 . S
C304 C302 1.356 . S
C304 C306 1.358 . S
C304 H345 0.930 . S
C305 C303 1.353 . S
C305 N307 1.314 . S
C305 H346 0.930 . S
C306 C304 1.358 . S
C306 N307 1.279 . S
C306 H347 0.930 . S
N307 C305 1.314 . S
N307 C306 1.279 . S
C308 C310 1.353 . S
C308 N311 1.314 1_455 S
C308 H314 0.930 . S
C309 N311 1.279 . S
C309 C312 1.358 . S
C309 H315 0.930 . S
C310 C308 1.353 . S
C310 C313 1.348 . S
C310 H348 0.929 . S
N311 Li266 1.990 1_655 S
N311 C308 1.314 1_655 S
N311 C309 1.279 . S
C312 C309 1.358 . S
C312 C313 1.356 1_655 S
C312 H349 0.930 . S
C313 C310 1.348 . S
C313 C312 1.356 1_455 S
H314 C308 0.930 . S
H315 C309 0.930 . S
C316 N317 1.314 1_655 S
C316 C318 1.353 . S
C316 H322 0.930 . S
N317 Li267 1.990 . S
N317 C316 1.314 1_455 S
N317 C320 1.279 . S
C318 C316 1.353 . S
C318 C321 1.348 1_655 S
C318 H350 0.929 . S
C319 C320 1.358 . S
C319 C321 1.356 . S
C319 H351 0.930 . S
C320 N317 1.279 . S
C320 C319 1.358 . S
C320 H323 0.930 . S
C321 C318 1.348 1_455 S
C321 C319 1.356 . S
H322 C316 0.930 . S
H323 C320 0.930 . S
O324 Li264 1.956 1_455 S
O324 Li265 1.970 . S
O324 Li266 1.961 . S
O324 C268 1.325 . S
O325 Li264 1.960 1_455 S
O325 Li265 1.968 . S
O325 Li267 1.962 . S
O325 C274 1.326 . S
O326 Li264 1.961 . S
O326 Li266 1.949 1_655 S
O326 Li267 1.970 1_655 S
O326 C296 1.325 . S
O327 Li265 1.961 . S
O327 Li266 1.978 . S
O327 Li267 1.956 . S
O327 C302 1.325 . S
H328 C270 0.929 . S
H329 C271 0.930 . S
H330 C272 0.930 . S
H331 C273 0.930 . S
H332 C275 0.930 . S
H333 C277 0.929 . S
H334 C278 0.930 . S
H335 C279 0.930 . S
H336 C282 0.930 . S
H337 C285 0.929 . S
H338 C290 0.929 . S
H339 C291 0.930 . S
H340 C298 0.929 . S
H341 C299 0.930 . S
H342 C300 0.930 . S
H343 C301 0.930 . S
H344 C303 0.929 . S
H345 C304 0.930 . S
H346 C305 0.930 . S
H347 C306 0.930 . S
H348 C310 0.929 . S
H349 C312 0.930 . S
H350 C318 0.929 . S
H351 C319 0.930 . S
Li352 N369 1.990 . S
Li352 O412 1.956 . S
Li352 O413 1.970 . S
Li352 O414 1.961 . S
Li353 N377 1.990 1_545 S
Li353 O412 1.970 . S
Li353 O413 1.956 . S
Li353 O415 1.961 1_545 S
Li354 N399 1.990 . S
Li354 O412 1.961 . S
Li354 O414 1.956 . S
Li354 O415 1.970 1_545 S
Li355 N405 1.990 . S
Li355 O413 1.961 1_565 S
Li355 O414 1.970 1_565 S
Li355 O415 1.956 . S
C356 C358 1.348 . S
C356 C359 1.356 . S
C356 O412 1.325 . S
N357 C360 1.314 . S
N357 C361 1.279 . S
C358 C356 1.348 . S
C358 C360 1.353 . S
C358 H416 0.929 . S
C359 C356 1.356 . S
C359 C361 1.358 . S
C359 H417 0.930 . S
C360 N357 1.314 . S
C360 C358 1.353 . S
C360 H418 0.930 . S
C361 N357 1.279 . S
C361 C359 1.358 . S
C361 H419 0.930 . S
C362 C365 1.348 . S
C362 C366 1.356 1_545 S
C362 O413 1.325 . S
C363 N364 1.260 1_565 S
C363 C366 1.358 . S
C363 H420 0.930 . S
N364 C363 1.260 1_545 S
N364 C367 1.334 . S
C365 C362 1.348 . S
C365 C367 1.353 . S
C365 H421 0.929 . S
C366 C362 1.356 1_565 S
C366 C363 1.358 . S
C366 H422 0.930 . S
C367 N364 1.334 . S
C367 C365 1.353 . S
C367 H423 0.930 . S
C368 N369 1.314 . S
C368 C373 1.353 . S
C368 H374 0.930 . S
N369 Li352 1.990 . S
N369 C368 1.314 . S
N369 C371 1.279 . S
C370 C371 1.358 . S
C370 C372 1.356 . S
C370 H424 0.930 . S
C371 N369 1.279 . S
C371 C370 1.358 . S
C371 H375 0.930 . S
C372 C370 1.356 . S
C372 C373 1.348 . S
C373 C368 1.353 . S
C373 C372 1.348 . S
C373 H425 0.929 . S
H374 C368 0.930 . S
H375 C371 0.930 . S
C376 N377 1.316 . S
C376 C378 1.353 . S
C376 H382 0.930 . S
N377 Li353 1.990 1_565 S
N377 C376 1.316 . S
N377 C380 1.278 1_565 S
C378 C376 1.353 . S
C378 C381 1.348 1_565 S
C378 H426 0.929 . S
C379 C380 1.358 . S
C379 C381 1.356 . S
C379 H427 0.930 . S
C380 N377 1.278 1_545 S
C380 C379 1.358 . S
C380 H383 0.930 . S
C381 C378 1.348 1_545 S
C381 C379 1.356 . S
H382 C376 0.930 . S
H383 C380 0.930 . S
C384 C386 1.348 1_545 S
C384 C387 1.356 . S
C384 O414 1.325 . S
N385 C388 1.314 1_545 S
N385 C389 1.279 . S
C386 C384 1.348 1_565 S
C386 C388 1.353 . S
C386 H428 0.929 . S
C387 C384 1.356 . S
C387 C389 1.358 . S
C387 H429 0.930 . S
C388 N385 1.314 1_565 S
C388 C386 1.353 . S
C388 H430 0.930 . S
C389 N385 1.279 . S
C389 C387 1.358 . S
C389 H431 0.930 . S
C390 C391 1.348 . S
C390 C392 1.356 . S
C390 O415 1.325 . S
C391 C390 1.348 . S
C391 C393 1.353 . S
C391 H432 0.929 . S
C392 C390 1.356 . S
C392 C394 1.358 . S
C392 H433 0.930 . S
C393 C391 1.353 . S
C393 N395 1.314 . S
C393 H434 0.930 . S
C394 C392 1.358 . S
C394 N395 1.279 . S
C394 H435 0.930 . S
N395 C393 1.314 . S
N395 C394 1.279 . S
C396 C398 1.353 . S
C396 N399 1.314 . S
C396 H402 0.930 . S
C397 N399 1.279 1_565 S
C397 C400 1.358 . S
C397 H403 0.930 . S
C398 C396 1.353 . S
C398 C401 1.348 . S
C398 H436 0.929 . S
N399 Li354 1.990 . S
N399 C396 1.314 . S
N399 C397 1.279 1_545 S
C400 C397 1.358 . S
C400 C401 1.356 1_565 S
C400 H437 0.930 . S
C401 C398 1.348 . S
C401 C400 1.356 1_545 S
H402 C396 0.930 . S
H403 C397 0.930 . S
C404 N405 1.314 . S
C404 C406 1.353 . S
C404 H410 0.930 . S
N405 Li355 1.990 . S
N405 C404 1.314 . S
N405 C408 1.279 . S
C406 C404 1.353 . S
C406 C409 1.348 . S
C406 H438 0.929 . S
C407 C408 1.358 . S
C407 C409 1.356 . S
C407 H439 0.930 . S
C408 N405 1.279 . S
C408 C407 1.358 . S
C408 H411 0.930 . S
C409 C406 1.348 . S
C409 C407 1.356 . S
H410 C404 0.930 . S
H411 C408 0.930 . S
O412 Li352 1.956 . S
O412 Li353 1.970 . S
O412 Li354 1.961 . S
O412 C356 1.325 . S
O413 Li352 1.970 . S
O413 Li353 1.956 . S
O413 Li355 1.961 1_545 S
O413 C362 1.325 . S
O414 Li352 1.961 . S
O414 Li354 1.956 . S
O414 Li355 1.970 1_545 S
O414 C384 1.325 . S
O415 Li353 1.961 1_565 S
O415 Li354 1.970 1_565 S
O415 Li355 1.956 . S
O415 C390 1.325 . S
H416 C358 0.929 . S
H417 C359 0.930 . S
H418 C360 0.930 . S
H419 C361 0.930 . S
H420 C363 0.930 . S
H421 C365 0.929 . S
H422 C366 0.930 . S
H423 C367 0.930 . S
H424 C370 0.930 . S
H425 C373 0.929 . S
H426 C378 0.929 . S
H427 C379 0.930 . S
H428 C386 0.929 . S
H429 C387 0.930 . S
H430 C388 0.930 . S
H431 C389 0.930 . S
H432 C391 0.929 . S
H433 C392 0.930 . S
H434 C393 0.930 . S
H435 C394 0.930 . S
H436 C398 0.929 . S
H437 C400 0.930 . S
H438 C406 0.929 . S
H439 C407 0.930 . S
Li440 N457 1.990 . S
Li440 O500 1.956 . S
Li440 O501 1.970 1_455 S
Li440 O502 1.962 . S
Li441 N465 1.990 1_455 S
Li441 O500 1.978 . S
Li441 O501 1.949 1_455 S
Li441 O503 1.961 . S
Li442 N487 1.990 . S
Li442 O500 1.961 . S
Li442 O502 1.968 . S
Li442 O503 1.970 . S
Li443 N493 1.990 . S
Li443 O501 1.961 . S
Li443 O502 1.960 1_655 S
Li443 O503 1.956 1_655 S
C444 C446 1.348 . S
C444 C447 1.356 . S
C444 O500 1.325 . S
N445 C448 1.314 . S
N445 C449 1.279 . S
C446 C444 1.348 . S
C446 C448 1.353 . S
C446 H504 0.929 . S
C447 C444 1.356 . S
C447 C449 1.358 . S
C447 H505 0.930 . S
C448 N445 1.314 . S
C448 C446 1.353 . S
C448 H506 0.930 . S
C449 N445 1.279 . S
C449 C447 1.358 . S
C449 H507 0.930 . S
C450 C453 1.348 . S
C450 C454 1.356 . S
C450 O501 1.325 . S
C451 N452 1.279 . S
C451 C454 1.358 . S
C451 H508 0.930 . S
N452 C451 1.279 . S
N452 C455 1.314 . S
C453 C450 1.348 . S
C453 C455 1.353 . S
C453 H509 0.929 . S
C454 C450 1.356 . S
C454 C451 1.358 . S
C454 H510 0.930 . S
C455 N452 1.314 . S
C455 C453 1.353 . S
C455 H511 0.930 . S
C456 N457 1.314 1_655 S
C456 C461 1.353 . S
C456 H462 0.930 . S
N457 Li440 1.990 . S
N457 C456 1.314 1_455 S
N457 C459 1.279 . S
C458 C459 1.358 . S
C458 C460 1.356 . S
C458 H512 0.930 . S
C459 N457 1.279 . S
C459 C458 1.358 . S
C459 H463 0.930 . S
C460 C458 1.356 . S
C460 C461 1.348 1_455 S
C461 C456 1.353 . S
C461 C460 1.348 1_655 S
C461 H513 0.929 . S
H462 C456 0.930 . S
H463 C459 0.930 . S
C464 N465 1.314 1_455 S
C464 C466 1.353 . S
C464 H470 0.930 . S
N465 Li441 1.990 1_655 S
N465 C464 1.314 1_655 S
N465 C468 1.279 . S
C466 C464 1.353 . S
C466 C469 1.348 . S
C466 H514 0.929 . S
C467 C468 1.358 . S
C467 C469 1.356 1_655 S
C467 H515 0.930 . S
C468 N465 1.279 . S
C468 C467 1.358 . S
C468 H471 0.930 . S
C469 C466 1.348 . S
C469 C467 1.356 1_455 S
H470 C464 0.930 . S
H471 C468 0.930 . S
C472 C474 1.348 1_455 S
C472 C475 1.356 . S
C472 O502 1.326 . S
N473 C476 1.314 1_455 S
N473 C477 1.279 . S
C474 C472 1.348 1_655 S
C474 C476 1.353 . S
C474 H516 0.929 . S
C475 C472 1.356 . S
C475 C477 1.358 . S
C475 H517 0.930 . S
C476 N473 1.314 1_655 S
C476 C474 1.353 . S
C476 H518 0.930 . S
C477 N473 1.279 . S
C477 C475 1.358 . S
C477 H519 0.930 . S
C478 C479 1.348 . S
C478 C480 1.356 1_455 S
C478 O503 1.325 . S
C479 C478 1.348 . S
C479 C481 1.353 . S
C479 H520 0.929 . S
C480 C478 1.356 1_655 S
C480 C482 1.358 . S
C480 H521 0.930 . S
C481 C479 1.353 . S
C481 N483 1.314 1_455 S
C481 H522 0.930 . S
C482 C480 1.358 . S
C482 N483 1.279 . S
C482 H523 0.930 . S
N483 C481 1.314 1_655 S
N483 C482 1.279 . S
C484 C486 1.353 . S
C484 N487 1.314 . S
C484 H490 0.930 . S
C485 N487 1.279 . S
C485 C488 1.358 . S
C485 H491 0.930 . S
C486 C484 1.353 . S
C486 C489 1.348 . S
C486 H524 0.929 . S
N487 Li442 1.990 . S
N487 C484 1.314 . S
N487 C485 1.279 . S
C488 C485 1.358 . S
C488 C489 1.356 . S
C488 H525 0.930 . S
C489 C486 1.348 . S
C489 C488 1.356 . S
H490 C484 0.930 . S
H491 C485 0.930 . S
C492 N493 1.314 . S
C492 C494 1.353 . S
C492 H498 0.930 . S
N493 Li443 1.990 . S
N493 C492 1.314 . S
N493 C496 1.279 . S
C494 C492 1.353 . S
C494 C497 1.348 . S
C494 H526 0.929 . S
C495 C496 1.358 . S
C495 C497 1.356 . S
C495 H527 0.930 . S
C496 N493 1.279 . S
C496 C495 1.358 . S
C496 H499 0.930 . S
C497 C494 1.348 . S
C497 C495 1.356 . S
H498 C492 0.930 . S
H499 C496 0.930 . S
O500 Li440 1.956 . S
O500 Li441 1.978 . S
O500 Li442 1.961 . S
O500 C444 1.325 . S
O501 Li440 1.970 1_655 S
O501 Li441 1.949 1_655 S
O501 Li443 1.961 . S
O501 C450 1.325 . S
O502 Li440 1.962 . S
O502 Li442 1.968 . S
O502 Li443 1.960 1_455 S
O502 C472 1.326 . S
O503 Li441 1.961 . S
O503 Li442 1.970 . S
O503 Li443 1.956 1_455 S
O503 C478 1.325 . S
H504 C446 0.929 . S
H505 C447 0.930 . S
H506 C448 0.930 . S
H507 C449 0.930 . S
H508 C451 0.930 . S
H509 C453 0.929 . S
H510 C454 0.930 . S
H511 C455 0.930 . S
H512 C458 0.930 . S
H513 C461 0.929 . S
H514 C466 0.929 . S
H515 C467 0.930 . S
H516 C474 0.929 . S
H517 C475 0.930 . S
H518 C476 0.930 . S
H519 C477 0.930 . S
H520 C479 0.929 . S
H521 C480 0.930 . S
H522 C481 0.930 . S
H523 C482 0.930 . S
H524 C486 0.929 . S
H525 C488 0.930 . S
H526 C494 0.929 . S
H527 C495 0.930 . S
Li528 N545 1.990 . S
Li528 O588 1.957 . S
Li528 O589 1.970 1_545 S
Li528 O590 1.961 . S
Li529 N553 1.990 . S
Li529 O588 1.954 1_565 S
Li529 O589 1.956 . S
Li529 O591 1.961 1_565 S
Li530 N575 1.990 . S
Li530 O588 1.977 . S
Li530 O590 1.956 . S
Li530 O591 1.970 . S
Li531 N581 1.990 1_545 S
Li531 O589 1.949 1_545 S
Li531 O590 1.982 . S
Li531 O591 1.956 . S
C532 C534 1.313 1_545 S
C532 C535 1.391 . S
C532 O588 1.325 . S
N533 C536 1.314 1_545 S
N533 C537 1.279 . S
C534 C532 1.313 1_565 S
C534 C536 1.353 . S
C534 H592 0.929 . S
C535 C532 1.391 . S
C535 C537 1.358 . S
C535 H593 0.930 . S
C536 N533 1.314 1_565 S
C536 C534 1.353 . S
C536 H594 0.930 . S
C537 N533 1.279 . S
C537 C535 1.358 . S
C537 H595 0.930 . S
C538 C541 1.348 . S
C538 C542 1.356 . S
C538 O589 1.325 . S
C539 N540 1.279 . S
C539 C542 1.358 . S
C539 H596 0.930 . S
N540 C539 1.279 . S
N540 C543 1.314 . S
C541 C538 1.348 . S
C541 C543 1.353 . S
C541 H597 0.929 . S
C542 C538 1.356 . S
C542 C539 1.358 . S
C542 H598 0.930 . S
C543 N540 1.314 . S
C543 C541 1.353 . S
C543 H599 0.930 . S
C544 N545 1.314 . S
C544 C549 1.353 . S
C544 H550 0.930 . S
N545 Li528 1.990 . S
N545 C544 1.314 . S
N545 C547 1.279 1_545 S
C546 C547 1.358 . S
C546 C548 1.350 1_565 S
C546 H600 0.930 . S
C547 N545 1.279 1_565 S
C547 C546 1.358 . S
C547 H551 0.930 . S
C548 C546 1.350 1_545 S
C548 C549 1.359 . S
C549 C544 1.353 . S
C549 C548 1.359 . S
C549 H601 0.929 . S
H550 C544 0.930 . S
H551 C547 0.930 . S
C552 N553 1.314 . S
C552 C554 1.353 . S
C552 H558 0.930 . S
N553 Li529 1.990 . S
N553 C552 1.314 . S
N553 C556 1.279 . S
C554 C552 1.353 . S
C554 C557 1.348 . S
C554 H602 0.929 . S
C555 C556 1.358 . S
C555 C557 1.356 . S
C555 H603 0.930 . S
C556 N553 1.279 . S
C556 C555 1.358 . S
C556 H559 0.930 . S
C557 C554 1.348 . S
C557 C555 1.356 . S
H558 C552 0.930 . S
H559 C556 0.930 . S
C560 C562 1.348 . S
C560 C563 1.356 . S
C560 O590 1.325 . S
N561 C564 1.314 . S
N561 C565 1.279 . S
C562 C560 1.348 . S
C562 C564 1.353 . S
C562 H604 0.929 . S
C563 C560 1.356 . S
C563 C565 1.358 . S
C563 H605 0.930 . S
C564 N561 1.314 . S
C564 C562 1.353 . S
C564 H606 0.930 . S
C565 N561 1.279 . S
C565 C563 1.358 . S
C565 H607 0.930 . S
C566 C567 1.376 . S
C566 C568 1.329 1_545 S
C566 O591 1.326 . S
C567 C566 1.376 . S
C567 C569 1.353 . S
C567 H608 0.929 . S
C568 C566 1.329 1_565 S
C568 C570 1.358 . S
C568 H609 0.930 . S
C569 C567 1.353 . S
C569 N571 1.304 1_545 S
C569 H610 0.930 . S
C570 C568 1.358 . S
C570 N571 1.290 . S
C570 H611 0.930 . S
N571 C569 1.304 1_565 S
N571 C570 1.290 . S
C572 C574 1.353 . S
C572 N575 1.314 . S
C572 H578 0.930 . S
C573 N575 1.279 . S
C573 C576 1.358 . S
C573 H579 0.930 . S
C574 C572 1.353 . S
C574 C577 1.348 . S
C574 H612 0.929 . S
N575 Li530 1.990 . S
N575 C572 1.314 . S
N575 C573 1.279 . S
C576 C573 1.358 . S
C576 C577 1.356 . S
C576 H613 0.930 . S
C577 C574 1.348 . S
C577 C576 1.356 . S
H578 C572 0.930 . S
H579 C573 0.930 . S
C580 N581 1.314 . S
C580 C582 1.353 . S
C580 H586 0.930 . S
N581 Li531 1.990 1_565 S
N581 C580 1.314 . S
N581 C584 1.279 1_565 S
C582 C580 1.353 . S
C582 C585 1.336 1_565 S
C582 H614 0.929 . S
C583 C584 1.358 . S
C583 C585 1.364 . S
C583 H615 0.930 . S
C584 N581 1.279 1_545 S
C584 C583 1.358 . S
C584 H587 0.930 . S
C585 C582 1.336 1_545 S
C585 C583 1.364 . S
H586 C580 0.930 . S
H587 C584 0.930 . S
O588 Li528 1.957 . S
O588 Li529 1.954 1_545 S
O588 Li530 1.977 . S
O588 C532 1.325 . S
O589 Li528 1.970 1_565 S
O589 Li529 1.956 . S
O589 Li531 1.949 1_565 S
O589 C538 1.325 . S
O590 Li528 1.961 . S
O590 Li530 1.956 . S
O590 Li531 1.982 . S
O590 C560 1.325 . S
O591 Li529 1.961 1_545 S
O591 Li530 1.970 . S
O591 Li531 1.956 . S
O591 C566 1.326 . S
H592 C534 0.929 . S
H593 C535 0.930 . S
H594 C536 0.930 . S
H595 C537 0.930 . S
H596 C539 0.930 . S
H597 C541 0.929 . S
H598 C542 0.930 . S
H599 C543 0.930 . S
H600 C546 0.930 . S
H601 C549 0.929 . S
H602 C554 0.929 . S
H603 C555 0.930 . S
H604 C562 0.929 . S
H605 C563 0.930 . S
H606 C564 0.930 . S
H607 C565 0.930 . S
H608 C567 0.929 . S
H609 C568 0.930 . S
H610 C569 0.930 . S
H611 C570 0.930 . S
H612 C574 0.929 . S
H613 C576 0.930 . S
H614 C582 0.929 . S
H615 C583 0.930 . S
Li616 N633 1.990 . S
Li616 O676 1.956 1_655 S
Li616 O677 1.977 . S
Li616 O678 1.961 . S
Li617 N641 1.990 . S
Li617 O676 1.970 . S
Li617 O677 1.949 1_455 S
Li617 O679 1.961 . S
Li618 N663 1.991 . S
Li618 O676 1.960 1_655 S
Li618 O678 1.969 . S
Li618 O679 1.957 1_655 S
Li619 N669 1.990 . S
Li619 O677 1.960 1_455 S
Li619 O678 1.970 1_455 S
Li619 O679 1.956 . S
C620 C622 1.365 . S
C620 C623 1.336 1_455 S
C620 O676 1.326 . S
N621 C624 1.314 1_655 S
N621 C625 1.279 . S
C622 C620 1.365 . S
C622 C624 1.353 . S
C622 H680 0.929 . S
C623 C620 1.336 1_655 S
C623 C625 1.358 . S
C623 H681 0.930 . S
C624 N621 1.314 1_455 S
C624 C622 1.353 . S
C624 H682 0.930 . S
C625 N621 1.279 . S
C625 C623 1.358 . S
C625 H683 0.930 . S
C626 C629 1.331 1_455 S
C626 C630 1.377 . S
C626 O677 1.324 1_455 S
C627 N628 1.279 . S
C627 C630 1.358 . S
C627 H684 0.930 . S
N628 C627 1.279 . S
N628 C631 1.314 1_455 S
C629 C626 1.331 1_655 S
C629 C631 1.353 . S
C629 H685 0.929 . S
C630 C626 1.377 . S
C630 C627 1.358 . S
C630 H686 0.930 . S
C631 N628 1.314 1_655 S
C631 C629 1.353 . S
C631 H687 0.930 . S
C632 N633 1.314 . S
C632 C637 1.353 . S
C632 H638 0.930 . S
N633 Li616 1.990 . S
N633 C632 1.314 . S
N633 C635 1.279 . S
C634 C635 1.358 . S
C634 C636 1.356 . S
C634 H688 0.930 . S
C635 N633 1.279 . S
C635 C634 1.358 . S
C635 H639 0.930 . S
C636 C634 1.356 . S
C636 C637 1.348 . S
C637 C632 1.353 . S
C637 C636 1.348 . S
C637 H689 0.929 . S
H638 C632 0.930 . S
H639 C635 0.930 . S
C640 N641 1.314 . S
C640 C642 1.353 . S
C640 H646 0.930 . S
N641 Li617 1.990 . S
N641 C640 1.314 . S
N641 C644 1.279 . S
C642 C640 1.353 . S
C642 C645 1.348 . S
C642 H690 0.929 . S
C643 C644 1.358 . S
C643 C645 1.356 . S
C643 H691 0.930 . S
C644 N641 1.279 . S
C644 C643 1.358 . S
C644 H647 0.930 . S
C645 C642 1.348 . S
C645 C643 1.356 . S
H646 C640 0.930 . S
H647 C644 0.930 . S
C648 C650 1.348 . S
C648 C651 1.356 . S
C648 O678 1.325 . S
N649 C652 1.314 . S
N649 C653 1.279 . S
C650 C648 1.348 . S
C650 C652 1.353 . S
C650 H692 0.929 . S
C651 C648 1.356 . S
C651 C653 1.358 . S
C651 H693 0.930 . S
C652 N649 1.314 . S
C652 C650 1.353 . S
C652 H694 0.930 . S
C653 N649 1.279 . S
C653 C651 1.358 . S
C653 H695 0.930 . S
C654 C655 1.348 . S
C654 C656 1.356 . S
C654 O679 1.325 . S
C655 C654 1.348 . S
C655 C657 1.353 . S
C655 H696 0.929 . S
C656 C654 1.356 . S
C656 C658 1.358 . S
C656 H697 0.930 . S
C657 C655 1.353 . S
C657 N659 1.314 . S
C657 H698 0.930 . S
C658 C656 1.358 . S
C658 N659 1.279 . S
C658 H699 0.930 . S
N659 C657 1.314 . S
N659 C658 1.279 . S
C660 C662 1.353 . S
C660 N663 1.314 1_455 S
C660 H666 0.930 . S
C661 N663 1.279 . S
C661 C664 1.358 . S
C661 H667 0.930 . S
C662 C660 1.353 . S
C662 C665 1.364 . S
C662 H700 0.929 . S
N663 Li618 1.991 . S
N663 C660 1.314 1_655 S
N663 C661 1.279 . S
C664 C661 1.358 . S
C664 C665 1.337 1_655 S
C664 H701 0.930 . S
C665 C662 1.364 . S
C665 C664 1.337 1_455 S
H666 C660 0.930 . S
H667 C661 0.930 . S
C668 N669 1.314 1_655 S
C668 C670 1.353 . S
C668 H674 0.930 . S
N669 Li619 1.990 . S
N669 C668 1.314 1_455 S
N669 C672 1.279 . S
C670 C668 1.353 . S
C670 C673 1.330 1_655 S
C670 H702 0.929 . S
C671 C672 1.358 . S
C671 C673 1.378 . S
C671 H703 0.930 . S
C672 N669 1.279 . S
C672 C671 1.358 . S
C672 H675 0.930 . S
C673 C670 1.330 1_455 S
C673 C671 1.378 . S
H674 C668 0.930 . S
H675 C672 0.930 . S
O676 Li616 1.956 1_455 S
O676 Li617 1.970 . S
O676 Li618 1.960 1_455 S
O676 C620 1.326 . S
O677 Li616 1.977 . S
O677 Li617 1.949 1_655 S
O677 Li619 1.960 1_655 S
O677 C626 1.324 1_655 S
O678 Li616 1.961 . S
O678 Li618 1.969 . S
O678 Li619 1.970 1_655 S
O678 C648 1.325 . S
O679 Li617 1.961 . S
O679 Li618 1.957 1_455 S
O679 Li619 1.956 . S
O679 C654 1.325 . S
H680 C622 0.929 . S
H681 C623 0.930 . S
H682 C624 0.930 . S
H683 C625 0.930 . S
H684 C627 0.930 . S
H685 C629 0.929 . S
H686 C630 0.930 . S
H687 C631 0.930 . S
H688 C634 0.930 . S
H689 C637 0.929 . S
H690 C642 0.929 . S
H691 C643 0.930 . S
H692 C650 0.929 . S
H693 C651 0.930 . S
H694 C652 0.930 . S
H695 C653 0.930 . S
H696 C655 0.929 . S
H697 C656 0.930 . S
H698 C657 0.930 . S
H699 C658 0.930 . S
H700 C662 0.929 . S
H701 C664 0.930 . S
H702 C670 0.929 . S
H703 C671 0.930 . S
H704 C712 0.950 . S
H705 C717 0.950 . S
H706 C714 0.950 . S
H707 C716 0.950 . S
H708 C718 0.950 . S
H709 C720 0.950 . S
H710 C722 0.950 . S
H711 C723 0.950 . S
C712 H704 0.950 . S
C712 C713 1.357 1_565 S
C712 C714 1.391 . S
C713 C712 1.357 1_545 S
C713 C717 1.422 . S
C714 H706 0.950 . S
C714 C712 1.391 . S
C714 C715 1.400 1_565 S
C715 C714 1.400 1_545 S
C715 C716 1.398 . S
C715 C721 1.491 1_554 S
C716 H707 0.950 . S
C716 C715 1.398 . S
C716 C717 1.391 . S
C717 H705 0.950 . S
C717 C713 1.422 . S
C717 C716 1.391 . S
C718 H708 0.950 . S
C718 C719 1.386 . S
C718 C720 1.391 . S
C719 C718 1.386 . S
C719 C723 1.393 1_545 S
C720 H709 0.950 . S
C720 C718 1.391 . S
C720 C721 1.400 . S
C721 C715 1.491 1_556 S
C721 C720 1.400 . S
C721 C722 1.398 1_545 S
C722 H710 0.950 . S
C722 C721 1.398 1_565 S
C722 C723 1.391 . S
C723 H711 0.950 . S
C723 C719 1.393 1_565 S
C723 C722 1.391 . S
H724 C732 0.950 . S
H725 C737 0.950 . S
H726 C734 0.950 . S
H727 C736 0.950 . S
H728 C738 0.950 . S
H729 C740 0.950 . S
H730 C742 0.950 . S
H731 C743 0.950 . S
C732 H724 0.950 . S
C732 C733 1.386 . S
C732 C734 1.391 . S
C733 C732 1.386 . S
C733 C737 1.393 1_455 S
C734 H726 0.950 . S
C734 C732 1.391 . S
C734 C735 1.400 . S
C735 C734 1.400 . S
C735 C736 1.398 1_455 S
C735 C741 1.492 . S
C736 H727 0.950 . S
C736 C735 1.398 1_655 S
C736 C737 1.391 . S
C737 H725 0.950 . S
C737 C733 1.393 1_655 S
C737 C736 1.391 . S
C738 H728 0.950 . S
C738 C739 1.386 1_655 S
C738 C740 1.391 . S
C739 C738 1.386 1_455 S
C739 C743 1.393 . S
C740 H729 0.950 . S
C740 C738 1.391 . S
C740 C741 1.380 1_655 S
C741 C735 1.492 . S
C741 C740 1.380 1_455 S
C741 C742 1.418 . S
C742 H730 0.950 . S
C742 C741 1.418 . S
C742 C743 1.391 . S
C743 H731 0.950 . S
C743 C739 1.393 . S
C743 C742 1.391 . S
H744 C752 0.950 . S
H745 C757 0.950 . S
H746 C754 0.950 . S
H747 C756 0.950 . S
H748 C758 0.950 . S
H749 C760 0.950 . S
H750 C762 0.950 . S
H751 C763 0.950 . S
C752 H744 0.950 . S
C752 C753 1.383 1_545 S
C752 C754 1.391 . S
C753 C752 1.383 1_565 S
C753 C757 1.396 . S
C754 H746 0.950 . S
C754 C752 1.391 . S
C754 C755 1.417 . S
C755 C754 1.417 . S
C755 C756 1.381 1_545 S
C755 C761 1.492 1_556 S
C756 H747 0.950 . S
C756 C755 1.381 1_565 S
C756 C757 1.391 . S
C757 H745 0.950 . S
C757 C753 1.396 . S
C757 C756 1.391 . S
C758 H748 0.950 . S
C758 C759 1.386 1_565 S
C758 C760 1.391 . S
C759 C758 1.386 1_545 S
C759 C763 1.393 . S
C760 H749 0.950 . S
C760 C758 1.391 . S
C760 C761 1.400 1_565 S
C761 C755 1.492 1_554 S
C761 C760 1.400 1_545 S
C761 C762 1.398 . S
C762 H750 0.950 . S
C762 C761 1.398 . S
C762 C763 1.391 . S
C763 H751 0.950 . S
C763 C759 1.393 . S
C763 C762 1.391 . S
H764 C772 0.950 . S
H765 C777 0.950 . S
H766 C774 0.950 . S
H767 C776 0.950 . S
H768 C778 0.950 . S
H769 C780 0.950 . S
H770 C782 0.950 . S
H771 C783 0.950 . S
C772 H764 0.950 . S
C772 C773 1.376 1_455 S
C772 C774 1.391 . S
C773 C772 1.376 1_655 S
C773 C777 1.403 . S
C774 H766 0.950 . S
C774 C772 1.391 . S
C774 C775 1.413 . S
C775 C774 1.413 . S
C775 C776 1.384 1_455 S
C775 C781 1.492 . S
C776 H767 0.950 . S
C776 C775 1.384 1_655 S
C776 C777 1.391 . S
C777 H765 0.950 . S
C777 C773 1.403 . S
C777 C776 1.391 . S
C778 H768 0.950 . S
C778 C779 1.386 1_655 S
C778 C780 1.391 . S
C779 C778 1.386 1_455 S
C779 C783 1.393 . S
C780 H769 0.950 . S
C780 C778 1.391 . S
C780 C781 1.400 1_655 S
C781 C775 1.492 . S
C781 C780 1.400 1_455 S
C781 C782 1.398 . S
C782 H770 0.950 . S
C782 C781 1.398 . S
C782 C783 1.391 . S
C783 H771 0.950 . S
C783 C779 1.393 . S
C783 C782 1.391 . S
H784 C792 0.950 . S
H785 C797 0.950 . S
H786 C794 0.950 . S
H787 C796 0.950 . S
H788 C798 0.950 . S
H789 C800 0.950 . S
H790 C802 0.950 . S
H791 C803 0.950 . S
C792 H784 0.950 . S
C792 C793 1.386 1_565 S
C792 C794 1.391 . S
C793 C792 1.386 1_545 S
C793 C797 1.393 . S
C794 H786 0.950 . S
C794 C792 1.391 . S
C794 C795 1.400 1_565 S
C795 C794 1.400 1_545 S
C795 C796 1.398 . S
C795 C801 1.491 . S
C796 H787 0.950 . S
C796 C795 1.398 . S
C796 C797 1.391 . S
C797 H785 0.950 . S
C797 C793 1.393 . S
C797 C796 1.391 . S
C798 H788 0.950 . S
C798 C799 1.409 . S
C798 C800 1.391 . S
C799 C798 1.409 . S
C799 C803 1.370 1_545 S
C800 H789 0.950 . S
C800 C798 1.391 . S
C800 C801 1.400 . S
C801 C795 1.491 . S
C801 C800 1.400 . S
C801 C802 1.398 1_545 S
C802 H790 0.950 . S
C802 C801 1.398 1_565 S
C802 C803 1.391 . S
C803 H791 0.950 . S
C803 C799 1.370 1_565 S
C803 C802 1.391 . S
H804 C812 0.950 . S
H805 C817 0.950 . S
H806 C814 0.950 . S
H807 C816 0.950 . S
H808 C818 0.950 . S
H809 C820 0.950 . S
H810 C822 0.950 . S
H811 C823 0.950 . S
C812 H804 0.950 . S
C812 C813 1.355 1_655 S
C812 C814 1.391 . S
C813 C812 1.355 1_455 S
C813 C817 1.424 . S
C814 H806 0.950 . S
C814 C812 1.391 . S
C814 C815 1.369 1_655 S
C815 C814 1.369 1_455 S
C815 C816 1.430 . S
C815 C821 1.492 . S
C816 H807 0.950 . S
C816 C815 1.430 . S
C816 C817 1.391 . S
C817 H805 0.950 . S
C817 C813 1.424 . S
C817 C816 1.391 . S
C818 H808 0.950 . S
C818 C819 1.386 . S
C818 C820 1.391 . S
C819 C818 1.386 . S
C819 C823 1.393 1_455 S
C820 H809 0.950 . S
C820 C818 1.391 . S
C820 C821 1.400 . S
C821 C815 1.492 . S
C821 C820 1.400 . S
C821 C822 1.398 1_455 S
C822 H810 0.950 . S
C822 C821 1.398 1_655 S
C822 C823 1.391 . S
C823 H811 0.950 . S
C823 C819 1.393 1_655 S
C823 C822 1.391 . S
H824 C832 0.950 . S
H825 C837 0.950 . S
H826 C834 0.950 . S
H827 C836 0.950 . S
H828 C838 0.950 . S
H829 C840 0.950 . S
H830 C842 0.950 . S
H831 C843 0.950 . S
C832 H824 0.950 . S
C832 C833 1.371 1_565 S
C832 C834 1.391 . S
C833 C832 1.371 1_545 S
C833 C837 1.408 . S
C834 H826 0.950 . S
C834 C832 1.391 . S
C834 C835 1.376 1_565 S
C835 C834 1.376 1_545 S
C835 C836 1.422 . S
C835 C841 1.492 . S
C836 H827 0.950 . S
C836 C835 1.422 . S
C836 C837 1.391 . S
C837 H825 0.950 . S
C837 C833 1.408 . S
C837 C836 1.391 . S
C838 H828 0.950 . S
C838 C839 1.386 . S
C838 C840 1.391 . S
C839 C838 1.386 . S
C839 C843 1.393 1_545 S
C840 H829 0.950 . S
C840 C838 1.391 . S
C840 C841 1.400 . S
C841 C835 1.492 . S
C841 C840 1.400 . S
C841 C842 1.398 1_545 S
C842 H830 0.950 . S
C842 C841 1.398 1_565 S
C842 C843 1.391 . S
C843 H831 0.950 . S
C843 C839 1.393 1_565 S
C843 C842 1.391 . S
H844 C852 0.950 . S
H845 C857 0.950 . S
H846 C854 0.950 . S
H847 C856 0.950 . S
H848 C858 0.950 . S
H849 C860 0.950 . S
H850 C862 0.950 . S
H851 C863 0.950 . S
C852 H844 0.950 . S
C852 C853 1.347 1_655 S
C852 C854 1.391 . S
C853 C852 1.347 1_455 S
C853 C857 1.432 . S
C854 H846 0.950 . S
C854 C852 1.391 . S
C854 C855 1.400 1_655 S
C855 C854 1.400 1_455 S
C855 C856 1.398 . S
C855 C861 1.491 . S
C856 H847 0.950 . S
C856 C855 1.398 . S
C856 C857 1.391 . S
C857 H845 0.950 . S
C857 C853 1.432 . S
C857 C856 1.391 . S
C858 H848 0.950 . S
C858 C859 1.386 . S
C858 C860 1.391 . S
C859 C858 1.386 . S
C859 C863 1.393 1_455 S
C860 H849 0.950 . S
C860 C858 1.391 . S
C860 C861 1.400 . S
C861 C855 1.491 . S
C861 C860 1.400 . S
C861 C862 1.398 1_455 S
C862 H850 0.950 . S
C862 C861 1.398 1_655 S
C862 C863 1.391 . S
C863 H851 0.950 . S
C863 C859 1.393 1_655 S
C863 C862 1.391 . S
H864 C872 0.950 . S
H865 C877 0.950 . S
H866 C874 0.950 . S
H867 C876 0.950 . S
H868 C878 0.950 . S
H869 C880 0.950 . S
H870 C882 0.950 . S
H871 C883 0.950 . S
C872 H864 0.950 . S
C872 C873 1.386 . S
C872 C874 1.391 . S
C873 C872 1.386 . S
C873 C877 1.393 . S
C874 H866 0.950 . S
C874 C872 1.391 . S
C874 C875 1.400 . S
C875 C874 1.400 . S
C875 C876 1.398 . S
C875 C881 1.491 . S
C876 H867 0.950 . S
C876 C875 1.398 . S
C876 C877 1.391 . S
C877 H865 0.950 . S
C877 C873 1.393 . S
C877 C876 1.391 . S
C878 H868 0.950 . S
C878 C879 1.386 . S
C878 C880 1.391 . S
C879 C878 1.386 . S
C879 C883 1.393 . S
C880 H869 0.950 . S
C880 C878 1.391 . S
C880 C881 1.400 . S
C881 C875 1.491 . S
C881 C880 1.400 . S
C881 C882 1.398 . S
C882 H870 0.950 . S
C882 C881 1.398 . S
C882 C883 1.391 . S
C883 H871 0.950 . S
C883 C879 1.393 . S
C883 C882 1.391 . S
H884 C892 0.950 . S
H885 C897 0.950 . S
H886 C894 0.950 . S
H887 C896 0.950 . S
H888 C898 0.950 . S
H889 C900 0.950 . S
H890 C902 0.950 . S
H891 C903 0.950 . S
C892 H884 0.950 . S
C892 C893 1.386 . S
C892 C894 1.391 . S
C893 C892 1.386 . S
C893 C897 1.393 . S
C894 H886 0.950 . S
C894 C892 1.391 . S
C894 C895 1.400 . S
C895 C894 1.400 . S
C895 C896 1.398 . S
C895 C901 1.491 . S
C896 H887 0.950 . S
C896 C895 1.398 . S
C896 C897 1.391 . S
C897 H885 0.950 . S
C897 C893 1.393 . S
C897 C896 1.391 . S
C898 H888 0.950 . S
C898 C899 1.386 . S
C898 C900 1.391 . S
C899 C898 1.386 . S
C899 C903 1.393 . S
C900 H889 0.950 . S
C900 C898 1.391 . S
C900 C901 1.400 . S
C901 C895 1.491 . S
C901 C900 1.400 . S
C901 C902 1.398 . S
C902 H890 0.950 . S
C902 C901 1.398 . S
C902 C903 1.391 . S
C903 H891 0.950 . S
C903 C899 1.393 . S
C903 C902 1.391 . S
H904 C912 0.950 . S
H905 C917 0.950 . S
H906 C914 0.950 . S
H907 C916 0.950 . S
H908 C918 0.950 . S
H909 C920 0.950 . S
H910 C922 0.950 . S
H911 C923 0.950 . S
C912 H904 0.950 . S
C912 C913 1.386 . S
C912 C914 1.391 . S
C913 C912 1.386 . S
C913 C917 1.393 . S
C914 H906 0.950 . S
C914 C912 1.391 . S
C914 C915 1.400 . S
C915 C914 1.400 . S
C915 C916 1.398 . S
C915 C921 1.491 . S
C916 H907 0.950 . S
C916 C915 1.398 . S
C916 C917 1.391 . S
C917 H905 0.950 . S
C917 C913 1.393 . S
C917 C916 1.391 . S
C918 H908 0.950 . S
C918 C919 1.386 . S
C918 C920 1.391 . S
C919 C918 1.386 . S
C919 C923 1.393 . S
C920 H909 0.950 . S
C920 C918 1.391 . S
C920 C921 1.400 . S
C921 C915 1.491 . S
C921 C920 1.400 . S
C921 C922 1.398 . S
C922 H910 0.950 . S
C922 C921 1.398 . S
C922 C923 1.391 . S
C923 H911 0.950 . S
C923 C919 1.393 . S
C923 C922 1.391 . S
H924 C932 0.950 . S
H925 C937 0.950 . S
H926 C934 0.950 . S
H927 C936 0.950 . S
H928 C938 0.950 . S
H929 C940 0.950 . S
H930 C942 0.950 . S
H931 C943 0.950 . S
C932 H924 0.950 . S
C932 C933 1.386 . S
C932 C934 1.391 . S
C933 C932 1.386 . S
C933 C937 1.393 . S
C934 H926 0.950 . S
C934 C932 1.391 . S
C934 C935 1.400 . S
C935 C934 1.400 . S
C935 C936 1.398 . S
C935 C941 1.491 . S
C936 H927 0.950 . S
C936 C935 1.398 . S
C936 C937 1.391 . S
C937 H925 0.950 . S
C937 C933 1.393 . S
C937 C936 1.391 . S
C938 H928 0.950 . S
C938 C939 1.386 . S
C938 C940 1.391 . S
C939 C938 1.386 . S
C939 C943 1.393 . S
C940 H929 0.950 . S
C940 C938 1.391 . S
C940 C941 1.400 . S
C941 C935 1.491 . S
C941 C940 1.400 . S
C941 C942 1.398 . S
C942 H930 0.950 . S
C942 C941 1.398 . S
C942 C943 1.391 . S
C943 H931 0.950 . S
C943 C939 1.393 . S
C943 C942 1.391 . S
H944 C952 0.950 . S
H945 C957 0.950 . S
H946 C954 0.950 . S
H947 C956 0.950 . S
H948 C958 0.950 . S
H949 C960 0.950 . S
H950 C962 0.950 . S
H951 C963 0.950 . S
C952 H944 0.950 . S
C952 C953 1.386 . S
C952 C954 1.391 . S
C953 C952 1.386 . S
C953 C957 1.393 . S
C954 H946 0.950 . S
C954 C952 1.391 . S
C954 C955 1.400 . S
C955 C954 1.400 . S
C955 C956 1.398 . S
C955 C961 1.491 . S
C956 H947 0.950 . S
C956 C955 1.398 . S
C956 C957 1.391 . S
C957 H945 0.950 . S
C957 C953 1.393 . S
C957 C956 1.391 . S
C958 H948 0.950 . S
C958 C959 1.386 . S
C958 C960 1.391 . S
C959 C958 1.386 . S
C959 C963 1.393 . S
C960 H949 0.950 . S
C960 C958 1.391 . S
C960 C961 1.400 . S
C961 C955 1.491 . S
C961 C960 1.400 . S
C961 C962 1.398 . S
C962 H950 0.950 . S
C962 C961 1.398 . S
C962 C963 1.391 . S
C963 H951 0.950 . S
C963 C959 1.393 . S
C963 C962 1.391 . S
H964 C972 0.950 . S
H965 C977 0.950 . S
H966 C974 0.950 . S
H967 C976 0.950 . S
H968 C978 0.950 . S
H969 C980 0.950 . S
H970 C982 0.950 . S
H971 C983 0.950 . S
C972 H964 0.950 . S
C972 C973 1.386 . S
C972 C974 1.391 . S
C973 C972 1.386 . S
C973 C977 1.393 . S
C974 H966 0.950 . S
C974 C972 1.391 . S
C974 C975 1.400 . S
C975 C974 1.400 . S
C975 C976 1.398 . S
C975 C981 1.491 . S
C976 H967 0.950 . S
C976 C975 1.398 . S
C976 C977 1.391 . S
C977 H965 0.950 . S
C977 C973 1.393 . S
C977 C976 1.391 . S
C978 H968 0.950 . S
C978 C979 1.386 . S
C978 C980 1.391 . S
C979 C978 1.386 . S
C979 C983 1.393 . S
C980 H969 0.950 . S
C980 C978 1.391 . S
C980 C981 1.400 . S
C981 C975 1.491 . S
C981 C980 1.400 . S
C981 C982 1.398 . S
C982 H970 0.950 . S
C982 C981 1.398 . S
C982 C983 1.391 . S
C983 H971 0.950 . S
C983 C979 1.393 . S
C983 C982 1.391 . S
H984 C992 0.950 . S
H985 C997 0.950 . S
H986 C994 0.950 . S
H987 C996 0.950 . S
H988 C998 0.950 . S
H989 C1000 0.950 . S
H990 C1002 0.950 . S
H991 C1003 0.950 . S
C992 H984 0.950 . S
C992 C993 1.386 . S
C992 C994 1.391 . S
C993 C992 1.386 . S
C993 C997 1.393 . S
C994 H986 0.950 . S
C994 C992 1.391 . S
C994 C995 1.400 . S
C995 C994 1.400 . S
C995 C996 1.398 . S
C995 C1001 1.491 . S
C996 H987 0.950 . S
C996 C995 1.398 . S
C996 C997 1.391 . S
C997 H985 0.950 . S
C997 C993 1.393 . S
C997 C996 1.391 . S
C998 H988 0.950 . S
C998 C999 1.386 . S
C998 C1000 1.391 . S
C999 C998 1.386 . S
C999 C1003 1.393 . S
C1000 H989 0.950 . S
C1000 C998 1.391 . S
C1000 C1001 1.400 . S
C1001 C995 1.491 . S
C1001 C1000 1.400 . S
C1001 C1002 1.398 . S
C1002 H990 0.950 . S
C1002 C1001 1.398 . S
C1002 C1003 1.391 . S
C1003 H991 0.950 . S
C1003 C999 1.393 . S
C1003 C1002 1.391 . S
H1004 C1012 0.950 . S
H1005 C1017 0.950 . S
H1006 C1014 0.950 . S
H1007 C1016 0.950 . S
H1008 C1018 0.950 . S
H1009 C1020 0.950 . S
H1010 C1022 0.950 . S
H1011 C1023 0.950 . S
C1012 H1004 0.950 . S
C1012 C1013 1.386 . S
C1012 C1014 1.391 . S
C1013 C1012 1.386 . S
C1013 C1017 1.393 . S
C1014 H1006 0.950 . S
C1014 C1012 1.391 . S
C1014 C1015 1.400 . S
C1015 C1014 1.400 . S
C1015 C1016 1.398 . S
C1015 C1021 1.491 . S
C1016 H1007 0.950 . S
C1016 C1015 1.398 . S
C1016 C1017 1.391 . S
C1017 H1005 0.950 . S
C1017 C1013 1.393 . S
C1017 C1016 1.391 . S
C1018 H1008 0.950 . S
C1018 C1019 1.386 . S
C1018 C1020 1.391 . S
C1019 C1018 1.386 . S
C1019 C1023 1.393 . S
C1020 H1009 0.950 . S
C1020 C1018 1.391 . S
C1020 C1021 1.400 . S
C1021 C1015 1.491 . S
C1021 C1020 1.400 . S
C1021 C1022 1.398 . S
C1022 H1010 0.950 . S
C1022 C1021 1.398 . S
C1022 C1023 1.391 . S
C1023 H1011 0.950 . S
C1023 C1019 1.393 . S
C1023 C1022 1.391 . S
C713 C49 1.600 . S
C719 C381 1.600 . S
C733 C108 1.598 . S
C739 C469 1.596 . S
C753 C548 1.600 1_565 S
C759 C233 1.601 . S
C773 C673 1.598 1_655 S
C779 C313 1.598 . S
C793 C29 0.726 . S
C799 C196 0.745 . S
C813 C117 0.748 . S
C819 C321 0.721 . S
C833 C585 0.720 . S
C839 C401 0.740 . S
C853 C460 0.724 . S
C859 C665 0.751 . S
C873 C489 1.277 . S
C879 C20 1.258 . S
C893 C145 1.277 . S
C899 C577 1.265 . S
C913 C636 1.260 . S
C919 C205 1.266 . S
C933 C293 1.265 . S
C939 C409 1.272 . S
C953 C557 1.265 . S
C959 C284 1.250 . S
C973 C57 1.275 . S
C979 C645 1.255 . S
C993 C137 1.261 . S
C999 C372 1.276 . S
C1013 C497 1.256 . S
C1019 C225 1.275 . S
