# Generated by pormake.
# Topology vmi, (6)-cn, num edge types: 1
# Building blocks:
#     Node 0, Type 0, BuildingBlock: OJICUG_clean_sbu_0, # of connection points: 6
#     Node 1, Type 0, BuildingBlock: OJICUG_clean_sbu_0, # of connection points: 6
#     Node 2, Type 0, BuildingBlock: OJICUG_clean_sbu_0, # of connection points: 6
#     Node 3, Type 0, BuildingBlock: OJICUG_clean_sbu_0, # of connection points: 6
#     Node 4, Type 0, BuildingBlock: OJICUG_clean_sbu_0, # of connection points: 6
#     Node 5, Type 0, BuildingBlock: OJICUG_clean_sbu_0, # of connection points: 6
#     Node 6, Type 0, BuildingBlock: OJICUG_clean_sbu_0, # of connection points: 6
#     Node 7, Type 0, BuildingBlock: OJICUG_clean_sbu_0, # of connection points: 6
#     Edge 8, Type (0, 0), BuildingBlock: XIVTED_clean_linker_0, # of connection points: 2
#     Edge 9, Type (0, 0), BuildingBlock: XIVTED_clean_linker_0, # of connection points: 2
#     Edge 10, Type (0, 0), BuildingBlock: XIVTED_clean_linker_0, # of connection points: 2
#     Edge 11, Type (0, 0), BuildingBlock: XIVTED_clean_linker_0, # of connection points: 2
#     Edge 12, Type (0, 0), BuildingBlock: XIVTED_clean_linker_0, # of connection points: 2
#     Edge 13, Type (0, 0), BuildingBlock: XIVTED_clean_linker_0, # of connection points: 2
#     Edge 14, Type (0, 0), BuildingBlock: XIVTED_clean_linker_0, # of connection points: 2
#     Edge 15, Type (0, 0), BuildingBlock: XIVTED_clean_linker_0, # of connection points: 2
#     Edge 16, Type (0, 0), BuildingBlock: XIVTED_clean_linker_0, # of connection points: 2
#     Edge 17, Type (0, 0), BuildingBlock: XIVTED_clean_linker_0, # of connection points: 2
#     Edge 18, Type (0, 0), BuildingBlock: XIVTED_clean_linker_0, # of connection points: 2
#     Edge 19, Type (0, 0), BuildingBlock: XIVTED_clean_linker_0, # of connection points: 2
#     Edge 20, Type (0, 0), BuildingBlock: XIVTED_clean_linker_0, # of connection points: 2
#     Edge 21, Type (0, 0), BuildingBlock: XIVTED_clean_linker_0, # of connection points: 2
#     Edge 22, Type (0, 0), BuildingBlock: XIVTED_clean_linker_0, # of connection points: 2
#     Edge 23, Type (0, 0), BuildingBlock: XIVTED_clean_linker_0, # of connection points: 2
#     Edge 24, Type (0, 0), BuildingBlock: XIVTED_clean_linker_0, # of connection points: 2
#     Edge 25, Type (0, 0), BuildingBlock: XIVTED_clean_linker_0, # of connection points: 2
#     Edge 26, Type (0, 0), BuildingBlock: XIVTED_clean_linker_0, # of connection points: 2
#     Edge 27, Type (0, 0), BuildingBlock: XIVTED_clean_linker_0, # of connection points: 2
#     Edge 28, Type (0, 0), BuildingBlock: XIVTED_clean_linker_0, # of connection points: 2
#     Edge 29, Type (0, 0), BuildingBlock: XIVTED_clean_linker_0, # of connection points: 2
#     Edge 30, Type (0, 0), BuildingBlock: XIVTED_clean_linker_0, # of connection points: 2
#     Edge 31, Type (0, 0), BuildingBlock: XIVTED_clean_linker_0, # of connection points: 2
# Relax obj value: 0.323
# Max RMSD: 0.296
# Mean RMSD: 0.296
data_MOF--net-vmi--node1-OJICUG_clean_sbu_0--edge1-XIVTED_clean_linker_0
_symmetry_space_group_name_H-M    P1
_symmetry_Int_Tables_number       1
_symmetry_cell_setting            triclinic
loop_
_symmetry_equiv_pos_as_xyz
'x, y, z'
_cell_length_a     28.323595
_cell_length_b     47.584249
_cell_length_c     31.350363
_cell_angle_alpha  89.817832
_cell_angle_beta   113.2928
_cell_angle_gamma 90.155217
loop_
_atom_site_label
_atom_site_type_symbol
_atom_site_fract_x
_atom_site_fract_y
_atom_site_fract_z
_atom_type_partial_charge
Sc0 Sc 0.27357 0.07161 0.25033 0.0
Sc1 Sc 0.1456 0.08546 0.18529 0.0
Sc2 Sc 0.18317 0.02068 0.2417 0.0
O3 O 0.20014 0.05908 0.22551 0.0
C4 C 0.28879 0.00583 0.24249 0.0
C5 C 0.2328 0.08623 0.14505 0.0
C6 C 0.10795 0.02725 0.13541 0.0
C7 C 0.21853 0.13017 0.24564 0.0
C8 C 0.25926 0.04801 0.33692 0.0
C9 C 0.09087 0.05693 0.24571 0.0
O10 O 0.30548 0.02997 0.25844 0.0
O11 O 0.19278 0.09687 0.14791 0.0
O12 O 0.12916 0.01235 0.17182 0.0
O13 O 0.25675 0.11568 0.24755 0.0
O14 O 0.23563 0.0267 0.31326 0.0
O15 O 0.09266 0.07558 0.21725 0.0
O16 O 0.27364 0.06892 0.31923 0.0
O17 O 0.17389 0.11975 0.23258 0.0
O18 O 0.12295 0.03687 0.25985 0.0
O19 O 0.26783 0.07374 0.1792 0.0
O20 O 0.24124 0.00017 0.22483 0.0
O21 O 0.11251 0.05374 0.13472 0.0
Sc22 Sc 0.29189 0.01735 0.73163 0.0
Sc23 Sc 0.32881 0.08245 0.78672 0.0
Sc24 Sc 0.20089 0.06775 0.72285 0.0
O25 O 0.27451 0.05566 0.74739 0.0
C26 C 0.21518 0.04437 0.63631 0.0
C27 C 0.38344 0.05415 0.72638 0.0
C28 C 0.25474 0.12678 0.72669 0.0
C29 C 0.36785 0.02447 0.83751 0.0
C30 C 0.18671 0.00191 0.73185 0.0
C31 C 0.24211 0.08282 0.82781 0.0
O32 O 0.23904 0.02311 0.66007 0.0
O33 O 0.38129 0.07297 0.75426 0.0
O34 O 0.21694 0.11193 0.72512 0.0
O35 O 0.34629 0.00936 0.80152 0.0
O36 O 0.16957 0.02591 0.71547 0.0
O37 O 0.28209 0.09341 0.82459 0.0
O38 O 0.23434 -0.00348 0.74923 0.0
O39 O 0.3631 0.05096 0.83765 0.0
O40 O 0.20704 0.07005 0.79409 0.0
O41 O 0.35182 0.03379 0.71297 0.0
O42 O 0.20055 0.06512 0.6539 0.0
O43 O 0.29942 0.1166 0.73903 0.0
Sc44 Sc 0.70021 0.89476 0.7241 0.0
Sc45 Sc 0.82593 0.88127 0.79669 0.0
Sc46 Sc 0.79212 0.94532 0.73714 0.0
O47 O 0.77344 0.90727 0.75277 0.0
C48 C 0.72052 0.91744 0.64038 0.0
C49 C 0.75731 0.83614 0.73469 0.0
C50 C 0.88783 0.90911 0.74167 0.0
C51 C 0.7318 0.88024 0.82797 0.0
C52 C 0.68371 0.96067 0.72796 0.0
C53 C 0.85917 0.93992 0.84576 0.0
O54 O 0.70503 0.89656 0.65719 0.0
O55 O 0.80187 0.84684 0.7492 0.0
O56 O 0.85514 0.92853 0.72393 0.0
O57 O 0.70031 0.89393 0.79322 0.0
O58 O 0.73104 0.96631 0.74879 0.0
O59 O 0.85375 0.91351 0.84733 0.0
O60 O 0.66799 0.93637 0.71229 0.0
O61 O 0.77307 0.86925 0.82835 0.0
O62 O 0.84173 0.95417 0.80827 0.0
O63 O 0.71807 0.85067 0.72992 0.0
O64 O 0.74411 0.9386 0.66456 0.0
O65 O 0.8844 0.89133 0.77073 0.0
Sc66 Sc 0.68408 0.9472 0.24091 0.0
Sc67 Sc 0.64828 0.88319 0.18203 0.0
Sc68 Sc 0.77477 0.89626 0.25266 0.0
O69 O 0.70174 0.90907 0.22506 0.0
C70 C 0.79227 0.96211 0.24812 0.0
C71 C 0.61591 0.94188 0.13251 0.0
C72 C 0.74105 0.8812 0.14899 0.0
C73 C 0.58802 0.91157 0.23766 0.0
C74 C 0.75619 0.9189 0.33725 0.0
C75 C 0.71661 0.83809 0.24445 0.0
O76 O 0.74497 0.96799 0.22838 0.0
O77 O 0.62073 0.91543 0.1312 0.0
O78 O 0.77318 0.89507 0.18304 0.0
O79 O 0.62124 0.93081 0.25505 0.0
O80 O 0.77147 0.89824 0.32008 0.0
O81 O 0.67226 0.84896 0.23009 0.0
O82 O 0.73268 0.94021 0.31336 0.0
O83 O 0.5907 0.89373 0.20858 0.0
O84 O 0.75591 0.85227 0.24788 0.0
O85 O 0.63394 0.95618 0.16985 0.0
O86 O 0.80785 0.93771 0.26341 0.0
O87 O 0.6999 0.87052 0.14958 0.0
Sc88 Sc 0.77036 0.57168 0.75957 0.0
Sc89 Sc 0.64211 0.58446 0.69349 0.0
Sc90 Sc 0.68131 0.51969 0.7496 0.0
O91 O 0.6973 0.55844 0.73387 0.0
C92 C 0.78778 0.50615 0.75124 0.0
C93 C 0.73082 0.58707 0.65466 0.0
C94 C 0.60647 0.52618 0.64317 0.0
C95 C 0.71321 0.62972 0.75429 0.0
C96 C 0.75549 0.5472 0.84532 0.0
C97 C 0.58757 0.55474 0.75318 0.0
O98 O 0.80364 0.53034 0.76754 0.0
O99 O 0.68952 0.59656 0.65659 0.0
O100 O 0.62789 0.51121 0.67947 0.0
O101 O 0.75203 0.61553 0.75698 0.0
O102 O 0.733 0.52572 0.82145 0.0
O103 O 0.58893 0.57367 0.72493 0.0
O104 O 0.76948 0.56839 0.82797 0.0
O105 O 0.66881 0.61893 0.74076 0.0
O106 O 0.6203 0.53499 0.76735 0.0
O107 O 0.76582 0.57468 0.68896 0.0
O108 O 0.74041 0.50008 0.7331 0.0
O109 O 0.61037 0.55271 0.64276 0.0
Sc110 Sc 0.79011 0.521 0.24048 0.0
Sc111 Sc 0.83024 0.58521 0.2978 0.0
Sc112 Sc 0.70138 0.57249 0.23312 0.0
O113 O 0.77451 0.5594 0.25751 0.0
C114 C 0.71376 0.54888 0.14589 0.0
C115 C 0.88263 0.55695 0.23552 0.0
C116 C 0.75805 0.63078 0.23823 0.0
C117 C 0.86726 0.52645 0.34626 0.0
C118 C 0.68487 0.50674 0.24133 0.0
C119 C 0.74287 0.58698 0.33854 0.0
O120 O 0.73693 0.52738 0.16928 0.0
O121 O 0.88176 0.57547 0.26438 0.0
O122 O 0.71932 0.61641 0.2356 0.0
O123 O 0.84479 0.51194 0.30974 0.0
O124 O 0.66851 0.53097 0.22551 0.0
O125 O 0.78439 0.5962 0.33654 0.0
O126 O 0.73225 0.50077 0.25825 0.0
O127 O 0.86346 0.55294 0.34749 0.0
O128 O 0.70727 0.57501 0.30418 0.0
O129 O 0.85006 0.53705 0.22157 0.0
O130 O 0.70041 0.56983 0.16398 0.0
O131 O 0.80252 0.62018 0.25166 0.0
Sc132 Sc 0.198 0.39582 0.2287 0.0
Sc133 Sc 0.32332 0.38285 0.30318 0.0
Sc134 Sc 0.2896 0.44698 0.24384 0.0
O135 O 0.27094 0.40873 0.25876 0.0
C136 C 0.22081 0.41909 0.14631 0.0
C137 C 0.25676 0.3378 0.23887 0.0
C138 C 0.3868 0.41158 0.25036 0.0
C139 C 0.22734 0.38027 0.33192 0.0
C140 C 0.18014 0.46159 0.23316 0.0
C141 C 0.35434 0.44142 0.35294 0.0
O142 O 0.20445 0.39828 0.16253 0.0
O143 O 0.30123 0.34865 0.25521 0.0
O144 O 0.35378 0.43075 0.23208 0.0
O145 O 0.19625 0.39408 0.29712 0.0
O146 O 0.22733 0.4675 0.25411 0.0
O147 O 0.34915 0.41497 0.35424 0.0
O148 O 0.16492 0.43724 0.21737 0.0
O149 O 0.26943 0.36992 0.33318 0.0
O150 O 0.33761 0.45573 0.31549 0.0
O151 O 0.21693 0.35189 0.23368 0.0
O152 O 0.2435 0.44034 0.17076 0.0
O153 O 0.383 0.39365 0.27905 0.0
Sc154 Sc 0.18026 0.44231 0.74569 0.0
Sc155 Sc 0.14161 0.37845 0.6865 0.0
Sc156 Sc 0.26915 0.39061 0.75599 0.0
O157 O 0.19634 0.40392 0.72938 0.0
C158 C 0.28837 0.45626 0.75101 0.0
C159 C 0.1103 0.4375 0.63769 0.0
C160 C 0.23299 0.37587 0.65168 0.0
C161 C 0.0835 0.40762 0.74349 0.0
C162 C 0.25346 0.41387 0.84169 0.0
C163 C 0.2097 0.33269 0.74766 0.0
O164 O 0.24117 0.46255 0.7325 0.0
O165 O 0.11376 0.41097 0.63614 0.0
O166 O 0.26604 0.38921 0.68587 0.0
O167 O 0.11728 0.42666 0.76032 0.0
O168 O 0.26773 0.39296 0.8242 0.0
O169 O 0.16547 0.3437 0.73365 0.0
O170 O 0.22939 0.43506 0.81786 0.0
O171 O 0.08541 0.38941 0.71456 0.0
O172 O 0.24917 0.34683 0.75148 0.0
O173 O 0.12985 0.45168 0.67502 0.0
O174 O 0.3035 0.43175 0.76599 0.0
O175 O 0.19166 0.36558 0.65252 0.0
H176 H 0.58005 0.92922 0.31691 0.0
H177 H 0.28055 0.9604 0.18553 0.0
H178 H 0.48936 0.89833 0.1794 0.0
H179 H 0.38379 0.00109 0.31055 0.0
H180 H 0.35 0.92765 0.19109 0.0
H181 H 0.50148 0.94408 0.32446 0.0
C182 C 0.54338 0.925 0.2887 0.0
C183 C 0.54113 0.91305 0.24716 0.0
C184 C 0.357 0.94351 0.2176 0.0
C185 C 0.45112 0.93078 0.25489 0.0
C186 C 0.31751 0.96214 0.21442 0.0
C187 C 0.32697 -0.01621 0.24707 0.0
C188 C 0.40567 0.94648 0.25402 0.0
C189 C 0.37527 -0.0149 0.28402 0.0
C190 C 0.49852 0.9336 0.29288 0.0
C191 C 0.49266 0.90768 0.21189 0.0
N192 N 0.4128 0.96688 0.28629 0.0
N193 N 0.44945 0.91722 0.21609 0.0
H194 H 0.89602 0.92499 0.66159 0.0
H195 H 0.19525 0.95771 0.79159 0.0
H196 H -0.01354 0.89672 0.801 0.0
H197 H 0.09229 -0.00432 0.66354 0.0
H198 H 0.12597 0.92514 0.78797 0.0
H199 H 0.97466 0.9392 0.65328 0.0
C200 C 0.93267 0.9212 0.6901 0.0
C201 C 0.93483 0.91016 0.73229 0.0
C202 C 0.119 0.94034 0.76037 0.0
C203 C 0.02493 0.9272 0.72368 0.0
C204 C 0.15841 0.95885 0.76242 0.0
C205 C 0.14894 0.97972 0.72832 0.0
C206 C 0.07041 0.94263 0.72361 0.0
C207 C 0.10079 0.9803 0.69111 0.0
C208 C 0.97757 0.92944 0.68548 0.0
C209 C 0.98325 0.90535 0.76797 0.0
N210 N 0.06333 0.96221 0.68995 0.0
N211 N 0.02651 0.91454 0.76329 0.0
H212 H 0.59387 0.96546 0.65326 0.0
H213 H 0.47985 0.0749 0.77647 0.0
H214 H 0.6854 0.00639 0.78228 0.0
H215 H 0.39139 0.02953 0.6511 0.0
H216 H 0.55884 0.0601 0.76892 0.0
H217 H 0.52418 -0.00192 0.64239 0.0
C218 C 0.59931 0.9815 0.67925 0.0
C219 C 0.64485 -0.01715 0.71931 0.0
C220 C 0.52211 0.05397 0.74246 0.0
C221 C 0.56482 0.02017 0.7074 0.0
C222 C 0.47696 0.0626 0.74652 0.0
C223 C 0.42909 0.05285 0.7149 0.0
C224 C 0.51907 0.0356 0.7065 0.0
C225 C 0.42758 0.037 0.6768 0.0
C226 C 0.55958 0.00024 0.67292 0.0
C227 C 0.6505 0.00448 0.75123 0.0
N228 N 0.47195 0.02848 0.67411 0.0
N229 N 0.61039 0.02201 0.74509 0.0
H230 H 0.88381 0.96626 0.32104 0.0
H231 H -0.00617 0.07654 0.19493 0.0
H232 H 0.78924 0.00827 0.19381 0.0
H233 H 0.08391 0.03307 0.32214 0.0
H234 H 0.91539 0.06124 0.20334 0.0
H235 H 0.95308 -0.00089 0.33077 0.0
C236 C 0.87764 0.98257 0.29518 0.0
C237 C 0.83131 -0.01581 0.25596 0.0
C238 C 0.95233 0.05565 0.23 0.0
C239 C 0.91084 0.02181 0.26656 0.0
C240 C -0.00284 0.06455 0.22542 0.0
C241 C 0.04534 0.05545 0.25735 0.0
C242 C 0.95605 0.03762 0.26674 0.0
C243 C 0.04745 0.04001 0.29618 0.0
C244 C 0.91713 0.00146 0.30088 0.0
C245 C 0.82476 0.00615 0.22421 0.0
N246 N 0.00342 0.03117 0.29934 0.0
N247 N 0.86462 0.02383 0.22968 0.0
H248 H 0.9846 0.39333 0.68685 0.0
H249 H 0.88212 0.5017 0.82045 0.0
H250 H 0.07578 0.42843 0.82116 0.0
H251 H 0.78171 0.46106 0.69422 0.0
H252 H 0.94989 0.46887 0.82642 0.0
H253 H 0.90677 0.41054 0.69439 0.0
C254 C -0.01188 0.40383 0.71858 0.0
C255 C 0.0367 0.40998 0.75308 0.0
C256 C 0.91301 0.46681 0.79753 0.0
C257 C 0.94827 0.43007 0.76152 0.0
C258 C 0.87435 0.48573 0.79397 0.0
C259 C 0.82664 0.48441 0.75629 0.0
C260 C 0.90452 0.44669 0.7626 0.0
C261 C 0.81824 0.46289 0.72357 0.0
C262 C 0.94371 0.41385 0.72269 0.0
C263 C 0.0391 0.42372 0.79335 0.0
N264 N 0.85725 0.44513 0.72698 0.0
N265 N -0.00437 0.43369 0.7961 0.0
H266 H 0.5924 0.50032 0.1706 0.0
H267 H 0.48493 0.39843 0.31035 0.0
H268 H 0.69019 0.46338 0.30151 0.0
H269 H 0.397 0.42938 0.17207 0.0
H270 H 0.56395 0.4142 0.30308 0.0
H271 H 0.5244 0.46772 0.16582 0.0
C272 C 0.59952 0.48515 0.19832 0.0
C273 C 0.64646 0.48482 0.23693 0.0
C274 C 0.52747 0.41688 0.27391 0.0
C275 C 0.56836 0.44751 0.23214 0.0
C276 C 0.48242 0.40769 0.27791 0.0
C277 C 0.43443 0.41313 0.24204 0.0
C278 C 0.5241 0.43153 0.2338 0.0
C279 C 0.43322 0.42528 0.20087 0.0
C280 C 0.56077 0.46639 0.1955 0.0
C281 C 0.65421 0.46438 0.27138 0.0
N282 N 0.47728 0.43446 0.19818 0.0
N283 N 0.61504 0.44683 0.26867 0.0
H284 H 0.97993 0.57687 0.28482 0.0
H285 H 0.08777 0.46497 0.16081 0.0
H286 H 0.8885 0.53245 0.15928 0.0
H287 H 0.18345 0.50824 0.28609 0.0
H288 H 0.01858 0.49778 0.15068 0.0
H289 H 0.05782 0.56125 0.27606 0.0
C290 C 0.97617 0.56459 0.2546 0.0
C291 C 0.92777 0.55532 0.22331 0.0
C292 C 0.05477 0.5004 0.18022 0.0
C293 C 0.01648 0.5371 0.21356 0.0
C294 C 0.09422 0.48153 0.18616 0.0
C295 C 0.14088 0.48352 0.22498 0.0
C296 C 0.06145 0.52114 0.21385 0.0
C297 C 0.14771 0.50581 0.25603 0.0
C298 C 0.02069 0.55551 0.24983 0.0
C299 C 0.92514 0.53953 0.18479 0.0
N300 N 0.10793 0.52349 0.25032 0.0
N301 N 0.9689 0.5305 0.18147 0.0
H302 H 0.58204 0.53207 0.8309 0.0
H303 H 0.28094 0.50504 0.70103 0.0
H304 H 0.48895 0.57094 0.70011 0.0
H305 H 0.38537 0.45722 0.81703 0.0
H306 H 0.35097 0.53835 0.71044 0.0
H307 H 0.50414 0.51532 0.83808 0.0
C308 C 0.54505 0.53766 0.80424 0.0
C309 C 0.54187 0.55237 0.76441 0.0
C310 C 0.35816 0.52074 0.73412 0.0
C311 C 0.45264 0.53256 0.77162 0.0
C312 C 0.31835 0.50175 0.72871 0.0
C313 C 0.32779 0.47805 0.75763 0.0
C314 C 0.40723 0.51605 0.76906 0.0
C315 C 0.37672 0.47485 0.79323 0.0
C316 C 0.50057 0.52797 0.80818 0.0
C317 C 0.49301 0.55942 0.73121 0.0
N318 N 0.41457 0.49349 0.79771 0.0
N319 N 0.45016 0.54884 0.73496 0.0
H320 H 0.07224 0.04948 0.04826 0.0
H321 H 0.88998 0.91895 0.93364 0.0
H322 H 0.06511 0.97472 0.12421 0.0
H323 H 0.90065 -0.00724 0.85717 0.0
H324 H 0.95116 0.94002 0.00455 0.0
H325 H 0.00846 0.02918 0.97807 0.0
C326 C 0.05739 0.0287 0.05013 0.0
C327 C 0.07367 0.01379 0.09219 0.0
C328 C 0.93997 0.95165 0.97231 0.0
C329 C 0.00048 -0.00941 0.012 0.0
C330 C 0.90494 0.93969 0.9318 0.0
C331 C 0.89071 0.95402 0.88935 0.0
C332 C 0.96093 0.97808 0.97031 0.0
C333 C 0.91072 0.98095 0.88912 0.0
C334 C 0.02089 0.01718 0.01003 0.0
C335 C 0.05361 -0.01311 0.09248 0.0
N336 N 0.94524 -0.00795 0.92906 0.0
N337 N 0.01773 0.97617 0.0529 0.0
H338 H 0.57636 -0.00482 0.12025 0.0
H339 H 0.40927 0.97163 0.84985 0.0
H340 H 0.58376 0.92043 0.04511 0.0
H341 H 0.40594 0.0476 0.92388 0.0
H342 H 0.47317 0.95227 0.92155 0.0
H343 H 0.51568 0.01548 0.04784 0.0
C344 C 0.56569 -0.01682 0.08849 0.0
C345 C 0.58459 0.95597 0.08876 0.0
C346 C 0.45835 0.97317 0.92203 0.0
C347 C 0.51497 0.97882 0.00622 0.0
C348 C 0.42164 -0.01588 0.88123 0.0
C349 C 0.40258 0.01128 0.8809 0.0
C350 C 0.47578 -0.01049 0.96259 0.0
C351 C 0.42002 0.02663 0.92247 0.0
C352 C 0.53084 -0.00531 0.04724 0.0
C353 C 0.56954 0.94134 0.04662 0.0
N354 N 0.45578 0.01553 0.96166 0.0
N355 N 0.5353 0.9529 0.00705 0.0
H356 H 0.57228 0.54835 0.55612 0.0
H357 H 0.38329 0.42043 0.44068 0.0
H358 H 0.56187 0.47408 0.63168 0.0
H359 H 0.39696 0.49397 0.36505 0.0
H360 H 0.44541 0.44081 0.51185 0.0
H361 H 0.50718 0.52885 0.48593 0.0
C362 C 0.55648 0.52781 0.55787 0.0
C363 C 0.57217 0.51284 0.59983 0.0
C364 C 0.43463 0.45254 0.47973 0.0
C365 C 0.49738 0.49056 0.51966 0.0
C366 C 0.39904 0.44099 0.43909 0.0
C367 C 0.38549 0.45541 0.39678 0.0
C368 C 0.45685 0.47864 0.47798 0.0
C369 C 0.4065 0.4821 0.39687 0.0
C370 C 0.51919 0.51676 0.51779 0.0
C371 C 0.55088 0.48626 0.6 0.0
N372 N 0.44159 0.49277 0.43691 0.0
N373 N 0.5142 0.476 0.56043 0.0
H374 H 0.07864 0.49235 0.62608 0.0
H375 H 0.90255 0.47225 0.35678 0.0
H376 H 0.07103 0.41552 0.55032 0.0
H377 H 0.91092 0.54903 0.43289 0.0
H378 H 0.96516 0.45107 0.42742 0.0
H379 H 0.01967 0.51418 0.55446 0.0
C380 C 0.06495 0.48016 0.59436 0.0
C381 C 0.07927 0.452 0.59425 0.0
C382 C 0.95318 0.47255 0.42856 0.0
C383 C 0.01161 0.47668 0.51254 0.0
C384 C 0.91725 0.48457 0.38837 0.0
C385 C 0.90171 0.51244 0.38895 0.0
C386 C 0.97343 0.48855 0.46943 0.0
C387 C 0.9221 0.52751 0.43076 0.0
C388 C 0.03112 0.49257 0.55355 0.0
C389 C 0.0605 0.4372 0.55214 0.0
N390 N 0.95702 0.51535 0.46933 0.0
N391 N 0.02733 0.44969 0.51297 0.0
H392 H 0.32193 0.09123 0.91086 0.0
H393 H 0.15345 0.09513 0.06168 0.0
H394 H 0.15807 0.07651 0.85132 0.0
H395 H 0.31642 0.07795 0.12176 0.0
H396 H 0.15484 0.09401 0.98463 0.0
H397 H 0.32045 0.09197 0.98787 0.0
C398 C 0.28537 0.08842 0.91383 0.0
C399 C 0.2398 0.0841 0.87424 0.0
C400 C 0.19031 0.09054 0.01462 0.0
C401 C 0.23825 0.08484 0.96304 0.0
C402 C 0.18981 0.09143 0.05883 0.0
C403 C 0.23515 0.08692 0.09859 0.0
C404 C 0.23656 0.08548 0.00975 0.0
C405 C 0.28067 0.08169 0.09225 0.0
C406 C 0.2848 0.08862 0.95802 0.0
C407 C 0.194 0.08005 0.88072 0.0
N408 N 0.28028 0.0813 0.04864 0.0
N409 N 0.19433 0.08072 0.92431 0.0
H410 H 0.70149 0.92247 0.87019 0.0
H411 H 0.727 0.83517 0.09424 0.0
H412 H 0.74894 0.8357 0.88676 0.0
H413 H 0.7659 0.92317 0.10208 0.0
H414 H 0.72118 0.83422 0.01408 0.0
H415 H 0.70754 0.92249 0.95069 0.0
C416 C 0.71176 0.90324 0.89037 0.0
C417 C 0.72431 0.87896 0.87188 0.0
C418 C 0.73164 0.85364 0.03357 0.0
C419 C 0.73193 0.87896 0.96353 0.0
C420 C 0.73533 0.85414 0.07928 0.0
C421 C 0.74778 0.87917 0.10485 0.0
C422 C 0.7388 0.87856 0.01286 0.0
C423 C 0.75725 0.90334 0.08372 0.0
C424 C 0.71602 0.9034 0.93638 0.0
C425 C 0.73868 0.85478 0.89977 0.0
N426 N 0.75184 0.90256 0.0386 0.0
N427 N 0.74193 0.85534 0.94418 0.0
H428 H 0.65701 0.58123 0.35917 0.0
H429 H 0.81649 0.58006 0.63415 0.0
H430 H 0.8208 0.59586 0.42286 0.0
H431 H 0.65374 0.59754 0.57043 0.0
H432 H 0.81896 0.58083 0.55667 0.0
H433 H 0.65472 0.58214 0.43671 0.0
C434 C 0.69232 0.58478 0.38927 0.0
C435 C 0.73899 0.58873 0.38431 0.0
C436 C 0.78285 0.58467 0.5599 0.0
C437 C 0.73687 0.58928 0.47295 0.0
C438 C 0.78147 0.58422 0.60407 0.0
C439 C 0.73503 0.58899 0.60901 0.0
C440 C 0.73732 0.58936 0.52043 0.0
C441 C 0.69065 0.59409 0.56859 0.0
C442 C 0.69104 0.58531 0.43347 0.0
C443 C 0.78373 0.59306 0.42474 0.0
N444 N 0.69284 0.59395 0.52613 0.0
N445 N 0.7816 0.59304 0.46724 0.0
H446 H 0.21318 0.33109 0.59331 0.0
H447 H 0.19751 0.42183 0.37557 0.0
H448 H 0.26194 0.4177 0.60737 0.0
H449 H 0.24078 0.33445 0.38758 0.0
H450 H 0.20178 0.42031 0.4555 0.0
H451 H 0.20753 0.33139 0.51313 0.0
C452 C 0.22358 0.34999 0.57969 0.0
C453 C 0.23884 0.37428 0.60706 0.0
C454 C 0.20965 0.40143 0.44027 0.0
C455 C 0.23011 0.37513 0.51511 0.0
C456 C 0.2064 0.40216 0.39458 0.0
C457 C 0.21835 0.37815 0.37503 0.0
C458 C 0.22388 0.37637 0.46599 0.0
C459 C 0.23098 0.35334 0.40145 0.0
C460 C 0.22002 0.3502 0.53399 0.0
C461 C 0.25102 0.3984 0.58762 0.0
N462 N 0.23324 0.35304 0.44557 0.0
N463 N 0.24569 0.39836 0.54251 0.0
H464 H 0.25945 0.09468 0.38841 0.0
H465 H 0.21014 0.00074 0.57907 0.0
H466 H 0.26454 0.00407 0.39406 0.0
H467 H 0.21508 0.09133 0.5851 0.0
H468 H 0.22529 0.00258 0.50806 0.0
H469 H 0.24416 0.095 0.46029 0.0
C470 C 0.25873 0.07493 0.40541 0.0
C471 C 0.26311 0.04929 0.38521 0.0
C472 C 0.22266 0.02215 0.52453 0.0
C473 C 0.24416 0.04948 0.46623 0.0
C474 C 0.21345 0.02109 0.56488 0.0
C475 C 0.21146 0.04591 0.58807 0.0
C476 C 0.23031 0.04823 0.50713 0.0
C477 C 0.21596 0.0717 0.56807 0.0
C478 C 0.24925 0.07511 0.446 0.0
C479 C 0.26104 0.0243 0.40824 0.0
N480 N 0.22576 0.07221 0.52889 0.0
N481 N 0.25132 0.02504 0.44719 0.0
H482 H 0.71348 0.96191 0.58403 0.0
H483 H 0.76176 0.87187 0.39007 0.0
H484 H 0.72136 0.87134 0.58828 0.0
H485 H 0.75608 0.96247 0.39292 0.0
H486 H 0.74893 0.87031 0.46304 0.0
H487 H 0.72587 0.96155 0.5117 0.0
C488 C 0.71701 0.94187 0.56922 0.0
C489 C 0.71657 0.91662 0.59217 0.0
C490 C 0.75099 0.89049 0.44781 0.0
C491 C 0.73206 0.91602 0.5097 0.0
C492 C 0.75899 0.89141 0.40656 0.0
C493 C 0.75974 0.91735 0.38537 0.0
C494 C 0.74384 0.91569 0.46773 0.0
C495 C 0.75531 0.94201 0.40784 0.0
C496 C 0.72451 0.94167 0.52807 0.0
C497 C 0.72113 0.89125 0.57141 0.0
N498 N 0.74722 0.94054 0.44755 0.0
N499 N 0.72926 0.89158 0.53143 0.0
H500 H 0.75911 0.50309 0.90175 0.0
H501 H 0.71275 0.59577 0.09418 0.0
H502 H 0.75577 0.59374 0.89705 0.0
H503 H 0.7078 0.50516 0.08851 0.0
H504 H 0.7268 0.5965 0.02173 0.0
H505 H 0.74413 0.5044 0.97284 0.0
C506 C 0.7561 0.52334 0.91619 0.0
C507 C 0.75856 0.54834 0.89338 0.0
C508 C 0.72202 0.57652 0.03615 0.0
C509 C 0.74004 0.55003 0.97449 0.0
C510 C 0.71325 0.5761 0.07708 0.0
C511 C 0.7093 0.55035 0.09743 0.0
C512 C 0.72679 0.55101 0.01572 0.0
C513 C 0.71102 0.52548 0.07422 0.0
C514 C 0.74704 0.52408 0.95662 0.0
C515 C 0.7545 0.57397 0.91375 0.0
N516 N 0.72005 0.52644 0.03492 0.0
N517 N 0.7449 0.57418 0.95303 0.0
H518 H 0.25508 0.3676 0.89483 0.0
H519 H 0.22539 0.46299 0.09246 0.0
H520 H 0.26207 0.45822 0.89839 0.0
H521 H 0.21486 0.37247 0.09284 0.0
H522 H 0.23891 0.46082 0.02079 0.0
H523 H 0.24496 0.36793 0.96913 0.0
C524 C 0.25576 0.38749 0.9118 0.0
C525 C 0.25916 0.41294 0.89044 0.0
C526 C 0.23333 0.44136 0.03622 0.0
C527 C 0.24641 0.4135 0.9743 0.0
C528 C 0.22523 0.44262 0.07706 0.0
C529 C 0.21908 0.41787 0.09871 0.0
C530 C 0.23559 0.41514 0.01673 0.0
C531 C 0.21908 0.39207 0.07707 0.0
C532 C 0.24929 0.38768 0.9538 0.0
C533 C 0.25914 0.43812 0.91349 0.0
N534 N 0.22767 0.39134 0.03733 0.0
N535 N 0.25245 0.43775 0.95392 0.0
H536 H 0.30856 0.15971 0.27874 0.0
H537 H 0.16807 0.30747 0.20099 0.0
H538 H 0.1437 0.17047 0.22352 0.0
H539 H 0.33314 0.29814 0.26588 0.0
H540 H 0.15883 0.25685 0.20535 0.0
H541 H 0.31861 0.21032 0.27431 0.0
C542 C 0.27446 0.17274 0.26624 0.0
C543 C 0.22515 0.16081 0.25107 0.0
C544 C 0.19709 0.26584 0.21842 0.0
C545 C 0.23646 0.21868 0.24528 0.0
C546 C 0.20245 0.29474 0.21564 0.0
C547 C 0.25148 0.30709 0.23355 0.0
C548 C 0.24103 0.24915 0.23922 0.0
C549 C 0.2946 0.28953 0.25178 0.0
C550 C 0.28026 0.20163 0.26347 0.0
C551 C 0.18243 0.17874 0.23549 0.0
N552 N 0.28834 0.2614 0.2545 0.0
N553 N 0.18908 0.2068 0.2326 0.0
H554 H 0.32913 0.16742 0.74716 0.0
H555 H 0.13279 0.29312 0.72048 0.0
H556 H 0.16471 0.15608 0.69851 0.0
H557 H 0.29812 0.30208 0.78073 0.0
H558 H 0.14312 0.24279 0.71186 0.0
H559 H 0.3176 0.21762 0.75487 0.0
C560 C 0.29054 0.17552 0.73737 0.0
C561 C 0.24789 0.15748 0.72267 0.0
C562 C 0.17709 0.25579 0.72728 0.0
C563 C 0.23454 0.21474 0.73232 0.0
C564 C 0.17122 0.28446 0.73266 0.0
C565 C 0.21465 0.30188 0.75091 0.0
C566 C 0.22667 0.24458 0.74019 0.0
C567 C 0.26352 0.28951 0.76601 0.0
C568 C 0.28402 0.20415 0.74226 0.0
C569 C 0.19877 0.16918 0.71044 0.0
N570 N 0.26819 0.26166 0.7599 0.0
N571 N 0.19348 0.19707 0.71592 0.0
H572 H 0.63721 0.66953 0.73079 0.0
H573 H 0.83339 0.79632 0.76051 0.0
H574 H 0.80234 0.65999 0.78648 0.0
H575 H 0.66823 0.8058 0.70413 0.0
H576 H 0.8227 0.74602 0.76909 0.0
H577 H 0.64798 0.72 0.72389 0.0
C578 C 0.67574 0.67808 0.74232 0.0
C579 C 0.71891 0.66047 0.75873 0.0
C580 C 0.78881 0.75912 0.7546 0.0
C581 C 0.73142 0.71801 0.75002 0.0
C582 C 0.79487 0.78779 0.74924 0.0
C583 C 0.75167 0.80534 0.73195 0.0
C584 C 0.73923 0.74799 0.74257 0.0
C585 C 0.70268 0.79311 0.71799 0.0
C586 C 0.68185 0.70685 0.73792 0.0
C587 C 0.76791 0.67273 0.77315 0.0
N588 N 0.69782 0.76521 0.72395 0.0
N589 N 0.77281 0.70072 0.76804 0.0
H590 H 0.83362 0.67059 0.25647 0.0
H591 H 0.64006 0.79858 0.22333 0.0
H592 H 0.66894 0.66093 0.209 0.0
H593 H 0.8052 0.80754 0.27516 0.0
H594 H 0.64978 0.74789 0.21876 0.0
H595 H 0.82344 0.72125 0.26037 0.0
C596 C 0.79527 0.67912 0.24622 0.0
C597 C 0.75213 0.66147 0.23285 0.0
C598 C 0.68387 0.76097 0.23138 0.0
C599 C 0.74033 0.71928 0.23806 0.0
C600 C 0.67837 0.78988 0.2344 0.0
C601 C 0.72184 0.80735 0.24923 0.0
C602 C 0.73313 0.74955 0.24325 0.0
C603 C 0.77055 0.79491 0.26312 0.0
C604 C 0.78953 0.70803 0.24886 0.0
C605 C 0.70336 0.67372 0.21992 0.0
N606 N 0.77484 0.76677 0.25943 0.0
N607 N 0.69884 0.70188 0.2232 0.0
loop_
_geom_bond_atom_site_label_1
_geom_bond_atom_site_label_2
_geom_bond_distance
_geom_bond_site_symmetry_2
_ccdc_geom_bond_type
Sc0 O3 2.025 . S
Sc0 O10 2.105 . S
Sc0 O13 2.105 . S
Sc0 O16 2.105 . S
Sc0 O19 2.105 . S
Sc1 O3 2.025 . S
Sc1 O11 2.105 . S
Sc1 O15 2.105 . S
Sc1 O17 2.105 . S
Sc1 O21 2.105 . S
Sc2 O3 2.025 . S
Sc2 O12 2.105 . S
Sc2 O14 2.105 . S
Sc2 O18 2.105 . S
Sc2 O20 2.105 . S
O3 Sc0 2.025 . S
O3 Sc1 2.025 . S
O3 Sc2 2.025 . S
C4 O10 1.268 . S
C4 O20 1.268 . S
C5 O11 1.268 . S
C5 O19 1.268 . S
C6 O12 1.268 . S
C6 O21 1.268 . S
C7 O13 1.268 . S
C7 O17 1.268 . S
C8 O14 1.268 . S
C8 O16 1.268 . S
C9 O15 1.268 . S
C9 O18 1.268 . S
O10 Sc0 2.105 . S
O10 C4 1.268 . S
O11 Sc1 2.105 . S
O11 C5 1.268 . S
O12 Sc2 2.105 . S
O12 C6 1.268 . S
O13 Sc0 2.105 . S
O13 C7 1.268 . S
O14 Sc2 2.105 . S
O14 C8 1.268 . S
O15 Sc1 2.105 . S
O15 C9 1.268 . S
O16 Sc0 2.105 . S
O16 C8 1.268 . S
O17 Sc1 2.105 . S
O17 C7 1.268 . S
O18 Sc2 2.105 . S
O18 C9 1.268 . S
O19 Sc0 2.105 . S
O19 C5 1.268 . S
O20 Sc2 2.105 . S
O20 C4 1.268 . S
O21 Sc1 2.105 . S
O21 C6 1.268 . S
Sc22 O25 2.025 . S
Sc22 O32 2.105 . S
Sc22 O35 2.105 . S
Sc22 O38 2.105 . S
Sc22 O41 2.105 . S
Sc23 O25 2.025 . S
Sc23 O33 2.105 . S
Sc23 O37 2.105 . S
Sc23 O39 2.105 . S
Sc23 O43 2.105 . S
Sc24 O25 2.025 . S
Sc24 O34 2.105 . S
Sc24 O36 2.105 . S
Sc24 O40 2.105 . S
Sc24 O42 2.105 . S
O25 Sc22 2.025 . S
O25 Sc23 2.025 . S
O25 Sc24 2.025 . S
C26 O32 1.268 . S
C26 O42 1.268 . S
C27 O33 1.268 . S
C27 O41 1.268 . S
C28 O34 1.268 . S
C28 O43 1.268 . S
C29 O35 1.268 . S
C29 O39 1.268 . S
C30 O36 1.268 . S
C30 O38 1.268 . S
C31 O37 1.268 . S
C31 O40 1.268 . S
O32 Sc22 2.105 . S
O32 C26 1.268 . S
O33 Sc23 2.105 . S
O33 C27 1.268 . S
O34 Sc24 2.105 . S
O34 C28 1.268 . S
O35 Sc22 2.105 . S
O35 C29 1.268 . S
O36 Sc24 2.105 . S
O36 C30 1.268 . S
O37 Sc23 2.105 . S
O37 C31 1.268 . S
O38 Sc22 2.105 . S
O38 C30 1.268 . S
O39 Sc23 2.105 . S
O39 C29 1.268 . S
O40 Sc24 2.105 . S
O40 C31 1.268 . S
O41 Sc22 2.105 . S
O41 C27 1.268 . S
O42 Sc24 2.105 . S
O42 C26 1.268 . S
O43 Sc23 2.105 . S
O43 C28 1.268 . S
Sc44 O47 2.025 . S
Sc44 O54 2.105 . S
Sc44 O57 2.105 . S
Sc44 O60 2.105 . S
Sc44 O63 2.105 . S
Sc45 O47 2.025 . S
Sc45 O55 2.105 . S
Sc45 O59 2.105 . S
Sc45 O61 2.105 . S
Sc45 O65 2.105 . S
Sc46 O47 2.025 . S
Sc46 O56 2.105 . S
Sc46 O58 2.105 . S
Sc46 O62 2.105 . S
Sc46 O64 2.105 . S
O47 Sc44 2.025 . S
O47 Sc45 2.025 . S
O47 Sc46 2.025 . S
C48 O54 1.268 . S
C48 O64 1.268 . S
C49 O55 1.268 . S
C49 O63 1.268 . S
C50 O56 1.268 . S
C50 O65 1.268 . S
C51 O57 1.268 . S
C51 O61 1.268 . S
C52 O58 1.268 . S
C52 O60 1.268 . S
C53 O59 1.268 . S
C53 O62 1.268 . S
O54 Sc44 2.105 . S
O54 C48 1.268 . S
O55 Sc45 2.105 . S
O55 C49 1.268 . S
O56 Sc46 2.105 . S
O56 C50 1.268 . S
O57 Sc44 2.105 . S
O57 C51 1.268 . S
O58 Sc46 2.105 . S
O58 C52 1.268 . S
O59 Sc45 2.105 . S
O59 C53 1.268 . S
O60 Sc44 2.105 . S
O60 C52 1.268 . S
O61 Sc45 2.105 . S
O61 C51 1.268 . S
O62 Sc46 2.105 . S
O62 C53 1.268 . S
O63 Sc44 2.105 . S
O63 C49 1.268 . S
O64 Sc46 2.105 . S
O64 C48 1.268 . S
O65 Sc45 2.105 . S
O65 C50 1.268 . S
Sc66 O69 2.025 . S
Sc66 O76 2.105 . S
Sc66 O79 2.105 . S
Sc66 O82 2.105 . S
Sc66 O85 2.105 . S
Sc67 O69 2.025 . S
Sc67 O77 2.105 . S
Sc67 O81 2.105 . S
Sc67 O83 2.105 . S
Sc67 O87 2.105 . S
Sc68 O69 2.025 . S
Sc68 O78 2.105 . S
Sc68 O80 2.105 . S
Sc68 O84 2.105 . S
Sc68 O86 2.105 . S
O69 Sc66 2.025 . S
O69 Sc67 2.025 . S
O69 Sc68 2.025 . S
C70 O76 1.268 . S
C70 O86 1.268 . S
C71 O77 1.268 . S
C71 O85 1.268 . S
C72 O78 1.268 . S
C72 O87 1.268 . S
C73 O79 1.268 . S
C73 O83 1.268 . S
C74 O80 1.268 . S
C74 O82 1.268 . S
C75 O81 1.268 . S
C75 O84 1.268 . S
O76 Sc66 2.105 . S
O76 C70 1.268 . S
O77 Sc67 2.105 . S
O77 C71 1.268 . S
O78 Sc68 2.105 . S
O78 C72 1.268 . S
O79 Sc66 2.105 . S
O79 C73 1.268 . S
O80 Sc68 2.105 . S
O80 C74 1.268 . S
O81 Sc67 2.105 . S
O81 C75 1.268 . S
O82 Sc66 2.105 . S
O82 C74 1.268 . S
O83 Sc67 2.105 . S
O83 C73 1.268 . S
O84 Sc68 2.105 . S
O84 C75 1.268 . S
O85 Sc66 2.105 . S
O85 C71 1.268 . S
O86 Sc68 2.105 . S
O86 C70 1.268 . S
O87 Sc67 2.105 . S
O87 C72 1.268 . S
Sc88 O91 2.025 . S
Sc88 O98 2.105 . S
Sc88 O101 2.105 . S
Sc88 O104 2.105 . S
Sc88 O107 2.105 . S
Sc89 O91 2.025 . S
Sc89 O99 2.105 . S
Sc89 O103 2.105 . S
Sc89 O105 2.105 . S
Sc89 O109 2.105 . S
Sc90 O91 2.025 . S
Sc90 O100 2.105 . S
Sc90 O102 2.105 . S
Sc90 O106 2.105 . S
Sc90 O108 2.105 . S
O91 Sc88 2.025 . S
O91 Sc89 2.025 . S
O91 Sc90 2.025 . S
C92 O98 1.268 . S
C92 O108 1.268 . S
C93 O99 1.268 . S
C93 O107 1.268 . S
C94 O100 1.268 . S
C94 O109 1.268 . S
C95 O101 1.268 . S
C95 O105 1.268 . S
C96 O102 1.268 . S
C96 O104 1.268 . S
C97 O103 1.268 . S
C97 O106 1.268 . S
O98 Sc88 2.105 . S
O98 C92 1.268 . S
O99 Sc89 2.105 . S
O99 C93 1.268 . S
O100 Sc90 2.105 . S
O100 C94 1.268 . S
O101 Sc88 2.105 . S
O101 C95 1.268 . S
O102 Sc90 2.105 . S
O102 C96 1.268 . S
O103 Sc89 2.105 . S
O103 C97 1.268 . S
O104 Sc88 2.105 . S
O104 C96 1.268 . S
O105 Sc89 2.105 . S
O105 C95 1.268 . S
O106 Sc90 2.105 . S
O106 C97 1.268 . S
O107 Sc88 2.105 . S
O107 C93 1.268 . S
O108 Sc90 2.105 . S
O108 C92 1.268 . S
O109 Sc89 2.105 . S
O109 C94 1.268 . S
Sc110 O113 2.025 . S
Sc110 O120 2.105 . S
Sc110 O123 2.105 . S
Sc110 O126 2.105 . S
Sc110 O129 2.105 . S
Sc111 O113 2.025 . S
Sc111 O121 2.105 . S
Sc111 O125 2.105 . S
Sc111 O127 2.105 . S
Sc111 O131 2.105 . S
Sc112 O113 2.025 . S
Sc112 O122 2.105 . S
Sc112 O124 2.105 . S
Sc112 O128 2.105 . S
Sc112 O130 2.105 . S
O113 Sc110 2.025 . S
O113 Sc111 2.025 . S
O113 Sc112 2.025 . S
C114 O120 1.268 . S
C114 O130 1.268 . S
C115 O121 1.268 . S
C115 O129 1.268 . S
C116 O122 1.268 . S
C116 O131 1.268 . S
C117 O123 1.268 . S
C117 O127 1.268 . S
C118 O124 1.268 . S
C118 O126 1.268 . S
C119 O125 1.268 . S
C119 O128 1.268 . S
O120 Sc110 2.105 . S
O120 C114 1.268 . S
O121 Sc111 2.105 . S
O121 C115 1.268 . S
O122 Sc112 2.105 . S
O122 C116 1.268 . S
O123 Sc110 2.105 . S
O123 C117 1.268 . S
O124 Sc112 2.105 . S
O124 C118 1.268 . S
O125 Sc111 2.105 . S
O125 C119 1.268 . S
O126 Sc110 2.105 . S
O126 C118 1.268 . S
O127 Sc111 2.105 . S
O127 C117 1.268 . S
O128 Sc112 2.105 . S
O128 C119 1.268 . S
O129 Sc110 2.105 . S
O129 C115 1.268 . S
O130 Sc112 2.105 . S
O130 C114 1.268 . S
O131 Sc111 2.105 . S
O131 C116 1.268 . S
Sc132 O135 2.025 . S
Sc132 O142 2.105 . S
Sc132 O145 2.105 . S
Sc132 O148 2.105 . S
Sc132 O151 2.105 . S
Sc133 O135 2.025 . S
Sc133 O143 2.105 . S
Sc133 O147 2.105 . S
Sc133 O149 2.105 . S
Sc133 O153 2.105 . S
Sc134 O135 2.025 . S
Sc134 O144 2.105 . S
Sc134 O146 2.105 . S
Sc134 O150 2.105 . S
Sc134 O152 2.105 . S
O135 Sc132 2.025 . S
O135 Sc133 2.025 . S
O135 Sc134 2.025 . S
C136 O142 1.268 . S
C136 O152 1.268 . S
C137 O143 1.268 . S
C137 O151 1.268 . S
C138 O144 1.268 . S
C138 O153 1.268 . S
C139 O145 1.268 . S
C139 O149 1.268 . S
C140 O146 1.268 . S
C140 O148 1.268 . S
C141 O147 1.268 . S
C141 O150 1.268 . S
O142 Sc132 2.105 . S
O142 C136 1.268 . S
O143 Sc133 2.105 . S
O143 C137 1.268 . S
O144 Sc134 2.105 . S
O144 C138 1.268 . S
O145 Sc132 2.105 . S
O145 C139 1.268 . S
O146 Sc134 2.105 . S
O146 C140 1.268 . S
O147 Sc133 2.105 . S
O147 C141 1.268 . S
O148 Sc132 2.105 . S
O148 C140 1.268 . S
O149 Sc133 2.105 . S
O149 C139 1.268 . S
O150 Sc134 2.105 . S
O150 C141 1.268 . S
O151 Sc132 2.105 . S
O151 C137 1.268 . S
O152 Sc134 2.105 . S
O152 C136 1.268 . S
O153 Sc133 2.105 . S
O153 C138 1.268 . S
Sc154 O157 2.025 . S
Sc154 O164 2.105 . S
Sc154 O167 2.105 . S
Sc154 O170 2.105 . S
Sc154 O173 2.105 . S
Sc155 O157 2.025 . S
Sc155 O165 2.105 . S
Sc155 O169 2.105 . S
Sc155 O171 2.105 . S
Sc155 O175 2.105 . S
Sc156 O157 2.025 . S
Sc156 O166 2.105 . S
Sc156 O168 2.105 . S
Sc156 O172 2.105 . S
Sc156 O174 2.105 . S
O157 Sc154 2.025 . S
O157 Sc155 2.025 . S
O157 Sc156 2.025 . S
C158 O164 1.268 . S
C158 O174 1.268 . S
C159 O165 1.268 . S
C159 O173 1.268 . S
C160 O166 1.268 . S
C160 O175 1.268 . S
C161 O167 1.268 . S
C161 O171 1.268 . S
C162 O168 1.268 . S
C162 O170 1.268 . S
C163 O169 1.268 . S
C163 O172 1.268 . S
O164 Sc154 2.105 . S
O164 C158 1.268 . S
O165 Sc155 2.105 . S
O165 C159 1.268 . S
O166 Sc156 2.105 . S
O166 C160 1.268 . S
O167 Sc154 2.105 . S
O167 C161 1.268 . S
O168 Sc156 2.105 . S
O168 C162 1.268 . S
O169 Sc155 2.105 . S
O169 C163 1.268 . S
O170 Sc154 2.105 . S
O170 C162 1.268 . S
O171 Sc155 2.105 . S
O171 C161 1.268 . S
O172 Sc156 2.105 . S
O172 C163 1.268 . S
O173 Sc154 2.105 . S
O173 C159 1.268 . S
O174 Sc156 2.105 . S
O174 C158 1.268 . S
O175 Sc155 2.105 . S
O175 C160 1.268 . S
H176 C182 0.930 . S
H177 C186 0.930 . S
H178 C191 0.929 . S
H179 C189 0.929 . S
H180 C184 0.929 . S
H181 C190 0.929 . S
C182 H176 0.930 . S
C182 C183 1.367 . S
C182 C190 1.378 . S
C183 C182 1.367 . S
C183 C191 1.433 . S
C184 H180 0.929 . S
C184 C186 1.378 1_565 S
C184 C188 1.350 . S
C185 C188 1.463 . S
C185 C190 1.350 . S
C185 N193 1.427 . S
C186 H177 0.930 . S
C186 C184 1.378 1_545 S
C186 C187 1.367 . S
C187 C186 1.367 . S
C187 C189 1.433 . S
C188 C184 1.350 . S
C188 C185 1.463 . S
C188 N192 1.427 . S
C189 H179 0.929 . S
C189 C187 1.433 . S
C189 N192 1.384 1_545 S
C190 H181 0.929 . S
C190 C182 1.378 . S
C190 C185 1.350 . S
C191 H178 0.929 . S
C191 C183 1.433 . S
C191 N193 1.384 . S
N192 C188 1.427 . S
N192 C189 1.384 1_565 S
N193 C185 1.427 . S
N193 C191 1.384 . S
H194 C200 0.930 . S
H195 C204 0.930 . S
H196 C209 0.929 . S
H197 C207 0.929 . S
H198 C202 0.929 . S
H199 C208 0.929 . S
C200 H194 0.930 . S
C200 C201 1.367 . S
C200 C208 1.378 . S
C201 C200 1.367 . S
C201 C209 1.433 1_655 S
C202 H198 0.929 . S
C202 C204 1.378 . S
C202 C206 1.350 . S
C203 C206 1.463 . S
C203 C208 1.350 1_455 S
C203 N211 1.427 . S
C204 H195 0.930 . S
C204 C202 1.378 . S
C204 C205 1.367 1_565 S
C205 C204 1.367 1_545 S
C205 C207 1.433 . S
C206 C202 1.350 . S
C206 C203 1.463 . S
C206 N210 1.429 1_565 S
C207 H197 0.929 . S
C207 C205 1.433 . S
C207 N210 1.382 . S
C208 H199 0.929 . S
C208 C200 1.378 . S
C208 C203 1.350 1_655 S
C209 H196 0.929 . S
C209 C201 1.433 1_455 S
C209 N211 1.384 . S
N210 C206 1.429 1_545 S
N210 C207 1.382 . S
N211 C203 1.427 . S
N211 C209 1.384 . S
H212 C218 0.930 . S
H213 C222 0.930 . S
H214 C227 0.929 . S
H215 C225 0.929 . S
H216 C220 0.929 . S
H217 C226 0.929 . S
C218 H212 0.930 . S
C218 C219 1.367 . S
C218 C226 1.378 1_565 S
C219 C218 1.367 . S
C219 C227 1.433 . S
C220 H216 0.929 . S
C220 C222 1.378 . S
C220 C224 1.350 . S
C221 C224 1.463 . S
C221 C226 1.350 . S
C221 N229 1.427 . S
C222 H213 0.930 . S
C222 C220 1.378 . S
C222 C223 1.367 . S
C223 C222 1.367 . S
C223 C225 1.433 . S
C224 C220 1.350 . S
C224 C221 1.463 . S
C224 N228 1.427 . S
C225 H215 0.929 . S
C225 C223 1.433 . S
C225 N228 1.384 . S
C226 H217 0.929 . S
C226 C218 1.378 1_545 S
C226 C221 1.350 . S
C227 H214 0.929 . S
C227 C219 1.433 . S
C227 N229 1.384 1_565 S
N228 C224 1.427 . S
N228 C225 1.384 . S
N229 C221 1.427 . S
N229 C227 1.384 1_545 S
H230 C236 0.930 . S
H231 C240 0.930 . S
H232 C245 0.929 . S
H233 C243 0.929 . S
H234 C238 0.929 . S
H235 C244 0.929 . S
C236 H230 0.930 . S
C236 C237 1.367 1_545 S
C236 C244 1.378 . S
C237 C236 1.367 1_565 S
C237 C245 1.433 . S
C238 H234 0.929 . S
C238 C240 1.378 1_655 S
C238 C242 1.350 . S
C239 C242 1.463 . S
C239 C244 1.350 . S
C239 N247 1.427 1_545 S
C240 H231 0.930 . S
C240 C238 1.378 1_455 S
C240 C241 1.367 . S
C241 C240 1.367 . S
C241 C243 1.433 . S
C242 C238 1.350 . S
C242 C239 1.463 . S
C242 N246 1.427 . S
C243 H233 0.929 . S
C243 C241 1.433 . S
C243 N246 1.384 1_455 S
C244 H235 0.929 . S
C244 C236 1.378 . S
C244 C239 1.350 . S
C245 H232 0.929 . S
C245 C237 1.433 . S
C245 N247 1.384 . S
N246 C242 1.427 . S
N246 C243 1.384 1_655 S
N247 C239 1.427 1_565 S
N247 C245 1.384 . S
H248 C254 0.930 . S
H249 C258 0.930 . S
H250 C263 0.929 . S
H251 C261 0.929 . S
H252 C256 0.929 . S
H253 C262 0.929 . S
C254 H248 0.930 . S
C254 C255 1.367 . S
C254 C262 1.378 1_455 S
C255 C254 1.367 . S
C255 C263 1.433 . S
C256 H252 0.929 . S
C256 C258 1.378 . S
C256 C260 1.350 . S
C257 C260 1.463 . S
C257 C262 1.350 . S
C257 N265 1.427 . S
C258 H249 0.930 . S
C258 C256 1.378 . S
C258 C259 1.367 . S
C259 C258 1.367 . S
C259 C261 1.433 . S
C260 C256 1.350 . S
C260 C257 1.463 . S
C260 N264 1.427 . S
C261 H251 0.929 . S
C261 C259 1.433 . S
C261 N264 1.384 . S
C262 H253 0.929 . S
C262 C254 1.378 1_655 S
C262 C257 1.350 . S
C263 H250 0.929 . S
C263 C255 1.433 . S
C263 N265 1.384 1_455 S
N264 C260 1.427 . S
N264 C261 1.384 . S
N265 C257 1.427 . S
N265 C263 1.384 1_655 S
H266 C272 0.930 . S
H267 C276 0.930 . S
H268 C281 0.929 . S
H269 C279 0.929 . S
H270 C274 0.929 . S
H271 C280 0.929 . S
C272 H266 0.930 . S
C272 C273 1.367 . S
C272 C280 1.378 . S
C273 C272 1.367 . S
C273 C281 1.433 . S
C274 H270 0.929 . S
C274 C276 1.378 . S
C274 C278 1.350 . S
C275 C278 1.463 . S
C275 C280 1.350 . S
C275 N283 1.427 . S
C276 H267 0.930 . S
C276 C274 1.378 . S
C276 C277 1.367 . S
C277 C276 1.367 . S
C277 C279 1.433 . S
C278 C274 1.350 . S
C278 C275 1.463 . S
C278 N282 1.427 . S
C279 H269 0.929 . S
C279 C277 1.433 . S
C279 N282 1.384 . S
C280 H271 0.929 . S
C280 C272 1.378 . S
C280 C275 1.350 . S
C281 H268 0.929 . S
C281 C273 1.433 . S
C281 N283 1.384 . S
N282 C278 1.427 . S
N282 C279 1.384 . S
N283 C275 1.427 . S
N283 C281 1.384 . S
H284 C290 0.930 . S
H285 C294 0.930 . S
H286 C299 0.929 . S
H287 C297 0.929 . S
H288 C292 0.929 . S
H289 C298 0.929 . S
C290 H284 0.930 . S
C290 C291 1.367 1_455 S
C290 C298 1.378 . S
C291 C290 1.367 1_655 S
C291 C299 1.433 . S
C292 H288 0.929 . S
C292 C294 1.378 . S
C292 C296 1.350 . S
C293 C296 1.463 . S
C293 C298 1.350 . S
C293 N301 1.427 1_455 S
C294 H285 0.930 . S
C294 C292 1.378 . S
C294 C295 1.367 . S
C295 C294 1.367 . S
C295 C297 1.433 . S
C296 C292 1.350 . S
C296 C293 1.463 . S
C296 N300 1.427 . S
C297 H287 0.929 . S
C297 C295 1.433 . S
C297 N300 1.384 . S
C298 H289 0.929 . S
C298 C290 1.378 . S
C298 C293 1.350 . S
C299 H286 0.929 . S
C299 C291 1.433 . S
C299 N301 1.384 . S
N300 C296 1.427 . S
N300 C297 1.384 . S
N301 C293 1.427 1_655 S
N301 C299 1.384 . S
H302 C308 0.930 . S
H303 C312 0.930 . S
H304 C317 0.929 . S
H305 C315 0.929 . S
H306 C310 0.929 . S
H307 C316 0.929 . S
C308 H302 0.930 . S
C308 C309 1.367 . S
C308 C316 1.378 . S
C309 C308 1.367 . S
C309 C317 1.433 . S
C310 H306 0.929 . S
C310 C312 1.378 . S
C310 C314 1.350 . S
C311 C314 1.463 . S
C311 C316 1.350 . S
C311 N319 1.427 . S
C312 H303 0.930 . S
C312 C310 1.378 . S
C312 C313 1.367 . S
C313 C312 1.367 . S
C313 C315 1.433 . S
C314 C310 1.350 . S
C314 C311 1.463 . S
C314 N318 1.427 . S
C315 H305 0.929 . S
C315 C313 1.433 . S
C315 N318 1.384 . S
C316 H307 0.929 . S
C316 C308 1.378 . S
C316 C311 1.350 . S
C317 H304 0.929 . S
C317 C309 1.433 . S
C317 N319 1.384 . S
N318 C314 1.427 . S
N318 C315 1.384 . S
N319 C311 1.427 . S
N319 C317 1.384 . S
H320 C326 0.930 . S
H321 C330 0.930 . S
H322 C335 0.929 . S
H323 C333 0.929 . S
H324 C328 0.929 . S
H325 C334 0.929 . S
C326 H320 0.930 . S
C326 C327 1.367 . S
C326 C334 1.378 . S
C327 C326 1.367 . S
C327 C335 1.433 1_545 S
C328 H324 0.929 . S
C328 C330 1.378 . S
C328 C332 1.350 . S
C329 C332 1.463 1_444 S
C329 C334 1.350 . S
C329 N337 1.427 1_545 S
C330 H321 0.930 . S
C330 C328 1.378 . S
C330 C331 1.367 . S
C331 C330 1.367 . S
C331 C333 1.433 1_565 S
C332 C328 1.350 . S
C332 C329 1.463 1_666 S
C332 N336 1.427 1_565 S
C333 H323 0.929 . S
C333 C331 1.433 1_545 S
C333 N336 1.384 . S
C334 H325 0.929 . S
C334 C326 1.378 . S
C334 C329 1.350 . S
C335 H322 0.929 . S
C335 C327 1.433 1_565 S
C335 N337 1.384 . S
N336 C332 1.427 1_545 S
N336 C333 1.384 . S
N337 C329 1.427 1_565 S
N337 C335 1.384 . S
H338 C344 0.930 . S
H339 C348 0.930 . S
H340 C353 0.929 . S
H341 C351 0.929 . S
H342 C346 0.929 . S
H343 C352 0.929 . S
C344 H338 0.930 . S
C344 C345 1.367 1_545 S
C344 C352 1.378 . S
C345 C344 1.367 1_565 S
C345 C353 1.433 . S
C346 H342 0.929 . S
C346 C348 1.378 . S
C346 C350 1.350 1_565 S
C347 C350 1.463 1_564 S
C347 C352 1.350 1_565 S
C347 N355 1.427 . S
C348 H339 0.930 . S
C348 C346 1.378 . S
C348 C349 1.367 1_565 S
C349 C348 1.367 1_545 S
C349 C351 1.433 . S
C350 C346 1.350 1_545 S
C350 C347 1.463 1_546 S
C350 N354 1.427 . S
C351 H341 0.929 . S
C351 C349 1.433 . S
C351 N354 1.384 . S
C352 H343 0.929 . S
C352 C344 1.378 . S
C352 C347 1.350 1_545 S
C353 H340 0.929 . S
C353 C345 1.433 . S
C353 N355 1.384 . S
N354 C350 1.427 . S
N354 C351 1.384 . S
N355 C347 1.427 . S
N355 C353 1.384 . S
H356 C362 0.930 . S
H357 C366 0.930 . S
H358 C371 0.929 . S
H359 C369 0.929 . S
H360 C364 0.929 . S
H361 C370 0.929 . S
C362 H356 0.930 . S
C362 C363 1.367 . S
C362 C370 1.378 . S
C363 C362 1.367 . S
C363 C371 1.433 . S
C364 H360 0.929 . S
C364 C366 1.378 . S
C364 C368 1.350 . S
C365 C368 1.463 . S
C365 C370 1.350 . S
C365 N373 1.427 . S
C366 H357 0.930 . S
C366 C364 1.378 . S
C366 C367 1.367 . S
C367 C366 1.367 . S
C367 C369 1.433 . S
C368 C364 1.350 . S
C368 C365 1.463 . S
C368 N372 1.427 . S
C369 H359 0.929 . S
C369 C367 1.433 . S
C369 N372 1.384 . S
C370 H361 0.929 . S
C370 C362 1.378 . S
C370 C365 1.350 . S
C371 H358 0.929 . S
C371 C363 1.433 . S
C371 N373 1.384 . S
N372 C368 1.427 . S
N372 C369 1.384 . S
N373 C365 1.427 . S
N373 C371 1.384 . S
H374 C380 0.930 . S
H375 C384 0.930 . S
H376 C389 0.929 . S
H377 C387 0.929 . S
H378 C382 0.929 1_455 S
H379 C388 0.929 1_655 S
C380 H374 0.930 . S
C380 C381 1.367 . S
C380 C388 1.378 . S
C381 C380 1.367 . S
C381 C389 1.433 . S
C382 H378 0.929 1_655 S
C382 C384 1.378 . S
C382 C386 1.350 . S
C383 C386 1.463 1_455 S
C383 C388 1.350 . S
C383 N391 1.427 . S
C384 H375 0.930 . S
C384 C382 1.378 . S
C384 C385 1.367 . S
C385 C384 1.367 . S
C385 C387 1.433 . S
C386 C382 1.350 . S
C386 C383 1.463 1_655 S
C386 N390 1.427 . S
C387 H377 0.929 . S
C387 C385 1.433 . S
C387 N390 1.384 . S
C388 H379 0.929 1_455 S
C388 C380 1.378 . S
C388 C383 1.350 . S
C389 H376 0.929 . S
C389 C381 1.433 . S
C389 N391 1.384 . S
N390 C386 1.427 . S
N390 C387 1.384 . S
N391 C383 1.427 . S
N391 C389 1.384 . S
H392 C398 0.930 . S
H393 C402 0.930 . S
H394 C407 0.929 . S
H395 C405 0.929 . S
H396 C400 0.929 1_556 S
H397 C406 0.929 1_554 S
C398 H392 0.930 . S
C398 C399 1.367 . S
C398 C406 1.378 . S
C399 C398 1.367 . S
C399 C407 1.433 . S
C400 H396 0.929 1_554 S
C400 C402 1.378 . S
C400 C404 1.350 . S
C401 C404 1.463 1_556 S
C401 C406 1.350 . S
C401 N409 1.427 . S
C402 H393 0.930 . S
C402 C400 1.378 . S
C402 C403 1.367 . S
C403 C402 1.367 . S
C403 C405 1.433 . S
C404 C400 1.350 . S
C404 C401 1.463 1_554 S
C404 N408 1.427 . S
C405 H395 0.929 . S
C405 C403 1.433 . S
C405 N408 1.384 . S
C406 H397 0.929 1_556 S
C406 C398 1.378 . S
C406 C401 1.350 . S
C407 H394 0.929 . S
C407 C399 1.433 . S
C407 N409 1.384 . S
N408 C404 1.427 . S
N408 C405 1.384 . S
N409 C401 1.427 . S
N409 C407 1.384 . S
H410 C416 0.930 . S
H411 C420 0.930 . S
H412 C425 0.929 . S
H413 C423 0.929 . S
H414 C418 0.929 . S
H415 C424 0.929 . S
C416 H410 0.930 . S
C416 C417 1.367 . S
C416 C424 1.378 . S
C417 C416 1.367 . S
C417 C425 1.433 . S
C418 H414 0.929 . S
C418 C420 1.378 . S
C418 C422 1.350 . S
C419 C422 1.463 1_556 S
C419 C424 1.350 . S
C419 N427 1.427 . S
C420 H411 0.930 . S
C420 C418 1.378 . S
C420 C421 1.367 . S
C421 C420 1.367 . S
C421 C423 1.433 . S
C422 C418 1.350 . S
C422 C419 1.463 1_554 S
C422 N426 1.427 . S
C423 H413 0.929 . S
C423 C421 1.433 . S
C423 N426 1.384 . S
C424 H415 0.929 . S
C424 C416 1.378 . S
C424 C419 1.350 . S
C425 H412 0.929 . S
C425 C417 1.433 . S
C425 N427 1.384 . S
N426 C422 1.427 . S
N426 C423 1.384 . S
N427 C419 1.427 . S
N427 C425 1.384 . S
H428 C434 0.930 . S
H429 C438 0.930 . S
H430 C443 0.929 . S
H431 C441 0.929 . S
H432 C436 0.929 . S
H433 C442 0.929 . S
C434 H428 0.930 . S
C434 C435 1.367 . S
C434 C442 1.378 . S
C435 C434 1.367 . S
C435 C443 1.433 . S
C436 H432 0.929 . S
C436 C438 1.378 . S
C436 C440 1.350 . S
C437 C440 1.463 . S
C437 C442 1.350 . S
C437 N445 1.427 . S
C438 H429 0.930 . S
C438 C436 1.378 . S
C438 C439 1.367 . S
C439 C438 1.367 . S
C439 C441 1.433 . S
C440 C436 1.350 . S
C440 C437 1.463 . S
C440 N444 1.427 . S
C441 H431 0.929 . S
C441 C439 1.433 . S
C441 N444 1.384 . S
C442 H433 0.929 . S
C442 C434 1.378 . S
C442 C437 1.350 . S
C443 H430 0.929 . S
C443 C435 1.433 . S
C443 N445 1.384 . S
N444 C440 1.427 . S
N444 C441 1.384 . S
N445 C437 1.427 . S
N445 C443 1.384 . S
H446 C452 0.930 . S
H447 C456 0.930 . S
H448 C461 0.929 . S
H449 C459 0.929 . S
H450 C454 0.929 . S
H451 C460 0.929 . S
C452 H446 0.930 . S
C452 C453 1.367 . S
C452 C460 1.378 . S
C453 C452 1.367 . S
C453 C461 1.433 . S
C454 H450 0.929 . S
C454 C456 1.378 . S
C454 C458 1.350 . S
C455 C458 1.463 . S
C455 C460 1.350 . S
C455 N463 1.427 . S
C456 H447 0.930 . S
C456 C454 1.378 . S
C456 C457 1.367 . S
C457 C456 1.367 . S
C457 C459 1.433 . S
C458 C454 1.350 . S
C458 C455 1.463 . S
C458 N462 1.427 . S
C459 H449 0.929 . S
C459 C457 1.433 . S
C459 N462 1.384 . S
C460 H451 0.929 . S
C460 C452 1.378 . S
C460 C455 1.350 . S
C461 H448 0.929 . S
C461 C453 1.433 . S
C461 N463 1.384 . S
N462 C458 1.427 . S
N462 C459 1.384 . S
N463 C455 1.427 . S
N463 C461 1.384 . S
H464 C470 0.930 . S
H465 C474 0.930 . S
H466 C479 0.929 . S
H467 C477 0.929 . S
H468 C472 0.929 . S
H469 C478 0.929 . S
C470 H464 0.930 . S
C470 C471 1.367 . S
C470 C478 1.378 . S
C471 C470 1.367 . S
C471 C479 1.433 . S
C472 H468 0.929 . S
C472 C474 1.378 . S
C472 C476 1.350 . S
C473 C476 1.463 . S
C473 C478 1.350 . S
C473 N481 1.427 . S
C474 H465 0.930 . S
C474 C472 1.378 . S
C474 C475 1.367 . S
C475 C474 1.367 . S
C475 C477 1.433 . S
C476 C472 1.350 . S
C476 C473 1.463 . S
C476 N480 1.427 . S
C477 H467 0.929 . S
C477 C475 1.433 . S
C477 N480 1.384 . S
C478 H469 0.929 . S
C478 C470 1.378 . S
C478 C473 1.350 . S
C479 H466 0.929 . S
C479 C471 1.433 . S
C479 N481 1.384 . S
N480 C476 1.427 . S
N480 C477 1.384 . S
N481 C473 1.427 . S
N481 C479 1.384 . S
H482 C488 0.930 . S
H483 C492 0.930 . S
H484 C497 0.929 . S
H485 C495 0.929 . S
H486 C490 0.929 . S
H487 C496 0.929 . S
C488 H482 0.930 . S
C488 C489 1.367 . S
C488 C496 1.378 . S
C489 C488 1.367 . S
C489 C497 1.433 . S
C490 H486 0.929 . S
C490 C492 1.378 . S
C490 C494 1.350 . S
C491 C494 1.463 . S
C491 C496 1.350 . S
C491 N499 1.427 . S
C492 H483 0.930 . S
C492 C490 1.378 . S
C492 C493 1.367 . S
C493 C492 1.367 . S
C493 C495 1.433 . S
C494 C490 1.350 . S
C494 C491 1.463 . S
C494 N498 1.427 . S
C495 H485 0.929 . S
C495 C493 1.433 . S
C495 N498 1.384 . S
C496 H487 0.929 . S
C496 C488 1.378 . S
C496 C491 1.350 . S
C497 H484 0.929 . S
C497 C489 1.433 . S
C497 N499 1.384 . S
N498 C494 1.427 . S
N498 C495 1.384 . S
N499 C491 1.427 . S
N499 C497 1.384 . S
H500 C506 0.930 . S
H501 C510 0.930 . S
H502 C515 0.929 . S
H503 C513 0.929 . S
H504 C508 0.929 . S
H505 C514 0.929 . S
C506 H500 0.930 . S
C506 C507 1.367 . S
C506 C514 1.378 . S
C507 C506 1.367 . S
C507 C515 1.433 . S
C508 H504 0.929 . S
C508 C510 1.378 . S
C508 C512 1.350 . S
C509 C512 1.463 1_556 S
C509 C514 1.350 . S
C509 N517 1.427 . S
C510 H501 0.930 . S
C510 C508 1.378 . S
C510 C511 1.367 . S
C511 C510 1.367 . S
C511 C513 1.433 . S
C512 C508 1.350 . S
C512 C509 1.463 1_554 S
C512 N516 1.427 . S
C513 H503 0.929 . S
C513 C511 1.433 . S
C513 N516 1.384 . S
C514 H505 0.929 . S
C514 C506 1.378 . S
C514 C509 1.350 . S
C515 H502 0.929 . S
C515 C507 1.433 . S
C515 N517 1.384 . S
N516 C512 1.427 . S
N516 C513 1.384 . S
N517 C509 1.427 . S
N517 C515 1.384 . S
H518 C524 0.930 . S
H519 C528 0.930 . S
H520 C533 0.929 . S
H521 C531 0.929 . S
H522 C526 0.929 . S
H523 C532 0.929 . S
C524 H518 0.930 . S
C524 C525 1.367 . S
C524 C532 1.378 . S
C525 C524 1.367 . S
C525 C533 1.433 . S
C526 H522 0.929 . S
C526 C528 1.378 . S
C526 C530 1.350 . S
C527 C530 1.463 1_556 S
C527 C532 1.350 . S
C527 N535 1.427 . S
C528 H519 0.930 . S
C528 C526 1.378 . S
C528 C529 1.367 . S
C529 C528 1.367 . S
C529 C531 1.433 . S
C530 C526 1.350 . S
C530 C527 1.463 1_554 S
C530 N534 1.427 . S
C531 H521 0.929 . S
C531 C529 1.433 . S
C531 N534 1.384 . S
C532 H523 0.929 . S
C532 C524 1.378 . S
C532 C527 1.350 . S
C533 H520 0.929 . S
C533 C525 1.433 . S
C533 N535 1.384 . S
N534 C530 1.427 . S
N534 C531 1.384 . S
N535 C527 1.427 . S
N535 C533 1.384 . S
H536 C542 0.930 . S
H537 C546 0.930 . S
H538 C551 0.929 . S
H539 C549 0.929 . S
H540 C544 0.929 . S
H541 C550 0.929 . S
C542 H536 0.930 . S
C542 C543 1.367 . S
C542 C550 1.378 . S
C543 C542 1.367 . S
C543 C551 1.433 . S
C544 H540 0.929 . S
C544 C546 1.378 . S
C544 C548 1.350 . S
C545 C548 1.463 . S
C545 C550 1.350 . S
C545 N553 1.427 . S
C546 H537 0.930 . S
C546 C544 1.378 . S
C546 C547 1.367 . S
C547 C546 1.367 . S
C547 C549 1.433 . S
C548 C544 1.350 . S
C548 C545 1.463 . S
C548 N552 1.427 . S
C549 H539 0.929 . S
C549 C547 1.433 . S
C549 N552 1.384 . S
C550 H541 0.929 . S
C550 C542 1.378 . S
C550 C545 1.350 . S
C551 H538 0.929 . S
C551 C543 1.433 . S
C551 N553 1.384 . S
N552 C548 1.427 . S
N552 C549 1.384 . S
N553 C545 1.427 . S
N553 C551 1.384 . S
H554 C560 0.930 . S
H555 C564 0.930 . S
H556 C569 0.929 . S
H557 C567 0.929 . S
H558 C562 0.929 . S
H559 C568 0.929 . S
C560 H554 0.930 . S
C560 C561 1.367 . S
C560 C568 1.378 . S
C561 C560 1.367 . S
C561 C569 1.433 . S
C562 H558 0.929 . S
C562 C564 1.378 . S
C562 C566 1.350 . S
C563 C566 1.463 . S
C563 C568 1.350 . S
C563 N571 1.427 . S
C564 H555 0.930 . S
C564 C562 1.378 . S
C564 C565 1.367 . S
C565 C564 1.367 . S
C565 C567 1.433 . S
C566 C562 1.350 . S
C566 C563 1.463 . S
C566 N570 1.427 . S
C567 H557 0.929 . S
C567 C565 1.433 . S
C567 N570 1.384 . S
C568 H559 0.929 . S
C568 C560 1.378 . S
C568 C563 1.350 . S
C569 H556 0.929 . S
C569 C561 1.433 . S
C569 N571 1.384 . S
N570 C566 1.427 . S
N570 C567 1.384 . S
N571 C563 1.427 . S
N571 C569 1.384 . S
H572 C578 0.930 . S
H573 C582 0.930 . S
H574 C587 0.929 . S
H575 C585 0.929 . S
H576 C580 0.929 . S
H577 C586 0.929 . S
C578 H572 0.930 . S
C578 C579 1.367 . S
C578 C586 1.378 . S
C579 C578 1.367 . S
C579 C587 1.433 . S
C580 H576 0.929 . S
C580 C582 1.378 . S
C580 C584 1.350 . S
C581 C584 1.463 . S
C581 C586 1.350 . S
C581 N589 1.427 . S
C582 H573 0.930 . S
C582 C580 1.378 . S
C582 C583 1.367 . S
C583 C582 1.367 . S
C583 C585 1.433 . S
C584 C580 1.350 . S
C584 C581 1.463 . S
C584 N588 1.427 . S
C585 H575 0.929 . S
C585 C583 1.433 . S
C585 N588 1.384 . S
C586 H577 0.929 . S
C586 C578 1.378 . S
C586 C581 1.350 . S
C587 H574 0.929 . S
C587 C579 1.433 . S
C587 N589 1.384 . S
N588 C584 1.427 . S
N588 C585 1.384 . S
N589 C581 1.427 . S
N589 C587 1.384 . S
H590 C596 0.930 . S
H591 C600 0.930 . S
H592 C605 0.929 . S
H593 C603 0.929 . S
H594 C598 0.929 . S
H595 C604 0.929 . S
C596 H590 0.930 . S
C596 C597 1.367 . S
C596 C604 1.378 . S
C597 C596 1.367 . S
C597 C605 1.433 . S
C598 H594 0.929 . S
C598 C600 1.378 . S
C598 C602 1.350 . S
C599 C602 1.463 . S
C599 C604 1.350 . S
C599 N607 1.427 . S
C600 H591 0.930 . S
C600 C598 1.378 . S
C600 C601 1.367 . S
C601 C600 1.367 . S
C601 C603 1.433 . S
C602 C598 1.350 . S
C602 C599 1.463 . S
C602 N606 1.427 . S
C603 H593 0.929 . S
C603 C601 1.433 . S
C603 N606 1.384 . S
C604 H595 0.929 . S
C604 C596 1.378 . S
C604 C599 1.350 . S
C605 H592 0.929 . S
C605 C597 1.433 . S
C605 N607 1.384 . S
N606 C602 1.427 . S
N606 C603 1.384 . S
N607 C599 1.427 . S
N607 C605 1.384 . S
C183 C73 1.238 . S
C187 C4 1.346 . S
C201 C50 1.236 . S
C205 C30 1.346 . S
C219 C52 1.339 . S
C223 C27 1.228 . S
C237 C70 1.343 . S
C241 C9 1.222 . S
C255 C161 1.223 . S
C259 C92 1.340 . S
C273 C118 1.342 . S
C277 C138 1.222 . S
C291 C115 1.244 . S
C295 C140 1.340 . S
C309 C97 1.224 . S
C313 C158 1.344 . S
C327 C6 0.974 . S
C331 C53 0.974 . S
C345 C71 0.992 . S
C349 C29 0.992 . S
C363 C94 0.984 . S
C367 C141 0.984 . S
C381 C159 0.973 . S
C385 C117 0.973 . S
C399 C31 1.119 . S
C403 C5 1.120 . S
C417 C51 1.121 . S
C421 C72 1.122 . S
C435 C119 1.125 . S
C439 C93 1.125 . S
C453 C160 1.122 . S
C457 C139 1.121 . S
C471 C8 1.709 . S
C475 C26 1.708 . S
C489 C48 1.707 . S
C493 C74 1.712 . S
C507 C96 1.708 . S
C511 C114 1.713 . S
C525 C162 1.711 . S
C529 C136 1.707 . S
C543 C7 1.630 . S
C547 C137 1.630 . S
C561 C28 1.637 . S
C565 C163 1.637 . S
C579 C95 1.635 . S
C583 C49 1.635 . S
C597 C116 1.639 . S
C601 C75 1.639 . S
