# Generated by pormake.
# Topology uky, (4)-cn, num edge types: 1
# Building blocks:
#     Node 0, Type 0, BuildingBlock: CEKHIL_clean_sbu_0, # of connection points: 4
#     Node 1, Type 0, BuildingBlock: CEKHIL_clean_sbu_0, # of connection points: 4
#     Node 2, Type 0, BuildingBlock: CEKHIL_clean_sbu_0, # of connection points: 4
#     Node 3, Type 0, BuildingBlock: CEKHIL_clean_sbu_0, # of connection points: 4
#     Node 4, Type 0, BuildingBlock: CEKHIL_clean_sbu_0, # of connection points: 4
#     Node 5, Type 0, BuildingBlock: CEKHIL_clean_sbu_0, # of connection points: 4
#     Node 6, Type 0, BuildingBlock: CEKHIL_clean_sbu_0, # of connection points: 4
#     Node 7, Type 0, BuildingBlock: CEKHIL_clean_sbu_0, # of connection points: 4
#     Node 8, Type 0, BuildingBlock: CEKHIL_clean_sbu_0, # of connection points: 4
#     Node 9, Type 0, BuildingBlock: CEKHIL_clean_sbu_0, # of connection points: 4
#     Node 10, Type 0, BuildingBlock: CEKHIL_clean_sbu_0, # of connection points: 4
#     Node 11, Type 0, BuildingBlock: CEKHIL_clean_sbu_0, # of connection points: 4
#     Node 12, Type 0, BuildingBlock: CEKHIL_clean_sbu_0, # of connection points: 4
#     Node 13, Type 0, BuildingBlock: CEKHIL_clean_sbu_0, # of connection points: 4
#     Node 14, Type 0, BuildingBlock: CEKHIL_clean_sbu_0, # of connection points: 4
#     Node 15, Type 0, BuildingBlock: CEKHIL_clean_sbu_0, # of connection points: 4
#     Node 16, Type 0, BuildingBlock: CEKHIL_clean_sbu_0, # of connection points: 4
#     Node 17, Type 0, BuildingBlock: CEKHIL_clean_sbu_0, # of connection points: 4
#     Node 18, Type 0, BuildingBlock: CEKHIL_clean_sbu_0, # of connection points: 4
#     Node 19, Type 0, BuildingBlock: CEKHIL_clean_sbu_0, # of connection points: 4
#     Node 20, Type 0, BuildingBlock: CEKHIL_clean_sbu_0, # of connection points: 4
#     Node 21, Type 0, BuildingBlock: CEKHIL_clean_sbu_0, # of connection points: 4
#     Node 22, Type 0, BuildingBlock: CEKHIL_clean_sbu_0, # of connection points: 4
#     Node 23, Type 0, BuildingBlock: CEKHIL_clean_sbu_0, # of connection points: 4
#     Node 24, Type 0, BuildingBlock: CEKHIL_clean_sbu_0, # of connection points: 4
#     Node 25, Type 0, BuildingBlock: CEKHIL_clean_sbu_0, # of connection points: 4
#     Node 26, Type 0, BuildingBlock: CEKHIL_clean_sbu_0, # of connection points: 4
#     Node 27, Type 0, BuildingBlock: CEKHIL_clean_sbu_0, # of connection points: 4
#     Node 28, Type 0, BuildingBlock: CEKHIL_clean_sbu_0, # of connection points: 4
#     Node 29, Type 0, BuildingBlock: CEKHIL_clean_sbu_0, # of connection points: 4
#     Node 30, Type 0, BuildingBlock: CEKHIL_clean_sbu_0, # of connection points: 4
#     Node 31, Type 0, BuildingBlock: CEKHIL_clean_sbu_0, # of connection points: 4
#     Node 32, Type 0, BuildingBlock: CEKHIL_clean_sbu_0, # of connection points: 4
#     Node 33, Type 0, BuildingBlock: CEKHIL_clean_sbu_0, # of connection points: 4
#     Node 34, Type 0, BuildingBlock: CEKHIL_clean_sbu_0, # of connection points: 4
#     Node 35, Type 0, BuildingBlock: CEKHIL_clean_sbu_0, # of connection points: 4
#     Node 36, Type 0, BuildingBlock: CEKHIL_clean_sbu_0, # of connection points: 4
#     Node 37, Type 0, BuildingBlock: CEKHIL_clean_sbu_0, # of connection points: 4
#     Node 38, Type 0, BuildingBlock: CEKHIL_clean_sbu_0, # of connection points: 4
#     Node 39, Type 0, BuildingBlock: CEKHIL_clean_sbu_0, # of connection points: 4
#     Node 40, Type 0, BuildingBlock: CEKHIL_clean_sbu_0, # of connection points: 4
#     Node 41, Type 0, BuildingBlock: CEKHIL_clean_sbu_0, # of connection points: 4
#     Node 42, Type 0, BuildingBlock: CEKHIL_clean_sbu_0, # of connection points: 4
#     Node 43, Type 0, BuildingBlock: CEKHIL_clean_sbu_0, # of connection points: 4
#     Node 44, Type 0, BuildingBlock: CEKHIL_clean_sbu_0, # of connection points: 4
#     Node 45, Type 0, BuildingBlock: CEKHIL_clean_sbu_0, # of connection points: 4
#     Node 46, Type 0, BuildingBlock: CEKHIL_clean_sbu_0, # of connection points: 4
#     Node 47, Type 0, BuildingBlock: CEKHIL_clean_sbu_0, # of connection points: 4
#     Edge 48, Type (0, 0), BuildingBlock: XIVTED_clean_linker_0, # of connection points: 2
#     Edge 49, Type (0, 0), BuildingBlock: XIVTED_clean_linker_0, # of connection points: 2
#     Edge 50, Type (0, 0), BuildingBlock: XIVTED_clean_linker_0, # of connection points: 2
#     Edge 51, Type (0, 0), BuildingBlock: XIVTED_clean_linker_0, # of connection points: 2
#     Edge 52, Type (0, 0), BuildingBlock: XIVTED_clean_linker_0, # of connection points: 2
#     Edge 53, Type (0, 0), BuildingBlock: XIVTED_clean_linker_0, # of connection points: 2
#     Edge 54, Type (0, 0), BuildingBlock: XIVTED_clean_linker_0, # of connection points: 2
#     Edge 55, Type (0, 0), BuildingBlock: XIVTED_clean_linker_0, # of connection points: 2
#     Edge 56, Type (0, 0), BuildingBlock: XIVTED_clean_linker_0, # of connection points: 2
#     Edge 57, Type (0, 0), BuildingBlock: XIVTED_clean_linker_0, # of connection points: 2
#     Edge 58, Type (0, 0), BuildingBlock: XIVTED_clean_linker_0, # of connection points: 2
#     Edge 59, Type (0, 0), BuildingBlock: XIVTED_clean_linker_0, # of connection points: 2
#     Edge 60, Type (0, 0), BuildingBlock: XIVTED_clean_linker_0, # of connection points: 2
#     Edge 61, Type (0, 0), BuildingBlock: XIVTED_clean_linker_0, # of connection points: 2
#     Edge 62, Type (0, 0), BuildingBlock: XIVTED_clean_linker_0, # of connection points: 2
#     Edge 63, Type (0, 0), BuildingBlock: XIVTED_clean_linker_0, # of connection points: 2
#     Edge 64, Type (0, 0), BuildingBlock: XIVTED_clean_linker_0, # of connection points: 2
#     Edge 65, Type (0, 0), BuildingBlock: XIVTED_clean_linker_0, # of connection points: 2
#     Edge 66, Type (0, 0), BuildingBlock: XIVTED_clean_linker_0, # of connection points: 2
#     Edge 67, Type (0, 0), BuildingBlock: XIVTED_clean_linker_0, # of connection points: 2
#     Edge 68, Type (0, 0), BuildingBlock: XIVTED_clean_linker_0, # of connection points: 2
#     Edge 69, Type (0, 0), BuildingBlock: XIVTED_clean_linker_0, # of connection points: 2
#     Edge 70, Type (0, 0), BuildingBlock: XIVTED_clean_linker_0, # of connection points: 2
#     Edge 71, Type (0, 0), BuildingBlock: XIVTED_clean_linker_0, # of connection points: 2
#     Edge 72, Type (0, 0), BuildingBlock: XIVTED_clean_linker_0, # of connection points: 2
#     Edge 73, Type (0, 0), BuildingBlock: XIVTED_clean_linker_0, # of connection points: 2
#     Edge 74, Type (0, 0), BuildingBlock: XIVTED_clean_linker_0, # of connection points: 2
#     Edge 75, Type (0, 0), BuildingBlock: XIVTED_clean_linker_0, # of connection points: 2
#     Edge 76, Type (0, 0), BuildingBlock: XIVTED_clean_linker_0, # of connection points: 2
#     Edge 77, Type (0, 0), BuildingBlock: XIVTED_clean_linker_0, # of connection points: 2
#     Edge 78, Type (0, 0), BuildingBlock: XIVTED_clean_linker_0, # of connection points: 2
#     Edge 79, Type (0, 0), BuildingBlock: XIVTED_clean_linker_0, # of connection points: 2
#     Edge 80, Type (0, 0), BuildingBlock: XIVTED_clean_linker_0, # of connection points: 2
#     Edge 81, Type (0, 0), BuildingBlock: XIVTED_clean_linker_0, # of connection points: 2
#     Edge 82, Type (0, 0), BuildingBlock: XIVTED_clean_linker_0, # of connection points: 2
#     Edge 83, Type (0, 0), BuildingBlock: XIVTED_clean_linker_0, # of connection points: 2
#     Edge 84, Type (0, 0), BuildingBlock: XIVTED_clean_linker_0, # of connection points: 2
#     Edge 85, Type (0, 0), BuildingBlock: XIVTED_clean_linker_0, # of connection points: 2
#     Edge 86, Type (0, 0), BuildingBlock: XIVTED_clean_linker_0, # of connection points: 2
#     Edge 87, Type (0, 0), BuildingBlock: XIVTED_clean_linker_0, # of connection points: 2
#     Edge 88, Type (0, 0), BuildingBlock: XIVTED_clean_linker_0, # of connection points: 2
#     Edge 89, Type (0, 0), BuildingBlock: XIVTED_clean_linker_0, # of connection points: 2
#     Edge 90, Type (0, 0), BuildingBlock: XIVTED_clean_linker_0, # of connection points: 2
#     Edge 91, Type (0, 0), BuildingBlock: XIVTED_clean_linker_0, # of connection points: 2
#     Edge 92, Type (0, 0), BuildingBlock: XIVTED_clean_linker_0, # of connection points: 2
#     Edge 93, Type (0, 0), BuildingBlock: XIVTED_clean_linker_0, # of connection points: 2
#     Edge 94, Type (0, 0), BuildingBlock: XIVTED_clean_linker_0, # of connection points: 2
#     Edge 95, Type (0, 0), BuildingBlock: XIVTED_clean_linker_0, # of connection points: 2
#     Edge 96, Type (0, 0), BuildingBlock: XIVTED_clean_linker_0, # of connection points: 2
#     Edge 97, Type (0, 0), BuildingBlock: XIVTED_clean_linker_0, # of connection points: 2
#     Edge 98, Type (0, 0), BuildingBlock: XIVTED_clean_linker_0, # of connection points: 2
#     Edge 99, Type (0, 0), BuildingBlock: XIVTED_clean_linker_0, # of connection points: 2
#     Edge 100, Type (0, 0), BuildingBlock: XIVTED_clean_linker_0, # of connection points: 2
#     Edge 101, Type (0, 0), BuildingBlock: XIVTED_clean_linker_0, # of connection points: 2
#     Edge 102, Type (0, 0), BuildingBlock: XIVTED_clean_linker_0, # of connection points: 2
#     Edge 103, Type (0, 0), BuildingBlock: XIVTED_clean_linker_0, # of connection points: 2
#     Edge 104, Type (0, 0), BuildingBlock: XIVTED_clean_linker_0, # of connection points: 2
#     Edge 105, Type (0, 0), BuildingBlock: XIVTED_clean_linker_0, # of connection points: 2
#     Edge 106, Type (0, 0), BuildingBlock: XIVTED_clean_linker_0, # of connection points: 2
#     Edge 107, Type (0, 0), BuildingBlock: XIVTED_clean_linker_0, # of connection points: 2
#     Edge 108, Type (0, 0), BuildingBlock: XIVTED_clean_linker_0, # of connection points: 2
#     Edge 109, Type (0, 0), BuildingBlock: XIVTED_clean_linker_0, # of connection points: 2
#     Edge 110, Type (0, 0), BuildingBlock: XIVTED_clean_linker_0, # of connection points: 2
#     Edge 111, Type (0, 0), BuildingBlock: XIVTED_clean_linker_0, # of connection points: 2
#     Edge 112, Type (0, 0), BuildingBlock: XIVTED_clean_linker_0, # of connection points: 2
#     Edge 113, Type (0, 0), BuildingBlock: XIVTED_clean_linker_0, # of connection points: 2
#     Edge 114, Type (0, 0), BuildingBlock: XIVTED_clean_linker_0, # of connection points: 2
#     Edge 115, Type (0, 0), BuildingBlock: XIVTED_clean_linker_0, # of connection points: 2
#     Edge 116, Type (0, 0), BuildingBlock: XIVTED_clean_linker_0, # of connection points: 2
#     Edge 117, Type (0, 0), BuildingBlock: XIVTED_clean_linker_0, # of connection points: 2
#     Edge 118, Type (0, 0), BuildingBlock: XIVTED_clean_linker_0, # of connection points: 2
#     Edge 119, Type (0, 0), BuildingBlock: XIVTED_clean_linker_0, # of connection points: 2
#     Edge 120, Type (0, 0), BuildingBlock: XIVTED_clean_linker_0, # of connection points: 2
#     Edge 121, Type (0, 0), BuildingBlock: XIVTED_clean_linker_0, # of connection points: 2
#     Edge 122, Type (0, 0), BuildingBlock: XIVTED_clean_linker_0, # of connection points: 2
#     Edge 123, Type (0, 0), BuildingBlock: XIVTED_clean_linker_0, # of connection points: 2
#     Edge 124, Type (0, 0), BuildingBlock: XIVTED_clean_linker_0, # of connection points: 2
#     Edge 125, Type (0, 0), BuildingBlock: XIVTED_clean_linker_0, # of connection points: 2
#     Edge 126, Type (0, 0), BuildingBlock: XIVTED_clean_linker_0, # of connection points: 2
#     Edge 127, Type (0, 0), BuildingBlock: XIVTED_clean_linker_0, # of connection points: 2
#     Edge 128, Type (0, 0), BuildingBlock: XIVTED_clean_linker_0, # of connection points: 2
#     Edge 129, Type (0, 0), BuildingBlock: XIVTED_clean_linker_0, # of connection points: 2
#     Edge 130, Type (0, 0), BuildingBlock: XIVTED_clean_linker_0, # of connection points: 2
#     Edge 131, Type (0, 0), BuildingBlock: XIVTED_clean_linker_0, # of connection points: 2
#     Edge 132, Type (0, 0), BuildingBlock: XIVTED_clean_linker_0, # of connection points: 2
#     Edge 133, Type (0, 0), BuildingBlock: XIVTED_clean_linker_0, # of connection points: 2
#     Edge 134, Type (0, 0), BuildingBlock: XIVTED_clean_linker_0, # of connection points: 2
#     Edge 135, Type (0, 0), BuildingBlock: XIVTED_clean_linker_0, # of connection points: 2
#     Edge 136, Type (0, 0), BuildingBlock: XIVTED_clean_linker_0, # of connection points: 2
#     Edge 137, Type (0, 0), BuildingBlock: XIVTED_clean_linker_0, # of connection points: 2
#     Edge 138, Type (0, 0), BuildingBlock: XIVTED_clean_linker_0, # of connection points: 2
#     Edge 139, Type (0, 0), BuildingBlock: XIVTED_clean_linker_0, # of connection points: 2
#     Edge 140, Type (0, 0), BuildingBlock: XIVTED_clean_linker_0, # of connection points: 2
#     Edge 141, Type (0, 0), BuildingBlock: XIVTED_clean_linker_0, # of connection points: 2
#     Edge 142, Type (0, 0), BuildingBlock: XIVTED_clean_linker_0, # of connection points: 2
#     Edge 143, Type (0, 0), BuildingBlock: XIVTED_clean_linker_0, # of connection points: 2
# Relax obj value: 0.313
# Max RMSD: 0.250
# Mean RMSD: 0.250
data_MOF--net-uky--node1-CEKHIL_clean_sbu_0--edge1-XIVTED_clean_linker_0
_symmetry_space_group_name_H-M    P1
_symmetry_Int_Tables_number       1
_symmetry_cell_setting            triclinic
loop_
_symmetry_equiv_pos_as_xyz
'x, y, z'
_cell_length_a     60.649123
_cell_length_b     60.658541
_cell_length_c     60.754463
_cell_angle_alpha  90.017931
_cell_angle_beta   90.22995
_cell_angle_gamma 90.155239
loop_
_atom_site_label
_atom_site_type_symbol
_atom_site_fract_x
_atom_site_fract_y
_atom_site_fract_z
_atom_type_partial_charge
Co0 Co 0.21857 0.19956 0.3779 0.0
O1 O 0.19107 0.19672 0.3927 0.0
O2 O 0.20749 0.16965 0.37465 0.0
C3 C 0.20978 0.23093 0.36019 0.0
O4 O 0.24667 0.19729 0.35969 0.0
Co5 Co 0.24833 0.24041 0.38782 0.0
O6 O 0.26513 0.22952 0.36234 0.0
C7 C 0.24748 0.20296 0.41893 0.0
C8 C 0.19038 0.17663 0.38548 0.0
C9 C 0.2625 0.21035 0.35415 0.0
O10 O 0.23487 0.19182 0.40593 0.0
O11 O 0.25348 0.22285 0.41519 0.0
O12 O 0.20357 0.21198 0.35244 0.0
O13 O 0.21923 0.23049 0.3793 0.0
Co14 Co 0.05526 0.97035 0.62121 0.0
O15 O 0.06805 0.94515 0.63496 0.0
O16 O 0.08645 0.96967 0.61486 0.0
C17 C 0.02621 0.95252 0.60638 0.0
O18 O 0.04735 -0.00236 0.60342 0.0
Co19 Co 0.00884 0.98725 0.63455 0.0
O20 O 0.01134 0.00537 0.60766 0.0
C21 C 0.04721 -0.00407 0.66346 0.0
C22 C 0.08646 0.95151 0.62619 0.0
C23 C 0.02979 0.00833 0.59817 0.0
O24 O 0.06047 0.988 0.649 0.0
O25 O 0.02622 -0.00405 0.66124 0.0
O26 O 0.04524 0.9522 0.59668 0.0
O27 O 0.02585 0.96181 0.62553 0.0
Co28 Co 0.26997 0.78759 0.87559 0.0
O29 O 0.29737 0.78533 0.89077 0.0
O30 O 0.28492 0.81599 0.87515 0.0
C31 C 0.27379 0.75707 0.85526 0.0
O32 O 0.24245 0.79486 0.85759 0.0
Co33 Co 0.23512 0.75115 0.8848 0.0
O34 O 0.21918 0.76588 0.8606 0.0
C35 C 0.24526 0.78379 0.9188 0.0
C36 C 0.30033 0.80598 0.88628 0.0
C37 C 0.22466 0.78439 0.85234 0.0
O38 O 0.25551 0.7953 0.90433 0.0
O39 O 0.23726 0.76467 0.91482 0.0
O40 O 0.2829 0.77547 0.84921 0.0
O41 O 0.26488 0.75708 0.8746 0.0
Co42 Co 0.42961 0.02951 0.10888 0.0
O43 O 0.41801 0.0586 0.10961 0.0
O44 O 0.39825 0.02848 0.10244 0.0
C45 C 0.45933 0.03822 0.08874 0.0
O46 O 0.43686 -0.00296 0.10518 0.0
Co47 Co 0.47526 0.01985 0.13042 0.0
O48 O 0.47278 0.99216 0.11324 0.0
C49 C 0.43663 0.02867 0.15808 0.0
C50 C 0.39923 0.04983 0.1043 0.0
C51 C 0.45457 0.98534 0.10516 0.0
O52 O 0.42372 0.02589 0.14145 0.0
O53 O 0.45766 0.02925 0.1566 0.0
O54 O 0.44045 0.03478 0.07914 0.0
O55 O 0.45909 0.03825 0.10998 0.0
Co56 Co 0.22968 0.79494 0.12121 0.0
O57 O 0.20207 0.79331 0.10639 0.0
O58 O 0.21511 0.82354 0.12228 0.0
C59 C 0.22462 0.76396 0.14076 0.0
O60 O 0.2575 0.80161 0.13914 0.0
Co61 Co 0.26362 0.75797 0.11207 0.0
O62 O 0.27985 0.77205 0.13646 0.0
C63 C 0.25445 0.79103 0.0781 0.0
C64 C 0.1992 0.8138 0.11153 0.0
C65 C 0.27496 0.79076 0.14457 0.0
O66 O 0.24407 0.80266 0.09237 0.0
O67 O 0.26218 0.77187 0.08224 0.0
O68 O 0.21662 0.78259 0.14748 0.0
O69 O 0.23375 0.76425 0.12154 0.0
Co70 Co 0.44689 0.97674 0.35321 0.0
O71 O 0.44574 0.94991 0.33692 0.0
O72 O 0.4182 0.96303 0.35683 0.0
C73 C 0.47949 0.96897 0.36925 0.0
O74 O 0.44278 0.00335 0.37333 0.0
Co75 Co 0.48417 0.01042 0.34462 0.0
O76 O 0.47283 0.0251 0.37118 0.0
C77 C 0.44673 0.00731 0.31352 0.0
C78 C 0.42621 0.94705 0.34502 0.0
C79 C 0.45434 0.02004 0.37966 0.0
O80 O 0.43685 0.9936 0.32631 0.0
O81 O 0.46612 0.01482 0.31732 0.0
O82 O 0.46119 0.9615 0.37727 0.0
O83 O 0.47784 0.97974 0.35091 0.0
Co84 Co 0.28137 0.19375 0.62256 0.0
O85 O 0.31253 0.19212 0.61911 0.0
O86 O 0.29131 0.16419 0.62968 0.0
C87 C 0.28196 0.22538 0.6416 0.0
O88 O 0.24874 0.19046 0.62958 0.0
Co89 Co 0.25575 0.23285 0.60143 0.0
O90 O 0.23225 0.22271 0.6215 0.0
C91 C 0.27182 0.19674 0.5736 0.0
C92 C 0.31098 0.17197 0.62599 0.0
C93 C 0.23223 0.20375 0.63053 0.0
O94 O 0.27677 0.18527 0.5907 0.0
O95 O 0.26504 0.21666 0.57434 0.0
O96 O 0.28562 0.20675 0.65141 0.0
O97 O 0.28011 0.22455 0.6204 0.0
Co98 Co 0.05332 0.02566 0.86805 0.0
O99 O 0.05989 0.05584 0.86229 0.0
O100 O 0.08422 0.03122 0.87434 0.0
C101 C 0.02212 0.03277 0.88652 0.0
O102 O 0.05178 0.99346 0.87733 0.0
Co103 Co 0.01076 0.0043 0.84911 0.0
O104 O 0.01786 0.98022 0.86994 0.0
C105 C 0.04741 0.01623 0.81987 0.0
C106 C 0.07975 0.05144 0.86882 0.0
C107 C 0.03677 0.9785 0.87901 0.0
O108 O 0.06044 0.01795 0.83651 0.0
O109 O 0.02661 0.0132 0.82158 0.0
O110 O 0.0411 0.03391 0.89647 0.0
O111 O 0.02276 0.02894 0.86562 0.0
Co112 Co 0.37252 0.2069 0.18915 0.0
O113 O 0.37844 0.17662 0.18297 0.0
O114 O 0.36519 0.20068 0.15875 0.0
C115 C 0.35442 0.1998 0.22057 0.0
O116 O 0.36249 0.23884 0.19 0.0
Co117 Co 0.39033 0.23014 0.23109 0.0
O118 O 0.36764 0.25236 0.22408 0.0
C119 C 0.4193 0.22496 0.19235 0.0
C120 C 0.37022 0.18042 0.16359 0.0
C121 C 0.35942 0.25367 0.20482 0.0
O122 O 0.40372 0.2157 0.1812 0.0
O123 O 0.4174 0.23103 0.21241 0.0
O124 O 0.34447 0.1982 0.2017 0.0
O125 O 0.3753 0.20418 0.21991 0.0
Co126 Co 0.01707 0.12171 0.433 0.0
O127 O 0.04683 0.13014 0.42764 0.0
O128 O 0.02388 0.11712 0.4021 0.0
C129 C 0.02425 0.10208 0.46346 0.0
O130 O 0.98552 0.11008 0.43367 0.0
Co131 Co 0.99465 0.13848 0.47585 0.0
O132 O 0.97186 0.11657 0.46752 0.0
C133 C 0.00525 0.16925 0.44022 0.0
C134 C 0.04346 0.1242 0.40745 0.0
C135 C 0.9707 0.10747 0.44862 0.0
O136 O 0.0073 0.15297 0.42684 0.0
O137 O 0.00267 0.16686 0.46097 0.0
O138 O 0.02693 0.09331 0.44416 0.0
O139 O 0.01956 0.12284 0.46362 0.0
Co140 Co 0.12628 0.77499 0.67948 0.0
O141 O 0.11844 0.80524 0.68254 0.0
O142 O 0.13203 0.79036 0.65212 0.0
C143 C 0.1449 0.77438 0.71156 0.0
O144 O 0.13827 0.74485 0.67084 0.0
Co145 Co 0.11084 0.73995 0.71265 0.0
O146 O 0.13403 0.72167 0.69936 0.0
C147 C 0.0794 0.75718 0.67995 0.0
C148 C 0.1258 0.8079 0.66272 0.0
C149 C 0.1423 0.72656 0.68078 0.0
O150 O 0.09499 0.76768 0.67013 0.0
O151 O 0.08214 0.74623 0.69772 0.0
O152 O 0.15429 0.78122 0.69366 0.0
O153 O 0.12432 0.76892 0.7098 0.0
Co154 Co 0.48088 0.85942 0.95384 0.0
O155 O 0.45469 0.84207 0.95525 0.0
O156 O 0.46636 0.85919 0.92524 0.0
C157 C 0.47379 0.87859 0.98466 0.0
O158 O 0.50686 0.87981 0.94705 0.0
Co159 Co 0.51563 0.8548 0.99111 0.0
O160 O 0.52903 0.88076 0.97689 0.0
C161 C 0.51138 0.81987 0.95765 0.0
C162 C 0.45134 0.84722 0.93484 0.0
C163 C 0.52354 0.88754 0.95781 0.0
O164 O 0.49825 0.83211 0.94635 0.0
O165 O 0.51883 0.82534 0.97663 0.0
O166 O 0.46523 0.8844 0.96596 0.0
O167 O 0.48489 0.86041 0.98457 0.0
Co168 Co 0.37595 0.76482 0.3124 0.0
O169 O 0.39487 0.78985 0.3138 0.0
O170 O 0.37601 0.77656 0.34214 0.0
C171 C 0.35819 0.77588 0.2817 0.0
O172 O 0.35397 0.73964 0.31641 0.0
Co173 Co 0.37909 0.73344 0.27215 0.0
O174 O 0.35287 0.71947 0.28521 0.0
C175 C 0.41363 0.73244 0.30649 0.0
C176 C 0.38925 0.79151 0.33427 0.0
C177 C 0.34597 0.72401 0.30444 0.0
O178 O 0.40216 0.74523 0.31887 0.0
O179 O 0.40792 0.72716 0.28688 0.0
O180 O 0.3521 0.78296 0.30088 0.0
O181 O 0.37567 0.76372 0.28153 0.0
Co182 Co 0.46547 0.12011 0.54671 0.0
O183 O 0.43954 0.13249 0.55943 0.0
O184 O 0.465 0.11356 0.57785 0.0
C185 C 0.44851 0.10463 0.51749 0.0
O186 O 0.49363 0.1038 0.53894 0.0
Co187 Co 0.48182 0.13433 0.50029 0.0
O188 O 0.50151 0.10858 0.50308 0.0
C189 C 0.49018 0.1631 0.53881 0.0
C190 C 0.44628 0.12392 0.57781 0.0
C191 C 0.50486 0.09929 0.52158 0.0
O192 O 0.48202 0.14868 0.55204 0.0
O193 O 0.49044 0.16085 0.51787 0.0
O194 O 0.44851 0.09471 0.53643 0.0
O195 O 0.45687 0.12423 0.51735 0.0
Co196 Co 0.11211 0.21941 0.78758 0.0
O197 O 0.10639 0.1885 0.78948 0.0
O198 O 0.11684 0.20956 0.81754 0.0
C199 C 0.13277 0.21622 0.75712 0.0
O200 O 0.12136 0.25145 0.7914 0.0
Co201 Co 0.09656 0.24671 0.74758 0.0
O202 O 0.11663 0.26959 0.75948 0.0
C203 C 0.06439 0.23007 0.77977 0.0
C204 C 0.11241 0.18999 0.80992 0.0
C205 C 0.12419 0.26845 0.77904 0.0
O206 O 0.08003 0.22601 0.79353 0.0
O207 O 0.06778 0.23623 0.75993 0.0
O208 O 0.14134 0.213 0.77646 0.0
O209 O 0.11182 0.22014 0.75666 0.0
Co210 Co 0.02423 0.86705 0.04158 0.0
O211 O 0.05057 0.85064 0.04637 0.0
O212 O 0.03475 0.87201 0.07142 0.0
C213 C 0.03435 0.8814 0.00904 0.0
O214 O -0.00275 0.8872 0.04165 0.0
Co215 Co 0.99423 0.85479 0.00176 0.0
O216 O 0.97893 0.88231 0.00964 0.0
C217 C -0.00499 0.82608 0.04081 0.0
C218 C 0.05078 0.85887 0.06604 0.0
C219 C 0.98194 0.8924 0.0278 0.0
O220 O 0.00652 0.84053 0.0513 0.0
O221 O 0.9896 0.82804 0.02052 0.0
O222 O 0.04089 0.89037 0.02734 0.0
O223 O 0.02378 0.86295 0.01095 0.0
Co224 Co 0.20164 0.37295 0.20929 0.0
O225 O 0.19616 0.38254 0.17985 0.0
O226 O 0.17133 0.36655 0.20142 0.0
C227 C 0.23338 0.3558 0.20118 0.0
O228 O 0.20196 0.35928 0.23992 0.0
Co229 Co 0.2433 0.38863 0.23496 0.0
O230 O 0.23546 0.3644 0.25518 0.0
C231 C 0.20418 0.41758 0.23217 0.0
C232 C 0.17659 0.37423 0.18215 0.0
C233 C 0.21637 0.3556 0.2551 0.0
O234 O 0.19325 0.40284 0.22143 0.0
O235 O 0.22432 0.41535 0.23808 0.0
O236 O 0.21458 0.34613 0.19775 0.0
O237 O 0.23247 0.37607 0.20772 0.0
Co238 Co 0.67204 0.12176 0.76321 0.0
O239 O 0.66646 0.10992 0.79172 0.0
O240 O 0.64118 0.12563 0.77033 0.0
C241 C 0.70235 0.14081 0.77343 0.0
O242 O 0.67213 0.13698 0.73336 0.0
Co243 Co 0.71488 0.10995 0.73844 0.0
O244 O 0.7057 0.1337 0.7181 0.0
C245 C 0.68033 0.07646 0.74472 0.0
C246 C 0.64633 0.11651 0.78901 0.0
C247 C 0.68636 0.14185 0.71847 0.0
O248 O 0.66646 0.09155 0.75006 0.0
O249 O 0.70085 0.08017 0.74163 0.0
O250 O 0.68284 0.14902 0.77632 0.0
O251 O 0.7029 0.12085 0.76594 0.0
Co252 Co 0.12577 0.44637 0.02434 0.0
O253 O 0.12762 0.43794 0.0545 0.0
O254 O 0.11909 0.4152 0.02703 0.0
C255 C 0.10613 0.47704 0.03056 0.0
O256 O 0.12076 0.45003 0.99148 0.0
Co257 Co 0.14738 0.49002 0.00868 0.0
O258 O 0.1287 0.48507 0.98227 0.0
C259 C 0.17501 0.45217 0.02079 0.0
C260 C 0.12187 0.41839 0.04804 0.0
C261 C 0.12018 0.46634 0.97791 0.0
O262 O 0.15802 0.4395 0.02019 0.0
O263 O 0.17395 0.47315 0.01892 0.0
O264 O 0.0964 0.45798 0.02943 0.0
O265 O 0.12743 0.47674 0.02977 0.0
Co266 Co 0.791 0.87136 0.26513 0.0
O267 O 0.79142 0.8844 0.29355 0.0
O268 O 0.82005 0.86761 0.27851 0.0
C269 C 0.75885 0.85361 0.27031 0.0
O270 O 0.79536 0.85516 0.23601 0.0
Co271 Co 0.75329 0.88497 0.23339 0.0
O272 O 0.7657 0.86161 0.21447 0.0
C273 C 0.78707 0.91673 0.24726 0.0
C274 C 0.81167 0.87798 0.29529 0.0
C275 C 0.78392 0.8519 0.21835 0.0
O276 O 0.79984 0.90064 0.25224 0.0
O277 O 0.76685 0.91403 0.2418 0.0
O278 O 0.77726 0.84501 0.27704 0.0
O279 O 0.7603 0.87327 0.26224 0.0
Co280 Co 0.86932 0.05798 0.01966 0.0
O281 O 0.85983 0.06302 0.04907 0.0
O282 O 0.87376 0.08879 0.02705 0.0
C283 C 0.88881 0.02738 0.02716 0.0
O284 O 0.88209 0.05806 0.98874 0.0
Co285 Co 0.85403 0.01552 -0.00466 0.0
O286 O 0.87645 0.02461 0.97355 0.0
C287 C 0.8223 0.05025 0.00618 0.0
C288 C 0.86592 0.08329 0.04618 0.0
C289 C 0.88537 0.04367 0.97352 0.0
O290 O 0.83826 0.064 0.0089 0.0
O291 O 0.82523 0.02961 0.00309 0.0
O292 O 0.89746 0.04672 0.0304 0.0
O293 O 0.86823 0.02724 0.02152 0.0
Co294 Co 0.30338 0.62068 0.70494 0.0
O295 O 0.3177 0.61225 0.67841 0.0
O296 O 0.33463 0.62695 0.70751 0.0
C297 C 0.27521 0.63815 0.68829 0.0
O298 O 0.29368 0.63253 0.73455 0.0
Co299 Co 0.25626 0.6038 0.71595 0.0
O300 O 0.25756 0.62606 0.73985 0.0
C301 C 0.29428 0.57362 0.71692 0.0
C302 C 0.33571 0.61937 0.68753 0.0
C303 C 0.27572 0.63512 0.74545 0.0
O304 O 0.30773 0.59003 0.7171 0.0
O305 O 0.27346 0.57564 0.71412 0.0
O306 O 0.29393 0.64822 0.69123 0.0
O307 O 0.27473 0.61766 0.69397 0.0
Co308 Co 0.12342 0.54122 0.46879 0.0
O309 O 0.13442 0.54406 0.43956 0.0
O310 O 0.11777 0.57077 0.458 0.0
C311 C 0.10566 0.50935 0.46236 0.0
O312 O 0.10825 0.54335 0.4986 0.0
Co313 Co 0.13811 0.50182 0.49784 0.0
O314 O 0.1127 0.51076 0.51579 0.0
C315 C 0.16761 0.54022 0.49315 0.0
C316 C 0.12596 0.56366 0.43955 0.0
C317 C 0.1037 0.52962 0.51413 0.0
O318 O 0.153 0.55025 0.48147 0.0
O319 O 0.16519 0.52055 0.50036 0.0
O320 O 0.09683 0.52804 0.45712 0.0
O321 O 0.1258 0.51018 0.46955 0.0
Co322 Co 0.36868 0.44258 0.96931 0.0
O323 O 0.35302 0.43296 0.94365 0.0
O324 O 0.376 0.41226 0.96341 0.0
C325 C 0.38055 0.47458 0.95474 0.0
O326 O 0.38876 0.4467 -0.0042 0.0
Co327 Co 0.35692 0.48544 -0.00533 0.0
O328 O 0.38483 0.48037 0.01072 0.0
C329 C 0.32943 0.44528 -0.00012 0.0
C330 C 0.36314 0.41432 0.94641 0.0
C331 C 0.39458 0.46187 0.00942 0.0
O332 O 0.34288 0.43372 0.98832 0.0
O333 O 0.33163 0.46602 0.00311 0.0
O334 O 0.39094 0.45632 0.9508 0.0
O335 O 0.3626 0.47275 0.96598 0.0
Co336 Co 0.71394 0.68805 0.86326 0.0
O337 O 0.68322 0.68337 0.86826 0.0
O338 O 0.70674 0.6573 0.85811 0.0
C339 C 0.70924 0.71889 0.84325 0.0
O340 O 0.74647 0.68754 0.85497 0.0
Co341 Co 0.73678 0.73016 0.8815 0.0
O342 O 0.76147 0.7207 0.86251 0.0
C343 C 0.72266 0.69503 0.91163 0.0
C344 C 0.68662 0.66304 0.86274 0.0
C345 C 0.76245 0.70155 0.85393 0.0
O346 O 0.72053 0.68167 0.89532 0.0
O347 O 0.72665 0.71562 0.90933 0.0
O348 O 0.70718 0.69965 0.83406 0.0
O349 O 0.71231 0.7188 0.86429 0.0
Co350 Co 0.55109 0.46136 0.1301 0.0
O351 O 0.56252 0.43393 0.14007 0.0
O352 O 0.58282 0.46108 0.12605 0.0
C353 C 0.52286 0.44724 0.11064 0.0
O354 O 0.54397 0.49141 0.11685 0.0
Co355 Co 0.50409 0.47553 0.14491 0.0
O356 O 0.50704 0.4949 0.11879 0.0
C357 C 0.54072 0.4746 0.17669 0.0
C358 C 0.58167 0.44125 0.13413 0.0
C359 C 0.52565 0.50025 0.11068 0.0
O360 O 0.55463 0.47381 0.16079 0.0
O361 O 0.51983 0.4733 0.17386 0.0
O362 O 0.5425 0.44792 0.1022 0.0
O363 O 0.52161 0.45274 0.13115 0.0
Co364 Co 0.77929 0.30539 0.3759 0.0
O365 O 0.80814 0.31749 0.37981 0.0
O366 O 0.779 0.33633 0.36804 0.0
C367 C 0.79042 0.2753 0.35741 0.0
O368 O 0.74742 0.29804 0.36846 0.0
Co369 Co 0.76635 0.26022 0.39617 0.0
O370 O 0.74101 0.26222 0.3755 0.0
C371 C 0.7727 0.29924 0.42456 0.0
C372 C 0.8 0.33577 0.37234 0.0
C373 C 0.7355 0.28051 0.36679 0.0
O374 O 0.77204 0.31204 0.40768 0.0
O375 O 0.77294 0.27818 0.42318 0.0
O376 O 0.78791 0.29395 0.34727 0.0
O377 O 0.78787 0.27582 0.37852 0.0
Co378 Co 0.93523 0.51078 0.61908 0.0
O379 O 0.93832 0.53773 0.63473 0.0
O380 O 0.90738 0.52665 0.61862 0.0
C381 C 0.96639 0.51573 0.59967 0.0
O382 O 0.92684 0.48406 0.6003 0.0
Co383 Co 0.97108 0.47479 0.62481 0.0
O384 O 0.95534 0.46025 0.60042 0.0
C385 C 0.93922 0.48318 0.66043 0.0
C386 C 0.91803 0.54184 0.62952 0.0
C387 C 0.93646 0.46638 0.59357 0.0
O388 O 0.92757 0.49548 0.64764 0.0
O389 O 0.95774 0.47489 0.65479 0.0
O390 O 0.948 0.52442 0.59306 0.0
O391 O 0.96565 0.50551 0.61831 0.0
Co392 Co 0.70789 0.3083 0.61734 0.0
O393 O 0.68245 0.31926 0.60217 0.0
O394 O 0.70382 0.33896 0.62461 0.0
C395 C 0.69148 0.27734 0.62977 0.0
O396 O 0.73463 0.30276 0.63686 0.0
Co397 Co 0.73034 0.2638 0.60627 0.0
O398 O 0.74146 0.26642 0.63687 0.0
C399 C 0.7384 0.3032 0.57826 0.0
C400 C 0.68631 0.33772 0.61229 0.0
C401 C 0.74356 0.28552 0.6453 0.0
O402 O 0.727 0.3156 0.59111 0.0
O403 O 0.74086 0.28243 0.58116 0.0
O404 O 0.68895 0.2959 0.64008 0.0
O405 O 0.70252 0.27834 0.61165 0.0
Co406 Co 0.95682 0.47523 0.86461 0.0
O407 O 0.95925 0.44614 0.85301 0.0
O408 O 0.92928 0.4593 0.86896 0.0
C409 C 0.98915 0.47388 0.88272 0.0
O410 O 0.94939 0.50424 0.87988 0.0
Co411 Co 0.99091 0.51048 0.85066 0.0
O412 O 0.97738 0.52808 0.87435 0.0
C413 C 0.9584 0.4937 0.81891 0.0
C414 C 0.93943 0.44265 0.86004 0.0
C415 C 0.95939 0.52266 0.88367 0.0
O416 O 0.94677 0.48616 0.83487 0.0
O417 O 0.97768 0.50189 0.82159 0.0
O418 O 0.97136 0.46578 0.89136 0.0
O419 O 0.98724 0.48111 0.86277 0.0
Co420 Co 0.7698 0.68873 0.10982 0.0
O421 O 0.79615 0.67838 0.09598 0.0
O422 O 0.77398 0.65798 0.11677 0.0
C423 C 0.78468 0.71962 0.12426 0.0
O424 O 0.7421 0.69382 0.12795 0.0
Co425 Co 0.74783 0.733 0.09642 0.0
O426 O 0.73023 0.72864 0.12333 0.0
C427 C 0.74226 0.69365 0.06812 0.0
C428 C 0.79206 0.65966 0.10549 0.0
C429 C 0.72951 0.71008 0.13306 0.0
O430 O 0.75228 0.68141 0.08229 0.0
O431 O 0.73994 0.71449 0.0703 0.0
O432 O 0.78713 0.70076 0.13402 0.0
O433 O 0.77515 0.71894 0.10517 0.0
Co434 Co 0.54772 0.53478 0.37286 0.0
O435 O 0.56099 0.56065 0.36064 0.0
O436 O 0.57802 0.53664 0.38251 0.0
C437 C 0.51676 0.55143 0.38445 0.0
O438 O 0.53933 0.50708 0.38976 0.0
Co439 Co 0.50314 0.51568 0.35577 0.0
O440 O 0.5044 0.49691 0.38232 0.0
C441 C 0.54423 0.50834 0.33063 0.0
C442 C 0.57855 0.55497 0.37149 0.0
C443 C 0.52221 0.49502 0.3933 0.0
O444 O 0.55609 0.51732 0.34582 0.0
O445 O 0.52317 0.50728 0.33112 0.0
O446 O 0.53471 0.55249 0.39612 0.0
O447 O 0.51854 0.54198 0.36548 0.0
Co448 Co 0.88076 0.71731 0.69849 0.0
O449 O 0.89554 0.69053 0.69143 0.0
O450 O 0.87529 0.71002 0.6679 0.0
C451 C 0.86545 0.70512 0.72987 0.0
O452 O 0.8623 0.74522 0.70038 0.0
Co453 Co 0.89371 0.74339 0.74043 0.0
O454 O 0.86672 0.7604 0.7339 0.0
C455 C 0.923 0.74451 0.70188 0.0
C456 C 0.88723 0.69269 0.67186 0.0
C457 C 0.85712 0.7594 0.71525 0.0
O458 O 0.90825 0.7343 0.6905 0.0
O459 O 0.92095 0.74856 0.72246 0.0
O460 O 0.8564 0.70086 0.71096 0.0
O461 O 0.8845 0.71482 0.72918 0.0
Co462 Co 0.52337 0.61192 0.94341 0.0
O463 O 0.55473 0.61429 0.94106 0.0
O464 O 0.53207 0.60691 0.9132 0.0
C465 C 0.52399 0.59092 0.97379 0.0
O466 O 0.49048 0.60643 0.93993 0.0
Co467 Co 0.49856 0.63037 0.98388 0.0
O468 O 0.47409 0.61178 0.9726 0.0
C469 C 0.51758 0.66061 0.95123 0.0
C470 C 0.55214 0.60968 0.92037 0.0
C471 C 0.47388 0.6045 0.95292 0.0
O472 O 0.52028 0.64458 0.93766 0.0
O473 O 0.51122 0.65805 0.97111 0.0
O474 O 0.52633 0.58194 0.95452 0.0
O475 O 0.52292 0.61217 0.9742 0.0
Co476 Co 0.61904 0.26853 0.20512 0.0
O477 O 0.60854 0.2982 0.20595 0.0
O478 O 0.62508 0.28288 0.17729 0.0
C479 C 0.63627 0.27059 0.23792 0.0
O480 O 0.63373 0.23904 0.19893 0.0
Co481 Co 0.60401 0.23439 0.23981 0.0
O482 O 0.62759 0.21603 0.22734 0.0
C483 C 0.57484 0.24449 0.20222 0.0
C484 C 0.61688 0.30041 0.18646 0.0
C485 C 0.6369 0.22078 0.20922 0.0
O486 O 0.5894 0.25762 0.19413 0.0
O487 O 0.57717 0.23449 0.22061 0.0
O488 O 0.64559 0.27789 0.22019 0.0
O489 O 0.61613 0.26373 0.23576 0.0
Co490 Co 0.9566 0.3693 0.42782 0.0
O491 O 0.93032 0.35897 0.41373 0.0
O492 O 0.95703 0.37766 0.39709 0.0
C493 C 0.93924 0.38412 0.45704 0.0
O494 O 0.98551 0.38368 0.43712 0.0
Co495 Co 0.97108 0.35297 0.47417 0.0
O496 O 0.99246 0.37759 0.47297 0.0
C497 C 0.97907 0.32523 0.43472 0.0
C498 C 0.93763 0.36856 0.39612 0.0
C499 C -0.00318 0.38704 0.45479 0.0
O500 O 0.97169 0.34025 0.42167 0.0
O501 O 0.97912 0.3269 0.45572 0.0
O502 O 0.94074 0.39495 0.4387 0.0
O503 O 0.94686 0.36424 0.45672 0.0
Co504 Co 0.86521 0.27152 0.80231 0.0
O505 O 0.8828 0.29752 0.80473 0.0
O506 O 0.86697 0.2805 0.83296 0.0
C507 C 0.84462 0.28339 0.77398 0.0
O508 O 0.84487 0.24476 0.80531 0.0
Co509 Co 0.86739 0.24381 0.75921 0.0
O510 O 0.84057 0.23004 0.77141 0.0
C511 C 0.90416 0.24205 0.79115 0.0
C512 C 0.87898 0.29673 0.82566 0.0
C513 C 0.83529 0.23159 0.79161 0.0
O514 O 0.89288 0.25311 0.80526 0.0
O515 O 0.89738 0.23796 0.77159 0.0
O516 O 0.83949 0.28886 0.79396 0.0
O517 O 0.86289 0.27279 0.77165 0.0
Co518 Co 0.96271 0.62279 0.0549 0.0
O519 O 0.93309 0.63088 0.06165 0.0
O520 O 0.95636 0.61506 0.08515 0.0
C521 C 0.95438 0.60616 0.02283 0.0
O522 O 0.99396 0.61067 0.05327 0.0
Co523 Co 0.98637 0.64129 0.0137 0.0
O524 O 0.00785 0.61758 0.01969 0.0
C525 C 0.97899 0.66996 0.05211 0.0
C526 C 0.93674 0.62258 0.08098 0.0
C527 C 0.0086 0.60784 0.03824 0.0
O528 O 0.97296 0.6533 0.06373 0.0
O529 O 0.98344 0.66886 0.03158 0.0
O530 O 0.95218 0.59572 0.04134 0.0
O531 O 0.95991 0.62673 0.02434 0.0
Co532 Co 0.62038 0.71507 0.30132 0.0
O533 O 0.61926 0.68426 0.30721 0.0
O534 O 0.62747 0.70995 0.33207 0.0
C535 C 0.64013 0.71163 0.27034 0.0
O536 O 0.62484 0.74827 0.30032 0.0
Co537 Co 0.59855 0.73376 0.259 0.0
O538 O 0.6174 0.75962 0.26584 0.0
C539 C 0.57104 0.71809 0.29554 0.0
C540 C 0.62542 0.68918 0.32706 0.0
C541 C 0.6258 0.76276 0.28486 0.0
O542 O 0.58795 0.71795 0.30837 0.0
O543 O 0.5722 0.72174 0.27483 0.0
O544 O 0.64985 0.71153 0.28942 0.0
O545 O 0.61882 0.71199 0.27067 0.0
Co546 Co 0.51859 0.36842 0.54955 0.0
O547 O 0.54922 0.36593 0.55609 0.0
O548 O 0.52327 0.37294 0.58086 0.0
C549 C 0.52308 0.39087 0.52056 0.0
O550 O 0.48557 0.37385 0.54798 0.0
Co551 Co 0.50051 0.35068 0.50502 0.0
O552 O 0.47515 0.36971 0.51262 0.0
C553 C 0.51418 0.31981 0.53972 0.0
C554 C 0.54407 0.37076 0.57619 0.0
C555 C 0.47168 0.37661 0.53212 0.0
O556 O 0.51454 0.3356 0.55384 0.0
O557 O 0.51117 0.32278 0.51908 0.0
O558 O 0.52324 0.39871 0.54042 0.0
O559 O 0.52229 0.3696 0.51893 0.0
Co560 Co 0.69247 0.87258 0.70545 0.0
O561 O 0.68861 0.88225 0.67576 0.0
O562 O 0.66244 0.86675 0.69608 0.0
C563 C 0.72422 0.85464 0.69925 0.0
O564 O 0.6912 0.85861 0.73597 0.0
Co565 Co 0.73291 0.88796 0.7331 0.0
O566 O 0.72461 0.86267 0.75177 0.0
C567 C 0.69491 0.91781 0.72764 0.0
C568 C 0.66879 0.8743 0.67709 0.0
C569 C 0.70553 0.8539 0.75096 0.0
O570 O 0.68411 0.90285 0.71703 0.0
O571 O 0.71475 0.91535 0.73442 0.0
O572 O 0.70543 0.84545 0.69462 0.0
O573 O 0.72335 0.87502 0.70549 0.0
Co574 Co 0.18188 0.61902 0.2799 0.0
O575 O 0.1698 0.61012 0.30732 0.0
O576 O 0.1502 0.62383 0.27952 0.0
C577 C 0.21002 0.63815 0.29482 0.0
O578 O 0.18968 0.63115 0.24969 0.0
Co579 Co 0.22907 0.60338 0.26743 0.0
O580 O 0.22585 0.62544 0.24363 0.0
C581 C 0.19199 0.57203 0.2674 0.0
C582 C 0.15093 0.61651 0.29965 0.0
C583 C 0.20742 0.63409 0.23844 0.0
O584 O 0.17809 0.58801 0.26813 0.0
O585 O 0.21284 0.57465 0.26937 0.0
O586 O 0.19074 0.64718 0.29278 0.0
O587 O 0.2111 0.61757 0.28949 0.0
Co588 Co 0.61971 0.9356 0.51009 0.0
O589 O 0.62383 0.92975 0.54064 0.0
O590 O 0.613 0.90485 0.516 0.0
C591 C 0.60064 0.96672 0.51528 0.0
O592 O 0.61202 0.93667 0.47735 0.0
Co593 Co 0.64024 0.97756 0.48933 0.0
O594 O 0.61934 0.97098 0.46525 0.0
C595 C 0.66848 0.93937 0.49857 0.0
C596 C 0.61732 0.90985 0.5364 0.0
C597 C 0.61053 0.95207 0.46277 0.0
O598 O 0.65155 0.92798 0.50426 0.0
O599 O 0.66767 0.95971 0.49314 0.0
O600 O 0.59092 0.94766 0.51636 0.0
O601 O 0.62185 0.96638 0.51297 0.0
Co602 Co 0.28703 0.37784 0.78081 0.0
O603 O 0.2953 0.38874 0.80916 0.0
O604 O 0.31724 0.36983 0.78685 0.0
C605 C 0.25476 0.36323 0.79181 0.0
O606 O 0.284 0.36243 0.7513 0.0
Co607 Co 0.24512 0.39366 0.75602 0.0
O608 O 0.24994 0.36731 0.73751 0.0
C609 C 0.28578 0.42088 0.75534 0.0
C610 C 0.31406 0.37907 0.80585 0.0
C611 C 0.26863 0.35783 0.73738 0.0
O612 O 0.29649 0.40633 0.76642 0.0
O613 O 0.26529 0.41922 0.75044 0.0
O614 O 0.2731 0.35266 0.79478 0.0
O615 O 0.25656 0.38294 0.78386 0.0
Co616 Co 0.37053 0.54699 0.5219 0.0
O617 O 0.36415 0.54681 0.55272 0.0
O618 O 0.37869 0.57507 0.53459 0.0
C619 C 0.38708 0.51389 0.52281 0.0
O620 O 0.38134 0.553 0.49085 0.0
Co621 Co 0.35234 0.51244 0.48943 0.0
O622 O 0.37531 0.52351 0.46937 0.0
C623 C 0.3239 0.5492 0.50373 0.0
C624 C 0.37286 0.56637 0.55323 0.0
C625 C 0.38418 0.54221 0.47288 0.0
O626 O 0.33981 0.55779 0.51489 0.0
O627 O 0.32538 0.53095 0.4933 0.0
O628 O 0.3978 0.53169 0.52805 0.0
O629 O 0.36643 0.51633 0.51795 0.0
Co630 Co 0.80271 0.11617 0.22217 0.0
O631 O 0.80711 0.10085 0.19518 0.0
O632 O 0.83277 0.12066 0.21228 0.0
C633 C 0.77077 0.13172 0.21158 0.0
O634 O 0.80347 0.13525 0.24988 0.0
Co635 Co 0.76159 0.10588 0.25093 0.0
O636 O 0.77099 0.13219 0.26754 0.0
C637 C 0.79902 0.07472 0.24972 0.0
C638 C 0.82693 0.10888 0.1953 0.0
C639 C 0.78992 0.14097 0.26513 0.0
O640 O 0.81091 0.08852 0.23884 0.0
O641 O 0.77884 0.07813 0.25471 0.0
O642 O 0.78945 0.14068 0.20623 0.0
O643 O 0.77199 0.11308 0.22176 0.0
Co644 Co 0.62212 0.05691 0.96069 0.0
O645 O 0.63671 0.06572 0.93429 0.0
O646 O 0.61637 0.08774 0.95518 0.0
C647 C 0.60682 0.02604 0.9467 0.0
O648 O 0.60343 0.05346 0.98822 0.0
Co649 Co 0.63362 0.01299 0.98434 0.0
O650 O 0.60651 0.01886 0.00123 0.0
C651 C 0.66378 0.05124 0.98809 0.0
C652 C 0.62784 0.08491 0.93739 0.0
C653 C 0.59746 0.03777 0.00116 0.0
O654 O 0.64985 0.06381 0.97814 0.0
O655 O 0.66079 0.03054 0.99092 0.0
O656 O 0.59761 0.04506 0.94353 0.0
O657 O 0.62579 0.02648 0.95649 0.0
Co658 Co 0.86805 0.93811 0.47209 0.0
O659 O 0.85261 0.93516 0.44486 0.0
O660 O 0.87208 0.90849 0.46068 0.0
C661 C 0.88402 0.97054 0.4637 0.0
O662 O 0.88689 0.9358 0.4999 0.0
Co663 Co 0.85666 0.97698 0.50316 0.0
O664 O 0.88212 0.96638 0.52038 0.0
C665 C 0.82596 0.93957 0.4991 0.0
C666 C 0.85986 0.91511 0.44433 0.0
C667 C 0.89154 0.94804 0.51663 0.0
O668 O 0.84039 0.92883 0.48799 0.0
O669 O 0.82871 0.9595 0.50545 0.0
O670 O 0.89266 0.9521 0.45722 0.0
O671 O 0.86518 0.96894 0.47348 0.0
H672 H 0.30542 0.20168 0.54503 0.0
H673 H 0.22658 0.17197 0.44453 0.0
H674 H 0.24179 0.171 0.55242 0.0
H675 H 0.28581 0.21131 0.4406 0.0
H676 H 0.23684 0.16149 0.48226 0.0
H677 H 0.3037 0.19464 0.50542 0.0
C678 C 0.29142 0.19278 0.53829 0.0
C679 C 0.27373 0.18685 0.55174 0.0
C680 C 0.24778 0.17206 0.47294 0.0
C681 C 0.27111 0.17956 0.50656 0.0
C682 C 0.24196 0.17799 0.45143 0.0
C683 C 0.25511 0.19295 0.43972 0.0
C684 C 0.26692 0.18107 0.48256 0.0
C685 C 0.27492 0.20017 0.4493 0.0
C686 C 0.29032 0.1889 0.51571 0.0
C687 C 0.25576 0.17568 0.5424 0.0
N688 N 0.28008 0.19438 0.47023 0.0
N689 N 0.25469 0.17273 0.52023 0.0
H690 H 0.08076 0.97915 0.68884 0.0
H691 H 0.03694 0.04808 0.79099 0.0
H692 H 0.03317 0.03174 0.68589 0.0
H693 H 0.07698 0.98997 0.79813 0.0
H694 H 0.04478 0.0485 0.75166 0.0
H695 H 0.08837 0.98873 0.72751 0.0
C696 C 0.07243 0.99311 0.69615 0.0
C697 C 0.05607 0.00449 0.6844 0.0
C698 C 0.05221 0.03581 0.76178 0.0
C699 C 0.06455 0.01543 0.72829 0.0
C700 C 0.04777 0.03564 0.78421 0.0
C701 C 0.05618 0.01886 0.79755 0.0
C702 C 0.06463 0.01866 0.75249 0.0
C703 C 0.07019 0.00314 0.78819 0.0
C704 C 0.07666 -0.00152 0.71821 0.0
C705 C 0.04565 0.02235 0.69454 0.0
N706 N 0.07364 0.00312 0.76603 0.0
N707 N 0.0499 0.02711 0.71594 0.0
H708 H 0.21491 0.77408 0.9505 0.0
H709 H 0.22462 0.8173 0.05704 0.0
H710 H 0.27427 0.81178 0.93907 0.0
H711 H 0.28524 0.78166 0.04674 0.0
H712 H 0.22111 0.82211 0.01703 0.0
H713 H 0.21728 0.78359 0.98969 0.0
C714 C 0.22815 0.78471 0.95615 0.0
C715 C 0.2444 0.79217 0.94157 0.0
C716 C 0.23543 0.81381 0.02373 0.0
C717 C 0.24729 0.80271 0.98609 0.0
C718 C 0.23754 0.81113 0.04645 0.0
C719 C 0.2551 0.79878 0.05512 0.0
C720 C 0.25125 0.80452 0.00983 0.0
C721 C 0.27132 0.79104 0.04066 0.0
C722 C 0.2294 0.7902 0.97839 0.0
C723 C 0.26134 0.80579 0.94978 0.0
N724 N 0.26891 0.79388 0.01861 0.0
N725 N 0.26271 0.81016 0.97169 0.0
H726 H 0.41685 0.98421 0.28821 0.0
H727 H 0.44276 0.06206 0.18676 0.0
H728 H 0.45235 0.04586 0.29147 0.0
H729 H 0.41083 -0.00109 0.17998 0.0
H730 H 0.43656 0.06075 0.22637 0.0
H731 H 0.40549 0.99321 0.25041 0.0
C732 C 0.42182 -0.00015 0.28116 0.0
C733 C 0.43599 0.0141 0.29274 0.0
C734 C 0.43046 0.04731 0.21628 0.0
C735 C 0.42312 0.02446 0.24974 0.0
C736 C 0.43391 0.04816 0.19367 0.0
C737 C 0.42744 0.03049 0.18031 0.0
C738 C 0.42113 0.0283 0.22568 0.0
C739 C 0.41604 0.01283 0.18989 0.0
C740 C 0.41539 0.00495 0.25959 0.0
C741 C 0.44186 0.03416 0.28292 0.0
N742 N 0.41369 0.0119 0.21216 0.0
N743 N 0.43563 0.0386 0.26194 0.0
H744 H 0.55314 0.2058 0.19629 0.0
H745 H 0.44071 0.26386 0.18836 0.0
H746 H 0.54878 0.27522 0.18188 0.0
H747 H 0.44718 0.19453 0.17461 0.0
H748 H 0.48001 0.26888 0.1811 0.0
H749 H 0.51512 0.20099 0.18375 0.0
C750 C 0.54423 0.21996 0.19005 0.0
C751 C 0.55388 0.24098 0.19039 0.0
C752 C 0.4728 0.25266 0.17902 0.0
C753 C 0.51025 0.23575 0.17654 0.0
C754 C 0.45038 0.24982 0.18314 0.0
C755 C 0.44089 0.22876 0.18215 0.0
C756 C 0.48591 0.23415 0.17464 0.0
C757 C 0.45399 0.21102 0.17548 0.0
C758 C 0.52257 0.21721 0.18281 0.0
C759 C 0.54181 0.25877 0.18197 0.0
N760 N 0.47604 0.21401 0.17252 0.0
N761 N 0.52037 0.25586 0.1759 0.0
H762 H 0.96008 0.29692 0.40481 0.0
H763 H 0.03221 0.20128 0.45495 0.0
H764 H 0.01788 0.30647 0.44519 0.0
H765 H 0.98124 0.18859 0.40697 0.0
H766 H 0.03095 0.24028 0.44581 0.0
H767 H 0.97093 0.25823 0.39917 0.0
C768 C 0.97543 0.29104 0.41183 0.0
C769 C 0.988 0.30462 0.42573 0.0
C770 C 0.02019 0.22907 0.43695 0.0
C771 C 0.00027 0.26073 0.41972 0.0
C772 C 0.02093 0.2068 0.44222 0.0
C773 C 0.00664 0.19192 0.43185 0.0
C774 C 0.00452 0.2367 0.42165 0.0
C775 C 0.99244 0.19973 0.41535 0.0
C776 C 0.98154 0.26897 0.40874 0.0
C777 C 0.00762 0.29634 0.4346 0.0
N778 N 0.99136 0.22176 0.41107 0.0
N779 N 0.01298 0.27488 0.4317 0.0
H780 H 0.05418 0.79391 0.68034 0.0
H781 H 0.9427 0.72461 0.66662 0.0
H782 H 0.05268 0.72483 0.66399 0.0
H783 H 0.95132 0.77792 0.71296 0.0
H784 H 0.98029 0.7311 0.65322 0.0
H785 H 0.01366 0.79448 0.67929 0.0
C786 C 0.04529 0.77913 0.67557 0.0
C787 C 0.05658 0.75932 0.67213 0.0
C788 C 0.97371 0.74162 0.66601 0.0
C789 C 0.01061 0.75975 0.67116 0.0
C790 C 0.95229 0.738 0.67363 0.0
C791 C 0.94403 0.75055 0.69117 0.0
C792 C 0.98673 0.75816 0.67572 0.0
C793 C 0.95719 0.76765 0.69965 0.0
C794 C 0.02226 0.7794 0.67521 0.0
C795 C 0.04444 0.74043 0.6666 0.0
N796 N 0.97795 0.77087 0.69194 0.0
N797 N 0.02204 0.74104 0.66645 0.0
H798 H 0.48976 0.79521 0.9262 0.0
H799 H 0.54962 0.68681 0.96727 0.0
H800 H 0.54589 0.79395 0.97009 0.0
H801 H 0.49609 0.68568 0.9205 0.0
H802 H 0.55298 0.72655 0.96231 0.0
H803 H 0.49588 0.75615 0.91792 0.0
C804 C 0.50363 0.78687 0.93374 0.0
C805 C 0.51706 0.79772 0.94924 0.0
C806 C 0.54073 0.71769 0.95274 0.0
C807 C 0.52406 0.75314 0.93992 0.0
C808 C 0.53891 0.695 0.95554 0.0
C809 C 0.52257 0.6832 0.94429 0.0
C810 C 0.52562 0.72875 0.93908 0.0
C811 C 0.50895 0.69439 0.92937 0.0
C812 C 0.50708 0.76456 0.92904 0.0
C813 C 0.53482 0.78613 0.95843 0.0
N814 N 0.51048 0.71671 0.92749 0.0
N815 N 0.53762 0.76445 0.95385 0.0
H816 H 0.54066 0.68933 0.28033 0.0
H817 H 0.44232 0.75253 0.33548 0.0
H818 H 0.5513 0.73813 0.33083 0.0
H819 H 0.43485 0.69501 0.29431 0.0
H820 H 0.48165 0.74397 0.33972 0.0
H821 H 0.50193 0.68728 0.29048 0.0
C822 C 0.53479 0.69936 0.29385 0.0
C823 C 0.54897 0.71407 0.30464 0.0
C824 C 0.47127 0.73294 0.33021 0.0
C825 C 0.50447 0.71242 0.31599 0.0
C826 C 0.44881 0.73777 0.32786 0.0
C827 C 0.43547 0.72474 0.31408 0.0
C828 C 0.48028 0.71504 0.31863 0.0
C829 C 0.44468 0.7058 0.30465 0.0
C830 C 0.51267 0.69821 0.29969 0.0
C831 C 0.54072 0.72663 0.32213 0.0
N832 N 0.46654 0.70174 0.3068 0.0
N833 N 0.51881 0.72592 0.32697 0.0
H834 H 0.54188 0.28956 0.52294 0.0
H835 H 0.47413 0.18948 0.57192 0.0
H836 H 0.49245 0.2982 0.57291 0.0
H837 H 0.52695 0.18399 0.52499 0.0
H838 H 0.48521 0.22793 0.579 0.0
H839 H 0.54174 0.25007 0.52997 0.0
C840 C 0.53123 0.28305 0.53568 0.0
C841 C 0.51698 0.29695 0.54719 0.0
C842 C 0.49468 0.21812 0.56756 0.0
C843 C 0.51606 0.25162 0.5549 0.0
C844 C 0.48843 0.19619 0.56362 0.0
C845 C 0.49942 0.18383 0.54754 0.0
C846 C 0.51202 0.22747 0.55534 0.0
C847 C 0.51779 0.19317 0.53719 0.0
C848 C 0.5311 0.2605 0.53972 0.0
C849 C 0.50362 0.28786 0.56367 0.0
N850 N 0.52331 0.21447 0.54105 0.0
N851 N 0.50308 0.26561 0.56671 0.0
H852 H 0.93326 0.26028 0.82109 0.0
H853 H 0.03276 0.20944 0.75641 0.0
H854 H 0.92677 0.20782 0.77348 0.0
H855 H 0.04364 0.24349 0.81779 0.0
H856 H 0.99359 0.20745 0.76444 0.0
H857 H 0.97311 0.25301 0.82311 0.0
C858 C 0.9401 0.24688 0.81152 0.0
C859 C 0.9268 0.23494 0.79672 0.0
C860 C 0.00445 0.21511 0.7764 0.0
C861 C 0.97211 0.22677 0.79877 0.0
C862 C 0.02681 0.21632 0.77174 0.0
C863 C 0.0413 0.22677 0.78639 0.0
C864 C -0.00372 0.22497 0.79562 0.0
C865 C 0.03287 0.2353 0.80611 0.0
C866 C 0.96283 0.2428 0.81262 0.0
C867 C 0.93648 0.21778 0.78473 0.0
N868 N 0.01074 0.23461 0.81 0.0
N869 N 0.95854 0.21446 0.78577 0.0
H870 H 0.9437 0.69619 0.05811 0.0
H871 H 0.01903 0.80356 0.07164 0.0
H872 H 0.0142 0.69404 0.06641 0.0
H873 H 0.9582 0.80091 0.03469 0.0
H874 H 0.0129 0.76527 0.08338 0.0
H875 H 0.94475 0.73627 0.06361 0.0
C876 C 0.95927 0.70412 0.06198 0.0
C877 C 0.97889 0.69202 0.06193 0.0
C878 C 0.00068 0.77331 0.07313 0.0
C879 C 0.9803 0.73757 0.06784 0.0
C880 C 0.00409 0.79514 0.06653 0.0
C881 C 0.98925 0.80521 0.05191 0.0
C882 C 0.98213 0.76176 0.06534 0.0
C883 C 0.9702 0.79358 0.0457 0.0
C884 C 0.9599 0.72693 0.06493 0.0
C885 C -0.00124 0.70295 0.06648 0.0
N886 N 0.96728 0.7724 0.0523 0.0
N887 N -0.00099 0.72522 0.06904 0.0
H888 H 0.20306 0.43413 0.27319 0.0
H889 H 0.16853 0.55415 0.23299 0.0
H890 H 0.18095 0.44734 0.20702 0.0
H891 H 0.19864 0.53837 0.29533 0.0
H892 H 0.16374 0.51441 0.2257 0.0
H893 H 0.19165 0.47097 0.28413 0.0
C894 C 0.19544 0.4448 0.26105 0.0
C895 C 0.19317 0.43795 0.23917 0.0
C896 C 0.17089 0.5197 0.24118 0.0
C897 C 0.1807 0.48046 0.25131 0.0
C898 C 0.17348 0.5423 0.24538 0.0
C899 C 0.18409 0.5493 0.26471 0.0
C900 C 0.17889 0.50429 0.25655 0.0
C901 C 0.1905 0.5335 0.28018 0.0
C902 C 0.18896 0.46585 0.26725 0.0
C903 C 0.18302 0.45219 0.22406 0.0
N904 N 0.18796 0.51176 0.2757 0.0
N905 N 0.17755 0.47306 0.2303 0.0
H906 H 0.6589 0.05363 0.71196 0.0
H907 H 0.6971 0.94035 0.76591 0.0
H908 H 0.6873 0.04671 0.77664 0.0
H909 H 0.66954 0.94399 0.70052 0.0
H910 H 0.68623 0.97837 0.7724 0.0
H911 H 0.65552 0.01317 0.70952 0.0
C912 C 0.66382 0.04356 0.72585 0.0
C913 C 0.67331 0.05328 0.74456 0.0
C914 C 0.68225 0.97091 0.75668 0.0
C915 C 0.67001 0.00739 0.7418 0.0
C916 C 0.68844 0.94915 0.753 0.0
C917 C 0.68444 0.93918 0.73258 0.0
C918 C 0.67242 0.98308 0.73961 0.0
C919 C 0.67295 0.95119 0.71649 0.0
C920 C 0.66204 0.02054 0.72443 0.0
C921 C 0.67979 0.03972 0.76201 0.0
N922 N 0.66772 0.97274 0.72018 0.0
N923 N 0.67822 0.01749 0.76012 0.0
H924 H 0.20577 0.46356 0.05089 0.0
H925 H 0.30189 0.41545 0.97975 0.0
H926 H 0.19404 0.41908 -0.0032 0.0
H927 H 0.31079 0.45273 0.03956 0.0
H928 H 0.26329 0.4088 0.98994 0.0
H929 H 0.24433 0.45249 0.05159 0.0
C930 C 0.21138 0.45118 0.03935 0.0
C931 C 0.19698 0.44243 0.02357 0.0
C932 C 0.27387 0.41787 0.00114 0.0
C933 C 0.24124 0.43013 0.02366 0.0
C934 C 0.29592 0.42153 -0.0046 0.0
C935 C 0.30925 0.43507 0.00864 0.0
C936 C 0.26535 0.42791 0.02018 0.0
C937 C 0.30082 0.44259 0.0287 0.0
C938 C 0.23338 0.44479 0.03973 0.0
C939 C 0.20483 0.42626 0.00911 0.0
N940 N 0.27932 0.43925 0.03366 0.0
N941 N 0.22665 0.42099 0.00912 0.0
H942 H 0.79088 0.05069 0.28632 0.0
H943 H 0.82581 0.93586 0.23308 0.0
H944 H 0.82605 0.04851 0.2248 0.0
H945 H 0.7663 0.94874 0.26942 0.0
H946 H 0.83662 0.97497 0.23789 0.0
H947 H 0.79457 0.0108 0.28952 0.0
C948 C 0.79998 0.04184 0.27381 0.0
C949 C 0.80777 0.05274 0.25505 0.0
C950 C 0.82138 0.96901 0.24499 0.0
C951 C 0.81158 0.00716 0.25836 0.0
C952 C 0.81522 0.94687 0.24223 0.0
C953 C 0.79498 0.93939 0.25055 0.0
C954 C 0.80749 0.98323 0.25677 0.0
C955 C 0.78183 0.95405 0.26241 0.0
C956 C 0.80198 0.0191 0.27559 0.0
C957 C 0.81968 0.04059 0.23944 0.0
N958 N 0.78832 0.97523 0.26519 0.0
N959 N 0.82077 0.01822 0.24114 0.0
H960 H 0.6905 0.08175 0.96778 0.0
H961 H 0.79226 0.03478 0.03455 0.0
H962 H 0.68589 0.04039 0.02528 0.0
H963 H 0.80038 0.08223 0.98247 0.0
H964 H 0.75288 0.0422 0.0349 0.0
H965 H 0.72976 0.08808 0.97615 0.0
C966 C 0.69759 0.07459 0.98252 0.0
C967 C 0.68513 0.06023 -0.00432 0.0
C968 C 0.76316 0.05132 0.02354 0.0
C969 C 0.72978 0.0671 0.00516 0.0
C970 C 0.78565 0.04704 0.02337 0.0
C971 C 0.79938 0.05778 0.00835 0.0
C972 C 0.75411 0.06602 0.0081 0.0
C973 C 0.79017 0.07361 -0.00574 0.0
C974 C 0.72 0.07807 0.98722 0.0
C975 C 0.69504 0.05127 0.01451 0.0
N976 N 0.76793 0.07696 0.99414 0.0
N977 N 0.71679 0.05461 0.01849 0.0
H978 H 0.28688 0.43555 0.71357 0.0
H979 H 0.32043 0.55709 0.75003 0.0
H980 H 0.30993 0.45114 0.77892 0.0
H981 H 0.28663 0.53915 0.69012 0.0
H982 H 0.32704 0.51768 0.75749 0.0
H983 H 0.29805 0.47211 0.70126 0.0
C984 C 0.29474 0.44664 0.7252 0.0
C985 C 0.29726 0.44061 0.74728 0.0
C986 C 0.31865 0.52245 0.74247 0.0
C987 C 0.30931 0.48278 0.73362 0.0
C988 C 0.31498 0.54486 0.7382 0.0
C989 C 0.30273 0.55112 0.71962 0.0
C990 C 0.31017 0.50651 0.72787 0.0
C991 C 0.29589 0.53485 0.70478 0.0
C992 C 0.30105 0.46753 0.71824 0.0
C993 C 0.30766 0.45538 0.76175 0.0
N994 N 0.29954 0.51331 0.70931 0.0
N995 N 0.31288 0.47609 0.75479 0.0
H996 H 0.29978 0.56136 0.46819 0.0
H997 H 0.19246 0.53702 0.53034 0.0
H998 H 0.29844 0.55956 0.53904 0.0
H999 H 0.19109 0.56803 0.46649 0.0
H1000 H 0.23057 0.54919 0.5352 0.0
H1001 H 0.26014 0.5686 0.46773 0.0
C1002 C 0.29115 0.5632 0.48366 0.0
C1003 C 0.30217 0.5598 0.50367 0.0
C1004 C 0.22183 0.55381 0.52033 0.0
C1005 C 0.25685 0.56715 0.50332 0.0
C1006 C 0.20012 0.54675 0.5175 0.0
C1007 C 0.18882 0.55122 0.49783 0.0
C1008 C 0.23252 0.56484 0.50308 0.0
C1009 C 0.19934 0.56412 0.48184 0.0
C1010 C 0.26855 0.5673 0.48343 0.0
C1011 C 0.29041 0.56217 0.5233 0.0
N1012 N 0.22084 0.57001 0.48456 0.0
N1013 N 0.26819 0.56511 0.52264 0.0
H1014 H 0.70293 0.70186 0.04883 0.0
H1015 H 0.74306 0.65964 0.93131 0.0
H1016 H 0.76253 0.66432 0.04034 0.0
H1017 H 0.69709 0.71229 0.94334 0.0
H1018 H 0.74339 0.65139 0.97112 0.0
H1019 H 0.69304 0.6946 0.01058 0.0
C1020 C 0.71367 0.69161 0.03897 0.0
C1021 C 0.73371 0.68397 0.04754 0.0
C1022 C 0.7329 0.66441 0.9649 0.0
C1023 C 0.72292 0.67622 0.00353 0.0
C1024 C 0.73264 0.66904 0.94228 0.0
C1025 C 0.72022 0.68682 0.93427 0.0
C1026 C 0.72033 0.67745 0.97929 0.0
C1027 C 0.70708 0.69862 0.94899 0.0
C1028 C 0.7081 0.68756 0.01712 0.0
C1029 C 0.74697 0.67059 0.03421 0.0
N1030 N 0.70757 0.69381 0.97076 0.0
N1031 N 0.74161 0.66755 0.0126 0.0
H1032 H 0.54015 0.46678 0.31562 0.0
H1033 H 0.57424 0.5005 0.19346 0.0
H1034 H 0.57069 0.52918 0.30073 0.0
H1035 H 0.52546 0.45206 0.21164 0.0
H1036 H 0.58357 0.5053 0.23279 0.0
H1037 H 0.547 0.45462 0.27799 0.0
C1038 C 0.54895 0.47764 0.30452 0.0
C1039 C 0.55474 0.499 0.31105 0.0
C1040 C 0.57111 0.49338 0.22803 0.0
C1041 C 0.56176 0.48567 0.2678 0.0
C1042 C 0.56582 0.49064 0.2057 0.0
C1043 C 0.5488 0.47617 0.19951 0.0
C1044 C 0.55961 0.48114 0.24395 0.0
C1045 C 0.53839 0.46369 0.21583 0.0
C1046 C 0.5527 0.4708 0.28302 0.0
C1047 C 0.56604 0.51255 0.29616 0.0
N1048 N 0.54389 0.46653 0.23726 0.0
N1049 N 0.56875 0.50585 0.27493 0.0
H1050 H 0.80107 0.2892 0.45725 0.0
H1051 H 0.72069 0.33337 0.5495 0.0
H1052 H 0.7449 0.33002 0.44254 0.0
H1053 H 0.77826 0.29343 0.56103 0.0
H1054 H 0.73344 0.34014 0.5117 0.0
H1055 H 0.79755 0.29847 0.49606 0.0
C1056 C 0.7882 0.30047 0.46226 0.0
C1057 C 0.77311 0.30868 0.44686 0.0
C1058 C 0.74355 0.33037 0.5227 0.0
C1059 C 0.76837 0.31883 0.49141 0.0
C1060 C 0.73635 0.32664 0.54429 0.0
C1061 C 0.7483 0.31252 0.55817 0.0
C1062 C 0.76279 0.31992 0.51519 0.0
C1063 C 0.76839 0.3041 0.55067 0.0
C1064 C 0.78613 0.30577 0.48443 0.0
C1065 C 0.75681 0.32334 0.45405 0.0
N1066 N 0.77484 0.30769 0.52964 0.0
N1067 N 0.75452 0.32758 0.47597 0.0
H1068 H 0.94997 0.44907 0.68722 0.0
H1069 H 0.9164 0.49967 0.80221 0.0
H1070 H 0.91421 0.51051 0.68659 0.0
H1071 H 0.98237 0.48051 0.78423 0.0
H1072 H 0.90475 0.49425 0.76341 0.0
H1073 H 0.94918 0.44938 0.72733 0.0
C1074 C 0.9414 0.46233 0.6955 0.0
C1075 C 0.93264 0.48009 0.6836 0.0
C1076 C 0.92168 0.49118 0.7682 0.0
C1077 C 0.9317 0.48041 0.7294 0.0
C1078 C 0.92832 0.49425 0.79014 0.0
C1079 C 0.95041 0.49073 0.79621 0.0
C1080 C 0.93714 0.48376 0.75277 0.0
C1081 C 0.96527 0.48367 0.78014 0.0
C1082 C 0.94098 0.46246 0.71835 0.0
C1083 C 0.92137 0.49662 0.6952 0.0
N1084 N 0.95833 0.48024 0.75922 0.0
N1085 N 0.92163 0.49668 0.71765 0.0
H1086 H 0.79895 0.94466 0.5345 0.0
H1087 H 0.69557 0.93153 0.46411 0.0
H1088 H 0.80311 0.91242 0.47138 0.0
H1089 H 0.69096 0.92508 0.53454 0.0
H1090 H 0.73481 0.92217 0.46629 0.0
H1091 H 0.75971 0.93536 0.53602 0.0
C1092 C 0.79167 0.93515 0.52122 0.0
C1093 C 0.80413 0.92952 0.50267 0.0
C1094 C 0.72511 0.92218 0.48122 0.0
C1095 C 0.75929 0.9194 0.504 0.0
C1096 C 0.7028 0.92756 0.47995 0.0
C1097 C 0.69028 0.92905 0.49918 0.0
C1098 C 0.735 0.91916 0.50194 0.0
C1099 C 0.70023 0.92399 0.51939 0.0
C1100 C 0.76933 0.92979 0.52211 0.0
C1101 C 0.79401 0.91712 0.48594 0.0
N1102 N 0.72223 0.9198 0.52034 0.0
N1103 N 0.77198 0.913 0.48669 0.0
H1104 H 0.18422 0.32368 0.25564 0.0
H1105 H 0.22718 0.27167 0.36898 0.0
H1106 H 0.23685 0.35152 0.29495 0.0
H1107 H 0.18713 0.23631 0.3218 0.0
H1108 H 0.22522 0.30438 0.34548 0.0
H1109 H 0.1793 0.29491 0.28348 0.0
C1110 C 0.19451 0.32394 0.27025 0.0
C1111 C 0.21117 0.33983 0.27285 0.0
C1112 C 0.21674 0.28949 0.34037 0.0
C1113 C 0.20566 0.30706 0.30462 0.0
C1114 C 0.21785 0.27086 0.35377 0.0
C1115 C 0.20754 0.25124 0.34715 0.0
C1116 C 0.20514 0.28847 0.32032 0.0
C1117 C 0.19554 0.25107 0.32736 0.0
C1118 C 0.19177 0.30747 0.28606 0.0
C1119 C 0.22403 0.33939 0.29211 0.0
N1120 N 0.19475 0.26939 0.31457 0.0
N1121 N 0.22109 0.32318 0.30719 0.0
H1122 H 0.02232 0.93376 0.56561 0.0
H1123 H 0.89404 0.95657 0.56039 0.0
H1124 H 0.98389 0.95546 0.62115 0.0
H1125 H 0.9293 0.925 0.50759 0.0
H1126 H 0.926 0.95186 0.58426 0.0
H1127 H 0.98817 0.92632 0.54536 0.0
C1128 C 0.00669 0.93673 0.57362 0.0
C1129 C 0.00589 0.94558 0.59494 0.0
C1130 C 0.92673 0.94563 0.56757 0.0
C1131 C 0.96685 0.93719 0.5719 0.0
C1132 C 0.90847 0.94834 0.55394 0.0
C1133 C 0.90921 0.94144 0.53193 0.0
C1134 C 0.94606 0.93635 0.55904 0.0
C1135 C 0.92816 0.93062 0.52446 0.0
C1136 C 0.98721 0.93242 0.56208 0.0
C1137 C 0.98525 0.94891 0.60463 0.0
N1138 N 0.94606 0.92878 0.53789 0.0
N1139 N 0.96655 0.94497 0.59293 0.0
H1140 H 0.30134 0.75044 0.82112 0.0
H1141 H 0.24262 0.6433 0.77521 0.0
H1142 H 0.24811 0.71961 0.85673 0.0
H1143 H 0.30941 0.66193 0.75888 0.0
H1144 H 0.24257 0.67157 0.80405 0.0
H1145 H 0.30256 0.71893 0.79648 0.0
C1146 C 0.28991 0.73696 0.82377 0.0
C1147 C 0.2746 0.73756 0.84096 0.0
C1148 C 0.25728 0.6692 0.79428 0.0
C1149 C 0.27584 0.70142 0.81269 0.0
C1150 C 0.25733 0.65314 0.7778 0.0
C1151 C 0.276 0.65034 0.76445 0.0
C1152 C 0.27589 0.68268 0.79717 0.0
C1153 C 0.2946 0.6635 0.76864 0.0
C1154 C 0.2907 0.71891 0.80976 0.0
C1155 C 0.26022 0.71964 0.84369 0.0
N1156 N 0.29397 0.67924 0.78445 0.0
N1157 N 0.26104 0.70227 0.82951 0.0
H1158 H 0.59049 0.01931 0.04137 0.0
H1159 H 0.46397 0.04718 0.04496 0.0
H1160 H 0.56127 0.06351 0.99394 0.0
H1161 H 0.5014 0.03485 0.10424 0.0
H1162 H 0.4986 0.05014 0.02443 0.0
H1163 H 0.55708 0.02183 0.06363 0.0
C1164 C 0.5771 0.02972 0.03578 0.0
C1165 C 0.57856 0.04123 0.01585 0.0
C1166 C 0.49916 0.04696 0.04197 0.0
C1167 C 0.54029 0.0438 0.0409 0.0
C1168 C 0.47947 0.04514 0.05363 0.0
C1169 C 0.47991 0.04066 0.07626 0.0
C1170 C 0.51928 0.04383 0.053 0.0
C1171 C 0.50037 0.03827 0.08679 0.0
C1172 C 0.55811 0.03118 0.04849 0.0
C1173 C 0.56079 0.05451 0.00931 0.0
N1174 N 0.51928 0.03963 0.075 0.0
N1175 N 0.54218 0.05517 0.02167 0.0
H1176 H 0.19632 0.75799 0.17467 0.0
H1177 H 0.23783 0.6386 0.20557 0.0
H1178 H 0.24401 0.72353 0.135 0.0
H1179 H 0.1767 0.66584 0.22942 0.0
H1180 H 0.24051 0.66888 0.17921 0.0
H1181 H 0.18952 0.72425 0.19522 0.0
C1182 C 0.20542 0.74329 0.17032 0.0
C1183 C 0.22087 0.74353 0.15322 0.0
C1184 C 0.22635 0.66802 0.18998 0.0
C1185 C 0.21312 0.70481 0.1767 0.0
C1186 C 0.22479 0.65076 0.20505 0.0
C1187 C 0.20714 0.64984 0.21992 0.0
C1188 C 0.21031 0.68463 0.19003 0.0
C1189 C 0.19064 0.66593 0.21835 0.0
C1190 C 0.20138 0.72398 0.18195 0.0
C1191 C 0.23201 0.72398 0.14814 0.0
N1192 N 0.19282 0.68287 0.20392 0.0
N1193 N 0.22807 0.70538 0.16 0.0
H1194 H 0.60912 0.97655 0.42502 0.0
H1195 H 0.48698 0.93766 0.40015 0.0
H1196 H 0.57789 0.92121 0.45705 0.0
H1197 H 0.52033 0.98713 0.36149 0.0
H1198 H 0.52165 0.92885 0.41828 0.0
H1199 H 0.57907 0.97748 0.39828 0.0
C1200 C 0.59617 0.96428 0.42617 0.0
C1201 C 0.59578 0.94905 0.44359 0.0
C1202 C 0.52152 0.94152 0.40573 0.0
C1203 C 0.56117 0.95027 0.41319 0.0
C1204 C 0.50167 0.94669 0.39547 0.0
C1205 C 0.50077 0.96339 0.37954 0.0
C1206 C 0.54064 0.95335 0.40029 0.0
C1207 C 0.52034 0.97427 0.37385 0.0
C1208 C 0.57898 0.96487 0.41089 0.0
C1209 C 0.57877 0.93338 0.44405 0.0
N1210 N 0.53948 0.96925 0.38445 0.0
N1211 N 0.56191 0.93467 0.42932 0.0
H1212 H 0.26388 0.2647 0.62861 0.0
H1213 H 0.30133 0.32702 0.73801 0.0
H1214 H 0.29697 0.23285 0.68295 0.0
H1215 H 0.24473 0.34812 0.70015 0.0
H1216 H 0.30561 0.29576 0.71317 0.0
H1217 H 0.2618 0.29871 0.65056 0.0
C1218 C 0.27077 0.26493 0.64509 0.0
C1219 C 0.28055 0.24604 0.65408 0.0
C1220 C 0.29233 0.30733 0.71026 0.0
C1221 C 0.27857 0.28459 0.67887 0.0
C1222 C 0.28994 0.32524 0.72434 0.0
C1223 C 0.27253 0.34011 0.72125 0.0
C1224 C 0.27739 0.30439 0.69283 0.0
C1225 C 0.25827 0.33692 0.70324 0.0
C1226 C 0.26953 0.28423 0.65756 0.0
C1227 C 0.28918 0.24706 0.67548 0.0
N1228 N 0.26099 0.31934 0.68967 0.0
N1229 N 0.28809 0.26607 0.68712 0.0
H1230 H 0.88893 0.02561 0.9325 0.0
H1231 H 0.01659 0.05016 0.92752 0.0
H1232 H 0.9213 0.07067 0.97721 0.0
H1233 H 0.98027 0.02543 0.87145 0.0
H1234 H 0.98172 0.05758 0.94613 0.0
H1235 H 0.92167 0.02605 0.9092 0.0
C1236 C 0.90277 0.03596 0.93716 0.0
C1237 C 0.9025 0.04796 0.95691 0.0
C1238 C 0.98138 0.05069 0.92969 0.0
C1239 C 0.94015 0.04808 0.93069 0.0
C1240 C 0.00126 0.04626 0.91916 0.0
C1241 C 0.00125 0.03701 0.89802 0.0
C1242 C 0.96139 0.04552 0.91911 0.0
C1243 C 0.98096 0.03249 0.8878 0.0
C1244 C 0.92146 0.03617 0.92389 0.0
C1245 C 0.92082 0.06117 0.96213 0.0
N1246 N 0.96181 0.03659 0.89855 0.0
N1247 N 0.9391 0.06053 0.94931 0.0
H1248 H 0.31282 0.18385 0.22609 0.0
H1249 H 0.30498 0.22377 0.34959 0.0
H1250 H 0.36848 0.20998 0.26218 0.0
H1251 H 0.25561 0.182 0.31957 0.0
H1252 H 0.3291 0.21733 0.31833 0.0
H1253 H 0.29201 0.18172 0.26035 0.0
C1254 C 0.32068 0.18907 0.24127 0.0
C1255 C 0.34229 0.19737 0.24133 0.0
C1256 C 0.31314 0.20929 0.31867 0.0
C1257 C 0.3186 0.19499 0.28051 0.0
C1258 C 0.29933 0.213 0.33649 0.0
C1259 C 0.27818 0.20359 0.337 0.0
C1260 C 0.30562 0.19637 0.30101 0.0
C1261 C 0.27179 0.18959 0.31975 0.0
C1262 C 0.30884 0.18771 0.26083 0.0
C1263 C 0.35179 0.20363 0.26143 0.0
N1264 N 0.28534 0.18668 0.30222 0.0
N1265 N 0.33978 0.20256 0.28022 0.0
H1266 H 0.00256 0.04328 0.59043 0.0
H1267 H 0.04296 0.06164 0.46821 0.0
H1268 H 0.05873 0.00894 0.56381 0.0
H1269 H 0.00996 0.11283 0.50469 0.0
H1270 H 0.04594 0.03992 0.502 0.0
H1271 H 0.00227 0.06723 0.55806 0.0
C1272 C 0.01492 0.04089 0.57784 0.0
C1273 C 0.03069 0.0241 0.57976 0.0
C1274 C 0.03817 0.05597 0.50261 0.0
C1275 C 0.03021 0.05117 0.54267 0.0
C1276 C 0.03634 0.06829 0.48335 0.0
C1277 C 0.0262 0.08901 0.48374 0.0
C1278 C 0.02943 0.06429 0.52226 0.0
C1279 C 0.01796 0.09693 0.50376 0.0
C1280 C 0.01478 0.05459 0.55944 0.0
C1281 C 0.04637 0.02176 0.56301 0.0
N1282 N 0.01958 0.08445 0.52225 0.0
N1283 N 0.04558 0.03499 0.545 0.0
H1284 H 0.12874 0.76322 0.75191 0.0
H1285 H 0.18005 0.78648 0.85044 0.0
H1286 H 0.18528 0.79248 0.7203 0.0
H1287 H 0.23851 0.79795 0.812 0.0
H1288 H 0.15796 0.78725 0.81695 0.0
H1289 H 0.14547 0.77058 0.78752 0.0
C1290 C 0.14468 0.7713 0.75253 0.0
C1291 C 0.15562 0.77724 0.73316 0.0
C1292 C 0.17558 0.78951 0.81561 0.0
C1293 C 0.17469 0.78676 0.77405 0.0
C1294 C 0.18812 0.78961 0.83486 0.0
C1295 C 0.21107 0.79201 0.83385 0.0
C1296 C 0.18624 0.79108 0.79516 0.0
C1297 C 0.2208 0.79611 0.8134 0.0
C1298 C 0.15415 0.77591 0.77296 0.0
C1299 C 0.17629 0.78758 0.73487 0.0
N1300 N 0.20837 0.79508 0.79475 0.0
N1301 N 0.18515 0.79198 0.75496 0.0
H1302 H 0.4409 0.90794 0.99104 0.0
H1303 H 0.48756 0.95456 0.10281 0.0
H1304 H 0.49606 0.87752 0.02412 0.0
H1305 H 0.42195 0.96852 0.0787 0.0
H1306 H 0.4905 0.92485 0.07588 0.0
H1307 H 0.43352 0.92953 0.02392 0.0
C1308 C 0.45147 0.90581 0.00529 0.0
C1309 C 0.46925 0.89112 0.00485 0.0
C1310 C 0.47532 0.93415 0.0768 0.0
C1311 C 0.46091 0.91583 0.0426 0.0
C1312 C 0.47359 0.95112 0.09218 0.0
C1313 C 0.45462 0.96438 0.09275 0.0
C1314 C 0.45807 0.9306 0.06175 0.0
C1315 C 0.437 0.95896 0.07871 0.0
C1316 C 0.44713 0.91801 0.02414 0.0
C1317 C 0.48224 0.88878 0.02384 0.0
N1318 N 0.43932 0.94275 0.06352 0.0
N1319 N 0.478 0.90128 0.04193 0.0
H1320 H 0.31968 0.79896 0.27771 0.0
H1321 H 0.31946 0.78853 0.14684 0.0
H1322 H 0.37086 0.76817 0.23942 0.0
H1323 H 0.26255 0.80914 0.18374 0.0
H1324 H 0.34153 0.78983 0.18043 0.0
H1325 H 0.30106 0.80976 0.24351 0.0
C1326 C 0.32701 0.79452 0.2621 0.0
C1327 C 0.34671 0.78245 0.26134 0.0
C1328 C 0.32432 0.79449 0.18119 0.0
C1329 C 0.32574 0.79502 0.22231 0.0
C1330 C 0.31179 0.79396 0.16198 0.0
C1331 C 0.28916 0.79853 0.16265 0.0
C1332 C 0.31407 0.79928 0.20129 0.0
C1333 C 0.27999 0.80553 0.1826 0.0
C1334 C 0.31644 0.80078 0.24263 0.0
C1335 C 0.35559 0.77726 0.24074 0.0
N1336 N 0.2924 0.80525 0.20131 0.0
N1337 N 0.345 0.78352 0.22206 0.0
H1338 H 0.46018 0.06404 0.38473 0.0
H1339 H 0.43528 0.06166 0.51227 0.0
H1340 H 0.43151 0.00722 0.41641 0.0
H1341 H 0.44912 0.12116 0.47586 0.0
H1342 H 0.43073 0.04181 0.47741 0.0
H1343 H 0.45307 0.08579 0.41759 0.0
C1344 C 0.45208 0.05624 0.39858 0.0
C1345 C 0.4466 0.0338 0.39801 0.0
C1346 C 0.43443 0.05928 0.47708 0.0
C1347 C 0.43878 0.05847 0.43591 0.0
C1348 C 0.43707 0.0706 0.49695 0.0
C1349 C 0.44292 0.093 0.49691 0.0
C1350 C 0.43785 0.07045 0.45713 0.0
C1351 C 0.44491 0.10383 0.47665 0.0
C1352 C 0.44799 0.06866 0.41734 0.0
C1353 C 0.43598 0.02451 0.41627 0.0
N1354 N 0.44265 0.09239 0.45759 0.0
N1355 N 0.43276 0.03682 0.43471 0.0
H1356 H 0.12083 0.22546 0.71464 0.0
H1357 H 0.23193 0.17522 0.66538 0.0
H1358 H 0.17316 0.19717 0.75374 0.0
H1359 H 0.19076 0.22122 0.62999 0.0
H1360 H 0.20507 0.17491 0.69526 0.0
H1361 H 0.14192 0.21717 0.68128 0.0
C1362 C 0.13675 0.21753 0.71618 0.0
C1363 C 0.14542 0.21221 0.73692 0.0
C1364 C 0.20177 0.18477 0.68076 0.0
C1365 C 0.16925 0.20228 0.69904 0.0
C1366 C 0.21696 0.18476 0.66359 0.0
C1367 C 0.21375 0.19859 0.64537 0.0
C1368 C 0.18325 0.19858 0.67957 0.0
C1369 C 0.19404 0.21062 0.64395 0.0
C1370 C 0.14868 0.21271 0.69719 0.0
C1371 C 0.16601 0.2018 0.73806 0.0
N1372 N 0.17965 0.21058 0.66099 0.0
N1373 N 0.17723 0.19717 0.71937 0.0
H1374 H 0.06312 0.91461 0.00036 0.0
H1375 H 0.01187 0.94097 0.88343 0.0
H1376 H 0.01438 0.87286 0.96935 0.0
H1377 H 0.07015 0.9732 0.90908 0.0
H1378 H 0.0144 0.91383 0.91296 0.0
H1379 H 0.0676 0.93452 0.96583 0.0
C1380 C 0.05343 0.90957 0.9862 0.0
C1381 C 0.03817 0.89225 0.98773 0.0
C1382 C 0.02684 0.92662 0.91191 0.0
C1383 C 0.04311 0.91505 0.94815 0.0
C1384 C 0.02542 0.94215 0.89505 0.0
C1385 C 0.04061 0.95964 0.89397 0.0
C1386 C 0.04341 0.92874 0.92797 0.0
C1387 C 0.05794 0.96015 0.90934 0.0
C1388 C 0.05608 0.92087 0.96645 0.0
C1389 C 0.02623 0.88621 0.96885 0.0
N1390 N 0.05865 0.94515 0.92592 0.0
N1391 N 0.02874 0.89782 0.94987 0.0
H1392 H 0.27395 0.36646 0.21811 0.0
H1393 H 0.33016 0.25742 0.17062 0.0
H1394 H 0.24012 0.31813 0.17813 0.0
H1395 H 0.35441 0.292 0.22803 0.0
H1396 H 0.30153 0.28537 0.16637 0.0
H1397 H 0.30776 0.34448 0.21539 0.0
C1398 C 0.27373 0.35136 0.20859 0.0
C1399 C 0.25425 0.34389 0.19855 0.0
C1400 C 0.31332 0.28694 0.17972 0.0
C1401 C 0.29264 0.31902 0.19515 0.0
C1402 C 0.32972 0.27107 0.18211 0.0
C1403 C 0.34447 0.27219 0.19993 0.0
C1404 C 0.31178 0.30408 0.19516 0.0
C1405 C 0.34315 0.29031 0.21426 0.0
C1406 C 0.29295 0.33886 0.20706 0.0
C1407 C 0.25477 0.32429 0.18636 0.0
N1408 N 0.32693 0.30547 0.21167 0.0
N1409 N 0.27366 0.31248 0.18504 0.0
H1410 H 0.74497 0.12649 0.77192 0.0
H1411 H 0.83557 0.18827 0.80249 0.0
H1412 H 0.70548 0.18292 0.78921 0.0
H1413 H 0.79267 0.24414 0.79443 0.0
H1414 H 0.80337 0.16392 0.80271 0.0
H1415 H 0.77799 0.14694 0.78222 0.0
C1416 C 0.74327 0.14316 0.7781 0.0
C1417 C 0.72249 0.15304 0.77965 0.0
C1418 C 0.80086 0.18147 0.80092 0.0
C1419 C 0.76025 0.1765 0.79226 0.0
C1420 C 0.81923 0.19537 0.80133 0.0
C1421 C 0.81657 0.21811 0.79863 0.0
C1422 C 0.77982 0.19044 0.79704 0.0
C1423 C 0.79522 0.22664 0.79683 0.0
C1424 C 0.76216 0.15478 0.78434 0.0
C1425 C 0.72122 0.17469 0.78771 0.0
N1426 N 0.77763 0.21275 0.79578 0.0
N1427 N 0.73986 0.18575 0.79355 0.0
H1428 H 0.00781 0.57264 0.06632 0.0
H1429 H 0.11966 0.51938 0.02259 0.0
H1430 H 0.04832 0.60439 0.01731 0.0
H1431 H 0.0642 0.48117 0.04551 0.0
H1432 H 0.09795 0.55314 0.02766 0.0
H1433 H 0.03342 0.54154 0.06675 0.0
C1434 C 0.02233 0.5733 0.056 0.0
C1435 C 0.02585 0.59102 0.0416 0.0
C1436 C 0.09065 0.53733 0.03166 0.0
C1437 C 0.05504 0.55554 0.04198 0.0
C1438 C 0.10298 0.51813 0.02878 0.0
C1439 C 0.0936 0.49754 0.03352 0.0
C1440 C 0.06905 0.53582 0.03974 0.0
C1441 C 0.07195 0.49674 0.04149 0.0
C1442 C 0.0368 0.55547 0.05612 0.0
C1443 C 0.04488 0.59093 0.02849 0.0
N1444 N 0.06041 0.51564 0.04443 0.0
N1445 N 0.05874 0.57338 0.02891 0.0
H1446 H 0.6288 0.79962 0.2589 0.0
H1447 H 0.7511 0.81901 0.29755 0.0
H1448 H 0.65651 0.76969 0.31725 0.0
H1449 H 0.71816 0.86432 0.25373 0.0
H1450 H 0.7158 0.80166 0.30557 0.0
H1451 H 0.65969 0.8255 0.25816 0.0
C1452 C 0.64108 0.79881 0.27187 0.0
C1453 C 0.64032 0.78212 0.28788 0.0
C1454 C 0.7162 0.81551 0.29433 0.0
C1455 C 0.67587 0.81137 0.28682 0.0
C1456 C 0.7364 0.82527 0.28955 0.0
C1457 C 0.73753 0.84294 0.27476 0.0
C1458 C 0.697 0.82321 0.28394 0.0
C1459 C 0.71795 0.8506 0.26512 0.0
C1460 C 0.65875 0.81357 0.27139 0.0
C1461 C 0.65654 0.78208 0.30442 0.0
N1462 N 0.69845 0.84049 0.26968 0.0
N1463 N 0.67392 0.79615 0.30317 0.0
H1464 H 0.8755 0.98532 0.01829 0.0
H1465 H 0.99087 0.93012 0.05143 0.0
H1466 H 0.93134 0.023 0.04166 0.0
H1467 H 0.93969 0.89748 0.01405 0.0
H1468 H 0.96738 0.96303 0.05376 0.0
H1469 H 0.89718 0.95167 0.02197 0.0
C1470 C 0.89232 0.98649 0.02424 0.0
C1471 C 0.9017 0.00695 0.02955 0.0
C1472 C 0.96127 0.94855 0.04525 0.0
C1473 C 0.92659 0.96852 0.03392 0.0
C1474 C 0.97458 0.92976 0.04407 0.0
C1475 C 0.96725 0.91118 0.03237 0.0
C1476 C 0.9405 0.94852 0.03487 0.0
C1477 C 0.94607 0.91157 0.023 0.0
C1478 C 0.90469 0.96729 0.02636 0.0
C1479 C 0.92354 0.00753 0.03727 0.0
N1480 N 0.93351 0.92995 0.02439 0.0
N1481 N 0.9353 0.98856 0.03919 0.0
H1482 H 0.23399 0.62093 0.68319 0.0
H1483 H 0.17917 0.7376 0.6575 0.0
H1484 H 0.27109 0.68123 0.67534 0.0
H1485 H 0.14456 0.68195 0.68513 0.0
H1486 H 0.2118 0.71432 0.65273 0.0
H1487 H 0.20038 0.64067 0.67328 0.0
C1488 C 0.23509 0.63831 0.67922 0.0
C1489 C 0.25526 0.64959 0.6805 0.0
C1490 C 0.19688 0.70712 0.65936 0.0
C1491 C 0.2169 0.6722 0.66902 0.0
C1492 C 0.17821 0.72031 0.66188 0.0
C1493 C 0.15931 0.7117 0.67203 0.0
C1494 C 0.19644 0.68522 0.66686 0.0
C1495 C 0.15895 0.68926 0.67753 0.0
C1496 C 0.21591 0.64953 0.6735 0.0
C1497 C 0.25578 0.67201 0.67486 0.0
N1498 N 0.17734 0.67685 0.67513 0.0
N1499 N 0.2368 0.68267 0.66957 0.0
H1500 H 0.00762 0.41554 0.42162 0.0
H1501 H 0.10989 0.47031 0.48506 0.0
H1502 H 0.02863 0.39431 0.48625 0.0
H1503 H 0.07277 0.50203 0.43334 0.0
H1504 H 0.08548 0.43791 0.48175 0.0
H1505 H 0.03706 0.44297 0.42171 0.0
C1506 C 0.0185 0.41651 0.43577 0.0
C1507 C 0.01547 0.40275 0.45406 0.0
C1508 C 0.0829 0.45194 0.47104 0.0
C1509 C 0.04924 0.43412 0.45421 0.0
C1510 C 0.09683 0.47029 0.47285 0.0
C1511 C 0.09311 0.48881 0.45959 0.0
C1512 C 0.06555 0.45217 0.4556 0.0
C1513 C 0.07598 0.48813 0.44406 0.0
C1514 C 0.03529 0.43221 0.43581 0.0
C1515 C 0.03019 0.40475 0.47189 0.0
N1516 N 0.06283 0.47013 0.4425 0.0
N1517 N 0.04642 0.42023 0.47157 0.0
H1518 H 0.47196 0.57563 0.91827 0.0
H1519 H 0.36604 0.51529 0.96725 0.0
H1520 H 0.43313 0.60111 0.97197 0.0
H1521 H 0.4162 0.48308 0.92876 0.0
H1522 H 0.38427 0.55069 0.96066 0.0
H1523 H 0.44486 0.5462 0.91319 0.0
C1524 C 0.45746 0.57542 0.92863 0.0
C1525 C 0.45508 0.59057 0.94594 0.0
C1526 C 0.3911 0.5359 0.95343 0.0
C1527 C 0.4242 0.55683 0.94028 0.0
C1528 C 0.38075 0.5157 0.95721 0.0
C1529 C 0.38993 0.49621 0.94891 0.0
C1530 C 0.41066 0.53657 0.94117 0.0
C1531 C 0.40883 0.4977 0.93578 0.0
C1532 C 0.44209 0.5585 0.92579 0.0
C1533 C 0.43587 0.58951 0.95872 0.0
N1534 N 0.41871 0.51753 0.93248 0.0
N1535 N 0.42133 0.5727 0.95586 0.0
H1536 H 0.71888 0.7606 0.8571 0.0
H1537 H 0.67852 0.81804 0.74551 0.0
H1538 H 0.69404 0.72417 0.80119 0.0
H1539 H 0.72265 0.84898 0.79215 0.0
H1540 H 0.67711 0.78534 0.76924 0.0
H1541 H 0.71423 0.79484 0.83637 0.0
C1542 C 0.71243 0.75983 0.84046 0.0
C1543 C 0.70697 0.73956 0.83075 0.0
C1544 C 0.68685 0.79943 0.77436 0.0
C1545 C 0.70132 0.77861 0.80713 0.0
C1546 C 0.68747 0.81816 0.76098 0.0
C1547 C 0.70083 0.83614 0.76685 0.0
C1548 C 0.69948 0.7989 0.79379 0.0
C1549 C 0.71229 0.83537 0.78695 0.0
C1550 C 0.70975 0.77935 0.82867 0.0
C1551 C 0.69862 0.73947 0.80919 0.0
N1552 N 0.71145 0.817 0.79964 0.0
N1553 N 0.69601 0.75873 0.79807 0.0
H1554 H 0.47998 0.45325 0.12257 0.0
H1555 H 0.42927 0.43391 0.00315 0.0
H1556 H 0.5208 0.43685 0.06689 0.0
H1557 H 0.40191 0.4798 0.04994 0.0
H1558 H 0.46022 0.42738 0.02845 0.0
H1559 H 0.44799 0.45496 0.09808 0.0
C1560 C 0.48218 0.44975 0.10525 0.0
C1561 C 0.50309 0.4452 0.09666 0.0
C1562 C 0.44735 0.43881 0.03312 0.0
C1563 C 0.46663 0.44691 0.06874 0.0
C1564 C 0.42972 0.44249 0.01879 0.0
C1565 C 0.41312 0.45748 0.02448 0.0
C1566 C 0.44803 0.44983 0.0534 0.0
C1567 C 0.41449 0.46825 0.04486 0.0
C1568 C 0.46395 0.45083 0.09131 0.0
C1569 C 0.50496 0.4406 0.07412 0.0
N1570 N 0.43161 0.46413 0.05866 0.0
N1571 N 0.48692 0.44163 0.06085 0.0
H1572 H 0.78777 0.2331 0.37292 0.0
H1573 H 0.81537 0.17744 0.25681 0.0
H1574 H 0.80251 0.27067 0.31446 0.0
H1575 H 0.77728 0.14576 0.30768 0.0
H1576 H 0.81955 0.20991 0.28072 0.0
H1577 H 0.79239 0.19908 0.35178 0.0
C1578 C 0.79215 0.23417 0.35569 0.0
C1579 C 0.7945 0.25467 0.34532 0.0
C1580 C 0.81054 0.19569 0.28669 0.0
C1581 C 0.80002 0.21595 0.32119 0.0
C1582 C 0.80831 0.17716 0.27316 0.0
C1583 C 0.79579 0.15906 0.28026 0.0
C1584 C 0.80047 0.19584 0.30748 0.0
C1585 C 0.78684 0.15952 0.30151 0.0
C1586 C 0.79478 0.21479 0.34365 0.0
C1587 C 0.8003 0.25515 0.32299 0.0
N1588 N 0.78927 0.17766 0.31434 0.0
N1589 N 0.8028 0.23605 0.31161 0.0
H1590 H 0.00752 0.50279 0.61225 0.0
H1591 H 0.06684 0.5547 0.50705 0.0
H1592 H 0.97288 0.53865 0.56149 0.0
H1593 H 0.09944 0.51475 0.55602 0.0
H1594 H 0.03345 0.55441 0.52967 0.0
H1595 H 0.04228 0.51124 0.59408 0.0
C1596 C 0.00724 0.51236 0.5972 0.0
C1597 C 0.98732 0.51985 0.58823 0.0
C1598 C 0.04805 0.54603 0.53561 0.0
C1599 C 0.02704 0.52978 0.56741 0.0
C1600 C 0.06715 0.5464 0.52283 0.0
C1601 C 0.08576 0.53448 0.52959 0.0
C1602 C 0.04773 0.5337 0.55521 0.0
C1603 C 0.0853 0.52387 0.55008 0.0
C1604 C 0.0271 0.51731 0.5869 0.0
C1605 C 0.9879 0.5324 0.56884 0.0
N1606 N 0.0665 0.52351 0.56204 0.0
N1607 N 0.00748 0.53691 0.559 0.0
H1608 H 0.70009 0.23612 0.61414 0.0
H1609 H 0.6561 0.17511 0.72202 0.0
H1610 H 0.66923 0.27012 0.66826 0.0
H1611 H 0.7048 0.14809 0.67804 0.0
H1612 H 0.65257 0.20717 0.69772 0.0
H1613 H 0.69374 0.20112 0.63293 0.0
C1614 C 0.69177 0.23621 0.62988 0.0
C1615 C 0.68549 0.25606 0.63985 0.0
C1616 C 0.66377 0.19403 0.69327 0.0
C1617 C 0.6781 0.21608 0.66134 0.0
C1618 C 0.66568 0.17568 0.70702 0.0
C1619 C 0.68098 0.15906 0.70216 0.0
C1620 C 0.67706 0.19558 0.67447 0.0
C1621 C 0.69303 0.16068 0.68256 0.0
C1622 C 0.68817 0.21622 0.64059 0.0
C1623 C 0.67457 0.25518 0.66014 0.0
N1624 N 0.69093 0.17871 0.66952 0.0
N1625 N 0.67136 0.23549 0.67034 0.0
H1626 H 0.11434 0.49656 0.9447 0.0
H1627 H -0.00101 0.44586 0.9159 0.0
H1628 H 0.09395 0.4316 0.9657 0.0
H1629 H 0.02805 0.49563 0.87429 0.0
H1630 H 0.03432 0.44093 0.93418 0.0
H1631 H 0.08451 0.4965 0.91753 0.0
C1632 C 0.10394 0.48208 0.9433 0.0
C1633 C 0.10633 0.46427 0.95792 0.0
C1634 C 0.03311 0.45282 0.92094 0.0
C1635 C 0.07209 0.46433 0.92713 0.0
C1636 C 0.01286 0.45582 0.91065 0.0
C1637 C 0.01061 0.47133 0.89373 0.0
C1638 C 0.05121 0.46573 0.9146 0.0
C1639 C 0.02917 0.48357 0.88738 0.0
C1640 C 0.08691 0.4821 0.92778 0.0
C1641 C 0.09253 0.44588 0.9551 0.0
N1642 N 0.04874 0.48073 0.89806 0.0
N1643 N 0.07572 0.44658 0.94035 0.0
H1644 H 0.81059 0.81599 0.22538 0.0
H1645 H 0.77613 0.76159 0.11024 0.0
H1646 H 0.7726 0.84892 0.17501 0.0
H1647 H 0.80471 0.72514 0.16422 0.0
H1648 H 0.78141 0.79568 0.13109 0.0
H1649 H 0.81562 0.78472 0.20032 0.0
C1650 C 0.80372 0.81686 0.20891 0.0
C1651 C 0.79089 0.83493 0.20238 0.0
C1652 C 0.78672 0.78025 0.13829 0.0
C1653 C 0.79638 0.79926 0.1738 0.0
C1654 C 0.78371 0.76079 0.12639 0.0
C1655 C 0.78972 0.74051 0.13565 0.0
C1656 C 0.79582 0.7794 0.1596 0.0
C1657 C 0.79961 0.74044 0.15657 0.0
C1658 C 0.80646 0.79896 0.19468 0.0
C1659 C 0.78232 0.83516 0.18087 0.0
N1660 N 0.80219 0.75957 0.16794 0.0
N1661 N 0.78503 0.81752 0.16745 0.0
H1662 H 0.41489 0.57497 0.4783 0.0
H1663 H 0.47601 0.54356 0.36677 0.0
H1664 H 0.38932 0.52907 0.43012 0.0
H1665 H 0.5084 0.57214 0.42342 0.0
H1666 H 0.44053 0.54791 0.38517 0.0
H1667 H 0.44518 0.5838 0.45337 0.0
C1668 C 0.41537 0.56708 0.46232 0.0
C1669 C 0.39984 0.55088 0.45647 0.0
C1670 C 0.45539 0.55351 0.39342 0.0
C1671 C 0.4344 0.56089 0.42801 0.0
C1672 C 0.47563 0.55103 0.38295 0.0
C1673 C 0.49517 0.55703 0.39384 0.0
C1674 C 0.45474 0.56216 0.41483 0.0
C1675 C 0.49372 0.56692 0.41464 0.0
C1676 C 0.4327 0.57208 0.44815 0.0
C1677 C 0.4012 0.54132 0.43548 0.0
N1678 N 0.47383 0.56895 0.4246 0.0
N1679 N 0.41837 0.54627 0.42211 0.0
H1680 H 0.80278 0.72193 0.85412 0.0
H1681 H 0.83067 0.67741 0.73523 0.0
H1682 H 0.76625 0.66976 0.82208 0.0
H1683 H 0.87402 0.72086 0.77144 0.0
H1684 H 0.80921 0.67141 0.76851 0.0
H1685 H 0.83149 0.71851 0.82633 0.0
C1686 C 0.80096 0.70949 0.84145 0.0
C1687 C 0.78186 0.69638 0.8402 0.0
C1688 C 0.82355 0.68207 0.76932 0.0
C1689 C 0.81456 0.69263 0.80813 0.0
C1690 C 0.83576 0.68559 0.75028 0.0
C1691 C 0.85394 0.69992 0.75055 0.0
C1692 C 0.82933 0.69324 0.78874 0.0
C1693 C 0.85999 0.70982 0.77053 0.0
C1694 C 0.81738 0.70755 0.82558 0.0
C1695 C 0.78057 0.68034 0.8236 0.0
N1696 N 0.8475 0.70656 0.7888 0.0
N1697 N 0.7965 0.6792 0.80797 0.0
H1698 H 0.55639 0.53151 0.09897 0.0
H1699 H 0.50985 0.54853 0.97893 0.0
H1700 H 0.49482 0.50194 0.07855 0.0
H1701 H 0.53735 0.60369 0.01461 0.0
H1702 H 0.5101 0.52691 0.01313 0.0
H1703 H 0.55566 0.55454 0.06552 0.0
C1704 C 0.54274 0.52998 0.08752 0.0
C1705 C 0.52551 0.51511 0.09156 0.0
C1706 C 0.51605 0.54377 0.01338 0.0
C1707 C 0.52495 0.54057 0.0534 0.0
C1708 C 0.51597 0.55602 0.99396 0.0
C1709 C 0.52354 0.57784 0.99411 0.0
C1710 C 0.52435 0.55328 0.03279 0.0
C1711 C 0.53126 0.58691 0.01395 0.0
C1712 C 0.54231 0.54306 0.06857 0.0
C1713 C 0.50823 0.51353 0.07619 0.0
N1714 N 0.53171 0.57448 0.03254 0.0
N1715 N 0.5085 0.52593 0.05764 0.0
H1716 H 0.62968 0.24628 0.27559 0.0
H1717 H 0.72043 0.31519 0.34225 0.0
H1718 H 0.66799 0.29992 0.24885 0.0
H1719 H 0.70594 0.24717 0.3578 0.0
H1720 H 0.69261 0.31391 0.31328 0.0
H1721 H 0.65014 0.25012 0.3106 0.0
C1722 C 0.64223 0.25893 0.27718 0.0
C1723 C 0.64738 0.27267 0.25937 0.0
C1724 C 0.69535 0.29935 0.32324 0.0
C1725 C 0.67018 0.27745 0.29905 0.0
C1726 C 0.71118 0.30007 0.33987 0.0
C1727 C 0.71587 0.28112 0.35226 0.0
C1728 C 0.68403 0.2796 0.31897 0.0
C1729 C 0.70309 0.26209 0.34847 0.0
C1730 C 0.65384 0.2611 0.29705 0.0
C1731 C 0.66372 0.28881 0.26213 0.0
N1732 N 0.68788 0.26172 0.33195 0.0
N1733 N 0.67449 0.29079 0.28159 0.0
H1734 H 0.91436 0.48077 0.55692 0.0
H1735 H 0.93585 0.36549 0.49773 0.0
H1736 H 0.93714 0.42193 0.58956 0.0
H1737 H 0.92494 0.42648 0.46283 0.0
H1738 H 0.9267 0.38403 0.53214 0.0
H1739 H 0.90795 0.45907 0.52333 0.0
C1740 C 0.91729 0.46317 0.55721 0.0
C1741 C 0.92655 0.45311 0.57582 0.0
C1742 C 0.92606 0.39333 0.51693 0.0
C1743 C 0.91966 0.42841 0.53769 0.0
C1744 C 0.93134 0.38275 0.49729 0.0
C1745 C 0.93158 0.39459 0.4775 0.0
C1746 C 0.9211 0.41594 0.51679 0.0
C1747 C 0.92529 0.41684 0.47782 0.0
C1748 C 0.91386 0.45084 0.53802 0.0
C1749 C 0.93025 0.43031 0.57539 0.0
N1750 N 0.92057 0.4269 0.49723 0.0
N1751 N 0.92707 0.41879 0.55653 0.0
H1752 H 0.85554 0.29149 0.73147 0.0
H1753 H 0.77243 0.31882 0.65469 0.0
H1754 H 0.79973 0.28266 0.77439 0.0
H1755 H 0.74631 0.25781 0.6803 0.0
H1756 H 0.79736 0.32113 0.6867 0.0
H1757 H 0.83011 0.29533 0.70011 0.0
C1758 C 0.83792 0.29052 0.73425 0.0
C1759 C 0.82957 0.2869 0.7554 0.0
C1760 C 0.78603 0.30737 0.68524 0.0
C1761 C 0.80078 0.29082 0.71993 0.0
C1762 C 0.77183 0.30607 0.66716 0.0
C1763 C 0.7576 0.28796 0.66488 0.0
C1764 C 0.78541 0.29076 0.70127 0.0
C1765 C 0.75733 0.27185 0.68142 0.0
C1766 C 0.82353 0.29283 0.71648 0.0
C1767 C 0.80668 0.28566 0.75828 0.0
N1768 N 0.77099 0.27369 0.69909 0.0
N1769 N 0.793 0.28719 0.74059 0.0
H1770 H 0.9662 0.5669 0.88799 0.0
H1771 H 0.93915 0.56442 0.01567 0.0
H1772 H 0.93526 0.51147 0.92004 0.0
H1773 H 0.96144 0.6227 0.98155 0.0
H1774 H 0.93461 0.54574 0.98033 0.0
H1775 H 0.9607 0.58888 0.9211 0.0
C1776 C 0.95785 0.55948 0.90188 0.0
C1777 C 0.95141 0.53724 0.90137 0.0
C1778 C 0.94031 0.56267 0.98053 0.0
C1779 C 0.9455 0.56218 0.93954 0.0
C1780 C 0.94302 0.57331 0.00071 0.0
C1781 C 0.95091 0.59506 0.00151 0.0
C1782 C 0.94571 0.5738 0.96101 0.0
C1783 C 0.95547 0.60586 0.98165 0.0
C1784 C 0.95476 0.57203 0.92082 0.0
C1785 C 0.9405 0.52854 0.91975 0.0
N1786 N 0.953 0.59505 0.96221 0.0
N1787 N 0.93825 0.54092 0.93826 0.0
H1788 H 0.68321 0.70032 0.26545 0.0
H1789 H 0.69037 0.73114 0.13941 0.0
H1790 H 0.62562 0.72004 0.22851 0.0
H1791 H 0.73442 0.68406 0.16942 0.0
H1792 H 0.66748 0.73017 0.17248 0.0
H1793 H 0.70385 0.69768 0.23106 0.0
C1794 C 0.67494 0.70414 0.25008 0.0
C1795 C 0.65271 0.71043 0.24974 0.0
C1796 C 0.68203 0.71989 0.1717 0.0
C1797 C 0.67619 0.7075 0.21051 0.0
C1798 C 0.6951 0.72046 0.1529 0.0
C1799 C 0.71431 0.70769 0.15176 0.0
C1800 C 0.68852 0.70685 0.18963 0.0
C1801 C 0.71967 0.69406 0.16962 0.0
C1802 C 0.68667 0.70247 0.2305 0.0
C1803 C 0.64274 0.7151 0.22943 0.0
N1804 N 0.70699 0.69423 0.188 0.0
N1805 N 0.65462 0.71372 0.21057 0.0
H1806 H 0.4972 0.45767 0.39775 0.0
H1807 H 0.53595 0.4337 0.51978 0.0
H1808 H 0.54915 0.49494 0.4294 0.0
H1809 H 0.51153 0.38155 0.47786 0.0
H1810 H 0.53662 0.45844 0.4881 0.0
H1811 H 0.49812 0.43131 0.4283 0.0
C1812 C 0.50882 0.46028 0.41109 0.0
C1813 C 0.52313 0.4785 0.41107 0.0
C1814 C 0.53122 0.44156 0.48582 0.0
C1815 C 0.52403 0.44867 0.446 0.0
C1816 C 0.53072 0.42747 0.50388 0.0
C1817 C 0.52369 0.40558 0.50135 0.0
C1818 C 0.52424 0.43381 0.46519 0.0
C1819 C 0.51714 0.39831 0.48041 0.0
C1820 C 0.50939 0.4452 0.42841 0.0
C1821 C 0.53792 0.48105 0.42871 0.0
N1822 N 0.51739 0.41249 0.46308 0.0
N1823 N 0.53783 0.46641 0.44559 0.0
H1824 H 0.73102 0.81429 0.68098 0.0
H1825 H 0.84789 0.79751 0.73728 0.0
H1826 H 0.76402 0.86579 0.71755 0.0
H1827 H 0.82494 0.75681 0.68348 0.0
H1828 H 0.81652 0.82192 0.73155 0.0
H1829 H 0.76454 0.79211 0.68287 0.0
C1830 C 0.74538 0.82096 0.68933 0.0
C1831 C 0.74478 0.84184 0.69922 0.0
C1832 C 0.81846 0.80777 0.72087 0.0
C1833 C 0.78303 0.81654 0.70157 0.0
C1834 C 0.83632 0.79376 0.72417 0.0
C1835 C 0.839 0.77503 0.71088 0.0
C1836 C 0.80299 0.80288 0.70436 0.0
C1837 C 0.82353 0.77108 0.69408 0.0
C1838 C 0.76451 0.80834 0.69032 0.0
C1839 C 0.76382 0.84976 0.70972 0.0
N1840 N 0.80604 0.78479 0.69144 0.0
N1841 N 0.78216 0.83698 0.71082 0.0
H1842 H 0.21285 0.682 0.30527 0.0
H1843 H 0.34337 0.67967 0.30632 0.0
H1844 H 0.25164 0.62262 0.30093 0.0
H1845 H 0.30622 0.73866 0.3193 0.0
H1846 H 0.30978 0.65786 0.31007 0.0
H1847 H 0.24627 0.70263 0.31503 0.0
C1848 C 0.22837 0.67329 0.30653 0.0
C1849 C 0.2296 0.65066 0.30198 0.0
C1850 C 0.30892 0.67552 0.31255 0.0
C1851 C 0.26773 0.67403 0.3132 0.0
C1852 C 0.32812 0.68791 0.31054 0.0
C1853 C 0.32738 0.71087 0.31247 0.0
C1854 C 0.28873 0.68628 0.31587 0.0
C1855 C 0.30734 0.72091 0.31783 0.0
C1856 C 0.2474 0.68504 0.3122 0.0
C1857 C 0.25002 0.64012 0.30403 0.0
N1858 N 0.28861 0.70856 0.31889 0.0
N1859 N 0.26831 0.65193 0.30929 0.0
H1860 H 0.53974 0.09267 0.49396 0.0
H1861 H 0.56084 0.97152 0.53464 0.0
H1862 H 0.50807 0.06604 0.55172 0.0
H1863 H 0.61197 0.00831 0.50169 0.0
H1864 H 0.53948 0.00532 0.5384 0.0
H1865 H 0.56513 0.06136 0.4941 0.0
C1866 C 0.53826 0.08034 0.50678 0.0
C1867 C 0.52169 0.08185 0.52279 0.0
C1868 C 0.55544 0.00604 0.53049 0.0
C1869 C 0.55042 0.04606 0.52282 0.0
C1870 C 0.56755 0.98676 0.52819 0.0
C1871 C 0.58811 0.98722 0.51777 0.0
C1872 C 0.56375 0.02581 0.5219 0.0
C1873 C 0.59617 0.00737 0.50985 0.0
C1874 C 0.55279 0.06258 0.50688 0.0
C1875 C 0.52059 0.06552 0.53908 0.0
N1876 N 0.5838 0.02593 0.51184 0.0
N1877 N 0.53457 0.04811 0.53849 0.0
H1878 H 0.24672 0.32503 0.81385 0.0
H1879 H 0.12802 0.31036 0.76268 0.0
H1880 H 0.21409 0.37664 0.77743 0.0
H1881 H 0.15434 0.2671 0.81266 0.0
H1882 H 0.15757 0.33663 0.77054 0.0
H1883 H 0.21183 0.30508 0.8161 0.0
C1884 C 0.23214 0.33224 0.80647 0.0
C1885 C 0.23331 0.35234 0.79514 0.0
C1886 C 0.15665 0.32158 0.78007 0.0
C1887 C 0.19336 0.32954 0.79752 0.0
C1888 C 0.13978 0.30655 0.77559 0.0
C1889 C 0.13891 0.28633 0.78678 0.0
C1890 C 0.17298 0.31617 0.79558 0.0
C1891 C 0.15445 0.2824 0.8035 0.0
C1892 C 0.21219 0.3209 0.80786 0.0
C1893 C 0.2139 0.36108 0.78614 0.0
N1894 N 0.1711 0.297 0.8071 0.0
N1895 N 0.19475 0.34945 0.78722 0.0
H1896 H 0.4237 0.50401 0.54655 0.0
H1897 H 0.43553 0.38252 0.50555 0.0
H1898 H 0.37276 0.47411 0.50662 0.0
H1899 H 0.46564 0.40586 0.56578 0.0
H1900 H 0.41132 0.41467 0.50565 0.0
H1901 H 0.43959 0.46773 0.55289 0.0
C1902 C 0.41591 0.48977 0.53902 0.0
C1903 C 0.39701 0.49201 0.52588 0.0
C1904 C 0.42286 0.41244 0.51911 0.0
C1905 C 0.41506 0.45042 0.53317 0.0
C1906 C 0.43666 0.39408 0.51911 0.0
C1907 C 0.45294 0.39171 0.53546 0.0
C1908 C 0.42567 0.42864 0.53534 0.0
C1909 C 0.45351 0.40709 0.55271 0.0
C1910 C 0.42483 0.46904 0.54287 0.0
C1911 C 0.38742 0.47301 0.51677 0.0
N1912 N 0.44044 0.42519 0.55192 0.0
N1913 N 0.39673 0.45294 0.52036 0.0
H1914 H 0.63465 0.1761 0.20935 0.0
H1915 H 0.72978 0.11662 0.22176 0.0
H1916 H 0.67694 0.23028 0.19124 0.0
H1917 H 0.76346 0.17059 0.18999 0.0
H1918 H 0.69497 0.13484 0.21534 0.0
H1919 H 0.66513 0.1508 0.20415 0.0
C1920 C 0.65044 0.18257 0.20408 0.0
C1921 C 0.6535 0.20525 0.2011 0.0
C1922 C 0.70971 0.14268 0.2092 0.0
C1923 C 0.68907 0.17667 0.19662 0.0
C1924 C 0.72976 0.13227 0.21316 0.0
C1925 C 0.74951 0.14224 0.20663 0.0
C1926 C 0.70938 0.16327 0.19852 0.0
C1927 C 0.74856 0.16245 0.19549 0.0
C1928 C 0.66804 0.16816 0.20145 0.0
C1929 C 0.67403 0.21286 0.19384 0.0
N1930 N 0.72883 0.1724 0.19196 0.0
N1931 N 0.69121 0.19862 0.1923 0.0
H1932 H 0.56504 0.02064 0.93037 0.0
H1933 H 0.51073 0.91936 0.92807 0.0
H1934 H 0.62195 0.98412 0.95238 0.0
H1935 H 0.56631 0.89739 0.96673 0.0
H1936 H 0.53123 0.95288 0.91873 0.0
H1937 H 0.5447 0.98619 0.92649 0.0
C1938 C 0.57337 0.00529 0.93402 0.0
C1939 C 0.59512 0.00523 0.94196 0.0
C1940 C 0.53896 0.9408 0.9293 0.0
C1941 C 0.57209 0.96552 0.93718 0.0
C1942 C 0.52734 0.92149 0.93435 0.0
C1943 C 0.53666 0.90584 0.94859 0.0
C1944 C 0.55998 0.94434 0.93864 0.0
C1945 C 0.55828 0.90927 0.95612 0.0
C1946 C 0.56177 0.9855 0.93161 0.0
C1947 C 0.60513 0.98493 0.94642 0.0
N1948 N 0.56908 0.9282 0.95122 0.0
N1949 N 0.59345 0.96594 0.9442 0.0
H1950 H 0.93176 0.10364 0.47083 0.0
H1951 H 0.91891 0.97818 0.43673 0.0
H1952 H 0.96993 0.07309 0.41939 0.0
H1953 H 0.87258 0.01149 0.47888 0.0
H1954 H 0.93629 0.0135 0.42852 0.0
H1955 H 0.90769 0.07139 0.47156 0.0
C1956 C 0.93481 0.09033 0.45935 0.0
C1957 C 0.9531 0.09092 0.44525 0.0
C1958 C 0.92223 0.01316 0.43944 0.0
C1959 C 0.92584 0.05376 0.44632 0.0
C1960 C 0.9124 0.99297 0.44427 0.0
C1961 C 0.89443 0.99192 0.45868 0.0
C1962 C 0.91421 0.03246 0.4493 0.0
C1963 C 0.8865 0.01159 0.46778 0.0
C1964 C 0.92108 0.07188 0.45983 0.0
C1965 C 0.9561 0.07331 0.4306 0.0
N1966 N 0.89659 0.03107 0.4631 0.0
N1967 N 0.94286 0.05525 0.43181 0.0
H1968 H 0.07486 0.09377 0.39864 0.0
H1969 H 0.1546 0.18752 0.40937 0.0
H1970 H 0.05444 0.16009 0.38402 0.0
H1971 H 0.1784 0.13775 0.36454 0.0
H1972 H 0.11785 0.17181 0.40655 0.0
H1973 H 0.11288 0.1037 0.38857 0.0
C1974 C 0.07818 0.11003 0.39204 0.0
C1975 C 0.06165 0.12617 0.3919 0.0
C1976 C 0.13115 0.16433 0.39734 0.0
C1977 C 0.10472 0.13772 0.38158 0.0
C1978 C 0.15218 0.1731 0.3991 0.0
C1979 C 0.16956 0.1641 0.38694 0.0
C1980 C 0.12737 0.14618 0.38362 0.0
C1981 C 0.1654 0.14519 0.37414 0.0
C1982 C 0.09984 0.1157 0.38654 0.0
C1983 C 0.06676 0.1472 0.38404 0.0
N1984 N 0.14455 0.13672 0.37279 0.0
N1985 N 0.08803 0.15259 0.37981 0.0
H1986 H 0.11347 0.94439 0.6609 0.0
H1987 H 0.12662 0.82192 0.61951 0.0
H1988 H 0.10047 0.92419 0.59416 0.0
H1989 H 0.13315 0.84457 0.68654 0.0
H1990 H 0.12827 0.86053 0.60701 0.0
H1991 H 0.1338 0.91026 0.66701 0.0
C1992 C 0.11578 0.93309 0.64728 0.0
C1993 C 0.10541 0.93684 0.62708 0.0
C1994 C 0.12973 0.85694 0.62441 0.0
C1995 C 0.12713 0.89725 0.63422 0.0
C1996 C 0.12866 0.83499 0.63151 0.0
C1997 C 0.12896 0.83027 0.65408 0.0
C1998 C 0.13135 0.87398 0.64009 0.0
C1999 C 0.13208 0.84761 0.66901 0.0
C2000 C 0.12711 0.91348 0.65078 0.0
C2001 C 0.10842 0.9217 0.60996 0.0
N2002 N 0.13292 0.86866 0.66177 0.0
N2003 N 0.11851 0.90215 0.61408 0.0
H2004 H 0.431 0.86564 0.89838 0.0
H2005 H 0.32005 0.7997 0.92522 0.0
H2006 H 0.42325 0.81553 0.94819 0.0
H2007 H 0.32674 0.83607 0.86465 0.0
H2008 H 0.35695 0.81094 0.93591 0.0
H2009 H 0.39271 0.85859 0.88623 0.0
C2010 C 0.42141 0.85295 0.90646 0.0
C2011 C 0.43021 0.84121 0.92438 0.0
C2012 C 0.35047 0.81664 0.92029 0.0
C2013 C 0.38671 0.83356 0.91107 0.0
C2014 C 0.32932 0.81035 0.91429 0.0
C2015 C 0.32056 0.81684 0.894 0.0
C2016 C 0.36324 0.8293 0.90576 0.0
C2017 C 0.33307 0.83081 0.88049 0.0
C2018 C 0.39958 0.8491 0.89969 0.0
C2019 C 0.41711 0.82511 0.93444 0.0
N2020 N 0.35406 0.83641 0.88648 0.0
N2021 N 0.39607 0.8219 0.92775 0.0
H2022 H 0.35161 0.14252 0.17689 0.0
H2023 H 0.39426 0.08298 0.0752 0.0
H2024 H 0.37298 0.17665 0.11852 0.0
H2025 H 0.36221 0.05039 0.12928 0.0
H2026 H 0.37458 0.1168 0.08398 0.0
H2027 H 0.34431 0.10974 0.15502 0.0
C2028 C 0.3547 0.14304 0.15934 0.0
C2029 C 0.36369 0.16188 0.14952 0.0
C2030 C 0.37107 0.10209 0.09345 0.0
C2031 C 0.35572 0.12431 0.12434 0.0
C2032 C 0.38214 0.08271 0.08826 0.0
C2033 C 0.38012 0.06422 0.10191 0.0
C2034 C 0.35863 0.10297 0.11286 0.0
C2035 C 0.36434 0.06451 0.11858 0.0
C2036 C 0.35028 0.1244 0.14678 0.0
C2037 C 0.36659 0.16213 0.12669 0.0
N2038 N 0.3547 0.0839 0.12412 0.0
N2039 N 0.36322 0.14333 0.1149 0.0
H2040 H 0.18081 0.85214 0.12847 0.0
H2041 H 0.06522 0.81839 0.07581 0.0
H2042 H 0.16884 0.7988 0.08284 0.0
H2043 H 0.07851 0.8871 0.08825 0.0
H2044 H 0.10146 0.80913 0.09045 0.0
H2045 H 0.14237 0.86463 0.12253 0.0
C2046 C 0.17026 0.84327 0.11707 0.0
C2047 C 0.17789 0.82426 0.10632 0.0
C2048 C 0.09637 0.82624 0.09036 0.0
C2049 C 0.13437 0.83788 0.10014 0.0
C2050 C 0.07563 0.83146 0.08225 0.0
C2051 C 0.0691 0.85346 0.08081 0.0
C2052 C 0.11088 0.84319 0.09665 0.0
C2053 C 0.08312 0.8699 0.08926 0.0
C2054 C 0.1484 0.85028 0.11386 0.0
C2055 C 0.16362 0.81331 0.09177 0.0
N2056 N 0.10372 0.86448 0.09651 0.0
N2057 N 0.14259 0.82014 0.08931 0.0
H2058 H 0.3925 0.92997 0.37035 0.0
H2059 H 0.42977 0.80927 0.33677 0.0
H2060 H 0.43818 0.91336 0.31864 0.0
H2061 H 0.36254 0.81972 0.35685 0.0
H2062 H 0.43735 0.84835 0.34248 0.0
H2063 H 0.38344 0.89042 0.37417 0.0
C2064 C 0.40023 0.91813 0.35952 0.0
C2065 C 0.41622 0.9249 0.34424 0.0
C2066 C 0.42105 0.84202 0.34616 0.0
C2067 C 0.40677 0.88016 0.34925 0.0
C2068 C 0.41684 0.81972 0.34324 0.0
C2069 C 0.39553 0.81148 0.34626 0.0
C2070 C 0.40372 0.85619 0.35181 0.0
C2071 C 0.37923 0.82561 0.35448 0.0
C2072 C 0.39527 0.89566 0.36192 0.0
C2073 C 0.42592 0.90891 0.33077 0.0
N2074 N 0.38351 0.84759 0.35655 0.0
N2075 N 0.42127 0.88733 0.33381 0.0
H2076 H 0.41728 0.09256 0.59032 0.0
H2077 H 0.34811 0.18746 0.64472 0.0
H2078 H 0.4415 0.15725 0.60697 0.0
H2079 H 0.31969 0.12841 0.61704 0.0
H2080 H 0.38429 0.17014 0.6444 0.0
H2081 H 0.38456 0.0992 0.61297 0.0
C2082 C 0.4161 0.10777 0.5996 0.0
C2083 C 0.43186 0.12445 0.59695 0.0
C2084 C 0.37014 0.16074 0.63878 0.0
C2085 C 0.39455 0.13238 0.62213 0.0
C2086 C 0.34952 0.17062 0.63892 0.0
C2087 C 0.33117 0.15947 0.63031 0.0
C2088 C 0.37251 0.13978 0.62935 0.0
C2089 C 0.33362 0.13759 0.62348 0.0
C2090 C 0.3974 0.11162 0.61233 0.0
C2091 C 0.42961 0.14403 0.60879 0.0
N2092 N 0.35414 0.12858 0.62257 0.0
N2093 N 0.41105 0.14762 0.62063 0.0
H2094 H 0.12442 0.1502 0.79437 0.0
H2095 H 0.07883 0.08793 0.89403 0.0
H2096 H 0.10913 0.18421 0.85473 0.0
H2097 H 0.11608 0.05573 0.8432 0.0
H2098 H 0.09614 0.12298 0.88435 0.0
H2099 H 0.12717 0.11578 0.81461 0.0
C2100 C 0.12173 0.15038 0.81199 0.0
C2101 C 0.11593 0.16987 0.82287 0.0
C2102 C 0.10122 0.10817 0.87582 0.0
C2103 C 0.11895 0.13045 0.84621 0.0
C2104 C 0.09144 0.08817 0.88144 0.0
C2105 C 0.09606 0.06917 0.86925 0.0
C2106 C 0.11502 0.10913 0.85735 0.0
C2107 C 0.11221 0.07015 0.85295 0.0
C2108 C 0.12357 0.13075 0.8236 0.0
C2109 C 0.11324 0.16938 0.84575 0.0
N2110 N 0.12071 0.09001 0.84702 0.0
N2111 N 0.11424 0.1498 0.85665 0.0
H2112 H 0.13159 0.37904 0.17888 0.0
H2113 H 0.14214 0.37836 0.04864 0.0
H2114 H 0.18956 0.36241 0.14161 0.0
H2115 H 0.09756 0.41967 0.08503 0.0
H2116 H 0.14924 0.35708 0.08229 0.0
H2117 H 0.11007 0.37935 0.14434 0.0
C2118 C 0.13961 0.37503 0.16349 0.0
C2119 C 0.16238 0.37142 0.16277 0.0
C2120 C 0.13723 0.37027 0.08267 0.0
C2121 C 0.1381 0.37109 0.1238 0.0
C2122 C 0.13308 0.38225 0.06348 0.0
C2123 C 0.11962 0.40089 0.06442 0.0
C2124 C 0.12783 0.37719 0.10265 0.0
C2125 C 0.10835 0.40551 0.08395 0.0
C2126 C 0.12739 0.37508 0.14391 0.0
C2127 C 0.1721 0.36596 0.14263 0.0
N2128 N 0.11304 0.39401 0.1025 0.0
N2129 N 0.15996 0.36618 0.12389 0.0
H2130 H 0.6288 0.15183 0.80993 0.0
H2131 H 0.66227 0.09779 0.91244 0.0
H2132 H 0.63311 0.081 0.81207 0.0
H2133 H 0.59212 0.10575 0.92013 0.0
H2134 H 0.65915 0.11189 0.8748 0.0
H2135 H 0.61954 0.152 0.84942 0.0
C2136 C 0.62647 0.13629 0.81841 0.0
C2137 C 0.63159 0.11632 0.80795 0.0
C2138 C 0.64461 0.11136 0.88511 0.0
C2139 C 0.62144 0.1165 0.85242 0.0
C2140 C 0.64639 0.10346 0.9065 0.0
C2141 C 0.62743 0.10071 0.91921 0.0
C2142 C 0.62372 0.11598 0.87636 0.0
C2143 C 0.6071 0.1079 0.91073 0.0
C2144 C 0.62142 0.13645 0.84085 0.0
C2145 C 0.62912 0.09665 0.81964 0.0
N2146 N 0.60559 0.11455 0.88938 0.0
N2147 N 0.62468 0.09724 0.84146 0.0
H2148 H 0.84764 0.85579 0.31306 0.0
H2149 H 0.81914 0.90712 0.42928 0.0
H2150 H 0.80179 0.90864 0.32545 0.0
H2151 H 0.88744 0.893 0.41621 0.0
H2152 H 0.80953 0.89423 0.39249 0.0
H2153 H 0.86115 0.8594 0.35149 0.0
C2154 C 0.84073 0.86832 0.32368 0.0
C2155 C 0.82338 0.88175 0.31624 0.0
C2156 C 0.82659 0.8935 0.39779 0.0
C2157 C 0.83803 0.88533 0.35966 0.0
C2158 C 0.83201 0.90063 0.4188 0.0
C2159 C 0.85404 0.90113 0.42555 0.0
C2160 C 0.84337 0.88725 0.38326 0.0
C2161 C 0.87023 0.89269 0.41142 0.0
C2162 C 0.84828 0.87021 0.34551 0.0
C2163 C 0.81488 0.89766 0.33058 0.0
N2164 N 0.86464 0.88642 0.39056 0.0
N2165 N 0.82208 0.8988 0.35159 0.0
H2166 H 0.85896 0.13727 0.17996 0.0
H2167 H 0.82876 0.10084 0.06217 0.0
H2168 H 0.82435 0.07687 0.1647 0.0
H2169 H 0.89891 0.09772 0.07297 0.0
H2170 H 0.8239 0.11187 0.10058 0.0
H2171 H 0.87245 0.13847 0.14157 0.0
C2172 C 0.8548 0.12396 0.16878 0.0
C2173 C 0.84035 0.10705 0.17531 0.0
C2174 C 0.84043 0.10973 0.09423 0.0
C2175 C 0.85494 0.10879 0.13203 0.0
C2176 C 0.8432 0.10367 0.07237 0.0
C2177 C 0.86423 0.09862 0.06459 0.0
C2178 C 0.85878 0.11038 0.10832 0.0
C2179 C 0.88248 0.10182 0.07852 0.0
C2180 C 0.86229 0.12482 0.14698 0.0
C2181 C 0.8352 0.09034 0.16023 0.0
N2182 N 0.87932 0.10699 0.10008 0.0
N2183 N 0.84214 0.09186 0.13917 0.0
H2184 H 0.38175 0.54618 0.59183 0.0
H2185 H 0.34953 0.64931 0.65782 0.0
H2186 H 0.37605 0.61061 0.56244 0.0
H2187 H 0.36616 0.58697 0.68718 0.0
H2188 H 0.37062 0.63932 0.62517 0.0
H2189 H 0.38653 0.56323 0.62774 0.0
C2190 C 0.38152 0.564 0.59301 0.0
C2191 C 0.37768 0.57705 0.57439 0.0
C2192 C 0.3705 0.62814 0.63907 0.0
C2193 C 0.38294 0.59678 0.6155 0.0
C2194 C 0.35868 0.63399 0.6578 0.0
C2195 C 0.35607 0.61878 0.67491 0.0
C2196 C 0.37903 0.6067 0.6374 0.0
C2197 C 0.36784 0.59904 0.67416 0.0
C2198 C 0.38453 0.57377 0.61349 0.0
C2199 C 0.37841 0.60002 0.5766 0.0
N2200 N 0.37834 0.59325 0.65537 0.0
N2201 N 0.38037 0.6092 0.59695 0.0
H2202 H 0.12036 0.58421 0.30303 0.0
H2203 H 0.11918 0.60806 0.43162 0.0
H2204 H 0.14085 0.64618 0.33101 0.0
H2205 H 0.12309 0.54468 0.3996 0.0
H2206 H 0.11337 0.62534 0.39524 0.0
H2207 H 0.10448 0.57382 0.33846 0.0
C2208 C 0.12034 0.59614 0.31631 0.0
C2209 C 0.13198 0.61594 0.31433 0.0
C2210 C 0.1152 0.60762 0.39638 0.0
C2211 C 0.11518 0.60381 0.35502 0.0
C2212 C 0.11873 0.59784 0.41701 0.0
C2213 C 0.1223 0.57506 0.41846 0.0
C2214 C 0.11468 0.59433 0.3774 0.0
C2215 C 0.12109 0.56241 0.39917 0.0
C2216 C 0.11166 0.59009 0.33665 0.0
C2217 C 0.13197 0.63071 0.33209 0.0
N2218 N 0.11747 0.57221 0.3795 0.0
N2219 N 0.12431 0.62409 0.35201 0.0
H2220 H 0.33003 0.3856 0.93759 0.0
H2221 H 0.35496 0.39639 0.81469 0.0
H2222 H 0.39381 0.40725 0.91531 0.0
H2223 H 0.30522 0.35218 0.83945 0.0
H2224 H 0.37354 0.39516 0.85071 0.0
H2225 H 0.32415 0.36703 0.90236 0.0
C2226 C 0.34308 0.38569 0.92546 0.0
C2227 C 0.36235 0.39779 0.92905 0.0
C2228 C 0.35896 0.38515 0.84805 0.0
C2229 C 0.35547 0.3778 0.88851 0.0
C2230 C 0.34842 0.38592 0.82756 0.0
C2231 C 0.32849 0.37469 0.82457 0.0
C2232 C 0.3491 0.37338 0.86544 0.0
C2233 C 0.32045 0.36134 0.84151 0.0
C2234 C 0.33977 0.37521 0.90533 0.0
C2235 C 0.37875 0.39789 0.91291 0.0
N2236 N 0.33056 0.36135 0.8614 0.0
N2237 N 0.37471 0.38854 0.89299 0.0
H2238 H 0.59304 0.59556 0.93118 0.0
H2239 H 0.64633 0.67031 0.84542 0.0
H2240 H 0.55502 0.62137 0.87695 0.0
H2241 H 0.68459 0.62132 0.87972 0.0
H2242 H 0.61291 0.64912 0.85276 0.0
H2243 H 0.62664 0.60058 0.90981 0.0
C2244 C 0.59179 0.60192 0.91455 0.0
C2245 C 0.57141 0.6085 0.90588 0.0
C2246 C 0.62864 0.64259 0.85816 0.0
C2247 C 0.60973 0.61467 0.88154 0.0
C2248 C 0.64767 0.65472 0.85403 0.0
C2249 C 0.66803 0.64757 0.86227 0.0
C2250 C 0.62994 0.62364 0.87132 0.0
C2251 C 0.66909 0.62732 0.87321 0.0
C2252 C 0.61095 0.60464 0.9023 0.0
C2253 C 0.57053 0.61632 0.88422 0.0
N2254 N 0.65014 0.61629 0.878 0.0
N2255 N 0.58956 0.61977 0.87294 0.0
H2256 H 0.61873 0.33902 0.20843 0.0
H2257 H 0.59558 0.4107 0.1051 0.0
H2258 H 0.62158 0.312 0.14282 0.0
H2259 H 0.60837 0.43743 0.16952 0.0
H2260 H 0.61312 0.37617 0.11624 0.0
H2261 H 0.62156 0.37589 0.19326 0.0
C2262 C 0.61988 0.3409 0.19074 0.0
C2263 C 0.61929 0.32251 0.17678 0.0
C2264 C 0.61295 0.38985 0.1277 0.0
C2265 C 0.62255 0.36487 0.15917 0.0
C2266 C 0.60322 0.40965 0.12122 0.0
C2267 C 0.60066 0.42675 0.13648 0.0
C2268 C 0.61955 0.38718 0.14971 0.0
C2269 C 0.61023 0.42456 0.1573 0.0
C2270 C 0.62179 0.36199 0.18207 0.0
C2271 C 0.62155 0.32584 0.15407 0.0
N2272 N 0.6188 0.40488 0.16353 0.0
N2273 N 0.62261 0.34672 0.14588 0.0
H2274 H 0.81891 0.33976 0.33265 0.0
H2275 H 0.92396 0.34059 0.36387 0.0
H2276 H 0.8168 0.36929 0.39705 0.0
H2277 H 0.91463 0.40578 0.39016 0.0
H2278 H 0.88761 0.34263 0.34656 0.0
H2279 H 0.85497 0.35704 0.32643 0.0
C2280 C 0.82556 0.35087 0.34499 0.0
C2281 C 0.81514 0.35315 0.3654 0.0
C2282 C 0.89393 0.35702 0.35509 0.0
C2283 C 0.85621 0.37228 0.3587 0.0
C2284 C 0.91471 0.35581 0.36491 0.0
C2285 C 0.92213 0.37308 0.37826 0.0
C2286 C 0.88028 0.37518 0.35964 0.0
C2287 C 0.90936 0.39223 0.37976 0.0
C2288 C 0.84615 0.36051 0.3415 0.0
C2289 C 0.82444 0.36725 0.3811 0.0
N2290 N 0.8886 0.39245 0.37133 0.0
N2291 N 0.84474 0.37604 0.37757 0.0
H2292 H 0.92585 0.67658 0.65788 0.0
H2293 H 0.88135 0.56244 0.61145 0.0
H2294 H 0.8556 0.6679 0.65135 0.0
H2295 H 0.93519 0.5719 0.65727 0.0
H2296 H 0.87229 0.60208 0.61518 0.0
H2297 H 0.93132 0.63974 0.64275 0.0
C2298 C 0.91163 0.66712 0.65247 0.0
C2299 C 0.89031 0.675 0.65587 0.0
C2300 C 0.88598 0.59522 0.62438 0.0
C2301 C 0.89631 0.63269 0.63966 0.0
C2302 C 0.891 0.5727 0.62248 0.0
C2303 C 0.90916 0.56397 0.63394 0.0
C2304 C 0.89957 0.60876 0.63742 0.0
C2305 C 0.92124 0.57792 0.64788 0.0
C2306 C 0.9147 0.64609 0.64411 0.0
C2307 C 0.8723 0.6622 0.64881 0.0
N2308 N 0.91639 0.59959 0.649 0.0
N2309 N 0.87565 0.64125 0.64145 0.0
H2310 H 0.57053 0.40606 0.57379 0.0
H2311 H 0.67237 0.36432 0.57921 0.0
H2312 H 0.55851 0.34745 0.61194 0.0
H2313 H 0.66015 0.34682 0.64676 0.0
H2314 H 0.63656 0.38269 0.57777 0.0
H2315 H 0.60777 0.40832 0.58934 0.0
C2316 C 0.57551 0.3942 0.58618 0.0
C2317 C 0.56175 0.37644 0.59157 0.0
C2318 C 0.64207 0.37572 0.59325 0.0
C2319 C 0.60422 0.37842 0.60859 0.0
C2320 C 0.66247 0.36525 0.59399 0.0
C2321 C 0.66907 0.35441 0.61317 0.0
C2322 C 0.62797 0.37446 0.61154 0.0
C2323 C 0.65553 0.35537 0.63179 0.0
C2324 C 0.59674 0.3954 0.59485 0.0
C2325 C 0.56879 0.36135 0.60747 0.0
N2326 N 0.63519 0.36458 0.63032 0.0
N2327 N 0.58987 0.36241 0.61516 0.0
H2328 H 0.8563 0.32628 0.85086 0.0
H2329 H 0.96115 0.40546 0.84915 0.0
H2330 H 0.92159 0.30765 0.83051 0.0
H2331 H 0.89707 0.42831 0.86963 0.0
H2332 H 0.94715 0.36822 0.84762 0.0
H2333 H 0.87113 0.3618 0.86403 0.0
C2334 C 0.87388 0.32937 0.85 0.0
C2335 C 0.88788 0.31419 0.83976 0.0
C2336 C 0.93602 0.38124 0.85252 0.0
C2337 C 0.90471 0.35457 0.85404 0.0
C2338 C 0.94401 0.40266 0.85326 0.0
C2339 C 0.93016 0.42013 0.8592 0.0
C2340 C 0.91384 0.37703 0.85746 0.0
C2341 C 0.90821 0.41532 0.86472 0.0
C2342 C 0.88227 0.34969 0.85723 0.0
C2343 C 0.91036 0.319 0.83843 0.0
N2344 N 0.9006 0.39416 0.86348 0.0
N2345 N 0.91804 0.33883 0.84528 0.0
H2346 H 0.81135 0.63786 0.07172 0.0
H2347 H 0.91098 0.58657 0.08245 0.0
H2348 H 0.81329 0.64608 0.14214 0.0
H2349 H 0.91927 0.65131 0.11044 0.0
H2350 H 0.87229 0.58664 0.09423 0.0
H2351 H 0.84728 0.61944 0.07348 0.0
C2352 C 0.81898 0.63492 0.08761 0.0
C2353 C 0.80943 0.64307 0.10684 0.0
C2354 C 0.88293 0.60031 0.09869 0.0
C2355 C 0.85054 0.62314 0.10887 0.0
C2356 C 0.90493 0.60025 0.09215 0.0
C2357 C 0.91809 0.61894 0.09564 0.0
C2358 C 0.87435 0.61916 0.10881 0.0
C2359 C 0.90953 0.63656 0.1077 0.0
C2360 C 0.83937 0.62447 0.08863 0.0
C2361 C 0.82015 0.63959 0.12704 0.0
N2362 N 0.88795 0.63641 0.11362 0.0
N2363 N 0.84064 0.63056 0.12749 0.0
H2364 H 0.65272 0.65534 0.31941 0.0
H2365 H 0.58576 0.58403 0.40432 0.0
H2366 H 0.60948 0.68218 0.36863 0.0
H2367 H 0.61141 0.56186 0.34217 0.0
H2368 H 0.60825 0.61761 0.40139 0.0
H2369 H 0.65229 0.61997 0.33853 0.0
C2370 C 0.6437 0.65389 0.33471 0.0
C2371 C 0.63073 0.67133 0.34233 0.0
C2372 C 0.6096 0.60501 0.38883 0.0
C2373 C 0.62954 0.63094 0.36375 0.0
C2374 C 0.59691 0.58587 0.39054 0.0
C2375 C 0.59688 0.57045 0.37339 0.0
C2376 C 0.62211 0.60856 0.36977 0.0
C2377 C 0.61114 0.57351 0.35568 0.0
C2378 C 0.64342 0.63374 0.34557 0.0
C2379 C 0.61949 0.66891 0.36223 0.0
N2380 N 0.623 0.59243 0.35416 0.0
N2381 N 0.61862 0.64875 0.37202 0.0
H2382 H 0.59181 0.9145 0.57221 0.0
H2383 H 0.68368 0.85879 0.63858 0.0
H2384 H 0.63908 0.87106 0.54235 0.0
H2385 H 0.62459 0.88204 0.67006 0.0
H2386 H 0.66414 0.85731 0.60356 0.0
H2387 H 0.59836 0.89682 0.60772 0.0
C2388 C 0.60294 0.90058 0.57307 0.0
C2389 C 0.61511 0.89424 0.55459 0.0
C2390 C 0.65521 0.86238 0.6181 0.0
C2391 C 0.62345 0.87467 0.59512 0.0
C2392 C 0.66644 0.86345 0.63804 0.0
C2393 C 0.65579 0.87111 0.65694 0.0
C2394 C 0.63334 0.86976 0.61689 0.0
C2395 C 0.63338 0.87639 0.65565 0.0
C2396 C 0.60676 0.89055 0.59333 0.0
C2397 C 0.62943 0.87633 0.55634 0.0
N2398 N 0.62297 0.87619 0.63575 0.0
N2399 N 0.6337 0.86752 0.57648 0.0
loop_
_geom_bond_atom_site_label_1
_geom_bond_atom_site_label_2
_geom_bond_distance
_geom_bond_site_symmetry_2
_ccdc_geom_bond_type
Co0 O1 2.216 . S
Co0 O2 2.091 . S
Co0 O4 2.004 . S
Co0 O10 2.021 . S
Co0 O12 2.137 . S
Co0 O13 2.244 . S
O1 Co0 2.216 . S
O1 C8 1.247 . S
O2 Co0 2.091 . S
O2 C8 1.261 . S
C3 O12 1.247 . S
C3 O13 1.272 . S
O4 Co0 2.004 . S
O4 C9 1.259 . S
Co5 O6 2.061 . S
Co5 O11 2.052 . S
Co5 O13 2.135 . S
O6 Co5 2.061 . S
O6 C9 1.235 . S
C7 O10 1.238 . S
C7 O11 1.241 . S
C8 O1 1.247 . S
C8 O2 1.261 . S
C9 O4 1.259 . S
C9 O6 1.235 . S
O10 Co0 2.021 . S
O10 C7 1.238 . S
O11 Co5 2.052 . S
O11 C7 1.241 . S
O12 Co0 2.137 . S
O12 C3 1.247 . S
O13 Co0 2.244 . S
O13 C3 1.272 . S
O13 Co5 2.135 . S
Co14 O15 2.216 . S
Co14 O16 2.091 . S
Co14 O18 2.004 . S
Co14 O24 2.021 . S
Co14 O26 2.137 . S
Co14 O27 2.244 . S
O15 Co14 2.216 . S
O15 C22 1.247 . S
O16 Co14 2.091 . S
O16 C22 1.261 . S
C17 O26 1.247 . S
C17 O27 1.272 . S
O18 Co14 2.004 . S
O18 C23 1.259 1_565 S
Co19 O20 2.061 1_655 S
Co19 O25 2.052 1_655 S
Co19 O27 2.135 1_645 S
O20 Co19 2.061 1_455 S
O20 C23 1.235 . S
C21 O24 1.238 . S
C21 O25 1.241 1_565 S
C22 O15 1.247 . S
C22 O16 1.261 . S
C23 O18 1.259 1_545 S
C23 O20 1.235 . S
O24 Co14 2.021 . S
O24 C21 1.238 . S
O25 Co19 2.052 1_455 S
O25 C21 1.241 1_545 S
O26 Co14 2.137 . S
O26 C17 1.247 . S
O27 Co14 2.244 . S
O27 C17 1.272 . S
O27 Co19 2.135 1_465 S
Co28 O29 2.216 . S
Co28 O30 2.091 . S
Co28 O32 2.004 . S
Co28 O38 2.021 . S
Co28 O40 2.137 . S
Co28 O41 2.244 . S
O29 Co28 2.216 . S
O29 C36 1.247 . S
O30 Co28 2.091 . S
O30 C36 1.261 . S
C31 O40 1.247 . S
C31 O41 1.272 . S
O32 Co28 2.004 . S
O32 C37 1.259 . S
Co33 O34 2.061 . S
Co33 O39 2.052 . S
Co33 O41 2.135 . S
O34 Co33 2.061 . S
O34 C37 1.235 . S
C35 O38 1.238 . S
C35 O39 1.241 . S
C36 O29 1.247 . S
C36 O30 1.261 . S
C37 O32 1.259 . S
C37 O34 1.235 . S
O38 Co28 2.021 . S
O38 C35 1.238 . S
O39 Co33 2.052 . S
O39 C35 1.241 . S
O40 Co28 2.137 . S
O40 C31 1.247 . S
O41 Co28 2.244 . S
O41 C31 1.272 . S
O41 Co33 2.135 . S
Co42 O43 2.216 . S
Co42 O44 2.091 . S
Co42 O46 2.004 . S
Co42 O52 2.021 . S
Co42 O54 2.137 . S
Co42 O55 2.244 . S
O43 Co42 2.216 . S
O43 C50 1.247 . S
O44 Co42 2.091 . S
O44 C50 1.261 . S
C45 O54 1.247 . S
C45 O55 1.272 . S
O46 Co42 2.004 . S
O46 C51 1.259 1_545 S
Co47 O48 2.061 . S
Co47 O53 2.052 . S
Co47 O55 2.135 1_565 S
O48 Co47 2.061 . S
O48 C51 1.235 . S
C49 O52 1.238 . S
C49 O53 1.241 1_545 S
C50 O43 1.247 . S
C50 O44 1.261 . S
C51 O46 1.259 1_565 S
C51 O48 1.235 . S
O52 Co42 2.021 . S
O52 C49 1.238 . S
O53 Co47 2.052 . S
O53 C49 1.241 1_565 S
O54 Co42 2.137 . S
O54 C45 1.247 . S
O55 Co42 2.244 . S
O55 C45 1.272 . S
O55 Co47 2.135 1_545 S
Co56 O57 2.216 . S
Co56 O58 2.091 . S
Co56 O60 2.004 . S
Co56 O66 2.021 . S
Co56 O68 2.137 . S
Co56 O69 2.244 . S
O57 Co56 2.216 . S
O57 C64 1.247 . S
O58 Co56 2.091 . S
O58 C64 1.261 . S
C59 O68 1.247 . S
C59 O69 1.272 . S
O60 Co56 2.004 . S
O60 C65 1.259 . S
Co61 O62 2.061 . S
Co61 O67 2.052 . S
Co61 O69 2.135 . S
O62 Co61 2.061 . S
O62 C65 1.235 . S
C63 O66 1.238 . S
C63 O67 1.241 . S
C64 O57 1.247 . S
C64 O58 1.261 . S
C65 O60 1.259 . S
C65 O62 1.235 . S
O66 Co56 2.021 . S
O66 C63 1.238 . S
O67 Co61 2.052 . S
O67 C63 1.241 . S
O68 Co56 2.137 . S
O68 C59 1.247 . S
O69 Co56 2.244 . S
O69 C59 1.272 . S
O69 Co61 2.135 . S
Co70 O71 2.216 . S
Co70 O72 2.091 . S
Co70 O74 2.004 . S
Co70 O80 2.021 . S
Co70 O82 2.137 . S
Co70 O83 2.244 . S
O71 Co70 2.216 . S
O71 C78 1.247 . S
O72 Co70 2.091 . S
O72 C78 1.261 . S
C73 O82 1.247 . S
C73 O83 1.272 . S
O74 Co70 2.004 . S
O74 C79 1.259 1_565 S
Co75 O76 2.061 . S
Co75 O81 2.052 . S
Co75 O83 2.135 1_545 S
O76 Co75 2.061 . S
O76 C79 1.235 . S
C77 O80 1.238 . S
C77 O81 1.241 1_565 S
C78 O71 1.247 . S
C78 O72 1.261 . S
C79 O74 1.259 1_545 S
C79 O76 1.235 . S
O80 Co70 2.021 . S
O80 C77 1.238 . S
O81 Co75 2.052 . S
O81 C77 1.241 1_545 S
O82 Co70 2.137 . S
O82 C73 1.247 . S
O83 Co70 2.244 . S
O83 C73 1.272 . S
O83 Co75 2.135 1_565 S
Co84 O85 2.216 . S
Co84 O86 2.091 . S
Co84 O88 2.004 . S
Co84 O94 2.021 . S
Co84 O96 2.137 . S
Co84 O97 2.244 . S
O85 Co84 2.216 . S
O85 C92 1.247 . S
O86 Co84 2.091 . S
O86 C92 1.261 . S
C87 O96 1.247 . S
C87 O97 1.272 . S
O88 Co84 2.004 . S
O88 C93 1.259 . S
Co89 O90 2.061 . S
Co89 O95 2.052 . S
Co89 O97 2.135 . S
O90 Co89 2.061 . S
O90 C93 1.235 . S
C91 O94 1.238 . S
C91 O95 1.241 . S
C92 O85 1.247 . S
C92 O86 1.261 . S
C93 O88 1.259 . S
C93 O90 1.235 . S
O94 Co84 2.021 . S
O94 C91 1.238 . S
O95 Co89 2.052 . S
O95 C91 1.241 . S
O96 Co84 2.137 . S
O96 C87 1.247 . S
O97 Co84 2.244 . S
O97 C87 1.272 . S
O97 Co89 2.135 . S
Co98 O99 2.216 . S
Co98 O100 2.091 . S
Co98 O102 2.004 . S
Co98 O108 2.021 . S
Co98 O110 2.137 . S
Co98 O111 2.244 . S
O99 Co98 2.216 . S
O99 C106 1.247 . S
O100 Co98 2.091 . S
O100 C106 1.261 . S
C101 O110 1.247 . S
C101 O111 1.272 . S
O102 Co98 2.004 . S
O102 C107 1.259 1_545 S
Co103 O104 2.061 1_655 S
Co103 O109 2.052 1_655 S
Co103 O111 2.135 1_665 S
O104 Co103 2.061 1_455 S
O104 C107 1.235 . S
C105 O108 1.238 . S
C105 O109 1.241 1_545 S
C106 O99 1.247 . S
C106 O100 1.261 . S
C107 O102 1.259 1_565 S
C107 O104 1.235 . S
O108 Co98 2.021 . S
O108 C105 1.238 . S
O109 Co103 2.052 1_455 S
O109 C105 1.241 1_565 S
O110 Co98 2.137 . S
O110 C101 1.247 . S
O111 Co98 2.244 . S
O111 C101 1.272 . S
O111 Co103 2.135 1_445 S
Co112 O113 2.216 . S
Co112 O114 2.091 . S
Co112 O116 2.004 . S
Co112 O122 2.021 . S
Co112 O124 2.137 . S
Co112 O125 2.244 . S
O113 Co112 2.216 . S
O113 C120 1.247 . S
O114 Co112 2.091 . S
O114 C120 1.261 . S
C115 O124 1.247 . S
C115 O125 1.272 . S
O116 Co112 2.004 . S
O116 C121 1.259 . S
Co117 O118 2.061 . S
Co117 O123 2.052 . S
Co117 O125 2.135 . S
O118 Co117 2.061 . S
O118 C121 1.235 . S
C119 O122 1.238 . S
C119 O123 1.241 . S
C120 O113 1.247 . S
C120 O114 1.261 . S
C121 O116 1.259 . S
C121 O118 1.235 . S
O122 Co112 2.021 . S
O122 C119 1.238 . S
O123 Co117 2.052 . S
O123 C119 1.241 . S
O124 Co112 2.137 . S
O124 C115 1.247 . S
O125 Co112 2.244 . S
O125 C115 1.272 . S
O125 Co117 2.135 . S
Co126 O127 2.216 . S
Co126 O128 2.091 . S
Co126 O130 2.004 . S
Co126 O136 2.021 . S
Co126 O138 2.137 . S
Co126 O139 2.244 . S
O127 Co126 2.216 . S
O127 C134 1.247 . S
O128 Co126 2.091 . S
O128 C134 1.261 . S
C129 O138 1.247 . S
C129 O139 1.272 . S
O130 Co126 2.004 . S
O130 C135 1.259 1_455 S
Co131 O132 2.061 . S
Co131 O137 2.052 . S
Co131 O139 2.135 1_655 S
O132 Co131 2.061 . S
O132 C135 1.235 . S
C133 O136 1.238 . S
C133 O137 1.241 1_455 S
C134 O127 1.247 . S
C134 O128 1.261 . S
C135 O130 1.259 1_655 S
C135 O132 1.235 . S
O136 Co126 2.021 . S
O136 C133 1.238 . S
O137 Co131 2.052 . S
O137 C133 1.241 1_655 S
O138 Co126 2.137 . S
O138 C129 1.247 . S
O139 Co126 2.244 . S
O139 C129 1.272 . S
O139 Co131 2.135 1_455 S
Co140 O141 2.216 . S
Co140 O142 2.091 . S
Co140 O144 2.004 . S
Co140 O150 2.021 . S
Co140 O152 2.137 . S
Co140 O153 2.244 . S
O141 Co140 2.216 . S
O141 C148 1.247 . S
O142 Co140 2.091 . S
O142 C148 1.261 . S
C143 O152 1.247 . S
C143 O153 1.272 . S
O144 Co140 2.004 . S
O144 C149 1.259 . S
Co145 O146 2.061 . S
Co145 O151 2.052 . S
Co145 O153 2.135 . S
O146 Co145 2.061 . S
O146 C149 1.235 . S
C147 O150 1.238 . S
C147 O151 1.241 . S
C148 O141 1.247 . S
C148 O142 1.261 . S
C149 O144 1.259 . S
C149 O146 1.235 . S
O150 Co140 2.021 . S
O150 C147 1.238 . S
O151 Co145 2.052 . S
O151 C147 1.241 . S
O152 Co140 2.137 . S
O152 C143 1.247 . S
O153 Co140 2.244 . S
O153 C143 1.272 . S
O153 Co145 2.135 . S
Co154 O155 2.216 . S
Co154 O156 2.091 . S
Co154 O158 2.004 . S
Co154 O164 2.021 . S
Co154 O166 2.137 . S
Co154 O167 2.244 . S
O155 Co154 2.216 . S
O155 C162 1.247 . S
O156 Co154 2.091 . S
O156 C162 1.261 . S
C157 O166 1.247 . S
C157 O167 1.272 . S
O158 Co154 2.004 . S
O158 C163 1.259 . S
Co159 O160 2.061 1_554 S
Co159 O165 2.052 1_554 S
Co159 O167 2.135 1_554 S
O160 Co159 2.061 1_556 S
O160 C163 1.235 . S
C161 O164 1.238 . S
C161 O165 1.241 . S
C162 O155 1.247 . S
C162 O156 1.261 . S
C163 O158 1.259 . S
C163 O160 1.235 . S
O164 Co154 2.021 . S
O164 C161 1.238 . S
O165 Co159 2.052 1_556 S
O165 C161 1.241 . S
O166 Co154 2.137 . S
O166 C157 1.247 . S
O167 Co154 2.244 . S
O167 C157 1.272 . S
O167 Co159 2.135 1_556 S
Co168 O169 2.216 . S
Co168 O170 2.091 . S
Co168 O172 2.004 . S
Co168 O178 2.021 . S
Co168 O180 2.137 . S
Co168 O181 2.244 . S
O169 Co168 2.216 . S
O169 C176 1.247 . S
O170 Co168 2.091 . S
O170 C176 1.261 . S
C171 O180 1.247 . S
C171 O181 1.272 . S
O172 Co168 2.004 . S
O172 C177 1.259 . S
Co173 O174 2.061 . S
Co173 O179 2.052 . S
Co173 O181 2.135 . S
O174 Co173 2.061 . S
O174 C177 1.235 . S
C175 O178 1.238 . S
C175 O179 1.241 . S
C176 O169 1.247 . S
C176 O170 1.261 . S
C177 O172 1.259 . S
C177 O174 1.235 . S
O178 Co168 2.021 . S
O178 C175 1.238 . S
O179 Co173 2.052 . S
O179 C175 1.241 . S
O180 Co168 2.137 . S
O180 C171 1.247 . S
O181 Co168 2.244 . S
O181 C171 1.272 . S
O181 Co173 2.135 . S
Co182 O183 2.216 . S
Co182 O184 2.091 . S
Co182 O186 2.004 . S
Co182 O192 2.021 . S
Co182 O194 2.137 . S
Co182 O195 2.244 . S
O183 Co182 2.216 . S
O183 C190 1.247 . S
O184 Co182 2.091 . S
O184 C190 1.261 . S
C185 O194 1.247 . S
C185 O195 1.272 . S
O186 Co182 2.004 . S
O186 C191 1.259 . S
Co187 O188 2.061 . S
Co187 O193 2.052 . S
Co187 O195 2.135 . S
O188 Co187 2.061 . S
O188 C191 1.235 . S
C189 O192 1.238 . S
C189 O193 1.241 . S
C190 O183 1.247 . S
C190 O184 1.261 . S
C191 O186 1.259 . S
C191 O188 1.235 . S
O192 Co182 2.021 . S
O192 C189 1.238 . S
O193 Co187 2.052 . S
O193 C189 1.241 . S
O194 Co182 2.137 . S
O194 C185 1.247 . S
O195 Co182 2.244 . S
O195 C185 1.272 . S
O195 Co187 2.135 . S
Co196 O197 2.216 . S
Co196 O198 2.091 . S
Co196 O200 2.004 . S
Co196 O206 2.021 . S
Co196 O208 2.137 . S
Co196 O209 2.244 . S
O197 Co196 2.216 . S
O197 C204 1.247 . S
O198 Co196 2.091 . S
O198 C204 1.261 . S
C199 O208 1.247 . S
C199 O209 1.272 . S
O200 Co196 2.004 . S
O200 C205 1.259 . S
Co201 O202 2.061 . S
Co201 O207 2.052 . S
Co201 O209 2.135 . S
O202 Co201 2.061 . S
O202 C205 1.235 . S
C203 O206 1.238 . S
C203 O207 1.241 . S
C204 O197 1.247 . S
C204 O198 1.261 . S
C205 O200 1.259 . S
C205 O202 1.235 . S
O206 Co196 2.021 . S
O206 C203 1.238 . S
O207 Co201 2.052 . S
O207 C203 1.241 . S
O208 Co196 2.137 . S
O208 C199 1.247 . S
O209 Co196 2.244 . S
O209 C199 1.272 . S
O209 Co201 2.135 . S
Co210 O211 2.216 . S
Co210 O212 2.091 . S
Co210 O214 2.004 . S
Co210 O220 2.021 . S
Co210 O222 2.137 . S
Co210 O223 2.244 . S
O211 Co210 2.216 . S
O211 C218 1.247 . S
O212 Co210 2.091 . S
O212 C218 1.261 . S
C213 O222 1.247 . S
C213 O223 1.272 . S
O214 Co210 2.004 . S
O214 C219 1.259 1_455 S
Co215 O216 2.061 1_556 S
Co215 O221 2.052 1_556 S
Co215 O223 2.135 1_656 S
O216 Co215 2.061 1_554 S
O216 C219 1.235 . S
C217 O220 1.238 . S
C217 O221 1.241 1_455 S
C218 O211 1.247 . S
C218 O212 1.261 . S
C219 O214 1.259 1_655 S
C219 O216 1.235 . S
O220 Co210 2.021 . S
O220 C217 1.238 . S
O221 Co215 2.052 1_554 S
O221 C217 1.241 1_655 S
O222 Co210 2.137 . S
O222 C213 1.247 . S
O223 Co210 2.244 . S
O223 C213 1.272 . S
O223 Co215 2.135 1_454 S
Co224 O225 2.216 . S
Co224 O226 2.091 . S
Co224 O228 2.004 . S
Co224 O234 2.021 . S
Co224 O236 2.137 . S
Co224 O237 2.244 . S
O225 Co224 2.216 . S
O225 C232 1.247 . S
O226 Co224 2.091 . S
O226 C232 1.261 . S
C227 O236 1.247 . S
C227 O237 1.272 . S
O228 Co224 2.004 . S
O228 C233 1.259 . S
Co229 O230 2.061 . S
Co229 O235 2.052 . S
Co229 O237 2.135 . S
O230 Co229 2.061 . S
O230 C233 1.235 . S
C231 O234 1.238 . S
C231 O235 1.241 . S
C232 O225 1.247 . S
C232 O226 1.261 . S
C233 O228 1.259 . S
C233 O230 1.235 . S
O234 Co224 2.021 . S
O234 C231 1.238 . S
O235 Co229 2.052 . S
O235 C231 1.241 . S
O236 Co224 2.137 . S
O236 C227 1.247 . S
O237 Co224 2.244 . S
O237 C227 1.272 . S
O237 Co229 2.135 . S
Co238 O239 2.216 . S
Co238 O240 2.091 . S
Co238 O242 2.004 . S
Co238 O248 2.021 . S
Co238 O250 2.137 . S
Co238 O251 2.244 . S
O239 Co238 2.216 . S
O239 C246 1.247 . S
O240 Co238 2.091 . S
O240 C246 1.261 . S
C241 O250 1.247 . S
C241 O251 1.272 . S
O242 Co238 2.004 . S
O242 C247 1.259 . S
Co243 O244 2.061 . S
Co243 O249 2.052 . S
Co243 O251 2.135 . S
O244 Co243 2.061 . S
O244 C247 1.235 . S
C245 O248 1.238 . S
C245 O249 1.241 . S
C246 O239 1.247 . S
C246 O240 1.261 . S
C247 O242 1.259 . S
C247 O244 1.235 . S
O248 Co238 2.021 . S
O248 C245 1.238 . S
O249 Co243 2.052 . S
O249 C245 1.241 . S
O250 Co238 2.137 . S
O250 C241 1.247 . S
O251 Co238 2.244 . S
O251 C241 1.272 . S
O251 Co243 2.135 . S
Co252 O253 2.216 . S
Co252 O254 2.091 . S
Co252 O256 2.004 . S
Co252 O262 2.021 . S
Co252 O264 2.137 . S
Co252 O265 2.244 . S
O253 Co252 2.216 . S
O253 C260 1.247 . S
O254 Co252 2.091 . S
O254 C260 1.261 . S
C255 O264 1.247 . S
C255 O265 1.272 . S
O256 Co252 2.004 . S
O256 C261 1.259 1_554 S
Co257 O258 2.061 . S
Co257 O263 2.052 . S
Co257 O265 2.135 1_556 S
O258 Co257 2.061 . S
O258 C261 1.235 . S
C259 O262 1.238 . S
C259 O263 1.241 1_554 S
C260 O253 1.247 . S
C260 O254 1.261 . S
C261 O256 1.259 1_556 S
C261 O258 1.235 . S
O262 Co252 2.021 . S
O262 C259 1.238 . S
O263 Co257 2.052 . S
O263 C259 1.241 1_556 S
O264 Co252 2.137 . S
O264 C255 1.247 . S
O265 Co252 2.244 . S
O265 C255 1.272 . S
O265 Co257 2.135 1_554 S
Co266 O267 2.216 . S
Co266 O268 2.091 . S
Co266 O270 2.004 . S
Co266 O276 2.021 . S
Co266 O278 2.137 . S
Co266 O279 2.244 . S
O267 Co266 2.216 . S
O267 C274 1.247 . S
O268 Co266 2.091 . S
O268 C274 1.261 . S
C269 O278 1.247 . S
C269 O279 1.272 . S
O270 Co266 2.004 . S
O270 C275 1.259 . S
Co271 O272 2.061 . S
Co271 O277 2.052 . S
Co271 O279 2.135 . S
O272 Co271 2.061 . S
O272 C275 1.235 . S
C273 O276 1.238 . S
C273 O277 1.241 . S
C274 O267 1.247 . S
C274 O268 1.261 . S
C275 O270 1.259 . S
C275 O272 1.235 . S
O276 Co266 2.021 . S
O276 C273 1.238 . S
O277 Co271 2.052 . S
O277 C273 1.241 . S
O278 Co266 2.137 . S
O278 C269 1.247 . S
O279 Co266 2.244 . S
O279 C269 1.272 . S
O279 Co271 2.135 . S
Co280 O281 2.216 . S
Co280 O282 2.091 . S
Co280 O284 2.004 . S
Co280 O290 2.021 . S
Co280 O292 2.137 . S
Co280 O293 2.244 . S
O281 Co280 2.216 . S
O281 C288 1.247 . S
O282 Co280 2.091 . S
O282 C288 1.261 . S
C283 O292 1.247 . S
C283 O293 1.272 . S
O284 Co280 2.004 . S
O284 C289 1.259 1_554 S
Co285 O286 2.061 1_565 S
Co285 O291 2.052 1_565 S
Co285 O293 2.135 1_566 S
O286 Co285 2.061 1_545 S
O286 C289 1.235 . S
C287 O290 1.238 . S
C287 O291 1.241 1_554 S
C288 O281 1.247 . S
C288 O282 1.261 . S
C289 O284 1.259 1_556 S
C289 O286 1.235 . S
O290 Co280 2.021 . S
O290 C287 1.238 . S
O291 Co285 2.052 1_545 S
O291 C287 1.241 1_556 S
O292 Co280 2.137 . S
O292 C283 1.247 . S
O293 Co280 2.244 . S
O293 C283 1.272 . S
O293 Co285 2.135 1_544 S
Co294 O295 2.216 . S
Co294 O296 2.091 . S
Co294 O298 2.004 . S
Co294 O304 2.021 . S
Co294 O306 2.137 . S
Co294 O307 2.244 . S
O295 Co294 2.216 . S
O295 C302 1.247 . S
O296 Co294 2.091 . S
O296 C302 1.261 . S
C297 O306 1.247 . S
C297 O307 1.272 . S
O298 Co294 2.004 . S
O298 C303 1.259 . S
Co299 O300 2.061 . S
Co299 O305 2.052 . S
Co299 O307 2.135 . S
O300 Co299 2.061 . S
O300 C303 1.235 . S
C301 O304 1.238 . S
C301 O305 1.241 . S
C302 O295 1.247 . S
C302 O296 1.261 . S
C303 O298 1.259 . S
C303 O300 1.235 . S
O304 Co294 2.021 . S
O304 C301 1.238 . S
O305 Co299 2.052 . S
O305 C301 1.241 . S
O306 Co294 2.137 . S
O306 C297 1.247 . S
O307 Co294 2.244 . S
O307 C297 1.272 . S
O307 Co299 2.135 . S
Co308 O309 2.216 . S
Co308 O310 2.091 . S
Co308 O312 2.004 . S
Co308 O318 2.021 . S
Co308 O320 2.137 . S
Co308 O321 2.244 . S
O309 Co308 2.216 . S
O309 C316 1.247 . S
O310 Co308 2.091 . S
O310 C316 1.261 . S
C311 O320 1.247 . S
C311 O321 1.272 . S
O312 Co308 2.004 . S
O312 C317 1.259 . S
Co313 O314 2.061 . S
Co313 O319 2.052 . S
Co313 O321 2.135 . S
O314 Co313 2.061 . S
O314 C317 1.235 . S
C315 O318 1.238 . S
C315 O319 1.241 . S
C316 O309 1.247 . S
C316 O310 1.261 . S
C317 O312 1.259 . S
C317 O314 1.235 . S
O318 Co308 2.021 . S
O318 C315 1.238 . S
O319 Co313 2.052 . S
O319 C315 1.241 . S
O320 Co308 2.137 . S
O320 C311 1.247 . S
O321 Co308 2.244 . S
O321 C311 1.272 . S
O321 Co313 2.135 . S
Co322 O323 2.216 . S
Co322 O324 2.091 . S
Co322 O326 2.004 . S
Co322 O332 2.021 . S
Co322 O334 2.137 . S
Co322 O335 2.244 . S
O323 Co322 2.216 . S
O323 C330 1.247 . S
O324 Co322 2.091 . S
O324 C330 1.261 . S
C325 O334 1.247 . S
C325 O335 1.272 . S
O326 Co322 2.004 . S
O326 C331 1.259 1_556 S
Co327 O328 2.061 . S
Co327 O333 2.052 . S
Co327 O335 2.135 1_554 S
O328 Co327 2.061 . S
O328 C331 1.235 . S
C329 O332 1.238 . S
C329 O333 1.241 1_556 S
C330 O323 1.247 . S
C330 O324 1.261 . S
C331 O326 1.259 1_554 S
C331 O328 1.235 . S
O332 Co322 2.021 . S
O332 C329 1.238 . S
O333 Co327 2.052 . S
O333 C329 1.241 1_554 S
O334 Co322 2.137 . S
O334 C325 1.247 . S
O335 Co322 2.244 . S
O335 C325 1.272 . S
O335 Co327 2.135 1_556 S
Co336 O337 2.216 . S
Co336 O338 2.091 . S
Co336 O340 2.004 . S
Co336 O346 2.021 . S
Co336 O348 2.137 . S
Co336 O349 2.244 . S
O337 Co336 2.216 . S
O337 C344 1.247 . S
O338 Co336 2.091 . S
O338 C344 1.261 . S
C339 O348 1.247 . S
C339 O349 1.272 . S
O340 Co336 2.004 . S
O340 C345 1.259 . S
Co341 O342 2.061 . S
Co341 O347 2.052 . S
Co341 O349 2.135 . S
O342 Co341 2.061 . S
O342 C345 1.235 . S
C343 O346 1.238 . S
C343 O347 1.241 . S
C344 O337 1.247 . S
C344 O338 1.261 . S
C345 O340 1.259 . S
C345 O342 1.235 . S
O346 Co336 2.021 . S
O346 C343 1.238 . S
O347 Co341 2.052 . S
O347 C343 1.241 . S
O348 Co336 2.137 . S
O348 C339 1.247 . S
O349 Co336 2.244 . S
O349 C339 1.272 . S
O349 Co341 2.135 . S
Co350 O351 2.216 . S
Co350 O352 2.091 . S
Co350 O354 2.004 . S
Co350 O360 2.021 . S
Co350 O362 2.137 . S
Co350 O363 2.244 . S
O351 Co350 2.216 . S
O351 C358 1.247 . S
O352 Co350 2.091 . S
O352 C358 1.261 . S
C353 O362 1.247 . S
C353 O363 1.272 . S
O354 Co350 2.004 . S
O354 C359 1.259 . S
Co355 O356 2.061 . S
Co355 O361 2.052 . S
Co355 O363 2.135 . S
O356 Co355 2.061 . S
O356 C359 1.235 . S
C357 O360 1.238 . S
C357 O361 1.241 . S
C358 O351 1.247 . S
C358 O352 1.261 . S
C359 O354 1.259 . S
C359 O356 1.235 . S
O360 Co350 2.021 . S
O360 C357 1.238 . S
O361 Co355 2.052 . S
O361 C357 1.241 . S
O362 Co350 2.137 . S
O362 C353 1.247 . S
O363 Co350 2.244 . S
O363 C353 1.272 . S
O363 Co355 2.135 . S
Co364 O365 2.216 . S
Co364 O366 2.091 . S
Co364 O368 2.004 . S
Co364 O374 2.021 . S
Co364 O376 2.137 . S
Co364 O377 2.244 . S
O365 Co364 2.216 . S
O365 C372 1.247 . S
O366 Co364 2.091 . S
O366 C372 1.261 . S
C367 O376 1.247 . S
C367 O377 1.272 . S
O368 Co364 2.004 . S
O368 C373 1.259 . S
Co369 O370 2.061 . S
Co369 O375 2.052 . S
Co369 O377 2.135 . S
O370 Co369 2.061 . S
O370 C373 1.235 . S
C371 O374 1.238 . S
C371 O375 1.241 . S
C372 O365 1.247 . S
C372 O366 1.261 . S
C373 O368 1.259 . S
C373 O370 1.235 . S
O374 Co364 2.021 . S
O374 C371 1.238 . S
O375 Co369 2.052 . S
O375 C371 1.241 . S
O376 Co364 2.137 . S
O376 C367 1.247 . S
O377 Co364 2.244 . S
O377 C367 1.272 . S
O377 Co369 2.135 . S
Co378 O379 2.216 . S
Co378 O380 2.091 . S
Co378 O382 2.004 . S
Co378 O388 2.021 . S
Co378 O390 2.137 . S
Co378 O391 2.244 . S
O379 Co378 2.216 . S
O379 C386 1.247 . S
O380 Co378 2.091 . S
O380 C386 1.261 . S
C381 O390 1.247 . S
C381 O391 1.272 . S
O382 Co378 2.004 . S
O382 C387 1.259 . S
Co383 O384 2.061 1_455 S
Co383 O389 2.052 1_455 S
Co383 O391 2.135 1_455 S
O384 Co383 2.061 1_655 S
O384 C387 1.235 . S
C385 O388 1.238 . S
C385 O389 1.241 . S
C386 O379 1.247 . S
C386 O380 1.261 . S
C387 O382 1.259 . S
C387 O384 1.235 . S
O388 Co378 2.021 . S
O388 C385 1.238 . S
O389 Co383 2.052 1_655 S
O389 C385 1.241 . S
O390 Co378 2.137 . S
O390 C381 1.247 . S
O391 Co378 2.244 . S
O391 C381 1.272 . S
O391 Co383 2.135 1_655 S
Co392 O393 2.216 . S
Co392 O394 2.091 . S
Co392 O396 2.004 . S
Co392 O402 2.021 . S
Co392 O404 2.137 . S
Co392 O405 2.244 . S
O393 Co392 2.216 . S
O393 C400 1.247 . S
O394 Co392 2.091 . S
O394 C400 1.261 . S
C395 O404 1.247 . S
C395 O405 1.272 . S
O396 Co392 2.004 . S
O396 C401 1.259 . S
Co397 O398 2.061 . S
Co397 O403 2.052 . S
Co397 O405 2.135 . S
O398 Co397 2.061 . S
O398 C401 1.235 . S
C399 O402 1.238 . S
C399 O403 1.241 . S
C400 O393 1.247 . S
C400 O394 1.261 . S
C401 O396 1.259 . S
C401 O398 1.235 . S
O402 Co392 2.021 . S
O402 C399 1.238 . S
O403 Co397 2.052 . S
O403 C399 1.241 . S
O404 Co392 2.137 . S
O404 C395 1.247 . S
O405 Co392 2.244 . S
O405 C395 1.272 . S
O405 Co397 2.135 . S
Co406 O407 2.216 . S
Co406 O408 2.091 . S
Co406 O410 2.004 . S
Co406 O416 2.021 . S
Co406 O418 2.137 . S
Co406 O419 2.244 . S
O407 Co406 2.216 . S
O407 C414 1.247 . S
O408 Co406 2.091 . S
O408 C414 1.261 . S
C409 O418 1.247 . S
C409 O419 1.272 . S
O410 Co406 2.004 . S
O410 C415 1.259 . S
Co411 O412 2.061 1_455 S
Co411 O417 2.052 1_455 S
Co411 O419 2.135 1_455 S
O412 Co411 2.061 1_655 S
O412 C415 1.235 . S
C413 O416 1.238 . S
C413 O417 1.241 . S
C414 O407 1.247 . S
C414 O408 1.261 . S
C415 O410 1.259 . S
C415 O412 1.235 . S
O416 Co406 2.021 . S
O416 C413 1.238 . S
O417 Co411 2.052 1_655 S
O417 C413 1.241 . S
O418 Co406 2.137 . S
O418 C409 1.247 . S
O419 Co406 2.244 . S
O419 C409 1.272 . S
O419 Co411 2.135 1_655 S
Co420 O421 2.216 . S
Co420 O422 2.091 . S
Co420 O424 2.004 . S
Co420 O430 2.021 . S
Co420 O432 2.137 . S
Co420 O433 2.244 . S
O421 Co420 2.216 . S
O421 C428 1.247 . S
O422 Co420 2.091 . S
O422 C428 1.261 . S
C423 O432 1.247 . S
C423 O433 1.272 . S
O424 Co420 2.004 . S
O424 C429 1.259 . S
Co425 O426 2.061 . S
Co425 O431 2.052 . S
Co425 O433 2.135 . S
O426 Co425 2.061 . S
O426 C429 1.235 . S
C427 O430 1.238 . S
C427 O431 1.241 . S
C428 O421 1.247 . S
C428 O422 1.261 . S
C429 O424 1.259 . S
C429 O426 1.235 . S
O430 Co420 2.021 . S
O430 C427 1.238 . S
O431 Co425 2.052 . S
O431 C427 1.241 . S
O432 Co420 2.137 . S
O432 C423 1.247 . S
O433 Co420 2.244 . S
O433 C423 1.272 . S
O433 Co425 2.135 . S
Co434 O435 2.216 . S
Co434 O436 2.091 . S
Co434 O438 2.004 . S
Co434 O444 2.021 . S
Co434 O446 2.137 . S
Co434 O447 2.244 . S
O435 Co434 2.216 . S
O435 C442 1.247 . S
O436 Co434 2.091 . S
O436 C442 1.261 . S
C437 O446 1.247 . S
C437 O447 1.272 . S
O438 Co434 2.004 . S
O438 C443 1.259 . S
Co439 O440 2.061 . S
Co439 O445 2.052 . S
Co439 O447 2.135 . S
O440 Co439 2.061 . S
O440 C443 1.235 . S
C441 O444 1.238 . S
C441 O445 1.241 . S
C442 O435 1.247 . S
C442 O436 1.261 . S
C443 O438 1.259 . S
C443 O440 1.235 . S
O444 Co434 2.021 . S
O444 C441 1.238 . S
O445 Co439 2.052 . S
O445 C441 1.241 . S
O446 Co434 2.137 . S
O446 C437 1.247 . S
O447 Co434 2.244 . S
O447 C437 1.272 . S
O447 Co439 2.135 . S
Co448 O449 2.216 . S
Co448 O450 2.091 . S
Co448 O452 2.004 . S
Co448 O458 2.021 . S
Co448 O460 2.137 . S
Co448 O461 2.244 . S
O449 Co448 2.216 . S
O449 C456 1.247 . S
O450 Co448 2.091 . S
O450 C456 1.261 . S
C451 O460 1.247 . S
C451 O461 1.272 . S
O452 Co448 2.004 . S
O452 C457 1.259 . S
Co453 O454 2.061 . S
Co453 O459 2.052 . S
Co453 O461 2.135 . S
O454 Co453 2.061 . S
O454 C457 1.235 . S
C455 O458 1.238 . S
C455 O459 1.241 . S
C456 O449 1.247 . S
C456 O450 1.261 . S
C457 O452 1.259 . S
C457 O454 1.235 . S
O458 Co448 2.021 . S
O458 C455 1.238 . S
O459 Co453 2.052 . S
O459 C455 1.241 . S
O460 Co448 2.137 . S
O460 C451 1.247 . S
O461 Co448 2.244 . S
O461 C451 1.272 . S
O461 Co453 2.135 . S
Co462 O463 2.216 . S
Co462 O464 2.091 . S
Co462 O466 2.004 . S
Co462 O472 2.021 . S
Co462 O474 2.137 . S
Co462 O475 2.244 . S
O463 Co462 2.216 . S
O463 C470 1.247 . S
O464 Co462 2.091 . S
O464 C470 1.261 . S
C465 O474 1.247 . S
C465 O475 1.272 . S
O466 Co462 2.004 . S
O466 C471 1.259 . S
Co467 O468 2.061 1_554 S
Co467 O473 2.052 1_554 S
Co467 O475 2.135 1_554 S
O468 Co467 2.061 1_556 S
O468 C471 1.235 . S
C469 O472 1.238 . S
C469 O473 1.241 . S
C470 O463 1.247 . S
C470 O464 1.261 . S
C471 O466 1.259 . S
C471 O468 1.235 . S
O472 Co462 2.021 . S
O472 C469 1.238 . S
O473 Co467 2.052 1_556 S
O473 C469 1.241 . S
O474 Co462 2.137 . S
O474 C465 1.247 . S
O475 Co462 2.244 . S
O475 C465 1.272 . S
O475 Co467 2.135 1_556 S
Co476 O477 2.216 . S
Co476 O478 2.091 . S
Co476 O480 2.004 . S
Co476 O486 2.021 . S
Co476 O488 2.137 . S
Co476 O489 2.244 . S
O477 Co476 2.216 . S
O477 C484 1.247 . S
O478 Co476 2.091 . S
O478 C484 1.261 . S
C479 O488 1.247 . S
C479 O489 1.272 . S
O480 Co476 2.004 . S
O480 C485 1.259 . S
Co481 O482 2.061 . S
Co481 O487 2.052 . S
Co481 O489 2.135 . S
O482 Co481 2.061 . S
O482 C485 1.235 . S
C483 O486 1.238 . S
C483 O487 1.241 . S
C484 O477 1.247 . S
C484 O478 1.261 . S
C485 O480 1.259 . S
C485 O482 1.235 . S
O486 Co476 2.021 . S
O486 C483 1.238 . S
O487 Co481 2.052 . S
O487 C483 1.241 . S
O488 Co476 2.137 . S
O488 C479 1.247 . S
O489 Co476 2.244 . S
O489 C479 1.272 . S
O489 Co481 2.135 . S
Co490 O491 2.216 . S
Co490 O492 2.091 . S
Co490 O494 2.004 . S
Co490 O500 2.021 . S
Co490 O502 2.137 . S
Co490 O503 2.244 . S
O491 Co490 2.216 . S
O491 C498 1.247 . S
O492 Co490 2.091 . S
O492 C498 1.261 . S
C493 O502 1.247 . S
C493 O503 1.272 . S
O494 Co490 2.004 . S
O494 C499 1.259 1_655 S
Co495 O496 2.061 . S
Co495 O501 2.052 . S
Co495 O503 2.135 1_455 S
O496 Co495 2.061 . S
O496 C499 1.235 . S
C497 O500 1.238 . S
C497 O501 1.241 1_655 S
C498 O491 1.247 . S
C498 O492 1.261 . S
C499 O494 1.259 1_455 S
C499 O496 1.235 . S
O500 Co490 2.021 . S
O500 C497 1.238 . S
O501 Co495 2.052 . S
O501 C497 1.241 1_455 S
O502 Co490 2.137 . S
O502 C493 1.247 . S
O503 Co490 2.244 . S
O503 C493 1.272 . S
O503 Co495 2.135 1_655 S
Co504 O505 2.216 . S
Co504 O506 2.091 . S
Co504 O508 2.004 . S
Co504 O514 2.021 . S
Co504 O516 2.137 . S
Co504 O517 2.244 . S
O505 Co504 2.216 . S
O505 C512 1.247 . S
O506 Co504 2.091 . S
O506 C512 1.261 . S
C507 O516 1.247 . S
C507 O517 1.272 . S
O508 Co504 2.004 . S
O508 C513 1.259 . S
Co509 O510 2.061 . S
Co509 O515 2.052 . S
Co509 O517 2.135 . S
O510 Co509 2.061 . S
O510 C513 1.235 . S
C511 O514 1.238 . S
C511 O515 1.241 . S
C512 O505 1.247 . S
C512 O506 1.261 . S
C513 O508 1.259 . S
C513 O510 1.235 . S
O514 Co504 2.021 . S
O514 C511 1.238 . S
O515 Co509 2.052 . S
O515 C511 1.241 . S
O516 Co504 2.137 . S
O516 C507 1.247 . S
O517 Co504 2.244 . S
O517 C507 1.272 . S
O517 Co509 2.135 . S
Co518 O519 2.216 . S
Co518 O520 2.091 . S
Co518 O522 2.004 . S
Co518 O528 2.021 . S
Co518 O530 2.137 . S
Co518 O531 2.244 . S
O519 Co518 2.216 . S
O519 C526 1.247 . S
O520 Co518 2.091 . S
O520 C526 1.261 . S
C521 O530 1.247 . S
C521 O531 1.272 . S
O522 Co518 2.004 . S
O522 C527 1.259 1_655 S
Co523 O524 2.061 1_556 S
Co523 O529 2.052 1_556 S
Co523 O531 2.135 1_456 S
O524 Co523 2.061 1_554 S
O524 C527 1.235 . S
C525 O528 1.238 . S
C525 O529 1.241 1_655 S
C526 O519 1.247 . S
C526 O520 1.261 . S
C527 O522 1.259 1_455 S
C527 O524 1.235 . S
O528 Co518 2.021 . S
O528 C525 1.238 . S
O529 Co523 2.052 1_554 S
O529 C525 1.241 1_455 S
O530 Co518 2.137 . S
O530 C521 1.247 . S
O531 Co518 2.244 . S
O531 C521 1.272 . S
O531 Co523 2.135 1_654 S
Co532 O533 2.216 . S
Co532 O534 2.091 . S
Co532 O536 2.004 . S
Co532 O542 2.021 . S
Co532 O544 2.137 . S
Co532 O545 2.244 . S
O533 Co532 2.216 . S
O533 C540 1.247 . S
O534 Co532 2.091 . S
O534 C540 1.261 . S
C535 O544 1.247 . S
C535 O545 1.272 . S
O536 Co532 2.004 . S
O536 C541 1.259 . S
Co537 O538 2.061 . S
Co537 O543 2.052 . S
Co537 O545 2.135 . S
O538 Co537 2.061 . S
O538 C541 1.235 . S
C539 O542 1.238 . S
C539 O543 1.241 . S
C540 O533 1.247 . S
C540 O534 1.261 . S
C541 O536 1.259 . S
C541 O538 1.235 . S
O542 Co532 2.021 . S
O542 C539 1.238 . S
O543 Co537 2.052 . S
O543 C539 1.241 . S
O544 Co532 2.137 . S
O544 C535 1.247 . S
O545 Co532 2.244 . S
O545 C535 1.272 . S
O545 Co537 2.135 . S
Co546 O547 2.216 . S
Co546 O548 2.091 . S
Co546 O550 2.004 . S
Co546 O556 2.021 . S
Co546 O558 2.137 . S
Co546 O559 2.244 . S
O547 Co546 2.216 . S
O547 C554 1.247 . S
O548 Co546 2.091 . S
O548 C554 1.261 . S
C549 O558 1.247 . S
C549 O559 1.272 . S
O550 Co546 2.004 . S
O550 C555 1.259 . S
Co551 O552 2.061 . S
Co551 O557 2.052 . S
Co551 O559 2.135 . S
O552 Co551 2.061 . S
O552 C555 1.235 . S
C553 O556 1.238 . S
C553 O557 1.241 . S
C554 O547 1.247 . S
C554 O548 1.261 . S
C555 O550 1.259 . S
C555 O552 1.235 . S
O556 Co546 2.021 . S
O556 C553 1.238 . S
O557 Co551 2.052 . S
O557 C553 1.241 . S
O558 Co546 2.137 . S
O558 C549 1.247 . S
O559 Co546 2.244 . S
O559 C549 1.272 . S
O559 Co551 2.135 . S
Co560 O561 2.216 . S
Co560 O562 2.091 . S
Co560 O564 2.004 . S
Co560 O570 2.021 . S
Co560 O572 2.137 . S
Co560 O573 2.244 . S
O561 Co560 2.216 . S
O561 C568 1.247 . S
O562 Co560 2.091 . S
O562 C568 1.261 . S
C563 O572 1.247 . S
C563 O573 1.272 . S
O564 Co560 2.004 . S
O564 C569 1.259 . S
Co565 O566 2.061 . S
Co565 O571 2.052 . S
Co565 O573 2.135 . S
O566 Co565 2.061 . S
O566 C569 1.235 . S
C567 O570 1.238 . S
C567 O571 1.241 . S
C568 O561 1.247 . S
C568 O562 1.261 . S
C569 O564 1.259 . S
C569 O566 1.235 . S
O570 Co560 2.021 . S
O570 C567 1.238 . S
O571 Co565 2.052 . S
O571 C567 1.241 . S
O572 Co560 2.137 . S
O572 C563 1.247 . S
O573 Co560 2.244 . S
O573 C563 1.272 . S
O573 Co565 2.135 . S
Co574 O575 2.216 . S
Co574 O576 2.091 . S
Co574 O578 2.004 . S
Co574 O584 2.021 . S
Co574 O586 2.137 . S
Co574 O587 2.244 . S
O575 Co574 2.216 . S
O575 C582 1.247 . S
O576 Co574 2.091 . S
O576 C582 1.261 . S
C577 O586 1.247 . S
C577 O587 1.272 . S
O578 Co574 2.004 . S
O578 C583 1.259 . S
Co579 O580 2.061 . S
Co579 O585 2.052 . S
Co579 O587 2.135 . S
O580 Co579 2.061 . S
O580 C583 1.235 . S
C581 O584 1.238 . S
C581 O585 1.241 . S
C582 O575 1.247 . S
C582 O576 1.261 . S
C583 O578 1.259 . S
C583 O580 1.235 . S
O584 Co574 2.021 . S
O584 C581 1.238 . S
O585 Co579 2.052 . S
O585 C581 1.241 . S
O586 Co574 2.137 . S
O586 C577 1.247 . S
O587 Co574 2.244 . S
O587 C577 1.272 . S
O587 Co579 2.135 . S
Co588 O589 2.216 . S
Co588 O590 2.091 . S
Co588 O592 2.004 . S
Co588 O598 2.021 . S
Co588 O600 2.137 . S
Co588 O601 2.244 . S
O589 Co588 2.216 . S
O589 C596 1.247 . S
O590 Co588 2.091 . S
O590 C596 1.261 . S
C591 O600 1.247 . S
C591 O601 1.272 . S
O592 Co588 2.004 . S
O592 C597 1.259 . S
Co593 O594 2.061 1_545 S
Co593 O599 2.052 1_545 S
Co593 O601 2.135 1_545 S
O594 Co593 2.061 1_565 S
O594 C597 1.235 . S
C595 O598 1.238 . S
C595 O599 1.241 . S
C596 O589 1.247 . S
C596 O590 1.261 . S
C597 O592 1.259 . S
C597 O594 1.235 . S
O598 Co588 2.021 . S
O598 C595 1.238 . S
O599 Co593 2.052 1_565 S
O599 C595 1.241 . S
O600 Co588 2.137 . S
O600 C591 1.247 . S
O601 Co588 2.244 . S
O601 C591 1.272 . S
O601 Co593 2.135 1_565 S
Co602 O603 2.216 . S
Co602 O604 2.091 . S
Co602 O606 2.004 . S
Co602 O612 2.021 . S
Co602 O614 2.137 . S
Co602 O615 2.244 . S
O603 Co602 2.216 . S
O603 C610 1.247 . S
O604 Co602 2.091 . S
O604 C610 1.261 . S
C605 O614 1.247 . S
C605 O615 1.272 . S
O606 Co602 2.004 . S
O606 C611 1.259 . S
Co607 O608 2.061 . S
Co607 O613 2.052 . S
Co607 O615 2.135 . S
O608 Co607 2.061 . S
O608 C611 1.235 . S
C609 O612 1.238 . S
C609 O613 1.241 . S
C610 O603 1.247 . S
C610 O604 1.261 . S
C611 O606 1.259 . S
C611 O608 1.235 . S
O612 Co602 2.021 . S
O612 C609 1.238 . S
O613 Co607 2.052 . S
O613 C609 1.241 . S
O614 Co602 2.137 . S
O614 C605 1.247 . S
O615 Co602 2.244 . S
O615 C605 1.272 . S
O615 Co607 2.135 . S
Co616 O617 2.216 . S
Co616 O618 2.091 . S
Co616 O620 2.004 . S
Co616 O626 2.021 . S
Co616 O628 2.137 . S
Co616 O629 2.244 . S
O617 Co616 2.216 . S
O617 C624 1.247 . S
O618 Co616 2.091 . S
O618 C624 1.261 . S
C619 O628 1.247 . S
C619 O629 1.272 . S
O620 Co616 2.004 . S
O620 C625 1.259 . S
Co621 O622 2.061 . S
Co621 O627 2.052 . S
Co621 O629 2.135 . S
O622 Co621 2.061 . S
O622 C625 1.235 . S
C623 O626 1.238 . S
C623 O627 1.241 . S
C624 O617 1.247 . S
C624 O618 1.261 . S
C625 O620 1.259 . S
C625 O622 1.235 . S
O626 Co616 2.021 . S
O626 C623 1.238 . S
O627 Co621 2.052 . S
O627 C623 1.241 . S
O628 Co616 2.137 . S
O628 C619 1.247 . S
O629 Co616 2.244 . S
O629 C619 1.272 . S
O629 Co621 2.135 . S
Co630 O631 2.216 . S
Co630 O632 2.091 . S
Co630 O634 2.004 . S
Co630 O640 2.021 . S
Co630 O642 2.137 . S
Co630 O643 2.244 . S
O631 Co630 2.216 . S
O631 C638 1.247 . S
O632 Co630 2.091 . S
O632 C638 1.261 . S
C633 O642 1.247 . S
C633 O643 1.272 . S
O634 Co630 2.004 . S
O634 C639 1.259 . S
Co635 O636 2.061 . S
Co635 O641 2.052 . S
Co635 O643 2.135 . S
O636 Co635 2.061 . S
O636 C639 1.235 . S
C637 O640 1.238 . S
C637 O641 1.241 . S
C638 O631 1.247 . S
C638 O632 1.261 . S
C639 O634 1.259 . S
C639 O636 1.235 . S
O640 Co630 2.021 . S
O640 C637 1.238 . S
O641 Co635 2.052 . S
O641 C637 1.241 . S
O642 Co630 2.137 . S
O642 C633 1.247 . S
O643 Co630 2.244 . S
O643 C633 1.272 . S
O643 Co635 2.135 . S
Co644 O645 2.216 . S
Co644 O646 2.091 . S
Co644 O648 2.004 . S
Co644 O654 2.021 . S
Co644 O656 2.137 . S
Co644 O657 2.244 . S
O645 Co644 2.216 . S
O645 C652 1.247 . S
O646 Co644 2.091 . S
O646 C652 1.261 . S
C647 O656 1.247 . S
C647 O657 1.272 . S
O648 Co644 2.004 . S
O648 C653 1.259 1_556 S
Co649 O650 2.061 1_565 S
Co649 O655 2.052 1_565 S
Co649 O657 2.135 1_564 S
O650 Co649 2.061 1_545 S
O650 C653 1.235 . S
C651 O654 1.238 . S
C651 O655 1.241 1_556 S
C652 O645 1.247 . S
C652 O646 1.261 . S
C653 O648 1.259 1_554 S
C653 O650 1.235 . S
O654 Co644 2.021 . S
O654 C651 1.238 . S
O655 Co649 2.052 1_545 S
O655 C651 1.241 1_554 S
O656 Co644 2.137 . S
O656 C647 1.247 . S
O657 Co644 2.244 . S
O657 C647 1.272 . S
O657 Co649 2.135 1_546 S
Co658 O659 2.216 . S
Co658 O660 2.091 . S
Co658 O662 2.004 . S
Co658 O668 2.021 . S
Co658 O670 2.137 . S
Co658 O671 2.244 . S
O659 Co658 2.216 . S
O659 C666 1.247 . S
O660 Co658 2.091 . S
O660 C666 1.261 . S
C661 O670 1.247 . S
C661 O671 1.272 . S
O662 Co658 2.004 . S
O662 C667 1.259 . S
Co663 O664 2.061 1_545 S
Co663 O669 2.052 1_545 S
Co663 O671 2.135 1_545 S
O664 Co663 2.061 1_565 S
O664 C667 1.235 . S
C665 O668 1.238 . S
C665 O669 1.241 . S
C666 O659 1.247 . S
C666 O660 1.261 . S
C667 O662 1.259 . S
C667 O664 1.235 . S
O668 Co658 2.021 . S
O668 C665 1.238 . S
O669 Co663 2.052 1_565 S
O669 C665 1.241 . S
O670 Co658 2.137 . S
O670 C661 1.247 . S
O671 Co658 2.244 . S
O671 C661 1.272 . S
O671 Co663 2.135 1_565 S
H672 C678 0.930 . S
H673 C682 0.930 . S
H674 C687 0.929 . S
H675 C685 0.929 . S
H676 C680 0.929 . S
H677 C686 0.929 . S
C678 H672 0.930 . S
C678 C679 1.367 . S
C678 C686 1.378 . S
C679 C678 1.367 . S
C679 C687 1.433 . S
C680 H676 0.929 . S
C680 C682 1.378 . S
C680 C684 1.350 . S
C681 C684 1.463 . S
C681 C686 1.350 . S
C681 N689 1.427 . S
C682 H673 0.930 . S
C682 C680 1.378 . S
C682 C683 1.367 . S
C683 C682 1.367 . S
C683 C685 1.433 . S
C684 C680 1.350 . S
C684 C681 1.463 . S
C684 N688 1.427 . S
C685 H675 0.929 . S
C685 C683 1.433 . S
C685 N688 1.384 . S
C686 H677 0.929 . S
C686 C678 1.378 . S
C686 C681 1.350 . S
C687 H674 0.929 . S
C687 C679 1.433 . S
C687 N689 1.384 . S
N688 C684 1.427 . S
N688 C685 1.384 . S
N689 C681 1.427 . S
N689 C687 1.384 . S
H690 C696 0.930 . S
H691 C700 0.930 . S
H692 C705 0.929 . S
H693 C703 0.929 . S
H694 C698 0.929 . S
H695 C704 0.929 . S
C696 H690 0.930 . S
C696 C697 1.367 . S
C696 C704 1.378 . S
C697 C696 1.367 . S
C697 C705 1.433 1_565 S
C698 H694 0.929 . S
C698 C700 1.378 . S
C698 C702 1.350 . S
C699 C702 1.463 1_565 S
C699 C704 1.350 . S
C699 N707 1.427 1_565 S
C700 H691 0.930 . S
C700 C698 1.378 . S
C700 C701 1.367 . S
C701 C700 1.367 . S
C701 C703 1.433 1_545 S
C702 C698 1.350 . S
C702 C699 1.463 1_545 S
C702 N706 1.427 1_545 S
C703 H693 0.929 . S
C703 C701 1.433 1_565 S
C703 N706 1.384 . S
C704 H695 0.929 . S
C704 C696 1.378 . S
C704 C699 1.350 . S
C705 H692 0.929 . S
C705 C697 1.433 1_545 S
C705 N707 1.384 . S
N706 C702 1.427 1_565 S
N706 C703 1.384 . S
N707 C699 1.427 1_545 S
N707 C705 1.384 . S
H708 C714 0.930 . S
H709 C718 0.930 . S
H710 C723 0.929 . S
H711 C721 0.929 . S
H712 C716 0.929 . S
H713 C722 0.929 . S
C714 H708 0.930 . S
C714 C715 1.367 . S
C714 C722 1.378 . S
C715 C714 1.367 . S
C715 C723 1.433 . S
C716 H712 0.929 . S
C716 C718 1.378 . S
C716 C720 1.350 . S
C717 C720 1.463 1_556 S
C717 C722 1.350 . S
C717 N725 1.427 . S
C718 H709 0.930 . S
C718 C716 1.378 . S
C718 C719 1.367 . S
C719 C718 1.367 . S
C719 C721 1.433 . S
C720 C716 1.350 . S
C720 C717 1.463 1_554 S
C720 N724 1.427 . S
C721 H711 0.929 . S
C721 C719 1.433 . S
C721 N724 1.384 . S
C722 H713 0.929 . S
C722 C714 1.378 . S
C722 C717 1.350 . S
C723 H710 0.929 . S
C723 C715 1.433 . S
C723 N725 1.384 . S
N724 C720 1.427 . S
N724 C721 1.384 . S
N725 C717 1.427 . S
N725 C723 1.384 . S
H726 C732 0.930 . S
H727 C736 0.930 . S
H728 C741 0.929 . S
H729 C739 0.929 . S
H730 C734 0.929 . S
H731 C740 0.929 . S
C732 H726 0.930 . S
C732 C733 1.367 . S
C732 C740 1.378 . S
C733 C732 1.367 . S
C733 C741 1.433 1_565 S
C734 H730 0.929 . S
C734 C736 1.378 . S
C734 C738 1.350 . S
C735 C738 1.463 1_565 S
C735 C740 1.350 . S
C735 N743 1.427 1_565 S
C736 H727 0.930 . S
C736 C734 1.378 . S
C736 C737 1.367 . S
C737 C736 1.367 . S
C737 C739 1.433 1_545 S
C738 C734 1.350 . S
C738 C735 1.463 1_545 S
C738 N742 1.427 1_545 S
C739 H729 0.929 . S
C739 C737 1.433 1_565 S
C739 N742 1.384 . S
C740 H731 0.929 . S
C740 C732 1.378 . S
C740 C735 1.350 . S
C741 H728 0.929 . S
C741 C733 1.433 1_545 S
C741 N743 1.384 . S
N742 C738 1.427 1_565 S
N742 C739 1.384 . S
N743 C735 1.427 1_545 S
N743 C741 1.384 . S
H744 C750 0.930 . S
H745 C754 0.930 . S
H746 C759 0.929 . S
H747 C757 0.929 . S
H748 C752 0.929 . S
H749 C758 0.929 . S
C750 H744 0.930 . S
C750 C751 1.367 . S
C750 C758 1.378 . S
C751 C750 1.367 . S
C751 C759 1.433 . S
C752 H748 0.929 . S
C752 C754 1.378 . S
C752 C756 1.350 . S
C753 C756 1.463 . S
C753 C758 1.350 . S
C753 N761 1.427 . S
C754 H745 0.930 . S
C754 C752 1.378 . S
C754 C755 1.367 . S
C755 C754 1.367 . S
C755 C757 1.433 . S
C756 C752 1.350 . S
C756 C753 1.463 . S
C756 N760 1.427 . S
C757 H747 0.929 . S
C757 C755 1.433 . S
C757 N760 1.384 . S
C758 H749 0.929 . S
C758 C750 1.378 . S
C758 C753 1.350 . S
C759 H746 0.929 . S
C759 C751 1.433 . S
C759 N761 1.384 . S
N760 C756 1.427 . S
N760 C757 1.384 . S
N761 C753 1.427 . S
N761 C759 1.384 . S
H762 C768 0.930 . S
H763 C772 0.930 . S
H764 C777 0.929 . S
H765 C775 0.929 . S
H766 C770 0.929 . S
H767 C776 0.929 . S
C768 H762 0.930 . S
C768 C769 1.367 . S
C768 C776 1.378 . S
C769 C768 1.367 . S
C769 C777 1.433 1_655 S
C770 H766 0.929 . S
C770 C772 1.378 . S
C770 C774 1.350 . S
C771 C774 1.463 1_655 S
C771 C776 1.350 . S
C771 N779 1.427 1_655 S
C772 H763 0.930 . S
C772 C770 1.378 . S
C772 C773 1.367 . S
C773 C772 1.367 . S
C773 C775 1.433 1_455 S
C774 C770 1.350 . S
C774 C771 1.463 1_455 S
C774 N778 1.427 1_455 S
C775 H765 0.929 . S
C775 C773 1.433 1_655 S
C775 N778 1.384 . S
C776 H767 0.929 . S
C776 C768 1.378 . S
C776 C771 1.350 . S
C777 H764 0.929 . S
C777 C769 1.433 1_455 S
C777 N779 1.384 . S
N778 C774 1.427 1_655 S
N778 C775 1.384 . S
N779 C771 1.427 1_455 S
N779 C777 1.384 . S
H780 C786 0.930 . S
H781 C790 0.930 . S
H782 C795 0.929 . S
H783 C793 0.929 . S
H784 C788 0.929 . S
H785 C794 0.929 . S
C786 H780 0.930 . S
C786 C787 1.367 . S
C786 C794 1.378 . S
C787 C786 1.367 . S
C787 C795 1.433 . S
C788 H784 0.929 . S
C788 C790 1.378 . S
C788 C792 1.350 . S
C789 C792 1.463 1_455 S
C789 C794 1.350 . S
C789 N797 1.427 . S
C790 H781 0.930 . S
C790 C788 1.378 . S
C790 C791 1.367 . S
C791 C790 1.367 . S
C791 C793 1.433 . S
C792 C788 1.350 . S
C792 C789 1.463 1_655 S
C792 N796 1.427 . S
C793 H783 0.929 . S
C793 C791 1.433 . S
C793 N796 1.384 . S
C794 H785 0.929 . S
C794 C786 1.378 . S
C794 C789 1.350 . S
C795 H782 0.929 . S
C795 C787 1.433 . S
C795 N797 1.384 . S
N796 C792 1.427 . S
N796 C793 1.384 . S
N797 C789 1.427 . S
N797 C795 1.384 . S
H798 C804 0.930 . S
H799 C808 0.926 . S
H800 C813 0.920 1_554 S
H801 C811 0.929 . S
H802 C806 0.925 . S
H803 C812 0.929 . S
C804 H798 0.930 . S
C804 C805 1.367 . S
C804 C812 1.378 . S
C805 C804 1.367 . S
C805 C813 1.433 . S
C806 H802 0.925 . S
C806 C808 1.378 . S
C806 C810 1.350 . S
C807 C810 1.463 . S
C807 C812 1.350 . S
C807 N815 1.427 . S
C808 H799 0.926 . S
C808 C806 1.378 . S
C808 C809 1.367 . S
C809 C808 1.367 . S
C809 C811 1.433 . S
C810 C806 1.350 . S
C810 C807 1.463 . S
C810 N814 1.427 . S
C811 H801 0.929 . S
C811 C809 1.433 . S
C811 N814 1.384 . S
C812 H803 0.929 . S
C812 C804 1.378 . S
C812 C807 1.350 . S
C813 H800 0.920 1_556 S
C813 C805 1.433 . S
C813 N815 1.384 . S
N814 C810 1.427 . S
N814 C811 1.384 . S
N815 C807 1.427 . S
N815 C813 1.384 . S
H816 C822 0.930 . S
H817 C826 0.930 . S
H818 C831 0.929 . S
H819 C829 0.929 . S
H820 C824 0.929 . S
H821 C830 0.929 . S
C822 H816 0.930 . S
C822 C823 1.367 . S
C822 C830 1.378 . S
C823 C822 1.367 . S
C823 C831 1.433 . S
C824 H820 0.929 . S
C824 C826 1.378 . S
C824 C828 1.350 . S
C825 C828 1.463 . S
C825 C830 1.350 . S
C825 N833 1.427 . S
C826 H817 0.930 . S
C826 C824 1.378 . S
C826 C827 1.367 . S
C827 C826 1.367 . S
C827 C829 1.433 . S
C828 C824 1.350 . S
C828 C825 1.463 . S
C828 N832 1.427 . S
C829 H819 0.929 . S
C829 C827 1.433 . S
C829 N832 1.384 . S
C830 H821 0.929 . S
C830 C822 1.378 . S
C830 C825 1.350 . S
C831 H818 0.929 . S
C831 C823 1.433 . S
C831 N833 1.384 . S
N832 C828 1.427 . S
N832 C829 1.384 . S
N833 C825 1.427 . S
N833 C831 1.384 . S
H834 C840 0.930 . S
H835 C844 0.930 . S
H836 C849 0.929 . S
H837 C847 0.929 . S
H838 C842 0.929 . S
H839 C848 0.929 . S
C840 H834 0.930 . S
C840 C841 1.367 . S
C840 C848 1.378 . S
C841 C840 1.367 . S
C841 C849 1.433 . S
C842 H838 0.929 . S
C842 C844 1.378 . S
C842 C846 1.350 . S
C843 C846 1.463 . S
C843 C848 1.350 . S
C843 N851 1.427 . S
C844 H835 0.930 . S
C844 C842 1.378 . S
C844 C845 1.367 . S
C845 C844 1.367 . S
C845 C847 1.433 . S
C846 C842 1.350 . S
C846 C843 1.463 . S
C846 N850 1.427 . S
C847 H837 0.929 . S
C847 C845 1.433 . S
C847 N850 1.384 . S
C848 H839 0.929 . S
C848 C840 1.378 . S
C848 C843 1.350 . S
C849 H836 0.929 . S
C849 C841 1.433 . S
C849 N851 1.384 . S
N850 C846 1.427 . S
N850 C847 1.384 . S
N851 C843 1.427 . S
N851 C849 1.384 . S
H852 C858 0.930 . S
H853 C862 0.930 . S
H854 C867 0.929 . S
H855 C865 0.929 . S
H856 C860 0.929 . S
H857 C866 0.929 . S
C858 H852 0.930 . S
C858 C859 1.367 . S
C858 C866 1.378 . S
C859 C858 1.367 . S
C859 C867 1.433 . S
C860 H856 0.929 . S
C860 C862 1.378 . S
C860 C864 1.350 . S
C861 C864 1.463 1_655 S
C861 C866 1.350 . S
C861 N869 1.427 . S
C862 H853 0.930 . S
C862 C860 1.378 . S
C862 C863 1.367 . S
C863 C862 1.367 . S
C863 C865 1.433 . S
C864 C860 1.350 . S
C864 C861 1.463 1_455 S
C864 N868 1.427 . S
C865 H855 0.929 . S
C865 C863 1.433 . S
C865 N868 1.384 . S
C866 H857 0.929 . S
C866 C858 1.378 . S
C866 C861 1.350 . S
C867 H854 0.929 . S
C867 C859 1.433 . S
C867 N869 1.384 . S
N868 C864 1.427 . S
N868 C865 1.384 . S
N869 C861 1.427 . S
N869 C867 1.384 . S
H870 C876 0.930 . S
H871 C880 0.930 . S
H872 C885 0.929 . S
H873 C883 0.929 . S
H874 C878 0.929 . S
H875 C884 0.929 . S
C876 H870 0.930 . S
C876 C877 1.367 . S
C876 C884 1.378 . S
C877 C876 1.367 . S
C877 C885 1.433 1_655 S
C878 H874 0.929 . S
C878 C880 1.378 . S
C878 C882 1.350 . S
C879 C882 1.463 1_655 S
C879 C884 1.350 . S
C879 N887 1.427 1_655 S
C880 H871 0.930 . S
C880 C878 1.378 . S
C880 C881 1.367 . S
C881 C880 1.367 . S
C881 C883 1.433 1_455 S
C882 C878 1.350 . S
C882 C879 1.463 1_455 S
C882 N886 1.427 1_455 S
C883 H873 0.929 . S
C883 C881 1.433 1_655 S
C883 N886 1.384 . S
C884 H875 0.929 . S
C884 C876 1.378 . S
C884 C879 1.350 . S
C885 H872 0.929 . S
C885 C877 1.433 1_455 S
C885 N887 1.384 . S
N886 C882 1.427 1_655 S
N886 C883 1.384 . S
N887 C879 1.427 1_455 S
N887 C885 1.384 . S
H888 C894 0.930 . S
H889 C898 0.930 . S
H890 C903 0.929 . S
H891 C901 0.929 . S
H892 C896 0.929 . S
H893 C902 0.929 . S
C894 H888 0.930 . S
C894 C895 1.367 . S
C894 C902 1.378 . S
C895 C894 1.367 . S
C895 C903 1.433 . S
C896 H892 0.929 . S
C896 C898 1.378 . S
C896 C900 1.350 . S
C897 C900 1.463 . S
C897 C902 1.350 . S
C897 N905 1.427 . S
C898 H889 0.930 . S
C898 C896 1.378 . S
C898 C899 1.367 . S
C899 C898 1.367 . S
C899 C901 1.433 . S
C900 C896 1.350 . S
C900 C897 1.463 . S
C900 N904 1.427 . S
C901 H891 0.929 . S
C901 C899 1.433 . S
C901 N904 1.384 . S
C902 H893 0.929 . S
C902 C894 1.378 . S
C902 C897 1.350 . S
C903 H890 0.929 . S
C903 C895 1.433 . S
C903 N905 1.384 . S
N904 C900 1.427 . S
N904 C901 1.384 . S
N905 C897 1.427 . S
N905 C903 1.384 . S
H906 C912 0.930 . S
H907 C916 0.930 . S
H908 C921 0.929 . S
H909 C919 0.929 . S
H910 C914 0.929 . S
H911 C920 0.929 . S
C912 H906 0.930 . S
C912 C913 1.367 . S
C912 C920 1.378 . S
C913 C912 1.367 . S
C913 C921 1.433 . S
C914 H910 0.929 . S
C914 C916 1.378 . S
C914 C918 1.350 . S
C915 C918 1.463 1_545 S
C915 C920 1.350 . S
C915 N923 1.427 . S
C916 H907 0.930 . S
C916 C914 1.378 . S
C916 C917 1.367 . S
C917 C916 1.367 . S
C917 C919 1.433 . S
C918 C914 1.350 . S
C918 C915 1.463 1_565 S
C918 N922 1.427 . S
C919 H909 0.929 . S
C919 C917 1.433 . S
C919 N922 1.384 . S
C920 H911 0.929 . S
C920 C912 1.378 . S
C920 C915 1.350 . S
C921 H908 0.929 . S
C921 C913 1.433 . S
C921 N923 1.384 . S
N922 C918 1.427 . S
N922 C919 1.384 . S
N923 C915 1.427 . S
N923 C921 1.384 . S
H924 C930 0.930 . S
H925 C934 0.930 . S
H926 C939 0.929 . S
H927 C937 0.929 . S
H928 C932 0.929 . S
H929 C938 0.929 . S
C930 H924 0.930 . S
C930 C931 1.367 . S
C930 C938 1.378 . S
C931 C930 1.367 . S
C931 C939 1.433 1_554 S
C932 H928 0.929 . S
C932 C934 1.378 . S
C932 C936 1.362 . S
C933 C936 1.458 1_554 S
C933 C938 1.362 . S
C933 N941 1.420 1_554 S
C934 H925 0.930 . S
C934 C932 1.378 . S
C934 C935 1.367 . S
C935 C934 1.367 . S
C935 C937 1.433 1_556 S
C936 C932 1.362 . S
C936 C933 1.458 1_556 S
C936 N940 1.420 1_556 S
C937 H927 0.929 . S
C937 C935 1.433 1_554 S
C937 N940 1.384 . S
C938 H929 0.929 . S
C938 C930 1.378 . S
C938 C933 1.362 . S
C939 H926 0.929 . S
C939 C931 1.433 1_556 S
C939 N941 1.384 . S
N940 C936 1.420 1_554 S
N940 C937 1.384 . S
N941 C933 1.420 1_556 S
N941 C939 1.384 . S
H942 C948 0.930 . S
H943 C952 0.930 . S
H944 C957 0.929 . S
H945 C955 0.929 . S
H946 C950 0.929 . S
H947 C956 0.929 . S
C948 H942 0.930 . S
C948 C949 1.367 . S
C948 C956 1.378 . S
C949 C948 1.367 . S
C949 C957 1.433 . S
C950 H946 0.929 . S
C950 C952 1.378 . S
C950 C954 1.350 . S
C951 C954 1.463 1_545 S
C951 C956 1.350 . S
C951 N959 1.427 . S
C952 H943 0.930 . S
C952 C950 1.378 . S
C952 C953 1.367 . S
C953 C952 1.367 . S
C953 C955 1.433 . S
C954 C950 1.350 . S
C954 C951 1.463 1_565 S
C954 N958 1.427 . S
C955 H945 0.929 . S
C955 C953 1.433 . S
C955 N958 1.384 . S
C956 H947 0.929 . S
C956 C948 1.378 . S
C956 C951 1.350 . S
C957 H944 0.929 . S
C957 C949 1.433 . S
C957 N959 1.384 . S
N958 C954 1.427 . S
N958 C955 1.384 . S
N959 C951 1.427 . S
N959 C957 1.384 . S
H960 C966 0.930 . S
H961 C970 0.930 . S
H962 C975 0.929 . S
H963 C973 0.929 . S
H964 C968 0.929 . S
H965 C974 0.929 . S
C966 H960 0.930 . S
C966 C967 1.367 . S
C966 C974 1.378 . S
C967 C966 1.367 . S
C967 C975 1.433 1_556 S
C968 H964 0.929 . S
C968 C970 1.378 . S
C968 C972 1.350 . S
C969 C972 1.463 1_556 S
C969 C974 1.350 . S
C969 N977 1.427 1_556 S
C970 H961 0.930 . S
C970 C968 1.378 . S
C970 C971 1.367 . S
C971 C970 1.367 . S
C971 C973 1.433 1_554 S
C972 C968 1.350 . S
C972 C969 1.463 1_554 S
C972 N976 1.427 1_554 S
C973 H963 0.929 . S
C973 C971 1.433 1_556 S
C973 N976 1.384 . S
C974 H965 0.929 . S
C974 C966 1.378 . S
C974 C969 1.350 . S
C975 H962 0.929 . S
C975 C967 1.433 1_554 S
C975 N977 1.384 . S
N976 C972 1.427 1_556 S
N976 C973 1.384 . S
N977 C969 1.427 1_554 S
N977 C975 1.384 . S
H978 C984 0.930 . S
H979 C988 0.930 . S
H980 C993 0.929 . S
H981 C991 0.929 . S
H982 C986 0.929 . S
H983 C992 0.929 . S
C984 H978 0.930 . S
C984 C985 1.367 . S
C984 C992 1.378 . S
C985 C984 1.367 . S
C985 C993 1.433 . S
C986 H982 0.929 . S
C986 C988 1.378 . S
C986 C990 1.350 . S
C987 C990 1.463 . S
C987 C992 1.350 . S
C987 N995 1.427 . S
C988 H979 0.930 . S
C988 C986 1.378 . S
C988 C989 1.367 . S
C989 C988 1.367 . S
C989 C991 1.433 . S
C990 C986 1.350 . S
C990 C987 1.463 . S
C990 N994 1.427 . S
C991 H981 0.929 . S
C991 C989 1.433 . S
C991 N994 1.384 . S
C992 H983 0.929 . S
C992 C984 1.378 . S
C992 C987 1.350 . S
C993 H980 0.929 . S
C993 C985 1.433 . S
C993 N995 1.384 . S
N994 C990 1.427 . S
N994 C991 1.384 . S
N995 C987 1.427 . S
N995 C993 1.384 . S
H996 C1002 0.930 . S
H997 C1006 0.930 . S
H998 C1011 0.929 . S
H999 C1009 0.929 . S
H1000 C1004 0.929 . S
H1001 C1010 0.929 . S
C1002 H996 0.930 . S
C1002 C1003 1.367 . S
C1002 C1010 1.378 . S
C1003 C1002 1.367 . S
C1003 C1011 1.433 . S
C1004 H1000 0.929 . S
C1004 C1006 1.378 . S
C1004 C1008 1.350 . S
C1005 C1008 1.463 . S
C1005 C1010 1.350 . S
C1005 N1013 1.427 . S
C1006 H997 0.930 . S
C1006 C1004 1.378 . S
C1006 C1007 1.367 . S
C1007 C1006 1.367 . S
C1007 C1009 1.433 . S
C1008 C1004 1.350 . S
C1008 C1005 1.463 . S
C1008 N1012 1.427 . S
C1009 H999 0.929 . S
C1009 C1007 1.433 . S
C1009 N1012 1.384 . S
C1010 H1001 0.929 . S
C1010 C1002 1.378 . S
C1010 C1005 1.350 . S
C1011 H998 0.929 . S
C1011 C1003 1.433 . S
C1011 N1013 1.384 . S
N1012 C1008 1.427 . S
N1012 C1009 1.384 . S
N1013 C1005 1.427 . S
N1013 C1011 1.384 . S
H1014 C1020 0.930 . S
H1015 C1024 0.930 . S
H1016 C1029 0.929 . S
H1017 C1027 0.929 . S
H1018 C1022 0.929 . S
H1019 C1028 0.929 . S
C1020 H1014 0.930 . S
C1020 C1021 1.367 . S
C1020 C1028 1.378 . S
C1021 C1020 1.367 . S
C1021 C1029 1.433 . S
C1022 H1018 0.929 . S
C1022 C1024 1.378 . S
C1022 C1026 1.350 . S
C1023 C1026 1.463 1_554 S
C1023 C1028 1.350 . S
C1023 N1031 1.427 . S
C1024 H1015 0.930 . S
C1024 C1022 1.378 . S
C1024 C1025 1.367 . S
C1025 C1024 1.367 . S
C1025 C1027 1.433 . S
C1026 C1022 1.350 . S
C1026 C1023 1.463 1_556 S
C1026 N1030 1.427 . S
C1027 H1017 0.929 . S
C1027 C1025 1.433 . S
C1027 N1030 1.384 . S
C1028 H1019 0.929 . S
C1028 C1020 1.378 . S
C1028 C1023 1.350 . S
C1029 H1016 0.929 . S
C1029 C1021 1.433 . S
C1029 N1031 1.384 . S
N1030 C1026 1.427 . S
N1030 C1027 1.384 . S
N1031 C1023 1.427 . S
N1031 C1029 1.384 . S
H1032 C1038 0.930 . S
H1033 C1042 0.930 . S
H1034 C1047 0.929 . S
H1035 C1045 0.929 . S
H1036 C1040 0.929 . S
H1037 C1046 0.929 . S
C1038 H1032 0.930 . S
C1038 C1039 1.367 . S
C1038 C1046 1.378 . S
C1039 C1038 1.367 . S
C1039 C1047 1.433 . S
C1040 H1036 0.929 . S
C1040 C1042 1.378 . S
C1040 C1044 1.350 . S
C1041 C1044 1.463 . S
C1041 C1046 1.350 . S
C1041 N1049 1.427 . S
C1042 H1033 0.930 . S
C1042 C1040 1.378 . S
C1042 C1043 1.367 . S
C1043 C1042 1.367 . S
C1043 C1045 1.433 . S
C1044 C1040 1.350 . S
C1044 C1041 1.463 . S
C1044 N1048 1.427 . S
C1045 H1035 0.929 . S
C1045 C1043 1.433 . S
C1045 N1048 1.384 . S
C1046 H1037 0.929 . S
C1046 C1038 1.378 . S
C1046 C1041 1.350 . S
C1047 H1034 0.929 . S
C1047 C1039 1.433 . S
C1047 N1049 1.384 . S
N1048 C1044 1.427 . S
N1048 C1045 1.384 . S
N1049 C1041 1.427 . S
N1049 C1047 1.384 . S
H1050 C1056 0.930 . S
H1051 C1060 0.930 . S
H1052 C1065 0.929 . S
H1053 C1063 0.929 . S
H1054 C1058 0.929 . S
H1055 C1064 0.929 . S
C1056 H1050 0.930 . S
C1056 C1057 1.367 . S
C1056 C1064 1.378 . S
C1057 C1056 1.367 . S
C1057 C1065 1.433 . S
C1058 H1054 0.929 . S
C1058 C1060 1.378 . S
C1058 C1062 1.350 . S
C1059 C1062 1.463 . S
C1059 C1064 1.350 . S
C1059 N1067 1.427 . S
C1060 H1051 0.930 . S
C1060 C1058 1.378 . S
C1060 C1061 1.367 . S
C1061 C1060 1.367 . S
C1061 C1063 1.433 . S
C1062 C1058 1.350 . S
C1062 C1059 1.463 . S
C1062 N1066 1.427 . S
C1063 H1053 0.929 . S
C1063 C1061 1.433 . S
C1063 N1066 1.384 . S
C1064 H1055 0.929 . S
C1064 C1056 1.378 . S
C1064 C1059 1.350 . S
C1065 H1052 0.929 . S
C1065 C1057 1.433 . S
C1065 N1067 1.384 . S
N1066 C1062 1.427 . S
N1066 C1063 1.384 . S
N1067 C1059 1.427 . S
N1067 C1065 1.384 . S
H1068 C1074 0.930 . S
H1069 C1078 0.930 . S
H1070 C1083 0.929 . S
H1071 C1081 0.929 . S
H1072 C1076 0.929 . S
H1073 C1082 0.929 . S
C1074 H1068 0.930 . S
C1074 C1075 1.367 . S
C1074 C1082 1.378 . S
C1075 C1074 1.367 . S
C1075 C1083 1.433 . S
C1076 H1072 0.929 . S
C1076 C1078 1.378 . S
C1076 C1080 1.350 . S
C1077 C1080 1.463 . S
C1077 C1082 1.350 . S
C1077 N1085 1.427 . S
C1078 H1069 0.930 . S
C1078 C1076 1.378 . S
C1078 C1079 1.367 . S
C1079 C1078 1.367 . S
C1079 C1081 1.433 . S
C1080 C1076 1.350 . S
C1080 C1077 1.463 . S
C1080 N1084 1.427 . S
C1081 H1071 0.929 . S
C1081 C1079 1.433 . S
C1081 N1084 1.384 . S
C1082 H1073 0.929 . S
C1082 C1074 1.378 . S
C1082 C1077 1.350 . S
C1083 H1070 0.929 . S
C1083 C1075 1.433 . S
C1083 N1085 1.384 . S
N1084 C1080 1.427 . S
N1084 C1081 1.384 . S
N1085 C1077 1.427 . S
N1085 C1083 1.384 . S
H1086 C1092 0.930 . S
H1087 C1096 0.930 . S
H1088 C1101 0.929 . S
H1089 C1099 0.929 . S
H1090 C1094 0.929 . S
H1091 C1100 0.929 . S
C1092 H1086 0.930 . S
C1092 C1093 1.367 . S
C1092 C1100 1.378 . S
C1093 C1092 1.367 . S
C1093 C1101 1.433 . S
C1094 H1090 0.929 . S
C1094 C1096 1.378 . S
C1094 C1098 1.350 . S
C1095 C1098 1.463 . S
C1095 C1100 1.350 . S
C1095 N1103 1.427 . S
C1096 H1087 0.930 . S
C1096 C1094 1.378 . S
C1096 C1097 1.367 . S
C1097 C1096 1.367 . S
C1097 C1099 1.433 . S
C1098 C1094 1.350 . S
C1098 C1095 1.463 . S
C1098 N1102 1.427 . S
C1099 H1089 0.929 . S
C1099 C1097 1.433 . S
C1099 N1102 1.384 . S
C1100 H1091 0.929 . S
C1100 C1092 1.378 . S
C1100 C1095 1.350 . S
C1101 H1088 0.929 . S
C1101 C1093 1.433 . S
C1101 N1103 1.384 . S
N1102 C1098 1.427 . S
N1102 C1099 1.384 . S
N1103 C1095 1.427 . S
N1103 C1101 1.384 . S
H1104 C1110 0.930 . S
H1105 C1114 0.930 . S
H1106 C1119 0.929 . S
H1107 C1117 0.929 . S
H1108 C1112 0.929 . S
H1109 C1118 0.929 . S
C1110 H1104 0.930 . S
C1110 C1111 1.367 . S
C1110 C1118 1.378 . S
C1111 C1110 1.367 . S
C1111 C1119 1.433 . S
C1112 H1108 0.929 . S
C1112 C1114 1.378 . S
C1112 C1116 1.350 . S
C1113 C1116 1.463 . S
C1113 C1118 1.350 . S
C1113 N1121 1.427 . S
C1114 H1105 0.930 . S
C1114 C1112 1.378 . S
C1114 C1115 1.367 . S
C1115 C1114 1.367 . S
C1115 C1117 1.433 . S
C1116 C1112 1.350 . S
C1116 C1113 1.463 . S
C1116 N1120 1.427 . S
C1117 H1107 0.929 . S
C1117 C1115 1.433 . S
C1117 N1120 1.384 . S
C1118 H1109 0.929 . S
C1118 C1110 1.378 . S
C1118 C1113 1.350 . S
C1119 H1106 0.929 . S
C1119 C1111 1.433 . S
C1119 N1121 1.384 . S
N1120 C1116 1.427 . S
N1120 C1117 1.384 . S
N1121 C1113 1.427 . S
N1121 C1119 1.384 . S
H1122 C1128 0.930 1_455 S
H1123 C1132 0.930 . S
H1124 C1137 0.929 . S
H1125 C1135 0.929 . S
H1126 C1130 0.929 . S
H1127 C1136 0.929 . S
C1128 H1122 0.930 1_655 S
C1128 C1129 1.367 . S
C1128 C1136 1.378 . S
C1129 C1128 1.367 . S
C1129 C1137 1.433 . S
C1130 H1126 0.929 . S
C1130 C1132 1.378 . S
C1130 C1134 1.350 . S
C1131 C1134 1.463 . S
C1131 C1136 1.350 . S
C1131 N1139 1.427 . S
C1132 H1123 0.930 . S
C1132 C1130 1.378 . S
C1132 C1133 1.367 . S
C1133 C1132 1.367 . S
C1133 C1135 1.433 . S
C1134 C1130 1.350 . S
C1134 C1131 1.463 . S
C1134 N1138 1.427 . S
C1135 H1125 0.929 . S
C1135 C1133 1.433 . S
C1135 N1138 1.384 . S
C1136 H1127 0.929 . S
C1136 C1128 1.378 . S
C1136 C1131 1.350 . S
C1137 H1124 0.929 . S
C1137 C1129 1.433 . S
C1137 N1139 1.384 . S
N1138 C1134 1.427 . S
N1138 C1135 1.384 . S
N1139 C1131 1.427 . S
N1139 C1137 1.384 . S
H1140 C1146 0.930 . S
H1141 C1150 0.930 . S
H1142 C1155 0.929 . S
H1143 C1153 0.929 . S
H1144 C1148 0.929 . S
H1145 C1154 0.929 . S
C1146 H1140 0.930 . S
C1146 C1147 1.367 . S
C1146 C1154 1.378 . S
C1147 C1146 1.367 . S
C1147 C1155 1.433 . S
C1148 H1144 0.929 . S
C1148 C1150 1.378 . S
C1148 C1152 1.350 . S
C1149 C1152 1.463 . S
C1149 C1154 1.350 . S
C1149 N1157 1.427 . S
C1150 H1141 0.930 . S
C1150 C1148 1.378 . S
C1150 C1151 1.367 . S
C1151 C1150 1.367 . S
C1151 C1153 1.433 . S
C1152 C1148 1.350 . S
C1152 C1149 1.463 . S
C1152 N1156 1.427 . S
C1153 H1143 0.929 . S
C1153 C1151 1.433 . S
C1153 N1156 1.384 . S
C1154 H1145 0.929 . S
C1154 C1146 1.378 . S
C1154 C1149 1.350 . S
C1155 H1142 0.929 . S
C1155 C1147 1.433 . S
C1155 N1157 1.384 . S
N1156 C1152 1.427 . S
N1156 C1153 1.384 . S
N1157 C1149 1.427 . S
N1157 C1155 1.384 . S
H1158 C1164 0.930 . S
H1159 C1168 0.930 . S
H1160 C1173 0.929 . S
H1161 C1171 0.929 . S
H1162 C1166 0.929 . S
H1163 C1172 0.929 . S
C1164 H1158 0.930 . S
C1164 C1165 1.367 . S
C1164 C1172 1.378 . S
C1165 C1164 1.367 . S
C1165 C1173 1.433 . S
C1166 H1162 0.929 . S
C1166 C1168 1.378 . S
C1166 C1170 1.350 . S
C1167 C1170 1.463 . S
C1167 C1172 1.350 . S
C1167 N1175 1.427 . S
C1168 H1159 0.930 . S
C1168 C1166 1.378 . S
C1168 C1169 1.367 . S
C1169 C1168 1.367 . S
C1169 C1171 1.433 . S
C1170 C1166 1.350 . S
C1170 C1167 1.463 . S
C1170 N1174 1.427 . S
C1171 H1161 0.929 . S
C1171 C1169 1.433 . S
C1171 N1174 1.384 . S
C1172 H1163 0.929 . S
C1172 C1164 1.378 . S
C1172 C1167 1.350 . S
C1173 H1160 0.929 . S
C1173 C1165 1.433 . S
C1173 N1175 1.384 . S
N1174 C1170 1.427 . S
N1174 C1171 1.384 . S
N1175 C1167 1.427 . S
N1175 C1173 1.384 . S
H1176 C1182 0.930 . S
H1177 C1186 0.930 . S
H1178 C1191 0.929 . S
H1179 C1189 0.929 . S
H1180 C1184 0.929 . S
H1181 C1190 0.929 . S
C1182 H1176 0.930 . S
C1182 C1183 1.367 . S
C1182 C1190 1.378 . S
C1183 C1182 1.367 . S
C1183 C1191 1.433 . S
C1184 H1180 0.929 . S
C1184 C1186 1.378 . S
C1184 C1188 1.350 . S
C1185 C1188 1.463 . S
C1185 C1190 1.350 . S
C1185 N1193 1.427 . S
C1186 H1177 0.930 . S
C1186 C1184 1.378 . S
C1186 C1187 1.367 . S
C1187 C1186 1.367 . S
C1187 C1189 1.433 . S
C1188 C1184 1.350 . S
C1188 C1185 1.463 . S
C1188 N1192 1.427 . S
C1189 H1179 0.929 . S
C1189 C1187 1.433 . S
C1189 N1192 1.384 . S
C1190 H1181 0.929 . S
C1190 C1182 1.378 . S
C1190 C1185 1.350 . S
C1191 H1178 0.929 . S
C1191 C1183 1.433 . S
C1191 N1193 1.384 . S
N1192 C1188 1.427 . S
N1192 C1189 1.384 . S
N1193 C1185 1.427 . S
N1193 C1191 1.384 . S
H1194 C1200 0.930 . S
H1195 C1204 0.930 . S
H1196 C1209 0.929 . S
H1197 C1207 0.929 . S
H1198 C1202 0.929 . S
H1199 C1208 0.929 . S
C1200 H1194 0.930 . S
C1200 C1201 1.367 . S
C1200 C1208 1.378 . S
C1201 C1200 1.367 . S
C1201 C1209 1.433 . S
C1202 H1198 0.929 . S
C1202 C1204 1.378 . S
C1202 C1206 1.350 . S
C1203 C1206 1.463 . S
C1203 C1208 1.350 . S
C1203 N1211 1.427 . S
C1204 H1195 0.930 . S
C1204 C1202 1.378 . S
C1204 C1205 1.367 . S
C1205 C1204 1.367 . S
C1205 C1207 1.433 . S
C1206 C1202 1.350 . S
C1206 C1203 1.463 . S
C1206 N1210 1.427 . S
C1207 H1197 0.929 . S
C1207 C1205 1.433 . S
C1207 N1210 1.384 . S
C1208 H1199 0.929 . S
C1208 C1200 1.378 . S
C1208 C1203 1.350 . S
C1209 H1196 0.929 . S
C1209 C1201 1.433 . S
C1209 N1211 1.384 . S
N1210 C1206 1.427 . S
N1210 C1207 1.384 . S
N1211 C1203 1.427 . S
N1211 C1209 1.384 . S
H1212 C1218 0.930 . S
H1213 C1222 0.930 . S
H1214 C1227 0.929 . S
H1215 C1225 0.929 . S
H1216 C1220 0.929 . S
H1217 C1226 0.929 . S
C1218 H1212 0.930 . S
C1218 C1219 1.367 . S
C1218 C1226 1.378 . S
C1219 C1218 1.367 . S
C1219 C1227 1.433 . S
C1220 H1216 0.929 . S
C1220 C1222 1.378 . S
C1220 C1224 1.350 . S
C1221 C1224 1.463 . S
C1221 C1226 1.350 . S
C1221 N1229 1.427 . S
C1222 H1213 0.930 . S
C1222 C1220 1.378 . S
C1222 C1223 1.367 . S
C1223 C1222 1.367 . S
C1223 C1225 1.433 . S
C1224 C1220 1.350 . S
C1224 C1221 1.463 . S
C1224 N1228 1.427 . S
C1225 H1215 0.929 . S
C1225 C1223 1.433 . S
C1225 N1228 1.384 . S
C1226 H1217 0.929 . S
C1226 C1218 1.378 . S
C1226 C1221 1.350 . S
C1227 H1214 0.929 . S
C1227 C1219 1.433 . S
C1227 N1229 1.384 . S
N1228 C1224 1.427 . S
N1228 C1225 1.384 . S
N1229 C1221 1.427 . S
N1229 C1227 1.384 . S
H1230 C1236 0.930 . S
H1231 C1240 0.930 1_455 S
H1232 C1245 0.929 . S
H1233 C1243 0.929 . S
H1234 C1238 0.929 . S
H1235 C1244 0.929 . S
C1236 H1230 0.930 . S
C1236 C1237 1.367 . S
C1236 C1244 1.378 . S
C1237 C1236 1.367 . S
C1237 C1245 1.433 . S
C1238 H1234 0.929 . S
C1238 C1240 1.378 . S
C1238 C1242 1.350 . S
C1239 C1242 1.463 . S
C1239 C1244 1.350 . S
C1239 N1247 1.427 . S
C1240 H1231 0.930 1_655 S
C1240 C1238 1.378 . S
C1240 C1241 1.367 . S
C1241 C1240 1.367 . S
C1241 C1243 1.433 . S
C1242 C1238 1.350 . S
C1242 C1239 1.463 . S
C1242 N1246 1.427 . S
C1243 H1233 0.929 . S
C1243 C1241 1.433 . S
C1243 N1246 1.384 . S
C1244 H1235 0.929 . S
C1244 C1236 1.378 . S
C1244 C1239 1.350 . S
C1245 H1232 0.929 . S
C1245 C1237 1.433 . S
C1245 N1247 1.384 . S
N1246 C1242 1.427 . S
N1246 C1243 1.384 . S
N1247 C1239 1.427 . S
N1247 C1245 1.384 . S
H1248 C1254 0.930 . S
H1249 C1258 0.930 . S
H1250 C1263 0.929 . S
H1251 C1261 0.929 . S
H1252 C1256 0.929 . S
H1253 C1262 0.929 . S
C1254 H1248 0.930 . S
C1254 C1255 1.367 . S
C1254 C1262 1.378 . S
C1255 C1254 1.367 . S
C1255 C1263 1.433 . S
C1256 H1252 0.929 . S
C1256 C1258 1.378 . S
C1256 C1260 1.350 . S
C1257 C1260 1.463 . S
C1257 C1262 1.350 . S
C1257 N1265 1.427 . S
C1258 H1249 0.930 . S
C1258 C1256 1.378 . S
C1258 C1259 1.367 . S
C1259 C1258 1.367 . S
C1259 C1261 1.433 . S
C1260 C1256 1.350 . S
C1260 C1257 1.463 . S
C1260 N1264 1.427 . S
C1261 H1251 0.929 . S
C1261 C1259 1.433 . S
C1261 N1264 1.384 . S
C1262 H1253 0.929 . S
C1262 C1254 1.378 . S
C1262 C1257 1.350 . S
C1263 H1250 0.929 . S
C1263 C1255 1.433 . S
C1263 N1265 1.384 . S
N1264 C1260 1.427 . S
N1264 C1261 1.384 . S
N1265 C1257 1.427 . S
N1265 C1263 1.384 . S
H1266 C1272 0.930 . S
H1267 C1276 0.930 . S
H1268 C1281 0.929 . S
H1269 C1279 0.929 . S
H1270 C1274 0.929 . S
H1271 C1280 0.929 . S
C1272 H1266 0.930 . S
C1272 C1273 1.367 . S
C1272 C1280 1.378 . S
C1273 C1272 1.367 . S
C1273 C1281 1.433 . S
C1274 H1270 0.929 . S
C1274 C1276 1.378 . S
C1274 C1278 1.350 . S
C1275 C1278 1.463 . S
C1275 C1280 1.350 . S
C1275 N1283 1.427 . S
C1276 H1267 0.930 . S
C1276 C1274 1.378 . S
C1276 C1277 1.367 . S
C1277 C1276 1.367 . S
C1277 C1279 1.433 . S
C1278 C1274 1.350 . S
C1278 C1275 1.463 . S
C1278 N1282 1.427 . S
C1279 H1269 0.929 . S
C1279 C1277 1.433 . S
C1279 N1282 1.384 . S
C1280 H1271 0.929 . S
C1280 C1272 1.378 . S
C1280 C1275 1.350 . S
C1281 H1268 0.929 . S
C1281 C1273 1.433 . S
C1281 N1283 1.384 . S
N1282 C1278 1.427 . S
N1282 C1279 1.384 . S
N1283 C1275 1.427 . S
N1283 C1281 1.384 . S
H1284 C1290 0.930 . S
H1285 C1294 0.930 . S
H1286 C1299 0.929 . S
H1287 C1297 0.929 . S
H1288 C1292 0.929 . S
H1289 C1298 0.929 . S
C1290 H1284 0.930 . S
C1290 C1291 1.367 . S
C1290 C1298 1.378 . S
C1291 C1290 1.367 . S
C1291 C1299 1.433 . S
C1292 H1288 0.929 . S
C1292 C1294 1.378 . S
C1292 C1296 1.350 . S
C1293 C1296 1.463 . S
C1293 C1298 1.350 . S
C1293 N1301 1.427 . S
C1294 H1285 0.930 . S
C1294 C1292 1.378 . S
C1294 C1295 1.367 . S
C1295 C1294 1.367 . S
C1295 C1297 1.433 . S
C1296 C1292 1.350 . S
C1296 C1293 1.463 . S
C1296 N1300 1.427 . S
C1297 H1287 0.929 . S
C1297 C1295 1.433 . S
C1297 N1300 1.384 . S
C1298 H1289 0.929 . S
C1298 C1290 1.378 . S
C1298 C1293 1.350 . S
C1299 H1286 0.929 . S
C1299 C1291 1.433 . S
C1299 N1301 1.384 . S
N1300 C1296 1.427 . S
N1300 C1297 1.384 . S
N1301 C1293 1.427 . S
N1301 C1299 1.384 . S
H1302 C1308 0.930 . S
H1303 C1312 0.930 . S
H1304 C1317 0.929 . S
H1305 C1315 0.929 . S
H1306 C1310 0.929 . S
H1307 C1316 0.929 . S
C1308 H1302 0.930 . S
C1308 C1309 1.367 . S
C1308 C1316 1.378 . S
C1309 C1308 1.367 . S
C1309 C1317 1.433 . S
C1310 H1306 0.929 . S
C1310 C1312 1.378 . S
C1310 C1314 1.350 . S
C1311 C1314 1.463 . S
C1311 C1316 1.350 . S
C1311 N1319 1.427 . S
C1312 H1303 0.930 . S
C1312 C1310 1.378 . S
C1312 C1313 1.367 . S
C1313 C1312 1.367 . S
C1313 C1315 1.433 . S
C1314 C1310 1.350 . S
C1314 C1311 1.463 . S
C1314 N1318 1.427 . S
C1315 H1305 0.929 . S
C1315 C1313 1.433 . S
C1315 N1318 1.384 . S
C1316 H1307 0.929 . S
C1316 C1308 1.378 . S
C1316 C1311 1.350 . S
C1317 H1304 0.929 . S
C1317 C1309 1.433 . S
C1317 N1319 1.384 . S
N1318 C1314 1.427 . S
N1318 C1315 1.384 . S
N1319 C1311 1.427 . S
N1319 C1317 1.384 . S
H1320 C1326 0.930 . S
H1321 C1330 0.930 . S
H1322 C1335 0.929 . S
H1323 C1333 0.929 . S
H1324 C1328 0.929 . S
H1325 C1334 0.929 . S
C1326 H1320 0.930 . S
C1326 C1327 1.367 . S
C1326 C1334 1.378 . S
C1327 C1326 1.367 . S
C1327 C1335 1.433 . S
C1328 H1324 0.929 . S
C1328 C1330 1.378 . S
C1328 C1332 1.350 . S
C1329 C1332 1.463 . S
C1329 C1334 1.350 . S
C1329 N1337 1.427 . S
C1330 H1321 0.930 . S
C1330 C1328 1.378 . S
C1330 C1331 1.367 . S
C1331 C1330 1.367 . S
C1331 C1333 1.433 . S
C1332 C1328 1.350 . S
C1332 C1329 1.463 . S
C1332 N1336 1.427 . S
C1333 H1323 0.929 . S
C1333 C1331 1.433 . S
C1333 N1336 1.384 . S
C1334 H1325 0.929 . S
C1334 C1326 1.378 . S
C1334 C1329 1.350 . S
C1335 H1322 0.929 . S
C1335 C1327 1.433 . S
C1335 N1337 1.384 . S
N1336 C1332 1.427 . S
N1336 C1333 1.384 . S
N1337 C1329 1.427 . S
N1337 C1335 1.384 . S
H1338 C1344 0.930 . S
H1339 C1348 0.930 . S
H1340 C1353 0.929 . S
H1341 C1351 0.929 . S
H1342 C1346 0.929 . S
H1343 C1352 0.929 . S
C1344 H1338 0.930 . S
C1344 C1345 1.367 . S
C1344 C1352 1.378 . S
C1345 C1344 1.367 . S
C1345 C1353 1.433 . S
C1346 H1342 0.929 . S
C1346 C1348 1.378 . S
C1346 C1350 1.350 . S
C1347 C1350 1.463 . S
C1347 C1352 1.350 . S
C1347 N1355 1.427 . S
C1348 H1339 0.930 . S
C1348 C1346 1.378 . S
C1348 C1349 1.367 . S
C1349 C1348 1.367 . S
C1349 C1351 1.433 . S
C1350 C1346 1.350 . S
C1350 C1347 1.463 . S
C1350 N1354 1.427 . S
C1351 H1341 0.929 . S
C1351 C1349 1.433 . S
C1351 N1354 1.384 . S
C1352 H1343 0.929 . S
C1352 C1344 1.378 . S
C1352 C1347 1.350 . S
C1353 H1340 0.929 . S
C1353 C1345 1.433 . S
C1353 N1355 1.384 . S
N1354 C1350 1.427 . S
N1354 C1351 1.384 . S
N1355 C1347 1.427 . S
N1355 C1353 1.384 . S
H1356 C1362 0.930 . S
H1357 C1366 0.930 . S
H1358 C1371 0.929 . S
H1359 C1369 0.929 . S
H1360 C1364 0.929 . S
H1361 C1370 0.929 . S
C1362 H1356 0.930 . S
C1362 C1363 1.367 . S
C1362 C1370 1.378 . S
C1363 C1362 1.367 . S
C1363 C1371 1.433 . S
C1364 H1360 0.929 . S
C1364 C1366 1.378 . S
C1364 C1368 1.350 . S
C1365 C1368 1.463 . S
C1365 C1370 1.350 . S
C1365 N1373 1.427 . S
C1366 H1357 0.930 . S
C1366 C1364 1.378 . S
C1366 C1367 1.367 . S
C1367 C1366 1.367 . S
C1367 C1369 1.433 . S
C1368 C1364 1.350 . S
C1368 C1365 1.463 . S
C1368 N1372 1.427 . S
C1369 H1359 0.929 . S
C1369 C1367 1.433 . S
C1369 N1372 1.384 . S
C1370 H1361 0.929 . S
C1370 C1362 1.378 . S
C1370 C1365 1.350 . S
C1371 H1358 0.929 . S
C1371 C1363 1.433 . S
C1371 N1373 1.384 . S
N1372 C1368 1.427 . S
N1372 C1369 1.384 . S
N1373 C1365 1.427 . S
N1373 C1371 1.384 . S
H1374 C1380 0.972 . S
H1375 C1384 0.930 . S
H1376 C1389 0.929 . S
H1377 C1387 0.929 . S
H1378 C1382 0.929 . S
H1379 C1388 0.929 . S
C1380 H1374 0.972 . S
C1380 C1381 1.367 . S
C1380 C1388 1.378 . S
C1381 C1380 1.367 . S
C1381 C1389 1.433 . S
C1382 H1378 0.929 . S
C1382 C1384 1.378 . S
C1382 C1386 1.350 . S
C1383 C1386 1.463 . S
C1383 C1388 1.350 . S
C1383 N1391 1.427 . S
C1384 H1375 0.930 . S
C1384 C1382 1.378 . S
C1384 C1385 1.367 . S
C1385 C1384 1.367 . S
C1385 C1387 1.433 . S
C1386 C1382 1.350 . S
C1386 C1383 1.463 . S
C1386 N1390 1.427 . S
C1387 H1377 0.929 . S
C1387 C1385 1.433 . S
C1387 N1390 1.384 . S
C1388 H1379 0.929 . S
C1388 C1380 1.378 . S
C1388 C1383 1.350 . S
C1389 H1376 0.929 . S
C1389 C1381 1.433 . S
C1389 N1391 1.384 . S
N1390 C1386 1.427 . S
N1390 C1387 1.384 . S
N1391 C1383 1.427 . S
N1391 C1389 1.384 . S
H1392 C1398 0.930 . S
H1393 C1402 0.930 . S
H1394 C1407 0.929 . S
H1395 C1405 0.929 . S
H1396 C1400 0.929 . S
H1397 C1406 0.929 . S
C1398 H1392 0.930 . S
C1398 C1399 1.367 . S
C1398 C1406 1.378 . S
C1399 C1398 1.367 . S
C1399 C1407 1.433 . S
C1400 H1396 0.929 . S
C1400 C1402 1.378 . S
C1400 C1404 1.350 . S
C1401 C1404 1.463 . S
C1401 C1406 1.350 . S
C1401 N1409 1.427 . S
C1402 H1393 0.930 . S
C1402 C1400 1.378 . S
C1402 C1403 1.367 . S
C1403 C1402 1.367 . S
C1403 C1405 1.433 . S
C1404 C1400 1.350 . S
C1404 C1401 1.463 . S
C1404 N1408 1.427 . S
C1405 H1395 0.929 . S
C1405 C1403 1.433 . S
C1405 N1408 1.384 . S
C1406 H1397 0.929 . S
C1406 C1398 1.378 . S
C1406 C1401 1.350 . S
C1407 H1394 0.929 . S
C1407 C1399 1.433 . S
C1407 N1409 1.384 . S
N1408 C1404 1.427 . S
N1408 C1405 1.384 . S
N1409 C1401 1.427 . S
N1409 C1407 1.384 . S
H1410 C1416 0.930 . S
H1411 C1420 0.930 . S
H1412 C1425 0.929 . S
H1413 C1423 0.929 . S
H1414 C1418 0.929 . S
H1415 C1424 0.929 . S
C1416 H1410 0.930 . S
C1416 C1417 1.367 . S
C1416 C1424 1.378 . S
C1417 C1416 1.367 . S
C1417 C1425 1.433 . S
C1418 H1414 0.929 . S
C1418 C1420 1.378 . S
C1418 C1422 1.350 . S
C1419 C1422 1.463 . S
C1419 C1424 1.350 . S
C1419 N1427 1.427 . S
C1420 H1411 0.930 . S
C1420 C1418 1.378 . S
C1420 C1421 1.367 . S
C1421 C1420 1.367 . S
C1421 C1423 1.433 . S
C1422 C1418 1.350 . S
C1422 C1419 1.463 . S
C1422 N1426 1.427 . S
C1423 H1413 0.929 . S
C1423 C1421 1.433 . S
C1423 N1426 1.384 . S
C1424 H1415 0.929 . S
C1424 C1416 1.378 . S
C1424 C1419 1.350 . S
C1425 H1412 0.929 . S
C1425 C1417 1.433 . S
C1425 N1427 1.384 . S
N1426 C1422 1.427 . S
N1426 C1423 1.384 . S
N1427 C1419 1.427 . S
N1427 C1425 1.384 . S
H1428 C1434 0.930 . S
H1429 C1438 0.930 . S
H1430 C1443 0.929 . S
H1431 C1441 0.929 . S
H1432 C1436 0.929 . S
H1433 C1442 0.929 . S
C1434 H1428 0.930 . S
C1434 C1435 1.367 . S
C1434 C1442 1.378 . S
C1435 C1434 1.367 . S
C1435 C1443 1.433 . S
C1436 H1432 0.929 . S
C1436 C1438 1.378 . S
C1436 C1440 1.350 . S
C1437 C1440 1.463 . S
C1437 C1442 1.350 . S
C1437 N1445 1.427 . S
C1438 H1429 0.930 . S
C1438 C1436 1.378 . S
C1438 C1439 1.367 . S
C1439 C1438 1.367 . S
C1439 C1441 1.433 . S
C1440 C1436 1.350 . S
C1440 C1437 1.463 . S
C1440 N1444 1.427 . S
C1441 H1431 0.929 . S
C1441 C1439 1.433 . S
C1441 N1444 1.384 . S
C1442 H1433 0.929 . S
C1442 C1434 1.378 . S
C1442 C1437 1.350 . S
C1443 H1430 0.929 . S
C1443 C1435 1.433 . S
C1443 N1445 1.384 . S
N1444 C1440 1.427 . S
N1444 C1441 1.384 . S
N1445 C1437 1.427 . S
N1445 C1443 1.384 . S
H1446 C1452 0.930 . S
H1447 C1456 0.930 . S
H1448 C1461 0.929 . S
H1449 C1459 0.929 . S
H1450 C1454 0.929 . S
H1451 C1460 0.929 . S
C1452 H1446 0.930 . S
C1452 C1453 1.367 . S
C1452 C1460 1.378 . S
C1453 C1452 1.367 . S
C1453 C1461 1.433 . S
C1454 H1450 0.929 . S
C1454 C1456 1.378 . S
C1454 C1458 1.350 . S
C1455 C1458 1.463 . S
C1455 C1460 1.350 . S
C1455 N1463 1.427 . S
C1456 H1447 0.930 . S
C1456 C1454 1.378 . S
C1456 C1457 1.367 . S
C1457 C1456 1.367 . S
C1457 C1459 1.433 . S
C1458 C1454 1.350 . S
C1458 C1455 1.463 . S
C1458 N1462 1.427 . S
C1459 H1449 0.929 . S
C1459 C1457 1.433 . S
C1459 N1462 1.384 . S
C1460 H1451 0.929 . S
C1460 C1452 1.378 . S
C1460 C1455 1.350 . S
C1461 H1448 0.929 . S
C1461 C1453 1.433 . S
C1461 N1463 1.384 . S
N1462 C1458 1.427 . S
N1462 C1459 1.384 . S
N1463 C1455 1.427 . S
N1463 C1461 1.384 . S
H1464 C1470 0.930 . S
H1465 C1474 0.930 . S
H1466 C1479 0.929 1_545 S
H1467 C1477 0.929 . S
H1468 C1472 0.929 . S
H1469 C1478 0.929 . S
C1470 H1464 0.930 . S
C1470 C1471 1.367 . S
C1470 C1478 1.378 . S
C1471 C1470 1.367 . S
C1471 C1479 1.433 . S
C1472 H1468 0.929 . S
C1472 C1474 1.378 . S
C1472 C1476 1.350 . S
C1473 C1476 1.463 . S
C1473 C1478 1.350 . S
C1473 N1481 1.427 . S
C1474 H1465 0.930 . S
C1474 C1472 1.378 . S
C1474 C1475 1.367 . S
C1475 C1474 1.367 . S
C1475 C1477 1.433 . S
C1476 C1472 1.350 . S
C1476 C1473 1.463 . S
C1476 N1480 1.427 . S
C1477 H1467 0.929 . S
C1477 C1475 1.433 . S
C1477 N1480 1.384 . S
C1478 H1469 0.929 . S
C1478 C1470 1.378 . S
C1478 C1473 1.350 . S
C1479 H1466 0.929 1_565 S
C1479 C1471 1.433 . S
C1479 N1481 1.384 . S
N1480 C1476 1.427 . S
N1480 C1477 1.384 . S
N1481 C1473 1.427 . S
N1481 C1479 1.384 . S
H1482 C1488 0.930 . S
H1483 C1492 0.930 . S
H1484 C1497 0.929 . S
H1485 C1495 0.929 . S
H1486 C1490 0.929 . S
H1487 C1496 0.929 . S
C1488 H1482 0.930 . S
C1488 C1489 1.367 . S
C1488 C1496 1.378 . S
C1489 C1488 1.367 . S
C1489 C1497 1.433 . S
C1490 H1486 0.929 . S
C1490 C1492 1.378 . S
C1490 C1494 1.350 . S
C1491 C1494 1.463 . S
C1491 C1496 1.350 . S
C1491 N1499 1.427 . S
C1492 H1483 0.930 . S
C1492 C1490 1.378 . S
C1492 C1493 1.367 . S
C1493 C1492 1.367 . S
C1493 C1495 1.433 . S
C1494 C1490 1.350 . S
C1494 C1491 1.463 . S
C1494 N1498 1.427 . S
C1495 H1485 0.929 . S
C1495 C1493 1.433 . S
C1495 N1498 1.384 . S
C1496 H1487 0.929 . S
C1496 C1488 1.378 . S
C1496 C1491 1.350 . S
C1497 H1484 0.929 . S
C1497 C1489 1.433 . S
C1497 N1499 1.384 . S
N1498 C1494 1.427 . S
N1498 C1495 1.384 . S
N1499 C1491 1.427 . S
N1499 C1497 1.384 . S
H1500 C1506 0.930 . S
H1501 C1510 0.930 . S
H1502 C1515 0.929 . S
H1503 C1513 0.929 . S
H1504 C1508 0.929 . S
H1505 C1514 0.929 . S
C1506 H1500 0.930 . S
C1506 C1507 1.367 . S
C1506 C1514 1.378 . S
C1507 C1506 1.367 . S
C1507 C1515 1.433 . S
C1508 H1504 0.929 . S
C1508 C1510 1.378 . S
C1508 C1512 1.350 . S
C1509 C1512 1.463 . S
C1509 C1514 1.350 . S
C1509 N1517 1.427 . S
C1510 H1501 0.930 . S
C1510 C1508 1.378 . S
C1510 C1511 1.367 . S
C1511 C1510 1.367 . S
C1511 C1513 1.433 . S
C1512 C1508 1.350 . S
C1512 C1509 1.463 . S
C1512 N1516 1.427 . S
C1513 H1503 0.929 . S
C1513 C1511 1.433 . S
C1513 N1516 1.384 . S
C1514 H1505 0.929 . S
C1514 C1506 1.378 . S
C1514 C1509 1.350 . S
C1515 H1502 0.929 . S
C1515 C1507 1.433 . S
C1515 N1517 1.384 . S
N1516 C1512 1.427 . S
N1516 C1513 1.384 . S
N1517 C1509 1.427 . S
N1517 C1515 1.384 . S
H1518 C1524 0.930 . S
H1519 C1528 0.930 . S
H1520 C1533 0.929 . S
H1521 C1531 0.929 . S
H1522 C1526 0.929 . S
H1523 C1532 0.929 . S
C1524 H1518 0.930 . S
C1524 C1525 1.367 . S
C1524 C1532 1.378 . S
C1525 C1524 1.367 . S
C1525 C1533 1.433 . S
C1526 H1522 0.929 . S
C1526 C1528 1.378 . S
C1526 C1530 1.350 . S
C1527 C1530 1.463 . S
C1527 C1532 1.350 . S
C1527 N1535 1.427 . S
C1528 H1519 0.930 . S
C1528 C1526 1.378 . S
C1528 C1529 1.367 . S
C1529 C1528 1.367 . S
C1529 C1531 1.433 . S
C1530 C1526 1.350 . S
C1530 C1527 1.463 . S
C1530 N1534 1.427 . S
C1531 H1521 0.929 . S
C1531 C1529 1.433 . S
C1531 N1534 1.384 . S
C1532 H1523 0.929 . S
C1532 C1524 1.378 . S
C1532 C1527 1.350 . S
C1533 H1520 0.929 . S
C1533 C1525 1.433 . S
C1533 N1535 1.384 . S
N1534 C1530 1.427 . S
N1534 C1531 1.384 . S
N1535 C1527 1.427 . S
N1535 C1533 1.384 . S
H1536 C1542 0.930 . S
H1537 C1546 0.930 . S
H1538 C1551 0.929 . S
H1539 C1549 0.929 . S
H1540 C1544 0.929 . S
H1541 C1550 0.929 . S
C1542 H1536 0.930 . S
C1542 C1543 1.367 . S
C1542 C1550 1.378 . S
C1543 C1542 1.367 . S
C1543 C1551 1.433 . S
C1544 H1540 0.929 . S
C1544 C1546 1.378 . S
C1544 C1548 1.350 . S
C1545 C1548 1.463 . S
C1545 C1550 1.350 . S
C1545 N1553 1.427 . S
C1546 H1537 0.930 . S
C1546 C1544 1.378 . S
C1546 C1547 1.367 . S
C1547 C1546 1.367 . S
C1547 C1549 1.433 . S
C1548 C1544 1.350 . S
C1548 C1545 1.463 . S
C1548 N1552 1.427 . S
C1549 H1539 0.929 . S
C1549 C1547 1.433 . S
C1549 N1552 1.384 . S
C1550 H1541 0.929 . S
C1550 C1542 1.378 . S
C1550 C1545 1.350 . S
C1551 H1538 0.929 . S
C1551 C1543 1.433 . S
C1551 N1553 1.384 . S
N1552 C1548 1.427 . S
N1552 C1549 1.384 . S
N1553 C1545 1.427 . S
N1553 C1551 1.384 . S
H1554 C1560 0.930 . S
H1555 C1564 0.930 . S
H1556 C1569 0.929 . S
H1557 C1567 0.929 . S
H1558 C1562 0.929 . S
H1559 C1568 0.929 . S
C1560 H1554 0.930 . S
C1560 C1561 1.367 . S
C1560 C1568 1.378 . S
C1561 C1560 1.367 . S
C1561 C1569 1.433 . S
C1562 H1558 0.929 . S
C1562 C1564 1.378 . S
C1562 C1566 1.350 . S
C1563 C1566 1.463 . S
C1563 C1568 1.350 . S
C1563 N1571 1.427 . S
C1564 H1555 0.930 . S
C1564 C1562 1.378 . S
C1564 C1565 1.367 . S
C1565 C1564 1.367 . S
C1565 C1567 1.433 . S
C1566 C1562 1.350 . S
C1566 C1563 1.463 . S
C1566 N1570 1.427 . S
C1567 H1557 0.929 . S
C1567 C1565 1.433 . S
C1567 N1570 1.384 . S
C1568 H1559 0.929 . S
C1568 C1560 1.378 . S
C1568 C1563 1.350 . S
C1569 H1556 0.929 . S
C1569 C1561 1.433 . S
C1569 N1571 1.384 . S
N1570 C1566 1.427 . S
N1570 C1567 1.384 . S
N1571 C1563 1.427 . S
N1571 C1569 1.384 . S
H1572 C1578 0.930 . S
H1573 C1582 0.930 . S
H1574 C1587 0.929 . S
H1575 C1585 0.929 . S
H1576 C1580 0.929 . S
H1577 C1586 0.929 . S
C1578 H1572 0.930 . S
C1578 C1579 1.367 . S
C1578 C1586 1.378 . S
C1579 C1578 1.367 . S
C1579 C1587 1.433 . S
C1580 H1576 0.929 . S
C1580 C1582 1.378 . S
C1580 C1584 1.350 . S
C1581 C1584 1.463 . S
C1581 C1586 1.350 . S
C1581 N1589 1.427 . S
C1582 H1573 0.930 . S
C1582 C1580 1.378 . S
C1582 C1583 1.367 . S
C1583 C1582 1.367 . S
C1583 C1585 1.433 . S
C1584 C1580 1.350 . S
C1584 C1581 1.463 . S
C1584 N1588 1.427 . S
C1585 H1575 0.929 . S
C1585 C1583 1.433 . S
C1585 N1588 1.384 . S
C1586 H1577 0.929 . S
C1586 C1578 1.378 . S
C1586 C1581 1.350 . S
C1587 H1574 0.929 . S
C1587 C1579 1.433 . S
C1587 N1589 1.384 . S
N1588 C1584 1.427 . S
N1588 C1585 1.384 . S
N1589 C1581 1.427 . S
N1589 C1587 1.384 . S
H1590 C1596 0.930 . S
H1591 C1600 0.930 . S
H1592 C1605 0.929 . S
H1593 C1603 0.929 . S
H1594 C1598 0.929 . S
H1595 C1604 0.929 . S
C1596 H1590 0.930 . S
C1596 C1597 1.367 . S
C1596 C1604 1.378 . S
C1597 C1596 1.367 . S
C1597 C1605 1.433 . S
C1598 H1594 0.929 . S
C1598 C1600 1.378 . S
C1598 C1602 1.350 . S
C1599 C1602 1.463 . S
C1599 C1604 1.350 . S
C1599 N1607 1.427 . S
C1600 H1591 0.930 . S
C1600 C1598 1.378 . S
C1600 C1601 1.367 . S
C1601 C1600 1.367 . S
C1601 C1603 1.433 . S
C1602 C1598 1.350 . S
C1602 C1599 1.463 . S
C1602 N1606 1.427 . S
C1603 H1593 0.929 . S
C1603 C1601 1.433 . S
C1603 N1606 1.384 . S
C1604 H1595 0.929 . S
C1604 C1596 1.378 . S
C1604 C1599 1.350 . S
C1605 H1592 0.929 . S
C1605 C1597 1.433 . S
C1605 N1607 1.384 . S
N1606 C1602 1.427 . S
N1606 C1603 1.384 . S
N1607 C1599 1.427 . S
N1607 C1605 1.384 . S
H1608 C1614 0.930 . S
H1609 C1618 0.930 . S
H1610 C1623 0.929 . S
H1611 C1621 0.929 . S
H1612 C1616 0.929 . S
H1613 C1622 0.929 . S
C1614 H1608 0.930 . S
C1614 C1615 1.367 . S
C1614 C1622 1.378 . S
C1615 C1614 1.367 . S
C1615 C1623 1.433 . S
C1616 H1612 0.929 . S
C1616 C1618 1.378 . S
C1616 C1620 1.350 . S
C1617 C1620 1.463 . S
C1617 C1622 1.350 . S
C1617 N1625 1.427 . S
C1618 H1609 0.930 . S
C1618 C1616 1.378 . S
C1618 C1619 1.367 . S
C1619 C1618 1.367 . S
C1619 C1621 1.433 . S
C1620 C1616 1.350 . S
C1620 C1617 1.463 . S
C1620 N1624 1.427 . S
C1621 H1611 0.929 . S
C1621 C1619 1.433 . S
C1621 N1624 1.384 . S
C1622 H1613 0.929 . S
C1622 C1614 1.378 . S
C1622 C1617 1.350 . S
C1623 H1610 0.929 . S
C1623 C1615 1.433 . S
C1623 N1625 1.384 . S
N1624 C1620 1.427 . S
N1624 C1621 1.384 . S
N1625 C1617 1.427 . S
N1625 C1623 1.384 . S
H1626 C1632 0.930 . S
H1627 C1636 0.926 . S
H1628 C1641 0.929 . S
H1629 C1639 0.929 . S
H1630 C1634 0.929 . S
H1631 C1640 0.929 . S
C1632 H1626 0.930 . S
C1632 C1633 1.367 . S
C1632 C1640 1.378 . S
C1633 C1632 1.367 . S
C1633 C1641 1.433 . S
C1634 H1630 0.929 . S
C1634 C1636 1.378 . S
C1634 C1638 1.350 . S
C1635 C1638 1.463 . S
C1635 C1640 1.350 . S
C1635 N1643 1.427 . S
C1636 H1627 0.926 . S
C1636 C1634 1.378 . S
C1636 C1637 1.367 . S
C1637 C1636 1.367 . S
C1637 C1639 1.433 . S
C1638 C1634 1.350 . S
C1638 C1635 1.463 . S
C1638 N1642 1.427 . S
C1639 H1629 0.929 . S
C1639 C1637 1.433 . S
C1639 N1642 1.384 . S
C1640 H1631 0.929 . S
C1640 C1632 1.378 . S
C1640 C1635 1.350 . S
C1641 H1628 0.929 . S
C1641 C1633 1.433 . S
C1641 N1643 1.384 . S
N1642 C1638 1.427 . S
N1642 C1639 1.384 . S
N1643 C1635 1.427 . S
N1643 C1641 1.384 . S
H1644 C1650 0.930 . S
H1645 C1654 0.930 . S
H1646 C1659 0.929 . S
H1647 C1657 0.929 . S
H1648 C1652 0.929 . S
H1649 C1658 0.929 . S
C1650 H1644 0.930 . S
C1650 C1651 1.367 . S
C1650 C1658 1.378 . S
C1651 C1650 1.367 . S
C1651 C1659 1.433 . S
C1652 H1648 0.929 . S
C1652 C1654 1.378 . S
C1652 C1656 1.350 . S
C1653 C1656 1.463 . S
C1653 C1658 1.350 . S
C1653 N1661 1.427 . S
C1654 H1645 0.930 . S
C1654 C1652 1.378 . S
C1654 C1655 1.367 . S
C1655 C1654 1.367 . S
C1655 C1657 1.433 . S
C1656 C1652 1.350 . S
C1656 C1653 1.463 . S
C1656 N1660 1.427 . S
C1657 H1647 0.929 . S
C1657 C1655 1.433 . S
C1657 N1660 1.384 . S
C1658 H1649 0.929 . S
C1658 C1650 1.378 . S
C1658 C1653 1.350 . S
C1659 H1646 0.929 . S
C1659 C1651 1.433 . S
C1659 N1661 1.384 . S
N1660 C1656 1.427 . S
N1660 C1657 1.384 . S
N1661 C1653 1.427 . S
N1661 C1659 1.384 . S
H1662 C1668 0.930 . S
H1663 C1672 0.930 . S
H1664 C1677 0.929 . S
H1665 C1675 0.929 . S
H1666 C1670 0.929 . S
H1667 C1676 0.929 . S
C1668 H1662 0.930 . S
C1668 C1669 1.367 . S
C1668 C1676 1.378 . S
C1669 C1668 1.367 . S
C1669 C1677 1.433 . S
C1670 H1666 0.929 . S
C1670 C1672 1.378 . S
C1670 C1674 1.350 . S
C1671 C1674 1.463 . S
C1671 C1676 1.350 . S
C1671 N1679 1.427 . S
C1672 H1663 0.930 . S
C1672 C1670 1.378 . S
C1672 C1673 1.367 . S
C1673 C1672 1.367 . S
C1673 C1675 1.433 . S
C1674 C1670 1.350 . S
C1674 C1671 1.463 . S
C1674 N1678 1.427 . S
C1675 H1665 0.929 . S
C1675 C1673 1.433 . S
C1675 N1678 1.384 . S
C1676 H1667 0.929 . S
C1676 C1668 1.378 . S
C1676 C1671 1.350 . S
C1677 H1664 0.929 . S
C1677 C1669 1.433 . S
C1677 N1679 1.384 . S
N1678 C1674 1.427 . S
N1678 C1675 1.384 . S
N1679 C1671 1.427 . S
N1679 C1677 1.384 . S
H1680 C1686 0.930 . S
H1681 C1690 0.930 . S
H1682 C1695 0.929 . S
H1683 C1693 0.929 . S
H1684 C1688 0.929 . S
H1685 C1694 0.929 . S
C1686 H1680 0.930 . S
C1686 C1687 1.367 . S
C1686 C1694 1.378 . S
C1687 C1686 1.367 . S
C1687 C1695 1.433 . S
C1688 H1684 0.929 . S
C1688 C1690 1.378 . S
C1688 C1692 1.350 . S
C1689 C1692 1.463 . S
C1689 C1694 1.350 . S
C1689 N1697 1.427 . S
C1690 H1681 0.930 . S
C1690 C1688 1.378 . S
C1690 C1691 1.367 . S
C1691 C1690 1.367 . S
C1691 C1693 1.433 . S
C1692 C1688 1.350 . S
C1692 C1689 1.463 . S
C1692 N1696 1.427 . S
C1693 H1683 0.929 . S
C1693 C1691 1.433 . S
C1693 N1696 1.384 . S
C1694 H1685 0.929 . S
C1694 C1686 1.378 . S
C1694 C1689 1.350 . S
C1695 H1682 0.929 . S
C1695 C1687 1.433 . S
C1695 N1697 1.384 . S
N1696 C1692 1.427 . S
N1696 C1693 1.384 . S
N1697 C1689 1.427 . S
N1697 C1695 1.384 . S
H1698 C1704 0.930 . S
H1699 C1708 0.930 . S
H1700 C1713 0.929 . S
H1701 C1711 0.929 . S
H1702 C1706 0.929 . S
H1703 C1712 0.929 . S
C1704 H1698 0.930 . S
C1704 C1705 1.367 . S
C1704 C1712 1.378 . S
C1705 C1704 1.367 . S
C1705 C1713 1.433 . S
C1706 H1702 0.929 . S
C1706 C1708 1.378 . S
C1706 C1710 1.350 . S
C1707 C1710 1.463 . S
C1707 C1712 1.350 . S
C1707 N1715 1.427 . S
C1708 H1699 0.930 . S
C1708 C1706 1.378 . S
C1708 C1709 1.367 . S
C1709 C1708 1.367 . S
C1709 C1711 1.433 . S
C1710 C1706 1.350 . S
C1710 C1707 1.463 . S
C1710 N1714 1.427 . S
C1711 H1701 0.929 . S
C1711 C1709 1.433 . S
C1711 N1714 1.384 . S
C1712 H1703 0.929 . S
C1712 C1704 1.378 . S
C1712 C1707 1.350 . S
C1713 H1700 0.929 . S
C1713 C1705 1.433 . S
C1713 N1715 1.384 . S
N1714 C1710 1.427 . S
N1714 C1711 1.384 . S
N1715 C1707 1.427 . S
N1715 C1713 1.384 . S
H1716 C1722 0.930 . S
H1717 C1726 0.930 . S
H1718 C1731 0.929 . S
H1719 C1729 0.929 . S
H1720 C1724 0.929 . S
H1721 C1730 0.929 . S
C1722 H1716 0.930 . S
C1722 C1723 1.367 . S
C1722 C1730 1.378 . S
C1723 C1722 1.367 . S
C1723 C1731 1.433 . S
C1724 H1720 0.929 . S
C1724 C1726 1.378 . S
C1724 C1728 1.350 . S
C1725 C1728 1.463 . S
C1725 C1730 1.350 . S
C1725 N1733 1.427 . S
C1726 H1717 0.930 . S
C1726 C1724 1.378 . S
C1726 C1727 1.367 . S
C1727 C1726 1.367 . S
C1727 C1729 1.433 . S
C1728 C1724 1.350 . S
C1728 C1725 1.463 . S
C1728 N1732 1.427 . S
C1729 H1719 0.929 . S
C1729 C1727 1.433 . S
C1729 N1732 1.384 . S
C1730 H1721 0.929 . S
C1730 C1722 1.378 . S
C1730 C1725 1.350 . S
C1731 H1718 0.929 . S
C1731 C1723 1.433 . S
C1731 N1733 1.384 . S
N1732 C1728 1.427 . S
N1732 C1729 1.384 . S
N1733 C1725 1.427 . S
N1733 C1731 1.384 . S
H1734 C1740 0.930 . S
H1735 C1744 0.930 . S
H1736 C1749 0.929 . S
H1737 C1747 0.929 . S
H1738 C1742 0.929 . S
H1739 C1748 0.929 . S
C1740 H1734 0.930 . S
C1740 C1741 1.367 . S
C1740 C1748 1.378 . S
C1741 C1740 1.367 . S
C1741 C1749 1.433 . S
C1742 H1738 0.929 . S
C1742 C1744 1.378 . S
C1742 C1746 1.350 . S
C1743 C1746 1.463 . S
C1743 C1748 1.350 . S
C1743 N1751 1.427 . S
C1744 H1735 0.930 . S
C1744 C1742 1.378 . S
C1744 C1745 1.367 . S
C1745 C1744 1.367 . S
C1745 C1747 1.433 . S
C1746 C1742 1.350 . S
C1746 C1743 1.463 . S
C1746 N1750 1.427 . S
C1747 H1737 0.929 . S
C1747 C1745 1.433 . S
C1747 N1750 1.384 . S
C1748 H1739 0.929 . S
C1748 C1740 1.378 . S
C1748 C1743 1.350 . S
C1749 H1736 0.929 . S
C1749 C1741 1.433 . S
C1749 N1751 1.384 . S
N1750 C1746 1.427 . S
N1750 C1747 1.384 . S
N1751 C1743 1.427 . S
N1751 C1749 1.384 . S
H1752 C1758 0.930 . S
H1753 C1762 0.930 . S
H1754 C1767 0.929 . S
H1755 C1765 0.929 . S
H1756 C1760 0.929 . S
H1757 C1766 0.929 . S
C1758 H1752 0.930 . S
C1758 C1759 1.367 . S
C1758 C1766 1.378 . S
C1759 C1758 1.367 . S
C1759 C1767 1.433 . S
C1760 H1756 0.929 . S
C1760 C1762 1.378 . S
C1760 C1764 1.350 . S
C1761 C1764 1.463 . S
C1761 C1766 1.350 . S
C1761 N1769 1.427 . S
C1762 H1753 0.930 . S
C1762 C1760 1.378 . S
C1762 C1763 1.367 . S
C1763 C1762 1.367 . S
C1763 C1765 1.433 . S
C1764 C1760 1.350 . S
C1764 C1761 1.463 . S
C1764 N1768 1.427 . S
C1765 H1755 0.929 . S
C1765 C1763 1.433 . S
C1765 N1768 1.384 . S
C1766 H1757 0.929 . S
C1766 C1758 1.378 . S
C1766 C1761 1.350 . S
C1767 H1754 0.929 . S
C1767 C1759 1.433 . S
C1767 N1769 1.384 . S
N1768 C1764 1.427 . S
N1768 C1765 1.384 . S
N1769 C1761 1.427 . S
N1769 C1767 1.384 . S
H1770 C1776 0.930 . S
H1771 C1780 0.965 . S
H1772 C1785 0.929 . S
H1773 C1783 0.929 . S
H1774 C1778 0.929 . S
H1775 C1784 0.929 . S
C1776 H1770 0.930 . S
C1776 C1777 1.367 . S
C1776 C1784 1.378 . S
C1777 C1776 1.367 . S
C1777 C1785 1.433 . S
C1778 H1774 0.929 . S
C1778 C1780 1.378 . S
C1778 C1782 1.350 . S
C1779 C1782 1.463 . S
C1779 C1784 1.350 . S
C1779 N1787 1.427 . S
C1780 H1771 0.965 . S
C1780 C1778 1.378 . S
C1780 C1781 1.367 . S
C1781 C1780 1.367 . S
C1781 C1783 1.433 . S
C1782 C1778 1.350 . S
C1782 C1779 1.463 . S
C1782 N1786 1.427 . S
C1783 H1773 0.929 . S
C1783 C1781 1.433 . S
C1783 N1786 1.384 . S
C1784 H1775 0.929 . S
C1784 C1776 1.378 . S
C1784 C1779 1.350 . S
C1785 H1772 0.929 . S
C1785 C1777 1.433 . S
C1785 N1787 1.384 . S
N1786 C1782 1.427 . S
N1786 C1783 1.384 . S
N1787 C1779 1.427 . S
N1787 C1785 1.384 . S
H1788 C1794 0.930 . S
H1789 C1798 0.930 . S
H1790 C1803 0.929 . S
H1791 C1801 0.929 . S
H1792 C1796 0.929 . S
H1793 C1802 0.929 . S
C1794 H1788 0.930 . S
C1794 C1795 1.367 . S
C1794 C1802 1.378 . S
C1795 C1794 1.367 . S
C1795 C1803 1.433 . S
C1796 H1792 0.929 . S
C1796 C1798 1.378 . S
C1796 C1800 1.350 . S
C1797 C1800 1.463 . S
C1797 C1802 1.350 . S
C1797 N1805 1.427 . S
C1798 H1789 0.930 . S
C1798 C1796 1.378 . S
C1798 C1799 1.367 . S
C1799 C1798 1.367 . S
C1799 C1801 1.433 . S
C1800 C1796 1.350 . S
C1800 C1797 1.463 . S
C1800 N1804 1.427 . S
C1801 H1791 0.929 . S
C1801 C1799 1.433 . S
C1801 N1804 1.384 . S
C1802 H1793 0.929 . S
C1802 C1794 1.378 . S
C1802 C1797 1.350 . S
C1803 H1790 0.929 . S
C1803 C1795 1.433 . S
C1803 N1805 1.384 . S
N1804 C1800 1.427 . S
N1804 C1801 1.384 . S
N1805 C1797 1.427 . S
N1805 C1803 1.384 . S
H1806 C1812 0.930 . S
H1807 C1816 0.930 . S
H1808 C1821 0.929 . S
H1809 C1819 0.929 . S
H1810 C1814 0.929 . S
H1811 C1820 0.929 . S
C1812 H1806 0.930 . S
C1812 C1813 1.367 . S
C1812 C1820 1.378 . S
C1813 C1812 1.367 . S
C1813 C1821 1.433 . S
C1814 H1810 0.929 . S
C1814 C1816 1.378 . S
C1814 C1818 1.350 . S
C1815 C1818 1.463 . S
C1815 C1820 1.350 . S
C1815 N1823 1.427 . S
C1816 H1807 0.930 . S
C1816 C1814 1.378 . S
C1816 C1817 1.367 . S
C1817 C1816 1.367 . S
C1817 C1819 1.433 . S
C1818 C1814 1.350 . S
C1818 C1815 1.463 . S
C1818 N1822 1.427 . S
C1819 H1809 0.929 . S
C1819 C1817 1.433 . S
C1819 N1822 1.384 . S
C1820 H1811 0.929 . S
C1820 C1812 1.378 . S
C1820 C1815 1.350 . S
C1821 H1808 0.929 . S
C1821 C1813 1.433 . S
C1821 N1823 1.384 . S
N1822 C1818 1.427 . S
N1822 C1819 1.384 . S
N1823 C1815 1.427 . S
N1823 C1821 1.384 . S
H1824 C1830 0.930 . S
H1825 C1834 0.930 . S
H1826 C1839 0.929 . S
H1827 C1837 0.929 . S
H1828 C1832 0.929 . S
H1829 C1838 0.929 . S
C1830 H1824 0.930 . S
C1830 C1831 1.367 . S
C1830 C1838 1.378 . S
C1831 C1830 1.367 . S
C1831 C1839 1.433 . S
C1832 H1828 0.929 . S
C1832 C1834 1.378 . S
C1832 C1836 1.350 . S
C1833 C1836 1.463 . S
C1833 C1838 1.350 . S
C1833 N1841 1.427 . S
C1834 H1825 0.930 . S
C1834 C1832 1.378 . S
C1834 C1835 1.367 . S
C1835 C1834 1.367 . S
C1835 C1837 1.433 . S
C1836 C1832 1.350 . S
C1836 C1833 1.463 . S
C1836 N1840 1.427 . S
C1837 H1827 0.929 . S
C1837 C1835 1.433 . S
C1837 N1840 1.384 . S
C1838 H1829 0.929 . S
C1838 C1830 1.378 . S
C1838 C1833 1.350 . S
C1839 H1826 0.929 . S
C1839 C1831 1.433 . S
C1839 N1841 1.384 . S
N1840 C1836 1.427 . S
N1840 C1837 1.384 . S
N1841 C1833 1.427 . S
N1841 C1839 1.384 . S
H1842 C1848 0.930 . S
H1843 C1852 0.930 . S
H1844 C1857 0.929 . S
H1845 C1855 0.929 . S
H1846 C1850 0.929 . S
H1847 C1856 0.929 . S
C1848 H1842 0.930 . S
C1848 C1849 1.367 . S
C1848 C1856 1.378 . S
C1849 C1848 1.367 . S
C1849 C1857 1.433 . S
C1850 H1846 0.929 . S
C1850 C1852 1.378 . S
C1850 C1854 1.350 . S
C1851 C1854 1.463 . S
C1851 C1856 1.350 . S
C1851 N1859 1.427 . S
C1852 H1843 0.930 . S
C1852 C1850 1.378 . S
C1852 C1853 1.367 . S
C1853 C1852 1.367 . S
C1853 C1855 1.433 . S
C1854 C1850 1.350 . S
C1854 C1851 1.463 . S
C1854 N1858 1.427 . S
C1855 H1845 0.929 . S
C1855 C1853 1.433 . S
C1855 N1858 1.384 . S
C1856 H1847 0.929 . S
C1856 C1848 1.378 . S
C1856 C1851 1.350 . S
C1857 H1844 0.929 . S
C1857 C1849 1.433 . S
C1857 N1859 1.384 . S
N1858 C1854 1.427 . S
N1858 C1855 1.384 . S
N1859 C1851 1.427 . S
N1859 C1857 1.384 . S
H1860 C1866 0.930 . S
H1861 C1870 0.930 1_565 S
H1862 C1875 0.929 . S
H1863 C1873 0.929 . S
H1864 C1868 0.929 . S
H1865 C1874 0.929 . S
C1866 H1860 0.930 . S
C1866 C1867 1.367 . S
C1866 C1874 1.378 . S
C1867 C1866 1.367 . S
C1867 C1875 1.433 . S
C1868 H1864 0.929 . S
C1868 C1870 1.378 . S
C1868 C1872 1.350 . S
C1869 C1872 1.463 . S
C1869 C1874 1.350 . S
C1869 N1877 1.427 . S
C1870 H1861 0.930 1_545 S
C1870 C1868 1.378 . S
C1870 C1871 1.367 . S
C1871 C1870 1.367 . S
C1871 C1873 1.433 . S
C1872 C1868 1.350 . S
C1872 C1869 1.463 . S
C1872 N1876 1.427 . S
C1873 H1863 0.929 . S
C1873 C1871 1.433 . S
C1873 N1876 1.384 . S
C1874 H1865 0.929 . S
C1874 C1866 1.378 . S
C1874 C1869 1.350 . S
C1875 H1862 0.929 . S
C1875 C1867 1.433 . S
C1875 N1877 1.384 . S
N1876 C1872 1.427 . S
N1876 C1873 1.384 . S
N1877 C1869 1.427 . S
N1877 C1875 1.384 . S
H1878 C1884 0.930 . S
H1879 C1888 0.930 . S
H1880 C1893 0.929 . S
H1881 C1891 0.929 . S
H1882 C1886 0.929 . S
H1883 C1892 0.929 . S
C1884 H1878 0.930 . S
C1884 C1885 1.367 . S
C1884 C1892 1.378 . S
C1885 C1884 1.367 . S
C1885 C1893 1.433 . S
C1886 H1882 0.929 . S
C1886 C1888 1.378 . S
C1886 C1890 1.350 . S
C1887 C1890 1.463 . S
C1887 C1892 1.350 . S
C1887 N1895 1.427 . S
C1888 H1879 0.930 . S
C1888 C1886 1.378 . S
C1888 C1889 1.367 . S
C1889 C1888 1.367 . S
C1889 C1891 1.433 . S
C1890 C1886 1.350 . S
C1890 C1887 1.463 . S
C1890 N1894 1.427 . S
C1891 H1881 0.929 . S
C1891 C1889 1.433 . S
C1891 N1894 1.384 . S
C1892 H1883 0.929 . S
C1892 C1884 1.378 . S
C1892 C1887 1.350 . S
C1893 H1880 0.929 . S
C1893 C1885 1.433 . S
C1893 N1895 1.384 . S
N1894 C1890 1.427 . S
N1894 C1891 1.384 . S
N1895 C1887 1.427 . S
N1895 C1893 1.384 . S
H1896 C1902 0.930 . S
H1897 C1906 0.930 . S
H1898 C1911 0.929 . S
H1899 C1909 0.929 . S
H1900 C1904 0.929 . S
H1901 C1910 0.929 . S
C1902 H1896 0.930 . S
C1902 C1903 1.367 . S
C1902 C1910 1.378 . S
C1903 C1902 1.367 . S
C1903 C1911 1.433 . S
C1904 H1900 0.929 . S
C1904 C1906 1.378 . S
C1904 C1908 1.350 . S
C1905 C1908 1.463 . S
C1905 C1910 1.350 . S
C1905 N1913 1.427 . S
C1906 H1897 0.930 . S
C1906 C1904 1.378 . S
C1906 C1907 1.367 . S
C1907 C1906 1.367 . S
C1907 C1909 1.433 . S
C1908 C1904 1.350 . S
C1908 C1905 1.463 . S
C1908 N1912 1.427 . S
C1909 H1899 0.929 . S
C1909 C1907 1.433 . S
C1909 N1912 1.384 . S
C1910 H1901 0.929 . S
C1910 C1902 1.378 . S
C1910 C1905 1.350 . S
C1911 H1898 0.929 . S
C1911 C1903 1.433 . S
C1911 N1913 1.384 . S
N1912 C1908 1.427 . S
N1912 C1909 1.384 . S
N1913 C1905 1.427 . S
N1913 C1911 1.384 . S
H1914 C1920 0.930 . S
H1915 C1924 0.930 . S
H1916 C1929 0.929 . S
H1917 C1927 0.929 . S
H1918 C1922 0.929 . S
H1919 C1928 0.929 . S
C1920 H1914 0.930 . S
C1920 C1921 1.367 . S
C1920 C1928 1.378 . S
C1921 C1920 1.367 . S
C1921 C1929 1.433 . S
C1922 H1918 0.929 . S
C1922 C1924 1.378 . S
C1922 C1926 1.350 . S
C1923 C1926 1.463 . S
C1923 C1928 1.350 . S
C1923 N1931 1.427 . S
C1924 H1915 0.930 . S
C1924 C1922 1.378 . S
C1924 C1925 1.367 . S
C1925 C1924 1.367 . S
C1925 C1927 1.433 . S
C1926 C1922 1.350 . S
C1926 C1923 1.463 . S
C1926 N1930 1.427 . S
C1927 H1917 0.929 . S
C1927 C1925 1.433 . S
C1927 N1930 1.384 . S
C1928 H1919 0.929 . S
C1928 C1920 1.378 . S
C1928 C1923 1.350 . S
C1929 H1916 0.929 . S
C1929 C1921 1.433 . S
C1929 N1931 1.384 . S
N1930 C1926 1.427 . S
N1930 C1927 1.384 . S
N1931 C1923 1.427 . S
N1931 C1929 1.384 . S
H1932 C1938 0.930 . S
H1933 C1942 0.930 . S
H1934 C1947 0.929 . S
H1935 C1945 0.929 . S
H1936 C1940 0.929 . S
H1937 C1946 0.929 . S
C1938 H1932 0.930 . S
C1938 C1939 1.367 . S
C1938 C1946 1.378 . S
C1939 C1938 1.367 . S
C1939 C1947 1.433 . S
C1940 H1936 0.929 . S
C1940 C1942 1.378 . S
C1940 C1944 1.350 . S
C1941 C1944 1.463 . S
C1941 C1946 1.350 . S
C1941 N1949 1.427 . S
C1942 H1933 0.930 . S
C1942 C1940 1.378 . S
C1942 C1943 1.367 . S
C1943 C1942 1.367 . S
C1943 C1945 1.433 . S
C1944 C1940 1.350 . S
C1944 C1941 1.463 . S
C1944 N1948 1.427 . S
C1945 H1935 0.929 . S
C1945 C1943 1.433 . S
C1945 N1948 1.384 . S
C1946 H1937 0.929 . S
C1946 C1938 1.378 . S
C1946 C1941 1.350 . S
C1947 H1934 0.929 . S
C1947 C1939 1.433 . S
C1947 N1949 1.384 . S
N1948 C1944 1.427 . S
N1948 C1945 1.384 . S
N1949 C1941 1.427 . S
N1949 C1947 1.384 . S
H1950 C1956 0.930 . S
H1951 C1960 0.930 1_565 S
H1952 C1965 0.929 . S
H1953 C1963 0.929 . S
H1954 C1958 0.929 . S
H1955 C1964 0.929 . S
C1956 H1950 0.930 . S
C1956 C1957 1.367 . S
C1956 C1964 1.378 . S
C1957 C1956 1.367 . S
C1957 C1965 1.433 . S
C1958 H1954 0.929 . S
C1958 C1960 1.378 . S
C1958 C1962 1.350 . S
C1959 C1962 1.463 . S
C1959 C1964 1.350 . S
C1959 N1967 1.427 . S
C1960 H1951 0.930 1_545 S
C1960 C1958 1.378 . S
C1960 C1961 1.367 . S
C1961 C1960 1.367 . S
C1961 C1963 1.433 . S
C1962 C1958 1.350 . S
C1962 C1959 1.463 . S
C1962 N1966 1.427 . S
C1963 H1953 0.929 . S
C1963 C1961 1.433 . S
C1963 N1966 1.384 . S
C1964 H1955 0.929 . S
C1964 C1956 1.378 . S
C1964 C1959 1.350 . S
C1965 H1952 0.929 . S
C1965 C1957 1.433 . S
C1965 N1967 1.384 . S
N1966 C1962 1.427 . S
N1966 C1963 1.384 . S
N1967 C1959 1.427 . S
N1967 C1965 1.384 . S
H1968 C1974 0.930 . S
H1969 C1978 0.930 . S
H1970 C1983 0.929 . S
H1971 C1981 0.929 . S
H1972 C1976 0.929 . S
H1973 C1982 0.929 . S
C1974 H1968 0.930 . S
C1974 C1975 1.367 . S
C1974 C1982 1.378 . S
C1975 C1974 1.367 . S
C1975 C1983 1.433 . S
C1976 H1972 0.929 . S
C1976 C1978 1.378 . S
C1976 C1980 1.350 . S
C1977 C1980 1.463 . S
C1977 C1982 1.350 . S
C1977 N1985 1.427 . S
C1978 H1969 0.930 . S
C1978 C1976 1.378 . S
C1978 C1979 1.367 . S
C1979 C1978 1.367 . S
C1979 C1981 1.433 . S
C1980 C1976 1.350 . S
C1980 C1977 1.463 . S
C1980 N1984 1.427 . S
C1981 H1971 0.929 . S
C1981 C1979 1.433 . S
C1981 N1984 1.384 . S
C1982 H1973 0.929 . S
C1982 C1974 1.378 . S
C1982 C1977 1.350 . S
C1983 H1970 0.929 . S
C1983 C1975 1.433 . S
C1983 N1985 1.384 . S
N1984 C1980 1.427 . S
N1984 C1981 1.384 . S
N1985 C1977 1.427 . S
N1985 C1983 1.384 . S
H1986 C1992 0.930 . S
H1987 C1996 0.930 . S
H1988 C2001 0.929 . S
H1989 C1999 0.929 . S
H1990 C1994 0.929 . S
H1991 C2000 0.929 . S
C1992 H1986 0.930 . S
C1992 C1993 1.367 . S
C1992 C2000 1.378 . S
C1993 C1992 1.367 . S
C1993 C2001 1.433 . S
C1994 H1990 0.929 . S
C1994 C1996 1.378 . S
C1994 C1998 1.350 . S
C1995 C1998 1.463 . S
C1995 C2000 1.350 . S
C1995 N2003 1.427 . S
C1996 H1987 0.930 . S
C1996 C1994 1.378 . S
C1996 C1997 1.367 . S
C1997 C1996 1.367 . S
C1997 C1999 1.433 . S
C1998 C1994 1.350 . S
C1998 C1995 1.463 . S
C1998 N2002 1.427 . S
C1999 H1989 0.929 . S
C1999 C1997 1.433 . S
C1999 N2002 1.384 . S
C2000 H1991 0.929 . S
C2000 C1992 1.378 . S
C2000 C1995 1.350 . S
C2001 H1988 0.929 . S
C2001 C1993 1.433 . S
C2001 N2003 1.384 . S
N2002 C1998 1.427 . S
N2002 C1999 1.384 . S
N2003 C1995 1.427 . S
N2003 C2001 1.384 . S
H2004 C2010 0.930 . S
H2005 C2014 0.930 . S
H2006 C2019 0.929 . S
H2007 C2017 0.929 . S
H2008 C2012 0.929 . S
H2009 C2018 0.929 . S
C2010 H2004 0.930 . S
C2010 C2011 1.367 . S
C2010 C2018 1.378 . S
C2011 C2010 1.367 . S
C2011 C2019 1.433 . S
C2012 H2008 0.929 . S
C2012 C2014 1.378 . S
C2012 C2016 1.350 . S
C2013 C2016 1.463 . S
C2013 C2018 1.350 . S
C2013 N2021 1.427 . S
C2014 H2005 0.930 . S
C2014 C2012 1.378 . S
C2014 C2015 1.367 . S
C2015 C2014 1.367 . S
C2015 C2017 1.433 . S
C2016 C2012 1.350 . S
C2016 C2013 1.463 . S
C2016 N2020 1.427 . S
C2017 H2007 0.929 . S
C2017 C2015 1.433 . S
C2017 N2020 1.384 . S
C2018 H2009 0.929 . S
C2018 C2010 1.378 . S
C2018 C2013 1.350 . S
C2019 H2006 0.929 . S
C2019 C2011 1.433 . S
C2019 N2021 1.384 . S
N2020 C2016 1.427 . S
N2020 C2017 1.384 . S
N2021 C2013 1.427 . S
N2021 C2019 1.384 . S
H2022 C2028 0.930 . S
H2023 C2032 0.930 . S
H2024 C2037 0.929 . S
H2025 C2035 0.929 . S
H2026 C2030 0.929 . S
H2027 C2036 0.929 . S
C2028 H2022 0.930 . S
C2028 C2029 1.367 . S
C2028 C2036 1.378 . S
C2029 C2028 1.367 . S
C2029 C2037 1.433 . S
C2030 H2026 0.929 . S
C2030 C2032 1.378 . S
C2030 C2034 1.350 . S
C2031 C2034 1.463 . S
C2031 C2036 1.350 . S
C2031 N2039 1.427 . S
C2032 H2023 0.930 . S
C2032 C2030 1.378 . S
C2032 C2033 1.367 . S
C2033 C2032 1.367 . S
C2033 C2035 1.433 . S
C2034 C2030 1.350 . S
C2034 C2031 1.463 . S
C2034 N2038 1.427 . S
C2035 H2025 0.929 . S
C2035 C2033 1.433 . S
C2035 N2038 1.384 . S
C2036 H2027 0.929 . S
C2036 C2028 1.378 . S
C2036 C2031 1.350 . S
C2037 H2024 0.929 . S
C2037 C2029 1.433 . S
C2037 N2039 1.384 . S
N2038 C2034 1.427 . S
N2038 C2035 1.384 . S
N2039 C2031 1.427 . S
N2039 C2037 1.384 . S
H2040 C2046 0.930 . S
H2041 C2050 0.930 . S
H2042 C2055 0.929 . S
H2043 C2053 0.929 . S
H2044 C2048 0.929 . S
H2045 C2054 0.929 . S
C2046 H2040 0.930 . S
C2046 C2047 1.367 . S
C2046 C2054 1.378 . S
C2047 C2046 1.367 . S
C2047 C2055 1.433 . S
C2048 H2044 0.929 . S
C2048 C2050 1.378 . S
C2048 C2052 1.350 . S
C2049 C2052 1.463 . S
C2049 C2054 1.350 . S
C2049 N2057 1.427 . S
C2050 H2041 0.930 . S
C2050 C2048 1.378 . S
C2050 C2051 1.367 . S
C2051 C2050 1.367 . S
C2051 C2053 1.433 . S
C2052 C2048 1.350 . S
C2052 C2049 1.463 . S
C2052 N2056 1.427 . S
C2053 H2043 0.929 . S
C2053 C2051 1.433 . S
C2053 N2056 1.384 . S
C2054 H2045 0.929 . S
C2054 C2046 1.378 . S
C2054 C2049 1.350 . S
C2055 H2042 0.929 . S
C2055 C2047 1.433 . S
C2055 N2057 1.384 . S
N2056 C2052 1.427 . S
N2056 C2053 1.384 . S
N2057 C2049 1.427 . S
N2057 C2055 1.384 . S
H2058 C2064 0.930 . S
H2059 C2068 0.930 . S
H2060 C2073 0.929 . S
H2061 C2071 0.929 . S
H2062 C2066 0.929 . S
H2063 C2072 0.929 . S
C2064 H2058 0.930 . S
C2064 C2065 1.367 . S
C2064 C2072 1.378 . S
C2065 C2064 1.367 . S
C2065 C2073 1.433 . S
C2066 H2062 0.929 . S
C2066 C2068 1.378 . S
C2066 C2070 1.350 . S
C2067 C2070 1.463 . S
C2067 C2072 1.350 . S
C2067 N2075 1.427 . S
C2068 H2059 0.930 . S
C2068 C2066 1.378 . S
C2068 C2069 1.367 . S
C2069 C2068 1.367 . S
C2069 C2071 1.433 . S
C2070 C2066 1.350 . S
C2070 C2067 1.463 . S
C2070 N2074 1.427 . S
C2071 H2061 0.929 . S
C2071 C2069 1.433 . S
C2071 N2074 1.384 . S
C2072 H2063 0.929 . S
C2072 C2064 1.378 . S
C2072 C2067 1.350 . S
C2073 H2060 0.929 . S
C2073 C2065 1.433 . S
C2073 N2075 1.384 . S
N2074 C2070 1.427 . S
N2074 C2071 1.384 . S
N2075 C2067 1.427 . S
N2075 C2073 1.384 . S
H2076 C2082 0.930 . S
H2077 C2086 0.930 . S
H2078 C2091 0.929 . S
H2079 C2089 0.929 . S
H2080 C2084 0.929 . S
H2081 C2090 0.929 . S
C2082 H2076 0.930 . S
C2082 C2083 1.367 . S
C2082 C2090 1.378 . S
C2083 C2082 1.367 . S
C2083 C2091 1.433 . S
C2084 H2080 0.929 . S
C2084 C2086 1.378 . S
C2084 C2088 1.350 . S
C2085 C2088 1.463 . S
C2085 C2090 1.350 . S
C2085 N2093 1.427 . S
C2086 H2077 0.930 . S
C2086 C2084 1.378 . S
C2086 C2087 1.367 . S
C2087 C2086 1.367 . S
C2087 C2089 1.433 . S
C2088 C2084 1.350 . S
C2088 C2085 1.463 . S
C2088 N2092 1.427 . S
C2089 H2079 0.929 . S
C2089 C2087 1.433 . S
C2089 N2092 1.384 . S
C2090 H2081 0.929 . S
C2090 C2082 1.378 . S
C2090 C2085 1.350 . S
C2091 H2078 0.929 . S
C2091 C2083 1.433 . S
C2091 N2093 1.384 . S
N2092 C2088 1.427 . S
N2092 C2089 1.384 . S
N2093 C2085 1.427 . S
N2093 C2091 1.384 . S
H2094 C2100 0.930 . S
H2095 C2104 0.930 . S
H2096 C2109 0.929 . S
H2097 C2107 0.929 . S
H2098 C2102 0.929 . S
H2099 C2108 0.929 . S
C2100 H2094 0.930 . S
C2100 C2101 1.367 . S
C2100 C2108 1.378 . S
C2101 C2100 1.367 . S
C2101 C2109 1.433 . S
C2102 H2098 0.929 . S
C2102 C2104 1.378 . S
C2102 C2106 1.350 . S
C2103 C2106 1.463 . S
C2103 C2108 1.350 . S
C2103 N2111 1.427 . S
C2104 H2095 0.930 . S
C2104 C2102 1.378 . S
C2104 C2105 1.367 . S
C2105 C2104 1.367 . S
C2105 C2107 1.433 . S
C2106 C2102 1.350 . S
C2106 C2103 1.463 . S
C2106 N2110 1.427 . S
C2107 H2097 0.929 . S
C2107 C2105 1.433 . S
C2107 N2110 1.384 . S
C2108 H2099 0.929 . S
C2108 C2100 1.378 . S
C2108 C2103 1.350 . S
C2109 H2096 0.929 . S
C2109 C2101 1.433 . S
C2109 N2111 1.384 . S
N2110 C2106 1.427 . S
N2110 C2107 1.384 . S
N2111 C2103 1.427 . S
N2111 C2109 1.384 . S
H2112 C2118 0.930 . S
H2113 C2122 0.930 . S
H2114 C2127 0.929 . S
H2115 C2125 0.929 . S
H2116 C2120 0.929 . S
H2117 C2126 0.929 . S
C2118 H2112 0.930 . S
C2118 C2119 1.367 . S
C2118 C2126 1.378 . S
C2119 C2118 1.367 . S
C2119 C2127 1.433 . S
C2120 H2116 0.929 . S
C2120 C2122 1.378 . S
C2120 C2124 1.350 . S
C2121 C2124 1.463 . S
C2121 C2126 1.350 . S
C2121 N2129 1.427 . S
C2122 H2113 0.930 . S
C2122 C2120 1.378 . S
C2122 C2123 1.367 . S
C2123 C2122 1.367 . S
C2123 C2125 1.433 . S
C2124 C2120 1.350 . S
C2124 C2121 1.463 . S
C2124 N2128 1.427 . S
C2125 H2115 0.929 . S
C2125 C2123 1.433 . S
C2125 N2128 1.384 . S
C2126 H2117 0.929 . S
C2126 C2118 1.378 . S
C2126 C2121 1.350 . S
C2127 H2114 0.929 . S
C2127 C2119 1.433 . S
C2127 N2129 1.384 . S
N2128 C2124 1.427 . S
N2128 C2125 1.384 . S
N2129 C2121 1.427 . S
N2129 C2127 1.384 . S
H2130 C2136 0.930 . S
H2131 C2140 0.930 . S
H2132 C2145 0.929 . S
H2133 C2143 0.929 . S
H2134 C2138 0.929 . S
H2135 C2144 0.929 . S
C2136 H2130 0.930 . S
C2136 C2137 1.367 . S
C2136 C2144 1.378 . S
C2137 C2136 1.367 . S
C2137 C2145 1.433 . S
C2138 H2134 0.929 . S
C2138 C2140 1.378 . S
C2138 C2142 1.350 . S
C2139 C2142 1.463 . S
C2139 C2144 1.350 . S
C2139 N2147 1.427 . S
C2140 H2131 0.930 . S
C2140 C2138 1.378 . S
C2140 C2141 1.367 . S
C2141 C2140 1.367 . S
C2141 C2143 1.433 . S
C2142 C2138 1.350 . S
C2142 C2139 1.463 . S
C2142 N2146 1.427 . S
C2143 H2133 0.929 . S
C2143 C2141 1.433 . S
C2143 N2146 1.384 . S
C2144 H2135 0.929 . S
C2144 C2136 1.378 . S
C2144 C2139 1.350 . S
C2145 H2132 0.929 . S
C2145 C2137 1.433 . S
C2145 N2147 1.384 . S
N2146 C2142 1.427 . S
N2146 C2143 1.384 . S
N2147 C2139 1.427 . S
N2147 C2145 1.384 . S
H2148 C2154 0.930 . S
H2149 C2158 0.930 . S
H2150 C2163 0.929 . S
H2151 C2161 0.929 . S
H2152 C2156 0.929 . S
H2153 C2162 0.929 . S
C2154 H2148 0.930 . S
C2154 C2155 1.367 . S
C2154 C2162 1.378 . S
C2155 C2154 1.367 . S
C2155 C2163 1.433 . S
C2156 H2152 0.929 . S
C2156 C2158 1.378 . S
C2156 C2160 1.350 . S
C2157 C2160 1.463 . S
C2157 C2162 1.350 . S
C2157 N2165 1.427 . S
C2158 H2149 0.930 . S
C2158 C2156 1.378 . S
C2158 C2159 1.367 . S
C2159 C2158 1.367 . S
C2159 C2161 1.433 . S
C2160 C2156 1.350 . S
C2160 C2157 1.463 . S
C2160 N2164 1.427 . S
C2161 H2151 0.929 . S
C2161 C2159 1.433 . S
C2161 N2164 1.384 . S
C2162 H2153 0.929 . S
C2162 C2154 1.378 . S
C2162 C2157 1.350 . S
C2163 H2150 0.929 . S
C2163 C2155 1.433 . S
C2163 N2165 1.384 . S
N2164 C2160 1.427 . S
N2164 C2161 1.384 . S
N2165 C2157 1.427 . S
N2165 C2163 1.384 . S
H2166 C2172 0.930 . S
H2167 C2176 0.930 . S
H2168 C2181 0.929 . S
H2169 C2179 0.929 . S
H2170 C2174 0.929 . S
H2171 C2180 0.929 . S
C2172 H2166 0.930 . S
C2172 C2173 1.367 . S
C2172 C2180 1.378 . S
C2173 C2172 1.367 . S
C2173 C2181 1.433 . S
C2174 H2170 0.929 . S
C2174 C2176 1.378 . S
C2174 C2178 1.350 . S
C2175 C2178 1.463 . S
C2175 C2180 1.350 . S
C2175 N2183 1.427 . S
C2176 H2167 0.930 . S
C2176 C2174 1.378 . S
C2176 C2177 1.367 . S
C2177 C2176 1.367 . S
C2177 C2179 1.433 . S
C2178 C2174 1.350 . S
C2178 C2175 1.463 . S
C2178 N2182 1.427 . S
C2179 H2169 0.929 . S
C2179 C2177 1.433 . S
C2179 N2182 1.384 . S
C2180 H2171 0.929 . S
C2180 C2172 1.378 . S
C2180 C2175 1.350 . S
C2181 H2168 0.929 . S
C2181 C2173 1.433 . S
C2181 N2183 1.384 . S
N2182 C2178 1.427 . S
N2182 C2179 1.384 . S
N2183 C2175 1.427 . S
N2183 C2181 1.384 . S
H2184 C2190 0.930 . S
H2185 C2194 0.930 . S
H2186 C2199 0.929 . S
H2187 C2197 0.929 . S
H2188 C2192 0.929 . S
H2189 C2198 0.929 . S
C2190 H2184 0.930 . S
C2190 C2191 1.367 . S
C2190 C2198 1.378 . S
C2191 C2190 1.367 . S
C2191 C2199 1.433 . S
C2192 H2188 0.929 . S
C2192 C2194 1.378 . S
C2192 C2196 1.350 . S
C2193 C2196 1.463 . S
C2193 C2198 1.350 . S
C2193 N2201 1.427 . S
C2194 H2185 0.930 . S
C2194 C2192 1.378 . S
C2194 C2195 1.367 . S
C2195 C2194 1.367 . S
C2195 C2197 1.433 . S
C2196 C2192 1.350 . S
C2196 C2193 1.463 . S
C2196 N2200 1.427 . S
C2197 H2187 0.929 . S
C2197 C2195 1.433 . S
C2197 N2200 1.384 . S
C2198 H2189 0.929 . S
C2198 C2190 1.378 . S
C2198 C2193 1.350 . S
C2199 H2186 0.929 . S
C2199 C2191 1.433 . S
C2199 N2201 1.384 . S
N2200 C2196 1.427 . S
N2200 C2197 1.384 . S
N2201 C2193 1.427 . S
N2201 C2199 1.384 . S
H2202 C2208 0.930 . S
H2203 C2212 0.930 . S
H2204 C2217 0.929 . S
H2205 C2215 0.929 . S
H2206 C2210 0.929 . S
H2207 C2216 0.929 . S
C2208 H2202 0.930 . S
C2208 C2209 1.367 . S
C2208 C2216 1.378 . S
C2209 C2208 1.367 . S
C2209 C2217 1.433 . S
C2210 H2206 0.929 . S
C2210 C2212 1.378 . S
C2210 C2214 1.350 . S
C2211 C2214 1.463 . S
C2211 C2216 1.350 . S
C2211 N2219 1.427 . S
C2212 H2203 0.930 . S
C2212 C2210 1.378 . S
C2212 C2213 1.367 . S
C2213 C2212 1.367 . S
C2213 C2215 1.433 . S
C2214 C2210 1.350 . S
C2214 C2211 1.463 . S
C2214 N2218 1.427 . S
C2215 H2205 0.929 . S
C2215 C2213 1.433 . S
C2215 N2218 1.384 . S
C2216 H2207 0.929 . S
C2216 C2208 1.378 . S
C2216 C2211 1.350 . S
C2217 H2204 0.929 . S
C2217 C2209 1.433 . S
C2217 N2219 1.384 . S
N2218 C2214 1.427 . S
N2218 C2215 1.384 . S
N2219 C2211 1.427 . S
N2219 C2217 1.384 . S
H2220 C2226 0.930 . S
H2221 C2230 0.930 . S
H2222 C2235 0.929 . S
H2223 C2233 0.929 . S
H2224 C2228 0.929 . S
H2225 C2234 0.929 . S
C2226 H2220 0.930 . S
C2226 C2227 1.367 . S
C2226 C2234 1.378 . S
C2227 C2226 1.367 . S
C2227 C2235 1.433 . S
C2228 H2224 0.929 . S
C2228 C2230 1.378 . S
C2228 C2232 1.350 . S
C2229 C2232 1.463 . S
C2229 C2234 1.350 . S
C2229 N2237 1.427 . S
C2230 H2221 0.930 . S
C2230 C2228 1.378 . S
C2230 C2231 1.367 . S
C2231 C2230 1.367 . S
C2231 C2233 1.433 . S
C2232 C2228 1.350 . S
C2232 C2229 1.463 . S
C2232 N2236 1.427 . S
C2233 H2223 0.929 . S
C2233 C2231 1.433 . S
C2233 N2236 1.384 . S
C2234 H2225 0.929 . S
C2234 C2226 1.378 . S
C2234 C2229 1.350 . S
C2235 H2222 0.929 . S
C2235 C2227 1.433 . S
C2235 N2237 1.384 . S
N2236 C2232 1.427 . S
N2236 C2233 1.384 . S
N2237 C2229 1.427 . S
N2237 C2235 1.384 . S
H2238 C2244 0.930 . S
H2239 C2248 0.930 . S
H2240 C2253 0.929 . S
H2241 C2251 0.929 . S
H2242 C2246 0.929 . S
H2243 C2252 0.929 . S
C2244 H2238 0.930 . S
C2244 C2245 1.367 . S
C2244 C2252 1.378 . S
C2245 C2244 1.367 . S
C2245 C2253 1.433 . S
C2246 H2242 0.929 . S
C2246 C2248 1.378 . S
C2246 C2250 1.350 . S
C2247 C2250 1.463 . S
C2247 C2252 1.350 . S
C2247 N2255 1.427 . S
C2248 H2239 0.930 . S
C2248 C2246 1.378 . S
C2248 C2249 1.367 . S
C2249 C2248 1.367 . S
C2249 C2251 1.433 . S
C2250 C2246 1.350 . S
C2250 C2247 1.463 . S
C2250 N2254 1.427 . S
C2251 H2241 0.929 . S
C2251 C2249 1.433 . S
C2251 N2254 1.384 . S
C2252 H2243 0.929 . S
C2252 C2244 1.378 . S
C2252 C2247 1.350 . S
C2253 H2240 0.929 . S
C2253 C2245 1.433 . S
C2253 N2255 1.384 . S
N2254 C2250 1.427 . S
N2254 C2251 1.384 . S
N2255 C2247 1.427 . S
N2255 C2253 1.384 . S
H2256 C2262 0.930 . S
H2257 C2266 0.930 . S
H2258 C2271 0.929 . S
H2259 C2269 0.929 . S
H2260 C2264 0.929 . S
H2261 C2270 0.929 . S
C2262 H2256 0.930 . S
C2262 C2263 1.367 . S
C2262 C2270 1.378 . S
C2263 C2262 1.367 . S
C2263 C2271 1.433 . S
C2264 H2260 0.929 . S
C2264 C2266 1.378 . S
C2264 C2268 1.350 . S
C2265 C2268 1.463 . S
C2265 C2270 1.350 . S
C2265 N2273 1.427 . S
C2266 H2257 0.930 . S
C2266 C2264 1.378 . S
C2266 C2267 1.367 . S
C2267 C2266 1.367 . S
C2267 C2269 1.433 . S
C2268 C2264 1.350 . S
C2268 C2265 1.463 . S
C2268 N2272 1.427 . S
C2269 H2259 0.929 . S
C2269 C2267 1.433 . S
C2269 N2272 1.384 . S
C2270 H2261 0.929 . S
C2270 C2262 1.378 . S
C2270 C2265 1.350 . S
C2271 H2258 0.929 . S
C2271 C2263 1.433 . S
C2271 N2273 1.384 . S
N2272 C2268 1.427 . S
N2272 C2269 1.384 . S
N2273 C2265 1.427 . S
N2273 C2271 1.384 . S
H2274 C2280 0.930 . S
H2275 C2284 0.930 . S
H2276 C2289 0.929 . S
H2277 C2287 0.929 . S
H2278 C2282 0.929 . S
H2279 C2288 0.929 . S
C2280 H2274 0.930 . S
C2280 C2281 1.367 . S
C2280 C2288 1.378 . S
C2281 C2280 1.367 . S
C2281 C2289 1.433 . S
C2282 H2278 0.929 . S
C2282 C2284 1.378 . S
C2282 C2286 1.350 . S
C2283 C2286 1.463 . S
C2283 C2288 1.350 . S
C2283 N2291 1.427 . S
C2284 H2275 0.930 . S
C2284 C2282 1.378 . S
C2284 C2285 1.367 . S
C2285 C2284 1.367 . S
C2285 C2287 1.433 . S
C2286 C2282 1.350 . S
C2286 C2283 1.463 . S
C2286 N2290 1.427 . S
C2287 H2277 0.929 . S
C2287 C2285 1.433 . S
C2287 N2290 1.384 . S
C2288 H2279 0.929 . S
C2288 C2280 1.378 . S
C2288 C2283 1.350 . S
C2289 H2276 0.929 . S
C2289 C2281 1.433 . S
C2289 N2291 1.384 . S
N2290 C2286 1.427 . S
N2290 C2287 1.384 . S
N2291 C2283 1.427 . S
N2291 C2289 1.384 . S
H2292 C2298 0.930 . S
H2293 C2302 0.930 . S
H2294 C2307 0.929 . S
H2295 C2305 0.929 . S
H2296 C2300 0.929 . S
H2297 C2306 0.929 . S
C2298 H2292 0.930 . S
C2298 C2299 1.367 . S
C2298 C2306 1.378 . S
C2299 C2298 1.367 . S
C2299 C2307 1.433 . S
C2300 H2296 0.929 . S
C2300 C2302 1.378 . S
C2300 C2304 1.350 . S
C2301 C2304 1.463 . S
C2301 C2306 1.350 . S
C2301 N2309 1.427 . S
C2302 H2293 0.930 . S
C2302 C2300 1.378 . S
C2302 C2303 1.367 . S
C2303 C2302 1.367 . S
C2303 C2305 1.433 . S
C2304 C2300 1.350 . S
C2304 C2301 1.463 . S
C2304 N2308 1.427 . S
C2305 H2295 0.929 . S
C2305 C2303 1.433 . S
C2305 N2308 1.384 . S
C2306 H2297 0.929 . S
C2306 C2298 1.378 . S
C2306 C2301 1.350 . S
C2307 H2294 0.929 . S
C2307 C2299 1.433 . S
C2307 N2309 1.384 . S
N2308 C2304 1.427 . S
N2308 C2305 1.384 . S
N2309 C2301 1.427 . S
N2309 C2307 1.384 . S
H2310 C2316 0.930 . S
H2311 C2320 0.930 . S
H2312 C2325 0.929 . S
H2313 C2323 0.929 . S
H2314 C2318 0.929 . S
H2315 C2324 0.929 . S
C2316 H2310 0.930 . S
C2316 C2317 1.367 . S
C2316 C2324 1.378 . S
C2317 C2316 1.367 . S
C2317 C2325 1.433 . S
C2318 H2314 0.929 . S
C2318 C2320 1.378 . S
C2318 C2322 1.350 . S
C2319 C2322 1.463 . S
C2319 C2324 1.350 . S
C2319 N2327 1.427 . S
C2320 H2311 0.930 . S
C2320 C2318 1.378 . S
C2320 C2321 1.367 . S
C2321 C2320 1.367 . S
C2321 C2323 1.433 . S
C2322 C2318 1.350 . S
C2322 C2319 1.463 . S
C2322 N2326 1.427 . S
C2323 H2313 0.929 . S
C2323 C2321 1.433 . S
C2323 N2326 1.384 . S
C2324 H2315 0.929 . S
C2324 C2316 1.378 . S
C2324 C2319 1.350 . S
C2325 H2312 0.929 . S
C2325 C2317 1.433 . S
C2325 N2327 1.384 . S
N2326 C2322 1.427 . S
N2326 C2323 1.384 . S
N2327 C2319 1.427 . S
N2327 C2325 1.384 . S
H2328 C2334 0.930 . S
H2329 C2338 0.930 . S
H2330 C2343 0.929 . S
H2331 C2341 0.929 . S
H2332 C2336 0.929 . S
H2333 C2342 0.929 . S
C2334 H2328 0.930 . S
C2334 C2335 1.367 . S
C2334 C2342 1.378 . S
C2335 C2334 1.367 . S
C2335 C2343 1.433 . S
C2336 H2332 0.929 . S
C2336 C2338 1.378 . S
C2336 C2340 1.350 . S
C2337 C2340 1.463 . S
C2337 C2342 1.350 . S
C2337 N2345 1.427 . S
C2338 H2329 0.930 . S
C2338 C2336 1.378 . S
C2338 C2339 1.367 . S
C2339 C2338 1.367 . S
C2339 C2341 1.433 . S
C2340 C2336 1.350 . S
C2340 C2337 1.463 . S
C2340 N2344 1.427 . S
C2341 H2331 0.929 . S
C2341 C2339 1.433 . S
C2341 N2344 1.384 . S
C2342 H2333 0.929 . S
C2342 C2334 1.378 . S
C2342 C2337 1.350 . S
C2343 H2330 0.929 . S
C2343 C2335 1.433 . S
C2343 N2345 1.384 . S
N2344 C2340 1.427 . S
N2344 C2341 1.384 . S
N2345 C2337 1.427 . S
N2345 C2343 1.384 . S
H2346 C2352 0.930 . S
H2347 C2356 0.930 . S
H2348 C2361 0.929 . S
H2349 C2359 0.929 . S
H2350 C2354 0.929 . S
H2351 C2360 0.929 . S
C2352 H2346 0.930 . S
C2352 C2353 1.367 . S
C2352 C2360 1.378 . S
C2353 C2352 1.367 . S
C2353 C2361 1.433 . S
C2354 H2350 0.929 . S
C2354 C2356 1.378 . S
C2354 C2358 1.350 . S
C2355 C2358 1.463 . S
C2355 C2360 1.350 . S
C2355 N2363 1.427 . S
C2356 H2347 0.930 . S
C2356 C2354 1.378 . S
C2356 C2357 1.367 . S
C2357 C2356 1.367 . S
C2357 C2359 1.433 . S
C2358 C2354 1.350 . S
C2358 C2355 1.463 . S
C2358 N2362 1.427 . S
C2359 H2349 0.929 . S
C2359 C2357 1.433 . S
C2359 N2362 1.384 . S
C2360 H2351 0.929 . S
C2360 C2352 1.378 . S
C2360 C2355 1.350 . S
C2361 H2348 0.929 . S
C2361 C2353 1.433 . S
C2361 N2363 1.384 . S
N2362 C2358 1.427 . S
N2362 C2359 1.384 . S
N2363 C2355 1.427 . S
N2363 C2361 1.384 . S
H2364 C2370 0.930 . S
H2365 C2374 0.930 . S
H2366 C2379 0.929 . S
H2367 C2377 0.929 . S
H2368 C2372 0.929 . S
H2369 C2378 0.929 . S
C2370 H2364 0.930 . S
C2370 C2371 1.367 . S
C2370 C2378 1.378 . S
C2371 C2370 1.367 . S
C2371 C2379 1.433 . S
C2372 H2368 0.929 . S
C2372 C2374 1.378 . S
C2372 C2376 1.350 . S
C2373 C2376 1.463 . S
C2373 C2378 1.350 . S
C2373 N2381 1.427 . S
C2374 H2365 0.930 . S
C2374 C2372 1.378 . S
C2374 C2375 1.367 . S
C2375 C2374 1.367 . S
C2375 C2377 1.433 . S
C2376 C2372 1.350 . S
C2376 C2373 1.463 . S
C2376 N2380 1.427 . S
C2377 H2367 0.929 . S
C2377 C2375 1.433 . S
C2377 N2380 1.384 . S
C2378 H2369 0.929 . S
C2378 C2370 1.378 . S
C2378 C2373 1.350 . S
C2379 H2366 0.929 . S
C2379 C2371 1.433 . S
C2379 N2381 1.384 . S
N2380 C2376 1.427 . S
N2380 C2377 1.384 . S
N2381 C2373 1.427 . S
N2381 C2379 1.384 . S
H2382 C2388 0.930 . S
H2383 C2392 0.930 . S
H2384 C2397 0.929 . S
H2385 C2395 0.929 . S
H2386 C2390 0.929 . S
H2387 C2396 0.929 . S
C2388 H2382 0.930 . S
C2388 C2389 1.367 . S
C2388 C2396 1.378 . S
C2389 C2388 1.367 . S
C2389 C2397 1.433 . S
C2390 H2386 0.929 . S
C2390 C2392 1.378 . S
C2390 C2394 1.350 . S
C2391 C2394 1.463 . S
C2391 C2396 1.350 . S
C2391 N2399 1.427 . S
C2392 H2383 0.930 . S
C2392 C2390 1.378 . S
C2392 C2393 1.367 . S
C2393 C2392 1.367 . S
C2393 C2395 1.433 . S
C2394 C2390 1.350 . S
C2394 C2391 1.463 . S
C2394 N2398 1.427 . S
C2395 H2385 0.929 . S
C2395 C2393 1.433 . S
C2395 N2398 1.384 . S
C2396 H2387 0.929 . S
C2396 C2388 1.378 . S
C2396 C2391 1.350 . S
C2397 H2384 0.929 . S
C2397 C2389 1.433 . S
C2397 N2399 1.384 . S
N2398 C2394 1.427 . S
N2398 C2395 1.384 . S
N2399 C2391 1.427 . S
N2399 C2397 1.384 . S
C679 C91 1.141 . S
C683 C7 1.149 . S
C697 C21 1.147 . S
C701 C105 1.142 . S
C715 C35 1.141 . S
C719 C63 1.149 . S
C733 C77 1.146 . S
C737 C49 1.142 . S
C751 C483 1.146 . S
C755 C119 1.146 . S
C769 C497 1.147 . S
C773 C133 1.142 . S
C787 C147 1.140 . S
C791 C455 1.149 . S
C805 C161 1.150 . S
C809 C469 1.140 . S
C823 C539 1.140 . S
C827 C175 1.149 . S
C841 C553 1.141 . S
C845 C189 1.148 . S
C859 C511 1.150 . S
C863 C203 1.140 . S
C877 C525 1.140 . S
C881 C217 1.149 . S
C895 C231 1.144 . S
C899 C581 1.147 . S
C913 C245 1.146 . S
C917 C567 1.145 . S
C931 C259 1.140 . S
C935 C329 1.149 . S
C949 C637 1.141 . S
C953 C273 1.149 . S
C967 C651 1.148 . S
C971 C287 1.141 . S
C985 C609 1.143 . S
C989 C301 1.148 . S
C1003 C623 1.149 . S
C1007 C315 1.142 . S
C1021 C427 1.140 . S
C1025 C343 1.149 . S
C1039 C441 1.143 . S
C1043 C357 1.148 . S
C1057 C371 1.141 . S
C1061 C399 1.148 . S
C1075 C385 1.143 . S
C1079 C413 1.148 . S
C1093 C665 1.146 . S
C1097 C595 1.145 . S
C1111 C233 1.115 . S
C1115 C3 1.182 . S
C1129 C17 1.174 1_655 S
C1133 C667 1.131 . S
C1147 C31 1.178 . S
C1151 C303 1.117 . S
C1165 C653 1.122 . S
C1169 C45 1.176 . S
C1183 C59 1.175 . S
C1187 C583 1.123 . S
C1201 C597 1.116 . S
C1205 C73 1.178 . S
C1219 C87 1.180 . S
C1223 C611 1.128 . S
C1237 C289 1.119 . S
C1241 C101 1.176 1_655 S
C1255 C115 1.174 . S
C1259 C9 1.135 . S
C1273 C23 1.119 . S
C1277 C129 1.177 . S
C1291 C143 1.175 . S
C1295 C37 1.136 . S
C1309 C157 1.179 1_554 S
C1313 C51 1.114 . S
C1327 C171 1.177 . S
C1331 C65 1.118 . S
C1345 C79 1.127 . S
C1349 C185 1.175 . S
C1363 C199 1.182 . S
C1367 C93 1.113 . S
C1381 C213 1.177 1_556 S
C1385 C107 1.117 . S
C1399 C227 1.175 . S
C1403 C121 1.136 . S
C1417 C241 1.176 . S
C1421 C513 1.136 . S
C1435 C527 1.126 . S
C1439 C255 1.180 . S
C1453 C541 1.116 . S
C1457 C269 1.178 . S
C1471 C283 1.182 1_565 S
C1475 C219 1.120 . S
C1489 C297 1.182 . S
C1493 C149 1.113 . S
C1507 C499 1.132 . S
C1511 C311 1.178 . S
C1525 C471 1.132 . S
C1529 C325 1.178 . S
C1543 C339 1.182 . S
C1547 C569 1.121 . S
C1561 C353 1.182 . S
C1565 C331 1.116 . S
C1579 C367 1.181 . S
C1583 C639 1.122 . S
C1597 C381 1.182 1_455 S
C1601 C317 1.113 . S
C1615 C395 1.180 . S
C1619 C247 1.126 . S
C1633 C261 1.118 . S
C1637 C409 1.177 1_455 S
C1651 C275 1.120 . S
C1655 C423 1.182 . S
C1669 C625 1.113 . S
C1673 C437 1.182 . S
C1687 C345 1.114 . S
C1691 C451 1.179 . S
C1705 C359 1.136 . S
C1709 C465 1.175 1_554 S
C1723 C479 1.176 . S
C1727 C373 1.135 . S
C1741 C387 1.114 . S
C1745 C493 1.182 . S
C1759 C507 1.175 . S
C1763 C401 1.136 . S
C1777 C415 1.133 . S
C1781 C521 1.174 1_556 S
C1795 C535 1.174 . S
C1799 C429 1.134 . S
C1813 C443 1.130 . S
C1817 C549 1.174 . S
C1831 C563 1.180 . S
C1835 C457 1.112 . S
C1849 C577 1.174 . S
C1853 C177 1.130 . S
C1867 C191 1.123 . S
C1871 C591 1.175 1_545 S
C1885 C605 1.174 . S
C1889 C205 1.133 . S
C1903 C619 1.178 . S
C1907 C555 1.115 . S
C1921 C485 1.136 . S
C1925 C633 1.175 . S
C1939 C647 1.181 1_565 S
C1943 C163 1.112 . S
C1957 C135 1.121 . S
C1961 C661 1.176 1_545 S
C1975 C134 0.704 . S
C1979 C8 0.698 . S
C1993 C22 0.697 . S
C1997 C148 0.702 . S
C2011 C162 0.703 . S
C2015 C36 0.698 . S
C2029 C120 0.701 . S
C2033 C50 0.704 . S
C2047 C64 0.702 . S
C2051 C218 0.697 . S
C2065 C78 0.704 . S
C2069 C176 0.699 . S
C2083 C190 0.704 . S
C2087 C92 0.702 . S
C2101 C204 0.700 . S
C2105 C106 0.704 . S
C2119 C232 0.699 . S
C2123 C260 0.698 . S
C2137 C246 0.703 . S
C2141 C652 0.697 . S
C2155 C274 0.703 . S
C2159 C666 0.697 . S
C2173 C638 0.704 . S
C2177 C288 0.698 . S
C2191 C624 0.702 . S
C2195 C302 0.704 . S
C2209 C582 0.697 . S
C2213 C316 0.701 . S
C2227 C330 0.697 . S
C2231 C610 0.700 . S
C2245 C470 0.703 . S
C2249 C344 0.703 . S
C2263 C484 0.699 . S
C2267 C358 0.704 . S
C2281 C372 0.701 . S
C2285 C498 0.697 . S
C2299 C456 0.697 . S
C2303 C386 0.701 . S
C2317 C554 0.704 . S
C2321 C400 0.699 . S
C2335 C512 0.701 . S
C2339 C414 0.697 . S
C2353 C428 0.700 . S
C2357 C526 0.704 . S
C2371 C540 0.702 . S
C2375 C442 0.704 . S
C2389 C596 0.704 . S
C2393 C568 0.702 . S
