# Generated by pormake.
# Topology lcs-e, (6)-cn, num edge types: 1
# Building blocks:
#     Node 0, Type 0, BuildingBlock: KUMJIN_clean_sbu_1, # of connection points: 6
#     Node 1, Type 0, BuildingBlock: KUMJIN_clean_sbu_1, # of connection points: 6
#     Node 2, Type 0, BuildingBlock: KUMJIN_clean_sbu_1, # of connection points: 6
#     Node 3, Type 0, BuildingBlock: KUMJIN_clean_sbu_1, # of connection points: 6
#     Node 4, Type 0, BuildingBlock: KUMJIN_clean_sbu_1, # of connection points: 6
#     Node 5, Type 0, BuildingBlock: KUMJIN_clean_sbu_1, # of connection points: 6
#     Node 6, Type 0, BuildingBlock: KUMJIN_clean_sbu_1, # of connection points: 6
#     Node 7, Type 0, BuildingBlock: KUMJIN_clean_sbu_1, # of connection points: 6
#     Node 8, Type 0, BuildingBlock: KUMJIN_clean_sbu_1, # of connection points: 6
#     Node 9, Type 0, BuildingBlock: KUMJIN_clean_sbu_1, # of connection points: 6
#     Node 10, Type 0, BuildingBlock: KUMJIN_clean_sbu_1, # of connection points: 6
#     Node 11, Type 0, BuildingBlock: KUMJIN_clean_sbu_1, # of connection points: 6
#     Node 12, Type 0, BuildingBlock: KUMJIN_clean_sbu_1, # of connection points: 6
#     Node 13, Type 0, BuildingBlock: KUMJIN_clean_sbu_1, # of connection points: 6
#     Node 14, Type 0, BuildingBlock: KUMJIN_clean_sbu_1, # of connection points: 6
#     Node 15, Type 0, BuildingBlock: KUMJIN_clean_sbu_1, # of connection points: 6
#     Node 16, Type 0, BuildingBlock: KUMJIN_clean_sbu_1, # of connection points: 6
#     Node 17, Type 0, BuildingBlock: KUMJIN_clean_sbu_1, # of connection points: 6
#     Node 18, Type 0, BuildingBlock: KUMJIN_clean_sbu_1, # of connection points: 6
#     Node 19, Type 0, BuildingBlock: KUMJIN_clean_sbu_1, # of connection points: 6
#     Node 20, Type 0, BuildingBlock: KUMJIN_clean_sbu_1, # of connection points: 6
#     Node 21, Type 0, BuildingBlock: KUMJIN_clean_sbu_1, # of connection points: 6
#     Node 22, Type 0, BuildingBlock: KUMJIN_clean_sbu_1, # of connection points: 6
#     Node 23, Type 0, BuildingBlock: KUMJIN_clean_sbu_1, # of connection points: 6
#     Node 24, Type 0, BuildingBlock: KUMJIN_clean_sbu_1, # of connection points: 6
#     Node 25, Type 0, BuildingBlock: KUMJIN_clean_sbu_1, # of connection points: 6
#     Node 26, Type 0, BuildingBlock: KUMJIN_clean_sbu_1, # of connection points: 6
#     Node 27, Type 0, BuildingBlock: KUMJIN_clean_sbu_1, # of connection points: 6
#     Node 28, Type 0, BuildingBlock: KUMJIN_clean_sbu_1, # of connection points: 6
#     Node 29, Type 0, BuildingBlock: KUMJIN_clean_sbu_1, # of connection points: 6
#     Node 30, Type 0, BuildingBlock: KUMJIN_clean_sbu_1, # of connection points: 6
#     Node 31, Type 0, BuildingBlock: KUMJIN_clean_sbu_1, # of connection points: 6
#     Node 32, Type 0, BuildingBlock: KUMJIN_clean_sbu_1, # of connection points: 6
#     Node 33, Type 0, BuildingBlock: KUMJIN_clean_sbu_1, # of connection points: 6
#     Node 34, Type 0, BuildingBlock: KUMJIN_clean_sbu_1, # of connection points: 6
#     Node 35, Type 0, BuildingBlock: KUMJIN_clean_sbu_1, # of connection points: 6
#     Node 36, Type 0, BuildingBlock: KUMJIN_clean_sbu_1, # of connection points: 6
#     Node 37, Type 0, BuildingBlock: KUMJIN_clean_sbu_1, # of connection points: 6
#     Node 38, Type 0, BuildingBlock: KUMJIN_clean_sbu_1, # of connection points: 6
#     Node 39, Type 0, BuildingBlock: KUMJIN_clean_sbu_1, # of connection points: 6
#     Node 40, Type 0, BuildingBlock: KUMJIN_clean_sbu_1, # of connection points: 6
#     Node 41, Type 0, BuildingBlock: KUMJIN_clean_sbu_1, # of connection points: 6
#     Node 42, Type 0, BuildingBlock: KUMJIN_clean_sbu_1, # of connection points: 6
#     Node 43, Type 0, BuildingBlock: KUMJIN_clean_sbu_1, # of connection points: 6
#     Node 44, Type 0, BuildingBlock: KUMJIN_clean_sbu_1, # of connection points: 6
#     Node 45, Type 0, BuildingBlock: KUMJIN_clean_sbu_1, # of connection points: 6
#     Node 46, Type 0, BuildingBlock: KUMJIN_clean_sbu_1, # of connection points: 6
#     Node 47, Type 0, BuildingBlock: KUMJIN_clean_sbu_1, # of connection points: 6
#     Edge 48, Type (0, 0), BuildingBlock: OJICUG_clean_linker_0, # of connection points: 2
#     Edge 49, Type (0, 0), BuildingBlock: OJICUG_clean_linker_0, # of connection points: 2
#     Edge 50, Type (0, 0), BuildingBlock: OJICUG_clean_linker_0, # of connection points: 2
#     Edge 51, Type (0, 0), BuildingBlock: OJICUG_clean_linker_0, # of connection points: 2
#     Edge 52, Type (0, 0), BuildingBlock: OJICUG_clean_linker_0, # of connection points: 2
#     Edge 53, Type (0, 0), BuildingBlock: OJICUG_clean_linker_0, # of connection points: 2
#     Edge 54, Type (0, 0), BuildingBlock: OJICUG_clean_linker_0, # of connection points: 2
#     Edge 55, Type (0, 0), BuildingBlock: OJICUG_clean_linker_0, # of connection points: 2
#     Edge 56, Type (0, 0), BuildingBlock: OJICUG_clean_linker_0, # of connection points: 2
#     Edge 57, Type (0, 0), BuildingBlock: OJICUG_clean_linker_0, # of connection points: 2
#     Edge 58, Type (0, 0), BuildingBlock: OJICUG_clean_linker_0, # of connection points: 2
#     Edge 59, Type (0, 0), BuildingBlock: OJICUG_clean_linker_0, # of connection points: 2
#     Edge 60, Type (0, 0), BuildingBlock: OJICUG_clean_linker_0, # of connection points: 2
#     Edge 61, Type (0, 0), BuildingBlock: OJICUG_clean_linker_0, # of connection points: 2
#     Edge 62, Type (0, 0), BuildingBlock: OJICUG_clean_linker_0, # of connection points: 2
#     Edge 63, Type (0, 0), BuildingBlock: OJICUG_clean_linker_0, # of connection points: 2
#     Edge 64, Type (0, 0), BuildingBlock: OJICUG_clean_linker_0, # of connection points: 2
#     Edge 65, Type (0, 0), BuildingBlock: OJICUG_clean_linker_0, # of connection points: 2
#     Edge 66, Type (0, 0), BuildingBlock: OJICUG_clean_linker_0, # of connection points: 2
#     Edge 67, Type (0, 0), BuildingBlock: OJICUG_clean_linker_0, # of connection points: 2
#     Edge 68, Type (0, 0), BuildingBlock: OJICUG_clean_linker_0, # of connection points: 2
#     Edge 69, Type (0, 0), BuildingBlock: OJICUG_clean_linker_0, # of connection points: 2
#     Edge 70, Type (0, 0), BuildingBlock: OJICUG_clean_linker_0, # of connection points: 2
#     Edge 71, Type (0, 0), BuildingBlock: OJICUG_clean_linker_0, # of connection points: 2
#     Edge 72, Type (0, 0), BuildingBlock: OJICUG_clean_linker_0, # of connection points: 2
#     Edge 73, Type (0, 0), BuildingBlock: OJICUG_clean_linker_0, # of connection points: 2
#     Edge 74, Type (0, 0), BuildingBlock: OJICUG_clean_linker_0, # of connection points: 2
#     Edge 75, Type (0, 0), BuildingBlock: OJICUG_clean_linker_0, # of connection points: 2
#     Edge 76, Type (0, 0), BuildingBlock: OJICUG_clean_linker_0, # of connection points: 2
#     Edge 77, Type (0, 0), BuildingBlock: OJICUG_clean_linker_0, # of connection points: 2
#     Edge 78, Type (0, 0), BuildingBlock: OJICUG_clean_linker_0, # of connection points: 2
#     Edge 79, Type (0, 0), BuildingBlock: OJICUG_clean_linker_0, # of connection points: 2
#     Edge 80, Type (0, 0), BuildingBlock: OJICUG_clean_linker_0, # of connection points: 2
#     Edge 81, Type (0, 0), BuildingBlock: OJICUG_clean_linker_0, # of connection points: 2
#     Edge 82, Type (0, 0), BuildingBlock: OJICUG_clean_linker_0, # of connection points: 2
#     Edge 83, Type (0, 0), BuildingBlock: OJICUG_clean_linker_0, # of connection points: 2
#     Edge 84, Type (0, 0), BuildingBlock: OJICUG_clean_linker_0, # of connection points: 2
#     Edge 85, Type (0, 0), BuildingBlock: OJICUG_clean_linker_0, # of connection points: 2
#     Edge 86, Type (0, 0), BuildingBlock: OJICUG_clean_linker_0, # of connection points: 2
#     Edge 87, Type (0, 0), BuildingBlock: OJICUG_clean_linker_0, # of connection points: 2
#     Edge 88, Type (0, 0), BuildingBlock: OJICUG_clean_linker_0, # of connection points: 2
#     Edge 89, Type (0, 0), BuildingBlock: OJICUG_clean_linker_0, # of connection points: 2
#     Edge 90, Type (0, 0), BuildingBlock: OJICUG_clean_linker_0, # of connection points: 2
#     Edge 91, Type (0, 0), BuildingBlock: OJICUG_clean_linker_0, # of connection points: 2
#     Edge 92, Type (0, 0), BuildingBlock: OJICUG_clean_linker_0, # of connection points: 2
#     Edge 93, Type (0, 0), BuildingBlock: OJICUG_clean_linker_0, # of connection points: 2
#     Edge 94, Type (0, 0), BuildingBlock: OJICUG_clean_linker_0, # of connection points: 2
#     Edge 95, Type (0, 0), BuildingBlock: OJICUG_clean_linker_0, # of connection points: 2
#     Edge 96, Type (0, 0), BuildingBlock: OJICUG_clean_linker_0, # of connection points: 2
#     Edge 97, Type (0, 0), BuildingBlock: OJICUG_clean_linker_0, # of connection points: 2
#     Edge 98, Type (0, 0), BuildingBlock: OJICUG_clean_linker_0, # of connection points: 2
#     Edge 99, Type (0, 0), BuildingBlock: OJICUG_clean_linker_0, # of connection points: 2
#     Edge 100, Type (0, 0), BuildingBlock: OJICUG_clean_linker_0, # of connection points: 2
#     Edge 101, Type (0, 0), BuildingBlock: OJICUG_clean_linker_0, # of connection points: 2
#     Edge 102, Type (0, 0), BuildingBlock: OJICUG_clean_linker_0, # of connection points: 2
#     Edge 103, Type (0, 0), BuildingBlock: OJICUG_clean_linker_0, # of connection points: 2
#     Edge 104, Type (0, 0), BuildingBlock: OJICUG_clean_linker_0, # of connection points: 2
#     Edge 105, Type (0, 0), BuildingBlock: OJICUG_clean_linker_0, # of connection points: 2
#     Edge 106, Type (0, 0), BuildingBlock: OJICUG_clean_linker_0, # of connection points: 2
#     Edge 107, Type (0, 0), BuildingBlock: OJICUG_clean_linker_0, # of connection points: 2
#     Edge 108, Type (0, 0), BuildingBlock: OJICUG_clean_linker_0, # of connection points: 2
#     Edge 109, Type (0, 0), BuildingBlock: OJICUG_clean_linker_0, # of connection points: 2
#     Edge 110, Type (0, 0), BuildingBlock: OJICUG_clean_linker_0, # of connection points: 2
#     Edge 111, Type (0, 0), BuildingBlock: OJICUG_clean_linker_0, # of connection points: 2
#     Edge 112, Type (0, 0), BuildingBlock: OJICUG_clean_linker_0, # of connection points: 2
#     Edge 113, Type (0, 0), BuildingBlock: OJICUG_clean_linker_0, # of connection points: 2
#     Edge 114, Type (0, 0), BuildingBlock: OJICUG_clean_linker_0, # of connection points: 2
#     Edge 115, Type (0, 0), BuildingBlock: OJICUG_clean_linker_0, # of connection points: 2
#     Edge 116, Type (0, 0), BuildingBlock: OJICUG_clean_linker_0, # of connection points: 2
#     Edge 117, Type (0, 0), BuildingBlock: OJICUG_clean_linker_0, # of connection points: 2
#     Edge 118, Type (0, 0), BuildingBlock: OJICUG_clean_linker_0, # of connection points: 2
#     Edge 119, Type (0, 0), BuildingBlock: OJICUG_clean_linker_0, # of connection points: 2
#     Edge 120, Type (0, 0), BuildingBlock: OJICUG_clean_linker_0, # of connection points: 2
#     Edge 121, Type (0, 0), BuildingBlock: OJICUG_clean_linker_0, # of connection points: 2
#     Edge 122, Type (0, 0), BuildingBlock: OJICUG_clean_linker_0, # of connection points: 2
#     Edge 123, Type (0, 0), BuildingBlock: OJICUG_clean_linker_0, # of connection points: 2
#     Edge 124, Type (0, 0), BuildingBlock: OJICUG_clean_linker_0, # of connection points: 2
#     Edge 125, Type (0, 0), BuildingBlock: OJICUG_clean_linker_0, # of connection points: 2
#     Edge 126, Type (0, 0), BuildingBlock: OJICUG_clean_linker_0, # of connection points: 2
#     Edge 127, Type (0, 0), BuildingBlock: OJICUG_clean_linker_0, # of connection points: 2
#     Edge 128, Type (0, 0), BuildingBlock: OJICUG_clean_linker_0, # of connection points: 2
#     Edge 129, Type (0, 0), BuildingBlock: OJICUG_clean_linker_0, # of connection points: 2
#     Edge 130, Type (0, 0), BuildingBlock: OJICUG_clean_linker_0, # of connection points: 2
#     Edge 131, Type (0, 0), BuildingBlock: OJICUG_clean_linker_0, # of connection points: 2
#     Edge 132, Type (0, 0), BuildingBlock: OJICUG_clean_linker_0, # of connection points: 2
#     Edge 133, Type (0, 0), BuildingBlock: OJICUG_clean_linker_0, # of connection points: 2
#     Edge 134, Type (0, 0), BuildingBlock: OJICUG_clean_linker_0, # of connection points: 2
#     Edge 135, Type (0, 0), BuildingBlock: OJICUG_clean_linker_0, # of connection points: 2
#     Edge 136, Type (0, 0), BuildingBlock: OJICUG_clean_linker_0, # of connection points: 2
#     Edge 137, Type (0, 0), BuildingBlock: OJICUG_clean_linker_0, # of connection points: 2
#     Edge 138, Type (0, 0), BuildingBlock: OJICUG_clean_linker_0, # of connection points: 2
#     Edge 139, Type (0, 0), BuildingBlock: OJICUG_clean_linker_0, # of connection points: 2
#     Edge 140, Type (0, 0), BuildingBlock: OJICUG_clean_linker_0, # of connection points: 2
#     Edge 141, Type (0, 0), BuildingBlock: OJICUG_clean_linker_0, # of connection points: 2
#     Edge 142, Type (0, 0), BuildingBlock: OJICUG_clean_linker_0, # of connection points: 2
#     Edge 143, Type (0, 0), BuildingBlock: OJICUG_clean_linker_0, # of connection points: 2
#     Edge 144, Type (0, 0), BuildingBlock: OJICUG_clean_linker_0, # of connection points: 2
#     Edge 145, Type (0, 0), BuildingBlock: OJICUG_clean_linker_0, # of connection points: 2
#     Edge 146, Type (0, 0), BuildingBlock: OJICUG_clean_linker_0, # of connection points: 2
#     Edge 147, Type (0, 0), BuildingBlock: OJICUG_clean_linker_0, # of connection points: 2
#     Edge 148, Type (0, 0), BuildingBlock: OJICUG_clean_linker_0, # of connection points: 2
#     Edge 149, Type (0, 0), BuildingBlock: OJICUG_clean_linker_0, # of connection points: 2
#     Edge 150, Type (0, 0), BuildingBlock: OJICUG_clean_linker_0, # of connection points: 2
#     Edge 151, Type (0, 0), BuildingBlock: OJICUG_clean_linker_0, # of connection points: 2
#     Edge 152, Type (0, 0), BuildingBlock: OJICUG_clean_linker_0, # of connection points: 2
#     Edge 153, Type (0, 0), BuildingBlock: OJICUG_clean_linker_0, # of connection points: 2
#     Edge 154, Type (0, 0), BuildingBlock: OJICUG_clean_linker_0, # of connection points: 2
#     Edge 155, Type (0, 0), BuildingBlock: OJICUG_clean_linker_0, # of connection points: 2
#     Edge 156, Type (0, 0), BuildingBlock: OJICUG_clean_linker_0, # of connection points: 2
#     Edge 157, Type (0, 0), BuildingBlock: OJICUG_clean_linker_0, # of connection points: 2
#     Edge 158, Type (0, 0), BuildingBlock: OJICUG_clean_linker_0, # of connection points: 2
#     Edge 159, Type (0, 0), BuildingBlock: OJICUG_clean_linker_0, # of connection points: 2
#     Edge 160, Type (0, 0), BuildingBlock: OJICUG_clean_linker_0, # of connection points: 2
#     Edge 161, Type (0, 0), BuildingBlock: OJICUG_clean_linker_0, # of connection points: 2
#     Edge 162, Type (0, 0), BuildingBlock: OJICUG_clean_linker_0, # of connection points: 2
#     Edge 163, Type (0, 0), BuildingBlock: OJICUG_clean_linker_0, # of connection points: 2
#     Edge 164, Type (0, 0), BuildingBlock: OJICUG_clean_linker_0, # of connection points: 2
#     Edge 165, Type (0, 0), BuildingBlock: OJICUG_clean_linker_0, # of connection points: 2
#     Edge 166, Type (0, 0), BuildingBlock: OJICUG_clean_linker_0, # of connection points: 2
#     Edge 167, Type (0, 0), BuildingBlock: OJICUG_clean_linker_0, # of connection points: 2
#     Edge 168, Type (0, 0), BuildingBlock: OJICUG_clean_linker_0, # of connection points: 2
#     Edge 169, Type (0, 0), BuildingBlock: OJICUG_clean_linker_0, # of connection points: 2
#     Edge 170, Type (0, 0), BuildingBlock: OJICUG_clean_linker_0, # of connection points: 2
#     Edge 171, Type (0, 0), BuildingBlock: OJICUG_clean_linker_0, # of connection points: 2
#     Edge 172, Type (0, 0), BuildingBlock: OJICUG_clean_linker_0, # of connection points: 2
#     Edge 173, Type (0, 0), BuildingBlock: OJICUG_clean_linker_0, # of connection points: 2
#     Edge 174, Type (0, 0), BuildingBlock: OJICUG_clean_linker_0, # of connection points: 2
#     Edge 175, Type (0, 0), BuildingBlock: OJICUG_clean_linker_0, # of connection points: 2
#     Edge 176, Type (0, 0), BuildingBlock: OJICUG_clean_linker_0, # of connection points: 2
#     Edge 177, Type (0, 0), BuildingBlock: OJICUG_clean_linker_0, # of connection points: 2
#     Edge 178, Type (0, 0), BuildingBlock: OJICUG_clean_linker_0, # of connection points: 2
#     Edge 179, Type (0, 0), BuildingBlock: OJICUG_clean_linker_0, # of connection points: 2
#     Edge 180, Type (0, 0), BuildingBlock: OJICUG_clean_linker_0, # of connection points: 2
#     Edge 181, Type (0, 0), BuildingBlock: OJICUG_clean_linker_0, # of connection points: 2
#     Edge 182, Type (0, 0), BuildingBlock: OJICUG_clean_linker_0, # of connection points: 2
#     Edge 183, Type (0, 0), BuildingBlock: OJICUG_clean_linker_0, # of connection points: 2
#     Edge 184, Type (0, 0), BuildingBlock: OJICUG_clean_linker_0, # of connection points: 2
#     Edge 185, Type (0, 0), BuildingBlock: OJICUG_clean_linker_0, # of connection points: 2
#     Edge 186, Type (0, 0), BuildingBlock: OJICUG_clean_linker_0, # of connection points: 2
#     Edge 187, Type (0, 0), BuildingBlock: OJICUG_clean_linker_0, # of connection points: 2
#     Edge 188, Type (0, 0), BuildingBlock: OJICUG_clean_linker_0, # of connection points: 2
#     Edge 189, Type (0, 0), BuildingBlock: OJICUG_clean_linker_0, # of connection points: 2
#     Edge 190, Type (0, 0), BuildingBlock: OJICUG_clean_linker_0, # of connection points: 2
#     Edge 191, Type (0, 0), BuildingBlock: OJICUG_clean_linker_0, # of connection points: 2
# Relax obj value: 0.349
# Max RMSD: 0.255
# Mean RMSD: 0.254
data_MOF--net-lcs-e--node1-KUMJIN_clean_sbu_1--edge1-OJICUG_clean_linker_0
_symmetry_space_group_name_H-M    P1
_symmetry_Int_Tables_number       1
_symmetry_cell_setting            triclinic
loop_
_symmetry_equiv_pos_as_xyz
'x, y, z'
_cell_length_a     50.503027
_cell_length_b     50.322413
_cell_length_c     50.720745
_cell_angle_alpha  90.029547
_cell_angle_beta   89.955527
_cell_angle_gamma 89.885735
loop_
_atom_site_label
_atom_site_type_symbol
_atom_site_fract_x
_atom_site_fract_y
_atom_site_fract_z
_atom_type_partial_charge
Eu0 Eu 0.05497 0.39776 0.24604 0.0
C1 C 0.94575 0.426 0.27793 0.0
N2 N 0.96318 0.42818 0.29798 0.0
C3 C 0.93531 0.46085 0.31879 0.0
C4 C 0.92199 0.44086 0.27766 0.0
C5 C 0.95854 0.44571 0.31812 0.0
C6 C 0.91679 0.45822 0.29859 0.0
C7 C 0.93573 0.40847 0.2348 0.0
C8 C 0.9526 0.41017 0.25691 0.0
C9 C 0.91147 0.42223 0.2348 0.0
C10 C 0.90464 0.43848 0.2562 0.0
Eu11 Eu 1.00128 0.40042 0.29719 0.0
N12 N 0.97662 0.39793 0.25729 0.0
C13 C 0.94421 0.39377 0.21298 0.0
C14 C 0.98561 0.38541 0.23537 0.0
C15 C 0.96949 0.38254 0.21311 0.0
H16 H 0.97287 0.44852 0.33362 0.0
H17 H 0.97672 0.3721 0.19589 0.0
H18 H 0.0231 0.35783 0.20125 0.0
H19 H 0.16181 0.41135 0.2588 0.0
H20 H 1.00541 0.37847 0.23483 0.0
H21 H 0.93187 0.39186 0.19562 0.0
H22 H 0.11464 0.42317 0.26309 0.0
H23 H 0.9318 0.47463 0.33482 0.0
H24 H 0.89822 0.42104 0.21805 0.0
H25 H 0.88623 0.44957 0.25569 0.0
H26 H 0.03374 0.32056 0.17194 0.0
H27 H 0.8989 0.47012 0.29904 0.0
H28 H 0.17502 0.37168 0.23322 0.0
N29 N 0.06244 0.36218 0.2158 0.0
C30 C 0.08813 0.35426 0.21326 0.0
C31 C 0.04918 0.32966 0.18363 0.0
C32 C 0.09506 0.33299 0.19636 0.0
C33 C 0.0432 0.35079 0.20049 0.0
C34 C 0.07515 0.32047 0.18182 0.0
N35 N 0.10099 0.38954 0.24161 0.0
C36 C 0.12003 0.4054 0.25248 0.0
C37 C 0.13474 0.36116 0.22307 0.0
C38 C 0.10787 0.36831 0.22641 0.0
C39 C 0.15421 0.37655 0.23535 0.0
C40 C 0.14683 0.39894 0.24982 0.0
H41 H 0.07972 0.30416 0.16861 0.0
H42 H 0.12724 0.30887 0.18116 0.0
H43 H 0.16194 0.33345 0.20462 0.0
O44 O 0.07386 0.42904 0.22478 0.0
O45 O 0.07846 0.3744 0.27518 0.0
O46 O 0.04134 0.3814 0.2966 0.0
O47 O 0.04298 0.4067 0.20497 0.0
O48 O 0.06987 0.42176 0.28125 0.0
O49 O 0.03543 0.4245 0.31164 0.0
O50 O 0.97667 0.37751 0.32534 0.0
O51 O 1.00636 0.44662 0.28513 0.0
O52 O 0.04019 0.44401 0.25493 0.0
O53 O 1.00031 0.41035 0.33845 0.0
O54 O 1.00661 0.35277 0.28809 0.0
O55 O 0.03655 0.35195 0.25346 0.0
C56 C 0.06483 0.37022 0.29634 0.0
C57 C 0.08355 0.41807 0.18176 0.0
C58 C 0.13074 0.42123 0.17033 0.0
C59 C 0.12665 0.40151 0.15111 0.0
C60 C 0.08 0.39885 0.16212 0.0
C61 C 0.10155 0.39064 0.14693 0.0
C62 C 0.10877 0.42989 0.1849 0.0
C63 C 0.05963 0.42978 0.30386 0.0
C64 C 0.06326 0.42293 0.20226 0.0
C65 C 0.12167 0.32531 0.19385 0.0
C66 C 0.14144 0.33932 0.20718 0.0
C67 C 0.02337 0.45968 0.26927 0.0
C68 C 0.99242 0.37764 0.37008 0.0
C69 C 0.97968 0.35109 0.40764 0.0
C70 C 1.00476 0.35462 0.4189 0.0
C71 C 1.01617 0.38395 0.38336 0.0
C72 C 0.97392 0.36147 0.38274 0.0
C73 C 0.02295 0.37126 0.40679 0.0
C74 C 0.02111 0.3379 0.27079 0.0
C75 C 0.9848 0.3913 0.34554 0.0
H76 H 0.14275 0.3944 0.13925 0.0
H77 H 0.061 0.38933 0.15931 0.0
H78 H 0.09905 0.37511 0.13245 0.0
H79 H 0.11174 0.44462 0.20019 0.0
H80 H 1.00922 0.34666 0.43826 0.0
H81 H 0.02893 0.39968 0.37657 0.0
H82 H 0.95433 0.35887 0.37437 0.0
H83 H 0.04149 0.37578 0.4165 0.0
Eu84 Eu 0.89869 0.81345 0.51621 0.0
C85 C 0.85623 0.706 0.51003 0.0
N86 N 0.85726 0.7163 0.53469 0.0
C87 C 0.81818 0.69269 0.5473 0.0
C88 C 0.836 0.68797 0.5032 0.0
C89 C 0.83875 0.71017 0.55332 0.0
C90 C 0.81689 0.68137 0.52218 0.0
C91 C 0.87467 0.70247 0.46599 0.0
C92 C 0.87551 0.71339 0.49163 0.0
C93 C 0.85475 0.68419 0.45929 0.0
C94 C 0.83549 0.67699 0.4778 0.0
Eu95 Eu 0.89368 0.74311 0.54386 0.0
N96 N 0.895 0.7309 0.49869 0.0
C97 C 0.89399 0.71006 0.44776 0.0
C98 C 0.91386 0.7382 0.48085 0.0
C99 C 0.91353 0.72809 0.45518 0.0
H100 H 0.8402 0.71856 0.57289 0.0
H101 H 0.92851 0.73412 0.44115 0.0
H102 H 0.94855 0.81116 0.47184 0.0
H103 H 0.84928 0.90127 0.55572 0.0
H104 H 0.92916 0.75196 0.48584 0.0
H105 H 0.89399 0.70213 0.42789 0.0
H106 H 0.85376 0.85386 0.54314 0.0
H107 H 0.80357 0.68768 0.5621 0.0
H108 H 0.85404 0.6755 0.43975 0.0
H109 H 0.82026 0.66292 0.47228 0.0
H110 H 0.98212 0.84056 0.45285 0.0
H111 H 0.80109 0.66757 0.51764 0.0
H112 H 0.88433 0.93336 0.54348 0.0
N113 N 0.93084 0.84128 0.49586 0.0
C114 C 0.93062 0.86733 0.50211 0.0
C115 C 0.96793 0.84838 0.46688 0.0
C116 C 0.94966 0.88497 0.49172 0.0
C117 C 0.94874 0.83175 0.47784 0.0
C118 C 0.96865 0.87509 0.47413 0.0
N119 N 0.89145 0.85902 0.52551 0.0
C120 C 0.86927 0.86771 0.53813 0.0
C121 C 0.90842 0.90377 0.5238 0.0
C122 C 0.91028 0.87652 0.51767 0.0
C123 C 0.88648 0.91259 0.53822 0.0
C124 C 0.86663 0.89453 0.54511 0.0
H125 H 0.98351 0.88799 0.4656 0.0
H126 H 0.96324 0.92577 0.49115 0.0
H127 H 0.92716 0.94231 0.51951 0.0
O128 O 0.86665 0.81426 0.48801 0.0
O129 O 0.91967 0.81436 0.55615 0.0
O130 O 0.92321 0.76949 0.56758 0.0
O131 O 0.90322 0.79465 0.47721 0.0
O132 O 0.88336 0.78927 0.54804 0.0
O133 O 0.86933 0.76237 0.57628 0.0
O134 O 0.89853 0.6994 0.54956 0.0
O135 O 0.84834 0.75979 0.5311 0.0
O136 O 0.85072 0.80552 0.523 0.0
O137 O 0.90709 0.72705 0.58053 0.0
O138 O 0.94025 0.7507 0.53219 0.0
O139 O 0.94349 0.794 0.51693 0.0
C140 C 0.92818 0.79509 0.57198 0.0
C141 C 0.88444 0.82704 0.4475 0.0
C142 C 0.87386 0.87189 0.43126 0.0
C143 C 0.89328 0.86886 0.41171 0.0
C144 C 0.90378 0.82457 0.4278 0.0
C145 C 0.90818 0.84543 0.41011 0.0
C146 C 0.86929 0.85082 0.44876 0.0
C147 C 0.87085 0.78705 0.57053 0.0
C148 C 0.88181 0.80673 0.46867 0.0
C149 C 0.94863 0.91194 0.49864 0.0
C150 C 0.92807 0.92134 0.51475 0.0
C151 C 0.83524 0.78318 0.52585 0.0
C152 C 0.8968 0.68521 0.59522 0.0
C153 C 0.90308 0.67428 0.6415 0.0
C154 C 0.87861 0.66108 0.64164 0.0
C155 C 0.87296 0.67105 0.59502 0.0
C156 C 0.91174 0.68631 0.61829 0.0
C157 C 0.86369 0.65943 0.61839 0.0
C158 C 0.95602 0.77105 0.52394 0.0
C159 C 0.90607 0.70236 0.57382 0.0
H160 H 0.89654 0.88429 0.39731 0.0
H161 H 0.91588 0.80682 0.42648 0.0
H162 H 0.92334 0.84353 0.39519 0.0
H163 H 0.85405 0.85335 0.46361 0.0
H164 H 0.8714 0.65156 0.65938 0.0
H165 H 0.86147 0.66915 0.5772 0.0
H166 H 0.93001 0.69767 0.61839 0.0
H167 H 0.84507 0.6488 0.6184 0.0
Eu168 Eu 0.54233 0.63822 0.80979 0.0
C169 C 0.51227 0.67518 0.70283 0.0
N170 N 0.49214 0.67452 0.72045 0.0
C171 C 0.47096 0.71138 0.69917 0.0
C172 C 0.51241 0.69407 0.6823 0.0
C173 C 0.47163 0.69223 0.71913 0.0
C174 C 0.49135 0.71218 0.68054 0.0
C175 C 0.55489 0.65842 0.68848 0.0
C176 C 0.53324 0.65758 0.70605 0.0
C177 C 0.55484 0.67675 0.66755 0.0
C178 C 0.53368 0.69454 0.6645 0.0
Eu179 Eu 0.49369 0.64069 0.75231 0.0
N180 N 0.53283 0.64019 0.72667 0.0
C181 C 0.57611 0.64103 0.69265 0.0
C182 C 0.5537 0.62361 0.73105 0.0
C183 C 0.57558 0.62369 0.71413 0.0
H184 H 0.45578 0.6913 0.73347 0.0
H185 H 0.59203 0.61036 0.71767 0.0
H186 H 0.59109 0.60159 0.78107 0.0
H187 H 0.52041 0.64824 0.91495 0.0
H188 H 0.55368 0.6103 0.74746 0.0
H189 H 0.59311 0.64104 0.6796 0.0
H190 H 0.52292 0.66378 0.8687 0.0
H191 H 0.45468 0.72535 0.69808 0.0
H192 H 0.57126 0.67755 0.65381 0.0
H193 H 0.53413 0.70881 0.64851 0.0
H194 H 0.61688 0.56093 0.7918 0.0
H195 H 0.49077 0.72698 0.66504 0.0
H196 H 0.53948 0.60466 0.92724 0.0
N197 N 0.57018 0.60144 0.81745 0.0
C198 C 0.56851 0.59135 0.84234 0.0
C199 C 0.60311 0.56912 0.80602 0.0
C200 C 0.58275 0.56826 0.84926 0.0
C201 C 0.58865 0.59206 0.80003 0.0
C202 C 0.59963 0.55677 0.83047 0.0
N203 N 0.54267 0.629 0.85522 0.0
C204 C 0.53131 0.64476 0.87399 0.0
C205 C 0.55345 0.5959 0.88778 0.0
C206 C 0.55431 0.60536 0.86166 0.0
C207 C 0.54062 0.61132 0.90696 0.0
C208 C 0.52988 0.63601 0.90012 0.0
H209 H 0.61092 0.53902 0.83505 0.0
H210 H 0.59101 0.54003 0.88045 0.0
H211 H 0.56514 0.56398 0.914 0.0
O212 O 0.57602 0.64878 0.83314 0.0
O213 O 0.50862 0.61763 0.83102 0.0
O214 O 0.50137 0.62561 0.79123 0.0
O215 O 0.57514 0.661 0.79187 0.0
O216 O 0.50711 0.66544 0.82146 0.0
O217 O 0.47686 0.66551 0.78591 0.0
O218 O 0.47345 0.61831 0.72158 0.0
O219 O 0.50762 0.68624 0.75791 0.0
O220 O 0.53466 0.68496 0.79479 0.0
O221 O 0.45058 0.63781 0.75197 0.0
O222 O 0.50343 0.59362 0.75887 0.0
O223 O 0.53799 0.59314 0.78878 0.0
C224 C 0.49191 0.61431 0.81233 0.0
C225 C 0.59397 0.69069 0.82503 0.0
C226 C 0.6039 0.71967 0.86303 0.0
C227 C 0.60813 0.74084 0.84543 0.0
C228 C 0.59846 0.71211 0.80796 0.0
C229 C 0.60537 0.73703 0.81817 0.0
C230 C 0.59663 0.69484 0.85248 0.0
C231 C 0.48428 0.67243 0.81012 0.0
C232 C 0.58661 0.66382 0.81515 0.0
C233 C 0.58063 0.55806 0.87495 0.0
C234 C 0.56595 0.57176 0.8941 0.0
C235 C 0.52239 0.69976 0.77553 0.0
C236 C 0.4296 0.63043 0.71137 0.0
C237 C 0.38428 0.62603 0.69675 0.0
C238 C 0.38818 0.64708 0.67905 0.0
C239 C 0.4342 0.64906 0.69133 0.0
C240 C 0.40485 0.61822 0.71343 0.0
C241 C 0.41327 0.65808 0.67584 0.0
C242 C 0.52068 0.57901 0.77345 0.0
C243 C 0.44991 0.62353 0.73062 0.0
H244 H 0.61403 0.76021 0.8526 0.0
H245 H 0.59659 0.70964 0.78683 0.0
H246 H 0.6088 0.75348 0.80487 0.0
H247 H 0.59271 0.6786 0.86589 0.0
H248 H 0.37209 0.65428 0.66708 0.0
H249 H 0.45381 0.65655 0.68757 0.0
H250 H 0.40159 0.6027 0.72791 0.0
H251 H 0.41655 0.6733 0.66113 0.0
Eu252 Eu 0.64386 0.22268 0.98831 0.0
C253 C 0.68229 0.32012 0.04273 0.0
N254 N 0.68281 0.29841 0.05841 0.0
C255 C 0.71659 0.31816 0.08513 0.0
C256 C 0.699 0.34199 0.04767 0.0
C257 C 0.69974 0.29694 0.07927 0.0
C258 C 0.7161 0.34091 0.06936 0.0
C259 C 0.66609 0.34136 1.00315 0.0
C260 C 0.66596 0.31979 0.02097 0.0
C261 C 0.68201 0.36362 1.00835 0.0
C262 C 0.69847 0.3639 0.03057 0.0
Eu263 Eu 0.6516 0.26467 0.05015 0.0
N264 N 0.65124 0.2977 1.01636 0.0
C265 C 0.65095 0.33949 0.98017 0.0
C266 C 0.63799 0.29523 0.99311 0.0
C267 C 0.63722 0.31609 0.97492 0.0
H268 H 0.7004 0.27918 0.09109 0.0
H269 H 0.62638 0.31389 0.95664 0.0
H270 H 0.59853 0.25498 0.9503 0.0
H271 H 0.66939 0.1164 0.98395 0.0
H272 H 0.62885 0.277 0.98786 0.0
H273 H 0.65055 0.35554 0.96594 0.0
H274 H 0.67896 0.1637 0.98946 0.0
H275 H 0.72998 0.31692 0.10174 0.0
H276 H 0.68224 0.3804 0.99498 0.0
H277 H 0.71117 0.38085 0.03401 0.0
H278 H 0.55705 0.24416 0.9267 0.0
H279 H 0.72923 0.3573 0.07383 0.0
H280 H 0.62627 0.10212 0.96597 0.0
N281 N 0.60636 0.21485 0.96115 0.0
C282 C 0.59976 0.18893 0.95767 0.0
C283 C 0.56872 0.22847 0.93555 0.0
C284 C 0.57623 0.18188 0.94443 0.0
C285 C 0.59215 0.2345 0.9489 0.0
C286 C 0.56037 0.20209 0.93387 0.0
N287 N 0.64106 0.17685 0.97658 0.0
C288 C 0.6598 0.15811 0.98234 0.0
C289 C 0.61152 0.14231 0.96152 0.0
C290 C 0.61755 0.16938 0.96566 0.0
C291 C 0.6302 0.1231 0.96873 0.0
C292 C 0.65455 0.13108 0.97888 0.0
H293 H 0.54217 0.19747 0.92356 0.0
H294 H 0.55147 0.14918 0.93171 0.0
H295 H 0.58218 0.11452 0.94702 0.0
O296 O 0.64649 0.22039 0.94605 0.0
O297 O 0.6216 0.19516 1.01646 0.0
O298 O 0.63344 0.23199 0.03109 0.0
O299 O 0.66855 0.25126 0.96624 0.0
O300 O 0.67194 0.201 1.01671 0.0
O301 O 0.67051 0.22323 0.05744 0.0
O302 O 0.63348 0.28735 0.08255 0.0
O303 O 0.69657 0.25968 0.03616 0.0
O304 O 0.69204 0.23149 0.99985 0.0
O305 O 0.65138 0.249 0.08995 0.0
O306 O 0.60425 0.26845 0.03804 0.0
O307 O 0.60048 0.24436 0.99921 0.0
C308 C 0.62084 0.21028 0.03676 0.0
C309 C 0.68837 0.22602 0.93102 0.0
C310 C 0.70414 0.18124 0.92199 0.0
C311 C 0.70974 0.1887 0.8959 0.0
C312 C 0.69426 0.23345 0.90505 0.0
C313 C 0.70584 0.21502 0.88782 0.0
C314 C 0.69623 0.20075 0.93998 0.0
C315 C 0.67706 0.20245 0.04237 0.0
C316 C 0.66531 0.23783 0.94423 0.0
C317 C 0.56971 0.15495 0.94136 0.0
C318 C 0.58725 0.13522 0.95 0.0
C319 C 0.70846 0.24548 1.01694 0.0
C320 C 0.64985 0.27878 0.12593 0.0
C321 C 0.639 0.30072 0.1673 0.0
C322 C 0.66258 0.29085 0.17839 0.0
C323 C 0.67293 0.26831 0.1375 0.0
C324 C 0.6335 0.29546 0.1407 0.0
C325 C 0.67956 0.27496 0.16339 0.0
C326 C 0.58824 0.25848 0.01862 0.0
C327 C 0.64004 0.26972 0.1002 0.0
H328 H 0.71638 0.17404 0.8817 0.0
H329 H 0.68793 0.25257 0.89753 0.0
H330 H 0.70978 0.22056 0.86757 0.0
H331 H 0.69163 0.19504 0.95994 0.0
H332 H 0.66739 0.29447 0.19888 0.0
H333 H 0.6855 0.25453 0.12688 0.0
H334 H 0.6157 0.30336 0.13165 0.0
H335 H 0.69736 0.26689 0.1722 0.0
Eu336 Eu 0.05749 0.65172 0.29743 0.0
C337 C 0.95646 0.61103 0.25735 0.0
N338 N 0.97495 0.61363 0.23817 0.0
C339 C 0.95555 0.57776 0.2138 0.0
C340 C 0.93657 0.59147 0.25544 0.0
C341 C 0.97483 0.59746 0.2165 0.0
C342 C 0.93625 0.57481 0.2333 0.0
C343 C 0.93958 0.62447 0.30001 0.0
C344 C 0.9581 0.62735 0.27934 0.0
C345 C 0.91936 0.60541 0.29796 0.0
C346 C 0.91788 0.58894 0.27575 0.0
Eu347 Eu 1.00559 0.64853 0.2429 0.0
N348 N 0.97807 0.64552 0.28085 0.0
C349 C 0.94205 0.64063 0.32228 0.0
C350 C 0.98072 0.66089 0.30281 0.0
C351 C 0.96281 0.65878 0.32374 0.0
H352 H 0.98978 0.5997 0.20141 0.0
H353 H 0.96506 0.67121 0.34101 0.0
H354 H 0.03302 0.69625 0.342 0.0
H355 H 0.1618 0.62534 0.28203 0.0
H356 H 0.99646 0.67478 0.30454 0.0
H357 H 0.92823 0.63905 0.33855 0.0
H358 H 0.1138 0.61682 0.28385 0.0
H359 H 0.95555 0.56491 0.19668 0.0
H360 H 0.90493 0.60306 0.31361 0.0
H361 H 0.90236 0.57414 0.27459 0.0
H362 H 0.04802 0.73791 0.3633 0.0
H363 H 0.92136 0.55949 0.23118 0.0
H364 H 0.17966 0.6679 0.29864 0.0
N365 N 0.07002 0.68903 0.3232 0.0
C366 C 0.09616 0.69557 0.32189 0.0
C367 C 0.06165 0.72637 0.35142 0.0
C368 C 0.10563 0.71892 0.33399 0.0
C369 C 0.05326 0.70281 0.33944 0.0
C370 C 0.08775 0.73489 0.34802 0.0
N371 N 0.1043 0.65474 0.29956 0.0
C372 C 0.12121 0.63574 0.29029 0.0
C373 C 0.1412 0.68328 0.30994 0.0
C374 C 0.11385 0.67777 0.31016 0.0
C375 C 0.1585 0.66439 0.29917 0.0
C376 C 0.14849 0.64037 0.28969 0.0
H377 H 0.09425 0.75301 0.35755 0.0
H378 H 0.14032 0.74294 0.34176 0.0
H379 H 0.17139 0.71189 0.32057 0.0
O380 O 0.07329 0.64632 0.3365 0.0
O381 O 0.08167 0.67431 0.26739 0.0
O382 O 0.0441 0.66632 0.25166 0.0
O383 O 0.0365 0.62666 0.32671 0.0
O384 O 0.07088 0.62425 0.26379 0.0
O385 O 0.04347 0.63016 0.22678 0.0
O386 O 0.97749 0.67403 0.22276 0.0
O387 O 1.01193 0.60271 0.25583 0.0
O388 O 0.04556 0.60441 0.28701 0.0
O389 O 1.00314 0.64864 0.19967 0.0
O390 O 1.00868 0.69523 0.25452 0.0
O391 O 0.03506 0.69541 0.29164 0.0
C392 C 0.06657 0.6784 0.24749 0.0
C393 C 0.07066 0.60252 0.35081 0.0
C394 C 0.11253 0.57754 0.35653 0.0
C395 C 0.09799 0.55735 0.36921 0.0
C396 C 0.05687 0.58204 0.36335 0.0
C397 C 0.07049 0.55957 0.37238 0.0
C398 C 0.09843 0.59983 0.3473 0.0
C399 C 0.06491 0.62048 0.23851 0.0
C400 C 0.05702 0.62752 0.34273 0.0
C401 C 0.13274 0.72497 0.33276 0.0
C402 C 0.15046 0.70721 0.3208 0.0
C403 C 0.02825 0.58931 0.27222 0.0
C404 C 0.9617 0.66107 0.1813 0.0
C405 C 0.93918 0.67381 0.14105 0.0
C406 C 0.91713 0.65863 0.14862 0.0
C407 C 0.93932 0.64648 0.18907 0.0
C408 C 0.96168 0.67436 0.15711 0.0
C409 C 0.91736 0.64479 0.17245 0.0
C410 C 0.02084 0.70954 0.27358 0.0
C411 C 0.98383 0.66578 0.1993 0.0
H412 H 0.10782 0.54006 0.37731 0.0
H413 H 0.03571 0.58359 0.3665 0.0
H414 H 0.05972 0.54392 0.38232 0.0
H415 H 0.10926 0.61539 0.33757 0.0
H416 H 0.8996 0.65793 0.13634 0.0
H417 H 0.93834 0.63722 0.20823 0.0
H418 H 0.97852 0.68649 0.15152 0.0
H419 H 0.90016 0.6335 0.17846 0.0
Eu420 Eu 0.64212 0.8083 0.54465 0.0
C421 C 0.68713 0.71738 0.51267 0.0
N422 N 0.68305 0.73293 0.49122 0.0
C423 C 0.7195 0.71233 0.4687 0.0
C424 C 0.70785 0.69848 0.51286 0.0
C425 C 0.69879 0.73076 0.46935 0.0
C426 C 0.72398 0.69601 0.49049 0.0
C427 C 0.67498 0.70462 0.55713 0.0
C428 C 0.67085 0.72071 0.53464 0.0
C429 C 0.6956 0.68583 0.55735 0.0
C430 C 0.71197 0.68278 0.5353 0.0
Eu431 Eu 0.64688 0.76243 0.49331 0.0
N432 N 0.65082 0.73906 0.53395 0.0
C433 C 0.65797 0.70749 0.57866 0.0
C434 C 0.6336 0.74081 0.55454 0.0
C435 C 0.63707 0.72549 0.57725 0.0
H436 H 0.69541 0.74348 0.45251 0.0
H437 H 0.62332 0.72731 0.59354 0.0
H438 H 0.60463 0.77567 0.59076 0.0
H439 H 0.65593 0.91594 0.54201 0.0
H440 H 0.61689 0.75341 0.55365 0.0
H441 H 0.66045 0.6955 0.59623 0.0
H442 H 0.67085 0.869 0.54083 0.0
H443 H 0.73196 0.71069 0.45139 0.0
H444 H 0.69894 0.67339 0.57447 0.0
H445 H 0.72777 0.66817 0.5358 0.0
H446 H 0.56296 0.78381 0.61518 0.0
H447 H 0.74007 0.68173 0.48994 0.0
H448 H 0.61026 0.92669 0.55631 0.0
N449 N 0.60437 0.81349 0.57203 0.0
C450 C 0.59394 0.83847 0.57209 0.0
C451 C 0.57121 0.79918 0.60274 0.0
C452 C 0.57019 0.84403 0.58566 0.0
C453 C 0.59469 0.79455 0.58881 0.0
C454 C 0.55839 0.8237 0.60039 0.0
N455 N 0.63337 0.85371 0.5517 0.0
C456 C 0.65063 0.87363 0.54592 0.0
C457 C 0.5997 0.88559 0.5633 0.0
C458 C 0.60882 0.85917 0.56142 0.0
C459 C 0.61654 0.90612 0.5552 0.0
C460 C 0.64235 0.90014 0.54711 0.0
H461 H 0.54024 0.82723 0.61125 0.0
H462 H 0.54152 0.87457 0.5955 0.0
H463 H 0.56716 0.91089 0.57558 0.0
O464 O 0.64791 0.8232 0.58392 0.0
O465 O 0.62439 0.83137 0.51193 0.0
O466 O 0.61876 0.79674 0.48266 0.0
O467 O 0.66846 0.78682 0.57222 0.0
O468 O 0.66552 0.82917 0.51176 0.0
O469 O 0.66507 0.79994 0.47634 0.0
O470 O 0.63132 0.726 0.47569 0.0
O471 O 0.693 0.77185 0.50319 0.0
O472 O 0.69009 0.80123 0.53737 0.0
O473 O 0.6463 0.75731 0.45049 0.0
O474 O 0.59981 0.76096 0.50291 0.0
O475 O 0.59719 0.79024 0.53686 0.0
C476 C 0.61404 0.82134 0.49054 0.0
C477 C 0.69207 0.82074 0.59703 0.0
C478 C 0.71604 0.86278 0.60443 0.0
C479 C 0.73851 0.84788 0.6117 0.0
C480 C 0.71475 0.80649 0.60428 0.0
C481 C 0.73779 0.82004 0.61161 0.0
C482 C 0.693 0.8489 0.59735 0.0
C483 C 0.67074 0.82331 0.48671 0.0
C484 C 0.66728 0.80693 0.58904 0.0
C485 C 0.56004 0.87003 0.58565 0.0
C486 C 0.57471 0.89076 0.57439 0.0
C487 C 0.70594 0.78642 0.52132 0.0
C488 C 0.64004 0.71495 0.43077 0.0
C489 C 0.62774 0.69883 0.38741 0.0
C490 C 0.64701 0.67876 0.3894 0.0
C491 C 0.65826 0.69403 0.43331 0.0
C492 C 0.6248 0.71714 0.4079 0.0
C493 C 0.66215 0.67636 0.41236 0.0
C494 C 0.58406 0.77415 0.51991 0.0
C495 C 0.63488 0.73425 0.45168 0.0
H496 H 0.75654 0.85768 0.6179 0.0
H497 H 0.71463 0.78496 0.60433 0.0
H498 H 0.7552 0.80889 0.61735 0.0
H499 H 0.67574 0.86025 0.5918 0.0
H500 H 0.64947 0.66428 0.37377 0.0
H501 H 0.66907 0.69101 0.45143 0.0
H502 H 0.60998 0.73273 0.40632 0.0
H503 H 0.67636 0.66034 0.4142 0.0
Eu504 Eu 0.47906 0.3882 0.79382 0.0
C505 C 0.58858 0.42007 0.7563 0.0
N506 N 0.56988 0.42071 0.73724 0.0
C507 C 0.59372 0.45461 0.71415 0.0
C508 C 0.61094 0.43679 0.75496 0.0
C509 C 0.57188 0.43776 0.71646 0.0
C510 C 0.61347 0.454 0.7334 0.0
C511 C 0.60295 0.40378 0.79884 0.0
C512 C 0.5846 0.40364 0.77784 0.0
C513 C 0.62568 0.41979 0.79727 0.0
C514 C 0.62968 0.43624 0.77537 0.0
Eu515 Eu 0.5343 0.39099 0.74124 0.0
N516 N 0.56211 0.38879 0.779 0.0
C517 C 0.59748 0.38849 0.82118 0.0
C518 C 0.55604 0.37528 0.80144 0.0
C519 C 0.57372 0.37449 0.82263 0.0
H520 H 0.55627 0.43868 0.70206 0.0
H521 H 0.5688 0.36341 0.84024 0.0
H522 H 0.51119 0.35318 0.84168 0.0
H523 H 0.37195 0.39276 0.77786 0.0
H524 H 0.53741 0.3657 0.80353 0.0
H525 H 0.61101 0.38809 0.83775 0.0
H526 H 0.41744 0.41114 0.77935 0.0
H527 H 0.59521 0.46815 0.69765 0.0
H528 H 0.64 0.42004 0.81317 0.0
H529 H 0.64704 0.44885 0.77465 0.0
H530 H 0.50367 0.31152 0.86676 0.0
H531 H 0.63032 0.46719 0.73169 0.0
H532 H 0.36344 0.34734 0.79444 0.0
N533 N 0.47494 0.35023 0.82062 0.0
C534 C 0.45064 0.33839 0.81906 0.0
C535 C 0.48882 0.31868 0.85313 0.0
C536 C 0.44554 0.3147 0.83298 0.0
C537 C 0.49304 0.34215 0.839 0.0
C538 C 0.46534 0.30446 0.84947 0.0
N539 N 0.43423 0.37587 0.79505 0.0
C540 C 0.41377 0.39117 0.78611 0.0
C541 C 0.40423 0.34037 0.80576 0.0
C542 C 0.42988 0.35137 0.80579 0.0
C543 C 0.38341 0.35517 0.79482 0.0
C544 C 0.38811 0.38087 0.78546 0.0
H545 H 0.46214 0.28631 0.8605 0.0
H546 H 0.4164 0.2843 0.84137 0.0
H547 H 0.38042 0.30658 0.81739 0.0
O548 O 0.45411 0.39608 0.82717 0.0
O549 O 0.45635 0.37031 0.75928 0.0
O550 O 0.49674 0.3763 0.75321 0.0
O551 O 0.49349 0.41309 0.8269 0.0
O552 O 0.46554 0.4162 0.7604 0.0
O553 O 0.49998 0.41796 0.72884 0.0
O554 O 0.56295 0.3763 0.71174 0.0
O555 O 0.53004 0.43669 0.75482 0.0
O556 O 0.49699 0.43429 0.78677 0.0
O557 O 0.52216 0.38244 0.70129 0.0
O558 O 0.5312 0.34414 0.7535 0.0
O559 O 0.50075 0.3434 0.788 0.0
C560 C 0.47534 0.36623 0.74306 0.0
C561 C 0.45664 0.43859 0.84512 0.0
C562 C 0.4152 0.46379 0.85201 0.0
C563 C 0.43049 0.48546 0.8608 0.0
C564 C 0.47122 0.46049 0.85394 0.0
C565 C 0.45818 0.4838 0.86158 0.0
C566 C 0.42865 0.4406 0.84405 0.0
C567 C 0.47596 0.4245 0.73769 0.0
C568 C 0.46987 0.41314 0.83798 0.0
C569 C 0.42045 0.30281 0.83125 0.0
C570 C 0.39991 0.31555 0.81762 0.0
C571 C 0.51461 0.4496 0.77249 0.0
C572 C 0.55294 0.38781 0.66731 0.0
C573 C 0.57488 0.38261 0.62491 0.0
C574 C 0.56354 0.40678 0.61655 0.0
C575 C 0.54122 0.41153 0.65834 0.0
C576 C 0.56976 0.37347 0.65056 0.0
C577 C 0.54693 0.42115 0.63325 0.0
C578 C 0.51693 0.32954 0.77112 0.0
C579 C 0.54555 0.37629 0.69284 0.0
H580 H 0.42114 0.50358 0.86762 0.0
H581 H 0.49262 0.45952 0.85511 0.0
H582 H 0.46958 0.50061 0.86849 0.0
H583 H 0.41714 0.424 0.83689 0.0
H584 H 0.56667 0.41414 0.59674 0.0
H585 H 0.52729 0.4224 0.6705 0.0
H586 H 0.57827 0.35486 0.65727 0.0
H587 H 0.53784 0.4394 0.62645 0.0
Eu588 Eu 0.90161 0.22541 0.04975 0.0
C589 C 0.86329 0.32042 0.99304 0.0
N590 N 0.86305 0.29818 0.97805 0.0
C591 C 0.82734 0.31584 0.95222 0.0
C592 C 0.84565 0.34161 0.98799 0.0
C593 C 0.84511 0.29536 0.95817 0.0
C594 C 0.82782 0.33924 0.96701 0.0
C595 C 0.87923 0.34305 0.03194 0.0
C596 C 0.87994 0.32109 1.01456 0.0
C597 C 0.86258 0.36474 0.02642 0.0
C598 C 0.84581 0.36403 1.00447 0.0
Eu599 Eu 0.89561 0.26546 0.98659 0.0
N600 N 0.89526 0.29943 0.01963 0.0
C601 C 0.89444 0.34208 0.05491 0.0
C602 C 0.90849 0.29782 0.04297 0.0
C603 C 0.90874 0.31912 0.06068 0.0
H604 H 0.84389 0.27682 0.94773 0.0
H605 H 0.91956 0.31756 0.07903 0.0
H606 H 0.94389 0.25973 0.08885 0.0
H607 H 0.88075 0.11821 0.05297 0.0
H608 H 0.91789 0.27992 0.04875 0.0
H609 H 0.89438 0.35844 0.06881 0.0
H610 H 0.86952 0.16512 0.04656 0.0
H611 H 0.81311 0.31344 0.93646 0.0
H612 H 0.86195 0.38181 0.03945 0.0
H613 H 0.83254 0.38058 1.00082 0.0
H614 H 0.98514 0.25074 0.11382 0.0
H615 H 0.81388 0.35501 0.96255 0.0
H616 H 0.92376 0.10576 0.0727 0.0
N617 N 0.93832 0.21929 0.0781 0.0
C618 C 0.94589 0.19364 0.08199 0.0
C619 C 0.97439 0.23454 0.10477 0.0
C620 C 0.96928 0.18762 0.09592 0.0
C621 C 0.9511 0.23956 0.09072 0.0
C622 C 0.98391 0.20854 0.10673 0.0
N623 N 0.90601 0.17976 0.06151 0.0
C624 C 0.88844 0.16026 0.0548 0.0
C625 C 0.93643 0.14653 0.0778 0.0
C626 C 0.9293 0.17331 0.0735 0.0
C627 C 0.91894 0.12655 0.06985 0.0
C628 C 0.89467 0.13349 0.05869 0.0
H629 H 1.00209 0.20469 0.11731 0.0
H630 H 0.99514 0.15603 0.10944 0.0
H631 H 0.96658 0.12005 0.0932 0.0
O632 O 0.89519 0.22044 0.09151 0.0
O633 O 0.92244 0.19585 0.02353 0.0
O634 O 0.91425 0.23282 1.00653 0.0
O635 O 0.87762 0.25463 0.07173 0.0
O636 O 0.87382 0.20392 0.02044 0.0
O637 O 0.87529 0.22516 0.97915 0.0
O638 O 0.91435 0.28965 0.95569 0.0
O639 O 0.85017 0.26061 1.00045 0.0
O640 O 0.85372 0.23354 0.03758 0.0
O641 O 0.89895 0.25091 0.94633 0.0
O642 O 0.94287 0.26781 0.99872 0.0
O643 O 0.94565 0.24657 0.03926 0.0
C644 C 0.92464 0.20949 1.0024 0.0
C645 C 0.85142 0.22867 0.10166 0.0
C646 C 0.8232 0.18971 0.10727 0.0
C647 C 0.80634 0.20464 0.12358 0.0
C648 C 0.83468 0.24338 0.11815 0.0
C649 C 0.812 0.23142 0.12882 0.0
C650 C 0.84501 0.20207 0.09591 0.0
C651 C 0.86819 0.2051 0.99476 0.0
C652 C 0.87719 0.23897 0.09255 0.0
C653 C 0.97694 0.161 0.09925 0.0
C654 C 0.96062 0.14051 0.0901 0.0
C655 C 0.83772 0.2471 0.01988 0.0
C656 C 0.90062 0.2821 0.91145 0.0
C657 C 0.90998 0.30441 0.86984 0.0
C658 C 0.88405 0.29884 0.86141 0.0
C659 C 0.87556 0.27497 0.90169 0.0
C660 C 0.91786 0.29685 0.89534 0.0
C661 C 0.86701 0.28415 0.87724 0.0
C662 C 0.95843 0.25937 0.01917 0.0
C663 C 0.91003 0.27228 0.93718 0.0
H664 H 0.78935 0.1954 0.13283 0.0
H665 H 0.83941 0.26374 0.1232 0.0
H666 H 0.79919 0.24271 0.14178 0.0
H667 H 0.85775 0.19042 0.08346 0.0
H668 H 0.87728 0.30511 0.84211 0.0
H669 H 0.86277 0.26172 0.91251 0.0
H670 H 0.93778 0.30115 0.90205 0.0
H671 H 0.84745 0.27906 0.87015 0.0
Eu672 Eu 0.31822 1.00278 0.40182 0.0
C673 C 0.21567 0.02726 0.35581 0.0
N674 N 0.23167 0.04874 0.35767 0.0
C675 C 0.2115 0.06813 0.31945 0.0
C676 C 0.19699 0.02519 0.33525 0.0
C677 C 0.2298 0.06922 0.34008 0.0
C678 C 0.19499 0.04601 0.31702 0.0
C679 C 0.20264 0.98409 0.37228 0.0
C680 C 0.21851 1.00708 0.37417 0.0
C681 C 0.18393 0.98191 0.35188 0.0
C682 C 0.18108 1.00243 0.33344 0.0
Eu683 Eu 0.26083 0.05039 0.3938 0.0
N684 N 0.23689 1.00976 0.39366 0.0
C685 C 0.20609 0.96391 0.3909 0.0
C686 C 0.24013 0.99012 0.41189 0.0
C687 C 0.22494 0.96694 0.41075 0.0
H688 H 0.2426 0.08631 0.34202 0.0
H689 H 0.22786 0.95137 0.42518 0.0
H690 H 0.30651 0.9632 0.45515 0.0
H691 H 0.41103 1.00365 0.34617 0.0
H692 H 0.25471 0.99178 0.42703 0.0
H693 H 0.19437 0.94592 0.39009 0.0
H694 H 0.36242 1.00536 0.35197 0.0
H695 H 0.2101 0.08432 0.30549 0.0
H696 H 0.1716 0.9644 0.35016 0.0
H697 H 0.16662 1.00044 0.31779 0.0
H698 H 0.33124 0.94598 0.49334 0.0
H699 H 0.18085 0.04517 0.30099 0.0
H700 H 0.43997 0.99378 0.38431 0.0
N701 N 0.34046 0.98042 0.43682 0.0
C702 C 0.36723 0.98147 0.43655 0.0
C703 C 0.34162 0.95634 0.47775 0.0
C704 C 0.3823 0.97125 0.45766 0.0
C705 C 0.32764 0.96652 0.45622 0.0
C706 C 0.36906 0.95933 0.47883 0.0
N707 N 0.36401 0.99726 0.39306 0.0
C708 C 0.37489 1.00101 0.36873 0.0
C709 C 0.40724 0.98885 0.41144 0.0
C710 C 0.37946 0.9901 0.41378 0.0
C711 C 0.4187 0.99457 0.38697 0.0
C712 C 0.40241 1.00006 0.36538 0.0
H713 H 0.3799 0.95119 0.4954 0.0
H714 H 0.422 0.9647 0.4725 0.0
H715 H 0.44394 0.98016 0.43195 0.0
O716 O 0.32349 0.9602 0.40011 0.0
O717 O 0.33663 0.03789 0.42507 0.0
O718 O 0.29779 0.04324 0.41334 0.0
O719 O 0.28807 0.97772 0.38276 0.0
O720 O 0.32902 0.03669 0.37331 0.0
O721 O 0.29784 0.0711 0.37707 0.0
O722 O 0.2287 0.06974 0.41517 0.0
O723 O 0.27085 0.03448 0.34927 0.0
O724 O 0.30929 1.00928 0.35336 0.0
O725 O 0.25535 0.09361 0.39178 0.0
O726 O 0.26361 0.04065 0.44191 0.0
O727 O 0.29612 1.00833 0.44571 0.0
C728 C 0.31739 0.05467 0.42554 0.0
C729 C 0.31397 0.94661 0.35721 0.0
C730 C 0.35125 0.93851 0.32691 0.0
C731 C 0.33294 0.93262 0.30688 0.0
C732 C 0.29617 0.94061 0.33692 0.0
C733 C 0.30567 0.93335 0.31198 0.0
C734 C 0.34155 0.9447 0.3521 0.0
C735 C 0.32161 0.06192 0.3701 0.0
C736 C 0.30456 0.95732 0.38293 0.0
C737 C 0.41005 0.97199 0.4563 0.0
C738 C 0.42253 0.98077 0.43319 0.0
C739 C 0.29001 0.01995 0.33709 0.0
C740 C 0.21237 0.11095 0.39982 0.0
C741 C 0.1898 0.15334 0.40604 0.0
C742 C 0.16991 0.14501 0.38853 0.0
C743 C 0.19177 0.10244 0.38334 0.0
C744 C 0.21123 0.13631 0.4112 0.0
C745 C 0.17087 0.11962 0.37736 0.0
C746 C 0.27834 0.02451 0.45813 0.0
C747 C 0.23453 0.09347 0.4069 0.0
H748 H 0.33971 0.9273 0.2873 0.0
H749 H 0.27502 0.94195 0.34022 0.0
H750 H 0.29182 0.92873 0.29637 0.0
H751 H 0.35575 0.94904 0.36745 0.0
H752 H 0.15316 0.1577 0.38423 0.0
H753 H 0.19154 0.08249 0.37547 0.0
H754 H 0.22683 0.14261 0.42449 0.0
H755 H 0.15507 0.11305 0.36451 0.0
Eu756 Eu 0.28864 0.05524 0.65117 0.0
C757 C 0.27224 0.95294 0.61393 0.0
N758 N 0.24959 0.96751 0.61322 0.0
C759 C 0.23365 0.942 0.57643 0.0
C760 C 0.27599 0.93162 0.59614 0.0
C761 C 0.23077 0.96295 0.59421 0.0
C762 C 0.25621 0.92604 0.5776 0.0
C763 C 0.31633 0.94552 0.63164 0.0
C764 C 0.2923 0.95998 0.63166 0.0
C765 C 0.31959 0.92374 0.6146 0.0
C766 C 0.29952 0.91684 0.59693 0.0
Eu767 Eu 0.24624 1.00079 0.64612 0.0
N768 N 0.28896 0.98142 0.64795 0.0
C769 C 0.33675 0.95368 0.64835 0.0
C770 C 0.30933 0.99 0.66326 0.0
C771 C 0.33335 0.97623 0.66395 0.0
H772 H 0.21339 0.97539 0.59312 0.0
H773 H 0.34935 0.9832 0.67633 0.0
H774 H 0.33334 0.03396 0.69751 0.0
H775 H 0.26804 0.15901 0.62564 0.0
H776 H 0.30746 1.00782 0.67438 0.0
H777 H 0.35547 0.94313 0.64884 0.0
H778 H 0.27516 0.11155 0.61602 0.0
H779 H 0.21851 0.9382 0.56182 0.0
H780 H 0.33785 0.9124 0.61456 0.0
H781 H 0.30261 0.90031 0.58356 0.0
H782 H 0.35111 0.05002 0.73987 0.0
H783 H 0.25841 0.90981 0.56372 0.0
H784 H 0.27783 0.17674 0.67006 0.0
N785 N 0.31031 0.06878 0.69045 0.0
C786 C 0.30592 0.09451 0.69748 0.0
C787 C 0.33806 0.06256 0.72837 0.0
C788 C 0.3159 0.10459 0.72146 0.0
C789 C 0.32786 0.05347 0.70441 0.0
C790 C 0.33144 0.08796 0.73731 0.0
N791 N 0.28726 0.10203 0.6551 0.0
C792 C 0.27896 0.11884 0.63565 0.0
C793 C 0.29077 0.13875 0.68546 0.0
C794 C 0.29393 0.11157 0.67937 0.0
C795 C 0.28064 0.15576 0.66609 0.0
C796 C 0.27515 0.14584 0.64096 0.0
H797 H 0.33954 0.09501 0.75581 0.0
H798 H 0.31836 0.13921 0.74674 0.0
H799 H 0.29602 0.16901 0.71543 0.0
O800 O 0.32643 0.07441 0.64841 0.0
O801 O 0.25049 0.07441 0.66394 0.0
O802 O 0.22654 0.03586 0.66685 0.0
O803 O 0.32182 0.035 0.63096 0.0
O804 O 0.25748 0.06768 0.62199 0.0
O805 O 0.22652 0.03367 0.62159 0.0
O806 O 0.22174 0.96438 0.64525 0.0
O807 O 0.25718 1.00943 0.60007 0.0
O808 O 0.28607 0.04438 0.60312 0.0
O809 O 0.21012 0.99684 0.66917 0.0
O810 O 0.26104 0.99748 0.69173 0.0
O811 O 0.27834 0.03871 0.69557 0.0
C812 C 0.22901 0.0616 0.67081 0.0
C813 C 0.34723 0.06859 0.60792 0.0
C814 C 0.35452 0.10778 0.58014 0.0
C815 C 0.36917 0.09195 0.56259 0.0
C816 C 0.36209 0.05319 0.59026 0.0
C817 C 0.37299 0.06487 0.5677 0.0
C818 C 0.34365 0.09603 0.60266 0.0
C819 C 0.23469 0.05753 0.61438 0.0
C820 C 0.33632 0.0568 0.63239 0.0
C821 C 0.31129 0.13127 0.72818 0.0
C822 C 0.29864 0.14826 0.71029 0.0
C823 C 0.27341 0.02638 0.58722 0.0
C824 C 0.17591 0.97441 0.64882 0.0
C825 C 0.12914 0.96616 0.65703 0.0
C826 C 0.12267 0.98098 0.63442 0.0
C827 C 0.16912 0.99004 0.6269 0.0
C828 C 0.1559 0.96245 0.66369 0.0
C829 C 0.14264 0.99281 0.61944 0.0
C830 C 0.26954 1.01683 0.70811 0.0
C831 C 0.20298 0.97445 0.6593 0.0
H832 H 0.37799 0.10065 0.54517 0.0
H833 H 0.36542 0.03226 0.59401 0.0
H834 H 0.38459 0.05293 0.55418 0.0
H835 H 0.33242 0.10854 0.61599 0.0
H836 H 0.1022 0.98426 0.62893 0.0
H837 H 0.18409 1.00088 0.61615 0.0
H838 H 0.16117 0.95109 0.68108 0.0
H839 H 0.13751 1.00492 0.60256 0.0
Eu840 Eu 0.29752 0.96805 0.89162 0.0
C841 C 0.25478 0.06395 0.94054 0.0
N842 N 0.23671 0.04421 0.93806 0.0
C843 C 0.21437 0.0591 0.97719 0.0
C844 C 0.25337 0.08212 0.96171 0.0
C845 C 0.21646 0.04165 0.95583 0.0
C846 C 0.23285 0.07949 0.98011 0.0
C847 C 0.29454 0.08552 0.92469 0.0
C848 C 0.27509 0.06551 0.92222 0.0
C849 C 0.29301 0.1039 0.94551 0.0
C850 C 0.27248 0.1022 0.96398 0.0
Eu851 Eu 0.24006 1.01679 0.90029 0.0
N852 N 0.27612 0.04733 0.9023 0.0
C853 C 0.3151 0.08644 0.90627 0.0
C854 C 0.2964 0.04816 0.88452 0.0
C855 C 0.31609 0.06757 0.8862 0.0
H856 H 0.20204 0.02598 0.95345 0.0
H857 H 0.33212 0.06786 0.87203 0.0
H858 H 0.33245 0.97706 0.83535 0.0
H859 H 0.29764 0.87765 0.95254 0.0
H860 H 0.29819 0.0336 0.86938 0.0
H861 H 0.3304 0.10144 0.90751 0.0
H862 H 0.29758 0.9259 0.94497 0.0
H863 H 0.19843 0.05691 0.99129 0.0
H864 H 0.30772 0.11941 0.94759 0.0
H865 H 0.27167 0.1164 0.98003 0.0
H866 H 0.34747 0.95008 0.79763 0.0
H867 H 0.23114 0.09304 0.99664 0.0
H868 H 0.30694 0.84674 0.91575 0.0
N869 N 0.32032 0.94374 0.85828 0.0
C870 C 0.32018 0.91696 0.86026 0.0
C871 C 0.33959 0.94047 0.81503 0.0
C872 C 0.3285 0.90068 0.83917 0.0
C873 C 0.33085 0.95569 0.83643 0.0
C874 C 0.33787 0.91281 0.81616 0.0
N875 N 0.30597 0.92278 0.90384 0.0
C876 C 0.30172 0.91283 0.9286 0.0
C877 C 0.31309 0.87825 0.88739 0.0
C878 C 0.31271 0.90605 0.88392 0.0
C879 C 0.307 0.86798 0.91226 0.0
C880 C 0.30177 0.88538 0.93306 0.0
H881 H 0.34445 0.90103 0.7995 0.0
H882 H 0.33335 0.86003 0.82582 0.0
H883 H 0.31973 0.84029 0.86816 0.0
O884 O 0.34039 0.9708 0.89037 0.0
O885 O 0.27009 0.9491 0.86129 0.0
O886 O 0.25249 0.98193 0.87913 0.0
O887 O 0.318 1.00186 0.90997 0.0
O888 O 0.26543 0.95227 0.91949 0.0
O889 O 0.22586 0.97438 0.91186 0.0
O890 O 0.21598 0.04543 0.87862 0.0
O891 O 0.2553 1.00729 0.94471 0.0
O892 O 0.28737 0.97442 0.94013 0.0
O893 O 0.19675 1.01594 0.90277 0.0
O894 O 0.2529 0.01936 0.8529 0.0
O895 O 0.28912 0.991 0.84868 0.0
C896 C 0.24841 0.96221 0.86307 0.0
C897 C 0.35279 0.98018 0.93347 0.0
C898 C 0.35941 0.94268 0.96364 0.0
C899 C 0.36549 0.96078 0.98386 0.0
C900 C 0.35893 0.99794 0.95379 0.0
C901 C 0.3658 0.98818 0.97876 0.0
C902 C 0.35442 0.95261 0.93842 0.0
C903 C 0.23929 0.95262 0.91873 0.0
C904 C 0.34075 0.98918 0.9084 0.0
C905 C 0.32758 0.87294 0.84195 0.0
C906 C 0.31985 0.86172 0.86605 0.0
C907 C 0.27245 0.99052 0.95669 0.0
C908 C 0.17266 0.05531 0.89326 0.0
C909 C 0.13057 0.07503 0.8806 0.0
C910 C 0.13236 0.09271 0.90198 0.0
C911 C 0.17502 0.07405 0.91361 0.0
C912 C 0.15042 0.0559 0.87688 0.0
C913 C 0.15457 0.09219 0.91838 0.0
C914 C 0.27123 1.00742 0.83664 0.0
C915 C 0.19358 0.03606 0.88705 0.0
H916 H 0.36998 0.95375 1.00354 0.0
H917 H 0.35776 0.01918 0.95057 0.0
H918 H 0.37054 1.00193 0.99446 0.0
H919 H 0.35025 0.93857 0.92289 0.0
H920 H 0.11738 0.10784 0.90508 0.0
H921 H 0.19276 0.07526 0.92528 0.0
H922 H 0.14907 0.0421 0.86049 0.0
H923 H 0.1564 0.10652 0.9342 0.0
Eu924 Eu 0.25762 0.96603 0.15448 0.0
C925 C 0.28661 0.06975 0.10843 0.0
N926 N 0.30633 0.0516 0.10721 0.0
C927 C 0.32467 0.07359 0.06942 0.0
C928 C 0.28513 0.09083 0.09014 0.0
C929 C 0.32509 0.05299 0.08791 0.0
C930 C 0.30469 0.09277 0.07066 0.0
C931 C 0.24551 0.08408 0.1283 0.0
C932 C 0.26727 0.06642 0.1273 0.0
C933 C 0.24418 0.10553 0.11061 0.0
C934 C 0.26399 0.10893 0.09158 0.0
Eu935 Eu 0.3083 0.01869 0.14042 0.0
N936 N 0.2691 0.04523 0.14385 0.0
C937 C 0.22543 0.0793 0.14664 0.0
C938 C 0.24902 0.04014 0.16105 0.0
C939 C 0.22707 0.05704 0.16289 0.0
H940 H 0.33979 0.03758 0.08637 0.0
H941 H 0.2113 0.05268 0.17668 0.0
H942 H 0.2164 0.99406 0.19911 0.0
H943 H 0.2713 0.85962 0.13567 0.0
H944 H 0.24924 0.02276 0.1729 0.0
H945 H 0.20834 0.09228 0.14799 0.0
H946 H 0.26768 0.90674 0.12318 0.0
H947 H 0.33959 0.07452 0.05413 0.0
H948 H 0.2277 0.11934 0.11121 0.0
H949 H 0.26255 0.12532 0.07779 0.0
H950 H 0.19565 0.98206 0.24174 0.0
H951 H 0.30427 0.10865 0.05624 0.0
H952 H 0.25903 0.84535 0.1807 0.0
N953 N 0.23526 0.95652 0.19434 0.0
C954 C 0.23692 0.93096 0.20275 0.0
C955 C 0.20752 0.96762 0.23118 0.0
C956 C 0.22549 0.92324 0.22693 0.0
C957 C 0.21924 0.97434 0.20713 0.0
C958 C 0.21125 0.94215 0.24149 0.0
N959 N 0.25564 0.91954 0.16127 0.0
C960 C 0.26311 0.90101 0.14308 0.0
C961 C 0.2485 0.88504 0.19353 0.0
C962 C 0.24768 0.91195 0.18585 0.0
C963 C 0.2579 0.8662 0.17548 0.0
C964 C 0.26481 0.87417 0.15002 0.0
H965 H 0.2021 0.93696 0.2601 0.0
H966 H 0.21924 0.89047 0.25389 0.0
H967 H 0.23989 0.85713 0.22492 0.0
O968 O 0.21916 0.94949 0.15155 0.0
O969 O 0.29359 0.94496 0.17395 0.0
O970 O 0.29873 0.98353 0.16119 0.0
O971 O 0.22456 0.99118 0.13979 0.0
O972 O 0.28521 0.9508 0.12256 0.0
O973 O 0.32216 0.9788 0.12135 0.0
O974 O 0.33676 0.04728 0.15621 0.0
O975 O 0.2916 1.01001 0.09704 0.0
O976 O 0.26191 0.97557 0.10483 0.0
O977 O 0.35041 1.01286 0.13423 0.0
O978 O 0.30059 0.02071 0.18932 0.0
O979 O 0.26808 0.98923 0.19705 0.0
C980 C 0.31048 0.96394 0.17298 0.0
C981 C 0.18747 0.96527 0.1226 0.0
C982 C 0.16481 0.9298 0.09869 0.0
C983 C 0.14114 0.94458 0.10025 0.0
C984 C 0.16385 0.97985 0.12358 0.0
C985 C 0.14086 0.96965 0.11214 0.0
C986 C 0.18808 0.94085 0.109 0.0
C987 C 0.30982 0.95615 0.11536 0.0
C988 C 0.20811 0.97093 0.14217 0.0
C989 C 0.22748 0.89668 0.23515 0.0
C990 C 0.23915 0.87767 0.21859 0.0
C991 C 0.27474 0.99211 0.08671 0.0
C992 C 0.37888 0.05004 0.13539 0.0
C993 C 0.41644 0.07728 0.14679 0.0
C994 C 0.42706 0.07361 0.12145 0.0
C995 C 0.39007 0.04525 0.1104 0.0
C996 C 0.39181 0.06659 0.15303 0.0
C997 C 0.4136 0.0579 0.10315 0.0
C998 C 0.28518 1.00735 0.20745 0.0
C999 C 0.35695 0.03464 0.14619 0.0
H1000 H 0.12269 0.93655 0.09289 0.0
H1001 H 0.16277 0.99824 0.13465 0.0
H1002 H 0.12247 0.98063 0.1136 0.0
H1003 H 0.20638 0.92958 0.1081 0.0
H1004 H 0.44626 0.08171 0.11636 0.0
H1005 H 0.38153 0.03099 0.09698 0.0
H1006 H 0.38404 0.06858 0.17291 0.0
H1007 H 0.4222 0.05423 0.08393 0.0
Eu1008 Eu 0.40354 0.31136 1.00414 0.0
C1009 C 0.35947 0.20294 1.01573 0.0
N1010 N 0.3598 0.21813 0.03771 0.0
C1011 C 0.3211 0.19625 0.0542 0.0
C1012 C 0.33993 0.18325 1.01224 0.0
C1013 C 0.34102 0.21531 0.05685 0.0
C1014 C 0.32068 0.17995 0.03189 0.0
C1015 C 0.37801 0.1926 0.97293 0.0
C1016 C 0.37828 0.20767 0.99638 0.0
C1017 C 0.35912 0.17237 0.96965 0.0
C1018 C 0.3401 0.16774 0.98925 0.0
Eu1019 Eu 0.39539 0.24765 0.0424 0.0
N1020 N 0.39628 0.22745 1.00015 0.0
C1021 C 0.39653 0.19854 0.9533 0.0
C1022 C 0.4137 0.23387 0.98066 0.0
C1023 C 0.41423 0.21947 0.95707 0.0
H1024 H 0.34164 0.22784 0.07419 0.0
H1025 H 0.42827 0.22457 0.94176 0.0
H1026 H 0.45546 0.30242 0.96186 0.0
H1027 H 0.35636 0.40636 0.02774 0.0
H1028 H 0.42705 0.25018 0.98293 0.0
H1029 H 0.39702 0.18743 0.935 0.0
H1030 H 0.35768 0.35807 0.01907 0.0
H1031 H 0.30625 0.19399 0.06943 0.0
H1032 H 0.3588 0.16044 0.95186 0.0
H1033 H 0.32543 0.15233 0.9863 0.0
H1034 H 0.49469 0.32729 0.94705 0.0
H1035 H 0.30533 0.16507 0.02993 0.0
H1036 H 0.39609 0.43387 0.01956 0.0
N1037 N 0.43975 0.3345 0.98463 0.0
C1038 C 0.44128 0.36084 0.9899 0.0
C1039 C 0.48006 0.3369 0.95945 0.0
C1040 C 0.46314 0.37601 0.98136 0.0
C1041 C 0.45797 0.32278 0.96823 0.0
C1042 C 0.483 0.36351 0.96657 0.0
N1043 N 0.39812 0.35803 1.0075 0.0
C1044 C 0.37529 0.36977 1.01596 0.0
C1045 C 0.41977 0.4007 1.00593 0.0
C1046 C 0.41976 0.373 1.00174 0.0
C1047 C 0.39687 0.41265 1.01602 0.0
C1048 C 0.3744 0.39718 0.02063 0.0
H1049 H 0.50007 0.37448 0.9596 0.0
H1050 H 0.4807 0.41525 0.98085 0.0
H1051 H 0.44279 0.4369 1.00259 0.0
O1052 O 0.40286 0.32444 0.96398 0.0
O1053 O 0.42683 0.32506 0.04028 0.0
O1054 O 0.41552 0.28539 0.0413 0.0
O1055 O 0.38236 0.28773 0.97394 0.0
O1056 O 0.37643 0.31843 0.04044 0.0
O1057 O 0.37509 0.27938 0.06581 0.0
O1058 O 0.41101 0.21129 0.06091 0.0
O1059 O 0.35053 0.26095 0.02927 0.0
O1060 O 0.35479 0.30291 1.01033 0.0
O1061 O 0.39757 0.24424 0.08489 0.0
O1062 O 0.44329 0.25058 0.03285 0.0
O1063 O 0.44701 0.28751 1.00596 0.0
C1064 C 0.42692 0.30421 0.05489 0.0
C1065 C 0.36206 0.31966 0.94411 0.0
C1066 C 0.33816 0.36068 0.93324 0.0
C1067 C 0.32236 0.34628 0.91556 0.0
C1068 C 0.34616 0.30562 0.92632 0.0
C1069 C 0.32628 0.3189 0.91225 0.0
C1070 C 0.35754 0.34725 0.94768 0.0
C1071 C 0.36969 0.30467 0.0619 0.0
C1072 C 0.38544 0.30704 0.95659 0.0
C1073 C 0.4639 0.40333 0.98685 0.0
C1074 C 0.44227 0.41566 0.99918 0.0
C1075 C 0.3383 0.28268 0.0188 0.0
C1076 C 0.40265 0.20359 0.10677 0.0
C1077 C 0.41554 0.18932 0.15035 0.0
C1078 C 0.39152 0.1757 0.15314 0.0
C1079 C 0.37878 0.18961 0.1093 0.0
C1080 C 0.42101 0.20326 0.12731 0.0
C1081 C 0.37316 0.17587 0.13257 0.0
C1082 C 0.45942 0.26732 0.01895 0.0
C1083 C 0.40851 0.22096 0.08458 0.0
H1084 H 0.30729 0.35629 0.90406 0.0
H1085 H 0.34953 0.28463 0.92287 0.0
H1086 H 0.3142 0.30804 0.89832 0.0
H1087 H 0.36964 0.35874 0.96106 0.0
H1088 H 0.38719 0.16476 0.17102 0.0
H1089 H 0.36455 0.18925 0.09358 0.0
H1090 H 0.43954 0.21402 0.12546 0.0
H1091 H 0.35464 0.16529 0.13464 0.0
Eu1092 Eu 0.98193 0.8992 0.28904 0.0
C1093 C 0.09504 0.9247 0.25557 0.0
N1094 N 0.07659 0.92639 0.23631 0.0
C1095 C 0.10223 0.95959 0.21402 0.0
C1096 C 0.11821 0.94034 0.25463 0.0
C1097 C 0.0796 0.94378 0.21591 0.0
C1098 C 0.12178 0.9577 0.23336 0.0
C1099 C 0.10837 0.90714 0.29795 0.0
C1100 C 0.09011 0.90824 0.27688 0.0
C1101 C 0.13185 0.92204 0.29676 0.0
C1102 C 0.13674 0.93863 0.27516 0.0
Eu1103 Eu 0.03992 0.89762 0.23935 0.0
N1104 N 0.06695 0.89443 0.27768 0.0
C1105 C 0.10215 0.89168 0.31997 0.0
C1106 C 0.06032 0.88065 0.29977 0.0
C1107 C 0.07784 0.87866 0.32102 0.0
H1108 H 0.06416 0.94599 0.20157 0.0
H1109 H 0.07241 0.86733 0.33832 0.0
H1110 H 1.01788 0.87153 0.33888 0.0
H1111 H 0.87488 0.89405 0.27182 0.0
H1112 H 0.04148 0.87156 0.30141 0.0
H1113 H 0.1156 0.8903 0.33655 0.0
H1114 H 0.91989 0.91288 0.26688 0.0
H1115 H 0.10446 0.97337 0.1978 0.0
H1116 H 0.14608 0.92132 0.31271 0.0
H1117 H 0.15464 0.95046 0.27477 0.0
H1118 H 1.0127 0.83479 0.37074 0.0
H1119 H 0.13927 0.97006 0.23196 0.0
H1120 H 0.86774 0.85502 0.3005 0.0
N1121 N 0.97975 0.86619 0.32193 0.0
C1122 C 0.9556 0.85427 0.32414 0.0
C1123 C 0.99666 0.83982 0.35751 0.0
C1124 C 0.95176 0.83337 0.3423 0.0
C1125 C 0.99964 0.86043 0.33931 0.0
C1126 C 0.97282 0.82587 0.35864 0.0
N1127 N 0.93774 0.88464 0.29255 0.0
C1128 C 0.91676 0.89596 0.27964 0.0
C1129 C 0.90886 0.85231 0.31236 0.0
C1130 C 0.93418 0.86373 0.30923 0.0
C1131 C 0.88746 0.86323 0.29851 0.0
C1132 C 0.89138 0.88531 0.28232 0.0
H1133 H 0.97057 0.80997 0.37286 0.0
H1134 H 0.92372 0.80487 0.35788 0.0
H1135 H 0.88624 0.8215 0.33187 0.0
O1136 O 0.95462 0.92636 0.30639 0.0
O1137 O 0.96062 0.87687 0.25633 0.0
O1138 O 1.00069 0.88426 0.24899 0.0
O1139 O 0.99044 0.91598 0.32839 0.0
O1140 O 0.97238 0.92491 0.25273 0.0
O1141 O 1.00831 0.92553 0.22313 0.0
O1142 O 0.06999 0.88339 0.21106 0.0
O1143 O 0.03577 0.94407 0.25045 0.0
O1144 O 1.0029 0.94303 0.2822 0.0
O1145 O 0.02888 0.88431 0.20051 0.0
O1146 O 0.03436 0.85176 0.25407 0.0
O1147 O 1.0015 0.85327 0.28652 0.0
C1148 C 0.97934 0.87301 0.23968 0.0
C1149 C 0.95036 0.92806 0.35212 0.0
C1150 C 0.90729 0.93834 0.37135 0.0
C1151 C 0.91781 0.93376 0.39649 0.0
C1152 C 0.96039 0.92245 0.37729 0.0
C1153 C 0.94406 0.92528 0.39941 0.0
C1154 C 0.92365 0.93575 0.3494 0.0
C1155 C 0.98399 0.93251 0.23045 0.0
C1156 C 0.96744 0.92841 0.32858 0.0
C1157 C 0.92687 0.82116 0.34427 0.0
C1158 C 0.90548 0.83068 0.32949 0.0
C1159 C 0.02046 0.95762 0.26769 0.0
C1160 C 0.05846 0.88918 0.16606 0.0
C1161 C 0.06995 0.87778 0.12117 0.0
C1162 C 0.06399 0.90392 0.11325 0.0
C1163 C 0.05066 0.91461 0.15766 0.0
C1164 C 0.06803 0.87086 0.14778 0.0
C1165 C 0.05431 0.92223 0.13149 0.0
C1166 C 0.01844 0.83837 0.27126 0.0
C1167 C 0.05266 0.87963 0.19254 0.0
H1168 H 0.90579 0.93672 0.41377 0.0
H1169 H 0.98084 0.91651 0.37991 0.0
H1170 H 0.95187 0.92131 0.41889 0.0
H1171 H 0.91544 0.94028 0.33016 0.0
H1172 H 0.06611 0.90994 0.09286 0.0
H1173 H 0.04073 0.92813 0.1709 0.0
H1174 H 0.07224 0.85068 0.15405 0.0
H1175 H 0.04869 0.94199 0.12515 0.0
Eu1176 Eu 0.14098 0.72563 0.49292 0.0
C1177 C 0.17826 0.82199 0.54723 0.0
N1178 N 0.17881 0.80052 0.56324 0.0
C1179 C 0.21372 0.82027 0.58864 0.0
C1180 C 0.1953 0.8438 0.55145 0.0
C1181 C 0.19656 0.79912 0.58344 0.0
C1182 C 0.21288 0.84289 0.57274 0.0
C1183 C 0.16243 0.84217 0.50702 0.0
C1184 C 0.16202 0.82115 0.52551 0.0
C1185 C 0.17843 0.86451 0.51164 0.0
C1186 C 0.19486 0.86532 0.53384 0.0
Eu1187 Eu 0.14739 0.76631 0.55597 0.0
N1188 N 0.14748 0.79884 0.52137 0.0
C1189 C 0.14765 0.83961 0.4839 0.0
C1190 C 0.13478 0.7957 0.49794 0.0
C1191 C 0.13415 0.816 0.47913 0.0
H1192 H 0.19808 0.78115 0.59481 0.0
H1193 H 0.12365 0.81318 0.46074 0.0
H1194 H 0.08783 0.75072 0.45864 0.0
H1195 H 0.1805 0.62485 0.48477 0.0
H1196 H 0.12596 0.7774 0.49311 0.0
H1197 H 0.14747 0.8552 0.46917 0.0
H1198 H 0.18303 0.6738 0.48846 0.0
H1199 H 0.22777 0.81897 0.60469 0.0
H1200 H 0.17884 0.88086 0.49775 0.0
H1201 H 0.20767 0.88231 0.53682 0.0
H1202 H 0.04824 0.73444 0.43595 0.0
H1203 H 0.22636 0.85917 0.57659 0.0
H1204 H 0.13841 0.60372 0.47136 0.0
N1205 N 0.10261 0.71202 0.4682 0.0
C1206 C 0.09942 0.68556 0.46427 0.0
C1207 C 0.06225 0.7204 0.44416 0.0
C1208 C 0.07688 0.67538 0.45129 0.0
C1209 C 0.08478 0.7295 0.45732 0.0
C1210 C 0.05804 0.69319 0.44151 0.0
N1211 N 0.14215 0.67976 0.48141 0.0
C1212 C 0.16431 0.66455 0.48429 0.0
C1213 C 0.11766 0.64119 0.4674 0.0
C1214 C 0.11973 0.66881 0.47151 0.0
C1215 C 0.13929 0.62508 0.47388 0.0
C1216 C 0.16306 0.63692 0.48151 0.0
H1217 H 0.04062 0.68619 0.43118 0.0
H1218 H 0.05708 0.63963 0.43799 0.0
H1219 H 0.09259 0.60954 0.45271 0.0
O1220 O 0.17069 0.72354 0.46232 0.0
O1221 O 0.11935 0.69599 0.51931 0.0
O1222 O 0.12863 0.73179 0.53811 0.0
O1223 O 0.13735 0.74896 0.45587 0.0
O1224 O 0.17003 0.70582 0.52194 0.0
O1225 O 0.16651 0.72554 0.56349 0.0
O1226 O 0.12623 0.78866 0.58646 0.0
O1227 O 0.19269 0.76206 0.5429 0.0
O1228 O 0.18787 0.73879 0.50378 0.0
O1229 O 0.1496 0.75431 0.59712 0.0
O1230 O 0.10008 0.76867 0.54485 0.0
O1231 O 0.09734 0.74639 0.50496 0.0
C1232 C 0.11747 0.70858 0.54132 0.0
C1233 C 0.14882 0.71675 0.42249 0.0
C1234 C 0.15385 0.6709 0.40685 0.0
C1235 C 0.12882 0.67226 0.39509 0.0
C1236 C 0.12449 0.7184 0.40922 0.0
C1237 C 0.11447 0.69609 0.39592 0.0
C1238 C 0.16391 0.6935 0.41952 0.0
C1239 C 0.17474 0.70616 0.54766 0.0
C1240 C 0.15589 0.73479 0.44468 0.0
C1241 C 0.07434 0.64783 0.44769 0.0
C1242 C 0.09456 0.63072 0.45604 0.0
C1243 C 0.20445 0.75071 0.52195 0.0
C1244 C 0.14395 0.78757 0.62972 0.0
C1245 C 0.13184 0.81528 0.66704 0.0
C1246 C 0.15731 0.81178 0.67765 0.0
C1247 C 0.16872 0.78268 0.64146 0.0
C1248 C 0.12568 0.80385 0.64264 0.0
C1249 C 0.17566 0.79553 0.66484 0.0
C1250 C 0.08461 0.75972 0.52466 0.0
C1251 C 0.13529 0.774 0.60559 0.0
H1252 H 0.12043 0.65509 0.38531 0.0
H1253 H 0.11244 0.73615 0.41064 0.0
H1254 H 0.09496 0.69683 0.38726 0.0
H1255 H 0.1828 0.69201 0.42955 0.0
H1256 H 0.16266 0.82078 0.6963 0.0
H1257 H 0.18249 0.76854 0.63311 0.0
H1258 H 0.10596 0.80612 0.63447 0.0
H1259 H 0.19493 0.79209 0.67355 0.0
Eu1260 Eu 0.03189 0.64319 0.74309 0.0
C1261 C 0.93112 0.68324 0.81219 0.0
N1262 N 0.95786 0.68091 0.8122 0.0
C1263 C 0.96101 0.71848 0.84157 0.0
C1264 C 0.91829 0.70385 0.82624 0.0
C1265 C 0.97276 0.69761 0.82764 0.0
C1266 C 0.93365 0.72184 0.84061 0.0
C1267 C 0.88856 0.66454 0.80074 0.0
C1268 C 0.91649 0.66378 0.79982 0.0
C1269 C 0.8757 0.68569 0.81356 0.0
C1270 C 0.89055 0.70526 0.82636 0.0
Eu1271 Eu 0.97652 0.64477 0.78743 0.0
N1272 N 0.92952 0.64313 0.78842 0.0
C1273 C 0.87437 0.64356 0.78954 0.0
C1274 C 0.91573 0.62194 0.77875 0.0
C1275 C 0.88803 0.62203 0.77876 0.0
H1276 H 0.99397 0.69503 0.82907 0.0
H1277 H 0.87725 0.60533 0.77072 0.0
H1278 H 0.05511 0.59395 0.70575 0.0
H1279 H 0.05545 0.67107 0.84508 0.0
H1280 H 0.92596 0.60469 0.77121 0.0
H1281 H 0.85292 0.64342 0.78984 0.0
H1282 H 0.03074 0.67359 0.80355 0.0
H1283 H 0.97306 0.73177 0.85327 0.0
H1284 H 0.85428 0.68665 0.81436 0.0
H1285 H 0.88038 0.72101 0.83689 0.0
H1286 H 0.08954 0.55883 0.70837 0.0
H1287 H 0.92453 0.73783 0.85171 0.0
H1288 H 0.09104 0.63775 0.85048 0.0
N1289 N 0.06233 0.60815 0.74453 0.0
C1290 C 0.07653 0.60594 0.76707 0.0
C1291 C 0.0861 0.5719 0.72498 0.0
C1292 C 0.09667 0.58659 0.76921 0.0
C1293 C 0.0667 0.59168 0.72353 0.0
C1294 C 0.10133 0.5695 0.74783 0.0
N1295 N 0.05093 0.64137 0.78562 0.0
C1296 C 0.04566 0.65865 0.8056 0.0
C1297 C 0.0857 0.62106 0.81152 0.0
C1298 C 0.07074 0.62293 0.7881 0.0
C1299 C 0.07995 0.63851 0.83221 0.0
C1300 C 0.05986 0.65734 0.82924 0.0
H1301 H 0.1166 0.55438 0.74879 0.0
H1302 H 0.12725 0.57035 0.79441 0.0
H1303 H 0.11786 0.60059 0.83133 0.0
O1304 O 0.07005 0.6593 0.72948 0.0
O1305 O 0.02226 0.59604 0.75234 0.0
O1306 O 0.98691 0.59769 0.78045 0.0
O1307 O 0.041 0.6469 0.70118 0.0
O1308 O 0.02818 0.69004 0.75312 0.0
O1309 O 0.99245 0.69051 0.78049 0.0
O1310 O 0.96541 0.61462 0.81524 0.0
O1311 O 0.95892 0.66535 0.75311 0.0
O1312 O 0.99645 0.66665 0.72681 0.0
O1313 O 0.99352 0.64451 0.82778 0.0
O1314 O 0.96538 0.62116 0.75059 0.0
O1315 O 1.00081 0.62092 0.72144 0.0
C1316 C 1.00435 0.58238 0.76694 0.0
C1317 C 0.08475 0.65005 0.68546 0.0
C1318 C 0.10173 0.65368 0.64044 0.0
C1319 C 0.11915 0.6325 0.64586 0.0
C1320 C 0.10431 0.63114 0.69119 0.0
C1321 C 0.12092 0.62186 0.67122 0.0
C1322 C 0.08406 0.66184 0.66032 0.0
C1323 C 1.01068 0.70469 0.76691 0.0
C1324 C 0.06413 0.65739 0.70463 0.0
C1325 C 0.11152 0.5849 0.79249 0.0
C1326 C 0.10611 0.60211 0.81353 0.0
C1327 C 0.97121 0.67227 0.73143 0.0
C1328 C 0.95505 0.63464 0.85527 0.0
C1329 C 0.90827 0.63105 0.86841 0.0
C1330 C 0.91122 0.65335 0.88469 0.0
C1331 C 0.95799 0.65614 0.87267 0.0
C1332 C 0.93024 0.62187 0.85414 0.0
C1333 C 0.9361 0.66555 0.88708 0.0
C1334 C 0.97646 0.61485 0.72782 0.0
C1335 C 0.97548 0.62718 0.83526 0.0
H1336 H 0.13192 0.62448 0.6308 0.0
H1337 H 0.10655 0.62329 0.71088 0.0
H1338 H 0.13527 0.60641 0.67541 0.0
H1339 H 0.06951 0.67716 0.65617 0.0
H1340 H 0.89471 0.66064 0.89628 0.0
H1341 H 0.97681 0.66625 0.87441 0.0
H1342 H 0.92761 0.60459 0.84163 0.0
H1343 H 0.9384 0.68246 0.90007 0.0
Eu1344 Eu 0.14484 0.29572 0.48486 0.0
C1345 C 0.09438 0.20036 0.54894 0.0
N1346 N 0.10832 0.22349 0.55094 0.0
C1347 C 0.08619 0.23434 0.59133 0.0
C1348 C 0.07423 0.19455 0.56736 0.0
C1349 C 0.10593 0.23935 0.57269 0.0
C1350 C 0.06988 0.21218 0.58834 0.0
C1351 C 0.0866 0.15778 0.52733 0.0
C1352 C 0.10084 0.18183 0.52911 0.0
C1353 C 0.0657 0.15277 0.54491 0.0
C1354 C 0.0596 0.17102 0.56487 0.0
Eu1355 Eu 0.14052 0.22861 0.51798 0.0
N1356 N 0.12141 0.1867 0.51229 0.0
C1357 C 0.09404 0.13914 0.50817 0.0
C1358 C 0.12924 0.16833 0.49412 0.0
C1359 C 0.11556 0.14435 0.49167 0.0
H1360 H 0.11915 0.25588 0.57555 0.0
H1361 H 0.12161 0.12989 0.47703 0.0
H1362 H 0.19587 0.32202 0.45321 0.0
H1363 H 0.11309 0.3078 0.58808 0.0
H1364 H 0.14578 0.17231 0.48134 0.0
H1365 H 0.08354 0.12049 0.50622 0.0
H1366 H 0.11244 0.28815 0.54412 0.0
H1367 H 0.08374 0.24739 0.60813 0.0
H1368 H 0.05445 0.1345 0.54361 0.0
H1369 H 0.04386 0.16645 0.57866 0.0
H1370 H 0.23155 0.35484 0.46151 0.0
H1371 H 0.05465 0.20831 0.6029 0.0
H1372 H 0.14628 0.34201 0.59909 0.0
N1373 N 0.17989 0.32532 0.49177 0.0
C1374 C 0.18129 0.33687 0.51587 0.0
C1375 C 0.21757 0.34997 0.47694 0.0
C1376 C 0.20099 0.35593 0.52135 0.0
C1377 C 0.19751 0.33144 0.47231 0.0
C1378 C 0.21922 0.36241 0.50152 0.0
N1379 N 0.14482 0.31023 0.52951 0.0
C1380 C 0.12705 0.30267 0.54824 0.0
C1381 C 0.16445 0.34109 0.56043 0.0
C1382 C 0.16331 0.32918 0.53522 0.0
C1383 C 0.14614 0.33327 0.57956 0.0
C1384 C 0.1274 0.31396 0.57343 0.0
H1385 H 0.23466 0.37692 0.50501 0.0
H1386 H 0.21684 0.38263 0.55088 0.0
H1387 H 0.18472 0.36987 0.58501 0.0
O1388 O 0.1318 0.33722 0.47803 0.0
O1389 O 0.19131 0.28392 0.49884 0.0
O1390 O 0.18827 0.24085 0.5148 0.0
O1391 O 0.13733 0.30978 0.44562 0.0
O1392 O 0.09784 0.28761 0.49672 0.0
O1393 O 0.09619 0.24876 0.52094 0.0
O1394 O 0.1656 0.19715 0.53148 0.0
O1395 O 0.12689 0.22118 0.4759 0.0
O1396 O 0.11431 0.26489 0.46825 0.0
O1397 O 0.1622 0.23511 0.55424 0.0
O1398 O 0.15827 0.25147 0.48644 0.0
O1399 O 0.16886 0.27356 0.45334 0.0
C1400 C 0.20421 0.26199 0.5084 0.0
C1401 C 0.13553 0.35411 0.4337 0.0
C1402 C 0.12753 0.36729 0.38864 0.0
C1403 C 0.15109 0.38197 0.38868 0.0
C1404 C 0.15826 0.37001 0.43444 0.0
C1405 C 0.16602 0.38393 0.41183 0.0
C1406 C 0.11969 0.35384 0.41123 0.0
C1407 C 0.08269 0.26926 0.50977 0.0
C1408 C 0.12983 0.33333 0.45276 0.0
C1409 C 0.20198 0.36781 0.54636 0.0
C1410 C 0.18371 0.36049 0.5658 0.0
C1411 C 0.11509 0.23943 0.46103 0.0
C1412 C 0.17319 0.19515 0.57754 0.0
C1413 C 0.18455 0.15328 0.59828 0.0
C1414 C 0.18744 0.16646 0.62246 0.0
C1415 C 0.17437 0.20789 0.60219 0.0
C1416 C 0.17753 0.16767 0.57594 0.0
C1417 C 0.18135 0.19344 0.62463 0.0
C1418 C 0.17004 0.25029 0.46343 0.0
C1419 C 0.17182 0.21056 0.55308 0.0
H1420 H 0.15783 0.39193 0.37105 0.0
H1421 H 0.17026 0.37116 0.45198 0.0
H1422 H 0.18395 0.39567 0.41203 0.0
H1423 H 0.10198 0.3416 0.4107 0.0
H1424 H 0.19506 0.15602 0.63939 0.0
H1425 H 0.17121 0.22911 0.60392 0.0
H1426 H 0.17715 0.15756 0.55705 0.0
H1427 H 0.18321 0.2034 0.64346 0.0
Eu1428 Eu 0.54705 0.38903 0.2842 0.0
C1429 C 0.48164 0.44212 0.18893 0.0
N1430 N 0.47816 0.43173 0.21347 0.0
C1431 C 0.44416 0.46371 0.2227 0.0
C1432 C 0.46778 0.4652 0.1812 0.0
C1433 C 0.45824 0.44075 0.22946 0.0
C1434 C 0.44946 0.4764 0.19878 0.0
C1435 C 0.49978 0.43795 0.14464 0.0
C1436 C 0.49719 0.4283 0.1706 0.0
C1437 C 0.48763 0.46207 0.13761 0.0
C1438 C 0.47161 0.47559 0.15579 0.0
Eu1439 Eu 0.50478 0.39433 0.22267 0.0
N1440 N 0.50818 0.40455 0.1776 0.0
C1441 C 0.51386 0.42266 0.12625 0.0
C1442 C 0.52096 0.38901 0.15955 0.0
C1443 C 0.52418 0.39796 0.13365 0.0
H1444 H 0.45413 0.43082 0.2479 0.0
H1445 H 0.53469 0.38586 0.11941 0.0
H1446 H 0.57471 0.33285 0.30576 0.0
H1447 H 0.44754 0.42602 0.30829 0.0
H1448 H 0.52913 0.37002 0.1653 0.0
H1449 H 0.51632 0.42944 0.10613 0.0
H1450 H 0.4866 0.41915 0.28029 0.0
H1451 H 0.42921 0.47156 0.23589 0.0
H1452 H 0.48972 0.46995 0.11784 0.0
H1453 H 0.4615 0.49358 0.14969 0.0
H1454 H 0.57352 0.30426 0.34549 0.0
H1455 H 0.4384 0.49411 0.19355 0.0
H1456 H 0.44403 0.4025 0.35098 0.0
N1457 N 0.54309 0.35737 0.31826 0.0
C1458 C 0.5231 0.36084 0.33563 0.0
C1459 C 0.55947 0.32038 0.34325 0.0
C1460 C 0.52078 0.34445 0.35808 0.0
C1461 C 0.56072 0.33703 0.32125 0.0
C1462 C 0.53962 0.32436 0.362 0.0
N1463 N 0.50623 0.39381 0.30714 0.0
C1464 C 0.4859 0.40959 0.29901 0.0
C1465 C 0.48166 0.38235 0.34643 0.0
C1466 C 0.50395 0.37959 0.32985 0.0
C1467 C 0.46151 0.39983 0.33885 0.0
C1468 C 0.46344 0.41315 0.3148 0.0
H1469 H 0.53844 0.31124 0.37888 0.0
H1470 H 0.49732 0.33588 0.39281 0.0
H1471 H 0.46297 0.36907 0.3826 0.0
O1472 O 0.57083 0.4056 0.3167 0.0
O1473 O 0.53206 0.34438 0.27676 0.0
O1474 O 0.50961 0.34694 0.23703 0.0
O1475 O 0.58956 0.38908 0.28192 0.0
O1476 O 0.53791 0.43681 0.27906 0.0
O1477 O 0.50797 0.4391 0.24434 0.0
O1478 O 0.47292 0.38375 0.19695 0.0
O1479 O 0.54299 0.41163 0.20523 0.0
O1480 O 0.54275 0.40671 0.24588 0.0
O1481 O 0.47003 0.37338 0.23883 0.0
O1482 O 0.5393 0.36555 0.21421 0.0
O1483 O 0.56644 0.36455 0.25192 0.0
C1484 C 0.51933 0.33153 0.25726 0.0
C1485 C 0.61589 0.39124 0.31951 0.0
C1486 C 0.65873 0.40443 0.33528 0.0
C1487 C 0.66676 0.37773 0.33648 0.0
C1488 C 0.62427 0.36456 0.31963 0.0
C1489 C 0.6493 0.35777 0.32902 0.0
C1490 C 0.63299 0.41099 0.32809 0.0
C1491 C 0.52282 0.45224 0.26272 0.0
C1492 C 0.59296 0.40022 0.30465 0.0
C1493 C 0.49935 0.34809 0.37533 0.0
C1494 C 0.47981 0.36699 0.36951 0.0
C1495 C 0.55694 0.41524 0.22613 0.0
C1496 C 0.45147 0.34357 0.20568 0.0
C1497 C 0.43985 0.31443 0.16838 0.0
C1498 C 0.43518 0.29368 0.18635 0.0
C1499 C 0.44653 0.3226 0.22318 0.0
C1500 C 0.44807 0.33916 0.1784 0.0
C1501 C 0.43853 0.2978 0.21349 0.0
C1502 C 0.561 0.3581 0.2272 0.0
C1503 C 0.46011 0.37026 0.21485 0.0
H1504 H 0.68672 0.37249 0.34236 0.0
H1505 H 0.61257 0.34917 0.31094 0.0
H1506 H 0.65567 0.33722 0.32911 0.0
H1507 H 0.62727 0.43174 0.32636 0.0
H1508 H 0.42854 0.27443 0.17955 0.0
H1509 H 0.44891 0.3253 0.24423 0.0
H1510 H 0.45227 0.35513 0.16473 0.0
H1511 H 0.43478 0.28168 0.22711 0.0
Eu1512 Eu 0.39083 0.77281 0.98382 0.0
C1513 C 0.43999 0.84665 0.07901 0.0
N1514 N 0.43465 0.82056 0.07456 0.0
C1515 C 0.47314 0.80794 0.09941 0.0
C1516 C 0.46322 0.85438 0.09238 0.0
C1517 C 0.44997 0.80122 0.08592 0.0
C1518 C 0.48014 0.83462 0.10211 0.0
C1519 C 0.42608 0.89277 0.07657 0.0
C1520 C 0.42129 0.86556 0.07171 0.0
C1521 C 0.44999 0.90064 0.08829 0.0
C1522 C 0.46845 0.88149 0.09631 0.0
Eu1523 Eu 0.39743 0.81173 0.04717 0.0
N1524 N 0.39821 0.8573 0.06044 0.0
C1525 C 0.40659 0.91129 0.06973 0.0
C1526 C 0.37863 0.87531 0.05524 0.0
C1527 C 0.38265 0.90247 0.05931 0.0
H1528 H 0.44462 0.78051 0.08386 0.0
H1529 H 0.36713 0.91656 0.05461 0.0
H1530 H 0.34107 0.76024 0.94333 0.0
H1531 H 0.41476 0.72115 0.07659 0.0
H1532 H 0.35971 0.869 0.0481 0.0
H1533 H 0.40957 0.93236 0.07299 0.0
H1534 H 0.41317 0.75851 0.04609 0.0
H1535 H 0.48564 0.79253 0.10762 0.0
H1536 H 0.45412 0.92146 0.09184 0.0
H1537 H 0.48645 0.88782 0.10608 0.0
H1538 H 0.31045 0.72351 0.93217 0.0
H1539 H 0.49815 0.83977 0.11251 0.0
H1540 H 0.38952 0.68033 0.06665 0.0
N1541 N 0.35897 0.73968 0.97498 0.0
C1542 C 0.35898 0.71768 0.9903 0.0
C1543 C 0.32414 0.72148 0.94845 0.0
C1544 C 0.34153 0.69641 0.98518 0.0
C1545 C 0.3417 0.74207 0.95449 0.0
C1546 C 0.32421 0.69841 0.96374 0.0
N1547 N 0.39059 0.73894 1.017 0.0
C1548 C 0.40381 0.74062 0.04034 0.0
C1549 C 0.37453 0.69546 0.02959 0.0
C1550 C 0.37533 0.71726 1.01204 0.0
C1551 C 0.38964 0.69657 0.05261 0.0
C1552 C 0.40398 0.71948 0.05822 0.0
H1553 H 0.31047 0.68254 0.9592 0.0
H1554 H 0.32834 0.65762 0.99828 0.0
H1555 H 0.35723 0.65682 0.03731 0.0
O1556 O 0.41074 0.75033 0.9525 0.0
O1557 O 0.34534 0.77727 0.99787 0.0
O1558 O 0.34921 0.80379 0.03536 0.0
O1559 O 0.39109 0.78732 0.94338 0.0
O1560 O 0.43832 0.76989 0.99493 0.0
O1561 O 0.44135 0.79078 0.03553 0.0
O1562 O 0.39518 0.81227 0.08953 0.0
O1563 O 0.4192 0.84149 0.02173 0.0
O1564 O 0.40964 0.80566 1.00334 0.0
O1565 O 0.3727 0.7825 0.06842 0.0
O1566 O 0.36937 0.83396 0.01871 0.0
O1567 O 0.37169 0.81373 0.97708 0.0
C1568 C 0.33298 0.79049 1.01762 0.0
C1569 C 0.39485 0.75579 0.90873 0.0
C1570 C 0.40528 0.7291 0.86993 0.0
C1571 C 0.38052 0.73579 0.85911 0.0
C1572 C 0.37079 0.76341 0.89697 0.0
C1573 C 0.36343 0.7529 0.87259 0.0
C1574 C 0.41199 0.73881 0.89502 0.0
C1575 C 0.45404 0.77812 1.01531 0.0
C1576 C 0.40383 0.76693 0.93406 0.0
C1577 C 0.34148 0.67422 1.00195 0.0
C1578 C 0.35796 0.67375 0.02413 0.0
C1579 C 0.421 0.82864 1.00004 0.0
C1580 C 0.35361 0.80615 0.10514 0.0
C1581 C 0.33608 0.8502 0.11486 0.0
C1582 C 0.33209 0.84254 0.14117 0.0
C1583 C 0.34916 0.79853 0.13134 0.0
C1584 C 0.34452 0.83115 0.09658 0.0
C1585 C 0.33764 0.81648 0.14909 0.0
C1586 C 0.36441 0.83351 0.99292 0.0
C1587 C 0.37636 0.79487 0.09094 0.0
H1588 H 0.37457 0.72821 0.84002 0.0
H1589 H 0.35784 0.77776 0.90628 0.0
H1590 H 0.3447 0.75851 0.86383 0.0
H1591 H 0.43119 0.73424 0.90346 0.0
H1592 H 0.32527 0.85686 0.15563 0.0
H1593 H 0.35655 0.77967 0.13857 0.0
H1594 H 0.34793 0.83701 0.07645 0.0
H1595 H 0.33488 0.81081 0.16949 0.0
Eu1596 Eu 1.01792 0.39441 0.7997 0.0
C1597 C 0.92088 0.35621 0.71813 0.0
N1598 N 0.94769 0.35505 0.71791 0.0
C1599 C 0.946 0.31267 0.69604 0.0
C1600 C 0.90549 0.33502 0.70835 0.0
C1601 C 0.96037 0.33414 0.706 0.0
C1602 C 0.91842 0.31286 0.69769 0.0
C1603 C 0.88115 0.38183 0.72632 0.0
C1604 C 0.90896 0.37928 0.72702 0.0
C1605 C 0.86561 0.36028 0.71792 0.0
C1606 C 0.87778 0.33691 0.70898 0.0
Eu1607 Eu 0.97052 0.38954 0.74063 0.0
N1608 N 0.92465 0.39975 0.73488 0.0
C1609 C 0.86984 0.40619 0.73339 0.0
C1610 C 0.91376 0.42425 0.73945 0.0
C1611 C 0.88625 0.42767 0.73937 0.0
H1612 H 0.98165 0.33404 0.70385 0.0
H1613 H 0.87771 0.44691 0.74377 0.0
H1614 H 0.02689 0.44427 0.84212 0.0
H1615 H 0.06958 0.37379 0.70637 0.0
H1616 H 0.92621 0.44117 0.74367 0.0
H1617 H 0.84856 0.40894 0.73321 0.0
H1618 H 0.03433 0.36931 0.73904 0.0
H1619 H 0.95621 0.29604 0.68705 0.0
H1620 H 0.84421 0.36175 0.7176 0.0
H1621 H 0.86562 0.32065 0.70203 0.0
H1622 H 0.05921 0.48025 0.8505 0.0
H1623 H 0.9073 0.29619 0.68995 0.0
H1624 H 0.10498 0.40695 0.71295 0.0
N1625 N 0.04607 0.43105 0.80715 0.0
C1626 C 0.06662 0.43421 0.79022 0.0
C1627 C 0.0615 0.46747 0.83348 0.0
C1628 C 0.08554 0.4544 0.79429 0.0
C1629 C 0.04327 0.44715 0.8287 0.0
C1630 C 0.08279 0.47105 0.81626 0.0
N1631 N 0.04919 0.39883 0.76479 0.0
C1632 C 0.04946 0.38351 0.74263 0.0
C1633 C 0.08886 0.42117 0.74992 0.0
C1634 C 0.06818 0.41771 0.76838 0.0
C1635 C 0.08946 0.40494 0.72757 0.0
C1636 C 0.06953 0.3862 0.72381 0.0
H1637 H 0.09691 0.48679 0.82003 0.0
H1638 H 0.12125 0.47272 0.77914 0.0
H1639 H 0.12416 0.44364 0.74027 0.0
O1640 O 0.04415 0.36787 0.82099 0.0
O1641 O 1.01165 0.43973 0.78545 0.0
O1642 O 0.98037 0.43717 0.75191 0.0
O1643 O 1.01802 0.3936 0.84304 0.0
O1644 O 0.0188 0.3478 0.78583 0.0
O1645 O 0.995 0.34673 0.74676 0.0
O1646 O 0.96708 0.38912 0.69807 0.0
O1647 O 0.94963 0.35937 0.76682 0.0
O1648 O 0.98271 0.37606 0.78469 0.0
O1649 O 0.99852 0.41206 0.71562 0.0
O1650 O 0.95403 0.41637 0.7738 0.0
O1651 O 0.97617 0.40818 0.81342 0.0
C1652 C 0.99655 0.45264 0.76761 0.0
C1653 C 0.05904 0.38121 0.86243 0.0
C1654 C 0.08256 0.36987 0.90255 0.0
C1655 C 0.10223 0.38838 0.89616 0.0
C1656 C 0.07975 0.39847 0.85552 0.0
C1657 C 0.10092 0.40251 0.87263 0.0
C1658 C 0.0607 0.36659 0.8859 0.0
C1659 C 1.00888 0.3331 0.76557 0.0
C1660 C 0.03711 0.37617 0.84421 0.0
C1661 C 0.10643 0.45744 0.77628 0.0
C1662 C 0.10808 0.44087 0.75415 0.0
C1663 C 0.96307 0.35977 0.78815 0.0
C1664 C 0.96954 0.43303 0.68388 0.0
C1665 C 0.92756 0.45691 0.67515 0.0
C1666 C 0.94262 0.47927 0.66773 0.0
C1667 C 0.98381 0.45572 0.67683 0.0
C1668 C 0.94152 0.43373 0.68216 0.0
C1669 C 0.97038 0.47855 0.66844 0.0
C1670 C 0.95495 0.41639 0.79996 0.0
C1671 C 0.98286 0.40912 0.6951 0.0
H1672 H 0.11886 0.3914 0.90913 0.0
H1673 H 0.08008 0.40827 0.83669 0.0
H1674 H 0.1166 0.41616 0.86736 0.0
H1675 H 0.04539 0.35237 0.89092 0.0
H1676 H 0.93311 0.49738 0.66116 0.0
H1677 H 1.00523 0.45584 0.678 0.0
H1678 H 0.93042 0.41626 0.68726 0.0
H1679 H 0.98154 0.496 0.6628 0.0
Eu1680 Eu 0.39042 0.27578 0.54865 0.0
C1681 C 0.44661 0.19569 0.46536 0.0
N1682 N 0.43649 0.22084 0.4649 0.0
C1683 C 0.4704 0.23453 0.4348 0.0
C1684 C 0.47038 0.18969 0.45201 0.0
C1685 C 0.44678 0.2396 0.44833 0.0
C1686 C 0.48266 0.20973 0.43728 0.0
C1687 C 0.44097 0.14879 0.4758 0.0
C1688 C 0.43173 0.17524 0.47679 0.0
C1689 C 0.46575 0.14327 0.46446 0.0
C1690 C 0.48036 0.16362 0.45251 0.0
Eu1691 Eu 0.39796 0.22682 0.49066 0.0
N1692 N 0.40742 0.18096 0.48718 0.0
C1693 C 0.42459 0.12852 0.48534 0.0
C1694 C 0.39078 0.16113 0.49505 0.0
C1695 C 0.39921 0.13467 0.49449 0.0
H1696 H 0.43731 0.25882 0.44661 0.0
H1697 H 0.38607 0.11902 0.50095 0.0
H1698 H 0.33809 0.28918 0.58585 0.0
H1699 H 0.41525 0.31977 0.45278 0.0
H1700 H 0.37104 0.16564 0.50172 0.0
H1701 H 0.43099 0.10796 0.48488 0.0
H1702 H 0.41382 0.28476 0.48636 0.0
H1703 H 0.47918 0.24976 0.42255 0.0
H1704 H 0.47333 0.12311 0.46389 0.0
H1705 H 0.49885 0.15878 0.44278 0.0
H1706 H 0.30662 0.32628 0.59384 0.0
H1707 H 0.5009 0.20586 0.42667 0.0
H1708 H 0.3894 0.36108 0.45922 0.0
N1709 N 0.35753 0.30858 0.55438 0.0
C1710 C 0.35775 0.32949 0.53765 0.0
C1711 C 0.32112 0.32764 0.57817 0.0
C1712 C 0.33976 0.35075 0.54076 0.0
C1713 C 0.33922 0.30697 0.57406 0.0
C1714 C 0.32161 0.34983 0.56163 0.0
N1715 N 0.39019 0.30662 0.5131 0.0
C1716 C 0.40379 0.30299 0.49018 0.0
C1717 C 0.37388 0.3488 0.4971 0.0
C1718 C 0.37462 0.32848 0.51625 0.0
C1719 C 0.38941 0.34597 0.47443 0.0
C1720 C 0.40406 0.32272 0.47076 0.0
H1721 H 0.3074 0.36572 0.56465 0.0
H1722 H 0.32635 0.38829 0.52459 0.0
H1723 H 0.35624 0.38658 0.48625 0.0
O1724 O 0.41233 0.30114 0.57617 0.0
O1725 O 0.34567 0.27095 0.53314 0.0
O1726 O 0.35044 0.24054 0.49888 0.0
O1727 O 0.39014 0.26764 0.59096 0.0
O1728 O 0.43766 0.27688 0.53596 0.0
O1729 O 0.44111 0.25032 0.49865 0.0
O1730 O 0.39293 0.20836 0.45275 0.0
O1731 O 0.41679 0.2017 0.52335 0.0
O1732 O 0.40871 0.2411 0.53286 0.0
O1733 O 0.37351 0.24617 0.4599 0.0
O1734 O 0.36885 0.21014 0.5209 0.0
O1735 O 0.37032 0.23582 0.5597 0.0
C1736 C 0.33391 0.25626 0.51421 0.0
C1737 C 0.40002 0.30232 0.62142 0.0
C1738 C 0.41753 0.32622 0.65921 0.0
C1739 C 0.39182 0.3289 0.66934 0.0
C1740 C 0.37455 0.30401 0.63247 0.0
C1741 C 0.37042 0.31777 0.656 0.0
C1742 C 0.42157 0.31328 0.63509 0.0
C1743 C 0.4536 0.26548 0.51726 0.0
C1744 C 0.40529 0.28764 0.59688 0.0
C1745 C 0.33988 0.37168 0.52247 0.0
C1746 C 0.35692 0.37071 0.50066 0.0
C1747 C 0.41949 0.2193 0.54138 0.0
C1748 C 0.34998 0.21131 0.43649 0.0
C1749 C 0.3251 0.16967 0.42999 0.0
C1750 C 0.30503 0.18448 0.41748 0.0
C1751 C 0.32969 0.22546 0.42402 0.0
C1752 C 0.34724 0.18346 0.43966 0.0
C1753 C 0.30729 0.21209 0.41472 0.0
C1754 C 0.36289 0.21435 0.54607 0.0
C1755 C 0.37474 0.22474 0.44498 0.0
H1756 H 0.38845 0.33886 0.688 0.0
H1757 H 0.35794 0.29421 0.62351 0.0
H1758 H 0.35071 0.31919 0.66428 0.0
H1759 H 0.4415 0.3111 0.62739 0.0
H1760 H 0.28781 0.17473 0.40929 0.0
H1761 H 0.3313 0.24673 0.4212 0.0
H1762 H 0.36254 0.17228 0.44956 0.0
H1763 H 0.29175 0.22314 0.40491 0.0
Eu1764 Eu 0.498 0.64006 0.29667 0.0
C1765 C 0.61404 0.6726 0.23599 0.0
N1766 N 0.58802 0.67604 0.23106 0.0
C1767 C 0.59744 0.71712 0.20872 0.0
C1768 C 0.63293 0.69164 0.22812 0.0
C1769 C 0.57956 0.6977 0.21705 0.0
C1770 C 0.62426 0.71426 0.21457 0.0
C1771 C 0.64876 0.64411 0.25233 0.0
C1772 C 0.62173 0.64929 0.24776 0.0
C1773 C 0.66773 0.66343 0.2457 0.0
C1774 C 0.65981 0.68717 0.23354 0.0
Eu1775 Eu 0.55792 0.64396 0.2479 0.0
N1776 N 0.6028 0.63109 0.25349 0.0
C1777 C 0.65588 0.61944 0.26284 0.0
C1778 C 0.60974 0.60651 0.26235 0.0
C1779 C 0.63631 0.60042 0.26754 0.0
H1780 H 0.55892 0.70023 0.21208 0.0
H1781 H 0.64166 0.58109 0.27522 0.0
H1782 H 0.47469 0.58389 0.32374 0.0
H1783 H 0.47552 0.675 0.19578 0.0
H1784 H 0.59473 0.59171 0.26593 0.0
H1785 H 0.67643 0.61468 0.2668 0.0
H1786 H 0.5034 0.66744 0.23419 0.0
H1787 H 0.59049 0.73425 0.19781 0.0
H1788 H 0.68858 0.65996 0.24933 0.0
H1789 H 0.67462 0.70167 0.22796 0.0
H1790 H 0.43447 0.55629 0.32201 0.0
H1791 H 0.63813 0.72932 0.20811 0.0
H1792 H 0.43139 0.65408 0.19337 0.0
N1793 N 0.46283 0.60937 0.2927 0.0
C1794 C 0.44552 0.61337 0.27273 0.0
C1795 C 0.43706 0.57254 0.30827 0.0
C1796 C 0.42256 0.59756 0.27033 0.0
C1797 C 0.45957 0.58857 0.30965 0.0
C1798 C 0.41817 0.57739 0.28882 0.0
N1799 N 0.4752 0.64541 0.25558 0.0
C1800 C 0.48406 0.65957 0.23448 0.0
C1801 C 0.43524 0.63487 0.23134 0.0
C1802 C 0.45183 0.63196 0.25361 0.0
C1803 C 0.44346 0.6514 0.21083 0.0
C1804 C 0.46828 0.66329 0.21215 0.0
H1805 H 0.4008 0.56483 0.28763 0.0
H1806 H 0.38743 0.58991 0.24708 0.0
H1807 H 0.39858 0.62252 0.2128 0.0
O1808 O 0.46076 0.64582 0.31931 0.0
O1809 O 0.50666 0.59452 0.28001 0.0
O1810 O 0.54566 0.59633 0.25497 0.0
O1811 O 0.49849 0.65062 0.33788 0.0
O1812 O 0.50256 0.68676 0.28311 0.0
O1813 O 0.53787 0.68875 0.25345 0.0
O1814 O 0.55432 0.6137 0.2174 0.0
O1815 O 0.56985 0.66768 0.28297 0.0
O1816 O 0.53192 0.66901 0.30984 0.0
O1817 O 0.54227 0.65386 0.20844 0.0
O1818 O 0.54185 0.6287 0.28393 0.0
O1819 O 0.52648 0.61324 0.31885 0.0
C1820 C 0.52562 0.58129 0.26595 0.0
C1821 C 0.46554 0.63439 0.36506 0.0
C1822 C 0.45082 0.6381 0.41053 0.0
C1823 C 0.46107 0.61272 0.41593 0.0
C1824 C 0.47785 0.6101 0.37143 0.0
C1825 C 0.47435 0.59868 0.39625 0.0
C1826 C 0.45139 0.64784 0.38456 0.0
C1827 C 0.51903 0.70195 0.26791 0.0
C1828 C 0.47324 0.64938 0.34139 0.0
C1829 C 0.40527 0.60167 0.2491 0.0
C1830 C 0.41161 0.62027 0.22962 0.0
C1831 C 0.55685 0.67579 0.3041 0.0
C1832 C 0.57652 0.63403 0.18213 0.0
C1833 C 0.6242 0.624 0.17651 0.0
C1834 C 0.62578 0.64536 0.15863 0.0
C1835 C 0.57872 0.65452 0.16358 0.0
C1836 C 0.59935 0.61862 0.18803 0.0
C1837 C 0.60321 0.6601 0.15196 0.0
C1838 C 0.54782 0.61606 0.30568 0.0
C1839 C 0.55258 0.63181 0.19918 0.0
H1840 H 0.46083 0.60474 0.43575 0.0
H1841 H 0.49174 0.60087 0.35812 0.0
H1842 H 0.48381 0.57993 0.40088 0.0
H1843 H 0.44335 0.66737 0.38023 0.0
H1844 H 0.64432 0.65063 0.1494 0.0
H1845 H 0.56182 0.66696 0.15898 0.0
H1846 H 0.59814 0.60315 0.20276 0.0
H1847 H 0.60482 0.67632 0.13803 0.0
Eu1848 Eu 0.14509 0.76376 0.04576 0.0
C1849 C 0.10698 0.86732 0.97124 0.0
N1850 N 0.10466 0.84061 0.96938 0.0
C1851 C 0.06125 0.84564 0.95052 0.0
C1852 C 0.08589 0.88431 0.96419 0.0
C1853 C 0.08259 0.82965 0.95808 0.0
C1854 C 0.06266 0.87309 0.95413 0.0
C1855 C 0.13444 0.90527 0.98104 0.0
C1856 C 0.13091 0.87752 0.97936 0.0
C1857 C 0.1131 0.92236 0.97549 0.0
C1858 C 0.08887 0.91188 0.967 0.0
Eu1859 Eu 0.13879 0.81439 0.9889 0.0
N1860 N 0.15098 0.8603 0.98467 0.0
C1861 C 0.1594 0.91502 0.98786 0.0
C1862 C 0.17585 0.86991 0.98959 0.0
C1863 C 0.18031 0.89727 0.99166 0.0
H1864 H 0.08139 0.80852 0.95461 0.0
H1865 H 0.19988 0.90465 0.99625 0.0
H1866 H 0.19504 0.75271 0.08709 0.0
H1867 H 0.12277 0.71613 0.95087 0.0
H1868 H 0.19231 0.85651 0.99258 0.0
H1869 H 0.1629 0.93619 0.98952 0.0
H1870 H 0.11817 0.74947 0.98566 0.0
H1871 H 0.04373 0.83677 0.94196 0.0
H1872 H 0.11531 0.94371 0.97711 0.0
H1873 H 0.07275 0.92527 0.96216 0.0
H1874 H 0.23172 0.72046 0.09305 0.0
H1875 H 0.04603 0.88545 0.94842 0.0
H1876 H 0.15715 0.6813 0.95441 0.0
N1877 N 0.18179 0.73531 0.05129 0.0
C1878 C 0.18517 0.71588 0.03309 0.0
C1879 C 0.2188 0.71897 0.0761 0.0
C1880 C 0.20572 0.69704 0.03571 0.0
C1881 C 0.19812 0.73716 0.07269 0.0
C1882 C 0.22256 0.69874 0.05758 0.0
N1883 N 0.14908 0.73414 1.0094 0.0
C1884 C 0.13298 0.73455 0.98786 0.0
C1885 C 0.17189 0.69572 0.99183 0.0
C1886 C 0.16841 0.71533 1.01147 0.0
C1887 C 0.15512 0.69598 0.96992 0.0
C1888 C 0.13569 0.71559 0.96788 0.0
H1889 H 0.23856 0.68463 0.06029 0.0
H1890 H 0.2245 0.66253 1.01815 0.0
H1891 H 0.1949 0.66137 0.97969 0.0
O1892 O 0.12016 0.73561 0.06673 0.0
O1893 O 0.1904 0.773 0.03261 0.0
O1894 O 0.18684 0.80558 1.00002 0.0
O1895 O 0.14386 0.76321 0.08903 0.0
O1896 O 0.09817 0.76369 0.03244 0.0
O1897 O 0.09612 0.78993 0.99484 0.0
O1898 O 0.13629 0.81824 0.94689 0.0
O1899 O 0.1081 0.83274 1.01599 0.0
O1900 O 0.1262 0.7993 0.03209 0.0
O1901 O 0.15724 0.78427 0.96284 0.0
O1902 O 0.16599 0.82892 0.02223 0.0
O1903 O 0.15891 0.80466 0.06084 0.0
C1904 C 0.20288 0.78961 1.01563 0.0
C1905 C 0.13191 0.7226 0.10954 0.0
C1906 C 0.12063 0.702 0.15138 0.0
C1907 C 0.14129 0.68367 0.1477 0.0
C1908 C 0.15106 0.70283 0.10521 0.0
C1909 C 0.15609 0.68376 0.1245 0.0
C1910 C 0.11619 0.72172 0.13238 0.0
C1911 C 0.08302 0.77482 1.01303 0.0
C1912 C 0.12714 0.74357 0.09006 0.0
C1913 C 0.20892 0.67728 1.01643 0.0
C1914 C 0.19206 0.67662 0.99453 0.0
C1915 C 0.10981 0.81868 0.03683 0.0
C1916 C 0.1736 0.80687 0.92409 0.0
C1917 C 0.19775 0.84532 0.90676 0.0
C1918 C 0.20185 0.83117 0.88311 0.0
C1919 C 0.17795 0.7932 0.90048 0.0
C1920 C 0.18455 0.83241 0.9274 0.0
C1921 C 0.1924 0.8052 0.88023 0.0
C1922 C 0.1663 0.82663 0.04825 0.0
C1923 C 0.15207 0.79859 0.9418 0.0
H1924 H 0.14574 0.66909 0.16263 0.0
H1925 H 0.16194 0.70189 0.08695 0.0
H1926 H 0.17137 0.66897 0.12143 0.0
H1927 H 0.10074 0.7364 0.13545 0.0
H1928 H 0.21184 0.8403 0.86656 0.0
H1929 H 0.16905 0.77391 0.8972 0.0
H1930 H 0.18125 0.84287 0.94559 0.0
H1931 H 0.19533 0.79477 0.86179 0.0
Eu1932 Eu 0.77863 0.97851 0.64801 0.0
C1933 C 0.689 0.05883 0.59571 0.0
N1934 N 0.71474 0.05699 0.60331 0.0
C1935 C 0.72714 0.08828 0.5696 0.0
C1936 C 0.68155 0.0748 0.57402 0.0
C1937 C 0.73356 0.07253 0.59136 0.0
C1938 C 0.70109 0.08911 0.56064 0.0
C1939 C 0.64272 0.04894 0.60407 0.0
C1940 C 0.66976 0.04612 0.61062 0.0
C1941 C 0.63541 0.06384 0.58184 0.0
C1942 C 0.65478 0.07674 0.56686 0.0
Eu1943 Eu 0.72329 0.02889 0.64031 0.0
N1944 N 0.67727 0.03222 0.63233 0.0
C1945 C 0.62372 0.0373 0.62047 0.0
C1946 C 0.65874 0.02184 0.64895 0.0
C1947 C 0.63177 0.02395 0.64318 0.0
H1948 H 0.75377 0.07238 0.59829 0.0
H1949 H 0.61721 1.0155 0.6564 0.0
H1950 H 0.80242 0.94352 0.69801 0.0
H1951 H 0.80536 0.07982 0.61834 0.0
H1952 H 0.66468 1.01237 0.66691 0.0
H1953 H 0.60278 0.03911 0.61614 0.0
H1954 H 0.77689 0.04051 0.62212 0.0
H1955 H 0.74228 0.09991 0.55989 0.0
H1956 H 0.61477 0.06604 0.57644 0.0
H1957 H 0.64877 0.08873 0.55015 0.0
H1958 H 0.84135 0.94276 0.72757 0.0
H1959 H 0.69612 0.10144 0.54385 0.0
H1960 H 0.84779 0.08127 0.64264 0.0
N1961 N 0.81391 0.97872 0.67848 0.0
C1962 C 0.83136 0.99902 0.67722 0.0
C1963 C 0.83895 0.95861 0.71335 0.0
C1964 C 0.85362 0.99989 0.69398 0.0
C1965 C 0.81712 0.95881 0.6964 0.0
C1966 C 0.85745 0.97915 0.71199 0.0
N1967 N 0.80348 0.01861 0.64552 0.0
C1968 C 0.79568 0.04025 0.63146 0.0
C1969 C 0.84271 0.04212 0.65956 0.0
C1970 C 0.82598 0.01968 0.66017 0.0
C1971 C 0.83555 0.06364 0.64366 0.0
C1972 C 0.81168 0.06286 0.62987 0.0
H1973 H 0.87427 0.97909 0.72524 0.0
H1974 H 0.88813 0.0227 0.70537 0.0
H1975 H 0.87857 0.05977 0.67519 0.0
O1976 O 0.80858 0.94972 0.6335 0.0
O1977 O 0.77211 0.9932 0.69305 0.0
O1978 O 0.73855 0.02381 0.68721 0.0
O1979 O 0.76997 0.93685 0.64645 0.0
O1980 O 0.77756 0.98944 0.60007 0.0
O1981 O 0.74494 0.02197 0.59591 0.0
O1982 O 0.70393 0.0548 0.66714 0.0
O1983 O 0.70198 0.99379 0.6201 0.0
O1984 O 0.74191 0.98843 0.62916 0.0
O1985 O 0.73977 0.06908 0.64768 0.0
O1986 O 0.71014 0.99535 0.66806 0.0
O1987 O 0.74272 0.96237 0.67045 0.0
C1988 C 0.75536 1.01085 0.70433 0.0
C1989 C 0.80329 0.90497 0.64937 0.0
C1990 C 0.8239 0.86217 0.64144 0.0
C1991 C 0.81565 0.85345 0.66643 0.0
C1992 C 0.79412 0.89561 0.67392 0.0
C1993 C 0.80095 0.87025 0.68266 0.0
C1994 C 0.81836 0.8882 0.63336 0.0
C1995 C 0.763 1.00574 0.58373 0.0
C1996 C 0.79294 0.92957 0.63777 0.0
C1997 C 0.87089 0.02167 0.69271 0.0
C1998 C 0.86545 0.04276 0.67551 0.0
C1999 C 0.72142 0.97719 0.61817 0.0
C2000 C 0.70267 0.09908 0.65628 0.0
C2001 C 0.65945 0.11952 0.66312 0.0
C2002 C 0.6639 0.13652 0.64172 0.0
C2003 C 0.70743 0.11649 0.63521 0.0
C2004 C 0.67914 0.10178 0.67074 0.0
C2005 C 0.68806 0.13521 0.62805 0.0
C2006 C 0.71867 0.97159 0.67561 0.0
C2007 C 0.71882 0.07528 0.66199 0.0
H2008 H 0.81995 0.83343 0.67303 0.0
H2009 H 0.78072 0.9073 0.68589 0.0
H2010 H 0.7939 0.86322 0.70156 0.0
H2011 H 0.82395 0.89471 0.61374 0.0
H2012 H 0.64899 0.15085 0.63587 0.0
H2013 H 0.72564 0.11533 0.62404 0.0
H2014 H 0.67542 0.08892 0.68753 0.0
H2015 H 0.6916 0.14843 0.61162 0.0
Eu2016 Eu 0.80146 0.0269 0.3967 0.0
C2017 C 0.72135 0.92938 0.35383 0.0
N2018 N 0.72265 0.9562 0.35506 0.0
C2019 C 0.69639 0.95918 0.31545 0.0
C2020 C 0.7085 0.91631 0.33277 0.0
C2021 C 0.70923 0.97114 0.33674 0.0
C2022 C 0.69644 0.93162 0.31315 0.0
C2023 C 0.72795 0.88727 0.37569 0.0
C2024 C 0.7308 0.91514 0.37493 0.0
C2025 C 0.71685 0.87393 0.35402 0.0
C2026 C 0.70708 0.88847 0.33258 0.0
Eu2027 Eu 0.74749 0.97533 0.39079 0.0
N2028 N 0.74076 0.92878 0.39571 0.0
C2029 C 0.7353 0.87379 0.39865 0.0
C2030 C 0.74584 0.91596 0.41889 0.0
C2031 C 0.74374 0.88828 0.42055 0.0
H2032 H 0.70812 0.99253 0.33839 0.0
H2033 H 0.74851 0.87815 0.43875 0.0
H2034 H 0.8424 0.04483 0.44506 0.0
H2035 H 0.70093 0.06283 0.37548 0.0
H2036 H 0.75195 0.927 0.4361 0.0
H2037 H 0.73345 0.85239 0.40004 0.0
H2038 H 0.73906 0.03307 0.37189 0.0
H2039 H 0.68624 0.97127 0.30096 0.0
H2040 H 0.71481 0.85251 0.35409 0.0
H2041 H 0.69763 0.87807 0.31642 0.0
H2042 H 0.84607 0.07976 0.47916 0.0
H2043 H 0.68626 0.92236 0.29675 0.0
H2044 H 0.702 0.10039 0.40688 0.0
N2045 N 0.80501 0.05833 0.43111 0.0
C2046 C 0.7851 0.07619 0.43375 0.0
C2047 C 0.82884 0.07902 0.4665 0.0
C2048 C 0.78629 0.09637 0.45304 0.0
C2049 C 0.82675 0.05935 0.44714 0.0
C2050 C 0.80858 0.0977 0.46938 0.0
N2051 N 0.76235 0.05323 0.40005 0.0
C2052 C 0.74022 0.04926 0.38526 0.0
C2053 C 0.74144 0.09112 0.42084 0.0
C2054 C 0.76305 0.07351 0.41783 0.0
C2055 C 0.71901 0.08735 0.40518 0.0
C2056 C 0.71834 0.06619 0.38745 0.0
H2057 H 0.81018 0.11286 0.48445 0.0
H2058 H 0.7657 0.12999 0.47026 0.0
H2059 H 0.72636 0.12539 0.44206 0.0
O2060 O 0.82101 0.05458 0.37058 0.0
O2061 O 0.78879 0.01995 0.44219 0.0
O2062 O 0.75605 0.98832 0.43782 0.0
O2063 O 0.8449 0.03119 0.39732 0.0
O2064 O 0.78934 0.02681 0.3495 0.0
O2065 O 0.75383 0.9981 0.34695 0.0
O2066 O 0.71954 0.97443 0.42318 0.0
O2067 O 0.77868 0.95139 0.36775 0.0
O2068 O 0.78969 0.99021 0.37729 0.0
O2069 O 0.70785 0.99404 0.38756 0.0
O2070 O 0.78162 0.96043 0.41737 0.0
O2071 O 0.81871 0.98809 0.41403 0.0
C2072 C 0.77091 1.00419 0.45425 0.0
C2073 C 0.86178 0.07282 0.38224 0.0
C2074 C 0.89867 0.0979 0.36447 0.0
C2075 C 0.89094 0.12004 0.37953 0.0
C2076 C 0.85381 0.09523 0.39678 0.0
C2077 C 0.86873 0.11854 0.39586 0.0
C2078 C 0.88444 0.07416 0.36645 0.0
C2079 C 0.77093 1.01458 0.33396 0.0
C2080 C 0.84467 0.04962 0.37928 0.0
C2081 C 0.76511 0.11427 0.45566 0.0
C2082 C 0.74272 0.11165 0.43959 0.0
C2083 C 0.79775 0.96835 0.36583 0.0
C2084 C 0.67936 0.96012 0.40552 0.0
C2085 C 0.6668 0.91424 0.41674 0.0
C2086 C 0.65039 0.91364 0.39437 0.0
C2087 C 0.66241 0.9592 0.38364 0.0
C2088 C 0.68055 0.93781 0.42236 0.0
C2089 C 0.648 0.93608 0.3782 0.0
C2090 C 0.80712 0.96549 0.42145 0.0
C2091 C 0.69971 0.98128 0.40848 0.0
H2092 H 0.90194 0.13847 0.37845 0.0
H2093 H 0.8356 0.09517 0.40793 0.0
H2094 H 0.86256 0.13575 0.40713 0.0
H2095 H 0.89009 0.05721 0.35443 0.0
H2096 H 0.63922 0.89598 0.38948 0.0
H2097 H 0.66115 0.97583 0.37016 0.0
H2098 H 0.69384 0.9381 0.43908 0.0
H2099 H 0.6354 0.93531 0.361 0.0
Eu2100 Eu 0.79708 0.02013 0.1406 0.0
C2101 C 0.7107 0.10772 0.18833 0.0
N2102 N 0.71236 0.081 0.18546 0.0
C2103 C 0.69033 0.07486 0.22694 0.0
C2104 C 0.69964 0.11916 0.21121 0.0
C2105 C 0.70101 0.06452 0.20366 0.0
C2106 C 0.68992 0.10232 0.23089 0.0
C2107 C 0.71692 0.15144 0.1695 0.0
C2108 C 0.71912 0.12355 0.16775 0.0
C2109 C 0.70717 0.16307 0.19277 0.0
C2110 C 0.69848 0.14695 0.21358 0.0
Eu2111 Eu 0.73848 0.06529 0.14968 0.0
N2112 N 0.72853 0.11154 0.14564 0.0
C2113 C 0.72415 0.16674 0.14764 0.0
C2114 C 0.73366 0.12632 0.12366 0.0
C2115 C 0.732 0.15407 0.12442 0.0
H2116 H 0.70098 0.04324 0.20061 0.0
H2117 H 0.73662 0.16564 0.10704 0.0
H2118 H 0.83544 1.01066 0.08797 0.0
H2119 H 0.70622 0.96733 0.16989 0.0
H2120 H 0.73851 0.11668 0.10534 0.0
H2121 H 0.72291 0.18823 0.14821 0.0
H2122 H 0.74033 1.00129 0.17295 0.0
H2123 H 0.68269 0.06161 0.2419 0.0
H2124 H 0.70571 0.18447 0.19465 0.0
H2125 H 0.69046 0.15613 0.23119 0.0
H2126 H 0.83917 0.97991 0.04997 0.0
H2127 H 0.68163 0.11033 0.24892 0.0
H2128 H 0.70732 0.93466 0.13356 0.0
N2129 N 0.80071 0.99237 0.10313 0.0
C2130 C 0.78263 0.97268 0.10049 0.0
C2131 C 0.82317 0.97768 0.06399 0.0
C2132 C 0.78403 0.95469 0.07916 0.0
C2133 C 0.82103 0.995 0.08546 0.0
C2134 C 0.80461 0.95739 0.06085 0.0
N2135 N 0.76149 0.98891 0.13901 0.0
C2136 C 0.74162 0.98748 0.15718 0.0
C2137 C 0.74294 0.95096 0.11624 0.0
C2138 C 0.76237 0.97099 0.11883 0.0
C2139 C 0.7226 0.94969 0.13486 0.0
C2140 C 0.72194 0.96807 0.15538 0.0
H2141 H 0.80632 0.94396 0.04421 0.0
H2142 H 0.7656 0.92068 0.06047 0.0
H2143 H 0.72962 0.91737 0.09296 0.0
O2144 O 0.82222 0.99118 0.16037 0.0
O2145 O 0.78129 0.02881 0.0961 0.0
O2146 O 0.74821 0.06055 0.1009 0.0
O2147 O 0.84031 0.02322 0.1385 0.0
O2148 O 0.78739 0.0186 0.1885 0.0
O2149 O 0.7485 0.04252 0.19262 0.0
O2150 O 0.69571 0.06508 0.14701 0.0
O2151 O 0.76564 0.0897 0.17582 0.0
O2152 O 0.78398 0.05527 0.16174 0.0
O2153 O 0.71803 0.03294 0.12873 0.0
O2154 O 0.7695 0.08434 0.12253 0.0
O2155 O 0.80969 0.06118 0.12505 0.0
C2156 C 0.76359 0.04508 0.08418 0.0
C2157 C 0.86543 0.98378 0.14428 0.0
C2158 C 0.90934 0.96646 0.15369 0.0
C2159 C 0.90586 0.94691 0.1342 0.0
C2160 C 0.86145 0.96313 0.1261 0.0
C2161 C 0.88199 0.94539 0.12037 0.0
C2162 C 0.88953 0.98561 0.15758 0.0
C2163 C 0.76812 0.02838 0.20487 0.0
C2164 C 0.84421 1.00189 0.15243 0.0
C2165 C 0.76484 0.93472 0.07668 0.0
C2166 C 0.74435 0.93285 0.09517 0.0
C2167 C 0.78757 0.07691 0.1754 0.0
C2168 C 0.68508 0.05603 0.10341 0.0
C2169 C 0.67923 0.09351 0.07303 0.0
C2170 C 0.66946 0.07587 0.05393 0.0
C2171 C 0.67509 0.03869 0.08429 0.0
C2172 C 0.68613 0.08345 0.09771 0.0
C2173 C 0.66696 0.0487 0.05975 0.0
C2174 C 0.79524 0.08201 0.11767 0.0
C2175 C 0.69572 0.04661 0.12901 0.0
H2176 H 0.92075 0.93171 0.13099 0.0
H2177 H 0.84238 0.96001 0.1171 0.0
H2178 H 0.87889 0.92957 0.10625 0.0
H2179 H 0.89213 1.00083 0.17252 0.0
H2180 H 0.66344 0.08314 0.03474 0.0
H2181 H 0.67369 1.01759 0.08824 0.0
H2182 H 0.69271 0.09726 0.11245 0.0
H2183 H 0.65901 0.03532 0.04506 0.0
Eu2184 Eu 0.73141 1.01346 0.89996 0.0
C2185 C 0.80056 0.11386 0.84715 0.0
N2186 N 0.80231 0.08721 0.85015 0.0
C2187 C 0.82654 0.08381 0.80949 0.0
C2188 C 0.81036 0.12648 0.82433 0.0
C2189 C 0.8164 0.07227 0.83244 0.0
C2190 C 0.82294 0.11097 0.80509 0.0
C2191 C 0.79043 0.15659 0.86653 0.0
C2192 C 0.79108 0.12863 0.86806 0.0
C2193 C 0.79814 0.16924 0.84303 0.0
C2194 C 0.80821 0.1542 0.822 0.0
Eu2195 Eu 0.77956 0.06889 0.88694 0.0
N2196 N 0.78437 0.11569 0.89058 0.0
C2197 C 0.78295 0.17097 0.88894 0.0
C2198 C 0.77895 0.12967 0.913 0.0
C2199 C 0.77781 0.15747 0.91245 0.0
H2200 H 0.81952 0.05127 0.83586 0.0
H2201 H 0.77296 0.16848 0.93014 0.0
H2202 H 0.69856 1.0005 0.95533 0.0
H2203 H 0.82693 0.97387 0.86558 0.0
H2204 H 0.77539 0.11946 0.93136 0.0
H2205 H 0.78204 0.19249 0.88858 0.0
H2206 H 0.78863 1.00366 0.86516 0.0
H2207 H 0.83711 0.07177 0.79525 0.0
H2208 H 0.79734 0.19069 0.84131 0.0
H2209 H 0.8151 0.16426 0.8044 0.0
H2210 H 0.7009 0.9694 0.99317 0.0
H2211 H 0.83084 0.1199 0.78732 0.0
H2212 H 0.83168 0.94041 0.90092 0.0
N2213 N 0.73388 0.986 0.93761 0.0
C2214 C 0.75422 0.96848 0.9388 0.0
C2215 C 0.71604 0.96895 0.97807 0.0
C2216 C 0.75632 0.95035 0.95992 0.0
C2217 C 0.71479 0.98652 0.95675 0.0
C2218 C 0.73683 0.95067 0.9796 0.0
N2219 N 0.77079 0.98733 0.89935 0.0
C2220 C 0.78982 0.98902 0.88033 0.0
C2221 C 0.7952 0.95178 0.92036 0.0
C2222 C 0.77331 0.96925 0.9192 0.0
C2223 C 0.81454 0.9534 0.9007 0.0
C2224 C 0.81189 0.97221 0.88071 0.0
H2225 H 0.73775 0.93703 0.99611 0.0
H2226 H 0.77974 0.91852 0.97685 0.0
H2227 H 0.81386 0.9198 0.94224 0.0
O2228 O 0.70878 0.98008 0.88433 0.0
O2229 O 0.74799 0.02524 0.94311 0.0
O2230 O 0.77374 0.06288 0.93656 0.0
O2231 O 0.68838 1.01311 0.90299 0.0
O2232 O 0.74031 1.01247 0.85125 0.0
O2233 O 0.77245 0.04455 0.8445 0.0
O2234 O 0.82187 0.07383 0.88884 0.0
O2235 O 0.74395 0.08663 0.86372 0.0
O2236 O 0.73876 0.04885 0.87832 0.0
O2237 O 0.80399 0.03834 0.90618 0.0
O2238 O 0.74786 0.08304 0.91545 0.0
O2239 O 0.71324 0.05209 0.9175 0.0
C2240 C 0.76246 0.04486 0.9541 0.0
C2241 C 0.66541 0.97246 0.90054 0.0
C2242 C 0.62313 0.95312 0.89019 0.0
C2243 C 0.62482 0.9366 0.91235 0.0
C2244 C 0.66812 0.95483 0.9218 0.0
C2245 C 0.6472 0.93792 0.9285 0.0
C2246 C 0.64259 0.972 0.8854 0.0
C2247 C 0.75615 0.02597 0.8336 0.0
C2248 C 0.68618 0.99021 0.89143 0.0
C2249 C 0.77782 0.93267 0.96085 0.0
C2250 C 0.79724 0.93341 0.94114 0.0
C2251 C 0.72701 0.06771 0.86536 0.0
C2252 C 0.83656 0.06273 0.93084 0.0
C2253 C 0.84728 0.09878 0.96157 0.0
C2254 C 0.85771 0.07992 0.97915 0.0
C2255 C 0.84722 0.04424 0.94852 0.0
C2256 C 0.83679 0.09002 0.9376 0.0
C2257 C 0.85779 0.05287 0.97257 0.0
C2258 C 0.72386 0.07571 0.92297 0.0
C2259 C 0.82473 0.05428 0.9055 0.0
H2260 H 0.60997 0.92153 0.91597 0.0
H2261 H 0.68638 0.95322 0.9325 0.0
H2262 H 0.64916 0.92453 0.94508 0.0
H2263 H 0.64112 0.98455 0.86804 0.0
H2264 H 0.86622 0.08615 0.99775 0.0
H2265 H 0.84734 0.02325 0.94377 0.0
H2266 H 0.82861 0.10471 0.92431 0.0
H2267 H 0.86612 0.03854 0.98615 0.0
Eu2268 Eu 0.64596 0.78708 0.98816 0.0
C2269 C 0.59533 0.68924 0.05339 0.0
N2270 N 0.60568 0.71405 0.05629 0.0
C2271 C 0.57687 0.72251 0.09297 0.0
C2272 C 0.57403 0.68084 0.06937 0.0
C2273 C 0.59805 0.72993 0.07684 0.0
C2274 C 0.56445 0.69809 0.08887 0.0
C2275 C 0.59764 0.64519 0.03365 0.0
C2276 C 0.6073 0.67138 0.03589 0.0
C2277 C 0.5754 0.63743 0.04837 0.0
C2278 C 0.56369 0.65516 0.06622 0.0
Eu2279 Eu 0.64107 0.72402 0.0276 0.0
N2280 N 0.62931 0.67904 0.02231 0.0
C2281 C 0.61108 0.62728 1.01723 0.0
C2282 C 0.64312 0.66138 1.00706 0.0
C2283 C 0.63404 0.63533 1.00411 0.0
H2284 H 0.60783 0.7487 0.08021 0.0
H2285 H 0.64476 0.62146 0.99174 0.0
H2286 H 0.69522 0.81103 0.95213 0.0
H2287 H 0.62054 0.80566 0.09163 0.0
H2288 H 0.66086 0.6676 0.99689 0.0
H2289 H 0.60423 0.60701 1.015 0.0
H2290 H 0.61866 0.78223 0.04918 0.0
H2291 H 0.57024 0.73554 0.10863 0.0
H2292 H 0.56758 0.61746 0.0467 0.0
H2293 H 0.54713 0.64853 0.07809 0.0
H2294 H 0.72985 0.84583 0.95531 0.0
H2295 H 0.54817 0.69231 0.10155 0.0
H2296 H 0.65177 0.843 0.09762 0.0
N2297 N 0.68053 0.81808 0.99073 0.0
C2298 C 0.68241 0.8323 1.01329 0.0
C2299 C 0.71667 0.84223 0.97175 0.0
C2300 C 0.7016 0.85244 1.01594 0.0
C2301 C 0.6972 0.8226 0.97 0.0
C2302 C 0.71877 0.85737 0.99477 0.0
N2303 N 0.64787 0.80592 0.03091 0.0
C2304 C 0.63211 0.79839 0.05134 0.0
C2305 C 0.66758 0.84003 0.05804 0.0
C2306 C 0.66562 0.82603 0.03401 0.0
C2307 C 0.65093 0.83273 0.07885 0.0
C2308 C 0.63328 0.81168 0.07555 0.0
H2309 H 0.73378 0.87267 0.99605 0.0
H2310 H 0.71766 0.88247 0.04202 0.0
H2311 H 0.68783 0.87168 0.07887 0.0
O2312 O 0.62619 0.82248 0.97303 0.0
O2313 O 0.69178 0.77721 0.99894 0.0
O2314 O 0.68855 0.73773 0.02194 0.0
O2315 O 0.64242 0.79325 0.94597 0.0
O2316 O 0.59873 0.78302 0.99945 0.0
O2317 O 0.59647 0.74666 0.02736 0.0
O2318 O 0.65783 0.69428 0.0519 0.0
O2319 O 0.61997 0.70812 0.99091 0.0
O2320 O 0.62684 0.74873 0.99043 0.0
O2321 O 0.65865 0.73609 0.06622 0.0
O2322 O 0.66848 0.71778 0.99182 0.0
O2323 O 0.66614 0.75499 0.96399 0.0
C2324 C 0.70452 0.75724 1.01147 0.0
C2325 C 0.63608 0.8362 0.92952 0.0
C2326 C 0.62671 0.85433 0.88666 0.0
C2327 C 0.64575 0.87416 0.89057 0.0
C2328 C 0.65438 0.85661 0.93416 0.0
C2329 C 0.65993 0.87495 0.91422 0.0
C2330 C 0.62252 0.83504 0.90575 0.0
C2331 C 0.58329 0.76646 1.0142 0.0
C2332 C 0.62988 0.81565 0.94857 0.0
C2333 C 0.7032 0.86677 0.03963 0.0
C2334 C 0.6862 0.86061 0.06062 0.0
C2335 C 0.61706 0.72909 0.97674 0.0
C2336 C 0.67789 0.69964 0.094 0.0
C2337 C 0.69694 0.66071 0.11567 0.0
C2338 C 0.7055 0.67689 0.13649 0.0
C2339 C 0.68624 0.71562 0.11505 0.0
C2340 C 0.683 0.67211 0.09477 0.0
C2341 C 0.69992 0.70419 0.13627 0.0
C2342 C 0.67386 0.73044 0.96943 0.0
C2343 C 0.66443 0.71078 0.07065 0.0
H2344 H 0.6492 0.88919 0.87569 0.0
H2345 H 0.66403 0.85863 0.95301 0.0
H2346 H 0.67466 0.89018 0.9174 0.0
H2347 H 0.60782 0.81964 0.90245 0.0
H2348 H 0.71622 0.66837 0.15295 0.0
H2349 H 0.68239 0.7368 0.11502 0.0
H2350 H 0.67662 0.6593 0.07881 0.0
H2351 H 0.70637 0.71655 0.15249 0.0
Eu2352 Eu 0.99889 0.14394 0.7978 0.0
C2353 C 0.0831 0.18873 0.71189 0.0
N2354 N 0.05788 0.17946 0.71456 0.0
C2355 C 0.04287 0.20982 0.68112 0.0
C2356 C 0.08877 0.20981 0.69436 0.0
C2357 C 0.03813 0.18882 0.69847 0.0
C2358 C 0.06817 0.22066 0.67937 0.0
C2359 C 0.13017 0.18437 0.72137 0.0
C2360 C 0.10375 0.17603 0.72524 0.0
C2361 C 0.13552 0.2061 0.70491 0.0
C2362 C 0.1149 0.21878 0.69147 0.0
Eu2363 Eu 0.05297 0.14418 0.74542 0.0
N2364 N 0.09829 0.15478 0.74093 0.0
C2365 C 0.15061 0.17017 0.73361 0.0
C2366 C 0.11825 0.14019 0.75196 0.0
C2367 C 0.14464 0.14781 0.74871 0.0
H2368 H 0.01862 0.18025 0.69915 0.0
H2369 H 0.16036 0.13638 0.75777 0.0
H2370 H 0.97548 0.0975 0.83821 0.0
H2371 H 0.96731 0.16743 0.69701 0.0
H2372 H 0.11374 0.12278 0.76336 0.0
H2373 H 0.17111 0.17595 0.73103 0.0
H2374 H 0.9978 0.16593 0.73474 0.0
H2375 H 0.02702 0.21749 0.66894 0.0
H2376 H 0.15566 0.21287 0.70193 0.0
H2377 H 0.11949 0.23508 0.67829 0.0
H2378 H 0.93601 0.06893 0.84288 0.0
H2379 H 0.07181 0.23679 0.6657 0.0
H2380 H 0.92453 0.14374 0.69957 0.0
N2381 N 0.96289 0.11462 0.80222 0.0
C2382 C 0.94459 0.1148 0.78274 0.0
C2383 C 0.93804 0.08187 0.82596 0.0
C2384 C 0.92192 0.0985 0.78424 0.0
C2385 C 0.9602 0.09826 0.82348 0.0
C2386 C 0.91866 0.08215 0.80634 0.0
N2387 N 0.97207 0.14465 0.75939 0.0
C2388 C 0.97892 0.15697 0.73657 0.0
C2389 C 0.93142 0.12957 0.73928 0.0
C2390 C 0.9493 0.13026 0.76066 0.0
C2391 C 0.93768 0.14378 0.71644 0.0
C2392 C 0.96176 0.15723 0.71495 0.0
H2393 H 0.90155 0.06932 0.80819 0.0
H2394 H 0.88603 0.0863 0.76428 0.0
H2395 H 0.89439 0.11342 0.72481 0.0
O2396 O 0.96886 0.15702 0.82655 0.0
O2397 O 1.00337 0.09752 0.78743 0.0
O2398 O 0.03332 0.09958 0.75302 0.0
O2399 O 1.01019 0.15823 0.83628 0.0
O2400 O 1.00103 0.18997 0.7834 0.0
O2401 O 0.03318 0.18992 0.75051 0.0
O2402 O 0.07469 0.11405 0.7251 0.0
O2403 O 0.07696 0.16648 0.77625 0.0
O2404 O 0.03775 0.15846 0.78719 0.0
O2405 O 0.04215 0.13332 0.70454 0.0
O2406 O 0.06589 0.11784 0.78056 0.0
O2407 O 0.03188 0.11667 0.81218 0.0
C2408 C 1.0174 0.08441 0.7689 0.0
C2409 C 0.98145 0.14853 0.87058 0.0
C2410 C 0.96234 0.15203 0.91409 0.0
C2411 C 0.97536 0.12842 0.92152 0.0
C2412 C 0.99498 0.1254 0.87835 0.0
C2413 C 0.99152 0.11512 0.90359 0.0
C2414 C 0.96498 0.16159 0.88836 0.0
C2415 C 1.01606 0.20411 0.76614 0.0
C2416 C 0.9863 0.16074 0.84498 0.0
C2417 C 0.90362 0.09857 0.76344 0.0
C2418 C 0.90836 0.11405 0.741 0.0
C2419 C 0.05979 0.16979 0.79466 0.0
C2420 C 0.08305 0.12322 0.68148 0.0
C2421 C 0.12966 0.11828 0.66937 0.0
C2422 C 0.12681 0.1396 0.65172 0.0
C2423 C 0.08027 0.14377 0.66302 0.0
C2424 C 0.10745 0.10983 0.68345 0.0
C2425 C 0.10215 0.15186 0.64816 0.0
C2426 C 0.05582 0.10996 0.8035 0.0
C2427 C 0.06341 0.11829 0.70243 0.0
H2428 H 0.97395 0.12086 0.94146 0.0
H2429 H 1.00835 0.1155 0.86497 0.0
H2430 H 1.00199 0.09729 0.90948 0.0
H2431 H 0.955 0.17974 0.88243 0.0
H2432 H 0.14337 0.14642 0.6403 0.0
H2433 H 0.06167 0.15424 0.66083 0.0
H2434 H 0.10968 0.09382 0.6976 0.0
H2435 H 0.10015 0.16809 0.63429 0.0
Eu2436 Eu 0.88916 0.26716 0.48551 0.0
C2437 C 0.93951 0.35136 0.57346 0.0
N2438 N 0.93516 0.32487 0.57101 0.0
C2439 C 0.97495 0.31557 0.59527 0.0
C2440 C 0.96272 0.36097 0.58564 0.0
C2441 C 0.9517 0.307 0.58303 0.0
C2442 C 0.98079 0.34265 0.59606 0.0
C2443 C 0.92343 0.39652 0.56859 0.0
C2444 C 0.91985 0.36886 0.56539 0.0
C2445 C 0.94723 0.4062 0.57918 0.0
C2446 C 0.96679 0.38846 0.58778 0.0
Eu2447 Eu 0.89779 0.31239 0.54538 0.0
N2448 N 0.89687 0.35884 0.55545 0.0
C2449 C 0.90285 0.41366 0.56145 0.0
C2450 C 0.87632 0.37561 0.54976 0.0
C2451 C 0.87908 0.40312 0.55233 0.0
H2452 H 0.94719 0.28599 0.58258 0.0
H2453 H 0.86275 0.41617 0.54741 0.0
H2454 H 0.8372 0.25299 0.44834 0.0
H2455 H 0.91957 0.21903 0.57803 0.0
H2456 H 0.85749 0.36807 0.54349 0.0
H2457 H 0.90486 0.43499 0.56354 0.0
H2458 H 0.91626 0.25524 0.54612 0.0
H2459 H 0.98837 0.30128 0.60401 0.0
H2460 H 0.95042 0.42737 0.58145 0.0
H2461 H 0.9847 0.39621 0.59665 0.0
H2462 H 0.80649 0.21554 0.44009 0.0
H2463 H 0.99884 0.34925 0.60554 0.0
H2464 H 0.89368 0.17794 0.57133 0.0
N2465 N 0.85692 0.23379 0.47976 0.0
C2466 C 0.85802 0.21239 0.49583 0.0
C2467 C 0.82101 0.21427 0.45572 0.0
C2468 C 0.8406 0.19077 0.4924 0.0
C2469 C 0.83861 0.23524 0.46009 0.0
C2470 C 0.82216 0.19178 0.47182 0.0
N2471 N 0.89108 0.23473 0.51981 0.0
C2472 C 0.90604 0.23727 0.54202 0.0
C2473 C 0.87615 0.1917 0.53486 0.0
C2474 C 0.87563 0.21287 0.51659 0.0
C2475 C 0.89274 0.19369 0.5568 0.0
C2476 C 0.90743 0.21679 0.56059 0.0
H2477 H 0.80843 0.17559 0.46853 0.0
H2478 H 0.82863 0.15239 0.50759 0.0
H2479 H 0.85977 0.15319 0.54485 0.0
O2480 O 0.90792 0.24346 0.45428 0.0
O2481 O 0.84479 0.27181 0.50159 0.0
O2482 O 0.8494 0.3027 0.53565 0.0
O2483 O 0.88731 0.27986 0.4446 0.0
O2484 O 0.93694 0.26493 0.49669 0.0
O2485 O 0.94141 0.29101 0.53422 0.0
O2486 O 0.89654 0.31443 0.58775 0.0
O2487 O 0.91981 0.33813 0.51553 0.0
O2488 O 0.90704 0.30085 0.50287 0.0
O2489 O 0.87569 0.28231 0.56813 0.0
O2490 O 0.86841 0.33162 0.51651 0.0
O2491 O 0.86986 0.30818 0.47646 0.0
C2492 C 0.83298 0.28703 0.52008 0.0
C2493 C 0.89065 0.24761 0.41076 0.0
C2494 C 0.90206 0.22311 0.371 0.0
C2495 C 0.87659 0.22808 0.36092 0.0
C2496 C 0.86575 0.25366 0.39986 0.0
C2497 C 0.85856 0.2433 0.37536 0.0
C2498 C 0.90862 0.23245 0.39619 0.0
C2499 C 0.9534 0.27616 0.51508 0.0
C2500 C 0.89998 0.25933 0.43558 0.0
C2501 C 0.84176 0.16921 0.50991 0.0
C2502 C 0.85951 0.16967 0.53112 0.0
C2503 C 0.91947 0.32224 0.49584 0.0
C2504 C 0.85525 0.30672 0.60365 0.0
C2505 C 0.83635 0.3503 0.61275 0.0
C2506 C 0.83091 0.3423 0.6387 0.0
C2507 C 0.84961 0.29876 0.62951 0.0
C2508 C 0.84593 0.33153 0.59482 0.0
C2509 C 0.83649 0.31622 0.64666 0.0
C2510 C 0.86295 0.32924 0.49098 0.0
C2511 C 0.87868 0.29603 0.59003 0.0
H2512 H 0.87088 0.22077 0.34167 0.0
H2513 H 0.85213 0.26691 0.40976 0.0
H2514 H 0.83926 0.24775 0.36719 0.0
H2515 H 0.9284 0.22934 0.40394 0.0
H2516 H 0.82306 0.35637 0.65288 0.0
H2517 H 0.85702 0.28 0.63697 0.0
H2518 H 0.85024 0.33763 0.57497 0.0
H2519 H 0.83249 0.31022 0.66675 0.0
Eu2520 Eu 0.55789 0.88857 0.7456 0.0
C2521 C 0.45006 0.92065 0.77576 0.0
N2522 N 0.46732 0.92145 0.79613 0.0
C2523 C 0.4418 0.95561 0.81722 0.0
C2524 C 0.42758 0.93738 0.77547 0.0
C2525 C 0.4638 0.93876 0.81657 0.0
C2526 C 0.42346 0.95479 0.79666 0.0
C2527 C 0.43823 0.90343 0.7328 0.0
C2528 C 0.45535 0.90368 0.7548 0.0
C2529 C 0.41549 0.91959 0.73268 0.0
C2530 C 0.41015 0.93647 0.75398 0.0
Eu2531 Eu 0.50243 0.89079 0.79516 0.0
N2532 N 0.47761 0.88826 0.75542 0.0
C2533 C 0.44471 0.88733 0.71128 0.0
C2534 C 0.48442 0.87345 0.73397 0.0
C2535 C 0.46807 0.87253 0.71176 0.0
H2536 H 0.47815 0.9396 0.83225 0.0
H2537 H 0.47363 0.86053 0.69491 0.0
H2538 H 0.54317 0.83584 0.70591 0.0
H2539 H 0.65463 0.93576 0.75783 0.0
H2540 H 0.50251 0.86261 0.73346 0.0
H2541 H 0.43214 0.88663 0.69399 0.0
H2542 H 0.60597 0.93326 0.758 0.0
H2543 H 0.43903 0.96922 0.83353 0.0
H2544 H 0.40209 0.91946 0.716 0.0
H2545 H 0.39271 0.94904 0.75347 0.0
H2546 H 0.56599 0.79953 0.68306 0.0
H2547 H 0.40641 0.96788 0.79716 0.0
H2548 H 0.68115 0.89835 0.74033 0.0
N2549 N 0.5786 0.85353 0.72091 0.0
C2550 C 0.60541 0.8529 0.72048 0.0
C2551 C 0.57738 0.81424 0.69371 0.0
C2552 C 0.61931 0.83245 0.70726 0.0
C2553 C 0.56454 0.83492 0.70695 0.0
C2554 C 0.60491 0.81279 0.69413 0.0
N2555 N 0.60469 0.89383 0.74276 0.0
C2556 C 0.6172 0.91633 0.75119 0.0
C2557 C 0.64682 0.87458 0.73073 0.0
C2558 C 0.61892 0.87369 0.73189 0.0
C2559 C 0.65976 0.89686 0.74092 0.0
C2560 C 0.64485 0.918 0.7508 0.0
H2561 H 0.61484 0.79682 0.68371 0.0
H2562 H 0.65809 0.81709 0.69703 0.0
H2563 H 0.68227 0.85402 0.71769 0.0
O2564 O 0.56072 0.92093 0.71763 0.0
O2565 O 0.58145 0.86588 0.7757 0.0
O2566 O 0.54234 0.87477 0.78841 0.0
O2567 O 0.54096 0.88531 0.70537 0.0
O2568 O 0.56914 0.91513 0.78145 0.0
O2569 O 0.53404 0.91716 0.81172 0.0
O2570 O 0.46954 0.88182 0.8225 0.0
O2571 O 0.50946 0.93757 0.78387 0.0
O2572 O 0.5439 0.93524 0.7538 0.0
O2573 O 0.50962 0.87501 0.83412 0.0
O2574 O 0.50573 0.8438 0.78434 0.0
O2575 O 0.53883 0.84284 0.75276 0.0
C2576 C 0.56495 0.86368 0.79497 0.0
C2577 C 0.57723 0.90183 0.67898 0.0
C2578 C 0.62514 0.90831 0.67131 0.0
C2579 C 0.62432 0.88741 0.65283 0.0
C2580 C 0.57701 0.8815 0.66011 0.0
C2581 C 0.60045 0.87446 0.64709 0.0
C2582 C 0.6012 0.91556 0.68358 0.0
C2583 C 0.55846 0.92274 0.80425 0.0
C2584 C 0.55484 0.90587 0.69775 0.0
C2585 C 0.64709 0.83271 0.70689 0.0
C2586 C 0.66084 0.85372 0.71867 0.0
C2587 C 0.52649 0.95077 0.76774 0.0
C2588 C 0.48098 0.88819 0.8674 0.0
C2589 C 0.4633 0.88497 0.91181 0.0
C2590 C 0.47737 0.9081 0.91875 0.0
C2591 C 0.49537 0.91087 0.87479 0.0
C2592 C 0.46481 0.87549 0.88583 0.0
C2593 C 0.49316 0.92103 0.90023 0.0
C2594 C 0.52188 0.82899 0.76871 0.0
C2595 C 0.48529 0.87565 0.84173 0.0
H2596 H 0.64193 0.88092 0.64262 0.0
H2597 H 0.55912 0.87032 0.65632 0.0
H2598 H 0.60033 0.85833 0.63299 0.0
H2599 H 0.60151 0.93082 0.69847 0.0
H2600 H 0.47705 0.91568 0.93873 0.0
H2601 H 0.5088 0.92034 0.86109 0.0
H2602 H 0.45414 0.85772 0.88012 0.0
H2603 H 0.50438 0.93844 0.90587 0.0
Eu2604 Eu 0.04343 0.14428 0.30629 0.0
C2605 C 1.01334 0.18423 0.20123 0.0
N2606 N 0.99313 0.18282 0.2187 0.0
C2607 C 0.97169 0.2201 0.19849 0.0
C2608 C 1.01349 0.20386 0.18142 0.0
C2609 C 0.97242 0.2003 0.21779 0.0
C2610 C 0.99227 0.22183 0.18013 0.0
C2611 C 0.05594 0.16799 0.18625 0.0
C2612 C 0.03436 0.16658 0.20386 0.0
C2613 C 0.05595 0.18715 0.16609 0.0
C2614 C 0.03489 0.20516 0.16382 0.0
Eu2615 Eu 0.99472 0.14809 0.24942 0.0
N2616 N 0.034 0.14851 0.22389 0.0
C2617 C 0.07708 0.15033 0.18963 0.0
C2618 C 0.05485 0.13171 0.22756 0.0
C2619 C 0.07659 0.13225 0.21047 0.0
H2620 H 0.95648 0.1987 0.23196 0.0
H2621 H 0.093 0.11871 0.21343 0.0
H2622 H 0.08786 0.09603 0.28957 0.0
H2623 H 0.02629 0.18414 0.40551 0.0
H2624 H 0.05503 0.11791 0.24354 0.0
H2625 H 0.09399 0.1507 0.17647 0.0
H2626 H 0.03012 0.18678 0.35709 0.0
H2627 H 0.95526 0.23391 0.19771 0.0
H2628 H 0.07236 0.18845 0.15238 0.0
H2629 H 0.03548 0.22018 0.14853 0.0
H2630 H 0.1076 0.05615 0.31021 0.0
H2631 H 0.99169 0.2372 0.1652 0.0
H2632 H 0.03968 0.14316 0.42892 0.0
N2633 N 0.06797 0.10841 0.32457 0.0
C2634 C 0.06542 0.105 0.35098 0.0
C2635 C 0.09553 0.06954 0.32185 0.0
C2636 C 0.07649 0.08263 0.36362 0.0
C2637 C 0.08423 0.09205 0.31023 0.0
C2638 C 0.09109 0.06444 0.34854 0.0
N2639 N 0.04471 0.14727 0.35296 0.0
C2640 C 0.03579 0.16864 0.36698 0.0
C2641 C 0.05179 0.1228 0.39329 0.0
C2642 C 0.05348 0.12505 0.36563 0.0
C2643 C 0.04134 0.14412 0.40764 0.0
C2644 C 0.03377 0.1673 0.39448 0.0
H2645 H 0.09988 0.04699 0.35751 0.0
H2646 H 0.08134 0.06231 0.40096 0.0
H2647 H 0.05953 0.09738 0.42696 0.0
O2648 O 0.08399 0.14873 0.31807 0.0
O2649 O 1.01171 0.11958 0.32635 0.0
O2650 O 1.00117 0.13094 0.28804 0.0
O2651 O 0.07152 0.1658 0.28056 0.0
O2652 O 1.00771 0.17053 0.31837 0.0
O2653 O 0.97686 0.17074 0.28354 0.0
O2654 O 0.97474 0.12644 0.21788 0.0
O2655 O 1.00878 0.19377 0.25705 0.0
O2656 O 0.03456 0.19219 0.29505 0.0
O2657 O 0.95156 0.14538 0.24828 0.0
O2658 O 1.00521 0.10095 0.25423 0.0
O2659 O 0.03934 0.10016 0.28446 0.0
C2660 C 0.99327 0.11829 0.30905 0.0
C2661 C 0.09968 0.1912 0.31002 0.0
C2662 C 0.10881 0.21951 0.34854 0.0
C2663 C 0.12221 0.23731 0.33183 0.0
C2664 C 0.11316 0.20916 0.29384 0.0
C2665 C 0.12423 0.23218 0.30473 0.0
C2666 C 0.09735 0.19683 0.3373 0.0
C2667 C 0.98444 0.17699 0.30776 0.0
C2668 C 0.08943 0.16568 0.29954 0.0
C2669 C 0.07346 0.07963 0.39097 0.0
C2670 C 0.06109 0.09964 0.40577 0.0
C2671 C 0.02263 0.20731 0.27562 0.0
C2672 C 0.93049 0.1377 0.20761 0.0
C2673 C 0.88528 0.13165 0.19258 0.0
C2674 C 0.88857 0.15311 0.17519 0.0
C2675 C 0.93438 0.15701 0.18807 0.0
C2676 C 0.90619 0.1244 0.20922 0.0
C2677 C 0.91323 0.16522 0.17242 0.0
C2678 C 0.02265 0.08629 0.26852 0.0
C2679 C 0.95109 0.13125 0.22684 0.0
H2680 H 0.13162 0.25489 0.33976 0.0
H2681 H 0.11543 0.20523 0.27296 0.0
H2682 H 0.13481 0.24592 0.29217 0.0
H2683 H 0.08683 0.18334 0.35011 0.0
H2684 H 0.8723 0.16004 0.16328 0.0
H2685 H 0.95359 0.16573 0.18489 0.0
H2686 H 0.90346 0.10861 0.22352 0.0
H2687 H 0.91597 0.18085 0.15802 0.0
Eu2688 Eu 0.56045 0.14363 0.7933 0.0
C2689 C 0.45544 0.10555 0.75245 0.0
N2690 N 0.47496 0.10544 0.73419 0.0
C2691 C 0.45304 0.0705 0.71051 0.0
C2692 C 0.43365 0.08814 0.7504 0.0
C2693 C 0.47417 0.08818 0.71339 0.0
C2694 C 0.43255 0.07062 0.72899 0.0
C2695 C 0.439 0.12158 0.79429 0.0
C2696 C 0.45809 0.12212 0.77393 0.0
C2697 C 0.41667 0.10512 0.7919 0.0
C2698 C 0.41401 0.08841 0.76999 0.0
Eu2699 Eu 0.50847 0.13803 0.73793 0.0
N2700 N 0.48022 0.13738 0.77577 0.0
C2701 C 0.44339 0.13685 0.81687 0.0
C2702 C 0.48539 0.15054 0.79867 0.0
C2703 C 0.46697 0.15097 0.81927 0.0
H2704 H 0.49 0.08783 0.69907 0.0
H2705 H 0.47121 0.16185 0.83719 0.0
H2706 H 0.53879 0.19142 0.83575 0.0
H2707 H 0.66298 0.10766 0.78414 0.0
H2708 H 0.50392 0.15991 0.80175 0.0
H2709 H 0.42926 0.13698 0.83296 0.0
H2710 H 0.61445 0.10295 0.78454 0.0
H2711 H 0.45257 0.05683 0.69404 0.0
H2712 H 0.40172 0.10465 0.80723 0.0
H2713 H 0.397 0.07537 0.76865 0.0
H2714 H 0.55652 0.23213 0.85651 0.0
H2715 H 0.4162 0.05689 0.72676 0.0
H2716 H 0.68366 0.14988 0.79802 0.0
N2717 N 0.57563 0.18047 0.81834 0.0
C2718 C 0.60213 0.18502 0.81737 0.0
C2719 C 0.5695 0.21923 0.8453 0.0
C2720 C 0.61313 0.20788 0.82917 0.0
C2721 C 0.55953 0.19628 0.83341 0.0
C2722 C 0.59631 0.22541 0.84264 0.0
N2723 N 0.60741 0.14283 0.79699 0.0
C2724 C 0.62308 0.12175 0.79013 0.0
C2725 C 0.64624 0.16894 0.80691 0.0
C2726 C 0.61851 0.16561 0.80649 0.0
C2727 C 0.66228 0.14809 0.79801 0.0
C2728 C 0.65067 0.12422 0.79014 0.0
H2729 H 0.604 0.24318 0.85194 0.0
H2730 H 0.64936 0.22962 0.83664 0.0
H2731 H 0.67834 0.19562 0.81705 0.0
O2732 O 0.57153 0.14039 0.83422 0.0
O2733 O 0.58143 0.17056 0.76419 0.0
O2734 O 0.54525 0.15613 0.74986 0.0
O2735 O 0.53713 0.11868 0.8208 0.0
O2736 O 0.57715 0.11785 0.75968 0.0
O2737 O 0.54817 0.12081 0.72362 0.0
O2738 O 0.48275 0.16076 0.71089 0.0
O2739 O 0.51474 0.09307 0.75241 0.0
O2740 O 0.54975 0.09605 0.78216 0.0
O2741 O 0.51053 0.132 0.69575 0.0
O2742 O 0.50942 0.1854 0.75002 0.0
O2743 O 0.53627 0.18673 0.78728 0.0
C2744 C 0.56547 0.17129 0.74465 0.0
C2745 C 0.56978 0.09647 0.8483 0.0
C2746 C 0.61208 0.07287 0.85632 0.0
C2747 C 0.59736 0.0514 0.86649 0.0
C2748 C 0.55585 0.0747 0.85829 0.0
C2749 C 0.56962 0.05235 0.86738 0.0
C2750 C 0.59787 0.0953 0.84758 0.0
C2751 C 0.57136 0.11436 0.73435 0.0
C2752 C 0.55572 0.12075 0.83891 0.0
C2753 C 0.6406 0.21196 0.82809 0.0
C2754 C 0.65711 0.19256 0.81696 0.0
C2755 C 0.53212 0.08041 0.76822 0.0
C2756 C 0.4983 0.1663 0.66663 0.0
C2757 C 0.48201 0.19201 0.62946 0.0
C2758 C 0.50803 0.19483 0.62012 0.0
C2759 C 0.52392 0.16765 0.65583 0.0
C2760 C 0.47723 0.17819 0.653 0.0
C2761 C 0.52889 0.1825 0.63322 0.0
C2762 C 0.52114 0.20023 0.76938 0.0
C2763 C 0.49276 0.14967 0.68989 0.0
H2764 H 0.60716 0.03394 0.87426 0.0
H2765 H 0.53443 0.07506 0.85923 0.0
H2766 H 0.55873 0.03567 0.87533 0.0
H2767 H 0.60881 0.112 0.84012 0.0
H2768 H 0.51198 0.20519 0.6018 0.0
H2769 H 0.53987 0.15626 0.6641 0.0
H2770 H 0.45709 0.17572 0.66 0.0
H2771 H 0.54874 0.1835 0.62522 0.0
Eu2772 Eu 0.14356 0.30996 0.04508 0.0
C2773 C 0.18916 0.21382 0.99825 0.0
N2774 N 0.18642 0.23402 0.9808 0.0
C2775 C 0.22408 0.2184 0.95636 0.0
C2776 C 0.20965 0.19492 0.99537 0.0
C2777 C 0.20344 0.2366 0.95996 0.0
C2778 C 0.22711 0.19737 0.97405 0.0
C2779 C 0.17499 0.1924 0.03856 0.0
C2780 C 0.17202 0.21271 0.01956 0.0
C2781 C 0.19495 0.17315 0.03548 0.0
C2782 C 0.21225 0.17442 1.01394 0.0
Eu2783 Eu 0.14974 0.26267 0.9866 0.0
N2784 N 0.15299 0.23178 0.0221 0.0
C2785 C 0.15801 0.19218 0.06032 0.0
C2786 C 0.13684 0.2318 0.04364 0.0
C2787 C 0.13899 0.21211 0.06295 0.0
H2788 H 0.20108 0.25286 0.94623 0.0
H2789 H 0.12598 0.21236 0.07992 0.0
H2790 H 0.08939 0.29644 0.08259 0.0
H2791 H 0.19771 0.40462 0.04426 0.0
H2792 H 0.12245 0.24696 0.04645 0.0
H2793 H 0.15964 0.17697 0.07534 0.0
H2794 H 0.19347 0.35574 0.04386 0.0
H2795 H 0.23756 0.22055 0.9399 0.0
H2796 H 0.19738 0.15738 0.04982 0.0
H2797 H 0.22775 0.15962 1.01197 0.0
H2798 H 0.05055 0.32051 0.09991 0.0
H2799 H 0.24312 0.18327 0.97121 0.0
H2800 H 0.15893 0.43266 0.05514 0.0
N2801 N 0.10871 0.33137 0.0687 0.0
C2802 C 0.10876 0.3583 0.06866 0.0
C2803 C 0.06661 0.3314 0.09084 0.0
C2804 C 0.08703 0.37292 0.07849 0.0
C2805 C 0.08858 0.31782 0.08075 0.0
C2806 C 0.06553 0.35906 0.08914 0.0
N2807 N 0.15217 0.35611 0.05196 0.0
C2808 C 0.17618 0.36779 0.04764 0.0
C2809 C 0.13289 0.39908 0.06119 0.0
C2810 C 0.13128 0.37113 0.06001 0.0
C2811 C 0.15685 0.41124 0.05451 0.0
C2812 C 0.17875 0.39548 0.04827 0.0
H2813 H 0.04852 0.36955 0.09702 0.0
H2814 H 0.07133 0.41241 0.0855 0.0
H2815 H 0.11158 0.43539 0.07039 0.0
O2816 O 0.14428 0.31231 0.08771 0.0
O2817 O 0.1156 0.33282 1.01838 0.0
O2818 O 0.13027 0.29838 1.00054 0.0
O2819 O 0.1652 0.28001 0.06855 0.0
O2820 O 0.17042 0.32686 1.0126 0.0
O2821 O 0.16435 0.3038 0.97293 0.0
O2822 O 0.124 0.23655 0.96421 0.0
O2823 O 0.19505 0.27014 1.00124 0.0
O2824 O 0.19177 0.30213 0.03421 0.0
O2825 O 0.15116 0.26179 0.94316 0.0
O2826 O 0.1027 0.26172 0.99916 0.0
O2827 O 0.10043 0.28644 0.03764 0.0
C2828 C 0.11539 0.31927 0.99707 0.0
C2829 C 0.18824 0.30693 0.10044 0.0
C2830 C 0.21488 0.34729 0.10827 0.0
C2831 C 0.23624 0.33079 0.11555 0.0
C2832 C 0.2099 0.2911 0.10745 0.0
C2833 C 0.23364 0.30304 0.11533 0.0
C2834 C 0.19083 0.33492 0.10176 0.0
C2835 C 0.17334 0.32443 0.98672 0.0
C2836 C 0.16348 0.29525 0.08961 0.0
C2837 C 0.08791 0.40081 0.07827 0.0
C2838 C 0.11084 0.41388 0.06969 0.0
C2839 C 0.20774 0.28608 0.01867 0.0
C2840 C 0.13696 0.22163 0.92243 0.0
C2841 C 0.11984 0.1966 0.88507 0.0
C2842 C 0.13883 0.17671 0.88975 0.0
C2843 C 0.15521 0.20115 0.92734 0.0
C2844 C 0.11945 0.21939 0.90105 0.0
C2845 C 0.15655 0.17912 0.91068 0.0
C2846 C 0.08735 0.272 0.01885 0.0
C2847 C 0.13308 0.24348 0.94129 0.0
H2848 H 0.25496 0.33922 0.12167 0.0
H2849 H 0.20854 0.26964 0.10661 0.0
H2850 H 0.25029 0.29072 0.12094 0.0
H2851 H 0.17412 0.34721 0.09686 0.0
H2852 H 0.13964 0.15911 0.87745 0.0
H2853 H 0.16772 0.20153 0.94449 0.0
H2854 H 0.10457 0.2346 0.89776 0.0
H2855 H 0.17075 0.16346 0.91452 0.0
Eu2856 Eu 0.39797 0.72998 0.54613 0.0
C2857 C 0.36274 0.82511 0.50284 0.0
N2858 N 0.36078 0.8048 0.48548 0.0
C2859 C 0.32561 0.82739 0.46283 0.0
C2860 C 0.34647 0.84787 0.50048 0.0
C2861 C 0.34205 0.80527 0.46612 0.0
C2862 C 0.32809 0.849 0.47988 0.0
C2863 C 0.38099 0.84252 0.54334 0.0
C2864 C 0.37983 0.82235 0.52391 0.0
C2865 C 0.36573 0.86571 0.5405 0.0
C2866 C 0.3485 0.86839 0.5191 0.0
Eu2867 Eu 0.39183 0.7697 0.48913 0.0
N2868 N 0.39382 0.79927 0.52641 0.0
C2869 C 0.39669 0.83842 0.5656 0.0
C2870 C 0.40757 0.79483 0.54905 0.0
C2871 C 0.40963 0.81423 0.56868 0.0
H2872 H 0.3394 0.78817 0.45373 0.0
H2873 H 0.42071 0.81021 0.58651 0.0
H2874 H 0.43957 0.76284 0.58844 0.0
H2875 H 0.38227 0.62178 0.54503 0.0
H2876 H 0.41542 0.77593 0.55318 0.0
H2877 H 0.39802 0.8533 0.58099 0.0
H2878 H 0.36766 0.66818 0.54416 0.0
H2879 H 0.31092 0.82765 0.4473 0.0
H2880 H 0.36656 0.88137 0.55515 0.0
H2881 H 0.33634 0.88608 0.51749 0.0
H2882 H 0.48223 0.75404 0.61064 0.0
H2883 H 0.31524 0.86609 0.47743 0.0
H2884 H 0.42817 0.61064 0.55788 0.0
N2885 N 0.43661 0.72391 0.5722 0.0
C2886 C 0.44616 0.69865 0.57274 0.0
C2887 C 0.47249 0.7384 0.59969 0.0
C2888 C 0.4707 0.69286 0.58473 0.0
C2889 C 0.44833 0.74332 0.5871 0.0
C2890 C 0.48419 0.71331 0.59769 0.0
N2891 N 0.40529 0.68403 0.55495 0.0
C2892 C 0.38788 0.66399 0.54938 0.0
C2893 C 0.43916 0.65161 0.56487 0.0
C2894 C 0.43018 0.67816 0.56355 0.0
C2895 C 0.42194 0.63125 0.55731 0.0
C2896 C 0.39602 0.63745 0.5501 0.0
H2897 H 0.50301 0.70963 0.60726 0.0
H2898 H 0.49948 0.66197 0.59302 0.0
H2899 H 0.47209 0.6259 0.57508 0.0
O2900 O 0.39376 0.72165 0.58755 0.0
O2901 O 0.41192 0.70374 0.51381 0.0
O2902 O 0.42257 0.73689 0.48475 0.0
O2903 O 0.37367 0.75639 0.57112 0.0
O2904 O 0.37079 0.70703 0.51878 0.0
O2905 O 0.37047 0.73035 0.47948 0.0
O2906 O 0.4018 0.8004 0.45937 0.0
O2907 O 0.34618 0.76356 0.50171 0.0
O2908 O 0.34964 0.73737 0.53855 0.0
O2909 O 0.39246 0.76055 0.44741 0.0
O2910 O 0.43909 0.77444 0.49956 0.0
O2911 O 0.44263 0.74712 0.53524 0.0
C2912 C 0.42311 0.71187 0.49213 0.0
C2913 C 0.35067 0.72838 0.60156 0.0
C2914 C 0.32319 0.68913 0.60782 0.0
C2915 C 0.30644 0.70378 0.62446 0.0
C2916 C 0.33399 0.74293 0.61829 0.0
C2917 C 0.3118 0.73063 0.62956 0.0
C2918 C 0.34476 0.70163 0.5962 0.0
C2919 C 0.36406 0.70931 0.49374 0.0
C2920 C 0.37541 0.73961 0.59098 0.0
C2921 C 0.48035 0.66668 0.58452 0.0
C2922 C 0.4647 0.64612 0.5744 0.0
C2923 C 0.33355 0.75069 0.52123 0.0
C2924 C 0.38548 0.79362 0.41522 0.0
C2925 C 0.39031 0.81629 0.37291 0.0
C2926 C 0.36575 0.80608 0.36485 0.0
C2927 C 0.3618 0.78218 0.40603 0.0
C2928 C 0.39937 0.81096 0.39866 0.0
C2929 C 0.35155 0.78921 0.38145 0.0
C2930 C 0.45519 0.76299 0.51777 0.0
C2931 C 0.39849 0.78426 0.43962 0.0
H2932 H 0.28971 0.69431 0.63396 0.0
H2933 H 0.33834 0.76347 0.62294 0.0
H2934 H 0.29904 0.74178 0.6427 0.0
H2935 H 0.35753 0.68999 0.58369 0.0
H2936 H 0.35832 0.80971 0.34516 0.0
H2937 H 0.35158 0.76714 0.41735 0.0
H2938 H 0.41822 0.81888 0.4052 0.0
H2939 H 0.33321 0.78044 0.37467 0.0
Eu2940 Eu 0.81459 0.50246 0.90133 0.0
C2941 C 0.70904 0.51483 0.86312 0.0
N2942 N 0.72501 0.5361 0.85965 0.0
C2943 C 0.69978 0.54965 0.82185 0.0
C2944 C 0.6872 0.51048 0.84625 0.0
C2945 C 0.72116 0.55302 0.83897 0.0
C2946 C 0.68247 0.52846 0.82572 0.0
C2947 C 0.69938 0.47386 0.88608 0.0
C2948 C 0.71517 0.49684 0.88288 0.0
C2949 C 0.67717 0.46989 0.86989 0.0
C2950 C 0.67109 0.48816 0.85004 0.0
Eu2951 Eu 0.75847 0.5433 0.89137 0.0
N2952 N 0.73708 0.50108 0.89808 0.0
C2953 C 0.70665 0.45516 0.90505 0.0
C2954 C 0.74461 0.48204 0.9158 0.0
C2955 C 0.72957 0.4591 0.91969 0.0
H2956 H 0.73502 0.56874 0.83545 0.0
H2957 H 0.73597 0.44424 0.93374 0.0
H2958 H 0.80557 0.4653 0.9574 0.0
H2959 H 0.90939 0.50426 0.8482 0.0
H2960 H 0.76295 0.4833 0.92603 0.0
H2961 H 0.69513 0.43725 0.90801 0.0
H2962 H 0.8608 0.50109 0.85223 0.0
H2963 H 0.69677 0.56329 0.80563 0.0
H2964 H 0.66484 0.45245 0.87225 0.0
H2965 H 0.65416 0.48459 0.8374 0.0
H2966 H 0.83039 0.45496 0.9979 0.0
H2967 H 0.6659 0.52581 0.81241 0.0
H2968 H 0.93747 0.50329 0.88815 0.0
N2969 N 0.83797 0.48497 0.93864 0.0
C2970 C 0.86436 0.48923 0.93923 0.0
C2971 C 0.84016 0.465 0.98174 0.0
C2972 C 0.87952 0.48321 0.96182 0.0
C2973 C 0.82614 0.47111 0.95878 0.0
C2974 C 0.86685 0.47182 0.9836 0.0
N2975 N 0.8612 0.49883 0.89417 0.0
C2976 C 0.8728 0.50037 0.86985 0.0
C2977 C 0.90432 0.49814 0.9147 0.0
C2978 C 0.87649 0.4964 0.91604 0.0
C2979 C 0.91615 0.50186 0.89005 0.0
C2980 C 0.90036 0.50228 0.86746 0.0
H2981 H 0.87778 0.46689 1.00132 0.0
H2982 H 0.91895 0.48339 0.97864 0.0
H2983 H 0.94078 0.49662 0.93726 0.0
O2984 O 0.81986 0.46034 0.90511 0.0
O2985 O 0.82343 0.544 0.91913 0.0
O2986 O 0.78139 0.55898 0.9253 0.0
O2987 O 0.78662 0.47503 0.88188 0.0
O2988 O 0.82867 0.53271 0.87253 0.0
O2989 O 0.79549 0.56402 0.87351 0.0
O2990 O 0.72102 0.56687 0.89484 0.0
O2991 O 0.77017 0.52922 0.84718 0.0
O2992 O 0.8082 0.50473 0.85218 0.0
O2993 O 0.75904 0.58584 0.89083 0.0
O2994 O 0.75621 0.53307 0.93959 0.0
O2995 O 0.79492 0.5104 0.94525 0.0
C2996 C 0.80681 0.56254 0.92732 0.0
C2997 C 0.81025 0.4353 0.86831 0.0
C2998 C 0.84798 0.41537 0.84449 0.0
C2999 C 0.83249 0.39233 0.84082 0.0
C3000 C 0.79531 0.41244 0.86364 0.0
C3001 C 0.80637 0.39113 0.84988 0.0
C3002 C 0.83636 0.43687 0.85814 0.0
C3003 C 0.82024 0.557 0.86848 0.0
C3004 C 0.80114 0.45433 0.88859 0.0
C3005 C 0.907 0.48728 0.96133 0.0
C3006 C 0.91942 0.49477 0.93775 0.0
C3007 C 0.78945 0.51506 0.83531 0.0
C3008 C 0.72334 0.613 0.88015 0.0
C3009 C 0.70865 0.65831 0.88889 0.0
C3010 C 0.71738 0.66603 0.86373 0.0
C3011 C 0.7334 0.62146 0.85566 0.0
C3012 C 0.70995 0.63131 0.89602 0.0
C3013 C 0.72931 0.64749 0.84705 0.0
C3014 C 0.77322 0.52097 0.95697 0.0
C3015 C 0.73386 0.58925 0.89344 0.0
H3016 H 0.8406 0.37483 0.83137 0.0
H3017 H 0.77557 0.41052 0.87181 0.0
H3018 H 0.79494 0.3732 0.84695 0.0
H3019 H 0.84788 0.45447 0.86179 0.0
H3020 H 0.71668 0.68662 0.85759 0.0
H3021 H 0.74619 0.60888 0.84404 0.0
H3022 H 0.70312 0.62503 0.9153 0.0
H3023 H 0.73727 0.65383 0.82825 0.0
Eu3024 Eu 0.72363 0.49649 0.14241 0.0
C3025 C 0.82997 0.53198 0.17973 0.0
N3026 N 0.81087 0.55076 0.1813 0.0
C3027 C 0.83358 0.57158 0.21732 0.0
C3028 C 0.85198 0.53232 0.19684 0.0
C3029 C 0.81209 0.57018 0.20001 0.0
C3030 C 0.85381 0.5527 0.21555 0.0
C3031 C 0.84465 0.49015 0.16146 0.0
C3032 C 0.82631 0.51136 0.1623 0.0
C3033 C 0.86726 0.49084 0.17759 0.0
C3034 C 0.87091 0.51191 0.19529 0.0
Eu3035 Eu 0.77617 0.54957 0.15001 0.0
N3036 N 0.80374 0.51101 0.14773 0.0
C3037 C 0.83914 0.46839 0.14525 0.0
C3038 C 0.79748 0.4889 0.13365 0.0
C3039 C 0.81518 0.46757 0.13163 0.0
H3040 H 0.79581 0.5838 0.20219 0.0
H3041 H 0.81009 0.4503 0.11999 0.0
H3042 H 0.75907 0.44938 0.10903 0.0
H3043 H 0.61584 0.50759 0.14329 0.0
H3044 H 0.77861 0.48721 0.12476 0.0
H3045 H 0.85266 0.45169 0.144 0.0
H3046 H 0.66074 0.50858 0.16281 0.0
H3047 H 0.83435 0.58698 0.23221 0.0
H3048 H 0.8816 0.4748 0.17711 0.0
H3049 H 0.88803 0.51185 0.20816 0.0
H3050 H 0.75454 0.42403 0.06742 0.0
H3051 H 0.8703 0.5536 0.22917 0.0
H3052 H 0.60937 0.48929 0.09848 0.0
N3053 N 0.7218 0.46869 0.10496 0.0
C3054 C 0.69785 0.46867 0.09256 0.0
C3055 C 0.73864 0.43683 0.07407 0.0
C3056 C 0.6943 0.45434 0.06893 0.0
C3057 C 0.74122 0.45126 0.09749 0.0
C3058 C 0.71543 0.43912 0.05925 0.0
N3059 N 0.67927 0.49219 0.12899 0.0
C3060 C 0.658 0.50086 0.14321 0.0
C3061 C 0.65082 0.47953 0.09305 0.0
C3062 C 0.6761 0.48087 0.10476 0.0
C3063 C 0.62909 0.4899 0.10687 0.0
C3064 C 0.63264 0.50019 0.13222 0.0
H3065 H 0.71354 0.42808 0.04103 0.0
H3066 H 0.66656 0.44397 0.03802 0.0
H3067 H 0.62863 0.46625 0.05897 0.0
O3068 O 0.70151 0.46129 0.15147 0.0
O3069 O 0.70024 0.53087 0.12386 0.0
O3070 O 0.74006 0.53827 0.13051 0.0
O3071 O 0.74236 0.46424 0.16526 0.0
O3072 O 0.70668 0.52904 0.16966 0.0
O3073 O 0.73813 0.56329 0.17136 0.0
O3074 O 0.80326 0.57815 0.13135 0.0
O3075 O 0.77143 0.53372 0.19414 0.0
O3076 O 0.73735 0.50338 0.1898 0.0
O3077 O 0.7697 0.5919 0.15426 0.0
O3078 O 0.77519 0.53915 0.1021 0.0
O3079 O 0.74623 0.50341 0.09854 0.0
C3080 C 0.71844 0.5484 0.12065 0.0
C3081 C 0.70922 0.44332 0.19322 0.0
C3082 C 0.67075 0.43146 0.22063 0.0
C3083 C 0.68752 0.43019 0.24272 0.0
C3084 C 0.72555 0.44173 0.21553 0.0
C3085 C 0.71469 0.4352 0.24011 0.0
C3086 C 0.68193 0.43789 0.19604 0.0
C3087 C 0.7143 0.55333 0.17681 0.0
C3088 C 0.71959 0.45142 0.16697 0.0
C3089 C 0.66948 0.45449 0.05644 0.0
C3090 C 0.64784 0.46711 0.06843 0.0
C3091 C 0.75492 0.51661 0.20603 0.0
C3092 C 0.80513 0.62208 0.14943 0.0
C3093 C 0.82964 0.66115 0.13587 0.0
C3094 C 0.82764 0.67149 0.16152 0.0
C3095 C 0.80184 0.63332 0.17464 0.0
C3096 C 0.81922 0.63602 0.13031 0.0
C3097 C 0.81388 0.65746 0.18087 0.0
C3098 C 0.76261 0.52109 0.08608 0.0
C3099 C 0.79042 0.59859 0.1407 0.0
H3100 H 0.67973 0.42505 0.26195 0.0
H3101 H 0.74655 0.44577 0.21406 0.0
H3102 H 0.72738 0.43411 0.25727 0.0
H3103 H 0.66907 0.43941 0.17903 0.0
H3104 H 0.83579 0.6908 0.16627 0.0
H3105 H 0.78914 0.62429 0.18919 0.0
H3106 H 0.82005 0.62825 0.11035 0.0
H3107 H 0.81146 0.66592 0.20036 0.0
Eu3108 Eu 0.79241 0.4705 0.3898 0.0
C3109 C 0.75365 0.57002 0.43615 0.0
N3110 N 0.7354 0.5504 0.43533 0.0
C3111 C 0.71479 0.56738 0.47454 0.0
C3112 C 0.75307 0.58944 0.45625 0.0
C3113 C 0.7162 0.54865 0.45422 0.0
C3114 C 0.73321 0.58801 0.47547 0.0
C3115 C 0.79325 0.58989 0.41805 0.0
C3116 C 0.7734 0.57014 0.41729 0.0
C3117 C 0.79247 0.60964 0.43763 0.0
C3118 C 0.77241 0.60943 0.4567 0.0
Eu3119 Eu 0.73689 0.52075 0.39921 0.0
N3120 N 0.77362 0.55065 0.39866 0.0
C3121 C 0.81351 0.58904 0.3993 0.0
C3122 C 0.79372 0.54962 0.38073 0.0
C3123 C 0.81384 0.56867 0.3807 0.0
H3124 H 0.70215 0.53247 0.45364 0.0
H3125 H 0.82965 0.56756 0.36632 0.0
H3126 H 0.82967 0.48594 0.33633 0.0
H3127 H 0.79286 0.37496 0.44219 0.0
H3128 H 0.79486 0.53408 0.36661 0.0
H3129 H 0.82913 0.60377 0.39924 0.0
H3130 H 0.79042 0.42374 0.43868 0.0
H3131 H 0.69952 0.5659 0.48944 0.0
H3132 H 0.80746 0.625 0.43837 0.0
H3133 H 0.77221 0.62461 0.47186 0.0
H3134 H 0.84805 0.463 0.29743 0.0
H3135 H 0.7321 0.60253 0.49122 0.0
H3136 H 0.80514 0.34792 0.40328 0.0
N3137 N 0.81687 0.45028 0.35507 0.0
C3138 C 0.81746 0.42341 0.35469 0.0
C3139 C 0.8393 0.45159 0.31328 0.0
C3140 C 0.82798 0.40942 0.33295 0.0
C3141 C 0.82859 0.46451 0.33526 0.0
C3142 C 0.83854 0.4239 0.31187 0.0
N3143 N 0.80047 0.42449 0.39786 0.0
C3144 C 0.79575 0.41226 0.42147 0.0
C3145 C 0.81066 0.38209 0.37797 0.0
C3146 C 0.80893 0.41003 0.37685 0.0
C3147 C 0.80411 0.36936 0.40159 0.0
C3148 C 0.79719 0.38456 0.42359 0.0
H3149 H 0.84685 0.41392 0.29482 0.0
H3150 H 0.83574 0.37038 0.3166 0.0
H3151 H 0.82051 0.34636 0.35608 0.0
O3152 O 0.83524 0.47063 0.39051 0.0
O3153 O 0.76454 0.45091 0.36114 0.0
O3154 O 0.74938 0.48523 0.37915 0.0
O3155 O 0.81389 0.50207 0.41095 0.0
O3156 O 0.75877 0.45209 0.4149 0.0
O3157 O 0.72206 0.48063 0.41432 0.0
O3158 O 0.71162 0.5483 0.37714 0.0
O3159 O 0.75255 0.51023 0.44356 0.0
O3160 O 0.78225 0.4752 0.43818 0.0
O3161 O 0.69376 0.51942 0.40302 0.0
O3162 O 0.74614 0.52036 0.35121 0.0
O3163 O 0.78384 0.49414 0.3465 0.0
C3164 C 0.74395 0.46558 0.36327 0.0
C3165 C 0.84745 0.4774 0.43413 0.0
C3166 C 0.8551 0.43832 0.46219 0.0
C3167 C 0.86209 0.45539 0.48297 0.0
C3168 C 0.85462 0.49404 0.45504 0.0
C3169 C 0.86237 0.48301 0.47921 0.0
C3170 C 0.84895 0.4495 0.4377 0.0
C3171 C 0.73313 0.45708 0.41867 0.0
C3172 C 0.836 0.48813 0.40936 0.0
C3173 C 0.82821 0.38153 0.3333 0.0
C3174 C 0.81954 0.36787 0.35578 0.0
C3175 C 0.76849 0.49181 0.45509 0.0
C3176 C 0.66724 0.55652 0.39046 0.0
C3177 C 0.62988 0.58051 0.37182 0.0
C3178 C 0.62338 0.59014 0.39696 0.0
C3179 C 0.66016 0.56577 0.41562 0.0
C3180 C 0.65185 0.56382 0.3686 0.0
C3181 C 0.63844 0.58269 0.41879 0.0
C3182 C 0.76444 0.50911 0.33457 0.0
C3183 C 0.68967 0.53839 0.38615 0.0
H3184 H 0.86741 0.44737 0.50207 0.0
H3185 H 0.85385 0.51544 0.45282 0.0
H3186 H 0.86797 0.49593 0.49532 0.0
H3187 H 0.84433 0.43618 0.42168 0.0
H3188 H 0.60637 0.60302 0.39972 0.0
H3189 H 0.671 0.55983 0.43284 0.0
H3190 H 0.65677 0.55632 0.34914 0.0
H3191 H 0.63311 0.58979 0.43823 0.0
Eu3192 Eu 0.75876 0.46326 0.65236 0.0
C3193 C 0.78358 0.56355 0.60138 0.0
N3194 N 0.80374 0.54576 0.60149 0.0
C3195 C 0.82019 0.56327 0.56062 0.0
C3196 C 0.78089 0.58206 0.58065 0.0
C3197 C 0.82207 0.54532 0.58157 0.0
C3198 C 0.79959 0.58184 0.56023 0.0
C3199 C 0.74342 0.58028 0.62155 0.0
C3200 C 0.76519 0.56262 0.62165 0.0
C3201 C 0.74084 0.59905 0.60119 0.0
C3202 C 0.75956 0.59996 0.58082 0.0
Eu3203 Eu 0.80737 0.51785 0.63879 0.0
N3204 N 0.76824 0.54419 0.64109 0.0
C3205 C 0.72472 0.57841 0.64179 0.0
C3206 C 0.74986 0.54227 0.6607 0.0
C3207 C 0.72788 0.55921 0.66134 0.0
H3208 H 0.8382 0.53117 0.58215 0.0
H3209 H 0.71334 0.55737 0.67692 0.0
H3210 H 0.71963 0.48362 0.70304 0.0
H3211 H 0.76462 0.36202 0.6131 0.0
H3212 H 0.7515 0.5274 0.6756 0.0
H3213 H 0.70767 0.59151 0.64236 0.0
H3214 H 0.76246 0.41092 0.6099 0.0
H3215 H 0.83473 0.56293 0.54494 0.0
H3216 H 0.72432 0.61282 0.60091 0.0
H3217 H 0.7572 0.61442 0.56515 0.0
H3218 H 0.70131 0.46485 0.74421 0.0
H3219 H 0.7982 0.59577 0.54401 0.0
H3220 H 0.75468 0.33979 0.65544 0.0
N3221 N 0.73589 0.4468 0.68994 0.0
C3222 C 0.73702 0.42023 0.69378 0.0
C3223 C 0.71161 0.4521 0.73037 0.0
C3224 C 0.72689 0.40861 0.71698 0.0
C3225 C 0.7221 0.46265 0.70712 0.0
C3226 C 0.71457 0.42503 0.73565 0.0
N3227 N 0.75329 0.41646 0.65041 0.0
C3228 C 0.75881 0.40152 0.62863 0.0
C3229 C 0.74649 0.37662 0.67599 0.0
C3230 C 0.74626 0.40451 0.67339 0.0
C3231 C 0.75405 0.36128 0.65423 0.0
C3232 C 0.75968 0.37377 0.63029 0.0
H3233 H 0.70642 0.41687 0.75367 0.0
H3234 H 0.72129 0.37167 0.73818 0.0
H3235 H 0.73885 0.34361 0.70238 0.0
O3236 O 0.71641 0.45859 0.65155 0.0
O3237 O 0.79518 0.44391 0.67305 0.0
O3238 O 0.80005 0.48223 0.65988 0.0
O3239 O 0.734 0.49389 0.63356 0.0
O3240 O 0.7889 0.44903 0.6222 0.0
O3241 O 0.82427 0.47912 0.61991 0.0
O3242 O 0.83024 0.55041 0.65547 0.0
O3243 O 0.78905 0.50736 0.59602 0.0
O3244 O 0.76284 0.47013 0.60265 0.0
O3245 O 0.85032 0.51917 0.63389 0.0
O3246 O 0.8004 0.51777 0.68787 0.0
O3247 O 0.76788 0.48626 0.69504 0.0
C3248 C 0.81217 0.46283 0.67159 0.0
C3249 C 0.70065 0.46933 0.61005 0.0
C3250 C 0.68984 0.43271 0.58018 0.0
C3251 C 0.67665 0.45072 0.56361 0.0
C3252 C 0.68723 0.48707 0.59349 0.0
C3253 C 0.67529 0.47773 0.57033 0.0
C3254 C 0.70181 0.44217 0.60308 0.0
C3255 C 0.81287 0.45591 0.61409 0.0
C3256 C 0.71318 0.47809 0.63491 0.0
C3257 C 0.72847 0.38095 0.72028 0.0
C3258 C 0.73841 0.36499 0.69987 0.0
C3259 C 0.77382 0.48833 0.58511 0.0
C3260 C 0.871 0.5611 0.63545 0.0
C3261 C 0.91244 0.58396 0.64132 0.0
C3262 C 0.90634 0.60114 0.62046 0.0
C3263 C 0.86383 0.5797 0.6161 0.0
C3264 C 0.89569 0.56285 0.64736 0.0
C3265 C 0.8822 0.59845 0.60736 0.0
C3266 C 0.78498 0.50414 0.70578 0.0
C3267 C 0.85265 0.54162 0.6463 0.0
H3268 H 0.66703 0.44382 0.5458 0.0
H3269 H 0.68589 0.50795 0.59851 0.0
H3270 H 0.66479 0.49143 0.55763 0.0
H3271 H 0.71197 0.42802 0.61554 0.0
H3272 H 0.91908 0.61781 0.61588 0.0
H3273 H 0.84395 0.58081 0.60873 0.0
H3274 H 0.90045 0.54984 0.66378 0.0
H3275 H 0.87686 0.6122 0.59187 0.0
Eu3276 Eu 0.53677 0.13884 0.23785 0.0
C3277 C 0.4442 0.18979 0.31615 0.0
N3278 N 0.47053 0.18423 0.31512 0.0
C3279 C 0.47964 0.2222 0.34259 0.0
C3280 C 0.43475 0.2125 0.32966 0.0
C3281 C 0.4881 0.1995 0.32915 0.0
C3282 C 0.4529 0.22897 0.34252 0.0
C3283 C 0.39893 0.17655 0.30712 0.0
C3284 C 0.42644 0.17189 0.30517 0.0
C3285 C 0.3896 0.19973 0.31944 0.0
C3286 C 0.40746 0.21763 0.33071 0.0
Eu3287 Eu 0.48272 0.14542 0.29061 0.0
N3288 N 0.43595 0.1494 0.29357 0.0
C3289 C 0.3815 0.15747 0.29718 0.0
C3290 C 0.41892 0.1301 0.28513 0.0
C3291 C 0.39154 0.13401 0.28646 0.0
H3292 H 0.50891 0.19439 0.32964 0.0
H3293 H 0.37819 0.11879 0.27941 0.0
H3294 H 0.56397 0.08975 0.2029 0.0
H3295 H 0.56234 0.16968 0.33851 0.0
H3296 H 0.4262 0.11142 0.27762 0.0
H3297 H 0.36026 0.16034 0.29833 0.0
H3298 H 0.53358 0.16307 0.30021 0.0
H3299 H 0.49377 0.23438 0.35312 0.0
H3300 H 0.36855 0.20369 0.32091 0.0
H3301 H 0.39992 0.23508 0.34077 0.0
H3302 H 0.60381 0.06167 0.20287 0.0
H3303 H 0.44637 0.2465 0.35313 0.0
H3304 H 0.6068 0.14897 0.33924 0.0
N3305 N 0.57429 0.1105 0.23806 0.0
C3306 C 0.59183 0.11281 0.25799 0.0
C3307 C 0.60085 0.07616 0.21839 0.0
C3308 C 0.61492 0.097 0.25887 0.0
C3309 C 0.57833 0.09232 0.21841 0.0
C3310 C 0.61927 0.07854 0.23869 0.0
N3311 N 0.56193 0.14248 0.27761 0.0
C3312 C 0.55323 0.15571 0.29936 0.0
C3313 C 0.6025 0.13147 0.30049 0.0
C3314 C 0.58558 0.12961 0.2784 0.0
C3315 C 0.59444 0.14698 0.3219 0.0
C3316 C 0.56943 0.15875 0.32152 0.0
H3317 H 0.63629 0.06551 0.23896 0.0
H3318 H 0.65023 0.08758 0.28129 0.0
H3319 H 0.63953 0.11816 0.31769 0.0
O3320 O 0.55977 0.16093 0.20775 0.0
O3321 O 0.53006 0.09355 0.25152 0.0
O3322 O 0.4981 0.09852 0.28395 0.0
O3323 O 0.53547 0.12758 0.19702 0.0
O3324 O 0.53249 0.18685 0.24526 0.0
O3325 O 0.50364 0.1897 0.28092 0.0
O3326 O 0.46848 0.11672 0.31838 0.0
O3327 O 0.45951 0.16751 0.2595 0.0
O3328 O 0.49787 0.15612 0.24639 0.0
O3329 O 0.49766 0.1449 0.33183 0.0
O3330 O 0.46791 0.11772 0.25753 0.0
O3331 O 0.50126 0.1153 0.22559 0.0
C3332 C 0.51381 0.0818 0.26916 0.0
C3333 C 0.54363 0.15793 0.16315 0.0
C3334 C 0.55748 0.17898 0.12262 0.0
C3335 C 0.53228 0.17508 0.11177 0.0
C3336 C 0.51922 0.15189 0.15105 0.0
C3337 C 0.51315 0.1615 0.12605 0.0
C3338 C 0.56291 0.17135 0.14856 0.0
C3339 C 0.51901 0.20251 0.26274 0.0
C3340 C 0.55104 0.14605 0.18859 0.0
C3341 C 0.63235 0.09948 0.28027 0.0
C3342 C 0.62624 0.11687 0.30098 0.0
C3343 C 0.47601 0.16869 0.24018 0.0
C3344 C 0.45815 0.137 0.35819 0.0
C3345 C 0.41146 0.1331 0.37112 0.0
C3346 C 0.41374 0.15627 0.3863 0.0
C3347 C 0.46051 0.15955 0.37434 0.0
C3348 C 0.43369 0.12379 0.35746 0.0
C3349 C 0.4383 0.16921 0.38811 0.0
C3350 C 0.47751 0.1095 0.23463 0.0
C3351 C 0.47862 0.1286 0.33873 0.0
H3352 H 0.52805 0.18101 0.09167 0.0
H3353 H 0.50542 0.13839 0.15999 0.0
H3354 H 0.4942 0.15702 0.11714 0.0
H3355 H 0.58262 0.1741 0.15659 0.0
H3356 H 0.39694 0.1638 0.39732 0.0
H3357 H 0.47909 0.17013 0.37567 0.0
H3358 H 0.43154 0.10616 0.34534 0.0
H3359 H 0.44007 0.18693 0.40007 0.0
Eu3360 Eu 0.04209 0.89331 0.78553 0.0
C3361 C 0.97103 0.94577 0.70204 0.0
N3362 N 0.96792 0.93572 0.72677 0.0
C3363 C 0.93787 0.97108 0.73759 0.0
C3364 C 0.95961 0.9704 0.69512 0.0
C3365 C 0.94957 0.9466 0.74354 0.0
C3366 C 0.94368 0.9835 0.71365 0.0
C3367 C 0.98523 0.93942 0.65666 0.0
C3368 C 0.98333 0.93015 0.68282 0.0
C3369 C 0.9761 0.96504 0.65041 0.0
C3370 C 0.96323 0.98045 0.66956 0.0
Eu3371 Eu 0.99307 0.89666 0.73494 0.0
N3372 N 0.99149 0.90514 0.68924 0.0
C3373 C 0.99538 0.9223 0.63735 0.0
C3374 C 0.99992 0.88784 0.67024 0.0
C3375 C 1.00222 0.89625 0.64407 0.0
H3376 H 0.94474 0.937 0.7619 0.0
H3377 H 1.00941 0.88268 0.62912 0.0
H3378 H 0.07082 0.83853 0.80954 0.0
H3379 H 0.94 0.92421 0.80861 0.0
H3380 H 1.0053 0.86769 0.67527 0.0
H3381 H 0.9972 0.92872 0.61704 0.0
H3382 H 0.97855 0.91603 0.77998 0.0
H3383 H 0.92441 0.98035 0.75144 0.0
H3384 H 0.97787 0.97268 0.63051 0.0
H3385 H 0.95515 0.99963 0.66409 0.0
H3386 H 0.07222 0.81305 0.85122 0.0
H3387 H 0.93459 1.00246 0.7091 0.0
H3388 H 0.9398 0.90626 0.85391 0.0
N3389 N 0.0405 0.86443 0.82224 0.0
C3390 C 0.02106 0.86866 0.84007 0.0
C3391 C 0.0581 0.82905 0.8487 0.0
C3392 C 0.02 0.85387 0.8637 0.0
C3393 C 0.05802 0.84406 0.82553 0.0
C3394 C 0.03934 0.83442 0.86822 0.0
N3395 N 1.00144 0.89768 0.80916 0.0
C3396 C 0.97946 0.91013 0.79995 0.0
C3397 C 0.97878 0.8887 0.85027 0.0
C3398 C 1.00083 0.88588 0.83334 0.0
C3399 C 0.95717 0.90367 0.8416 0.0
C3400 C 0.95726 0.91391 0.81607 0.0
H3401 H 0.03916 0.82257 0.88605 0.0
H3402 H 0.99797 0.84706 0.89972 0.0
H3403 H 0.96175 0.87758 0.88795 0.0
O3404 O 0.06765 0.90426 0.81949 0.0
O3405 O 0.02912 0.84728 0.77963 0.0
O3406 O 0.99822 0.84914 0.74659 0.0
O3407 O 0.08471 0.89469 0.78177 0.0
O3408 O 0.03185 0.94056 0.78421 0.0
O3409 O 1.00088 0.94196 0.75149 0.0
O3410 O 0.95632 0.89005 0.71483 0.0
O3411 O 0.02974 0.90927 0.71453 0.0
O3412 O 0.05379 0.92077 0.75129 0.0
O3413 O 0.96154 0.87359 0.7545 0.0
O3414 O 0.02659 0.8712 0.71822 0.0
O3415 O 0.05602 0.86654 0.75305 0.0
C3416 C 1.01225 0.8339 0.76391 0.0
C3417 C 0.11407 0.8925 0.81748 0.0
C3418 C 0.15866 0.90339 0.83201 0.0
C3419 C 0.16513 0.87621 0.83206 0.0
C3420 C 0.12183 0.86573 0.81532 0.0
C3421 C 0.14676 0.8575 0.82374 0.0
C3422 C 0.1327 0.91132 0.82595 0.0
C3423 C 1.01609 0.9556 0.76865 0.0
C3424 C 0.0893 0.90228 0.80568 0.0
C3425 C 0.999 0.85801 0.88135 0.0
C3426 C 0.9784 0.8754 0.87464 0.0
C3427 C 0.04974 0.92129 0.72558 0.0
C3428 C 0.9386 0.84779 0.72132 0.0
C3429 C 0.93351 0.81855 0.68282 0.0
C3430 C 0.9184 0.80116 0.69848 0.0
C3431 C 0.92349 0.83018 0.73644 0.0
C3432 C 0.94376 0.84159 0.69458 0.0
C3433 C 0.91359 0.80691 0.72507 0.0
C3434 C 0.04877 0.86196 0.72865 0.0
C3435 C 0.94748 0.87348 0.7325 0.0
H3436 H 0.18485 0.8696 0.83733 0.0
H3437 H 0.10961 0.85135 0.80565 0.0
H3438 H 0.15237 0.83677 0.82238 0.0
H3439 H 0.12768 0.93228 0.8256 0.0
H3440 H 0.90973 0.78342 0.69006 0.0
H3441 H 0.91904 0.8346 0.75688 0.0
H3442 H 0.95555 0.85485 0.68262 0.0
H3443 H 0.9017 0.79349 0.73679 0.0
Eu3444 Eu 0.51839 0.8939 0.30235 0.0
C3445 C 0.4517 0.83934 0.21895 0.0
N3446 N 0.47629 0.85048 0.2182 0.0
C3447 C 0.49132 0.81611 0.18899 0.0
C3448 C 0.44693 0.81459 0.20682 0.0
C3449 C 0.49527 0.84052 0.20157 0.0
C3450 C 0.46741 0.80262 0.19243 0.0
C3451 C 0.40465 0.84357 0.22859 0.0
C3452 C 0.43055 0.85405 0.22925 0.0
C3453 C 0.40049 0.81771 0.21906 0.0
C3454 C 0.42153 0.80333 0.20804 0.0
Eu3455 Eu 0.48041 0.88973 0.24382 0.0
N3456 N 0.43494 0.87942 0.23768 0.0
C3457 C 0.3835 0.85978 0.23641 0.0
C3458 C 0.41407 0.89601 0.24293 0.0
C3459 C 0.38817 0.8863 0.24293 0.0
H3460 H 0.51386 0.85076 0.19913 0.0
H3461 H 0.37181 0.89933 0.24787 0.0
H3462 H 0.5393 0.94276 0.34143 0.0
H3463 H 0.55652 0.87318 0.20201 0.0
H3464 H 0.41718 0.9167 0.24723 0.0
H3465 H 0.36336 0.85239 0.23628 0.0
H3466 H 0.52264 0.87771 0.23594 0.0
H3467 H 0.50679 0.8076 0.17683 0.0
H3468 H 0.3808 0.80918 0.21888 0.0
H3469 H 0.41769 0.78401 0.19943 0.0
H3470 H 0.58023 0.96822 0.35018 0.0
H3471 H 0.46448 0.78367 0.18272 0.0
H3472 H 0.60137 0.89061 0.21011 0.0
N3473 N 0.55521 0.9222 0.30862 0.0
C3474 C 0.57557 0.92008 0.29142 0.0
C3475 C 0.57934 0.95454 0.33373 0.0
C3476 C 0.59918 0.93459 0.29518 0.0
C3477 C 0.55634 0.93987 0.329 0.0
C3478 C 0.60105 0.95158 0.31694 0.0
N3479 N 0.54781 0.89346 0.26502 0.0
C3480 C 0.54213 0.88328 0.24082 0.0
C3481 C 0.5919 0.90429 0.24946 0.0
C3482 C 0.57185 0.90509 0.26894 0.0
C3483 C 0.58661 0.89157 0.2256 0.0
C3484 C 0.56137 0.88159 0.22104 0.0
H3485 H 0.6188 0.96312 0.32046 0.0
H3486 H 0.63809 0.94323 0.27934 0.0
H3487 H 0.63171 0.91665 0.23917 0.0
O3488 O 0.54694 0.8825 0.33342 0.0
O3489 O 0.5122 0.94001 0.29285 0.0
O3490 O 0.49646 0.93637 0.25068 0.0
O3491 O 0.50635 0.89166 0.34314 0.0
O3492 O 0.52253 0.84664 0.2909 0.0
O3493 O 0.49884 0.84493 0.25274 0.0
O3494 O 0.465 0.89348 0.20443 0.0
O3495 O 0.45368 0.87667 0.27694 0.0
O3496 O 0.48685 0.86235 0.30379 0.0
O3497 O 0.50031 0.9156 0.21457 0.0
O3498 O 0.45775 0.91791 0.27028 0.0
O3499 O 0.47949 0.91668 0.31034 0.0
C3500 C 0.50547 0.95254 0.27056 0.0
C3501 C 0.53719 0.89755 0.37729 0.0
C3502 C 0.55847 0.89137 0.41985 0.0
C3503 C 0.54637 0.91479 0.42908 0.0
C3504 C 0.52446 0.92044 0.38708 0.0
C3505 C 0.52964 0.92935 0.41261 0.0
C3506 C 0.55459 0.88358 0.39356 0.0
C3507 C 0.51281 0.8314 0.27103 0.0
C3508 C 0.52949 0.88529 0.35213 0.0
C3509 C 0.61972 0.93249 0.27665 0.0
C3510 C 0.61608 0.91733 0.25382 0.0
C3511 C 0.46176 0.86355 0.29763 0.0
C3512 C 0.46676 0.93678 0.18825 0.0
C3513 C 0.42479 0.96001 0.18002 0.0
C3514 C 0.43921 0.98151 0.16956 0.0
C3515 C 0.4807 0.95837 0.17781 0.0
C3516 C 0.43887 0.93796 0.18935 0.0
C3517 C 0.46693 0.98066 0.16857 0.0
C3518 C 0.45943 0.92436 0.29538 0.0
C3519 C 0.48069 0.91274 0.19784 0.0
H3520 H 0.54884 0.9212 0.44931 0.0
H3521 H 0.51007 0.93109 0.37528 0.0
H3522 H 0.5198 0.94697 0.42002 0.0
H3523 H 0.56399 0.8657 0.38608 0.0
H3524 H 0.42913 0.99882 0.16176 0.0
H3525 H 0.50212 0.95797 0.17673 0.0
H3526 H 0.42788 0.92162 0.19766 0.0
H3527 H 0.47776 0.99729 0.16043 0.0
Eu3528 Eu 0.89198 0.7854 0.04176 0.0
C3529 C 0.94234 0.6856 0.97222 0.0
N3530 N 0.93677 0.71185 0.96907 0.0
C3531 C 0.97467 0.71688 0.94093 0.0
C3532 C 0.96544 0.6744 0.96114 0.0
C3533 C 0.95152 0.72706 0.95219 0.0
C3534 C 0.98204 0.69061 0.94597 0.0
C3535 C 0.92809 0.64183 0.98636 0.0
C3536 C 0.92357 0.66941 0.98433 0.0
C3537 C 0.95205 0.63098 0.97717 0.0
C3538 C 0.97063 0.64721 0.9645 0.0
Eu3539 Eu 0.89895 0.72755 0.99222 0.0
N3540 N 0.90031 0.68042 0.99271 0.0
C3541 C 0.90808 0.62582 0.99687 0.0
C3542 C 0.8802 0.66466 1.00155 0.0
C3543 C 0.88389 0.63722 1.00403 0.0
H3544 H 0.9457 0.74734 0.94803 0.0
H3545 H 0.86804 0.62485 1.01144 0.0
H3546 H 0.83896 0.80203 0.0763 0.0
H3547 H 0.92151 0.82035 0.94339 0.0
H3548 H 0.86119 0.67307 1.00664 0.0
H3549 H 0.91081 0.60454 0.99878 0.0
H3550 H 0.92009 0.78932 0.9805 0.0
H3551 H 0.98678 0.72926 0.92833 0.0
H3552 H 0.95601 0.60989 0.97895 0.0
H3553 H 0.98853 0.63836 0.95658 0.0
H3554 H 0.806 0.83863 0.07859 0.0
H3555 H 0.99993 0.68273 0.9371 0.0
H3556 H 0.89306 0.8604 0.94366 0.0
N3557 N 0.85826 0.81762 0.04265 0.0
C3558 C 0.85834 0.83617 0.0234 0.0
C3559 C 0.82076 0.83837 0.0631 0.0
C3560 C 0.83972 0.85712 0.02348 0.0
C3561 C 0.83958 0.81797 0.06205 0.0
C3562 C 0.82102 0.85825 0.04388 0.0
N3563 N 0.89273 0.81189 1.0029 0.0
C3564 C 0.90832 0.80688 0.98153 0.0
C3565 C 0.87572 0.85139 0.98165 0.0
C3566 C 0.87611 0.83324 1.00285 0.0
C3567 C 0.89273 0.84695 0.96034 0.0
C3568 C 0.90883 0.8244 0.96014 0.0
H3569 H 0.80636 0.87399 0.04463 0.0
H3570 H 0.82594 0.89212 1.00269 0.0
H3571 H 0.85751 0.88714 0.96602 0.0
O3572 O 0.9123 0.81577 0.06596 0.0
O3573 O 0.84705 0.7764 0.02671 0.0
O3574 O 0.85087 0.73889 0.99984 0.0
O3575 O 0.89185 0.78345 0.0846 0.0
O3576 O 0.93929 0.78238 0.03097 0.0
O3577 O 0.94153 0.75177 0.99693 0.0
O3578 O 0.89641 0.71141 0.95321 0.0
O3579 O 0.9225 0.7084 0.02535 0.0
O3580 O 0.91049 0.74715 0.03456 0.0
O3581 O 0.87624 0.74874 0.96124 0.0
O3582 O 0.87247 0.71442 0.0269 0.0
O3583 O 0.86912 0.74999 0.05695 0.0
C3584 C 0.83471 0.75749 1.01204 0.0
C3585 C 0.90255 0.81984 0.1123 0.0
C3586 C 0.92085 0.83827 0.15289 0.0
C3587 C 0.89515 0.8445 0.16144 0.0
C3588 C 0.87699 0.82589 0.12145 0.0
C3589 C 0.87337 0.8384 0.14573 0.0
C3590 C 0.92455 0.82617 0.12818 0.0
C3591 C 0.95455 0.76854 1.01352 0.0
C3592 C 0.90673 0.80406 0.08812 0.0
C3593 C 0.83995 0.87577 1.00292 0.0
C3594 C 0.85793 0.87292 0.98205 0.0
C3595 C 0.9231 0.72627 0.04338 0.0
C3596 C 0.85543 0.71534 0.93346 0.0
C3597 C 0.8306 0.67424 0.92525 0.0
C3598 C 0.81442 0.68825 0.90747 0.0
C3599 C 0.83921 0.72883 0.91554 0.0
C3600 C 0.85087 0.68796 0.93817 0.0
C3601 C 0.81875 0.71531 0.90268 0.0
C3602 C 0.86459 0.72515 0.04958 0.0
C3603 C 0.87898 0.7284 0.94502 0.0
H3604 H 0.89196 0.85377 0.18047 0.0
H3605 H 0.85974 0.8204 0.11037 0.0
H3606 H 0.85357 0.84288 0.15264 0.0
H3607 H 0.94436 0.82088 0.12177 0.0
H3608 H 0.79867 0.67817 0.89701 0.0
H3609 H 0.84268 0.74959 0.91113 0.0
H3610 H 0.86328 0.67699 0.95167 0.0
H3611 H 0.80638 0.72577 0.88868 0.0
Eu3612 Eu 0.64494 0.267 0.55319 0.0
C3613 C 0.59821 0.34484 0.45951 0.0
N3614 N 0.60378 0.3187 0.4633 0.0
C3615 C 0.56639 0.30682 0.43628 0.0
C3616 C 0.57569 0.35295 0.44507 0.0
C3617 C 0.5888 0.29974 0.45083 0.0
C3618 C 0.55951 0.33353 0.4338 0.0
C3619 C 0.61115 0.39091 0.46473 0.0
C3620 C 0.61596 0.36356 0.46866 0.0
C3621 C 0.58805 0.3991 0.45166 0.0
C3622 C 0.57046 0.38014 0.44166 0.0
Eu3623 Eu 0.64137 0.30883 0.49058 0.0
N3624 N 0.63836 0.35499 0.48082 0.0
C3625 C 0.62999 0.40918 0.4736 0.0
C3626 C 0.65787 0.37263 0.48705 0.0
C3627 C 0.65374 0.39996 0.48427 0.0
H3628 H 0.59385 0.2789 0.45253 0.0
H3629 H 0.66901 0.41386 0.49004 0.0
H3630 H 0.69378 0.25076 0.59387 0.0
H3631 H 0.62485 0.22256 0.45623 0.0
H3632 H 0.67668 0.36569 0.49402 0.0
H3633 H 0.62692 0.43036 0.47121 0.0
H3634 H 0.62698 0.25819 0.48905 0.0
H3635 H 0.55442 0.29164 0.42702 0.0
H3636 H 0.58396 0.42001 0.44858 0.0
H3637 H 0.55311 0.3867 0.43089 0.0
H3638 H 0.72214 0.21199 0.60452 0.0
H3639 H 0.54211 0.33898 0.42256 0.0
H3640 H 0.64651 0.17944 0.46548 0.0
N3641 N 0.67528 0.23215 0.56146 0.0
C3642 C 0.67474 0.21083 0.54523 0.0
C3643 C 0.70868 0.21124 0.58794 0.0
C3644 C 0.69103 0.18849 0.5499 0.0
C3645 C 0.69228 0.23293 0.58229 0.0
C3646 C 0.70785 0.18876 0.57181 0.0
N3647 N 0.64581 0.23521 0.5182 0.0
C3648 C 0.63462 0.23927 0.49415 0.0
C3649 C 0.66005 0.19152 0.50416 0.0
C3650 C 0.65943 0.21236 0.52283 0.0
C3651 C 0.6465 0.19488 0.48038 0.0
C3652 C 0.63419 0.21913 0.47513 0.0
H3653 H 0.72077 0.17207 0.576 0.0
H3654 H 0.70298 0.14979 0.53537 0.0
H3655 H 0.67573 0.15236 0.49524 0.0
O3656 O 0.62373 0.24292 0.58236 0.0
O3657 O 0.69114 0.27131 0.54171 0.0
O3658 O 0.68756 0.2949 0.50263 0.0
O3659 O 0.64171 0.28001 0.59397 0.0
O3660 O 0.59793 0.266 0.54033 0.0
O3661 O 0.59662 0.28852 0.50049 0.0
O3662 O 0.67257 0.31673 0.46295 0.0
O3663 O 0.6206 0.33854 0.51705 0.0
O3664 O 0.62756 0.3012 0.53412 0.0
O3665 O 0.64347 0.28765 0.45213 0.0
O3666 O 0.66926 0.32754 0.52155 0.0
O3667 O 0.66582 0.30628 0.56248 0.0
C3668 C 0.70362 0.28289 0.52112 0.0
C3669 C 0.6364 0.2474 0.62715 0.0
C3670 C 0.62314 0.22353 0.6665 0.0
C3671 C 0.6484 0.22747 0.6773 0.0
C3672 C 0.66107 0.25267 0.63889 0.0
C3673 C 0.66733 0.24192 0.66344 0.0
C3674 C 0.61747 0.23266 0.64109 0.0
C3675 C 0.58303 0.27543 0.51986 0.0
C3676 C 0.62882 0.2591 0.60172 0.0
C3677 C 0.69068 0.16713 0.53209 0.0
C3678 C 0.67517 0.16861 0.50926 0.0
C3679 C 0.61758 0.3248 0.53817 0.0
C3680 C 0.65627 0.32165 0.42077 0.0
C3681 C 0.66357 0.3672 0.40586 0.0
C3682 C 0.63849 0.36724 0.394 0.0
C3683 C 0.63229 0.32105 0.4068 0.0
C3684 C 0.67266 0.34398 0.41798 0.0
C3685 C 0.62349 0.34382 0.39343 0.0
C3686 C 0.67423 0.32599 0.54724 0.0
C3687 C 0.66168 0.304 0.44359 0.0
H3688 H 0.6531 0.22017 0.69685 0.0
H3689 H 0.67525 0.26569 0.62962 0.0
H3690 H 0.6865 0.24567 0.67219 0.0
H3691 H 0.5979 0.22963 0.63282 0.0
H3692 H 0.6308 0.38507 0.38481 0.0
H3693 H 0.6197 0.30373 0.4075 0.0
H3694 H 0.69156 0.34443 0.42816 0.0
H3695 H 0.60446 0.34367 0.38361 0.0
Eu3696 Eu 0.28499 0.48018 0.14653 0.0
C3697 C 0.19925 0.54738 0.08299 0.0
N3698 N 0.22197 0.54962 0.09744 0.0
C3699 C 0.23654 0.58567 0.0701 0.0
C3700 C 0.1957 0.5629 0.06004 0.0
C3701 C 0.23925 0.57002 0.09266 0.0
C3702 C 0.21506 0.5816 0.05332 0.0
C3703 C 0.15503 0.52894 0.07713 0.0
C3704 C 0.17876 0.53067 0.09178 0.0
C3705 C 0.15234 0.54323 0.05352 0.0
C3706 C 0.17253 0.56019 0.04507 0.0
Eu3707 Eu 0.22315 0.52154 0.13475 0.0
N3708 N 0.18127 0.51733 0.11511 0.0
C3709 C 0.13429 0.51339 0.08694 0.0
C3710 C 0.16072 0.50317 0.1252 0.0
C3711 C 0.13705 0.5007 0.11122 0.0
H3712 H 0.25518 0.57421 0.10611 0.0
H3713 H 0.12091 0.48912 0.11925 0.0
H3714 H 0.30817 0.45559 0.2029 0.0
H3715 H 0.30484 0.57909 0.1049 0.0
H3716 H 0.1626 0.49391 0.14396 0.0
H3717 H 0.11582 0.51159 0.07623 0.0
H3718 H 0.27928 0.53841 0.11302 0.0
H3719 H 0.25081 0.6011 0.06585 0.0
H3720 H 0.13432 0.54189 0.042 0.0
H3721 H 0.16969 0.57173 0.02725 0.0
H3722 H 0.34601 0.46173 0.2331 0.0
H3723 H 0.21295 0.59391 0.03592 0.0
H3724 H 0.3459 0.58713 0.1301 0.0
N3725 N 0.31857 0.48767 0.17811 0.0
C3726 C 0.33437 0.50905 0.17467 0.0
C3727 C 0.34324 0.47501 0.21654 0.0
C3728 C 0.35586 0.51394 0.19178 0.0
C3729 C 0.32213 0.47118 0.19915 0.0
C3730 C 0.36046 0.49629 0.21261 0.0
N3731 N 0.30609 0.52211 0.14002 0.0
C3732 C 0.29743 0.54103 0.12299 0.0
C3733 C 0.34302 0.55028 0.15188 0.0
C3734 C 0.32797 0.52685 0.15498 0.0
C3735 C 0.33493 0.5689 0.13312 0.0
C3736 C 0.3118 0.56441 0.11886 0.0
H3737 H 0.37673 0.49936 0.22619 0.0
H3738 H 0.38822 0.54064 0.20085 0.0
H3739 H 0.37696 0.57256 0.16586 0.0
O3740 O 0.32336 0.45939 0.14086 0.0
O3741 O 0.27485 0.50007 0.19005 0.0
O3742 O 0.23462 0.52172 0.18381 0.0
O3743 O 0.28633 0.43791 0.14269 0.0
O3744 O 0.2811 0.48966 0.09741 0.0
O3745 O 0.24461 0.51705 0.09147 0.0
O3746 O 0.19289 0.54472 0.15297 0.0
O3747 O 0.21167 0.4785 0.12454 0.0
O3748 O 0.25482 0.46908 0.11451 0.0
O3749 O 0.23475 0.56032 0.1502 0.0
O3750 O 0.23949 0.48963 0.15822 0.0
O3751 O 0.25709 0.45583 0.17325 0.0
C3752 C 0.25459 0.51401 0.20116 0.0
C3753 C 0.32292 0.41422 0.15674 0.0
C3754 C 0.33879 0.36988 0.14825 0.0
C3755 C 0.32794 0.36095 0.17213 0.0
C3756 C 0.31058 0.40496 0.17995 0.0
C3757 C 0.31449 0.37883 0.18838 0.0
C3758 C 0.33908 0.39708 0.14259 0.0
C3759 C 0.26475 0.50338 0.08002 0.0
C3760 C 0.31183 0.43627 0.14153 0.0
C3761 C 0.37153 0.53662 0.18804 0.0
C3762 C 0.36512 0.55477 0.16811 0.0
C3763 C 0.2298 0.46169 0.11533 0.0
C3764 C 0.20078 0.58853 0.17052 0.0
C3765 C 0.16459 0.61207 0.19114 0.0
C3766 C 0.17993 0.63523 0.19229 0.0
C3767 C 0.21634 0.61161 0.17157 0.0
C3768 C 0.17513 0.58891 0.18065 0.0
C3769 C 0.20586 0.63492 0.18254 0.0
C3770 C 0.23492 0.468 0.17168 0.0
C3771 C 0.20977 0.56438 0.15727 0.0
H3772 H 0.32779 0.34002 0.17709 0.0
H3773 H 0.29595 0.41676 0.19015 0.0
H3774 H 0.30472 0.37175 0.20603 0.0
H3775 H 0.34784 0.40402 0.12429 0.0
H3776 H 0.17194 0.65329 0.20082 0.0
H3777 H 0.23623 0.61176 0.16357 0.0
H3778 H 0.16287 0.57123 0.18 0.0
H3779 H 0.21776 0.65277 0.1833 0.0
Eu3780 Eu 0.29884 0.52697 0.89436 0.0
C3781 C 0.23002 0.42561 0.84569 0.0
N3782 N 0.22712 0.45225 0.84831 0.0
C3783 C 0.20251 0.45389 0.8078 0.0
C3784 C 0.2207 0.41224 0.82309 0.0
C3785 C 0.21211 0.46621 0.83057 0.0
C3786 C 0.20742 0.42689 0.8037 0.0
C3787 C 0.24173 0.38354 0.86566 0.0
C3788 C 0.24009 0.41149 0.86681 0.0
C3789 C 0.23452 0.37026 0.84236 0.0
C3790 C 0.22391 0.38458 0.82114 0.0
Eu3791 Eu 0.24889 0.47195 0.88503 0.0
N3792 N 0.24635 0.42497 0.88917 0.0
C3793 C 0.24962 0.36975 0.88828 0.0
C3794 C 0.25202 0.41148 0.9118 0.0
C3795 C 0.25416 0.38375 0.91163 0.0
H3796 H 0.2078 0.48702 0.83384 0.0
H3797 H 0.25922 0.37318 0.92951 0.0
H3798 H 0.33699 0.54252 0.94542 0.0
H3799 H 0.20024 0.56449 0.86804 0.0
H3800 H 0.25467 0.42205 0.93009 0.0
H3801 H 0.25125 0.34827 0.88821 0.0
H3802 H 0.23833 0.53434 0.86568 0.0
H3803 H 0.1913 0.46522 0.79349 0.0
H3804 H 0.23607 0.34883 0.84094 0.0
H3805 H 0.21738 0.374 0.80371 0.0
H3806 H 0.33866 0.57587 0.98133 0.0
H3807 H 0.19989 0.41735 0.78609 0.0
H3808 H 0.19945 0.60061 0.9011 0.0
N3809 N 0.30045 0.55675 0.93015 0.0
C3810 C 0.28046 0.57457 0.93232 0.0
C3811 C 0.3222 0.57575 0.96768 0.0
C3812 C 0.28056 0.59393 0.95244 0.0
C3813 C 0.32122 0.55695 0.9474 0.0
C3814 C 0.30185 0.59444 0.97013 0.0
N3815 N 0.25972 0.55321 0.89629 0.0
C3816 C 0.2387 0.55011 0.87976 0.0
C3817 C 0.23779 0.59036 0.91725 0.0
C3818 C 0.25941 0.57269 0.91494 0.0
C3819 C 0.21644 0.58748 0.89996 0.0
C3820 C 0.21684 0.56714 0.88127 0.0
H3821 H 0.30264 0.60899 0.98586 0.0
H3822 H 0.25907 0.62696 0.9697 0.0
H3823 H 0.22161 0.62387 0.93887 0.0
O3824 O 0.31928 0.55701 0.87173 0.0
O3825 O 0.28357 0.5181 0.9386 0.0
O3826 O 0.2558 0.48154 0.93379 0.0
O3827 O 0.34219 0.52977 0.89581 0.0
O3828 O 0.28737 0.52739 0.84673 0.0
O3829 O 0.25412 0.49621 0.84242 0.0
O3830 O 0.20722 0.46314 0.88671 0.0
O3831 O 0.28379 0.45227 0.86247 0.0
O3832 O 0.28948 0.49098 0.87443 0.0
O3833 O 0.22153 0.49937 0.90537 0.0
O3834 O 0.28109 0.45905 0.91386 0.0
O3835 O 0.31701 0.48852 0.91237 0.0
C3836 C 0.26815 0.4997 0.95041 0.0
C3837 C 0.3611 0.57157 0.88501 0.0
C3838 C 0.39969 0.59492 0.86931 0.0
C3839 C 0.39381 0.61628 0.88617 0.0
C3840 C 0.35475 0.59317 0.9014 0.0
C3841 C 0.37153 0.61519 0.90246 0.0
C3842 C 0.38382 0.57232 0.86947 0.0
C3843 C 0.27026 0.51416 0.83039 0.0
C3844 C 0.34264 0.55005 0.87991 0.0
C3845 C 0.25933 0.61185 0.95446 0.0
C3846 C 0.238 0.61008 0.9369 0.0
C3847 C 0.30069 0.47127 0.86225 0.0
C3848 C 0.19122 0.47105 0.9289 0.0
C3849 C 0.183 0.43264 0.95734 0.0
C3850 C 0.1715 0.44953 0.97617 0.0
C3851 C 0.17948 0.48769 0.94775 0.0
C3852 C 0.19254 0.44345 0.9339 0.0
C3853 C 0.16957 0.4769 0.97125 0.0
C3854 C 0.30575 0.46572 0.91982 0.0
C3855 C 0.20239 0.48162 0.90402 0.0
H3856 H 0.40614 0.63387 0.88635 0.0
H3857 H 0.33648 0.59362 0.91242 0.0
H3858 H 0.36669 0.63183 0.91512 0.0
H3859 H 0.38812 0.55609 0.85601 0.0
H3860 H 0.16366 0.44151 0.99439 0.0
H3861 H 0.17798 0.50888 0.9443 0.0
H3862 H 0.20102 0.42998 0.91957 0.0
H3863 H 0.16036 0.48978 0.9857 0.0
Eu3864 Eu 0.29607 0.51982 0.63753 0.0
C3865 C 0.21152 0.61168 0.68453 0.0
N3866 N 0.2124 0.58485 0.68238 0.0
C3867 C 0.18925 0.58057 0.72357 0.0
C3868 C 0.20059 0.62407 0.70702 0.0
C3869 C 0.20055 0.56923 0.70102 0.0
C3870 C 0.18973 0.6081 0.72683 0.0
C3871 C 0.21952 0.65475 0.6649 0.0
C3872 C 0.22068 0.62672 0.66368 0.0
C3873 C 0.21004 0.66722 0.68783 0.0
C3874 C 0.20051 0.6519 0.70883 0.0
Eu3875 Eu 0.23769 0.56699 0.64696 0.0
N3876 N 0.22989 0.61392 0.64189 0.0
C3877 C 0.22754 0.66942 0.64293 0.0
C3878 C 0.23626 0.62836 0.61991 0.0
C3879 C 0.23544 0.65612 0.62016 0.0
H3880 H 0.20003 0.54788 0.69861 0.0
H3881 H 0.24084 0.66724 0.60271 0.0
H3882 H 0.32986 0.51082 0.58188 0.0
H3883 H 0.20499 0.46873 0.66958 0.0
H3884 H 0.24174 0.61864 0.60183 0.0
H3885 H 0.22702 0.69094 0.6431 0.0
H3886 H 0.23787 0.50391 0.66926 0.0
H3887 H 0.18034 0.56805 0.73848 0.0
H3888 H 0.20944 0.6887 0.68928 0.0
H3889 H 0.19269 0.66178 0.72616 0.0
H3890 H 0.33431 0.47751 0.54613 0.0
H3891 H 0.18113 0.61685 0.7444 0.0
H3892 H 0.20754 0.43246 0.63686 0.0
N3893 N 0.29855 0.49051 0.601 0.0
C3894 C 0.28144 0.46986 0.60028 0.0
C3895 C 0.3195 0.47494 0.56135 0.0
C3896 C 0.28279 0.45066 0.57998 0.0
C3897 C 0.3173 0.49346 0.5818 0.0
C3898 C 0.30231 0.45329 0.56055 0.0
N3899 N 0.26064 0.48812 0.63787 0.0
C3900 C 0.24019 0.48828 0.65546 0.0
C3901 C 0.24286 0.44802 0.61829 0.0
C3902 C 0.26182 0.46865 0.61922 0.0
C3903 C 0.22249 0.44788 0.63691 0.0
C3904 C 0.22103 0.46827 0.65541 0.0
H3905 H 0.30394 0.43901 0.54462 0.0
H3906 H 0.26521 0.4148 0.56409 0.0
H3907 H 0.23015 0.41249 0.59767 0.0
O3908 O 0.32384 0.49234 0.65687 0.0
O3909 O 0.27942 0.52858 0.59334 0.0
O3910 O 0.24756 0.5616 0.59831 0.0
O3911 O 0.3388 0.52498 0.63365 0.0
O3912 O 0.28597 0.51847 0.68536 0.0
O3913 O 0.2475 0.54353 0.68979 0.0
O3914 O 0.19494 0.56764 0.6453 0.0
O3915 O 0.26513 0.58933 0.67418 0.0
O3916 O 0.2826 0.55504 0.65832 0.0
O3917 O 0.21606 0.53502 0.62658 0.0
O3918 O 0.26923 0.58482 0.61959 0.0
O3919 O 0.3088 0.56068 0.62216 0.0
C3920 C 0.26231 0.54559 0.58156 0.0
C3921 C 0.36848 0.48902 0.64139 0.0
C3922 C 0.40858 0.46696 0.65685 0.0
C3923 C 0.41614 0.46233 0.63057 0.0
C3924 C 0.37684 0.48505 0.61527 0.0
C3925 C 0.40029 0.47134 0.60993 0.0
C3926 C 0.38449 0.47997 0.66204 0.0
C3927 C 0.26691 0.52873 0.70179 0.0
C3928 C 0.34475 0.50464 0.64823 0.0
C3929 C 0.26442 0.42979 0.57944 0.0
C3930 C 0.24448 0.42847 0.59855 0.0
C3931 C 0.28666 0.57601 0.67295 0.0
C3932 C 0.1814 0.55803 0.60335 0.0
C3933 C 0.17446 0.59761 0.57622 0.0
C3934 C 0.15127 0.58623 0.56608 0.0
C3935 C 0.15815 0.54686 0.59329 0.0
C3936 C 0.18976 0.5828 0.5937 0.0
C3937 C 0.14346 0.56073 0.57422 0.0
C3938 C 0.29491 0.58183 0.61489 0.0
C3939 C 0.19373 0.54856 0.62802 0.0
H3940 H 0.43432 0.45183 0.62599 0.0
H3941 H 0.3659 0.49296 0.59896 0.0
H3942 H 0.40643 0.46813 0.58972 0.0
H3943 H 0.37862 0.48401 0.68222 0.0
H3944 H 0.13882 0.59736 0.55263 0.0
H3945 H 0.15083 0.52816 0.60091 0.0
H3946 H 0.20712 0.59161 0.60179 0.0
H3947 H 0.12529 0.55227 0.56669 0.0
Eu3948 Eu 0.2312 0.51595 0.39698 0.0
C3949 C 0.29963 0.62117 0.35046 0.0
N3950 N 0.30031 0.59432 0.34985 0.0
C3951 C 0.32208 0.59555 0.30772 0.0
C3952 C 0.30891 0.63641 0.32903 0.0
C3953 C 0.3128 0.58143 0.32957 0.0
C3954 C 0.31951 0.62317 0.30713 0.0
C3955 C 0.29396 0.66109 0.37634 0.0
C3956 C 0.2923 0.63326 0.37371 0.0
C3957 C 0.30109 0.6766 0.35441 0.0
C3958 C 0.30856 0.66425 0.33075 0.0
Eu3959 Eu 0.27914 0.57175 0.38528 0.0
N3960 N 0.28605 0.61754 0.39451 0.0
C3961 C 0.28964 0.67233 0.40122 0.0
C3962 C 0.28374 0.62821 0.41918 0.0
C3963 C 0.28515 0.65575 0.42285 0.0
H3964 H 0.31583 0.56017 0.3302 0.0
H3965 H 0.2827 0.66417 0.44234 0.0
H3966 H 0.20187 0.50093 0.4537 0.0
H3967 H 0.32672 0.47865 0.35931 0.0
H3968 H 0.28018 0.61562 0.43603 0.0
H3969 H 0.29078 0.69363 0.40411 0.0
H3970 H 0.28947 0.50934 0.36251 0.0
H3971 H 0.33141 0.58515 0.29148 0.0
H3972 H 0.30198 0.69806 0.35588 0.0
H3973 H 0.31513 0.67634 0.31434 0.0
H3974 H 0.20264 0.46553 0.48758 0.0
H3975 H 0.32692 0.63412 0.29029 0.0
H3976 H 0.33035 0.44103 0.39038 0.0
N3977 N 0.23447 0.48554 0.43246 0.0
C3978 C 0.25399 0.46714 0.43151 0.0
C3979 C 0.21707 0.46554 0.4718 0.0
C3980 C 0.25585 0.44699 0.45081 0.0
C3981 C 0.21622 0.48516 0.45232 0.0
C3982 C 0.23687 0.44619 0.47093 0.0
N3983 N 0.27042 0.48925 0.39392 0.0
C3984 C 0.28983 0.49279 0.37553 0.0
C3985 C 0.29414 0.45109 0.41096 0.0
C3986 C 0.27267 0.46914 0.41174 0.0
C3987 C 0.31351 0.45436 0.39158 0.0
C3988 C 0.31148 0.4755 0.37398 0.0
H3989 H 0.23762 0.43105 0.48609 0.0
H3990 H 0.27842 0.41291 0.46419 0.0
H3991 H 0.31213 0.41659 0.42935 0.0
O3992 O 0.20466 0.48499 0.38197 0.0
O3993 O 0.24743 0.52668 0.44035 0.0
O3994 O 0.27162 0.56534 0.43447 0.0
O3995 O 0.18894 0.51919 0.40299 0.0
O3996 O 0.24003 0.51514 0.34821 0.0
O3997 O 0.27218 0.54766 0.34199 0.0
O3998 O 0.32182 0.57522 0.38611 0.0
O3999 O 0.24436 0.58916 0.36061 0.0
O4000 O 0.23886 0.55142 0.37532 0.0
O4001 O 0.30321 0.54064 0.40414 0.0
O4002 O 0.24711 0.58525 0.41405 0.0
O4003 O 0.2124 0.55502 0.41179 0.0
C4004 C 0.26082 0.5468 0.45166 0.0
C4005 C 0.16262 0.48064 0.40309 0.0
C4006 C 0.12426 0.45451 0.39192 0.0
C4007 C 0.11482 0.45681 0.41788 0.0
C4008 C 0.15233 0.48452 0.42861 0.0
C4009 C 0.1291 0.4716 0.43629 0.0
C4010 C 0.14888 0.46507 0.38532 0.0
C4011 C 0.25589 0.52899 0.33075 0.0
C4012 C 0.18378 0.49669 0.39175 0.0
C4013 C 0.27671 0.42858 0.44963 0.0
C4014 C 0.29587 0.43067 0.42978 0.0
C4015 C 0.22741 0.57019 0.36177 0.0
C4016 C 0.33557 0.56527 0.42899 0.0
C4017 C 0.34525 0.6021 0.45956 0.0
C4018 C 0.35061 0.58325 0.47934 0.0
C4019 C 0.34104 0.54701 0.4491 0.0
C4020 C 0.33856 0.59284 0.43428 0.0
C4021 C 0.34881 0.556 0.47402 0.0
C4022 C 0.22182 0.57908 0.41696 0.0
C4023 C 0.32418 0.55626 0.40344 0.0
H4024 H 0.09581 0.44857 0.42341 0.0
H4025 H 0.16107 0.49849 0.44212 0.0
H4026 H 0.12126 0.47452 0.45595 0.0
H4027 H 0.15592 0.46421 0.3651 0.0
H4028 H 0.35632 0.58957 0.49894 0.0
H4029 H 0.33884 0.52588 0.44567 0.0
H4030 H 0.33465 0.60734 0.41904 0.0
H4031 H 0.35298 0.54178 0.48948 0.0
C4032 C 1.00238 0.51075 0.27005 0.0
C4033 C 0.02495 0.49298 0.26956 0.0
H4034 H 0.98497 0.55082 0.27018 0.0
C4035 C 0.04895 0.50874 0.27067 0.0
H4036 H 0.98293 0.50178 0.26951 0.0
C4037 C 0.05016 0.53822 0.27237 0.0
C4038 C 0.02753 0.55598 0.27225 0.0
H4039 H 0.06758 0.49807 0.27075 0.0
H4040 H 0.06959 0.54721 0.27325 0.0
C4041 C 1.00362 0.54019 0.27062 0.0
C4042 C 0.78497 0.76244 0.51782 0.0
C4043 C 0.80204 0.7844 0.52484 0.0
H4044 H 0.74569 0.74539 0.51055 0.0
C4045 C 0.78562 0.80727 0.53107 0.0
H4046 H 0.79444 0.74381 0.51274 0.0
C4047 C 0.75617 0.80791 0.53063 0.0
C4048 C 0.73916 0.78606 0.52296 0.0
H4049 H 0.79568 0.82531 0.5369 0.0
H4050 H 0.74663 0.82639 0.53609 0.0
C4051 C 0.75566 0.76339 0.51649 0.0
C4052 C 0.54019 0.49833 0.77246 0.0
C4053 C 0.51607 0.48281 0.77405 0.0
H4054 H 0.56134 0.53654 0.77207 0.0
C4055 C 0.4937 0.50079 0.77531 0.0
H4056 H 0.55866 0.48746 0.77113 0.0
C4057 C 0.49527 0.53023 0.7746 0.0
C4058 C 0.51942 0.54574 0.77351 0.0
H4059 H 0.47417 0.49201 0.77622 0.0
H4060 H 0.47677 0.5411 0.77532 0.0
C4061 C 0.54181 0.52777 0.77288 0.0
C4062 C 0.78759 0.26823 1.01279 0.0
C4063 C 0.8045 0.24605 0.01979 0.0
H4064 H 0.74836 0.28636 1.00719 0.0
C4065 C 0.78794 0.2231 0.02493 0.0
H4066 H 0.79722 0.2869 1.0083 0.0
C4067 C 0.75853 0.22247 0.02302 0.0
C4068 C 0.74167 0.24486 1.0163 0.0
H4069 H 0.79785 0.20478 0.03023 0.0
H4070 H 0.74883 0.20385 0.02748 0.0
C4071 C 0.75826 0.26785 1.01183 0.0
C4072 C 0.27512 1.00217 0.50835 0.0
C4073 C 0.27631 0.02521 0.49124 0.0
H4074 H 0.27238 0.98377 0.5476 0.0
C4075 C 0.27707 0.04885 0.50764 0.0
H4076 H 0.27472 0.98287 0.49894 0.0
C4077 C 0.27697 0.04933 0.537 0.0
C4078 C 0.27505 0.02628 0.55406 0.0
H4079 H 0.27839 0.06779 0.49762 0.0
H4080 H 0.27805 0.06859 0.54641 0.0
C4081 C 0.27385 1.00272 0.53762 0.0
C4082 C 0.27457 0.99037 0.7562 0.0
C4083 C 0.27001 1.01436 0.74112 0.0
H4084 H 0.27949 0.96927 0.79386 0.0
C4085 C 0.26592 0.03623 0.75936 0.0
H4086 H 0.27803 0.97224 0.74523 0.0
C4087 C 0.26574 0.03426 0.78861 0.0
C4088 C 0.27086 1.01034 0.80366 0.0
H4089 H 0.26225 0.05563 0.7509 0.0
H4090 H 0.26191 0.0523 0.79959 0.0
C4091 C 0.27548 0.98862 0.78541 0.0
C4092 C 0.27288 0.96697 0.03666 0.0
C4093 C 0.27268 0.99053 0.05336 0.0
H4094 H 0.27401 0.94741 0.99764 0.0
C4095 C 0.27313 1.01358 0.03612 0.0
H4096 H 0.2729 0.94793 0.04646 0.0
C4097 C 0.27281 1.01328 1.00679 0.0
C4098 C 0.27353 0.98987 0.99006 0.0
H4099 H 0.27345 0.03289 0.04554 0.0
H4100 H 0.27248 0.03236 0.99697 0.0
C4101 C 0.27371 0.96666 1.00716 0.0
C4102 C 0.31093 1.01239 0.25662 0.0
C4103 C 0.287 1.01158 0.24062 0.0
H4104 H 0.33156 1.01431 0.29499 0.0
C4105 C 0.26453 1.01316 0.25846 0.0
H4106 H 0.32962 1.01093 0.24626 0.0
C4107 C 0.26572 1.01607 0.28768 0.0
C4108 C 0.28953 1.01654 0.30378 0.0
H4109 H 0.24504 1.01255 0.24964 0.0
H4110 H 0.247 1.01751 0.29798 0.0
C4111 C 0.31211 1.01427 0.28605 0.0
C4112 C 0.50886 0.2586 0.04145 0.0
C4113 C 0.49248 0.26457 0.01876 0.0
H4114 H 0.54778 0.25305 0.06017 0.0
C4115 C 0.50948 0.26906 0.9962 0.0
H4116 H 0.49883 0.25502 0.05997 0.0
C4117 C 0.53879 0.26699 0.99613 0.0
C4118 C 0.55521 0.26158 0.01891 0.0
H4119 H 0.49996 0.2739 0.97771 0.0
H4120 H 0.54878 0.27023 0.97754 0.0
C4121 C 0.53824 0.25762 0.04161 0.0
C4122 C 1.00833 0.26321 0.99604 0.0
C4123 C 0.9915 0.26312 0.0192 0.0
H4124 H 0.04752 0.26485 0.9771 0.0
C4125 C 1.00812 0.26583 0.04235 0.0
H4126 H 0.99871 0.26114 0.97709 0.0
C4127 C 0.03739 0.26883 0.04231 0.0
C4128 C 0.05427 0.2684 0.01918 0.0
H4129 H 0.9983 0.26611 0.0613 0.0
H4130 H 0.04697 0.27119 0.06124 0.0
C4131 C 0.03768 0.26528 0.99606 0.0
C4132 C 0.02059 0.75888 0.2502 0.0
C4133 C 0.01974 0.74264 0.27367 0.0
H4134 H 0.02178 0.79774 0.23061 0.0
C4135 C 0.01855 0.75966 0.29665 0.0
H4136 H 0.02168 0.7487 0.23143 0.0
C4137 C 1.01762 0.78911 0.29611 0.0
C4138 C 0.01909 0.8053 0.27258 0.0
H4139 H 1.01781 0.75012 0.31574 0.0
H4140 H 1.01621 0.79934 0.31483 0.0
C4141 C 0.02077 0.78823 0.24972 0.0
C4142 C 0.53358 0.77257 0.54216 0.0
C4143 C 0.55095 0.7713 0.51948 0.0
H4144 H 0.49409 0.77104 0.56026 0.0
C4145 C 0.5349 0.76765 0.49606 0.0
H4146 H 0.54273 0.77522 0.56121 0.0
C4147 C 0.50555 0.76586 0.4954 0.0
C4148 C 0.48823 0.76658 0.51818 0.0
H4149 H 0.5452 0.76652 0.47736 0.0
H4150 H 0.49633 0.7633 0.47632 0.0
C4151 C 0.50432 0.76989 0.54159 0.0
C4152 C 1.00522 0.76337 0.54687 0.0
C4153 C 0.98906 0.76834 0.52381 0.0
H4154 H 0.04389 0.75789 0.56606 0.0
C4155 C 1.00617 0.77079 0.50103 0.0
H4156 H 0.99503 0.76119 0.56553 0.0
C4157 C 0.03544 0.76791 0.50123 0.0
C4158 C 0.05164 0.7634 0.52439 0.0
H4159 H 0.9968 0.7746 0.48223 0.0
H4160 H 0.04556 0.76974 0.48252 0.0
C4161 C 0.03452 0.76151 0.54721 0.0
C4162 C 0.02259 0.25876 0.29718 0.0
C4163 C 0.02298 0.24085 0.27475 0.0
H4164 H 0.02091 0.29893 0.31444 0.0
C4165 C 0.0225 0.25684 0.2509 0.0
H4166 H 0.02266 0.24981 0.31658 0.0
C4167 C 0.02239 0.2864 0.2496 0.0
C4168 C 0.02141 0.30433 0.27199 0.0
H4169 H 0.02257 0.24625 0.23232 0.0
H4170 H 0.02258 0.29532 0.23019 0.0
C4171 C 0.0214 0.28834 0.29587 0.0
C4172 C 0.5228 0.77772 0.7481 0.0
C4173 C 0.52202 0.79577 0.77028 0.0
H4174 H 0.52258 0.73735 0.73152 0.0
C4175 C 0.52203 0.78042 0.79446 0.0
H4176 H 0.52295 0.7864 0.72858 0.0
C4177 C 0.52306 0.751 0.79625 0.0
C4178 C 0.5232 0.73295 0.77405 0.0
H4179 H 0.52169 0.79138 0.81282 0.0
H4180 H 0.52315 0.74231 0.81577 0.0
C4181 C 0.5227 0.74831 0.74988 0.0
C4182 C 0.02236 0.50127 0.76826 0.0
C4183 C 0.99811 0.48596 0.76627 0.0
H4184 H 0.04401 0.5392 0.769 0.0
C4185 C 0.97602 0.50429 0.7645 0.0
H4186 H 0.04069 0.49022 0.7699 0.0
C4187 C 0.97795 0.53378 0.76517 0.0
C4188 C 1.00228 0.54905 0.76663 0.0
H4189 H 0.9564 0.49576 0.76319 0.0
H4190 H 0.9596 0.54487 0.76413 0.0
C4191 C 0.02437 0.5307 0.76779 0.0
C4192 C 0.25521 0.28236 0.51473 0.0
C4193 C 0.23753 0.26027 0.50973 0.0
H4194 H 0.29496 0.29905 0.52083 0.0
C4195 C 0.25354 0.23658 0.50562 0.0
H4196 H 0.24618 0.30157 0.5182 0.0
C4197 C 0.28303 0.23528 0.50604 0.0
C4198 C 0.30065 0.25734 0.51155 0.0
H4199 H 0.24309 0.21828 0.50153 0.0
H4200 H 0.2921 0.21611 0.50248 0.0
C4201 C 0.28458 0.28085 0.51618 0.0
C4202 C 0.54718 0.5014 0.2656 0.0
C4203 C 0.52345 0.48538 0.264 0.0
H4204 H 0.56727 0.54016 0.26653 0.0
C4205 C 0.50062 0.50271 0.26268 0.0
H4206 H 0.56594 0.491 0.26648 0.0
C4207 C 0.50137 0.53211 0.26365 0.0
C4208 C 0.52512 0.54815 0.26468 0.0
H4209 H 0.48136 0.49341 0.26136 0.0
H4210 H 0.48259 0.5425 0.26316 0.0
C4211 C 0.548 0.53084 0.26546 0.0
C4212 C 0.28254 0.81427 1.01647 0.0
C4213 C 0.29956 0.791 1.01824 0.0
H4214 H 0.24312 0.83309 1.01349 0.0
C4215 C 0.28281 0.76762 1.01838 0.0
H4216 H 0.29219 0.83344 1.01573 0.0
C4217 C 0.25338 0.76745 1.01787 0.0
C4218 C 0.2363 0.79057 1.01563 0.0
H4219 H 0.29266 0.74851 0.01925 0.0
H4220 H 0.24379 0.74826 0.0188 0.0
C4221 C 0.25301 0.81405 1.01488 0.0
C4222 C 0.76951 0.02775 0.50412 0.0
C4223 C 0.76839 1.00426 0.48748 0.0
H4224 H 0.76804 0.0475 0.54287 0.0
C4225 C 0.76592 0.98121 0.50452 0.0
H4226 H 0.7715 0.04671 0.49426 0.0
C4227 C 0.76511 0.98162 0.53392 0.0
C4228 C 0.76568 1.00518 0.55052 0.0
H4229 H 0.76507 0.96197 0.49502 0.0
H4230 H 0.76344 0.96265 0.54382 0.0
C4231 C 0.76757 0.02823 0.53342 0.0
C4232 C 0.74649 0.01844 0.28438 0.0
C4233 C 0.77003 0.01842 0.30083 0.0
H4234 H 0.72657 0.02198 0.24588 0.0
C4235 C 0.79288 0.02147 0.28367 0.0
H4236 H 0.72764 1.01625 0.29429 0.0
C4237 C 0.7923 0.02376 0.25437 0.0
C4238 C 0.76873 0.02432 0.23797 0.0
H4239 H 0.81214 0.02164 0.293 0.0
H4240 H 0.81116 0.02566 0.24442 0.0
C4241 C 0.74585 0.0218 0.25518 0.0
C4242 C 0.76439 0.06952 1.00445 0.0
C4243 C 0.76387 0.04617 0.98749 0.0
H4244 H 0.7635 0.08863 0.04362 0.0
C4245 C 0.76293 0.02295 1.00448 0.0
H4246 H 0.76539 0.08867 0.99492 0.0
C4247 C 0.76303 0.02289 0.03382 0.0
C4248 C 0.76267 0.0461 0.05081 0.0
H4249 H 0.76256 1.00377 0.99486 0.0
H4250 H 0.76297 1.00368 0.04341 0.0
C4251 C 0.76328 0.06949 0.03394 0.0
C4252 C 0.77847 1.0157 0.75429 0.0
C4253 C 0.75517 1.01514 0.73749 0.0
H4254 H 0.79787 0.01998 0.79296 0.0
C4255 C 0.73204 1.01774 0.75441 0.0
H4256 H 0.79749 1.01383 0.74462 0.0
C4257 C 0.73223 0.02015 0.78379 0.0
C4258 C 0.75561 0.02124 0.8005 0.0
H4259 H 0.71289 1.01746 0.74486 0.0
H4260 H 0.71322 0.02177 0.79352 0.0
C4261 C 0.77869 0.01923 0.78349 0.0
C4262 C 0.5042 0.7775 0.99232 0.0
C4263 C 0.48718 0.77443 1.01514 0.0
H4264 H 0.54353 0.77876 0.97365 0.0
C4265 C 0.50371 0.76872 0.03785 0.0
H4266 H 0.49469 0.78207 0.97374 0.0
C4267 C 0.53304 0.76577 0.03761 0.0
C4268 C 0.55009 0.76944 1.01488 0.0
H4269 H 0.49377 0.76597 0.05656 0.0
H4270 H 0.54254 0.76094 0.05612 0.0
C4271 C 0.53358 0.77564 0.9923 0.0
C4272 C 1.00418 0.77193 0.03633 0.0
C4273 C 0.98753 0.77067 1.01317 0.0
H4274 H 0.04336 0.77318 0.05515 0.0
C4275 C 1.00409 0.77032 0.98989 0.0
H4276 H 0.99442 0.77205 0.05533 0.0
C4277 C 0.03339 0.77187 0.98975 0.0
C4278 C 0.05005 0.77257 1.01293 0.0
H4279 H 0.99424 0.76931 0.97098 0.0
H4280 H 0.04314 0.77212 0.97075 0.0
C4281 C 0.0335 0.77239 0.03622 0.0
C4282 C 1.01136 0.25395 0.78837 0.0
C4283 C 1.01432 0.23725 0.76533 0.0
H4284 H 1.0084 0.29315 0.80721 0.0
C4285 C 1.01587 0.25391 0.74212 0.0
H4286 H 1.01009 0.24413 0.80731 0.0
C4287 C 1.0139 0.28335 0.74198 0.0
C4288 C 1.01146 0.30001 0.76514 0.0
H4289 H 0.01812 0.24407 0.72329 0.0
H4290 H 1.01472 0.29319 0.72304 0.0
C4291 C 1.01049 0.28333 0.78832 0.0
C4292 C 0.50417 0.26874 0.49498 0.0
C4293 C 0.4868 0.26862 0.51777 0.0
H4294 H 0.54365 0.27124 0.47681 0.0
C4295 C 0.50305 0.27042 0.54129 0.0
H4296 H 0.49493 0.26742 0.47581 0.0
C4297 C 0.53247 0.27185 0.54191 0.0
C4298 C 0.54981 0.2725 0.51909 0.0
H4299 H 0.49289 0.27024 0.56008 0.0
H4300 H 0.54176 0.2729 0.56111 0.0
C4301 C 0.53352 0.27106 0.49559 0.0
C4302 C 1.00407 0.26945 0.53603 0.0
C4303 C 0.98656 0.27355 0.51374 0.0
H4304 H 0.04379 0.2639 0.55312 0.0
C4305 C 1.0026 0.27655 0.49021 0.0
H4306 H 0.99492 0.26707 0.55518 0.0
C4307 C 0.03201 0.27594 0.48919 0.0
C4308 C 0.0495 0.27126 0.51138 0.0
H4309 H 0.99227 0.28007 0.47186 0.0
H4310 H 0.04118 0.27878 0.47011 0.0
C4311 C 0.03345 0.26769 0.53482 0.0
C4312 C 1.01037 0.75398 0.7427 0.0
C4313 C 1.01095 0.73789 0.76636 0.0
H4314 H 1.00925 0.79275 0.72268 0.0
C4315 C 1.01154 0.7552 0.78913 0.0
H4316 H 1.0098 0.7436 0.72401 0.0
C4317 C 1.01224 0.78464 0.78828 0.0
C4318 C 1.01109 0.80073 0.76463 0.0
H4319 H 1.01204 0.74587 0.80835 0.0
H4320 H 1.01335 0.79501 0.80695 0.0
C4321 C 1.00993 0.78342 0.74189 0.0
C4322 C 0.51876 0.28278 0.28196 0.0
C4323 C 0.51829 0.29838 0.25801 0.0
H4324 H 0.51865 0.24456 0.3028 0.0
C4325 C 0.51844 0.28064 0.23554 0.0
H4326 H 0.51888 0.2935 0.30047 0.0
C4327 C 0.51935 0.2512 0.23698 0.0
C4328 C 0.51939 0.23565 0.26103 0.0
H4329 H 0.51837 0.28959 0.21614 0.0
H4330 H 0.51956 0.24042 0.21851 0.0
C4331 C 0.5187 0.25343 0.28339 0.0
C4332 C 0.55385 0.02918 0.76904 0.0
C4333 C 0.53135 0.04709 0.76921 0.0
H4334 H 0.57093 0.98888 0.76761 0.0
C4335 C 0.50729 0.03143 0.76866 0.0
H4336 H 0.57336 0.03805 0.76911 0.0
C4337 C 0.50583 1.002 0.76872 0.0
C4338 C 0.52825 0.98407 0.76789 0.0
H4339 H 0.48871 0.04219 0.76852 0.0
H4340 H 0.4863 0.99317 0.76887 0.0
C4341 C 0.55238 0.99968 0.76796 0.0
C4342 C 0.25879 0.30863 0.02301 0.0
C4343 C 0.24128 0.28598 0.01944 0.0
H4344 H 0.29861 0.32664 0.02489 0.0
C4345 C 0.25774 0.26263 1.01534 0.0
H4346 H 0.24951 0.32778 0.02612 0.0
C4347 C 0.28721 0.2618 1.01549 0.0
C4348 C 0.30479 0.2844 1.01846 0.0
H4349 H 0.2476 0.24396 1.01229 0.0
H4350 H 0.29641 0.24255 1.01273 0.0
C4351 C 0.2884 0.30796 0.02212 0.0
C4352 C 0.99874 0.03709 0.26893 0.0
C4353 C 0.02238 0.05322 0.26801 0.0
H4354 H 0.979 0.99824 0.27053 0.0
C4355 C 0.04543 0.03616 0.26752 0.0
H4356 H 0.9799 0.04736 0.26962 0.0
C4357 C 0.04484 1.00676 0.2671 0.0
C4358 C 0.0212 0.99065 0.26858 0.0
H4359 H 0.06463 0.04565 0.26693 0.0
H4360 H 0.06365 0.99647 0.266 0.0
C4361 C 0.9982 1.00772 0.26966 0.0
C4362 C 0.28372 0.72721 0.52595 0.0
C4363 C 0.30039 0.75026 0.52197 0.0
H4364 H 0.24448 0.7083 0.52829 0.0
C4365 C 0.28365 0.77317 0.51722 0.0
H4366 H 0.29353 0.70842 0.52954 0.0
C4367 C 0.2543 0.77323 0.51719 0.0
C4368 C 0.23759 0.75014 0.52048 0.0
H4369 H 0.29344 0.79199 0.51386 0.0
H4370 H 0.2445 0.79215 0.51425 0.0
C4371 C 0.2543 0.7271 0.52495 0.0
C4372 C 0.76995 0.49781 1.00692 0.0
C4373 C 0.76975 0.5211 0.99005 0.0
H4374 H 0.76742 0.47866 0.04586 0.0
C4375 C 0.76755 0.54445 1.00675 0.0
H4376 H 0.77172 0.47868 0.99732 0.0
C4377 C 0.76609 0.54447 0.0361 0.0
C4378 C 0.76574 0.52112 0.05293 0.0
H4379 H 0.76743 0.56358 0.997 0.0
H4380 H 0.76471 0.56361 0.04574 0.0
C4381 C 0.76746 0.4978 0.03617 0.0
C4382 C 0.78111 0.51566 0.25404 0.0
C4383 C 0.75677 0.51348 0.239 0.0
H4384 H 0.80327 0.51533 0.29139 0.0
C4385 C 0.735 0.51001 0.25733 0.0
H4386 H 0.79922 0.51852 0.24298 0.0
C4387 C 0.73734 0.50936 0.28659 0.0
C4388 C 0.76181 0.51115 0.30156 0.0
H4389 H 0.71534 0.5083 0.24904 0.0
H4390 H 0.71922 0.50689 0.29772 0.0
C4391 C 0.78356 0.51392 0.28316 0.0
C4392 C 0.77117 0.46512 0.53411 0.0
C4393 C 0.77111 0.48797 0.55175 0.0
H4394 H 0.77159 0.44722 0.49431 0.0
C4395 C 0.77038 0.5117 0.53544 0.0
H4396 H 0.77171 0.44568 0.54311 0.0
C4397 C 0.76924 0.51262 0.50613 0.0
C4398 C 0.76999 0.48994 0.48844 0.0
H4399 H 0.77031 0.53059 0.54562 0.0
H4400 H 0.76819 0.53209 0.49713 0.0
C4401 C 0.77116 0.46606 0.50461 0.0
C4402 C 0.76542 0.51063 0.78603 0.0
C4403 C 0.78924 0.51183 0.80205 0.0
H4404 H 0.74481 0.50679 0.74799 0.0
C4405 C 0.81186 0.51096 0.7843 0.0
H4406 H 0.74668 0.51118 0.79638 0.0
C4407 C 0.81068 0.50951 0.75486 0.0
C4408 C 0.78675 0.50785 0.73894 0.0
H4409 H 0.8313 0.51187 0.79321 0.0
H4410 H 0.82937 0.50913 0.74441 0.0
C4411 C 0.76427 0.50814 0.7568 0.0
C4412 C 0.51941 0.27993 0.74764 0.0
C4413 C 0.51818 0.29632 0.77108 0.0
H4414 H 0.52024 0.24096 0.72803 0.0
C4415 C 0.5175 0.27923 0.79403 0.0
H4416 H 0.51991 0.29005 0.72882 0.0
C4417 C 0.51861 0.24977 0.79358 0.0
C4418 C 0.51924 0.2334 0.77009 0.0
H4419 H 0.51666 0.28875 0.81312 0.0
H4420 H 0.51858 0.23965 0.81239 0.0
C4421 C 0.51943 0.25049 0.74715 0.0
C4422 C 0.49349 1.0035 0.28749 0.0
C4423 C 0.50684 0.98574 0.26927 0.0
H4424 H 0.48374 0.04356 0.30206 0.0
C4425 C 0.52281 1.00138 0.25143 0.0
H4426 H 0.48082 0.99449 0.30219 0.0
C4427 C 0.52512 0.03077 0.25184 0.0
C4428 C 0.51153 0.04858 0.26986 0.0
H4429 H 0.5344 0.99073 0.2369 0.0
H4430 H 0.53807 0.0397 0.23733 0.0
C4431 C 0.49534 0.03293 0.28753 0.0
C4432 C 0.78449 0.73333 1.00981 0.0
C4433 C 0.80128 0.75672 1.01126 0.0
H4434 H 0.74524 0.7141 1.0095 0.0
C4435 C 0.78424 0.7799 1.01323 0.0
H4436 H 0.79433 0.71426 1.0085 0.0
C4437 C 0.7548 0.77986 1.01302 0.0
C4438 C 0.73795 0.75656 1.01208 0.0
H4439 H 0.79387 0.79905 1.01465 0.0
H4440 H 0.74501 0.79899 1.01404 0.0
C4441 C 0.75493 0.73323 1.01059 0.0
C4442 C 0.99417 0.035 0.77366 0.0
C4443 C 1.01703 0.05132 0.76802 0.0
H4444 H 0.97506 0.99601 0.77762 0.0
C4445 C 0.03965 0.03439 0.76304 0.0
H4446 H 0.97575 0.04514 0.77801 0.0
C4447 C 0.03946 1.00498 0.7639 0.0
C4448 C 1.01646 0.98868 0.76903 0.0
H4449 H 0.05834 0.044 0.75887 0.0
H4450 H 0.05796 0.99482 0.75998 0.0
C4451 C 0.99377 1.00561 0.77354 0.0
C4452 C 0.75275 0.3082 0.5231 0.0
C4453 C 0.73684 0.28434 0.52039 0.0
H4454 H 0.79125 0.32858 0.52609 0.0
C4455 C 0.75447 0.2617 0.5186 0.0
H4456 H 0.74226 0.32685 0.52498 0.0
C4457 C 0.78383 0.26282 0.5185 0.0
C4458 C 0.79977 0.28656 0.52161 0.0
H4459 H 0.74544 0.24229 0.5168 0.0
H4460 H 0.79431 0.24417 0.51621 0.0
C4461 C 0.78219 0.30923 0.52401 0.0
C4462 C 0.26437 0.47799 0.03066 0.0
C4463 C 0.26672 0.50179 0.0468 0.0
H4464 H 0.26182 0.45773 0.99213 0.0
C4465 C 0.26855 0.52444 0.02924 0.0
H4466 H 0.26222 0.45929 0.04097 0.0
C4467 C 0.26912 0.52341 0.99994 0.0
C4468 C 0.26653 0.49975 0.98371 0.0
H4469 H 0.26995 0.54385 0.03831 0.0
H4470 H 0.27126 0.54215 0.98973 0.0
C4471 C 0.26392 0.47706 1.00122 0.0
C4472 C 0.24576 0.5183 0.78114 0.0
C4473 C 0.26938 0.51855 0.79744 0.0
H4474 H 0.22564 0.52177 0.74277 0.0
C4475 C 0.29215 0.52189 0.78028 0.0
H4476 H 0.227 0.51576 0.79113 0.0
C4477 C 0.2914 0.52427 0.75102 0.0
C4478 C 0.26773 0.52461 0.73479 0.0
H4479 H 0.31144 0.52216 0.78956 0.0
H4480 H 0.31019 0.52639 0.74097 0.0
C4481 C 0.24495 0.52178 0.752 0.0
C4482 C 0.26458 0.52413 0.53099 0.0
C4483 C 0.26135 0.54694 0.54821 0.0
H4484 H 0.2662 0.50547 0.49182 0.0
C4485 C 0.25863 0.5704 0.53162 0.0
H4486 H 0.26695 0.50496 0.54038 0.0
C4487 C 0.25945 0.57087 0.50213 0.0
C4488 C 0.26219 0.54781 0.485 0.0
H4489 H 0.25614 0.58927 0.54155 0.0
H4490 H 0.25725 0.59 0.49265 0.0
C4491 C 0.26431 0.52446 0.50168 0.0
C4492 C 0.27794 0.5254 0.28001 0.0
C4493 C 0.25517 0.52459 0.29754 0.0
H4494 H 0.29645 0.52235 0.24079 0.0
C4495 C 0.23177 0.52069 0.28121 0.0
H4496 H 0.29709 0.52836 0.28909 0.0
C4497 C 0.23124 0.51829 0.25179 0.0
C4498 C 0.25416 0.51857 0.23437 0.0
H4499 H 0.2129 0.51991 0.29132 0.0
H4500 H 0.21208 0.51562 0.24264 0.0
C4501 C 0.27752 0.52195 0.2508 0.0
C4502 C 0.51075 0.78063 0.2924 0.0
C4503 C 0.51519 0.79819 0.27024 0.0
H4504 H 0.50735 0.74068 0.30962 0.0
C4505 C 0.52077 0.78223 0.24709 0.0
H4506 H 0.50612 0.78977 0.31116 0.0
C4507 C 0.52234 0.75278 0.24634 0.0
C4508 C 0.51732 0.73521 0.26838 0.0
H4509 H 0.52462 0.79271 0.22889 0.0
H4510 H 0.52726 0.74364 0.22764 0.0
C4511 C 0.51132 0.75116 0.29142 0.0
C4512 C 0.10297 0.35073 0.32053 0.0
C4513 C 0.07838 0.36368 0.32083 0.0
H4514 H 0.13831 0.34192 0.34241 0.0
C4515 C 0.06941 0.37569 0.34394 0.0
H4516 H 0.11017 0.34121 0.30275 0.0
C4517 C 0.08543 0.37674 0.36609 0.0
C4518 C 0.11072 0.36546 0.36531 0.0
H4519 H 0.0511 0.38649 0.34376 0.0
H4520 H 0.07867 0.38748 0.38336 0.0
C4521 C 0.11913 0.35156 0.34284 0.0
C4522 C 0.93549 0.83404 0.6354 0.0
C4523 C 0.93739 0.81334 0.65403 0.0
H4524 H 0.93242 0.84479 0.59464 0.0
C4525 C 0.94155 0.78735 0.64479 0.0
H4526 H 0.9324 0.85438 0.64171 0.0
C4527 C 0.94146 0.78183 0.61775 0.0
C4528 C 0.93698 0.80215 0.59916 0.0
H4529 H 0.94393 0.77103 0.6585 0.0
H4530 H 0.94319 0.76129 0.61161 0.0
C4531 C 0.9355 0.82853 0.60828 0.0
C4532 C 0.44811 0.70582 0.81315 0.0
C4533 C 0.46499 0.68763 0.82568 0.0
H4534 H 0.41625 0.73346 0.81739 0.0
C4535 C 0.46164 0.68234 0.85261 0.0
H4536 H 0.45026 0.71006 0.79231 0.0
C4537 C 0.4417 0.69517 0.86686 0.0
C4538 C 0.42502 0.71379 0.85447 0.0
H4539 H 0.47386 0.6677 0.86247 0.0
H4540 H 0.43926 0.6904 0.88754 0.0
C4541 C 0.42843 0.71892 0.82744 0.0
C4542 C 0.59912 0.2216 0.07951 0.0
C4543 C 0.60975 0.20251 0.0623 0.0
H4544 H 0.57395 0.22895 0.11276 0.0
C4545 C 0.60639 0.17546 0.0679 0.0
H4546 H 0.60104 0.24245 0.07581 0.0
C4547 C 0.5911 0.16773 0.08938 0.0
C4548 C 0.57883 0.18702 0.10516 0.0
H4549 H 0.61451 0.16033 0.05499 0.0
H4550 H 0.58736 0.14679 0.09263 0.0
C4551 C 0.58359 0.21392 0.1008 0.0
C4552 C 0.10338 0.69911 0.22312 0.0
C4553 C 0.07751 0.68879 0.22258 0.0
H4554 H 0.13719 0.71133 0.20083 0.0
C4555 C 0.06438 0.68657 0.19833 0.0
H4556 H 0.11387 0.70165 0.24158 0.0
C4557 C 0.07791 0.69236 0.17481 0.0
C4558 C 0.10451 0.7006 0.17556 0.0
H4559 H 0.04439 0.67903 0.19743 0.0
H4560 H 0.06815 0.68901 0.1561 0.0
C4561 C 0.11679 0.70474 0.19987 0.0
C4562 C 0.60265 0.86697 0.47505 0.0
C4563 C 0.59945 0.83929 0.47295 0.0
H4564 H 0.59287 0.90519 0.45933 0.0
C4565 C 0.58283 0.82892 0.45344 0.0
H4566 H 0.61557 0.8755 0.48983 0.0
C4567 C 0.56954 0.84591 0.43632 0.0
C4568 C 0.57298 0.87361 0.43806 0.0
H4569 H 0.57986 0.80768 0.45156 0.0
H4570 H 0.55625 0.83729 0.42194 0.0
C4571 C 0.58965 0.88398 0.45764 0.0
C4572 C 0.46263 0.37194 0.69597 0.0
C4573 C 0.47084 0.35527 0.71662 0.0
H4574 H 0.43894 0.37557 0.66105 0.0
C4575 C 0.46582 0.32794 0.71488 0.0
H4576 H 0.4662 0.39295 0.69654 0.0
C4577 C 0.45055 0.31787 0.69425 0.0
C4578 C 0.43995 0.33512 0.67531 0.0
H4579 H 0.47136 0.31478 0.73086 0.0
H4580 H 0.445 0.29708 0.69446 0.0
C4581 C 0.44708 0.36197 0.6755 0.0
C4582 C 0.93286 0.15542 0.95302 0.0
C4583 C 0.94837 0.16803 0.93393 0.0
H4584 H 0.91325 0.15909 0.98998 0.0
C4585 C 0.95289 0.1956 0.93564 0.0
H4586 H 0.92862 0.13435 0.95181 0.0
C4587 C 0.94354 0.20994 0.95725 0.0
C4588 C 0.92982 0.19673 0.97721 0.0
H4589 H 0.96508 0.20573 0.92125 0.0
H4590 H 0.94863 0.23073 0.95921 0.0
C4591 C 0.92402 0.16959 0.97471 0.0
C4592 C 0.34001 0.10869 0.36319 0.0
C4593 C 0.34378 0.08109 0.36652 0.0
H4594 H 0.35865 0.14737 0.362 0.0
C4595 C 0.36953 0.07187 0.3717 0.0
H4596 H 0.32036 0.11667 0.35988 0.0
C4597 C 0.3906 0.08907 0.37417 0.0
C4598 C 0.38726 0.1164 0.37061 0.0
H4599 H 0.37356 0.05136 0.37585 0.0
H4600 H 0.40978 0.08079 0.37919 0.0
C4601 C 0.36174 0.12628 0.36497 0.0
C4602 C 0.22913 0.09572 0.58485 0.0
C4603 C 0.21722 0.07594 0.60033 0.0
H4604 H 0.22802 0.13641 0.5728 0.0
C4605 C 0.19125 0.07967 0.60939 0.0
H4606 H 0.24905 0.0931 0.57734 0.0
C4607 C 0.17942 0.10472 0.60724 0.0
C4608 C 0.1933 0.12565 0.59537 0.0
H4609 H 0.18144 0.06438 0.62075 0.0
H4610 H 0.16028 0.10813 0.61618 0.0
C4611 C 0.21731 0.12056 0.58255 0.0
C4612 C 0.22605 0.93446 0.83021 0.0
C4613 C 0.22385 0.95375 0.85002 0.0
H4614 H 0.20682 0.90366 0.8087 0.0
C4615 C 0.19871 0.96019 0.85997 0.0
H4616 H 0.24508 0.9297 0.82149 0.0
C4617 C 0.17678 0.94465 0.85322 0.0
C4618 C 0.17987 0.92311 0.83589 0.0
H4619 H 0.19613 0.9757 0.87431 0.0
H4620 H 0.15795 0.94841 0.86277 0.0
C4621 C 0.20424 0.91935 0.82312 0.0
C4622 C 0.31383 0.88752 0.09105 0.0
C4623 C 0.33434 0.87856 0.1073 0.0
H4624 H 0.2905 0.92091 0.07954 0.0
C4625 C 0.35226 0.89718 0.11775 0.0
H4626 H 0.3003 0.87351 0.08207 0.0
C4627 C 0.34748 0.92451 0.11495 0.0
C4628 C 0.32383 0.93324 0.10343 0.0
H4629 H 0.36909 0.89059 0.12927 0.0
H4630 H 0.36044 0.93854 0.12459 0.0
C4631 C 0.30866 0.91475 0.08906 0.0
C4632 C 0.38031 0.93678 0.1774 0.0
C4633 C 0.3952 0.96024 0.18112 0.0
H4634 H 0.34169 0.91946 0.17288 0.0
C4635 C 0.38148 0.98399 0.18603 0.0
H4636 H 0.38998 0.91792 0.17373 0.0
C4637 C 0.35387 0.9847 0.18505 0.0
C4638 C 0.3392 0.96193 0.17875 0.0
H4639 H 0.39203 1.00219 0.19034 0.0
H4640 H 0.34425 1.0034 0.18869 0.0
C4641 C 0.35255 0.93758 0.17679 0.0
C4642 C 0.29899 0.12709 0.43545 0.0
C4643 C 0.32352 0.13992 0.43212 0.0
H4644 H 0.27825 0.09006 0.43776 0.0
C4645 C 0.34647 0.12394 0.43033 0.0
H4646 H 0.28098 0.13848 0.43809 0.0
C4647 C 0.34467 0.09613 0.43012 0.0
C4648 C 0.3199 0.08359 0.43111 0.0
H4649 H 0.36582 0.13277 0.42778 0.0
H4650 H 0.36257 0.08451 0.42764 0.0
C4651 C 0.29731 0.09929 0.43515 0.0
C4652 C 0.20357 0.10457 0.67693 0.0
C4653 C 0.20415 0.0766 0.67611 0.0
H4654 H 0.17913 0.1397 0.67729 0.0
C4655 C 0.1799 0.06282 0.67605 0.0
H4656 H 0.22181 0.11586 0.67734 0.0
C4657 C 0.15596 0.07644 0.67409 0.0
C4658 C 0.15537 0.10429 0.6732 0.0
H4659 H 0.17927 0.04133 0.67556 0.0
H4660 H 0.13791 0.065 0.6722 0.0
C4661 C 0.17929 0.11824 0.67607 0.0
C4662 C 0.2311 0.8809 0.89846 0.0
C4663 C 0.20705 0.87339 0.90983 0.0
H4664 H 0.25869 0.91133 0.89142 0.0
C4665 C 0.19242 0.89287 0.92389 0.0
H4666 H 0.24306 0.86681 0.88753 0.0
C4667 C 0.20222 0.91899 0.92696 0.0
C4668 C 0.22684 0.9259 0.91612 0.0
H4669 H 0.17335 0.888 0.93232 0.0
H4670 H 0.19084 0.93349 0.93797 0.0
C4671 C 0.24052 0.90661 0.90132 0.0
C4672 C 0.3581 0.32749 0.13115 0.0
C4673 C 0.34444 0.35125 0.12665 0.0
H4674 H 0.37621 0.29347 0.1137 0.0
C4675 C 0.33564 0.35741 0.10098 0.0
H4676 H 0.36471 0.32211 0.15074 0.0
C4677 C 0.34282 0.34158 0.07979 0.0
C4678 C 0.35803 0.31886 0.08408 0.0
H4679 H 0.32367 0.37487 0.09712 0.0
H4680 H 0.33685 0.34733 0.06011 0.0
C4681 C 0.36453 0.31115 0.10996 0.0
C4682 C 0.85873 0.14607 0.95004 0.0
C4683 C 0.84785 0.12764 0.96789 0.0
H4684 H 0.87329 0.18573 0.94438 0.0
C4685 C 0.83841 0.13684 0.99225 0.0
H4686 H 0.86575 0.1396 0.93089 0.0
C4687 C 0.84195 0.16338 0.99957 0.0
C4688 C 0.85598 0.18097 0.98319 0.0
H4689 H 0.82899 0.12332 1.00596 0.0
H4690 H 0.83503 0.16973 0.01877 0.0
C4691 C 0.86275 0.17257 0.95762 0.0
C4692 C 0.09129 0.62254 0.19757 0.0
C4693 C 0.08667 0.61071 0.22217 0.0
H4694 H 0.12031 0.63245 0.16846 0.0
C4695 C 0.10671 0.59557 0.23405 0.0
H4696 H 0.07581 0.63336 0.18745 0.0
C4697 C 0.13223 0.59612 0.22386 0.0
C4698 C 0.13759 0.6111 0.20124 0.0
H4699 H 0.10315 0.58518 0.25241 0.0
H4700 H 0.14795 0.58571 0.23411 0.0
C4701 C 0.11679 0.62279 0.18715 0.0
C4702 C 0.67684 0.87196 0.47807 0.0
C4703 C 0.67547 0.84592 0.46825 0.0
H4704 H 0.67321 0.91337 0.47036 0.0
C4705 C 0.6733 0.84246 0.44074 0.0
H4706 H 0.67905 0.87568 0.49881 0.0
C4707 C 0.67088 0.86448 0.4239 0.0
C4708 C 0.6703 0.89049 0.43416 0.0
H4709 H 0.67231 0.82273 0.43226 0.0
H4710 H 0.66915 0.86109 0.40289 0.0
C4711 C 0.67374 0.89382 0.46147 0.0
C4712 C 0.97522 0.95002 0.185 0.0
C4713 C 0.96759 0.94763 0.2116 0.0
H4714 H 0.9624 0.95755 0.14534 0.0
C4715 C 0.9422 0.95605 0.21917 0.0
H4716 H 0.99477 0.94399 0.17856 0.0
C4717 C 0.92393 0.96396 0.20028 0.0
C4718 C 0.93065 0.96371 0.1734 0.0
H4719 H 0.93577 0.95491 0.23952 0.0
H4720 H 0.90392 0.96839 0.20664 0.0
C4721 C 0.95672 0.95762 0.16594 0.0
C4722 C 0.17343 0.64534 0.59023 0.0
C4723 C 0.18083 0.62601 0.57162 0.0
H4724 H 0.16577 0.68663 0.5975 0.0
C4725 C 0.19367 0.63421 0.54858 0.0
H4726 H 0.16554 0.63949 0.60905 0.0
C4727 C 0.19592 0.66135 0.54286 0.0
C4728 C 0.18381 0.68053 0.55916 0.0
H4729 H 0.20108 0.61968 0.53462 0.0
H4730 H 0.20554 0.66723 0.52478 0.0
C4731 C 0.17445 0.67242 0.58395 0.0
C4732 C 0.10305 0.42995 0.32551 0.0
C4733 C 0.07715 0.4397 0.32429 0.0
H4734 H 0.13771 0.42546 0.34864 0.0
C4735 C 0.06641 0.45354 0.34584 0.0
H4736 H 0.11145 0.41833 0.30961 0.0
C4737 C 0.08124 0.45698 0.36862 0.0
C4738 C 0.10698 0.44662 0.3701 0.0
H4739 H 0.04627 0.46101 0.34533 0.0
H4740 H 0.07283 0.46836 0.38472 0.0
C4741 C 0.11774 0.43318 0.34829 0.0
C4742 C 0.44312 0.62086 0.81517 0.0
C4743 C 0.46532 0.60433 0.81783 0.0
H4744 H 0.40515 0.63154 0.83078 0.0
C4745 C 0.46377 0.58189 0.83419 0.0
H4746 H 0.44304 0.63779 0.80234 0.0
C4747 C 0.44169 0.57796 0.85013 0.0
C4748 C 0.42122 0.59676 0.85011 0.0
H4749 H 0.48067 0.56877 0.83644 0.0
H4750 H 0.44145 0.56138 0.86375 0.0
C4751 C 0.42138 0.61744 0.83168 0.0
C4752 C 0.91021 0.68194 0.68996 0.0
C4753 C 0.92035 0.67577 0.66493 0.0
H4754 H 0.9188 0.6869 0.73103 0.0
C4755 C 0.94776 0.67219 0.66179 0.0
H4756 H 0.88921 0.68529 0.69279 0.0
C4757 C 0.96469 0.67417 0.6832 0.0
C4758 C 0.95456 0.67883 0.70854 0.0
H4759 H 0.95615 0.6671 0.64278 0.0
H4760 H 0.98551 0.67006 0.68001 0.0
C4761 C 0.92722 0.68346 0.71167 0.0
C4762 C 0.1114 0.20736 0.42291 0.0
C4763 C 0.10879 0.23327 0.43298 0.0
H4764 H 0.11337 0.18268 0.38856 0.0
C4765 C 0.10391 0.25417 0.41512 0.0
H4766 H 0.11528 0.19079 0.43597 0.0
C4767 C 0.10347 0.24964 0.38791 0.0
C4768 C 0.10741 0.224 0.3777 0.0
H4769 H 0.1016 0.27441 0.42199 0.0
H4770 H 0.10034 0.26635 0.37482 0.0
C4771 C 0.11052 0.20277 0.39562 0.0
C4772 C 0.60782 0.34579 0.21848 0.0
C4773 C 0.58077 0.34234 0.21305 0.0
H4774 H 0.64758 0.33633 0.20743 0.0
C4775 C 0.57293 0.32466 0.19331 0.0
H4776 H 0.61428 0.35956 0.23358 0.0
C4777 C 0.59188 0.31067 0.17902 0.0
C4778 C 0.61909 0.31484 0.18356 0.0
H4779 H 0.55215 0.32148 0.18907 0.0
H4780 H 0.58511 0.29654 0.16441 0.0
C4781 C 0.62686 0.33245 0.20359 0.0
C4782 C 0.42587 0.86952 0.97403 0.0
C4783 C 0.42815 0.84176 0.97534 0.0
H4784 H 0.43353 0.90476 0.95207 0.0
C4785 C 0.43979 0.82783 0.95447 0.0
H4786 H 0.41668 0.88069 0.98988 0.0
C4787 C 0.45029 0.84178 0.93306 0.0
C4788 C 0.44889 0.86977 0.93223 0.0
H4789 H 0.44225 0.80649 0.95544 0.0
H4790 H 0.46072 0.83074 0.91794 0.0
C4791 C 0.43564 0.88334 0.95246 0.0
C4792 C 0.93029 0.30544 0.82536 0.0
C4793 C 0.92891 0.31609 0.85087 0.0
H4794 H 0.94304 0.31097 0.78567 0.0
C4795 C 0.94392 0.33876 0.857 0.0
H4796 H 0.91962 0.28748 0.82033 0.0
C4797 C 0.95791 0.35205 0.83706 0.0
C4798 C 0.9566 0.34288 0.81091 0.0
H4799 H 0.94345 0.34711 0.87668 0.0
H4800 H 0.96788 0.37032 0.84194 0.0
C4801 C 0.94388 0.31875 0.80559 0.0
C4802 C 0.44527 0.18064 0.59926 0.0
C4803 C 0.46013 0.20018 0.61223 0.0
H4804 H 0.4206 0.1716 0.56613 0.0
C4805 C 0.45785 0.22676 0.60446 0.0
H4806 H 0.44705 0.15993 0.60484 0.0
C4807 C 0.44243 0.23345 0.58267 0.0
C4808 C 0.42955 0.21366 0.56806 0.0
H4809 H 0.46942 0.24204 0.61412 0.0
H4810 H 0.44262 0.25377 0.57628 0.0
C4811 C 0.43032 0.1873 0.57708 0.0
C4812 C 0.61749 0.69959 0.33935 0.0
C4813 C 0.60869 0.6989 0.36549 0.0
H4814 H 0.60731 0.69467 0.2989 0.0
C4815 C 0.58154 0.69614 0.37081 0.0
H4816 H 0.63831 0.70218 0.33489 0.0
C4817 C 0.56373 0.69134 0.35035 0.0
C4818 C 0.57288 0.68948 0.32428 0.0
H4819 H 0.57438 0.6958 0.39095 0.0
H4820 H 0.5433 0.68704 0.35522 0.0
C4821 C 0.59962 0.69548 0.31884 0.0
C4822 C 0.10589 0.82255 0.08578 0.0
C4823 C 0.09471 0.82497 0.06063 0.0
H4824 H 0.10776 0.83882 0.12468 0.0
C4825 C 0.07189 0.84049 0.05726 0.0
H4826 H 0.12263 0.80992 0.08948 0.0
C4827 C 0.06291 0.8566 0.07757 0.0
C4828 C 0.07671 0.85741 0.1015 0.0
H4829 H 0.06238 0.842 0.03815 0.0
H4830 H 0.04609 0.86951 0.07404 0.0
C4831 C 0.09724 0.83912 0.10607 0.0
C4832 C 0.69895 0.92569 0.67743 0.0
C4833 C 0.69764 0.95279 0.68417 0.0
H4834 H 0.67737 0.89012 0.66877 0.0
C4835 C 0.67314 0.96317 0.69204 0.0
H4836 H 0.71763 0.91674 0.67175 0.0
C4837 C 0.64989 0.94889 0.68798 0.0
C4838 C 0.65049 0.92263 0.67815 0.0
H4839 H 0.67165 0.98341 0.69909 0.0
H4840 H 0.63156 0.95946 0.69126 0.0
C4841 C 0.67561 0.91067 0.6748 0.0
C4842 C 0.8312 0.89406 0.42086 0.0
C4843 C 0.85649 0.8958 0.43177 0.0
H4844 H 0.79662 0.91437 0.40873 0.0
C4845 C 0.86492 0.92037 0.4421 0.0
H4846 H 0.82422 0.87544 0.4127 0.0
C4847 C 0.84894 0.94332 0.4396 0.0
C4848 C 0.82377 0.94167 0.42783 0.0
H4849 H 0.88412 0.9219 0.45146 0.0
H4850 H 0.85635 0.96225 0.44654 0.0
C4851 C 0.8151 0.91652 0.4191 0.0
C4852 C 0.83675 0.07535 0.18294 0.0
C4853 C 0.81268 0.08918 0.18356 0.0
H4854 H 0.8791 0.07821 0.1856 0.0
C4855 C 0.81253 0.11624 0.19051 0.0
H4856 H 0.83722 0.05439 0.17838 0.0
C4857 C 0.83615 0.12977 0.19468 0.0
C4858 C 0.86036 0.11642 0.19239 0.0
H4859 H 0.79417 0.12737 0.19157 0.0
H4860 H 0.83554 0.15088 0.19888 0.0
C4861 C 0.86054 0.0889 0.18737 0.0
C4862 C 0.68523 0.13551 0.91685 0.0
C4863 C 0.70302 0.15283 0.92948 0.0
H4864 H 0.67483 0.09477 0.90935 0.0
C4865 C 0.72006 0.14258 0.94871 0.0
H4866 H 0.67066 0.14317 0.90315 0.0
C4867 C 0.72271 0.11506 0.95153 0.0
C4868 C 0.7086 0.09764 0.93496 0.0
H4869 H 0.73307 0.15563 0.95967 0.0
H4870 H 0.73878 0.10762 0.96348 0.0
C4871 C 0.68739 0.10796 0.9205 0.0
C4872 C 0.65744 0.09548 0.857 0.0
C4873 C 0.64199 0.0721 0.85526 0.0
H4874 H 0.69634 0.11243 0.86066 0.0
C4875 C 0.6556 0.04775 0.85283 0.0
H4876 H 0.64828 0.11483 0.8588 0.0
C4877 C 0.68326 0.04655 0.85465 0.0
C4878 C 0.69827 0.06954 0.85892 0.0
H4879 H 0.64492 0.02941 0.8497 0.0
H4880 H 0.69286 0.02747 0.85292 0.0
C4881 C 0.68524 0.09419 0.85822 0.0
C4882 C 0.7403 0.93447 0.60038 0.0
C4883 C 0.71884 0.94866 0.61099 0.0
H4884 H 0.75672 0.89642 0.59063 0.0
C4885 C 0.695 0.9351 0.61527 0.0
H4886 H 0.75839 0.94453 0.5951 0.0
C4887 C 0.69378 0.90742 0.61221 0.0
C4888 C 0.71634 0.89264 0.60471 0.0
H4889 H 0.67771 0.94564 0.62245 0.0
H4890 H 0.67544 0.89761 0.61699 0.0
C4891 C 0.73932 0.90676 0.59779 0.0
C4892 C 0.84569 0.9799 0.36113 0.0
C4893 C 0.82579 0.96057 0.36179 0.0
H4894 H 0.88729 0.98811 0.3648 0.0
C4895 C 0.83317 0.93362 0.36212 0.0
H4896 H 0.84047 1.00052 0.35879 0.0
C4897 C 0.85976 0.92638 0.36523 0.0
C4898 C 0.87933 0.94598 0.36756 0.0
H4899 H 0.81829 0.91816 0.36163 0.0
H4900 H 0.86496 0.90552 0.36638 0.0
C4901 C 0.87229 0.97276 0.36438 0.0
C4902 C 0.79785 0.1506 0.09049 0.0
C4903 C 0.81967 0.1607 0.10409 0.0
H4904 H 0.77511 0.11613 0.08119 0.0
C4905 C 0.83763 0.14287 0.11579 0.0
H4906 H 0.78443 0.16383 0.08019 0.0
C4907 C 0.8315 0.11579 0.11777 0.0
C4908 C 0.80781 0.10623 0.10698 0.0
H4909 H 0.85553 0.15018 0.12475 0.0
H4910 H 0.84405 0.10299 0.12954 0.0
C4911 C 0.79252 0.1234 0.09119 0.0
C4912 C 0.68033 0.71988 0.92183 0.0
C4913 C 0.68643 0.71484 0.94839 0.0
H4914 H 0.68117 0.70517 0.88223 0.0
C4915 C 0.70172 0.69257 0.95488 0.0
H4916 H 0.66847 0.73696 0.91632 0.0
C4917 C 0.70955 0.6748 0.93538 0.0
C4918 C 0.70157 0.67848 0.90903 0.0
H4919 H 0.70712 0.68852 0.97517 0.0
H4920 H 0.72159 0.65794 0.94112 0.0
C4921 C 0.6875 0.70162 0.90232 0.0
C4922 C 0.18042 0.88179 0.09771 0.0
C4923 C 0.16514 0.90272 0.08687 0.0
H4924 H 0.1928 0.84082 0.09414 0.0
C4925 C 0.15009 0.89772 0.06429 0.0
H4926 H 0.19186 0.88484 0.11549 0.0
C4927 C 0.15064 0.87287 0.05247 0.0
C4928 C 0.1664 0.85219 0.06257 0.0
H4929 H 0.13816 0.91317 0.05533 0.0
H4930 H 0.13844 0.8699 0.03528 0.0
C4931 C 0.18088 0.85657 0.0857 0.0
C4932 C 0.89653 0.43075 0.84673 0.0
C4933 C 0.87593 0.41651 0.83404 0.0
H4934 H 0.93791 0.44213 0.84624 0.0
C4935 C 0.88232 0.40252 0.81096 0.0
H4936 H 0.89269 0.44144 0.86485 0.0
C4937 C 0.90799 0.40233 0.80109 0.0
C4938 C 0.92841 0.41696 0.813 0.0
H4939 H 0.86743 0.39164 0.80009 0.0
H4940 H 0.91178 0.39029 0.78391 0.0
C4941 C 0.92258 0.43094 0.83631 0.0
C4942 C 0.33803 0.17182 0.54496 0.0
C4943 C 0.35243 0.19054 0.55977 0.0
H4944 H 0.32831 0.13071 0.53936 0.0
C4945 C 0.3631 0.18262 0.58413 0.0
H4946 H 0.32923 0.1774 0.52628 0.0
C4947 C 0.36232 0.15577 0.59173 0.0
C4948 C 0.35093 0.13661 0.57503 0.0
H4949 H 0.37433 0.19651 0.59598 0.0
H4950 H 0.37235 0.14971 0.60962 0.0
C4951 C 0.33771 0.14504 0.55225 0.0
C4952 C 0.06508 0.08959 0.84772 0.0
C4953 C 0.07331 0.09506 0.82175 0.0
H4954 H 0.07692 0.0794 0.88708 0.0
C4955 C 0.09965 0.0896 0.81471 0.0
H4956 H 0.0448 0.09263 0.85367 0.0
C4957 C 0.11792 0.08171 0.83374 0.0
C4958 C 0.11017 0.07891 0.86016 0.0
H4959 H 0.10657 0.09258 0.79481 0.0
H4960 H 0.13846 0.0793 0.82801 0.0
C4961 C 0.08343 0.08201 0.86689 0.0
C4962 C 0.86545 0.39079 0.44926 0.0
C4963 C 0.8529 0.40904 0.4663 0.0
H4964 H 0.87755 0.35025 0.44315 0.0
C4965 C 0.83808 0.39911 0.48752 0.0
H4966 H 0.87643 0.39779 0.43229 0.0
C4967 C 0.83792 0.37188 0.49309 0.0
C4968 C 0.85343 0.35408 0.47826 0.0
H4969 H 0.82726 0.41252 0.50033 0.0
H4970 H 0.82725 0.36501 0.51029 0.0
C4971 C 0.86573 0.3635 0.45522 0.0
C4972 C 0.93346 0.61258 0.70535 0.0
C4973 C 0.95987 0.60432 0.70684 0.0
H4974 H 0.8983 0.61359 0.68213 0.0
C4975 C 0.97117 0.58962 0.68607 0.0
H4976 H 0.92449 0.62435 0.72086 0.0
C4977 C 0.95609 0.58343 0.66389 0.0
C4978 C 0.93002 0.59259 0.66224 0.0
H4979 H 0.99163 0.58317 0.68693 0.0
H4980 H 0.96462 0.57153 0.64822 0.0
C4981 C 0.91873 0.60701 0.68304 0.0
C4982 C 0.62695 0.43584 0.24467 0.0
C4983 C 0.64161 0.42656 0.22285 0.0
H4984 H 0.58856 0.4402 0.26251 0.0
C4985 C 0.62793 0.41353 0.20241 0.0
H4986 H 0.63663 0.44643 0.26054 0.0
C4987 C 0.6005 0.41019 0.20356 0.0
C4988 C 0.58601 0.41906 0.22548 0.0
H4989 H 0.63842 0.40571 0.18547 0.0
H4990 H 0.59067 0.40013 0.18741 0.0
C4991 C 0.5994 0.43231 0.24583 0.0
C4992 C 0.61218 0.83644 0.84362 0.0
C4993 C 0.60901 0.85477 0.8641 0.0
H4994 H 0.59913 0.82449 0.80536 0.0
C4995 C 0.58727 0.87196 0.86436 0.0
H4996 H 0.62834 0.82225 0.84386 0.0
C4997 C 0.56992 0.87239 0.84313 0.0
C4998 C 0.57466 0.85622 0.8211 0.0
H4999 H 0.58411 0.8855 0.8807 0.0
H5000 H 0.55447 0.887 0.84345 0.0
C5001 C 0.59516 0.83732 0.82208 0.0
C5002 C 0.42459 0.32984 0.09657 0.0
C5003 C 0.43034 0.30574 0.08385 0.0
H5004 H 0.42122 0.35092 0.13278 0.0
C5005 C 0.43941 0.28423 0.09894 0.0
H5006 H 0.41742 0.3468 0.08548 0.0
C5007 C 0.44219 0.28671 0.12643 0.0
C5008 C 0.43606 0.31086 0.13927 0.0
H5009 H 0.44492 0.26576 0.08945 0.0
H5010 H 0.44971 0.26992 0.13749 0.0
C5011 C 0.42696 0.33224 0.12383 0.0
C5012 C 0.92546 0.21769 0.32797 0.0
C5013 C 0.92275 0.21052 0.35459 0.0
H5014 H 0.94769 0.21299 0.29234 0.0
C5015 C 0.94122 0.19295 0.36589 0.0
H5016 H 0.91189 0.23161 0.31886 0.0
C5017 C 0.96216 0.18299 0.35092 0.0
C5018 C 0.96468 0.19013 0.32434 0.0
H5019 H 0.93941 0.18679 0.38627 0.0
H5020 H 0.97577 0.16899 0.35987 0.0
C5021 C 0.94616 0.20742 0.31293 0.0
C5022 C 0.11039 0.6671 0.56722 0.0
C5023 C 0.11105 0.69504 0.56644 0.0
H5024 H 0.10669 0.63215 0.59098 0.0
C5025 C 0.1059 0.70927 0.58961 0.0
H5026 H 0.11385 0.6555 0.54954 0.0
C5027 C 0.10201 0.69585 0.61353 0.0
C5028 C 0.10286 0.66785 0.61462 0.0
H5029 H 0.10496 0.73071 0.58922 0.0
H5030 H 0.09915 0.70744 0.63131 0.0
C5031 C 0.10642 0.65367 0.59101 0.0
C5032 C 0.57943 0.21325 0.72504 0.0
C5033 C 0.57111 0.18702 0.72113 0.0
H5034 H 0.60258 0.24552 0.71026 0.0
C5035 C 0.57637 0.1745 0.69705 0.0
H5036 H 0.57599 0.22314 0.74373 0.0
C5037 C 0.59181 0.18711 0.67795 0.0
C5038 C 0.6022 0.21234 0.68311 0.0
H5039 H 0.57084 0.15415 0.69391 0.0
H5040 H 0.59736 0.17638 0.66025 0.0
C5041 C 0.59486 0.22588 0.70613 0.0
C5042 C 0.09776 0.3288 0.92532 0.0
C5043 C 0.08563 0.3539 0.9265 0.0
H5044 H 0.11633 0.2975 0.94727 0.0
C5045 C 0.08025 0.36551 0.95095 0.0
H5046 H 0.10217 0.31969 0.90645 0.0
C5047 C 0.08852 0.35302 0.97398 0.0
C5048 C 0.10255 0.32887 0.97287 0.0
H5049 H 0.07094 0.38489 0.95213 0.0
H5050 H 0.08515 0.36305 0.99259 0.0
C5051 C 0.10603 0.31622 0.94851 0.0
C5052 C 0.96318 0.83525 0.21351 0.0
C5053 C 0.97415 0.86087 0.21372 0.0
H5054 H 0.93784 0.8077 0.19342 0.0
C5055 C 0.9715 0.87678 0.19113 0.0
H5056 H 0.96443 0.82277 0.23088 0.0
C5057 C 0.95607 0.86831 0.16982 0.0
C5058 C 0.94321 0.84369 0.17078 0.0
H5059 H 0.97934 0.89658 0.1907 0.0
H5060 H 0.95241 0.88188 0.15364 0.0
C5061 C 0.94786 0.82668 0.19219 0.0
C5062 C 0.42993 0.64779 0.45443 0.0
C5063 C 0.4443 0.65637 0.43234 0.0
H5064 H 0.41241 0.65871 0.49126 0.0
C5065 C 0.45398 0.68254 0.43161 0.0
H5066 H 0.42241 0.62768 0.45556 0.0
C5067 C 0.44821 0.70025 0.4518 0.0
C5068 C 0.43298 0.69205 0.47336 0.0
H5069 H 0.46606 0.68945 0.41535 0.0
H5070 H 0.45526 0.72051 0.45025 0.0
C5071 C 0.42444 0.66549 0.47491 0.0
C5072 C 0.86711 0.56985 0.87503 0.0
C5073 C 0.84172 0.57733 0.8662 0.0
H5074 H 0.90679 0.58077 0.8835 0.0
C5075 C 0.83764 0.60418 0.85926 0.0
H5076 H 0.87111 0.55033 0.88262 0.0
C5077 C 0.85893 0.6225 0.86038 0.0
C5078 C 0.88424 0.61411 0.86882 0.0
H5079 H 0.81824 0.61095 0.85315 0.0
H5080 H 0.85574 0.64292 0.85444 0.0
C5081 C 0.88777 0.58772 0.87634 0.0
C5082 C 0.68662 0.58639 0.1186 0.0
C5083 C 0.7127 0.57688 0.1164 0.0
H5084 H 0.66123 0.6205 0.11925 0.0
C5085 C 0.73301 0.59489 0.11076 0.0
H5086 H 0.6703 0.57287 0.12195 0.0
C5087 C 0.72813 0.62229 0.1112 0.0
C5088 C 0.70236 0.63185 0.11533 0.0
H5089 H 0.75266 0.58772 0.10633 0.0
H5090 H 0.74435 0.63597 0.10796 0.0
C5091 C 0.68146 0.61365 0.11754 0.0
C5092 C 0.69487 0.46355 0.36151 0.0
C5093 C 0.71949 0.45935 0.34956 0.0
H5094 H 0.65585 0.44789 0.3671 0.0
C5095 C 0.72166 0.44175 0.32825 0.0
H5096 H 0.69233 0.47784 0.37703 0.0
C5097 C 0.70106 0.42463 0.32266 0.0
C5098 C 0.67808 0.42556 0.33798 0.0
H5099 H 0.7403 0.43904 0.31796 0.0
H5100 H 0.70373 0.40955 0.30762 0.0
C5101 C 0.6741 0.44633 0.35595 0.0
C5102 C 0.85399 0.39673 0.6161 0.0
C5103 C 0.83556 0.37878 0.6054 0.0
H5104 H 0.86361 0.43786 0.6228 0.0
C5105 C 0.81599 0.38846 0.58842 0.0
H5106 H 0.87033 0.38954 0.62797 0.0
C5107 C 0.81202 0.41588 0.58613 0.0
C5108 C 0.82724 0.43379 0.60117 0.0
H5109 H 0.80231 0.37495 0.57892 0.0
H5110 H 0.79452 0.42276 0.57593 0.0
C5111 C 0.85033 0.42423 0.61307 0.0
C5112 C 0.88424 0.48204 0.68093 0.0
C5113 C 0.89764 0.45785 0.67639 0.0
H5114 H 0.84714 0.5023 0.68394 0.0
C5115 C 0.88198 0.43468 0.67379 0.0
H5116 H 0.89504 0.50019 0.68464 0.0
C5117 C 0.85417 0.436 0.6744 0.0
C5118 C 0.84121 0.46059 0.67612 0.0
H5119 H 0.89086 0.41545 0.6703 0.0
H5120 H 0.84287 0.41794 0.67162 0.0
C5121 C 0.85653 0.48333 0.68069 0.0
C5122 C 0.79527 0.60946 0.93836 0.0
C5123 C 0.81519 0.59026 0.93375 0.0
H5124 H 0.78439 0.65057 0.93838 0.0
C5125 C 0.84135 0.59915 0.93044 0.0
H5126 H 0.77492 0.60368 0.94185 0.0
C5127 C 0.84681 0.62657 0.92895 0.0
C5128 C 0.82612 0.64543 0.93043 0.0
H5129 H 0.85728 0.58503 0.92758 0.0
H5130 H 0.86692 0.63292 0.92522 0.0
C5131 C 0.80056 0.63654 0.93622 0.0
C5132 C 0.64501 0.5795 0.18776 0.0
C5133 C 0.648 0.60684 0.18251 0.0
H5134 H 0.66363 0.54168 0.19258 0.0
C5135 C 0.67402 0.617 0.18151 0.0
H5136 H 0.62558 0.57057 0.18903 0.0
C5137 C 0.6961 0.5999 0.18246 0.0
C5138 C 0.69276 0.5722 0.18489 0.0
H5139 H 0.67741 0.63802 0.17862 0.0
H5140 H 0.71557 0.60826 0.17923 0.0
C5141 C 0.66703 0.56263 0.18943 0.0
C5142 C 0.68802 0.43621 0.42389 0.0
C5143 C 0.71528 0.43371 0.41854 0.0
H5144 H 0.64981 0.41736 0.42282 0.0
C5145 C 0.72456 0.40985 0.40736 0.0
H5146 H 0.68005 0.45461 0.43166 0.0
C5147 C 0.70738 0.38904 0.40199 0.0
C5148 C 0.68034 0.39124 0.40774 0.0
H5149 H 0.74499 0.40747 0.40148 0.0
H5150 H 0.71531 0.37099 0.39337 0.0
C5151 C 0.67066 0.41514 0.41841 0.0
C5152 C 0.83499 0.80095 0.60037 0.0
C5153 C 0.85796 0.80771 0.58637 0.0
H5154 H 0.80609 0.81309 0.62875 0.0
C5155 C 0.86947 0.83269 0.5903 0.0
H5156 H 0.82567 0.78176 0.59762 0.0
C5157 C 0.85847 0.85051 0.60828 0.0
C5158 C 0.83588 0.84343 0.62269 0.0
H5159 H 0.88713 0.8385 0.58006 0.0
H5160 H 0.86788 0.86961 0.61124 0.0
C5161 C 0.82396 0.81868 0.61833 0.0
C5162 C 0.35829 0.64963 0.44871 0.0
C5163 C 0.34591 0.63124 0.46568 0.0
H5164 H 0.37336 0.68933 0.44404 0.0
C5165 C 0.33488 0.64076 0.48933 0.0
H5166 H 0.36679 0.64307 0.4302 0.0
C5167 C 0.33817 0.66728 0.49692 0.0
C5168 C 0.35291 0.68498 0.48132 0.0
H5169 H 0.32441 0.62745 0.50247 0.0
H5170 H 0.33051 0.67353 0.51589 0.0
C5171 C 0.36178 0.67627 0.45647 0.0
C5172 C 0.6165 0.12869 0.72218 0.0
C5173 C 0.59433 0.11284 0.71632 0.0
H5174 H 0.65353 0.14446 0.70916 0.0
C5175 C 0.5927 0.10085 0.69132 0.0
H5176 H 0.61782 0.13957 0.74047 0.0
C5177 C 0.61335 0.10412 0.673 0.0
C5178 C 0.63524 0.1202 0.67919 0.0
H5179 H 0.57554 0.08915 0.686 0.0
H5180 H 0.6125 0.09377 0.65429 0.0
C5181 C 0.63657 0.13242 0.70385 0.0
C5182 C 0.16814 0.35909 0.95186 0.0
C5183 C 0.18236 0.34892 0.97339 0.0
H5184 H 0.15774 0.39406 0.92984 0.0
C5185 C 0.20019 0.36574 0.98663 0.0
H5186 H 0.15443 0.34666 0.9411 0.0
C5187 C 0.20083 0.39296 0.98117 0.0
C5188 C 0.1845 0.40357 0.96152 0.0
H5189 H 0.21224 0.35816 1.00258 0.0
H5190 H 0.21343 0.40583 0.99279 0.0
C5191 C 0.16949 0.38624 0.94582 0.0
C5192 C 0.45343 0.46187 0.67737 0.0
C5193 C 0.42585 0.45854 0.67887 0.0
H5194 H 0.49101 0.45449 0.69537 0.0
C5195 C 0.41486 0.44679 0.70144 0.0
H5196 H 0.46243 0.47136 0.66043 0.0
C5197 C 0.43116 0.43752 0.72159 0.0
C5198 C 0.4588 0.43964 0.71955 0.0
H5199 H 0.3937 0.44371 0.70306 0.0
H5200 H 0.42207 0.42723 0.73789 0.0
C5201 C 0.46976 0.45252 0.69753 0.0
C5202 C 0.67176 0.14164 0.08467 0.0
C5203 C 0.68259 0.12238 0.06759 0.0
H5204 H 0.66233 0.18283 0.09049 0.0
C5205 C 0.69717 0.13092 0.04563 0.0
H5206 H 0.66103 0.13565 0.10217 0.0
C5207 C 0.69889 0.15801 0.03963 0.0
C5208 C 0.68511 0.17699 0.05475 0.0
H5209 H 0.70672 0.11661 0.03278 0.0
H5210 H 0.70952 0.16397 0.02207 0.0
C5211 C 0.67295 0.16873 0.07827 0.0
C5212 C 0.56395 0.94821 0.84585 0.0
C5213 C 0.57535 0.93531 0.82394 0.0
H5214 H 0.57034 0.96346 0.88492 0.0
C5215 C 0.60244 0.92941 0.82387 0.0
H5216 H 0.54304 0.95302 0.84624 0.0
C5217 C 0.61759 0.9349 0.84592 0.0
C5218 C 0.60595 0.94654 0.8682 0.0
H5219 H 0.6116 0.91889 0.80763 0.0
H5220 H 0.63843 0.92967 0.84579 0.0
C5221 C 0.57926 0.95377 0.86802 0.0
C5222 C 0.92143 0.11968 0.32669 0.0
C5223 C 0.92108 0.09983 0.34607 0.0
H5224 H 0.94395 0.13978 0.29761 0.0
C5225 C 0.94269 0.08253 0.34848 0.0
H5226 H 0.9046 0.13282 0.32414 0.0
C5227 C 0.96553 0.08696 0.33369 0.0
C5228 C 0.96683 0.10834 0.31595 0.0
H5229 H 0.9426 0.0668 0.36305 0.0
H5230 H 0.98288 0.07485 0.33753 0.0
C5231 C 0.94401 0.12354 0.31131 0.0
C5232 C 0.45314 0.16626 0.17094 0.0
C5233 C 0.43558 0.18773 0.17092 0.0
H5234 H 0.4806 0.14395 0.1935 0.0
C5235 C 0.43588 0.20615 0.1916 0.0
H5236 H 0.45303 0.15191 0.15499 0.0
C5237 C 0.45199 0.20153 0.21345 0.0
C5238 C 0.46791 0.17866 0.21448 0.0
H5239 H 0.42252 0.22302 0.19159 0.0
H5240 H 0.4505 0.21465 0.23035 0.0
C5241 C 0.46931 0.16192 0.19265 0.0
C5242 C 0.61952 0.70373 0.93475 0.0
C5243 C 0.61341 0.7276 0.94776 0.0
H5244 H 0.6231 0.68307 0.89831 0.0
C5245 C 0.60366 0.749 0.93292 0.0
H5246 H 0.62712 0.68681 0.94561 0.0
C5247 C 0.60073 0.74672 0.90541 0.0
C5248 C 0.60739 0.72288 0.89226 0.0
H5249 H 0.59776 0.76723 0.94263 0.0
H5250 H 0.59275 0.76345 0.89459 0.0
C5251 C 0.61699 0.70154 0.90746 0.0
C5252 C 0.09184 0.84461 0.67069 0.0
C5253 C 0.11057 0.82778 0.68265 0.0
H5254 H 0.05697 0.86829 0.67594 0.0
C5255 C 0.10757 0.82091 0.70927 0.0
H5256 H 0.09377 0.85023 0.65016 0.0
C5257 C 0.08651 0.83098 0.72383 0.0
C5258 C 0.068 0.84805 0.71202 0.0
H5259 H 0.12129 0.80742 0.7188 0.0
H5260 H 0.08492 0.82569 0.74448 0.0
C5261 C 0.07062 0.85462 0.68528 0.0
C5262 C 0.93986 0.30924 0.45289 0.0
C5263 C 0.9294 0.32889 0.46957 0.0
H5264 H 0.96446 0.30094 0.41942 0.0
C5265 C 0.93168 0.35568 0.46252 0.0
H5266 H 0.93866 0.28857 0.45762 0.0
C5267 C 0.94579 0.36271 0.44007 0.0
C5268 C 0.95828 0.34302 0.42496 0.0
H5269 H 0.92365 0.37122 0.475 0.0
H5270 H 0.94884 0.38358 0.43577 0.0
C5271 C 0.95455 0.31625 0.4308 0.0
C5272 C 0.45205 0.83245 0.33426 0.0
C5273 C 0.4427 0.85063 0.31546 0.0
H5274 H 0.44288 0.80731 0.36671 0.0
C5275 C 0.41576 0.85768 0.3155 0.0
H5276 H 0.47267 0.82648 0.33468 0.0
C5277 C 0.39861 0.847 0.33443 0.0
C5278 C 0.40816 0.82903 0.35346 0.0
H5279 H 0.40811 0.87192 0.30141 0.0
H5280 H 0.378 0.85301 0.33437 0.0
C5281 C 0.435 0.82172 0.35292 0.0
C5282 C 0.91772 0.7097 0.11533 0.0
C5283 C 0.93788 0.69074 0.1175 0.0
H5284 H 0.89804 0.73716 0.09104 0.0
C5285 C 0.95618 0.68774 0.09694 0.0
H5286 H 0.90366 0.71261 0.13124 0.0
C5287 C 0.95269 0.70179 0.07345 0.0
C5288 C 0.93126 0.71943 0.07045 0.0
H5289 H 0.97217 0.67343 0.09846 0.0
H5290 H 0.96577 0.69762 0.057 0.0
C5291 C 0.91473 0.7242 0.09217 0.0
C5292 C 0.09725 0.21067 0.8434 0.0
C5293 C 0.09975 0.19263 0.86432 0.0
H5294 H 0.0817 0.21732 0.80462 0.0
C5295 C 0.08441 0.16945 0.86431 0.0
H5296 H 0.10884 0.22876 0.84308 0.0
C5297 C 0.0683 0.16339 0.84283 0.0
C5298 C 0.06763 0.18009 0.82072 0.0
H5299 H 0.0858 0.15539 0.88045 0.0
H5300 H 0.05804 0.14476 0.84308 0.0
C5301 C 0.08156 0.20424 0.82159 0.0
C5302 C 0.58584 0.33862 0.60393 0.0
C5303 C 0.59017 0.36622 0.60598 0.0
H5304 H 0.59156 0.30342 0.58055 0.0
C5305 C 0.60691 0.37867 0.58774 0.0
H5306 H 0.57286 0.32848 0.61761 0.0
C5307 C 0.61689 0.36452 0.56642 0.0
C5308 C 0.61122 0.33741 0.56342 0.0
H5309 H 0.61126 0.39969 0.5892 0.0
H5310 H 0.62847 0.37506 0.55179 0.0
C5311 C 0.59647 0.32423 0.58277 0.0
C5312 C 0.16112 0.45953 0.18176 0.0
C5313 C 0.15774 0.43245 0.1755 0.0
H5314 H 0.18834 0.49215 0.18538 0.0
C5315 C 0.18054 0.41645 0.17346 0.0
H5316 H 0.14418 0.4725 0.18419 0.0
C5317 C 0.20586 0.42783 0.17438 0.0
C5318 C 0.20888 0.45546 0.17701 0.0
H5319 H 0.17886 0.39528 0.17006 0.0
H5320 H 0.22294 0.41522 0.17097 0.0
C5321 C 0.18646 0.47093 0.18235 0.0
C5322 C 0.30678 0.4267 0.94946 0.0
C5323 C 0.32085 0.44398 0.93271 0.0
H5324 H 0.30062 0.38638 0.96178 0.0
C5325 C 0.34474 0.43494 0.92176 0.0
H5326 H 0.28886 0.43341 0.95911 0.0
C5327 C 0.35145 0.40781 0.92314 0.0
C5328 C 0.33468 0.3898 0.93624 0.0
H5329 H 0.3567 0.44815 0.90995 0.0
H5330 H 0.36863 0.40064 0.91248 0.0
C5331 C 0.31331 0.39974 0.9508 0.0
C5332 C 0.33543 0.62469 0.69996 0.0
C5333 C 0.35934 0.61121 0.69618 0.0
H5334 H 0.29353 0.62354 0.69599 0.0
C5335 C 0.35918 0.5844 0.68838 0.0
H5336 H 0.33523 0.64525 0.70631 0.0
C5337 C 0.33526 0.57192 0.68224 0.0
C5338 C 0.31155 0.58624 0.68373 0.0
H5339 H 0.37758 0.57368 0.68552 0.0
H5340 H 0.33537 0.55164 0.67547 0.0
C5341 C 0.31169 0.61221 0.69398 0.0
C5342 C 0.19721 0.64833 0.4048 0.0
C5343 C 0.16982 0.64616 0.40783 0.0
H5344 H 0.2343 0.63 0.40623 0.0
C5345 C 0.159 0.62128 0.41464 0.0
H5346 H 0.2062 0.66683 0.39855 0.0
C5347 C 0.17572 0.59933 0.41938 0.0
C5348 C 0.20339 0.6021 0.41729 0.0
H5349 H 0.13781 0.6189 0.41664 0.0
H5350 H 0.16705 0.58024 0.42404 0.0
C5351 C 0.21358 0.62699 0.40988 0.0
C5352 C 0.15528 0.55116 0.35205 0.0
C5353 C 0.14229 0.5759 0.35393 0.0
H5354 H 0.19223 0.53021 0.35128 0.0
C5355 C 0.15823 0.59898 0.35401 0.0
H5356 H 0.1441 0.5329 0.35046 0.0
C5357 C 0.18599 0.59718 0.35449 0.0
C5358 C 0.1986 0.57232 0.35554 0.0
H5359 H 0.14948 0.61858 0.35519 0.0
H5360 H 0.19748 0.61527 0.35572 0.0
C5361 C 0.18301 0.5495 0.35263 0.0
C5362 C 0.19595 0.39427 0.11161 0.0
C5363 C 0.21765 0.37711 0.10702 0.0
H5364 H 0.18214 0.43442 0.11722 0.0
C5365 C 0.24208 0.38884 0.10079 0.0
H5366 H 0.17666 0.38626 0.11541 0.0
C5367 C 0.24516 0.41644 0.10142 0.0
C5368 C 0.22408 0.43336 0.10872 0.0
H5369 H 0.25905 0.37675 0.09561 0.0
H5370 H 0.26459 0.42438 0.09709 0.0
C5371 C 0.19903 0.42204 0.11238 0.0
C5372 C 0.34445 0.49086 0.84932 0.0
C5373 C 0.32936 0.46856 0.85615 0.0
H5374 H 0.38295 0.50701 0.84219 0.0
C5375 C 0.34219 0.44392 0.85838 0.0
H5376 H 0.3349 0.50967 0.84564 0.0
C5377 C 0.3699 0.4422 0.85662 0.0
C5378 C 0.38542 0.46504 0.85179 0.0
H5379 H 0.33101 0.42622 0.86321 0.0
H5380 H 0.37907 0.42313 0.86038 0.0
C5381 C 0.37208 0.48921 0.84725 0.0
C5382 C 0.29973 0.65023 0.58825 0.0
C5383 C 0.31983 0.66026 0.60432 0.0
H5384 H 0.27813 0.61568 0.57649 0.0
C5385 C 0.33658 0.64252 0.61765 0.0
H5386 H 0.2874 0.66352 0.57676 0.0
C5387 C 0.33068 0.6154 0.61845 0.0
C5388 C 0.30835 0.60582 0.60512 0.0
H5389 H 0.35321 0.64996 0.62868 0.0
H5390 H 0.34203 0.60256 0.63134 0.0
C5391 C 0.29453 0.62298 0.5881 0.0
C5392 C 0.1904 0.1796 0.44788 0.0
C5393 C 0.18723 0.17888 0.42037 0.0
H5394 H 0.18724 0.20263 0.48313 0.0
C5395 C 0.18038 0.20233 0.40701 0.0
H5396 H 0.19552 0.16177 0.45871 0.0
C5397 C 0.17606 0.22587 0.42105 0.0
C5398 C 0.17779 0.22617 0.4487 0.0
H5399 H 0.17799 0.20236 0.38579 0.0
H5400 H 0.17015 0.24354 0.41034 0.0
C5401 C 0.18555 0.203 0.46192 0.0
C5402 C 0.69987 0.36811 0.5435 0.0
C5403 C 0.68571 0.35016 0.55939 0.0
H5404 H 0.71116 0.40868 0.53705 0.0
C5405 C 0.67739 0.35854 0.5845 0.0
H5406 H 0.70796 0.36183 0.52476 0.0
C5407 C 0.67986 0.38529 0.59184 0.0
C5408 C 0.69063 0.40391 0.57415 0.0
H5409 H 0.6667 0.34515 0.59739 0.0
H5410 H 0.67173 0.39175 0.61056 0.0
C5411 C 0.70175 0.39488 0.55049 0.0
C5412 C 0.42553 0.92458 0.3316 0.0
C5413 C 0.43461 0.9347 0.30739 0.0
H5414 H 0.39193 0.91735 0.35656 0.0
C5415 C 0.41683 0.94922 0.29163 0.0
H5416 H 0.43862 0.91305 0.34407 0.0
C5417 C 0.39002 0.95108 0.29839 0.0
C5418 C 0.38036 0.93891 0.32138 0.0
H5419 H 0.42329 0.95757 0.27303 0.0
H5420 H 0.37666 0.96136 0.28515 0.0
C5421 C 0.39865 0.92671 0.33855 0.0
C5422 C 0.85524 0.66664 0.09415 0.0
C5423 C 0.83908 0.67765 0.11389 0.0
H5424 H 0.87559 0.67311 0.05781 0.0
C5425 C 0.82967 0.70375 0.11113 0.0
H5426 H 0.86278 0.64655 0.09592 0.0
C5427 C 0.83664 0.71875 0.08918 0.0
C5428 C 0.85301 0.70783 0.06961 0.0
H5429 H 0.81662 0.71245 0.12575 0.0
H5430 H 0.82965 0.73907 0.08775 0.0
C5431 C 0.8621 0.68161 0.07212 0.0
C5432 C 0.59474 0.62107 0.32061 0.0
C5433 C 0.57311 0.60464 0.31469 0.0
H5434 H 0.62984 0.62627 0.34382 0.0
C5435 C 0.57293 0.57852 0.32446 0.0
H5436 H 0.59595 0.64097 0.3133 0.0
C5437 C 0.59284 0.56979 0.34149 0.0
C5438 C 0.61291 0.58727 0.34931 0.0
H5439 H 0.55634 0.56551 0.32045 0.0
H5440 H 0.59148 0.55013 0.35008 0.0
C5441 C 0.61436 0.61258 0.33803 0.0
C5442 C 0.366 0.8675 0.9571 0.0
C5443 C 0.35539 0.85896 0.98125 0.0
H5444 H 0.37684 0.9008 0.93316 0.0
C5445 C 0.3419 0.87753 0.99702 0.0
H5446 H 0.37603 0.85362 0.94415 0.0
C5447 C 0.34299 0.90465 0.99119 0.0
C5448 C 0.35671 0.91365 0.96883 0.0
H5449 H 0.33174 0.87121 1.0147 0.0
H5450 H 0.33352 0.91863 1.00445 0.0
C5451 C 0.36685 0.89465 0.95103 0.0
C5452 C 0.42145 0.10368 0.18789 0.0
C5453 C 0.43261 0.08684 0.16875 0.0
H5454 H 0.42667 0.12289 0.22511 0.0
C5455 C 0.45728 0.07496 0.17333 0.0
H5456 H 0.40224 0.11278 0.18478 0.0
C5457 C 0.47088 0.08027 0.19649 0.0
C5458 C 0.45997 0.09748 0.21537 0.0
H5459 H 0.46579 0.06113 0.15928 0.0
H5460 H 0.49042 0.07174 0.19924 0.0
C5461 C 0.43494 0.10875 0.21124 0.0
C5462 C 0.08582 0.94307 0.66395 0.0
C5463 C 0.10814 0.95571 0.67452 0.0
H5464 H 0.04988 0.92238 0.67176 0.0
C5465 C 0.11045 0.9582 0.70205 0.0
H5466 H 0.08356 0.94079 0.64283 0.0
C5467 C 0.09121 0.94756 0.71872 0.0
C5468 C 0.06922 0.93431 0.70817 0.0
H5469 H 0.12719 0.96838 0.71073 0.0
H5470 H 0.09375 0.94948 0.73984 0.0
C5471 C 0.06656 0.93248 0.6806 0.0
loop_
_geom_bond_atom_site_label_1
_geom_bond_atom_site_label_2
_geom_bond_distance
_geom_bond_site_symmetry_2
_ccdc_geom_bond_type
Eu0 N29 2.600 . S
Eu0 N35 2.562 . S
Eu0 O44 2.462 . S
Eu0 O45 2.373 . S
Eu0 O47 2.432 . S
Eu0 O48 2.291 . S
Eu0 O52 2.335 . S
Eu0 O55 2.372 . S
Eu0 C64 2.787 . S
C1 N2 1.365 . S
C1 C4 1.405 . S
C1 C8 1.448 . S
N2 C1 1.365 . S
N2 C5 1.319 . S
N2 Eu11 2.600 . S
C3 C5 1.397 . S
C3 C6 1.367 . S
C3 H23 0.931 1_655 S
C4 C1 1.405 . S
C4 C6 1.403 . S
C4 C10 1.439 . S
C5 N2 1.319 . S
C5 C3 1.397 . S
C5 H16 0.930 1_655 S
C6 C3 1.367 . S
C6 C4 1.403 . S
C6 H27 0.929 . S
C7 C8 1.430 . S
C7 C9 1.387 . S
C7 C13 1.404 . S
C8 C1 1.448 . S
C8 C7 1.430 . S
C8 N12 1.351 . S
C9 C7 1.387 . S
C9 C10 1.374 . S
C9 H24 0.931 . S
C10 C4 1.439 . S
C10 C9 1.374 . S
C10 H25 0.931 . S
Eu11 N2 2.600 . S
Eu11 N12 2.562 . S
Eu11 O46 2.335 1_655 S
Eu11 O49 2.372 1_655 S
Eu11 O50 2.462 . S
Eu11 O51 2.373 . S
Eu11 O53 2.432 . S
Eu11 O54 2.291 . S
Eu11 C75 2.787 . S
N12 C8 1.351 . S
N12 Eu11 2.562 . S
N12 C14 1.325 . S
C13 C7 1.404 . S
C13 C15 1.366 . S
C13 H21 0.930 . S
C14 N12 1.325 . S
C14 C15 1.416 . S
C14 H20 0.929 . S
C15 C13 1.366 . S
C15 C14 1.416 . S
C15 H17 0.930 . S
H16 C5 0.930 1_455 S
H17 C15 0.930 . S
H18 C33 0.930 . S
H19 C40 0.930 . S
H20 C14 0.929 . S
H21 C13 0.930 . S
H22 C36 0.929 . S
H23 C3 0.931 1_455 S
H24 C9 0.931 . S
H25 C10 0.931 . S
H26 C31 0.931 . S
H27 C6 0.929 . S
H28 C39 0.930 . S
N29 Eu0 2.600 . S
N29 C30 1.365 . S
N29 C33 1.319 . S
C30 N29 1.365 . S
C30 C32 1.405 . S
C30 C38 1.448 . S
C31 H26 0.931 . S
C31 C33 1.397 . S
C31 C34 1.367 . S
C32 C30 1.405 . S
C32 C34 1.403 . S
C32 C65 1.439 . S
C33 H18 0.930 . S
C33 N29 1.319 . S
C33 C31 1.397 . S
C34 C31 1.367 . S
C34 C32 1.403 . S
C34 H41 0.929 . S
N35 Eu0 2.562 . S
N35 C36 1.325 . S
N35 C38 1.351 . S
C36 H22 0.929 . S
C36 N35 1.325 . S
C36 C40 1.416 . S
C37 C38 1.430 . S
C37 C39 1.404 . S
C37 C66 1.387 . S
C38 C30 1.448 . S
C38 N35 1.351 . S
C38 C37 1.430 . S
C39 H28 0.930 . S
C39 C37 1.404 . S
C39 C40 1.366 . S
C40 H19 0.930 . S
C40 C36 1.416 . S
C40 C39 1.366 . S
H41 C34 0.929 . S
H42 C65 0.931 . S
H43 C66 0.931 . S
O44 Eu0 2.462 . S
O44 C64 1.252 . S
O45 Eu0 2.373 . S
O45 C56 1.249 . S
O46 Eu11 2.335 1_455 S
O46 C56 1.264 . S
O47 Eu0 2.432 . S
O47 C64 1.268 . S
O48 Eu0 2.291 . S
O48 C63 1.255 . S
O49 Eu11 2.372 1_455 S
O49 C63 1.257 . S
O50 Eu11 2.462 . S
O50 C75 1.252 . S
O51 Eu11 2.373 . S
O51 C67 1.249 1_655 S
O52 Eu0 2.335 . S
O52 C67 1.264 . S
O53 Eu11 2.432 . S
O53 C75 1.268 . S
O54 Eu11 2.291 . S
O54 C74 1.255 . S
O55 Eu0 2.372 . S
O55 C74 1.257 1_455 S
C56 O45 1.249 . S
C56 O46 1.264 . S
C57 C60 1.382 . S
C57 C62 1.390 . S
C57 C64 1.506 . S
C58 C59 1.398 . S
C58 C62 1.392 . S
C59 C58 1.398 . S
C59 C61 1.372 . S
C59 H76 0.931 . S
C60 C57 1.382 . S
C60 C61 1.390 . S
C60 H77 0.931 . S
C61 C59 1.372 . S
C61 C60 1.390 . S
C61 H78 0.929 . S
C62 C57 1.390 . S
C62 C58 1.392 . S
C62 H79 0.930 . S
C63 O48 1.255 . S
C63 O49 1.257 . S
C64 Eu0 2.787 . S
C64 O44 1.252 . S
C64 O47 1.268 . S
C64 C57 1.506 . S
C65 C32 1.439 . S
C65 H42 0.931 . S
C65 C66 1.374 . S
C66 C37 1.387 . S
C66 H43 0.931 . S
C66 C65 1.374 . S
C67 O51 1.249 1_455 S
C67 O52 1.264 . S
C68 C71 1.382 . S
C68 C72 1.390 . S
C68 C75 1.506 . S
C69 C70 1.398 . S
C69 C72 1.392 . S
C70 C69 1.398 . S
C70 C73 1.372 . S
C70 H80 0.931 . S
C71 C68 1.382 . S
C71 C73 1.390 . S
C71 H81 0.931 . S
C72 C68 1.390 . S
C72 C69 1.392 . S
C72 H82 0.930 . S
C73 C70 1.372 . S
C73 C71 1.390 . S
C73 H83 0.929 . S
C74 O54 1.255 . S
C74 O55 1.257 1_655 S
C75 Eu11 2.787 . S
C75 O50 1.252 . S
C75 O53 1.268 . S
C75 C68 1.506 . S
H76 C59 0.931 . S
H77 C60 0.931 . S
H78 C61 0.929 . S
H79 C62 0.930 . S
H80 C70 0.931 . S
H81 C71 0.931 . S
H82 C72 0.930 . S
H83 C73 0.929 . S
Eu84 N113 2.600 . S
Eu84 N119 2.562 . S
Eu84 O128 2.462 . S
Eu84 O129 2.373 . S
Eu84 O131 2.432 . S
Eu84 O132 2.291 . S
Eu84 O136 2.335 . S
Eu84 O139 2.372 . S
Eu84 C148 2.787 . S
C85 N86 1.365 . S
C85 C88 1.405 . S
C85 C92 1.448 . S
N86 C85 1.365 . S
N86 C89 1.319 . S
N86 Eu95 2.600 . S
C87 C89 1.397 . S
C87 C90 1.367 . S
C87 H107 0.931 . S
C88 C85 1.405 . S
C88 C90 1.403 . S
C88 C94 1.439 . S
C89 N86 1.319 . S
C89 C87 1.397 . S
C89 H100 0.930 . S
C90 C87 1.367 . S
C90 C88 1.403 . S
C90 H111 0.929 . S
C91 C92 1.430 . S
C91 C93 1.387 . S
C91 C97 1.404 . S
C92 C85 1.448 . S
C92 C91 1.430 . S
C92 N96 1.351 . S
C93 C91 1.387 . S
C93 C94 1.374 . S
C93 H108 0.931 . S
C94 C88 1.439 . S
C94 C93 1.374 . S
C94 H109 0.931 . S
Eu95 N86 2.600 . S
Eu95 N96 2.562 . S
Eu95 O130 2.335 . S
Eu95 O133 2.372 . S
Eu95 O134 2.462 . S
Eu95 O135 2.373 . S
Eu95 O137 2.432 . S
Eu95 O138 2.291 . S
Eu95 C159 2.787 . S
N96 C92 1.351 . S
N96 Eu95 2.562 . S
N96 C98 1.325 . S
C97 C91 1.404 . S
C97 C99 1.366 . S
C97 H105 0.930 . S
C98 N96 1.325 . S
C98 C99 1.416 . S
C98 H104 0.929 . S
C99 C97 1.366 . S
C99 C98 1.416 . S
C99 H101 0.930 . S
H100 C89 0.930 . S
H101 C99 0.930 . S
H102 C117 0.930 . S
H103 C124 0.930 . S
H104 C98 0.929 . S
H105 C97 0.930 . S
H106 C120 0.929 . S
H107 C87 0.931 . S
H108 C93 0.931 . S
H109 C94 0.931 . S
H110 C115 0.931 . S
H111 C90 0.929 . S
H112 C123 0.930 . S
N113 Eu84 2.600 . S
N113 C114 1.365 . S
N113 C117 1.319 . S
C114 N113 1.365 . S
C114 C116 1.405 . S
C114 C122 1.448 . S
C115 H110 0.931 . S
C115 C117 1.397 . S
C115 C118 1.367 . S
C116 C114 1.405 . S
C116 C118 1.403 . S
C116 C149 1.439 . S
C117 H102 0.930 . S
C117 N113 1.319 . S
C117 C115 1.397 . S
C118 C115 1.367 . S
C118 C116 1.403 . S
C118 H125 0.929 . S
N119 Eu84 2.562 . S
N119 C120 1.325 . S
N119 C122 1.351 . S
C120 H106 0.929 . S
C120 N119 1.325 . S
C120 C124 1.416 . S
C121 C122 1.430 . S
C121 C123 1.404 . S
C121 C150 1.387 . S
C122 C114 1.448 . S
C122 N119 1.351 . S
C122 C121 1.430 . S
C123 H112 0.930 . S
C123 C121 1.404 . S
C123 C124 1.366 . S
C124 H103 0.930 . S
C124 C120 1.416 . S
C124 C123 1.366 . S
H125 C118 0.929 . S
H126 C149 0.931 . S
H127 C150 0.931 . S
O128 Eu84 2.462 . S
O128 C148 1.252 . S
O129 Eu84 2.373 . S
O129 C140 1.249 . S
O130 Eu95 2.335 . S
O130 C140 1.264 . S
O131 Eu84 2.432 . S
O131 C148 1.268 . S
O132 Eu84 2.291 . S
O132 C147 1.255 . S
O133 Eu95 2.372 . S
O133 C147 1.257 . S
O134 Eu95 2.462 . S
O134 C159 1.252 . S
O135 Eu95 2.373 . S
O135 C151 1.249 . S
O136 Eu84 2.335 . S
O136 C151 1.264 . S
O137 Eu95 2.432 . S
O137 C159 1.268 . S
O138 Eu95 2.291 . S
O138 C158 1.255 . S
O139 Eu84 2.372 . S
O139 C158 1.257 . S
C140 O129 1.249 . S
C140 O130 1.264 . S
C141 C144 1.382 . S
C141 C146 1.390 . S
C141 C148 1.506 . S
C142 C143 1.398 . S
C142 C146 1.392 . S
C143 C142 1.398 . S
C143 C145 1.372 . S
C143 H160 0.931 . S
C144 C141 1.382 . S
C144 C145 1.390 . S
C144 H161 0.931 . S
C145 C143 1.372 . S
C145 C144 1.390 . S
C145 H162 0.929 . S
C146 C141 1.390 . S
C146 C142 1.392 . S
C146 H163 0.930 . S
C147 O132 1.255 . S
C147 O133 1.257 . S
C148 Eu84 2.787 . S
C148 O128 1.252 . S
C148 O131 1.268 . S
C148 C141 1.506 . S
C149 C116 1.439 . S
C149 H126 0.931 . S
C149 C150 1.374 . S
C150 C121 1.387 . S
C150 H127 0.931 . S
C150 C149 1.374 . S
C151 O135 1.249 . S
C151 O136 1.264 . S
C152 C155 1.382 . S
C152 C156 1.390 . S
C152 C159 1.506 . S
C153 C154 1.398 . S
C153 C156 1.392 . S
C154 C153 1.398 . S
C154 C157 1.372 . S
C154 H164 0.931 . S
C155 C152 1.382 . S
C155 C157 1.390 . S
C155 H165 0.931 . S
C156 C152 1.390 . S
C156 C153 1.392 . S
C156 H166 0.930 . S
C157 C154 1.372 . S
C157 C155 1.390 . S
C157 H167 0.929 . S
C158 O138 1.255 . S
C158 O139 1.257 . S
C159 Eu95 2.787 . S
C159 O134 1.252 . S
C159 O137 1.268 . S
C159 C152 1.506 . S
H160 C143 0.931 . S
H161 C144 0.931 . S
H162 C145 0.929 . S
H163 C146 0.930 . S
H164 C154 0.931 . S
H165 C155 0.931 . S
H166 C156 0.930 . S
H167 C157 0.929 . S
Eu168 N197 2.600 . S
Eu168 N203 2.562 . S
Eu168 O212 2.462 . S
Eu168 O213 2.373 . S
Eu168 O215 2.432 . S
Eu168 O216 2.291 . S
Eu168 O220 2.335 . S
Eu168 O223 2.372 . S
Eu168 C232 2.787 . S
C169 N170 1.365 . S
C169 C172 1.405 . S
C169 C176 1.448 . S
N170 C169 1.365 . S
N170 C173 1.319 . S
N170 Eu179 2.600 . S
C171 C173 1.397 . S
C171 C174 1.367 . S
C171 H191 0.931 . S
C172 C169 1.405 . S
C172 C174 1.403 . S
C172 C178 1.439 . S
C173 N170 1.319 . S
C173 C171 1.397 . S
C173 H184 0.930 . S
C174 C171 1.367 . S
C174 C172 1.403 . S
C174 H195 0.929 . S
C175 C176 1.430 . S
C175 C177 1.387 . S
C175 C181 1.404 . S
C176 C169 1.448 . S
C176 C175 1.430 . S
C176 N180 1.351 . S
C177 C175 1.387 . S
C177 C178 1.374 . S
C177 H192 0.931 . S
C178 C172 1.439 . S
C178 C177 1.374 . S
C178 H193 0.931 . S
Eu179 N170 2.600 . S
Eu179 N180 2.562 . S
Eu179 O214 2.335 . S
Eu179 O217 2.372 . S
Eu179 O218 2.462 . S
Eu179 O219 2.373 . S
Eu179 O221 2.432 . S
Eu179 O222 2.291 . S
Eu179 C243 2.787 . S
N180 C176 1.351 . S
N180 Eu179 2.562 . S
N180 C182 1.325 . S
C181 C175 1.404 . S
C181 C183 1.366 . S
C181 H189 0.930 . S
C182 N180 1.325 . S
C182 C183 1.416 . S
C182 H188 0.929 . S
C183 C181 1.366 . S
C183 C182 1.416 . S
C183 H185 0.930 . S
H184 C173 0.930 . S
H185 C183 0.930 . S
H186 C201 0.930 . S
H187 C208 0.930 . S
H188 C182 0.929 . S
H189 C181 0.930 . S
H190 C204 0.929 . S
H191 C171 0.931 . S
H192 C177 0.931 . S
H193 C178 0.931 . S
H194 C199 0.931 . S
H195 C174 0.929 . S
H196 C207 0.930 . S
N197 Eu168 2.600 . S
N197 C198 1.365 . S
N197 C201 1.319 . S
C198 N197 1.365 . S
C198 C200 1.405 . S
C198 C206 1.448 . S
C199 H194 0.931 . S
C199 C201 1.397 . S
C199 C202 1.367 . S
C200 C198 1.405 . S
C200 C202 1.403 . S
C200 C233 1.439 . S
C201 H186 0.930 . S
C201 N197 1.319 . S
C201 C199 1.397 . S
C202 C199 1.367 . S
C202 C200 1.403 . S
C202 H209 0.929 . S
N203 Eu168 2.562 . S
N203 C204 1.325 . S
N203 C206 1.351 . S
C204 H190 0.929 . S
C204 N203 1.325 . S
C204 C208 1.416 . S
C205 C206 1.430 . S
C205 C207 1.404 . S
C205 C234 1.387 . S
C206 C198 1.448 . S
C206 N203 1.351 . S
C206 C205 1.430 . S
C207 H196 0.930 . S
C207 C205 1.404 . S
C207 C208 1.366 . S
C208 H187 0.930 . S
C208 C204 1.416 . S
C208 C207 1.366 . S
H209 C202 0.929 . S
H210 C233 0.931 . S
H211 C234 0.931 . S
O212 Eu168 2.462 . S
O212 C232 1.252 . S
O213 Eu168 2.373 . S
O213 C224 1.249 . S
O214 Eu179 2.335 . S
O214 C224 1.264 . S
O215 Eu168 2.432 . S
O215 C232 1.268 . S
O216 Eu168 2.291 . S
O216 C231 1.255 . S
O217 Eu179 2.372 . S
O217 C231 1.257 . S
O218 Eu179 2.462 . S
O218 C243 1.252 . S
O219 Eu179 2.373 . S
O219 C235 1.249 . S
O220 Eu168 2.335 . S
O220 C235 1.264 . S
O221 Eu179 2.432 . S
O221 C243 1.268 . S
O222 Eu179 2.291 . S
O222 C242 1.255 . S
O223 Eu168 2.372 . S
O223 C242 1.257 . S
C224 O213 1.249 . S
C224 O214 1.264 . S
C225 C228 1.382 . S
C225 C230 1.390 . S
C225 C232 1.506 . S
C226 C227 1.398 . S
C226 C230 1.392 . S
C227 C226 1.398 . S
C227 C229 1.372 . S
C227 H244 0.931 . S
C228 C225 1.382 . S
C228 C229 1.390 . S
C228 H245 0.931 . S
C229 C227 1.372 . S
C229 C228 1.390 . S
C229 H246 0.929 . S
C230 C225 1.390 . S
C230 C226 1.392 . S
C230 H247 0.930 . S
C231 O216 1.255 . S
C231 O217 1.257 . S
C232 Eu168 2.787 . S
C232 O212 1.252 . S
C232 O215 1.268 . S
C232 C225 1.506 . S
C233 C200 1.439 . S
C233 H210 0.931 . S
C233 C234 1.374 . S
C234 C205 1.387 . S
C234 H211 0.931 . S
C234 C233 1.374 . S
C235 O219 1.249 . S
C235 O220 1.264 . S
C236 C239 1.382 . S
C236 C240 1.390 . S
C236 C243 1.506 . S
C237 C238 1.398 . S
C237 C240 1.392 . S
C238 C237 1.398 . S
C238 C241 1.372 . S
C238 H248 0.931 . S
C239 C236 1.382 . S
C239 C241 1.390 . S
C239 H249 0.931 . S
C240 C236 1.390 . S
C240 C237 1.392 . S
C240 H250 0.930 . S
C241 C238 1.372 . S
C241 C239 1.390 . S
C241 H251 0.929 . S
C242 O222 1.255 . S
C242 O223 1.257 . S
C243 Eu179 2.787 . S
C243 O218 1.252 . S
C243 O221 1.268 . S
C243 C236 1.506 . S
H244 C227 0.931 . S
H245 C228 0.931 . S
H246 C229 0.929 . S
H247 C230 0.930 . S
H248 C238 0.931 . S
H249 C239 0.931 . S
H250 C240 0.930 . S
H251 C241 0.929 . S
Eu252 N281 2.600 . S
Eu252 N287 2.562 1_556 S
Eu252 O296 2.462 . S
Eu252 O297 2.373 1_556 S
Eu252 O299 2.432 . S
Eu252 O300 2.291 1_556 S
Eu252 O304 2.335 . S
Eu252 O307 2.372 . S
Eu252 C316 2.787 . S
C253 N254 1.365 . S
C253 C256 1.405 . S
C253 C260 1.448 . S
N254 C253 1.365 . S
N254 C257 1.319 . S
N254 Eu263 2.600 . S
C255 C257 1.397 . S
C255 C258 1.367 . S
C255 H275 0.931 . S
C256 C253 1.405 . S
C256 C258 1.403 . S
C256 C262 1.439 . S
C257 N254 1.319 . S
C257 C255 1.397 . S
C257 H268 0.930 . S
C258 C255 1.367 . S
C258 C256 1.403 . S
C258 H279 0.929 . S
C259 C260 1.430 . S
C259 C261 1.387 . S
C259 C265 1.404 . S
C260 C253 1.448 . S
C260 C259 1.430 . S
C260 N264 1.351 . S
C261 C259 1.387 . S
C261 C262 1.374 . S
C261 H276 0.931 . S
C262 C256 1.439 . S
C262 C261 1.374 . S
C262 H277 0.931 . S
Eu263 N254 2.600 . S
Eu263 N264 2.562 . S
Eu263 O298 2.335 . S
Eu263 O301 2.372 . S
Eu263 O302 2.462 . S
Eu263 O303 2.373 . S
Eu263 O305 2.432 . S
Eu263 O306 2.291 . S
Eu263 C327 2.787 . S
N264 C260 1.351 . S
N264 Eu263 2.562 . S
N264 C266 1.325 . S
C265 C259 1.404 . S
C265 C267 1.366 . S
C265 H273 0.930 . S
C266 N264 1.325 . S
C266 C267 1.416 . S
C266 H272 0.929 . S
C267 C265 1.366 . S
C267 C266 1.416 . S
C267 H269 0.937 . S
H268 C257 0.930 . S
H269 C267 0.937 . S
H270 C285 0.930 . S
H271 C292 0.930 . S
H272 C266 0.929 . S
H273 C265 0.930 . S
H274 C288 0.929 . S
H275 C255 0.931 . S
H276 C261 0.931 . S
H277 C262 0.931 . S
H278 C283 0.931 . S
H279 C258 0.929 . S
H280 C291 0.930 . S
N281 Eu252 2.600 . S
N281 C282 1.365 . S
N281 C285 1.319 . S
C282 N281 1.365 . S
C282 C284 1.405 . S
C282 C290 1.448 . S
C283 H278 0.931 . S
C283 C285 1.397 . S
C283 C286 1.367 . S
C284 C282 1.405 . S
C284 C286 1.403 . S
C284 C317 1.439 . S
C285 H270 0.930 . S
C285 N281 1.319 . S
C285 C283 1.397 . S
C286 C283 1.367 . S
C286 C284 1.403 . S
C286 H293 0.929 . S
N287 Eu252 2.562 1_554 S
N287 C288 1.325 . S
N287 C290 1.351 1_554 S
C288 H274 0.929 . S
C288 N287 1.325 . S
C288 C292 1.416 . S
C289 C290 1.430 1_554 S
C289 C291 1.404 . S
C289 C318 1.387 . S
C290 C282 1.448 . S
C290 N287 1.351 1_556 S
C290 C289 1.430 1_556 S
C291 H280 0.930 . S
C291 C289 1.404 . S
C291 C292 1.366 . S
C292 H271 0.930 . S
C292 C288 1.416 . S
C292 C291 1.366 . S
H293 C286 0.929 . S
H294 C317 0.931 . S
H295 C318 0.931 . S
O296 Eu252 2.462 . S
O296 C316 1.252 . S
O297 Eu252 2.373 1_554 S
O297 C308 1.249 . S
O298 Eu263 2.335 . S
O298 C308 1.264 . S
O299 Eu252 2.432 . S
O299 C316 1.268 . S
O300 Eu252 2.291 1_554 S
O300 C315 1.255 . S
O301 Eu263 2.372 . S
O301 C315 1.257 . S
O302 Eu263 2.462 . S
O302 C327 1.252 . S
O303 Eu263 2.373 . S
O303 C319 1.249 1_554 S
O304 Eu252 2.335 . S
O304 C319 1.264 . S
O305 Eu263 2.432 . S
O305 C327 1.268 . S
O306 Eu263 2.291 . S
O306 C326 1.255 1_554 S
O307 Eu252 2.372 . S
O307 C326 1.257 . S
C308 O297 1.249 . S
C308 O298 1.264 . S
C309 C312 1.382 . S
C309 C314 1.390 . S
C309 C316 1.506 . S
C310 C311 1.398 . S
C310 C314 1.392 . S
C311 C310 1.398 . S
C311 C313 1.372 . S
C311 H328 0.931 . S
C312 C309 1.382 . S
C312 C313 1.390 . S
C312 H329 0.931 . S
C313 C311 1.372 . S
C313 C312 1.390 . S
C313 H330 0.929 . S
C314 C309 1.390 . S
C314 C310 1.392 . S
C314 H331 0.930 . S
C315 O300 1.255 . S
C315 O301 1.257 . S
C316 Eu252 2.787 . S
C316 O296 1.252 . S
C316 O299 1.268 . S
C316 C309 1.506 . S
C317 C284 1.439 . S
C317 H294 0.931 . S
C317 C318 1.374 1_556 S
C318 C289 1.387 . S
C318 H295 0.931 . S
C318 C317 1.374 1_554 S
C319 O303 1.249 1_556 S
C319 O304 1.264 . S
C320 C323 1.382 . S
C320 C324 1.390 . S
C320 C327 1.506 . S
C321 C322 1.398 . S
C321 C324 1.392 . S
C322 C321 1.398 . S
C322 C325 1.372 . S
C322 H332 0.931 . S
C323 C320 1.382 . S
C323 C325 1.390 . S
C323 H333 0.931 . S
C324 C320 1.390 . S
C324 C321 1.392 . S
C324 H334 0.930 . S
C325 C322 1.372 . S
C325 C323 1.390 . S
C325 H335 0.929 . S
C326 O306 1.255 1_556 S
C326 O307 1.257 . S
C327 Eu263 2.787 . S
C327 O302 1.252 . S
C327 O305 1.268 . S
C327 C320 1.506 . S
H328 C311 0.931 . S
H329 C312 0.931 . S
H330 C313 0.929 . S
H331 C314 0.930 . S
H332 C322 0.931 . S
H333 C323 0.931 . S
H334 C324 0.930 . S
H335 C325 0.929 . S
Eu336 N365 2.600 . S
Eu336 N371 2.562 . S
Eu336 O380 2.462 . S
Eu336 O381 2.373 . S
Eu336 O383 2.432 . S
Eu336 O384 2.291 . S
Eu336 O388 2.335 . S
Eu336 O391 2.372 . S
Eu336 C400 2.787 . S
C337 N338 1.365 . S
C337 C340 1.405 . S
C337 C344 1.448 . S
N338 C337 1.365 . S
N338 C341 1.319 . S
N338 Eu347 2.600 . S
C339 C341 1.397 . S
C339 C342 1.367 . S
C339 H359 0.910 1_655 S
C340 C337 1.405 . S
C340 C342 1.403 . S
C340 C346 1.439 . S
C341 N338 1.319 . S
C341 C339 1.397 . S
C341 H352 0.930 1_655 S
C342 C339 1.367 . S
C342 C340 1.403 . S
C342 H363 0.929 . S
C343 C344 1.430 . S
C343 C345 1.387 . S
C343 C349 1.404 . S
C344 C337 1.448 . S
C344 C343 1.430 . S
C344 N348 1.351 . S
C345 C343 1.387 . S
C345 C346 1.374 . S
C345 H360 0.931 . S
C346 C340 1.439 . S
C346 C345 1.374 . S
C346 H361 0.931 . S
Eu347 N338 2.600 . S
Eu347 N348 2.562 . S
Eu347 O382 2.335 1_655 S
Eu347 O385 2.372 1_655 S
Eu347 O386 2.462 . S
Eu347 O387 2.373 . S
Eu347 O389 2.432 . S
Eu347 O390 2.291 . S
Eu347 C411 2.787 . S
N348 C344 1.351 . S
N348 Eu347 2.562 . S
N348 C350 1.325 . S
C349 C343 1.404 . S
C349 C351 1.366 . S
C349 H357 0.930 . S
C350 N348 1.325 . S
C350 C351 1.416 . S
C350 H356 0.929 . S
C351 C349 1.366 . S
C351 C350 1.416 . S
C351 H353 0.930 . S
H352 C341 0.930 1_455 S
H353 C351 0.930 . S
H354 C369 0.930 . S
H355 C376 0.930 . S
H356 C350 0.929 . S
H357 C349 0.930 . S
H358 C372 0.929 . S
H359 C339 0.910 1_455 S
H360 C345 0.931 . S
H361 C346 0.931 . S
H362 C367 0.931 . S
H363 C342 0.929 . S
H364 C375 0.930 . S
N365 Eu336 2.600 . S
N365 C366 1.365 . S
N365 C369 1.319 . S
C366 N365 1.365 . S
C366 C368 1.405 . S
C366 C374 1.448 . S
C367 H362 0.931 . S
C367 C369 1.397 . S
C367 C370 1.367 . S
C368 C366 1.405 . S
C368 C370 1.403 . S
C368 C401 1.439 . S
C369 H354 0.930 . S
C369 N365 1.319 . S
C369 C367 1.397 . S
C370 C367 1.367 . S
C370 C368 1.403 . S
C370 H377 0.929 . S
N371 Eu336 2.562 . S
N371 C372 1.325 . S
N371 C374 1.351 . S
C372 H358 0.929 . S
C372 N371 1.325 . S
C372 C376 1.416 . S
C373 C374 1.430 . S
C373 C375 1.404 . S
C373 C402 1.387 . S
C374 C366 1.448 . S
C374 N371 1.351 . S
C374 C373 1.430 . S
C375 H364 0.930 . S
C375 C373 1.404 . S
C375 C376 1.366 . S
C376 H355 0.930 . S
C376 C372 1.416 . S
C376 C375 1.366 . S
H377 C370 0.929 . S
H378 C401 0.931 . S
H379 C402 0.931 . S
O380 Eu336 2.462 . S
O380 C400 1.252 . S
O381 Eu336 2.373 . S
O381 C392 1.249 . S
O382 Eu347 2.335 1_455 S
O382 C392 1.264 . S
O383 Eu336 2.432 . S
O383 C400 1.268 . S
O384 Eu336 2.291 . S
O384 C399 1.255 . S
O385 Eu347 2.372 1_455 S
O385 C399 1.257 . S
O386 Eu347 2.462 . S
O386 C411 1.252 . S
O387 Eu347 2.373 . S
O387 C403 1.249 1_655 S
O388 Eu336 2.335 . S
O388 C403 1.264 . S
O389 Eu347 2.432 . S
O389 C411 1.268 . S
O390 Eu347 2.291 . S
O390 C410 1.255 . S
O391 Eu336 2.372 . S
O391 C410 1.257 1_455 S
C392 O381 1.249 . S
C392 O382 1.264 . S
C393 C396 1.382 . S
C393 C398 1.390 . S
C393 C400 1.506 . S
C394 C395 1.398 . S
C394 C398 1.392 . S
C395 C394 1.398 . S
C395 C397 1.372 . S
C395 H412 0.931 . S
C396 C393 1.382 . S
C396 C397 1.390 . S
C396 H413 0.931 . S
C397 C395 1.372 . S
C397 C396 1.390 . S
C397 H414 0.929 . S
C398 C393 1.390 . S
C398 C394 1.392 . S
C398 H415 0.930 . S
C399 O384 1.255 . S
C399 O385 1.257 . S
C400 Eu336 2.787 . S
C400 O380 1.252 . S
C400 O383 1.268 . S
C400 C393 1.506 . S
C401 C368 1.439 . S
C401 H378 0.931 . S
C401 C402 1.374 . S
C402 C373 1.387 . S
C402 H379 0.931 . S
C402 C401 1.374 . S
C403 O387 1.249 1_455 S
C403 O388 1.264 . S
C404 C407 1.382 . S
C404 C408 1.390 . S
C404 C411 1.506 . S
C405 C406 1.398 . S
C405 C408 1.392 . S
C406 C405 1.398 . S
C406 C409 1.372 . S
C406 H416 0.931 . S
C407 C404 1.382 . S
C407 C409 1.390 . S
C407 H417 0.931 . S
C408 C404 1.390 . S
C408 C405 1.392 . S
C408 H418 0.930 . S
C409 C406 1.372 . S
C409 C407 1.390 . S
C409 H419 0.929 . S
C410 O390 1.255 . S
C410 O391 1.257 1_655 S
C411 Eu347 2.787 . S
C411 O386 1.252 . S
C411 O389 1.268 . S
C411 C404 1.506 . S
H412 C395 0.931 . S
H413 C396 0.931 . S
H414 C397 0.929 . S
H415 C398 0.930 . S
H416 C406 0.931 . S
H417 C407 0.931 . S
H418 C408 0.930 . S
H419 C409 0.929 . S
Eu420 N449 2.600 . S
Eu420 N455 2.562 . S
Eu420 O464 2.462 . S
Eu420 O465 2.373 . S
Eu420 O467 2.432 . S
Eu420 O468 2.291 . S
Eu420 O472 2.335 . S
Eu420 O475 2.372 . S
Eu420 C484 2.787 . S
C421 N422 1.365 . S
C421 C424 1.405 . S
C421 C428 1.448 . S
N422 C421 1.365 . S
N422 C425 1.319 . S
N422 Eu431 2.600 . S
C423 C425 1.397 . S
C423 C426 1.367 . S
C423 H443 0.931 . S
C424 C421 1.405 . S
C424 C426 1.403 . S
C424 C430 1.439 . S
C425 N422 1.319 . S
C425 C423 1.397 . S
C425 H436 0.930 . S
C426 C423 1.367 . S
C426 C424 1.403 . S
C426 H447 0.929 . S
C427 C428 1.430 . S
C427 C429 1.387 . S
C427 C433 1.404 . S
C428 C421 1.448 . S
C428 C427 1.430 . S
C428 N432 1.351 . S
C429 C427 1.387 . S
C429 C430 1.374 . S
C429 H444 0.931 . S
C430 C424 1.439 . S
C430 C429 1.374 . S
C430 H445 0.931 . S
Eu431 N422 2.600 . S
Eu431 N432 2.562 . S
Eu431 O466 2.335 . S
Eu431 O469 2.372 . S
Eu431 O470 2.462 . S
Eu431 O471 2.373 . S
Eu431 O473 2.432 . S
Eu431 O474 2.291 . S
Eu431 C495 2.787 . S
N432 C428 1.351 . S
N432 Eu431 2.562 . S
N432 C434 1.325 . S
C433 C427 1.404 . S
C433 C435 1.366 . S
C433 H441 0.930 . S
C434 N432 1.325 . S
C434 C435 1.416 . S
C434 H440 0.929 . S
C435 C433 1.366 . S
C435 C434 1.416 . S
C435 H437 0.930 . S
H436 C425 0.930 . S
H437 C435 0.930 . S
H438 C453 0.930 . S
H439 C460 0.930 . S
H440 C434 0.929 . S
H441 C433 0.930 . S
H442 C456 0.929 . S
H443 C423 0.931 . S
H444 C429 0.931 . S
H445 C430 0.931 . S
H446 C451 0.931 . S
H447 C426 0.929 . S
H448 C459 0.930 . S
N449 Eu420 2.600 . S
N449 C450 1.365 . S
N449 C453 1.319 . S
C450 N449 1.365 . S
C450 C452 1.405 . S
C450 C458 1.448 . S
C451 H446 0.931 . S
C451 C453 1.397 . S
C451 C454 1.367 . S
C452 C450 1.405 . S
C452 C454 1.403 . S
C452 C485 1.439 . S
C453 H438 0.930 . S
C453 N449 1.319 . S
C453 C451 1.397 . S
C454 C451 1.367 . S
C454 C452 1.403 . S
C454 H461 0.929 . S
N455 Eu420 2.562 . S
N455 C456 1.325 . S
N455 C458 1.351 . S
C456 H442 0.929 . S
C456 N455 1.325 . S
C456 C460 1.416 . S
C457 C458 1.430 . S
C457 C459 1.404 . S
C457 C486 1.387 . S
C458 C450 1.448 . S
C458 N455 1.351 . S
C458 C457 1.430 . S
C459 H448 0.930 . S
C459 C457 1.404 . S
C459 C460 1.366 . S
C460 H439 0.930 . S
C460 C456 1.416 . S
C460 C459 1.366 . S
H461 C454 0.929 . S
H462 C485 0.931 . S
H463 C486 0.931 . S
O464 Eu420 2.462 . S
O464 C484 1.252 . S
O465 Eu420 2.373 . S
O465 C476 1.249 . S
O466 Eu431 2.335 . S
O466 C476 1.264 . S
O467 Eu420 2.432 . S
O467 C484 1.268 . S
O468 Eu420 2.291 . S
O468 C483 1.255 . S
O469 Eu431 2.372 . S
O469 C483 1.257 . S
O470 Eu431 2.462 . S
O470 C495 1.252 . S
O471 Eu431 2.373 . S
O471 C487 1.249 . S
O472 Eu420 2.335 . S
O472 C487 1.264 . S
O473 Eu431 2.432 . S
O473 C495 1.268 . S
O474 Eu431 2.291 . S
O474 C494 1.255 . S
O475 Eu420 2.372 . S
O475 C494 1.257 . S
C476 O465 1.249 . S
C476 O466 1.264 . S
C477 C480 1.382 . S
C477 C482 1.390 . S
C477 C484 1.506 . S
C478 C479 1.398 . S
C478 C482 1.392 . S
C479 C478 1.398 . S
C479 C481 1.372 . S
C479 H496 0.931 . S
C480 C477 1.382 . S
C480 C481 1.390 . S
C480 H497 0.931 . S
C481 C479 1.372 . S
C481 C480 1.390 . S
C481 H498 0.929 . S
C482 C477 1.390 . S
C482 C478 1.392 . S
C482 H499 0.930 . S
C483 O468 1.255 . S
C483 O469 1.257 . S
C484 Eu420 2.787 . S
C484 O464 1.252 . S
C484 O467 1.268 . S
C484 C477 1.506 . S
C485 C452 1.439 . S
C485 H462 0.931 . S
C485 C486 1.374 . S
C486 C457 1.387 . S
C486 H463 0.931 . S
C486 C485 1.374 . S
C487 O471 1.249 . S
C487 O472 1.264 . S
C488 C491 1.382 . S
C488 C492 1.390 . S
C488 C495 1.506 . S
C489 C490 1.398 . S
C489 C492 1.392 . S
C490 C489 1.398 . S
C490 C493 1.372 . S
C490 H500 0.931 . S
C491 C488 1.382 . S
C491 C493 1.390 . S
C491 H501 0.931 . S
C492 C488 1.390 . S
C492 C489 1.392 . S
C492 H502 0.930 . S
C493 C490 1.372 . S
C493 C491 1.390 . S
C493 H503 0.929 . S
C494 O474 1.255 . S
C494 O475 1.257 . S
C495 Eu431 2.787 . S
C495 O470 1.252 . S
C495 O473 1.268 . S
C495 C488 1.506 . S
H496 C479 0.931 . S
H497 C480 0.931 . S
H498 C481 0.929 . S
H499 C482 0.930 . S
H500 C490 0.931 . S
H501 C491 0.931 . S
H502 C492 0.930 . S
H503 C493 0.929 . S
Eu504 N533 2.600 . S
Eu504 N539 2.562 . S
Eu504 O548 2.462 . S
Eu504 O549 2.373 . S
Eu504 O551 2.432 . S
Eu504 O552 2.291 . S
Eu504 O556 2.335 . S
Eu504 O559 2.372 . S
Eu504 C568 2.787 . S
C505 N506 1.365 . S
C505 C508 1.405 . S
C505 C512 1.448 . S
N506 C505 1.365 . S
N506 C509 1.319 . S
N506 Eu515 2.600 . S
C507 C509 1.397 . S
C507 C510 1.367 . S
C507 H527 0.931 . S
C508 C505 1.405 . S
C508 C510 1.403 . S
C508 C514 1.439 . S
C509 N506 1.319 . S
C509 C507 1.397 . S
C509 H520 0.930 . S
C510 C507 1.367 . S
C510 C508 1.403 . S
C510 H531 0.929 . S
C511 C512 1.430 . S
C511 C513 1.387 . S
C511 C517 1.404 . S
C512 C505 1.448 . S
C512 C511 1.430 . S
C512 N516 1.351 . S
C513 C511 1.387 . S
C513 C514 1.374 . S
C513 H528 0.931 . S
C514 C508 1.439 . S
C514 C513 1.374 . S
C514 H529 0.931 . S
Eu515 N506 2.600 . S
Eu515 N516 2.562 . S
Eu515 O550 2.335 . S
Eu515 O553 2.372 . S
Eu515 O554 2.462 . S
Eu515 O555 2.373 . S
Eu515 O557 2.432 . S
Eu515 O558 2.291 . S
Eu515 C579 2.787 . S
N516 C512 1.351 . S
N516 Eu515 2.562 . S
N516 C518 1.325 . S
C517 C511 1.404 . S
C517 C519 1.366 . S
C517 H525 0.930 . S
C518 N516 1.325 . S
C518 C519 1.416 . S
C518 H524 0.929 . S
C519 C517 1.366 . S
C519 C518 1.416 . S
C519 H521 0.930 . S
H520 C509 0.930 . S
H521 C519 0.930 . S
H522 C537 0.930 . S
H523 C544 0.930 . S
H524 C518 0.929 . S
H525 C517 0.930 . S
H526 C540 0.929 . S
H527 C507 0.931 . S
H528 C513 0.931 . S
H529 C514 0.931 . S
H530 C535 0.931 . S
H531 C510 0.929 . S
H532 C543 0.930 . S
N533 Eu504 2.600 . S
N533 C534 1.365 . S
N533 C537 1.319 . S
C534 N533 1.365 . S
C534 C536 1.405 . S
C534 C542 1.448 . S
C535 H530 0.931 . S
C535 C537 1.397 . S
C535 C538 1.367 . S
C536 C534 1.405 . S
C536 C538 1.403 . S
C536 C569 1.439 . S
C537 H522 0.930 . S
C537 N533 1.319 . S
C537 C535 1.397 . S
C538 C535 1.367 . S
C538 C536 1.403 . S
C538 H545 0.929 . S
N539 Eu504 2.562 . S
N539 C540 1.325 . S
N539 C542 1.351 . S
C540 H526 0.929 . S
C540 N539 1.325 . S
C540 C544 1.416 . S
C541 C542 1.430 . S
C541 C543 1.404 . S
C541 C570 1.387 . S
C542 C534 1.448 . S
C542 N539 1.351 . S
C542 C541 1.430 . S
C543 H532 0.930 . S
C543 C541 1.404 . S
C543 C544 1.366 . S
C544 H523 0.930 . S
C544 C540 1.416 . S
C544 C543 1.366 . S
H545 C538 0.929 . S
H546 C569 0.931 . S
H547 C570 0.931 . S
O548 Eu504 2.462 . S
O548 C568 1.252 . S
O549 Eu504 2.373 . S
O549 C560 1.249 . S
O550 Eu515 2.335 . S
O550 C560 1.264 . S
O551 Eu504 2.432 . S
O551 C568 1.268 . S
O552 Eu504 2.291 . S
O552 C567 1.255 . S
O553 Eu515 2.372 . S
O553 C567 1.257 . S
O554 Eu515 2.462 . S
O554 C579 1.252 . S
O555 Eu515 2.373 . S
O555 C571 1.249 . S
O556 Eu504 2.335 . S
O556 C571 1.264 . S
O557 Eu515 2.432 . S
O557 C579 1.268 . S
O558 Eu515 2.291 . S
O558 C578 1.255 . S
O559 Eu504 2.372 . S
O559 C578 1.257 . S
C560 O549 1.249 . S
C560 O550 1.264 . S
C561 C564 1.382 . S
C561 C566 1.390 . S
C561 C568 1.506 . S
C562 C563 1.398 . S
C562 C566 1.392 . S
C563 C562 1.398 . S
C563 C565 1.372 . S
C563 H580 0.931 . S
C564 C561 1.382 . S
C564 C565 1.390 . S
C564 H581 0.931 . S
C565 C563 1.372 . S
C565 C564 1.390 . S
C565 H582 0.929 . S
C566 C561 1.390 . S
C566 C562 1.392 . S
C566 H583 0.930 . S
C567 O552 1.255 . S
C567 O553 1.257 . S
C568 Eu504 2.787 . S
C568 O548 1.252 . S
C568 O551 1.268 . S
C568 C561 1.506 . S
C569 C536 1.439 . S
C569 H546 0.931 . S
C569 C570 1.374 . S
C570 C541 1.387 . S
C570 H547 0.931 . S
C570 C569 1.374 . S
C571 O555 1.249 . S
C571 O556 1.264 . S
C572 C575 1.382 . S
C572 C576 1.390 . S
C572 C579 1.506 . S
C573 C574 1.398 . S
C573 C576 1.392 . S
C574 C573 1.398 . S
C574 C577 1.372 . S
C574 H584 0.931 . S
C575 C572 1.382 . S
C575 C577 1.390 . S
C575 H585 0.931 . S
C576 C572 1.390 . S
C576 C573 1.392 . S
C576 H586 0.930 . S
C577 C574 1.372 . S
C577 C575 1.390 . S
C577 H587 0.929 . S
C578 O558 1.255 . S
C578 O559 1.257 . S
C579 Eu515 2.787 . S
C579 O554 1.252 . S
C579 O557 1.268 . S
C579 C572 1.506 . S
H580 C563 0.931 . S
H581 C564 0.931 . S
H582 C565 0.929 . S
H583 C566 0.930 . S
H584 C574 0.931 . S
H585 C575 0.931 . S
H586 C576 0.930 . S
H587 C577 0.929 . S
Eu588 N617 2.600 . S
Eu588 N623 2.557 1_554 S
Eu588 O632 2.462 . S
Eu588 O633 2.373 1_554 S
Eu588 O635 2.432 . S
Eu588 O636 2.291 1_554 S
Eu588 O640 2.335 . S
Eu588 O643 2.372 . S
Eu588 C652 2.787 . S
C589 N590 1.365 . S
C589 C592 1.405 . S
C589 C596 1.448 . S
N590 C589 1.365 . S
N590 C593 1.319 . S
N590 Eu599 2.600 . S
C591 C593 1.397 . S
C591 C594 1.367 . S
C591 H611 0.931 . S
C592 C589 1.405 . S
C592 C594 1.403 . S
C592 C598 1.439 . S
C593 N590 1.319 . S
C593 C591 1.397 . S
C593 H604 0.930 . S
C594 C591 1.367 . S
C594 C592 1.403 . S
C594 H615 0.929 . S
C595 C596 1.430 . S
C595 C597 1.387 . S
C595 C601 1.404 . S
C596 C589 1.448 . S
C596 C595 1.430 . S
C596 N600 1.351 . S
C597 C595 1.387 . S
C597 C598 1.374 . S
C597 H612 0.931 . S
C598 C592 1.439 . S
C598 C597 1.374 . S
C598 H613 0.931 . S
Eu599 N590 2.600 . S
Eu599 N600 2.562 . S
Eu599 O634 2.335 . S
Eu599 O637 2.372 . S
Eu599 O638 2.462 . S
Eu599 O639 2.373 . S
Eu599 O641 2.432 . S
Eu599 O642 2.291 . S
Eu599 C663 2.787 . S
N600 C596 1.351 . S
N600 Eu599 2.562 . S
N600 C602 1.325 . S
C601 C595 1.404 . S
C601 C603 1.366 . S
C601 H609 0.930 . S
C602 N600 1.325 . S
C602 C603 1.416 . S
C602 H608 0.929 . S
C603 C601 1.366 . S
C603 C602 1.416 . S
C603 H605 0.930 1_556 S
H604 C593 0.930 . S
H605 C603 0.930 1_554 S
H606 C621 0.930 . S
H607 C628 0.930 . S
H608 C602 0.929 . S
H609 C601 0.930 . S
H610 C624 0.929 . S
H611 C591 0.931 . S
H612 C597 0.931 . S
H613 C598 0.931 . S
H614 C619 0.931 . S
H615 C594 0.929 . S
H616 C627 0.930 . S
N617 Eu588 2.600 . S
N617 C618 1.365 . S
N617 C621 1.319 . S
C618 N617 1.365 . S
C618 C620 1.405 . S
C618 C626 1.448 . S
C619 H614 0.931 . S
C619 C621 1.397 . S
C619 C622 1.367 . S
C620 C618 1.405 . S
C620 C622 1.403 . S
C620 C653 1.439 . S
C621 H606 0.930 . S
C621 N617 1.319 . S
C621 C619 1.397 . S
C622 C619 1.367 . S
C622 C620 1.403 . S
C622 H629 0.940 . S
N623 Eu588 2.557 1_556 S
N623 C624 1.335 . S
N623 C626 1.348 1_556 S
C624 H610 0.929 . S
C624 N623 1.335 . S
C624 C628 1.416 . S
C625 C626 1.430 1_556 S
C625 C627 1.404 . S
C625 C654 1.380 1_556 S
C626 C618 1.448 . S
C626 N623 1.348 1_554 S
C626 C625 1.430 1_554 S
C627 H616 0.930 . S
C627 C625 1.404 . S
C627 C628 1.366 . S
C628 H607 0.930 . S
C628 C624 1.416 . S
C628 C627 1.366 . S
H629 C622 0.940 . S
H630 C653 0.931 . S
H631 C654 0.921 1_556 S
O632 Eu588 2.462 . S
O632 C652 1.252 . S
O633 Eu588 2.373 1_556 S
O633 C644 1.249 . S
O634 Eu599 2.335 . S
O634 C644 1.264 . S
O635 Eu588 2.432 . S
O635 C652 1.268 . S
O636 Eu588 2.291 1_556 S
O636 C651 1.255 . S
O637 Eu599 2.372 . S
O637 C651 1.257 . S
O638 Eu599 2.462 . S
O638 C663 1.252 . S
O639 Eu599 2.373 . S
O639 C655 1.249 1_556 S
O640 Eu588 2.335 . S
O640 C655 1.264 . S
O641 Eu599 2.432 . S
O641 C663 1.268 . S
O642 Eu599 2.291 . S
O642 C662 1.255 1_556 S
O643 Eu588 2.372 . S
O643 C662 1.257 . S
C644 O633 1.249 . S
C644 O634 1.264 . S
C645 C648 1.382 . S
C645 C650 1.390 . S
C645 C652 1.506 . S
C646 C647 1.398 . S
C646 C650 1.392 . S
C647 C646 1.398 . S
C647 C649 1.372 . S
C647 H664 0.931 . S
C648 C645 1.382 . S
C648 C649 1.390 . S
C648 H665 0.931 . S
C649 C647 1.372 . S
C649 C648 1.390 . S
C649 H666 0.929 . S
C650 C645 1.390 . S
C650 C646 1.392 . S
C650 H667 0.930 . S
C651 O636 1.255 . S
C651 O637 1.257 . S
C652 Eu588 2.787 . S
C652 O632 1.252 . S
C652 O635 1.268 . S
C652 C645 1.506 . S
C653 C620 1.439 . S
C653 H630 0.931 . S
C653 C654 1.391 . S
C654 C625 1.380 1_554 S
C654 H631 0.921 1_554 S
C654 C653 1.391 . S
C655 O639 1.249 1_554 S
C655 O640 1.264 . S
C656 C659 1.382 . S
C656 C660 1.390 . S
C656 C663 1.506 . S
C657 C658 1.398 . S
C657 C660 1.392 . S
C658 C657 1.398 . S
C658 C661 1.372 . S
C658 H668 0.931 . S
C659 C656 1.382 . S
C659 C661 1.390 . S
C659 H669 0.931 . S
C660 C656 1.390 . S
C660 C657 1.392 . S
C660 H670 0.930 . S
C661 C658 1.372 . S
C661 C659 1.390 . S
C661 H671 0.929 . S
C662 O642 1.255 1_554 S
C662 O643 1.257 . S
C663 Eu599 2.787 . S
C663 O638 1.252 . S
C663 O641 1.268 . S
C663 C656 1.506 . S
H664 C647 0.931 . S
H665 C648 0.931 . S
H666 C649 0.929 . S
H667 C650 0.930 . S
H668 C658 0.931 . S
H669 C659 0.931 . S
H670 C660 0.930 . S
H671 C661 0.929 . S
Eu672 N701 2.600 . S
Eu672 N707 2.551 1_565 S
Eu672 O716 2.462 . S
Eu672 O717 2.373 1_565 S
Eu672 O719 2.432 . S
Eu672 O720 2.291 1_565 S
Eu672 O724 2.335 . S
Eu672 O727 2.372 . S
Eu672 C736 2.787 . S
C673 N674 1.365 . S
C673 C676 1.405 . S
C673 C680 1.448 . S
N674 C673 1.365 . S
N674 C677 1.319 . S
N674 Eu683 2.600 . S
C675 C677 1.397 . S
C675 C678 1.367 . S
C675 H695 0.931 . S
C676 C673 1.405 . S
C676 C678 1.403 . S
C676 C682 1.439 . S
C677 N674 1.319 . S
C677 C675 1.397 . S
C677 H688 0.930 . S
C678 C675 1.367 . S
C678 C676 1.403 . S
C678 H699 0.929 . S
C679 C680 1.430 . S
C679 C681 1.387 . S
C679 C685 1.404 . S
C680 C673 1.448 . S
C680 C679 1.430 . S
C680 N684 1.351 . S
C681 C679 1.387 . S
C681 C682 1.374 . S
C681 H696 0.931 . S
C682 C676 1.439 . S
C682 C681 1.374 . S
C682 H697 0.931 . S
Eu683 N674 2.600 . S
Eu683 N684 2.562 . S
Eu683 O718 2.335 . S
Eu683 O721 2.372 . S
Eu683 O722 2.462 . S
Eu683 O723 2.373 . S
Eu683 O725 2.432 . S
Eu683 O726 2.291 . S
Eu683 C747 2.787 . S
N684 C680 1.351 . S
N684 Eu683 2.562 . S
N684 C686 1.325 . S
C685 C679 1.404 . S
C685 C687 1.366 . S
C685 H693 0.930 . S
C686 N684 1.325 . S
C686 C687 1.416 . S
C686 H692 0.929 . S
C687 C685 1.366 . S
C687 C686 1.416 . S
C687 H689 0.930 1_545 S
H688 C677 0.930 . S
H689 C687 0.930 1_565 S
H690 C705 0.930 . S
H691 C712 0.930 . S
H692 C686 0.929 . S
H693 C685 0.930 . S
H694 C708 0.929 . S
H695 C675 0.931 . S
H696 C681 0.931 . S
H697 C682 0.931 . S
H698 C703 0.931 . S
H699 C678 0.929 . S
H700 C711 0.930 . S
N701 Eu672 2.600 . S
N701 C702 1.365 . S
N701 C705 1.319 . S
C702 N701 1.365 . S
C702 C704 1.405 . S
C702 C710 1.448 . S
C703 H698 0.931 . S
C703 C705 1.397 . S
C703 C706 1.367 . S
C704 C702 1.405 . S
C704 C706 1.403 . S
C704 C737 1.439 . S
C705 H690 0.930 . S
C705 N701 1.319 . S
C705 C703 1.397 . S
C706 C703 1.367 . S
C706 C704 1.403 . S
C706 H713 0.929 . S
N707 Eu672 2.551 1_545 S
N707 C708 1.350 . S
N707 C710 1.344 1_545 S
C708 H694 0.929 . S
C708 N707 1.350 . S
C708 C712 1.416 . S
C709 C710 1.430 1_545 S
C709 C711 1.404 . S
C709 C738 1.384 1_545 S
C710 C702 1.448 . S
C710 N707 1.344 1_565 S
C710 C709 1.430 1_565 S
C711 H700 0.930 . S
C711 C709 1.404 . S
C711 C712 1.366 . S
C712 H691 0.930 . S
C712 C708 1.416 . S
C712 C711 1.366 . S
H713 C706 0.929 . S
H714 C737 0.931 . S
H715 C738 0.926 1_545 S
O716 Eu672 2.462 . S
O716 C736 1.252 . S
O717 Eu672 2.373 1_545 S
O717 C728 1.249 . S
O718 Eu683 2.335 . S
O718 C728 1.264 . S
O719 Eu672 2.432 . S
O719 C736 1.268 . S
O720 Eu672 2.291 1_545 S
O720 C735 1.255 . S
O721 Eu683 2.372 . S
O721 C735 1.257 . S
O722 Eu683 2.462 . S
O722 C747 1.252 . S
O723 Eu683 2.373 . S
O723 C739 1.249 1_545 S
O724 Eu672 2.335 . S
O724 C739 1.264 . S
O725 Eu683 2.432 . S
O725 C747 1.268 . S
O726 Eu683 2.291 . S
O726 C746 1.255 1_545 S
O727 Eu672 2.372 . S
O727 C746 1.257 . S
C728 O717 1.249 . S
C728 O718 1.264 . S
C729 C732 1.382 . S
C729 C734 1.390 . S
C729 C736 1.506 . S
C730 C731 1.398 . S
C730 C734 1.392 . S
C731 C730 1.398 . S
C731 C733 1.372 . S
C731 H748 0.931 . S
C732 C729 1.382 . S
C732 C733 1.390 . S
C732 H749 0.931 . S
C733 C731 1.372 . S
C733 C732 1.390 . S
C733 H750 0.929 . S
C734 C729 1.390 . S
C734 C730 1.392 . S
C734 H751 0.930 . S
C735 O720 1.255 . S
C735 O721 1.257 . S
C736 Eu672 2.787 . S
C736 O716 1.252 . S
C736 O719 1.268 . S
C736 C729 1.506 . S
C737 C704 1.439 . S
C737 H714 0.931 . S
C737 C738 1.383 . S
C738 C709 1.384 1_565 S
C738 H715 0.926 1_565 S
C738 C737 1.383 . S
C739 O723 1.249 1_565 S
C739 O724 1.264 . S
C740 C743 1.382 . S
C740 C744 1.390 . S
C740 C747 1.506 . S
C741 C742 1.398 . S
C741 C744 1.392 . S
C742 C741 1.398 . S
C742 C745 1.372 . S
C742 H752 0.931 . S
C743 C740 1.382 . S
C743 C745 1.390 . S
C743 H753 0.931 . S
C744 C740 1.390 . S
C744 C741 1.392 . S
C744 H754 0.930 . S
C745 C742 1.372 . S
C745 C743 1.390 . S
C745 H755 0.929 . S
C746 O726 1.255 1_565 S
C746 O727 1.257 . S
C747 Eu683 2.787 . S
C747 O722 1.252 . S
C747 O725 1.268 . S
C747 C740 1.506 . S
H748 C731 0.931 . S
H749 C732 0.931 . S
H750 C733 0.929 . S
H751 C734 0.930 . S
H752 C742 0.931 . S
H753 C743 0.931 . S
H754 C744 0.930 . S
H755 C745 0.929 . S
Eu756 N785 2.600 . S
Eu756 N791 2.562 . S
Eu756 O800 2.462 . S
Eu756 O801 2.373 . S
Eu756 O803 2.432 . S
Eu756 O804 2.291 . S
Eu756 O808 2.335 . S
Eu756 O811 2.372 . S
Eu756 C820 2.787 . S
C757 N758 1.365 . S
C757 C760 1.405 . S
C757 C764 1.448 . S
N758 C757 1.365 . S
N758 C761 1.319 . S
N758 Eu767 2.600 . S
C759 C761 1.397 . S
C759 C762 1.367 . S
C759 H779 0.952 . S
C760 C757 1.405 . S
C760 C762 1.403 . S
C760 C766 1.439 . S
C761 N758 1.319 . S
C761 C759 1.397 . S
C761 H772 0.930 1_565 S
C762 C759 1.367 . S
C762 C760 1.403 . S
C762 H783 0.929 . S
C763 C764 1.430 . S
C763 C765 1.387 . S
C763 C769 1.404 . S
C764 C757 1.448 . S
C764 C763 1.430 . S
C764 N768 1.351 . S
C765 C763 1.387 . S
C765 C766 1.374 . S
C765 H780 0.931 . S
C766 C760 1.439 . S
C766 C765 1.374 . S
C766 H781 0.931 . S
Eu767 N758 2.600 . S
Eu767 N768 2.562 . S
Eu767 O802 2.335 1_565 S
Eu767 O805 2.372 1_565 S
Eu767 O806 2.462 . S
Eu767 O807 2.373 . S
Eu767 O809 2.432 . S
Eu767 O810 2.291 . S
Eu767 C831 2.787 . S
N768 C764 1.351 . S
N768 Eu767 2.562 . S
N768 C770 1.325 . S
C769 C763 1.404 . S
C769 C771 1.366 . S
C769 H777 0.930 . S
C770 N768 1.325 . S
C770 C771 1.416 . S
C770 H776 0.929 . S
C771 C769 1.366 . S
C771 C770 1.416 . S
C771 H773 0.930 . S
H772 C761 0.930 1_545 S
H773 C771 0.930 . S
H774 C789 0.930 . S
H775 C796 0.930 . S
H776 C770 0.929 . S
H777 C769 0.930 . S
H778 C792 0.929 . S
H779 C759 0.952 . S
H780 C765 0.931 . S
H781 C766 0.931 . S
H782 C787 0.931 . S
H783 C762 0.929 . S
H784 C795 0.930 . S
N785 Eu756 2.600 . S
N785 C786 1.365 . S
N785 C789 1.319 . S
C786 N785 1.365 . S
C786 C788 1.405 . S
C786 C794 1.448 . S
C787 H782 0.931 . S
C787 C789 1.397 . S
C787 C790 1.367 . S
C788 C786 1.405 . S
C788 C790 1.403 . S
C788 C821 1.439 . S
C789 H774 0.930 . S
C789 N785 1.319 . S
C789 C787 1.397 . S
C790 C787 1.367 . S
C790 C788 1.403 . S
C790 H797 0.929 . S
N791 Eu756 2.562 . S
N791 C792 1.325 . S
N791 C794 1.351 . S
C792 H778 0.929 . S
C792 N791 1.325 . S
C792 C796 1.416 . S
C793 C794 1.430 . S
C793 C795 1.404 . S
C793 C822 1.387 . S
C794 C786 1.448 . S
C794 N791 1.351 . S
C794 C793 1.430 . S
C795 H784 0.930 . S
C795 C793 1.404 . S
C795 C796 1.366 . S
C796 H775 0.930 . S
C796 C792 1.416 . S
C796 C795 1.366 . S
H797 C790 0.929 . S
H798 C821 0.931 . S
H799 C822 0.931 . S
O800 Eu756 2.462 . S
O800 C820 1.252 . S
O801 Eu756 2.373 . S
O801 C812 1.249 . S
O802 Eu767 2.335 1_545 S
O802 C812 1.264 . S
O803 Eu756 2.432 . S
O803 C820 1.268 . S
O804 Eu756 2.291 . S
O804 C819 1.255 . S
O805 Eu767 2.372 1_545 S
O805 C819 1.257 . S
O806 Eu767 2.462 . S
O806 C831 1.252 . S
O807 Eu767 2.373 . S
O807 C823 1.243 1_565 S
O808 Eu756 2.335 . S
O808 C823 1.278 . S
O809 Eu767 2.432 . S
O809 C831 1.268 . S
O810 Eu767 2.291 . S
O810 C830 1.255 . S
O811 Eu756 2.372 . S
O811 C830 1.257 1_545 S
C812 O801 1.249 . S
C812 O802 1.264 . S
C813 C816 1.382 . S
C813 C818 1.390 . S
C813 C820 1.506 . S
C814 C815 1.398 . S
C814 C818 1.392 . S
C815 C814 1.398 . S
C815 C817 1.372 . S
C815 H832 0.931 . S
C816 C813 1.382 . S
C816 C817 1.390 . S
C816 H833 0.931 . S
C817 C815 1.372 . S
C817 C816 1.390 . S
C817 H834 0.929 . S
C818 C813 1.390 . S
C818 C814 1.392 . S
C818 H835 0.930 . S
C819 O804 1.255 . S
C819 O805 1.257 . S
C820 Eu756 2.787 . S
C820 O800 1.252 . S
C820 O803 1.268 . S
C820 C813 1.506 . S
C821 C788 1.439 . S
C821 H798 0.931 . S
C821 C822 1.374 . S
C822 C793 1.387 . S
C822 H799 0.931 . S
C822 C821 1.374 . S
C823 O807 1.243 1_545 S
C823 O808 1.278 . S
C824 C827 1.382 . S
C824 C828 1.390 . S
C824 C831 1.506 . S
C825 C826 1.398 . S
C825 C828 1.392 . S
C826 C825 1.398 . S
C826 C829 1.372 . S
C826 H836 0.931 . S
C827 C824 1.382 . S
C827 C829 1.390 . S
C827 H837 0.931 . S
C828 C824 1.390 . S
C828 C825 1.392 . S
C828 H838 0.930 . S
C829 C826 1.372 . S
C829 C827 1.390 . S
C829 H839 0.929 . S
C830 O810 1.255 . S
C830 O811 1.257 1_565 S
C831 Eu767 2.787 . S
C831 O806 1.252 . S
C831 O809 1.268 . S
C831 C824 1.506 . S
H832 C815 0.931 . S
H833 C816 0.931 . S
H834 C817 0.929 . S
H835 C818 0.930 . S
H836 C826 0.931 . S
H837 C827 0.931 . S
H838 C828 0.930 . S
H839 C829 0.929 . S
Eu840 N869 2.600 . S
Eu840 N875 2.562 . S
Eu840 O884 2.462 . S
Eu840 O885 2.373 . S
Eu840 O887 2.432 . S
Eu840 O888 2.291 . S
Eu840 O892 2.335 . S
Eu840 O895 2.372 . S
Eu840 C904 2.787 . S
C841 N842 1.365 . S
C841 C844 1.405 . S
C841 C848 1.448 . S
N842 C841 1.365 . S
N842 C845 1.319 . S
N842 Eu851 2.600 . S
C843 C845 1.397 . S
C843 C846 1.367 . S
C843 H863 0.954 . S
C844 C841 1.405 . S
C844 C846 1.403 . S
C844 C850 1.439 . S
C845 N842 1.319 . S
C845 C843 1.397 . S
C845 H856 0.930 1_545 S
C846 C843 1.367 . S
C846 C844 1.403 . S
C846 H867 0.929 . S
C847 C848 1.430 . S
C847 C849 1.387 . S
C847 C853 1.404 . S
C848 C841 1.448 . S
C848 C847 1.430 . S
C848 N852 1.351 . S
C849 C847 1.387 . S
C849 C850 1.374 . S
C849 H864 0.931 . S
C850 C844 1.439 . S
C850 C849 1.374 . S
C850 H865 0.931 . S
Eu851 N842 2.600 . S
Eu851 N852 2.562 . S
Eu851 O886 2.335 1_545 S
Eu851 O889 2.372 1_545 S
Eu851 O890 2.462 . S
Eu851 O891 2.373 . S
Eu851 O893 2.432 . S
Eu851 O894 2.291 . S
Eu851 C915 2.787 . S
N852 C848 1.351 . S
N852 Eu851 2.562 . S
N852 C854 1.325 . S
C853 C847 1.404 . S
C853 C855 1.366 . S
C853 H861 0.930 . S
C854 N852 1.325 . S
C854 C855 1.416 . S
C854 H860 0.929 . S
C855 C853 1.366 . S
C855 C854 1.416 . S
C855 H857 0.930 . S
H856 C845 0.930 1_565 S
H857 C855 0.930 . S
H858 C873 0.930 . S
H859 C880 0.930 . S
H860 C854 0.929 . S
H861 C853 0.930 . S
H862 C876 0.929 . S
H863 C843 0.954 . S
H864 C849 0.931 . S
H865 C850 0.931 . S
H866 C871 0.931 . S
H867 C846 0.929 . S
H868 C879 0.930 . S
N869 Eu840 2.600 . S
N869 C870 1.365 . S
N869 C873 1.319 . S
C870 N869 1.365 . S
C870 C872 1.405 . S
C870 C878 1.448 . S
C871 H866 0.931 . S
C871 C873 1.397 . S
C871 C874 1.367 . S
C872 C870 1.405 . S
C872 C874 1.403 . S
C872 C905 1.439 . S
C873 H858 0.930 . S
C873 N869 1.319 . S
C873 C871 1.397 . S
C874 C871 1.367 . S
C874 C872 1.403 . S
C874 H881 0.929 . S
N875 Eu840 2.562 . S
N875 C876 1.325 . S
N875 C878 1.351 . S
C876 H862 0.929 . S
C876 N875 1.325 . S
C876 C880 1.416 . S
C877 C878 1.430 . S
C877 C879 1.404 . S
C877 C906 1.387 . S
C878 C870 1.448 . S
C878 N875 1.351 . S
C878 C877 1.430 . S
C879 H868 0.930 . S
C879 C877 1.404 . S
C879 C880 1.366 . S
C880 H859 0.930 . S
C880 C876 1.416 . S
C880 C879 1.366 . S
H881 C874 0.929 . S
H882 C905 0.931 . S
H883 C906 0.931 . S
O884 Eu840 2.462 . S
O884 C904 1.252 . S
O885 Eu840 2.373 . S
O885 C896 1.249 . S
O886 Eu851 2.335 1_565 S
O886 C896 1.264 . S
O887 Eu840 2.432 . S
O887 C904 1.268 . S
O888 Eu840 2.291 . S
O888 C903 1.255 . S
O889 Eu851 2.372 1_565 S
O889 C903 1.257 . S
O890 Eu851 2.462 . S
O890 C915 1.252 . S
O891 Eu851 2.373 . S
O891 C907 1.235 1_545 S
O892 Eu840 2.335 . S
O892 C907 1.297 . S
O893 Eu851 2.432 . S
O893 C915 1.268 . S
O894 Eu851 2.291 . S
O894 C914 1.255 . S
O895 Eu840 2.372 . S
O895 C914 1.257 1_565 S
C896 O885 1.249 . S
C896 O886 1.264 . S
C897 C900 1.382 . S
C897 C902 1.390 . S
C897 C904 1.506 . S
C898 C899 1.398 . S
C898 C902 1.392 . S
C899 C898 1.398 . S
C899 C901 1.372 . S
C899 H916 0.931 . S
C900 C897 1.382 . S
C900 C901 1.390 . S
C900 H917 0.931 . S
C901 C899 1.372 . S
C901 C900 1.390 . S
C901 H918 0.929 . S
C902 C897 1.390 . S
C902 C898 1.392 . S
C902 H919 0.930 . S
C903 O888 1.255 . S
C903 O889 1.257 . S
C904 Eu840 2.787 . S
C904 O884 1.252 . S
C904 O887 1.268 . S
C904 C897 1.506 . S
C905 C872 1.439 . S
C905 H882 0.931 . S
C905 C906 1.374 . S
C906 C877 1.387 . S
C906 H883 0.931 . S
C906 C905 1.374 . S
C907 O891 1.235 1_565 S
C907 O892 1.297 . S
C908 C911 1.382 . S
C908 C912 1.390 . S
C908 C915 1.506 . S
C909 C910 1.398 . S
C909 C912 1.392 . S
C910 C909 1.398 . S
C910 C913 1.372 . S
C910 H920 0.931 . S
C911 C908 1.382 . S
C911 C913 1.390 . S
C911 H921 0.931 . S
C912 C908 1.390 . S
C912 C909 1.392 . S
C912 H922 0.930 . S
C913 C910 1.372 . S
C913 C911 1.390 . S
C913 H923 0.929 . S
C914 O894 1.255 . S
C914 O895 1.257 1_545 S
C915 Eu851 2.787 . S
C915 O890 1.252 . S
C915 O893 1.268 . S
C915 C908 1.506 . S
H916 C899 0.931 . S
H917 C900 0.931 . S
H918 C901 0.929 . S
H919 C902 0.930 . S
H920 C910 0.931 . S
H921 C911 0.931 . S
H922 C912 0.930 . S
H923 C913 0.929 . S
Eu924 N953 2.600 . S
Eu924 N959 2.562 . S
Eu924 O968 2.462 . S
Eu924 O969 2.373 . S
Eu924 O971 2.432 . S
Eu924 O972 2.291 . S
Eu924 O976 2.335 . S
Eu924 O979 2.372 . S
Eu924 C988 2.787 . S
C925 N926 1.365 . S
C925 C928 1.405 . S
C925 C932 1.448 . S
N926 C925 1.365 . S
N926 C929 1.319 . S
N926 Eu935 2.600 . S
C927 C929 1.397 . S
C927 C930 1.367 . S
C927 H947 0.936 . S
C928 C925 1.405 . S
C928 C930 1.403 . S
C928 C934 1.439 . S
C929 N926 1.319 . S
C929 C927 1.397 . S
C929 H940 0.930 1_545 S
C930 C927 1.367 . S
C930 C928 1.403 . S
C930 H951 0.961 . S
C931 C932 1.430 . S
C931 C933 1.387 . S
C931 C937 1.404 . S
C932 C925 1.448 . S
C932 C931 1.430 . S
C932 N936 1.351 . S
C933 C931 1.387 . S
C933 C934 1.374 . S
C933 H948 0.931 . S
C934 C928 1.439 . S
C934 C933 1.374 . S
C934 H949 0.931 . S
Eu935 N926 2.600 . S
Eu935 N936 2.562 . S
Eu935 O970 2.335 1_545 S
Eu935 O973 2.372 1_545 S
Eu935 O974 2.462 . S
Eu935 O975 2.373 . S
Eu935 O977 2.432 . S
Eu935 O978 2.291 . S
Eu935 C999 2.787 . S
N936 C932 1.351 . S
N936 Eu935 2.562 . S
N936 C938 1.325 . S
C937 C931 1.404 . S
C937 C939 1.366 . S
C937 H945 0.930 . S
C938 N936 1.325 . S
C938 C939 1.416 . S
C938 H944 0.929 . S
C939 C937 1.366 . S
C939 C938 1.416 . S
C939 H941 0.930 . S
H940 C929 0.930 1_565 S
H941 C939 0.930 . S
H942 C957 0.930 . S
H943 C964 0.930 . S
H944 C938 0.929 . S
H945 C937 0.930 . S
H946 C960 0.929 . S
H947 C927 0.936 . S
H948 C933 0.931 . S
H949 C934 0.931 . S
H950 C955 0.931 . S
H951 C930 0.961 . S
H952 C963 0.930 . S
N953 Eu924 2.600 . S
N953 C954 1.365 . S
N953 C957 1.319 . S
C954 N953 1.365 . S
C954 C956 1.405 . S
C954 C962 1.448 . S
C955 H950 0.931 . S
C955 C957 1.397 . S
C955 C958 1.367 . S
C956 C954 1.405 . S
C956 C958 1.403 . S
C956 C989 1.439 . S
C957 H942 0.930 . S
C957 N953 1.319 . S
C957 C955 1.397 . S
C958 C955 1.367 . S
C958 C956 1.403 . S
C958 H965 0.929 . S
N959 Eu924 2.562 . S
N959 C960 1.325 . S
N959 C962 1.351 . S
C960 H946 0.929 . S
C960 N959 1.325 . S
C960 C964 1.416 . S
C961 C962 1.430 . S
C961 C963 1.404 . S
C961 C990 1.387 . S
C962 C954 1.448 . S
C962 N959 1.351 . S
C962 C961 1.430 . S
C963 H952 0.930 . S
C963 C961 1.404 . S
C963 C964 1.366 . S
C964 H943 0.930 . S
C964 C960 1.416 . S
C964 C963 1.366 . S
H965 C958 0.929 . S
H966 C989 0.931 . S
H967 C990 0.931 . S
O968 Eu924 2.462 . S
O968 C988 1.252 . S
O969 Eu924 2.373 . S
O969 C980 1.249 . S
O970 Eu935 2.335 1_565 S
O970 C980 1.264 . S
O971 Eu924 2.432 . S
O971 C988 1.268 . S
O972 Eu924 2.291 . S
O972 C987 1.255 . S
O973 Eu935 2.372 1_565 S
O973 C987 1.257 . S
O974 Eu935 2.462 . S
O974 C999 1.252 . S
O975 Eu935 2.373 . S
O975 C991 1.249 1_545 S
O976 Eu924 2.335 . S
O976 C991 1.264 . S
O977 Eu935 2.432 . S
O977 C999 1.268 . S
O978 Eu935 2.291 . S
O978 C998 1.255 . S
O979 Eu924 2.372 . S
O979 C998 1.257 1_565 S
C980 O969 1.249 . S
C980 O970 1.264 . S
C981 C984 1.382 . S
C981 C986 1.390 . S
C981 C988 1.506 . S
C982 C983 1.398 . S
C982 C986 1.392 . S
C983 C982 1.398 . S
C983 C985 1.372 . S
C983 H1000 0.931 . S
C984 C981 1.382 . S
C984 C985 1.390 . S
C984 H1001 0.931 . S
C985 C983 1.372 . S
C985 C984 1.390 . S
C985 H1002 0.929 . S
C986 C981 1.390 . S
C986 C982 1.392 . S
C986 H1003 0.930 . S
C987 O972 1.255 . S
C987 O973 1.257 . S
C988 Eu924 2.787 . S
C988 O968 1.252 . S
C988 O971 1.268 . S
C988 C981 1.506 . S
C989 C956 1.439 . S
C989 H966 0.931 . S
C989 C990 1.374 . S
C990 C961 1.387 . S
C990 H967 0.931 . S
C990 C989 1.374 . S
C991 O975 1.249 1_565 S
C991 O976 1.264 . S
C992 C995 1.382 . S
C992 C996 1.390 . S
C992 C999 1.506 . S
C993 C994 1.398 . S
C993 C996 1.392 . S
C994 C993 1.398 . S
C994 C997 1.372 . S
C994 H1004 0.931 . S
C995 C992 1.382 . S
C995 C997 1.390 . S
C995 H1005 0.931 . S
C996 C992 1.390 . S
C996 C993 1.392 . S
C996 H1006 0.930 . S
C997 C994 1.372 . S
C997 C995 1.390 . S
C997 H1007 0.929 . S
C998 O978 1.255 . S
C998 O979 1.257 1_545 S
C999 Eu935 2.787 . S
C999 O974 1.252 . S
C999 O977 1.268 . S
C999 C992 1.506 . S
H1000 C983 0.931 . S
H1001 C984 0.931 . S
H1002 C985 0.929 . S
H1003 C986 0.930 . S
H1004 C994 0.931 . S
H1005 C995 0.931 . S
H1006 C996 0.930 . S
H1007 C997 0.929 . S
Eu1008 N1037 2.600 . S
Eu1008 N1043 2.562 1_556 S
Eu1008 O1052 2.462 . S
Eu1008 O1053 2.373 1_556 S
Eu1008 O1055 2.432 . S
Eu1008 O1056 2.291 1_556 S
Eu1008 O1060 2.335 . S
Eu1008 O1063 2.372 . S
Eu1008 C1072 2.787 . S
C1009 N1010 1.365 . S
C1009 C1012 1.405 . S
C1009 C1016 1.448 . S
N1010 C1009 1.365 . S
N1010 C1013 1.319 . S
N1010 Eu1019 2.600 . S
C1011 C1013 1.397 . S
C1011 C1014 1.367 . S
C1011 H1031 0.931 . S
C1012 C1009 1.405 . S
C1012 C1014 1.403 . S
C1012 C1018 1.439 . S
C1013 N1010 1.319 . S
C1013 C1011 1.397 . S
C1013 H1024 0.930 . S
C1014 C1011 1.367 . S
C1014 C1012 1.403 . S
C1014 H1035 0.929 . S
C1015 C1016 1.430 . S
C1015 C1017 1.387 . S
C1015 C1021 1.404 . S
C1016 C1009 1.448 . S
C1016 C1015 1.430 . S
C1016 N1020 1.351 . S
C1017 C1015 1.387 . S
C1017 C1018 1.374 . S
C1017 H1032 0.931 . S
C1018 C1012 1.439 . S
C1018 C1017 1.374 . S
C1018 H1033 0.931 . S
Eu1019 N1010 2.600 . S
Eu1019 N1020 2.562 . S
Eu1019 O1054 2.335 . S
Eu1019 O1057 2.372 . S
Eu1019 O1058 2.462 . S
Eu1019 O1059 2.373 . S
Eu1019 O1061 2.432 . S
Eu1019 O1062 2.291 . S
Eu1019 C1083 2.787 . S
N1020 C1016 1.351 . S
N1020 Eu1019 2.562 . S
N1020 C1022 1.325 . S
C1021 C1015 1.404 . S
C1021 C1023 1.366 . S
C1021 H1029 0.930 . S
C1022 N1020 1.325 . S
C1022 C1023 1.416 . S
C1022 H1028 0.929 . S
C1023 C1021 1.366 . S
C1023 C1022 1.416 . S
C1023 H1025 0.923 1_554 S
H1024 C1013 0.930 . S
H1025 C1023 0.923 1_556 S
H1026 C1041 0.930 . S
H1027 C1048 0.930 . S
H1028 C1022 0.929 . S
H1029 C1021 0.930 . S
H1030 C1044 0.929 . S
H1031 C1011 0.931 . S
H1032 C1017 0.931 . S
H1033 C1018 0.931 . S
H1034 C1039 0.931 . S
H1035 C1014 0.929 . S
H1036 C1047 0.930 . S
N1037 Eu1008 2.600 . S
N1037 C1038 1.365 . S
N1037 C1041 1.319 . S
C1038 N1037 1.365 . S
C1038 C1040 1.405 . S
C1038 C1046 1.448 . S
C1039 H1034 0.931 . S
C1039 C1041 1.397 . S
C1039 C1042 1.367 . S
C1040 C1038 1.405 . S
C1040 C1042 1.403 . S
C1040 C1073 1.439 . S
C1041 H1026 0.930 . S
C1041 N1037 1.319 . S
C1041 C1039 1.397 . S
C1042 C1039 1.367 . S
C1042 C1040 1.403 . S
C1042 H1049 0.929 . S
N1043 Eu1008 2.562 1_554 S
N1043 C1044 1.325 . S
N1043 C1046 1.351 1_554 S
C1044 H1030 0.929 . S
C1044 N1043 1.325 . S
C1044 C1048 1.416 . S
C1045 C1046 1.430 1_554 S
C1045 C1047 1.404 . S
C1045 C1074 1.393 . S
C1046 C1038 1.448 . S
C1046 N1043 1.351 1_556 S
C1046 C1045 1.430 1_556 S
C1047 H1036 0.930 . S
C1047 C1045 1.404 . S
C1047 C1048 1.366 . S
C1048 H1027 0.930 . S
C1048 C1044 1.416 . S
C1048 C1047 1.366 . S
H1049 C1042 0.929 . S
H1050 C1073 0.931 . S
H1051 C1074 0.940 . S
O1052 Eu1008 2.462 . S
O1052 C1072 1.252 . S
O1053 Eu1008 2.373 1_554 S
O1053 C1064 1.249 . S
O1054 Eu1019 2.335 . S
O1054 C1064 1.264 . S
O1055 Eu1008 2.432 . S
O1055 C1072 1.268 . S
O1056 Eu1008 2.291 1_554 S
O1056 C1071 1.255 . S
O1057 Eu1019 2.372 . S
O1057 C1071 1.257 . S
O1058 Eu1019 2.462 . S
O1058 C1083 1.252 . S
O1059 Eu1019 2.373 . S
O1059 C1075 1.249 1_554 S
O1060 Eu1008 2.335 . S
O1060 C1075 1.264 . S
O1061 Eu1019 2.432 . S
O1061 C1083 1.268 . S
O1062 Eu1019 2.291 . S
O1062 C1082 1.255 1_554 S
O1063 Eu1008 2.372 . S
O1063 C1082 1.257 . S
C1064 O1053 1.249 . S
C1064 O1054 1.264 . S
C1065 C1068 1.382 . S
C1065 C1070 1.390 . S
C1065 C1072 1.506 . S
C1066 C1067 1.398 . S
C1066 C1070 1.392 . S
C1067 C1066 1.398 . S
C1067 C1069 1.372 . S
C1067 H1084 0.931 . S
C1068 C1065 1.382 . S
C1068 C1069 1.390 . S
C1068 H1085 0.931 . S
C1069 C1067 1.372 . S
C1069 C1068 1.390 . S
C1069 H1086 0.929 . S
C1070 C1065 1.390 . S
C1070 C1066 1.392 . S
C1070 H1087 0.930 . S
C1071 O1056 1.255 . S
C1071 O1057 1.257 . S
C1072 Eu1008 2.787 . S
C1072 O1052 1.252 . S
C1072 O1055 1.268 . S
C1072 C1065 1.506 . S
C1073 C1040 1.439 . S
C1073 H1050 0.931 . S
C1073 C1074 1.360 1_556 S
C1074 C1045 1.393 . S
C1074 H1051 0.940 . S
C1074 C1073 1.360 1_554 S
C1075 O1059 1.249 1_556 S
C1075 O1060 1.264 . S
C1076 C1079 1.382 . S
C1076 C1080 1.390 . S
C1076 C1083 1.506 . S
C1077 C1078 1.398 . S
C1077 C1080 1.392 . S
C1078 C1077 1.398 . S
C1078 C1081 1.372 . S
C1078 H1088 0.931 . S
C1079 C1076 1.382 . S
C1079 C1081 1.390 . S
C1079 H1089 0.931 . S
C1080 C1076 1.390 . S
C1080 C1077 1.392 . S
C1080 H1090 0.930 . S
C1081 C1078 1.372 . S
C1081 C1079 1.390 . S
C1081 H1091 0.929 . S
C1082 O1062 1.255 1_556 S
C1082 O1063 1.257 . S
C1083 Eu1019 2.787 . S
C1083 O1058 1.252 . S
C1083 O1061 1.268 . S
C1083 C1076 1.506 . S
H1084 C1067 0.931 . S
H1085 C1068 0.931 . S
H1086 C1069 0.929 . S
H1087 C1070 0.930 . S
H1088 C1078 0.931 . S
H1089 C1079 0.931 . S
H1090 C1080 0.930 . S
H1091 C1081 0.929 . S
Eu1092 N1121 2.600 . S
Eu1092 N1127 2.562 . S
Eu1092 O1136 2.462 . S
Eu1092 O1137 2.373 . S
Eu1092 O1139 2.432 . S
Eu1092 O1140 2.291 . S
Eu1092 O1144 2.335 . S
Eu1092 O1147 2.372 . S
Eu1092 C1156 2.787 . S
C1093 N1094 1.365 . S
C1093 C1096 1.405 . S
C1093 C1100 1.448 . S
N1094 C1093 1.365 . S
N1094 C1097 1.319 . S
N1094 Eu1103 2.600 . S
C1095 C1097 1.397 . S
C1095 C1098 1.367 . S
C1095 H1115 0.929 . S
C1096 C1093 1.405 . S
C1096 C1098 1.403 . S
C1096 C1102 1.439 . S
C1097 N1094 1.319 . S
C1097 C1095 1.397 . S
C1097 H1108 0.930 1_455 S
C1098 C1095 1.367 . S
C1098 C1096 1.403 . S
C1098 H1119 0.929 1_565 S
C1099 C1100 1.430 . S
C1099 C1101 1.387 . S
C1099 C1105 1.404 . S
C1100 C1093 1.448 . S
C1100 C1099 1.430 . S
C1100 N1104 1.351 . S
C1101 C1099 1.387 . S
C1101 C1102 1.374 . S
C1101 H1116 0.931 . S
C1102 C1096 1.439 . S
C1102 C1101 1.374 . S
C1102 H1117 0.931 . S
Eu1103 N1094 2.600 . S
Eu1103 N1104 2.562 . S
Eu1103 O1138 2.335 1_455 S
Eu1103 O1141 2.372 1_455 S
Eu1103 O1142 2.462 . S
Eu1103 O1143 2.373 . S
Eu1103 O1145 2.432 . S
Eu1103 O1146 2.291 . S
Eu1103 C1167 2.787 . S
N1104 C1100 1.351 . S
N1104 Eu1103 2.562 . S
N1104 C1106 1.325 . S
C1105 C1099 1.404 . S
C1105 C1107 1.366 . S
C1105 H1113 0.930 . S
C1106 N1104 1.325 . S
C1106 C1107 1.416 . S
C1106 H1112 0.929 . S
C1107 C1105 1.366 . S
C1107 C1106 1.416 . S
C1107 H1109 0.930 . S
H1108 C1097 0.930 1_655 S
H1109 C1107 0.930 . S
H1110 C1125 0.930 . S
H1111 C1132 0.930 . S
H1112 C1106 0.929 . S
H1113 C1105 0.930 . S
H1114 C1128 0.929 . S
H1115 C1095 0.929 . S
H1116 C1101 0.931 . S
H1117 C1102 0.931 . S
H1118 C1123 0.931 . S
H1119 C1098 0.929 1_545 S
H1120 C1131 0.930 . S
N1121 Eu1092 2.600 . S
N1121 C1122 1.365 . S
N1121 C1125 1.319 . S
C1122 N1121 1.365 . S
C1122 C1124 1.405 . S
C1122 C1130 1.448 . S
C1123 H1118 0.931 . S
C1123 C1125 1.397 . S
C1123 C1126 1.367 . S
C1124 C1122 1.405 . S
C1124 C1126 1.403 . S
C1124 C1157 1.439 . S
C1125 H1110 0.930 . S
C1125 N1121 1.319 . S
C1125 C1123 1.397 . S
C1126 C1123 1.367 . S
C1126 C1124 1.403 . S
C1126 H1133 0.929 . S
N1127 Eu1092 2.562 . S
N1127 C1128 1.325 . S
N1127 C1130 1.351 . S
C1128 H1114 0.929 . S
C1128 N1127 1.325 . S
C1128 C1132 1.416 . S
C1129 C1130 1.430 . S
C1129 C1131 1.404 . S
C1129 C1158 1.387 . S
C1130 C1122 1.448 . S
C1130 N1127 1.351 . S
C1130 C1129 1.430 . S
C1131 H1120 0.930 . S
C1131 C1129 1.404 . S
C1131 C1132 1.366 . S
C1132 H1111 0.930 . S
C1132 C1128 1.416 . S
C1132 C1131 1.366 . S
H1133 C1126 0.929 . S
H1134 C1157 0.931 . S
H1135 C1158 0.931 . S
O1136 Eu1092 2.462 . S
O1136 C1156 1.252 . S
O1137 Eu1092 2.373 . S
O1137 C1148 1.249 . S
O1138 Eu1103 2.335 1_655 S
O1138 C1148 1.264 . S
O1139 Eu1092 2.432 . S
O1139 C1156 1.268 . S
O1140 Eu1092 2.291 . S
O1140 C1155 1.255 . S
O1141 Eu1103 2.372 1_655 S
O1141 C1155 1.257 . S
O1142 Eu1103 2.462 . S
O1142 C1167 1.252 . S
O1143 Eu1103 2.373 . S
O1143 C1159 1.237 1_455 S
O1144 Eu1092 2.335 . S
O1144 C1159 1.293 . S
O1145 Eu1103 2.432 . S
O1145 C1167 1.268 . S
O1146 Eu1103 2.291 . S
O1146 C1166 1.255 . S
O1147 Eu1092 2.372 . S
O1147 C1166 1.257 1_655 S
C1148 O1137 1.249 . S
C1148 O1138 1.264 . S
C1149 C1152 1.382 . S
C1149 C1154 1.390 . S
C1149 C1156 1.506 . S
C1150 C1151 1.398 . S
C1150 C1154 1.392 . S
C1151 C1150 1.398 . S
C1151 C1153 1.372 . S
C1151 H1168 0.931 . S
C1152 C1149 1.382 . S
C1152 C1153 1.390 . S
C1152 H1169 0.931 . S
C1153 C1151 1.372 . S
C1153 C1152 1.390 . S
C1153 H1170 0.929 . S
C1154 C1149 1.390 . S
C1154 C1150 1.392 . S
C1154 H1171 0.930 . S
C1155 O1140 1.255 . S
C1155 O1141 1.257 . S
C1156 Eu1092 2.787 . S
C1156 O1136 1.252 . S
C1156 O1139 1.268 . S
C1156 C1149 1.506 . S
C1157 C1124 1.439 . S
C1157 H1134 0.931 . S
C1157 C1158 1.374 . S
C1158 C1129 1.387 . S
C1158 H1135 0.931 . S
C1158 C1157 1.374 . S
C1159 O1143 1.237 1_655 S
C1159 O1144 1.293 . S
C1160 C1163 1.382 . S
C1160 C1164 1.390 . S
C1160 C1167 1.506 . S
C1161 C1162 1.398 . S
C1161 C1164 1.392 . S
C1162 C1161 1.398 . S
C1162 C1165 1.372 . S
C1162 H1172 0.931 . S
C1163 C1160 1.382 . S
C1163 C1165 1.390 . S
C1163 H1173 0.931 . S
C1164 C1160 1.390 . S
C1164 C1161 1.392 . S
C1164 H1174 0.930 . S
C1165 C1162 1.372 . S
C1165 C1163 1.390 . S
C1165 H1175 0.929 . S
C1166 O1146 1.255 . S
C1166 O1147 1.257 1_455 S
C1167 Eu1103 2.787 . S
C1167 O1142 1.252 . S
C1167 O1145 1.268 . S
C1167 C1160 1.506 . S
H1168 C1151 0.931 . S
H1169 C1152 0.931 . S
H1170 C1153 0.929 . S
H1171 C1154 0.930 . S
H1172 C1162 0.931 . S
H1173 C1163 0.931 . S
H1174 C1164 0.930 . S
H1175 C1165 0.929 . S
Eu1176 N1205 2.600 . S
Eu1176 N1211 2.562 . S
Eu1176 O1220 2.462 . S
Eu1176 O1221 2.373 . S
Eu1176 O1223 2.432 . S
Eu1176 O1224 2.291 . S
Eu1176 O1228 2.335 . S
Eu1176 O1231 2.372 . S
Eu1176 C1240 2.787 . S
C1177 N1178 1.365 . S
C1177 C1180 1.405 . S
C1177 C1184 1.448 . S
N1178 C1177 1.365 . S
N1178 C1181 1.319 . S
N1178 Eu1187 2.600 . S
C1179 C1181 1.397 . S
C1179 C1182 1.367 . S
C1179 H1199 0.931 . S
C1180 C1177 1.405 . S
C1180 C1182 1.403 . S
C1180 C1186 1.439 . S
C1181 N1178 1.319 . S
C1181 C1179 1.397 . S
C1181 H1192 0.930 . S
C1182 C1179 1.367 . S
C1182 C1180 1.403 . S
C1182 H1203 0.929 . S
C1183 C1184 1.430 . S
C1183 C1185 1.387 . S
C1183 C1189 1.404 . S
C1184 C1177 1.448 . S
C1184 C1183 1.430 . S
C1184 N1188 1.351 . S
C1185 C1183 1.387 . S
C1185 C1186 1.374 . S
C1185 H1200 0.931 . S
C1186 C1180 1.439 . S
C1186 C1185 1.374 . S
C1186 H1201 0.931 . S
Eu1187 N1178 2.600 . S
Eu1187 N1188 2.562 . S
Eu1187 O1222 2.335 . S
Eu1187 O1225 2.372 . S
Eu1187 O1226 2.462 . S
Eu1187 O1227 2.373 . S
Eu1187 O1229 2.432 . S
Eu1187 O1230 2.291 . S
Eu1187 C1251 2.787 . S
N1188 C1184 1.351 . S
N1188 Eu1187 2.562 . S
N1188 C1190 1.325 . S
C1189 C1183 1.404 . S
C1189 C1191 1.366 . S
C1189 H1197 0.930 . S
C1190 N1188 1.325 . S
C1190 C1191 1.416 . S
C1190 H1196 0.929 . S
C1191 C1189 1.366 . S
C1191 C1190 1.416 . S
C1191 H1193 0.930 . S
H1192 C1181 0.930 . S
H1193 C1191 0.930 . S
H1194 C1209 0.930 . S
H1195 C1216 0.930 . S
H1196 C1190 0.929 . S
H1197 C1189 0.930 . S
H1198 C1212 0.929 . S
H1199 C1179 0.931 . S
H1200 C1185 0.931 . S
H1201 C1186 0.931 . S
H1202 C1207 0.931 . S
H1203 C1182 0.929 . S
H1204 C1215 0.930 . S
N1205 Eu1176 2.600 . S
N1205 C1206 1.365 . S
N1205 C1209 1.319 . S
C1206 N1205 1.365 . S
C1206 C1208 1.405 . S
C1206 C1214 1.448 . S
C1207 H1202 0.931 . S
C1207 C1209 1.397 . S
C1207 C1210 1.367 . S
C1208 C1206 1.405 . S
C1208 C1210 1.403 . S
C1208 C1241 1.439 . S
C1209 H1194 0.930 . S
C1209 N1205 1.319 . S
C1209 C1207 1.397 . S
C1210 C1207 1.367 . S
C1210 C1208 1.403 . S
C1210 H1217 0.906 1_455 S
N1211 Eu1176 2.562 . S
N1211 C1212 1.325 . S
N1211 C1214 1.351 . S
C1212 H1198 0.929 . S
C1212 N1211 1.325 . S
C1212 C1216 1.416 . S
C1213 C1214 1.430 . S
C1213 C1215 1.404 . S
C1213 C1242 1.387 . S
C1214 C1206 1.448 . S
C1214 N1211 1.351 . S
C1214 C1213 1.430 . S
C1215 H1204 0.930 . S
C1215 C1213 1.404 . S
C1215 C1216 1.366 . S
C1216 H1195 0.930 . S
C1216 C1212 1.416 . S
C1216 C1215 1.366 . S
H1217 C1210 0.906 1_655 S
H1218 C1241 0.931 . S
H1219 C1242 0.931 . S
O1220 Eu1176 2.462 . S
O1220 C1240 1.252 . S
O1221 Eu1176 2.373 . S
O1221 C1232 1.249 . S
O1222 Eu1187 2.335 . S
O1222 C1232 1.264 . S
O1223 Eu1176 2.432 . S
O1223 C1240 1.268 . S
O1224 Eu1176 2.291 . S
O1224 C1239 1.255 . S
O1225 Eu1187 2.372 . S
O1225 C1239 1.257 . S
O1226 Eu1187 2.462 . S
O1226 C1251 1.252 . S
O1227 Eu1187 2.373 . S
O1227 C1243 1.249 . S
O1228 Eu1176 2.335 . S
O1228 C1243 1.264 . S
O1229 Eu1187 2.432 . S
O1229 C1251 1.268 . S
O1230 Eu1187 2.291 . S
O1230 C1250 1.255 . S
O1231 Eu1176 2.372 . S
O1231 C1250 1.257 . S
C1232 O1221 1.249 . S
C1232 O1222 1.264 . S
C1233 C1236 1.382 . S
C1233 C1238 1.390 . S
C1233 C1240 1.506 . S
C1234 C1235 1.398 . S
C1234 C1238 1.392 . S
C1235 C1234 1.398 . S
C1235 C1237 1.372 . S
C1235 H1252 0.931 . S
C1236 C1233 1.382 . S
C1236 C1237 1.390 . S
C1236 H1253 0.931 . S
C1237 C1235 1.372 . S
C1237 C1236 1.390 . S
C1237 H1254 0.929 . S
C1238 C1233 1.390 . S
C1238 C1234 1.392 . S
C1238 H1255 0.930 . S
C1239 O1224 1.255 . S
C1239 O1225 1.257 . S
C1240 Eu1176 2.787 . S
C1240 O1220 1.252 . S
C1240 O1223 1.268 . S
C1240 C1233 1.506 . S
C1241 C1208 1.439 . S
C1241 H1218 0.931 . S
C1241 C1242 1.374 . S
C1242 C1213 1.387 . S
C1242 H1219 0.931 . S
C1242 C1241 1.374 . S
C1243 O1227 1.249 . S
C1243 O1228 1.264 . S
C1244 C1247 1.382 . S
C1244 C1248 1.390 . S
C1244 C1251 1.506 . S
C1245 C1246 1.398 . S
C1245 C1248 1.392 . S
C1246 C1245 1.398 . S
C1246 C1249 1.372 . S
C1246 H1256 0.931 . S
C1247 C1244 1.382 . S
C1247 C1249 1.390 . S
C1247 H1257 0.931 . S
C1248 C1244 1.390 . S
C1248 C1245 1.392 . S
C1248 H1258 0.930 . S
C1249 C1246 1.372 . S
C1249 C1247 1.390 . S
C1249 H1259 0.929 . S
C1250 O1230 1.255 . S
C1250 O1231 1.257 . S
C1251 Eu1187 2.787 . S
C1251 O1226 1.252 . S
C1251 O1229 1.268 . S
C1251 C1244 1.506 . S
H1252 C1235 0.931 . S
H1253 C1236 0.931 . S
H1254 C1237 0.929 . S
H1255 C1238 0.930 . S
H1256 C1246 0.931 . S
H1257 C1247 0.931 . S
H1258 C1248 0.930 . S
H1259 C1249 0.929 . S
Eu1260 N1289 2.600 . S
Eu1260 N1295 2.562 . S
Eu1260 O1304 2.462 . S
Eu1260 O1305 2.373 . S
Eu1260 O1307 2.432 . S
Eu1260 O1308 2.291 . S
Eu1260 O1312 2.335 1_455 S
Eu1260 O1315 2.372 1_455 S
Eu1260 C1324 2.787 . S
C1261 N1262 1.365 . S
C1261 C1264 1.405 . S
C1261 C1268 1.448 . S
N1262 C1261 1.365 . S
N1262 C1265 1.319 . S
N1262 Eu1271 2.600 . S
C1263 C1265 1.397 . S
C1263 C1266 1.367 . S
C1263 H1283 0.931 . S
C1264 C1261 1.405 . S
C1264 C1266 1.403 . S
C1264 C1270 1.439 . S
C1265 N1262 1.319 . S
C1265 C1263 1.397 . S
C1265 H1276 0.930 . S
C1266 C1263 1.367 . S
C1266 C1264 1.403 . S
C1266 H1287 0.929 . S
C1267 C1268 1.430 . S
C1267 C1269 1.387 . S
C1267 C1273 1.404 . S
C1268 C1261 1.448 . S
C1268 C1267 1.430 . S
C1268 N1272 1.351 . S
C1269 C1267 1.387 . S
C1269 C1270 1.374 . S
C1269 H1284 0.931 . S
C1270 C1264 1.439 . S
C1270 C1269 1.374 . S
C1270 H1285 0.931 . S
Eu1271 N1262 2.600 . S
Eu1271 N1272 2.562 . S
Eu1271 O1306 2.335 . S
Eu1271 O1309 2.372 . S
Eu1271 O1310 2.462 . S
Eu1271 O1311 2.373 . S
Eu1271 O1313 2.432 . S
Eu1271 O1314 2.291 . S
Eu1271 C1335 2.787 . S
N1272 C1268 1.351 . S
N1272 Eu1271 2.562 . S
N1272 C1274 1.325 . S
C1273 C1267 1.404 . S
C1273 C1275 1.366 . S
C1273 H1281 0.930 . S
C1274 N1272 1.325 . S
C1274 C1275 1.416 . S
C1274 H1280 0.929 . S
C1275 C1273 1.366 . S
C1275 C1274 1.416 . S
C1275 H1277 0.930 . S
H1276 C1265 0.930 . S
H1277 C1275 0.930 . S
H1278 C1293 0.930 1_655 S
H1279 C1300 0.930 . S
H1280 C1274 0.929 . S
H1281 C1273 0.930 . S
H1282 C1296 0.929 . S
H1283 C1263 0.931 . S
H1284 C1269 0.931 . S
H1285 C1270 0.931 . S
H1286 C1291 0.931 1_655 S
H1287 C1266 0.929 . S
H1288 C1299 0.930 . S
N1289 Eu1260 2.600 . S
N1289 C1290 1.365 . S
N1289 C1293 1.319 . S
C1290 N1289 1.365 . S
C1290 C1292 1.405 . S
C1290 C1298 1.448 . S
C1291 H1286 0.931 1_455 S
C1291 C1293 1.397 . S
C1291 C1294 1.367 . S
C1292 C1290 1.405 . S
C1292 C1294 1.403 . S
C1292 C1325 1.439 . S
C1293 H1278 0.930 1_455 S
C1293 N1289 1.319 . S
C1293 C1291 1.397 . S
C1294 C1291 1.367 . S
C1294 C1292 1.403 . S
C1294 H1301 0.929 . S
N1295 Eu1260 2.562 . S
N1295 C1296 1.325 . S
N1295 C1298 1.351 . S
C1296 H1282 0.929 . S
C1296 N1295 1.325 . S
C1296 C1300 1.416 . S
C1297 C1298 1.430 . S
C1297 C1299 1.404 . S
C1297 C1326 1.387 . S
C1298 C1290 1.448 . S
C1298 N1295 1.351 . S
C1298 C1297 1.430 . S
C1299 H1288 0.930 . S
C1299 C1297 1.404 . S
C1299 C1300 1.366 . S
C1300 H1279 0.930 . S
C1300 C1296 1.416 . S
C1300 C1299 1.366 . S
H1301 C1294 0.929 . S
H1302 C1325 0.931 . S
H1303 C1326 0.931 . S
O1304 Eu1260 2.462 . S
O1304 C1324 1.252 . S
O1305 Eu1260 2.373 . S
O1305 C1316 1.249 1_455 S
O1306 Eu1271 2.335 . S
O1306 C1316 1.264 . S
O1307 Eu1260 2.432 . S
O1307 C1324 1.268 . S
O1308 Eu1260 2.291 . S
O1308 C1323 1.255 . S
O1309 Eu1271 2.372 . S
O1309 C1323 1.257 1_655 S
O1310 Eu1271 2.462 . S
O1310 C1335 1.252 . S
O1311 Eu1271 2.373 . S
O1311 C1327 1.249 . S
O1312 Eu1260 2.335 1_655 S
O1312 C1327 1.264 . S
O1313 Eu1271 2.432 . S
O1313 C1335 1.268 . S
O1314 Eu1271 2.291 . S
O1314 C1334 1.255 . S
O1315 Eu1260 2.372 1_655 S
O1315 C1334 1.257 . S
C1316 O1305 1.249 1_655 S
C1316 O1306 1.264 . S
C1317 C1320 1.382 . S
C1317 C1322 1.390 . S
C1317 C1324 1.506 . S
C1318 C1319 1.398 . S
C1318 C1322 1.392 . S
C1319 C1318 1.398 . S
C1319 C1321 1.372 . S
C1319 H1336 0.931 . S
C1320 C1317 1.382 . S
C1320 C1321 1.390 . S
C1320 H1337 0.931 . S
C1321 C1319 1.372 . S
C1321 C1320 1.390 . S
C1321 H1338 0.929 . S
C1322 C1317 1.390 . S
C1322 C1318 1.392 . S
C1322 H1339 0.930 . S
C1323 O1308 1.255 . S
C1323 O1309 1.257 1_455 S
C1324 Eu1260 2.787 . S
C1324 O1304 1.252 . S
C1324 O1307 1.268 . S
C1324 C1317 1.506 . S
C1325 C1292 1.439 . S
C1325 H1302 0.931 . S
C1325 C1326 1.374 . S
C1326 C1297 1.387 . S
C1326 H1303 0.931 . S
C1326 C1325 1.374 . S
C1327 O1311 1.249 . S
C1327 O1312 1.264 . S
C1328 C1331 1.382 . S
C1328 C1332 1.390 . S
C1328 C1335 1.506 . S
C1329 C1330 1.398 . S
C1329 C1332 1.392 . S
C1330 C1329 1.398 . S
C1330 C1333 1.372 . S
C1330 H1340 0.931 . S
C1331 C1328 1.382 . S
C1331 C1333 1.390 . S
C1331 H1341 0.931 . S
C1332 C1328 1.390 . S
C1332 C1329 1.392 . S
C1332 H1342 0.930 . S
C1333 C1330 1.372 . S
C1333 C1331 1.390 . S
C1333 H1343 0.929 . S
C1334 O1314 1.255 . S
C1334 O1315 1.257 . S
C1335 Eu1271 2.787 . S
C1335 O1310 1.252 . S
C1335 O1313 1.268 . S
C1335 C1328 1.506 . S
H1336 C1319 0.931 . S
H1337 C1320 0.931 . S
H1338 C1321 0.929 . S
H1339 C1322 0.930 . S
H1340 C1330 0.931 . S
H1341 C1331 0.931 . S
H1342 C1332 0.930 . S
H1343 C1333 0.929 . S
Eu1344 N1373 2.600 . S
Eu1344 N1379 2.562 . S
Eu1344 O1388 2.462 . S
Eu1344 O1389 2.373 . S
Eu1344 O1391 2.432 . S
Eu1344 O1392 2.291 . S
Eu1344 O1396 2.335 . S
Eu1344 O1399 2.372 . S
Eu1344 C1408 2.787 . S
C1345 N1346 1.365 . S
C1345 C1348 1.405 . S
C1345 C1352 1.448 . S
N1346 C1345 1.365 . S
N1346 C1349 1.319 . S
N1346 Eu1355 2.600 . S
C1347 C1349 1.397 . S
C1347 C1350 1.367 . S
C1347 H1367 0.931 . S
C1348 C1345 1.405 . S
C1348 C1350 1.403 . S
C1348 C1354 1.439 . S
C1349 N1346 1.319 . S
C1349 C1347 1.397 . S
C1349 H1360 0.930 . S
C1350 C1347 1.367 . S
C1350 C1348 1.403 . S
C1350 H1371 0.929 . S
C1351 C1352 1.430 . S
C1351 C1353 1.387 . S
C1351 C1357 1.404 . S
C1352 C1345 1.448 . S
C1352 C1351 1.430 . S
C1352 N1356 1.351 . S
C1353 C1351 1.387 . S
C1353 C1354 1.374 . S
C1353 H1368 0.931 . S
C1354 C1348 1.439 . S
C1354 C1353 1.374 . S
C1354 H1369 0.931 . S
Eu1355 N1346 2.600 . S
Eu1355 N1356 2.562 . S
Eu1355 O1390 2.335 . S
Eu1355 O1393 2.372 . S
Eu1355 O1394 2.462 . S
Eu1355 O1395 2.373 . S
Eu1355 O1397 2.432 . S
Eu1355 O1398 2.291 . S
Eu1355 C1419 2.787 . S
N1356 C1352 1.351 . S
N1356 Eu1355 2.562 . S
N1356 C1358 1.325 . S
C1357 C1351 1.404 . S
C1357 C1359 1.366 . S
C1357 H1365 0.930 . S
C1358 N1356 1.325 . S
C1358 C1359 1.416 . S
C1358 H1364 0.929 . S
C1359 C1357 1.366 . S
C1359 C1358 1.416 . S
C1359 H1361 0.930 . S
H1360 C1349 0.930 . S
H1361 C1359 0.930 . S
H1362 C1377 0.930 . S
H1363 C1384 0.930 . S
H1364 C1358 0.929 . S
H1365 C1357 0.930 . S
H1366 C1380 0.929 . S
H1367 C1347 0.931 . S
H1368 C1353 0.931 . S
H1369 C1354 0.931 . S
H1370 C1375 0.931 . S
H1371 C1350 0.929 . S
H1372 C1383 0.930 . S
N1373 Eu1344 2.600 . S
N1373 C1374 1.365 . S
N1373 C1377 1.319 . S
C1374 N1373 1.365 . S
C1374 C1376 1.405 . S
C1374 C1382 1.448 . S
C1375 H1370 0.931 . S
C1375 C1377 1.397 . S
C1375 C1378 1.367 . S
C1376 C1374 1.405 . S
C1376 C1378 1.403 . S
C1376 C1409 1.439 . S
C1377 H1362 0.930 . S
C1377 N1373 1.319 . S
C1377 C1375 1.397 . S
C1378 C1375 1.367 . S
C1378 C1376 1.403 . S
C1378 H1385 0.929 . S
N1379 Eu1344 2.562 . S
N1379 C1380 1.325 . S
N1379 C1382 1.351 . S
C1380 H1366 0.929 . S
C1380 N1379 1.325 . S
C1380 C1384 1.416 . S
C1381 C1382 1.430 . S
C1381 C1383 1.404 . S
C1381 C1410 1.387 . S
C1382 C1374 1.448 . S
C1382 N1379 1.351 . S
C1382 C1381 1.430 . S
C1383 H1372 0.930 . S
C1383 C1381 1.404 . S
C1383 C1384 1.366 . S
C1384 H1363 0.930 . S
C1384 C1380 1.416 . S
C1384 C1383 1.366 . S
H1385 C1378 0.929 . S
H1386 C1409 0.931 . S
H1387 C1410 0.931 . S
O1388 Eu1344 2.462 . S
O1388 C1408 1.252 . S
O1389 Eu1344 2.373 . S
O1389 C1400 1.249 . S
O1390 Eu1355 2.335 . S
O1390 C1400 1.264 . S
O1391 Eu1344 2.432 . S
O1391 C1408 1.268 . S
O1392 Eu1344 2.291 . S
O1392 C1407 1.255 . S
O1393 Eu1355 2.372 . S
O1393 C1407 1.257 . S
O1394 Eu1355 2.462 . S
O1394 C1419 1.252 . S
O1395 Eu1355 2.373 . S
O1395 C1411 1.249 . S
O1396 Eu1344 2.335 . S
O1396 C1411 1.264 . S
O1397 Eu1355 2.432 . S
O1397 C1419 1.268 . S
O1398 Eu1355 2.291 . S
O1398 C1418 1.255 . S
O1399 Eu1344 2.372 . S
O1399 C1418 1.257 . S
C1400 O1389 1.249 . S
C1400 O1390 1.264 . S
C1401 C1404 1.382 . S
C1401 C1406 1.390 . S
C1401 C1408 1.506 . S
C1402 C1403 1.398 . S
C1402 C1406 1.392 . S
C1403 C1402 1.398 . S
C1403 C1405 1.372 . S
C1403 H1420 0.931 . S
C1404 C1401 1.382 . S
C1404 C1405 1.390 . S
C1404 H1421 0.931 . S
C1405 C1403 1.372 . S
C1405 C1404 1.390 . S
C1405 H1422 0.929 . S
C1406 C1401 1.390 . S
C1406 C1402 1.392 . S
C1406 H1423 0.930 . S
C1407 O1392 1.255 . S
C1407 O1393 1.257 . S
C1408 Eu1344 2.787 . S
C1408 O1388 1.252 . S
C1408 O1391 1.268 . S
C1408 C1401 1.506 . S
C1409 C1376 1.439 . S
C1409 H1386 0.931 . S
C1409 C1410 1.374 . S
C1410 C1381 1.387 . S
C1410 H1387 0.931 . S
C1410 C1409 1.374 . S
C1411 O1395 1.249 . S
C1411 O1396 1.264 . S
C1412 C1415 1.382 . S
C1412 C1416 1.390 . S
C1412 C1419 1.506 . S
C1413 C1414 1.398 . S
C1413 C1416 1.392 . S
C1414 C1413 1.398 . S
C1414 C1417 1.372 . S
C1414 H1424 0.931 . S
C1415 C1412 1.382 . S
C1415 C1417 1.390 . S
C1415 H1425 0.931 . S
C1416 C1412 1.390 . S
C1416 C1413 1.392 . S
C1416 H1426 0.930 . S
C1417 C1414 1.372 . S
C1417 C1415 1.390 . S
C1417 H1427 0.929 . S
C1418 O1398 1.255 . S
C1418 O1399 1.257 . S
C1419 Eu1355 2.787 . S
C1419 O1394 1.252 . S
C1419 O1397 1.268 . S
C1419 C1412 1.506 . S
H1420 C1403 0.931 . S
H1421 C1404 0.931 . S
H1422 C1405 0.929 . S
H1423 C1406 0.930 . S
H1424 C1414 0.931 . S
H1425 C1415 0.931 . S
H1426 C1416 0.930 . S
H1427 C1417 0.929 . S
Eu1428 N1457 2.600 . S
Eu1428 N1463 2.562 . S
Eu1428 O1472 2.462 . S
Eu1428 O1473 2.373 . S
Eu1428 O1475 2.432 . S
Eu1428 O1476 2.291 . S
Eu1428 O1480 2.335 . S
Eu1428 O1483 2.372 . S
Eu1428 C1492 2.787 . S
C1429 N1430 1.365 . S
C1429 C1432 1.405 . S
C1429 C1436 1.448 . S
N1430 C1429 1.365 . S
N1430 C1433 1.319 . S
N1430 Eu1439 2.600 . S
C1431 C1433 1.397 . S
C1431 C1434 1.367 . S
C1431 H1451 0.931 . S
C1432 C1429 1.405 . S
C1432 C1434 1.403 . S
C1432 C1438 1.439 . S
C1433 N1430 1.319 . S
C1433 C1431 1.397 . S
C1433 H1444 0.930 . S
C1434 C1431 1.367 . S
C1434 C1432 1.403 . S
C1434 H1455 0.929 . S
C1435 C1436 1.430 . S
C1435 C1437 1.387 . S
C1435 C1441 1.404 . S
C1436 C1429 1.448 . S
C1436 C1435 1.430 . S
C1436 N1440 1.351 . S
C1437 C1435 1.387 . S
C1437 C1438 1.374 . S
C1437 H1452 0.931 . S
C1438 C1432 1.439 . S
C1438 C1437 1.374 . S
C1438 H1453 0.931 . S
Eu1439 N1430 2.600 . S
Eu1439 N1440 2.562 . S
Eu1439 O1474 2.335 . S
Eu1439 O1477 2.372 . S
Eu1439 O1478 2.462 . S
Eu1439 O1479 2.373 . S
Eu1439 O1481 2.432 . S
Eu1439 O1482 2.291 . S
Eu1439 C1503 2.787 . S
N1440 C1436 1.351 . S
N1440 Eu1439 2.562 . S
N1440 C1442 1.325 . S
C1441 C1435 1.404 . S
C1441 C1443 1.366 . S
C1441 H1449 0.930 . S
C1442 N1440 1.325 . S
C1442 C1443 1.416 . S
C1442 H1448 0.929 . S
C1443 C1441 1.366 . S
C1443 C1442 1.416 . S
C1443 H1445 0.930 . S
H1444 C1433 0.930 . S
H1445 C1443 0.930 . S
H1446 C1461 0.930 . S
H1447 C1468 0.930 . S
H1448 C1442 0.929 . S
H1449 C1441 0.930 . S
H1450 C1464 0.929 . S
H1451 C1431 0.931 . S
H1452 C1437 0.931 . S
H1453 C1438 0.931 . S
H1454 C1459 0.931 . S
H1455 C1434 0.929 . S
H1456 C1467 0.930 . S
N1457 Eu1428 2.600 . S
N1457 C1458 1.365 . S
N1457 C1461 1.319 . S
C1458 N1457 1.365 . S
C1458 C1460 1.405 . S
C1458 C1466 1.448 . S
C1459 H1454 0.931 . S
C1459 C1461 1.397 . S
C1459 C1462 1.367 . S
C1460 C1458 1.405 . S
C1460 C1462 1.403 . S
C1460 C1493 1.439 . S
C1461 H1446 0.930 . S
C1461 N1457 1.319 . S
C1461 C1459 1.397 . S
C1462 C1459 1.367 . S
C1462 C1460 1.403 . S
C1462 H1469 0.929 . S
N1463 Eu1428 2.562 . S
N1463 C1464 1.325 . S
N1463 C1466 1.351 . S
C1464 H1450 0.929 . S
C1464 N1463 1.325 . S
C1464 C1468 1.416 . S
C1465 C1466 1.430 . S
C1465 C1467 1.404 . S
C1465 C1494 1.387 . S
C1466 C1458 1.448 . S
C1466 N1463 1.351 . S
C1466 C1465 1.430 . S
C1467 H1456 0.930 . S
C1467 C1465 1.404 . S
C1467 C1468 1.366 . S
C1468 H1447 0.930 . S
C1468 C1464 1.416 . S
C1468 C1467 1.366 . S
H1469 C1462 0.929 . S
H1470 C1493 0.931 . S
H1471 C1494 0.931 . S
O1472 Eu1428 2.462 . S
O1472 C1492 1.252 . S
O1473 Eu1428 2.373 . S
O1473 C1484 1.249 . S
O1474 Eu1439 2.335 . S
O1474 C1484 1.264 . S
O1475 Eu1428 2.432 . S
O1475 C1492 1.268 . S
O1476 Eu1428 2.291 . S
O1476 C1491 1.255 . S
O1477 Eu1439 2.372 . S
O1477 C1491 1.257 . S
O1478 Eu1439 2.462 . S
O1478 C1503 1.252 . S
O1479 Eu1439 2.373 . S
O1479 C1495 1.249 . S
O1480 Eu1428 2.335 . S
O1480 C1495 1.264 . S
O1481 Eu1439 2.432 . S
O1481 C1503 1.268 . S
O1482 Eu1439 2.291 . S
O1482 C1502 1.255 . S
O1483 Eu1428 2.372 . S
O1483 C1502 1.257 . S
C1484 O1473 1.249 . S
C1484 O1474 1.264 . S
C1485 C1488 1.382 . S
C1485 C1490 1.390 . S
C1485 C1492 1.506 . S
C1486 C1487 1.398 . S
C1486 C1490 1.392 . S
C1487 C1486 1.398 . S
C1487 C1489 1.372 . S
C1487 H1504 0.931 . S
C1488 C1485 1.382 . S
C1488 C1489 1.390 . S
C1488 H1505 0.931 . S
C1489 C1487 1.372 . S
C1489 C1488 1.390 . S
C1489 H1506 0.929 . S
C1490 C1485 1.390 . S
C1490 C1486 1.392 . S
C1490 H1507 0.930 . S
C1491 O1476 1.255 . S
C1491 O1477 1.257 . S
C1492 Eu1428 2.787 . S
C1492 O1472 1.252 . S
C1492 O1475 1.268 . S
C1492 C1485 1.506 . S
C1493 C1460 1.439 . S
C1493 H1470 0.931 . S
C1493 C1494 1.374 . S
C1494 C1465 1.387 . S
C1494 H1471 0.931 . S
C1494 C1493 1.374 . S
C1495 O1479 1.249 . S
C1495 O1480 1.264 . S
C1496 C1499 1.382 . S
C1496 C1500 1.390 . S
C1496 C1503 1.506 . S
C1497 C1498 1.398 . S
C1497 C1500 1.392 . S
C1498 C1497 1.398 . S
C1498 C1501 1.372 . S
C1498 H1508 0.931 . S
C1499 C1496 1.382 . S
C1499 C1501 1.390 . S
C1499 H1509 0.931 . S
C1500 C1496 1.390 . S
C1500 C1497 1.392 . S
C1500 H1510 0.930 . S
C1501 C1498 1.372 . S
C1501 C1499 1.390 . S
C1501 H1511 0.929 . S
C1502 O1482 1.255 . S
C1502 O1483 1.257 . S
C1503 Eu1439 2.787 . S
C1503 O1478 1.252 . S
C1503 O1481 1.268 . S
C1503 C1496 1.506 . S
H1504 C1487 0.931 . S
H1505 C1488 0.931 . S
H1506 C1489 0.929 . S
H1507 C1490 0.930 . S
H1508 C1498 0.931 . S
H1509 C1499 0.931 . S
H1510 C1500 0.930 . S
H1511 C1501 0.929 . S
Eu1512 N1541 2.600 . S
Eu1512 N1547 2.562 . S
Eu1512 O1556 2.462 . S
Eu1512 O1557 2.373 . S
Eu1512 O1559 2.432 . S
Eu1512 O1560 2.291 . S
Eu1512 O1564 2.335 . S
Eu1512 O1567 2.372 . S
Eu1512 C1576 2.787 . S
C1513 N1514 1.365 . S
C1513 C1516 1.405 . S
C1513 C1520 1.448 . S
N1514 C1513 1.365 . S
N1514 C1517 1.319 . S
N1514 Eu1523 2.600 . S
C1515 C1517 1.397 . S
C1515 C1518 1.367 . S
C1515 H1535 0.931 . S
C1516 C1513 1.405 . S
C1516 C1518 1.403 . S
C1516 C1522 1.439 . S
C1517 N1514 1.319 . S
C1517 C1515 1.397 . S
C1517 H1528 0.930 . S
C1518 C1515 1.367 . S
C1518 C1516 1.403 . S
C1518 H1539 0.929 . S
C1519 C1520 1.430 1_556 S
C1519 C1521 1.387 . S
C1519 C1525 1.404 . S
C1520 C1513 1.448 . S
C1520 C1519 1.430 1_554 S
C1520 N1524 1.351 1_554 S
C1521 C1519 1.387 . S
C1521 C1522 1.374 1_556 S
C1521 H1536 0.931 . S
C1522 C1516 1.439 . S
C1522 C1521 1.374 1_554 S
C1522 H1537 0.931 . S
Eu1523 N1514 2.600 . S
Eu1523 N1524 2.562 1_554 S
Eu1523 O1558 2.335 . S
Eu1523 O1561 2.372 . S
Eu1523 O1562 2.462 . S
Eu1523 O1563 2.373 1_554 S
Eu1523 O1565 2.432 . S
Eu1523 O1566 2.291 1_554 S
Eu1523 C1587 2.787 . S
N1524 C1520 1.351 1_556 S
N1524 Eu1523 2.562 1_556 S
N1524 C1526 1.325 . S
C1525 C1519 1.404 . S
C1525 C1527 1.366 . S
C1525 H1533 0.930 . S
C1526 N1524 1.325 . S
C1526 C1527 1.416 . S
C1526 H1532 0.929 . S
C1527 C1525 1.366 . S
C1527 C1526 1.416 . S
C1527 H1529 0.930 . S
H1528 C1517 0.930 . S
H1529 C1527 0.930 . S
H1530 C1545 0.930 . S
H1531 C1552 0.934 . S
H1532 C1526 0.929 . S
H1533 C1525 0.930 . S
H1534 C1548 0.929 . S
H1535 C1515 0.931 . S
H1536 C1521 0.931 . S
H1537 C1522 0.931 . S
H1538 C1543 0.931 . S
H1539 C1518 0.929 . S
H1540 C1551 0.930 . S
N1541 Eu1512 2.600 . S
N1541 C1542 1.365 . S
N1541 C1545 1.319 . S
C1542 N1541 1.365 . S
C1542 C1544 1.405 . S
C1542 C1550 1.448 . S
C1543 H1538 0.931 . S
C1543 C1545 1.397 . S
C1543 C1546 1.367 . S
C1544 C1542 1.405 . S
C1544 C1546 1.403 . S
C1544 C1577 1.439 . S
C1545 H1530 0.930 . S
C1545 N1541 1.319 . S
C1545 C1543 1.397 . S
C1546 C1543 1.367 . S
C1546 C1544 1.403 . S
C1546 H1553 0.929 . S
N1547 Eu1512 2.562 . S
N1547 C1548 1.325 . S
N1547 C1550 1.351 . S
C1548 H1534 0.929 . S
C1548 N1547 1.325 . S
C1548 C1552 1.416 . S
C1549 C1550 1.430 . S
C1549 C1551 1.404 . S
C1549 C1578 1.387 . S
C1550 C1542 1.448 . S
C1550 N1547 1.351 . S
C1550 C1549 1.430 . S
C1551 H1540 0.930 . S
C1551 C1549 1.404 . S
C1551 C1552 1.366 . S
C1552 H1531 0.934 . S
C1552 C1548 1.416 . S
C1552 C1551 1.366 . S
H1553 C1546 0.929 . S
H1554 C1577 0.931 . S
H1555 C1578 0.931 . S
O1556 Eu1512 2.462 . S
O1556 C1576 1.252 . S
O1557 Eu1512 2.373 . S
O1557 C1568 1.249 1_556 S
O1558 Eu1523 2.335 . S
O1558 C1568 1.264 . S
O1559 Eu1512 2.432 . S
O1559 C1576 1.268 . S
O1560 Eu1512 2.291 . S
O1560 C1575 1.255 1_556 S
O1561 Eu1523 2.372 . S
O1561 C1575 1.257 . S
O1562 Eu1523 2.462 . S
O1562 C1587 1.252 . S
O1563 Eu1523 2.373 1_556 S
O1563 C1579 1.249 . S
O1564 Eu1512 2.335 . S
O1564 C1579 1.264 . S
O1565 Eu1523 2.432 . S
O1565 C1587 1.268 . S
O1566 Eu1523 2.291 1_556 S
O1566 C1586 1.255 . S
O1567 Eu1512 2.372 . S
O1567 C1586 1.257 . S
C1568 O1557 1.249 1_554 S
C1568 O1558 1.264 . S
C1569 C1572 1.382 . S
C1569 C1574 1.390 . S
C1569 C1576 1.506 . S
C1570 C1571 1.398 . S
C1570 C1574 1.392 . S
C1571 C1570 1.398 . S
C1571 C1573 1.372 . S
C1571 H1588 0.931 . S
C1572 C1569 1.382 . S
C1572 C1573 1.390 . S
C1572 H1589 0.931 . S
C1573 C1571 1.372 . S
C1573 C1572 1.390 . S
C1573 H1590 0.929 . S
C1574 C1569 1.390 . S
C1574 C1570 1.392 . S
C1574 H1591 0.930 . S
C1575 O1560 1.255 1_554 S
C1575 O1561 1.257 . S
C1576 Eu1512 2.787 . S
C1576 O1556 1.252 . S
C1576 O1559 1.268 . S
C1576 C1569 1.506 . S
C1577 C1544 1.439 . S
C1577 H1554 0.931 . S
C1577 C1578 1.374 . S
C1578 C1549 1.387 . S
C1578 H1555 0.931 . S
C1578 C1577 1.374 . S
C1579 O1563 1.249 . S
C1579 O1564 1.264 . S
C1580 C1583 1.382 . S
C1580 C1584 1.390 . S
C1580 C1587 1.506 . S
C1581 C1582 1.398 . S
C1581 C1584 1.392 . S
C1582 C1581 1.398 . S
C1582 C1585 1.372 . S
C1582 H1592 0.931 . S
C1583 C1580 1.382 . S
C1583 C1585 1.390 . S
C1583 H1593 0.931 . S
C1584 C1580 1.390 . S
C1584 C1581 1.392 . S
C1584 H1594 0.930 . S
C1585 C1582 1.372 . S
C1585 C1583 1.390 . S
C1585 H1595 0.929 . S
C1586 O1566 1.255 . S
C1586 O1567 1.257 . S
C1587 Eu1523 2.787 . S
C1587 O1562 1.252 . S
C1587 O1565 1.268 . S
C1587 C1580 1.506 . S
H1588 C1571 0.931 . S
H1589 C1572 0.931 . S
H1590 C1573 0.929 . S
H1591 C1574 0.930 . S
H1592 C1582 0.931 . S
H1593 C1583 0.931 . S
H1594 C1584 0.930 . S
H1595 C1585 0.929 . S
Eu1596 N1625 2.600 . S
Eu1596 N1631 2.562 . S
Eu1596 O1640 2.462 . S
Eu1596 O1641 2.373 . S
Eu1596 O1643 2.432 . S
Eu1596 O1644 2.291 . S
Eu1596 O1648 2.335 1_455 S
Eu1596 O1651 2.372 1_455 S
Eu1596 C1660 2.787 . S
C1597 N1598 1.365 . S
C1597 C1600 1.405 . S
C1597 C1604 1.448 . S
N1598 C1597 1.365 . S
N1598 C1601 1.319 . S
N1598 Eu1607 2.600 . S
C1599 C1601 1.397 . S
C1599 C1602 1.367 . S
C1599 H1619 0.931 . S
C1600 C1597 1.405 . S
C1600 C1602 1.403 . S
C1600 C1606 1.439 . S
C1601 N1598 1.319 . S
C1601 C1599 1.397 . S
C1601 H1612 0.930 . S
C1602 C1599 1.367 . S
C1602 C1600 1.403 . S
C1602 H1623 0.929 . S
C1603 C1604 1.430 . S
C1603 C1605 1.387 . S
C1603 C1609 1.404 . S
C1604 C1597 1.448 . S
C1604 C1603 1.430 . S
C1604 N1608 1.351 . S
C1605 C1603 1.387 . S
C1605 C1606 1.374 . S
C1605 H1620 0.931 . S
C1606 C1600 1.439 . S
C1606 C1605 1.374 . S
C1606 H1621 0.931 . S
Eu1607 N1598 2.600 . S
Eu1607 N1608 2.562 . S
Eu1607 O1642 2.335 . S
Eu1607 O1645 2.372 . S
Eu1607 O1646 2.462 . S
Eu1607 O1647 2.373 . S
Eu1607 O1649 2.432 . S
Eu1607 O1650 2.291 . S
Eu1607 C1671 2.787 . S
N1608 C1604 1.351 . S
N1608 Eu1607 2.562 . S
N1608 C1610 1.325 . S
C1609 C1603 1.404 . S
C1609 C1611 1.366 . S
C1609 H1617 0.930 . S
C1610 N1608 1.325 . S
C1610 C1611 1.416 . S
C1610 H1616 0.929 . S
C1611 C1609 1.366 . S
C1611 C1610 1.416 . S
C1611 H1613 0.930 . S
H1612 C1601 0.930 . S
H1613 C1611 0.930 . S
H1614 C1629 0.930 1_655 S
H1615 C1636 0.930 . S
H1616 C1610 0.929 . S
H1617 C1609 0.930 . S
H1618 C1632 0.929 . S
H1619 C1599 0.931 . S
H1620 C1605 0.931 . S
H1621 C1606 0.931 . S
H1622 C1627 0.931 1_655 S
H1623 C1602 0.929 . S
H1624 C1635 0.930 . S
N1625 Eu1596 2.600 . S
N1625 C1626 1.365 . S
N1625 C1629 1.319 . S
C1626 N1625 1.365 . S
C1626 C1628 1.405 . S
C1626 C1634 1.448 . S
C1627 H1622 0.931 1_455 S
C1627 C1629 1.397 . S
C1627 C1630 1.367 . S
C1628 C1626 1.405 . S
C1628 C1630 1.403 . S
C1628 C1661 1.439 . S
C1629 H1614 0.930 1_455 S
C1629 N1625 1.319 . S
C1629 C1627 1.397 . S
C1630 C1627 1.367 . S
C1630 C1628 1.403 . S
C1630 H1637 0.929 . S
N1631 Eu1596 2.562 . S
N1631 C1632 1.325 . S
N1631 C1634 1.351 . S
C1632 H1618 0.929 . S
C1632 N1631 1.325 . S
C1632 C1636 1.416 . S
C1633 C1634 1.430 . S
C1633 C1635 1.404 . S
C1633 C1662 1.387 . S
C1634 C1626 1.448 . S
C1634 N1631 1.351 . S
C1634 C1633 1.430 . S
C1635 H1624 0.930 . S
C1635 C1633 1.404 . S
C1635 C1636 1.366 . S
C1636 H1615 0.930 . S
C1636 C1632 1.416 . S
C1636 C1635 1.366 . S
H1637 C1630 0.929 . S
H1638 C1661 0.931 . S
H1639 C1662 0.931 . S
O1640 Eu1596 2.462 . S
O1640 C1660 1.252 . S
O1641 Eu1596 2.373 . S
O1641 C1652 1.249 1_455 S
O1642 Eu1607 2.335 . S
O1642 C1652 1.264 . S
O1643 Eu1596 2.432 . S
O1643 C1660 1.268 . S
O1644 Eu1596 2.291 . S
O1644 C1659 1.255 . S
O1645 Eu1607 2.372 . S
O1645 C1659 1.257 1_655 S
O1646 Eu1607 2.462 . S
O1646 C1671 1.252 . S
O1647 Eu1607 2.373 . S
O1647 C1663 1.249 . S
O1648 Eu1596 2.335 1_655 S
O1648 C1663 1.264 . S
O1649 Eu1607 2.432 . S
O1649 C1671 1.268 . S
O1650 Eu1607 2.291 . S
O1650 C1670 1.255 . S
O1651 Eu1596 2.372 1_655 S
O1651 C1670 1.257 . S
C1652 O1641 1.249 1_655 S
C1652 O1642 1.264 . S
C1653 C1656 1.382 . S
C1653 C1658 1.390 . S
C1653 C1660 1.506 . S
C1654 C1655 1.398 . S
C1654 C1658 1.392 . S
C1655 C1654 1.398 . S
C1655 C1657 1.372 . S
C1655 H1672 0.931 . S
C1656 C1653 1.382 . S
C1656 C1657 1.390 . S
C1656 H1673 0.931 . S
C1657 C1655 1.372 . S
C1657 C1656 1.390 . S
C1657 H1674 0.929 . S
C1658 C1653 1.390 . S
C1658 C1654 1.392 . S
C1658 H1675 0.930 . S
C1659 O1644 1.255 . S
C1659 O1645 1.257 1_455 S
C1660 Eu1596 2.787 . S
C1660 O1640 1.252 . S
C1660 O1643 1.268 . S
C1660 C1653 1.506 . S
C1661 C1628 1.439 . S
C1661 H1638 0.931 . S
C1661 C1662 1.374 . S
C1662 C1633 1.387 . S
C1662 H1639 0.931 . S
C1662 C1661 1.374 . S
C1663 O1647 1.249 . S
C1663 O1648 1.264 . S
C1664 C1667 1.382 . S
C1664 C1668 1.390 . S
C1664 C1671 1.506 . S
C1665 C1666 1.398 . S
C1665 C1668 1.392 . S
C1666 C1665 1.398 . S
C1666 C1669 1.372 . S
C1666 H1676 0.931 . S
C1667 C1664 1.382 . S
C1667 C1669 1.390 . S
C1667 H1677 0.931 . S
C1668 C1664 1.390 . S
C1668 C1665 1.392 . S
C1668 H1678 0.930 . S
C1669 C1666 1.372 . S
C1669 C1667 1.390 . S
C1669 H1679 0.929 . S
C1670 O1650 1.255 . S
C1670 O1651 1.257 . S
C1671 Eu1607 2.787 . S
C1671 O1646 1.252 . S
C1671 O1649 1.268 . S
C1671 C1664 1.506 . S
H1672 C1655 0.931 . S
H1673 C1656 0.931 . S
H1674 C1657 0.929 . S
H1675 C1658 0.930 . S
H1676 C1666 0.931 . S
H1677 C1667 0.931 . S
H1678 C1668 0.930 . S
H1679 C1669 0.929 . S
Eu1680 N1709 2.600 . S
Eu1680 N1715 2.562 . S
Eu1680 O1724 2.462 . S
Eu1680 O1725 2.373 . S
Eu1680 O1727 2.432 . S
Eu1680 O1728 2.291 . S
Eu1680 O1732 2.335 . S
Eu1680 O1735 2.372 . S
Eu1680 C1744 2.787 . S
C1681 N1682 1.365 . S
C1681 C1684 1.405 . S
C1681 C1688 1.448 . S
N1682 C1681 1.365 . S
N1682 C1685 1.319 . S
N1682 Eu1691 2.600 . S
C1683 C1685 1.397 . S
C1683 C1686 1.367 . S
C1683 H1703 0.931 . S
C1684 C1681 1.405 . S
C1684 C1686 1.403 . S
C1684 C1690 1.439 . S
C1685 N1682 1.319 . S
C1685 C1683 1.397 . S
C1685 H1696 0.930 . S
C1686 C1683 1.367 . S
C1686 C1684 1.403 . S
C1686 H1707 0.929 . S
C1687 C1688 1.430 . S
C1687 C1689 1.387 . S
C1687 C1693 1.404 . S
C1688 C1681 1.448 . S
C1688 C1687 1.430 . S
C1688 N1692 1.351 . S
C1689 C1687 1.387 . S
C1689 C1690 1.374 . S
C1689 H1704 0.931 . S
C1690 C1684 1.439 . S
C1690 C1689 1.374 . S
C1690 H1705 0.931 . S
Eu1691 N1682 2.600 . S
Eu1691 N1692 2.562 . S
Eu1691 O1726 2.335 . S
Eu1691 O1729 2.372 . S
Eu1691 O1730 2.462 . S
Eu1691 O1731 2.373 . S
Eu1691 O1733 2.432 . S
Eu1691 O1734 2.291 . S
Eu1691 C1755 2.787 . S
N1692 C1688 1.351 . S
N1692 Eu1691 2.562 . S
N1692 C1694 1.325 . S
C1693 C1687 1.404 . S
C1693 C1695 1.366 . S
C1693 H1701 0.930 . S
C1694 N1692 1.325 . S
C1694 C1695 1.416 . S
C1694 H1700 0.929 . S
C1695 C1693 1.366 . S
C1695 C1694 1.416 . S
C1695 H1697 0.930 . S
H1696 C1685 0.930 . S
H1697 C1695 0.930 . S
H1698 C1713 0.930 . S
H1699 C1720 0.930 . S
H1700 C1694 0.929 . S
H1701 C1693 0.930 . S
H1702 C1716 0.929 . S
H1703 C1683 0.931 . S
H1704 C1689 0.931 . S
H1705 C1690 0.931 . S
H1706 C1711 0.931 . S
H1707 C1686 0.929 . S
H1708 C1719 0.930 . S
N1709 Eu1680 2.600 . S
N1709 C1710 1.365 . S
N1709 C1713 1.319 . S
C1710 N1709 1.365 . S
C1710 C1712 1.405 . S
C1710 C1718 1.448 . S
C1711 H1706 0.931 . S
C1711 C1713 1.397 . S
C1711 C1714 1.367 . S
C1712 C1710 1.405 . S
C1712 C1714 1.403 . S
C1712 C1745 1.439 . S
C1713 H1698 0.930 . S
C1713 N1709 1.319 . S
C1713 C1711 1.397 . S
C1714 C1711 1.367 . S
C1714 C1712 1.403 . S
C1714 H1721 0.929 . S
N1715 Eu1680 2.562 . S
N1715 C1716 1.325 . S
N1715 C1718 1.351 . S
C1716 H1702 0.929 . S
C1716 N1715 1.325 . S
C1716 C1720 1.416 . S
C1717 C1718 1.430 . S
C1717 C1719 1.404 . S
C1717 C1746 1.387 . S
C1718 C1710 1.448 . S
C1718 N1715 1.351 . S
C1718 C1717 1.430 . S
C1719 H1708 0.930 . S
C1719 C1717 1.404 . S
C1719 C1720 1.366 . S
C1720 H1699 0.930 . S
C1720 C1716 1.416 . S
C1720 C1719 1.366 . S
H1721 C1714 0.929 . S
H1722 C1745 0.931 . S
H1723 C1746 0.931 . S
O1724 Eu1680 2.462 . S
O1724 C1744 1.252 . S
O1725 Eu1680 2.373 . S
O1725 C1736 1.249 . S
O1726 Eu1691 2.335 . S
O1726 C1736 1.264 . S
O1727 Eu1680 2.432 . S
O1727 C1744 1.268 . S
O1728 Eu1680 2.291 . S
O1728 C1743 1.255 . S
O1729 Eu1691 2.372 . S
O1729 C1743 1.257 . S
O1730 Eu1691 2.462 . S
O1730 C1755 1.252 . S
O1731 Eu1691 2.373 . S
O1731 C1747 1.249 . S
O1732 Eu1680 2.335 . S
O1732 C1747 1.264 . S
O1733 Eu1691 2.432 . S
O1733 C1755 1.268 . S
O1734 Eu1691 2.291 . S
O1734 C1754 1.255 . S
O1735 Eu1680 2.372 . S
O1735 C1754 1.257 . S
C1736 O1725 1.249 . S
C1736 O1726 1.264 . S
C1737 C1740 1.382 . S
C1737 C1742 1.390 . S
C1737 C1744 1.506 . S
C1738 C1739 1.398 . S
C1738 C1742 1.392 . S
C1739 C1738 1.398 . S
C1739 C1741 1.372 . S
C1739 H1756 0.931 . S
C1740 C1737 1.382 . S
C1740 C1741 1.390 . S
C1740 H1757 0.931 . S
C1741 C1739 1.372 . S
C1741 C1740 1.390 . S
C1741 H1758 0.929 . S
C1742 C1737 1.390 . S
C1742 C1738 1.392 . S
C1742 H1759 0.930 . S
C1743 O1728 1.255 . S
C1743 O1729 1.257 . S
C1744 Eu1680 2.787 . S
C1744 O1724 1.252 . S
C1744 O1727 1.268 . S
C1744 C1737 1.506 . S
C1745 C1712 1.439 . S
C1745 H1722 0.931 . S
C1745 C1746 1.374 . S
C1746 C1717 1.387 . S
C1746 H1723 0.931 . S
C1746 C1745 1.374 . S
C1747 O1731 1.249 . S
C1747 O1732 1.264 . S
C1748 C1751 1.382 . S
C1748 C1752 1.390 . S
C1748 C1755 1.506 . S
C1749 C1750 1.398 . S
C1749 C1752 1.392 . S
C1750 C1749 1.398 . S
C1750 C1753 1.372 . S
C1750 H1760 0.931 . S
C1751 C1748 1.382 . S
C1751 C1753 1.390 . S
C1751 H1761 0.931 . S
C1752 C1748 1.390 . S
C1752 C1749 1.392 . S
C1752 H1762 0.930 . S
C1753 C1750 1.372 . S
C1753 C1751 1.390 . S
C1753 H1763 0.929 . S
C1754 O1734 1.255 . S
C1754 O1735 1.257 . S
C1755 Eu1691 2.787 . S
C1755 O1730 1.252 . S
C1755 O1733 1.268 . S
C1755 C1748 1.506 . S
H1756 C1739 0.931 . S
H1757 C1740 0.931 . S
H1758 C1741 0.929 . S
H1759 C1742 0.930 . S
H1760 C1750 0.931 . S
H1761 C1751 0.931 . S
H1762 C1752 0.930 . S
H1763 C1753 0.929 . S
Eu1764 N1793 2.600 . S
Eu1764 N1799 2.562 . S
Eu1764 O1808 2.462 . S
Eu1764 O1809 2.373 . S
Eu1764 O1811 2.432 . S
Eu1764 O1812 2.291 . S
Eu1764 O1816 2.335 . S
Eu1764 O1819 2.372 . S
Eu1764 C1828 2.787 . S
C1765 N1766 1.365 . S
C1765 C1768 1.405 . S
C1765 C1772 1.448 . S
N1766 C1765 1.365 . S
N1766 C1769 1.319 . S
N1766 Eu1775 2.600 . S
C1767 C1769 1.397 . S
C1767 C1770 1.367 . S
C1767 H1787 0.931 . S
C1768 C1765 1.405 . S
C1768 C1770 1.403 . S
C1768 C1774 1.439 . S
C1769 N1766 1.319 . S
C1769 C1767 1.397 . S
C1769 H1780 0.930 . S
C1770 C1767 1.367 . S
C1770 C1768 1.403 . S
C1770 H1791 0.929 . S
C1771 C1772 1.430 . S
C1771 C1773 1.387 . S
C1771 C1777 1.404 . S
C1772 C1765 1.448 . S
C1772 C1771 1.430 . S
C1772 N1776 1.351 . S
C1773 C1771 1.387 . S
C1773 C1774 1.374 . S
C1773 H1788 0.931 . S
C1774 C1768 1.439 . S
C1774 C1773 1.374 . S
C1774 H1789 0.931 . S
Eu1775 N1766 2.600 . S
Eu1775 N1776 2.562 . S
Eu1775 O1810 2.335 . S
Eu1775 O1813 2.372 . S
Eu1775 O1814 2.462 . S
Eu1775 O1815 2.373 . S
Eu1775 O1817 2.432 . S
Eu1775 O1818 2.291 . S
Eu1775 C1839 2.787 . S
N1776 C1772 1.351 . S
N1776 Eu1775 2.562 . S
N1776 C1778 1.325 . S
C1777 C1771 1.404 . S
C1777 C1779 1.366 . S
C1777 H1785 0.930 . S
C1778 N1776 1.325 . S
C1778 C1779 1.416 . S
C1778 H1784 0.929 . S
C1779 C1777 1.366 . S
C1779 C1778 1.416 . S
C1779 H1781 0.930 . S
H1780 C1769 0.930 . S
H1781 C1779 0.930 . S
H1782 C1797 0.930 . S
H1783 C1804 0.930 . S
H1784 C1778 0.929 . S
H1785 C1777 0.930 . S
H1786 C1800 0.929 . S
H1787 C1767 0.931 . S
H1788 C1773 0.931 . S
H1789 C1774 0.931 . S
H1790 C1795 0.931 . S
H1791 C1770 0.929 . S
H1792 C1803 0.930 . S
N1793 Eu1764 2.600 . S
N1793 C1794 1.365 . S
N1793 C1797 1.319 . S
C1794 N1793 1.365 . S
C1794 C1796 1.405 . S
C1794 C1802 1.448 . S
C1795 H1790 0.931 . S
C1795 C1797 1.397 . S
C1795 C1798 1.367 . S
C1796 C1794 1.405 . S
C1796 C1798 1.403 . S
C1796 C1829 1.439 . S
C1797 H1782 0.930 . S
C1797 N1793 1.319 . S
C1797 C1795 1.397 . S
C1798 C1795 1.367 . S
C1798 C1796 1.403 . S
C1798 H1805 0.929 . S
N1799 Eu1764 2.562 . S
N1799 C1800 1.325 . S
N1799 C1802 1.351 . S
C1800 H1786 0.929 . S
C1800 N1799 1.325 . S
C1800 C1804 1.416 . S
C1801 C1802 1.430 . S
C1801 C1803 1.404 . S
C1801 C1830 1.387 . S
C1802 C1794 1.448 . S
C1802 N1799 1.351 . S
C1802 C1801 1.430 . S
C1803 H1792 0.930 . S
C1803 C1801 1.404 . S
C1803 C1804 1.366 . S
C1804 H1783 0.930 . S
C1804 C1800 1.416 . S
C1804 C1803 1.366 . S
H1805 C1798 0.929 . S
H1806 C1829 0.931 . S
H1807 C1830 0.931 . S
O1808 Eu1764 2.462 . S
O1808 C1828 1.252 . S
O1809 Eu1764 2.373 . S
O1809 C1820 1.249 . S
O1810 Eu1775 2.335 . S
O1810 C1820 1.264 . S
O1811 Eu1764 2.432 . S
O1811 C1828 1.268 . S
O1812 Eu1764 2.291 . S
O1812 C1827 1.255 . S
O1813 Eu1775 2.372 . S
O1813 C1827 1.257 . S
O1814 Eu1775 2.462 . S
O1814 C1839 1.252 . S
O1815 Eu1775 2.373 . S
O1815 C1831 1.249 . S
O1816 Eu1764 2.335 . S
O1816 C1831 1.264 . S
O1817 Eu1775 2.432 . S
O1817 C1839 1.268 . S
O1818 Eu1775 2.291 . S
O1818 C1838 1.255 . S
O1819 Eu1764 2.372 . S
O1819 C1838 1.257 . S
C1820 O1809 1.249 . S
C1820 O1810 1.264 . S
C1821 C1824 1.382 . S
C1821 C1826 1.390 . S
C1821 C1828 1.506 . S
C1822 C1823 1.398 . S
C1822 C1826 1.392 . S
C1823 C1822 1.398 . S
C1823 C1825 1.372 . S
C1823 H1840 0.931 . S
C1824 C1821 1.382 . S
C1824 C1825 1.390 . S
C1824 H1841 0.931 . S
C1825 C1823 1.372 . S
C1825 C1824 1.390 . S
C1825 H1842 0.929 . S
C1826 C1821 1.390 . S
C1826 C1822 1.392 . S
C1826 H1843 0.930 . S
C1827 O1812 1.255 . S
C1827 O1813 1.257 . S
C1828 Eu1764 2.787 . S
C1828 O1808 1.252 . S
C1828 O1811 1.268 . S
C1828 C1821 1.506 . S
C1829 C1796 1.439 . S
C1829 H1806 0.931 . S
C1829 C1830 1.374 . S
C1830 C1801 1.387 . S
C1830 H1807 0.931 . S
C1830 C1829 1.374 . S
C1831 O1815 1.249 . S
C1831 O1816 1.264 . S
C1832 C1835 1.382 . S
C1832 C1836 1.390 . S
C1832 C1839 1.506 . S
C1833 C1834 1.398 . S
C1833 C1836 1.392 . S
C1834 C1833 1.398 . S
C1834 C1837 1.372 . S
C1834 H1844 0.931 . S
C1835 C1832 1.382 . S
C1835 C1837 1.390 . S
C1835 H1845 0.931 . S
C1836 C1832 1.390 . S
C1836 C1833 1.392 . S
C1836 H1846 0.930 . S
C1837 C1834 1.372 . S
C1837 C1835 1.390 . S
C1837 H1847 0.929 . S
C1838 O1818 1.255 . S
C1838 O1819 1.257 . S
C1839 Eu1775 2.787 . S
C1839 O1814 1.252 . S
C1839 O1817 1.268 . S
C1839 C1832 1.506 . S
H1840 C1823 0.931 . S
H1841 C1824 0.931 . S
H1842 C1825 0.929 . S
H1843 C1826 0.930 . S
H1844 C1834 0.931 . S
H1845 C1835 0.931 . S
H1846 C1836 0.930 . S
H1847 C1837 0.929 . S
Eu1848 N1877 2.600 . S
Eu1848 N1883 2.562 . S
Eu1848 O1892 2.462 . S
Eu1848 O1893 2.373 . S
Eu1848 O1895 2.432 . S
Eu1848 O1896 2.291 . S
Eu1848 O1900 2.335 . S
Eu1848 O1903 2.372 . S
Eu1848 C1912 2.787 . S
C1849 N1850 1.365 . S
C1849 C1852 1.405 . S
C1849 C1856 1.448 . S
N1850 C1849 1.365 . S
N1850 C1853 1.319 . S
N1850 Eu1859 2.600 . S
C1851 C1853 1.397 . S
C1851 C1854 1.367 . S
C1851 H1871 0.931 . S
C1852 C1849 1.405 . S
C1852 C1854 1.403 . S
C1852 C1858 1.439 . S
C1853 N1850 1.319 . S
C1853 C1851 1.397 . S
C1853 H1864 0.930 . S
C1854 C1851 1.367 . S
C1854 C1852 1.403 . S
C1854 H1875 0.940 . S
C1855 C1856 1.430 1_554 S
C1855 C1857 1.384 1_554 S
C1855 C1861 1.404 . S
C1856 C1849 1.448 . S
C1856 C1855 1.430 1_556 S
C1856 N1860 1.345 1_556 S
C1857 C1855 1.384 1_556 S
C1857 C1858 1.381 . S
C1857 H1872 0.927 1_556 S
C1858 C1852 1.439 . S
C1858 C1857 1.381 . S
C1858 H1873 0.931 . S
Eu1859 N1850 2.600 . S
Eu1859 N1860 2.554 1_556 S
Eu1859 O1894 2.335 . S
Eu1859 O1897 2.372 . S
Eu1859 O1898 2.462 . S
Eu1859 O1899 2.373 1_556 S
Eu1859 O1901 2.432 . S
Eu1859 O1902 2.291 1_556 S
Eu1859 C1923 2.787 . S
N1860 C1856 1.345 1_554 S
N1860 Eu1859 2.554 1_554 S
N1860 C1862 1.344 . S
C1861 C1855 1.404 . S
C1861 C1863 1.366 . S
C1861 H1869 0.930 . S
C1862 N1860 1.344 . S
C1862 C1863 1.416 . S
C1862 H1868 0.929 . S
C1863 C1861 1.366 . S
C1863 C1862 1.416 . S
C1863 H1865 0.930 . S
H1864 C1853 0.930 . S
H1865 C1863 0.930 . S
H1866 C1881 0.930 . S
H1867 C1888 0.930 1_556 S
H1868 C1862 0.929 . S
H1869 C1861 0.930 . S
H1870 C1884 0.929 . S
H1871 C1851 0.931 . S
H1872 C1857 0.927 1_554 S
H1873 C1858 0.931 . S
H1874 C1879 0.931 . S
H1875 C1854 0.940 . S
H1876 C1887 0.930 . S
N1877 Eu1848 2.600 . S
N1877 C1878 1.365 . S
N1877 C1881 1.319 . S
C1878 N1877 1.365 . S
C1878 C1880 1.405 . S
C1878 C1886 1.448 . S
C1879 H1874 0.931 . S
C1879 C1881 1.397 . S
C1879 C1882 1.367 . S
C1880 C1878 1.405 . S
C1880 C1882 1.403 . S
C1880 C1913 1.439 . S
C1881 H1866 0.930 . S
C1881 N1877 1.319 . S
C1881 C1879 1.397 . S
C1882 C1879 1.367 . S
C1882 C1880 1.403 . S
C1882 H1889 0.929 . S
N1883 Eu1848 2.562 . S
N1883 C1884 1.325 . S
N1883 C1886 1.351 . S
C1884 H1870 0.929 . S
C1884 N1883 1.325 . S
C1884 C1888 1.416 . S
C1885 C1886 1.430 . S
C1885 C1887 1.404 . S
C1885 C1914 1.387 . S
C1886 C1878 1.448 . S
C1886 N1883 1.351 . S
C1886 C1885 1.430 . S
C1887 H1876 0.930 . S
C1887 C1885 1.404 . S
C1887 C1888 1.366 . S
C1888 H1867 0.930 1_554 S
C1888 C1884 1.416 . S
C1888 C1887 1.366 . S
H1889 C1882 0.929 . S
H1890 C1913 0.931 . S
H1891 C1914 0.931 . S
O1892 Eu1848 2.462 . S
O1892 C1912 1.252 . S
O1893 Eu1848 2.373 . S
O1893 C1904 1.249 1_554 S
O1894 Eu1859 2.335 . S
O1894 C1904 1.264 . S
O1895 Eu1848 2.432 . S
O1895 C1912 1.268 . S
O1896 Eu1848 2.291 . S
O1896 C1911 1.255 1_554 S
O1897 Eu1859 2.372 . S
O1897 C1911 1.257 . S
O1898 Eu1859 2.462 . S
O1898 C1923 1.252 . S
O1899 Eu1859 2.373 1_554 S
O1899 C1915 1.249 . S
O1900 Eu1848 2.335 . S
O1900 C1915 1.264 . S
O1901 Eu1859 2.432 . S
O1901 C1923 1.268 . S
O1902 Eu1859 2.291 1_554 S
O1902 C1922 1.255 . S
O1903 Eu1848 2.372 . S
O1903 C1922 1.257 . S
C1904 O1893 1.249 1_556 S
C1904 O1894 1.264 . S
C1905 C1908 1.382 . S
C1905 C1910 1.390 . S
C1905 C1912 1.506 . S
C1906 C1907 1.398 . S
C1906 C1910 1.392 . S
C1907 C1906 1.398 . S
C1907 C1909 1.372 . S
C1907 H1924 0.931 . S
C1908 C1905 1.382 . S
C1908 C1909 1.390 . S
C1908 H1925 0.931 . S
C1909 C1907 1.372 . S
C1909 C1908 1.390 . S
C1909 H1926 0.929 . S
C1910 C1905 1.390 . S
C1910 C1906 1.392 . S
C1910 H1927 0.930 . S
C1911 O1896 1.255 1_556 S
C1911 O1897 1.257 . S
C1912 Eu1848 2.787 . S
C1912 O1892 1.252 . S
C1912 O1895 1.268 . S
C1912 C1905 1.506 . S
C1913 C1880 1.439 . S
C1913 H1890 0.931 . S
C1913 C1914 1.374 . S
C1914 C1885 1.387 . S
C1914 H1891 0.931 . S
C1914 C1913 1.374 . S
C1915 O1899 1.249 . S
C1915 O1900 1.264 . S
C1916 C1919 1.382 . S
C1916 C1920 1.390 . S
C1916 C1923 1.506 . S
C1917 C1918 1.398 . S
C1917 C1920 1.392 . S
C1918 C1917 1.398 . S
C1918 C1921 1.372 . S
C1918 H1928 0.931 . S
C1919 C1916 1.382 . S
C1919 C1921 1.390 . S
C1919 H1929 0.931 . S
C1920 C1916 1.390 . S
C1920 C1917 1.392 . S
C1920 H1930 0.930 . S
C1921 C1918 1.372 . S
C1921 C1919 1.390 . S
C1921 H1931 0.929 . S
C1922 O1902 1.255 . S
C1922 O1903 1.257 . S
C1923 Eu1859 2.787 . S
C1923 O1898 1.252 . S
C1923 O1901 1.268 . S
C1923 C1916 1.506 . S
H1924 C1907 0.931 . S
H1925 C1908 0.931 . S
H1926 C1909 0.929 . S
H1927 C1910 0.930 . S
H1928 C1918 0.931 . S
H1929 C1919 0.931 . S
H1930 C1920 0.930 . S
H1931 C1921 0.929 . S
Eu1932 N1961 2.600 . S
Eu1932 N1967 2.562 . S
Eu1932 O1976 2.462 . S
Eu1932 O1977 2.373 . S
Eu1932 O1979 2.432 . S
Eu1932 O1980 2.291 . S
Eu1932 O1984 2.335 . S
Eu1932 O1987 2.372 . S
Eu1932 C1996 2.787 . S
C1933 N1934 1.365 . S
C1933 C1936 1.405 . S
C1933 C1940 1.448 . S
N1934 C1933 1.365 . S
N1934 C1937 1.319 . S
N1934 Eu1943 2.600 . S
C1935 C1937 1.397 . S
C1935 C1938 1.367 . S
C1935 H1955 0.931 . S
C1936 C1933 1.405 . S
C1936 C1938 1.403 . S
C1936 C1942 1.439 . S
C1937 N1934 1.319 . S
C1937 C1935 1.397 . S
C1937 H1948 0.930 . S
C1938 C1935 1.367 . S
C1938 C1936 1.403 . S
C1938 H1959 0.929 . S
C1939 C1940 1.430 1_565 S
C1939 C1941 1.384 1_565 S
C1939 C1945 1.404 . S
C1940 C1933 1.448 . S
C1940 C1939 1.430 1_545 S
C1940 N1944 1.344 1_545 S
C1941 C1939 1.384 1_545 S
C1941 C1942 1.382 . S
C1941 H1956 0.926 1_545 S
C1942 C1936 1.439 . S
C1942 C1941 1.382 . S
C1942 H1957 0.931 . S
Eu1943 N1934 2.600 . S
Eu1943 N1944 2.551 1_545 S
Eu1943 O1978 2.335 . S
Eu1943 O1981 2.372 . S
Eu1943 O1982 2.462 . S
Eu1943 O1983 2.373 1_545 S
Eu1943 O1985 2.432 . S
Eu1943 O1986 2.291 1_545 S
Eu1943 C2007 2.787 . S
N1944 C1940 1.344 1_565 S
N1944 Eu1943 2.551 1_565 S
N1944 C1946 1.350 . S
C1945 C1939 1.404 . S
C1945 C1947 1.366 . S
C1945 H1953 0.930 . S
C1946 N1944 1.350 . S
C1946 C1947 1.416 . S
C1946 H1952 0.929 . S
C1947 C1945 1.366 . S
C1947 C1946 1.416 . S
C1947 H1949 0.930 . S
H1948 C1937 0.930 . S
H1949 C1947 0.930 . S
H1950 C1965 0.930 . S
H1951 C1972 0.930 1_545 S
H1952 C1946 0.929 . S
H1953 C1945 0.930 . S
H1954 C1968 0.929 . S
H1955 C1935 0.931 . S
H1956 C1941 0.926 1_565 S
H1957 C1942 0.931 . S
H1958 C1963 0.931 . S
H1959 C1938 0.929 . S
H1960 C1971 0.930 . S
N1961 Eu1932 2.600 . S
N1961 C1962 1.365 . S
N1961 C1965 1.319 . S
C1962 N1961 1.365 . S
C1962 C1964 1.405 . S
C1962 C1970 1.448 . S
C1963 H1958 0.931 . S
C1963 C1965 1.397 . S
C1963 C1966 1.367 . S
C1964 C1962 1.405 . S
C1964 C1966 1.403 . S
C1964 C1997 1.439 . S
C1965 H1950 0.930 . S
C1965 N1961 1.319 . S
C1965 C1963 1.397 . S
C1966 C1963 1.367 . S
C1966 C1964 1.403 . S
C1966 H1973 0.929 . S
N1967 Eu1932 2.562 . S
N1967 C1968 1.325 . S
N1967 C1970 1.351 . S
C1968 H1954 0.929 . S
C1968 N1967 1.325 . S
C1968 C1972 1.416 . S
C1969 C1970 1.430 . S
C1969 C1971 1.404 . S
C1969 C1998 1.387 . S
C1970 C1962 1.448 . S
C1970 N1967 1.351 . S
C1970 C1969 1.430 . S
C1971 H1960 0.930 . S
C1971 C1969 1.404 . S
C1971 C1972 1.366 . S
C1972 H1951 0.930 1_565 S
C1972 C1968 1.416 . S
C1972 C1971 1.366 . S
H1973 C1966 0.929 . S
H1974 C1997 0.931 . S
H1975 C1998 0.931 . S
O1976 Eu1932 2.462 . S
O1976 C1996 1.252 . S
O1977 Eu1932 2.373 . S
O1977 C1988 1.249 1_565 S
O1978 Eu1943 2.335 . S
O1978 C1988 1.264 . S
O1979 Eu1932 2.432 . S
O1979 C1996 1.268 . S
O1980 Eu1932 2.291 . S
O1980 C1995 1.255 1_565 S
O1981 Eu1943 2.372 . S
O1981 C1995 1.257 . S
O1982 Eu1943 2.462 . S
O1982 C2007 1.252 . S
O1983 Eu1943 2.373 1_565 S
O1983 C1999 1.249 . S
O1984 Eu1932 2.335 . S
O1984 C1999 1.264 . S
O1985 Eu1943 2.432 . S
O1985 C2007 1.268 . S
O1986 Eu1943 2.291 1_565 S
O1986 C2006 1.255 . S
O1987 Eu1932 2.372 . S
O1987 C2006 1.257 . S
C1988 O1977 1.249 1_545 S
C1988 O1978 1.264 . S
C1989 C1992 1.382 . S
C1989 C1994 1.390 . S
C1989 C1996 1.506 . S
C1990 C1991 1.398 . S
C1990 C1994 1.392 . S
C1991 C1990 1.398 . S
C1991 C1993 1.372 . S
C1991 H2008 0.931 . S
C1992 C1989 1.382 . S
C1992 C1993 1.390 . S
C1992 H2009 0.931 . S
C1993 C1991 1.372 . S
C1993 C1992 1.390 . S
C1993 H2010 0.929 . S
C1994 C1989 1.390 . S
C1994 C1990 1.392 . S
C1994 H2011 0.930 . S
C1995 O1980 1.255 1_545 S
C1995 O1981 1.257 . S
C1996 Eu1932 2.787 . S
C1996 O1976 1.252 . S
C1996 O1979 1.268 . S
C1996 C1989 1.506 . S
C1997 C1964 1.439 . S
C1997 H1974 0.931 . S
C1997 C1998 1.374 . S
C1998 C1969 1.387 . S
C1998 H1975 0.931 . S
C1998 C1997 1.374 . S
C1999 O1983 1.249 . S
C1999 O1984 1.264 . S
C2000 C2003 1.382 . S
C2000 C2004 1.390 . S
C2000 C2007 1.506 . S
C2001 C2002 1.398 . S
C2001 C2004 1.392 . S
C2002 C2001 1.398 . S
C2002 C2005 1.372 . S
C2002 H2012 0.931 . S
C2003 C2000 1.382 . S
C2003 C2005 1.390 . S
C2003 H2013 0.931 . S
C2004 C2000 1.390 . S
C2004 C2001 1.392 . S
C2004 H2014 0.930 . S
C2005 C2002 1.372 . S
C2005 C2003 1.390 . S
C2005 H2015 0.929 . S
C2006 O1986 1.255 . S
C2006 O1987 1.257 . S
C2007 Eu1943 2.787 . S
C2007 O1982 1.252 . S
C2007 O1985 1.268 . S
C2007 C2000 1.506 . S
H2008 C1991 0.931 . S
H2009 C1992 0.931 . S
H2010 C1993 0.929 . S
H2011 C1994 0.930 . S
H2012 C2002 0.931 . S
H2013 C2003 0.931 . S
H2014 C2004 0.930 . S
H2015 C2005 0.929 . S
Eu2016 N2045 2.600 . S
Eu2016 N2051 2.562 . S
Eu2016 O2060 2.462 . S
Eu2016 O2061 2.373 . S
Eu2016 O2063 2.432 . S
Eu2016 O2064 2.291 . S
Eu2016 O2068 2.335 1_545 S
Eu2016 O2071 2.372 1_545 S
Eu2016 C2080 2.787 . S
C2017 N2018 1.365 . S
C2017 C2020 1.405 . S
C2017 C2024 1.448 . S
N2018 C2017 1.365 . S
N2018 C2021 1.319 . S
N2018 Eu2027 2.600 . S
C2019 C2021 1.397 . S
C2019 C2022 1.367 . S
C2019 H2039 0.931 . S
C2020 C2017 1.405 . S
C2020 C2022 1.403 . S
C2020 C2026 1.439 . S
C2021 N2018 1.319 . S
C2021 C2019 1.397 . S
C2021 H2032 0.930 . S
C2022 C2019 1.367 . S
C2022 C2020 1.403 . S
C2022 H2043 0.929 . S
C2023 C2024 1.430 . S
C2023 C2025 1.387 . S
C2023 C2029 1.404 . S
C2024 C2017 1.448 . S
C2024 C2023 1.430 . S
C2024 N2028 1.351 . S
C2025 C2023 1.387 . S
C2025 C2026 1.374 . S
C2025 H2040 0.931 . S
C2026 C2020 1.439 . S
C2026 C2025 1.374 . S
C2026 H2041 0.931 . S
Eu2027 N2018 2.600 . S
Eu2027 N2028 2.562 . S
Eu2027 O2062 2.335 . S
Eu2027 O2065 2.372 . S
Eu2027 O2066 2.462 . S
Eu2027 O2067 2.373 . S
Eu2027 O2069 2.432 . S
Eu2027 O2070 2.291 . S
Eu2027 C2091 2.787 . S
N2028 C2024 1.351 . S
N2028 Eu2027 2.562 . S
N2028 C2030 1.325 . S
C2029 C2023 1.404 . S
C2029 C2031 1.366 . S
C2029 H2037 0.930 . S
C2030 N2028 1.325 . S
C2030 C2031 1.416 . S
C2030 H2036 0.929 . S
C2031 C2029 1.366 . S
C2031 C2030 1.416 . S
C2031 H2033 0.930 . S
H2032 C2021 0.930 . S
H2033 C2031 0.930 . S
H2034 C2049 0.930 1_565 S
H2035 C2056 0.930 . S
H2036 C2030 0.929 . S
H2037 C2029 0.930 . S
H2038 C2052 0.929 . S
H2039 C2019 0.931 . S
H2040 C2025 0.931 . S
H2041 C2026 0.931 . S
H2042 C2047 0.953 . S
H2043 C2022 0.929 . S
H2044 C2055 0.930 . S
N2045 Eu2016 2.600 . S
N2045 C2046 1.365 . S
N2045 C2049 1.319 . S
C2046 N2045 1.365 . S
C2046 C2048 1.405 . S
C2046 C2054 1.448 . S
C2047 H2042 0.953 . S
C2047 C2049 1.397 . S
C2047 C2050 1.367 . S
C2048 C2046 1.405 . S
C2048 C2050 1.403 . S
C2048 C2081 1.439 . S
C2049 H2034 0.930 1_545 S
C2049 N2045 1.319 . S
C2049 C2047 1.397 . S
C2050 C2047 1.367 . S
C2050 C2048 1.403 . S
C2050 H2057 0.929 . S
N2051 Eu2016 2.562 . S
N2051 C2052 1.325 . S
N2051 C2054 1.351 . S
C2052 H2038 0.929 . S
C2052 N2051 1.325 . S
C2052 C2056 1.416 . S
C2053 C2054 1.430 . S
C2053 C2055 1.404 . S
C2053 C2082 1.387 . S
C2054 C2046 1.448 . S
C2054 N2051 1.351 . S
C2054 C2053 1.430 . S
C2055 H2044 0.930 . S
C2055 C2053 1.404 . S
C2055 C2056 1.366 . S
C2056 H2035 0.930 . S
C2056 C2052 1.416 . S
C2056 C2055 1.366 . S
H2057 C2050 0.929 . S
H2058 C2081 0.931 . S
H2059 C2082 0.931 . S
O2060 Eu2016 2.462 . S
O2060 C2080 1.252 . S
O2061 Eu2016 2.373 . S
O2061 C2072 1.243 1_545 S
O2062 Eu2027 2.335 . S
O2062 C2072 1.278 . S
O2063 Eu2016 2.432 . S
O2063 C2080 1.268 . S
O2064 Eu2016 2.291 . S
O2064 C2079 1.255 . S
O2065 Eu2027 2.372 . S
O2065 C2079 1.257 1_565 S
O2066 Eu2027 2.462 . S
O2066 C2091 1.252 . S
O2067 Eu2027 2.373 . S
O2067 C2083 1.249 . S
O2068 Eu2016 2.335 1_565 S
O2068 C2083 1.264 . S
O2069 Eu2027 2.432 . S
O2069 C2091 1.268 . S
O2070 Eu2027 2.291 . S
O2070 C2090 1.255 . S
O2071 Eu2016 2.372 1_565 S
O2071 C2090 1.257 . S
C2072 O2061 1.243 1_565 S
C2072 O2062 1.278 . S
C2073 C2076 1.382 . S
C2073 C2078 1.390 . S
C2073 C2080 1.506 . S
C2074 C2075 1.398 . S
C2074 C2078 1.392 . S
C2075 C2074 1.398 . S
C2075 C2077 1.372 . S
C2075 H2092 0.931 . S
C2076 C2073 1.382 . S
C2076 C2077 1.390 . S
C2076 H2093 0.931 . S
C2077 C2075 1.372 . S
C2077 C2076 1.390 . S
C2077 H2094 0.929 . S
C2078 C2073 1.390 . S
C2078 C2074 1.392 . S
C2078 H2095 0.930 . S
C2079 O2064 1.255 . S
C2079 O2065 1.257 1_545 S
C2080 Eu2016 2.787 . S
C2080 O2060 1.252 . S
C2080 O2063 1.268 . S
C2080 C2073 1.506 . S
C2081 C2048 1.439 . S
C2081 H2058 0.931 . S
C2081 C2082 1.374 . S
C2082 C2053 1.387 . S
C2082 H2059 0.931 . S
C2082 C2081 1.374 . S
C2083 O2067 1.249 . S
C2083 O2068 1.264 . S
C2084 C2087 1.382 . S
C2084 C2088 1.390 . S
C2084 C2091 1.506 . S
C2085 C2086 1.398 . S
C2085 C2088 1.392 . S
C2086 C2085 1.398 . S
C2086 C2089 1.372 . S
C2086 H2096 0.931 . S
C2087 C2084 1.382 . S
C2087 C2089 1.390 . S
C2087 H2097 0.931 . S
C2088 C2084 1.390 . S
C2088 C2085 1.392 . S
C2088 H2098 0.930 . S
C2089 C2086 1.372 . S
C2089 C2087 1.390 . S
C2089 H2099 0.929 . S
C2090 O2070 1.255 . S
C2090 O2071 1.257 . S
C2091 Eu2027 2.787 . S
C2091 O2066 1.252 . S
C2091 O2069 1.268 . S
C2091 C2084 1.506 . S
H2092 C2075 0.931 . S
H2093 C2076 0.931 . S
H2094 C2077 0.929 . S
H2095 C2078 0.930 . S
H2096 C2086 0.931 . S
H2097 C2087 0.931 . S
H2098 C2088 0.930 . S
H2099 C2089 0.929 . S
Eu2100 N2129 2.600 . S
Eu2100 N2135 2.562 . S
Eu2100 O2144 2.462 . S
Eu2100 O2145 2.373 . S
Eu2100 O2147 2.432 . S
Eu2100 O2148 2.291 . S
Eu2100 O2152 2.335 1_565 S
Eu2100 O2155 2.372 1_565 S
Eu2100 C2164 2.787 . S
C2101 N2102 1.365 . S
C2101 C2104 1.405 . S
C2101 C2108 1.448 . S
N2102 C2101 1.365 . S
N2102 C2105 1.319 . S
N2102 Eu2111 2.600 . S
C2103 C2105 1.397 . S
C2103 C2106 1.367 . S
C2103 H2123 0.931 . S
C2104 C2101 1.405 . S
C2104 C2106 1.403 . S
C2104 C2110 1.439 . S
C2105 N2102 1.319 . S
C2105 C2103 1.397 . S
C2105 H2116 0.930 . S
C2106 C2103 1.367 . S
C2106 C2104 1.403 . S
C2106 H2127 0.929 . S
C2107 C2108 1.430 . S
C2107 C2109 1.387 . S
C2107 C2113 1.404 . S
C2108 C2101 1.448 . S
C2108 C2107 1.430 . S
C2108 N2112 1.351 . S
C2109 C2107 1.387 . S
C2109 C2110 1.374 . S
C2109 H2124 0.931 . S
C2110 C2104 1.439 . S
C2110 C2109 1.374 . S
C2110 H2125 0.931 . S
Eu2111 N2102 2.600 . S
Eu2111 N2112 2.562 . S
Eu2111 O2146 2.335 . S
Eu2111 O2149 2.372 . S
Eu2111 O2150 2.462 . S
Eu2111 O2151 2.373 . S
Eu2111 O2153 2.432 . S
Eu2111 O2154 2.291 . S
Eu2111 C2175 2.787 . S
N2112 C2108 1.351 . S
N2112 Eu2111 2.562 . S
N2112 C2114 1.325 . S
C2113 C2107 1.404 . S
C2113 C2115 1.366 . S
C2113 H2121 0.930 . S
C2114 N2112 1.325 . S
C2114 C2115 1.416 . S
C2114 H2120 0.929 . S
C2115 C2113 1.366 . S
C2115 C2114 1.416 . S
C2115 H2117 0.930 . S
H2116 C2105 0.930 . S
H2117 C2115 0.930 . S
H2118 C2133 0.930 1_545 S
H2119 C2140 0.930 . S
H2120 C2114 0.929 . S
H2121 C2113 0.930 . S
H2122 C2136 0.929 . S
H2123 C2103 0.931 . S
H2124 C2109 0.931 . S
H2125 C2110 0.931 . S
H2126 C2131 0.949 . S
H2127 C2106 0.929 . S
H2128 C2139 0.930 . S
N2129 Eu2100 2.600 . S
N2129 C2130 1.365 . S
N2129 C2133 1.319 . S
C2130 N2129 1.365 . S
C2130 C2132 1.405 . S
C2130 C2138 1.448 . S
C2131 H2126 0.949 . S
C2131 C2133 1.397 . S
C2131 C2134 1.367 . S
C2132 C2130 1.405 . S
C2132 C2134 1.403 . S
C2132 C2165 1.439 . S
C2133 H2118 0.930 1_565 S
C2133 N2129 1.319 . S
C2133 C2131 1.397 . S
C2134 C2131 1.367 . S
C2134 C2132 1.403 . S
C2134 H2141 0.929 . S
N2135 Eu2100 2.562 . S
N2135 C2136 1.325 . S
N2135 C2138 1.351 . S
C2136 H2122 0.929 . S
C2136 N2135 1.325 . S
C2136 C2140 1.416 . S
C2137 C2138 1.430 . S
C2137 C2139 1.404 . S
C2137 C2166 1.387 . S
C2138 C2130 1.448 . S
C2138 N2135 1.351 . S
C2138 C2137 1.430 . S
C2139 H2128 0.930 . S
C2139 C2137 1.404 . S
C2139 C2140 1.366 . S
C2140 H2119 0.930 . S
C2140 C2136 1.416 . S
C2140 C2139 1.366 . S
H2141 C2134 0.929 . S
H2142 C2165 0.931 . S
H2143 C2166 0.931 . S
O2144 Eu2100 2.462 . S
O2144 C2164 1.252 . S
O2145 Eu2100 2.373 . S
O2145 C2156 1.249 1_565 S
O2146 Eu2111 2.335 . S
O2146 C2156 1.264 . S
O2147 Eu2100 2.432 . S
O2147 C2164 1.268 . S
O2148 Eu2100 2.291 . S
O2148 C2163 1.255 . S
O2149 Eu2111 2.372 . S
O2149 C2163 1.257 1_545 S
O2150 Eu2111 2.462 . S
O2150 C2175 1.252 . S
O2151 Eu2111 2.373 . S
O2151 C2167 1.249 . S
O2152 Eu2100 2.335 1_545 S
O2152 C2167 1.264 . S
O2153 Eu2111 2.432 . S
O2153 C2175 1.268 . S
O2154 Eu2111 2.291 . S
O2154 C2174 1.255 . S
O2155 Eu2100 2.372 1_545 S
O2155 C2174 1.257 . S
C2156 O2145 1.249 1_545 S
C2156 O2146 1.264 . S
C2157 C2160 1.382 . S
C2157 C2162 1.390 . S
C2157 C2164 1.506 . S
C2158 C2159 1.398 . S
C2158 C2162 1.392 . S
C2159 C2158 1.398 . S
C2159 C2161 1.372 . S
C2159 H2176 0.931 . S
C2160 C2157 1.382 . S
C2160 C2161 1.390 . S
C2160 H2177 0.931 . S
C2161 C2159 1.372 . S
C2161 C2160 1.390 . S
C2161 H2178 0.929 . S
C2162 C2157 1.390 . S
C2162 C2158 1.392 . S
C2162 H2179 0.930 . S
C2163 O2148 1.255 . S
C2163 O2149 1.257 1_565 S
C2164 Eu2100 2.787 . S
C2164 O2144 1.252 . S
C2164 O2147 1.268 . S
C2164 C2157 1.506 . S
C2165 C2132 1.439 . S
C2165 H2142 0.931 . S
C2165 C2166 1.374 . S
C2166 C2137 1.387 . S
C2166 H2143 0.931 . S
C2166 C2165 1.374 . S
C2167 O2151 1.249 . S
C2167 O2152 1.264 . S
C2168 C2171 1.382 . S
C2168 C2172 1.390 . S
C2168 C2175 1.506 . S
C2169 C2170 1.398 . S
C2169 C2172 1.392 . S
C2170 C2169 1.398 . S
C2170 C2173 1.372 . S
C2170 H2180 0.931 . S
C2171 C2168 1.382 . S
C2171 C2173 1.390 . S
C2171 H2181 0.931 . S
C2172 C2168 1.390 . S
C2172 C2169 1.392 . S
C2172 H2182 0.930 . S
C2173 C2170 1.372 . S
C2173 C2171 1.390 . S
C2173 H2183 0.929 . S
C2174 O2154 1.255 . S
C2174 O2155 1.257 . S
C2175 Eu2111 2.787 . S
C2175 O2150 1.252 . S
C2175 O2153 1.268 . S
C2175 C2168 1.506 . S
H2176 C2159 0.931 . S
H2177 C2160 0.931 . S
H2178 C2161 0.929 . S
H2179 C2162 0.930 . S
H2180 C2170 0.931 . S
H2181 C2171 0.931 . S
H2182 C2172 0.930 . S
H2183 C2173 0.929 . S
Eu2184 N2213 2.600 . S
Eu2184 N2219 2.562 . S
Eu2184 O2228 2.462 . S
Eu2184 O2229 2.373 . S
Eu2184 O2231 2.432 . S
Eu2184 O2232 2.291 . S
Eu2184 O2236 2.335 1_565 S
Eu2184 O2239 2.372 1_565 S
Eu2184 C2248 2.787 . S
C2185 N2186 1.365 . S
C2185 C2188 1.405 . S
C2185 C2192 1.448 . S
N2186 C2185 1.365 . S
N2186 C2189 1.319 . S
N2186 Eu2195 2.600 . S
C2187 C2189 1.397 . S
C2187 C2190 1.367 . S
C2187 H2207 0.931 . S
C2188 C2185 1.405 . S
C2188 C2190 1.403 . S
C2188 C2194 1.439 . S
C2189 N2186 1.319 . S
C2189 C2187 1.397 . S
C2189 H2200 0.930 . S
C2190 C2187 1.367 . S
C2190 C2188 1.403 . S
C2190 H2211 0.929 . S
C2191 C2192 1.430 . S
C2191 C2193 1.387 . S
C2191 C2197 1.404 . S
C2192 C2185 1.448 . S
C2192 C2191 1.430 . S
C2192 N2196 1.351 . S
C2193 C2191 1.387 . S
C2193 C2194 1.374 . S
C2193 H2208 0.931 . S
C2194 C2188 1.439 . S
C2194 C2193 1.374 . S
C2194 H2209 0.931 . S
Eu2195 N2186 2.600 . S
Eu2195 N2196 2.562 . S
Eu2195 O2230 2.335 . S
Eu2195 O2233 2.372 . S
Eu2195 O2234 2.462 . S
Eu2195 O2235 2.373 . S
Eu2195 O2237 2.432 . S
Eu2195 O2238 2.291 . S
Eu2195 C2259 2.787 . S
N2196 C2192 1.351 . S
N2196 Eu2195 2.562 . S
N2196 C2198 1.325 . S
C2197 C2191 1.404 . S
C2197 C2199 1.366 . S
C2197 H2205 0.930 . S
C2198 N2196 1.325 . S
C2198 C2199 1.416 . S
C2198 H2204 0.929 . S
C2199 C2197 1.366 . S
C2199 C2198 1.416 . S
C2199 H2201 0.930 . S
H2200 C2189 0.930 . S
H2201 C2199 0.930 . S
H2202 C2217 0.930 1_545 S
H2203 C2224 0.930 . S
H2204 C2198 0.929 . S
H2205 C2197 0.930 . S
H2206 C2220 0.929 . S
H2207 C2187 0.931 . S
H2208 C2193 0.931 . S
H2209 C2194 0.931 . S
H2210 C2215 0.934 . S
H2211 C2190 0.929 . S
H2212 C2223 0.930 . S
N2213 Eu2184 2.600 . S
N2213 C2214 1.365 . S
N2213 C2217 1.319 . S
C2214 N2213 1.365 . S
C2214 C2216 1.405 . S
C2214 C2222 1.448 . S
C2215 H2210 0.934 . S
C2215 C2217 1.397 . S
C2215 C2218 1.367 . S
C2216 C2214 1.405 . S
C2216 C2218 1.403 . S
C2216 C2249 1.439 . S
C2217 H2202 0.930 1_565 S
C2217 N2213 1.319 . S
C2217 C2215 1.397 . S
C2218 C2215 1.367 . S
C2218 C2216 1.403 . S
C2218 H2225 0.955 . S
N2219 Eu2184 2.562 . S
N2219 C2220 1.325 . S
N2219 C2222 1.351 . S
C2220 H2206 0.929 . S
C2220 N2219 1.325 . S
C2220 C2224 1.416 . S
C2221 C2222 1.430 . S
C2221 C2223 1.404 . S
C2221 C2250 1.387 . S
C2222 C2214 1.448 . S
C2222 N2219 1.351 . S
C2222 C2221 1.430 . S
C2223 H2212 0.930 . S
C2223 C2221 1.404 . S
C2223 C2224 1.366 . S
C2224 H2203 0.930 . S
C2224 C2220 1.416 . S
C2224 C2223 1.366 . S
H2225 C2218 0.955 . S
H2226 C2249 0.931 . S
H2227 C2250 0.931 . S
O2228 Eu2184 2.462 . S
O2228 C2248 1.252 . S
O2229 Eu2184 2.373 . S
O2229 C2240 1.249 1_565 S
O2230 Eu2195 2.335 . S
O2230 C2240 1.264 . S
O2231 Eu2184 2.432 . S
O2231 C2248 1.268 . S
O2232 Eu2184 2.291 . S
O2232 C2247 1.255 . S
O2233 Eu2195 2.372 . S
O2233 C2247 1.257 1_545 S
O2234 Eu2195 2.462 . S
O2234 C2259 1.252 . S
O2235 Eu2195 2.373 . S
O2235 C2251 1.249 . S
O2236 Eu2184 2.335 1_545 S
O2236 C2251 1.264 . S
O2237 Eu2195 2.432 . S
O2237 C2259 1.268 . S
O2238 Eu2195 2.291 . S
O2238 C2258 1.255 . S
O2239 Eu2184 2.372 1_545 S
O2239 C2258 1.257 . S
C2240 O2229 1.249 1_545 S
C2240 O2230 1.264 . S
C2241 C2244 1.382 . S
C2241 C2246 1.390 . S
C2241 C2248 1.506 . S
C2242 C2243 1.398 . S
C2242 C2246 1.392 . S
C2243 C2242 1.398 . S
C2243 C2245 1.372 . S
C2243 H2260 0.931 . S
C2244 C2241 1.382 . S
C2244 C2245 1.390 . S
C2244 H2261 0.931 . S
C2245 C2243 1.372 . S
C2245 C2244 1.390 . S
C2245 H2262 0.929 . S
C2246 C2241 1.390 . S
C2246 C2242 1.392 . S
C2246 H2263 0.930 . S
C2247 O2232 1.255 . S
C2247 O2233 1.257 1_565 S
C2248 Eu2184 2.787 . S
C2248 O2228 1.252 . S
C2248 O2231 1.268 . S
C2248 C2241 1.506 . S
C2249 C2216 1.439 . S
C2249 H2226 0.931 . S
C2249 C2250 1.374 . S
C2250 C2221 1.387 . S
C2250 H2227 0.931 . S
C2250 C2249 1.374 . S
C2251 O2235 1.249 . S
C2251 O2236 1.264 . S
C2252 C2255 1.382 . S
C2252 C2256 1.390 . S
C2252 C2259 1.506 . S
C2253 C2254 1.398 . S
C2253 C2256 1.392 . S
C2254 C2253 1.398 . S
C2254 C2257 1.372 . S
C2254 H2264 0.931 . S
C2255 C2252 1.382 . S
C2255 C2257 1.390 . S
C2255 H2265 0.931 . S
C2256 C2252 1.390 . S
C2256 C2253 1.392 . S
C2256 H2266 0.930 . S
C2257 C2254 1.372 . S
C2257 C2255 1.390 . S
C2257 H2267 0.929 . S
C2258 O2238 1.255 . S
C2258 O2239 1.257 . S
C2259 Eu2195 2.787 . S
C2259 O2234 1.252 . S
C2259 O2237 1.268 . S
C2259 C2252 1.506 . S
H2260 C2243 0.931 . S
H2261 C2244 0.931 . S
H2262 C2245 0.929 . S
H2263 C2246 0.930 . S
H2264 C2254 0.931 . S
H2265 C2255 0.931 . S
H2266 C2256 0.930 . S
H2267 C2257 0.929 . S
Eu2268 N2297 2.600 . S
Eu2268 N2303 2.562 . S
Eu2268 O2312 2.462 . S
Eu2268 O2313 2.373 . S
Eu2268 O2315 2.432 . S
Eu2268 O2316 2.291 . S
Eu2268 O2320 2.335 . S
Eu2268 O2323 2.372 . S
Eu2268 C2332 2.787 . S
C2269 N2270 1.365 . S
C2269 C2272 1.405 . S
C2269 C2276 1.448 . S
N2270 C2269 1.365 . S
N2270 C2273 1.319 . S
N2270 Eu2279 2.600 . S
C2271 C2273 1.397 . S
C2271 C2274 1.367 . S
C2271 H2291 0.931 . S
C2272 C2269 1.405 . S
C2272 C2274 1.403 . S
C2272 C2278 1.439 . S
C2273 N2270 1.319 . S
C2273 C2271 1.397 . S
C2273 H2284 0.930 . S
C2274 C2271 1.367 . S
C2274 C2272 1.403 . S
C2274 H2295 0.929 . S
C2275 C2276 1.430 1_556 S
C2275 C2277 1.396 . S
C2275 C2281 1.404 . S
C2276 C2269 1.448 . S
C2276 C2275 1.430 1_554 S
C2276 N2280 1.351 1_554 S
C2277 C2275 1.396 . S
C2277 C2278 1.354 1_556 S
C2277 H2292 0.944 . S
C2278 C2272 1.439 . S
C2278 C2277 1.354 1_554 S
C2278 H2293 0.931 . S
Eu2279 N2270 2.600 . S
Eu2279 N2280 2.562 1_554 S
Eu2279 O2314 2.335 . S
Eu2279 O2317 2.372 . S
Eu2279 O2318 2.462 . S
Eu2279 O2319 2.373 1_554 S
Eu2279 O2321 2.432 . S
Eu2279 O2322 2.291 1_554 S
Eu2279 C2343 2.787 . S
N2280 C2276 1.351 1_556 S
N2280 Eu2279 2.562 1_556 S
N2280 C2282 1.325 . S
C2281 C2275 1.404 . S
C2281 C2283 1.366 . S
C2281 H2289 0.930 . S
C2282 N2280 1.325 . S
C2282 C2283 1.416 . S
C2282 H2288 0.929 . S
C2283 C2281 1.366 . S
C2283 C2282 1.416 . S
C2283 H2285 0.930 . S
H2284 C2273 0.930 . S
H2285 C2283 0.930 . S
H2286 C2301 0.930 . S
H2287 C2308 0.932 . S
H2288 C2282 0.929 . S
H2289 C2281 0.930 . S
H2290 C2304 0.929 . S
H2291 C2271 0.931 . S
H2292 C2277 0.944 . S
H2293 C2278 0.931 . S
H2294 C2299 0.931 . S
H2295 C2274 0.929 . S
H2296 C2307 0.930 . S
N2297 Eu2268 2.600 . S
N2297 C2298 1.365 . S
N2297 C2301 1.319 . S
C2298 N2297 1.365 . S
C2298 C2300 1.405 . S
C2298 C2306 1.448 . S
C2299 H2294 0.931 . S
C2299 C2301 1.397 . S
C2299 C2302 1.367 . S
C2300 C2298 1.405 . S
C2300 C2302 1.403 . S
C2300 C2333 1.439 . S
C2301 H2286 0.930 . S
C2301 N2297 1.319 . S
C2301 C2299 1.397 . S
C2302 C2299 1.367 . S
C2302 C2300 1.403 . S
C2302 H2309 0.929 . S
N2303 Eu2268 2.562 . S
N2303 C2304 1.325 . S
N2303 C2306 1.351 . S
C2304 H2290 0.929 . S
C2304 N2303 1.325 . S
C2304 C2308 1.416 . S
C2305 C2306 1.430 . S
C2305 C2307 1.404 . S
C2305 C2334 1.387 . S
C2306 C2298 1.448 . S
C2306 N2303 1.351 . S
C2306 C2305 1.430 . S
C2307 H2296 0.930 . S
C2307 C2305 1.404 . S
C2307 C2308 1.366 . S
C2308 H2287 0.932 . S
C2308 C2304 1.416 . S
C2308 C2307 1.366 . S
H2309 C2302 0.929 . S
H2310 C2333 0.931 . S
H2311 C2334 0.931 . S
O2312 Eu2268 2.462 . S
O2312 C2332 1.252 . S
O2313 Eu2268 2.373 . S
O2313 C2324 1.249 1_556 S
O2314 Eu2279 2.335 . S
O2314 C2324 1.264 . S
O2315 Eu2268 2.432 . S
O2315 C2332 1.268 . S
O2316 Eu2268 2.291 . S
O2316 C2331 1.255 1_556 S
O2317 Eu2279 2.372 . S
O2317 C2331 1.257 . S
O2318 Eu2279 2.462 . S
O2318 C2343 1.252 . S
O2319 Eu2279 2.373 1_556 S
O2319 C2335 1.249 . S
O2320 Eu2268 2.335 . S
O2320 C2335 1.264 . S
O2321 Eu2279 2.432 . S
O2321 C2343 1.268 . S
O2322 Eu2279 2.291 1_556 S
O2322 C2342 1.255 . S
O2323 Eu2268 2.372 . S
O2323 C2342 1.257 . S
C2324 O2313 1.249 1_554 S
C2324 O2314 1.264 . S
C2325 C2328 1.382 . S
C2325 C2330 1.390 . S
C2325 C2332 1.506 . S
C2326 C2327 1.398 . S
C2326 C2330 1.392 . S
C2327 C2326 1.398 . S
C2327 C2329 1.372 . S
C2327 H2344 0.931 . S
C2328 C2325 1.382 . S
C2328 C2329 1.390 . S
C2328 H2345 0.931 . S
C2329 C2327 1.372 . S
C2329 C2328 1.390 . S
C2329 H2346 0.929 . S
C2330 C2325 1.390 . S
C2330 C2326 1.392 . S
C2330 H2347 0.930 . S
C2331 O2316 1.255 1_554 S
C2331 O2317 1.257 . S
C2332 Eu2268 2.787 . S
C2332 O2312 1.252 . S
C2332 O2315 1.268 . S
C2332 C2325 1.506 . S
C2333 C2300 1.439 . S
C2333 H2310 0.931 . S
C2333 C2334 1.374 . S
C2334 C2305 1.387 . S
C2334 H2311 0.931 . S
C2334 C2333 1.374 . S
C2335 O2319 1.249 . S
C2335 O2320 1.264 . S
C2336 C2339 1.382 . S
C2336 C2340 1.390 . S
C2336 C2343 1.506 . S
C2337 C2338 1.398 . S
C2337 C2340 1.392 . S
C2338 C2337 1.398 . S
C2338 C2341 1.372 . S
C2338 H2348 0.931 . S
C2339 C2336 1.382 . S
C2339 C2341 1.390 . S
C2339 H2349 0.931 . S
C2340 C2336 1.390 . S
C2340 C2337 1.392 . S
C2340 H2350 0.930 . S
C2341 C2338 1.372 . S
C2341 C2339 1.390 . S
C2341 H2351 0.929 . S
C2342 O2322 1.255 . S
C2342 O2323 1.257 . S
C2343 Eu2279 2.787 . S
C2343 O2318 1.252 . S
C2343 O2321 1.268 . S
C2343 C2336 1.506 . S
H2344 C2327 0.931 . S
H2345 C2328 0.931 . S
H2346 C2329 0.929 . S
H2347 C2330 0.930 . S
H2348 C2338 0.931 . S
H2349 C2339 0.931 . S
H2350 C2340 0.930 . S
H2351 C2341 0.929 . S
Eu2352 N2381 2.600 . S
Eu2352 N2387 2.562 . S
Eu2352 O2396 2.462 . S
Eu2352 O2397 2.373 . S
Eu2352 O2399 2.432 . S
Eu2352 O2400 2.291 . S
Eu2352 O2404 2.335 1_655 S
Eu2352 O2407 2.372 1_655 S
Eu2352 C2416 2.787 . S
C2353 N2354 1.365 . S
C2353 C2356 1.405 . S
C2353 C2360 1.448 . S
N2354 C2353 1.365 . S
N2354 C2357 1.319 . S
N2354 Eu2363 2.600 . S
C2355 C2357 1.397 . S
C2355 C2358 1.367 . S
C2355 H2375 0.931 . S
C2356 C2353 1.405 . S
C2356 C2358 1.403 . S
C2356 C2362 1.439 . S
C2357 N2354 1.319 . S
C2357 C2355 1.397 . S
C2357 H2368 0.930 . S
C2358 C2355 1.367 . S
C2358 C2356 1.403 . S
C2358 H2379 0.929 . S
C2359 C2360 1.430 . S
C2359 C2361 1.387 . S
C2359 C2365 1.404 . S
C2360 C2353 1.448 . S
C2360 C2359 1.430 . S
C2360 N2364 1.351 . S
C2361 C2359 1.387 . S
C2361 C2362 1.374 . S
C2361 H2376 0.931 . S
C2362 C2356 1.439 . S
C2362 C2361 1.374 . S
C2362 H2377 0.931 . S
Eu2363 N2354 2.600 . S
Eu2363 N2364 2.562 . S
Eu2363 O2398 2.335 . S
Eu2363 O2401 2.372 . S
Eu2363 O2402 2.462 . S
Eu2363 O2403 2.373 . S
Eu2363 O2405 2.432 . S
Eu2363 O2406 2.291 . S
Eu2363 C2427 2.787 . S
N2364 C2360 1.351 . S
N2364 Eu2363 2.562 . S
N2364 C2366 1.325 . S
C2365 C2359 1.404 . S
C2365 C2367 1.366 . S
C2365 H2373 0.930 . S
C2366 N2364 1.325 . S
C2366 C2367 1.416 . S
C2366 H2372 0.929 . S
C2367 C2365 1.366 . S
C2367 C2366 1.416 . S
C2367 H2369 0.930 . S
H2368 C2357 0.930 . S
H2369 C2367 0.930 . S
H2370 C2385 0.930 1_455 S
H2371 C2392 0.930 . S
H2372 C2366 0.929 . S
H2373 C2365 0.930 . S
H2374 C2388 0.929 . S
H2375 C2355 0.931 . S
H2376 C2361 0.931 . S
H2377 C2362 0.931 . S
H2378 C2383 0.931 1_455 S
H2379 C2358 0.929 . S
H2380 C2391 0.930 . S
N2381 Eu2352 2.600 . S
N2381 C2382 1.365 . S
N2381 C2385 1.319 . S
C2382 N2381 1.365 . S
C2382 C2384 1.405 . S
C2382 C2390 1.448 . S
C2383 H2378 0.931 1_655 S
C2383 C2385 1.397 . S
C2383 C2386 1.367 . S
C2384 C2382 1.405 . S
C2384 C2386 1.403 . S
C2384 C2417 1.439 . S
C2385 H2370 0.930 1_655 S
C2385 N2381 1.319 . S
C2385 C2383 1.397 . S
C2386 C2383 1.367 . S
C2386 C2384 1.403 . S
C2386 H2393 0.929 1_545 S
N2387 Eu2352 2.562 . S
N2387 C2388 1.325 . S
N2387 C2390 1.351 . S
C2388 H2374 0.929 . S
C2388 N2387 1.325 . S
C2388 C2392 1.416 . S
C2389 C2390 1.430 . S
C2389 C2391 1.404 . S
C2389 C2418 1.387 . S
C2390 C2382 1.448 . S
C2390 N2387 1.351 . S
C2390 C2389 1.430 . S
C2391 H2380 0.930 . S
C2391 C2389 1.404 . S
C2391 C2392 1.366 . S
C2392 H2371 0.930 . S
C2392 C2388 1.416 . S
C2392 C2391 1.366 . S
H2393 C2386 0.929 1_565 S
H2394 C2417 0.931 . S
H2395 C2418 0.931 . S
O2396 Eu2352 2.462 . S
O2396 C2416 1.252 . S
O2397 Eu2352 2.373 . S
O2397 C2408 1.236 1_655 S
O2398 Eu2363 2.335 . S
O2398 C2408 1.296 . S
O2399 Eu2352 2.432 . S
O2399 C2416 1.268 . S
O2400 Eu2352 2.291 . S
O2400 C2415 1.255 . S
O2401 Eu2363 2.372 . S
O2401 C2415 1.257 1_455 S
O2402 Eu2363 2.462 . S
O2402 C2427 1.252 . S
O2403 Eu2363 2.373 . S
O2403 C2419 1.249 . S
O2404 Eu2352 2.335 1_455 S
O2404 C2419 1.264 . S
O2405 Eu2363 2.432 . S
O2405 C2427 1.268 . S
O2406 Eu2363 2.291 . S
O2406 C2426 1.255 . S
O2407 Eu2352 2.372 1_455 S
O2407 C2426 1.257 . S
C2408 O2397 1.236 1_455 S
C2408 O2398 1.296 . S
C2409 C2412 1.382 . S
C2409 C2414 1.390 . S
C2409 C2416 1.506 . S
C2410 C2411 1.398 . S
C2410 C2414 1.392 . S
C2411 C2410 1.398 . S
C2411 C2413 1.372 . S
C2411 H2428 0.931 . S
C2412 C2409 1.382 . S
C2412 C2413 1.390 . S
C2412 H2429 0.931 . S
C2413 C2411 1.372 . S
C2413 C2412 1.390 . S
C2413 H2430 0.929 . S
C2414 C2409 1.390 . S
C2414 C2410 1.392 . S
C2414 H2431 0.930 . S
C2415 O2400 1.255 . S
C2415 O2401 1.257 1_655 S
C2416 Eu2352 2.787 . S
C2416 O2396 1.252 . S
C2416 O2399 1.268 . S
C2416 C2409 1.506 . S
C2417 C2384 1.439 . S
C2417 H2394 0.931 . S
C2417 C2418 1.374 . S
C2418 C2389 1.387 . S
C2418 H2395 0.931 . S
C2418 C2417 1.374 . S
C2419 O2403 1.249 . S
C2419 O2404 1.264 . S
C2420 C2423 1.382 . S
C2420 C2424 1.390 . S
C2420 C2427 1.506 . S
C2421 C2422 1.398 . S
C2421 C2424 1.392 . S
C2422 C2421 1.398 . S
C2422 C2425 1.372 . S
C2422 H2432 0.931 . S
C2423 C2420 1.382 . S
C2423 C2425 1.390 . S
C2423 H2433 0.931 . S
C2424 C2420 1.390 . S
C2424 C2421 1.392 . S
C2424 H2434 0.930 . S
C2425 C2422 1.372 . S
C2425 C2423 1.390 . S
C2425 H2435 0.929 . S
C2426 O2406 1.255 . S
C2426 O2407 1.257 . S
C2427 Eu2363 2.787 . S
C2427 O2402 1.252 . S
C2427 O2405 1.268 . S
C2427 C2420 1.506 . S
H2428 C2411 0.931 . S
H2429 C2412 0.931 . S
H2430 C2413 0.929 . S
H2431 C2414 0.930 . S
H2432 C2422 0.931 . S
H2433 C2423 0.931 . S
H2434 C2424 0.930 . S
H2435 C2425 0.929 . S
Eu2436 N2465 2.600 . S
Eu2436 N2471 2.562 . S
Eu2436 O2480 2.462 . S
Eu2436 O2481 2.373 . S
Eu2436 O2483 2.432 . S
Eu2436 O2484 2.291 . S
Eu2436 O2488 2.335 . S
Eu2436 O2491 2.372 . S
Eu2436 C2500 2.787 . S
C2437 N2438 1.365 . S
C2437 C2440 1.405 . S
C2437 C2444 1.448 . S
N2438 C2437 1.365 . S
N2438 C2441 1.319 . S
N2438 Eu2447 2.600 . S
C2439 C2441 1.397 . S
C2439 C2442 1.367 . S
C2439 H2459 0.931 . S
C2440 C2437 1.405 . S
C2440 C2442 1.403 . S
C2440 C2446 1.439 . S
C2441 N2438 1.319 . S
C2441 C2439 1.397 . S
C2441 H2452 0.930 . S
C2442 C2439 1.367 . S
C2442 C2440 1.403 . S
C2442 H2463 0.897 1_655 S
C2443 C2444 1.430 . S
C2443 C2445 1.387 . S
C2443 C2449 1.404 . S
C2444 C2437 1.448 . S
C2444 C2443 1.430 . S
C2444 N2448 1.351 . S
C2445 C2443 1.387 . S
C2445 C2446 1.374 . S
C2445 H2460 0.931 . S
C2446 C2440 1.439 . S
C2446 C2445 1.374 . S
C2446 H2461 0.931 . S
Eu2447 N2438 2.600 . S
Eu2447 N2448 2.562 . S
Eu2447 O2482 2.335 . S
Eu2447 O2485 2.372 . S
Eu2447 O2486 2.462 . S
Eu2447 O2487 2.373 . S
Eu2447 O2489 2.432 . S
Eu2447 O2490 2.291 . S
Eu2447 C2511 2.787 . S
N2448 C2444 1.351 . S
N2448 Eu2447 2.562 . S
N2448 C2450 1.325 . S
C2449 C2443 1.404 . S
C2449 C2451 1.366 . S
C2449 H2457 0.930 . S
C2450 N2448 1.325 . S
C2450 C2451 1.416 . S
C2450 H2456 0.929 . S
C2451 C2449 1.366 . S
C2451 C2450 1.416 . S
C2451 H2453 0.930 . S
H2452 C2441 0.930 . S
H2453 C2451 0.930 . S
H2454 C2469 0.930 . S
H2455 C2476 0.930 . S
H2456 C2450 0.929 . S
H2457 C2449 0.930 . S
H2458 C2472 0.929 . S
H2459 C2439 0.931 . S
H2460 C2445 0.931 . S
H2461 C2446 0.931 . S
H2462 C2467 0.931 . S
H2463 C2442 0.897 1_455 S
H2464 C2475 0.930 . S
N2465 Eu2436 2.600 . S
N2465 C2466 1.365 . S
N2465 C2469 1.319 . S
C2466 N2465 1.365 . S
C2466 C2468 1.405 . S
C2466 C2474 1.448 . S
C2467 H2462 0.931 . S
C2467 C2469 1.397 . S
C2467 C2470 1.367 . S
C2468 C2466 1.405 . S
C2468 C2470 1.403 . S
C2468 C2501 1.439 . S
C2469 H2454 0.930 . S
C2469 N2465 1.319 . S
C2469 C2467 1.397 . S
C2470 C2467 1.367 . S
C2470 C2468 1.403 . S
C2470 H2477 0.929 . S
N2471 Eu2436 2.562 . S
N2471 C2472 1.325 . S
N2471 C2474 1.351 . S
C2472 H2458 0.929 . S
C2472 N2471 1.325 . S
C2472 C2476 1.416 . S
C2473 C2474 1.430 . S
C2473 C2475 1.404 . S
C2473 C2502 1.387 . S
C2474 C2466 1.448 . S
C2474 N2471 1.351 . S
C2474 C2473 1.430 . S
C2475 H2464 0.930 . S
C2475 C2473 1.404 . S
C2475 C2476 1.366 . S
C2476 H2455 0.930 . S
C2476 C2472 1.416 . S
C2476 C2475 1.366 . S
H2477 C2470 0.929 . S
H2478 C2501 0.931 . S
H2479 C2502 0.931 . S
O2480 Eu2436 2.462 . S
O2480 C2500 1.252 . S
O2481 Eu2436 2.373 . S
O2481 C2492 1.249 . S
O2482 Eu2447 2.335 . S
O2482 C2492 1.264 . S
O2483 Eu2436 2.432 . S
O2483 C2500 1.268 . S
O2484 Eu2436 2.291 . S
O2484 C2499 1.255 . S
O2485 Eu2447 2.372 . S
O2485 C2499 1.257 . S
O2486 Eu2447 2.462 . S
O2486 C2511 1.252 . S
O2487 Eu2447 2.373 . S
O2487 C2503 1.249 . S
O2488 Eu2436 2.335 . S
O2488 C2503 1.264 . S
O2489 Eu2447 2.432 . S
O2489 C2511 1.268 . S
O2490 Eu2447 2.291 . S
O2490 C2510 1.255 . S
O2491 Eu2436 2.372 . S
O2491 C2510 1.257 . S
C2492 O2481 1.249 . S
C2492 O2482 1.264 . S
C2493 C2496 1.382 . S
C2493 C2498 1.390 . S
C2493 C2500 1.506 . S
C2494 C2495 1.398 . S
C2494 C2498 1.392 . S
C2495 C2494 1.398 . S
C2495 C2497 1.372 . S
C2495 H2512 0.931 . S
C2496 C2493 1.382 . S
C2496 C2497 1.390 . S
C2496 H2513 0.931 . S
C2497 C2495 1.372 . S
C2497 C2496 1.390 . S
C2497 H2514 0.929 . S
C2498 C2493 1.390 . S
C2498 C2494 1.392 . S
C2498 H2515 0.930 . S
C2499 O2484 1.255 . S
C2499 O2485 1.257 . S
C2500 Eu2436 2.787 . S
C2500 O2480 1.252 . S
C2500 O2483 1.268 . S
C2500 C2493 1.506 . S
C2501 C2468 1.439 . S
C2501 H2478 0.931 . S
C2501 C2502 1.374 . S
C2502 C2473 1.387 . S
C2502 H2479 0.931 . S
C2502 C2501 1.374 . S
C2503 O2487 1.249 . S
C2503 O2488 1.264 . S
C2504 C2507 1.382 . S
C2504 C2508 1.390 . S
C2504 C2511 1.506 . S
C2505 C2506 1.398 . S
C2505 C2508 1.392 . S
C2506 C2505 1.398 . S
C2506 C2509 1.372 . S
C2506 H2516 0.931 . S
C2507 C2504 1.382 . S
C2507 C2509 1.390 . S
C2507 H2517 0.931 . S
C2508 C2504 1.390 . S
C2508 C2505 1.392 . S
C2508 H2518 0.930 . S
C2509 C2506 1.372 . S
C2509 C2507 1.390 . S
C2509 H2519 0.929 . S
C2510 O2490 1.255 . S
C2510 O2491 1.257 . S
C2511 Eu2447 2.787 . S
C2511 O2486 1.252 . S
C2511 O2489 1.268 . S
C2511 C2504 1.506 . S
H2512 C2495 0.931 . S
H2513 C2496 0.931 . S
H2514 C2497 0.929 . S
H2515 C2498 0.930 . S
H2516 C2506 0.931 . S
H2517 C2507 0.931 . S
H2518 C2508 0.930 . S
H2519 C2509 0.929 . S
Eu2520 N2549 2.600 . S
Eu2520 N2555 2.562 . S
Eu2520 O2564 2.462 . S
Eu2520 O2565 2.373 . S
Eu2520 O2567 2.432 . S
Eu2520 O2568 2.291 . S
Eu2520 O2572 2.335 . S
Eu2520 O2575 2.372 . S
Eu2520 C2584 2.787 . S
C2521 N2522 1.365 . S
C2521 C2524 1.405 . S
C2521 C2528 1.448 . S
N2522 C2521 1.365 . S
N2522 C2525 1.319 . S
N2522 Eu2531 2.600 . S
C2523 C2525 1.397 . S
C2523 C2526 1.367 . S
C2523 H2543 0.931 . S
C2524 C2521 1.405 . S
C2524 C2526 1.403 . S
C2524 C2530 1.439 . S
C2525 N2522 1.319 . S
C2525 C2523 1.397 . S
C2525 H2536 0.930 . S
C2526 C2523 1.367 . S
C2526 C2524 1.403 . S
C2526 H2547 0.887 1_565 S
C2527 C2528 1.430 . S
C2527 C2529 1.387 . S
C2527 C2533 1.404 . S
C2528 C2521 1.448 . S
C2528 C2527 1.430 . S
C2528 N2532 1.351 . S
C2529 C2527 1.387 . S
C2529 C2530 1.374 . S
C2529 H2544 0.931 . S
C2530 C2524 1.439 . S
C2530 C2529 1.374 . S
C2530 H2545 0.931 . S
Eu2531 N2522 2.600 . S
Eu2531 N2532 2.562 . S
Eu2531 O2566 2.335 . S
Eu2531 O2569 2.372 . S
Eu2531 O2570 2.462 . S
Eu2531 O2571 2.373 . S
Eu2531 O2573 2.432 . S
Eu2531 O2574 2.291 . S
Eu2531 C2595 2.787 . S
N2532 C2528 1.351 . S
N2532 Eu2531 2.562 . S
N2532 C2534 1.325 . S
C2533 C2527 1.404 . S
C2533 C2535 1.366 . S
C2533 H2541 0.930 . S
C2534 N2532 1.325 . S
C2534 C2535 1.416 . S
C2534 H2540 0.929 . S
C2535 C2533 1.366 . S
C2535 C2534 1.416 . S
C2535 H2537 0.930 . S
H2536 C2525 0.930 . S
H2537 C2535 0.930 . S
H2538 C2553 0.930 . S
H2539 C2560 0.930 . S
H2540 C2534 0.929 . S
H2541 C2533 0.930 . S
H2542 C2556 0.929 . S
H2543 C2523 0.931 . S
H2544 C2529 0.931 . S
H2545 C2530 0.931 . S
H2546 C2551 0.931 . S
H2547 C2526 0.887 1_545 S
H2548 C2559 0.930 . S
N2549 Eu2520 2.600 . S
N2549 C2550 1.365 . S
N2549 C2553 1.319 . S
C2550 N2549 1.365 . S
C2550 C2552 1.405 . S
C2550 C2558 1.448 . S
C2551 H2546 0.931 . S
C2551 C2553 1.397 . S
C2551 C2554 1.367 . S
C2552 C2550 1.405 . S
C2552 C2554 1.403 . S
C2552 C2585 1.439 . S
C2553 H2538 0.930 . S
C2553 N2549 1.319 . S
C2553 C2551 1.397 . S
C2554 C2551 1.367 . S
C2554 C2552 1.403 . S
C2554 H2561 0.929 . S
N2555 Eu2520 2.562 . S
N2555 C2556 1.325 . S
N2555 C2558 1.351 . S
C2556 H2542 0.929 . S
C2556 N2555 1.325 . S
C2556 C2560 1.416 . S
C2557 C2558 1.430 . S
C2557 C2559 1.404 . S
C2557 C2586 1.387 . S
C2558 C2550 1.448 . S
C2558 N2555 1.351 . S
C2558 C2557 1.430 . S
C2559 H2548 0.930 . S
C2559 C2557 1.404 . S
C2559 C2560 1.366 . S
C2560 H2539 0.930 . S
C2560 C2556 1.416 . S
C2560 C2559 1.366 . S
H2561 C2554 0.929 . S
H2562 C2585 0.931 . S
H2563 C2586 0.931 . S
O2564 Eu2520 2.462 . S
O2564 C2584 1.252 . S
O2565 Eu2520 2.373 . S
O2565 C2576 1.249 . S
O2566 Eu2531 2.335 . S
O2566 C2576 1.264 . S
O2567 Eu2520 2.432 . S
O2567 C2584 1.268 . S
O2568 Eu2520 2.291 . S
O2568 C2583 1.255 . S
O2569 Eu2531 2.372 . S
O2569 C2583 1.257 . S
O2570 Eu2531 2.462 . S
O2570 C2595 1.252 . S
O2571 Eu2531 2.373 . S
O2571 C2587 1.249 . S
O2572 Eu2520 2.335 . S
O2572 C2587 1.264 . S
O2573 Eu2531 2.432 . S
O2573 C2595 1.268 . S
O2574 Eu2531 2.291 . S
O2574 C2594 1.255 . S
O2575 Eu2520 2.372 . S
O2575 C2594 1.257 . S
C2576 O2565 1.249 . S
C2576 O2566 1.264 . S
C2577 C2580 1.382 . S
C2577 C2582 1.390 . S
C2577 C2584 1.506 . S
C2578 C2579 1.398 . S
C2578 C2582 1.392 . S
C2579 C2578 1.398 . S
C2579 C2581 1.372 . S
C2579 H2596 0.931 . S
C2580 C2577 1.382 . S
C2580 C2581 1.390 . S
C2580 H2597 0.931 . S
C2581 C2579 1.372 . S
C2581 C2580 1.390 . S
C2581 H2598 0.929 . S
C2582 C2577 1.390 . S
C2582 C2578 1.392 . S
C2582 H2599 0.930 . S
C2583 O2568 1.255 . S
C2583 O2569 1.257 . S
C2584 Eu2520 2.787 . S
C2584 O2564 1.252 . S
C2584 O2567 1.268 . S
C2584 C2577 1.506 . S
C2585 C2552 1.439 . S
C2585 H2562 0.931 . S
C2585 C2586 1.374 . S
C2586 C2557 1.387 . S
C2586 H2563 0.931 . S
C2586 C2585 1.374 . S
C2587 O2571 1.249 . S
C2587 O2572 1.264 . S
C2588 C2591 1.382 . S
C2588 C2592 1.390 . S
C2588 C2595 1.506 . S
C2589 C2590 1.398 . S
C2589 C2592 1.392 . S
C2590 C2589 1.398 . S
C2590 C2593 1.372 . S
C2590 H2600 0.931 . S
C2591 C2588 1.382 . S
C2591 C2593 1.390 . S
C2591 H2601 0.931 . S
C2592 C2588 1.390 . S
C2592 C2589 1.392 . S
C2592 H2602 0.930 . S
C2593 C2590 1.372 . S
C2593 C2591 1.390 . S
C2593 H2603 0.929 . S
C2594 O2574 1.255 . S
C2594 O2575 1.257 . S
C2595 Eu2531 2.787 . S
C2595 O2570 1.252 . S
C2595 O2573 1.268 . S
C2595 C2588 1.506 . S
H2596 C2579 0.931 . S
H2597 C2580 0.931 . S
H2598 C2581 0.929 . S
H2599 C2582 0.930 . S
H2600 C2590 0.931 . S
H2601 C2591 0.931 . S
H2602 C2592 0.930 . S
H2603 C2593 0.929 . S
Eu2604 N2633 2.600 . S
Eu2604 N2639 2.562 1_455 S
Eu2604 O2648 2.462 . S
Eu2604 O2649 2.373 1_455 S
Eu2604 O2651 2.432 . S
Eu2604 O2652 2.291 1_455 S
Eu2604 O2656 2.335 . S
Eu2604 O2659 2.372 . S
Eu2604 C2668 2.787 . S
C2605 N2606 1.365 . S
C2605 C2608 1.405 . S
C2605 C2612 1.448 . S
N2606 C2605 1.365 . S
N2606 C2609 1.319 . S
N2606 Eu2615 2.600 . S
C2607 C2609 1.397 . S
C2607 C2610 1.367 . S
C2607 H2627 0.931 . S
C2608 C2605 1.405 . S
C2608 C2610 1.403 . S
C2608 C2614 1.439 . S
C2609 N2606 1.319 . S
C2609 C2607 1.397 . S
C2609 H2620 0.930 . S
C2610 C2607 1.367 . S
C2610 C2608 1.403 . S
C2610 H2631 0.929 . S
C2611 C2612 1.430 . S
C2611 C2613 1.387 . S
C2611 C2617 1.404 . S
C2612 C2605 1.448 . S
C2612 C2611 1.430 . S
C2612 N2616 1.351 . S
C2613 C2611 1.387 . S
C2613 C2614 1.374 . S
C2613 H2628 0.931 . S
C2614 C2608 1.439 . S
C2614 C2613 1.374 . S
C2614 H2629 0.931 . S
Eu2615 N2606 2.600 . S
Eu2615 N2616 2.562 . S
Eu2615 O2650 2.335 . S
Eu2615 O2653 2.372 . S
Eu2615 O2654 2.462 . S
Eu2615 O2655 2.373 . S
Eu2615 O2657 2.432 . S
Eu2615 O2658 2.291 . S
Eu2615 C2679 2.787 . S
N2616 C2612 1.351 . S
N2616 Eu2615 2.562 . S
N2616 C2618 1.325 . S
C2617 C2611 1.404 . S
C2617 C2619 1.366 . S
C2617 H2625 0.930 . S
C2618 N2616 1.325 . S
C2618 C2619 1.416 . S
C2618 H2624 0.929 . S
C2619 C2617 1.366 . S
C2619 C2618 1.416 . S
C2619 H2621 0.906 1_655 S
H2620 C2609 0.930 . S
H2621 C2619 0.906 1_455 S
H2622 C2637 0.930 . S
H2623 C2644 0.930 . S
H2624 C2618 0.929 . S
H2625 C2617 0.930 . S
H2626 C2640 0.929 . S
H2627 C2607 0.931 . S
H2628 C2613 0.931 . S
H2629 C2614 0.931 . S
H2630 C2635 0.931 . S
H2631 C2610 0.929 . S
H2632 C2643 0.930 . S
N2633 Eu2604 2.600 . S
N2633 C2634 1.365 . S
N2633 C2637 1.319 . S
C2634 N2633 1.365 . S
C2634 C2636 1.405 . S
C2634 C2642 1.448 . S
C2635 H2630 0.931 . S
C2635 C2637 1.397 . S
C2635 C2638 1.367 . S
C2636 C2634 1.405 . S
C2636 C2638 1.403 . S
C2636 C2669 1.439 . S
C2637 H2622 0.930 . S
C2637 N2633 1.319 . S
C2637 C2635 1.397 . S
C2638 C2635 1.367 . S
C2638 C2636 1.403 . S
C2638 H2645 0.956 . S
N2639 Eu2604 2.562 1_655 S
N2639 C2640 1.325 . S
N2639 C2642 1.351 1_655 S
C2640 H2626 0.929 . S
C2640 N2639 1.325 . S
C2640 C2644 1.416 . S
C2641 C2642 1.430 1_655 S
C2641 C2643 1.404 . S
C2641 C2670 1.394 . S
C2642 C2634 1.448 . S
C2642 N2639 1.351 1_455 S
C2642 C2641 1.430 1_455 S
C2643 H2632 0.930 . S
C2643 C2641 1.404 . S
C2643 C2644 1.366 . S
C2644 H2623 0.930 . S
C2644 C2640 1.416 . S
C2644 C2643 1.366 . S
H2645 C2638 0.956 . S
H2646 C2669 0.931 . S
H2647 C2670 0.941 . S
O2648 Eu2604 2.462 . S
O2648 C2668 1.252 . S
O2649 Eu2604 2.373 1_655 S
O2649 C2660 1.249 . S
O2650 Eu2615 2.335 . S
O2650 C2660 1.264 . S
O2651 Eu2604 2.432 . S
O2651 C2668 1.268 . S
O2652 Eu2604 2.291 1_655 S
O2652 C2667 1.255 . S
O2653 Eu2615 2.372 . S
O2653 C2667 1.257 . S
O2654 Eu2615 2.462 . S
O2654 C2679 1.252 . S
O2655 Eu2615 2.373 . S
O2655 C2671 1.249 1_655 S
O2656 Eu2604 2.335 . S
O2656 C2671 1.264 . S
O2657 Eu2615 2.432 . S
O2657 C2679 1.268 . S
O2658 Eu2615 2.291 . S
O2658 C2678 1.255 1_655 S
O2659 Eu2604 2.372 . S
O2659 C2678 1.257 . S
C2660 O2649 1.249 . S
C2660 O2650 1.264 . S
C2661 C2664 1.382 . S
C2661 C2666 1.390 . S
C2661 C2668 1.506 . S
C2662 C2663 1.398 . S
C2662 C2666 1.392 . S
C2663 C2662 1.398 . S
C2663 C2665 1.372 . S
C2663 H2680 0.931 . S
C2664 C2661 1.382 . S
C2664 C2665 1.390 . S
C2664 H2681 0.931 . S
C2665 C2663 1.372 . S
C2665 C2664 1.390 . S
C2665 H2682 0.929 . S
C2666 C2661 1.390 . S
C2666 C2662 1.392 . S
C2666 H2683 0.930 . S
C2667 O2652 1.255 . S
C2667 O2653 1.257 . S
C2668 Eu2604 2.787 . S
C2668 O2648 1.252 . S
C2668 O2651 1.268 . S
C2668 C2661 1.506 . S
C2669 C2636 1.439 . S
C2669 H2646 0.931 . S
C2669 C2670 1.358 1_455 S
C2670 C2641 1.394 . S
C2670 H2647 0.941 . S
C2670 C2669 1.358 1_655 S
C2671 O2655 1.249 1_455 S
C2671 O2656 1.264 . S
C2672 C2675 1.382 . S
C2672 C2676 1.390 . S
C2672 C2679 1.506 . S
C2673 C2674 1.398 . S
C2673 C2676 1.392 . S
C2674 C2673 1.398 . S
C2674 C2677 1.372 . S
C2674 H2684 0.931 . S
C2675 C2672 1.382 . S
C2675 C2677 1.390 . S
C2675 H2685 0.931 . S
C2676 C2672 1.390 . S
C2676 C2673 1.392 . S
C2676 H2686 0.930 . S
C2677 C2674 1.372 . S
C2677 C2675 1.390 . S
C2677 H2687 0.929 . S
C2678 O2658 1.255 1_455 S
C2678 O2659 1.257 . S
C2679 Eu2615 2.787 . S
C2679 O2654 1.252 . S
C2679 O2657 1.268 . S
C2679 C2672 1.506 . S
H2680 C2663 0.931 . S
H2681 C2664 0.931 . S
H2682 C2665 0.929 . S
H2683 C2666 0.930 . S
H2684 C2674 0.931 . S
H2685 C2675 0.931 . S
H2686 C2676 0.930 . S
H2687 C2677 0.929 . S
Eu2688 N2717 2.600 . S
Eu2688 N2723 2.562 . S
Eu2688 O2732 2.462 . S
Eu2688 O2733 2.373 . S
Eu2688 O2735 2.432 . S
Eu2688 O2736 2.291 . S
Eu2688 O2740 2.335 . S
Eu2688 O2743 2.372 . S
Eu2688 C2752 2.787 . S
C2689 N2690 1.365 . S
C2689 C2692 1.405 . S
C2689 C2696 1.448 . S
N2690 C2689 1.365 . S
N2690 C2693 1.319 . S
N2690 Eu2699 2.600 . S
C2691 C2693 1.397 . S
C2691 C2694 1.367 . S
C2691 H2711 0.931 . S
C2692 C2689 1.405 . S
C2692 C2694 1.403 . S
C2692 C2698 1.439 . S
C2693 N2690 1.319 . S
C2693 C2691 1.397 . S
C2693 H2704 0.930 . S
C2694 C2691 1.367 . S
C2694 C2692 1.403 . S
C2694 H2715 0.929 . S
C2695 C2696 1.430 . S
C2695 C2697 1.387 . S
C2695 C2701 1.404 . S
C2696 C2689 1.448 . S
C2696 C2695 1.430 . S
C2696 N2700 1.351 . S
C2697 C2695 1.387 . S
C2697 C2698 1.374 . S
C2697 H2712 0.931 . S
C2698 C2692 1.439 . S
C2698 C2697 1.374 . S
C2698 H2713 0.931 . S
Eu2699 N2690 2.600 . S
Eu2699 N2700 2.562 . S
Eu2699 O2734 2.335 . S
Eu2699 O2737 2.372 . S
Eu2699 O2738 2.462 . S
Eu2699 O2739 2.373 . S
Eu2699 O2741 2.432 . S
Eu2699 O2742 2.291 . S
Eu2699 C2763 2.787 . S
N2700 C2696 1.351 . S
N2700 Eu2699 2.562 . S
N2700 C2702 1.325 . S
C2701 C2695 1.404 . S
C2701 C2703 1.366 . S
C2701 H2709 0.930 . S
C2702 N2700 1.325 . S
C2702 C2703 1.416 . S
C2702 H2708 0.929 . S
C2703 C2701 1.366 . S
C2703 C2702 1.416 . S
C2703 H2705 0.930 . S
H2704 C2693 0.930 . S
H2705 C2703 0.930 . S
H2706 C2721 0.930 . S
H2707 C2728 0.930 . S
H2708 C2702 0.929 . S
H2709 C2701 0.930 . S
H2710 C2724 0.929 . S
H2711 C2691 0.931 . S
H2712 C2697 0.931 . S
H2713 C2698 0.931 . S
H2714 C2719 0.931 . S
H2715 C2694 0.929 . S
H2716 C2727 0.930 . S
N2717 Eu2688 2.600 . S
N2717 C2718 1.365 . S
N2717 C2721 1.319 . S
C2718 N2717 1.365 . S
C2718 C2720 1.405 . S
C2718 C2726 1.448 . S
C2719 H2714 0.931 . S
C2719 C2721 1.397 . S
C2719 C2722 1.367 . S
C2720 C2718 1.405 . S
C2720 C2722 1.403 . S
C2720 C2753 1.439 . S
C2721 H2706 0.930 . S
C2721 N2717 1.319 . S
C2721 C2719 1.397 . S
C2722 C2719 1.367 . S
C2722 C2720 1.403 . S
C2722 H2729 0.929 . S
N2723 Eu2688 2.562 . S
N2723 C2724 1.325 . S
N2723 C2726 1.351 . S
C2724 H2710 0.929 . S
C2724 N2723 1.325 . S
C2724 C2728 1.416 . S
C2725 C2726 1.430 . S
C2725 C2727 1.404 . S
C2725 C2754 1.387 . S
C2726 C2718 1.448 . S
C2726 N2723 1.351 . S
C2726 C2725 1.430 . S
C2727 H2716 0.930 . S
C2727 C2725 1.404 . S
C2727 C2728 1.366 . S
C2728 H2707 0.930 . S
C2728 C2724 1.416 . S
C2728 C2727 1.366 . S
H2729 C2722 0.929 . S
H2730 C2753 0.931 . S
H2731 C2754 0.931 . S
O2732 Eu2688 2.462 . S
O2732 C2752 1.252 . S
O2733 Eu2688 2.373 . S
O2733 C2744 1.249 . S
O2734 Eu2699 2.335 . S
O2734 C2744 1.264 . S
O2735 Eu2688 2.432 . S
O2735 C2752 1.268 . S
O2736 Eu2688 2.291 . S
O2736 C2751 1.255 . S
O2737 Eu2699 2.372 . S
O2737 C2751 1.257 . S
O2738 Eu2699 2.462 . S
O2738 C2763 1.252 . S
O2739 Eu2699 2.373 . S
O2739 C2755 1.249 . S
O2740 Eu2688 2.335 . S
O2740 C2755 1.264 . S
O2741 Eu2699 2.432 . S
O2741 C2763 1.268 . S
O2742 Eu2699 2.291 . S
O2742 C2762 1.255 . S
O2743 Eu2688 2.372 . S
O2743 C2762 1.257 . S
C2744 O2733 1.249 . S
C2744 O2734 1.264 . S
C2745 C2748 1.382 . S
C2745 C2750 1.390 . S
C2745 C2752 1.506 . S
C2746 C2747 1.398 . S
C2746 C2750 1.392 . S
C2747 C2746 1.398 . S
C2747 C2749 1.372 . S
C2747 H2764 0.931 . S
C2748 C2745 1.382 . S
C2748 C2749 1.390 . S
C2748 H2765 0.931 . S
C2749 C2747 1.372 . S
C2749 C2748 1.390 . S
C2749 H2766 0.929 . S
C2750 C2745 1.390 . S
C2750 C2746 1.392 . S
C2750 H2767 0.930 . S
C2751 O2736 1.255 . S
C2751 O2737 1.257 . S
C2752 Eu2688 2.787 . S
C2752 O2732 1.252 . S
C2752 O2735 1.268 . S
C2752 C2745 1.506 . S
C2753 C2720 1.439 . S
C2753 H2730 0.931 . S
C2753 C2754 1.374 . S
C2754 C2725 1.387 . S
C2754 H2731 0.931 . S
C2754 C2753 1.374 . S
C2755 O2739 1.249 . S
C2755 O2740 1.264 . S
C2756 C2759 1.382 . S
C2756 C2760 1.390 . S
C2756 C2763 1.506 . S
C2757 C2758 1.398 . S
C2757 C2760 1.392 . S
C2758 C2757 1.398 . S
C2758 C2761 1.372 . S
C2758 H2768 0.931 . S
C2759 C2756 1.382 . S
C2759 C2761 1.390 . S
C2759 H2769 0.931 . S
C2760 C2756 1.390 . S
C2760 C2757 1.392 . S
C2760 H2770 0.930 . S
C2761 C2758 1.372 . S
C2761 C2759 1.390 . S
C2761 H2771 0.929 . S
C2762 O2742 1.255 . S
C2762 O2743 1.257 . S
C2763 Eu2699 2.787 . S
C2763 O2738 1.252 . S
C2763 O2741 1.268 . S
C2763 C2756 1.506 . S
H2764 C2747 0.931 . S
H2765 C2748 0.931 . S
H2766 C2749 0.929 . S
H2767 C2750 0.930 . S
H2768 C2758 0.931 . S
H2769 C2759 0.931 . S
H2770 C2760 0.930 . S
H2771 C2761 0.929 . S
Eu2772 N2801 2.600 . S
Eu2772 N2807 2.562 1_554 S
Eu2772 O2816 2.462 . S
Eu2772 O2817 2.373 1_554 S
Eu2772 O2819 2.432 . S
Eu2772 O2820 2.291 1_554 S
Eu2772 O2824 2.335 . S
Eu2772 O2827 2.372 . S
Eu2772 C2836 2.787 . S
C2773 N2774 1.365 . S
C2773 C2776 1.405 . S
C2773 C2780 1.448 . S
N2774 C2773 1.365 . S
N2774 C2777 1.319 . S
N2774 Eu2783 2.600 . S
C2775 C2777 1.397 . S
C2775 C2778 1.367 . S
C2775 H2795 0.931 . S
C2776 C2773 1.405 . S
C2776 C2778 1.403 . S
C2776 C2782 1.439 . S
C2777 N2774 1.319 . S
C2777 C2775 1.397 . S
C2777 H2788 0.930 . S
C2778 C2775 1.367 . S
C2778 C2776 1.403 . S
C2778 H2799 0.929 . S
C2779 C2780 1.430 . S
C2779 C2781 1.387 . S
C2779 C2785 1.404 . S
C2780 C2773 1.448 . S
C2780 C2779 1.430 . S
C2780 N2784 1.351 . S
C2781 C2779 1.387 . S
C2781 C2782 1.374 . S
C2781 H2796 0.931 . S
C2782 C2776 1.439 . S
C2782 C2781 1.374 . S
C2782 H2797 0.931 . S
Eu2783 N2774 2.600 . S
Eu2783 N2784 2.562 . S
Eu2783 O2818 2.335 . S
Eu2783 O2821 2.372 . S
Eu2783 O2822 2.462 . S
Eu2783 O2823 2.373 . S
Eu2783 O2825 2.432 . S
Eu2783 O2826 2.291 . S
Eu2783 C2847 2.787 . S
N2784 C2780 1.351 . S
N2784 Eu2783 2.562 . S
N2784 C2786 1.325 . S
C2785 C2779 1.404 . S
C2785 C2787 1.366 . S
C2785 H2793 0.930 . S
C2786 N2784 1.325 . S
C2786 C2787 1.416 . S
C2786 H2792 0.929 . S
C2787 C2785 1.366 . S
C2787 C2786 1.416 . S
C2787 H2789 0.930 1_556 S
H2788 C2777 0.930 . S
H2789 C2787 0.930 1_554 S
H2790 C2805 0.930 . S
H2791 C2812 0.930 . S
H2792 C2786 0.929 . S
H2793 C2785 0.930 . S
H2794 C2808 0.929 . S
H2795 C2775 0.931 . S
H2796 C2781 0.931 . S
H2797 C2782 0.931 . S
H2798 C2803 0.931 . S
H2799 C2778 0.929 . S
H2800 C2811 0.930 . S
N2801 Eu2772 2.600 . S
N2801 C2802 1.365 . S
N2801 C2805 1.319 . S
C2802 N2801 1.365 . S
C2802 C2804 1.405 . S
C2802 C2810 1.448 . S
C2803 H2798 0.931 . S
C2803 C2805 1.397 . S
C2803 C2806 1.367 . S
C2804 C2802 1.405 . S
C2804 C2806 1.403 . S
C2804 C2837 1.439 . S
C2805 H2790 0.930 . S
C2805 N2801 1.319 . S
C2805 C2803 1.397 . S
C2806 C2803 1.367 . S
C2806 C2804 1.403 . S
C2806 H2813 0.929 1_455 S
N2807 Eu2772 2.562 1_556 S
N2807 C2808 1.325 . S
N2807 C2810 1.351 1_556 S
C2808 H2794 0.929 . S
C2808 N2807 1.325 . S
C2808 C2812 1.416 . S
C2809 C2810 1.430 1_556 S
C2809 C2811 1.404 . S
C2809 C2838 1.387 1_556 S
C2810 C2802 1.448 . S
C2810 N2807 1.351 1_554 S
C2810 C2809 1.430 1_554 S
C2811 H2800 0.930 . S
C2811 C2809 1.404 . S
C2811 C2812 1.366 . S
C2812 H2791 0.930 . S
C2812 C2808 1.416 . S
C2812 C2811 1.366 . S
H2813 C2806 0.929 1_655 S
H2814 C2837 0.931 . S
H2815 C2838 0.930 1_556 S
O2816 Eu2772 2.462 . S
O2816 C2836 1.252 . S
O2817 Eu2772 2.373 1_556 S
O2817 C2828 1.249 . S
O2818 Eu2783 2.335 . S
O2818 C2828 1.264 . S
O2819 Eu2772 2.432 . S
O2819 C2836 1.268 . S
O2820 Eu2772 2.291 1_556 S
O2820 C2835 1.255 . S
O2821 Eu2783 2.372 . S
O2821 C2835 1.257 . S
O2822 Eu2783 2.462 . S
O2822 C2847 1.252 . S
O2823 Eu2783 2.373 . S
O2823 C2839 1.249 1_556 S
O2824 Eu2772 2.335 . S
O2824 C2839 1.264 . S
O2825 Eu2783 2.432 . S
O2825 C2847 1.268 . S
O2826 Eu2783 2.291 . S
O2826 C2846 1.255 1_556 S
O2827 Eu2772 2.372 . S
O2827 C2846 1.257 . S
C2828 O2817 1.249 . S
C2828 O2818 1.264 . S
C2829 C2832 1.382 . S
C2829 C2834 1.390 . S
C2829 C2836 1.506 . S
C2830 C2831 1.398 . S
C2830 C2834 1.392 . S
C2831 C2830 1.398 . S
C2831 C2833 1.372 . S
C2831 H2848 0.931 . S
C2832 C2829 1.382 . S
C2832 C2833 1.390 . S
C2832 H2849 0.931 . S
C2833 C2831 1.372 . S
C2833 C2832 1.390 . S
C2833 H2850 0.929 . S
C2834 C2829 1.390 . S
C2834 C2830 1.392 . S
C2834 H2851 0.930 . S
C2835 O2820 1.255 . S
C2835 O2821 1.257 . S
C2836 Eu2772 2.787 . S
C2836 O2816 1.252 . S
C2836 O2819 1.268 . S
C2836 C2829 1.506 . S
C2837 C2804 1.439 . S
C2837 H2814 0.931 . S
C2837 C2838 1.375 . S
C2838 C2809 1.387 1_554 S
C2838 H2815 0.930 1_554 S
C2838 C2837 1.375 . S
C2839 O2823 1.249 1_554 S
C2839 O2824 1.264 . S
C2840 C2843 1.382 . S
C2840 C2844 1.390 . S
C2840 C2847 1.506 . S
C2841 C2842 1.398 . S
C2841 C2844 1.392 . S
C2842 C2841 1.398 . S
C2842 C2845 1.372 . S
C2842 H2852 0.931 . S
C2843 C2840 1.382 . S
C2843 C2845 1.390 . S
C2843 H2853 0.931 . S
C2844 C2840 1.390 . S
C2844 C2841 1.392 . S
C2844 H2854 0.930 . S
C2845 C2842 1.372 . S
C2845 C2843 1.390 . S
C2845 H2855 0.929 . S
C2846 O2826 1.255 1_554 S
C2846 O2827 1.257 . S
C2847 Eu2783 2.787 . S
C2847 O2822 1.252 . S
C2847 O2825 1.268 . S
C2847 C2840 1.506 . S
H2848 C2831 0.931 . S
H2849 C2832 0.931 . S
H2850 C2833 0.929 . S
H2851 C2834 0.930 . S
H2852 C2842 0.931 . S
H2853 C2843 0.931 . S
H2854 C2844 0.930 . S
H2855 C2845 0.929 . S
Eu2856 N2885 2.600 . S
Eu2856 N2891 2.562 . S
Eu2856 O2900 2.462 . S
Eu2856 O2901 2.373 . S
Eu2856 O2903 2.432 . S
Eu2856 O2904 2.291 . S
Eu2856 O2908 2.335 . S
Eu2856 O2911 2.372 . S
Eu2856 C2920 2.787 . S
C2857 N2858 1.365 . S
C2857 C2860 1.405 . S
C2857 C2864 1.448 . S
N2858 C2857 1.365 . S
N2858 C2861 1.319 . S
N2858 Eu2867 2.600 . S
C2859 C2861 1.397 . S
C2859 C2862 1.367 . S
C2859 H2879 0.931 . S
C2860 C2857 1.405 . S
C2860 C2862 1.403 . S
C2860 C2866 1.439 . S
C2861 N2858 1.319 . S
C2861 C2859 1.397 . S
C2861 H2872 0.930 . S
C2862 C2859 1.367 . S
C2862 C2860 1.403 . S
C2862 H2883 0.929 . S
C2863 C2864 1.430 . S
C2863 C2865 1.387 . S
C2863 C2869 1.404 . S
C2864 C2857 1.448 . S
C2864 C2863 1.430 . S
C2864 N2868 1.351 . S
C2865 C2863 1.387 . S
C2865 C2866 1.374 . S
C2865 H2880 0.931 . S
C2866 C2860 1.439 . S
C2866 C2865 1.374 . S
C2866 H2881 0.931 . S
Eu2867 N2858 2.600 . S
Eu2867 N2868 2.562 . S
Eu2867 O2902 2.335 . S
Eu2867 O2905 2.372 . S
Eu2867 O2906 2.462 . S
Eu2867 O2907 2.373 . S
Eu2867 O2909 2.432 . S
Eu2867 O2910 2.291 . S
Eu2867 C2931 2.787 . S
N2868 C2864 1.351 . S
N2868 Eu2867 2.562 . S
N2868 C2870 1.325 . S
C2869 C2863 1.404 . S
C2869 C2871 1.366 . S
C2869 H2877 0.930 . S
C2870 N2868 1.325 . S
C2870 C2871 1.416 . S
C2870 H2876 0.929 . S
C2871 C2869 1.366 . S
C2871 C2870 1.416 . S
C2871 H2873 0.930 . S
H2872 C2861 0.930 . S
H2873 C2871 0.930 . S
H2874 C2889 0.930 . S
H2875 C2896 0.930 . S
H2876 C2870 0.929 . S
H2877 C2869 0.930 . S
H2878 C2892 0.929 . S
H2879 C2859 0.931 . S
H2880 C2865 0.931 . S
H2881 C2866 0.931 . S
H2882 C2887 0.931 . S
H2883 C2862 0.929 . S
H2884 C2895 0.930 . S
N2885 Eu2856 2.600 . S
N2885 C2886 1.365 . S
N2885 C2889 1.319 . S
C2886 N2885 1.365 . S
C2886 C2888 1.405 . S
C2886 C2894 1.448 . S
C2887 H2882 0.931 . S
C2887 C2889 1.397 . S
C2887 C2890 1.367 . S
C2888 C2886 1.405 . S
C2888 C2890 1.403 . S
C2888 C2921 1.439 . S
C2889 H2874 0.930 . S
C2889 N2885 1.319 . S
C2889 C2887 1.397 . S
C2890 C2887 1.367 . S
C2890 C2888 1.403 . S
C2890 H2897 0.929 . S
N2891 Eu2856 2.562 . S
N2891 C2892 1.325 . S
N2891 C2894 1.351 . S
C2892 H2878 0.929 . S
C2892 N2891 1.325 . S
C2892 C2896 1.416 . S
C2893 C2894 1.430 . S
C2893 C2895 1.404 . S
C2893 C2922 1.387 . S
C2894 C2886 1.448 . S
C2894 N2891 1.351 . S
C2894 C2893 1.430 . S
C2895 H2884 0.930 . S
C2895 C2893 1.404 . S
C2895 C2896 1.366 . S
C2896 H2875 0.930 . S
C2896 C2892 1.416 . S
C2896 C2895 1.366 . S
H2897 C2890 0.929 . S
H2898 C2921 0.931 . S
H2899 C2922 0.931 . S
O2900 Eu2856 2.462 . S
O2900 C2920 1.252 . S
O2901 Eu2856 2.373 . S
O2901 C2912 1.249 . S
O2902 Eu2867 2.335 . S
O2902 C2912 1.264 . S
O2903 Eu2856 2.432 . S
O2903 C2920 1.268 . S
O2904 Eu2856 2.291 . S
O2904 C2919 1.255 . S
O2905 Eu2867 2.372 . S
O2905 C2919 1.257 . S
O2906 Eu2867 2.462 . S
O2906 C2931 1.252 . S
O2907 Eu2867 2.373 . S
O2907 C2923 1.249 . S
O2908 Eu2856 2.335 . S
O2908 C2923 1.264 . S
O2909 Eu2867 2.432 . S
O2909 C2931 1.268 . S
O2910 Eu2867 2.291 . S
O2910 C2930 1.255 . S
O2911 Eu2856 2.372 . S
O2911 C2930 1.257 . S
C2912 O2901 1.249 . S
C2912 O2902 1.264 . S
C2913 C2916 1.382 . S
C2913 C2918 1.390 . S
C2913 C2920 1.506 . S
C2914 C2915 1.398 . S
C2914 C2918 1.392 . S
C2915 C2914 1.398 . S
C2915 C2917 1.372 . S
C2915 H2932 0.931 . S
C2916 C2913 1.382 . S
C2916 C2917 1.390 . S
C2916 H2933 0.931 . S
C2917 C2915 1.372 . S
C2917 C2916 1.390 . S
C2917 H2934 0.929 . S
C2918 C2913 1.390 . S
C2918 C2914 1.392 . S
C2918 H2935 0.930 . S
C2919 O2904 1.255 . S
C2919 O2905 1.257 . S
C2920 Eu2856 2.787 . S
C2920 O2900 1.252 . S
C2920 O2903 1.268 . S
C2920 C2913 1.506 . S
C2921 C2888 1.439 . S
C2921 H2898 0.931 . S
C2921 C2922 1.374 . S
C2922 C2893 1.387 . S
C2922 H2899 0.931 . S
C2922 C2921 1.374 . S
C2923 O2907 1.249 . S
C2923 O2908 1.264 . S
C2924 C2927 1.382 . S
C2924 C2928 1.390 . S
C2924 C2931 1.506 . S
C2925 C2926 1.398 . S
C2925 C2928 1.392 . S
C2926 C2925 1.398 . S
C2926 C2929 1.372 . S
C2926 H2936 0.931 . S
C2927 C2924 1.382 . S
C2927 C2929 1.390 . S
C2927 H2937 0.931 . S
C2928 C2924 1.390 . S
C2928 C2925 1.392 . S
C2928 H2938 0.930 . S
C2929 C2926 1.372 . S
C2929 C2927 1.390 . S
C2929 H2939 0.929 . S
C2930 O2910 1.255 . S
C2930 O2911 1.257 . S
C2931 Eu2867 2.787 . S
C2931 O2906 1.252 . S
C2931 O2909 1.268 . S
C2931 C2924 1.506 . S
H2932 C2915 0.931 . S
H2933 C2916 0.931 . S
H2934 C2917 0.929 . S
H2935 C2918 0.930 . S
H2936 C2926 0.931 . S
H2937 C2927 0.931 . S
H2938 C2928 0.930 . S
H2939 C2929 0.929 . S
Eu2940 N2969 2.600 . S
Eu2940 N2975 2.562 . S
Eu2940 O2984 2.462 . S
Eu2940 O2985 2.373 . S
Eu2940 O2987 2.432 . S
Eu2940 O2988 2.291 . S
Eu2940 O2992 2.335 . S
Eu2940 O2995 2.372 . S
Eu2940 C3004 2.787 . S
C2941 N2942 1.365 . S
C2941 C2944 1.405 . S
C2941 C2948 1.448 . S
N2942 C2941 1.365 . S
N2942 C2945 1.319 . S
N2942 Eu2951 2.600 . S
C2943 C2945 1.397 . S
C2943 C2946 1.367 . S
C2943 H2963 0.931 . S
C2944 C2941 1.405 . S
C2944 C2946 1.403 . S
C2944 C2950 1.439 . S
C2945 N2942 1.319 . S
C2945 C2943 1.397 . S
C2945 H2956 0.930 . S
C2946 C2943 1.367 . S
C2946 C2944 1.403 . S
C2946 H2967 0.929 . S
C2947 C2948 1.430 . S
C2947 C2949 1.387 . S
C2947 C2953 1.404 . S
C2948 C2941 1.448 . S
C2948 C2947 1.430 . S
C2948 N2952 1.351 . S
C2949 C2947 1.387 . S
C2949 C2950 1.374 . S
C2949 H2964 0.931 . S
C2950 C2944 1.439 . S
C2950 C2949 1.374 . S
C2950 H2965 0.931 . S
Eu2951 N2942 2.600 . S
Eu2951 N2952 2.562 . S
Eu2951 O2986 2.335 . S
Eu2951 O2989 2.372 . S
Eu2951 O2990 2.462 . S
Eu2951 O2991 2.373 . S
Eu2951 O2993 2.432 . S
Eu2951 O2994 2.291 . S
Eu2951 C3015 2.787 . S
N2952 C2948 1.351 . S
N2952 Eu2951 2.562 . S
N2952 C2954 1.325 . S
C2953 C2947 1.404 . S
C2953 C2955 1.366 . S
C2953 H2961 0.930 . S
C2954 N2952 1.325 . S
C2954 C2955 1.416 . S
C2954 H2960 0.929 . S
C2955 C2953 1.366 . S
C2955 C2954 1.416 . S
C2955 H2957 0.930 . S
H2956 C2945 0.930 . S
H2957 C2955 0.930 . S
H2958 C2973 0.930 . S
H2959 C2980 0.930 . S
H2960 C2954 0.929 . S
H2961 C2953 0.930 . S
H2962 C2976 0.929 . S
H2963 C2943 0.931 . S
H2964 C2949 0.931 . S
H2965 C2950 0.931 . S
H2966 C2971 0.931 . S
H2967 C2946 0.929 . S
H2968 C2979 0.930 . S
N2969 Eu2940 2.600 . S
N2969 C2970 1.365 . S
N2969 C2973 1.319 . S
C2970 N2969 1.365 . S
C2970 C2972 1.405 . S
C2970 C2978 1.448 . S
C2971 H2966 0.931 . S
C2971 C2973 1.397 . S
C2971 C2974 1.367 . S
C2972 C2970 1.405 . S
C2972 C2974 1.403 . S
C2972 C3005 1.439 . S
C2973 H2958 0.930 . S
C2973 N2969 1.319 . S
C2973 C2971 1.397 . S
C2974 C2971 1.367 . S
C2974 C2972 1.403 . S
C2974 H2981 0.929 . S
N2975 Eu2940 2.562 . S
N2975 C2976 1.325 . S
N2975 C2978 1.351 . S
C2976 H2962 0.929 . S
C2976 N2975 1.325 . S
C2976 C2980 1.416 . S
C2977 C2978 1.430 . S
C2977 C2979 1.404 . S
C2977 C3006 1.387 . S
C2978 C2970 1.448 . S
C2978 N2975 1.351 . S
C2978 C2977 1.430 . S
C2979 H2968 0.930 . S
C2979 C2977 1.404 . S
C2979 C2980 1.366 . S
C2980 H2959 0.930 . S
C2980 C2976 1.416 . S
C2980 C2979 1.366 . S
H2981 C2974 0.929 . S
H2982 C3005 0.931 . S
H2983 C3006 0.931 . S
O2984 Eu2940 2.462 . S
O2984 C3004 1.252 . S
O2985 Eu2940 2.373 . S
O2985 C2996 1.249 . S
O2986 Eu2951 2.335 . S
O2986 C2996 1.264 . S
O2987 Eu2940 2.432 . S
O2987 C3004 1.268 . S
O2988 Eu2940 2.291 . S
O2988 C3003 1.255 . S
O2989 Eu2951 2.372 . S
O2989 C3003 1.257 . S
O2990 Eu2951 2.462 . S
O2990 C3015 1.252 . S
O2991 Eu2951 2.373 . S
O2991 C3007 1.249 . S
O2992 Eu2940 2.335 . S
O2992 C3007 1.264 . S
O2993 Eu2951 2.432 . S
O2993 C3015 1.268 . S
O2994 Eu2951 2.291 . S
O2994 C3014 1.255 . S
O2995 Eu2940 2.372 . S
O2995 C3014 1.257 . S
C2996 O2985 1.249 . S
C2996 O2986 1.264 . S
C2997 C3000 1.382 . S
C2997 C3002 1.390 . S
C2997 C3004 1.506 . S
C2998 C2999 1.398 . S
C2998 C3002 1.392 . S
C2999 C2998 1.398 . S
C2999 C3001 1.372 . S
C2999 H3016 0.931 . S
C3000 C2997 1.382 . S
C3000 C3001 1.390 . S
C3000 H3017 0.931 . S
C3001 C2999 1.372 . S
C3001 C3000 1.390 . S
C3001 H3018 0.929 . S
C3002 C2997 1.390 . S
C3002 C2998 1.392 . S
C3002 H3019 0.930 . S
C3003 O2988 1.255 . S
C3003 O2989 1.257 . S
C3004 Eu2940 2.787 . S
C3004 O2984 1.252 . S
C3004 O2987 1.268 . S
C3004 C2997 1.506 . S
C3005 C2972 1.439 . S
C3005 H2982 0.931 . S
C3005 C3006 1.374 . S
C3006 C2977 1.387 . S
C3006 H2983 0.931 . S
C3006 C3005 1.374 . S
C3007 O2991 1.249 . S
C3007 O2992 1.264 . S
C3008 C3011 1.382 . S
C3008 C3012 1.390 . S
C3008 C3015 1.506 . S
C3009 C3010 1.398 . S
C3009 C3012 1.392 . S
C3010 C3009 1.398 . S
C3010 C3013 1.372 . S
C3010 H3020 0.931 . S
C3011 C3008 1.382 . S
C3011 C3013 1.390 . S
C3011 H3021 0.931 . S
C3012 C3008 1.390 . S
C3012 C3009 1.392 . S
C3012 H3022 0.930 . S
C3013 C3010 1.372 . S
C3013 C3011 1.390 . S
C3013 H3023 0.929 . S
C3014 O2994 1.255 . S
C3014 O2995 1.257 . S
C3015 Eu2951 2.787 . S
C3015 O2990 1.252 . S
C3015 O2993 1.268 . S
C3015 C3008 1.506 . S
H3016 C2999 0.931 . S
H3017 C3000 0.931 . S
H3018 C3001 0.929 . S
H3019 C3002 0.930 . S
H3020 C3010 0.931 . S
H3021 C3011 0.931 . S
H3022 C3012 0.930 . S
H3023 C3013 0.929 . S
Eu3024 N3053 2.600 . S
Eu3024 N3059 2.562 . S
Eu3024 O3068 2.462 . S
Eu3024 O3069 2.373 . S
Eu3024 O3071 2.432 . S
Eu3024 O3072 2.291 . S
Eu3024 O3076 2.335 . S
Eu3024 O3079 2.372 . S
Eu3024 C3088 2.787 . S
C3025 N3026 1.365 . S
C3025 C3028 1.405 . S
C3025 C3032 1.448 . S
N3026 C3025 1.365 . S
N3026 C3029 1.319 . S
N3026 Eu3035 2.600 . S
C3027 C3029 1.397 . S
C3027 C3030 1.367 . S
C3027 H3047 0.931 . S
C3028 C3025 1.405 . S
C3028 C3030 1.403 . S
C3028 C3034 1.439 . S
C3029 N3026 1.319 . S
C3029 C3027 1.397 . S
C3029 H3040 0.930 . S
C3030 C3027 1.367 . S
C3030 C3028 1.403 . S
C3030 H3051 0.929 . S
C3031 C3032 1.430 . S
C3031 C3033 1.387 . S
C3031 C3037 1.404 . S
C3032 C3025 1.448 . S
C3032 C3031 1.430 . S
C3032 N3036 1.351 . S
C3033 C3031 1.387 . S
C3033 C3034 1.374 . S
C3033 H3048 0.931 . S
C3034 C3028 1.439 . S
C3034 C3033 1.374 . S
C3034 H3049 0.931 . S
Eu3035 N3026 2.600 . S
Eu3035 N3036 2.562 . S
Eu3035 O3070 2.335 . S
Eu3035 O3073 2.372 . S
Eu3035 O3074 2.462 . S
Eu3035 O3075 2.373 . S
Eu3035 O3077 2.432 . S
Eu3035 O3078 2.291 . S
Eu3035 C3099 2.787 . S
N3036 C3032 1.351 . S
N3036 Eu3035 2.562 . S
N3036 C3038 1.325 . S
C3037 C3031 1.404 . S
C3037 C3039 1.366 . S
C3037 H3045 0.930 . S
C3038 N3036 1.325 . S
C3038 C3039 1.416 . S
C3038 H3044 0.929 . S
C3039 C3037 1.366 . S
C3039 C3038 1.416 . S
C3039 H3041 0.930 . S
H3040 C3029 0.930 . S
H3041 C3039 0.930 . S
H3042 C3057 0.930 . S
H3043 C3064 0.930 . S
H3044 C3038 0.929 . S
H3045 C3037 0.930 . S
H3046 C3060 0.929 . S
H3047 C3027 0.931 . S
H3048 C3033 0.931 . S
H3049 C3034 0.931 . S
H3050 C3055 0.931 . S
H3051 C3030 0.929 . S
H3052 C3063 0.930 . S
N3053 Eu3024 2.600 . S
N3053 C3054 1.365 . S
N3053 C3057 1.319 . S
C3054 N3053 1.365 . S
C3054 C3056 1.405 . S
C3054 C3062 1.448 . S
C3055 H3050 0.931 . S
C3055 C3057 1.397 . S
C3055 C3058 1.367 . S
C3056 C3054 1.405 . S
C3056 C3058 1.403 . S
C3056 C3089 1.439 . S
C3057 H3042 0.930 . S
C3057 N3053 1.319 . S
C3057 C3055 1.397 . S
C3058 C3055 1.367 . S
C3058 C3056 1.403 . S
C3058 H3065 0.970 . S
N3059 Eu3024 2.562 . S
N3059 C3060 1.325 . S
N3059 C3062 1.351 . S
C3060 H3046 0.929 . S
C3060 N3059 1.325 . S
C3060 C3064 1.416 . S
C3061 C3062 1.430 . S
C3061 C3063 1.404 . S
C3061 C3090 1.387 . S
C3062 C3054 1.448 . S
C3062 N3059 1.351 . S
C3062 C3061 1.430 . S
C3063 H3052 0.930 . S
C3063 C3061 1.404 . S
C3063 C3064 1.366 . S
C3064 H3043 0.930 . S
C3064 C3060 1.416 . S
C3064 C3063 1.366 . S
H3065 C3058 0.970 . S
H3066 C3089 0.931 . S
H3067 C3090 0.931 . S
O3068 Eu3024 2.462 . S
O3068 C3088 1.252 . S
O3069 Eu3024 2.373 . S
O3069 C3080 1.249 . S
O3070 Eu3035 2.335 . S
O3070 C3080 1.264 . S
O3071 Eu3024 2.432 . S
O3071 C3088 1.268 . S
O3072 Eu3024 2.291 . S
O3072 C3087 1.255 . S
O3073 Eu3035 2.372 . S
O3073 C3087 1.257 . S
O3074 Eu3035 2.462 . S
O3074 C3099 1.252 . S
O3075 Eu3035 2.373 . S
O3075 C3091 1.249 . S
O3076 Eu3024 2.335 . S
O3076 C3091 1.264 . S
O3077 Eu3035 2.432 . S
O3077 C3099 1.268 . S
O3078 Eu3035 2.291 . S
O3078 C3098 1.255 . S
O3079 Eu3024 2.372 . S
O3079 C3098 1.257 . S
C3080 O3069 1.249 . S
C3080 O3070 1.264 . S
C3081 C3084 1.382 . S
C3081 C3086 1.390 . S
C3081 C3088 1.506 . S
C3082 C3083 1.398 . S
C3082 C3086 1.392 . S
C3083 C3082 1.398 . S
C3083 C3085 1.372 . S
C3083 H3100 0.931 . S
C3084 C3081 1.382 . S
C3084 C3085 1.390 . S
C3084 H3101 0.931 . S
C3085 C3083 1.372 . S
C3085 C3084 1.390 . S
C3085 H3102 0.929 . S
C3086 C3081 1.390 . S
C3086 C3082 1.392 . S
C3086 H3103 0.930 . S
C3087 O3072 1.255 . S
C3087 O3073 1.257 . S
C3088 Eu3024 2.787 . S
C3088 O3068 1.252 . S
C3088 O3071 1.268 . S
C3088 C3081 1.506 . S
C3089 C3056 1.439 . S
C3089 H3066 0.931 . S
C3089 C3090 1.374 . S
C3090 C3061 1.387 . S
C3090 H3067 0.931 . S
C3090 C3089 1.374 . S
C3091 O3075 1.249 . S
C3091 O3076 1.264 . S
C3092 C3095 1.382 . S
C3092 C3096 1.390 . S
C3092 C3099 1.506 . S
C3093 C3094 1.398 . S
C3093 C3096 1.392 . S
C3094 C3093 1.398 . S
C3094 C3097 1.372 . S
C3094 H3104 0.931 . S
C3095 C3092 1.382 . S
C3095 C3097 1.390 . S
C3095 H3105 0.931 . S
C3096 C3092 1.390 . S
C3096 C3093 1.392 . S
C3096 H3106 0.930 . S
C3097 C3094 1.372 . S
C3097 C3095 1.390 . S
C3097 H3107 0.929 . S
C3098 O3078 1.255 . S
C3098 O3079 1.257 . S
C3099 Eu3035 2.787 . S
C3099 O3074 1.252 . S
C3099 O3077 1.268 . S
C3099 C3092 1.506 . S
H3100 C3083 0.931 . S
H3101 C3084 0.931 . S
H3102 C3085 0.929 . S
H3103 C3086 0.930 . S
H3104 C3094 0.931 . S
H3105 C3095 0.931 . S
H3106 C3096 0.930 . S
H3107 C3097 0.929 . S
Eu3108 N3137 2.600 . S
Eu3108 N3143 2.562 . S
Eu3108 O3152 2.462 . S
Eu3108 O3153 2.373 . S
Eu3108 O3155 2.432 . S
Eu3108 O3156 2.291 . S
Eu3108 O3160 2.335 . S
Eu3108 O3163 2.372 . S
Eu3108 C3172 2.787 . S
C3109 N3110 1.365 . S
C3109 C3112 1.405 . S
C3109 C3116 1.448 . S
N3110 C3109 1.365 . S
N3110 C3113 1.319 . S
N3110 Eu3119 2.600 . S
C3111 C3113 1.397 . S
C3111 C3114 1.367 . S
C3111 H3131 0.931 . S
C3112 C3109 1.405 . S
C3112 C3114 1.403 . S
C3112 C3118 1.439 . S
C3113 N3110 1.319 . S
C3113 C3111 1.397 . S
C3113 H3124 0.930 . S
C3114 C3111 1.367 . S
C3114 C3112 1.403 . S
C3114 H3135 0.929 . S
C3115 C3116 1.430 . S
C3115 C3117 1.387 . S
C3115 C3121 1.404 . S
C3116 C3109 1.448 . S
C3116 C3115 1.430 . S
C3116 N3120 1.351 . S
C3117 C3115 1.387 . S
C3117 C3118 1.374 . S
C3117 H3132 0.931 . S
C3118 C3112 1.439 . S
C3118 C3117 1.374 . S
C3118 H3133 0.931 . S
Eu3119 N3110 2.600 . S
Eu3119 N3120 2.562 . S
Eu3119 O3154 2.335 . S
Eu3119 O3157 2.372 . S
Eu3119 O3158 2.462 . S
Eu3119 O3159 2.373 . S
Eu3119 O3161 2.432 . S
Eu3119 O3162 2.291 . S
Eu3119 C3183 2.787 . S
N3120 C3116 1.351 . S
N3120 Eu3119 2.562 . S
N3120 C3122 1.325 . S
C3121 C3115 1.404 . S
C3121 C3123 1.366 . S
C3121 H3129 0.930 . S
C3122 N3120 1.325 . S
C3122 C3123 1.416 . S
C3122 H3128 0.929 . S
C3123 C3121 1.366 . S
C3123 C3122 1.416 . S
C3123 H3125 0.930 . S
H3124 C3113 0.930 . S
H3125 C3123 0.930 . S
H3126 C3141 0.930 . S
H3127 C3148 0.930 . S
H3128 C3122 0.929 . S
H3129 C3121 0.930 . S
H3130 C3144 0.929 . S
H3131 C3111 0.931 . S
H3132 C3117 0.931 . S
H3133 C3118 0.931 . S
H3134 C3139 0.931 . S
H3135 C3114 0.929 . S
H3136 C3147 0.930 . S
N3137 Eu3108 2.600 . S
N3137 C3138 1.365 . S
N3137 C3141 1.319 . S
C3138 N3137 1.365 . S
C3138 C3140 1.405 . S
C3138 C3146 1.448 . S
C3139 H3134 0.931 . S
C3139 C3141 1.397 . S
C3139 C3142 1.367 . S
C3140 C3138 1.405 . S
C3140 C3142 1.403 . S
C3140 C3173 1.439 . S
C3141 H3126 0.930 . S
C3141 N3137 1.319 . S
C3141 C3139 1.397 . S
C3142 C3139 1.367 . S
C3142 C3140 1.403 . S
C3142 H3149 0.929 . S
N3143 Eu3108 2.562 . S
N3143 C3144 1.325 . S
N3143 C3146 1.351 . S
C3144 H3130 0.929 . S
C3144 N3143 1.325 . S
C3144 C3148 1.416 . S
C3145 C3146 1.430 . S
C3145 C3147 1.404 . S
C3145 C3174 1.387 . S
C3146 C3138 1.448 . S
C3146 N3143 1.351 . S
C3146 C3145 1.430 . S
C3147 H3136 0.930 . S
C3147 C3145 1.404 . S
C3147 C3148 1.366 . S
C3148 H3127 0.930 . S
C3148 C3144 1.416 . S
C3148 C3147 1.366 . S
H3149 C3142 0.929 . S
H3150 C3173 0.931 . S
H3151 C3174 0.931 . S
O3152 Eu3108 2.462 . S
O3152 C3172 1.252 . S
O3153 Eu3108 2.373 . S
O3153 C3164 1.249 . S
O3154 Eu3119 2.335 . S
O3154 C3164 1.264 . S
O3155 Eu3108 2.432 . S
O3155 C3172 1.268 . S
O3156 Eu3108 2.291 . S
O3156 C3171 1.255 . S
O3157 Eu3119 2.372 . S
O3157 C3171 1.257 . S
O3158 Eu3119 2.462 . S
O3158 C3183 1.252 . S
O3159 Eu3119 2.373 . S
O3159 C3175 1.249 . S
O3160 Eu3108 2.335 . S
O3160 C3175 1.264 . S
O3161 Eu3119 2.432 . S
O3161 C3183 1.268 . S
O3162 Eu3119 2.291 . S
O3162 C3182 1.255 . S
O3163 Eu3108 2.372 . S
O3163 C3182 1.257 . S
C3164 O3153 1.249 . S
C3164 O3154 1.264 . S
C3165 C3168 1.382 . S
C3165 C3170 1.390 . S
C3165 C3172 1.506 . S
C3166 C3167 1.398 . S
C3166 C3170 1.392 . S
C3167 C3166 1.398 . S
C3167 C3169 1.372 . S
C3167 H3184 0.931 . S
C3168 C3165 1.382 . S
C3168 C3169 1.390 . S
C3168 H3185 0.931 . S
C3169 C3167 1.372 . S
C3169 C3168 1.390 . S
C3169 H3186 0.929 . S
C3170 C3165 1.390 . S
C3170 C3166 1.392 . S
C3170 H3187 0.930 . S
C3171 O3156 1.255 . S
C3171 O3157 1.257 . S
C3172 Eu3108 2.787 . S
C3172 O3152 1.252 . S
C3172 O3155 1.268 . S
C3172 C3165 1.506 . S
C3173 C3140 1.439 . S
C3173 H3150 0.931 . S
C3173 C3174 1.374 . S
C3174 C3145 1.387 . S
C3174 H3151 0.931 . S
C3174 C3173 1.374 . S
C3175 O3159 1.249 . S
C3175 O3160 1.264 . S
C3176 C3179 1.382 . S
C3176 C3180 1.390 . S
C3176 C3183 1.506 . S
C3177 C3178 1.398 . S
C3177 C3180 1.392 . S
C3178 C3177 1.398 . S
C3178 C3181 1.372 . S
C3178 H3188 0.931 . S
C3179 C3176 1.382 . S
C3179 C3181 1.390 . S
C3179 H3189 0.931 . S
C3180 C3176 1.390 . S
C3180 C3177 1.392 . S
C3180 H3190 0.930 . S
C3181 C3178 1.372 . S
C3181 C3179 1.390 . S
C3181 H3191 0.929 . S
C3182 O3162 1.255 . S
C3182 O3163 1.257 . S
C3183 Eu3119 2.787 . S
C3183 O3158 1.252 . S
C3183 O3161 1.268 . S
C3183 C3176 1.506 . S
H3184 C3167 0.931 . S
H3185 C3168 0.931 . S
H3186 C3169 0.929 . S
H3187 C3170 0.930 . S
H3188 C3178 0.931 . S
H3189 C3179 0.931 . S
H3190 C3180 0.930 . S
H3191 C3181 0.929 . S
Eu3192 N3221 2.600 . S
Eu3192 N3227 2.562 . S
Eu3192 O3236 2.462 . S
Eu3192 O3237 2.373 . S
Eu3192 O3239 2.432 . S
Eu3192 O3240 2.291 . S
Eu3192 O3244 2.335 . S
Eu3192 O3247 2.372 . S
Eu3192 C3256 2.787 . S
C3193 N3194 1.365 . S
C3193 C3196 1.405 . S
C3193 C3200 1.448 . S
N3194 C3193 1.365 . S
N3194 C3197 1.319 . S
N3194 Eu3203 2.600 . S
C3195 C3197 1.397 . S
C3195 C3198 1.367 . S
C3195 H3215 0.931 . S
C3196 C3193 1.405 . S
C3196 C3198 1.403 . S
C3196 C3202 1.439 . S
C3197 N3194 1.319 . S
C3197 C3195 1.397 . S
C3197 H3208 0.930 . S
C3198 C3195 1.367 . S
C3198 C3196 1.403 . S
C3198 H3219 0.929 . S
C3199 C3200 1.430 . S
C3199 C3201 1.387 . S
C3199 C3205 1.404 . S
C3200 C3193 1.448 . S
C3200 C3199 1.430 . S
C3200 N3204 1.351 . S
C3201 C3199 1.387 . S
C3201 C3202 1.374 . S
C3201 H3216 0.931 . S
C3202 C3196 1.439 . S
C3202 C3201 1.374 . S
C3202 H3217 0.931 . S
Eu3203 N3194 2.600 . S
Eu3203 N3204 2.562 . S
Eu3203 O3238 2.335 . S
Eu3203 O3241 2.372 . S
Eu3203 O3242 2.462 . S
Eu3203 O3243 2.373 . S
Eu3203 O3245 2.432 . S
Eu3203 O3246 2.291 . S
Eu3203 C3267 2.787 . S
N3204 C3200 1.351 . S
N3204 Eu3203 2.562 . S
N3204 C3206 1.325 . S
C3205 C3199 1.404 . S
C3205 C3207 1.366 . S
C3205 H3213 0.930 . S
C3206 N3204 1.325 . S
C3206 C3207 1.416 . S
C3206 H3212 0.929 . S
C3207 C3205 1.366 . S
C3207 C3206 1.416 . S
C3207 H3209 0.930 . S
H3208 C3197 0.930 . S
H3209 C3207 0.930 . S
H3210 C3225 0.930 . S
H3211 C3232 0.930 . S
H3212 C3206 0.929 . S
H3213 C3205 0.930 . S
H3214 C3228 0.929 . S
H3215 C3195 0.931 . S
H3216 C3201 0.931 . S
H3217 C3202 0.931 . S
H3218 C3223 0.931 . S
H3219 C3198 0.929 . S
H3220 C3231 0.930 . S
N3221 Eu3192 2.600 . S
N3221 C3222 1.365 . S
N3221 C3225 1.319 . S
C3222 N3221 1.365 . S
C3222 C3224 1.405 . S
C3222 C3230 1.448 . S
C3223 H3218 0.931 . S
C3223 C3225 1.397 . S
C3223 C3226 1.367 . S
C3224 C3222 1.405 . S
C3224 C3226 1.403 . S
C3224 C3257 1.439 . S
C3225 H3210 0.930 . S
C3225 N3221 1.319 . S
C3225 C3223 1.397 . S
C3226 C3223 1.367 . S
C3226 C3224 1.403 . S
C3226 H3233 0.929 . S
N3227 Eu3192 2.562 . S
N3227 C3228 1.325 . S
N3227 C3230 1.351 . S
C3228 H3214 0.929 . S
C3228 N3227 1.325 . S
C3228 C3232 1.416 . S
C3229 C3230 1.430 . S
C3229 C3231 1.404 . S
C3229 C3258 1.387 . S
C3230 C3222 1.448 . S
C3230 N3227 1.351 . S
C3230 C3229 1.430 . S
C3231 H3220 0.930 . S
C3231 C3229 1.404 . S
C3231 C3232 1.366 . S
C3232 H3211 0.930 . S
C3232 C3228 1.416 . S
C3232 C3231 1.366 . S
H3233 C3226 0.929 . S
H3234 C3257 0.931 . S
H3235 C3258 0.931 . S
O3236 Eu3192 2.462 . S
O3236 C3256 1.252 . S
O3237 Eu3192 2.373 . S
O3237 C3248 1.249 . S
O3238 Eu3203 2.335 . S
O3238 C3248 1.264 . S
O3239 Eu3192 2.432 . S
O3239 C3256 1.268 . S
O3240 Eu3192 2.291 . S
O3240 C3255 1.255 . S
O3241 Eu3203 2.372 . S
O3241 C3255 1.257 . S
O3242 Eu3203 2.462 . S
O3242 C3267 1.252 . S
O3243 Eu3203 2.373 . S
O3243 C3259 1.249 . S
O3244 Eu3192 2.335 . S
O3244 C3259 1.264 . S
O3245 Eu3203 2.432 . S
O3245 C3267 1.268 . S
O3246 Eu3203 2.291 . S
O3246 C3266 1.255 . S
O3247 Eu3192 2.372 . S
O3247 C3266 1.257 . S
C3248 O3237 1.249 . S
C3248 O3238 1.264 . S
C3249 C3252 1.382 . S
C3249 C3254 1.390 . S
C3249 C3256 1.506 . S
C3250 C3251 1.398 . S
C3250 C3254 1.392 . S
C3251 C3250 1.398 . S
C3251 C3253 1.372 . S
C3251 H3268 0.931 . S
C3252 C3249 1.382 . S
C3252 C3253 1.390 . S
C3252 H3269 0.931 . S
C3253 C3251 1.372 . S
C3253 C3252 1.390 . S
C3253 H3270 0.929 . S
C3254 C3249 1.390 . S
C3254 C3250 1.392 . S
C3254 H3271 0.930 . S
C3255 O3240 1.255 . S
C3255 O3241 1.257 . S
C3256 Eu3192 2.787 . S
C3256 O3236 1.252 . S
C3256 O3239 1.268 . S
C3256 C3249 1.506 . S
C3257 C3224 1.439 . S
C3257 H3234 0.931 . S
C3257 C3258 1.374 . S
C3258 C3229 1.387 . S
C3258 H3235 0.931 . S
C3258 C3257 1.374 . S
C3259 O3243 1.249 . S
C3259 O3244 1.264 . S
C3260 C3263 1.382 . S
C3260 C3264 1.390 . S
C3260 C3267 1.506 . S
C3261 C3262 1.398 . S
C3261 C3264 1.392 . S
C3262 C3261 1.398 . S
C3262 C3265 1.372 . S
C3262 H3272 0.931 . S
C3263 C3260 1.382 . S
C3263 C3265 1.390 . S
C3263 H3273 0.931 . S
C3264 C3260 1.390 . S
C3264 C3261 1.392 . S
C3264 H3274 0.930 . S
C3265 C3262 1.372 . S
C3265 C3263 1.390 . S
C3265 H3275 0.929 . S
C3266 O3246 1.255 . S
C3266 O3247 1.257 . S
C3267 Eu3203 2.787 . S
C3267 O3242 1.252 . S
C3267 O3245 1.268 . S
C3267 C3260 1.506 . S
H3268 C3251 0.931 . S
H3269 C3252 0.931 . S
H3270 C3253 0.929 . S
H3271 C3254 0.930 . S
H3272 C3262 0.931 . S
H3273 C3263 0.931 . S
H3274 C3264 0.930 . S
H3275 C3265 0.929 . S
Eu3276 N3305 2.600 . S
Eu3276 N3311 2.562 . S
Eu3276 O3320 2.462 . S
Eu3276 O3321 2.373 . S
Eu3276 O3323 2.432 . S
Eu3276 O3324 2.291 . S
Eu3276 O3328 2.335 . S
Eu3276 O3331 2.372 . S
Eu3276 C3340 2.787 . S
C3277 N3278 1.365 . S
C3277 C3280 1.405 . S
C3277 C3284 1.448 . S
N3278 C3277 1.365 . S
N3278 C3281 1.319 . S
N3278 Eu3287 2.600 . S
C3279 C3281 1.397 . S
C3279 C3282 1.367 . S
C3279 H3299 0.931 . S
C3280 C3277 1.405 . S
C3280 C3282 1.403 . S
C3280 C3286 1.439 . S
C3281 N3278 1.319 . S
C3281 C3279 1.397 . S
C3281 H3292 0.930 . S
C3282 C3279 1.367 . S
C3282 C3280 1.403 . S
C3282 H3303 0.929 . S
C3283 C3284 1.430 . S
C3283 C3285 1.387 . S
C3283 C3289 1.404 . S
C3284 C3277 1.448 . S
C3284 C3283 1.430 . S
C3284 N3288 1.351 . S
C3285 C3283 1.387 . S
C3285 C3286 1.374 . S
C3285 H3300 0.931 . S
C3286 C3280 1.439 . S
C3286 C3285 1.374 . S
C3286 H3301 0.931 . S
Eu3287 N3278 2.600 . S
Eu3287 N3288 2.562 . S
Eu3287 O3322 2.335 . S
Eu3287 O3325 2.372 . S
Eu3287 O3326 2.462 . S
Eu3287 O3327 2.373 . S
Eu3287 O3329 2.432 . S
Eu3287 O3330 2.291 . S
Eu3287 C3351 2.787 . S
N3288 C3284 1.351 . S
N3288 Eu3287 2.562 . S
N3288 C3290 1.325 . S
C3289 C3283 1.404 . S
C3289 C3291 1.366 . S
C3289 H3297 0.930 . S
C3290 N3288 1.325 . S
C3290 C3291 1.416 . S
C3290 H3296 0.929 . S
C3291 C3289 1.366 . S
C3291 C3290 1.416 . S
C3291 H3293 0.930 . S
H3292 C3281 0.930 . S
H3293 C3291 0.930 . S
H3294 C3309 0.930 . S
H3295 C3316 0.930 . S
H3296 C3290 0.929 . S
H3297 C3289 0.930 . S
H3298 C3312 0.929 . S
H3299 C3279 0.931 . S
H3300 C3285 0.931 . S
H3301 C3286 0.931 . S
H3302 C3307 0.931 . S
H3303 C3282 0.929 . S
H3304 C3315 0.930 . S
N3305 Eu3276 2.600 . S
N3305 C3306 1.365 . S
N3305 C3309 1.319 . S
C3306 N3305 1.365 . S
C3306 C3308 1.405 . S
C3306 C3314 1.448 . S
C3307 H3302 0.931 . S
C3307 C3309 1.397 . S
C3307 C3310 1.367 . S
C3308 C3306 1.405 . S
C3308 C3310 1.403 . S
C3308 C3341 1.439 . S
C3309 H3294 0.930 . S
C3309 N3305 1.319 . S
C3309 C3307 1.397 . S
C3310 C3307 1.367 . S
C3310 C3308 1.403 . S
C3310 H3317 0.892 1_545 S
N3311 Eu3276 2.562 . S
N3311 C3312 1.325 . S
N3311 C3314 1.351 . S
C3312 H3298 0.929 . S
C3312 N3311 1.325 . S
C3312 C3316 1.416 . S
C3313 C3314 1.430 . S
C3313 C3315 1.404 . S
C3313 C3342 1.387 . S
C3314 C3306 1.448 . S
C3314 N3311 1.351 . S
C3314 C3313 1.430 . S
C3315 H3304 0.930 . S
C3315 C3313 1.404 . S
C3315 C3316 1.366 . S
C3316 H3295 0.930 . S
C3316 C3312 1.416 . S
C3316 C3315 1.366 . S
H3317 C3310 0.892 1_565 S
H3318 C3341 0.931 . S
H3319 C3342 0.931 . S
O3320 Eu3276 2.462 . S
O3320 C3340 1.252 . S
O3321 Eu3276 2.373 . S
O3321 C3332 1.249 . S
O3322 Eu3287 2.335 . S
O3322 C3332 1.264 . S
O3323 Eu3276 2.432 . S
O3323 C3340 1.268 . S
O3324 Eu3276 2.291 . S
O3324 C3339 1.255 . S
O3325 Eu3287 2.372 . S
O3325 C3339 1.257 . S
O3326 Eu3287 2.462 . S
O3326 C3351 1.252 . S
O3327 Eu3287 2.373 . S
O3327 C3343 1.249 . S
O3328 Eu3276 2.335 . S
O3328 C3343 1.264 . S
O3329 Eu3287 2.432 . S
O3329 C3351 1.268 . S
O3330 Eu3287 2.291 . S
O3330 C3350 1.255 . S
O3331 Eu3276 2.372 . S
O3331 C3350 1.257 . S
C3332 O3321 1.249 . S
C3332 O3322 1.264 . S
C3333 C3336 1.382 . S
C3333 C3338 1.390 . S
C3333 C3340 1.506 . S
C3334 C3335 1.398 . S
C3334 C3338 1.392 . S
C3335 C3334 1.398 . S
C3335 C3337 1.372 . S
C3335 H3352 0.931 . S
C3336 C3333 1.382 . S
C3336 C3337 1.390 . S
C3336 H3353 0.931 . S
C3337 C3335 1.372 . S
C3337 C3336 1.390 . S
C3337 H3354 0.929 . S
C3338 C3333 1.390 . S
C3338 C3334 1.392 . S
C3338 H3355 0.930 . S
C3339 O3324 1.255 . S
C3339 O3325 1.257 . S
C3340 Eu3276 2.787 . S
C3340 O3320 1.252 . S
C3340 O3323 1.268 . S
C3340 C3333 1.506 . S
C3341 C3308 1.439 . S
C3341 H3318 0.931 . S
C3341 C3342 1.374 . S
C3342 C3313 1.387 . S
C3342 H3319 0.931 . S
C3342 C3341 1.374 . S
C3343 O3327 1.249 . S
C3343 O3328 1.264 . S
C3344 C3347 1.382 . S
C3344 C3348 1.390 . S
C3344 C3351 1.506 . S
C3345 C3346 1.398 . S
C3345 C3348 1.392 . S
C3346 C3345 1.398 . S
C3346 C3349 1.372 . S
C3346 H3356 0.931 . S
C3347 C3344 1.382 . S
C3347 C3349 1.390 . S
C3347 H3357 0.931 . S
C3348 C3344 1.390 . S
C3348 C3345 1.392 . S
C3348 H3358 0.930 . S
C3349 C3346 1.372 . S
C3349 C3347 1.390 . S
C3349 H3359 0.929 . S
C3350 O3330 1.255 . S
C3350 O3331 1.257 . S
C3351 Eu3287 2.787 . S
C3351 O3326 1.252 . S
C3351 O3329 1.268 . S
C3351 C3344 1.506 . S
H3352 C3335 0.931 . S
H3353 C3336 0.931 . S
H3354 C3337 0.929 . S
H3355 C3338 0.930 . S
H3356 C3346 0.931 . S
H3357 C3347 0.931 . S
H3358 C3348 0.930 . S
H3359 C3349 0.929 . S
Eu3360 N3389 2.600 . S
Eu3360 N3395 2.562 . S
Eu3360 O3404 2.462 . S
Eu3360 O3405 2.373 . S
Eu3360 O3407 2.432 . S
Eu3360 O3408 2.291 . S
Eu3360 O3412 2.335 . S
Eu3360 O3415 2.372 . S
Eu3360 C3424 2.787 . S
C3361 N3362 1.365 . S
C3361 C3364 1.405 . S
C3361 C3368 1.448 . S
N3362 C3361 1.365 . S
N3362 C3365 1.319 . S
N3362 Eu3371 2.600 . S
C3363 C3365 1.397 . S
C3363 C3366 1.367 . S
C3363 H3383 0.931 . S
C3364 C3361 1.405 . S
C3364 C3366 1.403 . S
C3364 C3370 1.439 . S
C3365 N3362 1.319 . S
C3365 C3363 1.397 . S
C3365 H3376 0.930 . S
C3366 C3363 1.367 . S
C3366 C3364 1.403 . S
C3366 H3387 0.953 . S
C3367 C3368 1.430 1_455 S
C3367 C3369 1.396 . S
C3367 C3373 1.404 . S
C3368 C3361 1.448 . S
C3368 C3367 1.430 1_655 S
C3368 N3372 1.351 1_655 S
C3369 C3367 1.396 . S
C3369 C3370 1.354 1_455 S
C3369 H3384 0.944 . S
C3370 C3364 1.439 . S
C3370 C3369 1.354 1_655 S
C3370 H3385 0.931 . S
Eu3371 N3362 2.600 . S
Eu3371 N3372 2.562 1_655 S
Eu3371 O3406 2.335 . S
Eu3371 O3409 2.372 . S
Eu3371 O3410 2.462 . S
Eu3371 O3411 2.373 1_655 S
Eu3371 O3413 2.432 . S
Eu3371 O3414 2.291 1_655 S
Eu3371 C3435 2.787 . S
N3372 C3368 1.351 1_455 S
N3372 Eu3371 2.562 1_455 S
N3372 C3374 1.325 . S
C3373 C3367 1.404 . S
C3373 C3375 1.366 . S
C3373 H3381 0.930 . S
C3374 N3372 1.325 . S
C3374 C3375 1.416 . S
C3374 H3380 0.929 . S
C3375 C3373 1.366 . S
C3375 C3374 1.416 . S
C3375 H3377 0.930 . S
H3376 C3365 0.930 . S
H3377 C3375 0.930 . S
H3378 C3393 0.930 . S
H3379 C3400 0.930 1_655 S
H3380 C3374 0.929 . S
H3381 C3373 0.930 . S
H3382 C3396 0.929 . S
H3383 C3363 0.931 . S
H3384 C3369 0.944 . S
H3385 C3370 0.931 . S
H3386 C3391 0.931 . S
H3387 C3366 0.953 . S
H3388 C3399 0.930 . S
N3389 Eu3360 2.600 . S
N3389 C3390 1.365 . S
N3389 C3393 1.319 . S
C3390 N3389 1.365 . S
C3390 C3392 1.405 . S
C3390 C3398 1.448 . S
C3391 H3386 0.931 . S
C3391 C3393 1.397 . S
C3391 C3394 1.367 . S
C3392 C3390 1.405 . S
C3392 C3394 1.403 . S
C3392 C3425 1.439 . S
C3393 H3378 0.930 . S
C3393 N3389 1.319 . S
C3393 C3391 1.397 . S
C3394 C3391 1.367 . S
C3394 C3392 1.403 . S
C3394 H3401 0.929 . S
N3395 Eu3360 2.562 . S
N3395 C3396 1.325 . S
N3395 C3398 1.351 . S
C3396 H3382 0.929 . S
C3396 N3395 1.325 . S
C3396 C3400 1.416 . S
C3397 C3398 1.430 . S
C3397 C3399 1.404 . S
C3397 C3426 1.387 . S
C3398 C3390 1.448 . S
C3398 N3395 1.351 . S
C3398 C3397 1.430 . S
C3399 H3388 0.930 . S
C3399 C3397 1.404 . S
C3399 C3400 1.366 . S
C3400 H3379 0.930 1_455 S
C3400 C3396 1.416 . S
C3400 C3399 1.366 . S
H3401 C3394 0.929 . S
H3402 C3425 0.931 . S
H3403 C3426 0.931 . S
O3404 Eu3360 2.462 . S
O3404 C3424 1.252 . S
O3405 Eu3360 2.373 . S
O3405 C3416 1.249 1_455 S
O3406 Eu3371 2.335 . S
O3406 C3416 1.264 . S
O3407 Eu3360 2.432 . S
O3407 C3424 1.268 . S
O3408 Eu3360 2.291 . S
O3408 C3423 1.255 1_455 S
O3409 Eu3371 2.372 . S
O3409 C3423 1.257 . S
O3410 Eu3371 2.462 . S
O3410 C3435 1.252 . S
O3411 Eu3371 2.373 1_455 S
O3411 C3427 1.249 . S
O3412 Eu3360 2.335 . S
O3412 C3427 1.264 . S
O3413 Eu3371 2.432 . S
O3413 C3435 1.268 . S
O3414 Eu3371 2.291 1_455 S
O3414 C3434 1.255 . S
O3415 Eu3360 2.372 . S
O3415 C3434 1.257 . S
C3416 O3405 1.249 1_655 S
C3416 O3406 1.264 . S
C3417 C3420 1.382 . S
C3417 C3422 1.390 . S
C3417 C3424 1.506 . S
C3418 C3419 1.398 . S
C3418 C3422 1.392 . S
C3419 C3418 1.398 . S
C3419 C3421 1.372 . S
C3419 H3436 0.931 . S
C3420 C3417 1.382 . S
C3420 C3421 1.390 . S
C3420 H3437 0.931 . S
C3421 C3419 1.372 . S
C3421 C3420 1.390 . S
C3421 H3438 0.929 . S
C3422 C3417 1.390 . S
C3422 C3418 1.392 . S
C3422 H3439 0.930 . S
C3423 O3408 1.255 1_655 S
C3423 O3409 1.257 . S
C3424 Eu3360 2.787 . S
C3424 O3404 1.252 . S
C3424 O3407 1.268 . S
C3424 C3417 1.506 . S
C3425 C3392 1.439 . S
C3425 H3402 0.931 . S
C3425 C3426 1.374 . S
C3426 C3397 1.387 . S
C3426 H3403 0.931 . S
C3426 C3425 1.374 . S
C3427 O3411 1.249 . S
C3427 O3412 1.264 . S
C3428 C3431 1.382 . S
C3428 C3432 1.390 . S
C3428 C3435 1.506 . S
C3429 C3430 1.398 . S
C3429 C3432 1.392 . S
C3430 C3429 1.398 . S
C3430 C3433 1.372 . S
C3430 H3440 0.931 . S
C3431 C3428 1.382 . S
C3431 C3433 1.390 . S
C3431 H3441 0.931 . S
C3432 C3428 1.390 . S
C3432 C3429 1.392 . S
C3432 H3442 0.930 . S
C3433 C3430 1.372 . S
C3433 C3431 1.390 . S
C3433 H3443 0.929 . S
C3434 O3414 1.255 . S
C3434 O3415 1.257 . S
C3435 Eu3371 2.787 . S
C3435 O3410 1.252 . S
C3435 O3413 1.268 . S
C3435 C3428 1.506 . S
H3436 C3419 0.931 . S
H3437 C3420 0.931 . S
H3438 C3421 0.929 . S
H3439 C3422 0.930 . S
H3440 C3430 0.931 . S
H3441 C3431 0.931 . S
H3442 C3432 0.930 . S
H3443 C3433 0.929 . S
Eu3444 N3473 2.600 . S
Eu3444 N3479 2.562 . S
Eu3444 O3488 2.462 . S
Eu3444 O3489 2.373 . S
Eu3444 O3491 2.432 . S
Eu3444 O3492 2.291 . S
Eu3444 O3496 2.335 . S
Eu3444 O3499 2.372 . S
Eu3444 C3508 2.787 . S
C3445 N3446 1.365 . S
C3445 C3448 1.405 . S
C3445 C3452 1.448 . S
N3446 C3445 1.365 . S
N3446 C3449 1.319 . S
N3446 Eu3455 2.600 . S
C3447 C3449 1.397 . S
C3447 C3450 1.367 . S
C3447 H3467 0.931 . S
C3448 C3445 1.405 . S
C3448 C3450 1.403 . S
C3448 C3454 1.439 . S
C3449 N3446 1.319 . S
C3449 C3447 1.397 . S
C3449 H3460 0.930 . S
C3450 C3447 1.367 . S
C3450 C3448 1.403 . S
C3450 H3471 0.929 . S
C3451 C3452 1.430 . S
C3451 C3453 1.387 . S
C3451 C3457 1.404 . S
C3452 C3445 1.448 . S
C3452 C3451 1.430 . S
C3452 N3456 1.351 . S
C3453 C3451 1.387 . S
C3453 C3454 1.374 . S
C3453 H3468 0.931 . S
C3454 C3448 1.439 . S
C3454 C3453 1.374 . S
C3454 H3469 0.931 . S
Eu3455 N3446 2.600 . S
Eu3455 N3456 2.562 . S
Eu3455 O3490 2.335 . S
Eu3455 O3493 2.372 . S
Eu3455 O3494 2.462 . S
Eu3455 O3495 2.373 . S
Eu3455 O3497 2.432 . S
Eu3455 O3498 2.291 . S
Eu3455 C3519 2.787 . S
N3456 C3452 1.351 . S
N3456 Eu3455 2.562 . S
N3456 C3458 1.325 . S
C3457 C3451 1.404 . S
C3457 C3459 1.366 . S
C3457 H3465 0.930 . S
C3458 N3456 1.325 . S
C3458 C3459 1.416 . S
C3458 H3464 0.929 . S
C3459 C3457 1.366 . S
C3459 C3458 1.416 . S
C3459 H3461 0.930 . S
H3460 C3449 0.930 . S
H3461 C3459 0.930 . S
H3462 C3477 0.930 . S
H3463 C3484 0.930 . S
H3464 C3458 0.929 . S
H3465 C3457 0.930 . S
H3466 C3480 0.929 . S
H3467 C3447 0.931 . S
H3468 C3453 0.931 . S
H3469 C3454 0.931 . S
H3470 C3475 0.931 . S
H3471 C3450 0.929 . S
H3472 C3483 0.930 . S
N3473 Eu3444 2.600 . S
N3473 C3474 1.365 . S
N3473 C3477 1.319 . S
C3474 N3473 1.365 . S
C3474 C3476 1.405 . S
C3474 C3482 1.448 . S
C3475 H3470 0.931 . S
C3475 C3477 1.397 . S
C3475 C3478 1.367 . S
C3476 C3474 1.405 . S
C3476 C3478 1.403 . S
C3476 C3509 1.439 . S
C3477 H3462 0.930 . S
C3477 N3473 1.319 . S
C3477 C3475 1.397 . S
C3478 C3475 1.367 . S
C3478 C3476 1.403 . S
C3478 H3485 0.929 . S
N3479 Eu3444 2.562 . S
N3479 C3480 1.325 . S
N3479 C3482 1.351 . S
C3480 H3466 0.929 . S
C3480 N3479 1.325 . S
C3480 C3484 1.416 . S
C3481 C3482 1.430 . S
C3481 C3483 1.404 . S
C3481 C3510 1.387 . S
C3482 C3474 1.448 . S
C3482 N3479 1.351 . S
C3482 C3481 1.430 . S
C3483 H3472 0.930 . S
C3483 C3481 1.404 . S
C3483 C3484 1.366 . S
C3484 H3463 0.930 . S
C3484 C3480 1.416 . S
C3484 C3483 1.366 . S
H3485 C3478 0.929 . S
H3486 C3509 0.931 . S
H3487 C3510 0.931 . S
O3488 Eu3444 2.462 . S
O3488 C3508 1.252 . S
O3489 Eu3444 2.373 . S
O3489 C3500 1.249 . S
O3490 Eu3455 2.335 . S
O3490 C3500 1.264 . S
O3491 Eu3444 2.432 . S
O3491 C3508 1.268 . S
O3492 Eu3444 2.291 . S
O3492 C3507 1.255 . S
O3493 Eu3455 2.372 . S
O3493 C3507 1.257 . S
O3494 Eu3455 2.462 . S
O3494 C3519 1.252 . S
O3495 Eu3455 2.373 . S
O3495 C3511 1.249 . S
O3496 Eu3444 2.335 . S
O3496 C3511 1.264 . S
O3497 Eu3455 2.432 . S
O3497 C3519 1.268 . S
O3498 Eu3455 2.291 . S
O3498 C3518 1.255 . S
O3499 Eu3444 2.372 . S
O3499 C3518 1.257 . S
C3500 O3489 1.249 . S
C3500 O3490 1.264 . S
C3501 C3504 1.382 . S
C3501 C3506 1.390 . S
C3501 C3508 1.506 . S
C3502 C3503 1.398 . S
C3502 C3506 1.392 . S
C3503 C3502 1.398 . S
C3503 C3505 1.372 . S
C3503 H3520 0.931 . S
C3504 C3501 1.382 . S
C3504 C3505 1.390 . S
C3504 H3521 0.931 . S
C3505 C3503 1.372 . S
C3505 C3504 1.390 . S
C3505 H3522 0.929 . S
C3506 C3501 1.390 . S
C3506 C3502 1.392 . S
C3506 H3523 0.930 . S
C3507 O3492 1.255 . S
C3507 O3493 1.257 . S
C3508 Eu3444 2.787 . S
C3508 O3488 1.252 . S
C3508 O3491 1.268 . S
C3508 C3501 1.506 . S
C3509 C3476 1.439 . S
C3509 H3486 0.931 . S
C3509 C3510 1.374 . S
C3510 C3481 1.387 . S
C3510 H3487 0.931 . S
C3510 C3509 1.374 . S
C3511 O3495 1.249 . S
C3511 O3496 1.264 . S
C3512 C3515 1.382 . S
C3512 C3516 1.390 . S
C3512 C3519 1.506 . S
C3513 C3514 1.398 . S
C3513 C3516 1.392 . S
C3514 C3513 1.398 . S
C3514 C3517 1.372 . S
C3514 H3524 0.931 . S
C3515 C3512 1.382 . S
C3515 C3517 1.390 . S
C3515 H3525 0.931 . S
C3516 C3512 1.390 . S
C3516 C3513 1.392 . S
C3516 H3526 0.930 . S
C3517 C3514 1.372 . S
C3517 C3515 1.390 . S
C3517 H3527 0.929 . S
C3518 O3498 1.255 . S
C3518 O3499 1.257 . S
C3519 Eu3455 2.787 . S
C3519 O3494 1.252 . S
C3519 O3497 1.268 . S
C3519 C3512 1.506 . S
H3520 C3503 0.931 . S
H3521 C3504 0.931 . S
H3522 C3505 0.929 . S
H3523 C3506 0.930 . S
H3524 C3514 0.931 . S
H3525 C3515 0.931 . S
H3526 C3516 0.930 . S
H3527 C3517 0.929 . S
Eu3528 N3557 2.600 . S
Eu3528 N3563 2.562 . S
Eu3528 O3572 2.462 . S
Eu3528 O3573 2.373 . S
Eu3528 O3575 2.432 . S
Eu3528 O3576 2.291 . S
Eu3528 O3580 2.335 . S
Eu3528 O3583 2.372 . S
Eu3528 C3592 2.787 . S
C3529 N3530 1.365 . S
C3529 C3532 1.405 . S
C3529 C3536 1.448 . S
N3530 C3529 1.365 . S
N3530 C3533 1.319 . S
N3530 Eu3539 2.600 . S
C3531 C3533 1.397 . S
C3531 C3534 1.367 . S
C3531 H3551 0.931 . S
C3532 C3529 1.405 . S
C3532 C3534 1.403 . S
C3532 C3538 1.439 . S
C3533 N3530 1.319 . S
C3533 C3531 1.397 . S
C3533 H3544 0.930 . S
C3534 C3531 1.367 . S
C3534 C3532 1.403 . S
C3534 H3555 0.887 1_655 S
C3535 C3536 1.430 1_554 S
C3535 C3537 1.392 . S
C3535 C3541 1.404 . S
C3536 C3529 1.448 . S
C3536 C3535 1.430 1_556 S
C3536 N3540 1.351 1_556 S
C3537 C3535 1.392 . S
C3537 C3538 1.362 1_554 S
C3537 H3552 0.938 . S
C3538 C3532 1.439 . S
C3538 C3537 1.362 1_556 S
C3538 H3553 0.931 . S
Eu3539 N3530 2.600 . S
Eu3539 N3540 2.562 1_556 S
Eu3539 O3574 2.335 . S
Eu3539 O3577 2.372 . S
Eu3539 O3578 2.462 . S
Eu3539 O3579 2.373 1_556 S
Eu3539 O3581 2.432 . S
Eu3539 O3582 2.291 1_556 S
Eu3539 C3603 2.787 . S
N3540 C3536 1.351 1_554 S
N3540 Eu3539 2.562 1_554 S
N3540 C3542 1.325 . S
C3541 C3535 1.404 . S
C3541 C3543 1.366 . S
C3541 H3549 0.930 . S
C3542 N3540 1.325 . S
C3542 C3543 1.416 . S
C3542 H3548 0.929 . S
C3543 C3541 1.366 . S
C3543 C3542 1.416 . S
C3543 H3545 0.930 . S
H3544 C3533 0.930 . S
H3545 C3543 0.930 . S
H3546 C3561 0.930 . S
H3547 C3568 0.911 1_556 S
H3548 C3542 0.929 . S
H3549 C3541 0.930 . S
H3550 C3564 0.929 . S
H3551 C3531 0.931 . S
H3552 C3537 0.938 . S
H3553 C3538 0.931 . S
H3554 C3559 0.931 . S
H3555 C3534 0.887 1_455 S
H3556 C3567 0.930 . S
N3557 Eu3528 2.600 . S
N3557 C3558 1.365 . S
N3557 C3561 1.319 . S
C3558 N3557 1.365 . S
C3558 C3560 1.405 . S
C3558 C3566 1.448 . S
C3559 H3554 0.931 . S
C3559 C3561 1.397 . S
C3559 C3562 1.367 . S
C3560 C3558 1.405 . S
C3560 C3562 1.403 . S
C3560 C3593 1.439 . S
C3561 H3546 0.930 . S
C3561 N3557 1.319 . S
C3561 C3559 1.397 . S
C3562 C3559 1.367 . S
C3562 C3560 1.403 . S
C3562 H3569 0.929 . S
N3563 Eu3528 2.562 . S
N3563 C3564 1.325 . S
N3563 C3566 1.351 . S
C3564 H3550 0.929 . S
C3564 N3563 1.325 . S
C3564 C3568 1.416 . S
C3565 C3566 1.430 . S
C3565 C3567 1.404 . S
C3565 C3594 1.387 . S
C3566 C3558 1.448 . S
C3566 N3563 1.351 . S
C3566 C3565 1.430 . S
C3567 H3556 0.930 . S
C3567 C3565 1.404 . S
C3567 C3568 1.366 . S
C3568 H3547 0.911 1_554 S
C3568 C3564 1.416 . S
C3568 C3567 1.366 . S
H3569 C3562 0.929 . S
H3570 C3593 0.931 . S
H3571 C3594 0.931 . S
O3572 Eu3528 2.462 . S
O3572 C3592 1.252 . S
O3573 Eu3528 2.373 . S
O3573 C3584 1.249 1_554 S
O3574 Eu3539 2.335 . S
O3574 C3584 1.264 . S
O3575 Eu3528 2.432 . S
O3575 C3592 1.268 . S
O3576 Eu3528 2.291 . S
O3576 C3591 1.255 1_554 S
O3577 Eu3539 2.372 . S
O3577 C3591 1.257 . S
O3578 Eu3539 2.462 . S
O3578 C3603 1.252 . S
O3579 Eu3539 2.373 1_554 S
O3579 C3595 1.249 . S
O3580 Eu3528 2.335 . S
O3580 C3595 1.264 . S
O3581 Eu3539 2.432 . S
O3581 C3603 1.268 . S
O3582 Eu3539 2.291 1_554 S
O3582 C3602 1.255 . S
O3583 Eu3528 2.372 . S
O3583 C3602 1.257 . S
C3584 O3573 1.249 1_556 S
C3584 O3574 1.264 . S
C3585 C3588 1.382 . S
C3585 C3590 1.390 . S
C3585 C3592 1.506 . S
C3586 C3587 1.398 . S
C3586 C3590 1.392 . S
C3587 C3586 1.398 . S
C3587 C3589 1.372 . S
C3587 H3604 0.931 . S
C3588 C3585 1.382 . S
C3588 C3589 1.390 . S
C3588 H3605 0.931 . S
C3589 C3587 1.372 . S
C3589 C3588 1.390 . S
C3589 H3606 0.929 . S
C3590 C3585 1.390 . S
C3590 C3586 1.392 . S
C3590 H3607 0.930 . S
C3591 O3576 1.255 1_556 S
C3591 O3577 1.257 . S
C3592 Eu3528 2.787 . S
C3592 O3572 1.252 . S
C3592 O3575 1.268 . S
C3592 C3585 1.506 . S
C3593 C3560 1.439 . S
C3593 H3570 0.931 . S
C3593 C3594 1.374 . S
C3594 C3565 1.387 . S
C3594 H3571 0.931 . S
C3594 C3593 1.374 . S
C3595 O3579 1.249 . S
C3595 O3580 1.264 . S
C3596 C3599 1.382 . S
C3596 C3600 1.390 . S
C3596 C3603 1.506 . S
C3597 C3598 1.398 . S
C3597 C3600 1.392 . S
C3598 C3597 1.398 . S
C3598 C3601 1.372 . S
C3598 H3608 0.931 . S
C3599 C3596 1.382 . S
C3599 C3601 1.390 . S
C3599 H3609 0.931 . S
C3600 C3596 1.390 . S
C3600 C3597 1.392 . S
C3600 H3610 0.930 . S
C3601 C3598 1.372 . S
C3601 C3599 1.390 . S
C3601 H3611 0.929 . S
C3602 O3582 1.255 . S
C3602 O3583 1.257 . S
C3603 Eu3539 2.787 . S
C3603 O3578 1.252 . S
C3603 O3581 1.268 . S
C3603 C3596 1.506 . S
H3604 C3587 0.931 . S
H3605 C3588 0.931 . S
H3606 C3589 0.929 . S
H3607 C3590 0.930 . S
H3608 C3598 0.931 . S
H3609 C3599 0.931 . S
H3610 C3600 0.930 . S
H3611 C3601 0.929 . S
Eu3612 N3641 2.600 . S
Eu3612 N3647 2.562 . S
Eu3612 O3656 2.462 . S
Eu3612 O3657 2.373 . S
Eu3612 O3659 2.432 . S
Eu3612 O3660 2.291 . S
Eu3612 O3664 2.335 . S
Eu3612 O3667 2.372 . S
Eu3612 C3676 2.787 . S
C3613 N3614 1.365 . S
C3613 C3616 1.405 . S
C3613 C3620 1.448 . S
N3614 C3613 1.365 . S
N3614 C3617 1.319 . S
N3614 Eu3623 2.600 . S
C3615 C3617 1.397 . S
C3615 C3618 1.367 . S
C3615 H3635 0.931 . S
C3616 C3613 1.405 . S
C3616 C3618 1.403 . S
C3616 C3622 1.439 . S
C3617 N3614 1.319 . S
C3617 C3615 1.397 . S
C3617 H3628 0.930 . S
C3618 C3615 1.367 . S
C3618 C3616 1.403 . S
C3618 H3639 0.929 . S
C3619 C3620 1.430 . S
C3619 C3621 1.387 . S
C3619 C3625 1.404 . S
C3620 C3613 1.448 . S
C3620 C3619 1.430 . S
C3620 N3624 1.351 . S
C3621 C3619 1.387 . S
C3621 C3622 1.374 . S
C3621 H3636 0.931 . S
C3622 C3616 1.439 . S
C3622 C3621 1.374 . S
C3622 H3637 0.931 . S
Eu3623 N3614 2.600 . S
Eu3623 N3624 2.562 . S
Eu3623 O3658 2.335 . S
Eu3623 O3661 2.372 . S
Eu3623 O3662 2.462 . S
Eu3623 O3663 2.373 . S
Eu3623 O3665 2.432 . S
Eu3623 O3666 2.291 . S
Eu3623 C3687 2.787 . S
N3624 C3620 1.351 . S
N3624 Eu3623 2.562 . S
N3624 C3626 1.325 . S
C3625 C3619 1.404 . S
C3625 C3627 1.366 . S
C3625 H3633 0.930 . S
C3626 N3624 1.325 . S
C3626 C3627 1.416 . S
C3626 H3632 0.929 . S
C3627 C3625 1.366 . S
C3627 C3626 1.416 . S
C3627 H3629 0.930 . S
H3628 C3617 0.930 . S
H3629 C3627 0.930 . S
H3630 C3645 0.930 . S
H3631 C3652 0.930 . S
H3632 C3626 0.929 . S
H3633 C3625 0.930 . S
H3634 C3648 0.929 . S
H3635 C3615 0.931 . S
H3636 C3621 0.931 . S
H3637 C3622 0.931 . S
H3638 C3643 0.931 . S
H3639 C3618 0.929 . S
H3640 C3651 0.930 . S
N3641 Eu3612 2.600 . S
N3641 C3642 1.365 . S
N3641 C3645 1.319 . S
C3642 N3641 1.365 . S
C3642 C3644 1.405 . S
C3642 C3650 1.448 . S
C3643 H3638 0.931 . S
C3643 C3645 1.397 . S
C3643 C3646 1.367 . S
C3644 C3642 1.405 . S
C3644 C3646 1.403 . S
C3644 C3677 1.439 . S
C3645 H3630 0.930 . S
C3645 N3641 1.319 . S
C3645 C3643 1.397 . S
C3646 C3643 1.367 . S
C3646 C3644 1.403 . S
C3646 H3653 0.929 . S
N3647 Eu3612 2.562 . S
N3647 C3648 1.325 . S
N3647 C3650 1.351 . S
C3648 H3634 0.929 . S
C3648 N3647 1.325 . S
C3648 C3652 1.416 . S
C3649 C3650 1.430 . S
C3649 C3651 1.404 . S
C3649 C3678 1.387 . S
C3650 C3642 1.448 . S
C3650 N3647 1.351 . S
C3650 C3649 1.430 . S
C3651 H3640 0.930 . S
C3651 C3649 1.404 . S
C3651 C3652 1.366 . S
C3652 H3631 0.930 . S
C3652 C3648 1.416 . S
C3652 C3651 1.366 . S
H3653 C3646 0.929 . S
H3654 C3677 0.931 . S
H3655 C3678 0.931 . S
O3656 Eu3612 2.462 . S
O3656 C3676 1.252 . S
O3657 Eu3612 2.373 . S
O3657 C3668 1.249 . S
O3658 Eu3623 2.335 . S
O3658 C3668 1.264 . S
O3659 Eu3612 2.432 . S
O3659 C3676 1.268 . S
O3660 Eu3612 2.291 . S
O3660 C3675 1.255 . S
O3661 Eu3623 2.372 . S
O3661 C3675 1.257 . S
O3662 Eu3623 2.462 . S
O3662 C3687 1.252 . S
O3663 Eu3623 2.373 . S
O3663 C3679 1.249 . S
O3664 Eu3612 2.335 . S
O3664 C3679 1.264 . S
O3665 Eu3623 2.432 . S
O3665 C3687 1.268 . S
O3666 Eu3623 2.291 . S
O3666 C3686 1.255 . S
O3667 Eu3612 2.372 . S
O3667 C3686 1.257 . S
C3668 O3657 1.249 . S
C3668 O3658 1.264 . S
C3669 C3672 1.382 . S
C3669 C3674 1.390 . S
C3669 C3676 1.506 . S
C3670 C3671 1.398 . S
C3670 C3674 1.392 . S
C3671 C3670 1.398 . S
C3671 C3673 1.372 . S
C3671 H3688 0.931 . S
C3672 C3669 1.382 . S
C3672 C3673 1.390 . S
C3672 H3689 0.931 . S
C3673 C3671 1.372 . S
C3673 C3672 1.390 . S
C3673 H3690 0.929 . S
C3674 C3669 1.390 . S
C3674 C3670 1.392 . S
C3674 H3691 0.930 . S
C3675 O3660 1.255 . S
C3675 O3661 1.257 . S
C3676 Eu3612 2.787 . S
C3676 O3656 1.252 . S
C3676 O3659 1.268 . S
C3676 C3669 1.506 . S
C3677 C3644 1.439 . S
C3677 H3654 0.931 . S
C3677 C3678 1.374 . S
C3678 C3649 1.387 . S
C3678 H3655 0.931 . S
C3678 C3677 1.374 . S
C3679 O3663 1.249 . S
C3679 O3664 1.264 . S
C3680 C3683 1.382 . S
C3680 C3684 1.390 . S
C3680 C3687 1.506 . S
C3681 C3682 1.398 . S
C3681 C3684 1.392 . S
C3682 C3681 1.398 . S
C3682 C3685 1.372 . S
C3682 H3692 0.931 . S
C3683 C3680 1.382 . S
C3683 C3685 1.390 . S
C3683 H3693 0.931 . S
C3684 C3680 1.390 . S
C3684 C3681 1.392 . S
C3684 H3694 0.930 . S
C3685 C3682 1.372 . S
C3685 C3683 1.390 . S
C3685 H3695 0.929 . S
C3686 O3666 1.255 . S
C3686 O3667 1.257 . S
C3687 Eu3623 2.787 . S
C3687 O3662 1.252 . S
C3687 O3665 1.268 . S
C3687 C3680 1.506 . S
H3688 C3671 0.931 . S
H3689 C3672 0.931 . S
H3690 C3673 0.929 . S
H3691 C3674 0.930 . S
H3692 C3682 0.931 . S
H3693 C3683 0.931 . S
H3694 C3684 0.930 . S
H3695 C3685 0.929 . S
Eu3696 N3725 2.600 . S
Eu3696 N3731 2.562 . S
Eu3696 O3740 2.462 . S
Eu3696 O3741 2.373 . S
Eu3696 O3743 2.432 . S
Eu3696 O3744 2.291 . S
Eu3696 O3748 2.335 . S
Eu3696 O3751 2.372 . S
Eu3696 C3760 2.787 . S
C3697 N3698 1.365 . S
C3697 C3700 1.405 . S
C3697 C3704 1.448 . S
N3698 C3697 1.365 . S
N3698 C3701 1.319 . S
N3698 Eu3707 2.600 . S
C3699 C3701 1.397 . S
C3699 C3702 1.367 . S
C3699 H3719 0.931 . S
C3700 C3697 1.405 . S
C3700 C3702 1.403 . S
C3700 C3706 1.439 . S
C3701 N3698 1.319 . S
C3701 C3699 1.397 . S
C3701 H3712 0.930 . S
C3702 C3699 1.367 . S
C3702 C3700 1.403 . S
C3702 H3723 0.929 . S
C3703 C3704 1.430 . S
C3703 C3705 1.387 . S
C3703 C3709 1.404 . S
C3704 C3697 1.448 . S
C3704 C3703 1.430 . S
C3704 N3708 1.351 . S
C3705 C3703 1.387 . S
C3705 C3706 1.374 . S
C3705 H3720 0.931 . S
C3706 C3700 1.439 . S
C3706 C3705 1.374 . S
C3706 H3721 0.931 . S
Eu3707 N3698 2.600 . S
Eu3707 N3708 2.562 . S
Eu3707 O3742 2.335 . S
Eu3707 O3745 2.372 . S
Eu3707 O3746 2.462 . S
Eu3707 O3747 2.373 . S
Eu3707 O3749 2.432 . S
Eu3707 O3750 2.291 . S
Eu3707 C3771 2.787 . S
N3708 C3704 1.351 . S
N3708 Eu3707 2.562 . S
N3708 C3710 1.325 . S
C3709 C3703 1.404 . S
C3709 C3711 1.366 . S
C3709 H3717 0.930 . S
C3710 N3708 1.325 . S
C3710 C3711 1.416 . S
C3710 H3716 0.929 . S
C3711 C3709 1.366 . S
C3711 C3710 1.416 . S
C3711 H3713 0.930 . S
H3712 C3701 0.930 . S
H3713 C3711 0.930 . S
H3714 C3729 0.930 . S
H3715 C3736 0.930 . S
H3716 C3710 0.929 . S
H3717 C3709 0.930 . S
H3718 C3732 0.929 . S
H3719 C3699 0.931 . S
H3720 C3705 0.931 . S
H3721 C3706 0.931 . S
H3722 C3727 0.931 . S
H3723 C3702 0.929 . S
H3724 C3735 0.930 . S
N3725 Eu3696 2.600 . S
N3725 C3726 1.365 . S
N3725 C3729 1.319 . S
C3726 N3725 1.365 . S
C3726 C3728 1.405 . S
C3726 C3734 1.448 . S
C3727 H3722 0.931 . S
C3727 C3729 1.397 . S
C3727 C3730 1.367 . S
C3728 C3726 1.405 . S
C3728 C3730 1.403 . S
C3728 C3761 1.439 . S
C3729 H3714 0.930 . S
C3729 N3725 1.319 . S
C3729 C3727 1.397 . S
C3730 C3727 1.367 . S
C3730 C3728 1.403 . S
C3730 H3737 0.929 . S
N3731 Eu3696 2.562 . S
N3731 C3732 1.325 . S
N3731 C3734 1.351 . S
C3732 H3718 0.929 . S
C3732 N3731 1.325 . S
C3732 C3736 1.416 . S
C3733 C3734 1.430 . S
C3733 C3735 1.404 . S
C3733 C3762 1.387 . S
C3734 C3726 1.448 . S
C3734 N3731 1.351 . S
C3734 C3733 1.430 . S
C3735 H3724 0.930 . S
C3735 C3733 1.404 . S
C3735 C3736 1.366 . S
C3736 H3715 0.930 . S
C3736 C3732 1.416 . S
C3736 C3735 1.366 . S
H3737 C3730 0.929 . S
H3738 C3761 0.931 . S
H3739 C3762 0.931 . S
O3740 Eu3696 2.462 . S
O3740 C3760 1.252 . S
O3741 Eu3696 2.373 . S
O3741 C3752 1.249 . S
O3742 Eu3707 2.335 . S
O3742 C3752 1.264 . S
O3743 Eu3696 2.432 . S
O3743 C3760 1.268 . S
O3744 Eu3696 2.291 . S
O3744 C3759 1.255 . S
O3745 Eu3707 2.372 . S
O3745 C3759 1.257 . S
O3746 Eu3707 2.462 . S
O3746 C3771 1.252 . S
O3747 Eu3707 2.373 . S
O3747 C3763 1.249 . S
O3748 Eu3696 2.335 . S
O3748 C3763 1.264 . S
O3749 Eu3707 2.432 . S
O3749 C3771 1.268 . S
O3750 Eu3707 2.291 . S
O3750 C3770 1.255 . S
O3751 Eu3696 2.372 . S
O3751 C3770 1.257 . S
C3752 O3741 1.249 . S
C3752 O3742 1.264 . S
C3753 C3756 1.382 . S
C3753 C3758 1.390 . S
C3753 C3760 1.506 . S
C3754 C3755 1.398 . S
C3754 C3758 1.392 . S
C3755 C3754 1.398 . S
C3755 C3757 1.372 . S
C3755 H3772 0.931 . S
C3756 C3753 1.382 . S
C3756 C3757 1.390 . S
C3756 H3773 0.931 . S
C3757 C3755 1.372 . S
C3757 C3756 1.390 . S
C3757 H3774 0.929 . S
C3758 C3753 1.390 . S
C3758 C3754 1.392 . S
C3758 H3775 0.930 . S
C3759 O3744 1.255 . S
C3759 O3745 1.257 . S
C3760 Eu3696 2.787 . S
C3760 O3740 1.252 . S
C3760 O3743 1.268 . S
C3760 C3753 1.506 . S
C3761 C3728 1.439 . S
C3761 H3738 0.931 . S
C3761 C3762 1.374 . S
C3762 C3733 1.387 . S
C3762 H3739 0.931 . S
C3762 C3761 1.374 . S
C3763 O3747 1.249 . S
C3763 O3748 1.264 . S
C3764 C3767 1.382 . S
C3764 C3768 1.390 . S
C3764 C3771 1.506 . S
C3765 C3766 1.398 . S
C3765 C3768 1.392 . S
C3766 C3765 1.398 . S
C3766 C3769 1.372 . S
C3766 H3776 0.931 . S
C3767 C3764 1.382 . S
C3767 C3769 1.390 . S
C3767 H3777 0.931 . S
C3768 C3764 1.390 . S
C3768 C3765 1.392 . S
C3768 H3778 0.930 . S
C3769 C3766 1.372 . S
C3769 C3767 1.390 . S
C3769 H3779 0.929 . S
C3770 O3750 1.255 . S
C3770 O3751 1.257 . S
C3771 Eu3707 2.787 . S
C3771 O3746 1.252 . S
C3771 O3749 1.268 . S
C3771 C3764 1.506 . S
H3772 C3755 0.931 . S
H3773 C3756 0.931 . S
H3774 C3757 0.929 . S
H3775 C3758 0.930 . S
H3776 C3766 0.931 . S
H3777 C3767 0.931 . S
H3778 C3768 0.930 . S
H3779 C3769 0.929 . S
Eu3780 N3809 2.600 . S
Eu3780 N3815 2.562 . S
Eu3780 O3824 2.462 . S
Eu3780 O3825 2.373 . S
Eu3780 O3827 2.432 . S
Eu3780 O3828 2.291 . S
Eu3780 O3832 2.335 . S
Eu3780 O3835 2.372 . S
Eu3780 C3844 2.787 . S
C3781 N3782 1.365 . S
C3781 C3784 1.405 . S
C3781 C3788 1.448 . S
N3782 C3781 1.365 . S
N3782 C3785 1.319 . S
N3782 Eu3791 2.600 . S
C3783 C3785 1.397 . S
C3783 C3786 1.367 . S
C3783 H3803 0.931 . S
C3784 C3781 1.405 . S
C3784 C3786 1.403 . S
C3784 C3790 1.439 . S
C3785 N3782 1.319 . S
C3785 C3783 1.397 . S
C3785 H3796 0.930 . S
C3786 C3783 1.367 . S
C3786 C3784 1.403 . S
C3786 H3807 0.929 . S
C3787 C3788 1.430 . S
C3787 C3789 1.387 . S
C3787 C3793 1.404 . S
C3788 C3781 1.448 . S
C3788 C3787 1.430 . S
C3788 N3792 1.351 . S
C3789 C3787 1.387 . S
C3789 C3790 1.374 . S
C3789 H3804 0.931 . S
C3790 C3784 1.439 . S
C3790 C3789 1.374 . S
C3790 H3805 0.931 . S
Eu3791 N3782 2.600 . S
Eu3791 N3792 2.562 . S
Eu3791 O3826 2.335 . S
Eu3791 O3829 2.372 . S
Eu3791 O3830 2.462 . S
Eu3791 O3831 2.373 . S
Eu3791 O3833 2.432 . S
Eu3791 O3834 2.291 . S
Eu3791 C3855 2.787 . S
N3792 C3788 1.351 . S
N3792 Eu3791 2.562 . S
N3792 C3794 1.325 . S
C3793 C3787 1.404 . S
C3793 C3795 1.366 . S
C3793 H3801 0.930 . S
C3794 N3792 1.325 . S
C3794 C3795 1.416 . S
C3794 H3800 0.929 . S
C3795 C3793 1.366 . S
C3795 C3794 1.416 . S
C3795 H3797 0.930 . S
H3796 C3785 0.930 . S
H3797 C3795 0.930 . S
H3798 C3813 0.930 . S
H3799 C3820 0.930 . S
H3800 C3794 0.929 . S
H3801 C3793 0.930 . S
H3802 C3816 0.929 . S
H3803 C3783 0.931 . S
H3804 C3789 0.931 . S
H3805 C3790 0.931 . S
H3806 C3811 0.931 . S
H3807 C3786 0.929 . S
H3808 C3819 0.930 . S
N3809 Eu3780 2.600 . S
N3809 C3810 1.365 . S
N3809 C3813 1.319 . S
C3810 N3809 1.365 . S
C3810 C3812 1.405 . S
C3810 C3818 1.448 . S
C3811 H3806 0.931 . S
C3811 C3813 1.397 . S
C3811 C3814 1.367 . S
C3812 C3810 1.405 . S
C3812 C3814 1.403 . S
C3812 C3845 1.439 . S
C3813 H3798 0.930 . S
C3813 N3809 1.319 . S
C3813 C3811 1.397 . S
C3814 C3811 1.367 . S
C3814 C3812 1.403 . S
C3814 H3821 0.943 . S
N3815 Eu3780 2.562 . S
N3815 C3816 1.325 . S
N3815 C3818 1.351 . S
C3816 H3802 0.929 . S
C3816 N3815 1.325 . S
C3816 C3820 1.416 . S
C3817 C3818 1.430 . S
C3817 C3819 1.404 . S
C3817 C3846 1.387 . S
C3818 C3810 1.448 . S
C3818 N3815 1.351 . S
C3818 C3817 1.430 . S
C3819 H3808 0.930 . S
C3819 C3817 1.404 . S
C3819 C3820 1.366 . S
C3820 H3799 0.930 . S
C3820 C3816 1.416 . S
C3820 C3819 1.366 . S
H3821 C3814 0.943 . S
H3822 C3845 0.931 . S
H3823 C3846 0.931 . S
O3824 Eu3780 2.462 . S
O3824 C3844 1.252 . S
O3825 Eu3780 2.373 . S
O3825 C3836 1.249 . S
O3826 Eu3791 2.335 . S
O3826 C3836 1.264 . S
O3827 Eu3780 2.432 . S
O3827 C3844 1.268 . S
O3828 Eu3780 2.291 . S
O3828 C3843 1.255 . S
O3829 Eu3791 2.372 . S
O3829 C3843 1.257 . S
O3830 Eu3791 2.462 . S
O3830 C3855 1.252 . S
O3831 Eu3791 2.373 . S
O3831 C3847 1.249 . S
O3832 Eu3780 2.335 . S
O3832 C3847 1.264 . S
O3833 Eu3791 2.432 . S
O3833 C3855 1.268 . S
O3834 Eu3791 2.291 . S
O3834 C3854 1.255 . S
O3835 Eu3780 2.372 . S
O3835 C3854 1.257 . S
C3836 O3825 1.249 . S
C3836 O3826 1.264 . S
C3837 C3840 1.382 . S
C3837 C3842 1.390 . S
C3837 C3844 1.506 . S
C3838 C3839 1.398 . S
C3838 C3842 1.392 . S
C3839 C3838 1.398 . S
C3839 C3841 1.372 . S
C3839 H3856 0.931 . S
C3840 C3837 1.382 . S
C3840 C3841 1.390 . S
C3840 H3857 0.931 . S
C3841 C3839 1.372 . S
C3841 C3840 1.390 . S
C3841 H3858 0.929 . S
C3842 C3837 1.390 . S
C3842 C3838 1.392 . S
C3842 H3859 0.930 . S
C3843 O3828 1.255 . S
C3843 O3829 1.257 . S
C3844 Eu3780 2.787 . S
C3844 O3824 1.252 . S
C3844 O3827 1.268 . S
C3844 C3837 1.506 . S
C3845 C3812 1.439 . S
C3845 H3822 0.931 . S
C3845 C3846 1.374 . S
C3846 C3817 1.387 . S
C3846 H3823 0.931 . S
C3846 C3845 1.374 . S
C3847 O3831 1.249 . S
C3847 O3832 1.264 . S
C3848 C3851 1.382 . S
C3848 C3852 1.390 . S
C3848 C3855 1.506 . S
C3849 C3850 1.398 . S
C3849 C3852 1.392 . S
C3850 C3849 1.398 . S
C3850 C3853 1.372 . S
C3850 H3860 0.931 . S
C3851 C3848 1.382 . S
C3851 C3853 1.390 . S
C3851 H3861 0.931 . S
C3852 C3848 1.390 . S
C3852 C3849 1.392 . S
C3852 H3862 0.930 . S
C3853 C3850 1.372 . S
C3853 C3851 1.390 . S
C3853 H3863 0.929 . S
C3854 O3834 1.255 . S
C3854 O3835 1.257 . S
C3855 Eu3791 2.787 . S
C3855 O3830 1.252 . S
C3855 O3833 1.268 . S
C3855 C3848 1.506 . S
H3856 C3839 0.931 . S
H3857 C3840 0.931 . S
H3858 C3841 0.929 . S
H3859 C3842 0.930 . S
H3860 C3850 0.931 . S
H3861 C3851 0.931 . S
H3862 C3852 0.930 . S
H3863 C3853 0.929 . S
Eu3864 N3893 2.600 . S
Eu3864 N3899 2.562 . S
Eu3864 O3908 2.462 . S
Eu3864 O3909 2.373 . S
Eu3864 O3911 2.432 . S
Eu3864 O3912 2.291 . S
Eu3864 O3916 2.335 . S
Eu3864 O3919 2.372 . S
Eu3864 C3928 2.787 . S
C3865 N3866 1.365 . S
C3865 C3868 1.405 . S
C3865 C3872 1.448 . S
N3866 C3865 1.365 . S
N3866 C3869 1.319 . S
N3866 Eu3875 2.600 . S
C3867 C3869 1.397 . S
C3867 C3870 1.367 . S
C3867 H3887 0.931 . S
C3868 C3865 1.405 . S
C3868 C3870 1.403 . S
C3868 C3874 1.439 . S
C3869 N3866 1.319 . S
C3869 C3867 1.397 . S
C3869 H3880 0.930 . S
C3870 C3867 1.367 . S
C3870 C3868 1.403 . S
C3870 H3891 0.929 . S
C3871 C3872 1.430 . S
C3871 C3873 1.387 . S
C3871 C3877 1.404 . S
C3872 C3865 1.448 . S
C3872 C3871 1.430 . S
C3872 N3876 1.351 . S
C3873 C3871 1.387 . S
C3873 C3874 1.374 . S
C3873 H3888 0.931 . S
C3874 C3868 1.439 . S
C3874 C3873 1.374 . S
C3874 H3889 0.931 . S
Eu3875 N3866 2.600 . S
Eu3875 N3876 2.562 . S
Eu3875 O3910 2.335 . S
Eu3875 O3913 2.372 . S
Eu3875 O3914 2.462 . S
Eu3875 O3915 2.373 . S
Eu3875 O3917 2.432 . S
Eu3875 O3918 2.291 . S
Eu3875 C3939 2.787 . S
N3876 C3872 1.351 . S
N3876 Eu3875 2.562 . S
N3876 C3878 1.325 . S
C3877 C3871 1.404 . S
C3877 C3879 1.366 . S
C3877 H3885 0.930 . S
C3878 N3876 1.325 . S
C3878 C3879 1.416 . S
C3878 H3884 0.929 . S
C3879 C3877 1.366 . S
C3879 C3878 1.416 . S
C3879 H3881 0.930 . S
H3880 C3869 0.930 . S
H3881 C3879 0.930 . S
H3882 C3897 0.930 . S
H3883 C3904 0.930 . S
H3884 C3878 0.929 . S
H3885 C3877 0.930 . S
H3886 C3900 0.929 . S
H3887 C3867 0.931 . S
H3888 C3873 0.931 . S
H3889 C3874 0.931 . S
H3890 C3895 0.931 . S
H3891 C3870 0.929 . S
H3892 C3903 0.930 . S
N3893 Eu3864 2.600 . S
N3893 C3894 1.365 . S
N3893 C3897 1.319 . S
C3894 N3893 1.365 . S
C3894 C3896 1.405 . S
C3894 C3902 1.448 . S
C3895 H3890 0.931 . S
C3895 C3897 1.397 . S
C3895 C3898 1.367 . S
C3896 C3894 1.405 . S
C3896 C3898 1.403 . S
C3896 C3929 1.439 . S
C3897 H3882 0.930 . S
C3897 N3893 1.319 . S
C3897 C3895 1.397 . S
C3898 C3895 1.367 . S
C3898 C3896 1.403 . S
C3898 H3905 0.929 . S
N3899 Eu3864 2.562 . S
N3899 C3900 1.325 . S
N3899 C3902 1.351 . S
C3900 H3886 0.929 . S
C3900 N3899 1.325 . S
C3900 C3904 1.416 . S
C3901 C3902 1.430 . S
C3901 C3903 1.404 . S
C3901 C3930 1.387 . S
C3902 C3894 1.448 . S
C3902 N3899 1.351 . S
C3902 C3901 1.430 . S
C3903 H3892 0.930 . S
C3903 C3901 1.404 . S
C3903 C3904 1.366 . S
C3904 H3883 0.930 . S
C3904 C3900 1.416 . S
C3904 C3903 1.366 . S
H3905 C3898 0.929 . S
H3906 C3929 0.931 . S
H3907 C3930 0.931 . S
O3908 Eu3864 2.462 . S
O3908 C3928 1.252 . S
O3909 Eu3864 2.373 . S
O3909 C3920 1.249 . S
O3910 Eu3875 2.335 . S
O3910 C3920 1.264 . S
O3911 Eu3864 2.432 . S
O3911 C3928 1.268 . S
O3912 Eu3864 2.291 . S
O3912 C3927 1.255 . S
O3913 Eu3875 2.372 . S
O3913 C3927 1.257 . S
O3914 Eu3875 2.462 . S
O3914 C3939 1.252 . S
O3915 Eu3875 2.373 . S
O3915 C3931 1.249 . S
O3916 Eu3864 2.335 . S
O3916 C3931 1.264 . S
O3917 Eu3875 2.432 . S
O3917 C3939 1.268 . S
O3918 Eu3875 2.291 . S
O3918 C3938 1.255 . S
O3919 Eu3864 2.372 . S
O3919 C3938 1.257 . S
C3920 O3909 1.249 . S
C3920 O3910 1.264 . S
C3921 C3924 1.382 . S
C3921 C3926 1.390 . S
C3921 C3928 1.506 . S
C3922 C3923 1.398 . S
C3922 C3926 1.392 . S
C3923 C3922 1.398 . S
C3923 C3925 1.372 . S
C3923 H3940 0.931 . S
C3924 C3921 1.382 . S
C3924 C3925 1.390 . S
C3924 H3941 0.931 . S
C3925 C3923 1.372 . S
C3925 C3924 1.390 . S
C3925 H3942 0.929 . S
C3926 C3921 1.390 . S
C3926 C3922 1.392 . S
C3926 H3943 0.930 . S
C3927 O3912 1.255 . S
C3927 O3913 1.257 . S
C3928 Eu3864 2.787 . S
C3928 O3908 1.252 . S
C3928 O3911 1.268 . S
C3928 C3921 1.506 . S
C3929 C3896 1.439 . S
C3929 H3906 0.931 . S
C3929 C3930 1.374 . S
C3930 C3901 1.387 . S
C3930 H3907 0.931 . S
C3930 C3929 1.374 . S
C3931 O3915 1.249 . S
C3931 O3916 1.264 . S
C3932 C3935 1.382 . S
C3932 C3936 1.390 . S
C3932 C3939 1.506 . S
C3933 C3934 1.398 . S
C3933 C3936 1.392 . S
C3934 C3933 1.398 . S
C3934 C3937 1.372 . S
C3934 H3944 0.931 . S
C3935 C3932 1.382 . S
C3935 C3937 1.390 . S
C3935 H3945 0.931 . S
C3936 C3932 1.390 . S
C3936 C3933 1.392 . S
C3936 H3946 0.930 . S
C3937 C3934 1.372 . S
C3937 C3935 1.390 . S
C3937 H3947 0.929 . S
C3938 O3918 1.255 . S
C3938 O3919 1.257 . S
C3939 Eu3875 2.787 . S
C3939 O3914 1.252 . S
C3939 O3917 1.268 . S
C3939 C3932 1.506 . S
H3940 C3923 0.931 . S
H3941 C3924 0.931 . S
H3942 C3925 0.929 . S
H3943 C3926 0.930 . S
H3944 C3934 0.931 . S
H3945 C3935 0.931 . S
H3946 C3936 0.930 . S
H3947 C3937 0.929 . S
Eu3948 N3977 2.600 . S
Eu3948 N3983 2.562 . S
Eu3948 O3992 2.462 . S
Eu3948 O3993 2.373 . S
Eu3948 O3995 2.432 . S
Eu3948 O3996 2.291 . S
Eu3948 O4000 2.335 . S
Eu3948 O4003 2.372 . S
Eu3948 C4012 2.787 . S
C3949 N3950 1.365 . S
C3949 C3952 1.405 . S
C3949 C3956 1.448 . S
N3950 C3949 1.365 . S
N3950 C3953 1.319 . S
N3950 Eu3959 2.600 . S
C3951 C3953 1.397 . S
C3951 C3954 1.367 . S
C3951 H3971 0.931 . S
C3952 C3949 1.405 . S
C3952 C3954 1.403 . S
C3952 C3958 1.439 . S
C3953 N3950 1.319 . S
C3953 C3951 1.397 . S
C3953 H3964 0.930 . S
C3954 C3951 1.367 . S
C3954 C3952 1.403 . S
C3954 H3975 0.929 . S
C3955 C3956 1.430 . S
C3955 C3957 1.387 . S
C3955 C3961 1.404 . S
C3956 C3949 1.448 . S
C3956 C3955 1.430 . S
C3956 N3960 1.351 . S
C3957 C3955 1.387 . S
C3957 C3958 1.374 . S
C3957 H3972 0.931 . S
C3958 C3952 1.439 . S
C3958 C3957 1.374 . S
C3958 H3973 0.931 . S
Eu3959 N3950 2.600 . S
Eu3959 N3960 2.562 . S
Eu3959 O3994 2.335 . S
Eu3959 O3997 2.372 . S
Eu3959 O3998 2.462 . S
Eu3959 O3999 2.373 . S
Eu3959 O4001 2.432 . S
Eu3959 O4002 2.291 . S
Eu3959 C4023 2.787 . S
N3960 C3956 1.351 . S
N3960 Eu3959 2.562 . S
N3960 C3962 1.325 . S
C3961 C3955 1.404 . S
C3961 C3963 1.366 . S
C3961 H3969 0.930 . S
C3962 N3960 1.325 . S
C3962 C3963 1.416 . S
C3962 H3968 0.929 . S
C3963 C3961 1.366 . S
C3963 C3962 1.416 . S
C3963 H3965 0.930 . S
H3964 C3953 0.930 . S
H3965 C3963 0.930 . S
H3966 C3981 0.930 . S
H3967 C3988 0.930 . S
H3968 C3962 0.929 . S
H3969 C3961 0.930 . S
H3970 C3984 0.929 . S
H3971 C3951 0.931 . S
H3972 C3957 0.931 . S
H3973 C3958 0.931 . S
H3974 C3979 0.931 . S
H3975 C3954 0.929 . S
H3976 C3987 0.930 . S
N3977 Eu3948 2.600 . S
N3977 C3978 1.365 . S
N3977 C3981 1.319 . S
C3978 N3977 1.365 . S
C3978 C3980 1.405 . S
C3978 C3986 1.448 . S
C3979 H3974 0.931 . S
C3979 C3981 1.397 . S
C3979 C3982 1.367 . S
C3980 C3978 1.405 . S
C3980 C3982 1.403 . S
C3980 C4013 1.439 . S
C3981 H3966 0.930 . S
C3981 N3977 1.319 . S
C3981 C3979 1.397 . S
C3982 C3979 1.367 . S
C3982 C3980 1.403 . S
C3982 H3989 0.929 . S
N3983 Eu3948 2.562 . S
N3983 C3984 1.325 . S
N3983 C3986 1.351 . S
C3984 H3970 0.929 . S
C3984 N3983 1.325 . S
C3984 C3988 1.416 . S
C3985 C3986 1.430 . S
C3985 C3987 1.404 . S
C3985 C4014 1.387 . S
C3986 C3978 1.448 . S
C3986 N3983 1.351 . S
C3986 C3985 1.430 . S
C3987 H3976 0.930 . S
C3987 C3985 1.404 . S
C3987 C3988 1.366 . S
C3988 H3967 0.930 . S
C3988 C3984 1.416 . S
C3988 C3987 1.366 . S
H3989 C3982 0.929 . S
H3990 C4013 0.931 . S
H3991 C4014 0.931 . S
O3992 Eu3948 2.462 . S
O3992 C4012 1.252 . S
O3993 Eu3948 2.373 . S
O3993 C4004 1.249 . S
O3994 Eu3959 2.335 . S
O3994 C4004 1.264 . S
O3995 Eu3948 2.432 . S
O3995 C4012 1.268 . S
O3996 Eu3948 2.291 . S
O3996 C4011 1.255 . S
O3997 Eu3959 2.372 . S
O3997 C4011 1.257 . S
O3998 Eu3959 2.462 . S
O3998 C4023 1.252 . S
O3999 Eu3959 2.373 . S
O3999 C4015 1.249 . S
O4000 Eu3948 2.335 . S
O4000 C4015 1.264 . S
O4001 Eu3959 2.432 . S
O4001 C4023 1.268 . S
O4002 Eu3959 2.291 . S
O4002 C4022 1.255 . S
O4003 Eu3948 2.372 . S
O4003 C4022 1.257 . S
C4004 O3993 1.249 . S
C4004 O3994 1.264 . S
C4005 C4008 1.382 . S
C4005 C4010 1.390 . S
C4005 C4012 1.506 . S
C4006 C4007 1.398 . S
C4006 C4010 1.392 . S
C4007 C4006 1.398 . S
C4007 C4009 1.372 . S
C4007 H4024 0.931 . S
C4008 C4005 1.382 . S
C4008 C4009 1.390 . S
C4008 H4025 0.931 . S
C4009 C4007 1.372 . S
C4009 C4008 1.390 . S
C4009 H4026 0.929 . S
C4010 C4005 1.390 . S
C4010 C4006 1.392 . S
C4010 H4027 0.930 . S
C4011 O3996 1.255 . S
C4011 O3997 1.257 . S
C4012 Eu3948 2.787 . S
C4012 O3992 1.252 . S
C4012 O3995 1.268 . S
C4012 C4005 1.506 . S
C4013 C3980 1.439 . S
C4013 H3990 0.931 . S
C4013 C4014 1.374 . S
C4014 C3985 1.387 . S
C4014 H3991 0.931 . S
C4014 C4013 1.374 . S
C4015 O3999 1.249 . S
C4015 O4000 1.264 . S
C4016 C4019 1.382 . S
C4016 C4020 1.390 . S
C4016 C4023 1.506 . S
C4017 C4018 1.398 . S
C4017 C4020 1.392 . S
C4018 C4017 1.398 . S
C4018 C4021 1.372 . S
C4018 H4028 0.931 . S
C4019 C4016 1.382 . S
C4019 C4021 1.390 . S
C4019 H4029 0.931 . S
C4020 C4016 1.390 . S
C4020 C4017 1.392 . S
C4020 H4030 0.930 . S
C4021 C4018 1.372 . S
C4021 C4019 1.390 . S
C4021 H4031 0.929 . S
C4022 O4002 1.255 . S
C4022 O4003 1.257 . S
C4023 Eu3959 2.787 . S
C4023 O3998 1.252 . S
C4023 O4001 1.268 . S
C4023 C4016 1.506 . S
H4024 C4007 0.931 . S
H4025 C4008 0.931 . S
H4026 C4009 0.929 . S
H4027 C4010 0.930 . S
H4028 C4018 0.931 . S
H4029 C4019 0.931 . S
H4030 C4020 0.930 . S
H4031 C4021 0.929 . S
C4032 C4033 1.387 . S
C4032 H4036 0.950 . S
C4032 C4041 1.390 . S
C4033 C4032 1.387 . S
C4033 C4035 1.387 1_655 S
H4034 C4041 0.950 . S
C4035 C4033 1.387 1_455 S
C4035 C4037 1.390 . S
C4035 H4039 0.950 . S
H4036 C4032 0.950 . S
C4037 C4035 1.390 . S
C4037 C4038 1.387 1_455 S
C4037 H4040 0.950 . S
C4038 C4037 1.387 1_655 S
C4038 C4041 1.387 . S
H4039 C4035 0.950 . S
H4040 C4037 0.950 . S
C4041 C4032 1.390 . S
C4041 H4034 0.950 . S
C4041 C4038 1.387 . S
C4042 C4043 1.387 . S
C4042 H4046 0.950 . S
C4042 C4051 1.390 . S
C4043 C4042 1.387 . S
C4043 C4045 1.387 . S
H4044 C4051 0.950 . S
C4045 C4043 1.387 . S
C4045 C4047 1.390 . S
C4045 H4049 0.950 . S
H4046 C4042 0.950 . S
C4047 C4045 1.390 . S
C4047 C4048 1.387 . S
C4047 H4050 0.950 . S
C4048 C4047 1.387 . S
C4048 C4051 1.387 . S
H4049 C4045 0.950 . S
H4050 C4047 0.950 . S
C4051 C4042 1.390 . S
C4051 H4044 0.950 . S
C4051 C4048 1.387 . S
C4052 C4053 1.387 . S
C4052 H4056 0.950 . S
C4052 C4061 1.390 . S
C4053 C4052 1.387 . S
C4053 C4055 1.387 . S
H4054 C4061 0.950 . S
C4055 C4053 1.387 . S
C4055 C4057 1.390 . S
C4055 H4059 0.950 . S
H4056 C4052 0.950 . S
C4057 C4055 1.390 . S
C4057 C4058 1.387 . S
C4057 H4060 0.950 . S
C4058 C4057 1.387 . S
C4058 C4061 1.387 . S
H4059 C4055 0.950 . S
H4060 C4057 0.950 . S
C4061 C4052 1.390 . S
C4061 H4054 0.950 . S
C4061 C4058 1.387 . S
C4062 C4063 1.387 . S
C4062 H4066 0.950 . S
C4062 C4071 1.390 1_554 S
C4063 C4062 1.387 . S
C4063 C4065 1.387 . S
H4064 C4071 0.950 . S
C4065 C4063 1.387 . S
C4065 C4067 1.390 1_554 S
C4065 H4069 0.950 . S
H4066 C4062 0.950 . S
C4067 C4065 1.390 1_556 S
C4067 C4068 1.387 . S
C4067 H4070 0.950 . S
C4068 C4067 1.387 . S
C4068 C4071 1.387 . S
H4069 C4065 0.950 . S
H4070 C4067 0.950 . S
C4071 C4062 1.390 1_556 S
C4071 H4064 0.950 . S
C4071 C4068 1.387 . S
C4072 C4073 1.387 . S
C4072 H4076 0.950 . S
C4072 C4081 1.390 . S
C4073 C4072 1.387 . S
C4073 C4075 1.387 1_565 S
H4074 C4081 0.950 . S
C4075 C4073 1.387 1_545 S
C4075 C4077 1.390 . S
C4075 H4079 0.950 . S
H4076 C4072 0.950 . S
C4077 C4075 1.390 . S
C4077 C4078 1.387 1_545 S
C4077 H4080 0.950 . S
C4078 C4077 1.387 1_565 S
C4078 C4081 1.387 . S
H4079 C4075 0.950 . S
H4080 C4077 0.950 . S
C4081 C4072 1.390 . S
C4081 H4074 0.950 . S
C4081 C4078 1.387 . S
C4082 C4083 1.387 . S
C4082 H4086 0.950 . S
C4082 C4091 1.390 . S
C4083 C4082 1.387 . S
C4083 C4085 1.387 1_565 S
H4084 C4091 0.950 . S
C4085 C4083 1.387 1_545 S
C4085 C4087 1.390 . S
C4085 H4089 0.950 . S
H4086 C4082 0.950 . S
C4087 C4085 1.390 . S
C4087 C4088 1.387 . S
C4087 H4090 0.950 . S
C4088 C4087 1.387 . S
C4088 C4091 1.387 1_545 S
H4089 C4085 0.950 . S
H4090 C4087 0.950 . S
C4091 C4082 1.390 . S
C4091 H4084 0.950 . S
C4091 C4088 1.387 1_565 S
C4092 C4093 1.387 1_565 S
C4092 H4096 0.950 . S
C4092 C4101 1.390 1_554 S
C4093 C4092 1.387 1_545 S
C4093 C4095 1.387 . S
H4094 C4101 0.950 . S
C4095 C4093 1.387 . S
C4095 C4097 1.390 1_554 S
C4095 H4099 0.950 . S
H4096 C4092 0.950 . S
C4097 C4095 1.390 1_556 S
C4097 C4098 1.387 . S
C4097 H4100 0.950 . S
C4098 C4097 1.387 . S
C4098 C4101 1.387 1_545 S
H4099 C4095 0.950 . S
H4100 C4097 0.950 . S
C4101 C4092 1.390 1_556 S
C4101 H4094 0.950 . S
C4101 C4098 1.387 1_565 S
C4102 C4103 1.387 . S
C4102 H4106 0.950 . S
C4102 C4111 1.390 1_545 S
C4103 C4102 1.387 . S
C4103 C4105 1.387 . S
H4104 C4111 0.950 . S
C4105 C4103 1.387 . S
C4105 C4107 1.390 1_545 S
C4105 H4109 0.950 . S
H4106 C4102 0.950 . S
C4107 C4105 1.390 1_565 S
C4107 C4108 1.387 . S
C4107 H4110 0.950 . S
C4108 C4107 1.387 . S
C4108 C4111 1.387 . S
H4109 C4105 0.950 . S
H4110 C4107 0.950 . S
C4111 C4102 1.390 1_565 S
C4111 H4104 0.950 . S
C4111 C4108 1.387 . S
C4112 C4113 1.387 1_554 S
C4112 H4116 0.950 . S
C4112 C4121 1.390 . S
C4113 C4112 1.387 1_556 S
C4113 C4115 1.387 . S
H4114 C4121 0.950 . S
C4115 C4113 1.387 . S
C4115 C4117 1.390 . S
C4115 H4119 0.950 . S
H4116 C4112 0.950 . S
C4117 C4115 1.390 . S
C4117 C4118 1.387 . S
C4117 H4120 0.950 . S
C4118 C4117 1.387 . S
C4118 C4121 1.387 1_556 S
H4119 C4115 0.950 . S
H4120 C4117 0.950 . S
C4121 C4112 1.390 . S
C4121 H4114 0.950 . S
C4121 C4118 1.387 1_554 S
C4122 C4123 1.387 1_556 S
C4122 H4126 0.950 . S
C4122 C4131 1.390 1_655 S
C4123 C4122 1.387 1_554 S
C4123 C4125 1.387 . S
H4124 C4131 0.950 . S
C4125 C4123 1.387 . S
C4125 C4127 1.390 1_655 S
C4125 H4129 0.950 . S
H4126 C4122 0.950 . S
C4127 C4125 1.390 1_455 S
C4127 C4128 1.387 . S
C4127 H4130 0.950 . S
C4128 C4127 1.387 . S
C4128 C4131 1.387 1_554 S
H4129 C4125 0.950 . S
H4130 C4127 0.950 . S
C4131 C4122 1.390 1_455 S
C4131 H4124 0.950 . S
C4131 C4128 1.387 1_556 S
C4132 C4133 1.387 . S
C4132 H4136 0.950 . S
C4132 C4141 1.390 1_655 S
C4133 C4132 1.387 . S
C4133 C4135 1.387 . S
H4134 C4141 0.950 . S
C4135 C4133 1.387 . S
C4135 C4137 1.390 1_655 S
C4135 H4139 0.950 . S
H4136 C4132 0.950 . S
C4137 C4135 1.390 1_455 S
C4137 C4138 1.387 . S
C4137 H4140 0.950 . S
C4138 C4137 1.387 . S
C4138 C4141 1.387 . S
H4139 C4135 0.950 . S
H4140 C4137 0.950 . S
C4141 C4132 1.390 1_455 S
C4141 H4134 0.950 . S
C4141 C4138 1.387 . S
C4142 C4143 1.387 . S
C4142 H4146 0.950 . S
C4142 C4151 1.390 . S
C4143 C4142 1.387 . S
C4143 C4145 1.387 . S
H4144 C4151 0.950 . S
C4145 C4143 1.387 . S
C4145 C4147 1.390 . S
C4145 H4149 0.950 . S
H4146 C4142 0.950 . S
C4147 C4145 1.390 . S
C4147 C4148 1.387 . S
C4147 H4150 0.950 . S
C4148 C4147 1.387 . S
C4148 C4151 1.387 . S
H4149 C4145 0.950 . S
H4150 C4147 0.950 . S
C4151 C4142 1.390 . S
C4151 H4144 0.950 . S
C4151 C4148 1.387 . S
C4152 C4153 1.387 . S
C4152 H4156 0.950 . S
C4152 C4161 1.390 1_655 S
C4153 C4152 1.387 . S
C4153 C4155 1.387 . S
H4154 C4161 0.950 . S
C4155 C4153 1.387 . S
C4155 C4157 1.390 1_655 S
C4155 H4159 0.950 . S
H4156 C4152 0.950 . S
C4157 C4155 1.390 1_455 S
C4157 C4158 1.387 . S
C4157 H4160 0.950 . S
C4158 C4157 1.387 . S
C4158 C4161 1.387 . S
H4159 C4155 0.950 . S
H4160 C4157 0.950 . S
C4161 C4152 1.390 1_455 S
C4161 H4154 0.950 . S
C4161 C4158 1.387 . S
C4162 C4163 1.387 . S
C4162 H4166 0.950 . S
C4162 C4171 1.390 1_455 S
C4163 C4162 1.387 . S
C4163 C4165 1.387 . S
H4164 C4171 0.950 . S
C4165 C4163 1.387 . S
C4165 C4167 1.390 1_455 S
C4165 H4169 0.950 . S
H4166 C4162 0.950 . S
C4167 C4165 1.390 1_655 S
C4167 C4168 1.387 . S
C4167 H4170 0.950 . S
C4168 C4167 1.387 . S
C4168 C4171 1.387 . S
H4169 C4165 0.950 . S
H4170 C4167 0.950 . S
C4171 C4162 1.390 1_655 S
C4171 H4164 0.950 . S
C4171 C4168 1.387 . S
C4172 C4173 1.387 . S
C4172 H4176 0.950 . S
C4172 C4181 1.390 . S
C4173 C4172 1.387 . S
C4173 C4175 1.387 . S
H4174 C4181 0.950 . S
C4175 C4173 1.387 . S
C4175 C4177 1.390 . S
C4175 H4179 0.950 . S
H4176 C4172 0.950 . S
C4177 C4175 1.390 . S
C4177 C4178 1.387 . S
C4177 H4180 0.950 . S
C4178 C4177 1.387 . S
C4178 C4181 1.387 . S
H4179 C4175 0.950 . S
H4180 C4177 0.950 . S
C4181 C4172 1.390 . S
C4181 H4174 0.950 . S
C4181 C4178 1.387 . S
C4182 C4183 1.387 . S
C4182 H4186 0.950 . S
C4182 C4191 1.390 . S
C4183 C4182 1.387 . S
C4183 C4185 1.387 1_455 S
H4184 C4191 0.950 . S
C4185 C4183 1.387 1_655 S
C4185 C4187 1.390 . S
C4185 H4189 0.950 . S
H4186 C4182 0.950 . S
C4187 C4185 1.390 . S
C4187 C4188 1.387 1_655 S
C4187 H4190 0.950 . S
C4188 C4187 1.387 1_455 S
C4188 C4191 1.387 . S
H4189 C4185 0.950 . S
H4190 C4187 0.950 . S
C4191 C4182 1.390 . S
C4191 H4184 0.950 . S
C4191 C4188 1.387 . S
C4192 C4193 1.387 . S
C4192 H4196 0.950 . S
C4192 C4201 1.390 . S
C4193 C4192 1.387 . S
C4193 C4195 1.387 . S
H4194 C4201 0.950 . S
C4195 C4193 1.387 . S
C4195 C4197 1.390 . S
C4195 H4199 0.950 . S
H4196 C4192 0.950 . S
C4197 C4195 1.390 . S
C4197 C4198 1.387 . S
C4197 H4200 0.950 . S
C4198 C4197 1.387 . S
C4198 C4201 1.387 . S
H4199 C4195 0.950 . S
H4200 C4197 0.950 . S
C4201 C4192 1.390 . S
C4201 H4194 0.950 . S
C4201 C4198 1.387 . S
C4202 C4203 1.387 . S
C4202 H4206 0.950 . S
C4202 C4211 1.390 . S
C4203 C4202 1.387 . S
C4203 C4205 1.387 . S
H4204 C4211 0.950 . S
C4205 C4203 1.387 . S
C4205 C4207 1.390 . S
C4205 H4209 0.950 . S
H4206 C4202 0.950 . S
C4207 C4205 1.390 . S
C4207 C4208 1.387 . S
C4207 H4210 0.950 . S
C4208 C4207 1.387 . S
C4208 C4211 1.387 . S
H4209 C4205 0.950 . S
H4210 C4207 0.950 . S
C4211 C4202 1.390 . S
C4211 H4204 0.950 . S
C4211 C4208 1.387 . S
C4212 C4213 1.387 . S
C4212 H4216 0.950 . S
C4212 C4221 1.390 1_554 S
C4213 C4212 1.387 . S
C4213 C4215 1.387 . S
H4214 C4221 0.950 . S
C4215 C4213 1.387 . S
C4215 C4217 1.390 1_554 S
C4215 H4219 0.950 . S
H4216 C4212 0.950 . S
C4217 C4215 1.390 1_556 S
C4217 C4218 1.387 . S
C4217 H4220 0.950 . S
C4218 C4217 1.387 . S
C4218 C4221 1.387 . S
H4219 C4215 0.950 . S
H4220 C4217 0.950 . S
C4221 C4212 1.390 1_556 S
C4221 H4214 0.950 . S
C4221 C4218 1.387 . S
C4222 C4223 1.387 . S
C4222 H4226 0.950 . S
C4222 C4231 1.390 . S
C4223 C4222 1.387 . S
C4223 C4225 1.387 1_545 S
H4224 C4231 0.950 . S
C4225 C4223 1.387 1_565 S
C4225 C4227 1.390 . S
C4225 H4229 0.950 . S
H4226 C4222 0.950 . S
C4227 C4225 1.390 . S
C4227 C4228 1.387 1_565 S
C4227 H4230 0.950 . S
C4228 C4227 1.387 1_545 S
C4228 C4231 1.387 . S
H4229 C4225 0.950 . S
H4230 C4227 0.950 . S
C4231 C4222 1.390 . S
C4231 H4224 0.950 . S
C4231 C4228 1.387 . S
C4232 C4233 1.387 . S
C4232 H4236 0.950 . S
C4232 C4241 1.390 1_545 S
C4233 C4232 1.387 . S
C4233 C4235 1.387 . S
H4234 C4241 0.950 . S
C4235 C4233 1.387 . S
C4235 C4237 1.390 1_545 S
C4235 H4239 0.950 . S
H4236 C4232 0.950 . S
C4237 C4235 1.390 1_565 S
C4237 C4238 1.387 . S
C4237 H4240 0.950 . S
C4238 C4237 1.387 . S
C4238 C4241 1.387 . S
H4239 C4235 0.950 . S
H4240 C4237 0.950 . S
C4241 C4232 1.390 1_565 S
C4241 H4234 0.950 . S
C4241 C4238 1.387 . S
C4242 C4243 1.387 1_545 S
C4242 H4246 0.950 . S
C4242 C4251 1.390 1_556 S
C4243 C4242 1.387 1_565 S
C4243 C4245 1.387 . S
H4244 C4251 0.950 . S
C4245 C4243 1.387 . S
C4245 C4247 1.390 1_556 S
C4245 H4249 0.950 . S
H4246 C4242 0.950 . S
C4247 C4245 1.390 1_554 S
C4247 C4248 1.387 . S
C4247 H4250 0.950 . S
C4248 C4247 1.387 . S
C4248 C4251 1.387 1_565 S
H4249 C4245 0.950 . S
H4250 C4247 0.950 . S
C4251 C4242 1.390 1_554 S
C4251 H4244 0.950 . S
C4251 C4248 1.387 1_545 S
C4252 C4253 1.387 . S
C4252 H4256 0.950 . S
C4252 C4261 1.390 1_545 S
C4253 C4252 1.387 . S
C4253 C4255 1.387 . S
H4254 C4261 0.950 . S
C4255 C4253 1.387 . S
C4255 C4257 1.390 1_545 S
C4255 H4259 0.950 . S
H4256 C4252 0.950 . S
C4257 C4255 1.390 1_565 S
C4257 C4258 1.387 . S
C4257 H4260 0.950 . S
C4258 C4257 1.387 . S
C4258 C4261 1.387 . S
H4259 C4255 0.950 . S
H4260 C4257 0.950 . S
C4261 C4252 1.390 1_565 S
C4261 H4254 0.950 . S
C4261 C4258 1.387 . S
C4262 C4263 1.387 1_556 S
C4262 H4266 0.950 . S
C4262 C4271 1.390 . S
C4263 C4262 1.387 1_554 S
C4263 C4265 1.387 . S
H4264 C4271 0.950 . S
C4265 C4263 1.387 . S
C4265 C4267 1.390 . S
C4265 H4269 0.950 . S
H4266 C4262 0.950 . S
C4267 C4265 1.390 . S
C4267 C4268 1.387 . S
C4267 H4270 0.950 . S
C4268 C4267 1.387 . S
C4268 C4271 1.387 1_554 S
H4269 C4265 0.950 . S
H4270 C4267 0.950 . S
C4271 C4262 1.390 . S
C4271 H4264 0.950 . S
C4271 C4268 1.387 1_556 S
C4272 C4273 1.387 1_554 S
C4272 H4276 0.950 . S
C4272 C4281 1.390 1_655 S
C4273 C4272 1.387 1_556 S
C4273 C4275 1.387 . S
H4274 C4281 0.950 . S
C4275 C4273 1.387 . S
C4275 C4277 1.390 1_655 S
C4275 H4279 0.950 . S
H4276 C4272 0.950 . S
C4277 C4275 1.390 1_455 S
C4277 C4278 1.387 . S
C4277 H4280 0.950 . S
C4278 C4277 1.387 . S
C4278 C4281 1.387 1_556 S
H4279 C4275 0.950 . S
H4280 C4277 0.950 . S
C4281 C4272 1.390 1_455 S
C4281 H4274 0.950 . S
C4281 C4278 1.387 1_554 S
C4282 C4283 1.387 . S
C4282 H4286 0.950 . S
C4282 C4291 1.390 1_655 S
C4283 C4282 1.387 . S
C4283 C4285 1.387 . S
H4284 C4291 0.950 . S
C4285 C4283 1.387 . S
C4285 C4287 1.390 1_655 S
C4285 H4289 0.950 . S
H4286 C4282 0.950 . S
C4287 C4285 1.390 1_455 S
C4287 C4288 1.387 . S
C4287 H4290 0.950 . S
C4288 C4287 1.387 . S
C4288 C4291 1.387 . S
H4289 C4285 0.950 . S
H4290 C4287 0.950 . S
C4291 C4282 1.390 1_455 S
C4291 H4284 0.950 . S
C4291 C4288 1.387 . S
C4292 C4293 1.387 . S
C4292 H4296 0.950 . S
C4292 C4301 1.390 . S
C4293 C4292 1.387 . S
C4293 C4295 1.387 . S
H4294 C4301 0.950 . S
C4295 C4293 1.387 . S
C4295 C4297 1.390 . S
C4295 H4299 0.950 . S
H4296 C4292 0.950 . S
C4297 C4295 1.390 . S
C4297 C4298 1.387 . S
C4297 H4300 0.950 . S
C4298 C4297 1.387 . S
C4298 C4301 1.387 . S
H4299 C4295 0.950 . S
H4300 C4297 0.950 . S
C4301 C4292 1.390 . S
C4301 H4294 0.950 . S
C4301 C4298 1.387 . S
C4302 C4303 1.387 . S
C4302 H4306 0.950 . S
C4302 C4311 1.390 1_655 S
C4303 C4302 1.387 . S
C4303 C4305 1.387 . S
H4304 C4311 0.950 . S
C4305 C4303 1.387 . S
C4305 C4307 1.390 1_655 S
C4305 H4309 0.950 . S
H4306 C4302 0.950 . S
C4307 C4305 1.390 1_455 S
C4307 C4308 1.387 . S
C4307 H4310 0.950 . S
C4308 C4307 1.387 . S
C4308 C4311 1.387 . S
H4309 C4305 0.950 . S
H4310 C4307 0.950 . S
C4311 C4302 1.390 1_455 S
C4311 H4304 0.950 . S
C4311 C4308 1.387 . S
C4312 C4313 1.387 . S
C4312 H4316 0.950 . S
C4312 C4321 1.390 1_455 S
C4313 C4312 1.387 . S
C4313 C4315 1.387 . S
H4314 C4321 0.950 . S
C4315 C4313 1.387 . S
C4315 C4317 1.390 1_455 S
C4315 H4319 0.950 . S
H4316 C4312 0.950 . S
C4317 C4315 1.390 1_655 S
C4317 C4318 1.387 . S
C4317 H4320 0.950 . S
C4318 C4317 1.387 . S
C4318 C4321 1.387 . S
H4319 C4315 0.950 . S
H4320 C4317 0.950 . S
C4321 C4312 1.390 1_655 S
C4321 H4314 0.950 . S
C4321 C4318 1.387 . S
C4322 C4323 1.387 . S
C4322 H4326 0.950 . S
C4322 C4331 1.390 . S
C4323 C4322 1.387 . S
C4323 C4325 1.387 . S
H4324 C4331 0.950 . S
C4325 C4323 1.387 . S
C4325 C4327 1.390 . S
C4325 H4329 0.950 . S
H4326 C4322 0.950 . S
C4327 C4325 1.390 . S
C4327 C4328 1.387 . S
C4327 H4330 0.950 . S
C4328 C4327 1.387 . S
C4328 C4331 1.387 . S
H4329 C4325 0.950 . S
H4330 C4327 0.950 . S
C4331 C4322 1.390 . S
C4331 H4324 0.950 . S
C4331 C4328 1.387 . S
C4332 C4333 1.387 . S
C4332 H4336 0.950 . S
C4332 C4341 1.390 1_545 S
C4333 C4332 1.387 . S
C4333 C4335 1.387 . S
H4334 C4341 0.950 . S
C4335 C4333 1.387 . S
C4335 C4337 1.390 1_545 S
C4335 H4339 0.950 . S
H4336 C4332 0.950 . S
C4337 C4335 1.390 1_565 S
C4337 C4338 1.387 . S
C4337 H4340 0.950 . S
C4338 C4337 1.387 . S
C4338 C4341 1.387 . S
H4339 C4335 0.950 . S
H4340 C4337 0.950 . S
C4341 C4332 1.390 1_565 S
C4341 H4334 0.950 . S
C4341 C4338 1.387 . S
C4342 C4343 1.387 . S
C4342 H4346 0.950 . S
C4342 C4351 1.390 1_554 S
C4343 C4342 1.387 . S
C4343 C4345 1.387 . S
H4344 C4351 0.950 . S
C4345 C4343 1.387 . S
C4345 C4347 1.390 1_554 S
C4345 H4349 0.950 . S
H4346 C4342 0.950 . S
C4347 C4345 1.390 1_556 S
C4347 C4348 1.387 . S
C4347 H4350 0.950 . S
C4348 C4347 1.387 . S
C4348 C4351 1.387 . S
H4349 C4345 0.950 . S
H4350 C4347 0.950 . S
C4351 C4342 1.390 1_556 S
C4351 H4344 0.950 . S
C4351 C4348 1.387 . S
C4352 C4353 1.387 1_655 S
C4352 H4356 0.950 . S
C4352 C4361 1.390 1_545 S
C4353 C4352 1.387 1_455 S
C4353 C4355 1.387 . S
H4354 C4361 0.950 . S
C4355 C4353 1.387 . S
C4355 C4357 1.390 1_545 S
C4355 H4359 0.950 . S
H4356 C4352 0.950 . S
C4357 C4355 1.390 1_565 S
C4357 C4358 1.387 . S
C4357 H4360 0.950 . S
C4358 C4357 1.387 . S
C4358 C4361 1.387 1_455 S
H4359 C4355 0.950 . S
H4360 C4357 0.950 . S
C4361 C4352 1.390 1_565 S
C4361 H4354 0.950 . S
C4361 C4358 1.387 1_655 S
C4362 C4363 1.387 . S
C4362 H4366 0.950 . S
C4362 C4371 1.390 . S
C4363 C4362 1.387 . S
C4363 C4365 1.387 . S
H4364 C4371 0.950 . S
C4365 C4363 1.387 . S
C4365 C4367 1.390 . S
C4365 H4369 0.950 . S
H4366 C4362 0.950 . S
C4367 C4365 1.390 . S
C4367 C4368 1.387 . S
C4367 H4370 0.950 . S
C4368 C4367 1.387 . S
C4368 C4371 1.387 . S
H4369 C4365 0.950 . S
H4370 C4367 0.950 . S
C4371 C4362 1.390 . S
C4371 H4364 0.950 . S
C4371 C4368 1.387 . S
C4372 C4373 1.387 . S
C4372 H4376 0.950 . S
C4372 C4381 1.390 1_556 S
C4373 C4372 1.387 . S
C4373 C4375 1.387 . S
H4374 C4381 0.950 . S
C4375 C4373 1.387 . S
C4375 C4377 1.390 1_556 S
C4375 H4379 0.950 . S
H4376 C4372 0.950 . S
C4377 C4375 1.390 1_554 S
C4377 C4378 1.387 . S
C4377 H4380 0.950 . S
C4378 C4377 1.387 . S
C4378 C4381 1.387 . S
H4379 C4375 0.950 . S
H4380 C4377 0.950 . S
C4381 C4372 1.390 1_554 S
C4381 H4374 0.950 . S
C4381 C4378 1.387 . S
C4382 C4383 1.387 . S
C4382 H4386 0.950 . S
C4382 C4391 1.390 . S
C4383 C4382 1.387 . S
C4383 C4385 1.387 . S
H4384 C4391 0.950 . S
C4385 C4383 1.387 . S
C4385 C4387 1.390 . S
C4385 H4389 0.950 . S
H4386 C4382 0.950 . S
C4387 C4385 1.390 . S
C4387 C4388 1.387 . S
C4387 H4390 0.950 . S
C4388 C4387 1.387 . S
C4388 C4391 1.387 . S
H4389 C4385 0.950 . S
H4390 C4387 0.950 . S
C4391 C4382 1.390 . S
C4391 H4384 0.950 . S
C4391 C4388 1.387 . S
C4392 C4393 1.387 . S
C4392 H4396 0.950 . S
C4392 C4401 1.390 . S
C4393 C4392 1.387 . S
C4393 C4395 1.387 . S
H4394 C4401 0.950 . S
C4395 C4393 1.387 . S
C4395 C4397 1.390 . S
C4395 H4399 0.950 . S
H4396 C4392 0.950 . S
C4397 C4395 1.390 . S
C4397 C4398 1.387 . S
C4397 H4400 0.950 . S
C4398 C4397 1.387 . S
C4398 C4401 1.387 . S
H4399 C4395 0.950 . S
H4400 C4397 0.950 . S
C4401 C4392 1.390 . S
C4401 H4394 0.950 . S
C4401 C4398 1.387 . S
C4402 C4403 1.387 . S
C4402 H4406 0.950 . S
C4402 C4411 1.390 . S
C4403 C4402 1.387 . S
C4403 C4405 1.387 . S
H4404 C4411 0.950 . S
C4405 C4403 1.387 . S
C4405 C4407 1.390 . S
C4405 H4409 0.950 . S
H4406 C4402 0.950 . S
C4407 C4405 1.390 . S
C4407 C4408 1.387 . S
C4407 H4410 0.950 . S
C4408 C4407 1.387 . S
C4408 C4411 1.387 . S
H4409 C4405 0.950 . S
H4410 C4407 0.950 . S
C4411 C4402 1.390 . S
C4411 H4404 0.950 . S
C4411 C4408 1.387 . S
C4412 C4413 1.387 . S
C4412 H4416 0.950 . S
C4412 C4421 1.390 . S
C4413 C4412 1.387 . S
C4413 C4415 1.387 . S
H4414 C4421 0.950 . S
C4415 C4413 1.387 . S
C4415 C4417 1.390 . S
C4415 H4419 0.950 . S
H4416 C4412 0.950 . S
C4417 C4415 1.390 . S
C4417 C4418 1.387 . S
C4417 H4420 0.950 . S
C4418 C4417 1.387 . S
C4418 C4421 1.387 . S
H4419 C4415 0.950 . S
H4420 C4417 0.950 . S
C4421 C4412 1.390 . S
C4421 H4414 0.950 . S
C4421 C4418 1.387 . S
C4422 C4423 1.387 . S
C4422 H4426 0.950 . S
C4422 C4431 1.390 1_565 S
C4423 C4422 1.387 . S
C4423 C4425 1.387 . S
H4424 C4431 0.950 . S
C4425 C4423 1.387 . S
C4425 C4427 1.390 1_565 S
C4425 H4429 0.950 . S
H4426 C4422 0.950 . S
C4427 C4425 1.390 1_545 S
C4427 C4428 1.387 . S
C4427 H4430 0.950 . S
C4428 C4427 1.387 . S
C4428 C4431 1.387 . S
H4429 C4425 0.950 . S
H4430 C4427 0.950 . S
C4431 C4422 1.390 1_545 S
C4431 H4424 0.950 . S
C4431 C4428 1.387 . S
C4432 C4433 1.387 . S
C4432 H4436 0.950 . S
C4432 C4441 1.390 1_556 S
C4433 C4432 1.387 . S
C4433 C4435 1.387 . S
H4434 C4441 0.950 . S
C4435 C4433 1.387 . S
C4435 C4437 1.390 1_556 S
C4435 H4439 0.950 . S
H4436 C4432 0.950 . S
C4437 C4435 1.390 1_554 S
C4437 C4438 1.387 . S
C4437 H4440 0.950 . S
C4438 C4437 1.387 . S
C4438 C4441 1.387 . S
H4439 C4435 0.950 . S
H4440 C4437 0.950 . S
C4441 C4432 1.390 1_554 S
C4441 H4434 0.950 . S
C4441 C4438 1.387 . S
C4442 C4443 1.387 . S
C4442 H4446 0.950 . S
C4442 C4451 1.390 1_545 S
C4443 C4442 1.387 . S
C4443 C4445 1.387 1_655 S
H4444 C4451 0.950 . S
C4445 C4443 1.387 1_455 S
C4445 C4447 1.390 1_545 S
C4445 H4449 0.950 . S
H4446 C4442 0.950 . S
C4447 C4445 1.390 1_565 S
C4447 C4448 1.387 1_455 S
C4447 H4450 0.950 . S
C4448 C4447 1.387 1_655 S
C4448 C4451 1.387 . S
H4449 C4445 0.950 . S
H4450 C4447 0.950 . S
C4451 C4442 1.390 1_565 S
C4451 H4444 0.950 . S
C4451 C4448 1.387 . S
C4452 C4453 1.387 . S
C4452 H4456 0.950 . S
C4452 C4461 1.390 . S
C4453 C4452 1.387 . S
C4453 C4455 1.387 . S
H4454 C4461 0.950 . S
C4455 C4453 1.387 . S
C4455 C4457 1.390 . S
C4455 H4459 0.950 . S
H4456 C4452 0.950 . S
C4457 C4455 1.390 . S
C4457 C4458 1.387 . S
C4457 H4460 0.950 . S
C4458 C4457 1.387 . S
C4458 C4461 1.387 . S
H4459 C4455 0.950 . S
H4460 C4457 0.950 . S
C4461 C4452 1.390 . S
C4461 H4454 0.950 . S
C4461 C4458 1.387 . S
C4462 C4463 1.387 . S
C4462 H4466 0.950 . S
C4462 C4471 1.390 1_554 S
C4463 C4462 1.387 . S
C4463 C4465 1.387 . S
H4464 C4471 0.950 . S
C4465 C4463 1.387 . S
C4465 C4467 1.390 1_554 S
C4465 H4469 0.950 . S
H4466 C4462 0.950 . S
C4467 C4465 1.390 1_556 S
C4467 C4468 1.387 . S
C4467 H4470 0.950 . S
C4468 C4467 1.387 . S
C4468 C4471 1.387 . S
H4469 C4465 0.950 . S
H4470 C4467 0.950 . S
C4471 C4462 1.390 1_556 S
C4471 H4464 0.950 . S
C4471 C4468 1.387 . S
C4472 C4473 1.387 . S
C4472 H4476 0.950 . S
C4472 C4481 1.390 . S
C4473 C4472 1.387 . S
C4473 C4475 1.387 . S
H4474 C4481 0.950 . S
C4475 C4473 1.387 . S
C4475 C4477 1.390 . S
C4475 H4479 0.950 . S
H4476 C4472 0.950 . S
C4477 C4475 1.390 . S
C4477 C4478 1.387 . S
C4477 H4480 0.950 . S
C4478 C4477 1.387 . S
C4478 C4481 1.387 . S
H4479 C4475 0.950 . S
H4480 C4477 0.950 . S
C4481 C4472 1.390 . S
C4481 H4474 0.950 . S
C4481 C4478 1.387 . S
C4482 C4483 1.387 . S
C4482 H4486 0.950 . S
C4482 C4491 1.390 . S
C4483 C4482 1.387 . S
C4483 C4485 1.387 . S
H4484 C4491 0.950 . S
C4485 C4483 1.387 . S
C4485 C4487 1.390 . S
C4485 H4489 0.950 . S
H4486 C4482 0.950 . S
C4487 C4485 1.390 . S
C4487 C4488 1.387 . S
C4487 H4490 0.950 . S
C4488 C4487 1.387 . S
C4488 C4491 1.387 . S
H4489 C4485 0.950 . S
H4490 C4487 0.950 . S
C4491 C4482 1.390 . S
C4491 H4484 0.950 . S
C4491 C4488 1.387 . S
C4492 C4493 1.387 . S
C4492 H4496 0.950 . S
C4492 C4501 1.390 . S
C4493 C4492 1.387 . S
C4493 C4495 1.387 . S
H4494 C4501 0.950 . S
C4495 C4493 1.387 . S
C4495 C4497 1.390 . S
C4495 H4499 0.950 . S
H4496 C4492 0.950 . S
C4497 C4495 1.390 . S
C4497 C4498 1.387 . S
C4497 H4500 0.950 . S
C4498 C4497 1.387 . S
C4498 C4501 1.387 . S
H4499 C4495 0.950 . S
H4500 C4497 0.950 . S
C4501 C4492 1.390 . S
C4501 H4494 0.950 . S
C4501 C4498 1.387 . S
C4502 C4503 1.387 . S
C4502 H4506 0.950 . S
C4502 C4511 1.390 . S
C4503 C4502 1.387 . S
C4503 C4505 1.387 . S
H4504 C4511 0.950 . S
C4505 C4503 1.387 . S
C4505 C4507 1.390 . S
C4505 H4509 0.950 . S
H4506 C4502 0.950 . S
C4507 C4505 1.390 . S
C4507 C4508 1.387 . S
C4507 H4510 0.950 . S
C4508 C4507 1.387 . S
C4508 C4511 1.387 . S
H4509 C4505 0.950 . S
H4510 C4507 0.950 . S
C4511 C4502 1.390 . S
C4511 H4504 0.950 . S
C4511 C4508 1.387 . S
C4512 C4513 1.387 . S
C4512 H4516 0.950 . S
C4512 C4521 1.390 . S
C4513 C4512 1.387 . S
C4513 C4515 1.387 . S
H4514 C4521 0.950 . S
C4515 C4513 1.387 . S
C4515 C4517 1.390 . S
C4515 H4519 0.950 . S
H4516 C4512 0.950 . S
C4517 C4515 1.390 . S
C4517 C4518 1.387 . S
C4517 H4520 0.950 . S
C4518 C4517 1.387 . S
C4518 C4521 1.387 . S
H4519 C4515 0.950 . S
H4520 C4517 0.950 . S
C4521 C4512 1.390 . S
C4521 H4514 0.950 . S
C4521 C4518 1.387 . S
C4522 C4523 1.387 . S
C4522 H4526 0.950 . S
C4522 C4531 1.390 . S
C4523 C4522 1.387 . S
C4523 C4525 1.387 . S
H4524 C4531 0.950 . S
C4525 C4523 1.387 . S
C4525 C4527 1.390 . S
C4525 H4529 0.950 . S
H4526 C4522 0.950 . S
C4527 C4525 1.390 . S
C4527 C4528 1.387 . S
C4527 H4530 0.950 . S
C4528 C4527 1.387 . S
C4528 C4531 1.387 . S
H4529 C4525 0.950 . S
H4530 C4527 0.950 . S
C4531 C4522 1.390 . S
C4531 H4524 0.950 . S
C4531 C4528 1.387 . S
C4532 C4533 1.387 . S
C4532 H4536 0.950 . S
C4532 C4541 1.390 . S
C4533 C4532 1.387 . S
C4533 C4535 1.387 . S
H4534 C4541 0.950 . S
C4535 C4533 1.387 . S
C4535 C4537 1.390 . S
C4535 H4539 0.950 . S
H4536 C4532 0.950 . S
C4537 C4535 1.390 . S
C4537 C4538 1.387 . S
C4537 H4540 0.950 . S
C4538 C4537 1.387 . S
C4538 C4541 1.387 . S
H4539 C4535 0.950 . S
H4540 C4537 0.950 . S
C4541 C4532 1.390 . S
C4541 H4534 0.950 . S
C4541 C4538 1.387 . S
C4542 C4543 1.387 . S
C4542 H4546 0.950 . S
C4542 C4551 1.390 . S
C4543 C4542 1.387 . S
C4543 C4545 1.387 . S
H4544 C4551 0.950 . S
C4545 C4543 1.387 . S
C4545 C4547 1.390 . S
C4545 H4549 0.950 . S
H4546 C4542 0.950 . S
C4547 C4545 1.390 . S
C4547 C4548 1.387 . S
C4547 H4550 0.950 . S
C4548 C4547 1.387 . S
C4548 C4551 1.387 . S
H4549 C4545 0.950 . S
H4550 C4547 0.950 . S
C4551 C4542 1.390 . S
C4551 H4544 0.950 . S
C4551 C4548 1.387 . S
C4552 C4553 1.387 . S
C4552 H4556 0.950 . S
C4552 C4561 1.390 . S
C4553 C4552 1.387 . S
C4553 C4555 1.387 . S
H4554 C4561 0.950 . S
C4555 C4553 1.387 . S
C4555 C4557 1.390 . S
C4555 H4559 0.950 . S
H4556 C4552 0.950 . S
C4557 C4555 1.390 . S
C4557 C4558 1.387 . S
C4557 H4560 0.950 . S
C4558 C4557 1.387 . S
C4558 C4561 1.387 . S
H4559 C4555 0.950 . S
H4560 C4557 0.950 . S
C4561 C4552 1.390 . S
C4561 H4554 0.950 . S
C4561 C4558 1.387 . S
C4562 C4563 1.387 . S
C4562 H4566 0.950 . S
C4562 C4571 1.390 . S
C4563 C4562 1.387 . S
C4563 C4565 1.387 . S
H4564 C4571 0.950 . S
C4565 C4563 1.387 . S
C4565 C4567 1.390 . S
C4565 H4569 0.950 . S
H4566 C4562 0.950 . S
C4567 C4565 1.390 . S
C4567 C4568 1.387 . S
C4567 H4570 0.950 . S
C4568 C4567 1.387 . S
C4568 C4571 1.387 . S
H4569 C4565 0.950 . S
H4570 C4567 0.950 . S
C4571 C4562 1.390 . S
C4571 H4564 0.950 . S
C4571 C4568 1.387 . S
C4572 C4573 1.387 . S
C4572 H4576 0.950 . S
C4572 C4581 1.390 . S
C4573 C4572 1.387 . S
C4573 C4575 1.387 . S
H4574 C4581 0.950 . S
C4575 C4573 1.387 . S
C4575 C4577 1.390 . S
C4575 H4579 0.950 . S
H4576 C4572 0.950 . S
C4577 C4575 1.390 . S
C4577 C4578 1.387 . S
C4577 H4580 0.950 . S
C4578 C4577 1.387 . S
C4578 C4581 1.387 . S
H4579 C4575 0.950 . S
H4580 C4577 0.950 . S
C4581 C4572 1.390 . S
C4581 H4574 0.950 . S
C4581 C4578 1.387 . S
C4582 C4583 1.387 . S
C4582 H4586 0.950 . S
C4582 C4591 1.390 . S
C4583 C4582 1.387 . S
C4583 C4585 1.387 . S
H4584 C4591 0.950 . S
C4585 C4583 1.387 . S
C4585 C4587 1.390 . S
C4585 H4589 0.950 . S
H4586 C4582 0.950 . S
C4587 C4585 1.390 . S
C4587 C4588 1.387 . S
C4587 H4590 0.950 . S
C4588 C4587 1.387 . S
C4588 C4591 1.387 . S
H4589 C4585 0.950 . S
H4590 C4587 0.950 . S
C4591 C4582 1.390 . S
C4591 H4584 0.950 . S
C4591 C4588 1.387 . S
C4592 C4593 1.387 . S
C4592 H4596 0.950 . S
C4592 C4601 1.390 . S
C4593 C4592 1.387 . S
C4593 C4595 1.387 . S
H4594 C4601 0.950 . S
C4595 C4593 1.387 . S
C4595 C4597 1.390 . S
C4595 H4599 0.950 . S
H4596 C4592 0.950 . S
C4597 C4595 1.390 . S
C4597 C4598 1.387 . S
C4597 H4600 0.950 . S
C4598 C4597 1.387 . S
C4598 C4601 1.387 . S
H4599 C4595 0.950 . S
H4600 C4597 0.950 . S
C4601 C4592 1.390 . S
C4601 H4594 0.950 . S
C4601 C4598 1.387 . S
C4602 C4603 1.387 . S
C4602 H4606 0.950 . S
C4602 C4611 1.390 . S
C4603 C4602 1.387 . S
C4603 C4605 1.387 . S
H4604 C4611 0.950 . S
C4605 C4603 1.387 . S
C4605 C4607 1.390 . S
C4605 H4609 0.950 . S
H4606 C4602 0.950 . S
C4607 C4605 1.390 . S
C4607 C4608 1.387 . S
C4607 H4610 0.950 . S
C4608 C4607 1.387 . S
C4608 C4611 1.387 . S
H4609 C4605 0.950 . S
H4610 C4607 0.950 . S
C4611 C4602 1.390 . S
C4611 H4604 0.950 . S
C4611 C4608 1.387 . S
C4612 C4613 1.387 . S
C4612 H4616 0.950 . S
C4612 C4621 1.390 . S
C4613 C4612 1.387 . S
C4613 C4615 1.387 . S
H4614 C4621 0.950 . S
C4615 C4613 1.387 . S
C4615 C4617 1.390 . S
C4615 H4619 0.950 . S
H4616 C4612 0.950 . S
C4617 C4615 1.390 . S
C4617 C4618 1.387 . S
C4617 H4620 0.950 . S
C4618 C4617 1.387 . S
C4618 C4621 1.387 . S
H4619 C4615 0.950 . S
H4620 C4617 0.950 . S
C4621 C4612 1.390 . S
C4621 H4614 0.950 . S
C4621 C4618 1.387 . S
C4622 C4623 1.387 . S
C4622 H4626 0.950 . S
C4622 C4631 1.390 . S
C4623 C4622 1.387 . S
C4623 C4625 1.387 . S
H4624 C4631 0.950 . S
C4625 C4623 1.387 . S
C4625 C4627 1.390 . S
C4625 H4629 0.950 . S
H4626 C4622 0.950 . S
C4627 C4625 1.390 . S
C4627 C4628 1.387 . S
C4627 H4630 0.950 . S
C4628 C4627 1.387 . S
C4628 C4631 1.387 . S
H4629 C4625 0.950 . S
H4630 C4627 0.950 . S
C4631 C4622 1.390 . S
C4631 H4624 0.950 . S
C4631 C4628 1.387 . S
C4632 C4633 1.387 . S
C4632 H4636 0.950 . S
C4632 C4641 1.390 . S
C4633 C4632 1.387 . S
C4633 C4635 1.387 . S
H4634 C4641 0.950 . S
C4635 C4633 1.387 . S
C4635 C4637 1.390 . S
C4635 H4639 0.950 . S
H4636 C4632 0.950 . S
C4637 C4635 1.390 . S
C4637 C4638 1.387 . S
C4637 H4640 0.950 . S
C4638 C4637 1.387 . S
C4638 C4641 1.387 . S
H4639 C4635 0.950 . S
H4640 C4637 0.950 . S
C4641 C4632 1.390 . S
C4641 H4634 0.950 . S
C4641 C4638 1.387 . S
C4642 C4643 1.387 . S
C4642 H4646 0.950 . S
C4642 C4651 1.390 . S
C4643 C4642 1.387 . S
C4643 C4645 1.387 . S
H4644 C4651 0.950 . S
C4645 C4643 1.387 . S
C4645 C4647 1.390 . S
C4645 H4649 0.950 . S
H4646 C4642 0.950 . S
C4647 C4645 1.390 . S
C4647 C4648 1.387 . S
C4647 H4650 0.950 . S
C4648 C4647 1.387 . S
C4648 C4651 1.387 . S
H4649 C4645 0.950 . S
H4650 C4647 0.950 . S
C4651 C4642 1.390 . S
C4651 H4644 0.950 . S
C4651 C4648 1.387 . S
C4652 C4653 1.387 . S
C4652 H4656 0.950 . S
C4652 C4661 1.390 . S
C4653 C4652 1.387 . S
C4653 C4655 1.387 . S
H4654 C4661 0.950 . S
C4655 C4653 1.387 . S
C4655 C4657 1.390 . S
C4655 H4659 0.950 . S
H4656 C4652 0.950 . S
C4657 C4655 1.390 . S
C4657 C4658 1.387 . S
C4657 H4660 0.950 . S
C4658 C4657 1.387 . S
C4658 C4661 1.387 . S
H4659 C4655 0.950 . S
H4660 C4657 0.950 . S
C4661 C4652 1.390 . S
C4661 H4654 0.950 . S
C4661 C4658 1.387 . S
C4662 C4663 1.387 . S
C4662 H4666 0.950 . S
C4662 C4671 1.390 . S
C4663 C4662 1.387 . S
C4663 C4665 1.387 . S
H4664 C4671 0.950 . S
C4665 C4663 1.387 . S
C4665 C4667 1.390 . S
C4665 H4669 0.950 . S
H4666 C4662 0.950 . S
C4667 C4665 1.390 . S
C4667 C4668 1.387 . S
C4667 H4670 0.950 . S
C4668 C4667 1.387 . S
C4668 C4671 1.387 . S
H4669 C4665 0.950 . S
H4670 C4667 0.950 . S
C4671 C4662 1.390 . S
C4671 H4664 0.950 . S
C4671 C4668 1.387 . S
C4672 C4673 1.387 . S
C4672 H4676 0.950 . S
C4672 C4681 1.390 . S
C4673 C4672 1.387 . S
C4673 C4675 1.387 . S
H4674 C4681 0.950 . S
C4675 C4673 1.387 . S
C4675 C4677 1.390 . S
C4675 H4679 0.950 . S
H4676 C4672 0.950 . S
C4677 C4675 1.390 . S
C4677 C4678 1.387 . S
C4677 H4680 0.950 . S
C4678 C4677 1.387 . S
C4678 C4681 1.387 . S
H4679 C4675 0.950 . S
H4680 C4677 0.950 . S
C4681 C4672 1.390 . S
C4681 H4674 0.950 . S
C4681 C4678 1.387 . S
C4682 C4683 1.387 . S
C4682 H4686 0.950 . S
C4682 C4691 1.390 . S
C4683 C4682 1.387 . S
C4683 C4685 1.387 . S
H4684 C4691 0.950 . S
C4685 C4683 1.387 . S
C4685 C4687 1.390 . S
C4685 H4689 0.950 . S
H4686 C4682 0.950 . S
C4687 C4685 1.390 . S
C4687 C4688 1.387 . S
C4687 H4690 0.950 . S
C4688 C4687 1.387 . S
C4688 C4691 1.387 . S
H4689 C4685 0.950 . S
H4690 C4687 0.950 . S
C4691 C4682 1.390 . S
C4691 H4684 0.950 . S
C4691 C4688 1.387 . S
C4692 C4693 1.387 . S
C4692 H4696 0.950 . S
C4692 C4701 1.390 . S
C4693 C4692 1.387 . S
C4693 C4695 1.387 . S
H4694 C4701 0.950 . S
C4695 C4693 1.387 . S
C4695 C4697 1.390 . S
C4695 H4699 0.950 . S
H4696 C4692 0.950 . S
C4697 C4695 1.390 . S
C4697 C4698 1.387 . S
C4697 H4700 0.950 . S
C4698 C4697 1.387 . S
C4698 C4701 1.387 . S
H4699 C4695 0.950 . S
H4700 C4697 0.950 . S
C4701 C4692 1.390 . S
C4701 H4694 0.950 . S
C4701 C4698 1.387 . S
C4702 C4703 1.387 . S
C4702 H4706 0.950 . S
C4702 C4711 1.390 . S
C4703 C4702 1.387 . S
C4703 C4705 1.387 . S
H4704 C4711 0.950 . S
C4705 C4703 1.387 . S
C4705 C4707 1.390 . S
C4705 H4709 0.950 . S
H4706 C4702 0.950 . S
C4707 C4705 1.390 . S
C4707 C4708 1.387 . S
C4707 H4710 0.950 . S
C4708 C4707 1.387 . S
C4708 C4711 1.387 . S
H4709 C4705 0.950 . S
H4710 C4707 0.950 . S
C4711 C4702 1.390 . S
C4711 H4704 0.950 . S
C4711 C4708 1.387 . S
C4712 C4713 1.387 . S
C4712 H4716 0.950 . S
C4712 C4721 1.390 . S
C4713 C4712 1.387 . S
C4713 C4715 1.387 . S
H4714 C4721 0.950 . S
C4715 C4713 1.387 . S
C4715 C4717 1.390 . S
C4715 H4719 0.950 . S
H4716 C4712 0.950 . S
C4717 C4715 1.390 . S
C4717 C4718 1.387 . S
C4717 H4720 0.950 . S
C4718 C4717 1.387 . S
C4718 C4721 1.387 . S
H4719 C4715 0.950 . S
H4720 C4717 0.950 . S
C4721 C4712 1.390 . S
C4721 H4714 0.950 . S
C4721 C4718 1.387 . S
C4722 C4723 1.387 . S
C4722 H4726 0.950 . S
C4722 C4731 1.390 . S
C4723 C4722 1.387 . S
C4723 C4725 1.387 . S
H4724 C4731 0.950 . S
C4725 C4723 1.387 . S
C4725 C4727 1.390 . S
C4725 H4729 0.950 . S
H4726 C4722 0.950 . S
C4727 C4725 1.390 . S
C4727 C4728 1.387 . S
C4727 H4730 0.950 . S
C4728 C4727 1.387 . S
C4728 C4731 1.387 . S
H4729 C4725 0.950 . S
H4730 C4727 0.950 . S
C4731 C4722 1.390 . S
C4731 H4724 0.950 . S
C4731 C4728 1.387 . S
C4732 C4733 1.387 . S
C4732 H4736 0.950 . S
C4732 C4741 1.390 . S
C4733 C4732 1.387 . S
C4733 C4735 1.387 . S
H4734 C4741 0.950 . S
C4735 C4733 1.387 . S
C4735 C4737 1.390 . S
C4735 H4739 0.950 . S
H4736 C4732 0.950 . S
C4737 C4735 1.390 . S
C4737 C4738 1.387 . S
C4737 H4740 0.950 . S
C4738 C4737 1.387 . S
C4738 C4741 1.387 . S
H4739 C4735 0.950 . S
H4740 C4737 0.950 . S
C4741 C4732 1.390 . S
C4741 H4734 0.950 . S
C4741 C4738 1.387 . S
C4742 C4743 1.387 . S
C4742 H4746 0.950 . S
C4742 C4751 1.390 . S
C4743 C4742 1.387 . S
C4743 C4745 1.387 . S
H4744 C4751 0.950 . S
C4745 C4743 1.387 . S
C4745 C4747 1.390 . S
C4745 H4749 0.950 . S
H4746 C4742 0.950 . S
C4747 C4745 1.390 . S
C4747 C4748 1.387 . S
C4747 H4750 0.950 . S
C4748 C4747 1.387 . S
C4748 C4751 1.387 . S
H4749 C4745 0.950 . S
H4750 C4747 0.950 . S
C4751 C4742 1.390 . S
C4751 H4744 0.950 . S
C4751 C4748 1.387 . S
C4752 C4753 1.387 . S
C4752 H4756 0.950 . S
C4752 C4761 1.390 . S
C4753 C4752 1.387 . S
C4753 C4755 1.387 . S
H4754 C4761 0.950 . S
C4755 C4753 1.387 . S
C4755 C4757 1.390 . S
C4755 H4759 0.950 . S
H4756 C4752 0.950 . S
C4757 C4755 1.390 . S
C4757 C4758 1.387 . S
C4757 H4760 0.950 . S
C4758 C4757 1.387 . S
C4758 C4761 1.387 . S
H4759 C4755 0.950 . S
H4760 C4757 0.950 . S
C4761 C4752 1.390 . S
C4761 H4754 0.950 . S
C4761 C4758 1.387 . S
C4762 C4763 1.387 . S
C4762 H4766 0.950 . S
C4762 C4771 1.390 . S
C4763 C4762 1.387 . S
C4763 C4765 1.387 . S
H4764 C4771 0.950 . S
C4765 C4763 1.387 . S
C4765 C4767 1.390 . S
C4765 H4769 0.950 . S
H4766 C4762 0.950 . S
C4767 C4765 1.390 . S
C4767 C4768 1.387 . S
C4767 H4770 0.950 . S
C4768 C4767 1.387 . S
C4768 C4771 1.387 . S
H4769 C4765 0.950 . S
H4770 C4767 0.950 . S
C4771 C4762 1.390 . S
C4771 H4764 0.950 . S
C4771 C4768 1.387 . S
C4772 C4773 1.387 . S
C4772 H4776 0.950 . S
C4772 C4781 1.390 . S
C4773 C4772 1.387 . S
C4773 C4775 1.387 . S
H4774 C4781 0.950 . S
C4775 C4773 1.387 . S
C4775 C4777 1.390 . S
C4775 H4779 0.950 . S
H4776 C4772 0.950 . S
C4777 C4775 1.390 . S
C4777 C4778 1.387 . S
C4777 H4780 0.950 . S
C4778 C4777 1.387 . S
C4778 C4781 1.387 . S
H4779 C4775 0.950 . S
H4780 C4777 0.950 . S
C4781 C4772 1.390 . S
C4781 H4774 0.950 . S
C4781 C4778 1.387 . S
C4782 C4783 1.387 . S
C4782 H4786 0.950 . S
C4782 C4791 1.390 . S
C4783 C4782 1.387 . S
C4783 C4785 1.387 . S
H4784 C4791 0.950 . S
C4785 C4783 1.387 . S
C4785 C4787 1.390 . S
C4785 H4789 0.950 . S
H4786 C4782 0.950 . S
C4787 C4785 1.390 . S
C4787 C4788 1.387 . S
C4787 H4790 0.950 . S
C4788 C4787 1.387 . S
C4788 C4791 1.387 . S
H4789 C4785 0.950 . S
H4790 C4787 0.950 . S
C4791 C4782 1.390 . S
C4791 H4784 0.950 . S
C4791 C4788 1.387 . S
C4792 C4793 1.387 . S
C4792 H4796 0.950 . S
C4792 C4801 1.390 . S
C4793 C4792 1.387 . S
C4793 C4795 1.387 . S
H4794 C4801 0.950 . S
C4795 C4793 1.387 . S
C4795 C4797 1.390 . S
C4795 H4799 0.950 . S
H4796 C4792 0.950 . S
C4797 C4795 1.390 . S
C4797 C4798 1.387 . S
C4797 H4800 0.950 . S
C4798 C4797 1.387 . S
C4798 C4801 1.387 . S
H4799 C4795 0.950 . S
H4800 C4797 0.950 . S
C4801 C4792 1.390 . S
C4801 H4794 0.950 . S
C4801 C4798 1.387 . S
C4802 C4803 1.387 . S
C4802 H4806 0.950 . S
C4802 C4811 1.390 . S
C4803 C4802 1.387 . S
C4803 C4805 1.387 . S
H4804 C4811 0.950 . S
C4805 C4803 1.387 . S
C4805 C4807 1.390 . S
C4805 H4809 0.950 . S
H4806 C4802 0.950 . S
C4807 C4805 1.390 . S
C4807 C4808 1.387 . S
C4807 H4810 0.950 . S
C4808 C4807 1.387 . S
C4808 C4811 1.387 . S
H4809 C4805 0.950 . S
H4810 C4807 0.950 . S
C4811 C4802 1.390 . S
C4811 H4804 0.950 . S
C4811 C4808 1.387 . S
C4812 C4813 1.387 . S
C4812 H4816 0.950 . S
C4812 C4821 1.390 . S
C4813 C4812 1.387 . S
C4813 C4815 1.387 . S
H4814 C4821 0.950 . S
C4815 C4813 1.387 . S
C4815 C4817 1.390 . S
C4815 H4819 0.950 . S
H4816 C4812 0.950 . S
C4817 C4815 1.390 . S
C4817 C4818 1.387 . S
C4817 H4820 0.950 . S
C4818 C4817 1.387 . S
C4818 C4821 1.387 . S
H4819 C4815 0.950 . S
H4820 C4817 0.950 . S
C4821 C4812 1.390 . S
C4821 H4814 0.950 . S
C4821 C4818 1.387 . S
C4822 C4823 1.387 . S
C4822 H4826 0.950 . S
C4822 C4831 1.390 . S
C4823 C4822 1.387 . S
C4823 C4825 1.387 . S
H4824 C4831 0.950 . S
C4825 C4823 1.387 . S
C4825 C4827 1.390 . S
C4825 H4829 0.950 . S
H4826 C4822 0.950 . S
C4827 C4825 1.390 . S
C4827 C4828 1.387 . S
C4827 H4830 0.950 . S
C4828 C4827 1.387 . S
C4828 C4831 1.387 . S
H4829 C4825 0.950 . S
H4830 C4827 0.950 . S
C4831 C4822 1.390 . S
C4831 H4824 0.950 . S
C4831 C4828 1.387 . S
C4832 C4833 1.387 . S
C4832 H4836 0.950 . S
C4832 C4841 1.390 . S
C4833 C4832 1.387 . S
C4833 C4835 1.387 . S
H4834 C4841 0.950 . S
C4835 C4833 1.387 . S
C4835 C4837 1.390 . S
C4835 H4839 0.950 . S
H4836 C4832 0.950 . S
C4837 C4835 1.390 . S
C4837 C4838 1.387 . S
C4837 H4840 0.950 . S
C4838 C4837 1.387 . S
C4838 C4841 1.387 . S
H4839 C4835 0.950 . S
H4840 C4837 0.950 . S
C4841 C4832 1.390 . S
C4841 H4834 0.950 . S
C4841 C4838 1.387 . S
C4842 C4843 1.387 . S
C4842 H4846 0.950 . S
C4842 C4851 1.390 . S
C4843 C4842 1.387 . S
C4843 C4845 1.387 . S
H4844 C4851 0.950 . S
C4845 C4843 1.387 . S
C4845 C4847 1.390 . S
C4845 H4849 0.950 . S
H4846 C4842 0.950 . S
C4847 C4845 1.390 . S
C4847 C4848 1.387 . S
C4847 H4850 0.950 . S
C4848 C4847 1.387 . S
C4848 C4851 1.387 . S
H4849 C4845 0.950 . S
H4850 C4847 0.950 . S
C4851 C4842 1.390 . S
C4851 H4844 0.950 . S
C4851 C4848 1.387 . S
C4852 C4853 1.387 . S
C4852 H4856 0.950 . S
C4852 C4861 1.390 . S
C4853 C4852 1.387 . S
C4853 C4855 1.387 . S
H4854 C4861 0.950 . S
C4855 C4853 1.387 . S
C4855 C4857 1.390 . S
C4855 H4859 0.950 . S
H4856 C4852 0.950 . S
C4857 C4855 1.390 . S
C4857 C4858 1.387 . S
C4857 H4860 0.950 . S
C4858 C4857 1.387 . S
C4858 C4861 1.387 . S
H4859 C4855 0.950 . S
H4860 C4857 0.950 . S
C4861 C4852 1.390 . S
C4861 H4854 0.950 . S
C4861 C4858 1.387 . S
C4862 C4863 1.387 . S
C4862 H4866 0.950 . S
C4862 C4871 1.390 . S
C4863 C4862 1.387 . S
C4863 C4865 1.387 . S
H4864 C4871 0.950 . S
C4865 C4863 1.387 . S
C4865 C4867 1.390 . S
C4865 H4869 0.950 . S
H4866 C4862 0.950 . S
C4867 C4865 1.390 . S
C4867 C4868 1.387 . S
C4867 H4870 0.950 . S
C4868 C4867 1.387 . S
C4868 C4871 1.387 . S
H4869 C4865 0.950 . S
H4870 C4867 0.950 . S
C4871 C4862 1.390 . S
C4871 H4864 0.950 . S
C4871 C4868 1.387 . S
C4872 C4873 1.387 . S
C4872 H4876 0.950 . S
C4872 C4881 1.390 . S
C4873 C4872 1.387 . S
C4873 C4875 1.387 . S
H4874 C4881 0.950 . S
C4875 C4873 1.387 . S
C4875 C4877 1.390 . S
C4875 H4879 0.950 . S
H4876 C4872 0.950 . S
C4877 C4875 1.390 . S
C4877 C4878 1.387 . S
C4877 H4880 0.950 . S
C4878 C4877 1.387 . S
C4878 C4881 1.387 . S
H4879 C4875 0.950 . S
H4880 C4877 0.950 . S
C4881 C4872 1.390 . S
C4881 H4874 0.950 . S
C4881 C4878 1.387 . S
C4882 C4883 1.387 . S
C4882 H4886 0.950 . S
C4882 C4891 1.390 . S
C4883 C4882 1.387 . S
C4883 C4885 1.387 . S
H4884 C4891 0.950 . S
C4885 C4883 1.387 . S
C4885 C4887 1.390 . S
C4885 H4889 0.950 . S
H4886 C4882 0.950 . S
C4887 C4885 1.390 . S
C4887 C4888 1.387 . S
C4887 H4890 0.950 . S
C4888 C4887 1.387 . S
C4888 C4891 1.387 . S
H4889 C4885 0.950 . S
H4890 C4887 0.950 . S
C4891 C4882 1.390 . S
C4891 H4884 0.950 . S
C4891 C4888 1.387 . S
C4892 C4893 1.387 . S
C4892 H4896 0.950 . S
C4892 C4901 1.390 . S
C4893 C4892 1.387 . S
C4893 C4895 1.387 . S
H4894 C4901 0.950 . S
C4895 C4893 1.387 . S
C4895 C4897 1.390 . S
C4895 H4899 0.950 . S
H4896 C4892 0.950 . S
C4897 C4895 1.390 . S
C4897 C4898 1.387 . S
C4897 H4900 0.950 . S
C4898 C4897 1.387 . S
C4898 C4901 1.387 . S
H4899 C4895 0.950 . S
H4900 C4897 0.950 . S
C4901 C4892 1.390 . S
C4901 H4894 0.950 . S
C4901 C4898 1.387 . S
C4902 C4903 1.387 . S
C4902 H4906 0.950 . S
C4902 C4911 1.390 . S
C4903 C4902 1.387 . S
C4903 C4905 1.387 . S
H4904 C4911 0.950 . S
C4905 C4903 1.387 . S
C4905 C4907 1.390 . S
C4905 H4909 0.950 . S
H4906 C4902 0.950 . S
C4907 C4905 1.390 . S
C4907 C4908 1.387 . S
C4907 H4910 0.950 . S
C4908 C4907 1.387 . S
C4908 C4911 1.387 . S
H4909 C4905 0.950 . S
H4910 C4907 0.950 . S
C4911 C4902 1.390 . S
C4911 H4904 0.950 . S
C4911 C4908 1.387 . S
C4912 C4913 1.387 . S
C4912 H4916 0.950 . S
C4912 C4921 1.390 . S
C4913 C4912 1.387 . S
C4913 C4915 1.387 . S
H4914 C4921 0.950 . S
C4915 C4913 1.387 . S
C4915 C4917 1.390 . S
C4915 H4919 0.950 . S
H4916 C4912 0.950 . S
C4917 C4915 1.390 . S
C4917 C4918 1.387 . S
C4917 H4920 0.950 . S
C4918 C4917 1.387 . S
C4918 C4921 1.387 . S
H4919 C4915 0.950 . S
H4920 C4917 0.950 . S
C4921 C4912 1.390 . S
C4921 H4914 0.950 . S
C4921 C4918 1.387 . S
C4922 C4923 1.387 . S
C4922 H4926 0.950 . S
C4922 C4931 1.390 . S
C4923 C4922 1.387 . S
C4923 C4925 1.387 . S
H4924 C4931 0.950 . S
C4925 C4923 1.387 . S
C4925 C4927 1.390 . S
C4925 H4929 0.950 . S
H4926 C4922 0.950 . S
C4927 C4925 1.390 . S
C4927 C4928 1.387 . S
C4927 H4930 0.950 . S
C4928 C4927 1.387 . S
C4928 C4931 1.387 . S
H4929 C4925 0.950 . S
H4930 C4927 0.950 . S
C4931 C4922 1.390 . S
C4931 H4924 0.950 . S
C4931 C4928 1.387 . S
C4932 C4933 1.387 . S
C4932 H4936 0.950 . S
C4932 C4941 1.390 . S
C4933 C4932 1.387 . S
C4933 C4935 1.387 . S
H4934 C4941 0.950 . S
C4935 C4933 1.387 . S
C4935 C4937 1.390 . S
C4935 H4939 0.950 . S
H4936 C4932 0.950 . S
C4937 C4935 1.390 . S
C4937 C4938 1.387 . S
C4937 H4940 0.950 . S
C4938 C4937 1.387 . S
C4938 C4941 1.387 . S
H4939 C4935 0.950 . S
H4940 C4937 0.950 . S
C4941 C4932 1.390 . S
C4941 H4934 0.950 . S
C4941 C4938 1.387 . S
C4942 C4943 1.387 . S
C4942 H4946 0.950 . S
C4942 C4951 1.390 . S
C4943 C4942 1.387 . S
C4943 C4945 1.387 . S
H4944 C4951 0.950 . S
C4945 C4943 1.387 . S
C4945 C4947 1.390 . S
C4945 H4949 0.950 . S
H4946 C4942 0.950 . S
C4947 C4945 1.390 . S
C4947 C4948 1.387 . S
C4947 H4950 0.950 . S
C4948 C4947 1.387 . S
C4948 C4951 1.387 . S
H4949 C4945 0.950 . S
H4950 C4947 0.950 . S
C4951 C4942 1.390 . S
C4951 H4944 0.950 . S
C4951 C4948 1.387 . S
C4952 C4953 1.387 . S
C4952 H4956 0.950 . S
C4952 C4961 1.390 . S
C4953 C4952 1.387 . S
C4953 C4955 1.387 . S
H4954 C4961 0.950 . S
C4955 C4953 1.387 . S
C4955 C4957 1.390 . S
C4955 H4959 0.950 . S
H4956 C4952 0.950 . S
C4957 C4955 1.390 . S
C4957 C4958 1.387 . S
C4957 H4960 0.950 . S
C4958 C4957 1.387 . S
C4958 C4961 1.387 . S
H4959 C4955 0.950 . S
H4960 C4957 0.950 . S
C4961 C4952 1.390 . S
C4961 H4954 0.950 . S
C4961 C4958 1.387 . S
C4962 C4963 1.387 . S
C4962 H4966 0.950 . S
C4962 C4971 1.390 . S
C4963 C4962 1.387 . S
C4963 C4965 1.387 . S
H4964 C4971 0.950 . S
C4965 C4963 1.387 . S
C4965 C4967 1.390 . S
C4965 H4969 0.950 . S
H4966 C4962 0.950 . S
C4967 C4965 1.390 . S
C4967 C4968 1.387 . S
C4967 H4970 0.950 . S
C4968 C4967 1.387 . S
C4968 C4971 1.387 . S
H4969 C4965 0.950 . S
H4970 C4967 0.950 . S
C4971 C4962 1.390 . S
C4971 H4964 0.950 . S
C4971 C4968 1.387 . S
C4972 C4973 1.387 . S
C4972 H4976 0.950 . S
C4972 C4981 1.390 . S
C4973 C4972 1.387 . S
C4973 C4975 1.387 . S
H4974 C4981 0.950 . S
C4975 C4973 1.387 . S
C4975 C4977 1.390 . S
C4975 H4979 0.950 . S
H4976 C4972 0.950 . S
C4977 C4975 1.390 . S
C4977 C4978 1.387 . S
C4977 H4980 0.950 . S
C4978 C4977 1.387 . S
C4978 C4981 1.387 . S
H4979 C4975 0.950 . S
H4980 C4977 0.950 . S
C4981 C4972 1.390 . S
C4981 H4974 0.950 . S
C4981 C4978 1.387 . S
C4982 C4983 1.387 . S
C4982 H4986 0.950 . S
C4982 C4991 1.390 . S
C4983 C4982 1.387 . S
C4983 C4985 1.387 . S
H4984 C4991 0.950 . S
C4985 C4983 1.387 . S
C4985 C4987 1.390 . S
C4985 H4989 0.950 . S
H4986 C4982 0.950 . S
C4987 C4985 1.390 . S
C4987 C4988 1.387 . S
C4987 H4990 0.950 . S
C4988 C4987 1.387 . S
C4988 C4991 1.387 . S
H4989 C4985 0.950 . S
H4990 C4987 0.950 . S
C4991 C4982 1.390 . S
C4991 H4984 0.950 . S
C4991 C4988 1.387 . S
C4992 C4993 1.387 . S
C4992 H4996 0.950 . S
C4992 C5001 1.390 . S
C4993 C4992 1.387 . S
C4993 C4995 1.387 . S
H4994 C5001 0.950 . S
C4995 C4993 1.387 . S
C4995 C4997 1.390 . S
C4995 H4999 0.950 . S
H4996 C4992 0.950 . S
C4997 C4995 1.390 . S
C4997 C4998 1.387 . S
C4997 H5000 0.950 . S
C4998 C4997 1.387 . S
C4998 C5001 1.387 . S
H4999 C4995 0.950 . S
H5000 C4997 0.950 . S
C5001 C4992 1.390 . S
C5001 H4994 0.950 . S
C5001 C4998 1.387 . S
C5002 C5003 1.387 . S
C5002 H5006 0.950 . S
C5002 C5011 1.390 . S
C5003 C5002 1.387 . S
C5003 C5005 1.387 . S
H5004 C5011 0.950 . S
C5005 C5003 1.387 . S
C5005 C5007 1.390 . S
C5005 H5009 0.950 . S
H5006 C5002 0.950 . S
C5007 C5005 1.390 . S
C5007 C5008 1.387 . S
C5007 H5010 0.950 . S
C5008 C5007 1.387 . S
C5008 C5011 1.387 . S
H5009 C5005 0.950 . S
H5010 C5007 0.950 . S
C5011 C5002 1.390 . S
C5011 H5004 0.950 . S
C5011 C5008 1.387 . S
C5012 C5013 1.387 . S
C5012 H5016 0.950 . S
C5012 C5021 1.390 . S
C5013 C5012 1.387 . S
C5013 C5015 1.387 . S
H5014 C5021 0.950 . S
C5015 C5013 1.387 . S
C5015 C5017 1.390 . S
C5015 H5019 0.950 . S
H5016 C5012 0.950 . S
C5017 C5015 1.390 . S
C5017 C5018 1.387 . S
C5017 H5020 0.950 . S
C5018 C5017 1.387 . S
C5018 C5021 1.387 . S
H5019 C5015 0.950 . S
H5020 C5017 0.950 . S
C5021 C5012 1.390 . S
C5021 H5014 0.950 . S
C5021 C5018 1.387 . S
C5022 C5023 1.387 . S
C5022 H5026 0.950 . S
C5022 C5031 1.390 . S
C5023 C5022 1.387 . S
C5023 C5025 1.387 . S
H5024 C5031 0.950 . S
C5025 C5023 1.387 . S
C5025 C5027 1.390 . S
C5025 H5029 0.950 . S
H5026 C5022 0.950 . S
C5027 C5025 1.390 . S
C5027 C5028 1.387 . S
C5027 H5030 0.950 . S
C5028 C5027 1.387 . S
C5028 C5031 1.387 . S
H5029 C5025 0.950 . S
H5030 C5027 0.950 . S
C5031 C5022 1.390 . S
C5031 H5024 0.950 . S
C5031 C5028 1.387 . S
C5032 C5033 1.387 . S
C5032 H5036 0.950 . S
C5032 C5041 1.390 . S
C5033 C5032 1.387 . S
C5033 C5035 1.387 . S
H5034 C5041 0.950 . S
C5035 C5033 1.387 . S
C5035 C5037 1.390 . S
C5035 H5039 0.950 . S
H5036 C5032 0.950 . S
C5037 C5035 1.390 . S
C5037 C5038 1.387 . S
C5037 H5040 0.950 . S
C5038 C5037 1.387 . S
C5038 C5041 1.387 . S
H5039 C5035 0.950 . S
H5040 C5037 0.950 . S
C5041 C5032 1.390 . S
C5041 H5034 0.950 . S
C5041 C5038 1.387 . S
C5042 C5043 1.387 . S
C5042 H5046 0.950 . S
C5042 C5051 1.390 . S
C5043 C5042 1.387 . S
C5043 C5045 1.387 . S
H5044 C5051 0.950 . S
C5045 C5043 1.387 . S
C5045 C5047 1.390 . S
C5045 H5049 0.950 . S
H5046 C5042 0.950 . S
C5047 C5045 1.390 . S
C5047 C5048 1.387 . S
C5047 H5050 0.950 . S
C5048 C5047 1.387 . S
C5048 C5051 1.387 . S
H5049 C5045 0.950 . S
H5050 C5047 0.950 . S
C5051 C5042 1.390 . S
C5051 H5044 0.950 . S
C5051 C5048 1.387 . S
C5052 C5053 1.387 . S
C5052 H5056 0.950 . S
C5052 C5061 1.390 . S
C5053 C5052 1.387 . S
C5053 C5055 1.387 . S
H5054 C5061 0.950 . S
C5055 C5053 1.387 . S
C5055 C5057 1.390 . S
C5055 H5059 0.950 . S
H5056 C5052 0.950 . S
C5057 C5055 1.390 . S
C5057 C5058 1.387 . S
C5057 H5060 0.950 . S
C5058 C5057 1.387 . S
C5058 C5061 1.387 . S
H5059 C5055 0.950 . S
H5060 C5057 0.950 . S
C5061 C5052 1.390 . S
C5061 H5054 0.950 . S
C5061 C5058 1.387 . S
C5062 C5063 1.387 . S
C5062 H5066 0.950 . S
C5062 C5071 1.390 . S
C5063 C5062 1.387 . S
C5063 C5065 1.387 . S
H5064 C5071 0.950 . S
C5065 C5063 1.387 . S
C5065 C5067 1.390 . S
C5065 H5069 0.950 . S
H5066 C5062 0.950 . S
C5067 C5065 1.390 . S
C5067 C5068 1.387 . S
C5067 H5070 0.950 . S
C5068 C5067 1.387 . S
C5068 C5071 1.387 . S
H5069 C5065 0.950 . S
H5070 C5067 0.950 . S
C5071 C5062 1.390 . S
C5071 H5064 0.950 . S
C5071 C5068 1.387 . S
C5072 C5073 1.387 . S
C5072 H5076 0.950 . S
C5072 C5081 1.390 . S
C5073 C5072 1.387 . S
C5073 C5075 1.387 . S
H5074 C5081 0.950 . S
C5075 C5073 1.387 . S
C5075 C5077 1.390 . S
C5075 H5079 0.950 . S
H5076 C5072 0.950 . S
C5077 C5075 1.390 . S
C5077 C5078 1.387 . S
C5077 H5080 0.950 . S
C5078 C5077 1.387 . S
C5078 C5081 1.387 . S
H5079 C5075 0.950 . S
H5080 C5077 0.950 . S
C5081 C5072 1.390 . S
C5081 H5074 0.950 . S
C5081 C5078 1.387 . S
C5082 C5083 1.387 . S
C5082 H5086 0.950 . S
C5082 C5091 1.390 . S
C5083 C5082 1.387 . S
C5083 C5085 1.387 . S
H5084 C5091 0.950 . S
C5085 C5083 1.387 . S
C5085 C5087 1.390 . S
C5085 H5089 0.950 . S
H5086 C5082 0.950 . S
C5087 C5085 1.390 . S
C5087 C5088 1.387 . S
C5087 H5090 0.950 . S
C5088 C5087 1.387 . S
C5088 C5091 1.387 . S
H5089 C5085 0.950 . S
H5090 C5087 0.950 . S
C5091 C5082 1.390 . S
C5091 H5084 0.950 . S
C5091 C5088 1.387 . S
C5092 C5093 1.387 . S
C5092 H5096 0.950 . S
C5092 C5101 1.390 . S
C5093 C5092 1.387 . S
C5093 C5095 1.387 . S
H5094 C5101 0.950 . S
C5095 C5093 1.387 . S
C5095 C5097 1.390 . S
C5095 H5099 0.950 . S
H5096 C5092 0.950 . S
C5097 C5095 1.390 . S
C5097 C5098 1.387 . S
C5097 H5100 0.950 . S
C5098 C5097 1.387 . S
C5098 C5101 1.387 . S
H5099 C5095 0.950 . S
H5100 C5097 0.950 . S
C5101 C5092 1.390 . S
C5101 H5094 0.950 . S
C5101 C5098 1.387 . S
C5102 C5103 1.387 . S
C5102 H5106 0.950 . S
C5102 C5111 1.390 . S
C5103 C5102 1.387 . S
C5103 C5105 1.387 . S
H5104 C5111 0.950 . S
C5105 C5103 1.387 . S
C5105 C5107 1.390 . S
C5105 H5109 0.950 . S
H5106 C5102 0.950 . S
C5107 C5105 1.390 . S
C5107 C5108 1.387 . S
C5107 H5110 0.950 . S
C5108 C5107 1.387 . S
C5108 C5111 1.387 . S
H5109 C5105 0.950 . S
H5110 C5107 0.950 . S
C5111 C5102 1.390 . S
C5111 H5104 0.950 . S
C5111 C5108 1.387 . S
C5112 C5113 1.387 . S
C5112 H5116 0.950 . S
C5112 C5121 1.390 . S
C5113 C5112 1.387 . S
C5113 C5115 1.387 . S
H5114 C5121 0.950 . S
C5115 C5113 1.387 . S
C5115 C5117 1.390 . S
C5115 H5119 0.950 . S
H5116 C5112 0.950 . S
C5117 C5115 1.390 . S
C5117 C5118 1.387 . S
C5117 H5120 0.950 . S
C5118 C5117 1.387 . S
C5118 C5121 1.387 . S
H5119 C5115 0.950 . S
H5120 C5117 0.950 . S
C5121 C5112 1.390 . S
C5121 H5114 0.950 . S
C5121 C5118 1.387 . S
C5122 C5123 1.387 . S
C5122 H5126 0.950 . S
C5122 C5131 1.390 . S
C5123 C5122 1.387 . S
C5123 C5125 1.387 . S
H5124 C5131 0.950 . S
C5125 C5123 1.387 . S
C5125 C5127 1.390 . S
C5125 H5129 0.950 . S
H5126 C5122 0.950 . S
C5127 C5125 1.390 . S
C5127 C5128 1.387 . S
C5127 H5130 0.950 . S
C5128 C5127 1.387 . S
C5128 C5131 1.387 . S
H5129 C5125 0.950 . S
H5130 C5127 0.950 . S
C5131 C5122 1.390 . S
C5131 H5124 0.950 . S
C5131 C5128 1.387 . S
C5132 C5133 1.387 . S
C5132 H5136 0.950 . S
C5132 C5141 1.390 . S
C5133 C5132 1.387 . S
C5133 C5135 1.387 . S
H5134 C5141 0.950 . S
C5135 C5133 1.387 . S
C5135 C5137 1.390 . S
C5135 H5139 0.950 . S
H5136 C5132 0.950 . S
C5137 C5135 1.390 . S
C5137 C5138 1.387 . S
C5137 H5140 0.950 . S
C5138 C5137 1.387 . S
C5138 C5141 1.387 . S
H5139 C5135 0.950 . S
H5140 C5137 0.950 . S
C5141 C5132 1.390 . S
C5141 H5134 0.950 . S
C5141 C5138 1.387 . S
C5142 C5143 1.387 . S
C5142 H5146 0.950 . S
C5142 C5151 1.390 . S
C5143 C5142 1.387 . S
C5143 C5145 1.387 . S
H5144 C5151 0.950 . S
C5145 C5143 1.387 . S
C5145 C5147 1.390 . S
C5145 H5149 0.950 . S
H5146 C5142 0.950 . S
C5147 C5145 1.390 . S
C5147 C5148 1.387 . S
C5147 H5150 0.950 . S
C5148 C5147 1.387 . S
C5148 C5151 1.387 . S
H5149 C5145 0.950 . S
H5150 C5147 0.950 . S
C5151 C5142 1.390 . S
C5151 H5144 0.950 . S
C5151 C5148 1.387 . S
C5152 C5153 1.387 . S
C5152 H5156 0.950 . S
C5152 C5161 1.390 . S
C5153 C5152 1.387 . S
C5153 C5155 1.387 . S
H5154 C5161 0.950 . S
C5155 C5153 1.387 . S
C5155 C5157 1.390 . S
C5155 H5159 0.950 . S
H5156 C5152 0.950 . S
C5157 C5155 1.390 . S
C5157 C5158 1.387 . S
C5157 H5160 0.950 . S
C5158 C5157 1.387 . S
C5158 C5161 1.387 . S
H5159 C5155 0.950 . S
H5160 C5157 0.950 . S
C5161 C5152 1.390 . S
C5161 H5154 0.950 . S
C5161 C5158 1.387 . S
C5162 C5163 1.387 . S
C5162 H5166 0.950 . S
C5162 C5171 1.390 . S
C5163 C5162 1.387 . S
C5163 C5165 1.387 . S
H5164 C5171 0.950 . S
C5165 C5163 1.387 . S
C5165 C5167 1.390 . S
C5165 H5169 0.950 . S
H5166 C5162 0.950 . S
C5167 C5165 1.390 . S
C5167 C5168 1.387 . S
C5167 H5170 0.950 . S
C5168 C5167 1.387 . S
C5168 C5171 1.387 . S
H5169 C5165 0.950 . S
H5170 C5167 0.950 . S
C5171 C5162 1.390 . S
C5171 H5164 0.950 . S
C5171 C5168 1.387 . S
C5172 C5173 1.387 . S
C5172 H5176 0.950 . S
C5172 C5181 1.390 . S
C5173 C5172 1.387 . S
C5173 C5175 1.387 . S
H5174 C5181 0.950 . S
C5175 C5173 1.387 . S
C5175 C5177 1.390 . S
C5175 H5179 0.950 . S
H5176 C5172 0.950 . S
C5177 C5175 1.390 . S
C5177 C5178 1.387 . S
C5177 H5180 0.950 . S
C5178 C5177 1.387 . S
C5178 C5181 1.387 . S
H5179 C5175 0.950 . S
H5180 C5177 0.950 . S
C5181 C5172 1.390 . S
C5181 H5174 0.950 . S
C5181 C5178 1.387 . S
C5182 C5183 1.387 . S
C5182 H5186 0.950 . S
C5182 C5191 1.390 . S
C5183 C5182 1.387 . S
C5183 C5185 1.387 . S
H5184 C5191 0.950 . S
C5185 C5183 1.387 . S
C5185 C5187 1.390 . S
C5185 H5189 0.950 . S
H5186 C5182 0.950 . S
C5187 C5185 1.390 . S
C5187 C5188 1.387 . S
C5187 H5190 0.950 . S
C5188 C5187 1.387 . S
C5188 C5191 1.387 . S
H5189 C5185 0.950 . S
H5190 C5187 0.950 . S
C5191 C5182 1.390 . S
C5191 H5184 0.950 . S
C5191 C5188 1.387 . S
C5192 C5193 1.387 . S
C5192 H5196 0.950 . S
C5192 C5201 1.390 . S
C5193 C5192 1.387 . S
C5193 C5195 1.387 . S
H5194 C5201 0.950 . S
C5195 C5193 1.387 . S
C5195 C5197 1.390 . S
C5195 H5199 0.950 . S
H5196 C5192 0.950 . S
C5197 C5195 1.390 . S
C5197 C5198 1.387 . S
C5197 H5200 0.950 . S
C5198 C5197 1.387 . S
C5198 C5201 1.387 . S
H5199 C5195 0.950 . S
H5200 C5197 0.950 . S
C5201 C5192 1.390 . S
C5201 H5194 0.950 . S
C5201 C5198 1.387 . S
C5202 C5203 1.387 . S
C5202 H5206 0.950 . S
C5202 C5211 1.390 . S
C5203 C5202 1.387 . S
C5203 C5205 1.387 . S
H5204 C5211 0.950 . S
C5205 C5203 1.387 . S
C5205 C5207 1.390 . S
C5205 H5209 0.950 . S
H5206 C5202 0.950 . S
C5207 C5205 1.390 . S
C5207 C5208 1.387 . S
C5207 H5210 0.950 . S
C5208 C5207 1.387 . S
C5208 C5211 1.387 . S
H5209 C5205 0.950 . S
H5210 C5207 0.950 . S
C5211 C5202 1.390 . S
C5211 H5204 0.950 . S
C5211 C5208 1.387 . S
C5212 C5213 1.387 . S
C5212 H5216 0.950 . S
C5212 C5221 1.390 . S
C5213 C5212 1.387 . S
C5213 C5215 1.387 . S
H5214 C5221 0.950 . S
C5215 C5213 1.387 . S
C5215 C5217 1.390 . S
C5215 H5219 0.950 . S
H5216 C5212 0.950 . S
C5217 C5215 1.390 . S
C5217 C5218 1.387 . S
C5217 H5220 0.950 . S
C5218 C5217 1.387 . S
C5218 C5221 1.387 . S
H5219 C5215 0.950 . S
H5220 C5217 0.950 . S
C5221 C5212 1.390 . S
C5221 H5214 0.950 . S
C5221 C5218 1.387 . S
C5222 C5223 1.387 . S
C5222 H5226 0.950 . S
C5222 C5231 1.390 . S
C5223 C5222 1.387 . S
C5223 C5225 1.387 . S
H5224 C5231 0.950 . S
C5225 C5223 1.387 . S
C5225 C5227 1.390 . S
C5225 H5229 0.950 . S
H5226 C5222 0.950 . S
C5227 C5225 1.390 . S
C5227 C5228 1.387 . S
C5227 H5230 0.950 . S
C5228 C5227 1.387 . S
C5228 C5231 1.387 . S
H5229 C5225 0.950 . S
H5230 C5227 0.950 . S
C5231 C5222 1.390 . S
C5231 H5224 0.950 . S
C5231 C5228 1.387 . S
C5232 C5233 1.387 . S
C5232 H5236 0.950 . S
C5232 C5241 1.390 . S
C5233 C5232 1.387 . S
C5233 C5235 1.387 . S
H5234 C5241 0.950 . S
C5235 C5233 1.387 . S
C5235 C5237 1.390 . S
C5235 H5239 0.950 . S
H5236 C5232 0.950 . S
C5237 C5235 1.390 . S
C5237 C5238 1.387 . S
C5237 H5240 0.950 . S
C5238 C5237 1.387 . S
C5238 C5241 1.387 . S
H5239 C5235 0.950 . S
H5240 C5237 0.950 . S
C5241 C5232 1.390 . S
C5241 H5234 0.950 . S
C5241 C5238 1.387 . S
C5242 C5243 1.387 . S
C5242 H5246 0.950 . S
C5242 C5251 1.390 . S
C5243 C5242 1.387 . S
C5243 C5245 1.387 . S
H5244 C5251 0.950 . S
C5245 C5243 1.387 . S
C5245 C5247 1.390 . S
C5245 H5249 0.950 . S
H5246 C5242 0.950 . S
C5247 C5245 1.390 . S
C5247 C5248 1.387 . S
C5247 H5250 0.950 . S
C5248 C5247 1.387 . S
C5248 C5251 1.387 . S
H5249 C5245 0.950 . S
H5250 C5247 0.950 . S
C5251 C5242 1.390 . S
C5251 H5244 0.950 . S
C5251 C5248 1.387 . S
C5252 C5253 1.387 . S
C5252 H5256 0.950 . S
C5252 C5261 1.390 . S
C5253 C5252 1.387 . S
C5253 C5255 1.387 . S
H5254 C5261 0.950 . S
C5255 C5253 1.387 . S
C5255 C5257 1.390 . S
C5255 H5259 0.950 . S
H5256 C5252 0.950 . S
C5257 C5255 1.390 . S
C5257 C5258 1.387 . S
C5257 H5260 0.950 . S
C5258 C5257 1.387 . S
C5258 C5261 1.387 . S
H5259 C5255 0.950 . S
H5260 C5257 0.950 . S
C5261 C5252 1.390 . S
C5261 H5254 0.950 . S
C5261 C5258 1.387 . S
C5262 C5263 1.387 . S
C5262 H5266 0.950 . S
C5262 C5271 1.390 . S
C5263 C5262 1.387 . S
C5263 C5265 1.387 . S
H5264 C5271 0.950 . S
C5265 C5263 1.387 . S
C5265 C5267 1.390 . S
C5265 H5269 0.950 . S
H5266 C5262 0.950 . S
C5267 C5265 1.390 . S
C5267 C5268 1.387 . S
C5267 H5270 0.950 . S
C5268 C5267 1.387 . S
C5268 C5271 1.387 . S
H5269 C5265 0.950 . S
H5270 C5267 0.950 . S
C5271 C5262 1.390 . S
C5271 H5264 0.950 . S
C5271 C5268 1.387 . S
C5272 C5273 1.387 . S
C5272 H5276 0.950 . S
C5272 C5281 1.390 . S
C5273 C5272 1.387 . S
C5273 C5275 1.387 . S
H5274 C5281 0.950 . S
C5275 C5273 1.387 . S
C5275 C5277 1.390 . S
C5275 H5279 0.950 . S
H5276 C5272 0.950 . S
C5277 C5275 1.390 . S
C5277 C5278 1.387 . S
C5277 H5280 0.950 . S
C5278 C5277 1.387 . S
C5278 C5281 1.387 . S
H5279 C5275 0.950 . S
H5280 C5277 0.950 . S
C5281 C5272 1.390 . S
C5281 H5274 0.950 . S
C5281 C5278 1.387 . S
C5282 C5283 1.387 . S
C5282 H5286 0.950 . S
C5282 C5291 1.390 . S
C5283 C5282 1.387 . S
C5283 C5285 1.387 . S
H5284 C5291 0.950 . S
C5285 C5283 1.387 . S
C5285 C5287 1.390 . S
C5285 H5289 0.950 . S
H5286 C5282 0.950 . S
C5287 C5285 1.390 . S
C5287 C5288 1.387 . S
C5287 H5290 0.950 . S
C5288 C5287 1.387 . S
C5288 C5291 1.387 . S
H5289 C5285 0.950 . S
H5290 C5287 0.950 . S
C5291 C5282 1.390 . S
C5291 H5284 0.950 . S
C5291 C5288 1.387 . S
C5292 C5293 1.387 . S
C5292 H5296 0.950 . S
C5292 C5301 1.390 . S
C5293 C5292 1.387 . S
C5293 C5295 1.387 . S
H5294 C5301 0.950 . S
C5295 C5293 1.387 . S
C5295 C5297 1.390 . S
C5295 H5299 0.950 . S
H5296 C5292 0.950 . S
C5297 C5295 1.390 . S
C5297 C5298 1.387 . S
C5297 H5300 0.950 . S
C5298 C5297 1.387 . S
C5298 C5301 1.387 . S
H5299 C5295 0.950 . S
H5300 C5297 0.950 . S
C5301 C5292 1.390 . S
C5301 H5294 0.950 . S
C5301 C5298 1.387 . S
C5302 C5303 1.387 . S
C5302 H5306 0.950 . S
C5302 C5311 1.390 . S
C5303 C5302 1.387 . S
C5303 C5305 1.387 . S
H5304 C5311 0.950 . S
C5305 C5303 1.387 . S
C5305 C5307 1.390 . S
C5305 H5309 0.950 . S
H5306 C5302 0.950 . S
C5307 C5305 1.390 . S
C5307 C5308 1.387 . S
C5307 H5310 0.950 . S
C5308 C5307 1.387 . S
C5308 C5311 1.387 . S
H5309 C5305 0.950 . S
H5310 C5307 0.950 . S
C5311 C5302 1.390 . S
C5311 H5304 0.950 . S
C5311 C5308 1.387 . S
C5312 C5313 1.387 . S
C5312 H5316 0.950 . S
C5312 C5321 1.390 . S
C5313 C5312 1.387 . S
C5313 C5315 1.387 . S
H5314 C5321 0.950 . S
C5315 C5313 1.387 . S
C5315 C5317 1.390 . S
C5315 H5319 0.950 . S
H5316 C5312 0.950 . S
C5317 C5315 1.390 . S
C5317 C5318 1.387 . S
C5317 H5320 0.950 . S
C5318 C5317 1.387 . S
C5318 C5321 1.387 . S
H5319 C5315 0.950 . S
H5320 C5317 0.950 . S
C5321 C5312 1.390 . S
C5321 H5314 0.950 . S
C5321 C5318 1.387 . S
C5322 C5323 1.387 . S
C5322 H5326 0.950 . S
C5322 C5331 1.390 . S
C5323 C5322 1.387 . S
C5323 C5325 1.387 . S
H5324 C5331 0.950 . S
C5325 C5323 1.387 . S
C5325 C5327 1.390 . S
C5325 H5329 0.950 . S
H5326 C5322 0.950 . S
C5327 C5325 1.390 . S
C5327 C5328 1.387 . S
C5327 H5330 0.950 . S
C5328 C5327 1.387 . S
C5328 C5331 1.387 . S
H5329 C5325 0.950 . S
H5330 C5327 0.950 . S
C5331 C5322 1.390 . S
C5331 H5324 0.950 . S
C5331 C5328 1.387 . S
C5332 C5333 1.387 . S
C5332 H5336 0.950 . S
C5332 C5341 1.390 . S
C5333 C5332 1.387 . S
C5333 C5335 1.387 . S
H5334 C5341 0.950 . S
C5335 C5333 1.387 . S
C5335 C5337 1.390 . S
C5335 H5339 0.950 . S
H5336 C5332 0.950 . S
C5337 C5335 1.390 . S
C5337 C5338 1.387 . S
C5337 H5340 0.950 . S
C5338 C5337 1.387 . S
C5338 C5341 1.387 . S
H5339 C5335 0.950 . S
H5340 C5337 0.950 . S
C5341 C5332 1.390 . S
C5341 H5334 0.950 . S
C5341 C5338 1.387 . S
C5342 C5343 1.387 . S
C5342 H5346 0.950 . S
C5342 C5351 1.390 . S
C5343 C5342 1.387 . S
C5343 C5345 1.387 . S
H5344 C5351 0.950 . S
C5345 C5343 1.387 . S
C5345 C5347 1.390 . S
C5345 H5349 0.950 . S
H5346 C5342 0.950 . S
C5347 C5345 1.390 . S
C5347 C5348 1.387 . S
C5347 H5350 0.950 . S
C5348 C5347 1.387 . S
C5348 C5351 1.387 . S
H5349 C5345 0.950 . S
H5350 C5347 0.950 . S
C5351 C5342 1.390 . S
C5351 H5344 0.950 . S
C5351 C5348 1.387 . S
C5352 C5353 1.387 . S
C5352 H5356 0.950 . S
C5352 C5361 1.390 . S
C5353 C5352 1.387 . S
C5353 C5355 1.387 . S
H5354 C5361 0.950 . S
C5355 C5353 1.387 . S
C5355 C5357 1.390 . S
C5355 H5359 0.950 . S
H5356 C5352 0.950 . S
C5357 C5355 1.390 . S
C5357 C5358 1.387 . S
C5357 H5360 0.950 . S
C5358 C5357 1.387 . S
C5358 C5361 1.387 . S
H5359 C5355 0.950 . S
H5360 C5357 0.950 . S
C5361 C5352 1.390 . S
C5361 H5354 0.950 . S
C5361 C5358 1.387 . S
C5362 C5363 1.387 . S
C5362 H5366 0.950 . S
C5362 C5371 1.390 . S
C5363 C5362 1.387 . S
C5363 C5365 1.387 . S
H5364 C5371 0.950 . S
C5365 C5363 1.387 . S
C5365 C5367 1.390 . S
C5365 H5369 0.950 . S
H5366 C5362 0.950 . S
C5367 C5365 1.390 . S
C5367 C5368 1.387 . S
C5367 H5370 0.950 . S
C5368 C5367 1.387 . S
C5368 C5371 1.387 . S
H5369 C5365 0.950 . S
H5370 C5367 0.950 . S
C5371 C5362 1.390 . S
C5371 H5364 0.950 . S
C5371 C5368 1.387 . S
C5372 C5373 1.387 . S
C5372 H5376 0.950 . S
C5372 C5381 1.390 . S
C5373 C5372 1.387 . S
C5373 C5375 1.387 . S
H5374 C5381 0.950 . S
C5375 C5373 1.387 . S
C5375 C5377 1.390 . S
C5375 H5379 0.950 . S
H5376 C5372 0.950 . S
C5377 C5375 1.390 . S
C5377 C5378 1.387 . S
C5377 H5380 0.950 . S
C5378 C5377 1.387 . S
C5378 C5381 1.387 . S
H5379 C5375 0.950 . S
H5380 C5377 0.950 . S
C5381 C5372 1.390 . S
C5381 H5374 0.950 . S
C5381 C5378 1.387 . S
C5382 C5383 1.387 . S
C5382 H5386 0.950 . S
C5382 C5391 1.390 . S
C5383 C5382 1.387 . S
C5383 C5385 1.387 . S
H5384 C5391 0.950 . S
C5385 C5383 1.387 . S
C5385 C5387 1.390 . S
C5385 H5389 0.950 . S
H5386 C5382 0.950 . S
C5387 C5385 1.390 . S
C5387 C5388 1.387 . S
C5387 H5390 0.950 . S
C5388 C5387 1.387 . S
C5388 C5391 1.387 . S
H5389 C5385 0.950 . S
H5390 C5387 0.950 . S
C5391 C5382 1.390 . S
C5391 H5384 0.950 . S
C5391 C5388 1.387 . S
C5392 C5393 1.387 . S
C5392 H5396 0.950 . S
C5392 C5401 1.390 . S
C5393 C5392 1.387 . S
C5393 C5395 1.387 . S
H5394 C5401 0.950 . S
C5395 C5393 1.387 . S
C5395 C5397 1.390 . S
C5395 H5399 0.950 . S
H5396 C5392 0.950 . S
C5397 C5395 1.390 . S
C5397 C5398 1.387 . S
C5397 H5400 0.950 . S
C5398 C5397 1.387 . S
C5398 C5401 1.387 . S
H5399 C5395 0.950 . S
H5400 C5397 0.950 . S
C5401 C5392 1.390 . S
C5401 H5394 0.950 . S
C5401 C5398 1.387 . S
C5402 C5403 1.387 . S
C5402 H5406 0.950 . S
C5402 C5411 1.390 . S
C5403 C5402 1.387 . S
C5403 C5405 1.387 . S
H5404 C5411 0.950 . S
C5405 C5403 1.387 . S
C5405 C5407 1.390 . S
C5405 H5409 0.950 . S
H5406 C5402 0.950 . S
C5407 C5405 1.390 . S
C5407 C5408 1.387 . S
C5407 H5410 0.950 . S
C5408 C5407 1.387 . S
C5408 C5411 1.387 . S
H5409 C5405 0.950 . S
H5410 C5407 0.950 . S
C5411 C5402 1.390 . S
C5411 H5404 0.950 . S
C5411 C5408 1.387 . S
C5412 C5413 1.387 . S
C5412 H5416 0.950 . S
C5412 C5421 1.390 . S
C5413 C5412 1.387 . S
C5413 C5415 1.387 . S
H5414 C5421 0.950 . S
C5415 C5413 1.387 . S
C5415 C5417 1.390 . S
C5415 H5419 0.950 . S
H5416 C5412 0.950 . S
C5417 C5415 1.390 . S
C5417 C5418 1.387 . S
C5417 H5420 0.950 . S
C5418 C5417 1.387 . S
C5418 C5421 1.387 . S
H5419 C5415 0.950 . S
H5420 C5417 0.950 . S
C5421 C5412 1.390 . S
C5421 H5414 0.950 . S
C5421 C5418 1.387 . S
C5422 C5423 1.387 . S
C5422 H5426 0.950 . S
C5422 C5431 1.390 . S
C5423 C5422 1.387 . S
C5423 C5425 1.387 . S
H5424 C5431 0.950 . S
C5425 C5423 1.387 . S
C5425 C5427 1.390 . S
C5425 H5429 0.950 . S
H5426 C5422 0.950 . S
C5427 C5425 1.390 . S
C5427 C5428 1.387 . S
C5427 H5430 0.950 . S
C5428 C5427 1.387 . S
C5428 C5431 1.387 . S
H5429 C5425 0.950 . S
H5430 C5427 0.950 . S
C5431 C5422 1.390 . S
C5431 H5424 0.950 . S
C5431 C5428 1.387 . S
C5432 C5433 1.387 . S
C5432 H5436 0.950 . S
C5432 C5441 1.390 . S
C5433 C5432 1.387 . S
C5433 C5435 1.387 . S
H5434 C5441 0.950 . S
C5435 C5433 1.387 . S
C5435 C5437 1.390 . S
C5435 H5439 0.950 . S
H5436 C5432 0.950 . S
C5437 C5435 1.390 . S
C5437 C5438 1.387 . S
C5437 H5440 0.950 . S
C5438 C5437 1.387 . S
C5438 C5441 1.387 . S
H5439 C5435 0.950 . S
H5440 C5437 0.950 . S
C5441 C5432 1.390 . S
C5441 H5434 0.950 . S
C5441 C5438 1.387 . S
C5442 C5443 1.387 . S
C5442 H5446 0.950 . S
C5442 C5451 1.390 . S
C5443 C5442 1.387 . S
C5443 C5445 1.387 . S
H5444 C5451 0.950 . S
C5445 C5443 1.387 . S
C5445 C5447 1.390 . S
C5445 H5449 0.950 . S
H5446 C5442 0.950 . S
C5447 C5445 1.390 . S
C5447 C5448 1.387 . S
C5447 H5450 0.950 . S
C5448 C5447 1.387 . S
C5448 C5451 1.387 . S
H5449 C5445 0.950 . S
H5450 C5447 0.950 . S
C5451 C5442 1.390 . S
C5451 H5444 0.950 . S
C5451 C5448 1.387 . S
C5452 C5453 1.387 . S
C5452 H5456 0.950 . S
C5452 C5461 1.390 . S
C5453 C5452 1.387 . S
C5453 C5455 1.387 . S
H5454 C5461 0.950 . S
C5455 C5453 1.387 . S
C5455 C5457 1.390 . S
C5455 H5459 0.950 . S
H5456 C5452 0.950 . S
C5457 C5455 1.390 . S
C5457 C5458 1.387 . S
C5457 H5460 0.950 . S
C5458 C5457 1.387 . S
C5458 C5461 1.387 . S
H5459 C5455 0.950 . S
H5460 C5457 0.950 . S
C5461 C5452 1.390 . S
C5461 H5454 0.950 . S
C5461 C5458 1.387 . S
C5462 C5463 1.387 . S
C5462 H5466 0.950 . S
C5462 C5471 1.390 . S
C5463 C5462 1.387 . S
C5463 C5465 1.387 . S
H5464 C5471 0.950 . S
C5465 C5463 1.387 . S
C5465 C5467 1.390 . S
C5465 H5469 0.950 . S
H5466 C5462 0.950 . S
C5467 C5465 1.390 . S
C5467 C5468 1.387 . S
C5467 H5470 0.950 . S
C5468 C5467 1.387 . S
C5468 C5471 1.387 . S
H5469 C5465 0.950 . S
H5470 C5467 0.950 . S
C5471 C5462 1.390 . S
C5471 H5464 0.950 . S
C5471 C5468 1.387 . S
C4033 C67 3.329 1_655 S
C4038 C403 3.324 1_655 S
C4043 C151 3.331 . S
C4048 C487 3.327 . S
C4053 C571 3.319 . S
C4058 C242 3.445 . S
C4063 C655 3.354 . S
C4068 C319 3.356 . S
C4073 C746 3.508 . S
C4078 C823 3.378 1_565 S
C4083 C830 3.497 . S
C4088 C914 3.499 . S
C4093 C991 3.371 1_545 S
C4098 C907 3.364 1_545 S
C4103 C998 3.504 . S
C4108 C739 3.375 . S
C4113 C1082 3.480 . S
C4118 C326 3.481 . S
C4123 C662 3.456 . S
C4128 C2846 3.454 . S
C4133 C410 3.447 . S
C4138 C1166 3.445 . S
C4143 C494 3.454 . S
C4148 C2930 3.457 . S
C4153 C158 3.478 . S
C4158 C1250 3.480 . S
C4163 C2671 3.310 . S
C4168 C74 3.438 . S
C4173 C2594 3.442 . S
C4178 C235 3.314 . S
C4183 C1652 3.318 1_455 S
C4188 C1316 3.322 1_455 S
C4193 C1400 3.332 . S
C4198 C1736 3.328 . S
C4203 C1491 3.454 . S
C4208 C1820 3.330 . S
C4213 C1568 3.360 . S
C4218 C1904 3.359 . S
C4223 C2072 3.373 1_545 S
C4228 C1995 3.503 . S
C4233 C2079 3.496 . S
C4238 C2163 3.499 . S
C4243 C2240 3.375 1_565 S
C4248 C2156 3.372 1_565 S
C4253 C1988 3.375 . S
C4258 C2247 3.504 . S
C4263 C1575 3.488 . S
C4268 C2331 3.485 . S
C4273 C3591 3.463 . S
C4278 C1911 3.465 . S
C4283 C2415 3.448 . S
C4288 C1659 3.450 . S
C4293 C1743 3.452 . S
C4298 C3675 3.455 . S
C4303 C2499 3.481 . S
C4308 C1407 3.479 . S
C4313 C1323 3.442 . S
C4318 C3416 3.314 . S
C4323 C1484 3.303 . S
C4328 C3339 3.432 . S
C4333 C2755 3.316 . S
C4338 C2587 3.320 . S
C4343 C2839 3.330 . S
C4348 C1075 3.333 . S
C4353 C2678 3.438 . S
C4358 C1159 3.308 1_455 S
C4363 C2923 3.359 . S
C4368 C1243 3.359 . S
C4373 C3014 3.525 . S
C4378 C3098 3.523 . S
C4383 C3091 3.351 . S
C4388 C3182 3.483 . S
C4393 C3259 3.362 . S
C4398 C3175 3.361 . S
C4403 C3007 3.384 . S
C4408 C3266 3.515 . S
C4413 C578 3.447 . S
C4418 C2762 3.449 . S
C4423 C3500 3.319 . S
C4428 C3332 3.324 . S
C4433 C3584 3.319 . S
C4438 C2324 3.320 . S
C4443 C2408 3.309 1_655 S
C4448 C3423 3.440 . S
C4453 C3668 3.359 . S
C4458 C2492 3.360 . S
C4463 C3759 3.507 . S
C4468 C3836 3.378 . S
C4473 C3843 3.498 . S
C4478 C3927 3.501 . S
C4483 C3920 3.368 . S
C4488 C4004 3.371 . S
C4493 C4011 3.503 . S
C4498 C3752 3.373 . S
C4503 C3507 3.445 . S
C4508 C1827 3.444 . S
C4513 C56 1.107 . S
C4518 C1402 0.893 . S
C4523 C3429 1.184 . S
C4528 C140 1.146 . S
C4533 C231 1.060 . S
C4538 C1570 0.891 . S
C4543 C308 1.088 . S
C4548 C3334 0.886 . S
C4553 C392 1.129 . S
C4558 C1906 0.904 . S
C4563 C476 1.123 . S
C4568 C3502 0.904 . S
C4573 C560 1.135 . S
C4578 C1738 0.918 . S
C4583 C2410 0.917 . S
C4588 C644 1.138 . S
C4593 C735 1.070 . S
C4598 C3345 1.161 . S
C4603 C819 1.096 . S
C4608 C1413 1.197 . S
C4613 C896 1.125 . S
C4618 C3418 0.911 . S
C4623 C1581 1.157 . S
C4628 C987 1.066 . S
C4633 C3513 1.168 . S
C4638 C980 1.130 . S
C4643 C1749 1.194 . S
C4648 C728 1.152 . S
C4653 C812 1.168 . S
C4658 C2421 1.207 . S
C4663 C1917 1.175 . S
C4668 C903 1.077 . S
C4673 C3754 0.916 . S
C4678 C1071 1.070 . S
C4683 C2253 1.160 . S
C4688 C651 1.074 . S
C4693 C399 1.085 . S
C4698 C3765 1.175 . S
C4703 C483 1.111 . S
C4708 C2085 1.210 . S
C4713 C1155 1.088 . S
C4718 C2158 0.914 . S
C4723 C3933 1.179 . S
C4728 C1239 1.089 . S
C4733 C63 1.039 . S
C4738 C4006 0.896 . S
C4743 C224 1.140 . S
C4748 C3838 0.923 . S
C4753 C153 0.901 . S
C4758 C1327 1.111 . S
C4763 C1411 1.141 . S
C4768 C2662 1.182 . S
C4773 C1502 1.060 . S
C4778 C321 0.888 . S
C4783 C1579 1.091 . S
C4788 C2589 0.888 . S
C4793 C657 0.907 . S
C4798 C1663 1.124 . S
C4803 C2757 0.897 . S
C4808 C1747 1.116 . S
C4813 C489 0.916 . S
C4818 C1831 1.136 . S
C4823 C1915 1.136 . S
C4828 C1161 0.912 . S
C4833 C2006 1.066 . S
C4838 C2578 1.165 . S
C4843 C142 1.201 . S
C4848 C2090 1.105 . S
C4853 C2167 1.126 . S
C4858 C2673 0.915 . S
C4863 C310 1.162 . S
C4868 C2258 1.071 . S
C4873 C2746 1.170 . S
C4878 C2251 1.127 . S
C4883 C1999 1.154 . S
C4888 C478 1.194 . S
C4893 C2083 1.164 . S
C4898 C1150 1.204 . S
C4903 C646 1.174 . S
C4908 C2174 1.077 . S
C4913 C2342 1.075 . S
C4918 C3009 0.912 . S
C4923 C982 1.162 . S
C4928 C1922 1.069 . S
C4933 C2998 1.187 . S
C4938 C1670 1.091 . S
C4943 C1754 1.115 . S
C4948 C814 1.208 . S
C4953 C2426 1.082 . S
C4958 C909 0.916 . S
C4963 C3166 1.170 . S
C4968 C2510 1.076 . S
C4973 C1334 1.046 . S
C4978 C3261 0.892 . S
C4983 C3082 1.202 . S
C4988 C1495 1.166 . S
C4993 C2326 0.889 . S
C4998 C2576 1.100 . S
C5003 C1064 1.144 . S
C5008 C1497 1.180 . S
C5013 C2494 0.892 . S
C5018 C2667 1.063 . S
C5023 C1232 1.100 . S
C5028 C1318 0.895 . S
C5033 C2744 1.122 . S
C5038 C3670 0.900 . S
C5043 C1654 0.903 . S
C5048 C2828 1.117 . S
C5053 C1148 1.133 . S
C5058 C3586 0.910 . S
C5063 C1822 0.924 . S
C5068 C2912 1.146 . S
C5073 C3003 1.073 . S
C5078 C1329 1.172 . S
C5083 C3080 1.150 . S
C5088 C2337 1.189 . S
C5093 C3164 1.114 . S
C5098 C1486 0.912 . S
C5103 C2505 1.171 . S
C5108 C3255 1.074 . S
C5113 C1665 1.162 . S
C5118 C3248 1.121 . S
C5123 C2996 1.164 . S
C5128 C3597 1.208 . S
C5133 C1833 1.217 . S
C5138 C3087 1.115 . S
C5143 C3171 1.073 . S
C5148 C3681 1.164 . S
C5153 C147 1.069 . S
C5158 C1990 0.910 . S
C5163 C4017 1.154 . S
C5168 C2919 1.070 . S
C5173 C2751 1.084 . S
C5178 C2001 1.177 . S
C5183 C2835 1.113 . S
C5188 C3849 1.211 . S
C5193 C3922 0.912 . S
C5198 C567 1.087 . S
C5203 C2169 1.181 . S
C5208 C315 1.089 . S
C5213 C2583 1.048 . S
C5218 C2242 0.896 . S
C5223 C2074 0.922 . S
C5228 C2660 1.138 . S
C5233 C1077 0.892 . S
C5238 C3343 1.105 . S
C5243 C2335 1.142 . S
C5248 C226 1.185 . S
C5253 C1245 0.892 . S
C5258 C3434 1.062 . S
C5263 C2503 1.101 . S
C5268 C69 0.899 . S
C5273 C3511 1.129 . S
C5278 C2925 0.911 . S
C5283 C405 0.901 . S
C5288 C3595 1.121 . S
C5293 C2841 0.918 . S
C5298 C2419 1.135 . S
C5303 C573 0.919 . S
C5308 C3679 1.135 . S
C5313 C58 1.162 . S
C5318 C3770 1.071 . S
C5323 C3854 1.102 . S
C5328 C1066 1.203 . S
C5333 C237 0.915 . S
C5338 C3931 1.122 . S
C5343 C1234 1.160 . S
C5348 C4022 1.069 . S
C5353 C394 1.163 . S
C5358 C4015 1.125 . S
C5363 C2830 1.191 . S
C5368 C3763 1.150 . S
C5373 C3847 1.162 . S
C5378 C562 1.201 . S
C5383 C2914 1.175 . S
C5388 C3938 1.078 . S
C5393 C741 0.912 . S
C5398 C1418 1.070 . S
C5403 C3686 1.072 . S
C5408 C3250 1.159 . S
C5413 C3518 1.083 . S
C5418 C730 1.176 . S
C5423 C3093 0.922 . S
C5428 C3602 1.085 . S
C5433 C1838 1.075 . S
C5438 C3177 0.910 . S
C5443 C1586 1.081 . S
C5448 C898 1.180 . S
C5453 C993 0.894 . S
C5458 C3350 1.046 . S
C5463 C825 0.917 . S
C5468 C3427 1.137 . S
