# Generated by pormake.
# Topology upb, (4)-cn, num edge types: 1
# Building blocks:
#     Node 0, Type 0, BuildingBlock: ICAMEG_clean_sbu_1, # of connection points: 4
#     Node 1, Type 0, BuildingBlock: ICAMEG_clean_sbu_1, # of connection points: 4
#     Node 2, Type 0, BuildingBlock: ICAMEG_clean_sbu_1, # of connection points: 4
#     Node 3, Type 0, BuildingBlock: ICAMEG_clean_sbu_1, # of connection points: 4
#     Node 4, Type 0, BuildingBlock: ICAMEG_clean_sbu_1, # of connection points: 4
#     Node 5, Type 0, BuildingBlock: ICAMEG_clean_sbu_1, # of connection points: 4
#     Node 6, Type 0, BuildingBlock: ICAMEG_clean_sbu_1, # of connection points: 4
#     Node 7, Type 0, BuildingBlock: ICAMEG_clean_sbu_1, # of connection points: 4
#     Node 8, Type 0, BuildingBlock: ICAMEG_clean_sbu_1, # of connection points: 4
#     Node 9, Type 0, BuildingBlock: ICAMEG_clean_sbu_1, # of connection points: 4
#     Node 10, Type 0, BuildingBlock: ICAMEG_clean_sbu_1, # of connection points: 4
#     Node 11, Type 0, BuildingBlock: ICAMEG_clean_sbu_1, # of connection points: 4
#     Node 12, Type 0, BuildingBlock: ICAMEG_clean_sbu_1, # of connection points: 4
#     Node 13, Type 0, BuildingBlock: ICAMEG_clean_sbu_1, # of connection points: 4
#     Node 14, Type 0, BuildingBlock: ICAMEG_clean_sbu_1, # of connection points: 4
#     Node 15, Type 0, BuildingBlock: ICAMEG_clean_sbu_1, # of connection points: 4
#     Edge 16, Type (0, 0), BuildingBlock: UVAHIK_clean_linker_0, # of connection points: 2
#     Edge 17, Type (0, 0), BuildingBlock: UVAHIK_clean_linker_0, # of connection points: 2
#     Edge 18, Type (0, 0), BuildingBlock: UVAHIK_clean_linker_0, # of connection points: 2
#     Edge 19, Type (0, 0), BuildingBlock: UVAHIK_clean_linker_0, # of connection points: 2
#     Edge 20, Type (0, 0), BuildingBlock: UVAHIK_clean_linker_0, # of connection points: 2
#     Edge 21, Type (0, 0), BuildingBlock: UVAHIK_clean_linker_0, # of connection points: 2
#     Edge 22, Type (0, 0), BuildingBlock: UVAHIK_clean_linker_0, # of connection points: 2
#     Edge 23, Type (0, 0), BuildingBlock: UVAHIK_clean_linker_0, # of connection points: 2
#     Edge 24, Type (0, 0), BuildingBlock: UVAHIK_clean_linker_0, # of connection points: 2
#     Edge 25, Type (0, 0), BuildingBlock: UVAHIK_clean_linker_0, # of connection points: 2
#     Edge 26, Type (0, 0), BuildingBlock: UVAHIK_clean_linker_0, # of connection points: 2
#     Edge 27, Type (0, 0), BuildingBlock: UVAHIK_clean_linker_0, # of connection points: 2
#     Edge 28, Type (0, 0), BuildingBlock: UVAHIK_clean_linker_0, # of connection points: 2
#     Edge 29, Type (0, 0), BuildingBlock: UVAHIK_clean_linker_0, # of connection points: 2
#     Edge 30, Type (0, 0), BuildingBlock: UVAHIK_clean_linker_0, # of connection points: 2
#     Edge 31, Type (0, 0), BuildingBlock: UVAHIK_clean_linker_0, # of connection points: 2
#     Edge 32, Type (0, 0), BuildingBlock: UVAHIK_clean_linker_0, # of connection points: 2
#     Edge 33, Type (0, 0), BuildingBlock: UVAHIK_clean_linker_0, # of connection points: 2
#     Edge 34, Type (0, 0), BuildingBlock: UVAHIK_clean_linker_0, # of connection points: 2
#     Edge 35, Type (0, 0), BuildingBlock: UVAHIK_clean_linker_0, # of connection points: 2
#     Edge 36, Type (0, 0), BuildingBlock: UVAHIK_clean_linker_0, # of connection points: 2
#     Edge 37, Type (0, 0), BuildingBlock: UVAHIK_clean_linker_0, # of connection points: 2
#     Edge 38, Type (0, 0), BuildingBlock: UVAHIK_clean_linker_0, # of connection points: 2
#     Edge 39, Type (0, 0), BuildingBlock: UVAHIK_clean_linker_0, # of connection points: 2
#     Edge 40, Type (0, 0), BuildingBlock: UVAHIK_clean_linker_0, # of connection points: 2
#     Edge 41, Type (0, 0), BuildingBlock: UVAHIK_clean_linker_0, # of connection points: 2
#     Edge 42, Type (0, 0), BuildingBlock: UVAHIK_clean_linker_0, # of connection points: 2
#     Edge 43, Type (0, 0), BuildingBlock: UVAHIK_clean_linker_0, # of connection points: 2
#     Edge 44, Type (0, 0), BuildingBlock: UVAHIK_clean_linker_0, # of connection points: 2
#     Edge 45, Type (0, 0), BuildingBlock: UVAHIK_clean_linker_0, # of connection points: 2
#     Edge 46, Type (0, 0), BuildingBlock: UVAHIK_clean_linker_0, # of connection points: 2
#     Edge 47, Type (0, 0), BuildingBlock: UVAHIK_clean_linker_0, # of connection points: 2
# Relax obj value: 0.193
# Max RMSD: 0.052
# Mean RMSD: 0.052
data_MOF--net-upb--node1-ICAMEG_clean_sbu_1--edge1-UVAHIK_clean_linker_0
_symmetry_space_group_name_H-M    P1
_symmetry_Int_Tables_number       1
_symmetry_cell_setting            triclinic
loop_
_symmetry_equiv_pos_as_xyz
'x, y, z'
_cell_length_a     63.371821
_cell_length_b     63.375732
_cell_length_c     31.39003
_cell_angle_alpha  90.002847
_cell_angle_beta   89.986657
_cell_angle_gamma 89.954439
loop_
_atom_site_label
_atom_site_type_symbol
_atom_site_fract_x
_atom_site_fract_y
_atom_site_fract_z
_atom_type_partial_charge
Co0 Co 0.06126 0.18933 0.2537 0.0
Co1 Co 0.04737 0.23516 0.20243 0.0
O2 O 0.06807 0.21374 0.21864 0.0
C3 C 0.08211 0.16783 0.18022 0.0
O4 O 0.06832 0.17632 0.1541 0.0
C5 C 0.08151 0.25892 0.24334 0.0
O6 O 0.07998 0.24521 0.27452 0.0
O7 O 0.03817 0.23883 0.2627 0.0
O8 O 0.04113 0.20607 0.28907 0.0
H9 H 0.97625 0.27025 0.20166 0.0
H10 H 0.10603 0.20147 0.24183 0.0
O11 O 0.08147 0.17184 0.21993 0.0
H12 H 0.09364 0.20505 0.39676 0.0
H13 H 0.07847 0.12293 0.3347 0.0
H14 H 0.02173 0.17088 0.28777 0.0
H15 H 0.06514 0.19414 0.34805 0.0
H16 H 0.08671 0.15456 0.29207 0.0
O17 O 0.06937 0.25747 0.21111 0.0
H18 H 0.00221 0.24296 0.2216 0.0
H19 H 0.04949 0.27398 0.14906 0.0
H20 H 0.0128 0.13951 0.33065 0.0
H21 H 0.13503 0.21226 0.28946 0.0
H22 H 0.04129 0.11529 0.35441 0.0
H23 H 0.12889 0.21419 0.36751 0.0
O24 O 0.03791 0.18166 0.21453 0.0
H25 H 0.10058 0.22837 0.0845 0.0
H26 H 0.02477 0.22908 0.11999 0.0
H27 H 0.03583 0.22383 0.0454 0.0
H28 H 0.07398 0.2235 0.02725 0.0
H29 H 0.08883 0.23342 0.15875 0.0
H30 H 0.0241 0.30173 0.12862 0.0
H31 H 0.98715 0.2999 0.15484 0.0
O32 O 0.02505 0.2131 0.19362 0.0
C33 C 0.03496 0.22517 0.29174 0.0
C34 C 0.99228 0.27118 0.18991 0.0
C35 C 0.01914 0.28886 0.14896 0.0
N36 N 0.02727 0.25678 0.18618 0.0
C37 C 0.00703 0.25574 0.20098 0.0
C38 C 0.03346 0.27314 0.1607 0.0
C39 C 0.99841 0.28783 0.16367 0.0
C40 C 0.10331 0.20204 0.2758 0.0
N41 N 0.08394 0.1971 0.29213 0.0
C42 C 0.11976 0.20825 0.30259 0.0
C43 C 0.11629 0.20937 0.34638 0.0
C44 C 0.09651 0.20426 0.36281 0.0
C45 C 0.08042 0.19814 0.33505 0.0
C46 C 0.06592 0.1334 0.32464 0.0
C47 C 0.03422 0.16049 0.29826 0.0
C48 C 0.07049 0.15132 0.30045 0.0
N49 N 0.05473 0.16467 0.28783 0.0
C50 C 0.02907 0.14272 0.32242 0.0
C51 C 0.04506 0.12912 0.3357 0.0
C52 C 0.02391 0.193 0.19636 0.0
C53 C 0.08391 0.22854 0.092 0.0
C54 C 0.04141 0.22889 0.11237 0.0
C55 C 0.04757 0.22596 0.07006 0.0
C56 C 0.06898 0.22578 0.05989 0.0
N57 N 0.05615 0.23166 0.14366 0.0
C58 C 0.07717 0.23146 0.13396 0.0
Co59 Co 0.80995 0.05925 0.24368 0.0
Co60 Co 0.76248 0.04286 0.20031 0.0
O61 O 0.78512 0.06355 0.20796 0.0
C62 C 0.84512 0.06666 0.18422 0.0
O63 O 0.85151 0.04766 0.19466 0.0
C64 C 0.7414 0.07991 0.2369 0.0
O65 O 0.75675 0.08008 0.26494 0.0
O66 O 0.76094 0.0369 0.26262 0.0
O67 O 0.79279 0.04526 0.2887 0.0
H68 H 0.72581 0.97334 0.22099 0.0
H69 H 0.8002 0.102 0.21092 0.0
O70 O 0.82776 0.07366 0.19921 0.0
H71 H 0.79929 0.10885 0.36738 0.0
H72 H 0.87813 0.08087 0.31408 0.0
H73 H 0.82681 0.02331 0.29345 0.0
H74 H 0.80759 0.07473 0.3336 0.0
H75 H 0.84652 0.08625 0.26957 0.0
O76 O 0.74106 0.06588 0.20781 0.0
H77 H 0.75448 0.99924 0.23043 0.0
H78 H 0.72162 0.04346 0.15337 0.0
H79 H 0.85819 0.01726 0.33832 0.0
H80 H 0.79206 0.13649 0.24338 0.0
H81 H 0.88412 0.04617 0.34884 0.0
H82 H 0.79147 0.14005 0.32217 0.0
O83 O 0.81508 0.03131 0.21618 0.0
H84 H 0.76476 0.08925 0.07055 0.0
H85 H 0.76474 0.01584 0.12266 0.0
H86 H 0.76667 0.02268 0.04541 0.0
H87 H 0.76661 0.05961 0.01889 0.0
H88 H 0.76304 0.08169 0.14758 0.0
H89 H 0.6925 0.01811 0.14338 0.0
H90 H 0.69454 0.98273 0.1772 0.0
O91 O 0.78355 0.01964 0.19302 0.0
C92 C 0.7742 0.03795 0.29306 0.0
C93 C 0.72477 0.98868 0.20597 0.0
C94 C 0.70606 0.01382 0.16246 0.0
N95 N 0.73979 0.02275 0.19216 0.0
C96 C 0.74098 0.00338 0.21109 0.0
C97 C 0.72257 0.02812 0.16829 0.0
C98 C 0.70722 0.99397 0.18143 0.0
C99 C 0.80023 0.10348 0.24522 0.0
N100 N 0.80447 0.08637 0.2703 0.0
C101 C 0.7955 0.12303 0.26342 0.0
C102 C 0.79514 0.12501 0.30763 0.0
C103 C 0.7995 0.1075 0.33301 0.0
C104 C 0.80413 0.08819 0.3137 0.0
C105 C 0.86694 0.06816 0.30978 0.0
C106 C 0.838 0.03598 0.29798 0.0
C107 C 0.849 0.07111 0.28464 0.0
N108 N 0.83479 0.05512 0.27902 0.0
C109 C 0.85575 0.03246 0.32338 0.0
C110 C 0.87029 0.04868 0.32927 0.0
C111 C 0.80334 0.0173 0.19899 0.0
C112 C 0.76475 0.07309 0.08171 0.0
C113 C 0.76482 0.03196 0.11138 0.0
C114 C 0.76586 0.03573 0.0676 0.0
C115 C 0.76581 0.05645 0.05274 0.0
N116 N 0.76369 0.04836 0.13958 0.0
C117 C 0.76372 0.06872 0.12527 0.0
Co118 Co 0.9425 0.80816 0.23279 0.0
Co119 Co 0.95955 0.7596 0.1962 0.0
O120 O 0.93815 0.78175 0.20217 0.0
C121 C 0.93141 0.8401 0.16839 0.0
O122 O 0.95082 0.84702 0.1727 0.0
C123 C 0.92375 0.73876 0.23801 0.0
O124 O 0.92376 0.75471 0.26467 0.0
O125 O 0.96657 0.76053 0.25825 0.0
O126 O 0.95889 0.79364 0.2781 0.0
H127 H 0.03074 0.72614 0.21647 0.0
H128 H 0.8991 0.7955 0.20871 0.0
O129 O 0.92568 0.82342 0.18799 0.0
H130 H 0.89831 0.80078 0.36544 0.0
H131 H 0.92025 0.87833 0.29393 0.0
H132 H 0.97931 0.8286 0.27369 0.0
H133 H 0.93065 0.80888 0.325 0.0
H134 H 0.91478 0.84461 0.25629 0.0
O135 O 0.9374 0.73788 0.20824 0.0
H136 H 0.00395 0.75418 0.22385 0.0
H137 H 0.95959 0.71711 0.15554 0.0
H138 H 0.98545 0.86212 0.31164 0.0
H139 H 0.86634 0.78748 0.24791 0.0
H140 H 0.95579 0.88726 0.32194 0.0
H141 H 0.86584 0.79002 0.32686 0.0
O142 O 0.96901 0.81311 0.2005 0.0
H143 H 0.91089 0.75609 0.06997 0.0
H144 H 0.98514 0.75963 0.1164 0.0
H145 H 0.97691 0.75868 0.03965 0.0
H146 H 0.93955 0.75682 0.016 0.0
H147 H 0.91982 0.75727 0.14642 0.0
H148 H 0.98583 0.68858 0.14773 0.0
H149 H 0.02173 0.69305 0.17817 0.0
O150 O 0.9819 0.78106 0.18389 0.0
C151 C 0.96641 0.77538 0.28566 0.0
C152 C 0.01518 0.72403 0.20295 0.0
C153 C 0.98996 0.70294 0.16442 0.0
N154 N 0.98031 0.73733 0.18986 0.0
C155 C -3e-05 0.73988 0.20692 0.0
C156 C 0.97515 0.71912 0.16903 0.0
C157 C 0.0101 0.70546 0.1815 0.0
C158 C 0.89893 0.7969 0.24303 0.0
N159 N 0.91674 0.80279 0.26448 0.0
C160 C 0.88036 0.79223 0.26507 0.0
C161 C 0.8801 0.79362 0.30937 0.0
C162 C 0.89832 0.79965 0.33103 0.0
C163 C 0.91661 0.80416 0.30795 0.0
C164 C 0.93329 0.86749 0.2897 0.0
C165 C 0.96631 0.83944 0.27816 0.0
C166 C 0.93029 0.84838 0.26844 0.0
N167 N 0.9467 0.83461 0.26293 0.0
C168 C 0.96989 0.8584 0.29964 0.0
C169 C 0.95324 0.8725 0.3054 0.0
C170 C 0.98328 0.80116 0.18494 0.0
C171 C 0.92723 0.75685 0.07988 0.0
C172 C 0.96884 0.75894 0.10637 0.0
C173 C 0.96428 0.75834 0.06286 0.0
C174 C 0.94332 0.75729 0.04961 0.0
N175 N 0.95297 0.75844 0.13588 0.0
C176 C 0.93239 0.75747 0.12313 0.0
Co177 Co 0.18488 0.937 0.24066 0.0
Co178 Co 0.23289 0.95141 0.19687 0.0
O179 O 0.21025 0.9309 0.20732 0.0
C180 C 0.16919 0.91345 0.16282 0.0
O181 O 0.18773 0.91376 0.14432 0.0
C182 C 0.2546 0.91598 0.23895 0.0
O183 O 0.24017 0.91729 0.26884 0.0
O184 O 0.23429 0.9595 0.25836 0.0
O185 O 0.20172 0.95311 0.2829 0.0
H186 H 0.26919 0.02166 0.20765 0.0
H187 H 0.19576 0.89266 0.21845 0.0
O188 O 0.16644 0.92134 0.19971 0.0
H189 H 0.19293 0.89455 0.3753 0.0
H190 H 0.11511 0.91987 0.30933 0.0
H191 H 0.16806 0.97532 0.28288 0.0
H192 H 0.18555 0.92658 0.33331 0.0
H193 H 0.14735 0.91201 0.26823 0.0
O194 O 0.25427 0.92866 0.20746 0.0
H195 H 0.24064 0.99601 0.22068 0.0
H196 H 0.2739 0.94931 0.15055 0.0
H197 H 0.13613 0.98382 0.32445 0.0
H198 H 0.20303 0.86025 0.25913 0.0
H199 H 0.10938 0.95597 0.33793 0.0
H200 H 0.20169 0.86105 0.33819 0.0
O201 O 0.1798 0.96306 0.20727 0.0
H202 H 0.23315 0.90087 0.07336 0.0
H203 H 0.22989 0.97572 0.1157 0.0
H204 H 0.22853 0.96635 0.03955 0.0
H205 H 0.23024 0.92869 0.01792 0.0
H206 H 0.23406 0.91091 0.14921 0.0
H207 H 0.30289 0.9744 0.13703 0.0
H208 H 0.30059 0.01089 0.16554 0.0
O209 O 0.21176 0.97439 0.18613 0.0
C210 C 0.22034 0.96022 0.28757 0.0
C211 C 0.27034 0.00582 0.19494 0.0
C212 C 0.28927 0.97929 0.15536 0.0
N213 N 0.25554 0.97125 0.18611 0.0
C214 C 0.2542 0.99125 0.20212 0.0
C215 C 0.27283 0.96514 0.16319 0.0
C216 C 0.28797 0.99976 0.17135 0.0
C217 C 0.19481 0.89311 0.25274 0.0
N218 N 0.1899 0.91146 0.27335 0.0
C219 C 0.19909 0.87471 0.27567 0.0
C220 C 0.19838 0.87518 0.32002 0.0
C221 C 0.19348 0.89397 0.34086 0.0
C222 C 0.18932 0.91207 0.31688 0.0
C223 C 0.12668 0.93212 0.30379 0.0
C224 C 0.15657 0.96308 0.28889 0.0
C225 C 0.14495 0.92777 0.2805 0.0
N226 N 0.15969 0.94314 0.27359 0.0
C227 C 0.13848 0.968 0.31232 0.0
C228 C 0.12348 0.95237 0.31983 0.0
C229 C 0.19179 0.97665 0.18965 0.0
C230 C 0.2324 0.91734 0.08238 0.0
C231 C 0.23038 0.95928 0.10663 0.0
C232 C 0.22974 0.95408 0.06341 0.0
C233 C 0.23074 0.93295 0.05129 0.0
N234 N 0.23195 0.94388 0.13696 0.0
C235 C 0.23301 0.92313 0.12529 0.0
Co236 Co 0.06358 0.81502 0.75836 0.0
Co237 Co 0.04699 0.76802 0.80379 0.0
O238 O 0.06832 0.78999 0.79355 0.0
C239 C 0.08647 0.83137 0.83684 0.0
O240 O 0.08772 0.81279 0.85505 0.0
C241 C 0.08255 0.7457 0.76407 0.0
O242 O 0.08251 0.76091 0.73571 0.0
O243 O 0.03934 0.7664 0.74211 0.0
O244 O 0.04805 0.79802 0.71549 0.0
H245 H 0.97572 0.73385 0.79171 0.0
H246 H 0.10728 0.80339 0.78477 0.0
O247 O 0.07841 0.83373 0.80001 0.0
H248 H 0.10858 0.80454 0.62787 0.0
H249 H 0.08366 0.88359 0.6881 0.0
H250 H 0.02649 0.83226 0.71255 0.0
H251 H 0.07593 0.81313 0.66686 0.0
H252 H 0.08996 0.85163 0.73113 0.0
O253 O 0.06908 0.74581 0.79424 0.0
H254 H 0.00235 0.7615 0.77873 0.0
H255 H 0.04743 0.72731 0.85128 0.0
H256 H 0.01954 0.86391 0.669 0.0
H257 H 0.14028 0.79494 0.74714 0.0
H258 H 0.04826 0.88984 0.65652 0.0
H259 H 0.14109 0.79541 0.66805 0.0
O260 O 0.037 0.82099 0.7891 0.0
H261 H 0.09655 0.76749 0.92884 0.0
H262 H 0.02213 0.77225 0.88405 0.0
H263 H 0.03095 0.77396 0.96046 0.0
H264 H 0.06839 0.77152 0.98331 0.0
H265 H 0.08706 0.76617 0.85271 0.0
H266 H 0.02135 0.69921 0.86476 0.0
H267 H 0.98517 0.70243 0.835 0.0
O268 O 0.02459 0.78997 0.81323 0.0
C269 C 0.03992 0.77977 0.71182 0.0
C270 C 0.99141 0.7323 0.80495 0.0
C271 C 0.01703 0.71284 0.8459 0.0
N272 N 0.02635 0.74609 0.81451 0.0
C273 C 0.00653 0.74793 0.79782 0.0
C274 C 0.03174 0.72878 0.83809 0.0
C275 C 0.99673 0.71466 0.82921 0.0
C276 C 0.10753 0.80403 0.75048 0.0
N277 N 0.08972 0.80914 0.72821 0.0
C278 C 0.12626 0.79906 0.72927 0.0
C279 C 0.12669 0.79927 0.6849 0.0
C280 C 0.10846 0.80439 0.66235 0.0
C281 C 0.09001 0.80923 0.68464 0.0
C282 C 0.07104 0.87236 0.69314 0.0
C283 C 0.03911 0.84337 0.7069 0.0
C284 C 0.07451 0.85424 0.71749 0.0
N285 N 0.05868 0.83993 0.72378 0.0
C286 C 0.03507 0.8613 0.68238 0.0
C287 C 0.05118 0.87586 0.67544 0.0
C288 C 0.02298 0.80988 0.80765 0.0
C289 C 0.08018 0.76856 0.91929 0.0
C290 C 0.03848 0.77138 0.89367 0.0
C291 C 0.04337 0.77225 0.93702 0.0
C292 C 0.06437 0.77085 0.94983 0.0
N293 N 0.05407 0.76916 0.86389 0.0
C294 C 0.0747 0.76773 0.87622 0.0
Co295 Co 0.18881 0.06106 0.75292 0.0
Co296 Co 0.23477 0.04533 0.80102 0.0
O297 O 0.21426 0.06707 0.78544 0.0
C298 C 0.17007 0.08485 0.8259 0.0
O299 O 0.17832 0.07127 0.85277 0.0
C300 C 0.25972 0.07776 0.75739 0.0
O301 O 0.24564 0.07657 0.72683 0.0
O302 O 0.23692 0.03555 0.74075 0.0
O303 O 0.20361 0.0393 0.71807 0.0
H304 H 0.26599 0.97243 0.80229 0.0
H305 H 0.20388 0.10519 0.75969 0.0
O306 O 0.17321 0.08298 0.78604 0.0
H307 H 0.20348 0.08933 0.60589 0.0
H308 H 0.12196 0.08037 0.67536 0.0
H309 H 0.16753 0.022 0.7238 0.0
H310 H 0.19179 0.06268 0.65798 0.0
H311 H 0.15478 0.08766 0.71493 0.0
O312 O 0.25804 0.06604 0.79019 0.0
H313 H 0.23984 0.99967 0.78301 0.0
H314 H 0.27449 0.0458 0.85177 0.0
H315 H 0.13492 0.014 0.68408 0.0
H316 H 0.21548 0.1324 0.70862 0.0
H317 H 0.1119 0.04331 0.65955 0.0
H318 H 0.21542 0.1245 0.63112 0.0
O319 O 0.18063 0.03907 0.79473 0.0
H320 H 0.23256 0.09976 0.91734 0.0
H321 H 0.22889 0.02374 0.88466 0.0
H322 H 0.22533 0.03566 0.95911 0.0
H323 H 0.22719 0.07393 0.97584 0.0
H324 H 0.23589 0.08716 0.84328 0.0
H325 H 0.30112 0.01911 0.87149 0.0
H326 H 0.2969 0.9821 0.84685 0.0
O327 O 0.21172 0.02429 0.81212 0.0
C328 C 0.22241 0.03256 0.71332 0.0
C329 C 0.26797 0.98849 0.81333 0.0
C330 C 0.2877 0.01469 0.85212 0.0
N331 N 0.25555 0.02424 0.81656 0.0
C332 C 0.25319 0.00396 0.80262 0.0
C333 C 0.2726 0.02974 0.84078 0.0
C334 C 0.28532 0.99393 0.8383 0.0
C335 C 0.20357 0.10173 0.72598 0.0
N336 N 0.1971 0.08239 0.71186 0.0
C337 C 0.21025 0.11716 0.69723 0.0
C338 C 0.21025 0.1127 0.65376 0.0
C339 C 0.20357 0.09297 0.63958 0.0
C340 C 0.19702 0.07792 0.66925 0.0
C341 C 0.13189 0.06746 0.68579 0.0
C342 C 0.15765 0.03484 0.71302 0.0
C343 C 0.15048 0.07149 0.70827 0.0
N344 N 0.16315 0.05527 0.72133 0.0
C345 C 0.13918 0.03022 0.69064 0.0
C346 C 0.12626 0.04667 0.67692 0.0
C347 C 0.19155 0.02446 0.81197 0.0
C348 C 0.23177 0.08305 0.91046 0.0
C349 C 0.22967 0.04042 0.89167 0.0
C350 C 0.22768 0.04707 0.9339 0.0
C351 C 0.22874 0.06854 0.94327 0.0
N352 N 0.2327 0.05474 0.85968 0.0
C353 C 0.23372 0.07581 0.86861 0.0
Co354 Co 0.94291 0.18871 0.76026 0.0
Co355 Co 0.95484 0.23714 0.8049 0.0
O356 O 0.93533 0.21358 0.79393 0.0
C357 C 0.9167 0.17113 0.83371 0.0
O358 O 0.91323 0.18961 0.85122 0.0
C359 C 0.91798 0.25718 0.76458 0.0
O360 O 0.91934 0.24237 0.73547 0.0
O361 O 0.96252 0.23947 0.7433 0.0
O362 O 0.95888 0.20643 0.71936 0.0
H363 H 0.02322 0.27687 0.7942 0.0
H364 H 0.89769 0.19867 0.77871 0.0
O365 O 0.92742 0.16933 0.79961 0.0
H366 H 0.90284 0.19495 0.62234 0.0
H367 H 0.93021 0.11841 0.68983 0.0
H368 H 0.98254 0.174 0.71984 0.0
H369 H 0.93414 0.18863 0.66702 0.0
H370 H 0.92016 0.15011 0.73065 0.0
O371 O 0.93114 0.25761 0.79528 0.0
H372 H 0.9989 0.24724 0.78056 0.0
H373 H 0.95102 0.27756 0.85284 0.0
H374 H 0.99321 0.14263 0.67858 0.0
H375 H 0.86599 0.2048 0.73534 0.0
H376 H 0.96695 0.11456 0.66334 0.0
H377 H 0.86841 0.20304 0.65646 0.0
O378 O 0.96853 0.18453 0.79533 0.0
H379 H 0.90478 0.23294 0.92884 0.0
H380 H 0.97957 0.235 0.8857 0.0
H381 H 0.97051 0.23231 0.96188 0.0
H382 H 0.93288 0.23133 0.98391 0.0
H383 H 0.91455 0.23536 0.85293 0.0
H384 H 0.97475 0.3076 0.86697 0.0
H385 H 0.01116 0.30733 0.83769 0.0
O386 O 0.9789 0.21705 0.81474 0.0
C387 C 0.96447 0.22552 0.71434 0.0
C388 C 0.00741 0.27714 0.80724 0.0
C389 C 0.98019 0.29441 0.84804 0.0
N390 N 0.97364 0.26061 0.81616 0.0
C391 C 0.9936 0.26039 0.79973 0.0
C392 C 0.96682 0.27738 0.83985 0.0
C393 C 0.00063 0.29424 0.83161 0.0
C394 C 0.89888 0.19741 0.74461 0.0
N395 N 0.91776 0.19284 0.72568 0.0
C396 C 0.88086 0.2011 0.7201 0.0
C397 C 0.88224 0.20017 0.67585 0.0
C398 C 0.90154 0.19564 0.6567 0.0
C399 C 0.91923 0.19207 0.68222 0.0
C400 C 0.94178 0.13056 0.69617 0.0
C401 C 0.97098 0.16192 0.71307 0.0
C402 C 0.9362 0.14853 0.71933 0.0
N403 N 0.95071 0.164 0.72727 0.0
C404 C 0.97714 0.14417 0.6898 0.0
C405 C 0.9624 0.12841 0.6813 0.0
C406 C 0.98176 0.19712 0.8123 0.0
C407 C 0.92124 0.23337 0.91965 0.0
C408 C 0.96316 0.23438 0.89496 0.0
C409 C 0.95813 0.23296 0.93819 0.0
C410 C 0.93701 0.23244 0.95052 0.0
N411 N 0.9476 0.23528 0.86485 0.0
C412 C 0.92686 0.23481 0.87672 0.0
Co413 Co 0.80713 0.93796 0.75006 0.0
Co414 Co 0.76207 0.95405 0.80393 0.0
O415 O 0.78413 0.93321 0.79046 0.0
C416 C 0.82804 0.9182 0.82761 0.0
O417 O 0.81033 0.9166 0.84897 0.0
C418 C 0.73967 0.91789 0.76676 0.0
O419 O 0.75453 0.91783 0.73768 0.0
O420 O 0.75835 0.96224 0.74285 0.0
O421 O 0.78713 0.95052 0.70852 0.0
H422 H 0.72639 0.02484 0.79877 0.0
H423 H 0.79814 0.89499 0.78487 0.0
O424 O 0.8285 0.92571 0.79 0.0
H425 H 0.79548 0.88726 0.62883 0.0
H426 H 0.87404 0.91981 0.67129 0.0
H427 H 0.81899 0.97368 0.69415 0.0
H428 H 0.80367 0.92167 0.66134 0.0
H429 H 0.84464 0.91319 0.72104 0.0
O430 O 0.73995 0.93165 0.79642 0.0
H431 H 0.75403 0.99879 0.78137 0.0
H432 H 0.72291 0.95253 0.85639 0.0
H433 H 0.84799 0.98086 0.64377 0.0
H434 H 0.7902 0.86029 0.75378 0.0
H435 H 0.87578 0.95381 0.6321 0.0
H436 H 0.78872 0.85623 0.67516 0.0
O437 O 0.81285 0.96606 0.77559 0.0
H438 H 0.76655 0.90348 0.92702 0.0
H439 H 0.7683 0.97834 0.8843 0.0
H440 H 0.7726 0.96894 0.96003 0.0
H441 H 0.77168 0.93128 0.98183 0.0
H442 H 0.76261 0.91356 0.85155 0.0
H443 H 0.69483 0.97802 0.87434 0.0
H444 H 0.69652 0.0145 0.84557 0.0
O445 O 0.78385 0.97659 0.81112 0.0
C446 C 0.76924 0.95963 0.70912 0.0
C447 C 0.72551 0.00901 0.8116 0.0
C448 C 0.70778 0.98273 0.85397 0.0
N449 N 0.74015 0.97422 0.8181 0.0
C450 C 0.74114 0.99421 0.80196 0.0
C451 C 0.7237 0.96835 0.84362 0.0
C452 C 0.70875 0.00319 0.83783 0.0
C453 C 0.79794 0.89338 0.75073 0.0
N454 N 0.8017 0.91039 0.72508 0.0
C455 C 0.79325 0.87366 0.73324 0.0
C456 C 0.79237 0.8714 0.68914 0.0
C457 C 0.79615 0.8888 0.66314 0.0
C458 C 0.80076 0.90827 0.68177 0.0
C459 C 0.86199 0.9317 0.67602 0.0
C460 C 0.83093 0.96177 0.68897 0.0
C461 C 0.84534 0.92806 0.70423 0.0
N462 N 0.83 0.94297 0.71017 0.0
C463 C 0.84736 0.96595 0.66052 0.0
C464 C 0.86296 0.95078 0.65403 0.0
C465 C 0.80282 0.97931 0.79857 0.0
C466 C 0.76694 0.91995 0.91792 0.0
C467 C 0.76806 0.9619 0.89346 0.0
C468 C 0.77041 0.95668 0.93643 0.0
C469 C 0.76985 0.93555 0.94865 0.0
N470 N 0.76521 0.94651 0.8635 0.0
C471 C 0.76463 0.92576 0.87525 0.0
Co472 Co 0.55468 0.68901 0.75175 0.0
Co473 Co 0.54388 0.73541 0.70054 0.0
O474 O 0.56353 0.71333 0.71829 0.0
C475 C 0.57856 0.66762 0.68198 0.0
O476 O 0.56617 0.67645 0.65358 0.0
C477 C 0.5782 0.75831 0.74306 0.0
O478 O 0.57587 0.74483 0.77444 0.0
O479 O 0.53427 0.73946 0.76036 0.0
O480 O 0.53334 0.70604 0.78373 0.0
H481 H 0.47414 0.7731 0.69591 0.0
H482 H 0.60008 0.70016 0.74841 0.0
O483 O 0.576 0.67126 0.72152 0.0
H484 H 0.58077 0.7036 0.90045 0.0
H485 H 0.56681 0.62198 0.83436 0.0
H486 H 0.51341 0.67143 0.77862 0.0
H487 H 0.55439 0.69345 0.84652 0.0
H488 H 0.57758 0.65351 0.79378 0.0
O489 O 0.56653 0.75696 0.7101 0.0
H490 H 0.49884 0.74494 0.71747 0.0
H491 H 0.54807 0.77394 0.64681 0.0
H492 H 0.50196 0.64017 0.8193 0.0
H493 H 0.62703 0.71012 0.80139 0.0
H494 H 0.52876 0.61519 0.84749 0.0
H495 H 0.6174 0.71199 0.878 0.0
O496 O 0.53307 0.68204 0.70836 0.0
H497 H 0.59829 0.72616 0.58561 0.0
H498 H 0.52213 0.73002 0.61692 0.0
H499 H 0.53395 0.72409 0.54302 0.0
H500 H 0.57229 0.72216 0.52697 0.0
H501 H 0.58577 0.73192 0.65913 0.0
H502 H 0.52396 0.80252 0.62479 0.0
H503 H 0.48668 0.80215 0.64923 0.0
O504 O 0.5208 0.71416 0.69067 0.0
C505 C 0.52899 0.72558 0.78767 0.0
C506 C 0.49033 0.77339 0.68493 0.0
C507 C 0.5183 0.78992 0.64506 0.0
N508 N 0.5248 0.75771 0.68308 0.0
C509 C 0.50436 0.75746 0.69692 0.0
C510 C 0.53188 0.77373 0.6577 0.0
C511 C 0.49738 0.7897 0.65877 0.0
C512 C 0.59584 0.70068 0.78175 0.0
N513 N 0.5757 0.69616 0.79433 0.0
C514 C 0.61114 0.70643 0.81158 0.0
C515 C 0.60572 0.70752 0.85455 0.0
C516 C 0.58516 0.70283 0.86716 0.0
C517 C 0.57027 0.69715 0.83644 0.0
C518 C 0.55499 0.63277 0.82232 0.0
C519 C 0.52517 0.6607 0.791 0.0
C520 C 0.56098 0.65064 0.79926 0.0
N521 N 0.54614 0.66439 0.78415 0.0
C522 C 0.51859 0.643 0.81391 0.0
C523 C 0.53364 0.62898 0.82968 0.0
C524 C 0.51939 0.69402 0.69088 0.0
C525 C 0.58155 0.72703 0.59218 0.0
C526 C 0.53884 0.72915 0.61021 0.0
C527 C 0.54544 0.72583 0.56829 0.0
C528 C 0.56695 0.72476 0.5593 0.0
N529 N 0.55326 0.73142 0.64227 0.0
C530 C 0.57437 0.73035 0.63372 0.0
Co531 Co 0.30769 0.55922 0.73161 0.0
Co532 Co 0.25868 0.54395 0.69454 0.0
O533 O 0.28169 0.56443 0.70009 0.0
C534 C 0.34074 0.56871 0.66856 0.0
O535 O 0.34726 0.54933 0.67502 0.0
C536 C 0.23891 0.58108 0.73391 0.0
O537 O 0.25466 0.58069 0.76103 0.0
O538 O 0.25878 0.53782 0.75689 0.0
O539 O 0.29221 0.54366 0.77694 0.0
H540 H 0.22183 0.47475 0.71813 0.0
H541 H 0.29693 0.60295 0.70618 0.0
O542 O 0.32393 0.57517 0.68683 0.0
H543 H 0.30099 0.60442 0.86302 0.0
H544 H 0.37807 0.57897 0.79513 0.0
H545 H 0.32637 0.52182 0.77379 0.0
H546 H 0.30815 0.57156 0.82358 0.0
H547 H 0.34496 0.58559 0.75603 0.0
O548 O 0.23779 0.56723 0.70453 0.0
H549 H 0.25099 0.50032 0.7249 0.0
H550 H 0.21664 0.54518 0.65211 0.0
H551 H 0.35926 0.51452 0.81316 0.0
H552 H 0.28989 0.63623 0.74437 0.0
H553 H 0.38538 0.54322 0.82403 0.0
H554 H 0.29181 0.63708 0.82337 0.0
O555 O 0.31184 0.53233 0.69991 0.0
H556 H 0.2582 0.59075 0.5653 0.0
H557 H 0.25851 0.51717 0.6164 0.0
H558 H 0.25856 0.52426 0.53914 0.0
H559 H 0.25833 0.56128 0.51314 0.0
H560 H 0.25836 0.58296 0.6423 0.0
H561 H 0.18703 0.52018 0.64485 0.0
H562 H 0.18957 0.48465 0.67786 0.0
O563 O 0.27926 0.52042 0.68457 0.0
C564 C 0.27351 0.5373 0.78448 0.0
C565 C 0.22057 0.49016 0.70348 0.0
C566 C 0.20102 0.51567 0.6624 0.0
N567 N 0.23558 0.52413 0.6886 0.0
C568 C 0.23705 0.50467 0.70709 0.0
C569 C 0.21782 0.52977 0.66669 0.0
C570 C 0.20246 0.49573 0.68091 0.0
C571 C 0.29807 0.60325 0.74053 0.0
N572 N 0.30308 0.58535 0.76256 0.0
C573 C 0.29395 0.62212 0.76199 0.0
C574 C 0.295 0.62258 0.80632 0.0
C575 C 0.30013 0.60426 0.82859 0.0
C576 C 0.30411 0.58567 0.80607 0.0
C577 C 0.3668 0.56634 0.79066 0.0
C578 C 0.33764 0.5344 0.77848 0.0
C579 C 0.34802 0.57 0.76857 0.0
N580 N 0.33371 0.55411 0.76275 0.0
C581 C 0.35624 0.53017 0.80077 0.0
C582 C 0.37089 0.54628 0.80685 0.0
C583 C 0.2993 0.51827 0.68554 0.0
C584 C 0.25825 0.57456 0.57624 0.0
C585 C 0.25852 0.53333 0.60534 0.0
C586 C 0.25849 0.53724 0.56155 0.0
C587 C 0.25835 0.55801 0.54699 0.0
N588 N 0.25835 0.54964 0.63382 0.0
C589 C 0.25829 0.57005 0.61979 0.0
Co590 Co 0.43419 0.30807 0.7392 0.0
Co591 Co 0.4549 0.26178 0.69801 0.0
O592 O 0.43231 0.28263 0.70454 0.0
C593 C 0.42501 0.34141 0.67629 0.0
O594 O 0.44371 0.34905 0.68549 0.0
C595 C 0.4196 0.23858 0.73606 0.0
O596 O 0.41836 0.25428 0.76318 0.0
O597 O 0.46125 0.26182 0.76032 0.0
O598 O 0.44893 0.29256 0.78567 0.0
H599 H 0.52753 0.23172 0.71925 0.0
H600 H 0.39284 0.2944 0.70489 0.0
O601 O 0.41901 0.32411 0.69317 0.0
H602 H 0.38389 0.29544 0.86092 0.0
H603 H 0.40651 0.37553 0.80359 0.0
H604 H 0.46796 0.32818 0.7902 0.0
H605 H 0.41768 0.30596 0.82831 0.0
H606 H 0.40418 0.34291 0.761 0.0
O607 O 0.43377 0.23865 0.70724 0.0
H608 H 0.49922 0.25817 0.72742 0.0
H609 H 0.45769 0.22022 0.654 0.0
H610 H 0.47095 0.36061 0.83324 0.0
H611 H 0.35869 0.28398 0.73612 0.0
H612 H 0.44008 0.38454 0.84012 0.0
H613 H 0.35408 0.28436 0.81469 0.0
O614 O 0.46199 0.315 0.71306 0.0
H615 H 0.40807 0.25808 0.569 0.0
H616 H 0.48137 0.26503 0.61976 0.0
H617 H 0.47416 0.26516 0.54255 0.0
H618 H 0.43728 0.2616 0.51672 0.0
H619 H 0.41597 0.25821 0.64595 0.0
H620 H 0.48549 0.19327 0.6453 0.0
H621 H 0.52073 0.19899 0.67793 0.0
O622 O 0.47611 0.28466 0.68895 0.0
C623 C 0.45846 0.27502 0.79048 0.0
C624 C 0.51226 0.22908 0.70476 0.0
C625 C 0.48865 0.20748 0.66331 0.0
N626 N 0.4769 0.2408 0.69092 0.0
C627 C 0.4962 0.24402 0.70917 0.0
C628 C 0.47296 0.22277 0.66842 0.0
C629 C 0.50843 0.21071 0.68161 0.0
C630 C 0.39089 0.29484 0.73908 0.0
N631 N 0.40723 0.30085 0.76473 0.0
C632 C 0.37154 0.28882 0.75659 0.0
C633 C 0.36898 0.28901 0.80068 0.0
C634 C 0.3857 0.29521 0.82664 0.0
C635 C 0.40483 0.30108 0.808 0.0
C636 C 0.42006 0.36521 0.80089 0.0
C637 C 0.45443 0.33848 0.79318 0.0
C638 C 0.41884 0.34672 0.77683 0.0
N639 N 0.4359 0.33361 0.77326 0.0
C640 C 0.45623 0.35683 0.81754 0.0
C641 C 0.4389 0.37026 0.82137 0.0
C642 C 0.47686 0.30454 0.69545 0.0
C643 C 0.4242 0.25959 0.57986 0.0
C644 C 0.46527 0.26358 0.60878 0.0
C645 C 0.46129 0.2636 0.56502 0.0
C646 C 0.4406 0.26159 0.55055 0.0
N647 N 0.44911 0.26153 0.63733 0.0
C648 C 0.42878 0.25962 0.62339 0.0
Co649 Co 0.68629 0.43815 0.74486 0.0
Co650 Co 0.73438 0.45294 0.70163 0.0
O651 O 0.71129 0.43258 0.71001 0.0
C652 C 0.6691 0.41601 0.66591 0.0
O653 O 0.68765 0.41352 0.64805 0.0
C654 C 0.75492 0.41571 0.73942 0.0
O655 O 0.73956 0.41585 0.76747 0.0
O656 O 0.73602 0.4596 0.76388 0.0
O657 O 0.70382 0.4521 0.78882 0.0
H658 H 0.77187 0.52225 0.71876 0.0
H659 H 0.69667 0.39428 0.71685 0.0
O660 O 0.66711 0.42467 0.70227 0.0
H661 H 0.69291 0.3911 0.87343 0.0
H662 H 0.6161 0.42106 0.81191 0.0
H663 H 0.67116 0.47526 0.79358 0.0
H664 H 0.68627 0.42452 0.83571 0.0
H665 H 0.6479 0.41359 0.76916 0.0
O666 O 0.75549 0.42968 0.71024 0.0
H667 H 0.7429 0.49681 0.72953 0.0
H668 H 0.77532 0.45121 0.65497 0.0
H669 H 0.6397 0.48332 0.83694 0.0
H670 H 0.70313 0.36053 0.75318 0.0
H671 H 0.6119 0.45611 0.84632 0.0
H672 H 0.70135 0.35875 0.83212 0.0
O673 O 0.68178 0.46543 0.71534 0.0
H674 H 0.73283 0.40515 0.57383 0.0
H675 H 0.73211 0.47909 0.62272 0.0
H676 H 0.73034 0.47141 0.54581 0.0
H677 H 0.73076 0.43421 0.5209 0.0
H678 H 0.73428 0.41353 0.6505 0.0
H679 H 0.80472 0.47609 0.64368 0.0
H680 H 0.80306 0.51193 0.67556 0.0
O681 O 0.71363 0.47646 0.69295 0.0
C682 C 0.72242 0.45914 0.79377 0.0
C683 C 0.77275 0.5067 0.7046 0.0
C684 C 0.7912 0.48078 0.66251 0.0
N685 N 0.75736 0.47262 0.69264 0.0
C686 C 0.75637 0.49226 0.71049 0.0
C687 C 0.77453 0.46675 0.66909 0.0
C688 C 0.79025 0.50089 0.6804 0.0
C689 C 0.69542 0.39365 0.75102 0.0
N690 N 0.69066 0.41138 0.77389 0.0
C691 C 0.69929 0.37448 0.77153 0.0
C692 C 0.69835 0.3735 0.81581 0.0
C693 C 0.69362 0.39164 0.839 0.0
C694 C 0.68987 0.41054 0.81741 0.0
C695 C 0.62813 0.43303 0.80815 0.0
C696 C 0.6592 0.46329 0.79778 0.0
C697 C 0.64616 0.42891 0.78392 0.0
N698 N 0.66147 0.44391 0.77922 0.0
C699 C 0.64139 0.46796 0.82225 0.0
C700 C 0.62579 0.4527 0.82746 0.0
C701 C 0.69378 0.47907 0.69791 0.0
C702 C 0.73266 0.42143 0.58429 0.0
C703 C 0.7321 0.46286 0.61219 0.0
C704 C 0.7312 0.45861 0.56856 0.0
C705 C 0.73147 0.43774 0.55461 0.0
N706 N 0.73325 0.44677 0.64111 0.0
C707 C 0.73355 0.42627 0.62766 0.0
Co708 Co 0.56445 0.30912 0.26017 0.0
Co709 Co 0.54506 0.26255 0.30265 0.0
O710 O 0.56699 0.28402 0.29568 0.0
C711 C 0.57158 0.34339 0.32204 0.0
O712 O 0.55273 0.35021 0.31152 0.0
C713 C 0.58091 0.24024 0.26426 0.0
O714 O 0.58171 0.25602 0.23728 0.0
O715 O 0.53843 0.26226 0.24039 0.0
O716 O 0.55082 0.29269 0.2137 0.0
H717 H 0.47321 0.23051 0.28304 0.0
H718 H 0.60591 0.29726 0.29665 0.0
O719 O 0.57847 0.32614 0.30627 0.0
H720 H 0.61651 0.29757 0.14103 0.0
H721 H 0.59004 0.37705 0.19447 0.0
H722 H 0.53042 0.32748 0.20715 0.0
H723 H 0.58201 0.30708 0.17187 0.0
H724 H 0.59325 0.34492 0.23833 0.0
O725 O 0.56681 0.23997 0.29326 0.0
H726 H 0.50072 0.25767 0.27405 0.0
H727 H 0.54365 0.22103 0.34705 0.0
H728 H 0.52656 0.35939 0.16282 0.0
H729 H 0.64076 0.28788 0.26722 0.0
H730 H 0.55651 0.38444 0.15629 0.0
H731 H 0.6462 0.28789 0.18886 0.0
O732 O 0.53612 0.31518 0.28493 0.0
H733 H 0.59244 0.26038 0.43098 0.0
H734 H 0.51879 0.26532 0.38125 0.0
H735 H 0.52628 0.26583 0.45835 0.0
H736 H 0.56333 0.26327 0.48366 0.0
H737 H 0.58426 0.26012 0.35415 0.0
H738 H 0.51666 0.19338 0.35655 0.0
H739 H 0.48112 0.19809 0.32455 0.0
O740 O 0.52324 0.28487 0.31175 0.0
C741 C 0.54135 0.27508 0.20963 0.0
C742 C 0.48861 0.22831 0.29725 0.0
C743 C 0.51301 0.20746 0.33845 0.0
N744 N 0.5237 0.241 0.31027 0.0
C745 C 0.50423 0.24366 0.29237 0.0
C746 C 0.52824 0.22313 0.33288 0.0
C747 C 0.49307 0.21011 0.3205 0.0
C748 C 0.60821 0.29753 0.26254 0.0
N749 N 0.59194 0.30276 0.23601 0.0
C750 C 0.62796 0.29211 0.24605 0.0
C751 C 0.63099 0.29208 0.20208 0.0
C752 C 0.61434 0.29749 0.17523 0.0
C753 C 0.5948 0.30279 0.19286 0.0
C754 C 0.57689 0.36624 0.197 0.0
C755 C 0.54355 0.33827 0.20433 0.0
C756 C 0.57861 0.34803 0.22178 0.0
N757 N 0.56206 0.3343 0.22516 0.0
C758 C 0.54126 0.35633 0.17924 0.0
C759 C 0.55807 0.37038 0.1756 0.0
C760 C 0.52172 0.30455 0.30361 0.0
C761 C 0.57623 0.26145 0.42034 0.0
C762 C 0.53496 0.26431 0.392 0.0
C763 C 0.5391 0.26454 0.43571 0.0
C764 C 0.55989 0.2631 0.44989 0.0
N765 N 0.55107 0.2626 0.36324 0.0
C766 C 0.5715 0.26125 0.37688 0.0
Co767 Co 0.69208 0.56035 0.26225 0.0
Co768 Co 0.73964 0.5448 0.30537 0.0
O769 O 0.71763 0.56583 0.29491 0.0
C770 C 0.65887 0.57407 0.3219 0.0
O771 O 0.65118 0.55495 0.31799 0.0
C772 C 0.76174 0.58007 0.26448 0.0
O773 O 0.74691 0.57936 0.23536 0.0
O774 O 0.74088 0.53711 0.24386 0.0
O775 O 0.70763 0.54197 0.22118 0.0
H776 H 0.77461 0.47387 0.29316 0.0
H777 H 0.70427 0.60459 0.28047 0.0
O778 O 0.67598 0.57894 0.30286 0.0
H779 H 0.70337 0.59896 0.1238 0.0
H780 H 0.62387 0.58051 0.19025 0.0
H781 H 0.6723 0.52212 0.22549 0.0
H782 H 0.69404 0.56837 0.1685 0.0
H783 H 0.65656 0.58723 0.23069 0.0
O784 O 0.76152 0.56705 0.29541 0.0
H785 H 0.74661 0.5002 0.28043 0.0
H786 H 0.78048 0.54572 0.35233 0.0
H787 H 0.63982 0.51471 0.18489 0.0
H788 H 0.71348 0.63564 0.23694 0.0
H789 H 0.61535 0.54404 0.16701 0.0
H790 H 0.71315 0.63291 0.15801 0.0
O791 O 0.68612 0.53523 0.2982 0.0
H792 H 0.73813 0.59492 0.4294 0.0
H793 H 0.73684 0.52013 0.3861 0.0
H794 H 0.73491 0.52926 0.46238 0.0
H795 H 0.73562 0.56689 0.48447 0.0
H796 H 0.73983 0.5851 0.35342 0.0
H797 H 0.80895 0.51995 0.36554 0.0
H798 H 0.80606 0.48371 0.336 0.0
O799 O 0.71803 0.52224 0.31545 0.0
C800 C 0.72645 0.53534 0.21583 0.0
C801 C 0.77602 0.4896 0.30632 0.0
C802 C 0.7953 0.51547 0.3469 0.0
N803 N 0.76184 0.5244 0.31594 0.0
C804 C 0.76019 0.50454 0.29933 0.0
C805 C 0.77916 0.53 0.33924 0.0
C806 C 0.79367 0.49513 0.33033 0.0
C807 C 0.70382 0.60336 0.24614 0.0
N808 N 0.69847 0.58472 0.22709 0.0
C809 C 0.70916 0.62096 0.22166 0.0
C810 C 0.70901 0.6194 0.17738 0.0
C811 C 0.70354 0.60035 0.15817 0.0
C812 C 0.69832 0.58307 0.18366 0.0
C813 C 0.63443 0.56761 0.19776 0.0
C814 C 0.66177 0.53498 0.21769 0.0
C815 C 0.65297 0.57132 0.22061 0.0
N816 N 0.66639 0.55509 0.23019 0.0
C817 C 0.64338 0.53068 0.19475 0.0
C818 C 0.62966 0.54714 0.18474 0.0
C819 C 0.69792 0.52095 0.31417 0.0
C820 C 0.73785 0.57847 0.42018 0.0
C821 C 0.73705 0.53655 0.39544 0.0
C822 C 0.73602 0.54162 0.43869 0.0
C823 C 0.73643 0.56273 0.45106 0.0
N824 N 0.73853 0.55208 0.36535 0.0
C825 C 0.73887 0.57281 0.37722 0.0
Co826 Co 0.44988 0.69282 0.26007 0.0
Co827 Co 0.45615 0.74082 0.30867 0.0
O828 O 0.43854 0.71672 0.29208 0.0
C829 C 0.41868 0.67363 0.3227 0.0
O830 O 0.41462 0.69174 0.3412 0.0
C831 C 0.42001 0.76057 0.2652 0.0
O832 O 0.424 0.74789 0.23312 0.0
O833 O 0.46519 0.74512 0.24857 0.0
O834 O 0.46921 0.71164 0.22716 0.0
H835 H 0.52193 0.78502 0.31044 0.0
H836 H 0.4035 0.70061 0.26165 0.0
O837 O 0.43141 0.67241 0.29139 0.0
H838 H 0.42334 0.70142 0.10987 0.0
H839 H 0.446 0.62377 0.1809 0.0
H840 H 0.49303 0.67968 0.23481 0.0
H841 H 0.45016 0.69497 0.16517 0.0
H842 H 0.43143 0.65441 0.21946 0.0
O843 O 0.43143 0.75996 0.29861 0.0
H844 H 0.50002 0.7544 0.29059 0.0
H845 H 0.4484 0.77941 0.36066 0.0
H846 H 0.50823 0.64941 0.1961 0.0
H847 H 0.37616 0.7068 0.20741 0.0
H848 H 0.48465 0.62118 0.16885 0.0
H849 H 0.386 0.70731 0.13083 0.0
O850 O 0.47164 0.68872 0.30426 0.0
H851 H 0.40314 0.73037 0.42593 0.0
H852 H 0.47874 0.73761 0.39186 0.0
H853 H 0.46781 0.73217 0.46642 0.0
H854 H 0.42976 0.72856 0.48389 0.0
H855 H 0.41478 0.73556 0.3517 0.0
H856 H 0.4697 0.81039 0.38099 0.0
H857 H 0.50677 0.81328 0.35597 0.0
O858 O 0.48135 0.72199 0.31908 0.0
C859 C 0.47175 0.7314 0.22212 0.0
C860 C 0.50582 0.7839 0.32167 0.0
C861 C 0.4765 0.79815 0.36122 0.0
N862 N 0.47304 0.76503 0.32479 0.0
C863 C 0.49337 0.76657 0.31065 0.0
C864 C 0.46451 0.7806 0.34955 0.0
C865 C 0.4973 0.79976 0.34718 0.0
C866 C 0.4079 0.70041 0.22848 0.0
N867 N 0.42839 0.69706 0.21673 0.0
C868 C 0.39235 0.70409 0.19785 0.0
C869 C 0.39789 0.70443 0.1549 0.0
C870 C 0.41883 0.70113 0.14313 0.0
C871 C 0.43395 0.6975 0.17463 0.0
C872 C 0.45643 0.636 0.19253 0.0
C873 C 0.48265 0.66754 0.2228 0.0
C874 C 0.44828 0.65337 0.21445 0.0
N875 N 0.46135 0.66892 0.22904 0.0
C876 C 0.49136 0.6504 0.20101 0.0
C877 C 0.47812 0.63456 0.18577 0.0
C878 C 0.48431 0.70204 0.32059 0.0
C879 C 0.41977 0.73191 0.41873 0.0
C880 C 0.46217 0.73583 0.3991 0.0
C881 C 0.45607 0.73286 0.44143 0.0
C882 C 0.43471 0.73087 0.45122 0.0
N883 N 0.44741 0.73677 0.36737 0.0
C884 C 0.42645 0.73491 0.37676 0.0
Co885 Co 0.31097 0.43953 0.25361 0.0
Co886 Co 0.26416 0.45552 0.30052 0.0
O887 O 0.28625 0.43438 0.28937 0.0
C888 C 0.32818 0.41509 0.32976 0.0
O889 O 0.30984 0.41326 0.34878 0.0
C890 C 0.24188 0.41976 0.26185 0.0
O891 O 0.25674 0.42005 0.23272 0.0
O892 O 0.26179 0.46311 0.23892 0.0
O893 O 0.29367 0.45561 0.21206 0.0
H894 H 0.22898 0.5264 0.28967 0.0
H895 H 0.29937 0.39552 0.278 0.0
O896 O 0.32998 0.42411 0.29371 0.0
H897 H 0.29977 0.39621 0.12109 0.0
H898 H 0.37908 0.42031 0.18042 0.0
H899 H 0.32787 0.47718 0.2092 0.0
H900 H 0.30853 0.42835 0.16155 0.0
H901 H 0.34741 0.41348 0.22393 0.0
O902 O 0.24214 0.4332 0.29206 0.0
H903 H 0.25681 0.50007 0.27557 0.0
H904 H 0.22399 0.45469 0.34984 0.0
H905 H 0.35923 0.48466 0.16518 0.0
H906 H 0.29077 0.36303 0.23888 0.0
H907 H 0.3851 0.4561 0.15052 0.0
H908 H 0.29086 0.36321 0.15978 0.0
O909 O 0.31711 0.46573 0.28549 0.0
H910 H 0.26584 0.40606 0.42571 0.0
H911 H 0.26887 0.48051 0.38048 0.0
H912 H 0.27156 0.47178 0.45682 0.0
H913 H 0.26999 0.43432 0.47989 0.0
H914 H 0.26349 0.41548 0.34962 0.0
H915 H 0.19571 0.48047 0.36445 0.0
H916 H 0.19815 0.51665 0.3344 0.0
O917 O 0.28593 0.47818 0.30882 0.0
C918 C 0.27519 0.46325 0.20867 0.0
C919 C 0.22777 0.51071 0.30305 0.0
C920 C 0.20908 0.48492 0.34498 0.0
N921 N 0.2421 0.47593 0.31215 0.0
C922 C 0.2435 0.49575 0.29529 0.0
C923 C 0.22512 0.47038 0.33652 0.0
C924 C 0.21046 0.50522 0.32812 0.0
C925 C 0.29988 0.39571 0.24371 0.0
N926 N 0.30487 0.41379 0.22226 0.0
C927 C 0.2948 0.37726 0.22165 0.0
C928 C 0.2948 0.37738 0.17728 0.0
C929 C 0.29979 0.39589 0.15556 0.0
C930 C 0.30474 0.41405 0.17869 0.0
C931 C 0.36787 0.43287 0.1864 0.0
C932 C 0.33895 0.46462 0.20259 0.0
C933 C 0.34991 0.4291 0.21103 0.0
N934 N 0.33563 0.44485 0.21853 0.0
C935 C 0.35672 0.46897 0.17781 0.0
C936 C 0.37124 0.45295 0.16965 0.0
C937 C 0.30586 0.47982 0.30352 0.0
C938 C 0.26652 0.42244 0.41606 0.0
C939 C 0.26836 0.46416 0.39019 0.0
C940 C 0.2698 0.45932 0.43351 0.0
C941 C 0.26888 0.4383 0.44644 0.0
N942 N 0.26607 0.44851 0.36058 0.0
C943 C 0.26512 0.42788 0.37302 0.0
C944 C 0.09411 0.1407 0.12691 0.0
C945 C 0.09728 0.15169 0.16526 0.0
C946 C 0.10677 0.12325 0.11673 0.0
C947 C 0.12344 0.0782 0.12545 0.0
H948 H 0.18187 0.07406 0.16111 0.0
C949 C 0.16041 0.00036 0.1807 0.0
C950 C 0.18201 0.99647 0.17392 0.0
C951 C 0.15137 0.01953 0.16865 0.0
C952 C 0.16569 0.07492 0.15017 0.0
H953 H 0.11707 0.15397 0.22148 0.0
H954 H 0.13886 0.12377 0.20402 0.0
H955 H 0.16492 0.10848 0.1576 0.0
H956 H 0.21084 0.00957 0.14755 0.0
H957 H 0.19494 0.04297 0.12603 0.0
H958 H 0.12413 0.04461 0.11852 0.0
C959 C 0.12677 0.12849 0.18157 0.0
C960 C 0.1559 0.09467 0.1486 0.0
C961 C 0.11411 0.14575 0.19181 0.0
C962 C 0.19419 0.01204 0.15351 0.0
C963 C 0.18509 0.03124 0.1413 0.0
C964 C 0.13326 0.05845 0.12685 0.0
C965 C 0.12293 0.11666 0.14451 0.0
C966 C 0.13444 0.09646 0.13775 0.0
C967 C 0.16363 0.03534 0.1493 0.0
C968 C 0.15429 0.05649 0.14072 0.0
H969 H 0.08127 0.14492 0.1058 0.0
H970 H 0.10356 0.11458 0.08771 0.0
H971 H 0.10687 0.07896 0.1171 0.0
H972 H 0.15051 0.9888 0.1964 0.0
H973 H 0.1349 0.02223 0.17605 0.0
C974 C 0.00433 0.16029 0.17513 0.0
C975 C 0.00486 0.18237 0.17938 0.0
C976 C 0.98585 0.15009 0.1624 0.0
C977 C 0.9291 0.15591 0.16912 0.0
H978 H 0.92824 0.10767 0.09318 0.0
C979 C 0.85586 0.10304 0.16109 0.0
C980 C 0.86034 0.08137 0.16425 0.0
C981 C 0.87179 0.11739 0.15045 0.0
C982 C 0.92819 0.12108 0.11455 0.0
H983 H 0.9865 0.21109 0.17208 0.0
H984 H 0.95411 0.19315 0.15058 0.0
H985 H 0.96014 0.12908 0.09889 0.0
H986 H 0.88464 0.05764 0.15528 0.0
H987 H 0.91233 0.08246 0.13793 0.0
H988 H 0.89776 0.14733 0.18696 0.0
C989 C 0.96807 0.18381 0.15705 0.0
C990 C 0.94645 0.13336 0.11768 0.0
C991 C 0.98665 0.19406 0.16927 0.0
C992 C 0.88064 0.07423 0.15341 0.0
C993 C 0.89656 0.08854 0.1431 0.0
C994 C 0.91094 0.14351 0.16639 0.0
C995 C 0.96742 0.16171 0.15406 0.0
C996 C 0.94725 0.15057 0.14582 0.0
C997 C 0.89256 0.11037 0.14296 0.0
C998 C 0.91044 0.12556 0.13998 0.0
H999 H 0.01809 0.1508 0.18244 0.0
H1000 H 0.98575 0.13302 0.16079 0.0
H1001 H 0.92932 0.16897 0.19138 0.0
H1002 H 0.84033 0.10907 0.16891 0.0
H1003 H 0.86802 0.13405 0.14973 0.0
C1004 C 0.83533 0.99544 0.18249 0.0
C1005 C 0.81325 0.99723 0.18498 0.0
C1006 C 0.84474 0.9767 0.169 0.0
C1007 C 0.83894 0.92077 0.17109 0.0
H1008 H 0.88278 0.92093 0.08485 0.0
C1009 C 0.89362 0.8492 0.15285 0.0
C1010 C 0.91515 0.85445 0.15078 0.0
C1011 C 0.87816 0.86451 0.14503 0.0
C1012 C 0.87063 0.92057 0.10909 0.0
H1013 H 0.78375 0.98038 0.17573 0.0
H1014 H 0.80044 0.94723 0.15371 0.0
H1015 H 0.86134 0.95247 0.09602 0.0
H1016 H 0.93728 0.87942 0.13536 0.0
H1017 H 0.91063 0.90602 0.123 0.0
H1018 H 0.84912 0.8896 0.18672 0.0
C1019 C 0.81029 0.96066 0.16139 0.0
C1020 C 0.85829 0.9386 0.11524 0.0
C1021 C 0.80081 0.97963 0.17402 0.0
C1022 C 0.92085 0.87482 0.13747 0.0
C1023 C 0.90546 0.89013 0.13004 0.0
C1024 C 0.85152 0.90285 0.1655 0.0
C1025 C 0.83234 0.95913 0.15855 0.0
C1026 C 0.84277 0.93903 0.1471 0.0
C1027 C 0.88391 0.8854 0.13524 0.0
C1028 C 0.86801 0.90276 0.13536 0.0
H1029 H 0.84546 0.00846 0.191 0.0
H1030 H 0.8618 0.97577 0.16773 0.0
H1031 H 0.82712 0.92081 0.19604 0.0
H1032 H 0.88867 0.83359 0.16268 0.0
H1033 H 0.86172 0.86016 0.14835 0.0
C1034 C 0.01858 0.7991 0.14828 0.0
C1035 C 0.00257 0.81123 0.16754 0.0
C1036 C 0.03694 0.80872 0.13293 0.0
C1037 C 0.05943 0.86101 0.10417 0.0
H1038 H 0.11252 0.83678 0.14132 0.0
C1039 C 0.1307 0.90965 0.1517 0.0
C1040 C 0.15121 0.90243 0.1432 0.0
C1041 C 0.11324 0.89778 0.13954 0.0
C1042 C 0.0979 0.84351 0.12967 0.0
H1043 H 0.99346 0.84307 0.18549 0.0
H1044 H 0.02532 0.85965 0.15918 0.0
H1045 H 0.08 0.81663 0.14953 0.0
H1046 H 0.16967 0.87765 0.11368 0.0
H1047 H 0.13885 0.85639 0.0931 0.0
H1048 H 0.07721 0.8884 0.08675 0.0
C1049 C 0.02355 0.84277 0.15513 0.0
C1050 C 0.07924 0.83198 0.13445 0.0
C1051 C 0.00528 0.8332 0.17053 0.0
C1052 C 0.15397 0.88358 0.12036 0.0
C1053 C 0.1364 0.87141 0.10882 0.0
C1054 C 0.07804 0.87255 0.09955 0.0
C1055 C 0.03966 0.83067 0.13636 0.0
C1056 C 0.05971 0.84098 0.12342 0.0
C1057 C 0.11589 0.87823 0.11915 0.0
C1058 C 0.09734 0.86425 0.1139 0.0
H1059 H 0.01704 0.78214 0.14537 0.0
H1060 H 0.04905 0.79899 0.11852 0.0
H1061 H 0.04467 0.86818 0.09442 0.0
H1062 H 0.12815 0.92417 0.16922 0.0
H1063 H 0.09768 0.90334 0.14845 0.0
C1064 C 0.11689 0.8511 0.86791 0.0
C1065 C 0.09545 0.85022 0.85699 0.0
C1066 C 0.12652 0.87064 0.87567 0.0
C1067 C 0.11877 0.92533 0.84104 0.0
H1068 H 0.1664 0.93788 0.91417 0.0
C1069 C 0.15811 0.00616 0.83312 0.0
C1070 C 0.18025 0.0061 0.83027 0.0
C1071 C 0.14727 0.98807 0.84589 0.0
C1072 C 0.15313 0.93455 0.89352 0.0
H1073 H 0.06677 0.86835 0.84943 0.0
H1074 H 0.08318 0.90222 0.86498 0.0
H1075 H 0.14801 0.90403 0.92144 0.0
H1076 H 0.20838 0.98725 0.84105 0.0
H1077 H 0.18938 0.95556 0.8624 0.0
H1078 H 0.12405 0.9553 0.8122 0.0
C1079 C 0.09283 0.88812 0.86617 0.0
C1080 C 0.14261 0.9152 0.89771 0.0
C1081 C 0.08337 0.86874 0.8577 0.0
C1082 C 0.19132 0.98784 0.84264 0.0
C1083 C 0.18043 0.96968 0.8552 0.0
C1084 C 0.1292 0.94454 0.83691 0.0
C1085 C 0.11472 0.88945 0.87293 0.0
C1086 C 0.12533 0.91036 0.87135 0.0
C1087 C 0.15826 0.96942 0.85583 0.0
C1088 C 0.14656 0.94939 0.86288 0.0
H1089 H 0.12651 0.83697 0.86699 0.0
H1090 H 0.14342 0.87112 0.88068 0.0
H1091 H 0.10594 0.92194 0.81929 0.0
H1092 H 0.14906 0.02001 0.82443 0.0
H1093 H 0.13019 0.98855 0.84693 0.0
C1094 C 0.14494 0.09985 0.88017 0.0
C1095 C 0.15502 0.10122 0.84039 0.0
C1096 C 0.12826 0.11353 0.89023 0.0
C1097 C 0.10007 0.16213 0.85317 0.0
H1098 H 0.05016 0.13274 0.89266 0.0
C1099 C 0.00559 0.16624 0.82548 0.0
C1100 C 0.00179 0.18805 0.82869 0.0
C1101 C 0.02485 0.15768 0.8383 0.0
C1102 C 0.06397 0.14122 0.88173 0.0
H1103 H 0.1566 0.11898 0.78135 0.0
H1104 H 0.12768 0.14244 0.79852 0.0
H1105 H 0.08421 0.11498 0.89456 0.0
H1106 H 0.01519 0.21786 0.84943 0.0
H1107 H 0.04886 0.20279 0.87208 0.0
H1108 H 0.07959 0.18782 0.83755 0.0
C1109 C 0.13254 0.13101 0.82222 0.0
C1110 C 0.08357 0.13113 0.88337 0.0
C1111 C 0.14906 0.11737 0.81216 0.0
C1112 C 0.01758 0.201 0.84628 0.0
C1113 C 0.03692 0.19239 0.85915 0.0
C1114 C 0.08045 0.17218 0.85134 0.0
C1115 C 0.12151 0.12891 0.86082 0.0
C1116 C 0.10174 0.14117 0.86759 0.0
C1117 C 0.04087 0.17064 0.85481 0.0
C1118 C 0.06205 0.16154 0.8641 0.0
H1119 H 0.14922 0.08761 0.90264 0.0
H1120 H 0.12024 0.11166 0.92046 0.0
H1121 H 0.11382 0.17045 0.84146 0.0
H1122 H 0.99386 0.15573 0.81211 0.0
H1123 H 0.02743 0.14094 0.83372 0.0
C1124 C 0.91546 0.13237 0.84225 0.0
C1125 C 0.90575 0.15202 0.84871 0.0
C1126 C 0.90387 0.11381 0.84553 0.0
C1127 C 0.85418 0.08873 0.87891 0.0
H1128 H 0.8636 0.05557 0.77675 0.0
C1129 C 0.80301 0.01604 0.8294 0.0
C1130 C 0.81391 0.99899 0.81081 0.0
C1131 C 0.81354 0.03492 0.83873 0.0
C1132 C 0.86094 0.06443 0.80577 0.0
H1133 H 0.87673 0.16767 0.86697 0.0
H1134 H 0.85619 0.13489 0.87251 0.0
H1135 H 0.88342 0.08781 0.78768 0.0
H1136 H 0.84467 0.98817 0.78942 0.0
H1137 H 0.86292 0.0207 0.80628 0.0
H1138 H 0.83164 0.06505 0.89688 0.0
C1139 C 0.87286 0.13396 0.86514 0.0
C1140 C 0.8723 0.08295 0.81201 0.0
C1141 C 0.8846 0.15268 0.86211 0.0
C1142 C 0.83566 0.00103 0.80311 0.0
C1143 C 0.84615 0.01976 0.81264 0.0
C1144 C 0.8428 0.06999 0.87273 0.0
C1145 C 0.88222 0.11446 0.85492 0.0
C1146 C 0.86933 0.09515 0.84888 0.0
C1147 C 0.83518 0.03709 0.82977 0.0
C1148 C 0.84632 0.05748 0.83631 0.0
H1149 H 0.93181 0.13142 0.83223 0.0
H1150 H 0.91161 0.09896 0.83846 0.0
H1151 H 0.85152 0.09791 0.90752 0.0
H1152 H 0.78625 0.01499 0.83586 0.0
H1153 H 0.80462 0.048 0.85175 0.0
C1154 C 0.86683 0.91924 0.8352 0.0
C1155 C 0.84773 0.90897 0.84395 0.0
C1156 C 0.88597 0.90885 0.84105 0.0
C1157 C 0.91229 0.86072 0.8832 0.0
H1158 H 0.94845 0.87016 0.7853 0.0
C1159 C 0.98585 0.8095 0.83661 0.0
C1160 C 0.00349 0.82081 0.82172 0.0
C1161 C 0.96691 0.82 0.8459 0.0
C1162 C 0.93868 0.86751 0.81312 0.0
H1163 H 0.83351 0.88034 0.86813 0.0
H1164 H 0.86719 0.86174 0.87739 0.0
H1165 H 0.91548 0.88928 0.79124 0.0
H1166 H 0.01535 0.85222 0.80754 0.0
H1167 H 0.9826 0.87028 0.82376 0.0
H1168 H 0.93568 0.83843 0.90425 0.0
C1169 C 0.86737 0.87799 0.86673 0.0
C1170 C 0.91978 0.87854 0.81666 0.0
C1171 C 0.84811 0.88861 0.86153 0.0
C1172 C 0.00206 0.8429 0.81831 0.0
C1173 C 0.98324 0.8533 0.82753 0.0
C1174 C 0.93132 0.84952 0.87951 0.0
C1175 C 0.88644 0.88774 0.85478 0.0
C1176 C 0.90646 0.87556 0.85198 0.0
C1177 C 0.96532 0.84196 0.84035 0.0
C1178 C 0.9448 0.85305 0.84463 0.0
H1179 H 0.8669 0.93502 0.82187 0.0
H1180 H 0.90039 0.91705 0.83278 0.0
H1181 H 0.90235 0.85803 0.91072 0.0
H1182 H 0.98643 0.79249 0.83981 0.0
H1183 H 0.95331 0.81087 0.85567 0.0
C1184 C 0.59362 0.64136 0.63003 0.0
C1185 C 0.59464 0.65187 0.6694 0.0
C1186 C 0.60721 0.62441 0.62141 0.0
C1187 C 0.62484 0.57973 0.63111 0.0
H1188 H 0.6818 0.57706 0.67597 0.0
C1189 C 0.66228 0.50253 0.68843 0.0
C1190 C 0.68408 0.49915 0.68339 0.0
C1191 C 0.65311 0.52166 0.67655 0.0
C1192 C 0.66607 0.57756 0.66253 0.0
H1193 H 0.61158 0.6538 0.72936 0.0
H1194 H 0.635 0.62447 0.71451 0.0
H1195 H 0.66376 0.61096 0.67159 0.0
H1196 H 0.71322 0.51323 0.66072 0.0
H1197 H 0.6971 0.54669 0.63985 0.0
H1198 H 0.62701 0.54627 0.62279 0.0
C1199 C 0.62387 0.6292 0.69013 0.0
C1200 C 0.65565 0.59697 0.6604 0.0
C1201 C 0.61027 0.64594 0.69882 0.0
C1202 C 0.6964 0.51529 0.66525 0.0
C1203 C 0.68718 0.5345 0.65338 0.0
C1204 C 0.63527 0.56031 0.6332 0.0
C1205 C 0.62219 0.61787 0.6518 0.0
C1206 C 0.63465 0.59818 0.64609 0.0
C1207 C 0.66545 0.53797 0.65926 0.0
C1208 C 0.65574 0.55889 0.65032 0.0
H1209 H 0.58176 0.6456 0.60671 0.0
H1210 H 0.60566 0.6161 0.59142 0.0
H1211 H 0.60865 0.58005 0.62008 0.0
H1212 H 0.65225 0.49052 0.70229 0.0
H1213 H 0.6364 0.5239 0.68227 0.0
C1214 C 0.4821 0.69626 0.66435 0.0
C1215 C 0.50028 0.68414 0.67246 0.0
C1216 C 0.46338 0.68656 0.65124 0.0
C1217 C 0.44101 0.63778 0.60578 0.0
H1218 H 0.39336 0.64915 0.67977 0.0
C1219 C 0.37558 0.57749 0.63598 0.0
C1220 C 0.35553 0.58417 0.64958 0.0
C1221 C 0.39134 0.59217 0.62682 0.0
C1222 C 0.40622 0.64611 0.6579 0.0
H1223 H 0.51333 0.65248 0.67085 0.0
H1224 H 0.48074 0.63565 0.64752 0.0
H1225 H 0.42503 0.67055 0.68563 0.0
H1226 H 0.33571 0.61158 0.6603 0.0
H1227 H 0.36307 0.63726 0.64303 0.0
H1228 H 0.42238 0.61312 0.57842 0.0
C1229 C 0.48097 0.65263 0.65146 0.0
C1230 C 0.42445 0.65836 0.66146 0.0
C1231 C 0.49959 0.66227 0.66513 0.0
C1232 C 0.35106 0.6059 0.65028 0.0
C1233 C 0.36682 0.62062 0.64075 0.0
C1234 C 0.42267 0.62568 0.6018 0.0
C1235 C 0.46256 0.66461 0.64528 0.0
C1236 C 0.44225 0.65388 0.6364 0.0
C1237 C 0.38741 0.61394 0.63059 0.0
C1238 C 0.40529 0.6292 0.62886 0.0
H1239 H 0.48208 0.71315 0.66959 0.0
H1240 H 0.44943 0.69616 0.6465 0.0
H1241 H 0.45443 0.63419 0.58566 0.0
H1242 H 0.37958 0.56088 0.63485 0.0
H1243 H 0.40698 0.58631 0.61951 0.0
C1244 C 0.33041 0.49659 0.66282 0.0
C1245 C 0.30856 0.4982 0.66986 0.0
C1246 C 0.33941 0.47759 0.64976 0.0
C1247 C 0.33288 0.42147 0.66057 0.0
H1248 H 0.3781 0.41917 0.57742 0.0
C1249 C 0.38783 0.34974 0.65448 0.0
C1250 C 0.40932 0.35524 0.65529 0.0
C1251 C 0.37255 0.36466 0.6431 0.0
C1252 C 0.36549 0.4195 0.60069 0.0
H1253 H 0.27898 0.48095 0.66802 0.0
H1254 H 0.29495 0.44743 0.6463 0.0
H1255 H 0.3564 0.4509 0.58312 0.0
H1256 H 0.43172 0.38014 0.64117 0.0
H1257 H 0.40528 0.40611 0.62223 0.0
H1258 H 0.34277 0.39078 0.68035 0.0
C1259 C 0.30497 0.46111 0.65047 0.0
C1260 C 0.35303 0.43764 0.60381 0.0
C1261 C 0.29587 0.4803 0.66288 0.0
C1262 C 0.4153 0.3754 0.64118 0.0
C1263 C 0.40007 0.3903 0.62996 0.0
C1264 C 0.34548 0.40341 0.65779 0.0
C1265 C 0.32685 0.45958 0.64399 0.0
C1266 C 0.3371 0.43906 0.6348 0.0
C1267 C 0.37846 0.38538 0.63233 0.0
C1268 C 0.36245 0.40252 0.62889 0.0
H1269 H 0.34073 0.50991 0.66791 0.0
H1270 H 0.35637 0.47679 0.64571 0.0
H1271 H 0.32079 0.42221 0.68494 0.0
H1272 H 0.38267 0.33428 0.66488 0.0
H1273 H 0.35607 0.36022 0.64446 0.0
C1274 C 0.65007 0.38519 0.63423 0.0
C1275 C 0.65003 0.40629 0.6479 0.0
C1276 C 0.63094 0.3743 0.62947 0.0
C1277 C 0.57912 0.37602 0.67923 0.0
H1278 H 0.56215 0.33398 0.59637 0.0
C1279 C 0.49773 0.33797 0.68947 0.0
C1280 C 0.49622 0.3161 0.68273 0.0
C1281 C 0.51618 0.34883 0.67928 0.0
C1282 C 0.5668 0.34556 0.61993 0.0
H1283 H 0.63034 0.4332 0.66301 0.0
H1284 H 0.59714 0.41453 0.65341 0.0
H1285 H 0.59519 0.35357 0.58602 0.0
H1286 H 0.51301 0.28858 0.6591 0.0
H1287 H 0.54547 0.30756 0.64236 0.0
H1288 H 0.55136 0.36791 0.71384 0.0
C1289 C 0.61176 0.40615 0.64749 0.0
C1290 C 0.58564 0.35679 0.6139 0.0
C1291 C 0.63073 0.41689 0.65264 0.0
C1292 C 0.51358 0.30543 0.66476 0.0
C1293 C 0.53217 0.31632 0.65485 0.0
C1294 C 0.5605 0.36481 0.68535 0.0
C1295 C 0.61166 0.38448 0.63816 0.0
C1296 C 0.59183 0.37231 0.64331 0.0
C1297 C 0.53377 0.33811 0.66261 0.0
C1298 C 0.55393 0.3496 0.65563 0.0
H1299 H 0.6648 0.37666 0.63083 0.0
H1300 H 0.63132 0.3576 0.62222 0.0
H1301 H 0.58376 0.38742 0.70317 0.0
H1302 H 0.48478 0.34678 0.70323 0.0
H1303 H 0.5167 0.36568 0.68491 0.0
C1304 C 0.69978 0.48341 0.33992 0.0
C1305 C 0.68774 0.50152 0.33064 0.0
C1306 C 0.6899 0.46463 0.35224 0.0
C1307 C 0.63994 0.44255 0.39346 0.0
H1308 H 0.653 0.3943 0.32229 0.0
C1309 C 0.57969 0.37837 0.35472 0.0
C1310 C 0.58645 0.35805 0.34316 0.0
C1311 C 0.5943 0.39385 0.36602 0.0
C1312 C 0.64945 0.40735 0.34338 0.0
H1313 H 0.6559 0.51415 0.32872 0.0
H1314 H 0.63884 0.48162 0.35059 0.0
H1315 H 0.67494 0.4257 0.31829 0.0
H1316 H 0.61373 0.33748 0.33829 0.0
H1317 H 0.63922 0.36441 0.35901 0.0
H1318 H 0.61415 0.42445 0.41784 0.0
C1319 C 0.6559 0.48196 0.34841 0.0
C1320 C 0.66203 0.4254 0.34092 0.0
C1321 C 0.66571 0.5006 0.33555 0.0
C1322 C 0.608 0.35304 0.34664 0.0
C1323 C 0.62264 0.36854 0.35819 0.0
C1324 C 0.62748 0.42442 0.39627 0.0
C1325 C 0.66784 0.46369 0.3562 0.0
C1326 C 0.65695 0.44343 0.3648 0.0
C1327 C 0.61604 0.38936 0.36636 0.0
C1328 C 0.6316 0.40687 0.37006 0.0
H1329 H 0.71679 0.48354 0.33653 0.0
H1330 H 0.69947 0.45077 0.35815 0.0
H1331 H 0.63587 0.45615 0.4127 0.0
H1332 H 0.5632 0.38276 0.35263 0.0
H1333 H 0.58856 0.4097 0.37171 0.0
C1334 C 0.52244 0.70629 0.34063 0.0
C1335 C 0.50415 0.69377 0.33899 0.0
C1336 C 0.54184 0.69736 0.35217 0.0
C1337 C 0.56674 0.65028 0.40123 0.0
H1338 H 0.60923 0.65707 0.31347 0.0
C1339 C 0.62598 0.58563 0.3591 0.0
C1340 C 0.6456 0.59081 0.34109 0.0
C1341 C 0.61171 0.60142 0.37053 0.0
C1342 C 0.59788 0.65534 0.339 0.0
H1343 H 0.49157 0.6625 0.35099 0.0
H1344 H 0.52521 0.64708 0.37147 0.0
H1345 H 0.57819 0.67966 0.31326 0.0
H1346 H 0.66626 0.61674 0.32396 0.0
H1347 H 0.64141 0.64438 0.34458 0.0
H1348 H 0.58606 0.62548 0.42619 0.0
C1349 C 0.52466 0.66373 0.36375 0.0
C1350 C 0.58003 0.66831 0.3388 0.0
C1351 C 0.5054 0.67254 0.35166 0.0
C1352 C 0.65121 0.6122 0.33749 0.0
C1353 C 0.63691 0.62805 0.34905 0.0
C1354 C 0.58467 0.63742 0.40166 0.0
C1355 C 0.54319 0.67587 0.36301 0.0
C1356 C 0.5639 0.66535 0.36892 0.0
C1357 C 0.61672 0.62283 0.36443 0.0
C1358 C 0.60005 0.63922 0.36952 0.0
H1359 H 0.52198 0.7227 0.33103 0.0
H1360 H 0.55588 0.70709 0.35149 0.0
H1361 H 0.55468 0.64787 0.42521 0.0
H1362 H 0.62117 0.56932 0.36251 0.0
H1363 H 0.59626 0.59673 0.38179 0.0
C1364 C 0.4165 0.63464 0.32651 0.0
C1365 C 0.40716 0.65431 0.33467 0.0
C1366 C 0.4049 0.61613 0.33078 0.0
C1367 C 0.35574 0.59202 0.37157 0.0
H1368 H 0.36494 0.55453 0.27563 0.0
C1369 C 0.30502 0.51732 0.3304 0.0
C1370 C 0.31656 0.49957 0.31671 0.0
C1371 C 0.31525 0.53654 0.33819 0.0
C1372 C 0.36232 0.56471 0.30286 0.0
H1373 H 0.37873 0.67004 0.3562 0.0
H1374 H 0.35808 0.63741 0.3629 0.0
H1375 H 0.38427 0.58745 0.27981 0.0
H1376 H 0.34811 0.48784 0.30325 0.0
H1377 H 0.36573 0.52109 0.31692 0.0
H1378 H 0.33345 0.56901 0.39409 0.0
C1379 C 0.37451 0.63639 0.3536 0.0
C1380 C 0.37344 0.58358 0.30533 0.0
C1381 C 0.38629 0.65504 0.34977 0.0
C1382 C 0.33862 0.5012 0.31313 0.0
C1383 C 0.34876 0.5203 0.32086 0.0
C1384 C 0.34447 0.57301 0.36899 0.0
C1385 C 0.38353 0.61682 0.34266 0.0
C1386 C 0.37063 0.59729 0.34006 0.0
C1387 C 0.33717 0.53831 0.33231 0.0
C1388 C 0.34798 0.55902 0.33493 0.0
H1389 H 0.43267 0.63357 0.31546 0.0
H1390 H 0.41251 0.60127 0.32334 0.0
H1391 H 0.35321 0.60231 0.39865 0.0
H1392 H 0.28802 0.51659 0.33367 0.0
H1393 H 0.30594 0.5502 0.34699 0.0
C1394 C 0.3667 0.4151 0.34093 0.0
C1395 C 0.34726 0.40493 0.34683 0.0
C1396 C 0.38551 0.40406 0.34588 0.0
C1397 C 0.41166 0.35547 0.3821 0.0
H1398 H 0.44461 0.36407 0.27935 0.0
C1399 C 0.48511 0.30482 0.33497 0.0
C1400 C 0.50195 0.31565 0.31552 0.0
C1401 C 0.46613 0.31525 0.34402 0.0
C1402 C 0.43582 0.36167 0.30855 0.0
H1403 H 0.33211 0.37582 0.36583 0.0
H1404 H 0.36537 0.35619 0.37419 0.0
H1405 H 0.41196 0.38339 0.28919 0.0
H1406 H 0.51205 0.34615 0.29142 0.0
H1407 H 0.47947 0.36426 0.30822 0.0
H1408 H 0.43583 0.33369 0.40135 0.0
C1409 C 0.36594 0.37279 0.36607 0.0
C1410 C 0.41706 0.37273 0.31416 0.0
C1411 C 0.34695 0.38399 0.36143 0.0
C1412 C 0.49953 0.33723 0.30641 0.0
C1413 C 0.4807 0.34762 0.3157 0.0
C1414 C 0.43065 0.3444 0.37658 0.0
C1415 C 0.3853 0.38252 0.35629 0.0
C1416 C 0.40492 0.37002 0.35118 0.0
C1417 C 0.46362 0.3367 0.33384 0.0
C1418 C 0.44307 0.34763 0.33992 0.0
H1419 H 0.36731 0.4313 0.32994 0.0
H1420 H 0.40023 0.41207 0.33906 0.0
H1421 H 0.40251 0.35303 0.41082 0.0
H1422 H 0.4864 0.28819 0.34247 0.0
H1423 H 0.45323 0.30635 0.35776 0.0
C1424 C 0.11292 0.27574 0.27764 0.0
C1425 C 0.09754 0.27582 0.24539 0.0
C1426 C 0.12821 0.29158 0.27943 0.0
C1427 C 0.15403 0.33247 0.21338 0.0
H1428 H 0.17197 0.35432 0.32291 0.0
C1429 C 0.20765 0.40465 0.28754 0.0
C1430 C 0.22507 0.40364 0.25991 0.0
C1431 C 0.1918 0.38935 0.28567 0.0
C1432 C 0.16701 0.34855 0.29203 0.0
H1433 H 0.08604 0.29268 0.1899 0.0
H1434 H 0.11247 0.32054 0.1935 0.0
H1435 H 0.14444 0.32759 0.31984 0.0
H1436 H 0.23967 0.38563 0.20901 0.0
H1437 H 0.21226 0.35878 0.20629 0.0
H1438 H 0.1762 0.35382 0.1855 0.0
C1439 C 0.11296 0.30803 0.21698 0.0
C1440 C 0.15141 0.33301 0.2903 0.0
C1441 C 0.09774 0.29212 0.21505 0.0
C1442 C 0.22636 0.38697 0.23051 0.0
C1443 C 0.21058 0.37162 0.22879 0.0
C1444 C 0.16957 0.34807 0.2151 0.0
C1445 C 0.12842 0.30793 0.24914 0.0
C1446 C 0.14478 0.32471 0.25096 0.0
C1447 C 0.19308 0.37263 0.2563 0.0
C1448 C 0.17631 0.35625 0.25445 0.0
H1449 H 0.1133 0.26331 0.30133 0.0
H1450 H 0.14007 0.29081 0.30421 0.0
H1451 H 0.14949 0.32629 0.18256 0.0
H1452 H 0.20615 0.41734 0.31046 0.0
H1453 H 0.17841 0.39079 0.30692 0.0
C1454 C 0.70713 0.09513 0.21146 0.0
C1455 C 0.72446 0.09591 0.23936 0.0
C1456 C 0.69105 0.11016 0.21418 0.0
C1457 C 0.66614 0.15112 0.21052 0.0
H1458 H 0.64675 0.17002 0.32135 0.0
C1459 C 0.61301 0.22418 0.2312 0.0
C1460 C 0.59665 0.22307 0.26135 0.0
C1461 C 0.62804 0.20813 0.22847 0.0
C1462 C 0.65185 0.16477 0.29017 0.0
H1463 H 0.73859 0.11323 0.29173 0.0
H1464 H 0.71066 0.13956 0.29612 0.0
H1465 H 0.67379 0.14272 0.31672 0.0
H1466 H 0.5832 0.20423 0.31227 0.0
H1467 H 0.60939 0.17607 0.30719 0.0
H1468 H 0.644 0.17295 0.18395 0.0
C1469 C 0.70933 0.12713 0.27261 0.0
C1470 C 0.66753 0.14931 0.28751 0.0
C1471 C 0.7254 0.11209 0.26991 0.0
C1472 C 0.59564 0.20556 0.28873 0.0
C1473 C 0.6107 0.18948 0.28598 0.0
C1474 C 0.65048 0.16658 0.21317 0.0
C1475 C 0.69195 0.12632 0.24483 0.0
C1476 C 0.67493 0.14239 0.24765 0.0
C1477 C 0.62707 0.19059 0.2558 0.0
C1478 C 0.64324 0.17367 0.25302 0.0
H1479 H 0.70591 0.08282 0.18764 0.0
H1480 H 0.67776 0.10896 0.19262 0.0
H1481 H 0.67162 0.14627 0.17933 0.0
H1482 H 0.61434 0.23753 0.20982 0.0
H1483 H 0.64063 0.20963 0.20535 0.0
C1484 C 0.79533 0.59616 0.29101 0.0
C1485 C 0.77853 0.5962 0.2618 0.0
C1486 C 0.81113 0.61147 0.28861 0.0
C1487 C 0.8352 0.65 0.21489 0.0
H1488 H 0.85729 0.67462 0.3188 0.0
C1489 C 0.89095 0.72414 0.27119 0.0
C1490 C 0.90748 0.72216 0.24162 0.0
C1491 C 0.87532 0.70867 0.27394 0.0
C1492 C 0.85118 0.66802 0.28948 0.0
H1493 H 0.76501 0.61245 0.2074 0.0
H1494 H 0.79244 0.6393 0.20357 0.0
H1495 H 0.82944 0.64821 0.32287 0.0
H1496 H 0.9207 0.70229 0.19201 0.0
H1497 H 0.89361 0.67517 0.19727 0.0
H1498 H 0.85659 0.67017 0.18144 0.0
C1499 C 0.7936 0.62723 0.22788 0.0
C1500 C 0.8354 0.65269 0.29183 0.0
C1501 C 0.77783 0.61189 0.23021 0.0
C1502 C 0.90813 0.70432 0.21504 0.0
C1503 C 0.89253 0.68883 0.21787 0.0
C1504 C 0.85097 0.66534 0.21254 0.0
C1505 C 0.81044 0.6272 0.25705 0.0
C1506 C 0.82722 0.6435 0.25456 0.0
C1507 C 0.8759 0.69086 0.24724 0.0
C1508 C 0.85915 0.67452 0.2498 0.0
H1509 H 0.79637 0.58425 0.31566 0.0
H1510 H 0.82403 0.61083 0.3112 0.0
H1511 H 0.82941 0.64308 0.1856 0.0
H1512 H 0.88991 0.73776 0.29194 0.0
H1513 H 0.86257 0.71085 0.29651 0.0
C1514 C 0.27551 0.88944 0.28025 0.0
C1515 C 0.27118 0.89963 0.24152 0.0
C1516 C 0.29139 0.87416 0.28273 0.0
C1517 C 0.33841 0.85394 0.22389 0.0
H1518 H 0.33225 0.80644 0.30077 0.0
C1519 C 0.39375 0.78123 0.22268 0.0
C1520 C 0.40242 0.77582 0.26241 0.0
C1521 C 0.37751 0.7961 0.21996 0.0
C1522 C 0.33417 0.81969 0.27931 0.0
H1523 H 0.2797 0.90147 0.17472 0.0
H1524 H 0.30674 0.87428 0.17852 0.0
H1525 H 0.30409 0.83258 0.2957 0.0
H1526 H 0.4006 0.7814 0.33052 0.0
H1527 H 0.37185 0.80706 0.32571 0.0
H1528 H 0.36829 0.84052 0.20671 0.0
C1529 C 0.29846 0.87852 0.20745 0.0
C1530 C 0.31812 0.83476 0.27653 0.0
C1531 C 0.28283 0.89404 0.20516 0.0
C1532 C 0.39429 0.78531 0.29943 0.0
C1533 C 0.37779 0.7999 0.29675 0.0
C1534 C 0.35428 0.83867 0.22616 0.0
C1535 C 0.30307 0.86845 0.24634 0.0
C1536 C 0.32005 0.85218 0.24893 0.0
C1537 C 0.36938 0.80555 0.25696 0.0
C1538 C 0.35235 0.82148 0.25404 0.0
H1539 H 0.26687 0.8935 0.30888 0.0
H1540 H 0.29469 0.86709 0.31341 0.0
H1541 H 0.34074 0.8673 0.20293 0.0
H1542 H 0.39972 0.7742 0.19361 0.0
H1543 H 0.37119 0.80013 0.18894 0.0
C1544 C 0.20494 0.59759 0.71013 0.0
C1545 C 0.22259 0.5977 0.73724 0.0
C1546 C 0.18958 0.61335 0.71327 0.0
C1547 C 0.16635 0.65524 0.70969 0.0
H1548 H 0.14897 0.6756 0.8208 0.0
C1549 C 0.11428 0.72925 0.73005 0.0
C1550 C 0.09837 0.72858 0.76122 0.0
C1551 C 0.12927 0.71314 0.72729 0.0
C1552 C 0.15352 0.66997 0.78954 0.0
H1553 H 0.23803 0.61455 0.78871 0.0
H1554 H 0.21137 0.64215 0.79382 0.0
H1555 H 0.17505 0.64742 0.81574 0.0
H1556 H 0.08572 0.71043 0.81398 0.0
H1557 H 0.11174 0.68218 0.80881 0.0
H1558 H 0.14453 0.6775 0.6835 0.0
C1559 C 0.20921 0.62969 0.7706 0.0
C1560 C 0.16866 0.65399 0.78662 0.0
C1561 C 0.22456 0.61392 0.76751 0.0
C1562 C 0.09781 0.71145 0.78964 0.0
C1563 C 0.11279 0.69531 0.78684 0.0
C1564 C 0.15121 0.67121 0.71261 0.0
C1565 C 0.19154 0.6296 0.74352 0.0
C1566 C 0.17529 0.64646 0.74666 0.0
C1567 C 0.12869 0.69596 0.7556 0.0
C1568 C 0.14465 0.67881 0.75256 0.0
H1569 H 0.20292 0.58528 0.68655 0.0
H1570 H 0.17603 0.61266 0.69229 0.0
H1571 H 0.17125 0.64996 0.6784 0.0
H1572 H 0.11526 0.7423 0.70784 0.0
H1573 H 0.14149 0.71429 0.70329 0.0
C1574 C 0.40624 0.20327 0.71229 0.0
C1575 C 0.40413 0.22118 0.73834 0.0
C1576 C 0.39141 0.18698 0.71431 0.0
C1577 C 0.34952 0.16489 0.78344 0.0
H1578 H 0.3307 0.13812 0.67908 0.0
C1579 C 0.27765 0.10798 0.72108 0.0
C1580 C 0.27718 0.09314 0.75431 0.0
C1581 C 0.29385 0.12288 0.71877 0.0
C1582 C 0.33569 0.14553 0.70849 0.0
H1583 H 0.38469 0.23616 0.78661 0.0
H1584 H 0.35872 0.20797 0.78962 0.0
H1585 H 0.35732 0.16581 0.67594 0.0
H1586 H 0.29349 0.08207 0.81084 0.0
H1587 H 0.32191 0.10784 0.80639 0.0
H1588 H 0.32742 0.14511 0.81587 0.0
C1589 C 0.37204 0.20626 0.76825 0.0
C1590 C 0.35114 0.16122 0.70674 0.0
C1591 C 0.38688 0.22249 0.76637 0.0
C1592 C 0.29335 0.09336 0.78494 0.0
C1593 C 0.30958 0.10821 0.78252 0.0
C1594 C 0.33403 0.14925 0.78518 0.0
C1595 C 0.37411 0.18831 0.74228 0.0
C1596 C 0.35815 0.17117 0.74418 0.0
C1597 C 0.30996 0.12322 0.74955 0.0
C1598 C 0.32686 0.13945 0.74771 0.0
H1599 H 0.41938 0.20177 0.69043 0.0
H1600 H 0.39361 0.17326 0.69424 0.0
H1601 H 0.35475 0.17204 0.81294 0.0
H1602 H 0.26536 0.10832 0.69712 0.0
H1603 H 0.29348 0.13441 0.69332 0.0
C1604 C 0.88553 0.27208 0.73019 0.0
C1605 C 0.90115 0.27334 0.76188 0.0
C1606 C 0.86964 0.28735 0.72764 0.0
C1607 C 0.84527 0.32812 0.71418 0.0
H1608 H 0.82026 0.35009 0.81786 0.0
C1609 C 0.78898 0.39993 0.71403 0.0
C1610 C 0.77151 0.39928 0.74161 0.0
C1611 C 0.8047 0.38448 0.71633 0.0
C1612 C 0.82695 0.34401 0.78857 0.0
H1613 H 0.91234 0.29167 0.81571 0.0
H1614 H 0.88482 0.31842 0.81088 0.0
H1615 H 0.84747 0.32301 0.82224 0.0
H1616 H 0.75673 0.38171 0.79288 0.0
H1617 H 0.78399 0.35465 0.79649 0.0
H1618 H 0.8244 0.34879 0.68049 0.0
C1619 C 0.88465 0.30547 0.78837 0.0
C1620 C 0.84275 0.32866 0.7911 0.0
C1621 C 0.90051 0.29018 0.79099 0.0
C1622 C 0.77005 0.38277 0.77136 0.0
C1623 C 0.78575 0.3673 0.77358 0.0
C1624 C 0.82945 0.34346 0.71165 0.0
C1625 C 0.86901 0.30425 0.75668 0.0
C1626 C 0.85212 0.32053 0.75394 0.0
C1627 C 0.80329 0.36799 0.74617 0.0
C1628 C 0.82009 0.35161 0.74882 0.0
H1629 H 0.88548 0.25924 0.70742 0.0
H1630 H 0.85768 0.28575 0.70322 0.0
H1631 H 0.8523 0.32239 0.68494 0.0
H1632 H 0.79062 0.41247 0.69081 0.0
H1633 H 0.81812 0.38566 0.69511 0.0
C1634 C 0.7052 0.90312 0.79227 0.0
C1635 C 0.72281 0.90181 0.76518 0.0
C1636 C 0.68923 0.88793 0.79025 0.0
C1637 C 0.66729 0.84668 0.71921 0.0
H1638 H 0.64067 0.82668 0.8228 0.0
C1639 C 0.60923 0.77493 0.77918 0.0
C1640 C 0.59439 0.77503 0.74594 0.0
C1641 C 0.62459 0.79068 0.78182 0.0
C1642 C 0.64806 0.83196 0.79358 0.0
H1643 H 0.73768 0.88332 0.7153 0.0
H1644 H 0.71011 0.85669 0.71236 0.0
H1645 H 0.66839 0.85321 0.82703 0.0
H1646 H 0.58388 0.79187 0.68961 0.0
H1647 H 0.6104 0.81955 0.69468 0.0
H1648 H 0.64748 0.82497 0.68585 0.0
C1649 C 0.70834 0.86968 0.73449 0.0
C1650 C 0.66377 0.84739 0.79597 0.0
C1651 C 0.72422 0.88491 0.73634 0.0
C1652 C 0.59517 0.79127 0.71549 0.0
C1653 C 0.61045 0.80708 0.71828 0.0
C1654 C 0.65166 0.8312 0.71684 0.0
C1655 C 0.6906 0.87104 0.76126 0.0
C1656 C 0.67362 0.85489 0.75881 0.0
C1657 C 0.62539 0.80696 0.75141 0.0
C1658 C 0.64187 0.82362 0.75399 0.0
H1659 H 0.70363 0.91599 0.81477 0.0
H1660 H 0.67567 0.8896 0.81097 0.0
H1661 H 0.67434 0.85228 0.68989 0.0
H1662 H 0.60914 0.76256 0.803 0.0
H1663 H 0.63605 0.78989 0.80736 0.0
C1664 C 0.02464 0.25246 0.34621 0.0
C1665 C 0.0241 0.23151 0.33143 0.0
C1666 C 0.01598 0.25766 0.38601 0.0
C1667 C 0.97867 0.23813 0.4672 0.0
H1668 H 0.01565 0.26354 0.55129 0.0
C1669 C 0.97476 0.21569 0.64033 0.0
C1670 C 0.97219 0.23151 0.67136 0.0
C1671 C 0.9797 0.22085 0.5985 0.0
C1672 C 0.00498 0.2569 0.52792 0.0
H1673 H 0.0134 0.1998 0.34593 0.0
H1674 H 0.99817 0.20885 0.41441 0.0
H1675 H 0.02592 0.26349 0.47579 0.0
H1676 H 0.97401 0.26523 0.68286 0.0
H1677 H 0.98325 0.27424 0.60879 0.0
H1678 H 0.95839 0.23036 0.51933 0.0
C1679 C 0.00526 0.22129 0.39556 0.0
C1680 C 0.01081 0.25687 0.48481 0.0
C1681 C 0.01413 0.21607 0.35639 0.0
C1682 C 0.97578 0.25268 0.65972 0.0
C1683 C 0.98101 0.25785 0.61747 0.0
C1684 C 0.97291 0.23812 0.51003 0.0
C1685 C 0.00627 0.24205 0.41108 0.0
C1686 C 0.99812 0.24663 0.45439 0.0
C1687 C 0.98246 0.24195 0.5864 0.0
C1688 C 0.98641 0.24668 0.54096 0.0
H1689 H 0.03236 0.26466 0.32774 0.0
H1690 H 0.01697 0.27377 0.3973 0.0
H1691 H 0.96843 0.23045 0.44434 0.0
H1692 H 0.9725 0.19918 0.64794 0.0
H1693 H 0.98118 0.20827 0.5753 0.0
C1694 C 0.76645 0.95666 0.6303 0.0
C1695 C 0.7609 0.96724 0.66798 0.0
C1696 C 0.76083 0.96484 0.59071 0.0
C1697 C 0.7527 0.01514 0.53938 0.0
H1698 H 0.73941 0.98006 0.44169 0.0
C1699 C 0.74793 0.02143 0.34331 0.0
C1700 C 0.76764 0.03106 0.33625 0.0
C1701 C 0.74201 0.01505 0.38435 0.0
C1702 C 0.74276 0.99017 0.46867 0.0
H1703 H 0.74424 0.9942 0.69395 0.0
H1704 H 0.73467 0.00886 0.62411 0.0
H1705 H 0.73651 0.96547 0.51352 0.0
H1706 H 0.79651 0.04148 0.36714 0.0
H1707 H 0.78613 0.03053 0.43806 0.0
H1708 H 0.75981 0.03956 0.49448 0.0
C1709 C 0.74334 0.99414 0.62549 0.0
C1710 C 0.74123 0.98179 0.50975 0.0
C1711 C 0.74873 0.98574 0.66535 0.0
C1712 C 0.78116 0.03427 0.37119 0.0
C1713 C 0.77515 0.02813 0.41206 0.0
C1714 C 0.75436 0.02347 0.49831 0.0
C1715 C 0.74967 0.98393 0.58776 0.0
C1716 C 0.74689 0.99396 0.54542 0.0
C1717 C 0.75556 0.01841 0.41914 0.0
C1718 C 0.75012 0.01084 0.46249 0.0
H1719 H 0.77558 0.94224 0.63131 0.0
H1720 H 0.76617 0.9567 0.56233 0.0
H1721 H 0.75728 0.02488 0.56618 0.0
H1722 H 0.73713 0.01869 0.31715 0.0
H1723 H 0.72682 0.00756 0.38891 0.0
C1724 C 0.02742 0.75322 0.65737 0.0
C1725 C 0.03062 0.7743 0.66998 0.0
C1726 C 0.01903 0.74862 0.61701 0.0
C1727 C 0.98558 0.77133 0.53465 0.0
H1728 H 0.0182 0.74091 0.44996 0.0
C1729 C 0.97511 0.78807 0.35884 0.0
C1730 C 0.9742 0.77133 0.32949 0.0
C1731 C 0.98078 0.78449 0.40104 0.0
C1732 C 0.0087 0.74906 0.47346 0.0
H1733 H 0.02728 0.80698 0.65019 0.0
H1734 H 0.01233 0.79896 0.58105 0.0
H1735 H 0.0298 0.74109 0.52468 0.0
H1736 H 0.97934 0.7377 0.32148 0.0
H1737 H 0.98945 0.73148 0.39597 0.0
H1738 H 0.96486 0.77992 0.48389 0.0
C1739 C 0.0164 0.78602 0.60206 0.0
C1740 C 0.01532 0.74913 0.51612 0.0
C1741 C 0.02506 0.79058 0.6417 0.0
C1742 C 0.97983 0.75094 0.34328 0.0
C1743 C 0.98561 0.74736 0.38585 0.0
C1744 C 0.97894 0.77117 0.49236 0.0
C1745 C 0.01329 0.76505 0.58927 0.0
C1746 C 0.00421 0.76096 0.54666 0.0
C1747 C 0.98572 0.76409 0.41531 0.0
C1748 C 0.99089 0.76079 0.46097 0.0
H1749 H 0.03165 0.74034 0.67839 0.0
H1750 H 0.0168 0.73232 0.60768 0.0
H1751 H 0.97663 0.78036 0.55776 0.0
H1752 H 0.97118 0.80405 0.34949 0.0
H1753 H 0.98127 0.79782 0.42263 0.0
C1754 C 0.21086 0.0161 0.64521 0.0
C1755 C 0.22746 0.02242 0.67202 0.0
C1756 C 0.2148 0.00997 0.60343 0.0
C1757 C 0.25197 0.9898 0.52658 0.0
H1758 H 0.21615 0.02022 0.44727 0.0
C1759 C 0.24663 0.97276 0.34259 0.0
C1760 C 0.22562 0.96944 0.32963 0.0
C1761 C 0.25103 0.98079 0.38335 0.0
C1762 C 0.22638 0.0117 0.46893 0.0
H1763 H 0.26145 0.02579 0.67669 0.0
H1764 H 0.26836 0.01464 0.60288 0.0
H1765 H 0.21637 0.03014 0.52222 0.0
H1766 H 0.19285 0.97216 0.34935 0.0
H1767 H 0.2005 0.9862 0.41921 0.0
H1768 H 0.26116 0.97067 0.47308 0.0
C1769 C 0.25229 0.01473 0.61466 0.0
C1770 C 0.22649 0.01736 0.51177 0.0
C1771 C 0.24833 0.02103 0.65681 0.0
C1772 C 0.20921 0.97451 0.358 0.0
C1773 C 0.21358 0.98269 0.39811 0.0
C1774 C 0.25181 0.98405 0.48338 0.0
C1775 C 0.23544 0.00987 0.5873 0.0
C1776 C 0.23864 0.00597 0.54126 0.0
C1777 C 0.23447 0.98595 0.4113 0.0
C1778 C 0.23835 0.99446 0.45458 0.0
H1779 H 0.19462 0.01664 0.65594 0.0
H1780 H 0.20157 0.00587 0.58321 0.0
H1781 H 0.26149 0.98084 0.5488 0.0
H1782 H 0.25962 0.96889 0.32156 0.0
H1783 H 0.26729 0.98313 0.39287 0.0
C1784 C 0.50489 0.71834 0.84829 0.0
C1785 C 0.51893 0.73212 0.82787 0.0
C1786 C 0.49854 0.72211 0.8901 0.0
C1787 C 0.50336 0.72263 0.9846 0.0
H1788 H 0.49426 0.77677 0.03913 0.0
C1789 C 0.49805 0.72632 0.16464 0.0
C1790 C 0.48134 0.73812 0.18168 0.0
C1791 C 0.50421 0.72914 0.12241 0.0
C1792 C 0.49668 0.76154 0.02429 0.0
H1793 H 0.53645 0.76128 0.83408 0.0
H1794 H 0.52584 0.76763 0.90798 0.0
H1795 H 0.49912 0.77504 0.96174 0.0
H1796 H 0.45869 0.76292 0.16907 0.0
H1797 H 0.469 0.76745 0.09443 0.0
H1798 H 0.50029 0.70892 0.04616 0.0
C1799 C 0.51939 0.75411 0.89141 0.0
C1800 C 0.49962 0.76056 0.98002 0.0
C1801 C 0.52547 0.7505 0.84909 0.0
C1802 C 0.47178 0.7538 0.15665 0.0
C1803 C 0.47769 0.75635 0.11392 0.0
C1804 C 0.50034 0.72359 0.02846 0.0
C1805 C 0.50648 0.7395 0.91288 0.0
C1806 C 0.5029 0.74104 0.95966 0.0
C1807 C 0.49341 0.74341 0.09589 0.0
C1808 C 0.49708 0.74302 0.04903 0.0
H1809 H 0.49946 0.70415 0.83244 0.0
H1810 H 0.48805 0.71088 0.90517 0.0
H1811 H 0.5063 0.70735 0.97032 0.0
H1812 H 0.50573 0.71422 0.18348 0.0
H1813 H 0.51683 0.71938 0.11001 0.0
C1814 C 0.24822 0.52454 0.84114 0.0
C1815 C 0.26882 0.53 0.82839 0.0
C1816 C 0.24403 0.51894 0.88358 0.0
C1817 C 0.26616 0.52581 0.99132 0.0
H1818 H 0.23687 0.47425 0.02174 0.0
C1819 C 0.28576 0.47906 0.13932 0.0
C1820 C 0.26955 0.4729 0.16724 0.0
C1821 C 0.28108 0.48803 0.10003 0.0
C1822 C 0.24464 0.48894 0.01371 0.0
H1823 H 0.30125 0.53304 0.8502 0.0
H1824 H 0.29394 0.52336 0.9232 0.0
H1825 H 0.23724 0.48607 0.94717 0.0
H1826 H 0.2356 0.47114 0.17541 0.0
H1827 H 0.22739 0.48654 0.10522 0.0
H1828 H 0.27461 0.52809 0.05712 0.0
C1829 C 0.28094 0.52378 0.90081 0.0
C1830 C 0.24489 0.49568 0.97115 0.0
C1831 C 0.28513 0.52923 0.85872 0.0
C1832 C 0.24842 0.47583 0.15466 0.0
C1833 C 0.24372 0.48454 0.11461 0.0
C1834 C 0.26598 0.51907 0.03354 0.0
C1835 C 0.26034 0.51889 0.91394 0.0
C1836 C 0.25641 0.51373 0.95937 0.0
C1837 C 0.26008 0.49086 0.08722 0.0
C1838 C 0.25593 0.50017 0.04485 0.0
H1839 H 0.2353 0.5249 0.81858 0.0
H1840 H 0.22802 0.51513 0.89284 0.0
H1841 H 0.27476 0.54005 0.98333 0.0
H1842 H 0.30219 0.47707 0.14779 0.0
H1843 H 0.29398 0.49252 0.07925 0.0
C1844 C 0.51833 0.25348 0.16095 0.0
C1845 C 0.53361 0.26933 0.16661 0.0
C1846 C 0.51034 0.24908 0.12029 0.0
C1847 C 0.48645 0.2573 0.03629 0.0
H1848 H 0.52316 0.25535 0.93737 0.0
C1849 C 0.46 0.28193 0.86893 0.0
C1850 C 0.4663 0.26973 0.8337 0.0
C1851 C 0.46752 0.27741 0.90965 0.0
C1852 C 0.51271 0.25554 0.96468 0.0
H1853 H 0.55284 0.29252 0.13366 0.0
H1854 H 0.5392 0.28462 0.06324 0.0
H1855 H 0.53847 0.255 0.00888 0.0
H1856 H 0.48551 0.2431 0.81392 0.0
H1857 H 0.49906 0.23551 0.8854 0.0
H1858 H 0.46073 0.25875 0.99208 0.0
C1859 C 0.5334 0.27559 0.09012 0.0
C1860 C 0.52146 0.25548 0.00555 0.0
C1861 C 0.54111 0.28021 0.13063 0.0
C1862 C 0.48029 0.25279 0.84034 0.0
C1863 C 0.48808 0.24845 0.88118 0.0
C1864 C 0.47771 0.2576 0.99542 0.0
C1865 C 0.51777 0.26017 0.08452 0.0
C1866 C 0.50845 0.25689 0.04172 0.0
C1867 C 0.48176 0.26075 0.91621 0.0
C1868 C 0.49078 0.25725 0.95922 0.0
H1869 H 0.51217 0.24484 0.188 0.0
H1870 H 0.49828 0.2371 0.11681 0.0
H1871 H 0.47605 0.25852 0.06358 0.0
H1872 H 0.44934 0.29515 0.86517 0.0
H1873 H 0.46265 0.28738 0.93591 0.0
C1874 C 0.74867 0.47344 0.84733 0.0
C1875 C 0.72824 0.46629 0.83726 0.0
C1876 C 0.75373 0.47933 0.88928 0.0
C1877 C 0.73556 0.47088 0.99976 0.0
H1878 H 0.75949 0.52566 0.0259 0.0
C1879 C 0.71526 0.51614 0.15038 0.0
C1880 C 0.73151 0.52523 0.17462 0.0
C1881 C 0.71954 0.50707 0.1109 0.0
C1882 C 0.75321 0.51013 0.01906 0.0
H1883 H 0.697 0.46039 0.86352 0.0
H1884 H 0.70581 0.47044 0.93537 0.0
H1885 H 0.75877 0.5132 0.95181 0.0
H1886 H 0.76504 0.53204 0.17632 0.0
H1887 H 0.77244 0.51648 0.10608 0.0
H1888 H 0.72887 0.46826 0.06635 0.0
C1889 C 0.71806 0.47117 0.91133 0.0
C1890 C 0.75282 0.50301 0.97676 0.0
C1891 C 0.71299 0.4655 0.86983 0.0
C1892 C 0.75222 0.52503 0.15842 0.0
C1893 C 0.75645 0.51625 0.11829 0.0
C1894 C 0.73584 0.47801 0.04173 0.0
C1895 C 0.73849 0.47791 0.92176 0.0
C1896 C 0.74318 0.48368 0.96659 0.0
C1897 C 0.74012 0.50711 0.09434 0.0
C1898 C 0.74392 0.49803 0.05156 0.0
H1899 H 0.76076 0.47433 0.823 0.0
H1900 H 0.76958 0.48461 0.89647 0.0
H1901 H 0.72843 0.45571 0.99295 0.0
H1902 H 0.69915 0.51599 0.16193 0.0
H1903 H 0.70661 0.50035 0.09284 0.0
loop_
_geom_bond_atom_site_label_1
_geom_bond_atom_site_label_2
_geom_bond_distance
_geom_bond_site_symmetry_2
_ccdc_geom_bond_type
Co0 O2 2.143 . S
Co0 O8 2.074 . S
Co0 O11 2.093 . S
Co0 O24 2.097 . S
Co0 N41 2.151 . S
Co0 N49 2.214 . S
Co1 O2 2.160 . S
Co1 O7 2.058 . S
Co1 O17 2.057 . S
Co1 O32 2.037 . S
Co1 N36 2.145 . S
Co1 N57 2.257 . S
O2 Co0 2.143 . S
O2 Co1 2.160 . S
C3 O4 1.278 . S
C3 O11 1.224 . S
O4 C3 1.278 . S
C5 O6 1.245 . S
C5 O17 1.232 . S
O6 C5 1.245 . S
O7 Co1 2.058 . S
O7 C33 1.269 . S
O8 Co0 2.074 . S
O8 C33 1.257 . S
H9 C34 0.930 . S
H10 C40 0.930 . S
O11 Co0 2.093 . S
O11 C3 1.224 . S
H12 C44 0.929 . S
H13 C46 0.930 . S
H14 C47 0.930 . S
H15 C45 0.929 . S
H16 C48 0.928 . S
O17 Co1 2.057 . S
O17 C5 1.232 . S
H18 C37 0.929 1_655 S
H19 C38 0.929 . S
H20 C50 0.931 1_655 S
H21 C42 0.929 . S
H22 C51 0.930 . S
H23 C43 0.931 . S
O24 Co0 2.097 . S
O24 C52 1.214 . S
H25 C53 0.929 . S
H26 C54 0.929 . S
H27 C55 0.930 . S
H28 C56 0.929 . S
H29 C58 0.930 . S
H30 C35 0.930 . S
H31 C39 0.930 . S
O32 Co1 2.037 . S
O32 C52 1.234 . S
C33 O7 1.269 . S
C33 O8 1.257 . S
C34 H9 0.930 . S
C34 C37 1.388 1_655 S
C34 C39 1.418 . S
C35 H30 0.930 . S
C35 C38 1.404 . S
C35 C39 1.353 1_455 S
N36 Co1 2.145 . S
N36 C37 1.397 . S
N36 C38 1.334 . S
C37 H18 0.929 1_455 S
C37 C34 1.388 1_455 S
C37 N36 1.397 . S
C38 H19 0.929 . S
C38 C35 1.404 . S
C38 N36 1.334 . S
C39 H31 0.930 . S
C39 C34 1.418 . S
C39 C35 1.353 1_655 S
C40 H10 0.930 . S
C40 N41 1.330 . S
C40 C42 1.446 . S
N41 Co0 2.151 . S
N41 C40 1.330 . S
N41 C45 1.418 . S
C42 H21 0.929 . S
C42 C40 1.446 . S
C42 C43 1.332 . S
C43 H23 0.931 . S
C43 C42 1.332 . S
C43 C44 1.267 . S
C44 H12 0.929 . S
C44 C43 1.267 . S
C44 C45 1.251 . S
C45 H15 0.929 . S
C45 N41 1.418 . S
C45 C44 1.251 . S
C46 H13 0.930 . S
C46 C48 1.406 . S
C46 C51 1.261 . S
C47 H14 0.930 . S
C47 N49 1.325 . S
C47 C50 1.357 . S
C48 H16 0.928 . S
C48 C46 1.406 . S
C48 N49 1.261 . S
N49 Co0 2.214 . S
N49 C47 1.325 . S
N49 C48 1.261 . S
C50 H20 0.931 1_455 S
C50 C47 1.357 . S
C50 C51 1.312 . S
C51 H22 0.930 . S
C51 C46 1.261 . S
C51 C50 1.312 . S
C52 O24 1.214 . S
C52 O32 1.234 . S
C53 H25 0.929 . S
C53 C56 1.391 . S
C53 C58 1.391 . S
C54 H26 0.929 . S
C54 C55 1.390 . S
C54 N57 1.391 . S
C55 H27 0.930 . S
C55 C54 1.390 . S
C55 C56 1.392 . S
C56 H28 0.929 . S
C56 C53 1.391 . S
C56 C55 1.392 . S
N57 Co1 2.257 . S
N57 C54 1.391 . S
N57 C58 1.388 . S
C58 H29 0.930 . S
C58 C53 1.391 . S
C58 N57 1.388 . S
Co59 O61 2.143 . S
Co59 O67 2.074 . S
Co59 O70 2.093 . S
Co59 O83 2.097 . S
Co59 N100 2.151 . S
Co59 N108 2.214 . S
Co60 O61 2.160 . S
Co60 O66 2.058 . S
Co60 O76 2.057 . S
Co60 O91 2.037 . S
Co60 N95 2.145 . S
Co60 N116 2.257 . S
O61 Co59 2.143 . S
O61 Co60 2.160 . S
C62 O63 1.278 . S
C62 O70 1.224 . S
O63 C62 1.278 . S
C64 O65 1.245 . S
C64 O76 1.232 . S
O65 C64 1.245 . S
O66 Co60 2.058 . S
O66 C92 1.269 . S
O67 Co59 2.074 . S
O67 C92 1.257 . S
H68 C93 0.930 . S
H69 C99 0.930 . S
O70 Co59 2.093 . S
O70 C62 1.224 . S
H71 C103 0.929 . S
H72 C105 0.930 . S
H73 C106 0.930 . S
H74 C104 0.929 . S
H75 C107 0.928 . S
O76 Co60 2.057 . S
O76 C64 1.232 . S
H77 C96 0.929 1_565 S
H78 C97 0.929 . S
H79 C109 0.931 1_565 S
H80 C101 0.929 . S
H81 C110 0.930 . S
H82 C102 0.931 . S
O83 Co59 2.097 . S
O83 C111 1.214 . S
H84 C112 0.929 . S
H85 C113 0.929 . S
H86 C114 0.930 . S
H87 C115 0.929 . S
H88 C117 0.930 . S
H89 C94 0.930 . S
H90 C98 0.930 . S
O91 Co60 2.037 . S
O91 C111 1.234 . S
C92 O66 1.269 . S
C92 O67 1.257 . S
C93 H68 0.930 . S
C93 C96 1.388 1_565 S
C93 C98 1.418 . S
C94 H89 0.930 . S
C94 C97 1.404 . S
C94 C98 1.353 1_545 S
N95 Co60 2.145 . S
N95 C96 1.397 . S
N95 C97 1.334 . S
C96 H77 0.929 1_545 S
C96 C93 1.388 1_545 S
C96 N95 1.397 . S
C97 H78 0.929 . S
C97 C94 1.404 . S
C97 N95 1.334 . S
C98 H90 0.930 . S
C98 C93 1.418 . S
C98 C94 1.353 1_565 S
C99 H69 0.930 . S
C99 N100 1.330 . S
C99 C101 1.446 . S
N100 Co59 2.151 . S
N100 C99 1.330 . S
N100 C104 1.418 . S
C101 H80 0.929 . S
C101 C99 1.446 . S
C101 C102 1.332 . S
C102 H82 0.931 . S
C102 C101 1.332 . S
C102 C103 1.267 . S
C103 H71 0.929 . S
C103 C102 1.267 . S
C103 C104 1.251 . S
C104 H74 0.929 . S
C104 N100 1.418 . S
C104 C103 1.251 . S
C105 H72 0.930 . S
C105 C107 1.406 . S
C105 C110 1.261 . S
C106 H73 0.930 . S
C106 N108 1.325 . S
C106 C109 1.357 . S
C107 H75 0.928 . S
C107 C105 1.406 . S
C107 N108 1.261 . S
N108 Co59 2.214 . S
N108 C106 1.325 . S
N108 C107 1.261 . S
C109 H79 0.931 1_545 S
C109 C106 1.357 . S
C109 C110 1.312 . S
C110 H81 0.930 . S
C110 C105 1.261 . S
C110 C109 1.312 . S
C111 O83 1.214 . S
C111 O91 1.234 . S
C112 H84 0.929 . S
C112 C115 1.391 . S
C112 C117 1.391 . S
C113 H85 0.929 . S
C113 C114 1.390 . S
C113 N116 1.391 . S
C114 H86 0.930 . S
C114 C113 1.390 . S
C114 C115 1.392 . S
C115 H87 0.929 . S
C115 C112 1.391 . S
C115 C114 1.392 . S
N116 Co60 2.257 . S
N116 C113 1.391 . S
N116 C117 1.388 . S
C117 H88 0.930 . S
C117 C112 1.391 . S
C117 N116 1.388 . S
Co118 O120 2.143 . S
Co118 O126 2.074 . S
Co118 O129 2.093 . S
Co118 O142 2.097 . S
Co118 N159 2.151 . S
Co118 N167 2.214 . S
Co119 O120 2.160 . S
Co119 O125 2.058 . S
Co119 O135 2.057 . S
Co119 O150 2.037 . S
Co119 N154 2.145 . S
Co119 N175 2.257 . S
O120 Co118 2.143 . S
O120 Co119 2.160 . S
C121 O122 1.278 . S
C121 O129 1.224 . S
O122 C121 1.278 . S
C123 O124 1.245 . S
C123 O135 1.232 . S
O124 C123 1.245 . S
O125 Co119 2.058 . S
O125 C151 1.269 . S
O126 Co118 2.074 . S
O126 C151 1.257 . S
H127 C152 0.930 . S
H128 C158 0.930 . S
O129 Co118 2.093 . S
O129 C121 1.224 . S
H130 C162 0.929 . S
H131 C164 0.930 . S
H132 C165 0.930 . S
H133 C163 0.929 . S
H134 C166 0.928 . S
O135 Co119 2.057 . S
O135 C123 1.232 . S
H136 C155 0.929 1_455 S
H137 C156 0.929 . S
H138 C168 0.931 1_455 S
H139 C160 0.929 . S
H140 C169 0.930 . S
H141 C161 0.931 . S
O142 Co118 2.097 . S
O142 C170 1.214 . S
H143 C171 0.929 . S
H144 C172 0.929 . S
H145 C173 0.930 . S
H146 C174 0.929 . S
H147 C176 0.930 . S
H148 C153 0.930 . S
H149 C157 0.930 . S
O150 Co119 2.037 . S
O150 C170 1.234 . S
C151 O125 1.269 . S
C151 O126 1.257 . S
C152 H127 0.930 . S
C152 C155 1.388 1_455 S
C152 C157 1.418 . S
C153 H148 0.930 . S
C153 C156 1.404 . S
C153 C157 1.353 1_655 S
N154 Co119 2.145 . S
N154 C155 1.397 . S
N154 C156 1.334 . S
C155 H136 0.929 1_655 S
C155 C152 1.388 1_655 S
C155 N154 1.397 . S
C156 H137 0.929 . S
C156 C153 1.404 . S
C156 N154 1.334 . S
C157 H149 0.930 . S
C157 C152 1.418 . S
C157 C153 1.353 1_455 S
C158 H128 0.930 . S
C158 N159 1.330 . S
C158 C160 1.446 . S
N159 Co118 2.151 . S
N159 C158 1.330 . S
N159 C163 1.418 . S
C160 H139 0.929 . S
C160 C158 1.446 . S
C160 C161 1.332 . S
C161 H141 0.931 . S
C161 C160 1.332 . S
C161 C162 1.267 . S
C162 H130 0.929 . S
C162 C161 1.267 . S
C162 C163 1.251 . S
C163 H133 0.929 . S
C163 N159 1.418 . S
C163 C162 1.251 . S
C164 H131 0.930 . S
C164 C166 1.406 . S
C164 C169 1.261 . S
C165 H132 0.930 . S
C165 N167 1.325 . S
C165 C168 1.357 . S
C166 H134 0.928 . S
C166 C164 1.406 . S
C166 N167 1.261 . S
N167 Co118 2.214 . S
N167 C165 1.325 . S
N167 C166 1.261 . S
C168 H138 0.931 1_655 S
C168 C165 1.357 . S
C168 C169 1.312 . S
C169 H140 0.930 . S
C169 C164 1.261 . S
C169 C168 1.312 . S
C170 O142 1.214 . S
C170 O150 1.234 . S
C171 H143 0.929 . S
C171 C174 1.391 . S
C171 C176 1.391 . S
C172 H144 0.929 . S
C172 C173 1.390 . S
C172 N175 1.391 . S
C173 H145 0.930 . S
C173 C172 1.390 . S
C173 C174 1.392 . S
C174 H146 0.929 . S
C174 C171 1.391 . S
C174 C173 1.392 . S
N175 Co119 2.257 . S
N175 C172 1.391 . S
N175 C176 1.388 . S
C176 H147 0.930 . S
C176 C171 1.391 . S
C176 N175 1.388 . S
Co177 O179 2.143 . S
Co177 O185 2.074 . S
Co177 O188 2.093 . S
Co177 O201 2.097 . S
Co177 N218 2.151 . S
Co177 N226 2.214 . S
Co178 O179 2.160 . S
Co178 O184 2.058 . S
Co178 O194 2.057 . S
Co178 O209 2.037 . S
Co178 N213 2.145 . S
Co178 N234 2.257 . S
O179 Co177 2.143 . S
O179 Co178 2.160 . S
C180 O181 1.278 . S
C180 O188 1.224 . S
O181 C180 1.278 . S
C182 O183 1.245 . S
C182 O194 1.232 . S
O183 C182 1.245 . S
O184 Co178 2.058 . S
O184 C210 1.269 . S
O185 Co177 2.074 . S
O185 C210 1.257 . S
H186 C211 0.930 . S
H187 C217 0.930 . S
O188 Co177 2.093 . S
O188 C180 1.224 . S
H189 C221 0.929 . S
H190 C223 0.930 . S
H191 C224 0.930 . S
H192 C222 0.929 . S
H193 C225 0.928 . S
O194 Co178 2.057 . S
O194 C182 1.232 . S
H195 C214 0.929 1_545 S
H196 C215 0.929 . S
H197 C227 0.931 1_545 S
H198 C219 0.929 . S
H199 C228 0.930 . S
H200 C220 0.931 . S
O201 Co177 2.097 . S
O201 C229 1.214 . S
H202 C230 0.929 . S
H203 C231 0.929 . S
H204 C232 0.930 . S
H205 C233 0.929 . S
H206 C235 0.930 . S
H207 C212 0.930 . S
H208 C216 0.930 . S
O209 Co178 2.037 . S
O209 C229 1.234 . S
C210 O184 1.269 . S
C210 O185 1.257 . S
C211 H186 0.930 . S
C211 C214 1.388 1_545 S
C211 C216 1.418 . S
C212 H207 0.930 . S
C212 C215 1.404 . S
C212 C216 1.353 1_565 S
N213 Co178 2.145 . S
N213 C214 1.397 . S
N213 C215 1.334 . S
C214 H195 0.929 1_565 S
C214 C211 1.388 1_565 S
C214 N213 1.397 . S
C215 H196 0.929 . S
C215 C212 1.404 . S
C215 N213 1.334 . S
C216 H208 0.930 . S
C216 C211 1.418 . S
C216 C212 1.353 1_545 S
C217 H187 0.930 . S
C217 N218 1.330 . S
C217 C219 1.446 . S
N218 Co177 2.151 . S
N218 C217 1.330 . S
N218 C222 1.418 . S
C219 H198 0.929 . S
C219 C217 1.446 . S
C219 C220 1.332 . S
C220 H200 0.931 . S
C220 C219 1.332 . S
C220 C221 1.267 . S
C221 H189 0.929 . S
C221 C220 1.267 . S
C221 C222 1.251 . S
C222 H192 0.929 . S
C222 N218 1.418 . S
C222 C221 1.251 . S
C223 H190 0.930 . S
C223 C225 1.406 . S
C223 C228 1.261 . S
C224 H191 0.930 . S
C224 N226 1.325 . S
C224 C227 1.357 . S
C225 H193 0.928 . S
C225 C223 1.406 . S
C225 N226 1.261 . S
N226 Co177 2.214 . S
N226 C224 1.325 . S
N226 C225 1.261 . S
C227 H197 0.931 1_565 S
C227 C224 1.357 . S
C227 C228 1.312 . S
C228 H199 0.930 . S
C228 C223 1.261 . S
C228 C227 1.312 . S
C229 O201 1.214 . S
C229 O209 1.234 . S
C230 H202 0.929 . S
C230 C233 1.391 . S
C230 C235 1.391 . S
C231 H203 0.929 . S
C231 C232 1.390 . S
C231 N234 1.391 . S
C232 H204 0.930 . S
C232 C231 1.390 . S
C232 C233 1.392 . S
C233 H205 0.929 . S
C233 C230 1.391 . S
C233 C232 1.392 . S
N234 Co178 2.257 . S
N234 C231 1.391 . S
N234 C235 1.388 . S
C235 H206 0.930 . S
C235 C230 1.391 . S
C235 N234 1.388 . S
Co236 O238 2.143 . S
Co236 O244 2.074 . S
Co236 O247 2.093 . S
Co236 O260 2.097 . S
Co236 N277 2.151 . S
Co236 N285 2.214 . S
Co237 O238 2.160 . S
Co237 O243 2.058 . S
Co237 O253 2.057 . S
Co237 O268 2.037 . S
Co237 N272 2.145 . S
Co237 N293 2.257 . S
O238 Co236 2.143 . S
O238 Co237 2.160 . S
C239 O240 1.278 . S
C239 O247 1.224 . S
O240 C239 1.278 . S
C241 O242 1.245 . S
C241 O253 1.232 . S
O242 C241 1.245 . S
O243 Co237 2.058 . S
O243 C269 1.269 . S
O244 Co236 2.074 . S
O244 C269 1.257 . S
H245 C270 0.930 . S
H246 C276 0.930 . S
O247 Co236 2.093 . S
O247 C239 1.224 . S
H248 C280 0.929 . S
H249 C282 0.930 . S
H250 C283 0.930 . S
H251 C281 0.929 . S
H252 C284 0.928 . S
O253 Co237 2.057 . S
O253 C241 1.232 . S
H254 C273 0.929 1_655 S
H255 C274 0.929 . S
H256 C286 0.931 1_655 S
H257 C278 0.929 . S
H258 C287 0.930 . S
H259 C279 0.931 . S
O260 Co236 2.097 . S
O260 C288 1.214 . S
H261 C289 0.929 . S
H262 C290 0.929 . S
H263 C291 0.930 . S
H264 C292 0.929 . S
H265 C294 0.930 . S
H266 C271 0.930 . S
H267 C275 0.930 . S
O268 Co237 2.037 . S
O268 C288 1.234 . S
C269 O243 1.269 . S
C269 O244 1.257 . S
C270 H245 0.930 . S
C270 C273 1.388 1_655 S
C270 C275 1.418 . S
C271 H266 0.930 . S
C271 C274 1.404 . S
C271 C275 1.353 1_455 S
N272 Co237 2.145 . S
N272 C273 1.397 . S
N272 C274 1.334 . S
C273 H254 0.929 1_455 S
C273 C270 1.388 1_455 S
C273 N272 1.397 . S
C274 H255 0.929 . S
C274 C271 1.404 . S
C274 N272 1.334 . S
C275 H267 0.930 . S
C275 C270 1.418 . S
C275 C271 1.353 1_655 S
C276 H246 0.930 . S
C276 N277 1.330 . S
C276 C278 1.446 . S
N277 Co236 2.151 . S
N277 C276 1.330 . S
N277 C281 1.418 . S
C278 H257 0.929 . S
C278 C276 1.446 . S
C278 C279 1.332 . S
C279 H259 0.931 . S
C279 C278 1.332 . S
C279 C280 1.267 . S
C280 H248 0.929 . S
C280 C279 1.267 . S
C280 C281 1.251 . S
C281 H251 0.929 . S
C281 N277 1.418 . S
C281 C280 1.251 . S
C282 H249 0.930 . S
C282 C284 1.406 . S
C282 C287 1.261 . S
C283 H250 0.930 . S
C283 N285 1.325 . S
C283 C286 1.357 . S
C284 H252 0.928 . S
C284 C282 1.406 . S
C284 N285 1.261 . S
N285 Co236 2.214 . S
N285 C283 1.325 . S
N285 C284 1.261 . S
C286 H256 0.931 1_455 S
C286 C283 1.357 . S
C286 C287 1.312 . S
C287 H258 0.930 . S
C287 C282 1.261 . S
C287 C286 1.312 . S
C288 O260 1.214 . S
C288 O268 1.234 . S
C289 H261 0.929 . S
C289 C292 1.391 . S
C289 C294 1.391 . S
C290 H262 0.929 . S
C290 C291 1.390 . S
C290 N293 1.391 . S
C291 H263 0.930 . S
C291 C290 1.390 . S
C291 C292 1.392 . S
C292 H264 0.929 . S
C292 C289 1.391 . S
C292 C291 1.392 . S
N293 Co237 2.257 . S
N293 C290 1.391 . S
N293 C294 1.388 . S
C294 H265 0.930 . S
C294 C289 1.391 . S
C294 N293 1.388 . S
Co295 O297 2.143 . S
Co295 O303 2.074 . S
Co295 O306 2.093 . S
Co295 O319 2.097 . S
Co295 N336 2.151 . S
Co295 N344 2.214 . S
Co296 O297 2.160 . S
Co296 O302 2.058 . S
Co296 O312 2.057 . S
Co296 O327 2.037 . S
Co296 N331 2.145 . S
Co296 N352 2.257 . S
O297 Co295 2.143 . S
O297 Co296 2.160 . S
C298 O299 1.278 . S
C298 O306 1.224 . S
O299 C298 1.278 . S
C300 O301 1.245 . S
C300 O312 1.232 . S
O301 C300 1.245 . S
O302 Co296 2.058 . S
O302 C328 1.269 . S
O303 Co295 2.074 . S
O303 C328 1.257 . S
H304 C329 0.930 . S
H305 C335 0.930 . S
O306 Co295 2.093 . S
O306 C298 1.224 . S
H307 C339 0.929 . S
H308 C341 0.930 . S
H309 C342 0.930 . S
H310 C340 0.929 . S
H311 C343 0.928 . S
O312 Co296 2.057 . S
O312 C300 1.232 . S
H313 C332 0.929 1_565 S
H314 C333 0.929 . S
H315 C345 0.931 1_565 S
H316 C337 0.929 . S
H317 C346 0.930 . S
H318 C338 0.931 . S
O319 Co295 2.097 . S
O319 C347 1.214 . S
H320 C348 0.929 . S
H321 C349 0.929 . S
H322 C350 0.930 . S
H323 C351 0.929 . S
H324 C353 0.930 . S
H325 C330 0.930 . S
H326 C334 0.930 . S
O327 Co296 2.037 . S
O327 C347 1.234 . S
C328 O302 1.269 . S
C328 O303 1.257 . S
C329 H304 0.930 . S
C329 C332 1.388 1_565 S
C329 C334 1.418 . S
C330 H325 0.930 . S
C330 C333 1.404 . S
C330 C334 1.353 1_545 S
N331 Co296 2.145 . S
N331 C332 1.397 . S
N331 C333 1.334 . S
C332 H313 0.929 1_545 S
C332 C329 1.388 1_545 S
C332 N331 1.397 . S
C333 H314 0.929 . S
C333 C330 1.404 . S
C333 N331 1.334 . S
C334 H326 0.930 . S
C334 C329 1.418 . S
C334 C330 1.353 1_565 S
C335 H305 0.930 . S
C335 N336 1.330 . S
C335 C337 1.446 . S
N336 Co295 2.151 . S
N336 C335 1.330 . S
N336 C340 1.418 . S
C337 H316 0.929 . S
C337 C335 1.446 . S
C337 C338 1.332 . S
C338 H318 0.931 . S
C338 C337 1.332 . S
C338 C339 1.267 . S
C339 H307 0.929 . S
C339 C338 1.267 . S
C339 C340 1.251 . S
C340 H310 0.929 . S
C340 N336 1.418 . S
C340 C339 1.251 . S
C341 H308 0.930 . S
C341 C343 1.406 . S
C341 C346 1.261 . S
C342 H309 0.930 . S
C342 N344 1.325 . S
C342 C345 1.357 . S
C343 H311 0.928 . S
C343 C341 1.406 . S
C343 N344 1.261 . S
N344 Co295 2.214 . S
N344 C342 1.325 . S
N344 C343 1.261 . S
C345 H315 0.931 1_545 S
C345 C342 1.357 . S
C345 C346 1.312 . S
C346 H317 0.930 . S
C346 C341 1.261 . S
C346 C345 1.312 . S
C347 O319 1.214 . S
C347 O327 1.234 . S
C348 H320 0.929 . S
C348 C351 1.391 . S
C348 C353 1.391 . S
C349 H321 0.929 . S
C349 C350 1.390 . S
C349 N352 1.391 . S
C350 H322 0.930 . S
C350 C349 1.390 . S
C350 C351 1.392 . S
C351 H323 0.929 . S
C351 C348 1.391 . S
C351 C350 1.392 . S
N352 Co296 2.257 . S
N352 C349 1.391 . S
N352 C353 1.388 . S
C353 H324 0.930 . S
C353 C348 1.391 . S
C353 N352 1.388 . S
Co354 O356 2.143 . S
Co354 O362 2.074 . S
Co354 O365 2.093 . S
Co354 O378 2.097 . S
Co354 N395 2.151 . S
Co354 N403 2.214 . S
Co355 O356 2.160 . S
Co355 O361 2.058 . S
Co355 O371 2.057 . S
Co355 O386 2.037 . S
Co355 N390 2.145 . S
Co355 N411 2.257 . S
O356 Co354 2.143 . S
O356 Co355 2.160 . S
C357 O358 1.278 . S
C357 O365 1.224 . S
O358 C357 1.278 . S
C359 O360 1.245 . S
C359 O371 1.232 . S
O360 C359 1.245 . S
O361 Co355 2.058 . S
O361 C387 1.269 . S
O362 Co354 2.074 . S
O362 C387 1.257 . S
H363 C388 0.930 . S
H364 C394 0.930 . S
O365 Co354 2.093 . S
O365 C357 1.224 . S
H366 C398 0.929 . S
H367 C400 0.930 . S
H368 C401 0.930 . S
H369 C399 0.929 . S
H370 C402 0.928 . S
O371 Co355 2.057 . S
O371 C359 1.232 . S
H372 C391 0.929 1_455 S
H373 C392 0.929 . S
H374 C404 0.931 1_455 S
H375 C396 0.929 . S
H376 C405 0.930 . S
H377 C397 0.931 . S
O378 Co354 2.097 . S
O378 C406 1.214 . S
H379 C407 0.929 . S
H380 C408 0.929 . S
H381 C409 0.930 . S
H382 C410 0.929 . S
H383 C412 0.930 . S
H384 C389 0.930 . S
H385 C393 0.930 . S
O386 Co355 2.037 . S
O386 C406 1.234 . S
C387 O361 1.269 . S
C387 O362 1.257 . S
C388 H363 0.930 . S
C388 C391 1.388 1_455 S
C388 C393 1.418 . S
C389 H384 0.930 . S
C389 C392 1.404 . S
C389 C393 1.353 1_655 S
N390 Co355 2.145 . S
N390 C391 1.397 . S
N390 C392 1.334 . S
C391 H372 0.929 1_655 S
C391 C388 1.388 1_655 S
C391 N390 1.397 . S
C392 H373 0.929 . S
C392 C389 1.404 . S
C392 N390 1.334 . S
C393 H385 0.930 . S
C393 C388 1.418 . S
C393 C389 1.353 1_455 S
C394 H364 0.930 . S
C394 N395 1.330 . S
C394 C396 1.446 . S
N395 Co354 2.151 . S
N395 C394 1.330 . S
N395 C399 1.418 . S
C396 H375 0.929 . S
C396 C394 1.446 . S
C396 C397 1.332 . S
C397 H377 0.931 . S
C397 C396 1.332 . S
C397 C398 1.267 . S
C398 H366 0.929 . S
C398 C397 1.267 . S
C398 C399 1.251 . S
C399 H369 0.929 . S
C399 N395 1.418 . S
C399 C398 1.251 . S
C400 H367 0.930 . S
C400 C402 1.406 . S
C400 C405 1.261 . S
C401 H368 0.930 . S
C401 N403 1.325 . S
C401 C404 1.357 . S
C402 H370 0.928 . S
C402 C400 1.406 . S
C402 N403 1.261 . S
N403 Co354 2.214 . S
N403 C401 1.325 . S
N403 C402 1.261 . S
C404 H374 0.931 1_655 S
C404 C401 1.357 . S
C404 C405 1.312 . S
C405 H376 0.930 . S
C405 C400 1.261 . S
C405 C404 1.312 . S
C406 O378 1.214 . S
C406 O386 1.234 . S
C407 H379 0.929 . S
C407 C410 1.391 . S
C407 C412 1.391 . S
C408 H380 0.929 . S
C408 C409 1.390 . S
C408 N411 1.391 . S
C409 H381 0.930 . S
C409 C408 1.390 . S
C409 C410 1.392 . S
C410 H382 0.929 . S
C410 C407 1.391 . S
C410 C409 1.392 . S
N411 Co355 2.257 . S
N411 C408 1.391 . S
N411 C412 1.388 . S
C412 H383 0.930 . S
C412 C407 1.391 . S
C412 N411 1.388 . S
Co413 O415 2.143 . S
Co413 O421 2.074 . S
Co413 O424 2.093 . S
Co413 O437 2.097 . S
Co413 N454 2.151 . S
Co413 N462 2.214 . S
Co414 O415 2.160 . S
Co414 O420 2.058 . S
Co414 O430 2.057 . S
Co414 O445 2.037 . S
Co414 N449 2.145 . S
Co414 N470 2.257 . S
O415 Co413 2.143 . S
O415 Co414 2.160 . S
C416 O417 1.278 . S
C416 O424 1.224 . S
O417 C416 1.278 . S
C418 O419 1.245 . S
C418 O430 1.232 . S
O419 C418 1.245 . S
O420 Co414 2.058 . S
O420 C446 1.269 . S
O421 Co413 2.074 . S
O421 C446 1.257 . S
H422 C447 0.930 . S
H423 C453 0.930 . S
O424 Co413 2.093 . S
O424 C416 1.224 . S
H425 C457 0.929 . S
H426 C459 0.930 . S
H427 C460 0.930 . S
H428 C458 0.929 . S
H429 C461 0.928 . S
O430 Co414 2.057 . S
O430 C418 1.232 . S
H431 C450 0.929 1_545 S
H432 C451 0.929 . S
H433 C463 0.931 1_545 S
H434 C455 0.929 . S
H435 C464 0.930 . S
H436 C456 0.931 . S
O437 Co413 2.097 . S
O437 C465 1.214 . S
H438 C466 0.929 . S
H439 C467 0.929 . S
H440 C468 0.930 . S
H441 C469 0.929 . S
H442 C471 0.930 . S
H443 C448 0.930 . S
H444 C452 0.930 . S
O445 Co414 2.037 . S
O445 C465 1.234 . S
C446 O420 1.269 . S
C446 O421 1.257 . S
C447 H422 0.930 . S
C447 C450 1.388 1_545 S
C447 C452 1.418 . S
C448 H443 0.930 . S
C448 C451 1.404 . S
C448 C452 1.353 1_565 S
N449 Co414 2.145 . S
N449 C450 1.397 . S
N449 C451 1.334 . S
C450 H431 0.929 1_565 S
C450 C447 1.388 1_565 S
C450 N449 1.397 . S
C451 H432 0.929 . S
C451 C448 1.404 . S
C451 N449 1.334 . S
C452 H444 0.930 . S
C452 C447 1.418 . S
C452 C448 1.353 1_545 S
C453 H423 0.930 . S
C453 N454 1.330 . S
C453 C455 1.446 . S
N454 Co413 2.151 . S
N454 C453 1.330 . S
N454 C458 1.418 . S
C455 H434 0.929 . S
C455 C453 1.446 . S
C455 C456 1.332 . S
C456 H436 0.931 . S
C456 C455 1.332 . S
C456 C457 1.267 . S
C457 H425 0.929 . S
C457 C456 1.267 . S
C457 C458 1.251 . S
C458 H428 0.929 . S
C458 N454 1.418 . S
C458 C457 1.251 . S
C459 H426 0.930 . S
C459 C461 1.406 . S
C459 C464 1.261 . S
C460 H427 0.930 . S
C460 N462 1.325 . S
C460 C463 1.357 . S
C461 H429 0.928 . S
C461 C459 1.406 . S
C461 N462 1.261 . S
N462 Co413 2.214 . S
N462 C460 1.325 . S
N462 C461 1.261 . S
C463 H433 0.931 1_565 S
C463 C460 1.357 . S
C463 C464 1.312 . S
C464 H435 0.930 . S
C464 C459 1.261 . S
C464 C463 1.312 . S
C465 O437 1.214 . S
C465 O445 1.234 . S
C466 H438 0.929 . S
C466 C469 1.391 . S
C466 C471 1.391 . S
C467 H439 0.929 . S
C467 C468 1.390 . S
C467 N470 1.391 . S
C468 H440 0.930 . S
C468 C467 1.390 . S
C468 C469 1.392 . S
C469 H441 0.929 . S
C469 C466 1.391 . S
C469 C468 1.392 . S
N470 Co414 2.257 . S
N470 C467 1.391 . S
N470 C471 1.388 . S
C471 H442 0.930 . S
C471 C466 1.391 . S
C471 N470 1.388 . S
Co472 O474 2.143 . S
Co472 O480 2.074 . S
Co472 O483 2.093 . S
Co472 O496 2.097 . S
Co472 N513 2.151 . S
Co472 N521 2.214 . S
Co473 O474 2.160 . S
Co473 O479 2.058 . S
Co473 O489 2.057 . S
Co473 O504 2.037 . S
Co473 N508 2.145 . S
Co473 N529 2.257 . S
O474 Co472 2.143 . S
O474 Co473 2.160 . S
C475 O476 1.278 . S
C475 O483 1.224 . S
O476 C475 1.278 . S
C477 O478 1.245 . S
C477 O489 1.232 . S
O478 C477 1.245 . S
O479 Co473 2.058 . S
O479 C505 1.269 . S
O480 Co472 2.074 . S
O480 C505 1.257 . S
H481 C506 0.930 . S
H482 C512 0.930 . S
O483 Co472 2.093 . S
O483 C475 1.224 . S
H484 C516 0.929 . S
H485 C518 0.930 . S
H486 C519 0.930 . S
H487 C517 0.929 . S
H488 C520 0.928 . S
O489 Co473 2.057 . S
O489 C477 1.232 . S
H490 C509 0.929 . S
H491 C510 0.929 . S
H492 C522 0.931 . S
H493 C514 0.929 . S
H494 C523 0.930 . S
H495 C515 0.931 . S
O496 Co472 2.097 . S
O496 C524 1.214 . S
H497 C525 0.929 . S
H498 C526 0.929 . S
H499 C527 0.930 . S
H500 C528 0.929 . S
H501 C530 0.930 . S
H502 C507 0.930 . S
H503 C511 0.930 . S
O504 Co473 2.037 . S
O504 C524 1.234 . S
C505 O479 1.269 . S
C505 O480 1.257 . S
C506 H481 0.930 . S
C506 C509 1.388 . S
C506 C511 1.418 . S
C507 H502 0.930 . S
C507 C510 1.404 . S
C507 C511 1.353 . S
N508 Co473 2.145 . S
N508 C509 1.397 . S
N508 C510 1.334 . S
C509 H490 0.929 . S
C509 C506 1.388 . S
C509 N508 1.397 . S
C510 H491 0.929 . S
C510 C507 1.404 . S
C510 N508 1.334 . S
C511 H503 0.930 . S
C511 C506 1.418 . S
C511 C507 1.353 . S
C512 H482 0.930 . S
C512 N513 1.330 . S
C512 C514 1.446 . S
N513 Co472 2.151 . S
N513 C512 1.330 . S
N513 C517 1.418 . S
C514 H493 0.929 . S
C514 C512 1.446 . S
C514 C515 1.332 . S
C515 H495 0.931 . S
C515 C514 1.332 . S
C515 C516 1.267 . S
C516 H484 0.929 . S
C516 C515 1.267 . S
C516 C517 1.251 . S
C517 H487 0.929 . S
C517 N513 1.418 . S
C517 C516 1.251 . S
C518 H485 0.930 . S
C518 C520 1.406 . S
C518 C523 1.261 . S
C519 H486 0.930 . S
C519 N521 1.325 . S
C519 C522 1.357 . S
C520 H488 0.928 . S
C520 C518 1.406 . S
C520 N521 1.261 . S
N521 Co472 2.214 . S
N521 C519 1.325 . S
N521 C520 1.261 . S
C522 H492 0.931 . S
C522 C519 1.357 . S
C522 C523 1.312 . S
C523 H494 0.930 . S
C523 C518 1.261 . S
C523 C522 1.312 . S
C524 O496 1.214 . S
C524 O504 1.234 . S
C525 H497 0.929 . S
C525 C528 1.391 . S
C525 C530 1.391 . S
C526 H498 0.929 . S
C526 C527 1.390 . S
C526 N529 1.391 . S
C527 H499 0.930 . S
C527 C526 1.390 . S
C527 C528 1.392 . S
C528 H500 0.929 . S
C528 C525 1.391 . S
C528 C527 1.392 . S
N529 Co473 2.257 . S
N529 C526 1.391 . S
N529 C530 1.388 . S
C530 H501 0.930 . S
C530 C525 1.391 . S
C530 N529 1.388 . S
Co531 O533 2.143 . S
Co531 O539 2.074 . S
Co531 O542 2.093 . S
Co531 O555 2.097 . S
Co531 N572 2.151 . S
Co531 N580 2.214 . S
Co532 O533 2.160 . S
Co532 O538 2.058 . S
Co532 O548 2.057 . S
Co532 O563 2.037 . S
Co532 N567 2.145 . S
Co532 N588 2.257 . S
O533 Co531 2.143 . S
O533 Co532 2.160 . S
C534 O535 1.278 . S
C534 O542 1.224 . S
O535 C534 1.278 . S
C536 O537 1.245 . S
C536 O548 1.232 . S
O537 C536 1.245 . S
O538 Co532 2.058 . S
O538 C564 1.269 . S
O539 Co531 2.074 . S
O539 C564 1.257 . S
H540 C565 0.930 . S
H541 C571 0.930 . S
O542 Co531 2.093 . S
O542 C534 1.224 . S
H543 C575 0.929 . S
H544 C577 0.930 . S
H545 C578 0.930 . S
H546 C576 0.929 . S
H547 C579 0.928 . S
O548 Co532 2.057 . S
O548 C536 1.232 . S
H549 C568 0.929 . S
H550 C569 0.929 . S
H551 C581 0.931 . S
H552 C573 0.929 . S
H553 C582 0.930 . S
H554 C574 0.931 . S
O555 Co531 2.097 . S
O555 C583 1.214 . S
H556 C584 0.929 . S
H557 C585 0.929 . S
H558 C586 0.930 . S
H559 C587 0.929 . S
H560 C589 0.930 . S
H561 C566 0.930 . S
H562 C570 0.930 . S
O563 Co532 2.037 . S
O563 C583 1.234 . S
C564 O538 1.269 . S
C564 O539 1.257 . S
C565 H540 0.930 . S
C565 C568 1.388 . S
C565 C570 1.418 . S
C566 H561 0.930 . S
C566 C569 1.404 . S
C566 C570 1.353 . S
N567 Co532 2.145 . S
N567 C568 1.397 . S
N567 C569 1.334 . S
C568 H549 0.929 . S
C568 C565 1.388 . S
C568 N567 1.397 . S
C569 H550 0.929 . S
C569 C566 1.404 . S
C569 N567 1.334 . S
C570 H562 0.930 . S
C570 C565 1.418 . S
C570 C566 1.353 . S
C571 H541 0.930 . S
C571 N572 1.330 . S
C571 C573 1.446 . S
N572 Co531 2.151 . S
N572 C571 1.330 . S
N572 C576 1.418 . S
C573 H552 0.929 . S
C573 C571 1.446 . S
C573 C574 1.332 . S
C574 H554 0.931 . S
C574 C573 1.332 . S
C574 C575 1.267 . S
C575 H543 0.929 . S
C575 C574 1.267 . S
C575 C576 1.251 . S
C576 H546 0.929 . S
C576 N572 1.418 . S
C576 C575 1.251 . S
C577 H544 0.930 . S
C577 C579 1.406 . S
C577 C582 1.261 . S
C578 H545 0.930 . S
C578 N580 1.325 . S
C578 C581 1.357 . S
C579 H547 0.928 . S
C579 C577 1.406 . S
C579 N580 1.261 . S
N580 Co531 2.214 . S
N580 C578 1.325 . S
N580 C579 1.261 . S
C581 H551 0.931 . S
C581 C578 1.357 . S
C581 C582 1.312 . S
C582 H553 0.930 . S
C582 C577 1.261 . S
C582 C581 1.312 . S
C583 O555 1.214 . S
C583 O563 1.234 . S
C584 H556 0.929 . S
C584 C587 1.391 . S
C584 C589 1.391 . S
C585 H557 0.929 . S
C585 C586 1.390 . S
C585 N588 1.391 . S
C586 H558 0.930 . S
C586 C585 1.390 . S
C586 C587 1.392 . S
C587 H559 0.929 . S
C587 C584 1.391 . S
C587 C586 1.392 . S
N588 Co532 2.257 . S
N588 C585 1.391 . S
N588 C589 1.388 . S
C589 H560 0.930 . S
C589 C584 1.391 . S
C589 N588 1.388 . S
Co590 O592 2.143 . S
Co590 O598 2.074 . S
Co590 O601 2.093 . S
Co590 O614 2.097 . S
Co590 N631 2.151 . S
Co590 N639 2.214 . S
Co591 O592 2.160 . S
Co591 O597 2.058 . S
Co591 O607 2.057 . S
Co591 O622 2.037 . S
Co591 N626 2.145 . S
Co591 N647 2.257 . S
O592 Co590 2.143 . S
O592 Co591 2.160 . S
C593 O594 1.278 . S
C593 O601 1.224 . S
O594 C593 1.278 . S
C595 O596 1.245 . S
C595 O607 1.232 . S
O596 C595 1.245 . S
O597 Co591 2.058 . S
O597 C623 1.269 . S
O598 Co590 2.074 . S
O598 C623 1.257 . S
H599 C624 0.930 . S
H600 C630 0.930 . S
O601 Co590 2.093 . S
O601 C593 1.224 . S
H602 C634 0.929 . S
H603 C636 0.930 . S
H604 C637 0.930 . S
H605 C635 0.929 . S
H606 C638 0.928 . S
O607 Co591 2.057 . S
O607 C595 1.232 . S
H608 C627 0.929 . S
H609 C628 0.929 . S
H610 C640 0.931 . S
H611 C632 0.929 . S
H612 C641 0.930 . S
H613 C633 0.931 . S
O614 Co590 2.097 . S
O614 C642 1.214 . S
H615 C643 0.929 . S
H616 C644 0.929 . S
H617 C645 0.930 . S
H618 C646 0.929 . S
H619 C648 0.930 . S
H620 C625 0.930 . S
H621 C629 0.930 . S
O622 Co591 2.037 . S
O622 C642 1.234 . S
C623 O597 1.269 . S
C623 O598 1.257 . S
C624 H599 0.930 . S
C624 C627 1.388 . S
C624 C629 1.418 . S
C625 H620 0.930 . S
C625 C628 1.404 . S
C625 C629 1.353 . S
N626 Co591 2.145 . S
N626 C627 1.397 . S
N626 C628 1.334 . S
C627 H608 0.929 . S
C627 C624 1.388 . S
C627 N626 1.397 . S
C628 H609 0.929 . S
C628 C625 1.404 . S
C628 N626 1.334 . S
C629 H621 0.930 . S
C629 C624 1.418 . S
C629 C625 1.353 . S
C630 H600 0.930 . S
C630 N631 1.330 . S
C630 C632 1.446 . S
N631 Co590 2.151 . S
N631 C630 1.330 . S
N631 C635 1.418 . S
C632 H611 0.929 . S
C632 C630 1.446 . S
C632 C633 1.332 . S
C633 H613 0.931 . S
C633 C632 1.332 . S
C633 C634 1.267 . S
C634 H602 0.929 . S
C634 C633 1.267 . S
C634 C635 1.251 . S
C635 H605 0.929 . S
C635 N631 1.418 . S
C635 C634 1.251 . S
C636 H603 0.930 . S
C636 C638 1.406 . S
C636 C641 1.261 . S
C637 H604 0.930 . S
C637 N639 1.325 . S
C637 C640 1.357 . S
C638 H606 0.928 . S
C638 C636 1.406 . S
C638 N639 1.261 . S
N639 Co590 2.214 . S
N639 C637 1.325 . S
N639 C638 1.261 . S
C640 H610 0.931 . S
C640 C637 1.357 . S
C640 C641 1.312 . S
C641 H612 0.930 . S
C641 C636 1.261 . S
C641 C640 1.312 . S
C642 O614 1.214 . S
C642 O622 1.234 . S
C643 H615 0.929 . S
C643 C646 1.391 . S
C643 C648 1.391 . S
C644 H616 0.929 . S
C644 C645 1.390 . S
C644 N647 1.391 . S
C645 H617 0.930 . S
C645 C644 1.390 . S
C645 C646 1.392 . S
C646 H618 0.929 . S
C646 C643 1.391 . S
C646 C645 1.392 . S
N647 Co591 2.257 . S
N647 C644 1.391 . S
N647 C648 1.388 . S
C648 H619 0.930 . S
C648 C643 1.391 . S
C648 N647 1.388 . S
Co649 O651 2.143 . S
Co649 O657 2.074 . S
Co649 O660 2.093 . S
Co649 O673 2.097 . S
Co649 N690 2.151 . S
Co649 N698 2.214 . S
Co650 O651 2.160 . S
Co650 O656 2.058 . S
Co650 O666 2.057 . S
Co650 O681 2.037 . S
Co650 N685 2.145 . S
Co650 N706 2.257 . S
O651 Co649 2.143 . S
O651 Co650 2.160 . S
C652 O653 1.278 . S
C652 O660 1.224 . S
O653 C652 1.278 . S
C654 O655 1.245 . S
C654 O666 1.232 . S
O655 C654 1.245 . S
O656 Co650 2.058 . S
O656 C682 1.269 . S
O657 Co649 2.074 . S
O657 C682 1.257 . S
H658 C683 0.930 . S
H659 C689 0.930 . S
O660 Co649 2.093 . S
O660 C652 1.224 . S
H661 C693 0.929 . S
H662 C695 0.930 . S
H663 C696 0.930 . S
H664 C694 0.929 . S
H665 C697 0.928 . S
O666 Co650 2.057 . S
O666 C654 1.232 . S
H667 C686 0.929 . S
H668 C687 0.929 . S
H669 C699 0.931 . S
H670 C691 0.929 . S
H671 C700 0.930 . S
H672 C692 0.931 . S
O673 Co649 2.097 . S
O673 C701 1.214 . S
H674 C702 0.929 . S
H675 C703 0.929 . S
H676 C704 0.930 . S
H677 C705 0.929 . S
H678 C707 0.930 . S
H679 C684 0.930 . S
H680 C688 0.930 . S
O681 Co650 2.037 . S
O681 C701 1.234 . S
C682 O656 1.269 . S
C682 O657 1.257 . S
C683 H658 0.930 . S
C683 C686 1.388 . S
C683 C688 1.418 . S
C684 H679 0.930 . S
C684 C687 1.404 . S
C684 C688 1.353 . S
N685 Co650 2.145 . S
N685 C686 1.397 . S
N685 C687 1.334 . S
C686 H667 0.929 . S
C686 C683 1.388 . S
C686 N685 1.397 . S
C687 H668 0.929 . S
C687 C684 1.404 . S
C687 N685 1.334 . S
C688 H680 0.930 . S
C688 C683 1.418 . S
C688 C684 1.353 . S
C689 H659 0.930 . S
C689 N690 1.330 . S
C689 C691 1.446 . S
N690 Co649 2.151 . S
N690 C689 1.330 . S
N690 C694 1.418 . S
C691 H670 0.929 . S
C691 C689 1.446 . S
C691 C692 1.332 . S
C692 H672 0.931 . S
C692 C691 1.332 . S
C692 C693 1.267 . S
C693 H661 0.929 . S
C693 C692 1.267 . S
C693 C694 1.251 . S
C694 H664 0.929 . S
C694 N690 1.418 . S
C694 C693 1.251 . S
C695 H662 0.930 . S
C695 C697 1.406 . S
C695 C700 1.261 . S
C696 H663 0.930 . S
C696 N698 1.325 . S
C696 C699 1.357 . S
C697 H665 0.928 . S
C697 C695 1.406 . S
C697 N698 1.261 . S
N698 Co649 2.214 . S
N698 C696 1.325 . S
N698 C697 1.261 . S
C699 H669 0.931 . S
C699 C696 1.357 . S
C699 C700 1.312 . S
C700 H671 0.930 . S
C700 C695 1.261 . S
C700 C699 1.312 . S
C701 O673 1.214 . S
C701 O681 1.234 . S
C702 H674 0.929 . S
C702 C705 1.391 . S
C702 C707 1.391 . S
C703 H675 0.929 . S
C703 C704 1.390 . S
C703 N706 1.391 . S
C704 H676 0.930 . S
C704 C703 1.390 . S
C704 C705 1.392 . S
C705 H677 0.929 . S
C705 C702 1.391 . S
C705 C704 1.392 . S
N706 Co650 2.257 . S
N706 C703 1.391 . S
N706 C707 1.388 . S
C707 H678 0.930 . S
C707 C702 1.391 . S
C707 N706 1.388 . S
Co708 O710 2.143 . S
Co708 O716 2.074 . S
Co708 O719 2.093 . S
Co708 O732 2.097 . S
Co708 N749 2.151 . S
Co708 N757 2.214 . S
Co709 O710 2.160 . S
Co709 O715 2.058 . S
Co709 O725 2.057 . S
Co709 O740 2.037 . S
Co709 N744 2.145 . S
Co709 N765 2.257 . S
O710 Co708 2.143 . S
O710 Co709 2.160 . S
C711 O712 1.278 . S
C711 O719 1.224 . S
O712 C711 1.278 . S
C713 O714 1.245 . S
C713 O725 1.232 . S
O714 C713 1.245 . S
O715 Co709 2.058 . S
O715 C741 1.269 . S
O716 Co708 2.074 . S
O716 C741 1.257 . S
H717 C742 0.930 . S
H718 C748 0.930 . S
O719 Co708 2.093 . S
O719 C711 1.224 . S
H720 C752 0.929 . S
H721 C754 0.930 . S
H722 C755 0.930 . S
H723 C753 0.929 . S
H724 C756 0.928 . S
O725 Co709 2.057 . S
O725 C713 1.232 . S
H726 C745 0.929 . S
H727 C746 0.929 . S
H728 C758 0.931 . S
H729 C750 0.929 . S
H730 C759 0.930 . S
H731 C751 0.931 . S
O732 Co708 2.097 . S
O732 C760 1.214 . S
H733 C761 0.929 . S
H734 C762 0.929 . S
H735 C763 0.930 . S
H736 C764 0.929 . S
H737 C766 0.930 . S
H738 C743 0.930 . S
H739 C747 0.930 . S
O740 Co709 2.037 . S
O740 C760 1.234 . S
C741 O715 1.269 . S
C741 O716 1.257 . S
C742 H717 0.930 . S
C742 C745 1.388 . S
C742 C747 1.418 . S
C743 H738 0.930 . S
C743 C746 1.404 . S
C743 C747 1.353 . S
N744 Co709 2.145 . S
N744 C745 1.397 . S
N744 C746 1.334 . S
C745 H726 0.929 . S
C745 C742 1.388 . S
C745 N744 1.397 . S
C746 H727 0.929 . S
C746 C743 1.404 . S
C746 N744 1.334 . S
C747 H739 0.930 . S
C747 C742 1.418 . S
C747 C743 1.353 . S
C748 H718 0.930 . S
C748 N749 1.330 . S
C748 C750 1.446 . S
N749 Co708 2.151 . S
N749 C748 1.330 . S
N749 C753 1.418 . S
C750 H729 0.929 . S
C750 C748 1.446 . S
C750 C751 1.332 . S
C751 H731 0.931 . S
C751 C750 1.332 . S
C751 C752 1.267 . S
C752 H720 0.929 . S
C752 C751 1.267 . S
C752 C753 1.251 . S
C753 H723 0.929 . S
C753 N749 1.418 . S
C753 C752 1.251 . S
C754 H721 0.930 . S
C754 C756 1.406 . S
C754 C759 1.261 . S
C755 H722 0.930 . S
C755 N757 1.325 . S
C755 C758 1.357 . S
C756 H724 0.928 . S
C756 C754 1.406 . S
C756 N757 1.261 . S
N757 Co708 2.214 . S
N757 C755 1.325 . S
N757 C756 1.261 . S
C758 H728 0.931 . S
C758 C755 1.357 . S
C758 C759 1.312 . S
C759 H730 0.930 . S
C759 C754 1.261 . S
C759 C758 1.312 . S
C760 O732 1.214 . S
C760 O740 1.234 . S
C761 H733 0.929 . S
C761 C764 1.391 . S
C761 C766 1.391 . S
C762 H734 0.929 . S
C762 C763 1.390 . S
C762 N765 1.391 . S
C763 H735 0.930 . S
C763 C762 1.390 . S
C763 C764 1.392 . S
C764 H736 0.929 . S
C764 C761 1.391 . S
C764 C763 1.392 . S
N765 Co709 2.257 . S
N765 C762 1.391 . S
N765 C766 1.388 . S
C766 H737 0.930 . S
C766 C761 1.391 . S
C766 N765 1.388 . S
Co767 O769 2.143 . S
Co767 O775 2.074 . S
Co767 O778 2.093 . S
Co767 O791 2.097 . S
Co767 N808 2.151 . S
Co767 N816 2.214 . S
Co768 O769 2.160 . S
Co768 O774 2.058 . S
Co768 O784 2.057 . S
Co768 O799 2.037 . S
Co768 N803 2.145 . S
Co768 N824 2.257 . S
O769 Co767 2.143 . S
O769 Co768 2.160 . S
C770 O771 1.278 . S
C770 O778 1.224 . S
O771 C770 1.278 . S
C772 O773 1.245 . S
C772 O784 1.232 . S
O773 C772 1.245 . S
O774 Co768 2.058 . S
O774 C800 1.269 . S
O775 Co767 2.074 . S
O775 C800 1.257 . S
H776 C801 0.930 . S
H777 C807 0.930 . S
O778 Co767 2.093 . S
O778 C770 1.224 . S
H779 C811 0.929 . S
H780 C813 0.930 . S
H781 C814 0.930 . S
H782 C812 0.929 . S
H783 C815 0.928 . S
O784 Co768 2.057 . S
O784 C772 1.232 . S
H785 C804 0.929 . S
H786 C805 0.929 . S
H787 C817 0.931 . S
H788 C809 0.929 . S
H789 C818 0.930 . S
H790 C810 0.931 . S
O791 Co767 2.097 . S
O791 C819 1.214 . S
H792 C820 0.929 . S
H793 C821 0.929 . S
H794 C822 0.930 . S
H795 C823 0.929 . S
H796 C825 0.930 . S
H797 C802 0.930 . S
H798 C806 0.930 . S
O799 Co768 2.037 . S
O799 C819 1.234 . S
C800 O774 1.269 . S
C800 O775 1.257 . S
C801 H776 0.930 . S
C801 C804 1.388 . S
C801 C806 1.418 . S
C802 H797 0.930 . S
C802 C805 1.404 . S
C802 C806 1.353 . S
N803 Co768 2.145 . S
N803 C804 1.397 . S
N803 C805 1.334 . S
C804 H785 0.929 . S
C804 C801 1.388 . S
C804 N803 1.397 . S
C805 H786 0.929 . S
C805 C802 1.404 . S
C805 N803 1.334 . S
C806 H798 0.930 . S
C806 C801 1.418 . S
C806 C802 1.353 . S
C807 H777 0.930 . S
C807 N808 1.330 . S
C807 C809 1.446 . S
N808 Co767 2.151 . S
N808 C807 1.330 . S
N808 C812 1.418 . S
C809 H788 0.929 . S
C809 C807 1.446 . S
C809 C810 1.332 . S
C810 H790 0.931 . S
C810 C809 1.332 . S
C810 C811 1.267 . S
C811 H779 0.929 . S
C811 C810 1.267 . S
C811 C812 1.251 . S
C812 H782 0.929 . S
C812 N808 1.418 . S
C812 C811 1.251 . S
C813 H780 0.930 . S
C813 C815 1.406 . S
C813 C818 1.261 . S
C814 H781 0.930 . S
C814 N816 1.325 . S
C814 C817 1.357 . S
C815 H783 0.928 . S
C815 C813 1.406 . S
C815 N816 1.261 . S
N816 Co767 2.214 . S
N816 C814 1.325 . S
N816 C815 1.261 . S
C817 H787 0.931 . S
C817 C814 1.357 . S
C817 C818 1.312 . S
C818 H789 0.930 . S
C818 C813 1.261 . S
C818 C817 1.312 . S
C819 O791 1.214 . S
C819 O799 1.234 . S
C820 H792 0.929 . S
C820 C823 1.391 . S
C820 C825 1.391 . S
C821 H793 0.929 . S
C821 C822 1.390 . S
C821 N824 1.391 . S
C822 H794 0.930 . S
C822 C821 1.390 . S
C822 C823 1.392 . S
C823 H795 0.929 . S
C823 C820 1.391 . S
C823 C822 1.392 . S
N824 Co768 2.257 . S
N824 C821 1.391 . S
N824 C825 1.388 . S
C825 H796 0.930 . S
C825 C820 1.391 . S
C825 N824 1.388 . S
Co826 O828 2.143 . S
Co826 O834 2.074 . S
Co826 O837 2.093 . S
Co826 O850 2.097 . S
Co826 N867 2.151 . S
Co826 N875 2.214 . S
Co827 O828 2.160 . S
Co827 O833 2.058 . S
Co827 O843 2.057 . S
Co827 O858 2.037 . S
Co827 N862 2.145 . S
Co827 N883 2.257 . S
O828 Co826 2.143 . S
O828 Co827 2.160 . S
C829 O830 1.278 . S
C829 O837 1.224 . S
O830 C829 1.278 . S
C831 O832 1.245 . S
C831 O843 1.232 . S
O832 C831 1.245 . S
O833 Co827 2.058 . S
O833 C859 1.269 . S
O834 Co826 2.074 . S
O834 C859 1.257 . S
H835 C860 0.930 . S
H836 C866 0.930 . S
O837 Co826 2.093 . S
O837 C829 1.224 . S
H838 C870 0.929 . S
H839 C872 0.930 . S
H840 C873 0.930 . S
H841 C871 0.929 . S
H842 C874 0.928 . S
O843 Co827 2.057 . S
O843 C831 1.232 . S
H844 C863 0.929 . S
H845 C864 0.929 . S
H846 C876 0.931 . S
H847 C868 0.929 . S
H848 C877 0.930 . S
H849 C869 0.931 . S
O850 Co826 2.097 . S
O850 C878 1.214 . S
H851 C879 0.929 . S
H852 C880 0.929 . S
H853 C881 0.930 . S
H854 C882 0.929 . S
H855 C884 0.930 . S
H856 C861 0.930 . S
H857 C865 0.930 . S
O858 Co827 2.037 . S
O858 C878 1.234 . S
C859 O833 1.269 . S
C859 O834 1.257 . S
C860 H835 0.930 . S
C860 C863 1.388 . S
C860 C865 1.418 . S
C861 H856 0.930 . S
C861 C864 1.404 . S
C861 C865 1.353 . S
N862 Co827 2.145 . S
N862 C863 1.397 . S
N862 C864 1.334 . S
C863 H844 0.929 . S
C863 C860 1.388 . S
C863 N862 1.397 . S
C864 H845 0.929 . S
C864 C861 1.404 . S
C864 N862 1.334 . S
C865 H857 0.930 . S
C865 C860 1.418 . S
C865 C861 1.353 . S
C866 H836 0.930 . S
C866 N867 1.330 . S
C866 C868 1.446 . S
N867 Co826 2.151 . S
N867 C866 1.330 . S
N867 C871 1.418 . S
C868 H847 0.929 . S
C868 C866 1.446 . S
C868 C869 1.332 . S
C869 H849 0.931 . S
C869 C868 1.332 . S
C869 C870 1.267 . S
C870 H838 0.929 . S
C870 C869 1.267 . S
C870 C871 1.251 . S
C871 H841 0.929 . S
C871 N867 1.418 . S
C871 C870 1.251 . S
C872 H839 0.930 . S
C872 C874 1.406 . S
C872 C877 1.261 . S
C873 H840 0.930 . S
C873 N875 1.325 . S
C873 C876 1.357 . S
C874 H842 0.928 . S
C874 C872 1.406 . S
C874 N875 1.261 . S
N875 Co826 2.214 . S
N875 C873 1.325 . S
N875 C874 1.261 . S
C876 H846 0.931 . S
C876 C873 1.357 . S
C876 C877 1.312 . S
C877 H848 0.930 . S
C877 C872 1.261 . S
C877 C876 1.312 . S
C878 O850 1.214 . S
C878 O858 1.234 . S
C879 H851 0.929 . S
C879 C882 1.391 . S
C879 C884 1.391 . S
C880 H852 0.929 . S
C880 C881 1.390 . S
C880 N883 1.391 . S
C881 H853 0.930 . S
C881 C880 1.390 . S
C881 C882 1.392 . S
C882 H854 0.929 . S
C882 C879 1.391 . S
C882 C881 1.392 . S
N883 Co827 2.257 . S
N883 C880 1.391 . S
N883 C884 1.388 . S
C884 H855 0.930 . S
C884 C879 1.391 . S
C884 N883 1.388 . S
Co885 O887 2.143 . S
Co885 O893 2.074 . S
Co885 O896 2.093 . S
Co885 O909 2.097 . S
Co885 N926 2.151 . S
Co885 N934 2.214 . S
Co886 O887 2.160 . S
Co886 O892 2.058 . S
Co886 O902 2.057 . S
Co886 O917 2.037 . S
Co886 N921 2.145 . S
Co886 N942 2.257 . S
O887 Co885 2.143 . S
O887 Co886 2.160 . S
C888 O889 1.278 . S
C888 O896 1.224 . S
O889 C888 1.278 . S
C890 O891 1.245 . S
C890 O902 1.232 . S
O891 C890 1.245 . S
O892 Co886 2.058 . S
O892 C918 1.269 . S
O893 Co885 2.074 . S
O893 C918 1.257 . S
H894 C919 0.930 . S
H895 C925 0.930 . S
O896 Co885 2.093 . S
O896 C888 1.224 . S
H897 C929 0.929 . S
H898 C931 0.930 . S
H899 C932 0.930 . S
H900 C930 0.929 . S
H901 C933 0.928 . S
O902 Co886 2.057 . S
O902 C890 1.232 . S
H903 C922 0.929 . S
H904 C923 0.929 . S
H905 C935 0.931 . S
H906 C927 0.929 . S
H907 C936 0.930 . S
H908 C928 0.931 . S
O909 Co885 2.097 . S
O909 C937 1.214 . S
H910 C938 0.929 . S
H911 C939 0.929 . S
H912 C940 0.930 . S
H913 C941 0.929 . S
H914 C943 0.930 . S
H915 C920 0.930 . S
H916 C924 0.930 . S
O917 Co886 2.037 . S
O917 C937 1.234 . S
C918 O892 1.269 . S
C918 O893 1.257 . S
C919 H894 0.930 . S
C919 C922 1.388 . S
C919 C924 1.418 . S
C920 H915 0.930 . S
C920 C923 1.404 . S
C920 C924 1.353 . S
N921 Co886 2.145 . S
N921 C922 1.397 . S
N921 C923 1.334 . S
C922 H903 0.929 . S
C922 C919 1.388 . S
C922 N921 1.397 . S
C923 H904 0.929 . S
C923 C920 1.404 . S
C923 N921 1.334 . S
C924 H916 0.930 . S
C924 C919 1.418 . S
C924 C920 1.353 . S
C925 H895 0.930 . S
C925 N926 1.330 . S
C925 C927 1.446 . S
N926 Co885 2.151 . S
N926 C925 1.330 . S
N926 C930 1.418 . S
C927 H906 0.929 . S
C927 C925 1.446 . S
C927 C928 1.332 . S
C928 H908 0.931 . S
C928 C927 1.332 . S
C928 C929 1.267 . S
C929 H897 0.929 . S
C929 C928 1.267 . S
C929 C930 1.251 . S
C930 H900 0.929 . S
C930 N926 1.418 . S
C930 C929 1.251 . S
C931 H898 0.930 . S
C931 C933 1.406 . S
C931 C936 1.261 . S
C932 H899 0.930 . S
C932 N934 1.325 . S
C932 C935 1.357 . S
C933 H901 0.928 . S
C933 C931 1.406 . S
C933 N934 1.261 . S
N934 Co885 2.214 . S
N934 C932 1.325 . S
N934 C933 1.261 . S
C935 H905 0.931 . S
C935 C932 1.357 . S
C935 C936 1.312 . S
C936 H907 0.930 . S
C936 C931 1.261 . S
C936 C935 1.312 . S
C937 O909 1.214 . S
C937 O917 1.234 . S
C938 H910 0.929 . S
C938 C941 1.391 . S
C938 C943 1.391 . S
C939 H911 0.929 . S
C939 C940 1.390 . S
C939 N942 1.391 . S
C940 H912 0.930 . S
C940 C939 1.390 . S
C940 C941 1.392 . S
C941 H913 0.929 . S
C941 C938 1.391 . S
C941 C940 1.392 . S
N942 Co886 2.257 . S
N942 C939 1.391 . S
N942 C943 1.388 . S
C943 H914 0.930 . S
C943 C938 1.391 . S
C943 N942 1.388 . S
C944 C945 1.349 . S
C944 C946 1.327 . S
C944 H969 0.950 . S
C945 C944 1.349 . S
C945 C961 1.349 . S
C946 C944 1.327 . S
C946 C965 1.429 . S
C946 H970 0.950 . S
C947 C964 1.574 . S
C947 C966 1.368 . S
C947 H971 0.949 . S
H948 C952 0.949 . S
C949 C950 1.349 . S
C949 C951 1.327 . S
C949 H972 0.950 . S
C950 C949 1.349 . S
C950 C962 1.349 . S
C951 C949 1.327 . S
C951 C967 1.429 . S
C951 H973 0.950 . S
C952 H948 0.949 . S
C952 C960 1.574 . S
C952 C968 1.368 . S
H953 C961 0.950 . S
H954 C959 0.950 . S
H955 C960 0.949 . S
H956 C962 0.950 . S
H957 C963 0.950 . S
H958 C964 0.949 . S
C959 H954 0.950 . S
C959 C961 1.327 . S
C959 C965 1.429 . S
C960 C952 1.574 . S
C960 H955 0.949 . S
C960 C966 1.368 . S
C961 C945 1.349 . S
C961 H953 0.950 . S
C961 C959 1.327 . S
C962 C950 1.349 . S
C962 H956 0.950 . S
C962 C963 1.327 . S
C963 H957 0.950 . S
C963 C962 1.327 . S
C963 C967 1.429 . S
C964 C947 1.574 . S
C964 H958 0.949 . S
C964 C968 1.368 . S
C965 C946 1.429 . S
C965 C959 1.429 . S
C965 C966 1.523 . S
C966 C947 1.368 . S
C966 C960 1.368 . S
C966 C965 1.523 . S
C967 C951 1.429 . S
C967 C963 1.429 . S
C967 C968 1.523 . S
C968 C952 1.368 . S
C968 C964 1.368 . S
C968 C967 1.523 . S
H969 C944 0.950 . S
H970 C946 0.950 . S
H971 C947 0.949 . S
H972 C949 0.950 . S
H973 C951 0.950 . S
C974 C975 1.349 . S
C974 C976 1.327 . S
C974 H999 0.950 1_655 S
C975 C974 1.349 . S
C975 C991 1.349 . S
C976 C974 1.327 . S
C976 C995 1.429 . S
C976 H1000 0.950 . S
C977 C994 1.574 . S
C977 C996 1.368 . S
C977 H1001 0.949 . S
H978 C982 0.949 . S
C979 C980 1.349 . S
C979 C981 1.327 . S
C979 H1002 0.950 . S
C980 C979 1.349 . S
C980 C992 1.349 . S
C981 C979 1.327 . S
C981 C997 1.429 . S
C981 H1003 0.950 . S
C982 H978 0.949 . S
C982 C990 1.574 . S
C982 C998 1.368 . S
H983 C991 0.950 . S
H984 C989 0.950 . S
H985 C990 0.949 . S
H986 C992 0.950 . S
H987 C993 0.950 . S
H988 C994 0.949 . S
C989 H984 0.950 . S
C989 C991 1.327 . S
C989 C995 1.429 . S
C990 C982 1.574 . S
C990 H985 0.949 . S
C990 C996 1.368 . S
C991 C975 1.349 . S
C991 H983 0.950 . S
C991 C989 1.327 . S
C992 C980 1.349 . S
C992 H986 0.950 . S
C992 C993 1.327 . S
C993 H987 0.950 . S
C993 C992 1.327 . S
C993 C997 1.429 . S
C994 C977 1.574 . S
C994 H988 0.949 . S
C994 C998 1.368 . S
C995 C976 1.429 . S
C995 C989 1.429 . S
C995 C996 1.523 . S
C996 C977 1.368 . S
C996 C990 1.368 . S
C996 C995 1.523 . S
C997 C981 1.429 . S
C997 C993 1.429 . S
C997 C998 1.523 . S
C998 C982 1.368 . S
C998 C994 1.368 . S
C998 C997 1.523 . S
H999 C974 0.950 1_455 S
H1000 C976 0.950 . S
H1001 C977 0.949 . S
H1002 C979 0.950 . S
H1003 C981 0.950 . S
C1004 C1005 1.349 . S
C1004 C1006 1.327 . S
C1004 H1029 0.950 1_565 S
C1005 C1004 1.349 . S
C1005 C1021 1.349 . S
C1006 C1004 1.327 . S
C1006 C1025 1.429 . S
C1006 H1030 0.950 . S
C1007 C1024 1.574 . S
C1007 C1026 1.368 . S
C1007 H1031 0.949 . S
H1008 C1012 0.949 . S
C1009 C1010 1.349 . S
C1009 C1011 1.327 . S
C1009 H1032 0.950 . S
C1010 C1009 1.349 . S
C1010 C1022 1.349 . S
C1011 C1009 1.327 . S
C1011 C1027 1.429 . S
C1011 H1033 0.950 . S
C1012 H1008 0.949 . S
C1012 C1020 1.574 . S
C1012 C1028 1.368 . S
H1013 C1021 0.950 . S
H1014 C1019 0.950 . S
H1015 C1020 0.949 . S
H1016 C1022 0.950 . S
H1017 C1023 0.950 . S
H1018 C1024 0.949 . S
C1019 H1014 0.950 . S
C1019 C1021 1.327 . S
C1019 C1025 1.429 . S
C1020 C1012 1.574 . S
C1020 H1015 0.949 . S
C1020 C1026 1.368 . S
C1021 C1005 1.349 . S
C1021 H1013 0.950 . S
C1021 C1019 1.327 . S
C1022 C1010 1.349 . S
C1022 H1016 0.950 . S
C1022 C1023 1.327 . S
C1023 H1017 0.950 . S
C1023 C1022 1.327 . S
C1023 C1027 1.429 . S
C1024 C1007 1.574 . S
C1024 H1018 0.949 . S
C1024 C1028 1.368 . S
C1025 C1006 1.429 . S
C1025 C1019 1.429 . S
C1025 C1026 1.523 . S
C1026 C1007 1.368 . S
C1026 C1020 1.368 . S
C1026 C1025 1.523 . S
C1027 C1011 1.429 . S
C1027 C1023 1.429 . S
C1027 C1028 1.523 . S
C1028 C1012 1.368 . S
C1028 C1024 1.368 . S
C1028 C1027 1.523 . S
H1029 C1004 0.950 1_545 S
H1030 C1006 0.950 . S
H1031 C1007 0.949 . S
H1032 C1009 0.950 . S
H1033 C1011 0.950 . S
C1034 C1035 1.349 . S
C1034 C1036 1.327 . S
C1034 H1059 0.950 . S
C1035 C1034 1.349 . S
C1035 C1051 1.349 . S
C1036 C1034 1.327 . S
C1036 C1055 1.429 . S
C1036 H1060 0.950 . S
C1037 C1054 1.574 . S
C1037 C1056 1.368 . S
C1037 H1061 0.949 . S
H1038 C1042 0.949 . S
C1039 C1040 1.349 . S
C1039 C1041 1.327 . S
C1039 H1062 0.950 . S
C1040 C1039 1.349 . S
C1040 C1052 1.349 . S
C1041 C1039 1.327 . S
C1041 C1057 1.429 . S
C1041 H1063 0.950 . S
C1042 H1038 0.949 . S
C1042 C1050 1.574 . S
C1042 C1058 1.368 . S
H1043 C1051 0.950 1_655 S
H1044 C1049 0.950 . S
H1045 C1050 0.949 . S
H1046 C1052 0.950 . S
H1047 C1053 0.950 . S
H1048 C1054 0.949 . S
C1049 H1044 0.950 . S
C1049 C1051 1.327 . S
C1049 C1055 1.429 . S
C1050 C1042 1.574 . S
C1050 H1045 0.949 . S
C1050 C1056 1.368 . S
C1051 C1035 1.349 . S
C1051 H1043 0.950 1_455 S
C1051 C1049 1.327 . S
C1052 C1040 1.349 . S
C1052 H1046 0.950 . S
C1052 C1053 1.327 . S
C1053 H1047 0.950 . S
C1053 C1052 1.327 . S
C1053 C1057 1.429 . S
C1054 C1037 1.574 . S
C1054 H1048 0.949 . S
C1054 C1058 1.368 . S
C1055 C1036 1.429 . S
C1055 C1049 1.429 . S
C1055 C1056 1.523 . S
C1056 C1037 1.368 . S
C1056 C1050 1.368 . S
C1056 C1055 1.523 . S
C1057 C1041 1.429 . S
C1057 C1053 1.429 . S
C1057 C1058 1.523 . S
C1058 C1042 1.368 . S
C1058 C1054 1.368 . S
C1058 C1057 1.523 . S
H1059 C1034 0.950 . S
H1060 C1036 0.950 . S
H1061 C1037 0.949 . S
H1062 C1039 0.950 . S
H1063 C1041 0.950 . S
C1064 C1065 1.349 . S
C1064 C1066 1.327 . S
C1064 H1089 0.950 . S
C1065 C1064 1.349 . S
C1065 C1081 1.349 . S
C1066 C1064 1.327 . S
C1066 C1085 1.429 . S
C1066 H1090 0.950 . S
C1067 C1084 1.574 . S
C1067 C1086 1.368 . S
C1067 H1091 0.949 . S
H1068 C1072 0.949 . S
C1069 C1070 1.349 . S
C1069 C1071 1.327 . S
C1069 H1092 0.948 1_565 S
C1070 C1069 1.349 . S
C1070 C1082 1.349 . S
C1071 C1069 1.327 . S
C1071 C1087 1.429 . S
C1071 H1093 0.950 . S
C1072 H1068 0.949 . S
C1072 C1080 1.574 . S
C1072 C1088 1.368 . S
H1073 C1081 0.950 . S
H1074 C1079 0.950 . S
H1075 C1080 0.949 . S
H1076 C1082 0.950 . S
H1077 C1083 0.950 . S
H1078 C1084 0.949 . S
C1079 H1074 0.950 . S
C1079 C1081 1.327 . S
C1079 C1085 1.429 . S
C1080 C1072 1.574 . S
C1080 H1075 0.949 . S
C1080 C1086 1.368 . S
C1081 C1065 1.349 . S
C1081 H1073 0.950 . S
C1081 C1079 1.327 . S
C1082 C1070 1.349 . S
C1082 H1076 0.950 . S
C1082 C1083 1.327 . S
C1083 H1077 0.950 . S
C1083 C1082 1.327 . S
C1083 C1087 1.429 . S
C1084 C1067 1.574 . S
C1084 H1078 0.949 . S
C1084 C1088 1.368 . S
C1085 C1066 1.429 . S
C1085 C1079 1.429 . S
C1085 C1086 1.523 . S
C1086 C1067 1.368 . S
C1086 C1080 1.368 . S
C1086 C1085 1.523 . S
C1087 C1071 1.429 . S
C1087 C1083 1.429 . S
C1087 C1088 1.523 . S
C1088 C1072 1.368 . S
C1088 C1084 1.368 . S
C1088 C1087 1.523 . S
H1089 C1064 0.950 . S
H1090 C1066 0.950 . S
H1091 C1067 0.949 . S
H1092 C1069 0.948 1_545 S
H1093 C1071 0.950 . S
C1094 C1095 1.349 . S
C1094 C1096 1.327 . S
C1094 H1119 0.950 . S
C1095 C1094 1.349 . S
C1095 C1111 1.349 . S
C1096 C1094 1.327 . S
C1096 C1115 1.429 . S
C1096 H1120 0.950 . S
C1097 C1114 1.574 . S
C1097 C1116 1.368 . S
C1097 H1121 0.949 . S
H1098 C1102 0.949 . S
C1099 C1100 1.349 . S
C1099 C1101 1.327 . S
C1099 H1122 0.966 . S
C1100 C1099 1.349 . S
C1100 C1112 1.349 . S
C1101 C1099 1.327 . S
C1101 C1117 1.429 . S
C1101 H1123 0.950 . S
C1102 H1098 0.949 . S
C1102 C1110 1.574 . S
C1102 C1118 1.368 . S
H1103 C1111 0.950 . S
H1104 C1109 0.950 . S
H1105 C1110 0.949 . S
H1106 C1112 0.950 . S
H1107 C1113 0.950 . S
H1108 C1114 0.949 . S
C1109 H1104 0.950 . S
C1109 C1111 1.327 . S
C1109 C1115 1.429 . S
C1110 C1102 1.574 . S
C1110 H1105 0.949 . S
C1110 C1116 1.368 . S
C1111 C1095 1.349 . S
C1111 H1103 0.950 . S
C1111 C1109 1.327 . S
C1112 C1100 1.349 . S
C1112 H1106 0.950 . S
C1112 C1113 1.327 . S
C1113 H1107 0.950 . S
C1113 C1112 1.327 . S
C1113 C1117 1.429 . S
C1114 C1097 1.574 . S
C1114 H1108 0.949 . S
C1114 C1118 1.368 . S
C1115 C1096 1.429 . S
C1115 C1109 1.429 . S
C1115 C1116 1.523 . S
C1116 C1097 1.368 . S
C1116 C1110 1.368 . S
C1116 C1115 1.523 . S
C1117 C1101 1.429 . S
C1117 C1113 1.429 . S
C1117 C1118 1.523 . S
C1118 C1102 1.368 . S
C1118 C1114 1.368 . S
C1118 C1117 1.523 . S
H1119 C1094 0.950 . S
H1120 C1096 0.950 . S
H1121 C1097 0.949 . S
H1122 C1099 0.966 . S
H1123 C1101 0.950 . S
C1124 C1125 1.349 . S
C1124 C1126 1.327 . S
C1124 H1149 0.950 . S
C1125 C1124 1.349 . S
C1125 C1141 1.349 . S
C1126 C1124 1.327 . S
C1126 C1145 1.429 . S
C1126 H1150 0.950 . S
C1127 C1144 1.574 . S
C1127 C1146 1.368 . S
C1127 H1151 0.949 . S
H1128 C1132 0.949 . S
C1129 C1130 1.349 . S
C1129 C1131 1.327 . S
C1129 H1152 0.950 . S
C1130 C1129 1.349 . S
C1130 C1142 1.349 . S
C1131 C1129 1.327 . S
C1131 C1147 1.429 . S
C1131 H1153 0.950 . S
C1132 H1128 0.949 . S
C1132 C1140 1.574 . S
C1132 C1148 1.368 . S
H1133 C1141 0.950 . S
H1134 C1139 0.950 . S
H1135 C1140 0.949 . S
H1136 C1142 0.932 1_565 S
H1137 C1143 0.950 . S
H1138 C1144 0.949 . S
C1139 H1134 0.950 . S
C1139 C1141 1.327 . S
C1139 C1145 1.429 . S
C1140 C1132 1.574 . S
C1140 H1135 0.949 . S
C1140 C1146 1.368 . S
C1141 C1125 1.349 . S
C1141 H1133 0.950 . S
C1141 C1139 1.327 . S
C1142 C1130 1.349 . S
C1142 H1136 0.932 1_545 S
C1142 C1143 1.327 . S
C1143 H1137 0.950 . S
C1143 C1142 1.327 . S
C1143 C1147 1.429 . S
C1144 C1127 1.574 . S
C1144 H1138 0.949 . S
C1144 C1148 1.368 . S
C1145 C1126 1.429 . S
C1145 C1139 1.429 . S
C1145 C1146 1.523 . S
C1146 C1127 1.368 . S
C1146 C1140 1.368 . S
C1146 C1145 1.523 . S
C1147 C1131 1.429 . S
C1147 C1143 1.429 . S
C1147 C1148 1.523 . S
C1148 C1132 1.368 . S
C1148 C1144 1.368 . S
C1148 C1147 1.523 . S
H1149 C1124 0.950 . S
H1150 C1126 0.950 . S
H1151 C1127 0.949 . S
H1152 C1129 0.950 . S
H1153 C1131 0.950 . S
C1154 C1155 1.349 . S
C1154 C1156 1.327 . S
C1154 H1179 0.950 . S
C1155 C1154 1.349 . S
C1155 C1171 1.349 . S
C1156 C1154 1.327 . S
C1156 C1175 1.429 . S
C1156 H1180 0.950 . S
C1157 C1174 1.574 . S
C1157 C1176 1.368 . S
C1157 H1181 0.949 . S
H1158 C1162 0.949 . S
C1159 C1160 1.349 . S
C1159 C1161 1.327 . S
C1159 H1182 0.950 . S
C1160 C1159 1.349 . S
C1160 C1172 1.349 . S
C1161 C1159 1.327 . S
C1161 C1177 1.429 . S
C1161 H1183 0.950 . S
C1162 H1158 0.949 . S
C1162 C1170 1.574 . S
C1162 C1178 1.368 . S
H1163 C1171 0.950 . S
H1164 C1169 0.950 . S
H1165 C1170 0.949 . S
H1166 C1172 0.930 1_455 S
H1167 C1173 0.950 . S
H1168 C1174 0.949 . S
C1169 H1164 0.950 . S
C1169 C1171 1.327 . S
C1169 C1175 1.429 . S
C1170 C1162 1.574 . S
C1170 H1165 0.949 . S
C1170 C1176 1.368 . S
C1171 C1155 1.349 . S
C1171 H1163 0.950 . S
C1171 C1169 1.327 . S
C1172 C1160 1.349 . S
C1172 H1166 0.930 1_655 S
C1172 C1173 1.327 . S
C1173 H1167 0.950 . S
C1173 C1172 1.327 . S
C1173 C1177 1.429 . S
C1174 C1157 1.574 . S
C1174 H1168 0.949 . S
C1174 C1178 1.368 . S
C1175 C1156 1.429 . S
C1175 C1169 1.429 . S
C1175 C1176 1.523 . S
C1176 C1157 1.368 . S
C1176 C1170 1.368 . S
C1176 C1175 1.523 . S
C1177 C1161 1.429 . S
C1177 C1173 1.429 . S
C1177 C1178 1.523 . S
C1178 C1162 1.368 . S
C1178 C1174 1.368 . S
C1178 C1177 1.523 . S
H1179 C1154 0.950 . S
H1180 C1156 0.950 . S
H1181 C1157 0.949 . S
H1182 C1159 0.950 . S
H1183 C1161 0.950 . S
C1184 C1185 1.349 . S
C1184 C1186 1.327 . S
C1184 H1209 0.950 . S
C1185 C1184 1.349 . S
C1185 C1201 1.349 . S
C1186 C1184 1.327 . S
C1186 C1205 1.429 . S
C1186 H1210 0.950 . S
C1187 C1204 1.574 . S
C1187 C1206 1.368 . S
C1187 H1211 0.949 . S
H1188 C1192 0.949 . S
C1189 C1190 1.349 . S
C1189 C1191 1.327 . S
C1189 H1212 0.950 . S
C1190 C1189 1.349 . S
C1190 C1202 1.349 . S
C1191 C1189 1.327 . S
C1191 C1207 1.429 . S
C1191 H1213 0.950 . S
C1192 H1188 0.949 . S
C1192 C1200 1.574 . S
C1192 C1208 1.368 . S
H1193 C1201 0.950 . S
H1194 C1199 0.950 . S
H1195 C1200 0.949 . S
H1196 C1202 0.950 . S
H1197 C1203 0.950 . S
H1198 C1204 0.949 . S
C1199 H1194 0.950 . S
C1199 C1201 1.327 . S
C1199 C1205 1.429 . S
C1200 C1192 1.574 . S
C1200 H1195 0.949 . S
C1200 C1206 1.368 . S
C1201 C1185 1.349 . S
C1201 H1193 0.950 . S
C1201 C1199 1.327 . S
C1202 C1190 1.349 . S
C1202 H1196 0.950 . S
C1202 C1203 1.327 . S
C1203 H1197 0.950 . S
C1203 C1202 1.327 . S
C1203 C1207 1.429 . S
C1204 C1187 1.574 . S
C1204 H1198 0.949 . S
C1204 C1208 1.368 . S
C1205 C1186 1.429 . S
C1205 C1199 1.429 . S
C1205 C1206 1.523 . S
C1206 C1187 1.368 . S
C1206 C1200 1.368 . S
C1206 C1205 1.523 . S
C1207 C1191 1.429 . S
C1207 C1203 1.429 . S
C1207 C1208 1.523 . S
C1208 C1192 1.368 . S
C1208 C1204 1.368 . S
C1208 C1207 1.523 . S
H1209 C1184 0.950 . S
H1210 C1186 0.950 . S
H1211 C1187 0.949 . S
H1212 C1189 0.950 . S
H1213 C1191 0.950 . S
C1214 C1215 1.349 . S
C1214 C1216 1.327 . S
C1214 H1239 0.950 . S
C1215 C1214 1.349 . S
C1215 C1231 1.349 . S
C1216 C1214 1.327 . S
C1216 C1235 1.429 . S
C1216 H1240 0.950 . S
C1217 C1234 1.574 . S
C1217 C1236 1.368 . S
C1217 H1241 0.949 . S
H1218 C1222 0.949 . S
C1219 C1220 1.349 . S
C1219 C1221 1.327 . S
C1219 H1242 0.950 . S
C1220 C1219 1.349 . S
C1220 C1232 1.349 . S
C1221 C1219 1.327 . S
C1221 C1237 1.429 . S
C1221 H1243 0.950 . S
C1222 H1218 0.949 . S
C1222 C1230 1.574 . S
C1222 C1238 1.368 . S
H1223 C1231 0.950 . S
H1224 C1229 0.950 . S
H1225 C1230 0.949 . S
H1226 C1232 0.950 . S
H1227 C1233 0.950 . S
H1228 C1234 0.949 . S
C1229 H1224 0.950 . S
C1229 C1231 1.327 . S
C1229 C1235 1.429 . S
C1230 C1222 1.574 . S
C1230 H1225 0.949 . S
C1230 C1236 1.368 . S
C1231 C1215 1.349 . S
C1231 H1223 0.950 . S
C1231 C1229 1.327 . S
C1232 C1220 1.349 . S
C1232 H1226 0.950 . S
C1232 C1233 1.327 . S
C1233 H1227 0.950 . S
C1233 C1232 1.327 . S
C1233 C1237 1.429 . S
C1234 C1217 1.574 . S
C1234 H1228 0.949 . S
C1234 C1238 1.368 . S
C1235 C1216 1.429 . S
C1235 C1229 1.429 . S
C1235 C1236 1.523 . S
C1236 C1217 1.368 . S
C1236 C1230 1.368 . S
C1236 C1235 1.523 . S
C1237 C1221 1.429 . S
C1237 C1233 1.429 . S
C1237 C1238 1.523 . S
C1238 C1222 1.368 . S
C1238 C1234 1.368 . S
C1238 C1237 1.523 . S
H1239 C1214 0.950 . S
H1240 C1216 0.950 . S
H1241 C1217 0.949 . S
H1242 C1219 0.950 . S
H1243 C1221 0.950 . S
C1244 C1245 1.349 . S
C1244 C1246 1.327 . S
C1244 H1269 0.950 . S
C1245 C1244 1.349 . S
C1245 C1261 1.349 . S
C1246 C1244 1.327 . S
C1246 C1265 1.429 . S
C1246 H1270 0.950 . S
C1247 C1264 1.574 . S
C1247 C1266 1.368 . S
C1247 H1271 0.949 . S
H1248 C1252 0.949 . S
C1249 C1250 1.349 . S
C1249 C1251 1.327 . S
C1249 H1272 0.950 . S
C1250 C1249 1.349 . S
C1250 C1262 1.349 . S
C1251 C1249 1.327 . S
C1251 C1267 1.429 . S
C1251 H1273 0.950 . S
C1252 H1248 0.949 . S
C1252 C1260 1.574 . S
C1252 C1268 1.368 . S
H1253 C1261 0.950 . S
H1254 C1259 0.950 . S
H1255 C1260 0.949 . S
H1256 C1262 0.950 . S
H1257 C1263 0.950 . S
H1258 C1264 0.949 . S
C1259 H1254 0.950 . S
C1259 C1261 1.327 . S
C1259 C1265 1.429 . S
C1260 C1252 1.574 . S
C1260 H1255 0.949 . S
C1260 C1266 1.368 . S
C1261 C1245 1.349 . S
C1261 H1253 0.950 . S
C1261 C1259 1.327 . S
C1262 C1250 1.349 . S
C1262 H1256 0.950 . S
C1262 C1263 1.327 . S
C1263 H1257 0.950 . S
C1263 C1262 1.327 . S
C1263 C1267 1.429 . S
C1264 C1247 1.574 . S
C1264 H1258 0.949 . S
C1264 C1268 1.368 . S
C1265 C1246 1.429 . S
C1265 C1259 1.429 . S
C1265 C1266 1.523 . S
C1266 C1247 1.368 . S
C1266 C1260 1.368 . S
C1266 C1265 1.523 . S
C1267 C1251 1.429 . S
C1267 C1263 1.429 . S
C1267 C1268 1.523 . S
C1268 C1252 1.368 . S
C1268 C1264 1.368 . S
C1268 C1267 1.523 . S
H1269 C1244 0.950 . S
H1270 C1246 0.950 . S
H1271 C1247 0.949 . S
H1272 C1249 0.950 . S
H1273 C1251 0.950 . S
C1274 C1275 1.349 . S
C1274 C1276 1.327 . S
C1274 H1299 0.950 . S
C1275 C1274 1.349 . S
C1275 C1291 1.349 . S
C1276 C1274 1.327 . S
C1276 C1295 1.429 . S
C1276 H1300 0.950 . S
C1277 C1294 1.574 . S
C1277 C1296 1.368 . S
C1277 H1301 0.949 . S
H1278 C1282 0.949 . S
C1279 C1280 1.349 . S
C1279 C1281 1.327 . S
C1279 H1302 0.950 . S
C1280 C1279 1.349 . S
C1280 C1292 1.349 . S
C1281 C1279 1.327 . S
C1281 C1297 1.429 . S
C1281 H1303 0.950 . S
C1282 H1278 0.949 . S
C1282 C1290 1.574 . S
C1282 C1298 1.368 . S
H1283 C1291 0.950 . S
H1284 C1289 0.950 . S
H1285 C1290 0.949 . S
H1286 C1292 0.950 . S
H1287 C1293 0.950 . S
H1288 C1294 0.949 . S
C1289 H1284 0.950 . S
C1289 C1291 1.327 . S
C1289 C1295 1.429 . S
C1290 C1282 1.574 . S
C1290 H1285 0.949 . S
C1290 C1296 1.368 . S
C1291 C1275 1.349 . S
C1291 H1283 0.950 . S
C1291 C1289 1.327 . S
C1292 C1280 1.349 . S
C1292 H1286 0.950 . S
C1292 C1293 1.327 . S
C1293 H1287 0.950 . S
C1293 C1292 1.327 . S
C1293 C1297 1.429 . S
C1294 C1277 1.574 . S
C1294 H1288 0.949 . S
C1294 C1298 1.368 . S
C1295 C1276 1.429 . S
C1295 C1289 1.429 . S
C1295 C1296 1.523 . S
C1296 C1277 1.368 . S
C1296 C1290 1.368 . S
C1296 C1295 1.523 . S
C1297 C1281 1.429 . S
C1297 C1293 1.429 . S
C1297 C1298 1.523 . S
C1298 C1282 1.368 . S
C1298 C1294 1.368 . S
C1298 C1297 1.523 . S
H1299 C1274 0.950 . S
H1300 C1276 0.950 . S
H1301 C1277 0.949 . S
H1302 C1279 0.950 . S
H1303 C1281 0.950 . S
C1304 C1305 1.349 . S
C1304 C1306 1.327 . S
C1304 H1329 0.950 . S
C1305 C1304 1.349 . S
C1305 C1321 1.349 . S
C1306 C1304 1.327 . S
C1306 C1325 1.429 . S
C1306 H1330 0.950 . S
C1307 C1324 1.574 . S
C1307 C1326 1.368 . S
C1307 H1331 0.949 . S
H1308 C1312 0.949 . S
C1309 C1310 1.349 . S
C1309 C1311 1.327 . S
C1309 H1332 0.950 . S
C1310 C1309 1.349 . S
C1310 C1322 1.349 . S
C1311 C1309 1.327 . S
C1311 C1327 1.429 . S
C1311 H1333 0.950 . S
C1312 H1308 0.949 . S
C1312 C1320 1.574 . S
C1312 C1328 1.368 . S
H1313 C1321 0.950 . S
H1314 C1319 0.950 . S
H1315 C1320 0.949 . S
H1316 C1322 0.950 . S
H1317 C1323 0.950 . S
H1318 C1324 0.949 . S
C1319 H1314 0.950 . S
C1319 C1321 1.327 . S
C1319 C1325 1.429 . S
C1320 C1312 1.574 . S
C1320 H1315 0.949 . S
C1320 C1326 1.368 . S
C1321 C1305 1.349 . S
C1321 H1313 0.950 . S
C1321 C1319 1.327 . S
C1322 C1310 1.349 . S
C1322 H1316 0.950 . S
C1322 C1323 1.327 . S
C1323 H1317 0.950 . S
C1323 C1322 1.327 . S
C1323 C1327 1.429 . S
C1324 C1307 1.574 . S
C1324 H1318 0.949 . S
C1324 C1328 1.368 . S
C1325 C1306 1.429 . S
C1325 C1319 1.429 . S
C1325 C1326 1.523 . S
C1326 C1307 1.368 . S
C1326 C1320 1.368 . S
C1326 C1325 1.523 . S
C1327 C1311 1.429 . S
C1327 C1323 1.429 . S
C1327 C1328 1.523 . S
C1328 C1312 1.368 . S
C1328 C1324 1.368 . S
C1328 C1327 1.523 . S
H1329 C1304 0.950 . S
H1330 C1306 0.950 . S
H1331 C1307 0.949 . S
H1332 C1309 0.950 . S
H1333 C1311 0.950 . S
C1334 C1335 1.349 . S
C1334 C1336 1.327 . S
C1334 H1359 0.950 . S
C1335 C1334 1.349 . S
C1335 C1351 1.349 . S
C1336 C1334 1.327 . S
C1336 C1355 1.429 . S
C1336 H1360 0.950 . S
C1337 C1354 1.574 . S
C1337 C1356 1.368 . S
C1337 H1361 0.949 . S
H1338 C1342 0.949 . S
C1339 C1340 1.349 . S
C1339 C1341 1.327 . S
C1339 H1362 0.950 . S
C1340 C1339 1.349 . S
C1340 C1352 1.349 . S
C1341 C1339 1.327 . S
C1341 C1357 1.429 . S
C1341 H1363 0.950 . S
C1342 H1338 0.949 . S
C1342 C1350 1.574 . S
C1342 C1358 1.368 . S
H1343 C1351 0.950 . S
H1344 C1349 0.950 . S
H1345 C1350 0.949 . S
H1346 C1352 0.950 . S
H1347 C1353 0.950 . S
H1348 C1354 0.949 . S
C1349 H1344 0.950 . S
C1349 C1351 1.327 . S
C1349 C1355 1.429 . S
C1350 C1342 1.574 . S
C1350 H1345 0.949 . S
C1350 C1356 1.368 . S
C1351 C1335 1.349 . S
C1351 H1343 0.950 . S
C1351 C1349 1.327 . S
C1352 C1340 1.349 . S
C1352 H1346 0.950 . S
C1352 C1353 1.327 . S
C1353 H1347 0.950 . S
C1353 C1352 1.327 . S
C1353 C1357 1.429 . S
C1354 C1337 1.574 . S
C1354 H1348 0.949 . S
C1354 C1358 1.368 . S
C1355 C1336 1.429 . S
C1355 C1349 1.429 . S
C1355 C1356 1.523 . S
C1356 C1337 1.368 . S
C1356 C1350 1.368 . S
C1356 C1355 1.523 . S
C1357 C1341 1.429 . S
C1357 C1353 1.429 . S
C1357 C1358 1.523 . S
C1358 C1342 1.368 . S
C1358 C1354 1.368 . S
C1358 C1357 1.523 . S
H1359 C1334 0.950 . S
H1360 C1336 0.950 . S
H1361 C1337 0.949 . S
H1362 C1339 0.950 . S
H1363 C1341 0.950 . S
C1364 C1365 1.349 . S
C1364 C1366 1.327 . S
C1364 H1389 0.950 . S
C1365 C1364 1.349 . S
C1365 C1381 1.349 . S
C1366 C1364 1.327 . S
C1366 C1385 1.429 . S
C1366 H1390 0.950 . S
C1367 C1384 1.574 . S
C1367 C1386 1.368 . S
C1367 H1391 0.949 . S
H1368 C1372 0.949 . S
C1369 C1370 1.349 . S
C1369 C1371 1.327 . S
C1369 H1392 0.950 . S
C1370 C1369 1.349 . S
C1370 C1382 1.349 . S
C1371 C1369 1.327 . S
C1371 C1387 1.429 . S
C1371 H1393 0.950 . S
C1372 H1368 0.949 . S
C1372 C1380 1.574 . S
C1372 C1388 1.368 . S
H1373 C1381 0.950 . S
H1374 C1379 0.950 . S
H1375 C1380 0.949 . S
H1376 C1382 0.950 . S
H1377 C1383 0.950 . S
H1378 C1384 0.949 . S
C1379 H1374 0.950 . S
C1379 C1381 1.327 . S
C1379 C1385 1.429 . S
C1380 C1372 1.574 . S
C1380 H1375 0.949 . S
C1380 C1386 1.368 . S
C1381 C1365 1.349 . S
C1381 H1373 0.950 . S
C1381 C1379 1.327 . S
C1382 C1370 1.349 . S
C1382 H1376 0.950 . S
C1382 C1383 1.327 . S
C1383 H1377 0.950 . S
C1383 C1382 1.327 . S
C1383 C1387 1.429 . S
C1384 C1367 1.574 . S
C1384 H1378 0.949 . S
C1384 C1388 1.368 . S
C1385 C1366 1.429 . S
C1385 C1379 1.429 . S
C1385 C1386 1.523 . S
C1386 C1367 1.368 . S
C1386 C1380 1.368 . S
C1386 C1385 1.523 . S
C1387 C1371 1.429 . S
C1387 C1383 1.429 . S
C1387 C1388 1.523 . S
C1388 C1372 1.368 . S
C1388 C1384 1.368 . S
C1388 C1387 1.523 . S
H1389 C1364 0.950 . S
H1390 C1366 0.950 . S
H1391 C1367 0.949 . S
H1392 C1369 0.950 . S
H1393 C1371 0.950 . S
C1394 C1395 1.349 . S
C1394 C1396 1.327 . S
C1394 H1419 0.950 . S
C1395 C1394 1.349 . S
C1395 C1411 1.349 . S
C1396 C1394 1.327 . S
C1396 C1415 1.429 . S
C1396 H1420 0.950 . S
C1397 C1414 1.574 . S
C1397 C1416 1.368 . S
C1397 H1421 0.949 . S
H1398 C1402 0.949 . S
C1399 C1400 1.349 . S
C1399 C1401 1.327 . S
C1399 H1422 0.950 . S
C1400 C1399 1.349 . S
C1400 C1412 1.349 . S
C1401 C1399 1.327 . S
C1401 C1417 1.429 . S
C1401 H1423 0.950 . S
C1402 H1398 0.949 . S
C1402 C1410 1.574 . S
C1402 C1418 1.368 . S
H1403 C1411 0.950 . S
H1404 C1409 0.950 . S
H1405 C1410 0.949 . S
H1406 C1412 0.950 . S
H1407 C1413 0.950 . S
H1408 C1414 0.949 . S
C1409 H1404 0.950 . S
C1409 C1411 1.327 . S
C1409 C1415 1.429 . S
C1410 C1402 1.574 . S
C1410 H1405 0.949 . S
C1410 C1416 1.368 . S
C1411 C1395 1.349 . S
C1411 H1403 0.950 . S
C1411 C1409 1.327 . S
C1412 C1400 1.349 . S
C1412 H1406 0.950 . S
C1412 C1413 1.327 . S
C1413 H1407 0.950 . S
C1413 C1412 1.327 . S
C1413 C1417 1.429 . S
C1414 C1397 1.574 . S
C1414 H1408 0.949 . S
C1414 C1418 1.368 . S
C1415 C1396 1.429 . S
C1415 C1409 1.429 . S
C1415 C1416 1.523 . S
C1416 C1397 1.368 . S
C1416 C1410 1.368 . S
C1416 C1415 1.523 . S
C1417 C1401 1.429 . S
C1417 C1413 1.429 . S
C1417 C1418 1.523 . S
C1418 C1402 1.368 . S
C1418 C1414 1.368 . S
C1418 C1417 1.523 . S
H1419 C1394 0.950 . S
H1420 C1396 0.950 . S
H1421 C1397 0.949 . S
H1422 C1399 0.950 . S
H1423 C1401 0.950 . S
C1424 C1425 1.349 . S
C1424 C1426 1.327 . S
C1424 H1449 0.950 . S
C1425 C1424 1.349 . S
C1425 C1441 1.349 . S
C1426 C1424 1.327 . S
C1426 C1445 1.429 . S
C1426 H1450 0.950 . S
C1427 C1444 1.574 . S
C1427 C1446 1.368 . S
C1427 H1451 0.949 . S
H1428 C1432 0.949 . S
C1429 C1430 1.349 . S
C1429 C1431 1.327 . S
C1429 H1452 0.950 . S
C1430 C1429 1.349 . S
C1430 C1442 1.349 . S
C1431 C1429 1.327 . S
C1431 C1447 1.429 . S
C1431 H1453 0.950 . S
C1432 H1428 0.949 . S
C1432 C1440 1.574 . S
C1432 C1448 1.368 . S
H1433 C1441 0.950 . S
H1434 C1439 0.950 . S
H1435 C1440 0.949 . S
H1436 C1442 0.950 . S
H1437 C1443 0.950 . S
H1438 C1444 0.949 . S
C1439 H1434 0.950 . S
C1439 C1441 1.327 . S
C1439 C1445 1.429 . S
C1440 C1432 1.574 . S
C1440 H1435 0.949 . S
C1440 C1446 1.368 . S
C1441 C1425 1.349 . S
C1441 H1433 0.950 . S
C1441 C1439 1.327 . S
C1442 C1430 1.349 . S
C1442 H1436 0.950 . S
C1442 C1443 1.327 . S
C1443 H1437 0.950 . S
C1443 C1442 1.327 . S
C1443 C1447 1.429 . S
C1444 C1427 1.574 . S
C1444 H1438 0.949 . S
C1444 C1448 1.368 . S
C1445 C1426 1.429 . S
C1445 C1439 1.429 . S
C1445 C1446 1.523 . S
C1446 C1427 1.368 . S
C1446 C1440 1.368 . S
C1446 C1445 1.523 . S
C1447 C1431 1.429 . S
C1447 C1443 1.429 . S
C1447 C1448 1.523 . S
C1448 C1432 1.368 . S
C1448 C1444 1.368 . S
C1448 C1447 1.523 . S
H1449 C1424 0.950 . S
H1450 C1426 0.950 . S
H1451 C1427 0.949 . S
H1452 C1429 0.950 . S
H1453 C1431 0.950 . S
C1454 C1455 1.349 . S
C1454 C1456 1.327 . S
C1454 H1479 0.950 . S
C1455 C1454 1.349 . S
C1455 C1471 1.349 . S
C1456 C1454 1.327 . S
C1456 C1475 1.429 . S
C1456 H1480 0.950 . S
C1457 C1474 1.574 . S
C1457 C1476 1.368 . S
C1457 H1481 0.949 . S
H1458 C1462 0.949 . S
C1459 C1460 1.349 . S
C1459 C1461 1.327 . S
C1459 H1482 0.950 . S
C1460 C1459 1.349 . S
C1460 C1472 1.349 . S
C1461 C1459 1.327 . S
C1461 C1477 1.429 . S
C1461 H1483 0.950 . S
C1462 H1458 0.949 . S
C1462 C1470 1.574 . S
C1462 C1478 1.368 . S
H1463 C1471 0.950 . S
H1464 C1469 0.950 . S
H1465 C1470 0.949 . S
H1466 C1472 0.950 . S
H1467 C1473 0.950 . S
H1468 C1474 0.949 . S
C1469 H1464 0.950 . S
C1469 C1471 1.327 . S
C1469 C1475 1.429 . S
C1470 C1462 1.574 . S
C1470 H1465 0.949 . S
C1470 C1476 1.368 . S
C1471 C1455 1.349 . S
C1471 H1463 0.950 . S
C1471 C1469 1.327 . S
C1472 C1460 1.349 . S
C1472 H1466 0.950 . S
C1472 C1473 1.327 . S
C1473 H1467 0.950 . S
C1473 C1472 1.327 . S
C1473 C1477 1.429 . S
C1474 C1457 1.574 . S
C1474 H1468 0.949 . S
C1474 C1478 1.368 . S
C1475 C1456 1.429 . S
C1475 C1469 1.429 . S
C1475 C1476 1.523 . S
C1476 C1457 1.368 . S
C1476 C1470 1.368 . S
C1476 C1475 1.523 . S
C1477 C1461 1.429 . S
C1477 C1473 1.429 . S
C1477 C1478 1.523 . S
C1478 C1462 1.368 . S
C1478 C1474 1.368 . S
C1478 C1477 1.523 . S
H1479 C1454 0.950 . S
H1480 C1456 0.950 . S
H1481 C1457 0.949 . S
H1482 C1459 0.950 . S
H1483 C1461 0.950 . S
C1484 C1485 1.349 . S
C1484 C1486 1.327 . S
C1484 H1509 0.950 . S
C1485 C1484 1.349 . S
C1485 C1501 1.349 . S
C1486 C1484 1.327 . S
C1486 C1505 1.429 . S
C1486 H1510 0.950 . S
C1487 C1504 1.574 . S
C1487 C1506 1.368 . S
C1487 H1511 0.949 . S
H1488 C1492 0.949 . S
C1489 C1490 1.349 . S
C1489 C1491 1.327 . S
C1489 H1512 0.950 . S
C1490 C1489 1.349 . S
C1490 C1502 1.349 . S
C1491 C1489 1.327 . S
C1491 C1507 1.429 . S
C1491 H1513 0.950 . S
C1492 H1488 0.949 . S
C1492 C1500 1.574 . S
C1492 C1508 1.368 . S
H1493 C1501 0.950 . S
H1494 C1499 0.950 . S
H1495 C1500 0.949 . S
H1496 C1502 0.950 . S
H1497 C1503 0.950 . S
H1498 C1504 0.949 . S
C1499 H1494 0.950 . S
C1499 C1501 1.327 . S
C1499 C1505 1.429 . S
C1500 C1492 1.574 . S
C1500 H1495 0.949 . S
C1500 C1506 1.368 . S
C1501 C1485 1.349 . S
C1501 H1493 0.950 . S
C1501 C1499 1.327 . S
C1502 C1490 1.349 . S
C1502 H1496 0.950 . S
C1502 C1503 1.327 . S
C1503 H1497 0.950 . S
C1503 C1502 1.327 . S
C1503 C1507 1.429 . S
C1504 C1487 1.574 . S
C1504 H1498 0.949 . S
C1504 C1508 1.368 . S
C1505 C1486 1.429 . S
C1505 C1499 1.429 . S
C1505 C1506 1.523 . S
C1506 C1487 1.368 . S
C1506 C1500 1.368 . S
C1506 C1505 1.523 . S
C1507 C1491 1.429 . S
C1507 C1503 1.429 . S
C1507 C1508 1.523 . S
C1508 C1492 1.368 . S
C1508 C1504 1.368 . S
C1508 C1507 1.523 . S
H1509 C1484 0.950 . S
H1510 C1486 0.950 . S
H1511 C1487 0.949 . S
H1512 C1489 0.950 . S
H1513 C1491 0.950 . S
C1514 C1515 1.349 . S
C1514 C1516 1.327 . S
C1514 H1539 0.950 . S
C1515 C1514 1.349 . S
C1515 C1531 1.349 . S
C1516 C1514 1.327 . S
C1516 C1535 1.429 . S
C1516 H1540 0.950 . S
C1517 C1534 1.574 . S
C1517 C1536 1.368 . S
C1517 H1541 0.949 . S
H1518 C1522 0.949 . S
C1519 C1520 1.349 . S
C1519 C1521 1.327 . S
C1519 H1542 0.950 . S
C1520 C1519 1.349 . S
C1520 C1532 1.349 . S
C1521 C1519 1.327 . S
C1521 C1537 1.429 . S
C1521 H1543 0.950 . S
C1522 H1518 0.949 . S
C1522 C1530 1.574 . S
C1522 C1538 1.368 . S
H1523 C1531 0.950 . S
H1524 C1529 0.950 . S
H1525 C1530 0.949 . S
H1526 C1532 0.950 . S
H1527 C1533 0.950 . S
H1528 C1534 0.949 . S
C1529 H1524 0.950 . S
C1529 C1531 1.327 . S
C1529 C1535 1.429 . S
C1530 C1522 1.574 . S
C1530 H1525 0.949 . S
C1530 C1536 1.368 . S
C1531 C1515 1.349 . S
C1531 H1523 0.950 . S
C1531 C1529 1.327 . S
C1532 C1520 1.349 . S
C1532 H1526 0.950 . S
C1532 C1533 1.327 . S
C1533 H1527 0.950 . S
C1533 C1532 1.327 . S
C1533 C1537 1.429 . S
C1534 C1517 1.574 . S
C1534 H1528 0.949 . S
C1534 C1538 1.368 . S
C1535 C1516 1.429 . S
C1535 C1529 1.429 . S
C1535 C1536 1.523 . S
C1536 C1517 1.368 . S
C1536 C1530 1.368 . S
C1536 C1535 1.523 . S
C1537 C1521 1.429 . S
C1537 C1533 1.429 . S
C1537 C1538 1.523 . S
C1538 C1522 1.368 . S
C1538 C1534 1.368 . S
C1538 C1537 1.523 . S
H1539 C1514 0.950 . S
H1540 C1516 0.950 . S
H1541 C1517 0.949 . S
H1542 C1519 0.950 . S
H1543 C1521 0.950 . S
C1544 C1545 1.349 . S
C1544 C1546 1.327 . S
C1544 H1569 0.950 . S
C1545 C1544 1.349 . S
C1545 C1561 1.349 . S
C1546 C1544 1.327 . S
C1546 C1565 1.429 . S
C1546 H1570 0.950 . S
C1547 C1564 1.574 . S
C1547 C1566 1.368 . S
C1547 H1571 0.949 . S
H1548 C1552 0.949 . S
C1549 C1550 1.349 . S
C1549 C1551 1.327 . S
C1549 H1572 0.950 . S
C1550 C1549 1.349 . S
C1550 C1562 1.349 . S
C1551 C1549 1.327 . S
C1551 C1567 1.429 . S
C1551 H1573 0.950 . S
C1552 H1548 0.949 . S
C1552 C1560 1.574 . S
C1552 C1568 1.368 . S
H1553 C1561 0.950 . S
H1554 C1559 0.950 . S
H1555 C1560 0.949 . S
H1556 C1562 0.950 . S
H1557 C1563 0.950 . S
H1558 C1564 0.949 . S
C1559 H1554 0.950 . S
C1559 C1561 1.327 . S
C1559 C1565 1.429 . S
C1560 C1552 1.574 . S
C1560 H1555 0.949 . S
C1560 C1566 1.368 . S
C1561 C1545 1.349 . S
C1561 H1553 0.950 . S
C1561 C1559 1.327 . S
C1562 C1550 1.349 . S
C1562 H1556 0.950 . S
C1562 C1563 1.327 . S
C1563 H1557 0.950 . S
C1563 C1562 1.327 . S
C1563 C1567 1.429 . S
C1564 C1547 1.574 . S
C1564 H1558 0.949 . S
C1564 C1568 1.368 . S
C1565 C1546 1.429 . S
C1565 C1559 1.429 . S
C1565 C1566 1.523 . S
C1566 C1547 1.368 . S
C1566 C1560 1.368 . S
C1566 C1565 1.523 . S
C1567 C1551 1.429 . S
C1567 C1563 1.429 . S
C1567 C1568 1.523 . S
C1568 C1552 1.368 . S
C1568 C1564 1.368 . S
C1568 C1567 1.523 . S
H1569 C1544 0.950 . S
H1570 C1546 0.950 . S
H1571 C1547 0.949 . S
H1572 C1549 0.950 . S
H1573 C1551 0.950 . S
C1574 C1575 1.349 . S
C1574 C1576 1.327 . S
C1574 H1599 0.950 . S
C1575 C1574 1.349 . S
C1575 C1591 1.349 . S
C1576 C1574 1.327 . S
C1576 C1595 1.429 . S
C1576 H1600 0.950 . S
C1577 C1594 1.574 . S
C1577 C1596 1.368 . S
C1577 H1601 0.949 . S
H1578 C1582 0.949 . S
C1579 C1580 1.349 . S
C1579 C1581 1.327 . S
C1579 H1602 0.950 . S
C1580 C1579 1.349 . S
C1580 C1592 1.349 . S
C1581 C1579 1.327 . S
C1581 C1597 1.429 . S
C1581 H1603 0.950 . S
C1582 H1578 0.949 . S
C1582 C1590 1.574 . S
C1582 C1598 1.368 . S
H1583 C1591 0.950 . S
H1584 C1589 0.950 . S
H1585 C1590 0.949 . S
H1586 C1592 0.950 . S
H1587 C1593 0.950 . S
H1588 C1594 0.949 . S
C1589 H1584 0.950 . S
C1589 C1591 1.327 . S
C1589 C1595 1.429 . S
C1590 C1582 1.574 . S
C1590 H1585 0.949 . S
C1590 C1596 1.368 . S
C1591 C1575 1.349 . S
C1591 H1583 0.950 . S
C1591 C1589 1.327 . S
C1592 C1580 1.349 . S
C1592 H1586 0.950 . S
C1592 C1593 1.327 . S
C1593 H1587 0.950 . S
C1593 C1592 1.327 . S
C1593 C1597 1.429 . S
C1594 C1577 1.574 . S
C1594 H1588 0.949 . S
C1594 C1598 1.368 . S
C1595 C1576 1.429 . S
C1595 C1589 1.429 . S
C1595 C1596 1.523 . S
C1596 C1577 1.368 . S
C1596 C1590 1.368 . S
C1596 C1595 1.523 . S
C1597 C1581 1.429 . S
C1597 C1593 1.429 . S
C1597 C1598 1.523 . S
C1598 C1582 1.368 . S
C1598 C1594 1.368 . S
C1598 C1597 1.523 . S
H1599 C1574 0.950 . S
H1600 C1576 0.950 . S
H1601 C1577 0.949 . S
H1602 C1579 0.950 . S
H1603 C1581 0.950 . S
C1604 C1605 1.349 . S
C1604 C1606 1.327 . S
C1604 H1629 0.950 . S
C1605 C1604 1.349 . S
C1605 C1621 1.349 . S
C1606 C1604 1.327 . S
C1606 C1625 1.429 . S
C1606 H1630 0.950 . S
C1607 C1624 1.574 . S
C1607 C1626 1.368 . S
C1607 H1631 0.949 . S
H1608 C1612 0.949 . S
C1609 C1610 1.349 . S
C1609 C1611 1.327 . S
C1609 H1632 0.950 . S
C1610 C1609 1.349 . S
C1610 C1622 1.349 . S
C1611 C1609 1.327 . S
C1611 C1627 1.429 . S
C1611 H1633 0.950 . S
C1612 H1608 0.949 . S
C1612 C1620 1.574 . S
C1612 C1628 1.368 . S
H1613 C1621 0.950 . S
H1614 C1619 0.950 . S
H1615 C1620 0.949 . S
H1616 C1622 0.950 . S
H1617 C1623 0.950 . S
H1618 C1624 0.949 . S
C1619 H1614 0.950 . S
C1619 C1621 1.327 . S
C1619 C1625 1.429 . S
C1620 C1612 1.574 . S
C1620 H1615 0.949 . S
C1620 C1626 1.368 . S
C1621 C1605 1.349 . S
C1621 H1613 0.950 . S
C1621 C1619 1.327 . S
C1622 C1610 1.349 . S
C1622 H1616 0.950 . S
C1622 C1623 1.327 . S
C1623 H1617 0.950 . S
C1623 C1622 1.327 . S
C1623 C1627 1.429 . S
C1624 C1607 1.574 . S
C1624 H1618 0.949 . S
C1624 C1628 1.368 . S
C1625 C1606 1.429 . S
C1625 C1619 1.429 . S
C1625 C1626 1.523 . S
C1626 C1607 1.368 . S
C1626 C1620 1.368 . S
C1626 C1625 1.523 . S
C1627 C1611 1.429 . S
C1627 C1623 1.429 . S
C1627 C1628 1.523 . S
C1628 C1612 1.368 . S
C1628 C1624 1.368 . S
C1628 C1627 1.523 . S
H1629 C1604 0.950 . S
H1630 C1606 0.950 . S
H1631 C1607 0.949 . S
H1632 C1609 0.950 . S
H1633 C1611 0.950 . S
C1634 C1635 1.349 . S
C1634 C1636 1.327 . S
C1634 H1659 0.950 . S
C1635 C1634 1.349 . S
C1635 C1651 1.349 . S
C1636 C1634 1.327 . S
C1636 C1655 1.429 . S
C1636 H1660 0.950 . S
C1637 C1654 1.574 . S
C1637 C1656 1.368 . S
C1637 H1661 0.949 . S
H1638 C1642 0.949 . S
C1639 C1640 1.349 . S
C1639 C1641 1.327 . S
C1639 H1662 0.950 . S
C1640 C1639 1.349 . S
C1640 C1652 1.349 . S
C1641 C1639 1.327 . S
C1641 C1657 1.429 . S
C1641 H1663 0.950 . S
C1642 H1638 0.949 . S
C1642 C1650 1.574 . S
C1642 C1658 1.368 . S
H1643 C1651 0.950 . S
H1644 C1649 0.950 . S
H1645 C1650 0.949 . S
H1646 C1652 0.950 . S
H1647 C1653 0.950 . S
H1648 C1654 0.949 . S
C1649 H1644 0.950 . S
C1649 C1651 1.327 . S
C1649 C1655 1.429 . S
C1650 C1642 1.574 . S
C1650 H1645 0.949 . S
C1650 C1656 1.368 . S
C1651 C1635 1.349 . S
C1651 H1643 0.950 . S
C1651 C1649 1.327 . S
C1652 C1640 1.349 . S
C1652 H1646 0.950 . S
C1652 C1653 1.327 . S
C1653 H1647 0.950 . S
C1653 C1652 1.327 . S
C1653 C1657 1.429 . S
C1654 C1637 1.574 . S
C1654 H1648 0.949 . S
C1654 C1658 1.368 . S
C1655 C1636 1.429 . S
C1655 C1649 1.429 . S
C1655 C1656 1.523 . S
C1656 C1637 1.368 . S
C1656 C1650 1.368 . S
C1656 C1655 1.523 . S
C1657 C1641 1.429 . S
C1657 C1653 1.429 . S
C1657 C1658 1.523 . S
C1658 C1642 1.368 . S
C1658 C1654 1.368 . S
C1658 C1657 1.523 . S
H1659 C1634 0.950 . S
H1660 C1636 0.950 . S
H1661 C1637 0.949 . S
H1662 C1639 0.950 . S
H1663 C1641 0.950 . S
C1664 C1665 1.349 . S
C1664 C1666 1.327 . S
C1664 H1689 0.950 . S
C1665 C1664 1.349 . S
C1665 C1681 1.349 . S
C1666 C1664 1.327 . S
C1666 C1685 1.429 . S
C1666 H1690 0.950 1_455 S
C1667 C1684 1.574 . S
C1667 C1686 1.368 . S
C1667 H1691 0.949 . S
H1668 C1672 0.949 . S
C1669 C1670 1.349 . S
C1669 C1671 1.327 . S
C1669 H1692 0.950 . S
C1670 C1669 1.349 . S
C1670 C1682 1.349 . S
C1671 C1669 1.327 . S
C1671 C1687 1.429 . S
C1671 H1693 0.950 1_655 S
C1672 H1668 0.949 . S
C1672 C1680 1.574 . S
C1672 C1688 1.368 . S
H1673 C1681 0.950 . S
H1674 C1679 0.950 . S
H1675 C1680 0.949 . S
H1676 C1682 0.950 . S
H1677 C1683 0.950 . S
H1678 C1684 0.949 . S
C1679 H1674 0.950 . S
C1679 C1681 1.327 . S
C1679 C1685 1.429 . S
C1680 C1672 1.574 . S
C1680 H1675 0.949 . S
C1680 C1686 1.368 1_655 S
C1681 C1665 1.349 . S
C1681 H1673 0.950 . S
C1681 C1679 1.327 . S
C1682 C1670 1.349 . S
C1682 H1676 0.950 . S
C1682 C1683 1.327 . S
C1683 H1677 0.950 . S
C1683 C1682 1.327 . S
C1683 C1687 1.429 . S
C1684 C1667 1.574 . S
C1684 H1678 0.949 . S
C1684 C1688 1.368 1_455 S
C1685 C1666 1.429 . S
C1685 C1679 1.429 . S
C1685 C1686 1.523 . S
C1686 C1667 1.368 . S
C1686 C1680 1.368 1_455 S
C1686 C1685 1.523 . S
C1687 C1671 1.429 . S
C1687 C1683 1.429 . S
C1687 C1688 1.523 . S
C1688 C1672 1.368 . S
C1688 C1684 1.368 1_655 S
C1688 C1687 1.523 . S
H1689 C1664 0.950 . S
H1690 C1666 0.950 1_655 S
H1691 C1667 0.949 . S
H1692 C1669 0.950 . S
H1693 C1671 0.950 1_455 S
C1694 C1695 1.349 . S
C1694 C1696 1.327 . S
C1694 H1719 0.950 . S
C1695 C1694 1.349 . S
C1695 C1711 1.349 . S
C1696 C1694 1.327 . S
C1696 C1715 1.429 . S
C1696 H1720 0.950 . S
C1697 C1714 1.574 . S
C1697 C1716 1.368 1_545 S
C1697 H1721 0.949 . S
H1698 C1702 0.949 . S
C1699 C1700 1.349 . S
C1699 C1701 1.327 . S
C1699 H1722 0.950 . S
C1700 C1699 1.349 . S
C1700 C1712 1.349 . S
C1701 C1699 1.327 . S
C1701 C1717 1.429 . S
C1701 H1723 0.950 . S
C1702 H1698 0.949 . S
C1702 C1710 1.574 . S
C1702 C1718 1.368 1_565 S
H1703 C1711 0.967 . S
H1704 C1709 0.950 1_545 S
H1705 C1710 0.949 . S
H1706 C1712 0.967 . S
H1707 C1713 0.950 1_565 S
H1708 C1714 0.949 . S
C1709 H1704 0.950 1_565 S
C1709 C1711 1.327 . S
C1709 C1715 1.429 . S
C1710 C1702 1.574 . S
C1710 H1705 0.949 . S
C1710 C1716 1.368 . S
C1711 C1695 1.349 . S
C1711 H1703 0.967 . S
C1711 C1709 1.327 . S
C1712 C1700 1.349 . S
C1712 H1706 0.967 . S
C1712 C1713 1.327 . S
C1713 H1707 0.950 1_545 S
C1713 C1712 1.327 . S
C1713 C1717 1.429 . S
C1714 C1697 1.574 . S
C1714 H1708 0.949 . S
C1714 C1718 1.368 . S
C1715 C1696 1.429 . S
C1715 C1709 1.429 . S
C1715 C1716 1.523 . S
C1716 C1697 1.368 1_565 S
C1716 C1710 1.368 . S
C1716 C1715 1.523 . S
C1717 C1701 1.429 . S
C1717 C1713 1.429 . S
C1717 C1718 1.523 . S
C1718 C1702 1.368 1_545 S
C1718 C1714 1.368 . S
C1718 C1717 1.523 . S
H1719 C1694 0.950 . S
H1720 C1696 0.950 . S
H1721 C1697 0.949 . S
H1722 C1699 0.950 . S
H1723 C1701 0.950 . S
C1724 C1725 1.349 . S
C1724 C1726 1.327 . S
C1724 H1749 0.950 . S
C1725 C1724 1.349 . S
C1725 C1741 1.349 . S
C1726 C1724 1.327 . S
C1726 C1745 1.429 . S
C1726 H1750 0.950 1_455 S
C1727 C1744 1.574 . S
C1727 C1746 1.368 . S
C1727 H1751 0.949 . S
H1728 C1732 0.949 . S
C1729 C1730 1.349 . S
C1729 C1731 1.327 . S
C1729 H1752 0.950 . S
C1730 C1729 1.349 . S
C1730 C1742 1.349 . S
C1731 C1729 1.327 . S
C1731 C1747 1.429 . S
C1731 H1753 0.950 1_655 S
C1732 H1728 0.949 . S
C1732 C1740 1.574 . S
C1732 C1748 1.368 . S
H1733 C1741 0.950 . S
H1734 C1739 0.950 . S
H1735 C1740 0.949 . S
H1736 C1742 0.950 . S
H1737 C1743 0.950 . S
H1738 C1744 0.949 . S
C1739 H1734 0.950 . S
C1739 C1741 1.327 . S
C1739 C1745 1.429 . S
C1740 C1732 1.574 . S
C1740 H1735 0.949 . S
C1740 C1746 1.368 1_655 S
C1741 C1725 1.349 . S
C1741 H1733 0.950 . S
C1741 C1739 1.327 . S
C1742 C1730 1.349 . S
C1742 H1736 0.950 . S
C1742 C1743 1.327 . S
C1743 H1737 0.950 . S
C1743 C1742 1.327 . S
C1743 C1747 1.429 . S
C1744 C1727 1.574 . S
C1744 H1738 0.949 . S
C1744 C1748 1.368 1_455 S
C1745 C1726 1.429 . S
C1745 C1739 1.429 . S
C1745 C1746 1.523 . S
C1746 C1727 1.368 . S
C1746 C1740 1.368 1_455 S
C1746 C1745 1.523 . S
C1747 C1731 1.429 . S
C1747 C1743 1.429 . S
C1747 C1748 1.523 . S
C1748 C1732 1.368 . S
C1748 C1744 1.368 1_655 S
C1748 C1747 1.523 . S
H1749 C1724 0.950 . S
H1750 C1726 0.950 1_655 S
H1751 C1727 0.949 . S
H1752 C1729 0.950 . S
H1753 C1731 0.950 1_455 S
C1754 C1755 1.349 . S
C1754 C1756 1.340 . S
C1754 H1779 0.950 1_545 S
C1755 C1754 1.349 . S
C1755 C1771 1.349 . S
C1756 C1754 1.340 . S
C1756 C1775 1.450 . S
C1756 H1780 0.916 1_545 S
C1757 C1774 1.574 . S
C1757 C1776 1.368 . S
C1757 H1781 0.949 . S
H1758 C1762 0.949 . S
C1759 C1760 1.349 . S
C1759 C1761 1.340 . S
C1759 H1782 0.950 1_565 S
C1760 C1759 1.349 . S
C1760 C1772 1.349 . S
C1761 C1759 1.340 . S
C1761 C1777 1.450 . S
C1761 H1783 0.916 1_565 S
C1762 H1758 0.949 . S
C1762 C1770 1.574 . S
C1762 C1778 1.368 . S
H1763 C1771 0.950 . S
H1764 C1769 0.950 . S
H1765 C1770 0.949 . S
H1766 C1772 0.950 . S
H1767 C1773 0.950 . S
H1768 C1774 0.949 . S
C1769 H1764 0.950 . S
C1769 C1771 1.327 . S
C1769 C1775 1.429 . S
C1770 C1762 1.574 . S
C1770 H1765 0.949 . S
C1770 C1776 1.368 1_565 S
C1771 C1755 1.349 . S
C1771 H1763 0.950 . S
C1771 C1769 1.327 . S
C1772 C1760 1.349 . S
C1772 H1766 0.950 . S
C1772 C1773 1.327 . S
C1773 H1767 0.950 . S
C1773 C1772 1.327 . S
C1773 C1777 1.429 . S
C1774 C1757 1.574 . S
C1774 H1768 0.949 . S
C1774 C1778 1.368 1_545 S
C1775 C1756 1.450 . S
C1775 C1769 1.429 . S
C1775 C1776 1.523 . S
C1776 C1757 1.368 . S
C1776 C1770 1.368 1_545 S
C1776 C1775 1.523 . S
C1777 C1761 1.450 . S
C1777 C1773 1.429 . S
C1777 C1778 1.523 . S
C1778 C1762 1.368 . S
C1778 C1774 1.368 1_565 S
C1778 C1777 1.523 . S
H1779 C1754 0.950 1_565 S
H1780 C1756 0.916 1_565 S
H1781 C1757 0.949 . S
H1782 C1759 0.950 1_545 S
H1783 C1761 0.916 1_545 S
C1784 C1785 1.349 . S
C1784 C1786 1.327 . S
C1784 H1809 0.950 . S
C1785 C1784 1.349 . S
C1785 C1801 1.349 . S
C1786 C1784 1.327 . S
C1786 C1805 1.429 . S
C1786 H1810 0.950 . S
C1787 C1804 1.574 1_556 S
C1787 C1806 1.368 . S
C1787 H1811 0.949 . S
H1788 C1792 0.949 . S
C1789 C1790 1.349 . S
C1789 C1791 1.327 . S
C1789 H1812 0.950 . S
C1790 C1789 1.349 . S
C1790 C1802 1.349 . S
C1791 C1789 1.327 . S
C1791 C1807 1.429 . S
C1791 H1813 0.950 . S
C1792 H1788 0.949 . S
C1792 C1800 1.574 1_554 S
C1792 C1808 1.368 . S
H1793 C1801 0.950 . S
H1794 C1799 0.950 . S
H1795 C1800 0.949 . S
H1796 C1802 0.950 . S
H1797 C1803 0.950 . S
H1798 C1804 0.949 . S
C1799 H1794 0.950 . S
C1799 C1801 1.327 . S
C1799 C1805 1.429 . S
C1800 C1792 1.574 1_556 S
C1800 H1795 0.949 . S
C1800 C1806 1.368 . S
C1801 C1785 1.349 . S
C1801 H1793 0.950 . S
C1801 C1799 1.327 . S
C1802 C1790 1.349 . S
C1802 H1796 0.950 . S
C1802 C1803 1.327 . S
C1803 H1797 0.950 . S
C1803 C1802 1.327 . S
C1803 C1807 1.429 . S
C1804 C1787 1.574 1_554 S
C1804 H1798 0.949 . S
C1804 C1808 1.368 . S
C1805 C1786 1.429 . S
C1805 C1799 1.429 . S
C1805 C1806 1.523 . S
C1806 C1787 1.368 . S
C1806 C1800 1.368 . S
C1806 C1805 1.523 . S
C1807 C1791 1.429 . S
C1807 C1803 1.429 . S
C1807 C1808 1.523 . S
C1808 C1792 1.368 . S
C1808 C1804 1.368 . S
C1808 C1807 1.523 . S
H1809 C1784 0.950 . S
H1810 C1786 0.950 . S
H1811 C1787 0.949 . S
H1812 C1789 0.950 . S
H1813 C1791 0.950 . S
C1814 C1815 1.349 . S
C1814 C1816 1.327 . S
C1814 H1839 0.950 . S
C1815 C1814 1.349 . S
C1815 C1831 1.349 . S
C1816 C1814 1.327 . S
C1816 C1835 1.429 . S
C1816 H1840 0.950 . S
C1817 C1834 1.574 1_556 S
C1817 C1836 1.368 . S
C1817 H1841 0.949 . S
H1818 C1822 0.949 . S
C1819 C1820 1.349 . S
C1819 C1821 1.327 . S
C1819 H1842 0.950 . S
C1820 C1819 1.349 . S
C1820 C1832 1.349 . S
C1821 C1819 1.327 . S
C1821 C1837 1.429 . S
C1821 H1843 0.950 . S
C1822 H1818 0.949 . S
C1822 C1830 1.574 1_554 S
C1822 C1838 1.368 . S
H1823 C1831 0.950 . S
H1824 C1829 0.950 . S
H1825 C1830 0.949 . S
H1826 C1832 0.950 . S
H1827 C1833 0.950 . S
H1828 C1834 0.949 . S
C1829 H1824 0.950 . S
C1829 C1831 1.327 . S
C1829 C1835 1.429 . S
C1830 C1822 1.574 1_556 S
C1830 H1825 0.949 . S
C1830 C1836 1.368 . S
C1831 C1815 1.349 . S
C1831 H1823 0.950 . S
C1831 C1829 1.327 . S
C1832 C1820 1.349 . S
C1832 H1826 0.950 . S
C1832 C1833 1.327 . S
C1833 H1827 0.950 . S
C1833 C1832 1.327 . S
C1833 C1837 1.429 . S
C1834 C1817 1.574 1_554 S
C1834 H1828 0.949 . S
C1834 C1838 1.368 . S
C1835 C1816 1.429 . S
C1835 C1829 1.429 . S
C1835 C1836 1.523 . S
C1836 C1817 1.368 . S
C1836 C1830 1.368 . S
C1836 C1835 1.523 . S
C1837 C1821 1.429 . S
C1837 C1833 1.429 . S
C1837 C1838 1.523 . S
C1838 C1822 1.368 . S
C1838 C1834 1.368 . S
C1838 C1837 1.523 . S
H1839 C1814 0.950 . S
H1840 C1816 0.950 . S
H1841 C1817 0.949 . S
H1842 C1819 0.950 . S
H1843 C1821 0.950 . S
C1844 C1845 1.349 . S
C1844 C1846 1.327 . S
C1844 H1869 0.950 . S
C1845 C1844 1.349 . S
C1845 C1861 1.349 . S
C1846 C1844 1.327 . S
C1846 C1865 1.429 . S
C1846 H1870 0.950 . S
C1847 C1864 1.574 1_554 S
C1847 C1866 1.368 . S
C1847 H1871 0.949 . S
H1848 C1852 0.949 . S
C1849 C1850 1.349 . S
C1849 C1851 1.327 . S
C1849 H1872 0.950 . S
C1850 C1849 1.349 . S
C1850 C1862 1.349 . S
C1851 C1849 1.327 . S
C1851 C1867 1.429 . S
C1851 H1873 0.950 . S
C1852 H1848 0.949 . S
C1852 C1860 1.574 1_556 S
C1852 C1868 1.368 . S
H1853 C1861 0.950 . S
H1854 C1859 0.950 . S
H1855 C1860 0.949 . S
H1856 C1862 0.950 . S
H1857 C1863 0.950 . S
H1858 C1864 0.949 . S
C1859 H1854 0.950 . S
C1859 C1861 1.327 . S
C1859 C1865 1.429 . S
C1860 C1852 1.574 1_554 S
C1860 H1855 0.949 . S
C1860 C1866 1.368 . S
C1861 C1845 1.349 . S
C1861 H1853 0.950 . S
C1861 C1859 1.327 . S
C1862 C1850 1.349 . S
C1862 H1856 0.950 . S
C1862 C1863 1.327 . S
C1863 H1857 0.950 . S
C1863 C1862 1.327 . S
C1863 C1867 1.429 . S
C1864 C1847 1.574 1_556 S
C1864 H1858 0.949 . S
C1864 C1868 1.368 . S
C1865 C1846 1.429 . S
C1865 C1859 1.429 . S
C1865 C1866 1.523 . S
C1866 C1847 1.368 . S
C1866 C1860 1.368 . S
C1866 C1865 1.523 . S
C1867 C1851 1.429 . S
C1867 C1863 1.429 . S
C1867 C1868 1.523 . S
C1868 C1852 1.368 . S
C1868 C1864 1.368 . S
C1868 C1867 1.523 . S
H1869 C1844 0.950 . S
H1870 C1846 0.950 . S
H1871 C1847 0.949 . S
H1872 C1849 0.950 . S
H1873 C1851 0.950 . S
C1874 C1875 1.349 . S
C1874 C1876 1.327 . S
C1874 H1899 0.950 . S
C1875 C1874 1.349 . S
C1875 C1891 1.349 . S
C1876 C1874 1.327 . S
C1876 C1895 1.429 . S
C1876 H1900 0.950 . S
C1877 C1894 1.574 1_556 S
C1877 C1896 1.368 . S
C1877 H1901 0.949 . S
H1878 C1882 0.949 . S
C1879 C1880 1.349 . S
C1879 C1881 1.327 . S
C1879 H1902 0.950 . S
C1880 C1879 1.349 . S
C1880 C1892 1.349 . S
C1881 C1879 1.327 . S
C1881 C1897 1.429 . S
C1881 H1903 0.950 . S
C1882 H1878 0.949 . S
C1882 C1890 1.574 1_554 S
C1882 C1898 1.368 . S
H1883 C1891 0.950 . S
H1884 C1889 0.950 . S
H1885 C1890 0.949 . S
H1886 C1892 0.950 . S
H1887 C1893 0.950 . S
H1888 C1894 0.949 . S
C1889 H1884 0.950 . S
C1889 C1891 1.327 . S
C1889 C1895 1.429 . S
C1890 C1882 1.574 1_556 S
C1890 H1885 0.949 . S
C1890 C1896 1.368 . S
C1891 C1875 1.349 . S
C1891 H1883 0.950 . S
C1891 C1889 1.327 . S
C1892 C1880 1.349 . S
C1892 H1886 0.950 . S
C1892 C1893 1.327 . S
C1893 H1887 0.950 . S
C1893 C1892 1.327 . S
C1893 C1897 1.429 . S
C1894 C1877 1.574 1_554 S
C1894 H1888 0.949 . S
C1894 C1898 1.368 . S
C1895 C1876 1.429 . S
C1895 C1889 1.429 . S
C1895 C1896 1.523 . S
C1896 C1877 1.368 . S
C1896 C1890 1.368 . S
C1896 C1895 1.523 . S
C1897 C1881 1.429 . S
C1897 C1893 1.429 . S
C1897 C1898 1.523 . S
C1898 C1882 1.368 . S
C1898 C1894 1.368 . S
C1898 C1897 1.523 . S
H1899 C1874 0.950 . S
H1900 C1876 0.950 . S
H1901 C1877 0.949 . S
H1902 C1879 0.950 . S
H1903 C1881 0.950 . S
C945 C3 1.610 . S
C950 C229 1.632 1_545 S
C975 C52 1.632 1_655 S
C980 C62 1.610 . S
C1005 C111 1.632 1_565 S
C1010 C121 1.610 . S
C1035 C170 1.632 1_455 S
C1040 C180 1.610 . S
C1065 C239 1.610 . S
C1070 C347 1.632 1_565 S
C1095 C298 1.610 . S
C1100 C406 1.632 1_455 S
C1125 C357 1.610 . S
C1130 C465 1.632 1_545 S
C1155 C416 1.610 . S
C1160 C288 1.632 1_655 S
C1185 C475 1.610 . S
C1190 C701 1.632 . S
C1215 C524 1.632 . S
C1220 C534 1.610 . S
C1245 C583 1.632 . S
C1250 C593 1.610 . S
C1275 C652 1.610 . S
C1280 C642 1.632 . S
C1305 C819 1.632 . S
C1310 C711 1.610 . S
C1335 C878 1.632 . S
C1340 C770 1.610 . S
C1365 C829 1.610 . S
C1370 C937 1.632 . S
C1395 C888 1.610 . S
C1400 C760 1.632 . S
C1425 C5 1.343 . S
C1430 C890 1.343 . S
C1455 C64 1.343 . S
C1460 C713 1.343 . S
C1485 C772 1.343 . S
C1490 C123 1.343 . S
C1515 C182 1.343 . S
C1520 C831 1.343 . S
C1545 C536 1.343 . S
C1550 C241 1.343 . S
C1575 C595 1.343 . S
C1580 C300 1.343 . S
C1605 C359 1.343 . S
C1610 C654 1.343 . S
C1635 C418 1.343 . S
C1640 C477 1.343 . S
C1665 C33 1.676 . S
C1670 C387 1.676 . S
C1695 C446 1.676 . S
C1700 C92 1.676 . S
C1725 C269 1.676 . S
C1730 C151 1.676 . S
C1755 C328 1.676 . S
C1760 C210 1.676 . S
C1785 C505 1.676 . S
C1790 C859 1.676 . S
C1815 C564 1.676 . S
C1820 C918 1.676 . S
C1845 C741 1.676 . S
C1850 C623 1.676 . S
C1875 C682 1.676 . S
C1880 C800 1.676 . S
