# Generated by pormake.
# Topology unr, (4)-cn, num edge types: 1
# Building blocks:
#     Node 0, Type 0, BuildingBlock: CEKHIL_clean_sbu_0, # of connection points: 4
#     Node 1, Type 0, BuildingBlock: CEKHIL_clean_sbu_0, # of connection points: 4
#     Node 2, Type 0, BuildingBlock: CEKHIL_clean_sbu_0, # of connection points: 4
#     Node 3, Type 0, BuildingBlock: CEKHIL_clean_sbu_0, # of connection points: 4
#     Node 4, Type 0, BuildingBlock: CEKHIL_clean_sbu_0, # of connection points: 4
#     Node 5, Type 0, BuildingBlock: CEKHIL_clean_sbu_0, # of connection points: 4
#     Node 6, Type 0, BuildingBlock: CEKHIL_clean_sbu_0, # of connection points: 4
#     Node 7, Type 0, BuildingBlock: CEKHIL_clean_sbu_0, # of connection points: 4
#     Node 8, Type 0, BuildingBlock: CEKHIL_clean_sbu_0, # of connection points: 4
#     Node 9, Type 0, BuildingBlock: CEKHIL_clean_sbu_0, # of connection points: 4
#     Node 10, Type 0, BuildingBlock: CEKHIL_clean_sbu_0, # of connection points: 4
#     Node 11, Type 0, BuildingBlock: CEKHIL_clean_sbu_0, # of connection points: 4
#     Node 12, Type 0, BuildingBlock: CEKHIL_clean_sbu_0, # of connection points: 4
#     Node 13, Type 0, BuildingBlock: CEKHIL_clean_sbu_0, # of connection points: 4
#     Node 14, Type 0, BuildingBlock: CEKHIL_clean_sbu_0, # of connection points: 4
#     Node 15, Type 0, BuildingBlock: CEKHIL_clean_sbu_0, # of connection points: 4
#     Node 16, Type 0, BuildingBlock: CEKHIL_clean_sbu_0, # of connection points: 4
#     Node 17, Type 0, BuildingBlock: CEKHIL_clean_sbu_0, # of connection points: 4
#     Node 18, Type 0, BuildingBlock: CEKHIL_clean_sbu_0, # of connection points: 4
#     Node 19, Type 0, BuildingBlock: CEKHIL_clean_sbu_0, # of connection points: 4
#     Node 20, Type 0, BuildingBlock: CEKHIL_clean_sbu_0, # of connection points: 4
#     Node 21, Type 0, BuildingBlock: CEKHIL_clean_sbu_0, # of connection points: 4
#     Node 22, Type 0, BuildingBlock: CEKHIL_clean_sbu_0, # of connection points: 4
#     Node 23, Type 0, BuildingBlock: CEKHIL_clean_sbu_0, # of connection points: 4
#     Node 24, Type 0, BuildingBlock: CEKHIL_clean_sbu_0, # of connection points: 4
#     Node 25, Type 0, BuildingBlock: CEKHIL_clean_sbu_0, # of connection points: 4
#     Node 26, Type 0, BuildingBlock: CEKHIL_clean_sbu_0, # of connection points: 4
#     Node 27, Type 0, BuildingBlock: CEKHIL_clean_sbu_0, # of connection points: 4
#     Node 28, Type 0, BuildingBlock: CEKHIL_clean_sbu_0, # of connection points: 4
#     Node 29, Type 0, BuildingBlock: CEKHIL_clean_sbu_0, # of connection points: 4
#     Node 30, Type 0, BuildingBlock: CEKHIL_clean_sbu_0, # of connection points: 4
#     Node 31, Type 0, BuildingBlock: CEKHIL_clean_sbu_0, # of connection points: 4
#     Node 32, Type 0, BuildingBlock: CEKHIL_clean_sbu_0, # of connection points: 4
#     Node 33, Type 0, BuildingBlock: CEKHIL_clean_sbu_0, # of connection points: 4
#     Node 34, Type 0, BuildingBlock: CEKHIL_clean_sbu_0, # of connection points: 4
#     Node 35, Type 0, BuildingBlock: CEKHIL_clean_sbu_0, # of connection points: 4
#     Edge 36, Type (0, 0), BuildingBlock: XIVTED_clean_linker_0, # of connection points: 2
#     Edge 37, Type (0, 0), BuildingBlock: XIVTED_clean_linker_0, # of connection points: 2
#     Edge 38, Type (0, 0), BuildingBlock: XIVTED_clean_linker_0, # of connection points: 2
#     Edge 39, Type (0, 0), BuildingBlock: XIVTED_clean_linker_0, # of connection points: 2
#     Edge 40, Type (0, 0), BuildingBlock: XIVTED_clean_linker_0, # of connection points: 2
#     Edge 41, Type (0, 0), BuildingBlock: XIVTED_clean_linker_0, # of connection points: 2
#     Edge 42, Type (0, 0), BuildingBlock: XIVTED_clean_linker_0, # of connection points: 2
#     Edge 43, Type (0, 0), BuildingBlock: XIVTED_clean_linker_0, # of connection points: 2
#     Edge 44, Type (0, 0), BuildingBlock: XIVTED_clean_linker_0, # of connection points: 2
#     Edge 45, Type (0, 0), BuildingBlock: XIVTED_clean_linker_0, # of connection points: 2
#     Edge 46, Type (0, 0), BuildingBlock: XIVTED_clean_linker_0, # of connection points: 2
#     Edge 47, Type (0, 0), BuildingBlock: XIVTED_clean_linker_0, # of connection points: 2
#     Edge 48, Type (0, 0), BuildingBlock: XIVTED_clean_linker_0, # of connection points: 2
#     Edge 49, Type (0, 0), BuildingBlock: XIVTED_clean_linker_0, # of connection points: 2
#     Edge 50, Type (0, 0), BuildingBlock: XIVTED_clean_linker_0, # of connection points: 2
#     Edge 51, Type (0, 0), BuildingBlock: XIVTED_clean_linker_0, # of connection points: 2
#     Edge 52, Type (0, 0), BuildingBlock: XIVTED_clean_linker_0, # of connection points: 2
#     Edge 53, Type (0, 0), BuildingBlock: XIVTED_clean_linker_0, # of connection points: 2
#     Edge 54, Type (0, 0), BuildingBlock: XIVTED_clean_linker_0, # of connection points: 2
#     Edge 55, Type (0, 0), BuildingBlock: XIVTED_clean_linker_0, # of connection points: 2
#     Edge 56, Type (0, 0), BuildingBlock: XIVTED_clean_linker_0, # of connection points: 2
#     Edge 57, Type (0, 0), BuildingBlock: XIVTED_clean_linker_0, # of connection points: 2
#     Edge 58, Type (0, 0), BuildingBlock: XIVTED_clean_linker_0, # of connection points: 2
#     Edge 59, Type (0, 0), BuildingBlock: XIVTED_clean_linker_0, # of connection points: 2
#     Edge 60, Type (0, 0), BuildingBlock: XIVTED_clean_linker_0, # of connection points: 2
#     Edge 61, Type (0, 0), BuildingBlock: XIVTED_clean_linker_0, # of connection points: 2
#     Edge 62, Type (0, 0), BuildingBlock: XIVTED_clean_linker_0, # of connection points: 2
#     Edge 63, Type (0, 0), BuildingBlock: XIVTED_clean_linker_0, # of connection points: 2
#     Edge 64, Type (0, 0), BuildingBlock: XIVTED_clean_linker_0, # of connection points: 2
#     Edge 65, Type (0, 0), BuildingBlock: XIVTED_clean_linker_0, # of connection points: 2
#     Edge 66, Type (0, 0), BuildingBlock: XIVTED_clean_linker_0, # of connection points: 2
#     Edge 67, Type (0, 0), BuildingBlock: XIVTED_clean_linker_0, # of connection points: 2
#     Edge 68, Type (0, 0), BuildingBlock: XIVTED_clean_linker_0, # of connection points: 2
#     Edge 69, Type (0, 0), BuildingBlock: XIVTED_clean_linker_0, # of connection points: 2
#     Edge 70, Type (0, 0), BuildingBlock: XIVTED_clean_linker_0, # of connection points: 2
#     Edge 71, Type (0, 0), BuildingBlock: XIVTED_clean_linker_0, # of connection points: 2
#     Edge 72, Type (0, 0), BuildingBlock: XIVTED_clean_linker_0, # of connection points: 2
#     Edge 73, Type (0, 0), BuildingBlock: XIVTED_clean_linker_0, # of connection points: 2
#     Edge 74, Type (0, 0), BuildingBlock: XIVTED_clean_linker_0, # of connection points: 2
#     Edge 75, Type (0, 0), BuildingBlock: XIVTED_clean_linker_0, # of connection points: 2
#     Edge 76, Type (0, 0), BuildingBlock: XIVTED_clean_linker_0, # of connection points: 2
#     Edge 77, Type (0, 0), BuildingBlock: XIVTED_clean_linker_0, # of connection points: 2
#     Edge 78, Type (0, 0), BuildingBlock: XIVTED_clean_linker_0, # of connection points: 2
#     Edge 79, Type (0, 0), BuildingBlock: XIVTED_clean_linker_0, # of connection points: 2
#     Edge 80, Type (0, 0), BuildingBlock: XIVTED_clean_linker_0, # of connection points: 2
#     Edge 81, Type (0, 0), BuildingBlock: XIVTED_clean_linker_0, # of connection points: 2
#     Edge 82, Type (0, 0), BuildingBlock: XIVTED_clean_linker_0, # of connection points: 2
#     Edge 83, Type (0, 0), BuildingBlock: XIVTED_clean_linker_0, # of connection points: 2
#     Edge 84, Type (0, 0), BuildingBlock: XIVTED_clean_linker_0, # of connection points: 2
#     Edge 85, Type (0, 0), BuildingBlock: XIVTED_clean_linker_0, # of connection points: 2
#     Edge 86, Type (0, 0), BuildingBlock: XIVTED_clean_linker_0, # of connection points: 2
#     Edge 87, Type (0, 0), BuildingBlock: XIVTED_clean_linker_0, # of connection points: 2
#     Edge 88, Type (0, 0), BuildingBlock: XIVTED_clean_linker_0, # of connection points: 2
#     Edge 89, Type (0, 0), BuildingBlock: XIVTED_clean_linker_0, # of connection points: 2
#     Edge 90, Type (0, 0), BuildingBlock: XIVTED_clean_linker_0, # of connection points: 2
#     Edge 91, Type (0, 0), BuildingBlock: XIVTED_clean_linker_0, # of connection points: 2
#     Edge 92, Type (0, 0), BuildingBlock: XIVTED_clean_linker_0, # of connection points: 2
#     Edge 93, Type (0, 0), BuildingBlock: XIVTED_clean_linker_0, # of connection points: 2
#     Edge 94, Type (0, 0), BuildingBlock: XIVTED_clean_linker_0, # of connection points: 2
#     Edge 95, Type (0, 0), BuildingBlock: XIVTED_clean_linker_0, # of connection points: 2
#     Edge 96, Type (0, 0), BuildingBlock: XIVTED_clean_linker_0, # of connection points: 2
#     Edge 97, Type (0, 0), BuildingBlock: XIVTED_clean_linker_0, # of connection points: 2
#     Edge 98, Type (0, 0), BuildingBlock: XIVTED_clean_linker_0, # of connection points: 2
#     Edge 99, Type (0, 0), BuildingBlock: XIVTED_clean_linker_0, # of connection points: 2
#     Edge 100, Type (0, 0), BuildingBlock: XIVTED_clean_linker_0, # of connection points: 2
#     Edge 101, Type (0, 0), BuildingBlock: XIVTED_clean_linker_0, # of connection points: 2
#     Edge 102, Type (0, 0), BuildingBlock: XIVTED_clean_linker_0, # of connection points: 2
#     Edge 103, Type (0, 0), BuildingBlock: XIVTED_clean_linker_0, # of connection points: 2
#     Edge 104, Type (0, 0), BuildingBlock: XIVTED_clean_linker_0, # of connection points: 2
#     Edge 105, Type (0, 0), BuildingBlock: XIVTED_clean_linker_0, # of connection points: 2
#     Edge 106, Type (0, 0), BuildingBlock: XIVTED_clean_linker_0, # of connection points: 2
#     Edge 107, Type (0, 0), BuildingBlock: XIVTED_clean_linker_0, # of connection points: 2
# Relax obj value: 0.390
# Max RMSD: 0.181
# Mean RMSD: 0.175
data_MOF--net-unr--node1-CEKHIL_clean_sbu_0--edge1-XIVTED_clean_linker_0
_symmetry_space_group_name_H-M    P1
_symmetry_Int_Tables_number       1
_symmetry_cell_setting            triclinic
loop_
_symmetry_equiv_pos_as_xyz
'x, y, z'
_cell_length_a     48.562305
_cell_length_b     48.546262
_cell_length_c     99.428227
_cell_angle_alpha  90.053593
_cell_angle_beta   89.975763
_cell_angle_gamma 119.95024
loop_
_atom_site_label
_atom_site_type_symbol
_atom_site_fract_x
_atom_site_fract_y
_atom_site_fract_z
_atom_type_partial_charge
Co0 Co 0.20116 0.10467 0.21033 0.0
O1 O 0.23308 0.0949 0.20494 0.0
O2 O 0.19908 0.09828 0.19107 0.0
C3 C 0.23129 0.14696 0.22343 0.0
O4 O 0.1658 0.11543 0.21258 0.0
Co5 Co 0.18223 0.0977 0.24048 0.0
O6 O 0.16091 0.12161 0.23475 0.0
C7 C 0.15821 0.04046 0.2237 0.0
C8 C 0.22308 0.0937 0.19274 0.0
C9 C 0.15462 0.124 0.2225 0.0
O10 O 0.17014 0.05818 0.21328 0.0
O11 O 0.16264 0.05148 0.2357 0.0
O12 O 0.23194 0.14991 0.21045 0.0
O13 O 0.21684 0.11795 0.22777 0.0
Co14 Co 0.89122 0.1026 0.20752 0.0
O15 O 0.8989 0.14349 0.20192 0.0
O16 O 0.89712 0.10655 0.1882 0.0
C17 C 0.84859 0.0886 0.22072 0.0
O18 O 0.88267 0.05723 0.21015 0.0
Co19 Co 0.90029 0.09374 0.23783 0.0
O20 O 0.87806 0.04822 0.23251 0.0
C21 C 0.95646 0.12813 0.22071 0.0
C22 C 0.90039 0.13467 0.18976 0.0
C23 C 0.87528 0.03852 0.22039 0.0
O24 O 0.93821 0.12017 0.21035 0.0
O25 O 0.94595 0.12255 0.23279 0.0
O26 O 0.84554 0.08606 0.20774 0.0
O27 O 0.87763 0.10482 0.22494 0.0
Co28 Co 0.89322 0.79244 0.21019 0.0
O29 O 0.85218 0.75939 0.20464 0.0
O30 O 0.88946 0.79361 0.19085 0.0
C31 C 0.90653 0.76383 0.22376 0.0
O32 O 0.93882 0.82876 0.21264 0.0
Co33 Co 0.90271 0.81209 0.24031 0.0
O34 O 0.94815 0.83415 0.23497 0.0
C35 C 0.87013 0.8351 0.22265 0.0
C36 C 0.86132 0.76888 0.19242 0.0
C37 C 0.9577 0.84028 0.22281 0.0
O38 O 0.87654 0.82277 0.21253 0.0
O39 O 0.87611 0.83122 0.23482 0.0
O40 O 0.9089 0.76263 0.2108 0.0
O41 O 0.89083 0.77742 0.2278 0.0
Co42 Co 0.09595 0.20597 0.29075 0.0
O43 O 0.08479 0.2371 0.29581 0.0
O44 O 0.0889 0.20404 0.30997 0.0
C45 C 0.13855 0.23699 0.27793 0.0
O46 O 0.10821 0.17156 0.28879 0.0
Co47 Co 0.09051 0.18723 0.26059 0.0
O48 O 0.11531 0.16713 0.26665 0.0
C49 C 0.03262 0.16168 0.27699 0.0
C50 C 0.08374 0.22762 0.30809 0.0
C51 C 0.11767 0.16102 0.27893 0.0
O52 O 0.04986 0.17383 0.28753 0.0
O53 O 0.04407 0.16661 0.26507 0.0
O54 O 0.14086 0.23781 0.29094 0.0
O55 O 0.10974 0.22183 0.27336 0.0
Co56 Co 0.78868 0.89218 0.29065 0.0
O57 O 0.75628 0.85099 0.29639 0.0
O58 O 0.7902 0.88911 0.31 0.0
C59 C 0.75938 0.9043 0.27697 0.0
O60 O 0.82439 0.93796 0.28806 0.0
Co61 Co 0.80818 0.90162 0.26052 0.0
O62 O 0.82967 0.94718 0.26573 0.0
C63 C 0.83201 0.8699 0.27828 0.0
C64 C 0.76593 0.86062 0.30856 0.0
C65 C 0.83575 0.95683 0.27789 0.0
O66 O 0.81961 0.87623 0.2884 0.0
O67 O 0.82786 0.87558 0.2661 0.0
O68 O 0.75826 0.90709 0.2899 0.0
O69 O 0.77344 0.88898 0.27304 0.0
Co70 Co 0.10276 0.89992 0.29347 0.0
O71 O 0.14388 0.90858 0.29922 0.0
O72 O 0.10607 0.90512 0.31283 0.0
C73 C 0.09039 0.85802 0.28002 0.0
O74 O 0.057 0.89001 0.29073 0.0
Co75 Co 0.09382 0.90934 0.2632 0.0
O76 O 0.04824 0.88539 0.26835 0.0
C77 C 0.12623 0.96529 0.28068 0.0
C78 C 0.1345 0.90914 0.31137 0.0
C79 C 0.03833 0.8821 0.28045 0.0
O80 O 0.11906 0.94681 0.29093 0.0
O81 O 0.12085 0.95509 0.26854 0.0
O82 O 0.08754 0.85448 0.29297 0.0
O83 O 0.1059 0.88726 0.27597 0.0
Co84 Co 0.81448 0.90387 0.81493 0.0
O85 O 0.7728 0.89406 0.80903 0.0
O86 O 0.78523 0.85908 0.81708 0.0
C87 C 0.82578 0.94739 0.82722 0.0
O88 O 0.85382 0.90474 0.82252 0.0
Co89 Co 0.87515 0.9672 0.80748 0.0
O90 O 0.89606 0.95399 0.82119 0.0
C91 C 0.84595 0.91516 0.78747 0.0
C92 C 0.76366 0.86485 0.81235 0.0
C93 C 0.88286 0.92532 0.8253 0.0
O94 O 0.82563 0.89648 0.79621 0.0
O95 O 0.86566 0.94454 0.78979 0.0
O96 O 0.80851 0.91921 0.83234 0.0
O97 O 0.83256 0.94802 0.81465 0.0
Co98 Co 0.09482 0.91267 0.8206 0.0
O99 O 0.10355 0.87888 0.81698 0.0
O100 O 0.1392 0.92737 0.82374 0.0
C101 C 0.05014 0.88421 0.83279 0.0
O102 O 0.0947 0.95309 0.82588 0.0
Co103 Co 0.03305 0.90984 0.81036 0.0
O104 O 0.04586 0.94638 0.82281 0.0
C105 C 0.08532 0.92401 0.79142 0.0
C106 C 0.13275 0.89892 0.82028 0.0
C107 C 0.07413 0.96219 0.82736 0.0
O108 O 0.10388 0.92687 0.80122 0.0
O109 O 0.0557 0.91443 0.79294 0.0
O110 O 0.0778 0.89541 0.83849 0.0
O111 O 0.05068 0.88763 0.81994 0.0
Co112 Co 0.08172 0.18233 0.81868 0.0
O113 O 0.11447 0.22406 0.8134 0.0
O114 O 0.06694 0.2122 0.8211 0.0
C115 C 0.11279 0.16951 0.83098 0.0
O116 O 0.0424 0.14284 0.82558 0.0
Co117 Co 0.08398 0.12162 0.81064 0.0
O118 O 0.04859 0.10011 0.82375 0.0
C119 C 0.06386 0.15347 0.79073 0.0
C120 C 0.09477 0.23364 0.81676 0.0
C121 C 0.03322 0.11342 0.82789 0.0
O122 O 0.06438 0.17279 0.79975 0.0
O123 O 0.07344 0.13362 0.79291 0.0
O124 O 0.10185 0.18661 0.83628 0.0
O125 O 0.10722 0.16364 0.81833 0.0
Co126 Co 0.89762 0.81989 0.67602 0.0
O127 O 0.88727 0.77763 0.68117 0.0
O128 O 0.85263 0.79133 0.67389 0.0
C129 C 0.94069 0.83134 0.6634 0.0
O130 O 0.89927 0.86031 0.66936 0.0
Co131 Co 0.96178 0.87898 0.68405 0.0
O132 O 0.9489 0.90178 0.67117 0.0
C133 C 0.91002 0.84866 0.70409 0.0
C134 C 0.85808 0.76917 0.67815 0.0
C135 C 0.92024 0.88952 0.66712 0.0
O136 O 0.8909 0.8297 0.69508 0.0
O137 O 0.93954 0.86793 0.70186 0.0
O138 O 0.91239 0.81503 0.65826 0.0
O139 O 0.94163 0.83711 0.67609 0.0
Co140 Co 0.17594 0.07796 0.68151 0.0
O141 O 0.21714 0.10864 0.68835 0.0
O142 O 0.20601 0.06413 0.67769 0.0
C143 C 0.16451 0.11291 0.6716 0.0
O144 O 0.13736 0.04133 0.67249 0.0
Co145 Co 0.11397 0.07709 0.6901 0.0
O146 O 0.09485 0.04774 0.6746 0.0
C147 C 0.1413 0.04705 0.70747 0.0
C148 C 0.22707 0.09029 0.68347 0.0
C149 C 0.10855 0.03355 0.66957 0.0
O150 O 0.16422 0.05413 0.69916 0.0
O151 O 0.12032 0.05539 0.7059 0.0
O152 O 0.18229 0.10388 0.66545 0.0
O153 O 0.15705 0.10309 0.68381 0.0
Co154 Co 0.91034 0.10055 0.68157 0.0
O155 O 0.87708 0.10883 0.68688 0.0
O156 O 0.92495 0.1453 0.67988 0.0
C157 C 0.88033 0.05771 0.66853 0.0
O158 O 0.95022 0.10125 0.6748 0.0
Co159 Co 0.90818 0.03718 0.68872 0.0
O160 O 0.94408 0.05225 0.67578 0.0
C161 C 0.92786 0.08778 0.7093 0.0
C162 C 0.89684 0.13842 0.68406 0.0
C163 C 0.95961 0.0813 0.67217 0.0
O164 O 0.92676 0.10689 0.70063 0.0
O165 O 0.91886 0.05864 0.7067 0.0
O166 O 0.89128 0.08616 0.66369 0.0
O167 O 0.88512 0.05632 0.68119 0.0
Co168 Co 0.86959 0.43562 0.54597 0.0
O169 O 0.90237 0.42695 0.54073 0.0
O170 O 0.86859 0.43012 0.52666 0.0
C171 C 0.89846 0.47772 0.55937 0.0
O172 O 0.83351 0.44541 0.54809 0.0
Co173 Co 0.84964 0.42703 0.57604 0.0
O174 O 0.82795 0.45058 0.57031 0.0
C175 C 0.82754 0.37063 0.5589 0.0
C176 C 0.893 0.42625 0.52846 0.0
C177 C 0.82195 0.45342 0.55806 0.0
O178 O 0.83912 0.38881 0.54858 0.0
O179 O 0.83167 0.38116 0.57097 0.0
O180 O 0.89964 0.48105 0.5464 0.0
O181 O 0.88449 0.44857 0.56353 0.0
Co182 Co 0.56004 0.43632 0.54141 0.0
O183 O 0.56838 0.4775 0.53587 0.0
O184 O 0.56632 0.44051 0.52212 0.0
C185 C 0.5173 0.42288 0.55446 0.0
O186 O 0.5508 0.39072 0.54383 0.0
Co187 Co 0.5675 0.42569 0.57171 0.0
O188 O 0.54491 0.38038 0.56608 0.0
C189 C 0.62458 0.45959 0.55492 0.0
C190 C 0.56978 0.4687 0.5237 0.0
C191 C 0.54275 0.37138 0.55387 0.0
O192 O 0.60686 0.45312 0.54444 0.0
O193 O 0.61351 0.45324 0.56691 0.0
O194 O 0.51446 0.42043 0.54148 0.0
O195 O 0.54627 0.43845 0.5588 0.0
Co196 Co 0.56111 0.12529 0.54339 0.0
O197 O 0.5203 0.09323 0.53711 0.0
O198 O 0.55904 0.12824 0.52405 0.0
C199 C 0.57248 0.09494 0.55676 0.0
O200 O 0.60671 0.16094 0.54659 0.0
Co201 Co 0.56941 0.14255 0.57377 0.0
O202 O 0.61517 0.1646 0.56897 0.0
C203 C 0.53876 0.16812 0.55625 0.0
C204 C 0.53053 0.10381 0.5251 0.0
C205 C 0.62523 0.1717 0.55691 0.0
O206 O 0.54481 0.15587 0.54599 0.0
O207 O 0.54446 0.16349 0.56835 0.0
O208 O 0.57617 0.09495 0.54383 0.0
O209 O 0.55697 0.1087 0.56078 0.0
Co210 Co 0.76081 0.53941 0.62622 0.0
O211 O 0.75117 0.57173 0.63117 0.0
O212 O 0.75411 0.53825 0.64546 0.0
C213 C 0.80374 0.56905 0.61332 0.0
O214 O 0.77149 0.50383 0.62438 0.0
Co215 Co 0.75447 0.5201 0.59609 0.0
O216 O 0.77806 0.49879 0.60224 0.0
C217 C 0.6969 0.49624 0.61258 0.0
C218 C 0.7501 0.56254 0.64349 0.0
C219 C 0.78028 0.49265 0.61453 0.0
O220 O 0.71433 0.50825 0.62308 0.0
O221 O 0.70821 0.50075 0.60064 0.0
O222 O 0.80607 0.5701 0.62632 0.0
O223 O 0.77489 0.55472 0.60878 0.0
Co224 Co 0.45211 0.22614 0.6246 0.0
O225 O 0.41903 0.18506 0.63008 0.0
O226 O 0.45313 0.22231 0.64396 0.0
C227 C 0.4236 0.2394 0.61096 0.0
O228 O 0.48854 0.27173 0.62221 0.0
Co229 Co 0.47185 0.23596 0.59448 0.0
O230 O 0.4943 0.28142 0.59991 0.0
C231 C 0.49345 0.20185 0.61197 0.0
C232 C 0.42859 0.19407 0.64231 0.0
C233 C 0.50037 0.29078 0.61211 0.0
O234 O 0.48224 0.20919 0.62221 0.0
O235 O 0.48918 0.20771 0.59984 0.0
O236 O 0.42244 0.24205 0.62391 0.0
O237 O 0.43721 0.2237 0.607 0.0
Co238 Co 0.76179 0.22882 0.62833 0.0
O239 O 0.80309 0.23834 0.63422 0.0
O240 O 0.76471 0.23403 0.64769 0.0
C241 C 0.75064 0.18703 0.61497 0.0
O242 O 0.71577 0.218 0.62541 0.0
Co243 Co 0.75292 0.23769 0.59799 0.0
O244 O 0.70732 0.21283 0.60301 0.0
C245 C 0.78407 0.29387 0.61546 0.0
C246 C 0.79336 0.23856 0.64634 0.0
C247 C 0.69723 0.20958 0.61507 0.0
O248 O 0.77725 0.27553 0.62573 0.0
O249 O 0.7789 0.28358 0.60334 0.0
O250 O 0.74758 0.18361 0.62791 0.0
O251 O 0.76553 0.21626 0.61088 0.0
Co252 Co 0.47537 0.22305 0.15072 0.0
O253 O 0.43314 0.21441 0.14661 0.0
O254 O 0.44515 0.18019 0.15591 0.0
C255 C 0.49354 0.2711 0.16031 0.0
O256 O 0.51543 0.22352 0.15687 0.0
Co257 Co 0.53433 0.28 0.13761 0.0
O258 O 0.55802 0.27046 0.15149 0.0
C259 C 0.49449 0.22239 0.12171 0.0
C260 C 0.42351 0.18618 0.15144 0.0
C261 C 0.54529 0.2438 0.15759 0.0
O262 O 0.47924 0.20777 0.13237 0.0
O263 O 0.51511 0.25207 0.12142 0.0
O264 O 0.4765 0.24544 0.1673 0.0
O265 O 0.4956 0.26675 0.14764 0.0
Co266 Co 0.76283 0.24929 0.15226 0.0
O267 O 0.77361 0.21878 0.14543 0.0
O268 O 0.8072 0.26414 0.15545 0.0
C269 C 0.71767 0.21426 0.1629 0.0
O270 O 0.76061 0.28603 0.16103 0.0
Co271 Co 0.70025 0.24785 0.14426 0.0
O272 O 0.71165 0.27952 0.15893 0.0
C273 C 0.75596 0.27719 0.12598 0.0
C274 C 0.80215 0.23782 0.14982 0.0
C275 C 0.73974 0.2942 0.16372 0.0
O276 O 0.77301 0.27196 0.13438 0.0
O277 O 0.72641 0.2676 0.12778 0.0
O278 O 0.74501 0.22428 0.16871 0.0
O279 O 0.71886 0.22325 0.15063 0.0
Co280 Co 0.75489 0.51627 0.15281 0.0
O281 O 0.78842 0.55861 0.14889 0.0
O282 O 0.73926 0.54562 0.15463 0.0
C283 C 0.78298 0.50198 0.16633 0.0
O284 O 0.71444 0.47577 0.15799 0.0
Co285 Co 0.7599 0.45718 0.14451 0.0
O286 O 0.72195 0.4338 0.15624 0.0
C287 C 0.7431 0.49081 0.12417 0.0
C288 C 0.76785 0.56763 0.15137 0.0
C289 C 0.7053 0.44619 0.15982 0.0
O290 O 0.74182 0.50898 0.13328 0.0
O291 O 0.75245 0.47083 0.12652 0.0
O292 O 0.77087 0.51852 0.17113 0.0
O293 O 0.78067 0.49787 0.15348 0.0
Co294 Co 0.56144 0.14645 0.01079 0.0
O295 O 0.55364 0.10434 0.01446 0.0
O296 O 0.51915 0.11574 0.005 0.0
C297 C 0.61025 0.16621 0.00177 0.0
O298 O 0.56138 0.18658 0.00507 0.0
Co299 Co 0.61687 0.20487 0.02499 0.0
O300 O 0.60743 0.22921 0.01142 0.0
C301 C 0.55846 0.16297 0.03999 0.0
C302 C 0.52558 0.09433 0.00938 0.0
C303 C 0.58126 0.21663 0.00494 0.0
O304 O 0.54469 0.14855 0.02906 0.0
O305 O 0.588 0.18383 0.04074 0.0
O306 O 0.58522 0.14941 0.99439 0.0
O307 O 0.60487 0.16716 0.01441 0.0
Co308 Co 0.85548 0.42488 0.0166 0.0
O309 O 0.89847 0.45705 0.0206 0.0
O310 O 0.88319 0.40744 0.0146 0.0
C311 C 0.84267 0.45451 0.00333 0.0
O312 O 0.81429 0.38555 0.01116 0.0
Co313 Co 0.79763 0.43175 0.02503 0.0
O314 O 0.7733 0.3945 0.01299 0.0
C315 C 0.83062 0.41406 0.04528 0.0
C316 C 0.9061 0.43548 0.01797 0.0
C317 C 0.78501 0.37738 0.00921 0.0
O318 O 0.84775 0.41138 0.03606 0.0
O319 O 0.81155 0.42456 0.04301 0.0
O320 O 0.85844 0.44168 0.9984 0.0
O321 O 0.83851 0.45193 0.01617 0.0
Co322 Co 0.5878 0.4343 0.01511 0.0
O323 O 0.55618 0.44418 0.02126 0.0
O324 O 0.60338 0.4792 0.01311 0.0
C325 C 0.55489 0.3912 0.00275 0.0
O326 O 0.62596 0.43314 0.00731 0.0
Co327 Co 0.58421 0.37013 0.02199 0.0
O328 O 0.61843 0.3836 0.00833 0.0
C329 C 0.60864 0.42203 0.04219 0.0
C330 C 0.57602 0.47335 0.01785 0.0
C331 C 0.6342 0.41241 0.00441 0.0
O332 O 0.60672 0.4411 0.03374 0.0
O333 O 0.59851 0.39263 0.03966 0.0
O334 O 0.56616 0.41951 0.99772 0.0
O335 O 0.56133 0.3902 0.01524 0.0
Co336 Co 0.54196 0.76418 0.86937 0.0
O337 O 0.57356 0.75516 0.86271 0.0
O338 O 0.53731 0.75782 0.85009 0.0
C339 C 0.57358 0.80698 0.88201 0.0
O340 O 0.50649 0.77423 0.87306 0.0
Co341 Co 0.5282 0.75767 0.90009 0.0
O342 O 0.5052 0.78061 0.89548 0.0
C343 C 0.50225 0.70011 0.8834 0.0
C344 C 0.56205 0.75413 0.85084 0.0
C345 C 0.4968 0.7827 0.88354 0.0
O346 O 0.51195 0.71751 0.87277 0.0
O347 O 0.50887 0.71153 0.89533 0.0
O348 O 0.57214 0.80962 0.86908 0.0
O349 O 0.56036 0.77806 0.88639 0.0
Co350 Co 0.23355 0.76847 0.87633 0.0
O351 O 0.24176 0.80988 0.87126 0.0
O352 O 0.23673 0.77256 0.85695 0.0
C353 C 0.19302 0.75556 0.89066 0.0
O354 O 0.22379 0.72257 0.8783 0.0
Co355 Co 0.24586 0.75814 0.90605 0.0
O356 O 0.22123 0.7128 0.90058 0.0
C357 C 0.30005 0.79085 0.88769 0.0
C358 C 0.24086 0.80091 0.8589 0.0
C359 C 0.21679 0.70345 0.88837 0.0
O360 O 0.28061 0.78447 0.87784 0.0
O361 O 0.29107 0.78493 0.89996 0.0
O362 O 0.18827 0.75336 0.87777 0.0
O363 O 0.22262 0.77084 0.89423 0.0
Co364 Co 0.2316 0.45671 0.87514 0.0
O365 O 0.18994 0.42473 0.86971 0.0
O366 O 0.22753 0.45834 0.85584 0.0
C367 C 0.24329 0.42656 0.88849 0.0
O368 O 0.27769 0.49201 0.87739 0.0
Co369 Co 0.24352 0.47614 0.90528 0.0
O370 O 0.28873 0.49723 0.89956 0.0
C371 C 0.21058 0.50016 0.88828 0.0
C372 C 0.19893 0.4344 0.85749 0.0
C373 C 0.29741 0.50334 0.8873 0.0
O374 O 0.21626 0.48798 0.87789 0.0
O375 O 0.21709 0.4958 0.9003 0.0
O376 O 0.24596 0.42577 0.87553 0.0
O377 O 0.2289 0.44134 0.89265 0.0
Co378 Co 0.44111 0.86484 0.95363 0.0
O379 O 0.43155 0.89714 0.95858 0.0
O380 O 0.43636 0.8649 0.97297 0.0
C381 C 0.4823 0.89392 0.93983 0.0
O382 O 0.45187 0.82934 0.95169 0.0
Co383 Co 0.4314 0.84342 0.92372 0.0
O384 O 0.456 0.82285 0.92947 0.0
C385 C 0.37582 0.82053 0.94141 0.0
C386 C 0.43149 0.88863 0.97093 0.0
C387 C 0.45954 0.81747 0.94172 0.0
O388 O 0.39447 0.83329 0.9515 0.0
O389 O 0.38567 0.82417 0.92924 0.0
O390 O 0.48625 0.89579 0.95277 0.0
O391 O 0.45296 0.87893 0.93591 0.0
Co392 Co 0.12834 0.55477 0.95918 0.0
O393 O 0.09492 0.51446 0.96524 0.0
O394 O 0.13146 0.55153 0.97845 0.0
C395 C 0.0996 0.56932 0.94635 0.0
O396 O 0.16551 0.59966 0.9562 0.0
Co397 Co 0.1446 0.56284 0.92871 0.0
O398 O 0.16888 0.60843 0.93384 0.0
C399 C 0.16721 0.52864 0.94556 0.0
C400 C 0.10597 0.52379 0.97728 0.0
C401 C 0.17657 0.6182 0.94591 0.0
O402 O 0.1569 0.53628 0.95602 0.0
O403 O 0.16219 0.53452 0.93355 0.0
O404 O 0.09992 0.57216 0.95933 0.0
O405 O 0.11163 0.55249 0.94193 0.0
Co406 Co 0.43532 0.55175 0.95804 0.0
O407 O 0.47676 0.5612 0.96372 0.0
O408 O 0.43939 0.55885 0.97729 0.0
C409 C 0.42274 0.5087 0.9453 0.0
O410 O 0.38937 0.54141 0.95545 0.0
Co411 Co 0.42458 0.55792 0.92766 0.0
O412 O 0.37926 0.53519 0.93319 0.0
C413 C 0.45773 0.61568 0.94409 0.0
C414 C 0.46786 0.56298 0.97583 0.0
C415 C 0.37009 0.533 0.94537 0.0
O416 O 0.45133 0.59832 0.95468 0.0
O417 O 0.45158 0.60419 0.93217 0.0
O418 O 0.42037 0.50634 0.9583 0.0
O419 O 0.43783 0.53754 0.94079 0.0
Co420 Co 0.14924 0.56557 0.48755 0.0
O421 O 0.10694 0.55725 0.48382 0.0
O422 O 0.11895 0.52288 0.49294 0.0
C423 C 0.1684 0.61384 0.49705 0.0
O424 O 0.18945 0.56576 0.4933 0.0
Co425 Co 0.20783 0.62204 0.47398 0.0
O426 O 0.23207 0.61232 0.48751 0.0
C427 C 0.16661 0.56448 0.45832 0.0
C428 C 0.09729 0.52903 0.48865 0.0
C429 C 0.21943 0.58579 0.49371 0.0
O430 O 0.15204 0.54995 0.46911 0.0
O431 O 0.1873 0.59412 0.4579 0.0
O432 O 0.15147 0.58836 0.50416 0.0
O433 O 0.16965 0.6092 0.48435 0.0
Co434 Co 0.43466 0.58559 0.48552 0.0
O435 O 0.44408 0.55332 0.47979 0.0
O436 O 0.47938 0.60073 0.48771 0.0
C437 C 0.39116 0.5538 0.49787 0.0
O438 O 0.43416 0.62439 0.49291 0.0
Co439 Co 0.37127 0.58305 0.47811 0.0
O440 O 0.38545 0.61865 0.49116 0.0
C441 C 0.42325 0.60556 0.45807 0.0
C442 C 0.4733 0.57312 0.48316 0.0
C443 C 0.41411 0.63377 0.49531 0.0
O444 O 0.44203 0.60387 0.46675 0.0
O445 O 0.39387 0.5958 0.46043 0.0
O446 O 0.41932 0.56471 0.50301 0.0
O447 O 0.39051 0.55975 0.4853 0.0
Co448 Co 0.42758 0.85522 0.48314 0.0
O449 O 0.45952 0.8979 0.47859 0.0
O450 O 0.41083 0.88344 0.48565 0.0
C451 C 0.45848 0.84277 0.49572 0.0
O452 O 0.38874 0.81429 0.48925 0.0
Co453 Co 0.43345 0.79695 0.47433 0.0
O454 O 0.39766 0.7733 0.48709 0.0
C455 C 0.41248 0.82851 0.45471 0.0
C456 C 0.43862 0.90602 0.48181 0.0
C457 C 0.38087 0.78508 0.49124 0.0
O458 O 0.41178 0.84671 0.46397 0.0
O459 O 0.42295 0.8093 0.45667 0.0
O460 O 0.44635 0.85887 0.50097 0.0
O461 O 0.45451 0.8381 0.48294 0.0
Co462 Co 0.22274 0.48369 0.34587 0.0
O463 O 0.21299 0.44112 0.34997 0.0
O464 O 0.17945 0.45429 0.34085 0.0
C465 C 0.27037 0.50048 0.33613 0.0
O466 O 0.22444 0.52445 0.33983 0.0
Co467 Co 0.28099 0.54164 0.3589 0.0
O468 O 0.27185 0.56627 0.34535 0.0
C469 C 0.22352 0.50286 0.37498 0.0
C470 C 0.18475 0.43218 0.34533 0.0
C471 C 0.2452 0.55422 0.33926 0.0
O472 O 0.20831 0.48815 0.36432 0.0
O473 O 0.25341 0.52268 0.37519 0.0
O474 O 0.24447 0.48411 0.32918 0.0
O475 O 0.26637 0.50273 0.34881 0.0
Co476 Co 0.51506 0.75737 0.34868 0.0
O477 O 0.55781 0.78942 0.35305 0.0
O478 O 0.54319 0.74055 0.34615 0.0
C479 C 0.5023 0.78801 0.33607 0.0
O480 O 0.47404 0.71836 0.34277 0.0
Co481 Co 0.45696 0.76332 0.35762 0.0
O482 O 0.43304 0.72719 0.34503 0.0
C483 C 0.48927 0.7432 0.37724 0.0
C484 C 0.56583 0.76839 0.34992 0.0
C485 C 0.44478 0.71036 0.34088 0.0
O486 O 0.50707 0.74207 0.36791 0.0
O487 O 0.47 0.75361 0.3753 0.0
O488 O 0.51825 0.77574 0.33079 0.0
O489 O 0.49791 0.78428 0.34887 0.0
Co490 Co 0.24827 0.77043 0.34818 0.0
O491 O 0.21691 0.78072 0.35429 0.0
O492 O 0.26406 0.81529 0.34594 0.0
C493 C 0.21511 0.72693 0.33609 0.0
O494 O 0.28622 0.76886 0.3404 0.0
Co495 Co 0.2446 0.70645 0.35552 0.0
O496 O 0.2788 0.71942 0.34188 0.0
C497 C 0.26975 0.75916 0.37533 0.0
C498 C 0.23689 0.80977 0.35079 0.0
C499 C 0.29448 0.74805 0.33774 0.0
O500 O 0.26757 0.77786 0.36675 0.0
O501 O 0.2595 0.72964 0.37303 0.0
O502 O 0.22632 0.75507 0.33089 0.0
O503 O 0.22172 0.72636 0.34859 0.0
H504 H 0.1202 0.11683 0.19952 0.0
H505 H 0.00586 0.16437 0.23775 0.0
H506 H 0.13717 0.15684 0.2395 0.0
H507 H 0.98519 0.11901 0.19885 0.0
H508 H 0.05974 0.17275 0.23634 0.0
H509 H 0.0767 0.12816 0.19696 0.0
C510 C 0.11512 0.12843 0.20768 0.0
C511 C 0.13181 0.13515 0.21987 0.0
C512 C 0.04356 0.16132 0.22803 0.0
C513 C 0.08209 0.14809 0.21703 0.0
C514 C 0.01276 0.15642 0.22887 0.0
C515 C 0.99073 0.14008 0.21862 0.0
C516 C 0.05231 0.14957 0.21688 0.0
C517 C 0.00129 0.13138 0.20708 0.0
C518 C 0.09024 0.13485 0.20622 0.0
C519 C 0.12439 0.15046 0.23005 0.0
N520 N 0.03116 0.13567 0.20664 0.0
N521 N 0.09983 0.15602 0.22847 0.0
H522 H 0.83799 0.98975 0.23715 0.0
H523 H 0.87506 0.86717 0.19928 0.0
H524 H 0.88696 0.00951 0.1991 0.0
H525 H 0.84097 0.8562 0.24011 0.0
H526 H 0.86737 0.91296 0.19668 0.0
H527 H 0.82694 0.93505 0.23586 0.0
C528 C 0.84626 0.98248 0.22847 0.0
C529 C 0.86417 0.0044 0.21839 0.0
C530 C 0.86112 0.90021 0.20614 0.0
C531 C 0.85163 0.94172 0.21685 0.0
C532 C 0.86532 0.87393 0.20762 0.0
C533 C 0.8593 0.85822 0.22006 0.0
C534 C 0.85067 0.91072 0.21714 0.0
C535 C 0.84666 0.86805 0.23047 0.0
C536 C 0.83985 0.9512 0.22772 0.0
C537 C 0.87341 0.99345 0.20716 0.0
N538 N 0.84313 0.89388 0.22883 0.0
N539 N 0.8675 0.96294 0.2068 0.0
H540 H 0.12788 0.01039 0.20039 0.0
H541 H 0.00661 0.85302 0.23975 0.0
H542 H 0.13617 0.99247 0.24228 0.0
H543 H 0.98643 0.87924 0.20109 0.0
H544 H 0.06099 0.89717 0.2383 0.0
H545 H 0.08327 0.95613 0.19823 0.0
C546 C 0.12078 0.9949 0.20908 0.0
C547 C 0.13542 0.00624 0.22163 0.0
C548 C 0.04482 0.89311 0.23005 0.0
C549 C 0.08441 0.94421 0.21919 0.0
C550 C 0.01374 0.86796 0.23089 0.0
C551 C 0.99177 0.86306 0.22069 0.0
C552 C 0.054 0.91369 0.21897 0.0
C553 C 0.00253 0.88248 0.20925 0.0
C554 C 0.09522 0.96397 0.20783 0.0
C555 C 0.12523 0.985 0.2325 0.0
N556 N 0.03283 0.90737 0.20879 0.0
N557 N 0.10015 0.95515 0.23106 0.0
H558 H 0.15564 0.14889 0.26272 0.0
H559 H 0.11896 0.99317 0.30335 0.0
H560 H 0.10788 0.12348 0.30113 0.0
H561 H 0.15826 0.01509 0.26329 0.0
H562 H 0.12651 0.04673 0.3051 0.0
H563 H 0.16818 0.10645 0.26522 0.0
C564 C 0.14804 0.13454 0.27176 0.0
C565 C 0.12999 0.1392 0.28159 0.0
C566 C 0.13393 0.03998 0.296 0.0
C567 C 0.14412 0.09033 0.28447 0.0
C568 C 0.1298 0.00944 0.29501 0.0
C569 C 0.13719 -0.00065 0.28299 0.0
C570 C 0.14559 0.06055 0.2849 0.0
C571 C 0.1513 0.02153 0.27257 0.0
C572 C 0.15528 0.11032 0.27319 0.0
C573 C 0.12151 0.12044 0.29324 0.0
N574 N 0.15461 0.05092 0.27369 0.0
N575 N 0.12816 0.09641 0.29425 0.0
H576 H 0.87242 0.98591 0.30017 0.0
H577 H 0.9849 0.1409 0.25838 0.0
H578 H 0.85038 0.00562 0.26054 0.0
H579 H 0.00283 0.12804 0.29973 0.0
H580 H 0.93163 0.09512 0.26029 0.0
H581 H 0.91593 0.04105 0.30168 0.0
C582 C 0.8764 0.00195 0.29188 0.0
C583 C 0.85836 0.99097 0.28006 0.0
C584 C 0.94699 0.10253 0.26903 0.0
C585 C 0.90804 0.05383 0.28167 0.0
C586 C 0.97749 0.12869 0.26791 0.0
C587 C -0.00141 0.13799 0.2788 0.0
C588 C 0.93763 0.08515 0.28108 0.0
C589 C 0.98745 0.12157 0.29102 0.0
C590 C 0.90126 0.0334 0.29273 0.0
C591 C 0.86434 0.01283 0.26967 0.0
N592 N 0.95792 0.09556 0.29176 0.0
N593 N 0.88892 0.04305 0.27064 0.0
H594 H 0.86428 0.87545 0.30166 0.0
H595 H 0.99032 0.84446 0.26339 0.0
H596 H 0.85385 0.8414 0.26084 0.0
H597 H 0.00804 0.89137 0.30189 0.0
H598 H 0.935 0.83132 0.26471 0.0
H599 H 0.91092 0.8692 0.30421 0.0
C600 C 0.87135 0.86602 0.29331 0.0
C601 C 0.85556 0.85965 0.28088 0.0
C602 C 0.95084 0.84421 0.27295 0.0
C603 C 0.90905 0.8527 0.28374 0.0
C604 C 0.98248 0.85182 0.27218 0.0
C605 C 0.00399 0.86978 0.28239 0.0
C606 C 0.94058 0.85483 0.28397 0.0
C607 C 0.99232 0.87783 0.29373 0.0
C608 C 0.89812 0.86263 0.29477 0.0
C609 C 0.86577 0.84738 0.27046 0.0
N610 N 0.96145 0.87077 0.29412 0.0
N611 N 0.8921 0.84471 0.27207 0.0
H612 H 0.86949 0.86425 0.82995 0.0
H613 H 0.0471 0.92138 0.85267 0.0
H614 H 0.94099 0.96199 0.83728 0.0
H615 H 0.98923 0.83844 0.82854 0.0
H616 H 0.00063 0.92776 0.85638 0.0
H617 H 0.90602 0.84747 0.83847 0.0
C618 C 0.8926 0.88218 0.8336 0.0
C619 C 0.90249 0.91466 0.83257 0.0
C620 C -0.00214 0.90741 0.85075 0.0
C621 C 0.94415 0.89547 0.84247 0.0
C622 C 0.02422 0.9035 0.84879 0.0
C623 C 0.0219 0.87959 0.84014 0.0
C624 C 0.9691 0.88679 0.84424 0.0
C625 C 0.9919 0.85732 0.83518 0.0
C626 C 0.91338 0.87253 0.83848 0.0
C627 C 0.93263 0.93674 0.8376 0.0
N628 N 0.96672 0.86175 0.8371 0.0
N629 N 0.95259 0.92677 0.84216 0.0
H630 H 0.16041 0.15691 0.82708 0.0
H631 H 0.03642 0.98336 0.8385 0.0
H632 H 0.07842 0.13151 0.85185 0.0
H633 H 0.13467 0.01147 0.8313 0.0
H634 H 0.05317 0.03722 0.84629 0.0
H635 H 0.15608 0.10575 0.83209 0.0
C636 C 0.1424 0.14108 0.83412 0.0
C637 C 0.11951 0.14811 0.83894 0.0
C638 C 0.07113 0.03143 0.8433 0.0
C639 C 0.11317 0.08888 0.84406 0.0
C640 C 0.06156 0.00076 0.83871 0.0
C641 C 0.08414 0.99314 0.83392 0.0
C642 C 0.10344 0.0548 0.84282 0.0
C643 C 0.11641 0.01643 0.8347 0.0
C644 C 0.13967 0.11169 0.83687 0.0
C645 C 0.09645 0.1268 0.84791 0.0
N646 N 0.12505 0.04641 0.83875 0.0
N647 N 0.09305 0.0975 0.84978 0.0
H648 H 0.84025 0.00812 0.823 0.0
H649 H 0.01059 0.05501 0.83971 0.0
H650 H 0.86055 0.94989 0.84919 0.0
H651 H 0.98468 0.12621 0.83096 0.0
H652 H 0.95576 0.01849 0.84645 0.0
H653 H 0.8906 0.05437 0.82941 0.0
C654 C 0.85473 0.00543 0.8306 0.0
C655 C 0.84657 0.97525 0.83546 0.0
C656 C 0.96223 0.04236 0.84337 0.0
C657 C 0.90495 0.02751 0.84226 0.0
C658 C 0.9935 0.06316 0.83942 0.0
C659 C 0.00205 0.09343 0.83443 0.0
C660 C 0.93922 0.05166 0.84203 0.0
C661 C 0.97905 0.10292 0.83453 0.0
C662 C 0.88365 0.03177 0.83418 0.0
C663 C 0.86615 0.97285 0.8452 0.0
N664 N 0.94851 0.08183 0.83793 0.0
N665 N 0.89513 -0.00153 0.8479 0.0
H666 H 0.83355 0.9968 0.67155 0.0
H667 H 0.95767 0.9488 0.65627 0.0
H668 H 0.91566 0.05668 0.64741 0.0
H669 H 0.85958 0.87829 0.66348 0.0
H670 H 0.94082 0.98667 0.64981 0.0
H671 H 0.83814 0.95082 0.66505 0.0
C672 C 0.85168 -4e-05 0.66436 0.0
C673 C 0.87442 0.03045 0.66009 0.0
C674 C 0.9229 0.96268 0.65247 0.0
C675 C 0.88104 0.97843 0.65323 0.0
C676 C 0.93254 0.9411 0.65627 0.0
C677 C 0.91008 0.91056 0.66075 0.0
C678 C 0.89066 0.95386 0.65343 0.0
C679 C 0.8778 0.90173 0.66031 0.0
C680 C 0.85454 0.97376 0.66074 0.0
C681 C 0.89768 0.03346 0.65091 0.0
N682 N 0.86913 0.92351 0.65704 0.0
N683 N 0.90116 0.00789 0.64817 0.0
H684 H 0.05225 0.01571 0.65663 0.0
H685 H 0.00045 0.84216 0.6668 0.0
H686 H 0.12078 0.98547 0.66389 0.0
H687 H 0.94472 0.86974 0.6426 0.0
H688 H 0.04792 0.89243 0.66147 0.0
H689 H 0.01557 0.96308 0.64759 0.0
C690 C 0.05983 0.99819 0.65608 0.0
C691 C 0.08927 0.0047 0.66138 0.0
C692 C 0.0256 0.88716 0.65687 0.0
C693 C 0.0473 0.94434 0.65114 0.0
C694 C -0.00146 0.85826 0.65982 0.0
C695 C 0.96873 0.85214 0.65528 0.0
C696 C 0.02244 0.91045 0.64978 0.0
C697 C 0.96737 0.87376 0.64635 0.0
C698 C 0.03895 0.96818 0.65081 0.0
C699 C 0.0981 0.98133 0.66014 0.0
N700 N 0.9937 0.90263 0.6443 0.0
N701 N 0.07687 0.95191 0.65548 0.0
H702 H 0.00907 0.14253 0.67133 0.0
H703 H 0.13095 0.08701 0.64858 0.0
H704 H 0.98226 0.04712 0.6589 0.0
H705 H 0.14983 0.1577 0.67892 0.0
H706 H 0.08089 0.0855 0.64323 0.0
H707 H 0.06408 0.15985 0.66505 0.0
C708 C 0.01456 0.12537 0.66697 0.0
C709 C 0.99121 0.09315 0.66594 0.0
C710 C 0.09671 0.10233 0.65064 0.0
C711 C 0.0539 0.11299 0.65861 0.0
C712 C 0.12543 0.1035 0.65358 0.0
C713 C 0.14415 0.12224 0.66432 0.0
C714 C 0.08738 0.12061 0.6583 0.0
C715 C 0.13578 0.14279 0.67064 0.0
C716 C 0.04594 0.13532 0.66339 0.0
C717 C -0.00031 0.07204 0.66015 0.0
N718 N 0.10769 0.14108 0.66769 0.0
N719 N 0.03048 0.08225 0.65686 0.0
H720 H 0.65448 0.45479 0.53239 0.0
H721 H 0.8074 0.4889 0.57474 0.0
H722 H 0.67274 0.48966 0.5732 0.0
H723 H 0.7853 0.44438 0.53562 0.0
H724 H 0.76447 0.50067 0.57213 0.0
H725 H 0.70821 0.46257 0.53123 0.0
C726 C 0.66999 0.46474 0.54102 0.0
C727 C 0.65882 0.47086 0.55305 0.0
C728 C 0.76915 0.48861 0.56404 0.0
C729 C 0.72018 0.47952 0.55181 0.0
C730 C 0.79362 0.48179 0.56554 0.0
C731 C 0.7994 0.4649 0.55552 0.0
C732 C 0.75004 0.47825 0.55247 0.0
C733 C 0.78138 0.45709 0.54366 0.0
C734 C 0.70062 0.46899 0.54037 0.0
C735 C 0.68004 0.48381 0.56387 0.0
N736 N 0.75711 0.46335 0.54256 0.0
N737 N 0.70952 0.4873 0.56306 0.0
H738 H 0.55293 0.34403 0.53161 0.0
H739 H 0.53142 0.19158 0.53214 0.0
H740 H 0.50885 0.32152 0.5708 0.0
H741 H 0.52257 0.1989 0.57502 0.0
H742 H 0.52352 0.23698 0.52893 0.0
H743 H 0.5435 0.28987 0.52984 0.0
C744 C 0.54059 0.32745 0.5397 0.0
C745 C 0.53233 0.3375 0.55149 0.0
C746 C 0.52335 0.22873 0.53905 0.0
C747 C 0.52094 0.2752 0.54951 0.0
C748 C 0.52749 0.20248 0.54089 0.0
C749 C 0.5283 0.19168 0.55392 0.0
C750 C 0.52015 0.24435 0.55034 0.0
C751 C 0.52257 0.20652 0.56482 0.0
C752 C 0.53501 0.29634 0.53867 0.0
C753 C 0.51638 0.31503 0.56167 0.0
N754 N 0.51908 0.23223 0.56278 0.0
N755 N 0.51168 0.28515 0.56053 0.0
H756 H 0.65512 0.20744 0.53452 0.0
H757 H 0.81059 0.32132 0.57646 0.0
H758 H 0.67325 0.18869 0.57504 0.0
H759 H 0.79296 0.34199 0.53624 0.0
H760 H 0.7654 0.26757 0.57432 0.0
H761 H 0.71 0.25139 0.53318 0.0
C762 C 0.67075 0.21223 0.54305 0.0
C763 C 0.65936 0.19487 0.55502 0.0
C764 C 0.77162 0.2837 0.56588 0.0
C765 C 0.72203 0.2451 0.55358 0.0
C766 C 0.79738 0.31444 0.56714 0.0
C767 C 0.80501 0.33644 0.55668 0.0
C768 C 0.75314 0.27496 0.55411 0.0
C769 C 0.7877 0.32592 0.54463 0.0
C770 C 0.70206 0.23736 0.54229 0.0
C771 C 0.68076 0.20195 0.56572 0.0
N772 N 0.76218 0.2961 0.54377 0.0
N773 N 0.71089 0.22674 0.56481 0.0
H774 H 0.81849 0.48037 0.5986 0.0
H775 H 0.77804 0.32209 0.63832 0.0
H776 H 0.76814 0.45357 0.6364 0.0
H777 H 0.81425 0.34328 0.59776 0.0
H778 H 0.78636 0.37596 0.64029 0.0
H779 H 0.82922 0.43663 0.60082 0.0
C780 C 0.80994 0.46542 0.60745 0.0
C781 C 0.79168 0.47008 0.61718 0.0
C782 C 0.79293 0.36895 0.63103 0.0
C783 C 0.80376 0.41978 0.61975 0.0
C784 C 0.78834 0.33824 0.62991 0.0
C785 C 0.79482 0.32791 0.61772 0.0
C786 C 0.80423 0.38948 0.61991 0.0
C787 C 0.80821 0.34994 0.60721 0.0
C788 C 0.81613 0.44047 0.60872 0.0
C789 C 0.78198 0.45056 0.62861 0.0
N790 N 0.81212 0.37953 0.60849 0.0
N791 N 0.78766 0.42585 0.62947 0.0
H792 H 0.53625 0.3193 0.63466 0.0
H793 H 0.6485 0.47799 0.59442 0.0
H794 H 0.51644 0.33999 0.59478 0.0
H795 H 0.66769 0.46058 0.63493 0.0
H796 H 0.59542 0.4316 0.59597 0.0
H797 H 0.57957 0.37445 0.6366 0.0
C798 C 0.54069 0.33554 0.6264 0.0
C799 C 0.52326 0.32484 0.61441 0.0
C800 C 0.61103 0.43813 0.60461 0.0
C801 C 0.57272 0.38778 0.61652 0.0
C802 C 0.64141 0.46461 0.6037 0.0
C803 C 0.66282 0.47276 0.61442 0.0
C804 C 0.6021 0.41936 0.6163 0.0
C805 C 0.65205 0.45502 0.62635 0.0
C806 C 0.56545 0.36699 0.62749 0.0
C807 C 0.52986 0.34696 0.60406 0.0
N808 N 0.62264 0.42878 0.62688 0.0
N809 N 0.55428 0.37722 0.60529 0.0
H810 H 0.64951 0.16697 0.59915 0.0
H811 H 0.50862 0.16736 0.59483 0.0
H812 H 0.66674 0.22346 0.63495 0.0
H813 H 0.52958 0.20974 0.63432 0.0
H814 H 0.55366 0.15909 0.59661 0.0
H815 H 0.59411 0.15276 0.59974 0.0
C816 C 0.64144 0.17631 0.60719 0.0
C817 C 0.66284 0.19697 0.61685 0.0
C818 C 0.5484 0.16958 0.60509 0.0
C819 C 0.5993 0.18211 0.61729 0.0
C820 C 0.52257 0.17453 0.60398 0.0
C821 C 0.51584 0.19002 0.61427 0.0
C822 C 0.56786 0.18036 0.61661 0.0
C823 C 0.53409 0.19796 0.62607 0.0
C824 C 0.60966 0.16845 0.60746 0.0
C825 C 0.65105 0.20772 0.62723 0.0
N826 N 0.55961 0.1936 0.62681 0.0
N827 N 0.62018 0.20064 0.62703 0.0
H828 H 0.65889 0.16603 0.1571 0.0
H829 H 0.60378 0.28302 0.16864 0.0
H830 H 0.71005 0.243 0.18498 0.0
H831 H 0.53422 0.18395 0.16303 0.0
H832 H 0.64133 0.2674 0.17707 0.0
H833 H 0.61039 0.16734 0.16208 0.0
C834 C 0.65949 0.18216 0.16479 0.0
C835 C 0.6884 0.2047 0.17051 0.0
C836 C 0.61756 0.24905 0.17434 0.0
C837 C 0.6337 0.2077 0.17565 0.0
C838 C 0.59626 0.25797 0.16939 0.0
C839 C 0.56614 0.23476 0.16484 0.0
C840 C 0.60892 0.21678 0.1744 0.0
C841 C 0.55737 0.20263 0.16627 0.0
C842 C 0.63187 0.18315 0.16755 0.0
C843 C 0.68812 0.22534 0.18031 0.0
N844 N 0.57897 0.19459 0.17059 0.0
N845 N 0.66141 0.22731 0.18217 0.0
H846 H 0.70202 0.31491 0.17533 0.0
H847 H 0.82951 0.48717 0.16396 0.0
H848 H 0.80031 0.34164 0.16933 0.0
H849 H 0.74471 0.46374 0.18639 0.0
H850 H 0.82365 0.43587 0.17 0.0
H851 H 0.71907 0.36873 0.1832 0.0
C852 C 0.72722 0.3319 0.17592 0.0
C853 C 0.74973 0.32398 0.17131 0.0
C854 C 0.80687 0.44225 0.17405 0.0
C855 C 0.76938 0.38573 0.18018 0.0
C856 C 0.81043 0.47171 0.17068 0.0
C857 C 0.78739 0.4794 0.17458 0.0
C858 C 0.7794 0.41998 0.1809 0.0
C859 C 0.76295 0.45855 0.18318 0.0
C860 C 0.73696 0.36262 0.1805 0.0
C861 C 0.78207 0.34681 0.17255 0.0
N862 N 0.75888 0.42918 0.18566 0.0
N863 N 0.79089 0.37687 0.17654 0.0
H864 H 0.53164 0.27815 0.1817 0.0
H865 H 0.6548 0.45642 0.16004 0.0
H866 H 0.51216 0.33104 0.15214 0.0
H867 H 0.68211 0.3877 0.1716 0.0
H868 H 0.59947 0.41748 0.16525 0.0
H869 H 0.58333 0.32563 0.18616 0.0
C870 C 0.5376 0.30018 0.17663 0.0
C871 C 0.51786 0.30086 0.1665 0.0
C872 C 0.61774 0.41125 0.16691 0.0
C873 C 0.57649 0.35478 0.1715 0.0
C874 C 0.6493 0.43342 0.16395 0.0
C875 C 0.673 0.42504 0.16513 0.0
C876 C 0.60993 0.38071 0.17124 0.0
C877 C 0.66448 0.3949 0.1703 0.0
C878 C 0.56719 0.32708 0.17906 0.0
C879 C 0.52688 0.32971 0.16 0.0
N880 N 0.63354 0.37367 0.17305 0.0
N881 N 0.55574 0.3555 0.1625 0.0
H882 H 0.58738 0.38748 0.98116 0.0
H883 H 0.52149 0.20577 0.99945 0.0
H884 H 0.50604 0.3314 0.00635 0.0
H885 H 0.62063 0.27578 0.99455 0.0
H886 H 0.50728 0.24503 0.99179 0.0
H887 H 0.58943 0.3393 0.97558 0.0
C888 C 0.56882 0.36474 0.98487 0.0
C889 C 0.5468 0.36325 0.99439 0.0
C890 C 0.53208 0.25142 0.99206 0.0
C891 C 0.549 0.30854 0.98809 0.0
C892 C 0.54024 0.22912 0.99644 0.0
C893 C 0.57232 0.23785 0.99795 0.0
C894 C 0.55615 0.28242 0.98899 0.0
C895 C 0.59562 0.26836 0.99383 0.0
C896 C 0.57026 0.33738 0.98182 0.0
C897 C 0.52353 0.33339 0.99906 0.0
N898 N 0.58709 0.28972 0.98969 0.0
N899 N 0.52556 0.30719 0.99607 0.0
H900 H 0.79495 0.32687 0.00701 0.0
H901 H 0.61857 0.20796 0.98174 0.0
H902 H 0.72649 0.35608 0.99764 0.0
H903 H 0.66957 0.1828 0.01002 0.0
H904 H 0.66608 0.26062 0.97917 0.0
H905 H 0.7565 0.27282 -0.00012 0.0
C906 C 0.77207 0.3221 0.00323 0.0
C907 C 0.76365 0.34589 0.00318 0.0
C908 C 0.66715 0.24308 0.98553 0.0
C909 C 0.71991 0.28427 0.99484 0.0
C910 C 0.64026 0.21296 0.98687 0.0
C911 C 0.64034 0.19127 0.99615 0.0
C912 C 0.69425 0.25095 0.9933 0.0
C913 C 0.66872 0.19903 0.00279 0.0
C914 C 0.75021 0.29127 0.99915 0.0
C915 C 0.73371 0.33831 0.99808 0.0
N916 N 0.69452 0.22842 0.00135 0.0
N917 N 0.71276 0.30803 0.99422 0.0
H918 H 0.8283 0.50122 0.00642 0.0
H919 H 0.65546 0.37581 0.99217 0.0
H920 H 0.80481 0.41796 0.98277 0.0
H921 H 0.6831 0.47338 0.00093 0.0
H922 H 0.70983 0.3932 0.98501 0.0
H923 H 0.77736 0.49626 0.00042 0.0
C924 C 0.81292 0.4827 0.99946 0.0
C925 C 0.82048 0.45978 0.99519 0.0
C926 C 0.70385 0.41091 0.9882 0.0
C927 C 0.76145 0.4528 0.98889 0.0
C928 C 0.67282 0.40096 0.99237 0.0
C929 C 0.66491 0.42308 0.99751 0.0
C930 C 0.72726 0.4431 0.98942 0.0
C931 C 0.68823 0.45541 0.99727 0.0
C932 C 0.78366 0.47964 0.99612 0.0
C933 C 0.79974 0.43609 0.98627 0.0
N934 N 0.71852 0.46435 0.99363 0.0
N935 N 0.77056 0.43248 0.98379 0.0
H936 H 0.32503 0.78281 0.86429 0.0
H937 H 0.48467 0.81814 0.90129 0.0
H938 H 0.35183 0.82259 0.90414 0.0
H939 H 0.45641 0.773 0.86239 0.0
H940 H 0.44153 0.82995 0.90037 0.0
H941 H 0.37803 0.78955 0.8613 0.0
C942 C 0.34226 0.79358 0.87232 0.0
C943 C 0.33371 0.80137 0.88465 0.0
C944 C 0.44488 0.81774 0.89196 0.0
C945 C 0.39426 0.80881 0.88133 0.0
C946 C 0.4695 0.81091 0.89249 0.0
C947 C 0.47371 0.79392 0.88202 0.0
C948 C 0.42399 0.80723 0.88095 0.0
C949 C 0.4538 0.78584 0.87074 0.0
C950 C 0.37247 0.79723 0.87063 0.0
C951 C 0.35706 0.81532 0.89466 0.0
N952 N 0.42943 0.7921 0.8706 0.0
N953 N 0.38609 0.81818 0.89285 0.0
H954 H 0.17941 0.65449 0.90502 0.0
H955 H 0.21213 0.53138 0.86505 0.0
H956 H 0.22609 0.67453 0.86643 0.0
H957 H 0.18449 0.52225 0.9068 0.0
H958 H 0.20386 0.57695 0.86306 0.0
H959 H 0.16754 0.59956 0.90325 0.0
C960 C 0.18693 0.64721 0.89611 0.0
C961 C 0.20455 0.66926 0.88602 0.0
C962 C 0.1991 0.5646 0.87259 0.0
C963 C 0.19108 0.6064 0.88392 0.0
C964 C 0.20366 0.53847 0.87373 0.0
C965 C 0.19959 0.52331 0.8862 0.0
C966 C 0.1902 0.57545 0.88396 0.0
C967 C 0.18851 0.53355 0.89707 0.0
C968 C 0.18007 0.61582 0.89508 0.0
C969 C 0.21281 0.65834 0.8745 0.0
N970 N 0.18456 0.55918 0.89574 0.0
N971 N 0.2065 0.62772 0.87386 0.0
H972 H 0.32481 0.53648 0.86406 0.0
H973 H 0.48665 0.65267 0.90177 0.0
H974 H 0.34753 0.52209 0.9045 0.0
H975 H 0.46429 0.6695 0.86171 0.0
H976 H 0.4403 0.59937 0.90113 0.0
H977 H 0.3797 0.57962 0.86127 0.0
C978 C 0.34142 0.54205 0.87228 0.0
C979 C 0.33135 0.52613 0.88463 0.0
C980 C 0.44573 0.61451 0.89239 0.0
C981 C 0.39409 0.57546 0.88153 0.0
C982 C 0.4722 0.64499 0.89277 0.0
C983 C 0.47891 0.66585 0.88192 0.0
C984 C 0.42562 0.60487 0.88111 0.0
C985 C 0.45984 0.65434 0.87037 0.0
C986 C 0.37274 0.56672 0.87069 0.0
C987 C 0.354 0.53421 0.8949 0.0
N988 N 0.4337 0.62481 0.87036 0.0
N989 N 0.38414 0.55852 0.89317 0.0
H990 H 0.45649 0.64722 0.96682 0.0
H991 H 0.49403 0.80198 0.92488 0.0
H992 H 0.485 0.66258 0.92514 0.0
H993 H 0.45027 0.78071 0.96415 0.0
H994 H 0.50332 0.75731 0.92709 0.0
H995 H 0.46642 0.70177 0.96809 0.0
C996 C 0.46544 0.66221 0.958 0.0
C997 C 0.46934 0.65008 0.94576 0.0
C998 C 0.49204 0.76259 0.93531 0.0
C999 C 0.48061 0.71244 0.94716 0.0
C1000 C 0.48667 0.78809 0.93405 0.0
C1001 C 0.47062 0.79458 0.94422 0.0
C1002 C 0.48111 0.74323 0.94678 0.0
C1003 C 0.4624 0.77631 0.95601 0.0
C1004 C 0.47097 0.69332 0.95873 0.0
C1005 C 0.48108 0.6707 0.93469 0.0
N1006 N 0.46725 0.75107 0.95688 0.0
N1007 N 0.48595 0.70071 0.93562 0.0
H1008 H 0.21664 0.64678 0.96738 0.0
H1009 H 0.32531 0.80124 0.92435 0.0
H1010 H 0.19026 0.66699 0.92875 0.0
H1011 H 0.3493 0.78701 0.96452 0.0
H1012 H 0.27196 0.75609 0.92739 0.0
H1013 H 0.26125 0.7015 0.96826 0.0
C1014 C 0.21994 0.66285 0.95919 0.0
C1015 C 0.2003 0.65213 0.94781 0.0
C1016 C 0.2887 0.76306 0.93563 0.0
C1017 C 0.25114 0.7145 0.9487 0.0
C1018 C 0.31923 0.78882 0.93386 0.0
C1019 C 0.34198 0.79749 0.94406 0.0
C1020 C 0.28098 0.74549 0.94763 0.0
C1021 C 0.33256 0.78098 0.95632 0.0
C1022 C 0.24541 0.69406 0.95968 0.0
C1023 C 0.20543 0.674 0.93753 0.0
N1024 N 0.30294 0.75536 0.95768 0.0
N1025 N 0.23056 0.70397 0.93814 0.0
H1026 H 0.18387 0.49677 0.92751 0.0
H1027 H 0.3414 0.53981 0.96801 0.0
H1028 H 0.20209 0.53367 0.96801 0.0
H1029 H 0.32096 0.5007 0.92785 0.0
H1030 H 0.28642 0.52846 0.96991 0.0
H1031 H 0.22929 0.4884 0.92917 0.0
C1032 C 0.19719 0.50275 0.93681 0.0
C1033 C 0.18965 0.51671 0.94749 0.0
C1034 C 0.29388 0.52198 0.96076 0.0
C1035 C 0.24191 0.50745 0.94947 0.0
C1036 C 0.32526 0.52842 0.95968 0.0
C1037 C 0.33602 0.52195 0.94764 0.0
C1038 C 0.27322 0.50902 0.94971 0.0
C1039 C 0.31396 0.5069 0.93721 0.0
C1040 C 0.22313 0.49792 0.93778 0.0
C1041 C 0.20724 0.52318 0.95945 0.0
N1042 N 0.28379 0.50135 0.93842 0.0
N1043 N 0.23294 0.51909 0.96003 0.0
H1044 H 0.20755 0.52585 0.49965 0.0
H1045 H 0.38828 0.58846 0.5188 0.0
H1046 H 0.27911 0.62475 0.50383 0.0
H1047 H 0.33085 0.50578 0.49448 0.0
H1048 H 0.34096 0.59265 0.52364 0.0
H1049 H 0.24593 0.51091 0.50772 0.0
C1050 C 0.23109 0.54443 0.50256 0.0
C1051 C 0.24045 0.57661 0.50075 0.0
C1052 C 0.33852 0.57276 0.51775 0.0
C1053 C 0.28406 0.55959 0.51018 0.0
C1054 C 0.36538 0.57009 0.51514 0.0
C1055 C 0.36334 0.54702 0.50606 0.0
C1056 C 0.30959 0.55166 0.5115 0.0
C1057 C 0.33328 0.52404 0.50144 0.0
C1058 C 0.25289 0.53585 0.50718 0.0
C1059 C 0.27118 0.59966 0.50476 0.0
N1060 N 0.30758 0.52726 0.504 0.0
N1061 N 0.29205 0.5907 0.50915 0.0
H1062 H 0.47533 0.67794 0.50216 0.0
H1063 H 0.50439 0.82779 0.49158 0.0
H1064 H 0.37911 0.66071 0.50394 0.0
H1065 H 0.424 0.80592 0.51686 0.0
H1066 H 0.49974 0.77705 0.49751 0.0
H1067 H 0.49466 0.73288 0.50909 0.0
C1068 C 0.4582 0.68552 0.50417 0.0
C1069 C 0.42557 0.66492 0.502 0.0
C1070 C 0.48398 0.78378 0.50232 0.0
C1071 C 0.44766 0.72788 0.50976 0.0
C1072 C 0.48676 0.8129 0.49895 0.0
C1073 C 0.46446 0.82084 0.50369 0.0
C1074 C 0.45813 0.76215 0.51019 0.0
C1075 C 0.44171 0.8006 0.51303 0.0
C1076 C 0.46932 0.71696 0.50807 0.0
C1077 C 0.40453 0.67597 0.50509 0.0
N1078 N 0.4383 0.77152 0.51558 0.0
N1079 N 0.41598 0.70686 0.50861 0.0
H1080 H 0.36108 0.72697 0.50287 0.0
H1081 H 0.20614 0.62052 0.5186 0.0
H1082 H 0.32991 0.79414 0.494 0.0
H1083 H 0.1894 0.67375 0.48822 0.0
H1084 H 0.25929 0.66641 0.52234 0.0
H1085 H 0.30715 0.68858 0.51 0.0
C1086 C 0.34303 0.73386 0.50268 0.0
C1087 C 0.34989 0.76363 0.49763 0.0
C1088 C 0.24367 0.66828 0.5151 0.0
C1089 C 0.28818 0.71996 0.50594 0.0
C1090 C 0.21315 0.64235 0.51315 0.0
C1091 C 0.19367 0.64344 0.50299 0.0
C1092 C 0.25431 0.69531 0.50691 0.0
C1093 C 0.20394 0.67203 0.49607 0.0
C1094 C 0.31229 0.71206 0.50693 0.0
C1095 C 0.32565 0.7714 0.49773 0.0
N1096 N 0.23376 0.69676 0.49803 0.0
N1097 N 0.29569 0.7494 0.50149 0.0
H1098 H 0.16631 0.66737 0.34004 0.0
H1099 H 0.28535 0.61357 0.32916 0.0
H1100 H 0.24749 0.7223 0.31464 0.0
H1101 H 0.18585 0.54402 0.33331 0.0
H1102 H 0.27062 0.65206 0.32113 0.0
H1103 H 0.16855 0.61963 0.33443 0.0
C1104 C 0.18365 0.66903 0.33274 0.0
C1105 C 0.20698 0.6987 0.32792 0.0
C1106 C 0.252 0.62813 0.32346 0.0
C1107 C 0.21096 0.64475 0.3221 0.0
C1108 C 0.2604 0.60625 0.32817 0.0
C1109 C 0.23679 0.57581 0.33221 0.0
C1110 C 0.21981 0.61973 0.32312 0.0
C1111 C 0.20483 0.56739 0.33049 0.0
C1112 C 0.18517 0.64184 0.32963 0.0
C1113 C 0.22917 0.69976 0.3186 0.0
N1114 N 0.19727 0.5895 0.32641 0.0
N1115 N 0.2315 0.67332 0.31641 0.0
H1116 H 0.32967 0.5154 0.34367 0.0
H1117 H 0.38644 0.69013 0.3294 0.0
H1118 H 0.27878 0.54099 0.31554 0.0
H1119 H 0.45399 0.65944 0.33823 0.0
H1120 H 0.348 0.63589 0.32247 0.0
H1121 H 0.3775 0.56657 0.33971 0.0
C1122 C 0.32902 0.53135 0.33623 0.0
C1123 C 0.30041 0.52417 0.32994 0.0
C1124 C 0.3715 0.64121 0.32562 0.0
C1125 C 0.35434 0.58329 0.3259 0.0
C1126 C 0.39335 0.6721 0.32969 0.0
C1127 C 0.42324 0.67918 0.33465 0.0
C1128 C 0.37936 0.61712 0.32682 0.0
C1129 C 0.4311 0.65499 0.33462 0.0
C1130 C 0.35623 0.56065 0.33403 0.0
C1131 C 0.30053 0.54571 0.32052 0.0
N1132 N 0.40902 0.62487 0.33107 0.0
N1133 N 0.32686 0.57486 0.31911 0.0
H1134 H 0.31549 0.71106 0.32567 0.0
H1135 H 0.48809 0.8346 0.34 0.0
H1136 H 0.34346 0.80886 0.33405 0.0
H1137 H 0.4646 0.75304 0.31517 0.0
H1138 H 0.43733 0.83032 0.3342 0.0
H1139 H 0.36974 0.72816 0.31841 0.0
C1140 C 0.33289 0.73619 0.32576 0.0
C1141 C 0.32511 0.75847 0.33081 0.0
C1142 C 0.44362 0.81397 0.3296 0.0
C1143 C 0.38731 0.77816 0.32263 0.0
C1144 C 0.47276 0.81664 0.33283 0.0
C1145 C 0.48025 0.79396 0.32816 0.0
C1146 C 0.42145 0.78772 0.32206 0.0
C1147 C 0.45957 0.77097 0.31899 0.0
C1148 C 0.36385 0.74598 0.32153 0.0
C1149 C 0.34849 0.79078 0.33045 0.0
N1150 N 0.43049 0.76767 0.31661 0.0
N1151 N 0.37872 0.79957 0.32677 0.0
H1152 H 0.1959 0.24641 0.2867 0.0
H1153 H 0.23402 0.15037 0.25086 0.0
H1154 H 0.14234 0.23544 0.25048 0.0
H1155 H 0.23424 0.20215 0.21556 0.0
H1156 H 0.2235 0.18575 0.26466 0.0
H1157 H 0.23226 0.23562 0.27379 0.0
C1158 C 0.19229 0.24269 0.27596 0.0
C1159 C 0.16554 0.24094 0.26969 0.0
C1160 C 0.22714 0.19019 0.25396 0.0
C1161 C 0.20682 0.22834 0.255 0.0
C1162 C 0.23304 0.16992 0.24608 0.0
C1163 C 0.23469 0.17316 0.23206 0.0
C1164 C 0.22229 0.21338 0.24769 0.0
C1165 C 0.23298 0.19872 0.22634 0.0
C1166 C 0.21291 0.23624 0.26865 0.0
C1167 C 0.16234 0.23641 0.25573 0.0
N1168 N 0.22583 0.21725 0.23415 0.0
N1169 N 0.18249 0.22973 0.24886 0.0
H1170 H 0.84541 0.08706 0.24821 0.0
H1171 H 0.75941 0.9056 0.24942 0.0
H1172 H 0.7954 0.03431 0.2128 0.0
H1173 H 0.7563 0.95677 0.28438 0.0
H1174 H 0.77089 0.95175 0.2355 0.0
H1175 H 0.81199 0.04008 0.26191 0.0
C1176 C 0.82676 0.06595 0.24338 0.0
C1177 C 0.82338 0.06448 0.22936 0.0
C1178 C 0.76678 0.95246 0.24617 0.0
C1179 C 0.78581 0.01065 0.24484 0.0
C1180 C 0.76018 0.92614 0.2541 0.0
C1181 C 0.75725 0.92749 0.26807 0.0
C1182 C 0.77122 0.98043 0.25236 0.0
C1183 C 0.7586 0.95476 0.27365 0.0
C1184 C 0.80775 0.03916 0.25118 0.0
C1185 C 0.79894 0.03646 0.22358 0.0
N1186 N 0.76638 0.98052 0.26582 0.0
N1187 N 0.78164 0.01032 0.23131 0.0
H1188 H 0.08999 0.85577 0.25253 0.0
H1189 H 0.95686 0.7574 0.21587 0.0
H1190 H 0.03679 0.80364 0.28747 0.0
H1191 H 0.91149 0.76802 0.25129 0.0
H1192 H 0.00416 0.7711 0.22921 0.0
H1193 H 0.04418 0.8215 0.23845 0.0
C1194 C 0.0691 0.83641 0.25717 0.0
C1195 C 0.06715 0.83263 0.27117 0.0
C1196 C 0.98363 0.76988 0.23408 0.0
C1197 C 0.01464 0.79369 0.25522 0.0
C1198 C 0.95645 0.76174 0.22653 0.0
C1199 C 0.93044 0.76233 0.23243 0.0
C1200 C 0.98458 0.77826 0.24762 0.0
C1201 C 0.93121 0.76778 0.24631 0.0
C1202 C 0.04297 0.8168 0.24914 0.0
C1203 C 0.03934 0.8074 0.27671 0.0
N1204 N 0.95812 0.77599 0.25343 0.0
N1205 N 0.0138 0.78946 0.26875 0.0
H1206 H 0.8478 0.81654 0.71308 0.0
H1207 H 0.80985 0.854 0.77751 0.0
H1208 H 0.94276 0.88753 0.72504 0.0
H1209 H 0.89068 0.94583 0.7681 0.0
H1210 H 0.82158 0.83201 0.75743 0.0
H1211 H 0.82708 0.82859 0.73345 0.0
C1212 C 0.86434 0.83417 0.72007 0.0
C1213 C 0.8971 0.85124 0.71724 0.0
C1214 C 0.83629 0.85704 0.75971 0.0
C1215 C 0.87355 0.86517 0.74036 0.0
C1216 C 0.82969 0.86963 0.77115 0.0
C1217 C 0.84936 0.90184 0.77457 0.0
C1218 C 0.86293 0.87682 0.75181 0.0
C1219 C 0.87482 0.9209 0.76598 0.0
C1220 C 0.85246 0.84096 0.73168 0.0
C1221 C 0.91735 0.87389 0.72665 0.0
N1222 N 0.88107 0.90799 0.75516 0.0
N1223 N 0.90518 0.8805 0.73763 0.0
H1224 H 0.1466 0.96875 0.7845 0.0
H1225 H 0.08505 0.0003 0.71646 0.0
H1226 H 0.05431 0.90549 0.76751 0.0
H1227 H 0.18577 0.04394 0.72387 0.0
H1228 H 0.07483 0.96517 0.73541 0.0
H1229 H 0.16381 0.99542 0.76258 0.0
C1230 C 0.13026 0.95993 0.77609 0.0
C1231 C 0.09875 0.93532 0.77788 0.0
C1232 C 0.09926 0.98218 0.73291 0.0
C1233 C 0.11808 0.96579 0.75301 0.0
C1234 C 0.10508 0.00248 0.72214 0.0
C1235 C 0.13626 0.02533 0.71874 0.0
C1236 C 0.12474 0.98499 0.74061 0.0
C1237 C 0.16136 0.02669 0.72627 0.0
C1238 C 0.14006 0.97523 0.76362 0.0
C1239 C 0.07858 0.92483 0.76667 0.0
N1240 N 0.15504 0.00707 0.73707 0.0
N1241 N 0.08843 0.94041 0.7548 0.0
H1242 H 0.95546 0.14933 0.71914 0.0
H1243 H 0.06063 0.11735 0.76916 0.0
H1244 H 0.93794 0.05529 0.7292 0.0
H1245 H 0.03054 0.18303 0.78247 0.0
H1246 H 0.02612 0.1044 0.74973 0.0
H1247 H 0.99057 0.17035 0.73893 0.0
C1248 C 0.9585 0.13305 0.72557 0.0
C1249 C 0.94402 0.10051 0.72235 0.0
C1250 C 0.02734 0.12188 0.75686 0.0
C1251 C 0.98448 0.12451 0.74454 0.0
C1252 C 0.04715 0.12947 0.76794 0.0
C1253 C 0.04806 0.15088 0.77767 0.0
C1254 C 0.00849 0.136 0.7553 0.0
C1255 C 0.03032 0.16613 0.7753 0.0
C1256 C 0.97856 0.14511 0.73679 0.0
C1257 C 0.9488 0.08056 0.73108 0.0
N1258 N 0.01093 0.1582 0.76434 0.0
N1259 N 0.96902 0.09297 0.7416 0.0
H1260 H 0.8992 0.48027 0.58684 0.0
H1261 H 0.86045 0.57711 0.62222 0.0
H1262 H 0.90042 0.53245 0.5515 0.0
H1263 H 0.80723 0.56599 0.58587 0.0
H1264 H 0.89616 0.56498 0.60954 0.0
H1265 H 0.88713 0.5148 0.6005 0.0
C1266 C 0.89808 0.49971 0.58204 0.0
C1267 C 0.90058 0.50336 0.56804 0.0
C1268 C 0.87701 0.56581 0.60433 0.0
C1269 C 0.88646 0.54261 0.5835 0.0
C1270 C 0.85677 0.57303 0.61149 0.0
C1271 C 0.83032 0.57175 0.60513 0.0
C1272 C 0.87091 0.55764 0.59071 0.0
C1273 C 0.82702 0.56669 0.5912 0.0
C1274 C 0.89128 0.51948 0.58983 0.0
C1275 C 0.8986 0.52874 0.56228 0.0
N1276 N 0.84685 0.55934 0.58445 0.0
N1277 N 0.89066 0.54681 0.56999 0.0
H1278 H 0.51369 0.42184 0.58192 0.0
H1279 H 0.42307 0.2403 0.58345 0.0
H1280 H 0.46337 0.3693 0.54653 0.0
H1281 H 0.42236 0.2929 0.61835 0.0
H1282 H 0.43585 0.28665 0.56945 0.0
H1283 H 0.47911 0.37546 0.5957 0.0
C1284 C 0.49475 0.40092 0.57711 0.0
C1285 C 0.49159 0.39929 0.56307 0.0
C1286 C 0.43194 0.28765 0.58012 0.0
C1287 C 0.45266 0.34612 0.57866 0.0
C1288 C 0.42462 0.26122 0.5881 0.0
C1289 C 0.42201 0.26289 0.60208 0.0
C1290 C 0.43732 0.31601 0.58625 0.0
C1291 C 0.42435 0.29063 0.60761 0.0
C1292 C 0.47506 0.37447 0.58495 0.0
C1293 C 0.46674 0.37154 0.55732 0.0
N1294 N 0.43275 0.31645 0.59973 0.0
N1295 N 0.44875 0.3457 0.5651 0.0
H1296 H 0.57037 0.09045 0.58417 0.0
H1297 H 0.70163 0.12912 0.62251 0.0
H1298 H 0.62695 0.09521 0.54983 0.0
H1299 H 0.74778 0.18585 0.5874 0.0
H1300 H 0.656 0.09382 0.60863 0.0
H1301 H 0.61517 0.10166 0.59882 0.0
C1302 C 0.59181 0.0927 0.57977 0.0
C1303 C 0.59503 0.09212 0.56579 0.0
C1304 C 0.67637 0.11368 0.60395 0.0
C1305 C 0.64646 0.10546 0.58239 0.0
C1306 C 0.7026 0.1337 0.61181 0.0
C1307 C 0.72823 0.16097 0.60614 0.0
C1308 C 0.67599 0.12086 0.59034 0.0
C1309 C 0.72828 0.16541 0.59221 0.0
C1310 C 0.61738 0.09903 0.58813 0.0
C1311 C 0.62346 0.09552 0.56057 0.0
N1312 N 0.70225 0.14579 0.58478 0.0
N1313 N 0.64846 0.10306 0.56884 0.0
H1314 H 0.50202 0.16181 0.04075 0.0
H1315 H 0.49312 0.16584 0.12051 0.0
H1316 H 0.57121 0.15649 0.06612 0.0
H1317 H 0.49044 0.23715 0.09561 0.0
H1318 H 0.5001 0.14099 0.10021 0.0
H1319 H 0.47616 0.16779 0.06093 0.0
C1320 C 0.51104 0.16076 0.05059 0.0
C1321 C 0.53879 0.15885 0.05187 0.0
C1322 C 0.49702 0.16152 0.09924 0.0
C1323 C 0.50923 0.16504 0.07472 0.0
C1324 C 0.49291 0.17558 0.11074 0.0
C1325 C 0.49142 0.2036 0.10964 0.0
C1326 C 0.49869 0.17516 0.08664 0.0
C1327 C 0.4917 0.21564 0.09681 0.0
C1328 C 0.49642 0.16433 0.06202 0.0
C1329 C 0.54992 0.15808 0.06479 0.0
N1330 N 0.49543 0.20137 0.08575 0.0
N1331 N 0.53513 0.16132 0.07577 0.0
H1332 H 0.80608 0.42405 0.0682 0.0
H1333 H 0.81219 0.29142 0.11316 0.0
H1334 H 0.85188 0.37344 0.05318 0.0
H1335 H 0.73542 0.31214 0.11265 0.0
H1336 H 0.83757 0.32949 0.0945 0.0
H1337 H 0.79296 0.39312 0.08881 0.0
C1338 C 0.81387 0.40679 0.06931 0.0
C1339 C 0.82947 0.40083 0.0588 0.0
C1340 C 0.81517 0.3255 0.09856 0.0
C1341 C 0.81423 0.36515 0.0824 0.0
C1342 C 0.80068 0.30383 0.10913 0.0
C1343 C 0.77148 0.29833 0.11436 0.0
C1344 C 0.80068 0.34223 0.09358 0.0
C1345 C 0.75766 0.31518 0.10885 0.0
C1346 C 0.80624 0.38906 0.08107 0.0
C1347 C 0.8395 0.37855 0.06097 0.0
N1348 N 0.77246 0.33643 0.09885 0.0
N1349 N 0.83126 0.36106 0.0725 0.0
H1350 H 0.70998 0.52017 0.11553 0.0
H1351 H 0.62427 0.39041 0.06048 0.0
H1352 H 0.74354 0.45729 0.10223 0.0
H1353 H 0.63474 0.48284 0.05282 0.0
H1354 H 0.66007 0.41251 0.07943 0.0
H1355 H 0.67718 0.50679 0.09508 0.0
C1356 C 0.71103 0.50415 0.10823 0.0
C1357 C 0.7291 0.48933 0.11077 0.0
C1358 C 0.65446 0.42795 0.07362 0.0
C1359 C 0.69133 0.47365 0.08773 0.0
C1360 C 0.63374 0.41533 0.06283 0.0
C1361 C 0.62661 0.43484 0.05488 0.0
C1362 C 0.66797 0.46027 0.07672 0.0
C1363 C 0.63972 0.46697 0.05861 0.0
C1364 C 0.69226 0.49652 0.09663 0.0
C1365 C 0.72959 0.46886 0.10091 0.0
N1366 N 0.65988 0.47879 0.06933 0.0
N1367 N 0.7105 0.46118 0.08999 0.0
H1368 H 0.54068 0.90389 0.94727 0.0
H1369 H 0.57969 0.81086 0.90936 0.0
H1370 H 0.48255 0.89063 0.91233 0.0
H1371 H 0.57347 0.8611 0.87475 0.0
H1372 H 0.56858 0.84479 0.92385 0.0
H1373 H 0.57626 0.89386 0.93338 0.0
C1374 C 0.53584 0.89974 0.9366 0.0
C1375 C 0.50817 0.8973 0.93098 0.0
C1376 C 0.57096 0.84927 0.91313 0.0
C1377 C 0.54858 0.88559 0.91518 0.0
C1378 C 0.57722 0.82983 0.90486 0.0
C1379 C 0.57717 0.83296 0.89085 0.0
C1380 C 0.56419 0.87158 0.90729 0.0
C1381 C 0.57357 0.85776 0.88551 0.0
C1382 C 0.55603 0.89375 0.92874 0.0
C1383 C 0.50333 0.8922 0.91709 0.0
N1384 N 0.56619 0.87549 0.89372 0.0
N1385 N 0.52316 0.88607 0.90967 0.0
H1386 H 0.09777 0.57147 0.91883 0.0
H1387 H 0.19338 0.75312 0.91819 0.0
H1388 H 0.10107 0.62363 0.95457 0.0
H1389 H 0.13742 0.70307 0.88342 0.0
H1390 H 0.15962 0.70641 0.932 0.0
H1391 H 0.11134 0.61884 0.90537 0.0
C1392 C 0.10038 0.59253 0.92379 0.0
C1393 C 0.09863 0.59372 0.93783 0.0
C1394 C 0.15424 0.70607 0.92141 0.0
C1395 C 0.11493 0.64795 0.92261 0.0
C1396 C 0.17344 0.73271 0.91355 0.0
C1397 C 0.16837 0.73187 0.89964 0.0
C1398 C 0.1304 0.67833 0.91522 0.0
C1399 C 0.14229 0.70471 0.8941 0.0
C1400 C 0.10818 0.61954 0.91612 0.0
C1401 C 0.10238 0.62169 0.94377 0.0
N1402 N 0.12478 0.67867 0.90185 0.0
N1403 N 0.11123 0.64801 0.93617 0.0
H1404 H 0.24224 0.42334 0.91591 0.0
H1405 H 0.37139 0.45309 0.95361 0.0
H1406 H 0.29504 0.42197 0.88124 0.0
H1407 H 0.41968 0.50511 0.91782 0.0
H1408 H 0.32434 0.41953 0.94009 0.0
H1409 H 0.28625 0.43098 0.93029 0.0
C1410 C 0.26262 0.42352 0.91138 0.0
C1411 C 0.26511 0.42225 0.89738 0.0
C1412 C 0.34546 0.43792 0.93518 0.0
C1413 C 0.31562 0.43126 0.9137 0.0
C1414 C 0.37249 0.45688 0.94284 0.0
C1415 C 0.39919 0.48251 0.93685 0.0
C1416 C 0.34537 0.44457 0.92147 0.0
C1417 C 0.39935 0.486 0.92285 0.0
C1418 C 0.28771 0.42773 0.91959 0.0
C1419 C 0.29218 0.4229 0.892 0.0
N1420 N 0.37255 0.46756 0.91564 0.0
N1421 N 0.31683 0.42833 0.90014 0.0
H1422 H 0.16536 0.50803 0.45668 0.0
H1423 H 0.16791 0.50327 0.37678 0.0
H1424 H 0.16053 0.57912 0.43244 0.0
H1425 H 0.23871 0.49753 0.40087 0.0
H1426 H 0.1441 0.51013 0.39743 0.0
H1427 H 0.17099 0.48325 0.43605 0.0
C1428 C 0.16439 0.51773 0.44699 0.0
C1429 C 0.16267 0.54566 0.44616 0.0
C1430 C 0.1643 0.50646 0.39814 0.0
C1431 C 0.16846 0.51734 0.4228 0.0
C1432 C 0.17776 0.50241 0.38644 0.0
C1433 C 0.20534 0.50004 0.38722 0.0
C1434 C 0.17806 0.50718 0.41061 0.0
C1435 C 0.21754 0.49949 0.39992 0.0
C1436 C 0.16776 0.50373 0.43531 0.0
C1437 C 0.16198 0.55766 0.43343 0.0
N1438 N 0.20384 0.50315 0.41117 0.0
N1439 N 0.165 0.54346 0.42219 0.0
H1440 H 0.45672 0.74341 0.39954 0.0
H1441 H 0.48453 0.63187 0.44798 0.0
H1442 H 0.51741 0.70829 0.38502 0.0
H1443 H 0.3922 0.62048 0.43922 0.0
H1444 H 0.50641 0.66839 0.42864 0.0
H1445 H 0.44438 0.70963 0.41922 0.0
C1446 C 0.46792 0.72902 0.40056 0.0
C1447 C 0.48761 0.72821 0.39041 0.0
C1448 C 0.48135 0.65747 0.431 0.0
C1449 C 0.47347 0.68952 0.41303 0.0
C1450 C 0.46881 0.63662 0.44195 0.0
C1451 C 0.43649 0.62324 0.44536 0.0
C1452 C 0.4615 0.66536 0.42373 0.0
C1453 C 0.41725 0.63027 0.43715 0.0
C1454 C 0.46071 0.70966 0.41178 0.0
C1455 C 0.5018 0.70937 0.39251 0.0
N1456 N 0.43016 0.65118 0.4269 0.0
N1457 N 0.49417 0.69038 0.40357 0.0
H1458 H 0.41165 0.79501 0.43255 0.0
H1459 H 0.2955 0.82023 0.3856 0.0
H1460 H 0.37702 0.85613 0.44706 0.0
H1461 H 0.28775 0.72899 0.39335 0.0
H1462 H 0.33333 0.84273 0.40449 0.0
H1463 H 0.37677 0.78161 0.41318 0.0
C1464 C 0.39713 0.80608 0.43159 0.0
C1465 C 0.39681 0.82623 0.44165 0.0
C1466 C 0.32295 0.81776 0.40202 0.0
C1467 C 0.35681 0.81083 0.41939 0.0
C1468 C 0.30136 0.80487 0.39132 0.0
C1469 C 0.28852 0.77268 0.38778 0.0
C1470 C 0.33214 0.79842 0.40889 0.0
C1471 C 0.297 0.75392 0.39556 0.0
C1472 C 0.37712 0.79825 0.42054 0.0
C1473 C 0.37776 0.8402 0.43963 0.0
N1474 N 0.31856 0.76718 0.40558 0.0
N1475 N 0.35814 0.83196 0.42875 0.0
H1476 H 0.23002 0.11945 0.16767 0.0
H1477 H 0.39597 0.12637 0.16215 0.0
H1478 H 0.25983 0.06615 0.1924 0.0
H1479 H 0.37332 0.19242 0.14305 0.0
H1480 H 0.33965 0.09172 0.16719 0.0
H1481 H 0.27468 0.13257 0.1525 0.0
C1482 C 0.24526 0.10952 0.16962 0.0
C1483 C 0.24189 0.09241 0.18143 0.0
C1484 C 0.34694 0.11353 0.16168 0.0
C1485 C 0.29298 0.10764 0.16438 0.0
C1486 C 0.37909 0.13336 0.15884 0.0
C1487 C 0.38937 0.16271 0.15253 0.0
C1488 C 0.32504 0.1233 0.15828 0.0
C1489 C 0.36645 0.17031 0.14823 0.0
C1490 C 0.27088 0.11722 0.16103 0.0
C1491 C 0.26216 0.08005 0.18352 0.0
N1492 N 0.33538 0.15098 0.1514 0.0
N1493 N 0.28726 0.08843 0.17522 0.0
H1494 H 0.92967 0.19897 0.18871 0.0
H1495 H 0.7978 0.1838 0.13918 0.0
H1496 H 0.87085 0.11475 0.16541 0.0
H1497 H 0.86193 0.26963 0.16058 0.0
H1498 H 0.83329 0.16287 0.14374 0.0
H1499 H 0.9158 0.22966 0.1736 0.0
C1500 C 0.91455 0.18717 0.18013 0.0
C1501 C 0.90085 0.15427 0.17841 0.0
C1502 C 0.83999 0.18657 0.14719 0.0
C1503 C 0.88383 0.18886 0.16138 0.0
C1504 C 0.81969 0.19853 0.1446 0.0
C1505 C 0.82652 0.22813 0.14984 0.0
C1506 C 0.86707 0.20421 0.15521 0.0
C1507 C 0.85542 0.2464 0.1566 0.0
C1508 C 0.90649 0.20465 0.17153 0.0
C1509 C 0.88168 0.14009 0.16711 0.0
N1510 N 0.87432 0.23386 0.15933 0.0
N1511 N 0.87296 0.15732 0.15922 0.0
H1512 H 0.88125 0.76792 0.16667 0.0
H1513 H 0.82444 0.61783 0.14336 0.0
H1514 H 0.79885 0.72343 0.19242 0.0
H1515 H 0.73346 0.59492 0.16008 0.0
H1516 H 0.844 0.6736 0.14807 0.0
H1517 H 0.85459 0.72366 0.15088 0.0
C1518 C 0.85725 0.74919 0.16884 0.0
C1519 C 0.8426 0.7487 0.18106 0.0
C1520 C 0.81942 0.65677 0.15031 0.0
C1521 C 0.81259 0.69739 0.16344 0.0
C1522 C 0.80831 0.62469 0.14774 0.0
C1523 C 0.77752 0.60166 0.15162 0.0
C1524 C 0.7996 0.66587 0.15694 0.0
C1525 C 0.75755 0.61188 0.15711 0.0
C1526 C 0.84221 0.7236 0.15993 0.0
C1527 C 0.81135 0.7242 0.18328 0.0
N1528 N 0.76918 0.64318 0.15988 0.0
N1529 N 0.79763 0.69919 0.17469 0.0
H1530 H 0.12479 0.40561 0.33478 0.0
H1531 H 0.11039 0.23604 0.33304 0.0
H1532 H 0.18894 0.38151 0.35465 0.0
H1533 H 0.0566 0.2648 0.30807 0.0
H1534 H 0.12594 0.28274 0.34725 0.0
H1535 H 0.08797 0.34906 0.33096 0.0
C1536 C 0.13093 0.3884 0.3385 0.0
C1537 C 0.16032 0.39825 0.3447 0.0
C1538 C 0.10995 0.27831 0.33889 0.0
C1539 C 0.1184 0.33364 0.34038 0.0
C1540 C 0.10081 0.25148 0.33087 0.0
C1541 C 0.08293 0.24718 0.3192 0.0
C1542 C 0.10108 0.30073 0.33513 0.0
C1543 C 0.07107 0.26779 0.31683 0.0
C1544 C 0.10986 0.35612 0.33636 0.0
C1545 C 0.16683 0.37495 0.34954 0.0
N1546 N 0.08095 0.29412 0.32455 0.0
N1547 N 0.14627 0.34373 0.34708 0.0
H1548 H 0.61745 0.82298 0.35889 0.0
H1549 H 0.72734 0.79655 0.30982 0.0
H1550 H 0.59091 0.73311 0.33994 0.0
H1551 H 0.759 0.88229 0.33297 0.0
H1552 H 0.68271 0.76857 0.32519 0.0
H1553 H 0.67309 0.84084 0.35399 0.0
C1554 C 0.62339 0.80679 0.3539 0.0
C1555 C 0.5995 0.77685 0.34947 0.0
C1556 C 0.6998 0.79329 0.32716 0.0
C1557 C 0.66309 0.79723 0.34371 0.0
C1558 C 0.72536 0.80923 0.3184 0.0
C1559 C 0.74634 0.84188 0.31999 0.0
C1560 C 0.6948 0.81041 0.33734 0.0
C1561 C 0.74305 0.85715 0.33133 0.0
C1562 C 0.65522 0.81696 0.35114 0.0
C1563 C 0.60856 0.75663 0.34329 0.0
N1564 N 0.71713 0.84149 0.33938 0.0
N1565 N 0.6396 0.76744 0.34033 0.0
H1566 H 0.11388 0.88116 0.336 0.0
H1567 H 0.27117 0.8712 0.34189 0.0
H1568 H 0.19864 0.93576 0.31239 0.0
H1569 H 0.18123 0.80443 0.35981 0.0
H1570 H 0.25065 0.90717 0.33755 0.0
H1571 H 0.14404 0.86617 0.35113 0.0
C1572 C 0.13911 0.89096 0.3343 0.0
C1573 C 0.15372 0.90907 0.32279 0.0
C1574 C 0.23561 0.88493 0.34269 0.0
C1575 C 0.18807 0.89174 0.33983 0.0
C1576 C 0.24733 0.86438 0.34516 0.0
C1577 C 0.22755 0.83442 0.35086 0.0
C1578 C 0.20385 0.87528 0.34584 0.0
C1579 C 0.19705 0.82703 0.3551 0.0
C1580 C 0.15625 0.8822 0.34287 0.0
C1581 C 0.1864 0.92117 0.32103 0.0
N1582 N 0.18589 0.84705 0.35226 0.0
N1583 N 0.20237 0.91179 0.3293 0.0
H1584 H 0.71331 0.87017 0.80326 0.0
H1585 H 0.59772 0.72582 0.84771 0.0
H1586 H 0.7368 0.80302 0.82059 0.0
H1587 H 0.57011 0.78674 0.82747 0.0
H1588 H 0.64296 0.74411 0.83255 0.0
H1589 H 0.65703 0.83229 0.80689 0.0
C1590 C 0.7066 0.84721 0.80761 0.0
C1591 C 0.72978 0.84005 0.81198 0.0
C1592 C 0.6266 0.7529 0.83113 0.0
C1593 C 0.66545 0.79668 0.81625 0.0
C1594 C 0.60062 0.74225 0.83974 0.0
C1595 C 0.58064 0.7553 0.83897 0.0
C1596 C 0.63308 0.77745 0.82198 0.0
C1597 C 0.58521 0.77633 0.82844 0.0
C1598 C 0.67442 0.82552 0.80964 0.0
C1599 C 0.71973 0.80978 0.81733 0.0
N1600 N 0.61158 0.78755 0.82059 0.0
N1601 N 0.68835 0.78946 0.81956 0.0
H1602 H 0.26624 0.865 0.85838 0.0
H1603 H 0.12739 0.84315 0.81145 0.0
H1604 H 0.20956 0.78038 0.83494 0.0
H1605 H 0.19297 0.93194 0.83057 0.0
H1606 H 0.16394 0.8235 0.81596 0.0
H1607 H 0.24823 0.89385 0.8442 0.0
C1608 C 0.25071 0.85276 0.84997 0.0
C1609 C 0.23884 0.82018 0.84796 0.0
C1610 C 0.17067 0.8475 0.81895 0.0
C1611 C 0.21724 0.85264 0.83198 0.0
C1612 C 0.14972 0.85869 0.81643 0.0
C1613 C 0.15685 0.88894 0.82094 0.0
C1614 C 0.19871 0.86653 0.82622 0.0
C1615 C 0.18631 0.90826 0.82713 0.0
C1616 C 0.2403 0.86919 0.8419 0.0
C1617 C 0.21904 0.80547 0.83687 0.0
N1618 N 0.2059 0.8965 0.82981 0.0
N1619 N 0.20812 0.82161 0.8295 0.0
H1620 H 0.13456 0.39892 0.85672 0.0
H1621 H 0.15001 0.28311 0.80703 0.0
H1622 H 0.2183 0.42539 0.83289 0.0
H1623 H 0.06277 0.26199 0.82704 0.0
H1624 H 0.17118 0.33944 0.81181 0.0
H1625 H 0.10379 0.35466 0.84147 0.0
C1626 C 0.14624 0.3959 0.84801 0.0
C1627 C 0.17907 0.41529 0.84618 0.0
C1628 C 0.14715 0.32262 0.81491 0.0
C1629 C 0.14437 0.36408 0.82897 0.0
C1630 C 0.13507 0.2904 0.81221 0.0
C1631 C 0.10493 0.2678 0.81698 0.0
C1632 C 0.12913 0.33217 0.82262 0.0
C1633 C 0.08639 0.27859 0.82341 0.0
C1634 C 0.1287 0.37055 0.83932 0.0
C1635 C 0.19305 0.4107 0.83471 0.0
N1636 N 0.09905 0.30996 0.82631 0.0
N1637 N 0.17578 0.38494 0.82672 0.0
H1638 H 0.77837 0.5716 0.66811 0.0
H1639 H 0.79642 0.74296 0.66963 0.0
H1640 H 0.72486 0.60142 0.64354 0.0
H1641 H 0.86233 0.71859 0.6876 0.0
H1642 H 0.75847 0.68636 0.66661 0.0
H1643 H 0.79615 0.61926 0.68198 0.0
C1644 C 0.76932 0.5875 0.66598 0.0
C1645 C 0.75078 0.58311 0.65451 0.0
C1646 C 0.781 0.6934 0.67145 0.0
C1647 C 0.7714 0.6377 0.67006 0.0
C1648 C 0.80269 0.7257 0.67317 0.0
C1649 C 0.83288 0.73546 0.67853 0.0
C1650 C 0.78968 0.67079 0.67509 0.0
C1651 C 0.83956 0.71209 0.68313 0.0
C1652 C 0.77972 0.61486 0.6738 0.0
C1653 C 0.73973 0.60439 0.65216 0.0
N1654 N 0.81835 0.68083 0.68108 0.0
N1655 N 0.75075 0.63116 0.65969 0.0
H1656 H 0.39278 0.12979 0.64331 0.0
H1657 H 0.27681 0.14521 0.69346 0.0
H1658 H 0.4187 0.21423 0.66658 0.0
H1659 H 0.25525 0.0589 0.67246 0.0
H1660 H 0.33305 0.16665 0.68833 0.0
H1661 H 0.34823 0.09942 0.65845 0.0
C1662 C 0.38955 0.14172 0.65187 0.0
C1663 C 0.40895 0.17459 0.65359 0.0
C1664 C 0.31613 0.14275 0.68509 0.0
C1665 C 0.35738 0.14034 0.67068 0.0
C1666 C 0.28397 0.1305 0.68801 0.0
C1667 C 0.26125 0.10056 0.68306 0.0
C1668 C 0.3255 0.12504 0.67705 0.0
C1669 C 0.27191 0.08236 0.67623 0.0
C1670 C 0.36402 0.12442 0.6605 0.0
C1671 C 0.40404 0.18891 0.66487 0.0
N1672 N 0.3032 0.09514 0.6732 0.0
N1673 N 0.37814 0.17185 0.6728 0.0
H1674 H 0.77206 0.20866 0.67055 0.0
H1675 H 0.9306 0.20076 0.67629 0.0
H1676 H 0.85756 0.26629 0.64781 0.0
H1677 H 0.83979 0.1307 0.69245 0.0
H1678 H 0.90941 0.23642 0.67258 0.0
H1679 H 0.80203 0.19274 0.68535 0.0
C1680 C 0.7974 0.21896 0.66901 0.0
C1681 C 0.81231 0.2382 0.6578 0.0
C1682 C 0.89431 0.21349 0.67719 0.0
C1683 C 0.84643 0.21978 0.67443 0.0
C1684 C 0.90639 0.19311 0.6793 0.0
C1685 C 0.88663 0.16241 0.68433 0.0
C1686 C 0.86222 0.20297 0.68006 0.0
C1687 C 0.85563 0.15393 0.68826 0.0
C1688 C 0.81443 0.20964 0.67737 0.0
C1689 C 0.84512 0.25086 0.65621 0.0
N1690 N 0.84417 0.17387 0.6858 0.0
N1691 N 0.86099 0.24093 0.66427 0.0
H1692 H 0.04713 0.53448 0.47952 0.0
H1693 H 0.92973 0.39869 0.5277 0.0
H1694 H 0.06966 0.47008 0.50019 0.0
H1695 H 0.90324 0.45655 0.50431 0.0
H1696 H 0.97587 0.41509 0.51325 0.0
H1697 H 0.99091 0.49873 0.48425 0.0
C1698 C 0.0402 0.5126 0.48491 0.0
C1699 C 0.06313 0.50559 0.48978 0.0
C1700 C 0.95961 0.42364 0.51101 0.0
C1701 C -0.00114 0.46461 0.49526 0.0
C1702 C 0.93316 0.41411 0.51923 0.0
C1703 C 0.91315 0.42684 0.51731 0.0
C1704 C 0.96647 0.44671 0.50106 0.0
C1705 C 0.91835 0.44645 0.50616 0.0
C1706 C 0.00805 0.4921 0.48756 0.0
C1707 C 0.0528 0.47669 0.49648 0.0
N1708 N 0.94509 0.45656 0.49865 0.0
N1709 N 0.02145 0.45752 0.49923 0.0
H1710 H 0.54308 0.44868 0.49882 0.0
H1711 H 0.53471 0.60696 0.49209 0.0
H1712 H 0.59592 0.53283 0.52303 0.0
H1713 H 0.46701 0.51666 0.47466 0.0
H1714 H 0.56995 0.58578 0.49686 0.0
H1715 H 0.52879 0.47914 0.48352 0.0
C1716 C 0.55266 0.47384 0.50063 0.0
C1717 C 0.57007 0.4882 0.51232 0.0
C1718 C 0.54767 0.57081 0.49174 0.0
C1719 C 0.55359 0.52288 0.49508 0.0
C1720 C 0.52754 0.58289 0.48901 0.0
C1721 C 0.49752 0.56323 0.48332 0.0
C1722 C 0.53757 0.53882 0.48883 0.0
C1723 C 0.48967 0.53241 0.47934 0.0
C1724 C 0.5443 0.49115 0.49196 0.0
C1725 C 0.58188 0.5208 0.51423 0.0
N1726 N 0.50931 0.52092 0.48241 0.0
N1727 N 0.57295 0.53694 0.50584 0.0
H1728 H 0.46651 0.06612 0.52305 0.0
H1729 H 0.49367 0.95773 0.47326 0.0
H1730 H 0.55344 0.09779 0.50083 0.0
H1731 H 0.40338 0.93119 0.49175 0.0
H1732 H 0.5119 0.01327 0.47865 0.0
H1733 H 0.43895 0.02251 0.50715 0.0
C1734 C 0.47956 0.06439 0.51456 0.0
C1735 C 0.51237 0.08505 0.51338 0.0
C1736 C 0.48786 0.99543 0.48128 0.0
C1737 C 0.48135 0.03461 0.49543 0.0
C1738 C 0.47745 0.96367 0.47824 0.0
C1739 C 0.44728 0.93977 0.48241 0.0
C1740 C 0.4681 0.00322 0.48873 0.0
C1741 C 0.42707 0.94883 0.48859 0.0
C1742 C 0.46386 0.0394 0.5055 0.0
C1743 C 0.52814 0.08208 0.50215 0.0
N1744 N 0.43809 0.97978 0.49183 0.0
N1745 N 0.51267 0.05668 0.4938 0.0
H1746 H 0.4664 0.06564 0.99793 0.0
H1747 H 0.45994 0.89928 0.99561 0.0
H1748 H 0.53248 0.04492 0.01827 0.0
H1749 H 0.40355 0.925 0.97075 0.0
H1750 H 0.47441 0.94604 0.00967 0.0
H1751 H 0.43227 0.00891 0.9934 0.0
C1752 C 0.47353 0.04912 0.00159 0.0
C1753 C 0.50268 0.06003 0.00818 0.0
C1754 C 0.45814 0.94095 0.00136 0.0
C1755 C 0.46384 0.99521 0.00303 0.0
C1756 C 0.44965 0.9141 0.99342 0.0
C1757 C 0.43118 0.90886 0.98187 0.0
C1758 C 0.44802 0.96242 0.99762 0.0
C1759 C 0.41844 0.92871 0.97944 0.0
C1760 C 0.454 0.01673 0.99904 0.0
C1761 C 0.5105 0.03756 0.0129 0.0
N1762 N 0.42761 0.95501 0.98709 0.0
N1763 N 0.49144 0.00624 0.01005 0.0
H1764 H 0.92984 0.39732 0.01025 0.0
H1765 H 0.10205 0.54705 0.0018 0.0
H1766 H 0.95871 0.49151 0.02504 0.0
H1767 H 0.06493 0.46024 0.97891 0.0
H1768 H 0.05694 0.52051 0.01726 0.0
H1769 H 0.9855 0.41412 0.00569 0.0
C1770 C 0.94793 0.42136 0.01278 0.0
C1771 C 0.93962 0.44334 0.01767 0.0
C1772 C 0.05922 0.50701 0.00909 0.0
C1773 C 0.0032 0.46267 0.01247 0.0
C1774 C 0.0851 0.52206 0.00034 0.0
C1775 C 0.08666 0.50593 0.98893 0.0
C1776 C 0.03507 0.47574 0.00634 0.0
C1777 C 0.06413 0.47363 0.98747 0.0
C1778 C 0.97969 0.43092 0.01019 0.0
C1779 C 0.96405 0.47402 0.02097 0.0
N1780 N 0.03888 0.45973 0.99592 0.0
N1781 N 0.99473 0.48297 0.01808 0.0
H1782 H 0.4488 0.53816 0.00105 0.0
H1783 H 0.60909 0.53428 0.00828 0.0
H1784 H 0.53213 0.59069 0.9764 0.0
H1785 H 0.52018 0.46746 0.02694 0.0
H1786 H 0.58701 0.56857 0.00308 0.0
H1787 H 0.48046 0.52651 0.01682 0.0
C1788 C 0.47401 0.54822 0.99923 0.0
C1789 C 0.48781 0.56474 0.9873 0.0
C1790 C 0.57257 0.54673 0.00858 0.0
C1791 C 0.52389 0.55127 0.00507 0.0
C1792 C 0.58518 0.52716 0.01156 0.0
C1793 C 0.5661 0.49756 0.01768 0.0
C1794 C 0.54063 0.53646 0.01166 0.0
C1795 C 0.53546 0.48977 0.02191 0.0
C1796 C 0.49202 0.54139 0.00816 0.0
C1797 C 0.52051 0.57726 0.98537 0.0
N1798 N 0.52342 0.50879 0.01857 0.0
N1799 N 0.53734 0.56978 0.99403 0.0
loop_
_geom_bond_atom_site_label_1
_geom_bond_atom_site_label_2
_geom_bond_distance
_geom_bond_site_symmetry_2
_ccdc_geom_bond_type
Co0 O1 2.216 . S
Co0 O2 2.091 . S
Co0 O4 2.004 . S
Co0 O10 2.021 . S
Co0 O12 2.137 . S
Co0 O13 2.244 . S
O1 Co0 2.216 . S
O1 C8 1.247 . S
O2 Co0 2.091 . S
O2 C8 1.261 . S
C3 O12 1.247 . S
C3 O13 1.272 . S
O4 Co0 2.004 . S
O4 C9 1.259 . S
Co5 O6 2.061 . S
Co5 O11 2.052 . S
Co5 O13 2.135 . S
O6 Co5 2.061 . S
O6 C9 1.235 . S
C7 O10 1.238 . S
C7 O11 1.241 . S
C8 O1 1.247 . S
C8 O2 1.261 . S
C9 O4 1.259 . S
C9 O6 1.235 . S
O10 Co0 2.021 . S
O10 C7 1.238 . S
O11 Co5 2.052 . S
O11 C7 1.241 . S
O12 Co0 2.137 . S
O12 C3 1.247 . S
O13 Co0 2.244 . S
O13 C3 1.272 . S
O13 Co5 2.135 . S
Co14 O15 2.216 . S
Co14 O16 2.091 . S
Co14 O18 2.004 1_545 S
Co14 O24 2.021 . S
Co14 O26 2.137 . S
Co14 O27 2.244 . S
O15 Co14 2.216 . S
O15 C22 1.247 . S
O16 Co14 2.091 . S
O16 C22 1.261 . S
C17 O26 1.247 . S
C17 O27 1.272 . S
O18 Co14 2.004 1_565 S
O18 C23 1.259 . S
Co19 O20 2.061 1_545 S
Co19 O25 2.052 . S
Co19 O27 2.135 . S
O20 Co19 2.061 1_565 S
O20 C23 1.235 . S
C21 O24 1.238 . S
C21 O25 1.241 . S
C22 O15 1.247 . S
C22 O16 1.261 . S
C23 O18 1.259 . S
C23 O20 1.235 . S
O24 Co14 2.021 . S
O24 C21 1.238 . S
O25 Co19 2.052 . S
O25 C21 1.241 . S
O26 Co14 2.137 . S
O26 C17 1.247 . S
O27 Co14 2.244 . S
O27 C17 1.272 . S
O27 Co19 2.135 . S
Co28 O29 2.216 . S
Co28 O30 2.091 . S
Co28 O32 2.004 1_655 S
Co28 O38 2.021 . S
Co28 O40 2.163 . S
Co28 O41 2.244 . S
O29 Co28 2.216 . S
O29 C36 1.247 . S
O30 Co28 2.091 . S
O30 C36 1.261 . S
C31 O40 1.267 . S
C31 O41 1.272 . S
O32 Co28 2.004 1_455 S
O32 C37 1.259 . S
Co33 O34 2.061 1_655 S
Co33 O39 2.052 . S
Co33 O41 2.135 . S
O34 Co33 2.061 1_455 S
O34 C37 1.235 . S
C35 O38 1.238 . S
C35 O39 1.241 . S
C36 O29 1.247 . S
C36 O30 1.261 . S
C37 O32 1.259 . S
C37 O34 1.235 . S
O38 Co28 2.021 . S
O38 C35 1.238 . S
O39 Co33 2.052 . S
O39 C35 1.241 . S
O40 Co28 2.163 . S
O40 C31 1.267 . S
O41 Co28 2.244 . S
O41 C31 1.272 . S
O41 Co33 2.135 . S
Co42 O43 2.216 . S
Co42 O44 2.091 . S
Co42 O46 2.004 . S
Co42 O52 2.021 . S
Co42 O54 2.137 . S
Co42 O55 2.244 . S
O43 Co42 2.216 . S
O43 C50 1.247 . S
O44 Co42 2.091 . S
O44 C50 1.261 . S
C45 O54 1.247 . S
C45 O55 1.272 . S
O46 Co42 2.004 . S
O46 C51 1.259 . S
Co47 O48 2.061 . S
Co47 O53 2.052 . S
Co47 O55 2.135 . S
O48 Co47 2.061 . S
O48 C51 1.235 . S
C49 O52 1.238 . S
C49 O53 1.241 . S
C50 O43 1.247 . S
C50 O44 1.261 . S
C51 O46 1.259 . S
C51 O48 1.235 . S
O52 Co42 2.021 . S
O52 C49 1.238 . S
O53 Co47 2.052 . S
O53 C49 1.241 . S
O54 Co42 2.137 . S
O54 C45 1.247 . S
O55 Co42 2.244 . S
O55 C45 1.272 . S
O55 Co47 2.135 . S
Co56 O57 2.216 . S
Co56 O58 2.091 . S
Co56 O60 2.004 1_565 S
Co56 O66 2.021 . S
Co56 O68 2.137 . S
Co56 O69 2.244 . S
O57 Co56 2.216 . S
O57 C64 1.247 . S
O58 Co56 2.091 . S
O58 C64 1.261 . S
C59 O68 1.247 . S
C59 O69 1.272 . S
O60 Co56 2.004 1_545 S
O60 C65 1.259 . S
Co61 O62 2.061 1_565 S
Co61 O67 2.052 . S
Co61 O69 2.135 . S
O62 Co61 2.061 1_545 S
O62 C65 1.235 . S
C63 O66 1.238 . S
C63 O67 1.241 . S
C64 O57 1.247 . S
C64 O58 1.261 . S
C65 O60 1.259 . S
C65 O62 1.235 . S
O66 Co56 2.021 . S
O66 C63 1.238 . S
O67 Co61 2.052 . S
O67 C63 1.241 . S
O68 Co56 2.137 . S
O68 C59 1.247 . S
O69 Co56 2.244 . S
O69 C59 1.272 . S
O69 Co61 2.135 . S
Co70 O71 2.216 . S
Co70 O72 2.091 . S
Co70 O74 2.004 1_455 S
Co70 O80 2.021 . S
Co70 O82 2.137 . S
Co70 O83 2.244 . S
O71 Co70 2.216 . S
O71 C78 1.247 . S
O72 Co70 2.091 . S
O72 C78 1.261 . S
C73 O82 1.247 . S
C73 O83 1.272 . S
O74 Co70 2.004 1_655 S
O74 C79 1.259 . S
Co75 O76 2.061 1_455 S
Co75 O81 2.052 . S
Co75 O83 2.135 . S
O76 Co75 2.061 1_655 S
O76 C79 1.235 . S
C77 O80 1.238 . S
C77 O81 1.241 . S
C78 O71 1.247 . S
C78 O72 1.261 . S
C79 O74 1.259 . S
C79 O76 1.235 . S
O80 Co70 2.021 . S
O80 C77 1.238 . S
O81 Co75 2.052 . S
O81 C77 1.241 . S
O82 Co70 2.137 . S
O82 C73 1.247 . S
O83 Co70 2.244 . S
O83 C73 1.272 . S
O83 Co75 2.135 . S
Co84 O85 2.216 . S
Co84 O86 2.091 . S
Co84 O88 2.004 . S
Co84 O94 2.021 . S
Co84 O96 2.137 . S
Co84 O97 2.244 . S
O85 Co84 2.216 . S
O85 C92 1.247 . S
O86 Co84 2.091 . S
O86 C92 1.261 . S
C87 O96 1.247 . S
C87 O97 1.272 . S
O88 Co84 2.004 . S
O88 C93 1.259 . S
Co89 O90 2.061 . S
Co89 O95 2.052 . S
Co89 O97 2.135 . S
O90 Co89 2.061 . S
O90 C93 1.235 . S
C91 O94 1.238 . S
C91 O95 1.241 . S
C92 O85 1.247 . S
C92 O86 1.261 . S
C93 O88 1.259 . S
C93 O90 1.235 . S
O94 Co84 2.021 . S
O94 C91 1.238 . S
O95 Co89 2.052 . S
O95 C91 1.241 . S
O96 Co84 2.137 . S
O96 C87 1.247 . S
O97 Co84 2.244 . S
O97 C87 1.272 . S
O97 Co89 2.135 . S
Co98 O99 2.216 . S
Co98 O100 2.091 . S
Co98 O102 2.004 1_565 S
Co98 O108 2.021 . S
Co98 O110 2.137 . S
Co98 O111 2.244 . S
O99 Co98 2.216 . S
O99 C106 1.247 . S
O100 Co98 2.091 . S
O100 C106 1.261 . S
C101 O110 1.247 . S
C101 O111 1.272 . S
O102 Co98 2.004 1_545 S
O102 C107 1.259 . S
Co103 O104 2.047 1_565 S
Co103 O109 2.068 . S
Co103 O111 2.158 . S
O104 Co103 2.047 1_545 S
O104 C107 1.235 . S
C105 O108 1.238 . S
C105 O109 1.241 . S
C106 O99 1.247 . S
C106 O100 1.261 . S
C107 O102 1.259 . S
C107 O104 1.235 . S
O108 Co98 2.021 . S
O108 C105 1.238 . S
O109 Co103 2.068 . S
O109 C105 1.241 . S
O110 Co98 2.137 . S
O110 C101 1.247 . S
O111 Co98 2.244 . S
O111 C101 1.272 . S
O111 Co103 2.158 . S
Co112 O113 2.216 . S
Co112 O114 2.091 . S
Co112 O116 2.004 1_455 S
Co112 O122 2.021 . S
Co112 O124 2.137 . S
Co112 O125 2.244 . S
O113 Co112 2.216 . S
O113 C120 1.247 . S
O114 Co112 2.091 . S
O114 C120 1.261 . S
C115 O124 1.247 . S
C115 O125 1.272 . S
O116 Co112 2.004 1_655 S
O116 C121 1.259 . S
Co117 O118 2.061 1_455 S
Co117 O123 2.052 . S
Co117 O125 2.135 . S
O118 Co117 2.061 1_655 S
O118 C121 1.235 . S
C119 O122 1.238 . S
C119 O123 1.241 . S
C120 O113 1.247 . S
C120 O114 1.261 . S
C121 O116 1.259 . S
C121 O118 1.235 . S
O122 Co112 2.021 . S
O122 C119 1.238 . S
O123 Co117 2.052 . S
O123 C119 1.241 . S
O124 Co112 2.137 . S
O124 C115 1.247 . S
O125 Co112 2.244 . S
O125 C115 1.272 . S
O125 Co117 2.135 . S
Co126 O127 2.216 . S
Co126 O128 2.091 . S
Co126 O130 2.004 . S
Co126 O136 2.021 . S
Co126 O138 2.137 . S
Co126 O139 2.244 . S
O127 Co126 2.216 . S
O127 C134 1.247 . S
O128 Co126 2.091 . S
O128 C134 1.261 . S
C129 O138 1.247 . S
C129 O139 1.272 . S
O130 Co126 2.004 . S
O130 C135 1.259 . S
Co131 O132 2.061 . S
Co131 O137 2.052 . S
Co131 O139 2.135 . S
O132 Co131 2.061 . S
O132 C135 1.235 . S
C133 O136 1.238 . S
C133 O137 1.241 . S
C134 O127 1.247 . S
C134 O128 1.261 . S
C135 O130 1.259 . S
C135 O132 1.235 . S
O136 Co126 2.021 . S
O136 C133 1.238 . S
O137 Co131 2.052 . S
O137 C133 1.241 . S
O138 Co126 2.137 . S
O138 C129 1.247 . S
O139 Co126 2.244 . S
O139 C129 1.272 . S
O139 Co131 2.135 . S
Co140 O141 2.216 . S
Co140 O142 2.091 . S
Co140 O144 2.004 1_545 S
Co140 O150 2.021 . S
Co140 O152 2.137 . S
Co140 O153 2.244 . S
O141 Co140 2.216 . S
O141 C148 1.247 . S
O142 Co140 2.091 . S
O142 C148 1.261 . S
C143 O152 1.247 . S
C143 O153 1.272 . S
O144 Co140 2.004 1_565 S
O144 C149 1.259 . S
Co145 O146 2.061 1_545 S
Co145 O151 2.052 . S
Co145 O153 2.135 . S
O146 Co145 2.061 1_565 S
O146 C149 1.235 . S
C147 O150 1.238 . S
C147 O151 1.241 . S
C148 O141 1.247 . S
C148 O142 1.261 . S
C149 O144 1.259 . S
C149 O146 1.235 . S
O150 Co140 2.021 . S
O150 C147 1.238 . S
O151 Co145 2.052 . S
O151 C147 1.241 . S
O152 Co140 2.137 . S
O152 C143 1.247 . S
O153 Co140 2.244 . S
O153 C143 1.272 . S
O153 Co145 2.135 . S
Co154 O155 2.216 . S
Co154 O156 2.091 . S
Co154 O158 2.004 1_655 S
Co154 O164 2.021 . S
Co154 O166 2.137 . S
Co154 O167 2.244 . S
O155 Co154 2.216 . S
O155 C162 1.247 . S
O156 Co154 2.091 . S
O156 C162 1.261 . S
C157 O166 1.247 . S
C157 O167 1.272 . S
O158 Co154 2.004 1_455 S
O158 C163 1.259 . S
Co159 O160 2.048 1_655 S
Co159 O165 2.067 . S
Co159 O167 2.156 . S
O160 Co159 2.048 1_455 S
O160 C163 1.235 . S
C161 O164 1.238 . S
C161 O165 1.241 . S
C162 O155 1.247 . S
C162 O156 1.261 . S
C163 O158 1.259 . S
C163 O160 1.235 . S
O164 Co154 2.021 . S
O164 C161 1.238 . S
O165 Co159 2.067 . S
O165 C161 1.241 . S
O166 Co154 2.137 . S
O166 C157 1.247 . S
O167 Co154 2.244 . S
O167 C157 1.272 . S
O167 Co159 2.156 . S
Co168 O169 2.216 . S
Co168 O170 2.091 . S
Co168 O172 2.004 . S
Co168 O178 2.021 . S
Co168 O180 2.137 . S
Co168 O181 2.244 . S
O169 Co168 2.216 . S
O169 C176 1.247 . S
O170 Co168 2.091 . S
O170 C176 1.261 . S
C171 O180 1.247 . S
C171 O181 1.272 . S
O172 Co168 2.004 . S
O172 C177 1.259 . S
Co173 O174 2.061 . S
Co173 O179 2.052 . S
Co173 O181 2.135 . S
O174 Co173 2.061 . S
O174 C177 1.235 . S
C175 O178 1.238 . S
C175 O179 1.241 . S
C176 O169 1.247 . S
C176 O170 1.261 . S
C177 O172 1.259 . S
C177 O174 1.235 . S
O178 Co168 2.021 . S
O178 C175 1.238 . S
O179 Co173 2.052 . S
O179 C175 1.241 . S
O180 Co168 2.137 . S
O180 C171 1.247 . S
O181 Co168 2.244 . S
O181 C171 1.272 . S
O181 Co173 2.135 . S
Co182 O183 2.216 . S
Co182 O184 2.091 . S
Co182 O186 2.004 . S
Co182 O192 2.021 . S
Co182 O194 2.137 . S
Co182 O195 2.244 . S
O183 Co182 2.216 . S
O183 C190 1.247 . S
O184 Co182 2.091 . S
O184 C190 1.261 . S
C185 O194 1.247 . S
C185 O195 1.272 . S
O186 Co182 2.004 . S
O186 C191 1.259 . S
Co187 O188 2.061 . S
Co187 O193 2.052 . S
Co187 O195 2.135 . S
O188 Co187 2.061 . S
O188 C191 1.235 . S
C189 O192 1.238 . S
C189 O193 1.241 . S
C190 O183 1.247 . S
C190 O184 1.261 . S
C191 O186 1.259 . S
C191 O188 1.235 . S
O192 Co182 2.021 . S
O192 C189 1.238 . S
O193 Co187 2.052 . S
O193 C189 1.241 . S
O194 Co182 2.137 . S
O194 C185 1.247 . S
O195 Co182 2.244 . S
O195 C185 1.272 . S
O195 Co187 2.135 . S
Co196 O197 2.216 . S
Co196 O198 2.091 . S
Co196 O200 2.004 . S
Co196 O206 2.021 . S
Co196 O208 2.137 . S
Co196 O209 2.244 . S
O197 Co196 2.216 . S
O197 C204 1.247 . S
O198 Co196 2.091 . S
O198 C204 1.261 . S
C199 O208 1.247 . S
C199 O209 1.272 . S
O200 Co196 2.004 . S
O200 C205 1.259 . S
Co201 O202 2.061 . S
Co201 O207 2.052 . S
Co201 O209 2.135 . S
O202 Co201 2.061 . S
O202 C205 1.235 . S
C203 O206 1.238 . S
C203 O207 1.241 . S
C204 O197 1.247 . S
C204 O198 1.261 . S
C205 O200 1.259 . S
C205 O202 1.235 . S
O206 Co196 2.021 . S
O206 C203 1.238 . S
O207 Co201 2.052 . S
O207 C203 1.241 . S
O208 Co196 2.137 . S
O208 C199 1.247 . S
O209 Co196 2.244 . S
O209 C199 1.272 . S
O209 Co201 2.135 . S
Co210 O211 2.216 . S
Co210 O212 2.091 . S
Co210 O214 2.004 . S
Co210 O220 2.021 . S
Co210 O222 2.137 . S
Co210 O223 2.244 . S
O211 Co210 2.216 . S
O211 C218 1.247 . S
O212 Co210 2.091 . S
O212 C218 1.261 . S
C213 O222 1.247 . S
C213 O223 1.272 . S
O214 Co210 2.004 . S
O214 C219 1.259 . S
Co215 O216 2.061 . S
Co215 O221 2.052 . S
Co215 O223 2.135 . S
O216 Co215 2.061 . S
O216 C219 1.235 . S
C217 O220 1.238 . S
C217 O221 1.241 . S
C218 O211 1.247 . S
C218 O212 1.261 . S
C219 O214 1.259 . S
C219 O216 1.235 . S
O220 Co210 2.021 . S
O220 C217 1.238 . S
O221 Co215 2.052 . S
O221 C217 1.241 . S
O222 Co210 2.137 . S
O222 C213 1.247 . S
O223 Co210 2.244 . S
O223 C213 1.272 . S
O223 Co215 2.135 . S
Co224 O225 2.216 . S
Co224 O226 2.091 . S
Co224 O228 2.004 . S
Co224 O234 2.021 . S
Co224 O236 2.137 . S
Co224 O237 2.244 . S
O225 Co224 2.216 . S
O225 C232 1.247 . S
O226 Co224 2.091 . S
O226 C232 1.261 . S
C227 O236 1.247 . S
C227 O237 1.272 . S
O228 Co224 2.004 . S
O228 C233 1.259 . S
Co229 O230 2.061 . S
Co229 O235 2.052 . S
Co229 O237 2.135 . S
O230 Co229 2.061 . S
O230 C233 1.235 . S
C231 O234 1.238 . S
C231 O235 1.241 . S
C232 O225 1.247 . S
C232 O226 1.261 . S
C233 O228 1.259 . S
C233 O230 1.235 . S
O234 Co224 2.021 . S
O234 C231 1.238 . S
O235 Co229 2.052 . S
O235 C231 1.241 . S
O236 Co224 2.137 . S
O236 C227 1.247 . S
O237 Co224 2.244 . S
O237 C227 1.272 . S
O237 Co229 2.135 . S
Co238 O239 2.216 . S
Co238 O240 2.091 . S
Co238 O242 2.004 . S
Co238 O248 2.021 . S
Co238 O250 2.137 . S
Co238 O251 2.244 . S
O239 Co238 2.216 . S
O239 C246 1.247 . S
O240 Co238 2.091 . S
O240 C246 1.261 . S
C241 O250 1.247 . S
C241 O251 1.272 . S
O242 Co238 2.004 . S
O242 C247 1.259 . S
Co243 O244 2.061 . S
Co243 O249 2.052 . S
Co243 O251 2.135 . S
O244 Co243 2.061 . S
O244 C247 1.235 . S
C245 O248 1.238 . S
C245 O249 1.241 . S
C246 O239 1.247 . S
C246 O240 1.261 . S
C247 O242 1.259 . S
C247 O244 1.235 . S
O248 Co238 2.021 . S
O248 C245 1.238 . S
O249 Co243 2.052 . S
O249 C245 1.241 . S
O250 Co238 2.137 . S
O250 C241 1.247 . S
O251 Co238 2.244 . S
O251 C241 1.272 . S
O251 Co243 2.135 . S
Co252 O253 2.216 . S
Co252 O254 2.091 . S
Co252 O256 2.004 . S
Co252 O262 2.021 . S
Co252 O264 2.137 . S
Co252 O265 2.244 . S
O253 Co252 2.216 . S
O253 C260 1.247 . S
O254 Co252 2.091 . S
O254 C260 1.261 . S
C255 O264 1.247 . S
C255 O265 1.272 . S
O256 Co252 2.004 . S
O256 C261 1.259 . S
Co257 O258 2.061 . S
Co257 O263 2.052 . S
Co257 O265 2.135 . S
O258 Co257 2.061 . S
O258 C261 1.235 . S
C259 O262 1.238 . S
C259 O263 1.241 . S
C260 O253 1.247 . S
C260 O254 1.261 . S
C261 O256 1.259 . S
C261 O258 1.235 . S
O262 Co252 2.021 . S
O262 C259 1.238 . S
O263 Co257 2.052 . S
O263 C259 1.241 . S
O264 Co252 2.137 . S
O264 C255 1.247 . S
O265 Co252 2.244 . S
O265 C255 1.272 . S
O265 Co257 2.135 . S
Co266 O267 2.216 . S
Co266 O268 2.091 . S
Co266 O270 2.004 . S
Co266 O276 2.021 . S
Co266 O278 2.137 . S
Co266 O279 2.244 . S
O267 Co266 2.216 . S
O267 C274 1.247 . S
O268 Co266 2.091 . S
O268 C274 1.261 . S
C269 O278 1.247 . S
C269 O279 1.272 . S
O270 Co266 2.004 . S
O270 C275 1.259 . S
Co271 O272 2.061 . S
Co271 O277 2.052 . S
Co271 O279 2.135 . S
O272 Co271 2.061 . S
O272 C275 1.235 . S
C273 O276 1.238 . S
C273 O277 1.241 . S
C274 O267 1.247 . S
C274 O268 1.261 . S
C275 O270 1.259 . S
C275 O272 1.235 . S
O276 Co266 2.021 . S
O276 C273 1.238 . S
O277 Co271 2.052 . S
O277 C273 1.241 . S
O278 Co266 2.137 . S
O278 C269 1.247 . S
O279 Co266 2.244 . S
O279 C269 1.272 . S
O279 Co271 2.135 . S
Co280 O281 2.216 . S
Co280 O282 2.091 . S
Co280 O284 2.004 . S
Co280 O290 2.021 . S
Co280 O292 2.137 . S
Co280 O293 2.244 . S
O281 Co280 2.216 . S
O281 C288 1.247 . S
O282 Co280 2.091 . S
O282 C288 1.261 . S
C283 O292 1.247 . S
C283 O293 1.272 . S
O284 Co280 2.004 . S
O284 C289 1.259 . S
Co285 O286 2.061 . S
Co285 O291 2.052 . S
Co285 O293 2.135 . S
O286 Co285 2.061 . S
O286 C289 1.235 . S
C287 O290 1.238 . S
C287 O291 1.241 . S
C288 O281 1.247 . S
C288 O282 1.261 . S
C289 O284 1.259 . S
C289 O286 1.235 . S
O290 Co280 2.021 . S
O290 C287 1.238 . S
O291 Co285 2.052 . S
O291 C287 1.241 . S
O292 Co280 2.137 . S
O292 C283 1.247 . S
O293 Co280 2.244 . S
O293 C283 1.272 . S
O293 Co285 2.135 . S
Co294 O295 2.216 . S
Co294 O296 2.091 1_554 S
Co294 O298 2.004 1_554 S
Co294 O304 2.021 . S
Co294 O306 2.137 1_554 S
Co294 O307 2.244 . S
O295 Co294 2.216 . S
O295 C302 1.236 1_554 S
O296 Co294 2.091 1_556 S
O296 C302 1.269 . S
C297 O306 1.247 1_554 S
C297 O307 1.272 . S
O298 Co294 2.004 1_556 S
O298 C303 1.259 1_556 S
Co299 O300 2.061 . S
Co299 O305 2.052 . S
Co299 O307 2.135 . S
O300 Co299 2.061 . S
O300 C303 1.235 . S
C301 O304 1.238 . S
C301 O305 1.241 . S
C302 O295 1.236 1_556 S
C302 O296 1.269 . S
C303 O298 1.259 1_554 S
C303 O300 1.235 . S
O304 Co294 2.021 . S
O304 C301 1.238 . S
O305 Co299 2.052 . S
O305 C301 1.241 . S
O306 Co294 2.137 1_556 S
O306 C297 1.247 1_556 S
O307 Co294 2.244 . S
O307 C297 1.272 . S
O307 Co299 2.135 . S
Co308 O309 2.216 . S
Co308 O310 2.091 1_554 S
Co308 O312 2.004 1_554 S
Co308 O318 2.021 . S
Co308 O320 2.137 1_554 S
Co308 O321 2.244 . S
O309 Co308 2.216 . S
O309 C316 1.234 1_554 S
O310 Co308 2.091 1_556 S
O310 C316 1.270 . S
C311 O320 1.247 1_554 S
C311 O321 1.272 . S
O312 Co308 2.004 1_556 S
O312 C317 1.259 1_556 S
Co313 O314 2.061 . S
Co313 O319 2.052 . S
Co313 O321 2.135 . S
O314 Co313 2.061 . S
O314 C317 1.235 . S
C315 O318 1.238 . S
C315 O319 1.241 . S
C316 O309 1.234 1_556 S
C316 O310 1.270 . S
C317 O312 1.259 1_554 S
C317 O314 1.235 . S
O318 Co308 2.021 . S
O318 C315 1.238 . S
O319 Co313 2.052 . S
O319 C315 1.241 . S
O320 Co308 2.137 1_556 S
O320 C311 1.247 1_556 S
O321 Co308 2.244 . S
O321 C311 1.272 . S
O321 Co313 2.135 . S
Co322 O323 2.216 . S
Co322 O324 2.091 1_554 S
Co322 O326 2.004 1_554 S
Co322 O332 2.021 . S
Co322 O334 2.137 1_554 S
Co322 O335 2.244 . S
O323 Co322 2.216 . S
O323 C330 1.236 1_554 S
O324 Co322 2.091 1_556 S
O324 C330 1.269 . S
C325 O334 1.247 1_554 S
C325 O335 1.272 . S
O326 Co322 2.004 1_556 S
O326 C331 1.259 1_556 S
Co327 O328 2.061 . S
Co327 O333 2.052 . S
Co327 O335 2.135 . S
O328 Co327 2.061 . S
O328 C331 1.235 . S
C329 O332 1.238 . S
C329 O333 1.241 . S
C330 O323 1.236 1_556 S
C330 O324 1.269 . S
C331 O326 1.259 1_554 S
C331 O328 1.235 . S
O332 Co322 2.021 . S
O332 C329 1.238 . S
O333 Co327 2.052 . S
O333 C329 1.241 . S
O334 Co322 2.137 1_556 S
O334 C325 1.247 1_556 S
O335 Co322 2.244 . S
O335 C325 1.272 . S
O335 Co327 2.135 . S
Co336 O337 2.216 . S
Co336 O338 2.091 . S
Co336 O340 2.004 . S
Co336 O346 2.021 . S
Co336 O348 2.137 . S
Co336 O349 2.244 . S
O337 Co336 2.216 . S
O337 C344 1.247 . S
O338 Co336 2.091 . S
O338 C344 1.261 . S
C339 O348 1.247 . S
C339 O349 1.272 . S
O340 Co336 2.004 . S
O340 C345 1.259 . S
Co341 O342 2.061 . S
Co341 O347 2.052 . S
Co341 O349 2.135 . S
O342 Co341 2.061 . S
O342 C345 1.235 . S
C343 O346 1.238 . S
C343 O347 1.241 . S
C344 O337 1.247 . S
C344 O338 1.261 . S
C345 O340 1.259 . S
C345 O342 1.235 . S
O346 Co336 2.021 . S
O346 C343 1.238 . S
O347 Co341 2.052 . S
O347 C343 1.241 . S
O348 Co336 2.137 . S
O348 C339 1.247 . S
O349 Co336 2.244 . S
O349 C339 1.272 . S
O349 Co341 2.135 . S
Co350 O351 2.216 . S
Co350 O352 2.091 . S
Co350 O354 2.004 . S
Co350 O360 2.021 . S
Co350 O362 2.137 . S
Co350 O363 2.244 . S
O351 Co350 2.216 . S
O351 C358 1.247 . S
O352 Co350 2.091 . S
O352 C358 1.261 . S
C353 O362 1.247 . S
C353 O363 1.272 . S
O354 Co350 2.004 . S
O354 C359 1.259 . S
Co355 O356 2.061 . S
Co355 O361 2.052 . S
Co355 O363 2.135 . S
O356 Co355 2.061 . S
O356 C359 1.235 . S
C357 O360 1.238 . S
C357 O361 1.241 . S
C358 O351 1.247 . S
C358 O352 1.261 . S
C359 O354 1.259 . S
C359 O356 1.235 . S
O360 Co350 2.021 . S
O360 C357 1.238 . S
O361 Co355 2.052 . S
O361 C357 1.241 . S
O362 Co350 2.137 . S
O362 C353 1.247 . S
O363 Co350 2.244 . S
O363 C353 1.272 . S
O363 Co355 2.135 . S
Co364 O365 2.216 . S
Co364 O366 2.091 . S
Co364 O368 2.004 . S
Co364 O374 2.021 . S
Co364 O376 2.137 . S
Co364 O377 2.244 . S
O365 Co364 2.216 . S
O365 C372 1.247 . S
O366 Co364 2.091 . S
O366 C372 1.261 . S
C367 O376 1.247 . S
C367 O377 1.272 . S
O368 Co364 2.004 . S
O368 C373 1.259 . S
Co369 O370 2.061 . S
Co369 O375 2.052 . S
Co369 O377 2.135 . S
O370 Co369 2.061 . S
O370 C373 1.235 . S
C371 O374 1.238 . S
C371 O375 1.241 . S
C372 O365 1.247 . S
C372 O366 1.261 . S
C373 O368 1.259 . S
C373 O370 1.235 . S
O374 Co364 2.021 . S
O374 C371 1.238 . S
O375 Co369 2.052 . S
O375 C371 1.241 . S
O376 Co364 2.137 . S
O376 C367 1.247 . S
O377 Co364 2.244 . S
O377 C367 1.272 . S
O377 Co369 2.135 . S
Co378 O379 2.216 . S
Co378 O380 2.091 1_556 S
Co378 O382 2.002 . S
Co378 O388 2.021 1_556 S
Co378 O390 2.137 . S
Co378 O391 2.244 . S
O379 Co378 2.216 . S
O379 C386 1.182 1_556 S
O380 Co378 2.091 1_554 S
O380 C386 1.301 . S
C381 O390 1.247 . S
C381 O391 1.272 . S
O382 Co378 2.002 . S
O382 C387 1.257 . S
Co383 O384 2.061 . S
Co383 O389 2.052 . S
Co383 O391 2.135 . S
O384 Co383 2.061 . S
O384 C387 1.235 . S
C385 O388 1.238 1_556 S
C385 O389 1.241 . S
C386 O379 1.182 1_554 S
C386 O380 1.301 . S
C387 O382 1.257 . S
C387 O384 1.235 . S
O388 Co378 2.021 1_554 S
O388 C385 1.238 1_554 S
O389 Co383 2.052 . S
O389 C385 1.241 . S
O390 Co378 2.137 . S
O390 C381 1.247 . S
O391 Co378 2.244 . S
O391 C381 1.272 . S
O391 Co383 2.135 . S
Co392 O393 2.216 . S
Co392 O394 2.091 1_556 S
Co392 O396 2.001 . S
Co392 O402 2.021 1_556 S
Co392 O404 2.137 . S
Co392 O405 2.244 . S
O393 Co392 2.216 . S
O393 C400 1.182 1_556 S
O394 Co392 2.091 1_554 S
O394 C400 1.302 . S
C395 O404 1.247 . S
C395 O405 1.272 . S
O396 Co392 2.001 . S
O396 C401 1.257 . S
Co397 O398 2.061 . S
Co397 O403 2.052 . S
Co397 O405 2.135 . S
O398 Co397 2.061 . S
O398 C401 1.235 . S
C399 O402 1.238 1_556 S
C399 O403 1.241 . S
C400 O393 1.182 1_554 S
C400 O394 1.302 . S
C401 O396 1.257 . S
C401 O398 1.235 . S
O402 Co392 2.021 1_554 S
O402 C399 1.238 1_554 S
O403 Co397 2.052 . S
O403 C399 1.241 . S
O404 Co392 2.137 . S
O404 C395 1.247 . S
O405 Co392 2.244 . S
O405 C395 1.272 . S
O405 Co397 2.135 . S
Co406 O407 2.216 . S
Co406 O408 2.091 1_556 S
Co406 O410 2.002 . S
Co406 O416 2.021 1_556 S
Co406 O418 2.137 . S
Co406 O419 2.244 . S
O407 Co406 2.216 . S
O407 C414 1.183 1_556 S
O408 Co406 2.091 1_554 S
O408 C414 1.301 . S
C409 O418 1.247 . S
C409 O419 1.272 . S
O410 Co406 2.002 . S
O410 C415 1.257 . S
Co411 O412 2.061 . S
Co411 O417 2.052 . S
Co411 O419 2.135 . S
O412 Co411 2.061 . S
O412 C415 1.235 . S
C413 O416 1.238 1_556 S
C413 O417 1.241 . S
C414 O407 1.183 1_554 S
C414 O408 1.301 . S
C415 O410 1.257 . S
C415 O412 1.235 . S
O416 Co406 2.021 1_554 S
O416 C413 1.238 1_554 S
O417 Co411 2.052 . S
O417 C413 1.241 . S
O418 Co406 2.137 . S
O418 C409 1.247 . S
O419 Co406 2.244 . S
O419 C409 1.272 . S
O419 Co411 2.135 . S
Co420 O421 2.216 . S
Co420 O422 2.091 . S
Co420 O424 2.004 . S
Co420 O430 2.021 . S
Co420 O432 2.137 . S
Co420 O433 2.244 . S
O421 Co420 2.216 . S
O421 C428 1.247 . S
O422 Co420 2.091 . S
O422 C428 1.261 . S
C423 O432 1.247 . S
C423 O433 1.272 . S
O424 Co420 2.004 . S
O424 C429 1.259 . S
Co425 O426 2.061 . S
Co425 O431 2.052 . S
Co425 O433 2.135 . S
O426 Co425 2.061 . S
O426 C429 1.235 . S
C427 O430 1.238 . S
C427 O431 1.241 . S
C428 O421 1.247 . S
C428 O422 1.261 . S
C429 O424 1.259 . S
C429 O426 1.235 . S
O430 Co420 2.021 . S
O430 C427 1.238 . S
O431 Co425 2.052 . S
O431 C427 1.241 . S
O432 Co420 2.137 . S
O432 C423 1.247 . S
O433 Co420 2.244 . S
O433 C423 1.272 . S
O433 Co425 2.135 . S
Co434 O435 2.216 . S
Co434 O436 2.091 . S
Co434 O438 2.004 . S
Co434 O444 2.021 . S
Co434 O446 2.137 . S
Co434 O447 2.244 . S
O435 Co434 2.216 . S
O435 C442 1.247 . S
O436 Co434 2.091 . S
O436 C442 1.261 . S
C437 O446 1.247 . S
C437 O447 1.272 . S
O438 Co434 2.004 . S
O438 C443 1.259 . S
Co439 O440 2.061 . S
Co439 O445 2.052 . S
Co439 O447 2.135 . S
O440 Co439 2.061 . S
O440 C443 1.235 . S
C441 O444 1.238 . S
C441 O445 1.241 . S
C442 O435 1.247 . S
C442 O436 1.261 . S
C443 O438 1.259 . S
C443 O440 1.235 . S
O444 Co434 2.021 . S
O444 C441 1.238 . S
O445 Co439 2.052 . S
O445 C441 1.241 . S
O446 Co434 2.137 . S
O446 C437 1.247 . S
O447 Co434 2.244 . S
O447 C437 1.272 . S
O447 Co439 2.135 . S
Co448 O449 2.216 . S
Co448 O450 2.091 . S
Co448 O452 2.004 . S
Co448 O458 2.021 . S
Co448 O460 2.137 . S
Co448 O461 2.244 . S
O449 Co448 2.216 . S
O449 C456 1.247 . S
O450 Co448 2.091 . S
O450 C456 1.261 . S
C451 O460 1.247 . S
C451 O461 1.272 . S
O452 Co448 2.004 . S
O452 C457 1.259 . S
Co453 O454 2.061 . S
Co453 O459 2.052 . S
Co453 O461 2.135 . S
O454 Co453 2.061 . S
O454 C457 1.235 . S
C455 O458 1.238 . S
C455 O459 1.241 . S
C456 O449 1.247 . S
C456 O450 1.261 . S
C457 O452 1.259 . S
C457 O454 1.235 . S
O458 Co448 2.021 . S
O458 C455 1.238 . S
O459 Co453 2.052 . S
O459 C455 1.241 . S
O460 Co448 2.137 . S
O460 C451 1.247 . S
O461 Co448 2.244 . S
O461 C451 1.272 . S
O461 Co453 2.135 . S
Co462 O463 2.216 . S
Co462 O464 2.091 . S
Co462 O466 2.004 . S
Co462 O472 2.021 . S
Co462 O474 2.137 . S
Co462 O475 2.244 . S
O463 Co462 2.216 . S
O463 C470 1.247 . S
O464 Co462 2.091 . S
O464 C470 1.261 . S
C465 O474 1.247 . S
C465 O475 1.272 . S
O466 Co462 2.004 . S
O466 C471 1.259 . S
Co467 O468 2.061 . S
Co467 O473 2.052 . S
Co467 O475 2.135 . S
O468 Co467 2.061 . S
O468 C471 1.235 . S
C469 O472 1.238 . S
C469 O473 1.241 . S
C470 O463 1.247 . S
C470 O464 1.261 . S
C471 O466 1.259 . S
C471 O468 1.235 . S
O472 Co462 2.021 . S
O472 C469 1.238 . S
O473 Co467 2.052 . S
O473 C469 1.241 . S
O474 Co462 2.137 . S
O474 C465 1.247 . S
O475 Co462 2.244 . S
O475 C465 1.272 . S
O475 Co467 2.135 . S
Co476 O477 2.216 . S
Co476 O478 2.091 . S
Co476 O480 2.004 . S
Co476 O486 2.021 . S
Co476 O488 2.137 . S
Co476 O489 2.244 . S
O477 Co476 2.216 . S
O477 C484 1.247 . S
O478 Co476 2.091 . S
O478 C484 1.261 . S
C479 O488 1.247 . S
C479 O489 1.272 . S
O480 Co476 2.004 . S
O480 C485 1.259 . S
Co481 O482 2.061 . S
Co481 O487 2.052 . S
Co481 O489 2.135 . S
O482 Co481 2.061 . S
O482 C485 1.235 . S
C483 O486 1.238 . S
C483 O487 1.241 . S
C484 O477 1.247 . S
C484 O478 1.261 . S
C485 O480 1.259 . S
C485 O482 1.235 . S
O486 Co476 2.021 . S
O486 C483 1.238 . S
O487 Co481 2.052 . S
O487 C483 1.241 . S
O488 Co476 2.137 . S
O488 C479 1.247 . S
O489 Co476 2.244 . S
O489 C479 1.272 . S
O489 Co481 2.135 . S
Co490 O491 2.216 . S
Co490 O492 2.091 . S
Co490 O494 2.004 . S
Co490 O500 2.021 . S
Co490 O502 2.137 . S
Co490 O503 2.244 . S
O491 Co490 2.216 . S
O491 C498 1.247 . S
O492 Co490 2.091 . S
O492 C498 1.261 . S
C493 O502 1.247 . S
C493 O503 1.272 . S
O494 Co490 2.004 . S
O494 C499 1.259 . S
Co495 O496 2.061 . S
Co495 O501 2.052 . S
Co495 O503 2.135 . S
O496 Co495 2.061 . S
O496 C499 1.235 . S
C497 O500 1.238 . S
C497 O501 1.241 . S
C498 O491 1.247 . S
C498 O492 1.261 . S
C499 O494 1.259 . S
C499 O496 1.235 . S
O500 Co490 2.021 . S
O500 C497 1.238 . S
O501 Co495 2.052 . S
O501 C497 1.241 . S
O502 Co490 2.137 . S
O502 C493 1.247 . S
O503 Co490 2.244 . S
O503 C493 1.272 . S
O503 Co495 2.135 . S
H504 C510 0.930 . S
H505 C514 0.930 . S
H506 C519 0.929 . S
H507 C517 0.929 . S
H508 C512 0.929 . S
H509 C518 0.929 . S
C510 H504 0.930 . S
C510 C511 1.367 . S
C510 C518 1.378 . S
C511 C510 1.367 . S
C511 C519 1.433 . S
C512 H508 0.929 . S
C512 C514 1.378 . S
C512 C516 1.350 . S
C513 C516 1.463 1_455 S
C513 C518 1.350 . S
C513 N521 1.427 . S
C514 H505 0.930 . S
C514 C512 1.378 . S
C514 C515 1.367 . S
C515 C514 1.367 . S
C515 C517 1.433 . S
C516 C512 1.350 . S
C516 C513 1.463 1_655 S
C516 N520 1.427 . S
C517 H507 0.929 . S
C517 C515 1.433 . S
C517 N520 1.384 . S
C518 H509 0.929 . S
C518 C510 1.378 . S
C518 C513 1.350 . S
C519 H506 0.929 . S
C519 C511 1.433 . S
C519 N521 1.384 . S
N520 C516 1.427 . S
N520 C517 1.384 . S
N521 C513 1.427 . S
N521 C519 1.384 . S
H522 C528 0.930 . S
H523 C532 0.930 . S
H524 C537 0.929 . S
H525 C535 0.929 . S
H526 C530 0.929 . S
H527 C536 0.929 . S
C528 H522 0.930 . S
C528 C529 1.367 . S
C528 C536 1.378 . S
C529 C528 1.367 . S
C529 C537 1.433 . S
C530 H526 0.929 . S
C530 C532 1.378 . S
C530 C534 1.350 . S
C531 C534 1.463 . S
C531 C536 1.350 . S
C531 N539 1.427 . S
C532 H523 0.930 . S
C532 C530 1.378 . S
C532 C533 1.367 . S
C533 C532 1.367 . S
C533 C535 1.433 . S
C534 C530 1.350 . S
C534 C531 1.463 . S
C534 N538 1.427 . S
C535 H525 0.929 . S
C535 C533 1.433 . S
C535 N538 1.384 . S
C536 H527 0.929 . S
C536 C528 1.378 . S
C536 C531 1.350 . S
C537 H524 0.929 . S
C537 C529 1.433 . S
C537 N539 1.384 . S
N538 C534 1.427 . S
N538 C535 1.384 . S
N539 C531 1.427 . S
N539 C537 1.384 . S
H540 C546 0.930 . S
H541 C550 0.930 . S
H542 C555 0.929 . S
H543 C553 0.929 . S
H544 C548 0.929 . S
H545 C554 0.929 . S
C546 H540 0.930 . S
C546 C547 1.367 . S
C546 C554 1.378 . S
C547 C546 1.367 . S
C547 C555 1.433 . S
C548 H544 0.929 . S
C548 C550 1.378 . S
C548 C552 1.350 . S
C549 C552 1.463 1_545 S
C549 C554 1.350 . S
C549 N557 1.427 . S
C550 H541 0.930 . S
C550 C548 1.378 . S
C550 C551 1.367 . S
C551 C550 1.367 . S
C551 C553 1.433 . S
C552 C548 1.350 . S
C552 C549 1.463 1_565 S
C552 N556 1.427 . S
C553 H543 0.929 . S
C553 C551 1.433 . S
C553 N556 1.384 . S
C554 H545 0.929 . S
C554 C546 1.378 . S
C554 C549 1.350 . S
C555 H542 0.929 . S
C555 C547 1.433 . S
C555 N557 1.384 . S
N556 C552 1.427 . S
N556 C553 1.384 . S
N557 C549 1.427 . S
N557 C555 1.384 . S
H558 C564 0.930 . S
H559 C568 0.930 . S
H560 C573 0.929 . S
H561 C571 0.929 . S
H562 C566 0.929 . S
H563 C572 0.929 . S
C564 H558 0.930 . S
C564 C565 1.367 . S
C564 C572 1.378 . S
C565 C564 1.367 . S
C565 C573 1.433 . S
C566 H562 0.929 . S
C566 C568 1.378 . S
C566 C570 1.350 . S
C567 C570 1.463 1_545 S
C567 C572 1.350 . S
C567 N575 1.427 . S
C568 H559 0.930 . S
C568 C566 1.378 . S
C568 C569 1.367 . S
C569 C568 1.367 . S
C569 C571 1.433 . S
C570 C566 1.350 . S
C570 C567 1.463 1_565 S
C570 N574 1.427 . S
C571 H561 0.929 . S
C571 C569 1.433 . S
C571 N574 1.384 . S
C572 H563 0.929 . S
C572 C564 1.378 . S
C572 C567 1.350 . S
C573 H560 0.929 . S
C573 C565 1.433 . S
C573 N575 1.384 . S
N574 C570 1.427 . S
N574 C571 1.384 . S
N575 C567 1.427 . S
N575 C573 1.384 . S
H576 C582 0.930 . S
H577 C586 0.930 . S
H578 C591 0.929 . S
H579 C589 0.929 . S
H580 C584 0.929 . S
H581 C590 0.929 . S
C582 H576 0.930 . S
C582 C583 1.367 . S
C582 C590 1.378 . S
C583 C582 1.367 . S
C583 C591 1.433 . S
C584 H580 0.929 . S
C584 C586 1.378 . S
C584 C588 1.350 . S
C585 C588 1.463 1_655 S
C585 C590 1.350 . S
C585 N593 1.427 . S
C586 H577 0.930 . S
C586 C584 1.378 . S
C586 C587 1.367 . S
C587 C586 1.367 . S
C587 C589 1.433 . S
C588 C584 1.350 . S
C588 C585 1.463 1_455 S
C588 N592 1.427 . S
C589 H579 0.929 . S
C589 C587 1.433 . S
C589 N592 1.384 . S
C590 H581 0.929 . S
C590 C582 1.378 . S
C590 C585 1.350 . S
C591 H578 0.929 . S
C591 C583 1.433 . S
C591 N593 1.384 . S
N592 C588 1.427 . S
N592 C589 1.384 . S
N593 C585 1.427 . S
N593 C591 1.384 . S
H594 C600 0.930 . S
H595 C604 0.930 . S
H596 C609 0.929 . S
H597 C607 0.929 . S
H598 C602 0.929 . S
H599 C608 0.929 . S
C600 H594 0.930 . S
C600 C601 1.367 . S
C600 C608 1.378 . S
C601 C600 1.367 . S
C601 C609 1.433 . S
C602 H598 0.929 . S
C602 C604 1.378 . S
C602 C606 1.350 . S
C603 C606 1.463 . S
C603 C608 1.350 . S
C603 N611 1.427 . S
C604 H595 0.930 . S
C604 C602 1.378 . S
C604 C605 1.367 . S
C605 C604 1.367 . S
C605 C607 1.433 . S
C606 C602 1.350 . S
C606 C603 1.463 . S
C606 N610 1.427 . S
C607 H597 0.929 . S
C607 C605 1.433 . S
C607 N610 1.384 . S
C608 H599 0.929 . S
C608 C600 1.378 . S
C608 C603 1.350 . S
C609 H596 0.929 . S
C609 C601 1.433 . S
C609 N611 1.384 . S
N610 C606 1.427 . S
N610 C607 1.384 . S
N611 C603 1.427 . S
N611 C609 1.384 . S
H612 C618 0.930 . S
H613 C622 0.930 . S
H614 C627 0.929 . S
H615 C625 0.929 . S
H616 C620 0.929 . S
H617 C626 0.929 . S
C618 H612 0.930 . S
C618 C619 1.367 . S
C618 C626 1.378 . S
C619 C618 1.367 . S
C619 C627 1.433 . S
C620 H616 0.929 . S
C620 C622 1.378 . S
C620 C624 1.350 . S
C621 C624 1.463 1_655 S
C621 C626 1.350 . S
C621 N629 1.427 . S
C622 H613 0.930 . S
C622 C620 1.378 . S
C622 C623 1.367 . S
C623 C622 1.367 . S
C623 C625 1.433 . S
C624 C620 1.350 . S
C624 C621 1.463 1_455 S
C624 N628 1.427 . S
C625 H615 0.929 . S
C625 C623 1.433 . S
C625 N628 1.384 . S
C626 H617 0.929 . S
C626 C618 1.378 . S
C626 C621 1.350 . S
C627 H614 0.929 . S
C627 C619 1.433 . S
C627 N629 1.384 . S
N628 C624 1.427 . S
N628 C625 1.384 . S
N629 C621 1.427 . S
N629 C627 1.384 . S
H630 C636 0.930 . S
H631 C640 0.930 . S
H632 C645 0.929 . S
H633 C643 0.929 . S
H634 C638 0.929 . S
H635 C644 0.929 . S
C636 H630 0.930 . S
C636 C637 1.367 . S
C636 C644 1.378 . S
C637 C636 1.367 . S
C637 C645 1.433 . S
C638 H634 0.929 . S
C638 C640 1.378 . S
C638 C642 1.350 . S
C639 C642 1.463 . S
C639 C644 1.350 . S
C639 N647 1.427 . S
C640 H631 0.930 . S
C640 C638 1.378 . S
C640 C641 1.367 . S
C641 C640 1.367 . S
C641 C643 1.433 . S
C642 C638 1.350 . S
C642 C639 1.463 . S
C642 N646 1.427 . S
C643 H633 0.929 . S
C643 C641 1.433 . S
C643 N646 1.384 . S
C644 H635 0.929 . S
C644 C636 1.378 . S
C644 C639 1.350 . S
C645 H632 0.929 . S
C645 C637 1.433 . S
C645 N647 1.384 . S
N646 C642 1.427 . S
N646 C643 1.384 . S
N647 C639 1.427 . S
N647 C645 1.384 . S
H648 C654 0.930 . S
H649 C658 0.930 . S
H650 C663 0.929 . S
H651 C661 0.929 . S
H652 C656 0.929 . S
H653 C662 0.929 . S
C654 H648 0.930 . S
C654 C655 1.367 . S
C654 C662 1.378 . S
C655 C654 1.367 . S
C655 C663 1.433 . S
C656 H652 0.929 . S
C656 C658 1.378 . S
C656 C660 1.350 . S
C657 C660 1.463 1_565 S
C657 C662 1.350 . S
C657 N665 1.427 . S
C658 H649 0.930 . S
C658 C656 1.378 . S
C658 C659 1.367 . S
C659 C658 1.367 . S
C659 C661 1.433 . S
C660 C656 1.350 . S
C660 C657 1.463 1_545 S
C660 N664 1.427 . S
C661 H651 0.929 . S
C661 C659 1.433 . S
C661 N664 1.384 . S
C662 H653 0.929 . S
C662 C654 1.378 . S
C662 C657 1.350 . S
C663 H650 0.929 . S
C663 C655 1.433 . S
C663 N665 1.384 . S
N664 C660 1.427 . S
N664 C661 1.384 . S
N665 C657 1.427 . S
N665 C663 1.384 . S
H666 C672 0.930 . S
H667 C676 0.930 . S
H668 C681 0.929 . S
H669 C679 0.929 . S
H670 C674 0.929 . S
H671 C680 0.929 . S
C672 H666 0.930 . S
C672 C673 1.367 . S
C672 C680 1.378 . S
C673 C672 1.367 . S
C673 C681 1.433 . S
C674 H670 0.929 . S
C674 C676 1.378 . S
C674 C678 1.350 . S
C675 C678 1.463 1_545 S
C675 C680 1.350 . S
C675 N683 1.427 . S
C676 H667 0.930 . S
C676 C674 1.378 . S
C676 C677 1.367 . S
C677 C676 1.367 . S
C677 C679 1.433 . S
C678 C674 1.350 . S
C678 C675 1.463 1_565 S
C678 N682 1.427 . S
C679 H669 0.929 . S
C679 C677 1.433 . S
C679 N682 1.384 . S
C680 H671 0.929 . S
C680 C672 1.378 . S
C680 C675 1.350 . S
C681 H668 0.929 . S
C681 C673 1.433 . S
C681 N683 1.384 . S
N682 C678 1.427 . S
N682 C679 1.384 . S
N683 C675 1.427 . S
N683 C681 1.384 . S
H684 C690 0.930 . S
H685 C694 0.930 . S
H686 C699 0.929 . S
H687 C697 0.929 . S
H688 C692 0.929 . S
H689 C698 0.929 . S
C690 H684 0.930 . S
C690 C691 1.367 . S
C690 C698 1.378 . S
C691 C690 1.367 . S
C691 C699 1.433 . S
C692 H688 0.929 . S
C692 C694 1.378 . S
C692 C696 1.350 . S
C693 C696 1.463 1_455 S
C693 C698 1.350 . S
C693 N701 1.427 . S
C694 H685 0.930 . S
C694 C692 1.378 . S
C694 C695 1.367 . S
C695 C694 1.367 . S
C695 C697 1.433 . S
C696 C692 1.350 . S
C696 C693 1.463 1_655 S
C696 N700 1.427 . S
C697 H687 0.929 . S
C697 C695 1.433 . S
C697 N700 1.384 . S
C698 H689 0.929 . S
C698 C690 1.378 . S
C698 C693 1.350 . S
C699 H686 0.929 . S
C699 C691 1.433 . S
C699 N701 1.384 . S
N700 C696 1.427 . S
N700 C697 1.384 . S
N701 C693 1.427 . S
N701 C699 1.384 . S
H702 C708 0.930 . S
H703 C712 0.930 . S
H704 C717 0.929 . S
H705 C715 0.929 . S
H706 C710 0.929 . S
H707 C716 0.929 . S
C708 H702 0.930 . S
C708 C709 1.367 . S
C708 C716 1.378 . S
C709 C708 1.367 . S
C709 C717 1.433 . S
C710 H706 0.929 . S
C710 C712 1.378 . S
C710 C714 1.350 . S
C711 C714 1.463 . S
C711 C716 1.350 . S
C711 N719 1.427 . S
C712 H703 0.930 . S
C712 C710 1.378 . S
C712 C713 1.367 . S
C713 C712 1.367 . S
C713 C715 1.433 . S
C714 C710 1.350 . S
C714 C711 1.463 . S
C714 N718 1.427 . S
C715 H705 0.929 . S
C715 C713 1.433 . S
C715 N718 1.384 . S
C716 H707 0.929 . S
C716 C708 1.378 . S
C716 C711 1.350 . S
C717 H704 0.929 . S
C717 C709 1.433 . S
C717 N719 1.384 . S
N718 C714 1.427 . S
N718 C715 1.384 . S
N719 C711 1.427 . S
N719 C717 1.384 . S
H720 C726 0.930 . S
H721 C730 0.930 . S
H722 C735 0.929 . S
H723 C733 0.929 . S
H724 C728 0.929 . S
H725 C734 0.929 . S
C726 H720 0.930 . S
C726 C727 1.367 . S
C726 C734 1.378 . S
C727 C726 1.367 . S
C727 C735 1.433 . S
C728 H724 0.929 . S
C728 C730 1.378 . S
C728 C732 1.350 . S
C729 C732 1.463 . S
C729 C734 1.350 . S
C729 N737 1.427 . S
C730 H721 0.930 . S
C730 C728 1.378 . S
C730 C731 1.367 . S
C731 C730 1.367 . S
C731 C733 1.433 . S
C732 C728 1.350 . S
C732 C729 1.463 . S
C732 N736 1.427 . S
C733 H723 0.929 . S
C733 C731 1.433 . S
C733 N736 1.384 . S
C734 H725 0.929 . S
C734 C726 1.378 . S
C734 C729 1.350 . S
C735 H722 0.929 . S
C735 C727 1.433 . S
C735 N737 1.384 . S
N736 C732 1.427 . S
N736 C733 1.384 . S
N737 C729 1.427 . S
N737 C735 1.384 . S
H738 C744 0.930 . S
H739 C748 0.930 . S
H740 C753 0.929 . S
H741 C751 0.929 . S
H742 C746 0.929 . S
H743 C752 0.929 . S
C744 H738 0.930 . S
C744 C745 1.367 . S
C744 C752 1.378 . S
C745 C744 1.367 . S
C745 C753 1.433 . S
C746 H742 0.929 . S
C746 C748 1.378 . S
C746 C750 1.350 . S
C747 C750 1.463 . S
C747 C752 1.350 . S
C747 N755 1.427 . S
C748 H739 0.930 . S
C748 C746 1.378 . S
C748 C749 1.367 . S
C749 C748 1.367 . S
C749 C751 1.433 . S
C750 C746 1.350 . S
C750 C747 1.463 . S
C750 N754 1.427 . S
C751 H741 0.929 . S
C751 C749 1.433 . S
C751 N754 1.384 . S
C752 H743 0.929 . S
C752 C744 1.378 . S
C752 C747 1.350 . S
C753 H740 0.929 . S
C753 C745 1.433 . S
C753 N755 1.384 . S
N754 C750 1.427 . S
N754 C751 1.384 . S
N755 C747 1.427 . S
N755 C753 1.384 . S
H756 C762 0.930 . S
H757 C766 0.930 . S
H758 C771 0.929 . S
H759 C769 0.929 . S
H760 C764 0.929 . S
H761 C770 0.929 . S
C762 H756 0.930 . S
C762 C763 1.367 . S
C762 C770 1.378 . S
C763 C762 1.367 . S
C763 C771 1.433 . S
C764 H760 0.929 . S
C764 C766 1.378 . S
C764 C768 1.350 . S
C765 C768 1.463 . S
C765 C770 1.350 . S
C765 N773 1.427 . S
C766 H757 0.930 . S
C766 C764 1.378 . S
C766 C767 1.367 . S
C767 C766 1.367 . S
C767 C769 1.433 . S
C768 C764 1.350 . S
C768 C765 1.463 . S
C768 N772 1.427 . S
C769 H759 0.929 . S
C769 C767 1.433 . S
C769 N772 1.384 . S
C770 H761 0.929 . S
C770 C762 1.378 . S
C770 C765 1.350 . S
C771 H758 0.929 . S
C771 C763 1.433 . S
C771 N773 1.384 . S
N772 C768 1.427 . S
N772 C769 1.384 . S
N773 C765 1.427 . S
N773 C771 1.384 . S
H774 C780 0.930 . S
H775 C784 0.930 . S
H776 C789 0.929 . S
H777 C787 0.929 . S
H778 C782 0.929 . S
H779 C788 0.929 . S
C780 H774 0.930 . S
C780 C781 1.367 . S
C780 C788 1.378 . S
C781 C780 1.367 . S
C781 C789 1.433 . S
C782 H778 0.929 . S
C782 C784 1.378 . S
C782 C786 1.350 . S
C783 C786 1.463 . S
C783 C788 1.350 . S
C783 N791 1.427 . S
C784 H775 0.930 . S
C784 C782 1.378 . S
C784 C785 1.367 . S
C785 C784 1.367 . S
C785 C787 1.433 . S
C786 C782 1.350 . S
C786 C783 1.463 . S
C786 N790 1.427 . S
C787 H777 0.929 . S
C787 C785 1.433 . S
C787 N790 1.384 . S
C788 H779 0.929 . S
C788 C780 1.378 . S
C788 C783 1.350 . S
C789 H776 0.929 . S
C789 C781 1.433 . S
C789 N791 1.384 . S
N790 C786 1.427 . S
N790 C787 1.384 . S
N791 C783 1.427 . S
N791 C789 1.384 . S
H792 C798 0.930 . S
H793 C802 0.930 . S
H794 C807 0.929 . S
H795 C805 0.929 . S
H796 C800 0.929 . S
H797 C806 0.929 . S
C798 H792 0.930 . S
C798 C799 1.367 . S
C798 C806 1.378 . S
C799 C798 1.367 . S
C799 C807 1.433 . S
C800 H796 0.929 . S
C800 C802 1.378 . S
C800 C804 1.350 . S
C801 C804 1.463 . S
C801 C806 1.350 . S
C801 N809 1.427 . S
C802 H793 0.930 . S
C802 C800 1.378 . S
C802 C803 1.367 . S
C803 C802 1.367 . S
C803 C805 1.433 . S
C804 C800 1.350 . S
C804 C801 1.463 . S
C804 N808 1.427 . S
C805 H795 0.929 . S
C805 C803 1.433 . S
C805 N808 1.384 . S
C806 H797 0.929 . S
C806 C798 1.378 . S
C806 C801 1.350 . S
C807 H794 0.929 . S
C807 C799 1.433 . S
C807 N809 1.384 . S
N808 C804 1.427 . S
N808 C805 1.384 . S
N809 C801 1.427 . S
N809 C807 1.384 . S
H810 C816 0.930 . S
H811 C820 0.930 . S
H812 C825 0.929 . S
H813 C823 0.929 . S
H814 C818 0.929 . S
H815 C824 0.929 . S
C816 H810 0.930 . S
C816 C817 1.367 . S
C816 C824 1.378 . S
C817 C816 1.367 . S
C817 C825 1.433 . S
C818 H814 0.929 . S
C818 C820 1.378 . S
C818 C822 1.350 . S
C819 C822 1.463 . S
C819 C824 1.350 . S
C819 N827 1.427 . S
C820 H811 0.930 . S
C820 C818 1.378 . S
C820 C821 1.367 . S
C821 C820 1.367 . S
C821 C823 1.433 . S
C822 C818 1.350 . S
C822 C819 1.463 . S
C822 N826 1.427 . S
C823 H813 0.929 . S
C823 C821 1.433 . S
C823 N826 1.384 . S
C824 H815 0.929 . S
C824 C816 1.378 . S
C824 C819 1.350 . S
C825 H812 0.929 . S
C825 C817 1.433 . S
C825 N827 1.384 . S
N826 C822 1.427 . S
N826 C823 1.384 . S
N827 C819 1.427 . S
N827 C825 1.384 . S
H828 C834 0.930 . S
H829 C838 0.930 . S
H830 C843 0.929 . S
H831 C841 0.929 . S
H832 C836 0.929 . S
H833 C842 0.929 . S
C834 H828 0.930 . S
C834 C835 1.367 . S
C834 C842 1.378 . S
C835 C834 1.367 . S
C835 C843 1.433 . S
C836 H832 0.929 . S
C836 C838 1.378 . S
C836 C840 1.350 . S
C837 C840 1.463 . S
C837 C842 1.350 . S
C837 N845 1.427 . S
C838 H829 0.930 . S
C838 C836 1.378 . S
C838 C839 1.367 . S
C839 C838 1.367 . S
C839 C841 1.433 . S
C840 C836 1.350 . S
C840 C837 1.463 . S
C840 N844 1.427 . S
C841 H831 0.929 . S
C841 C839 1.433 . S
C841 N844 1.384 . S
C842 H833 0.929 . S
C842 C834 1.378 . S
C842 C837 1.350 . S
C843 H830 0.929 . S
C843 C835 1.433 . S
C843 N845 1.384 . S
N844 C840 1.427 . S
N844 C841 1.384 . S
N845 C837 1.427 . S
N845 C843 1.384 . S
H846 C852 0.930 . S
H847 C856 0.930 . S
H848 C861 0.929 . S
H849 C859 0.929 . S
H850 C854 0.929 . S
H851 C860 0.929 . S
C852 H846 0.930 . S
C852 C853 1.367 . S
C852 C860 1.378 . S
C853 C852 1.367 . S
C853 C861 1.433 . S
C854 H850 0.929 . S
C854 C856 1.378 . S
C854 C858 1.350 . S
C855 C858 1.463 . S
C855 C860 1.350 . S
C855 N863 1.427 . S
C856 H847 0.930 . S
C856 C854 1.378 . S
C856 C857 1.367 . S
C857 C856 1.367 . S
C857 C859 1.433 . S
C858 C854 1.350 . S
C858 C855 1.463 . S
C858 N862 1.427 . S
C859 H849 0.929 . S
C859 C857 1.433 . S
C859 N862 1.384 . S
C860 H851 0.929 . S
C860 C852 1.378 . S
C860 C855 1.350 . S
C861 H848 0.929 . S
C861 C853 1.433 . S
C861 N863 1.384 . S
N862 C858 1.427 . S
N862 C859 1.384 . S
N863 C855 1.427 . S
N863 C861 1.384 . S
H864 C870 0.930 . S
H865 C874 0.930 . S
H866 C879 0.929 . S
H867 C877 0.929 . S
H868 C872 0.929 . S
H869 C878 0.929 . S
C870 H864 0.930 . S
C870 C871 1.367 . S
C870 C878 1.378 . S
C871 C870 1.367 . S
C871 C879 1.433 . S
C872 H868 0.929 . S
C872 C874 1.378 . S
C872 C876 1.350 . S
C873 C876 1.463 . S
C873 C878 1.350 . S
C873 N881 1.427 . S
C874 H865 0.930 . S
C874 C872 1.378 . S
C874 C875 1.367 . S
C875 C874 1.367 . S
C875 C877 1.433 . S
C876 C872 1.350 . S
C876 C873 1.463 . S
C876 N880 1.427 . S
C877 H867 0.929 . S
C877 C875 1.433 . S
C877 N880 1.384 . S
C878 H869 0.929 . S
C878 C870 1.378 . S
C878 C873 1.350 . S
C879 H866 0.929 . S
C879 C871 1.433 . S
C879 N881 1.384 . S
N880 C876 1.427 . S
N880 C877 1.384 . S
N881 C873 1.427 . S
N881 C879 1.384 . S
H882 C888 0.930 . S
H883 C892 0.930 . S
H884 C897 0.929 . S
H885 C895 0.929 . S
H886 C890 0.929 . S
H887 C896 0.929 . S
C888 H882 0.930 . S
C888 C889 1.318 1_556 S
C888 C896 1.378 . S
C889 C888 1.318 1_554 S
C889 C897 1.483 . S
C890 H886 0.929 . S
C890 C892 1.378 . S
C890 C894 1.389 . S
C891 C894 1.462 . S
C891 C896 1.351 1_554 S
C891 N899 1.426 . S
C892 H883 0.930 . S
C892 C890 1.378 . S
C892 C893 1.373 1_554 S
C893 C892 1.373 1_556 S
C893 C895 1.427 . S
C894 C890 1.389 . S
C894 C891 1.462 . S
C894 N898 1.387 1_554 S
C895 H885 0.929 . S
C895 C893 1.427 . S
C895 N898 1.384 . S
C896 H887 0.929 . S
C896 C888 1.378 . S
C896 C891 1.351 1_556 S
C897 H884 0.929 . S
C897 C889 1.483 . S
C897 N899 1.384 . S
N898 C894 1.387 1_556 S
N898 C895 1.384 . S
N899 C891 1.426 . S
N899 C897 1.384 . S
H900 C906 0.930 . S
H901 C910 0.930 . S
H902 C915 0.929 . S
H903 C913 0.929 . S
H904 C908 0.929 . S
H905 C914 0.929 . S
C906 H900 0.930 . S
C906 C907 1.370 1_554 S
C906 C914 1.378 . S
C907 C906 1.370 1_556 S
C907 C915 1.430 . S
C908 H904 0.929 . S
C908 C910 1.378 . S
C908 C912 1.351 1_556 S
C909 C912 1.462 . S
C909 C914 1.386 . S
C909 N917 1.390 1_554 S
C910 H901 0.930 . S
C910 C908 1.378 . S
C910 C911 1.319 1_556 S
C911 C910 1.319 1_554 S
C911 C913 1.481 . S
C912 C908 1.351 1_554 S
C912 C909 1.462 . S
C912 N916 1.426 . S
C913 H903 0.929 . S
C913 C911 1.481 . S
C913 N916 1.384 . S
C914 H905 0.929 . S
C914 C906 1.378 . S
C914 C909 1.386 . S
C915 H902 0.929 . S
C915 C907 1.430 . S
C915 N917 1.384 . S
N916 C912 1.426 . S
N916 C913 1.384 . S
N917 C909 1.390 1_556 S
N917 C915 1.384 . S
H918 C924 0.930 . S
H919 C928 0.930 . S
H920 C933 0.929 . S
H921 C931 0.929 . S
H922 C926 0.929 . S
H923 C932 0.929 . S
C924 H918 0.930 . S
C924 C925 1.367 . S
C924 C932 1.378 . S
C925 C924 1.367 . S
C925 C933 1.433 1_554 S
C926 H922 0.929 . S
C926 C928 1.378 . S
C926 C930 1.354 1_556 S
C927 C930 1.461 . S
C927 C932 1.374 . S
C927 N935 1.406 1_554 S
C928 H919 0.930 . S
C928 C926 1.378 . S
C928 C929 1.380 . S
C929 C928 1.380 . S
C929 C931 1.420 1_556 S
C930 C926 1.354 1_554 S
C930 C927 1.461 . S
C930 N934 1.423 . S
C931 H921 0.929 . S
C931 C929 1.420 1_554 S
C931 N934 1.384 . S
C932 H923 0.929 . S
C932 C924 1.378 . S
C932 C927 1.374 . S
C933 H920 0.929 . S
C933 C925 1.433 1_556 S
C933 N935 1.384 . S
N934 C930 1.423 . S
N934 C931 1.384 . S
N935 C927 1.406 1_556 S
N935 C933 1.384 . S
H936 C942 0.930 . S
H937 C946 0.930 . S
H938 C951 0.929 . S
H939 C949 0.929 . S
H940 C944 0.929 . S
H941 C950 0.929 . S
C942 H936 0.930 . S
C942 C943 1.367 . S
C942 C950 1.378 . S
C943 C942 1.367 . S
C943 C951 1.433 . S
C944 H940 0.929 . S
C944 C946 1.378 . S
C944 C948 1.350 . S
C945 C948 1.463 . S
C945 C950 1.350 . S
C945 N953 1.427 . S
C946 H937 0.930 . S
C946 C944 1.378 . S
C946 C947 1.367 . S
C947 C946 1.367 . S
C947 C949 1.433 . S
C948 C944 1.350 . S
C948 C945 1.463 . S
C948 N952 1.427 . S
C949 H939 0.929 . S
C949 C947 1.433 . S
C949 N952 1.384 . S
C950 H941 0.929 . S
C950 C942 1.378 . S
C950 C945 1.350 . S
C951 H938 0.929 . S
C951 C943 1.433 . S
C951 N953 1.384 . S
N952 C948 1.427 . S
N952 C949 1.384 . S
N953 C945 1.427 . S
N953 C951 1.384 . S
H954 C960 0.930 . S
H955 C964 0.930 . S
H956 C969 0.929 . S
H957 C967 0.929 . S
H958 C962 0.929 . S
H959 C968 0.929 . S
C960 H954 0.930 . S
C960 C961 1.367 . S
C960 C968 1.378 . S
C961 C960 1.367 . S
C961 C969 1.433 . S
C962 H958 0.929 . S
C962 C964 1.378 . S
C962 C966 1.350 . S
C963 C966 1.463 . S
C963 C968 1.350 . S
C963 N971 1.427 . S
C964 H955 0.930 . S
C964 C962 1.378 . S
C964 C965 1.367 . S
C965 C964 1.367 . S
C965 C967 1.433 . S
C966 C962 1.350 . S
C966 C963 1.463 . S
C966 N970 1.427 . S
C967 H957 0.929 . S
C967 C965 1.433 . S
C967 N970 1.384 . S
C968 H959 0.929 . S
C968 C960 1.378 . S
C968 C963 1.350 . S
C969 H956 0.929 . S
C969 C961 1.433 . S
C969 N971 1.384 . S
N970 C966 1.427 . S
N970 C967 1.384 . S
N971 C963 1.427 . S
N971 C969 1.384 . S
H972 C978 0.930 . S
H973 C982 0.930 . S
H974 C987 0.929 . S
H975 C985 0.929 . S
H976 C980 0.929 . S
H977 C986 0.929 . S
C978 H972 0.930 . S
C978 C979 1.367 . S
C978 C986 1.378 . S
C979 C978 1.367 . S
C979 C987 1.433 . S
C980 H976 0.929 . S
C980 C982 1.378 . S
C980 C984 1.350 . S
C981 C984 1.463 . S
C981 C986 1.350 . S
C981 N989 1.427 . S
C982 H973 0.930 . S
C982 C980 1.378 . S
C982 C983 1.367 . S
C983 C982 1.367 . S
C983 C985 1.433 . S
C984 C980 1.350 . S
C984 C981 1.463 . S
C984 N988 1.427 . S
C985 H975 0.929 . S
C985 C983 1.433 . S
C985 N988 1.384 . S
C986 H977 0.929 . S
C986 C978 1.378 . S
C986 C981 1.350 . S
C987 H974 0.929 . S
C987 C979 1.433 . S
C987 N989 1.384 . S
N988 C984 1.427 . S
N988 C985 1.384 . S
N989 C981 1.427 . S
N989 C987 1.384 . S
H990 C996 0.930 . S
H991 C1000 0.930 . S
H992 C1005 0.929 . S
H993 C1003 0.929 . S
H994 C998 0.929 . S
H995 C1004 0.929 . S
C996 H990 0.930 . S
C996 C997 1.371 . S
C996 C1004 1.378 . S
C997 C996 1.371 . S
C997 C1005 1.429 1_554 S
C998 H994 0.929 . S
C998 C1000 1.378 . S
C998 C1002 1.346 . S
C999 C1002 1.461 1_554 S
C999 C1004 1.393 . S
C999 N1007 1.384 1_554 S
C1000 H991 0.930 . S
C1000 C998 1.378 . S
C1000 C1001 1.342 1_556 S
C1001 C1000 1.342 1_554 S
C1001 C1003 1.459 . S
C1002 C998 1.346 . S
C1002 C999 1.461 1_556 S
C1002 N1006 1.431 1_556 S
C1003 H993 0.929 . S
C1003 C1001 1.459 . S
C1003 N1006 1.384 . S
C1004 H995 0.929 . S
C1004 C996 1.378 . S
C1004 C999 1.393 . S
C1005 H992 0.929 . S
C1005 C997 1.429 1_556 S
C1005 N1007 1.384 . S
N1006 C1002 1.431 1_554 S
N1006 C1003 1.384 . S
N1007 C999 1.384 1_556 S
N1007 C1005 1.384 . S
H1008 C1014 0.930 . S
H1009 C1018 0.930 . S
H1010 C1023 0.929 . S
H1011 C1021 0.929 . S
H1012 C1016 0.929 . S
H1013 C1022 0.929 . S
C1014 H1008 0.930 . S
C1014 C1015 1.395 . S
C1014 C1022 1.378 . S
C1015 C1014 1.395 . S
C1015 C1023 1.407 1_554 S
C1016 H1012 0.929 . S
C1016 C1018 1.378 . S
C1016 C1020 1.353 1_556 S
C1017 C1020 1.462 . S
C1017 C1022 1.368 . S
C1017 N1025 1.411 1_554 S
C1018 H1009 0.930 . S
C1018 C1016 1.378 . S
C1018 C1019 1.372 . S
C1019 C1018 1.372 . S
C1019 C1021 1.427 1_556 S
C1020 C1016 1.353 1_554 S
C1020 C1017 1.462 . S
C1020 N1024 1.424 . S
C1021 H1011 0.929 . S
C1021 C1019 1.427 1_554 S
C1021 N1024 1.384 . S
C1022 H1013 0.929 . S
C1022 C1014 1.378 . S
C1022 C1017 1.368 . S
C1023 H1010 0.929 . S
C1023 C1015 1.407 1_556 S
C1023 N1025 1.384 . S
N1024 C1020 1.424 . S
N1024 C1021 1.384 . S
N1025 C1017 1.411 1_556 S
N1025 C1023 1.384 . S
H1026 C1032 0.930 . S
H1027 C1036 0.930 . S
H1028 C1041 0.929 . S
H1029 C1039 0.929 . S
H1030 C1034 0.929 . S
H1031 C1040 0.929 . S
C1032 H1026 0.930 . S
C1032 C1033 1.390 . S
C1032 C1040 1.378 . S
C1033 C1032 1.390 . S
C1033 C1041 1.409 1_556 S
C1034 H1030 0.929 . S
C1034 C1036 1.378 . S
C1034 C1038 1.403 . S
C1035 C1038 1.460 1_556 S
C1035 C1040 1.358 . S
C1035 N1043 1.419 1_556 S
C1036 H1027 0.930 . S
C1036 C1034 1.378 . S
C1036 C1037 1.435 . S
C1037 C1036 1.435 . S
C1037 C1039 1.365 1_554 S
C1038 C1034 1.403 . S
C1038 C1035 1.460 1_554 S
C1038 N1042 1.376 1_554 S
C1039 H1029 0.929 . S
C1039 C1037 1.365 1_556 S
C1039 N1042 1.384 . S
C1040 H1031 0.929 . S
C1040 C1032 1.378 . S
C1040 C1035 1.358 . S
C1041 H1028 0.929 . S
C1041 C1033 1.409 1_554 S
C1041 N1043 1.384 . S
N1042 C1038 1.376 1_556 S
N1042 C1039 1.384 . S
N1043 C1035 1.419 1_554 S
N1043 C1041 1.384 . S
H1044 C1050 0.930 . S
H1045 C1054 0.930 . S
H1046 C1059 0.929 . S
H1047 C1057 0.929 . S
H1048 C1052 0.929 . S
H1049 C1058 0.929 . S
C1050 H1044 0.930 . S
C1050 C1051 1.367 . S
C1050 C1058 1.378 . S
C1051 C1050 1.367 . S
C1051 C1059 1.433 . S
C1052 H1048 0.929 . S
C1052 C1054 1.378 . S
C1052 C1056 1.350 . S
C1053 C1056 1.463 . S
C1053 C1058 1.350 . S
C1053 N1061 1.427 . S
C1054 H1045 0.930 . S
C1054 C1052 1.378 . S
C1054 C1055 1.367 . S
C1055 C1054 1.367 . S
C1055 C1057 1.433 . S
C1056 C1052 1.350 . S
C1056 C1053 1.463 . S
C1056 N1060 1.427 . S
C1057 H1047 0.929 . S
C1057 C1055 1.433 . S
C1057 N1060 1.384 . S
C1058 H1049 0.929 . S
C1058 C1050 1.378 . S
C1058 C1053 1.350 . S
C1059 H1046 0.929 . S
C1059 C1051 1.433 . S
C1059 N1061 1.384 . S
N1060 C1056 1.427 . S
N1060 C1057 1.384 . S
N1061 C1053 1.427 . S
N1061 C1059 1.384 . S
H1062 C1068 0.930 . S
H1063 C1072 0.930 . S
H1064 C1077 0.929 . S
H1065 C1075 0.929 . S
H1066 C1070 0.929 . S
H1067 C1076 0.929 . S
C1068 H1062 0.930 . S
C1068 C1069 1.367 . S
C1068 C1076 1.378 . S
C1069 C1068 1.367 . S
C1069 C1077 1.433 . S
C1070 H1066 0.929 . S
C1070 C1072 1.378 . S
C1070 C1074 1.350 . S
C1071 C1074 1.463 . S
C1071 C1076 1.350 . S
C1071 N1079 1.427 . S
C1072 H1063 0.930 . S
C1072 C1070 1.378 . S
C1072 C1073 1.367 . S
C1073 C1072 1.367 . S
C1073 C1075 1.433 . S
C1074 C1070 1.350 . S
C1074 C1071 1.463 . S
C1074 N1078 1.427 . S
C1075 H1065 0.929 . S
C1075 C1073 1.433 . S
C1075 N1078 1.384 . S
C1076 H1067 0.929 . S
C1076 C1068 1.378 . S
C1076 C1071 1.350 . S
C1077 H1064 0.929 . S
C1077 C1069 1.433 . S
C1077 N1079 1.384 . S
N1078 C1074 1.427 . S
N1078 C1075 1.384 . S
N1079 C1071 1.427 . S
N1079 C1077 1.384 . S
H1080 C1086 0.930 . S
H1081 C1090 0.930 . S
H1082 C1095 0.929 . S
H1083 C1093 0.929 . S
H1084 C1088 0.929 . S
H1085 C1094 0.929 . S
C1086 H1080 0.930 . S
C1086 C1087 1.367 . S
C1086 C1094 1.378 . S
C1087 C1086 1.367 . S
C1087 C1095 1.433 . S
C1088 H1084 0.929 . S
C1088 C1090 1.378 . S
C1088 C1092 1.350 . S
C1089 C1092 1.463 . S
C1089 C1094 1.350 . S
C1089 N1097 1.427 . S
C1090 H1081 0.930 . S
C1090 C1088 1.378 . S
C1090 C1091 1.367 . S
C1091 C1090 1.367 . S
C1091 C1093 1.433 . S
C1092 C1088 1.350 . S
C1092 C1089 1.463 . S
C1092 N1096 1.427 . S
C1093 H1083 0.929 . S
C1093 C1091 1.433 . S
C1093 N1096 1.384 . S
C1094 H1085 0.929 . S
C1094 C1086 1.378 . S
C1094 C1089 1.350 . S
C1095 H1082 0.929 . S
C1095 C1087 1.433 . S
C1095 N1097 1.384 . S
N1096 C1092 1.427 . S
N1096 C1093 1.384 . S
N1097 C1089 1.427 . S
N1097 C1095 1.384 . S
H1098 C1104 0.930 . S
H1099 C1108 0.930 . S
H1100 C1113 0.929 . S
H1101 C1111 0.929 . S
H1102 C1106 0.929 . S
H1103 C1112 0.929 . S
C1104 H1098 0.930 . S
C1104 C1105 1.367 . S
C1104 C1112 1.378 . S
C1105 C1104 1.367 . S
C1105 C1113 1.433 . S
C1106 H1102 0.929 . S
C1106 C1108 1.378 . S
C1106 C1110 1.350 . S
C1107 C1110 1.463 . S
C1107 C1112 1.350 . S
C1107 N1115 1.427 . S
C1108 H1099 0.930 . S
C1108 C1106 1.378 . S
C1108 C1109 1.367 . S
C1109 C1108 1.367 . S
C1109 C1111 1.433 . S
C1110 C1106 1.350 . S
C1110 C1107 1.463 . S
C1110 N1114 1.427 . S
C1111 H1101 0.929 . S
C1111 C1109 1.433 . S
C1111 N1114 1.384 . S
C1112 H1103 0.929 . S
C1112 C1104 1.378 . S
C1112 C1107 1.350 . S
C1113 H1100 0.929 . S
C1113 C1105 1.433 . S
C1113 N1115 1.384 . S
N1114 C1110 1.427 . S
N1114 C1111 1.384 . S
N1115 C1107 1.427 . S
N1115 C1113 1.384 . S
H1116 C1122 0.930 . S
H1117 C1126 0.930 . S
H1118 C1131 0.929 . S
H1119 C1129 0.929 . S
H1120 C1124 0.929 . S
H1121 C1130 0.929 . S
C1122 H1116 0.930 . S
C1122 C1123 1.367 . S
C1122 C1130 1.378 . S
C1123 C1122 1.367 . S
C1123 C1131 1.433 . S
C1124 H1120 0.929 . S
C1124 C1126 1.378 . S
C1124 C1128 1.350 . S
C1125 C1128 1.463 . S
C1125 C1130 1.350 . S
C1125 N1133 1.427 . S
C1126 H1117 0.930 . S
C1126 C1124 1.378 . S
C1126 C1127 1.367 . S
C1127 C1126 1.367 . S
C1127 C1129 1.433 . S
C1128 C1124 1.350 . S
C1128 C1125 1.463 . S
C1128 N1132 1.427 . S
C1129 H1119 0.929 . S
C1129 C1127 1.433 . S
C1129 N1132 1.384 . S
C1130 H1121 0.929 . S
C1130 C1122 1.378 . S
C1130 C1125 1.350 . S
C1131 H1118 0.929 . S
C1131 C1123 1.433 . S
C1131 N1133 1.384 . S
N1132 C1128 1.427 . S
N1132 C1129 1.384 . S
N1133 C1125 1.427 . S
N1133 C1131 1.384 . S
H1134 C1140 0.930 . S
H1135 C1144 0.930 . S
H1136 C1149 0.929 . S
H1137 C1147 0.929 . S
H1138 C1142 0.929 . S
H1139 C1148 0.929 . S
C1140 H1134 0.930 . S
C1140 C1141 1.367 . S
C1140 C1148 1.378 . S
C1141 C1140 1.367 . S
C1141 C1149 1.433 . S
C1142 H1138 0.929 . S
C1142 C1144 1.378 . S
C1142 C1146 1.350 . S
C1143 C1146 1.463 . S
C1143 C1148 1.350 . S
C1143 N1151 1.427 . S
C1144 H1135 0.930 . S
C1144 C1142 1.378 . S
C1144 C1145 1.367 . S
C1145 C1144 1.367 . S
C1145 C1147 1.433 . S
C1146 C1142 1.350 . S
C1146 C1143 1.463 . S
C1146 N1150 1.427 . S
C1147 H1137 0.929 . S
C1147 C1145 1.433 . S
C1147 N1150 1.384 . S
C1148 H1139 0.929 . S
C1148 C1140 1.378 . S
C1148 C1143 1.350 . S
C1149 H1136 0.929 . S
C1149 C1141 1.433 . S
C1149 N1151 1.384 . S
N1150 C1146 1.427 . S
N1150 C1147 1.384 . S
N1151 C1143 1.427 . S
N1151 C1149 1.384 . S
H1152 C1158 0.930 . S
H1153 C1162 0.930 . S
H1154 C1167 0.929 . S
H1155 C1165 0.929 . S
H1156 C1160 0.929 . S
H1157 C1166 0.929 . S
C1158 H1152 0.930 . S
C1158 C1159 1.367 . S
C1158 C1166 1.378 . S
C1159 C1158 1.367 . S
C1159 C1167 1.433 . S
C1160 H1156 0.929 . S
C1160 C1162 1.378 . S
C1160 C1164 1.350 . S
C1161 C1164 1.463 . S
C1161 C1166 1.350 . S
C1161 N1169 1.427 . S
C1162 H1153 0.930 . S
C1162 C1160 1.378 . S
C1162 C1163 1.367 . S
C1163 C1162 1.367 . S
C1163 C1165 1.433 . S
C1164 C1160 1.350 . S
C1164 C1161 1.463 . S
C1164 N1168 1.427 . S
C1165 H1155 0.929 . S
C1165 C1163 1.433 . S
C1165 N1168 1.384 . S
C1166 H1157 0.929 . S
C1166 C1158 1.378 . S
C1166 C1161 1.350 . S
C1167 H1154 0.929 . S
C1167 C1159 1.433 . S
C1167 N1169 1.384 . S
N1168 C1164 1.427 . S
N1168 C1165 1.384 . S
N1169 C1161 1.427 . S
N1169 C1167 1.384 . S
H1170 C1176 0.930 . S
H1171 C1180 0.930 . S
H1172 C1185 0.929 . S
H1173 C1183 0.929 . S
H1174 C1178 0.929 . S
H1175 C1184 0.929 . S
C1176 H1170 0.930 . S
C1176 C1177 1.367 . S
C1176 C1184 1.378 . S
C1177 C1176 1.367 . S
C1177 C1185 1.433 1_545 S
C1178 H1174 0.929 . S
C1178 C1180 1.378 . S
C1178 C1182 1.379 . S
C1179 C1182 1.461 1_545 S
C1179 C1184 1.350 . S
C1179 N1187 1.427 1_545 S
C1180 H1171 0.930 . S
C1180 C1178 1.378 . S
C1180 C1181 1.367 . S
C1181 C1180 1.367 . S
C1181 C1183 1.433 1_565 S
C1182 C1178 1.379 . S
C1182 C1179 1.461 1_565 S
C1182 N1186 1.398 1_565 S
C1183 H1173 0.929 . S
C1183 C1181 1.433 1_545 S
C1183 N1186 1.384 . S
C1184 H1175 0.929 . S
C1184 C1176 1.378 . S
C1184 C1179 1.350 . S
C1185 H1172 0.929 . S
C1185 C1177 1.433 1_565 S
C1185 N1187 1.384 . S
N1186 C1182 1.398 1_545 S
N1186 C1183 1.384 . S
N1187 C1179 1.427 1_565 S
N1187 C1185 1.384 . S
H1188 C1194 0.930 . S
H1189 C1198 0.930 . S
H1190 C1203 0.929 . S
H1191 C1201 0.929 . S
H1192 C1196 0.929 . S
H1193 C1202 0.929 . S
C1194 H1188 0.930 . S
C1194 C1195 1.346 1_655 S
C1194 C1202 1.378 . S
C1195 C1194 1.346 1_455 S
C1195 C1203 1.455 . S
C1196 H1192 0.929 . S
C1196 C1198 1.378 . S
C1196 C1200 1.377 . S
C1197 C1200 1.461 1_655 S
C1197 C1202 1.349 . S
C1197 N1205 1.429 1_655 S
C1198 H1189 0.930 . S
C1198 C1196 1.378 . S
C1198 C1199 1.366 . S
C1199 C1198 1.366 . S
C1199 C1201 1.434 1_455 S
C1200 C1196 1.377 . S
C1200 C1197 1.461 1_455 S
C1200 N1204 1.400 1_455 S
C1201 H1191 0.929 . S
C1201 C1199 1.434 1_655 S
C1201 N1204 1.384 . S
C1202 H1193 0.929 . S
C1202 C1194 1.378 . S
C1202 C1197 1.349 . S
C1203 H1190 0.929 . S
C1203 C1195 1.455 . S
C1203 N1205 1.384 . S
N1204 C1200 1.400 1_655 S
N1204 C1201 1.384 . S
N1205 C1197 1.429 1_455 S
N1205 C1203 1.384 . S
H1206 C1212 0.930 . S
H1207 C1216 0.930 . S
H1208 C1221 0.929 . S
H1209 C1219 0.929 . S
H1210 C1214 0.929 . S
H1211 C1220 0.929 . S
C1212 H1206 0.930 . S
C1212 C1213 1.367 . S
C1212 C1220 1.378 . S
C1213 C1212 1.367 . S
C1213 C1221 1.433 . S
C1214 H1210 0.929 . S
C1214 C1216 1.378 . S
C1214 C1218 1.350 . S
C1215 C1218 1.463 . S
C1215 C1220 1.350 . S
C1215 N1223 1.427 . S
C1216 H1207 0.930 . S
C1216 C1214 1.378 . S
C1216 C1217 1.367 . S
C1217 C1216 1.367 . S
C1217 C1219 1.433 . S
C1218 C1214 1.350 . S
C1218 C1215 1.463 . S
C1218 N1222 1.427 . S
C1219 H1209 0.929 . S
C1219 C1217 1.433 . S
C1219 N1222 1.384 . S
C1220 H1211 0.929 . S
C1220 C1212 1.378 . S
C1220 C1215 1.350 . S
C1221 H1208 0.929 . S
C1221 C1213 1.433 . S
C1221 N1223 1.384 . S
N1222 C1218 1.427 . S
N1222 C1219 1.384 . S
N1223 C1215 1.427 . S
N1223 C1221 1.384 . S
H1224 C1230 0.930 . S
H1225 C1234 0.930 . S
H1226 C1239 0.929 . S
H1227 C1237 0.929 . S
H1228 C1232 0.929 . S
H1229 C1238 0.929 . S
C1230 H1224 0.930 . S
C1230 C1231 1.366 . S
C1230 C1238 1.378 . S
C1231 C1230 1.366 . S
C1231 C1239 1.434 1_545 S
C1232 H1228 0.929 . S
C1232 C1234 1.378 . S
C1232 C1236 1.360 . S
C1233 C1236 1.462 1_545 S
C1233 C1238 1.374 . S
C1233 N1241 1.403 1_545 S
C1234 H1225 0.930 . S
C1234 C1232 1.378 . S
C1234 C1235 1.357 1_565 S
C1235 C1234 1.357 1_545 S
C1235 C1237 1.443 . S
C1236 C1232 1.360 . S
C1236 C1233 1.462 1_565 S
C1236 N1240 1.417 1_565 S
C1237 H1227 0.929 . S
C1237 C1235 1.443 . S
C1237 N1240 1.384 . S
C1238 H1229 0.929 . S
C1238 C1230 1.378 . S
C1238 C1233 1.374 . S
C1239 H1226 0.929 . S
C1239 C1231 1.434 1_565 S
C1239 N1241 1.384 . S
N1240 C1236 1.417 1_545 S
N1240 C1237 1.384 . S
N1241 C1233 1.403 1_565 S
N1241 C1239 1.384 . S
H1242 C1248 0.930 . S
H1243 C1252 0.930 . S
H1244 C1257 0.929 . S
H1245 C1255 0.929 . S
H1246 C1250 0.929 . S
H1247 C1256 0.929 . S
C1248 H1242 0.930 . S
C1248 C1249 1.379 . S
C1248 C1256 1.378 . S
C1249 C1248 1.379 . S
C1249 C1257 1.421 1_655 S
C1250 H1246 0.929 . S
C1250 C1252 1.378 . S
C1250 C1254 1.362 . S
C1251 C1254 1.462 . S
C1251 C1256 1.352 1_455 S
C1251 N1259 1.426 . S
C1252 H1243 0.930 . S
C1252 C1250 1.378 . S
C1252 C1253 1.367 . S
C1253 C1252 1.367 . S
C1253 C1255 1.433 1_455 S
C1254 C1250 1.362 . S
C1254 C1251 1.462 . S
C1254 N1258 1.415 1_455 S
C1255 H1245 0.929 . S
C1255 C1253 1.433 1_655 S
C1255 N1258 1.384 . S
C1256 H1247 0.929 . S
C1256 C1248 1.378 . S
C1256 C1251 1.352 1_655 S
C1257 H1244 0.929 . S
C1257 C1249 1.421 1_455 S
C1257 N1259 1.384 . S
N1258 C1254 1.415 1_655 S
N1258 C1255 1.384 . S
N1259 C1251 1.426 . S
N1259 C1257 1.384 . S
H1260 C1266 0.930 . S
H1261 C1270 0.930 . S
H1262 C1275 0.929 . S
H1263 C1273 0.929 . S
H1264 C1268 0.929 . S
H1265 C1274 0.929 . S
C1266 H1260 0.930 . S
C1266 C1267 1.367 . S
C1266 C1274 1.378 . S
C1267 C1266 1.367 . S
C1267 C1275 1.433 . S
C1268 H1264 0.929 . S
C1268 C1270 1.378 . S
C1268 C1272 1.350 . S
C1269 C1272 1.463 . S
C1269 C1274 1.350 . S
C1269 N1277 1.427 . S
C1270 H1261 0.930 . S
C1270 C1268 1.378 . S
C1270 C1271 1.367 . S
C1271 C1270 1.367 . S
C1271 C1273 1.433 . S
C1272 C1268 1.350 . S
C1272 C1269 1.463 . S
C1272 N1276 1.427 . S
C1273 H1263 0.929 . S
C1273 C1271 1.433 . S
C1273 N1276 1.384 . S
C1274 H1265 0.929 . S
C1274 C1266 1.378 . S
C1274 C1269 1.350 . S
C1275 H1262 0.929 . S
C1275 C1267 1.433 . S
C1275 N1277 1.384 . S
N1276 C1272 1.427 . S
N1276 C1273 1.384 . S
N1277 C1269 1.427 . S
N1277 C1275 1.384 . S
H1278 C1284 0.930 . S
H1279 C1288 0.930 . S
H1280 C1293 0.929 . S
H1281 C1291 0.929 . S
H1282 C1286 0.929 . S
H1283 C1292 0.929 . S
C1284 H1278 0.930 . S
C1284 C1285 1.367 . S
C1284 C1292 1.378 . S
C1285 C1284 1.367 . S
C1285 C1293 1.433 . S
C1286 H1282 0.929 . S
C1286 C1288 1.378 . S
C1286 C1290 1.350 . S
C1287 C1290 1.463 . S
C1287 C1292 1.350 . S
C1287 N1295 1.427 . S
C1288 H1279 0.930 . S
C1288 C1286 1.378 . S
C1288 C1289 1.367 . S
C1289 C1288 1.367 . S
C1289 C1291 1.433 . S
C1290 C1286 1.350 . S
C1290 C1287 1.463 . S
C1290 N1294 1.427 . S
C1291 H1281 0.929 . S
C1291 C1289 1.433 . S
C1291 N1294 1.384 . S
C1292 H1283 0.929 . S
C1292 C1284 1.378 . S
C1292 C1287 1.350 . S
C1293 H1280 0.929 . S
C1293 C1285 1.433 . S
C1293 N1295 1.384 . S
N1294 C1290 1.427 . S
N1294 C1291 1.384 . S
N1295 C1287 1.427 . S
N1295 C1293 1.384 . S
H1296 C1302 0.930 . S
H1297 C1306 0.930 . S
H1298 C1311 0.929 . S
H1299 C1309 0.929 . S
H1300 C1304 0.929 . S
H1301 C1310 0.929 . S
C1302 H1296 0.930 . S
C1302 C1303 1.367 . S
C1302 C1310 1.378 . S
C1303 C1302 1.367 . S
C1303 C1311 1.433 . S
C1304 H1300 0.929 . S
C1304 C1306 1.378 . S
C1304 C1308 1.350 . S
C1305 C1308 1.463 . S
C1305 C1310 1.350 . S
C1305 N1313 1.427 . S
C1306 H1297 0.930 . S
C1306 C1304 1.378 . S
C1306 C1307 1.367 . S
C1307 C1306 1.367 . S
C1307 C1309 1.433 . S
C1308 C1304 1.350 . S
C1308 C1305 1.463 . S
C1308 N1312 1.427 . S
C1309 H1299 0.929 . S
C1309 C1307 1.433 . S
C1309 N1312 1.384 . S
C1310 H1301 0.929 . S
C1310 C1302 1.378 . S
C1310 C1305 1.350 . S
C1311 H1298 0.929 . S
C1311 C1303 1.433 . S
C1311 N1313 1.384 . S
N1312 C1308 1.427 . S
N1312 C1309 1.384 . S
N1313 C1305 1.427 . S
N1313 C1311 1.384 . S
H1314 C1320 0.930 . S
H1315 C1324 0.930 . S
H1316 C1329 0.929 . S
H1317 C1327 0.929 . S
H1318 C1322 0.929 . S
H1319 C1328 0.929 . S
C1320 H1314 0.930 . S
C1320 C1321 1.367 . S
C1320 C1328 1.378 . S
C1321 C1320 1.367 . S
C1321 C1329 1.433 . S
C1322 H1318 0.929 . S
C1322 C1324 1.378 . S
C1322 C1326 1.350 . S
C1323 C1326 1.463 . S
C1323 C1328 1.350 . S
C1323 N1331 1.427 . S
C1324 H1315 0.930 . S
C1324 C1322 1.378 . S
C1324 C1325 1.367 . S
C1325 C1324 1.367 . S
C1325 C1327 1.433 . S
C1326 C1322 1.350 . S
C1326 C1323 1.463 . S
C1326 N1330 1.427 . S
C1327 H1317 0.929 . S
C1327 C1325 1.433 . S
C1327 N1330 1.384 . S
C1328 H1319 0.929 . S
C1328 C1320 1.378 . S
C1328 C1323 1.350 . S
C1329 H1316 0.929 . S
C1329 C1321 1.433 . S
C1329 N1331 1.384 . S
N1330 C1326 1.427 . S
N1330 C1327 1.384 . S
N1331 C1323 1.427 . S
N1331 C1329 1.384 . S
H1332 C1338 0.930 . S
H1333 C1342 0.930 . S
H1334 C1347 0.929 . S
H1335 C1345 0.929 . S
H1336 C1340 0.929 . S
H1337 C1346 0.929 . S
C1338 H1332 0.930 . S
C1338 C1339 1.367 . S
C1338 C1346 1.378 . S
C1339 C1338 1.367 . S
C1339 C1347 1.433 . S
C1340 H1336 0.929 . S
C1340 C1342 1.378 . S
C1340 C1344 1.350 . S
C1341 C1344 1.463 . S
C1341 C1346 1.350 . S
C1341 N1349 1.427 . S
C1342 H1333 0.930 . S
C1342 C1340 1.378 . S
C1342 C1343 1.367 . S
C1343 C1342 1.367 . S
C1343 C1345 1.433 . S
C1344 C1340 1.350 . S
C1344 C1341 1.463 . S
C1344 N1348 1.427 . S
C1345 H1335 0.929 . S
C1345 C1343 1.433 . S
C1345 N1348 1.384 . S
C1346 H1337 0.929 . S
C1346 C1338 1.378 . S
C1346 C1341 1.350 . S
C1347 H1334 0.929 . S
C1347 C1339 1.433 . S
C1347 N1349 1.384 . S
N1348 C1344 1.427 . S
N1348 C1345 1.384 . S
N1349 C1341 1.427 . S
N1349 C1347 1.384 . S
H1350 C1356 0.930 . S
H1351 C1360 0.930 . S
H1352 C1365 0.929 . S
H1353 C1363 0.929 . S
H1354 C1358 0.929 . S
H1355 C1364 0.929 . S
C1356 H1350 0.930 . S
C1356 C1357 1.367 . S
C1356 C1364 1.378 . S
C1357 C1356 1.367 . S
C1357 C1365 1.433 . S
C1358 H1354 0.929 . S
C1358 C1360 1.378 . S
C1358 C1362 1.350 . S
C1359 C1362 1.463 . S
C1359 C1364 1.350 . S
C1359 N1367 1.427 . S
C1360 H1351 0.930 . S
C1360 C1358 1.378 . S
C1360 C1361 1.367 . S
C1361 C1360 1.367 . S
C1361 C1363 1.433 . S
C1362 C1358 1.350 . S
C1362 C1359 1.463 . S
C1362 N1366 1.427 . S
C1363 H1353 0.929 . S
C1363 C1361 1.433 . S
C1363 N1366 1.384 . S
C1364 H1355 0.929 . S
C1364 C1356 1.378 . S
C1364 C1359 1.350 . S
C1365 H1352 0.929 . S
C1365 C1357 1.433 . S
C1365 N1367 1.384 . S
N1366 C1362 1.427 . S
N1366 C1363 1.384 . S
N1367 C1359 1.427 . S
N1367 C1365 1.384 . S
H1368 C1374 0.930 . S
H1369 C1378 0.930 . S
H1370 C1383 0.929 . S
H1371 C1381 0.929 . S
H1372 C1376 0.929 . S
H1373 C1382 0.929 . S
C1374 H1368 0.930 . S
C1374 C1375 1.367 . S
C1374 C1382 1.378 . S
C1375 C1374 1.367 . S
C1375 C1383 1.433 . S
C1376 H1372 0.929 . S
C1376 C1378 1.378 . S
C1376 C1380 1.350 . S
C1377 C1380 1.463 . S
C1377 C1382 1.350 . S
C1377 N1385 1.427 . S
C1378 H1369 0.930 . S
C1378 C1376 1.378 . S
C1378 C1379 1.367 . S
C1379 C1378 1.367 . S
C1379 C1381 1.433 . S
C1380 C1376 1.350 . S
C1380 C1377 1.463 . S
C1380 N1384 1.427 . S
C1381 H1371 0.929 . S
C1381 C1379 1.433 . S
C1381 N1384 1.384 . S
C1382 H1373 0.929 . S
C1382 C1374 1.378 . S
C1382 C1377 1.350 . S
C1383 H1370 0.929 . S
C1383 C1375 1.433 . S
C1383 N1385 1.384 . S
N1384 C1380 1.427 . S
N1384 C1381 1.384 . S
N1385 C1377 1.427 . S
N1385 C1383 1.384 . S
H1386 C1392 0.930 . S
H1387 C1396 0.930 . S
H1388 C1401 0.929 . S
H1389 C1399 0.929 . S
H1390 C1394 0.929 . S
H1391 C1400 0.929 . S
C1392 H1386 0.930 . S
C1392 C1393 1.367 . S
C1392 C1400 1.378 . S
C1393 C1392 1.367 . S
C1393 C1401 1.433 . S
C1394 H1390 0.929 . S
C1394 C1396 1.378 . S
C1394 C1398 1.350 . S
C1395 C1398 1.463 . S
C1395 C1400 1.350 . S
C1395 N1403 1.427 . S
C1396 H1387 0.930 . S
C1396 C1394 1.378 . S
C1396 C1397 1.367 . S
C1397 C1396 1.367 . S
C1397 C1399 1.433 . S
C1398 C1394 1.350 . S
C1398 C1395 1.463 . S
C1398 N1402 1.427 . S
C1399 H1389 0.929 . S
C1399 C1397 1.433 . S
C1399 N1402 1.384 . S
C1400 H1391 0.929 . S
C1400 C1392 1.378 . S
C1400 C1395 1.350 . S
C1401 H1388 0.929 . S
C1401 C1393 1.433 . S
C1401 N1403 1.384 . S
N1402 C1398 1.427 . S
N1402 C1399 1.384 . S
N1403 C1395 1.427 . S
N1403 C1401 1.384 . S
H1404 C1410 0.930 . S
H1405 C1414 0.930 . S
H1406 C1419 0.929 . S
H1407 C1417 0.929 . S
H1408 C1412 0.929 . S
H1409 C1418 0.929 . S
C1410 H1404 0.930 . S
C1410 C1411 1.367 . S
C1410 C1418 1.378 . S
C1411 C1410 1.367 . S
C1411 C1419 1.433 . S
C1412 H1408 0.929 . S
C1412 C1414 1.378 . S
C1412 C1416 1.350 . S
C1413 C1416 1.463 . S
C1413 C1418 1.350 . S
C1413 N1421 1.427 . S
C1414 H1405 0.930 . S
C1414 C1412 1.378 . S
C1414 C1415 1.367 . S
C1415 C1414 1.367 . S
C1415 C1417 1.433 . S
C1416 C1412 1.350 . S
C1416 C1413 1.463 . S
C1416 N1420 1.427 . S
C1417 H1407 0.929 . S
C1417 C1415 1.433 . S
C1417 N1420 1.384 . S
C1418 H1409 0.929 . S
C1418 C1410 1.378 . S
C1418 C1413 1.350 . S
C1419 H1406 0.929 . S
C1419 C1411 1.433 . S
C1419 N1421 1.384 . S
N1420 C1416 1.427 . S
N1420 C1417 1.384 . S
N1421 C1413 1.427 . S
N1421 C1419 1.384 . S
H1422 C1428 0.930 . S
H1423 C1432 0.930 . S
H1424 C1437 0.929 . S
H1425 C1435 0.929 . S
H1426 C1430 0.929 . S
H1427 C1436 0.929 . S
C1428 H1422 0.930 . S
C1428 C1429 1.367 . S
C1428 C1436 1.378 . S
C1429 C1428 1.367 . S
C1429 C1437 1.433 . S
C1430 H1426 0.929 . S
C1430 C1432 1.378 . S
C1430 C1434 1.350 . S
C1431 C1434 1.463 . S
C1431 C1436 1.350 . S
C1431 N1439 1.427 . S
C1432 H1423 0.930 . S
C1432 C1430 1.378 . S
C1432 C1433 1.367 . S
C1433 C1432 1.367 . S
C1433 C1435 1.433 . S
C1434 C1430 1.350 . S
C1434 C1431 1.463 . S
C1434 N1438 1.427 . S
C1435 H1425 0.929 . S
C1435 C1433 1.433 . S
C1435 N1438 1.384 . S
C1436 H1427 0.929 . S
C1436 C1428 1.378 . S
C1436 C1431 1.350 . S
C1437 H1424 0.929 . S
C1437 C1429 1.433 . S
C1437 N1439 1.384 . S
N1438 C1434 1.427 . S
N1438 C1435 1.384 . S
N1439 C1431 1.427 . S
N1439 C1437 1.384 . S
H1440 C1446 0.930 . S
H1441 C1450 0.930 . S
H1442 C1455 0.929 . S
H1443 C1453 0.929 . S
H1444 C1448 0.929 . S
H1445 C1454 0.929 . S
C1446 H1440 0.930 . S
C1446 C1447 1.367 . S
C1446 C1454 1.378 . S
C1447 C1446 1.367 . S
C1447 C1455 1.433 . S
C1448 H1444 0.929 . S
C1448 C1450 1.378 . S
C1448 C1452 1.350 . S
C1449 C1452 1.463 . S
C1449 C1454 1.350 . S
C1449 N1457 1.427 . S
C1450 H1441 0.930 . S
C1450 C1448 1.378 . S
C1450 C1451 1.367 . S
C1451 C1450 1.367 . S
C1451 C1453 1.433 . S
C1452 C1448 1.350 . S
C1452 C1449 1.463 . S
C1452 N1456 1.427 . S
C1453 H1443 0.929 . S
C1453 C1451 1.433 . S
C1453 N1456 1.384 . S
C1454 H1445 0.929 . S
C1454 C1446 1.378 . S
C1454 C1449 1.350 . S
C1455 H1442 0.929 . S
C1455 C1447 1.433 . S
C1455 N1457 1.384 . S
N1456 C1452 1.427 . S
N1456 C1453 1.384 . S
N1457 C1449 1.427 . S
N1457 C1455 1.384 . S
H1458 C1464 0.930 . S
H1459 C1468 0.930 . S
H1460 C1473 0.929 . S
H1461 C1471 0.929 . S
H1462 C1466 0.929 . S
H1463 C1472 0.929 . S
C1464 H1458 0.930 . S
C1464 C1465 1.367 . S
C1464 C1472 1.378 . S
C1465 C1464 1.367 . S
C1465 C1473 1.433 . S
C1466 H1462 0.929 . S
C1466 C1468 1.378 . S
C1466 C1470 1.350 . S
C1467 C1470 1.463 . S
C1467 C1472 1.350 . S
C1467 N1475 1.427 . S
C1468 H1459 0.930 . S
C1468 C1466 1.378 . S
C1468 C1469 1.367 . S
C1469 C1468 1.367 . S
C1469 C1471 1.433 . S
C1470 C1466 1.350 . S
C1470 C1467 1.463 . S
C1470 N1474 1.427 . S
C1471 H1461 0.929 . S
C1471 C1469 1.433 . S
C1471 N1474 1.384 . S
C1472 H1463 0.929 . S
C1472 C1464 1.378 . S
C1472 C1467 1.350 . S
C1473 H1460 0.929 . S
C1473 C1465 1.433 . S
C1473 N1475 1.384 . S
N1474 C1470 1.427 . S
N1474 C1471 1.384 . S
N1475 C1467 1.427 . S
N1475 C1473 1.384 . S
H1476 C1482 0.930 . S
H1477 C1486 0.930 . S
H1478 C1491 0.929 . S
H1479 C1489 0.929 . S
H1480 C1484 0.929 . S
H1481 C1490 0.929 . S
C1482 H1476 0.930 . S
C1482 C1483 1.367 . S
C1482 C1490 1.378 . S
C1483 C1482 1.367 . S
C1483 C1491 1.433 . S
C1484 H1480 0.929 . S
C1484 C1486 1.378 . S
C1484 C1488 1.350 . S
C1485 C1488 1.463 . S
C1485 C1490 1.350 . S
C1485 N1493 1.427 . S
C1486 H1477 0.930 . S
C1486 C1484 1.378 . S
C1486 C1487 1.367 . S
C1487 C1486 1.367 . S
C1487 C1489 1.433 . S
C1488 C1484 1.350 . S
C1488 C1485 1.463 . S
C1488 N1492 1.427 . S
C1489 H1479 0.929 . S
C1489 C1487 1.433 . S
C1489 N1492 1.384 . S
C1490 H1481 0.929 . S
C1490 C1482 1.378 . S
C1490 C1485 1.350 . S
C1491 H1478 0.929 . S
C1491 C1483 1.433 . S
C1491 N1493 1.384 . S
N1492 C1488 1.427 . S
N1492 C1489 1.384 . S
N1493 C1485 1.427 . S
N1493 C1491 1.384 . S
H1494 C1500 0.930 . S
H1495 C1504 0.930 . S
H1496 C1509 0.929 . S
H1497 C1507 0.929 . S
H1498 C1502 0.929 . S
H1499 C1508 0.929 . S
C1500 H1494 0.930 . S
C1500 C1501 1.367 . S
C1500 C1508 1.378 . S
C1501 C1500 1.367 . S
C1501 C1509 1.433 . S
C1502 H1498 0.929 . S
C1502 C1504 1.378 . S
C1502 C1506 1.350 . S
C1503 C1506 1.463 . S
C1503 C1508 1.350 . S
C1503 N1511 1.427 . S
C1504 H1495 0.930 . S
C1504 C1502 1.378 . S
C1504 C1505 1.367 . S
C1505 C1504 1.367 . S
C1505 C1507 1.433 . S
C1506 C1502 1.350 . S
C1506 C1503 1.463 . S
C1506 N1510 1.427 . S
C1507 H1497 0.929 . S
C1507 C1505 1.433 . S
C1507 N1510 1.384 . S
C1508 H1499 0.929 . S
C1508 C1500 1.378 . S
C1508 C1503 1.350 . S
C1509 H1496 0.929 . S
C1509 C1501 1.433 . S
C1509 N1511 1.384 . S
N1510 C1506 1.427 . S
N1510 C1507 1.384 . S
N1511 C1503 1.427 . S
N1511 C1509 1.384 . S
H1512 C1518 0.930 . S
H1513 C1522 0.930 . S
H1514 C1527 0.929 . S
H1515 C1525 0.929 . S
H1516 C1520 0.929 . S
H1517 C1526 0.929 . S
C1518 H1512 0.930 . S
C1518 C1519 1.367 . S
C1518 C1526 1.378 . S
C1519 C1518 1.367 . S
C1519 C1527 1.433 . S
C1520 H1516 0.929 . S
C1520 C1522 1.378 . S
C1520 C1524 1.350 . S
C1521 C1524 1.463 . S
C1521 C1526 1.350 . S
C1521 N1529 1.427 . S
C1522 H1513 0.930 . S
C1522 C1520 1.378 . S
C1522 C1523 1.367 . S
C1523 C1522 1.367 . S
C1523 C1525 1.433 . S
C1524 C1520 1.350 . S
C1524 C1521 1.463 . S
C1524 N1528 1.427 . S
C1525 H1515 0.929 . S
C1525 C1523 1.433 . S
C1525 N1528 1.384 . S
C1526 H1517 0.929 . S
C1526 C1518 1.378 . S
C1526 C1521 1.350 . S
C1527 H1514 0.929 . S
C1527 C1519 1.433 . S
C1527 N1529 1.384 . S
N1528 C1524 1.427 . S
N1528 C1525 1.384 . S
N1529 C1521 1.427 . S
N1529 C1527 1.384 . S
H1530 C1536 0.930 . S
H1531 C1540 0.930 . S
H1532 C1545 0.929 . S
H1533 C1543 0.929 . S
H1534 C1538 0.929 . S
H1535 C1544 0.929 . S
C1536 H1530 0.930 . S
C1536 C1537 1.367 . S
C1536 C1544 1.378 . S
C1537 C1536 1.367 . S
C1537 C1545 1.433 . S
C1538 H1534 0.929 . S
C1538 C1540 1.378 . S
C1538 C1542 1.350 . S
C1539 C1542 1.463 . S
C1539 C1544 1.350 . S
C1539 N1547 1.427 . S
C1540 H1531 0.930 . S
C1540 C1538 1.378 . S
C1540 C1541 1.367 . S
C1541 C1540 1.367 . S
C1541 C1543 1.433 . S
C1542 C1538 1.350 . S
C1542 C1539 1.463 . S
C1542 N1546 1.427 . S
C1543 H1533 0.929 . S
C1543 C1541 1.433 . S
C1543 N1546 1.384 . S
C1544 H1535 0.929 . S
C1544 C1536 1.378 . S
C1544 C1539 1.350 . S
C1545 H1532 0.929 . S
C1545 C1537 1.433 . S
C1545 N1547 1.384 . S
N1546 C1542 1.427 . S
N1546 C1543 1.384 . S
N1547 C1539 1.427 . S
N1547 C1545 1.384 . S
H1548 C1554 0.930 . S
H1549 C1558 0.930 . S
H1550 C1563 0.929 . S
H1551 C1561 0.929 . S
H1552 C1556 0.929 . S
H1553 C1562 0.929 . S
C1554 H1548 0.930 . S
C1554 C1555 1.367 . S
C1554 C1562 1.378 . S
C1555 C1554 1.367 . S
C1555 C1563 1.433 . S
C1556 H1552 0.929 . S
C1556 C1558 1.378 . S
C1556 C1560 1.350 . S
C1557 C1560 1.463 . S
C1557 C1562 1.350 . S
C1557 N1565 1.427 . S
C1558 H1549 0.930 . S
C1558 C1556 1.378 . S
C1558 C1559 1.367 . S
C1559 C1558 1.367 . S
C1559 C1561 1.433 . S
C1560 C1556 1.350 . S
C1560 C1557 1.463 . S
C1560 N1564 1.427 . S
C1561 H1551 0.929 . S
C1561 C1559 1.433 . S
C1561 N1564 1.384 . S
C1562 H1553 0.929 . S
C1562 C1554 1.378 . S
C1562 C1557 1.350 . S
C1563 H1550 0.929 . S
C1563 C1555 1.433 . S
C1563 N1565 1.384 . S
N1564 C1560 1.427 . S
N1564 C1561 1.384 . S
N1565 C1557 1.427 . S
N1565 C1563 1.384 . S
H1566 C1572 0.930 . S
H1567 C1576 0.930 . S
H1568 C1581 0.929 . S
H1569 C1579 0.929 . S
H1570 C1574 0.929 . S
H1571 C1580 0.929 . S
C1572 H1566 0.930 . S
C1572 C1573 1.367 . S
C1572 C1580 1.378 . S
C1573 C1572 1.367 . S
C1573 C1581 1.433 . S
C1574 H1570 0.929 . S
C1574 C1576 1.378 . S
C1574 C1578 1.350 . S
C1575 C1578 1.463 . S
C1575 C1580 1.350 . S
C1575 N1583 1.427 . S
C1576 H1567 0.930 . S
C1576 C1574 1.378 . S
C1576 C1577 1.367 . S
C1577 C1576 1.367 . S
C1577 C1579 1.433 . S
C1578 C1574 1.350 . S
C1578 C1575 1.463 . S
C1578 N1582 1.427 . S
C1579 H1569 0.929 . S
C1579 C1577 1.433 . S
C1579 N1582 1.384 . S
C1580 H1571 0.929 . S
C1580 C1572 1.378 . S
C1580 C1575 1.350 . S
C1581 H1568 0.929 . S
C1581 C1573 1.433 . S
C1581 N1583 1.384 . S
N1582 C1578 1.427 . S
N1582 C1579 1.384 . S
N1583 C1575 1.427 . S
N1583 C1581 1.384 . S
H1584 C1590 0.930 . S
H1585 C1594 0.930 . S
H1586 C1599 0.929 . S
H1587 C1597 0.929 . S
H1588 C1592 0.929 . S
H1589 C1598 0.929 . S
C1590 H1584 0.930 . S
C1590 C1591 1.367 . S
C1590 C1598 1.378 . S
C1591 C1590 1.367 . S
C1591 C1599 1.433 . S
C1592 H1588 0.929 . S
C1592 C1594 1.378 . S
C1592 C1596 1.350 . S
C1593 C1596 1.463 . S
C1593 C1598 1.350 . S
C1593 N1601 1.427 . S
C1594 H1585 0.930 . S
C1594 C1592 1.378 . S
C1594 C1595 1.367 . S
C1595 C1594 1.367 . S
C1595 C1597 1.433 . S
C1596 C1592 1.350 . S
C1596 C1593 1.463 . S
C1596 N1600 1.427 . S
C1597 H1587 0.929 . S
C1597 C1595 1.433 . S
C1597 N1600 1.384 . S
C1598 H1589 0.929 . S
C1598 C1590 1.378 . S
C1598 C1593 1.350 . S
C1599 H1586 0.929 . S
C1599 C1591 1.433 . S
C1599 N1601 1.384 . S
N1600 C1596 1.427 . S
N1600 C1597 1.384 . S
N1601 C1593 1.427 . S
N1601 C1599 1.384 . S
H1602 C1608 0.930 . S
H1603 C1612 0.930 . S
H1604 C1617 0.929 . S
H1605 C1615 0.929 . S
H1606 C1610 0.929 . S
H1607 C1616 0.929 . S
C1608 H1602 0.930 . S
C1608 C1609 1.367 . S
C1608 C1616 1.378 . S
C1609 C1608 1.367 . S
C1609 C1617 1.433 . S
C1610 H1606 0.929 . S
C1610 C1612 1.378 . S
C1610 C1614 1.350 . S
C1611 C1614 1.463 . S
C1611 C1616 1.350 . S
C1611 N1619 1.427 . S
C1612 H1603 0.930 . S
C1612 C1610 1.378 . S
C1612 C1613 1.367 . S
C1613 C1612 1.367 . S
C1613 C1615 1.433 . S
C1614 C1610 1.350 . S
C1614 C1611 1.463 . S
C1614 N1618 1.427 . S
C1615 H1605 0.929 . S
C1615 C1613 1.433 . S
C1615 N1618 1.384 . S
C1616 H1607 0.929 . S
C1616 C1608 1.378 . S
C1616 C1611 1.350 . S
C1617 H1604 0.929 . S
C1617 C1609 1.433 . S
C1617 N1619 1.384 . S
N1618 C1614 1.427 . S
N1618 C1615 1.384 . S
N1619 C1611 1.427 . S
N1619 C1617 1.384 . S
H1620 C1626 0.930 . S
H1621 C1630 0.930 . S
H1622 C1635 0.929 . S
H1623 C1633 0.929 . S
H1624 C1628 0.929 . S
H1625 C1634 0.929 . S
C1626 H1620 0.930 . S
C1626 C1627 1.367 . S
C1626 C1634 1.378 . S
C1627 C1626 1.367 . S
C1627 C1635 1.433 . S
C1628 H1624 0.929 . S
C1628 C1630 1.378 . S
C1628 C1632 1.350 . S
C1629 C1632 1.463 . S
C1629 C1634 1.350 . S
C1629 N1637 1.427 . S
C1630 H1621 0.930 . S
C1630 C1628 1.378 . S
C1630 C1631 1.367 . S
C1631 C1630 1.367 . S
C1631 C1633 1.433 . S
C1632 C1628 1.350 . S
C1632 C1629 1.463 . S
C1632 N1636 1.427 . S
C1633 H1623 0.929 . S
C1633 C1631 1.433 . S
C1633 N1636 1.384 . S
C1634 H1625 0.929 . S
C1634 C1626 1.378 . S
C1634 C1629 1.350 . S
C1635 H1622 0.929 . S
C1635 C1627 1.433 . S
C1635 N1637 1.384 . S
N1636 C1632 1.427 . S
N1636 C1633 1.384 . S
N1637 C1629 1.427 . S
N1637 C1635 1.384 . S
H1638 C1644 0.930 . S
H1639 C1648 0.930 . S
H1640 C1653 0.929 . S
H1641 C1651 0.929 . S
H1642 C1646 0.929 . S
H1643 C1652 0.929 . S
C1644 H1638 0.930 . S
C1644 C1645 1.367 . S
C1644 C1652 1.378 . S
C1645 C1644 1.367 . S
C1645 C1653 1.433 . S
C1646 H1642 0.929 . S
C1646 C1648 1.378 . S
C1646 C1650 1.350 . S
C1647 C1650 1.463 . S
C1647 C1652 1.350 . S
C1647 N1655 1.427 . S
C1648 H1639 0.930 . S
C1648 C1646 1.378 . S
C1648 C1649 1.367 . S
C1649 C1648 1.367 . S
C1649 C1651 1.433 . S
C1650 C1646 1.350 . S
C1650 C1647 1.463 . S
C1650 N1654 1.427 . S
C1651 H1641 0.929 . S
C1651 C1649 1.433 . S
C1651 N1654 1.384 . S
C1652 H1643 0.929 . S
C1652 C1644 1.378 . S
C1652 C1647 1.350 . S
C1653 H1640 0.929 . S
C1653 C1645 1.433 . S
C1653 N1655 1.384 . S
N1654 C1650 1.427 . S
N1654 C1651 1.384 . S
N1655 C1647 1.427 . S
N1655 C1653 1.384 . S
H1656 C1662 0.930 . S
H1657 C1666 0.930 . S
H1658 C1671 0.929 . S
H1659 C1669 0.929 . S
H1660 C1664 0.929 . S
H1661 C1670 0.929 . S
C1662 H1656 0.930 . S
C1662 C1663 1.367 . S
C1662 C1670 1.378 . S
C1663 C1662 1.367 . S
C1663 C1671 1.433 . S
C1664 H1660 0.929 . S
C1664 C1666 1.378 . S
C1664 C1668 1.350 . S
C1665 C1668 1.463 . S
C1665 C1670 1.350 . S
C1665 N1673 1.427 . S
C1666 H1657 0.930 . S
C1666 C1664 1.378 . S
C1666 C1667 1.367 . S
C1667 C1666 1.367 . S
C1667 C1669 1.433 . S
C1668 C1664 1.350 . S
C1668 C1665 1.463 . S
C1668 N1672 1.427 . S
C1669 H1659 0.929 . S
C1669 C1667 1.433 . S
C1669 N1672 1.384 . S
C1670 H1661 0.929 . S
C1670 C1662 1.378 . S
C1670 C1665 1.350 . S
C1671 H1658 0.929 . S
C1671 C1663 1.433 . S
C1671 N1673 1.384 . S
N1672 C1668 1.427 . S
N1672 C1669 1.384 . S
N1673 C1665 1.427 . S
N1673 C1671 1.384 . S
H1674 C1680 0.930 . S
H1675 C1684 0.930 . S
H1676 C1689 0.929 . S
H1677 C1687 0.929 . S
H1678 C1682 0.929 . S
H1679 C1688 0.929 . S
C1680 H1674 0.930 . S
C1680 C1681 1.367 . S
C1680 C1688 1.378 . S
C1681 C1680 1.367 . S
C1681 C1689 1.433 . S
C1682 H1678 0.929 . S
C1682 C1684 1.378 . S
C1682 C1686 1.350 . S
C1683 C1686 1.463 . S
C1683 C1688 1.350 . S
C1683 N1691 1.427 . S
C1684 H1675 0.930 . S
C1684 C1682 1.378 . S
C1684 C1685 1.367 . S
C1685 C1684 1.367 . S
C1685 C1687 1.433 . S
C1686 C1682 1.350 . S
C1686 C1683 1.463 . S
C1686 N1690 1.427 . S
C1687 H1677 0.929 . S
C1687 C1685 1.433 . S
C1687 N1690 1.384 . S
C1688 H1679 0.929 . S
C1688 C1680 1.378 . S
C1688 C1683 1.350 . S
C1689 H1676 0.929 . S
C1689 C1681 1.433 . S
C1689 N1691 1.384 . S
N1690 C1686 1.427 . S
N1690 C1687 1.384 . S
N1691 C1683 1.427 . S
N1691 C1689 1.384 . S
H1692 C1698 0.930 . S
H1693 C1702 0.930 . S
H1694 C1707 0.929 . S
H1695 C1705 0.929 . S
H1696 C1700 0.929 . S
H1697 C1706 0.952 . S
C1698 H1692 0.930 . S
C1698 C1699 1.367 . S
C1698 C1706 1.378 . S
C1699 C1698 1.367 . S
C1699 C1707 1.433 . S
C1700 H1696 0.929 . S
C1700 C1702 1.378 . S
C1700 C1704 1.350 . S
C1701 C1704 1.463 1_455 S
C1701 C1706 1.350 . S
C1701 N1709 1.427 . S
C1702 H1693 0.930 . S
C1702 C1700 1.378 . S
C1702 C1703 1.367 . S
C1703 C1702 1.367 . S
C1703 C1705 1.433 . S
C1704 C1700 1.350 . S
C1704 C1701 1.463 1_655 S
C1704 N1708 1.427 . S
C1705 H1695 0.929 . S
C1705 C1703 1.433 . S
C1705 N1708 1.384 . S
C1706 H1697 0.952 . S
C1706 C1698 1.378 . S
C1706 C1701 1.350 . S
C1707 H1694 0.929 . S
C1707 C1699 1.433 . S
C1707 N1709 1.384 . S
N1708 C1704 1.427 . S
N1708 C1705 1.384 . S
N1709 C1701 1.427 . S
N1709 C1707 1.384 . S
H1710 C1716 0.930 . S
H1711 C1720 0.930 . S
H1712 C1725 0.929 . S
H1713 C1723 0.929 . S
H1714 C1718 0.929 . S
H1715 C1724 0.929 . S
C1716 H1710 0.930 . S
C1716 C1717 1.367 . S
C1716 C1724 1.378 . S
C1717 C1716 1.367 . S
C1717 C1725 1.433 . S
C1718 H1714 0.929 . S
C1718 C1720 1.378 . S
C1718 C1722 1.350 . S
C1719 C1722 1.463 . S
C1719 C1724 1.350 . S
C1719 N1727 1.427 . S
C1720 H1711 0.930 . S
C1720 C1718 1.378 . S
C1720 C1721 1.367 . S
C1721 C1720 1.367 . S
C1721 C1723 1.433 . S
C1722 C1718 1.350 . S
C1722 C1719 1.463 . S
C1722 N1726 1.427 . S
C1723 H1713 0.929 . S
C1723 C1721 1.433 . S
C1723 N1726 1.384 . S
C1724 H1715 0.929 . S
C1724 C1716 1.378 . S
C1724 C1719 1.350 . S
C1725 H1712 0.929 . S
C1725 C1717 1.433 . S
C1725 N1727 1.384 . S
N1726 C1722 1.427 . S
N1726 C1723 1.384 . S
N1727 C1719 1.427 . S
N1727 C1725 1.384 . S
H1728 C1734 0.930 . S
H1729 C1738 0.930 . S
H1730 C1743 0.929 . S
H1731 C1741 0.929 . S
H1732 C1736 0.929 . S
H1733 C1742 0.929 . S
C1734 H1728 0.930 . S
C1734 C1735 1.367 . S
C1734 C1742 1.378 . S
C1735 C1734 1.367 . S
C1735 C1743 1.433 . S
C1736 H1732 0.929 . S
C1736 C1738 1.378 . S
C1736 C1740 1.350 . S
C1737 C1740 1.463 1_545 S
C1737 C1742 1.350 . S
C1737 N1745 1.427 . S
C1738 H1729 0.930 . S
C1738 C1736 1.378 . S
C1738 C1739 1.367 . S
C1739 C1738 1.367 . S
C1739 C1741 1.433 . S
C1740 C1736 1.350 . S
C1740 C1737 1.463 1_565 S
C1740 N1744 1.427 . S
C1741 H1731 0.929 . S
C1741 C1739 1.433 . S
C1741 N1744 1.384 . S
C1742 H1733 0.929 . S
C1742 C1734 1.378 . S
C1742 C1737 1.350 . S
C1743 H1730 0.929 . S
C1743 C1735 1.433 . S
C1743 N1745 1.384 . S
N1744 C1740 1.427 . S
N1744 C1741 1.384 . S
N1745 C1737 1.427 . S
N1745 C1743 1.384 . S
H1746 C1752 0.930 . S
H1747 C1756 0.930 . S
H1748 C1761 0.929 . S
H1749 C1759 0.929 . S
H1750 C1754 0.929 . S
H1751 C1760 0.929 . S
C1752 H1746 0.930 . S
C1752 C1753 1.367 . S
C1752 C1760 1.378 . S
C1753 C1752 1.367 . S
C1753 C1761 1.433 1_556 S
C1754 H1750 0.929 . S
C1754 C1756 1.378 . S
C1754 C1758 1.350 . S
C1755 C1758 1.462 1_545 S
C1755 C1760 1.351 1_554 S
C1755 N1763 1.427 . S
C1756 H1747 0.930 . S
C1756 C1754 1.378 . S
C1756 C1757 1.367 . S
C1757 C1756 1.367 . S
C1757 C1759 1.433 1_554 S
C1758 C1754 1.350 . S
C1758 C1755 1.462 1_565 S
C1758 N1762 1.427 1_554 S
C1759 H1749 0.929 . S
C1759 C1757 1.433 1_556 S
C1759 N1762 1.384 . S
C1760 H1751 0.929 . S
C1760 C1752 1.378 . S
C1760 C1755 1.351 1_556 S
C1761 H1748 0.929 . S
C1761 C1753 1.433 1_554 S
C1761 N1763 1.384 . S
N1762 C1758 1.427 1_556 S
N1762 C1759 1.384 . S
N1763 C1755 1.427 . S
N1763 C1761 1.384 . S
H1764 C1770 0.930 . S
H1765 C1774 0.930 . S
H1766 C1779 0.928 . S
H1767 C1777 0.936 . S
H1768 C1772 0.929 1_655 S
H1769 C1778 0.929 1_455 S
C1770 H1764 0.930 . S
C1770 C1771 1.367 . S
C1770 C1778 1.378 . S
C1771 C1770 1.367 . S
C1771 C1779 1.434 1_556 S
C1772 H1768 0.929 1_455 S
C1772 C1774 1.378 . S
C1772 C1776 1.350 . S
C1773 C1776 1.463 1_655 S
C1773 C1778 1.349 1_554 S
C1773 N1781 1.426 . S
C1774 H1765 0.930 . S
C1774 C1772 1.378 . S
C1774 C1775 1.367 . S
C1775 C1774 1.367 . S
C1775 C1777 1.433 . S
C1776 C1772 1.350 . S
C1776 C1773 1.463 1_455 S
C1776 N1780 1.430 . S
C1777 H1767 0.936 . S
C1777 C1775 1.433 . S
C1777 N1780 1.386 . S
C1778 H1769 0.929 1_655 S
C1778 C1770 1.378 . S
C1778 C1773 1.349 1_556 S
C1779 H1766 0.928 . S
C1779 C1771 1.434 1_554 S
C1779 N1781 1.381 . S
N1780 C1776 1.430 . S
N1780 C1777 1.386 . S
N1781 C1773 1.426 . S
N1781 C1779 1.381 . S
H1782 C1788 0.930 . S
H1783 C1792 0.930 . S
H1784 C1797 0.929 . S
H1785 C1795 0.929 . S
H1786 C1790 0.929 . S
H1787 C1796 0.929 . S
C1788 H1782 0.930 . S
C1788 C1789 1.367 . S
C1788 C1796 1.378 . S
C1789 C1788 1.367 . S
C1789 C1797 1.433 1_554 S
C1790 H1786 0.929 . S
C1790 C1792 1.378 . S
C1790 C1794 1.355 . S
C1791 C1794 1.462 1_554 S
C1791 C1796 1.350 . S
C1791 N1799 1.427 1_554 S
C1792 H1783 0.930 . S
C1792 C1790 1.378 . S
C1792 C1793 1.367 . S
C1793 C1792 1.367 . S
C1793 C1795 1.433 1_556 S
C1794 C1790 1.355 . S
C1794 C1791 1.462 1_556 S
C1794 N1798 1.422 1_556 S
C1795 H1785 0.929 . S
C1795 C1793 1.433 1_554 S
C1795 N1798 1.384 . S
C1796 H1787 0.929 . S
C1796 C1788 1.378 . S
C1796 C1791 1.350 . S
C1797 H1784 0.929 . S
C1797 C1789 1.433 1_556 S
C1797 N1799 1.384 . S
N1798 C1794 1.422 1_554 S
N1798 C1795 1.384 . S
N1799 C1791 1.427 1_556 S
N1799 C1797 1.384 . S
C511 C9 1.138 . S
C515 C21 1.214 . S
C529 C23 1.138 . S
C533 C35 1.219 . S
C547 C7 1.213 . S
C551 C37 1.143 . S
C565 C51 1.128 . S
C569 C77 1.225 . S
C583 C65 1.114 . S
C587 C49 1.230 . S
C601 C63 1.230 . S
C605 C79 1.121 . S
C619 C93 1.126 . S
C623 C101 1.303 . S
C637 C115 1.302 . S
C641 C107 1.119 . S
C655 C87 1.301 . S
C659 C121 1.124 . S
C673 C157 1.300 . S
C677 C135 1.128 . S
C691 C149 1.128 . S
C695 C129 1.300 . S
C709 C163 1.150 . S
C713 C143 1.300 . S
C727 C189 1.232 . S
C731 C177 1.113 . S
C745 C191 1.142 . S
C749 C203 1.213 . S
C763 C205 1.131 . S
C767 C175 1.218 . S
C781 C219 1.128 . S
C785 C245 1.225 . S
C799 C233 1.134 . S
C803 C217 1.217 . S
C817 C247 1.113 . S
C821 C231 1.233 . S
C835 C269 1.301 . S
C839 C261 1.118 . S
C853 C275 1.143 . S
C857 C283 1.299 . S
C871 C255 1.303 . S
C875 C289 1.137 . S
C889 C325 1.311 . S
C893 C303 1.123 1_556 S
C907 C317 1.122 1_556 S
C911 C297 1.311 . S
C925 C311 1.300 . S
C929 C331 1.117 1_556 S
C943 C357 1.232 . S
C947 C345 1.115 . S
C961 C359 1.127 . S
C965 C371 1.226 . S
C979 C373 1.129 . S
C983 C343 1.219 . S
C997 C413 1.229 1_554 S
C1001 C387 1.109 1_554 S
C1015 C401 1.099 1_554 S
C1019 C385 1.229 . S
C1033 C399 1.222 . S
C1037 C415 1.115 1_554 S
C1051 C429 1.132 . S
C1055 C437 1.303 . S
C1069 C443 1.151 . S
C1073 C451 1.300 . S
C1087 C457 1.118 . S
C1091 C423 1.302 . S
C1105 C493 1.299 . S
C1109 C471 1.137 . S
C1123 C465 1.299 . S
C1127 C485 1.140 . S
C1141 C499 1.148 . S
C1145 C479 1.299 . S
C1159 C45 1.715 . S
C1163 C3 1.710 . S
C1177 C17 1.710 . S
C1181 C59 1.709 . S
C1195 C73 1.712 . S
C1199 C31 1.715 1_455 S
C1213 C133 1.617 . S
C1217 C91 1.626 . S
C1231 C105 1.625 1_545 S
C1235 C147 1.623 . S
C1249 C161 1.627 . S
C1253 C119 1.612 . S
C1267 C171 1.708 . S
C1271 C213 1.711 . S
C1285 C185 1.712 . S
C1289 C227 1.708 . S
C1303 C199 1.708 . S
C1307 C241 1.713 . S
C1321 C301 1.618 . S
C1325 C259 1.625 . S
C1339 C315 1.616 . S
C1343 C273 1.624 . S
C1357 C287 1.622 . S
C1361 C329 1.622 . S
C1375 C381 1.711 . S
C1379 C339 1.708 . S
C1393 C395 1.711 . S
C1397 C353 1.708 . S
C1411 C367 1.709 . S
C1415 C409 1.715 . S
C1429 C427 1.614 . S
C1433 C469 1.628 . S
C1447 C483 1.614 . S
C1451 C441 1.626 . S
C1465 C455 1.618 . S
C1469 C497 1.625 . S
C1483 C8 1.653 . S
C1487 C260 1.639 . S
C1501 C22 1.641 . S
C1505 C274 1.629 . S
C1519 C36 1.654 . S
C1523 C288 1.643 . S
C1537 C470 1.638 . S
C1541 C50 1.651 . S
C1555 C484 1.637 . S
C1559 C64 1.647 . S
C1573 C78 1.656 . S
C1577 C498 1.644 . S
C1591 C92 1.640 . S
C1595 C344 1.650 . S
C1609 C358 1.642 . S
C1613 C106 1.630 . S
C1627 C372 1.644 . S
C1631 C120 1.633 . S
C1645 C218 1.653 . S
C1649 C134 1.640 . S
C1663 C232 1.642 . S
C1667 C148 1.630 . S
C1681 C246 1.656 . S
C1685 C162 1.643 . S
C1699 C428 1.637 . S
C1703 C176 1.647 . S
C1717 C190 1.656 . S
C1721 C442 1.644 . S
C1735 C204 1.642 . S
C1739 C456 1.630 . S
C1753 C302 1.632 . S
C1757 C386 1.656 . S
C1771 C316 1.645 . S
C1775 C400 1.666 . S
C1789 C414 1.667 . S
C1793 C330 1.644 . S
