# Generated by pormake.
# Topology tfs, (6)-cn, num edge types: 1
# Building blocks:
#     Node 0, Type 0, BuildingBlock: BETDIP_clean_sbu_0, # of connection points: 6
#     Node 1, Type 0, BuildingBlock: BETDIP_clean_sbu_0, # of connection points: 6
#     Node 2, Type 0, BuildingBlock: BETDIP_clean_sbu_0, # of connection points: 6
#     Node 3, Type 0, BuildingBlock: BETDIP_clean_sbu_0, # of connection points: 6
#     Node 4, Type 0, BuildingBlock: BETDIP_clean_sbu_0, # of connection points: 6
#     Node 5, Type 0, BuildingBlock: BETDIP_clean_sbu_0, # of connection points: 6
#     Edge 6, Type (0, 0), BuildingBlock: TEMPAE_clean_linker_10, # of connection points: 2
#     Edge 7, Type (0, 0), BuildingBlock: TEMPAE_clean_linker_10, # of connection points: 2
#     Edge 8, Type (0, 0), BuildingBlock: TEMPAE_clean_linker_10, # of connection points: 2
#     Edge 9, Type (0, 0), BuildingBlock: TEMPAE_clean_linker_10, # of connection points: 2
#     Edge 10, Type (0, 0), BuildingBlock: TEMPAE_clean_linker_10, # of connection points: 2
#     Edge 11, Type (0, 0), BuildingBlock: TEMPAE_clean_linker_10, # of connection points: 2
#     Edge 12, Type (0, 0), BuildingBlock: TEMPAE_clean_linker_10, # of connection points: 2
#     Edge 13, Type (0, 0), BuildingBlock: TEMPAE_clean_linker_10, # of connection points: 2
#     Edge 14, Type (0, 0), BuildingBlock: TEMPAE_clean_linker_10, # of connection points: 2
#     Edge 15, Type (0, 0), BuildingBlock: TEMPAE_clean_linker_10, # of connection points: 2
#     Edge 16, Type (0, 0), BuildingBlock: TEMPAE_clean_linker_10, # of connection points: 2
#     Edge 17, Type (0, 0), BuildingBlock: TEMPAE_clean_linker_10, # of connection points: 2
#     Edge 18, Type (0, 0), BuildingBlock: TEMPAE_clean_linker_10, # of connection points: 2
#     Edge 19, Type (0, 0), BuildingBlock: TEMPAE_clean_linker_10, # of connection points: 2
#     Edge 20, Type (0, 0), BuildingBlock: TEMPAE_clean_linker_10, # of connection points: 2
#     Edge 21, Type (0, 0), BuildingBlock: TEMPAE_clean_linker_10, # of connection points: 2
#     Edge 22, Type (0, 0), BuildingBlock: TEMPAE_clean_linker_10, # of connection points: 2
#     Edge 23, Type (0, 0), BuildingBlock: TEMPAE_clean_linker_10, # of connection points: 2
# Relax obj value: 0.580
# Max RMSD: 0.300
# Mean RMSD: 0.300
data_MOF--net-tfs--node1-BETDIP_clean_sbu_0--edge1-TEMPAE_clean_linker_10
_symmetry_space_group_name_H-M    P1
_symmetry_Int_Tables_number       1
_symmetry_cell_setting            triclinic
loop_
_symmetry_equiv_pos_as_xyz
'x, y, z'
_cell_length_a     55.514025
_cell_length_b     55.502375
_cell_length_c     14.537535
_cell_angle_alpha  90.026112
_cell_angle_beta   89.906084
_cell_angle_gamma 119.91876
loop_
_atom_site_label
_atom_site_type_symbol
_atom_site_fract_x
_atom_site_fract_y
_atom_site_fract_z
_atom_type_partial_charge
Tb0 Tb 0.18727 0.44512 0.03659 0.0
Tb1 Tb 0.20324 0.40218 0.99609 0.0
C2 C 0.18045 0.48261 0.10745 0.0
C3 C 0.18944 0.51206 0.09053 0.0
C4 C 0.19601 0.53011 0.16555 0.0
C5 C 0.20246 0.55761 0.15209 0.0
C6 C 0.20226 0.56755 0.0632 0.0
C7 C 0.19647 0.54958 0.98777 0.0
C8 C 0.19021 0.52211 1.00126 0.0
C9 C 0.18791 0.435 0.85843 0.0
C10 C 0.25155 0.46282 0.0208 0.0
C11 C 0.20799 0.36224 0.93535 0.0
C12 C 0.22514 0.34897 0.94591 0.0
C13 C 0.23329 0.34036 0.8669 0.0
C14 C 0.24788 0.32596 0.87443 0.0
C15 C 0.25445 0.31974 0.96133 0.0
C16 C 0.24654 0.32867 0.04053 0.0
C17 C 0.23208 0.34325 0.03294 0.0
C18 C 0.20385 0.41454 0.1723 0.0
C19 C 0.1406 0.38602 1.00891 0.0
O20 O 0.19957 0.47698 0.13474 0.0
O21 O 0.16364 0.4648 0.04662 0.0
O22 O 0.20415 0.43517 0.91886 0.0
O23 O 0.17328 0.44475 0.89486 0.0
O24 O 0.23254 0.46914 0.04734 0.0
O25 O 0.24488 0.43792 0.98891 0.0
O26 O 0.19206 0.36027 1.00477 0.0
O27 O 0.21977 0.38683 0.89683 0.0
O28 O 0.18617 0.41194 0.11336 0.0
O29 O 0.22114 0.40821 0.13473 0.0
O30 O 0.15899 0.38309 0.95963 0.0
O31 O 0.14888 0.40735 0.06478 0.0
H32 H 0.19568 0.52278 0.23487 0.0
H33 H 0.20739 0.57103 0.21152 0.0
H34 H 0.19592 0.55646 0.9185 0.0
H35 H 0.18534 0.50859 0.94211 0.0
H36 H 0.22796 0.3444 0.79916 0.0
H37 H 0.25353 0.3192 0.81223 0.0
H38 H 0.25168 0.32453 0.10837 0.0
H39 H 0.2261 0.34974 0.09504 0.0
Tb40 Tb 0.74088 0.18057 0.0458 0.0
Tb41 Tb 0.80052 0.2005 1.00448 0.0
C42 C 0.69595 0.17042 0.1205 0.0
C43 C 0.6752 0.17917 0.1106 0.0
C44 C 0.64854 0.16213 0.14634 0.0
C45 C 0.62789 0.16914 0.13413 0.0
C46 C 0.63358 0.19341 0.08606 0.0
C47 C 0.6605 0.2106 0.05076 0.0
C48 C 0.68117 0.20348 0.06279 0.0
C49 C 0.75196 0.18211 0.86776 0.0
C50 C 0.78404 0.24617 0.02951 0.0
C51 C 0.84558 0.2076 0.93924 0.0
C52 C 0.87567 0.22628 0.94437 0.0
C53 C 0.89313 0.21569 0.92182 0.0
C54 C 0.9219 0.2326 0.92694 0.0
C55 C 0.93369 0.26047 0.95455 0.0
C56 C 0.9161 0.27114 0.9766 0.0
C57 C 0.88721 0.25409 0.97191 0.0
C58 C 0.78855 0.19975 0.18092 0.0
C59 C 0.7574 0.13639 0.01588 0.0
O60 O 0.72042 0.18908 0.15125 0.0
O61 O 0.69756 0.15616 0.05154 0.0
O62 O 0.76723 0.19899 0.92825 0.0
O63 O 0.72786 0.16603 0.90404 0.0
O64 O 0.75898 0.22585 0.05338 0.0
O65 O 0.80377 0.24118 1.00048 0.0
O66 O 0.83381 0.19292 0.01303 0.0
O67 O 0.83083 0.21734 0.90101 0.0
O68 O 0.7742 0.18175 0.12155 0.0
O69 O 0.81165 0.21826 0.14337 0.0
O70 O 0.77856 0.15603 0.96945 0.0
O71 O 0.74231 0.14286 0.06936 0.0
H72 H 0.64358 0.14315 0.18264 0.0
H73 H 0.60727 0.15521 0.16076 0.0
H74 H 0.66558 0.22955 0.01416 0.0
H75 H 0.70169 0.21678 0.03427 0.0
H76 H 0.88447 0.19425 0.90032 0.0
H77 H 0.93494 0.22394 0.90854 0.0
H78 H 0.92468 0.29249 0.99888 0.0
H79 H 0.87395 0.26252 0.99006 0.0
Tb80 Tb 0.56296 0.73899 0.02797 0.0
Tb81 Tb 0.59757 0.79991 0.98821 0.0
C82 C 0.53093 0.69145 0.09279 0.0
C83 C 0.50217 0.66875 0.07996 0.0
C84 C 0.48599 0.65538 0.15754 0.0
C85 C 0.45923 0.63267 0.14754 0.0
C86 C 0.44818 0.62276 0.05955 0.0
C87 C 0.4643 0.63659 0.98178 0.0
C88 C 0.49101 0.65944 0.99186 0.0
C89 C 0.5734 0.75196 0.85105 0.0
C90 C 0.53301 0.77448 1.00328 0.0
C91 C 0.62773 0.84656 0.9137 0.0
C92 C 0.65165 0.87445 0.92956 0.0
C93 C 0.6667 0.89019 0.85324 0.0
C94 C 0.68515 0.91869 0.86208 0.0
C95 C 0.68878 0.93195 0.94753 0.0
C96 C 0.67527 0.91568 0.02538 0.0
C97 C 0.65681 0.88712 0.01646 0.0
C98 C 0.58804 0.78798 0.16573 0.0
C99 C 0.6263 0.7629 0.01183 0.0
O100 O 0.53413 0.71438 0.12949 0.0
O101 O 0.54817 0.69621 0.02473 0.0
O102 O 0.56829 0.76502 0.91119 0.0
O103 O 0.56991 0.7292 0.88722 0.0
O104 O 0.5317 0.75201 0.03943 0.0
O105 O 0.55605 0.79371 0.96326 0.0
O106 O 0.63218 0.82565 0.90461 0.0
O107 O 0.60547 0.8401 0.96204 0.0
O108 O 0.59197 0.77409 0.10547 0.0
O109 O 0.59475 0.81188 0.13028 0.0
O110 O 0.62778 0.78519 0.97267 0.0
O111 O 0.60368 0.74454 0.05556 0.0
H112 H 0.4942 0.66234 0.22607 0.0
H113 H 0.44718 0.6229 0.20886 0.0
H114 H 0.45654 0.62939 0.91306 0.0
H115 H 0.50307 0.66949 0.93079 0.0
H116 H 0.66297 0.88078 0.78561 0.0
H117 H 0.69561 0.93059 0.80118 0.0
H118 H 0.6775 0.92529 0.09206 0.0
H119 H 0.64534 0.87533 0.07631 0.0
Tb120 Tb 0.82425 0.56224 0.03113 0.0
Tb121 Tb 0.79964 0.59859 0.99149 0.0
C122 C 0.83671 0.52812 0.09903 0.0
C123 C 0.82901 0.49862 0.08708 0.0
C124 C 0.82035 0.48089 0.16371 0.0
C125 C 0.81483 0.45346 0.15568 0.0
C126 C 0.81806 0.44316 0.07076 0.0
C127 C 0.82624 0.46086 0.99362 0.0
C128 C 0.8316 0.48824 1.0016 0.0
C129 C 0.82214 0.57227 0.8536 0.0
C130 C 0.75934 0.53457 1.00322 0.0
C131 C 0.7832 0.62946 0.92086 0.0
C132 C 0.77841 0.6531 0.93244 0.0
C133 C 0.76497 0.65859 0.86101 0.0
C134 C 0.75586 0.67772 0.87275 0.0
C135 C 0.76023 0.6922 0.95628 0.0
C136 C 0.77485 0.68744 0.02685 0.0
C137 C 0.78369 0.66788 0.01524 0.0
C138 C 0.80206 0.58833 0.16839 0.0
C139 C 0.86537 0.62534 1.01145 0.0
O140 O 0.81786 0.53302 0.13438 0.0
O141 O 0.85039 0.54515 0.0317 0.0
O142 O 0.80449 0.56886 0.91393 0.0
O143 O 0.83954 0.56596 0.88951 0.0
O144 O 0.77964 0.53283 0.04402 0.0
O145 O 0.76442 0.55758 0.95977 0.0
O146 O 0.80866 0.63415 0.91276 0.0
O147 O 0.76765 0.60746 0.97028 0.0
O148 O 0.81993 0.59267 0.10801 0.0
O149 O 0.7836 0.59319 0.13294 0.0
O150 O 0.84474 0.62772 0.97477 0.0
O151 O 0.86075 0.60241 0.05412 0.0
H152 H 0.81818 0.48838 0.23034 0.0
H153 H 0.80808 0.44034 0.21621 0.0
H154 H 0.82924 0.45381 0.92736 0.0
H155 H 0.83826 0.50138 0.94108 0.0
H156 H 0.76035 0.64709 0.79702 0.0
H157 H 0.74417 0.68003 0.81737 0.0
H158 H 0.77899 0.69837 0.09172 0.0
H159 H 0.79387 0.66373 0.07154 0.0
Tb160 Tb 0.26513 0.82574 0.02619 0.0
Tb161 Tb 0.20358 0.79938 0.991 0.0
C162 C 0.31337 0.84012 0.0836 0.0
C163 C 0.33322 0.82982 0.07917 0.0
C164 C 0.36008 0.84645 0.11397 0.0
C165 C 0.37983 0.83791 0.10695 0.0
C166 C 0.37312 0.81243 0.06504 0.0
C167 C 0.34597 0.79565 0.03085 0.0
C168 C 0.32621 0.8043 0.03771 0.0
C169 C 0.25066 0.8237 0.8516 0.0
C170 C 0.22949 0.76071 1.00134 0.0
C171 C 0.15612 0.78128 0.92031 0.0
C172 C 0.12778 0.77695 0.92923 0.0
C173 C 0.10898 0.7627 0.85828 0.0
C174 C 0.08069 0.75342 0.86909 0.0
C175 C 0.07037 0.75845 0.95115 0.0
C176 C 0.08962 0.77398 0.02093 0.0
C177 C 0.11806 0.78296 1.01034 0.0
C178 C 0.2169 0.80168 0.16693 0.0
C179 C 0.24104 0.86537 0.01517 0.0
O180 O 0.29076 0.82548 0.13198 0.0
O181 O 0.30826 0.84842 1.00576 0.0
O182 O 0.2382 0.80516 0.91122 0.0
O183 O 0.27324 0.84339 0.88717 0.0
O184 O 0.25161 0.78163 0.03918 0.0
O185 O 0.21039 0.76464 0.96103 0.0
O186 O 0.17698 0.8063 0.90463 0.0
O187 O 0.16263 0.76717 0.97686 0.0
O188 O 0.23031 0.81958 0.10635 0.0
O189 O 0.19291 0.78434 0.13288 0.0
O190 O 0.21783 0.84437 0.98086 0.0
O191 O 0.26054 0.86154 0.0528 0.0
H192 H 0.36594 0.86632 0.14551 0.0
H193 H 0.40059 0.85163 0.13259 0.0
H194 H 0.33996 0.7758 0.99901 0.0
H195 H 0.30559 0.79122 1.00993 0.0
H196 H 0.11599 0.75744 0.79572 0.0
H197 H 0.06683 0.74104 0.81439 0.0
H198 H 0.0827 0.77868 0.0846 0.0
H199 H 0.13225 0.79373 0.0664 0.0
Tb200 Tb 0.44309 0.26196 0.0448 0.0
Tb201 Tb 0.40722 0.20124 1.00532 0.0
C202 C 0.47769 0.30934 0.10553 0.0
C203 C 0.50696 0.33076 0.0892 0.0
C204 C 0.52434 0.34361 0.16483 0.0
C205 C 0.55183 0.36475 0.15187 0.0
C206 C 0.56256 0.37366 0.06274 0.0
C207 C 0.5452 0.36034 0.98686 0.0
C208 C 0.5177 0.33905 0.99993 0.0
C209 C 0.4314 0.24888 0.86863 0.0
C210 C 0.47135 0.22532 0.01674 0.0
C211 C 0.37615 0.15465 0.93095 0.0
C212 C 0.35223 0.12647 0.94269 0.0
C213 C 0.34629 0.10746 0.87112 0.0
C214 C 0.32666 0.07942 0.88284 0.0
C215 C 0.31216 0.06961 0.96651 0.0
C216 C 0.31742 0.08908 0.03728 0.0
C217 C 0.33744 0.11727 0.02566 0.0
C218 C 0.41679 0.21283 0.18351 0.0
C219 C 0.38039 0.23973 0.03374 0.0
O220 O 0.47347 0.28611 0.14271 0.0
O221 O 0.45993 0.30515 0.03988 0.0
O222 O 0.43689 0.23583 0.92741 0.0
O223 O 0.43486 0.27155 0.90541 0.0
O224 O 0.47303 0.24757 0.05548 0.0
O225 O 0.4482 0.20658 0.97644 0.0
O226 O 0.37178 0.17569 0.92515 0.0
O227 O 0.39818 0.16054 0.97928 0.0
O228 O 0.41358 0.22716 0.12322 0.0
O229 O 0.41021 0.18911 0.14696 0.0
O230 O 0.37875 0.2181 0.9889 0.0
O231 O 0.40299 0.25668 0.08041 0.0
H232 H 0.51654 0.33741 0.23426 0.0
H233 H 0.56471 0.37408 0.21188 0.0
H234 H 0.55263 0.36678 0.9173 0.0
H235 H 0.50477 0.32937 0.94025 0.0
H236 H 0.35777 0.1141 0.807 0.0
H237 H 0.32394 0.06528 0.82732 0.0
H238 H 0.3065 0.08249 0.1023 0.0
H239 H 0.34193 0.13166 0.08204 0.0
C240 C 0.35929 0.26809 0.0833 0.0
C241 C 0.35757 0.24624 0.02972 0.0
C242 C 0.34014 0.27732 0.07296 0.0
C243 C 0.3185 0.26429 1.00781 0.0
C244 C 0.31572 0.24128 0.95671 0.0
C245 C 0.33538 0.23254 0.96808 0.0
C246 C 0.3439 0.30192 0.12889 0.0
C247 C 0.29268 0.22664 0.88746 0.0
C248 C 0.26125 0.28241 0.03289 0.0
C249 C 0.26971 0.30417 0.96925 0.0
C250 C 0.27614 0.26825 0.0432 0.0
C251 C 0.30024 0.27626 0.98929 0.0
C252 C 0.30844 0.29773 0.92327 0.0
C253 C 0.29303 0.31135 0.91387 0.0
C254 C 0.26657 0.24527 0.11356 0.0
C255 C 0.33417 0.3071 0.86511 0.0
H256 H 0.3762 0.27869 0.1318 0.0
H257 H 0.33388 0.21563 0.92649 0.0
H258 H 0.34878 0.31965 0.08241 0.0
H259 H 0.32439 0.29673 0.16572 0.0
H260 H 0.36089 0.30875 0.18016 0.0
H261 H 0.29146 0.20726 0.86122 0.0
H262 H 0.27236 0.22142 0.91844 0.0
H263 H 0.29622 0.24066 0.82833 0.0
H264 H 0.24296 0.2765 0.07482 0.0
H265 H 0.29977 0.32828 0.86507 0.0
H266 H 0.28194 0.25187 0.17024 0.0
H267 H 0.26524 0.22643 0.08207 0.0
H268 H 0.246 0.2397 0.14337 0.0
H269 H 0.35283 0.3163 0.9099 0.0
H270 H 0.3367 0.32281 0.81288 0.0
H271 H 0.3334 0.28908 0.8293 0.0
C272 C 0.09227 0.36533 0.06855 0.0
C273 C 0.11063 0.36587 1.0012 0.0
C274 C 0.06358 0.34739 0.06078 0.0
C275 C 0.05297 0.32978 0.98321 0.0
C276 C 0.07142 0.32993 0.91548 0.0
C277 C 0.10013 0.3479 0.9256 0.0
C278 C 0.04459 0.34753 0.13509 0.0
C279 C 0.06078 0.31153 0.83157 0.0
C280 C 0.9801 0.26798 1.00314 0.0
C281 C 0.96428 0.27817 0.96086 0.0
C282 C 0.00907 0.28441 1.00968 0.0
C283 C 0.0225 0.31161 0.97265 0.0
C284 C 0.00667 0.32191 0.92901 0.0
C285 C 0.97769 0.30508 0.92398 0.0
C286 C 0.02525 0.27285 0.05763 0.0
C287 C 0.02033 0.35078 0.88824 0.0
H288 H 0.10031 0.37902 0.12758 0.0
H289 H 0.11427 0.34836 0.87321 0.0
H290 H 0.03032 0.35408 0.10563 0.0
H291 H 0.03154 0.32627 0.16316 0.0
H292 H 0.05626 0.36176 0.19265 0.0
H293 H 0.07789 0.31372 0.78625 0.0
H294 H 0.04809 0.28945 0.85261 0.0
H295 H 0.04707 0.31681 0.79128 0.0
H296 H 0.96974 0.24727 0.03257 0.0
H297 H 0.96552 0.31286 0.89026 0.0
H298 H 0.03591 0.28569 0.11888 0.0
H299 H 0.04158 0.27379 1.01119 0.0
H300 H 0.01175 0.25098 0.08012 0.0
H301 H 0.03095 0.36646 0.94315 0.0
H302 H 0.00517 0.35524 0.85352 0.0
H303 H 0.03643 0.35336 0.83761 0.0
C304 C 0.76768 0.09977 0.95893 0.0
C305 C 0.75041 0.107 1.00797 0.0
C306 C 0.76071 0.07183 0.94933 0.0
C307 C 0.73577 0.05065 0.98894 0.0
C308 C 0.71851 0.05787 0.0397 0.0
C309 C 0.72609 0.08593 0.04888 0.0
C310 C 0.77975 0.06493 0.89543 0.0
C311 C 0.69161 0.03591 0.08242 0.0
C312 C 0.69846 0.97811 0.88751 0.0
C313 C 0.70371 0.96281 0.95329 0.0
C314 C 0.70967 0.00689 0.89654 0.0
C315 C 0.72667 0.02082 0.97312 0.0
C316 C 0.73302 0.00573 0.03784 0.0
C317 C 0.72132 0.97684 0.02744 0.0
C318 C 0.70218 0.02215 0.8264 0.0
C319 C 0.75134 0.01993 0.11977 0.0
H320 H 0.7866 0.11594 0.92756 0.0
H321 H 0.71261 0.09128 0.08697 0.0
H322 H 0.78509 0.05148 0.93692 0.0
H323 H 0.76898 0.05311 0.83265 0.0
H324 H 0.79929 0.08384 0.87449 0.0
H325 H 0.68102 0.04502 0.12235 0.0
H326 H 0.6773 0.02241 0.02776 0.0
H327 H 0.6956 0.02243 0.12883 0.0
H328 H 0.68449 0.96738 0.83086 0.0
H329 H 0.72562 0.96515 0.07805 0.0
H330 H 0.72122 0.04043 0.79943 0.0
H331 H 0.6894 0.02998 0.85958 0.0
H332 H 0.69031 0.00867 0.7676 0.0
H333 H 0.77097 0.03844 0.09735 0.0
H334 H 0.75648 0.00585 0.15863 0.0
H335 H 0.74066 0.02732 0.16695 0.0
C336 C 0.736 0.71089 0.05645 0.0
C337 C 0.74744 0.71019 0.97083 0.0
C338 C 0.71999 0.72396 0.06685 0.0
C339 C 0.71459 0.73602 0.98941 0.0
C340 C 0.7275 0.73697 0.90438 0.0
C341 C 0.7441 0.72451 0.8966 0.0
C342 C 0.70735 0.72322 0.15955 0.0
C343 C 0.72206 0.74923 0.81957 0.0
C344 C 0.6433 0.72978 0.98653 0.0
C345 C 0.64948 0.7571 1.00382 0.0
C346 C 0.66437 0.72294 0.97982 0.0
C347 C 0.6924 0.74377 0.99391 0.0
C348 C 0.69882 0.77148 0.01199 0.0
C349 C 0.67725 0.77795 0.01509 0.0
C350 C 0.65654 0.69333 0.95746 0.0
C351 C 0.7283 0.79407 0.03036 0.0
H352 H 0.7382 0.69994 0.11459 0.0
H353 H 0.75355 0.72505 0.83082 0.0
H354 H 0.70923 0.74364 0.17546 0.0
H355 H 0.68489 0.70751 0.15854 0.0
H356 H 0.71734 0.71771 0.21557 0.0
H357 H 0.73602 0.75123 0.76162 0.0
H358 H 0.70023 0.73565 0.79723 0.0
H359 H 0.72472 0.77 0.83462 0.0
H360 H 0.62183 0.7137 0.97685 0.0
H361 H 0.68199 0.79905 0.02916 0.0
H362 H 0.66214 0.68416 0.01563 0.0
H363 H 0.66828 0.69289 0.89623 0.0
H364 H 0.63397 0.68 0.94353 0.0
H365 H 0.73625 0.78871 0.09249 0.0
H366 H 0.72994 0.81465 0.04119 0.0
H367 H 0.74199 0.79571 0.9722 0.0
C368 C 0.02178 0.74086 0.89033 0.0
C369 C 0.03955 0.74542 0.96535 0.0
C370 C 0.99278 0.72421 0.89879 0.0
C371 C 0.98094 0.71251 0.98519 0.0
C372 C 0.99847 0.71905 0.06294 0.0
C373 C 0.0275 0.73505 0.05196 0.0
C374 C 0.97501 0.71752 0.81364 0.0
C375 C 0.98671 0.70773 0.15697 0.0
C376 C 0.90176 0.67618 1.01035 0.0
C377 C 0.89454 0.64818 1.00333 0.0
C378 C 0.92985 0.69748 1.00631 0.0
C379 C 0.95096 0.69056 0.9916 0.0
C380 C 0.9435 0.66227 0.98224 0.0
C381 C 0.91553 0.6415 0.98973 0.0
C382 C 0.93699 0.72728 0.01967 0.0
C383 C 0.96509 0.65385 0.96374 0.0
H384 H 0.03057 0.74945 0.82361 0.0
H385 H 0.0407 0.73815 0.11075 0.0
H386 H 0.96648 0.69528 0.79569 0.0
H387 H 0.95711 0.72072 0.82629 0.0
H388 H 0.98694 0.73037 0.75369 0.0
H389 H 1.00225 0.71845 0.21226 0.0
H390 H 0.96822 0.70989 0.17104 0.0
H391 H 0.97991 0.68525 0.15966 0.0
H392 H 0.88556 0.68135 0.02158 0.0
H393 H 0.90997 0.61987 0.98333 0.0
H394 H 0.94857 0.73995 0.95917 0.0
H395 H 0.9508 0.73618 0.08028 0.0
H396 H 0.91822 0.72924 0.03023 0.0
H397 H 0.97722 0.66456 0.90122 0.0
H398 H 0.9557 0.63106 0.95386 0.0
H399 H 0.9799 0.66027 0.02199 0.0
C400 C 0.22568 0.90109 0.02272 0.0
C401 C 0.24655 0.89428 1.00863 0.0
C402 C 0.23196 0.92907 0.02083 0.0
C403 C 0.25952 0.95043 1.00142 0.0
C404 C 0.28036 0.94335 0.98455 0.0
C405 C 0.2737 0.9155 0.98974 0.0
C406 C 0.20937 0.93583 0.0418 0.0
C407 C 0.30982 0.96523 0.96095 0.0
C408 C 0.27883 0.02154 0.90698 0.0
C409 C 0.29365 0.03897 0.98101 0.0
C410 C 0.26599 0.99247 0.91419 0.0
C411 C 0.26715 0.98032 0.99843 0.0
C412 C 0.27963 0.99759 0.07594 0.0
C413 C 0.29301 0.02666 0.06611 0.0
C414 C 0.25323 0.97498 0.82938 0.0
C415 C 0.28064 0.98547 0.16782 0.0
H416 H 0.20471 0.88468 0.03793 0.0
H417 H 0.28982 0.91024 0.97773 0.0
H418 H 0.21488 0.94887 0.10464 0.0
H419 H 0.20748 0.94808 0.98488 0.0
H420 H 0.18886 0.91685 0.05275 0.0
H421 H 0.32318 0.95609 0.9452 0.0
H422 H 0.3099 0.97747 0.9005 0.0
H423 H 0.3192 0.97988 0.01927 0.0
H424 H 0.27827 0.03064 0.84166 0.0
H425 H 0.30432 0.03964 0.12407 0.0
H426 H 0.23261 0.95681 0.84533 0.0
H427 H 0.26675 0.96687 0.8046 0.0
H428 H 0.25079 0.98705 0.77282 0.0
H429 H 0.26027 0.96695 0.1841 0.0
H430 H 0.28635 1.00084 0.22437 0.0
H431 H 0.29633 0.97865 0.16522 0.0
C432 C 0.20417 0.71025 0.95825 0.0
C433 C 0.2267 0.73274 1.00178 0.0
C434 C 0.20063 0.68339 0.96272 0.0
C435 C 0.22002 0.67893 0.01222 0.0
C436 C 0.24315 0.70166 0.05441 0.0
C437 C 0.24622 0.72827 0.04864 0.0
C438 C 0.17581 0.65968 0.91625 0.0
C439 C 0.26424 0.69775 0.10802 0.0
C440 C 0.19552 0.60716 0.11148 0.0
C441 C 0.20705 0.5962 0.04977 0.0
C442 C 0.19959 0.63401 0.09989 0.0
C443 C 0.21535 0.6503 0.02418 0.0
C444 C 0.22689 0.63936 0.96113 0.0
C445 C 0.22269 0.61248 0.97486 0.0
C446 C 0.187 0.64497 0.1688 0.0
C447 C 0.24375 0.65611 0.87946 0.0
H448 H 0.18905 0.71352 0.92162 0.0
H449 H 0.26371 0.74548 0.08258 0.0
H450 H 0.18266 0.64842 0.86958 0.0
H451 H 0.16198 0.64459 0.96873 0.0
H452 H 0.1636 0.66687 0.87589 0.0
H453 H 0.28191 0.7178 0.13207 0.0
H454 H 0.25409 0.68439 0.16884 0.0
H455 H 0.27255 0.68702 0.06509 0.0
H456 H 0.18295 0.59457 0.16849 0.0
H457 H 0.23192 0.60432 0.92738 0.0
H458 H 0.17259 0.65034 0.13353 0.0
H459 H 0.20358 0.66429 0.20086 0.0
H460 H 0.1754 0.6297 0.22414 0.0
H461 H 0.23129 0.66244 0.83681 0.0
H462 H 0.25073 0.64435 0.83558 0.0
H463 H 0.26232 0.67542 0.90336 0.0
C464 C 0.49406 0.19666 0.99138 0.0
C465 C 0.49621 0.22209 0.01588 0.0
C466 C 0.51714 0.1928 0.99722 0.0
C467 C 0.54296 0.21497 0.02754 0.0
C468 C 0.5455 0.241 0.04899 0.0
C469 C 0.52206 0.24421 0.04331 0.0
C470 C 0.51365 0.1647 0.97415 0.0
C471 C 0.57277 0.26521 0.08061 0.0
C472 C 0.59258 0.19632 0.14323 0.0
C473 C 0.61122 0.20029 0.0718 0.0
C474 C 0.57036 0.20113 0.12965 0.0
C475 C 0.56682 0.21039 0.04272 0.0
C476 C 0.58587 0.21505 0.97081 0.0
C477 C 0.60784 0.20987 0.98614 0.0
C478 C 0.55048 0.196 0.20813 0.0
C479 C 0.58281 0.2251 0.87743 0.0
H480 H 0.47415 0.17949 0.97017 0.0
H481 H 0.52396 0.26402 0.06157 0.0
H482 H 0.52945 0.16693 0.92286 0.0
H483 H 0.51697 0.15534 0.03686 0.0
H484 H 0.49267 0.15015 0.9464 0.0
H485 H 0.57178 0.28463 0.08779 0.0
H486 H 0.57857 0.26029 0.14812 0.0
H487 H 0.58958 0.269 0.03132 0.0
H488 H 0.59536 0.18938 0.21002 0.0
H489 H 0.622 0.21269 0.93036 0.0
H490 H 0.5291 0.18007 0.18791 0.0
H491 H 0.55008 0.21533 0.22429 0.0
H492 H 0.5562 0.18882 0.27147 0.0
H493 H 0.56282 0.20959 0.84596 0.0
H494 H 0.59998 0.22868 0.82991 0.0
H495 H 0.58233 0.24477 0.88448 0.0
C496 C 0.41126 0.57514 0.10872 0.0
C497 C 0.42006 0.59794 0.04924 0.0
C498 C 0.38444 0.55202 0.10225 0.0
C499 C 0.36606 0.55153 0.03402 0.0
C500 C 0.37504 0.57408 0.97205 0.0
C501 C 0.40188 0.59708 0.98069 0.0
C502 C 0.37555 0.52842 0.16991 0.0
C503 C 0.35603 0.57424 0.89817 0.0
C504 C 0.30161 0.48269 0.97623 0.0
C505 C 0.28106 0.48488 0.02555 0.0
C506 C 0.32945 0.50424 0.97811 0.0
C507 C 0.33684 0.5283 0.03146 0.0
C508 C 0.31624 0.53037 0.08255 0.0
C509 C 0.28862 0.50872 0.07862 0.0
C510 C 0.35086 0.50147 0.92211 0.0
C511 C 0.32334 0.55554 0.14119 0.0
H512 H 0.42535 0.57537 0.16066 0.0
H513 H 0.40839 0.6147 0.93503 0.0
H514 H 0.35808 0.52652 0.21252 0.0
H515 H 0.36792 0.50847 0.13272 0.0
H516 H 0.39272 0.53147 0.21634 0.0
H517 H 0.36684 0.59236 0.85124 0.0
H518 H 0.34742 0.5549 0.8568 0.0
H519 H 0.33821 0.57486 0.93038 0.0
H520 H 0.29588 0.46437 0.9348 0.0
H521 H 0.27292 0.5105 0.11764 0.0
H522 H 0.36776 0.50332 0.96743 0.0
H523 H 0.36047 0.5186 0.8711 0.0
H524 H 0.3418 0.48133 0.88495 0.0
H525 H 0.33937 0.55859 0.19263 0.0
H526 H 0.30494 0.55365 0.17813 0.0
H527 H 0.33222 0.57446 0.09759 0.0
C528 C 0.80062 0.39797 0.9852 0.0
C529 C 0.81347 0.41432 0.06317 0.0
C530 C 0.79638 0.37087 0.97717 0.0
C531 C 0.80497 0.35966 0.0491 0.0
C532 C 0.81799 0.37603 0.12785 0.0
C533 C 0.82218 0.40313 0.13374 0.0
C534 C 0.78247 0.35413 0.89198 0.0
C535 C 0.82738 0.36485 0.20622 0.0
C536 C 0.76969 0.281 0.07184 0.0
C537 C 0.78961 0.27529 0.03401 0.0
C538 C 0.77444 0.30829 0.07702 0.0
C539 C 0.79968 0.33056 0.04319 0.0
C540 C 0.81986 0.32499 1.00458 0.0
C541 C 0.81464 0.29745 1.00072 0.0
C542 C 0.75244 0.3133 0.11925 0.0
C543 C 0.84696 0.34814 0.96722 0.0
H544 H 0.79348 0.4062 0.93077 0.0
H545 H 0.83259 0.41569 0.19351 0.0
H546 H 0.79593 0.34708 0.85905 0.0
H547 H 0.7627 0.33525 0.91099 0.0
H548 H 0.77789 0.36617 0.84083 0.0
H549 H 0.83732 0.38025 0.26247 0.0
H550 H 0.80935 0.34592 0.23501 0.0
H551 H 0.84242 0.35873 0.18079 0.0
H552 H 0.75031 0.26412 0.09808 0.0
H553 H 0.83015 0.29332 0.97119 0.0
H554 H 0.74577 0.32382 0.06891 0.0
H555 H 0.76113 0.32729 0.17956 0.0
H556 H 0.73385 0.29372 0.14184 0.0
H557 H 0.84283 0.35948 0.91235 0.0
H558 H 0.86038 0.34036 0.93855 0.0
H559 H 0.85855 0.36333 0.0225 0.0
C560 C 0.397 0.7916 0.9741 0.0
C561 C 0.39469 0.80395 0.05552 0.0
C562 C 0.41829 0.78508 0.96248 0.0
C563 C 0.43787 0.79114 0.03376 0.0
C564 C 0.4353 0.80303 0.11679 0.0
C565 C 0.41374 0.80917 0.12675 0.0
C566 C 0.4202 0.7723 0.87306 0.0
C567 C 0.45567 0.80979 0.19463 0.0
C568 C 0.48271 0.75686 0.04104 0.0
C569 C 0.50811 0.77796 1.00585 0.0
C570 C 0.45948 0.76056 0.04841 0.0
C571 C 0.46169 0.78606 0.02063 0.0
C572 C 0.48712 0.80723 0.98354 0.0
C573 C 0.50994 0.8029 0.97636 0.0
C574 C 0.4327 0.73737 0.08755 0.0
C575 C 0.49044 0.83477 0.95344 0.0
H576 H 0.38262 0.78773 0.9182 0.0
H577 H 0.41188 0.81821 0.19058 0.0
H578 H 0.43977 0.78684 0.83695 0.0
H579 H 0.42084 0.75295 0.88665 0.0
H580 H 0.40245 0.76733 0.82662 0.0
H581 H 0.45039 0.81832 0.25565 0.0
H582 H 0.45621 0.79087 0.21578 0.0
H583 H 0.4769 0.82525 0.17122 0.0
H584 H 0.48099 0.73747 0.06381 0.0
H585 H 0.52943 0.81938 0.94924 0.0
H586 H 0.4153 0.73212 0.03931 0.0
H587 H 0.42767 0.74426 0.15286 0.0
H588 H 0.43388 0.7183 0.10128 0.0
H589 H 0.47434 0.8314 0.90191 0.0
H590 H 0.51124 0.84873 0.9231 0.0
H591 H 0.48744 0.84543 0.01326 0.0
C592 C 0.72484 0.4865 0.05621 0.0
C593 C 0.73078 0.51016 1.00431 0.0
C594 C 0.69767 0.46383 0.06234 0.0
C595 C 0.67583 0.46471 0.01512 0.0
C596 C 0.68177 0.48825 0.96089 0.0
C597 C 0.70914 0.51072 0.95637 0.0
C598 C 0.69222 0.4392 0.12123 0.0
C599 C 0.65911 0.48991 0.90899 0.0
C600 C 0.60836 0.39643 0.97823 0.0
C601 C 0.59155 0.39708 0.0494 0.0
C602 C 0.63571 0.4184 0.96554 0.0
C603 C 0.64663 0.44152 0.02578 0.0
C604 C 0.62977 0.44236 0.09748 0.0
C605 C 0.60247 0.42025 0.10811 0.0
C606 C 0.65299 0.41678 0.88809 0.0
C607 C 0.64063 0.46659 0.16334 0.0
H608 H 0.74137 0.48584 0.09367 0.0
H609 H 0.71349 0.52885 0.91592 0.0
H610 H 0.67807 0.43699 0.17866 0.0
H611 H 0.68172 0.41979 0.08018 0.0
H612 H 0.71162 0.44124 0.15058 0.0
H613 H 0.66733 0.509 0.86627 0.0
H614 H 0.64789 0.47151 0.86367 0.0
H615 H 0.6437 0.48968 0.95821 0.0
H616 H 0.60029 0.37853 0.93312 0.0
H617 H 0.58954 0.42126 0.16219 0.0
H618 H 0.67159 0.41688 0.91643 0.0
H619 H 0.66051 0.43527 0.84295 0.0
H620 H 0.64119 0.39779 0.84557 0.0
H621 H 0.65925 0.46893 0.19954 0.0
H622 H 0.62489 0.46406 0.21554 0.0
H623 H 0.64711 0.48614 0.12481 0.0
C624 C 0.19279 0.41008 0.72271 0.0
C625 C 0.19105 0.4326 0.75827 0.0
C626 C 0.19483 0.40705 0.6273 0.0
C627 C 0.19591 0.42749 0.56611 0.0
C628 C 0.19464 0.45056 0.60226 0.0
C629 C 0.1917 0.45255 0.69774 0.0
C630 C 0.19522 0.38168 0.5919 0.0
C631 C 0.19658 0.47326 0.54015 0.0
C632 C 0.22586 0.43077 0.32666 0.0
C633 C 0.20187 0.41848 0.27222 0.0
C634 C 0.22431 0.43443 0.42192 0.0
C635 C 0.19801 0.42455 0.46438 0.0
C636 C 0.17368 0.4118 0.40945 0.0
C637 C 0.17596 0.40944 0.31381 0.0
C638 C 0.25083 0.44904 0.47701 0.0
C639 C 0.14518 0.40016 0.45193 0.0
H640 H 0.19163 0.39434 0.76934 0.0
H641 H 0.1904 0.47003 0.72532 0.0
H642 H 0.17751 0.36998 0.5443 0.0
H643 H 0.21455 0.38798 0.55227 0.0
H644 H 0.19389 0.36756 0.64832 0.0
H645 H 0.19671 0.4905 0.57937 0.0
H646 H 0.2158 0.48184 0.49801 0.0
H647 H 0.17875 0.46463 0.49191 0.0
H648 H 0.24593 0.43796 0.29434 0.0
H649 H 0.15736 0.39974 0.27185 0.0
H650 H 0.25122 0.43468 0.52922 0.0
H651 H 0.25178 0.46692 0.51455 0.0
H652 H 0.26964 0.45676 0.43304 0.0
H653 H 0.14218 0.38472 0.50572 0.0
H654 H 0.12831 0.38998 0.40029 0.0
H655 H 0.14324 0.41699 0.48596 0.0
C656 C 0.7393 0.1885 0.70829 0.0
C657 C 0.75754 0.1856 0.76765 0.0
C658 C 0.74423 0.19164 0.61278 0.0
C659 C 0.7674 0.1908 0.57531 0.0
C660 C 0.78566 0.18745 0.63537 0.0
C661 C 0.78073 0.18533 0.73093 0.0
C662 C 0.72474 0.19607 0.55205 0.0
C663 C 0.8101 0.18556 0.59856 0.0
C664 C 0.76411 0.17177 0.32101 0.0
C665 C 0.78247 0.19752 0.281 0.0
C666 C 0.75929 0.16922 0.41663 0.0
C667 C 0.77241 0.19317 0.47341 0.0
C668 C 0.7904 0.21935 0.43266 0.0
C669 C 0.79554 0.22113 0.33728 0.0
C670 C 0.74055 0.14081 0.45712 0.0
C671 C 0.80414 0.24554 0.48977 0.0
H672 H 0.72138 0.18877 0.73687 0.0
H673 H 0.79452 0.18255 0.77675 0.0
H674 H 0.73664 0.21541 0.51131 0.0
H675 H 0.71437 0.17866 0.5025 0.0
H676 H 0.7085 0.19758 0.59223 0.0
H677 H 0.822 0.18241 0.65407 0.0
H678 H 0.80273 0.16803 0.54922 0.0
H679 H 0.82436 0.20481 0.56052 0.0
H680 H 0.75407 0.15344 0.27779 0.0
H681 H 0.80959 0.24111 0.30643 0.0
H682 H 0.7226 0.14041 0.49215 0.0
H683 H 0.75204 0.13605 0.50977 0.0
H684 H 0.73255 0.12417 0.40413 0.0
H685 H 0.78816 0.24791 0.52828 0.0
H686 H 0.81646 0.26442 0.44714 0.0
H687 H 0.81814 0.24418 0.54123 0.0
C688 C 0.57135 0.77837 0.7142 0.0
C689 C 0.57715 0.75853 0.75145 0.0
C690 C 0.57352 0.78365 0.61893 0.0
C691 C 0.58231 0.76918 0.55974 0.0
C692 C 0.58894 0.74968 0.59767 0.0
C693 C 0.586 0.7444 0.69285 0.0
C694 C 0.56582 0.80426 0.5814 0.0
C695 C 0.59896 0.73425 0.53758 0.0
C696 C 0.56273 0.76148 0.30565 0.0
C697 C 0.58695 0.78276 0.26562 0.0
C698 C 0.56087 0.75694 0.40124 0.0
C699 C 0.58397 0.77394 0.45801 0.0
C700 C 0.6086 0.79541 0.41736 0.0
C701 C 0.60967 0.79976 0.32167 0.0
C702 C 0.53404 0.73419 0.44161 0.0
C703 C 0.63386 0.8137 0.47488 0.0
H704 H 0.56448 0.78933 0.75931 0.0
H705 H 0.59071 0.72919 0.72156 0.0
H706 H 0.58366 0.82102 0.54343 0.0
H707 H 0.54844 0.79375 0.53182 0.0
H708 H 0.55948 0.81386 0.63647 0.0
H709 H 0.60456 0.72081 0.57817 0.0
H710 H 0.58254 0.72106 0.48762 0.0
H711 H 0.6174 0.74924 0.49732 0.0
H712 H 0.54493 0.74887 0.26247 0.0
H713 H 0.62836 0.81634 0.29043 0.0
H714 H 0.52576 0.74317 0.49237 0.0
H715 H 0.53786 0.71898 0.47883 0.0
H716 H 0.51796 0.72294 0.38822 0.0
H717 H 0.62868 0.82513 0.52653 0.0
H718 H 0.65159 0.82902 0.43257 0.0
H719 H 0.64049 0.80071 0.51322 0.0
C720 C 0.8259 0.55952 0.69158 0.0
C721 C 0.81849 0.57409 0.75351 0.0
C722 C 0.82256 0.56092 0.5962 0.0
C723 C 0.8128 0.57836 0.56155 0.0
C724 C 0.80569 0.59347 0.62409 0.0
C725 C 0.808 0.59061 0.71942 0.0
C726 C 0.82919 0.54348 0.53261 0.0
C727 C 0.7962 0.61309 0.59034 0.0
C728 C 0.83085 0.60127 0.31129 0.0
C729 C 0.80513 0.58534 0.26795 0.0
C730 C 0.83349 0.59973 0.40711 0.0
C731 C 0.81014 0.58082 0.46001 0.0
C732 C 0.78431 0.56407 0.41554 0.0
C733 C 0.78198 0.56705 0.32038 0.0
C734 C 0.86112 0.61873 0.45195 0.0
C735 C 0.75922 0.54276 0.4682 0.0
H736 H 0.83377 0.5465 0.71793 0.0
H737 H 0.80233 0.60192 0.76726 0.0
H738 H 0.81104 0.53049 0.48805 0.0
H739 H 0.84675 0.5571 0.48676 0.0
H740 H 0.8348 0.52964 0.57078 0.0
H741 H 0.7927 0.62426 0.64764 0.0
H742 H 0.81198 0.62864 0.5429 0.0
H743 H 0.7766 0.60147 0.55099 0.0
H744 H 0.84868 0.61563 0.27064 0.0
H745 H 0.76214 0.55463 0.28644 0.0
H746 H 0.86936 0.60631 0.48479 0.0
H747 H 0.85839 0.63104 0.50703 0.0
H748 H 0.87678 0.63329 0.40197 0.0
H749 H 0.76438 0.52847 0.50544 0.0
H750 H 0.74116 0.53026 0.42256 0.0
H751 H 0.75302 0.5532 0.52049 0.0
C752 C 0.24341 0.80369 0.30743 0.0
C753 C 0.22203 0.80625 0.26649 0.0
C754 C 0.24756 0.80646 0.40313 0.0
C755 C 0.23002 0.81219 0.45881 0.0
C756 C 0.20848 0.815 0.41716 0.0
C757 C 0.20456 0.81169 0.32147 0.0
C758 C 0.27044 0.80282 0.44478 0.0
C759 C 0.1896 0.82152 0.47365 0.0
C760 C 0.22482 0.79512 0.71467 0.0
C761 C 0.24411 0.82088 0.75224 0.0
C762 C 0.21993 0.79198 0.61931 0.0
C763 C 0.23428 0.8153 0.5605 0.0
C764 C 0.25316 0.84153 0.59875 0.0
C765 C 0.25802 0.84394 0.69403 0.0
C766 C 0.1999 0.76359 0.58129 0.0
C767 C 0.26844 0.86702 0.53888 0.0
H768 H 0.25638 0.79872 0.26495 0.0
H769 H 0.1879 0.81347 0.28938 0.0
H770 H 0.28524 0.82193 0.48238 0.0
H771 H 0.26151 0.78556 0.49545 0.0
H772 H 0.28214 0.79826 0.3921 0.0
H773 H 0.17428 0.82369 0.43054 0.0
H774 H 0.17814 0.80482 0.52491 0.0
H775 H 0.20212 0.84113 0.51242 0.0
H776 H 0.21406 0.77723 0.75955 0.0
H777 H 0.27282 0.86393 0.72307 0.0
H778 H 0.21093 0.75697 0.53272 0.0
H779 H 0.18317 0.76436 0.54208 0.0
H780 H 0.19023 0.74764 0.63621 0.0
H781 H 0.28211 0.86412 0.4898 0.0
H782 H 0.28139 0.88612 0.57974 0.0
H783 H 0.25341 0.87013 0.49765 0.0
C784 C 0.44735 0.23721 0.72356 0.0
C785 C 0.4286 0.24304 0.76906 0.0
C786 C 0.44566 0.23281 0.62792 0.0
C787 C 0.42385 0.23291 0.57749 0.0
C788 C 0.40435 0.23797 0.6242 0.0
C789 C 0.40739 0.24366 0.71915 0.0
C790 C 0.46754 0.22865 0.58061 0.0
C791 C 0.38006 0.23698 0.57421 0.0
C792 C 0.43055 0.2452 0.31817 0.0
C793 C 0.41812 0.21803 0.28391 0.0
C794 C 0.43313 0.25038 0.41342 0.0
C795 C 0.42152 0.22777 0.47602 0.0
C796 C 0.4079 0.20023 0.44147 0.0
C797 C 0.40697 0.19571 0.34599 0.0
C798 C 0.44876 0.28007 0.44695 0.0
C799 C 0.39408 0.17551 0.5053 0.0
H800 H 0.46387 0.23695 0.76246 0.0
H801 H 0.39279 0.24796 0.75493 0.0
H802 H 0.45784 0.20778 0.54843 0.0
H803 H 0.47748 0.24418 0.52472 0.0
H804 H 0.48393 0.23063 0.62886 0.0
H805 H 0.36574 0.2395 0.6216 0.0
H806 H 0.38764 0.25368 0.52173 0.0
H807 H 0.36818 0.21687 0.53749 0.0
H808 H 0.43878 0.26245 0.27056 0.0
H809 H 0.39698 0.17462 0.31981 0.0
H810 H 0.46556 0.28286 0.49465 0.0
H811 H 0.4346 0.28503 0.48588 0.0
H812 H 0.45814 0.29518 0.38955 0.0
H813 H 0.40989 0.17457 0.54926 0.0
H814 H 0.38254 0.15556 0.46731 0.0
H815 H 0.37937 0.17768 0.55171 0.0
loop_
_geom_bond_atom_site_label_1
_geom_bond_atom_site_label_2
_geom_bond_distance
_geom_bond_site_symmetry_2
_ccdc_geom_bond_type
Tb0 C2 2.809 1_556 S
Tb0 O20 2.484 1_556 S
Tb0 O21 2.440 . S
Tb0 O22 2.658 . S
Tb0 O23 2.409 . S
Tb0 O24 2.378 . S
Tb0 O28 2.325 1_556 S
Tb0 O31 2.341 . S
Tb1 C11 2.809 1_554 S
Tb1 O22 2.325 1_554 S
Tb1 O25 2.341 . S
Tb1 O26 2.484 1_554 S
Tb1 O27 2.440 . S
Tb1 O28 2.658 . S
Tb1 O29 2.409 . S
Tb1 O30 2.378 . S
C2 Tb0 2.809 1_554 S
C2 C3 1.514 . S
C2 O20 1.248 . S
C2 O21 1.266 1_554 S
C3 C2 1.514 . S
C3 C4 1.359 . S
C3 C8 1.348 1_554 S
C4 C3 1.359 . S
C4 C5 1.380 . S
C4 H32 0.929 . S
C5 C4 1.380 . S
C5 C6 1.347 . S
C5 H33 0.931 . S
C6 C5 1.347 . S
C6 C7 1.369 1_554 S
C7 C6 1.369 1_556 S
C7 C8 1.408 . S
C7 H34 0.930 . S
C8 C3 1.348 1_556 S
C8 C7 1.408 . S
C8 H35 0.930 . S
C9 O22 1.281 . S
C9 O23 1.254 . S
C10 O24 1.236 . S
C10 O25 1.266 1_556 S
C11 Tb1 2.809 1_556 S
C11 C12 1.514 . S
C11 O26 1.248 . S
C11 O27 1.266 1_556 S
C12 C11 1.514 . S
C12 C13 1.359 . S
C12 C17 1.348 1_556 S
C13 C12 1.359 . S
C13 C14 1.380 . S
C13 H36 0.929 . S
C14 C13 1.380 . S
C14 C15 1.347 . S
C14 H37 0.931 . S
C15 C14 1.347 . S
C15 C16 1.369 1_556 S
C16 C15 1.369 1_554 S
C16 C17 1.408 . S
C16 H38 0.930 . S
C17 C12 1.348 1_554 S
C17 C16 1.408 . S
C17 H39 0.930 . S
C18 O28 1.281 . S
C18 O29 1.254 . S
C19 O30 1.236 . S
C19 O31 1.266 1_554 S
O20 Tb0 2.484 1_554 S
O20 C2 1.248 . S
O21 Tb0 2.440 . S
O21 C2 1.266 1_556 S
O22 Tb0 2.658 . S
O22 Tb1 2.325 1_556 S
O22 C9 1.281 . S
O23 Tb0 2.409 . S
O23 C9 1.254 . S
O24 Tb0 2.378 . S
O24 C10 1.236 . S
O25 Tb1 2.341 . S
O25 C10 1.266 1_554 S
O26 Tb1 2.484 1_556 S
O26 C11 1.248 . S
O27 Tb1 2.440 . S
O27 C11 1.266 1_554 S
O28 Tb0 2.325 1_554 S
O28 Tb1 2.658 . S
O28 C18 1.281 . S
O29 Tb1 2.409 . S
O29 C18 1.254 . S
O30 Tb1 2.378 . S
O30 C19 1.236 . S
O31 Tb0 2.341 . S
O31 C19 1.266 1_556 S
H32 C4 0.929 . S
H33 C5 0.931 . S
H34 C7 0.930 . S
H35 C8 0.930 . S
H36 C13 0.929 . S
H37 C14 0.931 . S
H38 C16 0.930 . S
H39 C17 0.930 . S
Tb40 C42 2.809 1_556 S
Tb40 O60 2.484 1_556 S
Tb40 O61 2.440 . S
Tb40 O62 2.658 . S
Tb40 O63 2.409 . S
Tb40 O64 2.378 . S
Tb40 O68 2.325 1_556 S
Tb40 O71 2.341 . S
Tb41 C51 2.809 1_554 S
Tb41 O62 2.325 1_554 S
Tb41 O65 2.341 . S
Tb41 O66 2.484 1_554 S
Tb41 O67 2.440 . S
Tb41 O68 2.658 . S
Tb41 O69 2.409 . S
Tb41 O70 2.378 . S
C42 Tb40 2.809 1_554 S
C42 C43 1.514 . S
C42 O60 1.248 . S
C42 O61 1.266 1_554 S
C43 C42 1.514 . S
C43 C44 1.359 . S
C43 C48 1.348 1_554 S
C44 C43 1.359 . S
C44 C45 1.380 . S
C44 H72 0.929 . S
C45 C44 1.380 . S
C45 C46 1.347 . S
C45 H73 0.931 . S
C46 C45 1.347 . S
C46 C47 1.369 1_554 S
C47 C46 1.369 1_556 S
C47 C48 1.408 . S
C47 H74 0.930 . S
C48 C43 1.348 1_556 S
C48 C47 1.408 . S
C48 H75 0.930 . S
C49 O62 1.281 . S
C49 O63 1.254 . S
C50 O64 1.236 . S
C50 O65 1.266 1_556 S
C51 Tb41 2.809 1_556 S
C51 C52 1.514 . S
C51 O66 1.248 . S
C51 O67 1.266 1_556 S
C52 C51 1.514 . S
C52 C53 1.359 . S
C52 C57 1.348 1_556 S
C53 C52 1.359 . S
C53 C54 1.380 . S
C53 H76 0.929 . S
C54 C53 1.380 . S
C54 C55 1.347 . S
C54 H77 0.931 . S
C55 C54 1.347 . S
C55 C56 1.369 1_556 S
C56 C55 1.369 1_554 S
C56 C57 1.408 . S
C56 H78 0.930 . S
C57 C52 1.348 1_554 S
C57 C56 1.408 . S
C57 H79 0.930 . S
C58 O68 1.281 . S
C58 O69 1.254 . S
C59 O70 1.236 . S
C59 O71 1.266 1_554 S
O60 Tb40 2.484 1_554 S
O60 C42 1.248 . S
O61 Tb40 2.440 . S
O61 C42 1.266 1_556 S
O62 Tb40 2.658 . S
O62 Tb41 2.325 1_556 S
O62 C49 1.281 . S
O63 Tb40 2.409 . S
O63 C49 1.254 . S
O64 Tb40 2.378 . S
O64 C50 1.236 . S
O65 Tb41 2.341 . S
O65 C50 1.266 1_554 S
O66 Tb41 2.484 1_556 S
O66 C51 1.248 . S
O67 Tb41 2.440 . S
O67 C51 1.266 1_554 S
O68 Tb40 2.325 1_554 S
O68 Tb41 2.658 . S
O68 C58 1.281 . S
O69 Tb41 2.409 . S
O69 C58 1.254 . S
O70 Tb41 2.378 . S
O70 C59 1.236 . S
O71 Tb40 2.341 . S
O71 C59 1.266 1_556 S
H72 C44 0.929 . S
H73 C45 0.931 . S
H74 C47 0.930 . S
H75 C48 0.930 . S
H76 C53 0.929 . S
H77 C54 0.931 . S
H78 C56 0.930 . S
H79 C57 0.930 . S
Tb80 C82 2.809 1_556 S
Tb80 O100 2.484 1_556 S
Tb80 O101 2.440 . S
Tb80 O102 2.658 . S
Tb80 O103 2.409 . S
Tb80 O104 2.378 . S
Tb80 O108 2.325 1_556 S
Tb80 O111 2.341 . S
Tb81 C91 2.809 1_554 S
Tb81 O102 2.325 1_554 S
Tb81 O105 2.341 . S
Tb81 O106 2.484 1_554 S
Tb81 O107 2.440 . S
Tb81 O108 2.658 . S
Tb81 O109 2.409 . S
Tb81 O110 2.378 . S
C82 Tb80 2.809 1_554 S
C82 C83 1.514 . S
C82 O100 1.248 . S
C82 O101 1.266 1_554 S
C83 C82 1.514 . S
C83 C84 1.359 . S
C83 C88 1.348 1_554 S
C84 C83 1.359 . S
C84 C85 1.380 . S
C84 H112 0.929 . S
C85 C84 1.380 . S
C85 C86 1.347 . S
C85 H113 0.931 . S
C86 C85 1.347 . S
C86 C87 1.369 1_554 S
C87 C86 1.369 1_556 S
C87 C88 1.408 . S
C87 H114 0.930 . S
C88 C83 1.348 1_556 S
C88 C87 1.408 . S
C88 H115 0.930 . S
C89 O102 1.281 . S
C89 O103 1.254 . S
C90 O104 1.236 . S
C90 O105 1.266 1_556 S
C91 Tb81 2.809 1_556 S
C91 C92 1.514 . S
C91 O106 1.248 . S
C91 O107 1.266 1_556 S
C92 C91 1.514 . S
C92 C93 1.359 . S
C92 C97 1.348 1_556 S
C93 C92 1.359 . S
C93 C94 1.380 . S
C93 H116 0.929 . S
C94 C93 1.380 . S
C94 C95 1.347 . S
C94 H117 0.931 . S
C95 C94 1.347 . S
C95 C96 1.369 1_556 S
C96 C95 1.369 1_554 S
C96 C97 1.408 . S
C96 H118 0.930 . S
C97 C92 1.348 1_554 S
C97 C96 1.408 . S
C97 H119 0.930 . S
C98 O108 1.281 . S
C98 O109 1.254 . S
C99 O110 1.236 . S
C99 O111 1.266 1_554 S
O100 Tb80 2.484 1_554 S
O100 C82 1.248 . S
O101 Tb80 2.440 . S
O101 C82 1.266 1_556 S
O102 Tb80 2.658 . S
O102 Tb81 2.325 1_556 S
O102 C89 1.281 . S
O103 Tb80 2.409 . S
O103 C89 1.254 . S
O104 Tb80 2.378 . S
O104 C90 1.236 . S
O105 Tb81 2.341 . S
O105 C90 1.266 1_554 S
O106 Tb81 2.484 1_556 S
O106 C91 1.248 . S
O107 Tb81 2.440 . S
O107 C91 1.266 1_554 S
O108 Tb80 2.325 1_554 S
O108 Tb81 2.658 . S
O108 C98 1.281 . S
O109 Tb81 2.409 . S
O109 C98 1.254 . S
O110 Tb81 2.378 . S
O110 C99 1.236 . S
O111 Tb80 2.341 . S
O111 C99 1.266 1_556 S
H112 C84 0.929 . S
H113 C85 0.931 . S
H114 C87 0.930 . S
H115 C88 0.930 . S
H116 C93 0.929 . S
H117 C94 0.931 . S
H118 C96 0.930 . S
H119 C97 0.930 . S
Tb120 C122 2.809 1_556 S
Tb120 O140 2.484 1_556 S
Tb120 O141 2.440 . S
Tb120 O142 2.658 . S
Tb120 O143 2.409 . S
Tb120 O144 2.378 . S
Tb120 O148 2.325 1_556 S
Tb120 O151 2.341 . S
Tb121 C131 2.809 1_554 S
Tb121 O142 2.325 1_554 S
Tb121 O145 2.341 . S
Tb121 O146 2.484 1_554 S
Tb121 O147 2.440 . S
Tb121 O148 2.658 . S
Tb121 O149 2.409 . S
Tb121 O150 2.378 . S
C122 Tb120 2.809 1_554 S
C122 C123 1.514 . S
C122 O140 1.248 . S
C122 O141 1.266 1_554 S
C123 C122 1.514 . S
C123 C124 1.359 . S
C123 C128 1.348 1_554 S
C124 C123 1.359 . S
C124 C125 1.380 . S
C124 H152 0.929 . S
C125 C124 1.380 . S
C125 C126 1.347 . S
C125 H153 0.931 . S
C126 C125 1.347 . S
C126 C127 1.369 1_554 S
C127 C126 1.369 1_556 S
C127 C128 1.408 . S
C127 H154 0.930 . S
C128 C123 1.348 1_556 S
C128 C127 1.408 . S
C128 H155 0.930 . S
C129 O142 1.281 . S
C129 O143 1.254 . S
C130 O144 1.236 . S
C130 O145 1.266 1_556 S
C131 Tb121 2.809 1_556 S
C131 C132 1.514 . S
C131 O146 1.248 . S
C131 O147 1.266 1_556 S
C132 C131 1.514 . S
C132 C133 1.359 . S
C132 C137 1.348 1_556 S
C133 C132 1.359 . S
C133 C134 1.380 . S
C133 H156 0.929 . S
C134 C133 1.380 . S
C134 C135 1.347 . S
C134 H157 0.931 . S
C135 C134 1.347 . S
C135 C136 1.369 1_556 S
C136 C135 1.369 1_554 S
C136 C137 1.408 . S
C136 H158 0.930 . S
C137 C132 1.348 1_554 S
C137 C136 1.408 . S
C137 H159 0.930 . S
C138 O148 1.281 . S
C138 O149 1.254 . S
C139 O150 1.236 . S
C139 O151 1.266 1_554 S
O140 Tb120 2.484 1_554 S
O140 C122 1.248 . S
O141 Tb120 2.440 . S
O141 C122 1.266 1_556 S
O142 Tb120 2.658 . S
O142 Tb121 2.325 1_556 S
O142 C129 1.281 . S
O143 Tb120 2.409 . S
O143 C129 1.254 . S
O144 Tb120 2.378 . S
O144 C130 1.236 . S
O145 Tb121 2.341 . S
O145 C130 1.266 1_554 S
O146 Tb121 2.484 1_556 S
O146 C131 1.248 . S
O147 Tb121 2.440 . S
O147 C131 1.266 1_554 S
O148 Tb120 2.325 1_554 S
O148 Tb121 2.658 . S
O148 C138 1.281 . S
O149 Tb121 2.409 . S
O149 C138 1.254 . S
O150 Tb121 2.378 . S
O150 C139 1.236 . S
O151 Tb120 2.341 . S
O151 C139 1.266 1_556 S
H152 C124 0.929 . S
H153 C125 0.931 . S
H154 C127 0.930 . S
H155 C128 0.930 . S
H156 C133 0.929 . S
H157 C134 0.931 . S
H158 C136 0.930 . S
H159 C137 0.930 . S
Tb160 C162 2.809 1_556 S
Tb160 O180 2.484 1_556 S
Tb160 O181 2.440 . S
Tb160 O182 2.658 . S
Tb160 O183 2.409 . S
Tb160 O184 2.378 . S
Tb160 O188 2.325 1_556 S
Tb160 O191 2.341 . S
Tb161 C171 2.809 1_554 S
Tb161 O182 2.325 1_554 S
Tb161 O185 2.341 . S
Tb161 O186 2.484 1_554 S
Tb161 O187 2.440 . S
Tb161 O188 2.658 . S
Tb161 O189 2.409 . S
Tb161 O190 2.378 . S
C162 Tb160 2.809 1_554 S
C162 C163 1.514 . S
C162 O180 1.248 . S
C162 O181 1.266 1_554 S
C163 C162 1.514 . S
C163 C164 1.359 . S
C163 C168 1.348 1_554 S
C164 C163 1.359 . S
C164 C165 1.380 . S
C164 H192 0.929 . S
C165 C164 1.380 . S
C165 C166 1.347 . S
C165 H193 0.931 . S
C166 C165 1.347 . S
C166 C167 1.369 1_554 S
C167 C166 1.369 1_556 S
C167 C168 1.408 . S
C167 H194 0.930 . S
C168 C163 1.348 1_556 S
C168 C167 1.408 . S
C168 H195 0.930 . S
C169 O182 1.281 . S
C169 O183 1.254 . S
C170 O184 1.236 . S
C170 O185 1.266 1_556 S
C171 Tb161 2.809 1_556 S
C171 C172 1.514 . S
C171 O186 1.248 . S
C171 O187 1.266 1_556 S
C172 C171 1.514 . S
C172 C173 1.359 . S
C172 C177 1.348 1_556 S
C173 C172 1.359 . S
C173 C174 1.380 . S
C173 H196 0.929 . S
C174 C173 1.380 . S
C174 C175 1.347 . S
C174 H197 0.931 . S
C175 C174 1.347 . S
C175 C176 1.369 1_556 S
C176 C175 1.369 1_554 S
C176 C177 1.408 . S
C176 H198 0.930 . S
C177 C172 1.348 1_554 S
C177 C176 1.408 . S
C177 H199 0.930 . S
C178 O188 1.281 . S
C178 O189 1.254 . S
C179 O190 1.236 . S
C179 O191 1.266 1_554 S
O180 Tb160 2.484 1_554 S
O180 C162 1.248 . S
O181 Tb160 2.440 . S
O181 C162 1.266 1_556 S
O182 Tb160 2.658 . S
O182 Tb161 2.325 1_556 S
O182 C169 1.281 . S
O183 Tb160 2.409 . S
O183 C169 1.254 . S
O184 Tb160 2.378 . S
O184 C170 1.236 . S
O185 Tb161 2.341 . S
O185 C170 1.266 1_554 S
O186 Tb161 2.484 1_556 S
O186 C171 1.248 . S
O187 Tb161 2.440 . S
O187 C171 1.266 1_554 S
O188 Tb160 2.325 1_554 S
O188 Tb161 2.658 . S
O188 C178 1.281 . S
O189 Tb161 2.409 . S
O189 C178 1.254 . S
O190 Tb161 2.378 . S
O190 C179 1.236 . S
O191 Tb160 2.341 . S
O191 C179 1.266 1_556 S
H192 C164 0.929 . S
H193 C165 0.931 . S
H194 C167 0.930 . S
H195 C168 0.930 . S
H196 C173 0.929 . S
H197 C174 0.931 . S
H198 C176 0.930 . S
H199 C177 0.930 . S
Tb200 C202 2.809 1_556 S
Tb200 O220 2.484 1_556 S
Tb200 O221 2.440 . S
Tb200 O222 2.658 . S
Tb200 O223 2.409 . S
Tb200 O224 2.378 . S
Tb200 O228 2.325 1_556 S
Tb200 O231 2.341 . S
Tb201 C211 2.809 1_554 S
Tb201 O222 2.325 1_554 S
Tb201 O225 2.341 . S
Tb201 O226 2.484 1_554 S
Tb201 O227 2.440 . S
Tb201 O228 2.658 . S
Tb201 O229 2.409 . S
Tb201 O230 2.378 . S
C202 Tb200 2.809 1_554 S
C202 C203 1.514 . S
C202 O220 1.248 . S
C202 O221 1.266 1_554 S
C203 C202 1.514 . S
C203 C204 1.359 . S
C203 C208 1.348 1_554 S
C204 C203 1.359 . S
C204 C205 1.380 . S
C204 H232 0.929 . S
C205 C204 1.380 . S
C205 C206 1.347 . S
C205 H233 0.931 . S
C206 C205 1.347 . S
C206 C207 1.369 1_554 S
C207 C206 1.369 1_556 S
C207 C208 1.408 . S
C207 H234 0.930 . S
C208 C203 1.348 1_556 S
C208 C207 1.408 . S
C208 H235 0.930 . S
C209 O222 1.281 . S
C209 O223 1.254 . S
C210 O224 1.236 . S
C210 O225 1.266 1_556 S
C211 Tb201 2.809 1_556 S
C211 C212 1.514 . S
C211 O226 1.248 . S
C211 O227 1.266 1_556 S
C212 C211 1.514 . S
C212 C213 1.359 . S
C212 C217 1.348 1_556 S
C213 C212 1.359 . S
C213 C214 1.380 . S
C213 H236 0.929 . S
C214 C213 1.380 . S
C214 C215 1.347 . S
C214 H237 0.931 . S
C215 C214 1.347 . S
C215 C216 1.369 1_556 S
C216 C215 1.369 1_554 S
C216 C217 1.408 . S
C216 H238 0.930 . S
C217 C212 1.348 1_554 S
C217 C216 1.408 . S
C217 H239 0.930 . S
C218 O228 1.281 . S
C218 O229 1.254 . S
C219 O230 1.236 . S
C219 O231 1.266 1_554 S
O220 Tb200 2.484 1_554 S
O220 C202 1.248 . S
O221 Tb200 2.440 . S
O221 C202 1.266 1_556 S
O222 Tb200 2.658 . S
O222 Tb201 2.325 1_556 S
O222 C209 1.281 . S
O223 Tb200 2.409 . S
O223 C209 1.254 . S
O224 Tb200 2.378 . S
O224 C210 1.236 . S
O225 Tb201 2.341 . S
O225 C210 1.266 1_554 S
O226 Tb201 2.484 1_556 S
O226 C211 1.248 . S
O227 Tb201 2.440 . S
O227 C211 1.266 1_554 S
O228 Tb200 2.325 1_554 S
O228 Tb201 2.658 . S
O228 C218 1.281 . S
O229 Tb201 2.409 . S
O229 C218 1.254 . S
O230 Tb201 2.378 . S
O230 C219 1.236 . S
O231 Tb200 2.341 . S
O231 C219 1.266 1_556 S
H232 C204 0.929 . S
H233 C205 0.931 . S
H234 C207 0.930 . S
H235 C208 0.930 . S
H236 C213 0.929 . S
H237 C214 0.931 . S
H238 C216 0.930 . S
H239 C217 0.930 . S
C240 C241 1.391 1_554 S
C240 C242 1.394 . S
C240 H256 0.931 . S
C241 C240 1.391 1_556 S
C241 C245 1.376 . S
C242 C240 1.394 . S
C242 C243 1.369 1_554 S
C242 C246 1.531 . S
C243 C242 1.369 1_556 S
C243 C244 1.410 . S
C243 C251 1.503 . S
C244 C243 1.410 . S
C244 C245 1.392 . S
C244 C247 1.511 . S
C245 C241 1.376 . S
C245 C244 1.392 . S
C245 H257 0.929 . S
C246 C242 1.531 . S
C246 H258 0.960 . S
C246 H259 0.962 . S
C246 H260 0.960 . S
C247 C244 1.511 . S
C247 H261 0.961 . S
C247 H262 0.961 . S
C247 H263 0.961 . S
C248 C249 1.370 1_554 S
C248 C250 1.363 . S
C248 H264 0.931 . S
C249 C248 1.370 1_556 S
C249 C253 1.408 . S
C250 C248 1.363 . S
C250 C251 1.370 1_554 S
C250 C254 1.524 . S
C251 C243 1.503 . S
C251 C250 1.370 1_556 S
C251 C252 1.403 . S
C252 C251 1.403 . S
C252 C253 1.404 . S
C252 C255 1.539 . S
C253 C249 1.408 . S
C253 C252 1.404 . S
C253 H265 0.930 . S
C254 C250 1.524 . S
C254 H266 0.956 . S
C254 H267 0.961 . S
C254 H268 0.961 . S
C255 C252 1.539 . S
C255 H269 0.958 . S
C255 H270 0.961 . S
C255 H271 0.960 . S
H256 C240 0.931 . S
H257 C245 0.929 . S
H258 C246 0.960 . S
H259 C246 0.962 . S
H260 C246 0.960 . S
H261 C247 0.961 . S
H262 C247 0.961 . S
H263 C247 0.961 . S
H264 C248 0.931 . S
H265 C253 0.930 . S
H266 C254 0.956 . S
H267 C254 0.961 . S
H268 C254 0.961 . S
H269 C255 0.958 . S
H270 C255 0.961 . S
H271 C255 0.960 . S
C272 C273 1.399 . S
C272 C274 1.394 . S
C272 H288 0.931 . S
C273 C272 1.399 . S
C273 C277 1.368 1_554 S
C274 C272 1.394 . S
C274 C275 1.369 1_554 S
C274 C278 1.531 . S
C275 C274 1.369 1_556 S
C275 C276 1.410 . S
C275 C283 1.503 . S
C276 C275 1.410 . S
C276 C277 1.392 . S
C276 C279 1.511 . S
C277 C273 1.368 1_556 S
C277 C276 1.392 . S
C277 H289 0.929 . S
C278 C274 1.531 . S
C278 H290 0.960 . S
C278 H291 0.962 . S
C278 H292 0.960 . S
C279 C276 1.511 . S
C279 H293 0.961 . S
C279 H294 0.961 . S
C279 H295 0.961 . S
C280 C281 1.370 1_455 S
C280 C282 1.363 . S
C280 H296 0.931 . S
C281 C280 1.370 1_655 S
C281 C285 1.408 1_556 S
C282 C280 1.363 . S
C282 C283 1.370 . S
C282 C286 1.524 . S
C283 C275 1.503 . S
C283 C282 1.370 . S
C283 C284 1.403 1_556 S
C284 C283 1.403 1_554 S
C284 C285 1.404 1_455 S
C284 C287 1.539 . S
C285 C281 1.408 1_554 S
C285 C284 1.404 1_655 S
C285 H297 0.930 . S
C286 C282 1.524 . S
C286 H298 0.956 . S
C286 H299 0.961 . S
C286 H300 0.961 . S
C287 C284 1.539 . S
C287 H301 0.958 . S
C287 H302 0.961 1_455 S
C287 H303 0.960 . S
H288 C272 0.931 . S
H289 C277 0.929 . S
H290 C278 0.960 . S
H291 C278 0.962 . S
H292 C278 0.960 . S
H293 C279 0.961 . S
H294 C279 0.961 . S
H295 C279 0.961 . S
H296 C280 0.931 . S
H297 C285 0.930 . S
H298 C286 0.956 . S
H299 C286 0.961 . S
H300 C286 0.961 . S
H301 C287 0.958 . S
H302 C287 0.961 1_655 S
H303 C287 0.960 . S
C304 C305 1.391 1_556 S
C304 C306 1.394 . S
C304 H320 0.931 . S
C305 C304 1.391 1_554 S
C305 C309 1.376 . S
C306 C304 1.394 . S
C306 C307 1.369 1_556 S
C306 C310 1.531 . S
C307 C306 1.369 1_554 S
C307 C308 1.410 . S
C307 C315 1.503 1_554 S
C308 C307 1.410 . S
C308 C309 1.392 . S
C308 C311 1.511 . S
C309 C305 1.376 . S
C309 C308 1.392 . S
C309 H321 0.929 . S
C310 C306 1.531 . S
C310 H322 0.960 1_556 S
C310 H323 0.962 . S
C310 H324 0.956 1_556 S
C311 C308 1.511 . S
C311 H325 0.961 . S
C311 H326 0.961 . S
C311 H327 0.961 . S
C312 C313 1.370 . S
C312 C314 1.363 1_565 S
C312 H328 0.931 . S
C313 C312 1.370 . S
C313 C317 1.408 1_556 S
C314 C312 1.363 1_545 S
C314 C315 1.370 . S
C314 C318 1.524 . S
C315 C307 1.503 1_556 S
C315 C314 1.370 . S
C315 C316 1.403 1_556 S
C316 C315 1.403 1_554 S
C316 C317 1.404 1_545 S
C316 C319 1.539 . S
C317 C313 1.408 1_554 S
C317 C316 1.404 1_565 S
C317 H329 0.930 . S
C318 C314 1.524 . S
C318 H330 0.956 . S
C318 H331 0.961 . S
C318 H332 0.961 . S
C319 C316 1.539 . S
C319 H333 0.958 . S
C319 H334 0.961 . S
C319 H335 0.960 . S
H320 C304 0.931 . S
H321 C309 0.929 . S
H322 C310 0.960 1_554 S
H323 C310 0.962 . S
H324 C310 0.956 1_554 S
H325 C311 0.961 . S
H326 C311 0.961 . S
H327 C311 0.961 . S
H328 C312 0.931 . S
H329 C317 0.930 . S
H330 C318 0.956 . S
H331 C318 0.961 . S
H332 C318 0.961 . S
H333 C319 0.958 . S
H334 C319 0.961 . S
H335 C319 0.960 . S
C336 C337 1.391 1_554 S
C336 C338 1.394 . S
C336 H352 0.931 . S
C337 C336 1.391 1_556 S
C337 C341 1.376 . S
C338 C336 1.394 . S
C338 C339 1.365 1_554 S
C338 C342 1.531 . S
C339 C338 1.365 1_556 S
C339 C340 1.414 . S
C339 C347 1.503 . S
C340 C339 1.414 . S
C340 C341 1.392 . S
C340 C343 1.511 . S
C341 C337 1.376 . S
C341 C340 1.392 . S
C341 H353 0.929 . S
C342 C338 1.531 . S
C342 H354 0.960 . S
C342 H355 0.962 . S
C342 H356 0.960 . S
C343 C340 1.511 . S
C343 H357 0.961 . S
C343 H358 0.961 . S
C343 H359 0.961 . S
C344 C345 1.369 1_556 S
C344 C346 1.363 . S
C344 H360 0.931 . S
C345 C344 1.369 1_554 S
C345 C349 1.409 . S
C346 C344 1.363 . S
C346 C347 1.370 . S
C346 C350 1.524 . S
C347 C339 1.503 . S
C347 C346 1.370 . S
C347 C348 1.403 1_556 S
C348 C347 1.403 1_554 S
C348 C349 1.404 . S
C348 C351 1.539 . S
C349 C345 1.409 . S
C349 C348 1.404 . S
C349 H361 0.930 . S
C350 C346 1.524 . S
C350 H362 0.956 . S
C350 H363 0.961 . S
C350 H364 0.961 . S
C351 C348 1.539 . S
C351 H365 0.958 . S
C351 H366 0.961 . S
C351 H367 0.960 . S
H352 C336 0.931 . S
H353 C341 0.929 . S
H354 C342 0.960 . S
H355 C342 0.962 . S
H356 C342 0.960 . S
H357 C343 0.961 . S
H358 C343 0.961 . S
H359 C343 0.961 . S
H360 C344 0.931 . S
H361 C349 0.930 . S
H362 C350 0.956 . S
H363 C350 0.961 . S
H364 C350 0.961 . S
H365 C351 0.958 . S
H366 C351 0.961 . S
H367 C351 0.960 . S
C368 C369 1.390 . S
C368 C370 1.395 1_455 S
C368 H384 0.931 . S
C369 C368 1.390 . S
C369 C373 1.376 1_556 S
C370 C368 1.395 1_655 S
C370 C371 1.369 . S
C370 C374 1.531 . S
C371 C370 1.369 . S
C371 C372 1.410 1_556 S
C371 C379 1.503 . S
C372 C371 1.410 1_554 S
C372 C373 1.392 1_655 S
C372 C375 1.511 . S
C373 C369 1.376 1_554 S
C373 C372 1.392 1_455 S
C373 H385 0.929 . S
C374 C370 1.531 . S
C374 H386 0.960 . S
C374 H387 0.962 . S
C374 H388 0.960 . S
C375 C372 1.511 . S
C375 H389 0.961 . S
C375 H390 0.961 . S
C375 H391 0.961 . S
C376 C377 1.370 1_554 S
C376 C378 1.363 . S
C376 H392 0.931 . S
C377 C376 1.370 1_556 S
C377 C381 1.408 . S
C378 C376 1.363 . S
C378 C379 1.370 1_554 S
C378 C382 1.524 . S
C379 C371 1.503 . S
C379 C378 1.370 1_556 S
C379 C380 1.403 . S
C380 C379 1.403 . S
C380 C381 1.404 . S
C380 C383 1.539 . S
C381 C377 1.408 . S
C381 C380 1.404 . S
C381 H393 0.930 . S
C382 C378 1.524 . S
C382 H394 0.956 . S
C382 H395 0.961 . S
C382 H396 0.961 . S
C383 C380 1.539 . S
C383 H397 0.958 . S
C383 H398 0.961 . S
C383 H399 0.960 . S
H384 C368 0.931 . S
H385 C373 0.929 . S
H386 C374 0.960 . S
H387 C374 0.962 . S
H388 C374 0.960 . S
H389 C375 0.961 . S
H390 C375 0.961 . S
H391 C375 0.961 . S
H392 C376 0.931 . S
H393 C381 0.930 . S
H394 C382 0.956 . S
H395 C382 0.961 . S
H396 C382 0.961 . S
H397 C383 0.958 . S
H398 C383 0.961 . S
H399 C383 0.960 . S
C400 C401 1.391 . S
C400 C402 1.394 . S
C400 H416 0.931 . S
C401 C400 1.391 . S
C401 C405 1.376 1_554 S
C402 C400 1.394 . S
C402 C403 1.369 . S
C402 C406 1.531 . S
C403 C402 1.369 . S
C403 C404 1.410 1_554 S
C403 C411 1.503 1_554 S
C404 C403 1.410 1_556 S
C404 C405 1.392 . S
C404 C407 1.511 . S
C405 C401 1.376 1_556 S
C405 C404 1.392 . S
C405 H417 0.929 . S
C406 C402 1.531 . S
C406 H418 0.960 . S
C406 H419 0.962 . S
C406 H420 0.960 . S
C407 C404 1.511 . S
C407 H421 0.961 . S
C407 H422 0.961 . S
C407 H423 0.961 . S
C408 C409 1.370 1_565 S
C408 C410 1.363 . S
C408 H424 0.912 1_565 S
C409 C408 1.370 1_545 S
C409 C413 1.408 1_556 S
C410 C408 1.363 . S
C410 C411 1.370 . S
C410 C414 1.524 . S
C411 C403 1.503 1_556 S
C411 C410 1.370 . S
C411 C412 1.403 1_556 S
C412 C411 1.403 1_554 S
C412 C413 1.404 1_565 S
C412 C415 1.539 . S
C413 C409 1.408 1_554 S
C413 C412 1.404 1_545 S
C413 H425 0.930 . S
C414 C410 1.524 . S
C414 H426 0.956 . S
C414 H427 0.961 . S
C414 H428 0.961 . S
C415 C412 1.539 . S
C415 H429 0.958 . S
C415 H430 0.961 . S
C415 H431 0.960 . S
H416 C400 0.931 . S
H417 C405 0.929 . S
H418 C406 0.960 . S
H419 C406 0.962 . S
H420 C406 0.960 . S
H421 C407 0.961 . S
H422 C407 0.961 . S
H423 C407 0.961 . S
H424 C408 0.912 1_545 S
H425 C413 0.930 . S
H426 C414 0.956 . S
H427 C414 0.961 . S
H428 C414 0.961 . S
H429 C415 0.958 . S
H430 C415 0.961 . S
H431 C415 0.960 . S
C432 C433 1.391 . S
C432 C434 1.394 . S
C432 H448 0.931 . S
C433 C432 1.391 . S
C433 C437 1.376 1_556 S
C434 C432 1.394 . S
C434 C435 1.369 . S
C434 C438 1.531 . S
C435 C434 1.369 . S
C435 C436 1.410 1_556 S
C435 C443 1.503 1_556 S
C436 C435 1.410 1_554 S
C436 C437 1.392 . S
C436 C439 1.511 . S
C437 C433 1.376 1_554 S
C437 C436 1.392 . S
C437 H449 0.929 . S
C438 C434 1.531 . S
C438 H450 0.960 . S
C438 H451 0.962 1_556 S
C438 H452 0.960 . S
C439 C436 1.511 . S
C439 H453 0.961 . S
C439 H454 0.961 . S
C439 H455 0.961 1_554 S
C440 C441 1.370 . S
C440 C442 1.363 . S
C440 H456 0.931 . S
C441 C440 1.370 . S
C441 C445 1.408 1_554 S
C442 C440 1.363 . S
C442 C443 1.370 . S
C442 C446 1.524 . S
C443 C435 1.503 1_554 S
C443 C442 1.370 . S
C443 C444 1.403 1_554 S
C444 C443 1.403 1_556 S
C444 C445 1.404 . S
C444 C447 1.539 . S
C445 C441 1.408 1_556 S
C445 C444 1.404 . S
C445 H457 0.930 . S
C446 C442 1.524 . S
C446 H458 0.956 . S
C446 H459 0.961 . S
C446 H460 0.961 . S
C447 C444 1.539 . S
C447 H461 0.958 . S
C447 H462 0.961 . S
C447 H463 0.960 . S
H448 C432 0.931 . S
H449 C437 0.929 . S
H450 C438 0.960 . S
H451 C438 0.962 1_554 S
H452 C438 0.960 . S
H453 C439 0.961 . S
H454 C439 0.961 . S
H455 C439 0.961 1_556 S
H456 C440 0.931 . S
H457 C445 0.930 . S
H458 C446 0.956 . S
H459 C446 0.961 . S
H460 C446 0.961 . S
H461 C447 0.958 . S
H462 C447 0.961 . S
H463 C447 0.960 . S
C464 C465 1.391 1_554 S
C464 C466 1.394 . S
C464 H480 0.931 . S
C465 C464 1.391 1_556 S
C465 C469 1.376 . S
C466 C464 1.394 . S
C466 C467 1.369 1_554 S
C466 C470 1.531 . S
C467 C466 1.369 1_556 S
C467 C468 1.410 . S
C467 C475 1.503 1_556 S
C468 C467 1.410 . S
C468 C469 1.392 . S
C468 C471 1.511 . S
C469 C465 1.376 . S
C469 C468 1.392 . S
C469 H481 0.929 . S
C470 C466 1.531 . S
C470 H482 0.960 . S
C470 H483 0.962 . S
C470 H484 0.960 . S
C471 C468 1.511 . S
C471 H485 0.961 . S
C471 H486 0.961 . S
C471 H487 0.961 . S
C472 C473 1.370 . S
C472 C474 1.363 . S
C472 H488 0.931 . S
C473 C472 1.370 . S
C473 C477 1.408 1_554 S
C474 C472 1.363 . S
C474 C475 1.370 . S
C474 C478 1.524 . S
C475 C467 1.503 1_554 S
C475 C474 1.370 . S
C475 C476 1.403 1_554 S
C476 C475 1.403 1_556 S
C476 C477 1.404 . S
C476 C479 1.539 . S
C477 C473 1.408 1_556 S
C477 C476 1.404 . S
C477 H489 0.930 . S
C478 C474 1.524 . S
C478 H490 0.956 . S
C478 H491 0.961 . S
C478 H492 0.961 . S
C479 C476 1.539 . S
C479 H493 0.958 . S
C479 H494 0.961 . S
C479 H495 0.960 . S
H480 C464 0.931 . S
H481 C469 0.929 . S
H482 C470 0.960 . S
H483 C470 0.962 . S
H484 C470 0.960 . S
H485 C471 0.961 . S
H486 C471 0.961 . S
H487 C471 0.961 . S
H488 C472 0.931 . S
H489 C477 0.930 . S
H490 C478 0.956 . S
H491 C478 0.961 . S
H492 C478 0.961 . S
H493 C479 0.958 . S
H494 C479 0.961 . S
H495 C479 0.960 . S
C496 C497 1.391 . S
C496 C498 1.394 . S
C496 H512 0.931 . S
C497 C496 1.391 . S
C497 C501 1.380 . S
C498 C496 1.394 . S
C498 C499 1.369 . S
C498 C502 1.531 . S
C499 C498 1.369 . S
C499 C500 1.413 . S
C499 C507 1.503 . S
C500 C499 1.413 . S
C500 C501 1.392 . S
C500 C503 1.508 1_554 S
C501 C497 1.380 . S
C501 C500 1.392 . S
C501 H513 0.925 1_554 S
C502 C498 1.531 . S
C502 H514 0.960 . S
C502 H515 0.962 . S
C502 H516 0.960 . S
C503 C500 1.508 1_556 S
C503 H517 0.961 . S
C503 H518 0.961 . S
C503 H519 0.961 1_556 S
C504 C505 1.370 1_556 S
C504 C506 1.363 . S
C504 H520 0.931 . S
C505 C504 1.370 1_554 S
C505 C509 1.408 . S
C506 C504 1.363 . S
C506 C507 1.370 1_556 S
C506 C510 1.524 . S
C507 C499 1.503 . S
C507 C506 1.370 1_554 S
C507 C508 1.403 . S
C508 C507 1.403 . S
C508 C509 1.404 . S
C508 C511 1.539 . S
C509 C505 1.408 . S
C509 C508 1.404 . S
C509 H521 0.930 . S
C510 C506 1.524 . S
C510 H522 0.956 . S
C510 H523 0.961 . S
C510 H524 0.961 . S
C511 C508 1.539 . S
C511 H525 0.958 . S
C511 H526 0.961 . S
C511 H527 0.960 . S
H512 C496 0.931 . S
H513 C501 0.925 1_556 S
H514 C502 0.960 . S
H515 C502 0.962 . S
H516 C502 0.960 . S
H517 C503 0.961 . S
H518 C503 0.961 . S
H519 C503 0.961 1_554 S
H520 C504 0.931 . S
H521 C509 0.930 . S
H522 C510 0.956 . S
H523 C510 0.961 . S
H524 C510 0.961 . S
H525 C511 0.958 . S
H526 C511 0.961 . S
H527 C511 0.960 . S
C528 C529 1.391 1_556 S
C528 C530 1.394 . S
C528 H544 0.931 . S
C529 C528 1.391 1_554 S
C529 C533 1.376 . S
C530 C528 1.394 . S
C530 C531 1.369 1_556 S
C530 C534 1.531 . S
C531 C530 1.369 1_554 S
C531 C532 1.410 . S
C531 C539 1.503 . S
C532 C531 1.410 . S
C532 C533 1.392 . S
C532 C535 1.511 . S
C533 C529 1.376 . S
C533 C532 1.392 . S
C533 H545 0.929 . S
C534 C530 1.531 . S
C534 H546 0.960 . S
C534 H547 0.962 . S
C534 H548 0.960 . S
C535 C532 1.511 . S
C535 H549 0.961 . S
C535 H550 0.961 . S
C535 H551 0.961 . S
C536 C537 1.375 . S
C536 C538 1.363 . S
C536 H552 0.931 . S
C537 C536 1.375 . S
C537 C541 1.403 1_554 S
C538 C536 1.363 . S
C538 C539 1.370 . S
C538 C542 1.524 . S
C539 C531 1.503 . S
C539 C538 1.370 . S
C539 C540 1.403 1_554 S
C540 C539 1.403 1_556 S
C540 C541 1.404 . S
C540 C543 1.539 . S
C541 C537 1.403 1_556 S
C541 C540 1.404 . S
C541 H553 0.930 . S
C542 C538 1.524 . S
C542 H554 0.956 . S
C542 H555 0.961 . S
C542 H556 0.961 . S
C543 C540 1.539 . S
C543 H557 0.958 . S
C543 H558 0.961 . S
C543 H559 0.960 . S
H544 C528 0.931 . S
H545 C533 0.929 . S
H546 C534 0.960 . S
H547 C534 0.962 . S
H548 C534 0.960 . S
H549 C535 0.961 . S
H550 C535 0.961 . S
H551 C535 0.961 . S
H552 C536 0.931 . S
H553 C541 0.930 . S
H554 C542 0.956 . S
H555 C542 0.961 . S
H556 C542 0.961 . S
H557 C543 0.958 . S
H558 C543 0.961 . S
H559 C543 0.960 . S
C560 C561 1.391 1_556 S
C560 C562 1.394 . S
C560 H576 0.931 . S
C561 C560 1.391 1_554 S
C561 C565 1.376 . S
C562 C560 1.394 . S
C562 C563 1.369 1_556 S
C562 C566 1.531 . S
C563 C562 1.369 1_554 S
C563 C564 1.410 . S
C563 C571 1.503 . S
C564 C563 1.410 . S
C564 C565 1.392 . S
C564 C567 1.511 . S
C565 C561 1.376 . S
C565 C564 1.392 . S
C565 H577 0.929 . S
C566 C562 1.531 . S
C566 H578 0.960 . S
C566 H579 0.962 . S
C566 H580 0.960 . S
C567 C564 1.511 . S
C567 H581 0.961 . S
C567 H582 0.961 . S
C567 H583 0.961 . S
C568 C569 1.370 1_556 S
C568 C570 1.363 . S
C568 H584 0.931 . S
C569 C568 1.370 1_554 S
C569 C573 1.408 . S
C570 C568 1.363 . S
C570 C571 1.370 1_556 S
C570 C574 1.524 . S
C571 C563 1.503 . S
C571 C570 1.370 1_554 S
C571 C572 1.403 . S
C572 C571 1.403 . S
C572 C573 1.404 . S
C572 C575 1.539 . S
C573 C569 1.408 . S
C573 C572 1.404 . S
C573 H585 0.930 . S
C574 C570 1.524 . S
C574 H586 0.956 . S
C574 H587 0.961 . S
C574 H588 0.961 . S
C575 C572 1.539 . S
C575 H589 0.958 . S
C575 H590 0.961 . S
C575 H591 0.960 . S
H576 C560 0.931 . S
H577 C565 0.929 . S
H578 C566 0.960 . S
H579 C566 0.962 . S
H580 C566 0.960 . S
H581 C567 0.961 . S
H582 C567 0.961 . S
H583 C567 0.961 . S
H584 C568 0.931 . S
H585 C573 0.930 . S
H586 C574 0.956 . S
H587 C574 0.961 . S
H588 C574 0.961 . S
H589 C575 0.958 . S
H590 C575 0.961 . S
H591 C575 0.960 . S
C592 C593 1.391 . S
C592 C594 1.394 . S
C592 H608 0.931 . S
C593 C592 1.391 . S
C593 C597 1.376 1_554 S
C594 C592 1.394 . S
C594 C595 1.369 . S
C594 C598 1.531 . S
C595 C594 1.369 . S
C595 C596 1.410 1_554 S
C595 C603 1.503 . S
C596 C595 1.410 1_556 S
C596 C597 1.392 . S
C596 C599 1.511 . S
C597 C593 1.376 1_556 S
C597 C596 1.392 . S
C597 H609 0.929 . S
C598 C594 1.531 . S
C598 H610 0.960 . S
C598 H611 0.962 . S
C598 H612 0.960 . S
C599 C596 1.511 . S
C599 H613 0.961 . S
C599 H614 0.961 . S
C599 H615 0.961 . S
C600 C601 1.370 1_556 S
C600 C602 1.363 . S
C600 H616 0.931 . S
C601 C600 1.370 1_554 S
C601 C605 1.408 . S
C602 C600 1.363 . S
C602 C603 1.370 1_556 S
C602 C606 1.524 . S
C603 C595 1.503 . S
C603 C602 1.370 1_554 S
C603 C604 1.403 . S
C604 C603 1.403 . S
C604 C605 1.404 . S
C604 C607 1.539 . S
C605 C601 1.408 . S
C605 C604 1.404 . S
C605 H617 0.930 . S
C606 C602 1.524 . S
C606 H618 0.956 . S
C606 H619 0.961 . S
C606 H620 0.961 . S
C607 C604 1.539 . S
C607 H621 0.958 . S
C607 H622 0.961 . S
C607 H623 0.960 . S
H608 C592 0.931 . S
H609 C597 0.929 . S
H610 C598 0.960 . S
H611 C598 0.962 . S
H612 C598 0.960 . S
H613 C599 0.961 . S
H614 C599 0.961 . S
H615 C599 0.961 . S
H616 C600 0.931 . S
H617 C605 0.930 . S
H618 C606 0.956 . S
H619 C606 0.961 . S
H620 C606 0.961 . S
H621 C607 0.958 . S
H622 C607 0.961 . S
H623 C607 0.960 . S
C624 C625 1.391 . S
C624 C626 1.394 . S
C624 H640 0.931 . S
C625 C624 1.391 . S
C625 C629 1.376 . S
C626 C624 1.394 . S
C626 C627 1.369 . S
C626 C630 1.531 . S
C627 C626 1.369 . S
C627 C628 1.410 . S
C627 C635 1.503 . S
C628 C627 1.410 . S
C628 C629 1.392 . S
C628 C631 1.511 . S
C629 C625 1.376 . S
C629 C628 1.392 . S
C629 H641 0.929 . S
C630 C626 1.531 . S
C630 H642 0.960 . S
C630 H643 0.962 . S
C630 H644 0.960 . S
C631 C628 1.511 . S
C631 H645 0.961 . S
C631 H646 0.961 . S
C631 H647 0.961 . S
C632 C633 1.370 . S
C632 C634 1.363 . S
C632 H648 0.931 . S
C633 C632 1.370 . S
C633 C637 1.408 . S
C634 C632 1.363 . S
C634 C635 1.370 . S
C634 C638 1.524 . S
C635 C627 1.503 . S
C635 C634 1.370 . S
C635 C636 1.403 . S
C636 C635 1.403 . S
C636 C637 1.404 . S
C636 C639 1.539 . S
C637 C633 1.408 . S
C637 C636 1.404 . S
C637 H649 0.930 . S
C638 C634 1.524 . S
C638 H650 0.956 . S
C638 H651 0.961 . S
C638 H652 0.961 . S
C639 C636 1.539 . S
C639 H653 0.958 . S
C639 H654 0.961 . S
C639 H655 0.960 . S
H640 C624 0.931 . S
H641 C629 0.929 . S
H642 C630 0.960 . S
H643 C630 0.962 . S
H644 C630 0.960 . S
H645 C631 0.961 . S
H646 C631 0.961 . S
H647 C631 0.961 . S
H648 C632 0.931 . S
H649 C637 0.930 . S
H650 C638 0.956 . S
H651 C638 0.961 . S
H652 C638 0.961 . S
H653 C639 0.958 . S
H654 C639 0.961 . S
H655 C639 0.960 . S
C656 C657 1.391 . S
C656 C658 1.394 . S
C656 H672 0.931 . S
C657 C656 1.391 . S
C657 C661 1.376 . S
C658 C656 1.394 . S
C658 C659 1.369 . S
C658 C662 1.531 . S
C659 C658 1.369 . S
C659 C660 1.410 . S
C659 C667 1.503 . S
C660 C659 1.410 . S
C660 C661 1.392 . S
C660 C663 1.511 . S
C661 C657 1.376 . S
C661 C660 1.392 . S
C661 H673 0.929 . S
C662 C658 1.531 . S
C662 H674 0.960 . S
C662 H675 0.962 . S
C662 H676 0.960 . S
C663 C660 1.511 . S
C663 H677 0.961 . S
C663 H678 0.961 . S
C663 H679 0.961 . S
C664 C665 1.370 . S
C664 C666 1.363 . S
C664 H680 0.931 . S
C665 C664 1.370 . S
C665 C669 1.408 . S
C666 C664 1.363 . S
C666 C667 1.370 . S
C666 C670 1.524 . S
C667 C659 1.503 . S
C667 C666 1.370 . S
C667 C668 1.403 . S
C668 C667 1.403 . S
C668 C669 1.404 . S
C668 C671 1.539 . S
C669 C665 1.408 . S
C669 C668 1.404 . S
C669 H681 0.930 . S
C670 C666 1.524 . S
C670 H682 0.956 . S
C670 H683 0.961 . S
C670 H684 0.961 . S
C671 C668 1.539 . S
C671 H685 0.958 . S
C671 H686 0.961 . S
C671 H687 0.960 . S
H672 C656 0.931 . S
H673 C661 0.929 . S
H674 C662 0.960 . S
H675 C662 0.962 . S
H676 C662 0.960 . S
H677 C663 0.961 . S
H678 C663 0.961 . S
H679 C663 0.961 . S
H680 C664 0.931 . S
H681 C669 0.930 . S
H682 C670 0.956 . S
H683 C670 0.961 . S
H684 C670 0.961 . S
H685 C671 0.958 . S
H686 C671 0.961 . S
H687 C671 0.960 . S
C688 C689 1.391 . S
C688 C690 1.394 . S
C688 H704 0.931 . S
C689 C688 1.391 . S
C689 C693 1.376 . S
C690 C688 1.394 . S
C690 C691 1.369 . S
C690 C694 1.531 . S
C691 C690 1.369 . S
C691 C692 1.410 . S
C691 C699 1.503 . S
C692 C691 1.410 . S
C692 C693 1.392 . S
C692 C695 1.511 . S
C693 C689 1.376 . S
C693 C692 1.392 . S
C693 H705 0.929 . S
C694 C690 1.531 . S
C694 H706 0.960 . S
C694 H707 0.962 . S
C694 H708 0.960 . S
C695 C692 1.511 . S
C695 H709 0.961 . S
C695 H710 0.961 . S
C695 H711 0.961 . S
C696 C697 1.370 . S
C696 C698 1.363 . S
C696 H712 0.931 . S
C697 C696 1.370 . S
C697 C701 1.408 . S
C698 C696 1.363 . S
C698 C699 1.370 . S
C698 C702 1.524 . S
C699 C691 1.503 . S
C699 C698 1.370 . S
C699 C700 1.403 . S
C700 C699 1.403 . S
C700 C701 1.404 . S
C700 C703 1.539 . S
C701 C697 1.408 . S
C701 C700 1.404 . S
C701 H713 0.930 . S
C702 C698 1.524 . S
C702 H714 0.956 . S
C702 H715 0.961 . S
C702 H716 0.961 . S
C703 C700 1.539 . S
C703 H717 0.958 . S
C703 H718 0.961 . S
C703 H719 0.960 . S
H704 C688 0.931 . S
H705 C693 0.929 . S
H706 C694 0.960 . S
H707 C694 0.962 . S
H708 C694 0.960 . S
H709 C695 0.961 . S
H710 C695 0.961 . S
H711 C695 0.961 . S
H712 C696 0.931 . S
H713 C701 0.930 . S
H714 C702 0.956 . S
H715 C702 0.961 . S
H716 C702 0.961 . S
H717 C703 0.958 . S
H718 C703 0.961 . S
H719 C703 0.960 . S
C720 C721 1.391 . S
C720 C722 1.394 . S
C720 H736 0.931 . S
C721 C720 1.391 . S
C721 C725 1.376 . S
C722 C720 1.394 . S
C722 C723 1.369 . S
C722 C726 1.531 . S
C723 C722 1.369 . S
C723 C724 1.410 . S
C723 C731 1.503 . S
C724 C723 1.410 . S
C724 C725 1.392 . S
C724 C727 1.511 . S
C725 C721 1.376 . S
C725 C724 1.392 . S
C725 H737 0.929 . S
C726 C722 1.531 . S
C726 H738 0.960 . S
C726 H739 0.962 . S
C726 H740 0.960 . S
C727 C724 1.511 . S
C727 H741 0.961 . S
C727 H742 0.961 . S
C727 H743 0.961 . S
C728 C729 1.370 . S
C728 C730 1.363 . S
C728 H744 0.931 . S
C729 C728 1.370 . S
C729 C733 1.408 . S
C730 C728 1.363 . S
C730 C731 1.370 . S
C730 C734 1.524 . S
C731 C723 1.503 . S
C731 C730 1.370 . S
C731 C732 1.403 . S
C732 C731 1.403 . S
C732 C733 1.404 . S
C732 C735 1.539 . S
C733 C729 1.408 . S
C733 C732 1.404 . S
C733 H745 0.930 . S
C734 C730 1.524 . S
C734 H746 0.956 . S
C734 H747 0.961 . S
C734 H748 0.961 . S
C735 C732 1.539 . S
C735 H749 0.958 . S
C735 H750 0.961 . S
C735 H751 0.960 . S
H736 C720 0.931 . S
H737 C725 0.929 . S
H738 C726 0.960 . S
H739 C726 0.962 . S
H740 C726 0.960 . S
H741 C727 0.961 . S
H742 C727 0.961 . S
H743 C727 0.961 . S
H744 C728 0.931 . S
H745 C733 0.930 . S
H746 C734 0.956 . S
H747 C734 0.961 . S
H748 C734 0.961 . S
H749 C735 0.958 . S
H750 C735 0.961 . S
H751 C735 0.960 . S
C752 C753 1.391 . S
C752 C754 1.394 . S
C752 H768 0.931 . S
C753 C752 1.391 . S
C753 C757 1.376 . S
C754 C752 1.394 . S
C754 C755 1.369 . S
C754 C758 1.531 . S
C755 C754 1.369 . S
C755 C756 1.410 . S
C755 C763 1.503 . S
C756 C755 1.410 . S
C756 C757 1.392 . S
C756 C759 1.511 . S
C757 C753 1.376 . S
C757 C756 1.392 . S
C757 H769 0.929 . S
C758 C754 1.531 . S
C758 H770 0.960 . S
C758 H771 0.962 . S
C758 H772 0.960 . S
C759 C756 1.511 . S
C759 H773 0.961 . S
C759 H774 0.961 . S
C759 H775 0.961 . S
C760 C761 1.370 . S
C760 C762 1.363 . S
C760 H776 0.931 . S
C761 C760 1.370 . S
C761 C765 1.408 . S
C762 C760 1.363 . S
C762 C763 1.370 . S
C762 C766 1.524 . S
C763 C755 1.503 . S
C763 C762 1.370 . S
C763 C764 1.403 . S
C764 C763 1.403 . S
C764 C765 1.404 . S
C764 C767 1.539 . S
C765 C761 1.408 . S
C765 C764 1.404 . S
C765 H777 0.930 . S
C766 C762 1.524 . S
C766 H778 0.956 . S
C766 H779 0.961 . S
C766 H780 0.961 . S
C767 C764 1.539 . S
C767 H781 0.958 . S
C767 H782 0.961 . S
C767 H783 0.960 . S
H768 C752 0.931 . S
H769 C757 0.929 . S
H770 C758 0.960 . S
H771 C758 0.962 . S
H772 C758 0.960 . S
H773 C759 0.961 . S
H774 C759 0.961 . S
H775 C759 0.961 . S
H776 C760 0.931 . S
H777 C765 0.930 . S
H778 C766 0.956 . S
H779 C766 0.961 . S
H780 C766 0.961 . S
H781 C767 0.958 . S
H782 C767 0.961 . S
H783 C767 0.960 . S
C784 C785 1.391 . S
C784 C786 1.394 . S
C784 H800 0.931 . S
C785 C784 1.391 . S
C785 C789 1.376 . S
C786 C784 1.394 . S
C786 C787 1.369 . S
C786 C790 1.531 . S
C787 C786 1.369 . S
C787 C788 1.410 . S
C787 C795 1.503 . S
C788 C787 1.410 . S
C788 C789 1.392 . S
C788 C791 1.511 . S
C789 C785 1.376 . S
C789 C788 1.392 . S
C789 H801 0.929 . S
C790 C786 1.531 . S
C790 H802 0.960 . S
C790 H803 0.962 . S
C790 H804 0.960 . S
C791 C788 1.511 . S
C791 H805 0.961 . S
C791 H806 0.961 . S
C791 H807 0.961 . S
C792 C793 1.370 . S
C792 C794 1.363 . S
C792 H808 0.931 . S
C793 C792 1.370 . S
C793 C797 1.408 . S
C794 C792 1.363 . S
C794 C795 1.370 . S
C794 C798 1.524 . S
C795 C787 1.503 . S
C795 C794 1.370 . S
C795 C796 1.403 . S
C796 C795 1.403 . S
C796 C797 1.404 . S
C796 C799 1.539 . S
C797 C793 1.408 . S
C797 C796 1.404 . S
C797 H809 0.930 . S
C798 C794 1.524 . S
C798 H810 0.956 . S
C798 H811 0.961 . S
C798 H812 0.961 . S
C799 C796 1.539 . S
C799 H813 0.958 . S
C799 H814 0.961 . S
C799 H815 0.960 . S
H800 C784 0.931 . S
H801 C789 0.929 . S
H802 C790 0.960 . S
H803 C790 0.962 . S
H804 C790 0.960 . S
H805 C791 0.961 . S
H806 C791 0.961 . S
H807 C791 0.961 . S
H808 C792 0.931 . S
H809 C797 0.930 . S
H810 C798 0.956 . S
H811 C798 0.961 . S
H812 C798 0.961 . S
H813 C799 0.958 . S
H814 C799 0.961 . S
H815 C799 0.960 . S
C241 C219 1.890 1_556 S
C249 C15 1.690 . S
C273 C19 1.885 . S
C281 C55 1.685 . S
C305 C59 1.895 . S
C313 C95 1.702 . S
C337 C135 1.718 . S
C345 C99 1.906 . S
C369 C175 1.663 . S
C377 C139 1.900 1_556 S
C401 C179 1.886 . S
C409 C215 1.690 . S
C433 C170 1.934 . S
C441 C6 1.941 . S
C465 C210 1.933 . S
C473 C46 1.940 . S
C497 C86 1.947 . S
C505 C10 1.949 1_554 S
C529 C126 1.929 . S
C537 C50 1.941 1_554 S
C561 C166 1.934 . S
C569 C90 1.945 1_554 S
C593 C130 1.944 1_554 S
C601 C206 1.943 . S
C625 C9 1.431 . S
C633 C18 1.444 . S
C657 C49 1.468 . S
C665 C58 1.425 . S
C689 C89 1.454 . S
C697 C98 1.434 . S
C721 C129 1.454 . S
C729 C138 1.430 . S
C753 C178 1.460 . S
C761 C169 1.431 . S
C785 C209 1.471 . S
C793 C218 1.425 . S
