# Generated by pormake.
# Topology noz, (5)-cn, num edge types: 1
# Building blocks:
#     Node 0, Type 0, BuildingBlock: BEQFEK_clean_sbu_0, # of connection points: 5
#     Node 1, Type 0, BuildingBlock: BEQFEK_clean_sbu_0, # of connection points: 5
#     Node 2, Type 0, BuildingBlock: BEQFEK_clean_sbu_0, # of connection points: 5
#     Node 3, Type 0, BuildingBlock: BEQFEK_clean_sbu_0, # of connection points: 5
#     Node 4, Type 0, BuildingBlock: BEQFEK_clean_sbu_0, # of connection points: 5
#     Node 5, Type 0, BuildingBlock: BEQFEK_clean_sbu_0, # of connection points: 5
#     Node 6, Type 0, BuildingBlock: BEQFEK_clean_sbu_0, # of connection points: 5
#     Node 7, Type 0, BuildingBlock: BEQFEK_clean_sbu_0, # of connection points: 5
#     Edge 8, Type (0, 0), BuildingBlock: XIVTED_clean_linker_0, # of connection points: 2
#     Edge 9, Type (0, 0), BuildingBlock: XIVTED_clean_linker_0, # of connection points: 2
#     Edge 10, Type (0, 0), BuildingBlock: XIVTED_clean_linker_0, # of connection points: 2
#     Edge 11, Type (0, 0), BuildingBlock: XIVTED_clean_linker_0, # of connection points: 2
#     Edge 12, Type (0, 0), BuildingBlock: XIVTED_clean_linker_0, # of connection points: 2
#     Edge 13, Type (0, 0), BuildingBlock: XIVTED_clean_linker_0, # of connection points: 2
#     Edge 14, Type (0, 0), BuildingBlock: XIVTED_clean_linker_0, # of connection points: 2
#     Edge 15, Type (0, 0), BuildingBlock: XIVTED_clean_linker_0, # of connection points: 2
#     Edge 16, Type (0, 0), BuildingBlock: XIVTED_clean_linker_0, # of connection points: 2
#     Edge 17, Type (0, 0), BuildingBlock: XIVTED_clean_linker_0, # of connection points: 2
#     Edge 18, Type (0, 0), BuildingBlock: XIVTED_clean_linker_0, # of connection points: 2
#     Edge 19, Type (0, 0), BuildingBlock: XIVTED_clean_linker_0, # of connection points: 2
#     Edge 20, Type (0, 0), BuildingBlock: XIVTED_clean_linker_0, # of connection points: 2
#     Edge 21, Type (0, 0), BuildingBlock: XIVTED_clean_linker_0, # of connection points: 2
#     Edge 22, Type (0, 0), BuildingBlock: XIVTED_clean_linker_0, # of connection points: 2
#     Edge 23, Type (0, 0), BuildingBlock: XIVTED_clean_linker_0, # of connection points: 2
#     Edge 24, Type (0, 0), BuildingBlock: XIVTED_clean_linker_0, # of connection points: 2
#     Edge 25, Type (0, 0), BuildingBlock: XIVTED_clean_linker_0, # of connection points: 2
#     Edge 26, Type (0, 0), BuildingBlock: XIVTED_clean_linker_0, # of connection points: 2
#     Edge 27, Type (0, 0), BuildingBlock: XIVTED_clean_linker_0, # of connection points: 2
# Relax obj value: 0.090
# Max RMSD: 0.172
# Mean RMSD: 0.118
data_MOF--net-noz--node1-BEQFEK_clean_sbu_0--edge1-XIVTED_clean_linker_0
_symmetry_space_group_name_H-M    P1
_symmetry_Int_Tables_number       1
_symmetry_cell_setting            triclinic
loop_
_symmetry_equiv_pos_as_xyz
'x, y, z'
_cell_length_a     24.692243
_cell_length_b     43.787207
_cell_length_c     43.506209
_cell_angle_alpha  88.864344
_cell_angle_beta   96.073416
_cell_angle_gamma 82.812536
loop_
_atom_site_label
_atom_site_type_symbol
_atom_site_fract_x
_atom_site_fract_y
_atom_site_fract_z
_atom_type_partial_charge
Co0 Co 0.11672 0.36117 0.37132 0.0
Co1 Co 0.03025 0.33969 0.41262 0.0
C2 C 0.14465 0.31031 0.42204 0.0
O3 O 0.15684 0.32822 0.40104 0.0
O4 O 0.09555 0.31118 0.42875 0.0
C5 C 0.19087 0.34365 0.32821 0.0
O6 O 0.18084 0.31656 0.33804 0.0
C7 C 0.95013 0.308 0.44425 0.0
C8 C 0.88967 0.3483 0.45118 0.0
C9 C 0.90063 0.31672 0.45627 0.0
N10 N 0.96701 0.33339 0.43238 0.0
N11 N 0.93068 0.3573 0.43673 0.0
C12 C 0.98196 0.27653 0.44505 0.0
H13 H 0.02607 0.27797 0.44375 0.0
H14 H 0.96652 0.26384 0.42482 0.0
H15 H 0.97689 0.26347 0.46647 0.0
C16 C 0.02736 0.35095 0.32214 0.0
N17 N 0.04987 0.34919 0.35187 0.0
N18 N 0.01537 0.33853 0.36919 0.0
C19 C 0.97056 0.33249 0.35102 0.0
C20 C 0.97657 0.34018 0.32062 0.0
C21 C 0.05324 0.36371 0.29594 0.0
H22 H 0.07142 0.38472 0.30316 0.0
H23 H 0.08681 0.34639 0.28983 0.0
H24 H 0.0232 0.36914 0.27515 0.0
O25 O 0.1015 0.39942 0.39482 0.0
O26 O 0.04376 0.38139 0.42417 0.0
H27 H 0.90073 0.34162 0.37606 0.0
H28 H 0.89021 0.31688 0.34402 0.0
C29 C 0.92053 0.32267 0.36296 0.0
H30 H 0.93269 0.30233 0.37887 0.0
H31 H 0.93385 0.37988 0.42972 0.0
O32 O 0.16686 0.36769 0.33934 0.0
C33 C 0.07045 0.4028 0.41646 0.0
Co34 Co 0.49591 0.63218 0.87236 0.0
Co35 Co 0.59185 0.65024 0.91957 0.0
C36 C 0.48276 0.6874 0.9132 0.0
O37 O 0.4652 0.66866 0.89374 0.0
O38 O 0.53285 0.68437 0.92462 0.0
C39 C 0.41841 0.65019 0.82158 0.0
O40 O 0.43726 0.67646 0.82748 0.0
C41 C 0.67174 0.6813 0.95992 0.0
C42 C 0.74664 0.64786 0.96044 0.0
C43 C 0.72757 0.67664 0.97058 0.0
N44 N 0.65934 0.65689 0.94343 0.0
N45 N 0.70411 0.63676 0.94444 0.0
C46 C 0.62961 0.70685 0.96757 0.0
H47 H 0.59107 0.69755 0.97139 0.0
H48 H 0.62077 0.72392 0.94793 0.0
H49 H 0.64363 0.71837 0.98889 0.0
C50 C 0.58087 0.63369 0.82945 0.0
N51 N 0.56349 0.63765 0.8576 0.0
N52 N 0.60322 0.64632 0.87676 0.0
C53 C 0.64671 0.64906 0.86093 0.0
C54 C 0.63419 0.64086 0.83054 0.0
C55 C 0.54859 0.62078 0.80282 0.0
H56 H 0.52321 0.60393 0.81135 0.0
H57 H 0.52091 0.6398 0.78999 0.0
H58 H 0.57598 0.60931 0.78669 0.0
O59 O 0.50527 0.59721 0.90213 0.0
O60 O 0.56888 0.61162 0.93703 0.0
H61 H 0.72758 0.64139 0.88484 0.0
H62 H 0.71818 0.67148 0.8554 0.0
C63 C 0.69838 0.66085 0.87394 0.0
H64 H 0.68942 0.6782 0.89153 0.0
H65 H 0.70588 0.61567 0.9336 0.0
O66 O 0.43916 0.62633 0.83789 0.0
C67 C 0.53512 0.59297 0.92795 0.0
Co68 Co 0.06108 0.65267 0.55788 0.0
Co69 Co 0.97845 0.62424 0.59663 0.0
C70 C 0.94128 0.67736 0.55189 0.0
O71 O 0.98994 0.67753 0.54491 0.0
O72 O 0.93041 0.6581 0.57196 0.0
C73 C 0.11669 0.702 0.54289 0.0
O74 O 0.07933 0.71677 0.55843 0.0
C75 C 0.89966 0.62341 0.64248 0.0
C76 C 0.90961 0.57427 0.65712 0.0
C77 C 0.88201 0.60282 0.6628 0.0
N78 N 0.93601 0.60774 0.62576 0.0
N79 N 0.94126 0.57831 0.63435 0.0
C80 C 0.88716 0.65778 0.64114 0.0
H81 H 0.92106 0.66832 0.632 0.0
H82 H 0.88083 0.66663 0.66439 0.0
H83 H 0.84903 0.6646 0.62536 0.0
C84 C 0.12152 0.65495 0.62002 0.0
N85 N 0.07692 0.64946 0.60137 0.0
N86 N 0.04222 0.63805 0.61801 0.0
C87 C 0.06372 0.63616 0.64799 0.0
C88 C 0.11448 0.647 0.65018 0.0
C89 C 0.17262 0.66423 0.60884 0.0
H90 H 0.18029 0.653 0.58684 0.0
H91 H 0.16737 0.68957 0.60484 0.0
H92 H 0.20896 0.65773 0.62603 0.0
O93 O 0.06035 0.61154 0.54086 0.0
O94 O 1.00132 0.59109 0.56781 0.0
H95 H 0.03009 0.59973 0.6698 0.0
H96 H 0.06105 0.62525 0.69664 0.0
C97 C 0.03649 0.62398 0.67395 0.0
H98 H 0.99587 0.63769 0.67478 0.0
H99 H 0.96771 0.56113 0.62533 0.0
O100 O 0.11699 0.67326 0.53942 0.0
C101 C 0.0341 0.58932 0.54689 0.0
Co102 Co 0.50077 0.3678 0.1147 0.0
Co103 Co 0.58511 0.34907 0.06684 0.0
C104 C 0.48761 0.31717 0.06767 0.0
O105 O 0.47161 0.33464 0.08895 0.0
O106 O 0.53304 0.31917 0.05689 0.0
C107 C 0.44607 0.34746 0.16304 0.0
O108 O 0.46907 0.32114 0.15352 0.0
C109 C 0.67465 0.31802 0.03382 0.0
C110 C 0.69989 0.3581 0.00986 0.0
C111 C 0.71084 0.32645 0.01383 0.0
N112 N 0.64386 0.34369 0.04152 0.0
N113 N 0.65932 0.36752 0.02714 0.0
C114 C 0.66679 0.28609 0.04366 0.0
H115 H 0.63279 0.28656 0.05846 0.0
H116 H 0.70507 0.27451 0.05672 0.0
H117 H 0.65783 0.27248 0.0229 0.0
C118 C 0.60387 0.3567 0.15799 0.0
N119 N 0.57627 0.35639 0.12955 0.0
N120 N 0.61141 0.34785 0.1096 0.0
C121 C 0.66232 0.34219 0.12481 0.0
C122 C 0.65922 0.34745 0.15594 0.0
C123 C 0.57756 0.36587 0.18643 0.0
H124 H 0.54737 0.38678 0.18122 0.0
H125 H 0.55519 0.34701 0.19377 0.0
H126 H 0.60832 0.37017 0.2058 0.0
O127 O 0.4922 0.40724 0.08952 0.0
O128 O 0.54711 0.39019 0.05458 0.0
H129 H 0.71417 0.35146 0.0902 0.0
H130 H 0.7511 0.33505 0.12586 0.0
C131 C 0.71361 0.33462 0.10949 0.0
H132 H 0.71413 0.31136 0.09991 0.0
H133 H 0.64186 0.39028 0.02894 0.0
O134 O 0.4549 0.37233 0.14993 0.0
C135 C 0.51366 0.4111 0.06457 0.0
Co136 Co 0.60944 0.86342 0.37396 0.0
Co137 Co 0.52349 0.84314 0.41632 0.0
C138 C 0.63721 0.81261 0.42463 0.0
O139 O 0.64969 0.83023 0.40345 0.0
O140 O 0.58831 0.81421 0.43176 0.0
C141 C 0.6827 0.8453 0.33049 0.0
O142 O 0.67305 0.81834 0.34086 0.0
C143 C 0.44397 0.81137 0.44807 0.0
C144 C 0.38555 0.85172 0.45756 0.0
C145 C 0.39548 0.81997 0.46111 0.0
N146 N 0.46126 0.83699 0.43704 0.0
N147 N 0.42621 0.86095 0.44294 0.0
C148 C 0.47454 0.7797 0.4472 0.0
H149 H 0.51868 0.78075 0.4456 0.0
H150 H 0.45792 0.76809 0.4265 0.0
H151 H 0.46964 0.76579 0.4681 0.0
C152 C 0.51866 0.85265 0.32554 0.0
N153 N 0.54161 0.85176 0.35518 0.0
N154 N 0.50717 0.8419 0.37307 0.0
C155 C 0.46187 0.83573 0.35546 0.0
C156 C 0.46762 0.84224 0.32477 0.0
C157 C 0.54481 0.86375 0.29864 0.0
H158 H 0.56345 0.88491 0.30469 0.0
H159 H 0.57805 0.84581 0.29334 0.0
H160 H 0.5148 0.86836 0.27773 0.0
O161 O 0.59601 0.90193 0.39756 0.0
O162 O 0.53837 0.88459 0.42743 0.0
H163 H 0.39503 0.84542 0.38269 0.0
H164 H 0.3792 0.82287 0.34963 0.0
C165 C 0.41178 0.82681 0.36813 0.0
H166 H 0.42321 0.80555 0.38279 0.0
H167 H 0.42988 0.88369 0.43679 0.0
O168 O 0.65876 0.8695 0.34138 0.0
C169 C 0.56548 0.90568 0.41943 0.0
Co170 Co 1.00173 0.13504 0.87637 0.0
Co171 Co 0.10034 0.1459 0.92551 0.0
C172 C 0.99449 0.18819 0.91869 0.0
O173 O 0.97429 0.17278 0.89683 0.0
O174 O 0.04312 0.18063 0.93169 0.0
C175 C 0.89588 0.13647 0.84279 0.0
O176 O 0.87998 0.14557 0.86937 0.0
C177 C 0.19121 0.17724 0.95395 0.0
C178 C 0.2309 0.14277 0.98977 0.0
C179 C 0.23312 0.1722 0.97812 0.0
N180 N 0.16557 0.15189 0.9514 0.0
N181 N 0.18986 0.13129 0.97273 0.0
C182 C 0.17248 0.20656 0.9355 0.0
H183 H 0.13366 0.20489 0.92064 0.0
H184 H 0.20433 0.21133 0.92055 0.0
H185 H 0.16674 0.22603 0.95129 0.0
C186 C 0.08828 0.13539 0.83458 0.0
N187 N 0.07121 0.13832 0.86286 0.0
N188 N 0.11322 0.14196 0.88314 0.0
C189 C 0.15883 0.14072 0.86836 0.0
C190 C 0.14451 0.13658 0.83704 0.0
C191 C 0.05071 0.13234 0.80575 0.0
H192 H 0.01347 0.14941 0.80548 0.0
H193 H 0.07075 0.13617 0.78461 0.0
H194 H 0.03765 0.109 0.80566 0.0
O195 O 0.00604 0.09934 0.906 0.0
O196 O 0.07409 0.10825 0.9411 0.0
H197 H 0.21974 0.12771 0.90687 0.0
H198 H 0.24701 0.12963 0.87009 0.0
C199 C 0.21564 0.14047 0.88433 0.0
H200 H 0.22339 0.16451 0.88858 0.0
H201 H 0.17737 0.10971 0.97626 0.0
O202 O 0.94692 0.12982 0.84057 0.0
C203 C 0.03654 0.09225 0.93129 0.0
Co204 Co 0.56658 0.15565 0.56332 0.0
Co205 Co 0.483 0.12533 0.59982 0.0
C206 C 0.44678 0.17914 0.55512 0.0
O207 O 0.49571 0.18042 0.54907 0.0
O208 O 0.43612 0.15922 0.57457 0.0
C209 C 0.6207 0.20507 0.54553 0.0
O210 O 0.57916 0.22095 0.55697 0.0
C211 C 0.40866 0.12452 0.64812 0.0
C212 C 0.39905 0.07519 0.65228 0.0
C213 C 0.38357 0.10361 0.66445 0.0
N214 N 0.4381 0.10904 0.62774 0.0
N215 N 0.432 0.07958 0.63026 0.0
C216 C 0.40302 0.15881 0.65063 0.0
H217 H 0.41364 0.1699 0.62937 0.0
H218 H 0.43165 0.16491 0.67026 0.0
H219 H 0.36053 0.16789 0.65487 0.0
C220 C 0.62396 0.15697 0.62659 0.0
N221 N 0.58006 0.15194 0.60707 0.0
N222 N 0.54608 0.13838 0.62246 0.0
C223 C 0.568 0.13376 0.65223 0.0
C224 C 0.61786 0.14559 0.65588 0.0
C225 C 0.67101 0.17209 0.61711 0.0
H226 H 0.6904 0.15855 0.59897 0.0
H227 H 0.6553 0.19541 0.60723 0.0
H228 H 0.70223 0.17453 0.63685 0.0
O229 O 0.56676 0.11439 0.54553 0.0
O230 O 0.50717 0.09284 0.57115 0.0
H231 H 0.52947 0.09455 0.66435 0.0
H232 H 0.57827 0.10565 0.69449 0.0
C233 C 0.54599 0.11443 0.6756 0.0
H234 H 0.51244 0.12849 0.68588 0.0
H235 H 0.45058 0.06245 0.61707 0.0
O236 O 0.62437 0.17587 0.54606 0.0
C237 C 0.54071 0.09179 0.55068 0.0
Co238 Co 0.99275 0.86937 0.11663 0.0
Co239 Co 0.08142 0.84444 0.07338 0.0
C240 C 0.98092 0.81594 0.07227 0.0
O241 O 0.96343 0.83606 0.09094 0.0
O242 O 0.02899 0.81473 0.0639 0.0
C243 C 0.93618 0.85173 0.16467 0.0
O244 O 0.9617 0.82527 0.15702 0.0
C245 C 0.16087 0.81566 0.03211 0.0
C246 C 0.22653 0.84549 0.04028 0.0
C247 C 0.21294 0.81992 0.0244 0.0
N248 N 0.14571 0.83718 0.05227 0.0
N249 N 0.18472 0.85522 0.05653 0.0
C250 C 0.12368 0.79372 0.01861 0.0
H251 H 0.08027 0.80421 0.01749 0.0
H252 H 0.12906 0.7725 0.03357 0.0
H253 H 0.13272 0.78761 0.99489 0.0
C254 C 0.09159 0.85866 0.16324 0.0
N255 N 0.06631 0.85695 0.13439 0.0
N256 N 0.10216 0.84412 0.11666 0.0
C257 C 0.15045 0.83568 0.13406 0.0
C258 C 0.14563 0.84503 0.164 0.0
C259 C 0.06459 0.87336 0.18941 0.0
H260 H 0.03465 0.89347 0.18065 0.0
H261 H 0.04206 0.85639 0.20028 0.0
H262 H 0.09524 0.88068 0.20736 0.0
O263 O 0.98976 0.90699 0.08998 0.0
O264 O 0.04687 0.88591 0.05784 0.0
H265 H 0.22671 0.83763 0.11549 0.0
H266 H 0.22615 0.80464 0.1403 0.0
C267 C 0.20115 0.82002 0.12218 0.0
H268 H 0.19026 0.80617 0.10194 0.0
H269 H 0.18296 0.87408 0.07086 0.0
O270 O 0.94368 0.87614 0.15022 0.0
C271 C 0.01389 0.90842 0.06561 0.0
H272 H 0.21863 0.39557 0.29995 0.0
H273 H 0.42049 0.29793 0.19487 0.0
H274 H 0.24982 0.29629 0.30178 0.0
H275 H 0.38916 0.3972 0.18861 0.0
H276 H 0.35942 0.29772 0.23516 0.0
H277 H 0.28177 0.39748 0.26018 0.0
C278 C 0.23874 0.3742 0.29205 0.0
C279 C 0.22887 0.34572 0.30426 0.0
C280 C 0.36581 0.31962 0.22508 0.0
C281 C 0.30107 0.34775 0.25884 0.0
C282 C 0.40085 0.31976 0.202 0.0
C283 C 0.40999 0.34764 0.18822 0.0
C284 C 0.3394 0.34756 0.23463 0.0
C285 C 0.38328 0.37517 0.19856 0.0
C286 C 0.27475 0.37531 0.26935 0.0
C287 C 0.25602 0.31878 0.2931 0.0
N288 N 0.3491 0.37444 0.22113 0.0
N289 N 0.29075 0.32049 0.27111 0.0
H290 H 0.36676 0.60027 0.80384 0.0
H291 H 0.16244 0.6963 0.67065 0.0
H292 H 0.36573 0.69721 0.78323 0.0
H293 H 0.15893 0.59995 0.69112 0.0
H294 H 0.23546 0.69713 0.71312 0.0
H295 H 0.28981 0.59945 0.76353 0.0
C296 C 0.35045 0.62135 0.79082 0.0
C297 C 0.37279 0.64885 0.79691 0.0
C298 C 0.21856 0.67581 0.70857 0.0
C299 C 0.28469 0.64809 0.75089 0.0
C300 C 0.17686 0.6754 0.6844 0.0
C301 C 0.15468 0.64809 0.67767 0.0
C302 C 0.23851 0.64861 0.72602 0.0
C303 C 0.17467 0.62154 0.69596 0.0
C304 C 0.30644 0.62088 0.76788 0.0
C305 C 0.34994 0.67547 0.77936 0.0
N306 N 0.21572 0.62241 0.71927 0.0
N307 N 0.30724 0.67441 0.75719 0.0
H308 H 0.89364 0.57584 0.72036 0.0
H309 H 0.61364 0.66286 0.7706 0.0
H310 H 0.78744 0.64374 0.66151 0.0
H311 H 0.73818 0.61053 0.8343 0.0
H312 H 0.67415 0.65451 0.72943 0.0
H313 H 0.83426 0.58617 0.76147 0.0
C314 C 0.85783 0.59299 0.71613 0.0
C315 C 0.84592 0.60929 0.68764 0.0
C316 C 0.68837 0.64501 0.75245 0.0
C317 C 0.77745 0.62113 0.73454 0.0
C318 C 0.65384 0.6497 0.77587 0.0
C319 C 0.67114 0.6374 0.8058 0.0
C320 C 0.7403 0.62761 0.75901 0.0
C321 C 0.7236 0.62066 0.81157 0.0
C322 C 0.82408 0.59899 0.73965 0.0
C323 C 0.7989 0.63119 0.68337 0.0
N324 N 0.7562 0.6161 0.78836 0.0
N325 N 0.76626 0.63642 0.70654 0.0
H326 H 0.73072 0.29704 0.17625 0.0
H327 H 0.92164 0.39119 0.28944 0.0
H328 H 0.69354 0.39413 0.19046 0.0
H329 H 0.93366 0.29219 0.29263 0.0
H330 H 0.84411 0.39315 0.24882 0.0
H331 H 0.81073 0.29497 0.21524 0.0
C332 C 0.7394 0.31784 0.18784 0.0
C333 C 0.70554 0.34571 0.18059 0.0
C334 C 0.86388 0.37098 0.25825 0.0
C335 C 0.79703 0.34376 0.2246 0.0
C336 C 0.90828 0.36988 0.28116 0.0
C337 C 0.93391 0.34149 0.29401 0.0
C338 C 0.84532 0.34343 0.2481 0.0
C339 C 0.91488 0.31449 0.28302 0.0
C340 C 0.78495 0.31671 0.20998 0.0
C341 C 0.71847 0.37215 0.19585 0.0
N342 N 0.87168 0.31609 0.26065 0.0
N343 N 0.76337 0.37058 0.21709 0.0
H344 H 0.74202 0.79755 0.30491 0.0
H345 H 0.87645 0.90198 0.18787 0.0
H346 H 0.70915 0.8968 0.30073 0.0
H347 H 0.91185 0.80302 0.19821 0.0
H348 H 0.81467 0.90145 0.22856 0.0
H349 H 0.80366 0.79994 0.26516 0.0
C350 C 0.74774 0.81992 0.29563 0.0
C351 C 0.72029 0.84702 0.30626 0.0
C352 C 0.83609 0.8799 0.22189 0.0
C353 C 0.79132 0.84995 0.26039 0.0
C354 C 0.87134 0.88019 0.19868 0.0
C355 C 0.89935 0.8525 0.18953 0.0
C356 C 0.82881 0.85173 0.23596 0.0
C357 C 0.89119 0.82495 0.20439 0.0
C358 C 0.78312 0.82127 0.27287 0.0
C359 C 0.72953 0.87532 0.29327 0.0
N360 N 0.85672 0.8253 0.22672 0.0
N361 N 0.76425 0.87606 0.27097 0.0
H362 H 0.59993 0.16352 0.71396 0.0
H363 H 0.91397 0.11842 0.78429 0.0
H364 H 0.72627 0.12174 0.66136 0.0
H365 H 0.78465 0.15304 0.83876 0.0
H366 H 0.84601 0.11946 0.739 0.0
H367 H 0.66701 0.15985 0.76009 0.0
C368 C 0.6419 0.1536 0.71222 0.0
C369 C 0.65798 0.14333 0.68387 0.0
C370 C 0.83247 0.12672 0.76089 0.0
C371 C 0.73487 0.13898 0.73631 0.0
C372 C 0.87127 0.12611 0.78678 0.0
C373 C 0.85503 0.13568 0.8154 0.0
C374 C 0.777 0.13709 0.76356 0.0
C375 C 0.7991 0.14544 0.81719 0.0
C376 C 0.68016 0.15151 0.73847 0.0
C377 C 0.71264 0.13051 0.68272 0.0
N378 N 0.76218 0.146 0.79163 0.0
N379 N 0.74921 0.12879 0.70853 0.0
H380 H 0.22368 0.17144 0.82299 0.0
H381 H 0.29896 0.07261 0.67665 0.0
H382 H 0.14889 0.09112 0.79508 0.0
H383 H 0.38849 0.14572 0.71085 0.0
H384 H 0.24135 0.08037 0.71885 0.0
H385 H 0.28267 0.16377 0.78107 0.0
C386 C 0.2199 0.15214 0.80806 0.0
C387 C 0.18123 0.132 0.81227 0.0
C388 C 0.27335 0.09489 0.717 0.0
C389 C 0.24796 0.12317 0.76425 0.0
C390 C 0.30627 0.09047 0.69289 0.0
C391 C 0.3478 0.10905 0.68965 0.0
C392 C 0.28217 0.11797 0.73827 0.0
C393 C 0.3557 0.13165 0.71157 0.0
C394 C 0.25335 0.14782 0.78411 0.0
C395 C 0.17763 0.10745 0.79226 0.0
N396 N 0.32314 0.13551 0.7349 0.0
N397 N 0.21042 0.10377 0.76908 0.0
H398 H 0.18866 0.89453 0.18843 0.0
H399 H 0.42302 0.79268 0.30176 0.0
H400 H 0.20611 0.79546 0.19523 0.0
H401 H 0.41422 0.89104 0.2892 0.0
H402 H 0.34374 0.79308 0.26267 0.0
H403 H 0.2698 0.89398 0.22633 0.0
C404 C 0.20937 0.8727 0.1983 0.0
C405 C 0.19091 0.84501 0.18902 0.0
C406 C 0.35937 0.81458 0.26818 0.0
C407 C 0.28394 0.84403 0.23178 0.0
C408 C 0.40471 0.81428 0.2903 0.0
C409 C 0.42506 0.84182 0.29834 0.0
C410 C 0.33398 0.84271 0.25421 0.0
C411 C 0.39987 0.86931 0.28325 0.0
C412 C 0.25586 0.87234 0.21966 0.0
C413 C 0.21932 0.81727 0.20194 0.0
N414 N 0.35536 0.86911 0.26201 0.0
N415 N 0.2645 0.81746 0.22268 0.0
H416 H 0.98277 0.53752 0.55062 0.0
H417 H 0.12602 0.45351 0.41231 0.0
H418 H 0.1002 0.57748 0.50057 0.0
H419 H 1.00326 0.41726 0.46121 0.0
H420 H 0.11827 0.49915 0.44423 0.0
H421 H 0.99173 0.49271 0.51826 0.0
C422 C 0.01057 0.53686 0.53291 0.0
C423 C 0.04065 0.56137 0.52833 0.0
C424 C 0.09304 0.48116 0.44784 0.0
C425 C 0.05102 0.51009 0.491 0.0
C426 C 0.09736 0.45517 0.42958 0.0
C427 C 0.06542 0.43143 0.43408 0.0
C428 C 0.05657 0.48333 0.47069 0.0
C429 C 0.02897 0.43482 0.45688 0.0
C430 C 0.01561 0.51127 0.51436 0.0
C431 C 0.07608 0.55916 0.50495 0.0
N432 N 0.02569 0.46016 0.47429 0.0
N433 N 0.08023 0.534 0.48715 0.0
H434 H 0.48433 0.54257 0.9126 0.0
H435 H 0.51457 0.47003 0.08491 0.0
H436 H 0.56778 0.58403 0.99021 0.0
H437 H 0.48997 0.41785 1.00274 0.0
H438 H 0.51519 0.51647 0.05197 0.0
H439 H 0.46899 0.50055 0.94697 0.0
C440 C 0.49954 0.54283 0.93687 0.0
C441 C 0.52784 0.56675 0.94847 0.0
C442 C 0.50879 0.4949 0.04127 0.0
C443 C 0.50959 0.51884 0.98806 0.0
C444 C 0.50773 0.46862 0.06 0.0
C445 C 0.50206 0.44029 0.04638 0.0
C446 C 0.50333 0.49265 0.0089 0.0
C447 C 0.49442 0.43936 0.01404 0.0
C448 C 0.49064 0.51885 0.95649 0.0
C449 C 0.54634 0.56587 0.98021 0.0
N450 N 0.49541 0.46511 0.99641 0.0
N451 N 0.5368 0.54231 0.99895 0.0
H452 H 0.60747 0.08095 0.50425 0.0
H453 H 0.4965 0.92144 0.46283 0.0
H454 H 0.48941 0.04006 0.55298 0.0
H455 H 0.62497 0.95515 0.41672 0.0
H456 H 0.49218 0.9663 0.49436 0.0
H457 H 0.61421 0.03636 0.47114 0.0
C458 C 0.58314 0.06258 0.50812 0.0
C459 C 0.54768 0.06433 0.53146 0.0
C460 C 0.52138 0.96406 0.47739 0.0
C461 C 0.55506 0.01342 0.49349 0.0
C462 C 0.52388 0.93834 0.4592 0.0
C463 C 0.56143 0.93433 0.43706 0.0
C464 C 0.55663 0.98625 0.47363 0.0
C465 C 0.59543 0.95729 0.4335 0.0
C466 C 0.587 0.03718 0.48914 0.0
C467 C 0.51723 0.03983 0.53533 0.0
N468 N 0.59234 0.98231 0.4517 0.0
N469 N 0.52155 0.01551 0.51651 0.0
H470 H 0.99769 0.9684 0.08329 0.0
H471 H 0.98924 0.04125 0.91282 0.0
H472 H 0.01304 0.91266 1.00325 0.0
H473 H 0.06107 0.08315 0.99367 0.0
H474 H 0.97499 -0.00269 0.94564 0.0
H475 H 0.99701 0.01471 0.05015 0.0
C476 C 0.99987 0.966 0.0587 0.0
C477 C 0.00579 0.93678 0.04594 0.0
C478 C 0.99363 0.01626 0.9561 0.0
C479 C 1.0046 0.98922 0.00818 0.0
C480 C 1.00174 0.04127 0.93745 0.0
C481 C 0.0269 0.06568 0.95052 0.0
C482 C 0.00961 0.01607 0.98806 0.0
C483 C 0.04219 0.0646 0.9826 0.0
C484 C 0.99988 0.99229 0.03991 0.0
C485 C 0.00889 0.93481 0.01399 0.0
N486 N 0.03311 0.04024 1.00031 0.0
N487 N 0.00822 0.96068 0.99617 0.0
H488 H 0.2551 0.30387 0.41664 0.0
H489 H 0.33584 0.18252 0.55946 0.0
H490 H 0.13574 0.26987 0.46981 0.0
H491 H 0.45394 0.22223 0.50976 0.0
H492 H 0.26173 0.21372 0.52672 0.0
H493 H 0.32816 0.27262 0.44967 0.0
C494 C 0.24414 0.2897 0.43513 0.0
C495 C 0.18905 0.28962 0.44044 0.0
C496 C 0.30389 0.21566 0.52309 0.0
C497 C 0.27286 0.25383 0.4786 0.0
C498 C 0.34627 0.19792 0.54184 0.0
C499 C 0.40133 0.19965 0.53737 0.0
C500 C 0.31661 0.23521 0.4996 0.0
C501 C 0.41222 0.22004 0.51411 0.0
C502 C 0.28599 0.27193 0.45409 0.0
C503 C 0.17756 0.27074 0.46482 0.0
N504 N 0.37031 0.23688 0.49607 0.0
N505 N 0.21909 0.25367 0.48302 0.0
H506 H 0.50154 0.73947 0.94504 0.0
H507 H 0.21713 0.75814 0.01095 0.0
H508 H 0.37205 0.68763 0.90967 0.0
H509 H 0.29625 0.83881 0.9954 0.0
H510 H 0.28023 0.72884 0.97989 0.0
H511 H 0.43356 0.7739 0.96969 0.0
C512 C 0.45889 0.73553 0.9422 0.0
C513 C 0.44245 0.71064 0.92533 0.0
C514 C 0.28307 0.75311 0.98293 0.0
C515 C 0.36544 0.74922 0.9539 0.0
C516 C 0.24639 0.77008 1.0003 0.0
C517 C 0.2496 0.80147 1.00483 0.0
C518 C 0.32458 0.76726 0.97095 0.0
C519 C 0.29168 0.81478 0.99219 0.0
C520 C 0.42027 0.75514 0.95619 0.0
C521 C 0.38661 0.70656 0.92238 0.0
N522 N 0.32785 0.79756 0.976 0.0
N523 N 0.35028 0.72534 0.93693 0.0
H524 H 0.19529 0.67971 0.50623 0.0
H525 H 0.33456 0.83508 0.50817 0.0
H526 H 0.13657 0.76106 0.55348 0.0
H527 H 0.37134 0.76197 0.4456 0.0
H528 H 0.26859 0.80567 0.52926 0.0
H529 H 0.26673 0.70709 0.48777 0.0
C530 C 0.1974 0.70332 0.51271 0.0
C531 C 0.15977 0.7182 0.5313 0.0
C532 C 0.29149 0.79591 0.51112 0.0
C533 C 0.24151 0.74949 0.51047 0.0
C534 C 0.32922 0.81266 0.4991 0.0
C535 C 0.35926 0.80075 0.47545 0.0
C536 C 0.28341 0.76705 0.49929 0.0
C537 C 0.35052 0.77166 0.46447 0.0
C538 C 0.23816 0.71891 0.50217 0.0
C539 C 0.1645 0.74876 0.53906 0.0
N540 N 0.31327 0.7558 0.47646 0.0
N541 N 0.20467 0.76337 0.52863 0.0
H542 H 0.25718 0.18388 0.03879 0.0
H543 H 0.49008 0.28897 0.01207 0.0
H544 H 0.29403 0.20886 0.94766 0.0
H545 H 0.40295 0.29486 0.09314 0.0
H546 H 0.42775 0.25384 0.9899 0.0
H547 H 0.3197 0.21896 0.06097 0.0
C548 C 0.27835 0.19687 0.02347 0.0
C549 C 0.26986 0.19391 0.99135 0.0
C550 C 0.42237 0.26286 0.01253 0.0
C551 C 0.342 0.23354 0.01651 0.0
C552 C 0.45809 0.28274 0.0253 0.0
C553 C 0.45168 0.29492 0.05451 0.0
C554 C 0.38057 0.25464 0.02931 0.0
C555 C 0.40927 0.28614 0.07051 0.0
C556 C 0.3138 0.21691 0.03611 0.0
C557 C 0.29843 0.21108 0.97249 0.0
N558 N 0.37552 0.26641 0.05777 0.0
N559 N 0.33357 0.23005 0.98537 0.0
H560 H 0.9502 0.72115 0.50769 0.0
H561 H 0.62651 0.77139 0.47127 0.0
H562 H 0.83011 0.68199 0.55629 0.0
H563 H 0.74785 0.80535 0.41957 0.0
H564 H 0.69994 0.739 0.50311 0.0
H565 H 0.87622 0.75335 0.47652 0.0
C566 C 0.90825 0.7194 0.51197 0.0
C567 C 0.89646 0.69866 0.53464 0.0
C568 C 0.71046 0.75347 0.48474 0.0
C569 C 0.81118 0.73556 0.49868 0.0
C570 C 0.66853 0.77195 0.46646 0.0
C571 C 0.68094 0.79124 0.44267 0.0
C572 C 0.7653 0.75432 0.47932 0.0
C573 C 0.73622 0.79091 0.43761 0.0
C574 C 0.86594 0.73778 0.49402 0.0
C575 C 0.84119 0.69758 0.53907 0.0
N576 N 0.77629 0.77285 0.45583 0.0
N577 N 0.80058 0.71571 0.52118 0.0
H578 H 0.72624 0.32636 0.95305 0.0
H579 H 1.00527 0.21132 0.97664 0.0
H580 H 0.79205 0.28345 0.04141 0.0
H581 H 0.90007 0.22063 0.89027 0.0
H582 H 0.93706 0.24648 0.99985 0.0
H583 H 0.79898 0.29539 0.92881 0.0
C584 C 0.75589 0.31022 0.96724 0.0
C585 C 0.75271 0.3068 0.99905 0.0
C586 C 0.92929 0.24098 0.97575 0.0
C587 C 0.83638 0.27219 0.97185 0.0
C588 C 0.96834 0.2212 0.9624 0.0
C589 C 0.95815 0.21296 0.93151 0.0
C590 C 0.88026 0.25297 0.95793 0.0
C591 C 0.90939 0.22626 0.91421 0.0
C592 C 0.79724 0.29266 0.95347 0.0
C593 C 0.7923 0.286 0.01664 0.0
N594 N 0.87217 0.24562 0.92767 0.0
N595 N 0.83281 0.26952 1.00281 0.0
H596 H 0.88067 0.25699 0.44473 0.0
H597 H 0.63471 0.26571 0.55019 0.0
H598 H 0.83591 0.33428 0.50102 0.0
H599 H 0.70501 0.18052 0.51372 0.0
H600 H 0.706 0.29171 0.53012 0.0
H601 H 0.81552 0.22867 0.46819 0.0
C602 C 0.8583 0.26777 0.46254 0.0
C603 C 0.86465 0.29788 0.47137 0.0
C604 C 0.70599 0.2673 0.52659 0.0
C605 C 0.7884 0.26602 0.49736 0.0
C606 C 0.66513 0.25246 0.53793 0.0
C607 C 0.66385 0.22092 0.53355 0.0
C608 C 0.7456 0.25057 0.51046 0.0
C609 C 0.70451 0.20489 0.51761 0.0
C610 C 0.82056 0.25168 0.47567 0.0
C611 C 0.83243 0.3111 0.49356 0.0
N612 N 0.74363 0.21994 0.50648 0.0
N613 N 0.79561 0.29515 0.50569 0.0
H614 H 0.71443 0.74046 0.96982 0.0
H615 H 0.00867 0.7586 0.05013 0.0
H616 H 0.82368 0.66074 0.00763 0.0
H617 H 0.86875 0.82431 0.06429 0.0
H618 H 0.94587 0.72401 0.02694 0.0
H619 H 0.77448 0.77354 0.99718 0.0
C620 C 0.74995 0.72975 0.98458 0.0
C621 C 0.7625 0.69756 0.98747 0.0
C622 C 0.92912 0.74595 0.03531 0.0
C623 C 0.83352 0.73561 0.01705 0.0
C624 C 0.96479 0.76571 0.0484 0.0
C625 C 0.94382 0.79431 0.05921 0.0
C626 C 0.87226 0.75526 0.03225 0.0
C627 C 0.88661 0.80238 0.05643 0.0
C628 C 0.78472 0.74877 0.9998 0.0
C629 C 0.8118 0.68538 1.0051 0.0
N630 N 0.8528 0.78311 0.04287 0.0
N631 N 0.84569 0.7044 0.01907 0.0
loop_
_geom_bond_atom_site_label_1
_geom_bond_atom_site_label_2
_geom_bond_distance
_geom_bond_site_symmetry_2
_ccdc_geom_bond_type
Co0 O3 1.970 . S
Co0 N17 1.989 . S
Co0 O25 1.967 . S
Co0 O32 1.920 . S
Co1 O4 1.966 . S
Co1 N10 2.022 1_455 S
Co1 N18 1.993 1_455 S
Co1 O26 1.941 . S
C2 O3 1.258 . S
C2 O4 1.263 . S
O3 Co0 1.970 . S
O3 C2 1.258 . S
O4 Co1 1.966 . S
O4 C2 1.263 . S
C5 O6 1.235 . S
C5 O32 1.289 . S
O6 C5 1.235 . S
C7 C9 1.400 . S
C7 N10 1.351 . S
C7 C12 1.501 . S
C8 C9 1.387 . S
C8 N11 1.341 . S
C9 C7 1.400 . S
C9 C8 1.387 . S
N10 Co1 2.022 1_655 S
N10 C7 1.351 . S
N10 N11 1.365 . S
N11 C8 1.341 . S
N11 N10 1.365 . S
N11 H31 0.862 . S
C12 C7 1.501 . S
C12 H13 0.961 1_655 S
C12 H14 0.961 . S
C12 H15 0.960 . S
H13 C12 0.961 1_455 S
H14 C12 0.961 . S
H15 C12 0.960 . S
C16 N17 1.342 1_655 S
C16 C20 1.401 . S
C16 C21 1.499 1_655 S
N17 Co0 1.989 . S
N17 C16 1.342 1_455 S
N17 N18 1.388 1_455 S
N18 Co1 1.993 1_655 S
N18 N17 1.388 1_655 S
N18 C19 1.346 . S
C19 N18 1.346 . S
C19 C20 1.396 . S
C19 C29 1.510 . S
C20 C16 1.401 . S
C20 C19 1.396 . S
C21 C16 1.499 1_455 S
C21 H22 0.959 . S
C21 H23 0.960 . S
C21 H24 0.961 . S
H22 C21 0.959 . S
H23 C21 0.960 . S
H24 C21 0.961 . S
O25 Co0 1.967 . S
O25 C33 1.258 . S
O26 Co1 1.941 . S
O26 C33 1.266 . S
H27 C29 0.959 . S
H28 C29 0.961 . S
C29 C19 1.510 . S
C29 H27 0.959 . S
C29 H28 0.961 . S
C29 H30 0.960 . S
H30 C29 0.960 . S
H31 N11 0.862 . S
O32 Co0 1.920 . S
O32 C5 1.289 . S
C33 O25 1.258 . S
C33 O26 1.266 . S
Co34 O37 1.970 . S
Co34 N51 1.989 . S
Co34 O59 1.967 . S
Co34 O66 1.920 . S
Co35 O38 1.966 . S
Co35 N44 2.022 . S
Co35 N52 1.993 . S
Co35 O60 1.941 . S
C36 O37 1.258 . S
C36 O38 1.263 . S
O37 Co34 1.970 . S
O37 C36 1.258 . S
O38 Co35 1.966 . S
O38 C36 1.263 . S
C39 O40 1.235 . S
C39 O66 1.289 . S
O40 C39 1.235 . S
C41 C43 1.400 . S
C41 N44 1.351 . S
C41 C46 1.501 . S
C42 C43 1.387 . S
C42 N45 1.341 . S
C43 C41 1.400 . S
C43 C42 1.387 . S
N44 Co35 2.022 . S
N44 C41 1.351 . S
N44 N45 1.365 . S
N45 C42 1.341 . S
N45 N44 1.365 . S
N45 H65 0.862 . S
C46 C41 1.501 . S
C46 H47 0.961 . S
C46 H48 0.961 . S
C46 H49 0.960 . S
H47 C46 0.961 . S
H48 C46 0.961 . S
H49 C46 0.960 . S
C50 N51 1.342 . S
C50 C54 1.401 . S
C50 C55 1.499 . S
N51 Co34 1.989 . S
N51 C50 1.342 . S
N51 N52 1.388 . S
N52 Co35 1.993 . S
N52 N51 1.388 . S
N52 C53 1.346 . S
C53 N52 1.346 . S
C53 C54 1.396 . S
C53 C63 1.510 . S
C54 C50 1.401 . S
C54 C53 1.396 . S
C55 C50 1.499 . S
C55 H56 0.959 . S
C55 H57 0.960 . S
C55 H58 0.961 . S
H56 C55 0.959 . S
H57 C55 0.960 . S
H58 C55 0.961 . S
O59 Co34 1.967 . S
O59 C67 1.258 . S
O60 Co35 1.941 . S
O60 C67 1.266 . S
H61 C63 0.959 . S
H62 C63 0.961 . S
C63 C53 1.510 . S
C63 H61 0.959 . S
C63 H62 0.961 . S
C63 H64 0.960 . S
H64 C63 0.960 . S
H65 N45 0.862 . S
O66 Co34 1.920 . S
O66 C39 1.289 . S
C67 O59 1.258 . S
C67 O60 1.266 . S
Co68 O71 1.970 1_455 S
Co68 N85 1.989 . S
Co68 O93 1.967 . S
Co68 O100 1.920 . S
Co69 O72 1.966 . S
Co69 N78 2.022 . S
Co69 N86 1.993 1_655 S
Co69 O94 1.941 . S
C70 O71 1.258 . S
C70 O72 1.263 . S
O71 Co68 1.970 1_655 S
O71 C70 1.258 . S
O72 Co69 1.966 . S
O72 C70 1.263 . S
C73 O74 1.235 . S
C73 O100 1.289 . S
O74 C73 1.235 . S
C75 C77 1.400 . S
C75 N78 1.351 . S
C75 C80 1.501 . S
C76 C77 1.387 . S
C76 N79 1.341 . S
C77 C75 1.400 . S
C77 C76 1.387 . S
N78 Co69 2.022 . S
N78 C75 1.351 . S
N78 N79 1.365 . S
N79 C76 1.341 . S
N79 N78 1.365 . S
N79 H99 0.862 . S
C80 C75 1.501 . S
C80 H81 0.961 . S
C80 H82 0.961 . S
C80 H83 0.960 . S
H81 C80 0.961 . S
H82 C80 0.961 . S
H83 C80 0.960 . S
C84 N85 1.342 . S
C84 C88 1.401 . S
C84 C89 1.499 . S
N85 Co68 1.989 . S
N85 C84 1.342 . S
N85 N86 1.388 . S
N86 Co69 1.993 1_455 S
N86 N85 1.388 . S
N86 C87 1.346 . S
C87 N86 1.346 . S
C87 C88 1.396 . S
C87 C97 1.510 . S
C88 C84 1.401 . S
C88 C87 1.396 . S
C89 C84 1.499 . S
C89 H90 0.959 . S
C89 H91 0.960 . S
C89 H92 0.961 . S
H90 C89 0.959 . S
H91 C89 0.960 . S
H92 C89 0.961 . S
O93 Co68 1.967 . S
O93 C101 1.258 . S
O94 Co69 1.941 . S
O94 C101 1.266 1_655 S
H95 C97 0.959 . S
H96 C97 0.961 . S
C97 C87 1.510 . S
C97 H95 0.959 . S
C97 H96 0.961 . S
C97 H98 0.960 . S
H98 C97 0.960 . S
H99 N79 0.862 . S
O100 Co68 1.920 . S
O100 C73 1.289 . S
C101 O93 1.258 . S
C101 O94 1.266 1_455 S
Co102 O105 1.970 . S
Co102 N119 1.989 . S
Co102 O127 1.967 . S
Co102 O134 1.920 . S
Co103 O106 1.966 . S
Co103 N112 2.022 . S
Co103 N120 1.993 . S
Co103 O128 1.941 . S
C104 O105 1.258 . S
C104 O106 1.263 . S
O105 Co102 1.970 . S
O105 C104 1.258 . S
O106 Co103 1.966 . S
O106 C104 1.263 . S
C107 O108 1.235 . S
C107 O134 1.289 . S
O108 C107 1.235 . S
C109 C111 1.400 . S
C109 N112 1.351 . S
C109 C114 1.501 . S
C110 C111 1.387 . S
C110 N113 1.341 . S
C111 C109 1.400 . S
C111 C110 1.387 . S
N112 Co103 2.022 . S
N112 C109 1.351 . S
N112 N113 1.365 . S
N113 C110 1.341 . S
N113 N112 1.365 . S
N113 H133 0.862 . S
C114 C109 1.501 . S
C114 H115 0.961 . S
C114 H116 0.961 . S
C114 H117 0.960 . S
H115 C114 0.961 . S
H116 C114 0.961 . S
H117 C114 0.960 . S
C118 N119 1.342 . S
C118 C122 1.401 . S
C118 C123 1.499 . S
N119 Co102 1.989 . S
N119 C118 1.342 . S
N119 N120 1.388 . S
N120 Co103 1.993 . S
N120 N119 1.388 . S
N120 C121 1.346 . S
C121 N120 1.346 . S
C121 C122 1.396 . S
C121 C131 1.510 . S
C122 C118 1.401 . S
C122 C121 1.396 . S
C123 C118 1.499 . S
C123 H124 0.959 . S
C123 H125 0.960 . S
C123 H126 0.961 . S
H124 C123 0.959 . S
H125 C123 0.960 . S
H126 C123 0.961 . S
O127 Co102 1.967 . S
O127 C135 1.258 . S
O128 Co103 1.941 . S
O128 C135 1.266 . S
H129 C131 0.959 . S
H130 C131 0.961 . S
C131 C121 1.510 . S
C131 H129 0.959 . S
C131 H130 0.961 . S
C131 H132 0.960 . S
H132 C131 0.960 . S
H133 N113 0.862 . S
O134 Co102 1.920 . S
O134 C107 1.289 . S
C135 O127 1.258 . S
C135 O128 1.266 . S
Co136 O139 1.970 . S
Co136 N153 1.989 . S
Co136 O161 1.967 . S
Co136 O168 1.920 . S
Co137 O140 1.966 . S
Co137 N146 2.022 . S
Co137 N154 1.993 . S
Co137 O162 1.941 . S
C138 O139 1.258 . S
C138 O140 1.263 . S
O139 Co136 1.970 . S
O139 C138 1.258 . S
O140 Co137 1.966 . S
O140 C138 1.263 . S
C141 O142 1.235 . S
C141 O168 1.289 . S
O142 C141 1.235 . S
C143 C145 1.400 . S
C143 N146 1.351 . S
C143 C148 1.501 . S
C144 C145 1.387 . S
C144 N147 1.341 . S
C145 C143 1.400 . S
C145 C144 1.387 . S
N146 Co137 2.022 . S
N146 C143 1.351 . S
N146 N147 1.365 . S
N147 C144 1.341 . S
N147 N146 1.365 . S
N147 H167 0.862 . S
C148 C143 1.501 . S
C148 H149 0.961 . S
C148 H150 0.961 . S
C148 H151 0.960 . S
H149 C148 0.961 . S
H150 C148 0.961 . S
H151 C148 0.960 . S
C152 N153 1.342 . S
C152 C156 1.401 . S
C152 C157 1.499 . S
N153 Co136 1.989 . S
N153 C152 1.342 . S
N153 N154 1.388 . S
N154 Co137 1.993 . S
N154 N153 1.388 . S
N154 C155 1.346 . S
C155 N154 1.346 . S
C155 C156 1.396 . S
C155 C165 1.510 . S
C156 C152 1.401 . S
C156 C155 1.396 . S
C157 C152 1.499 . S
C157 H158 0.959 . S
C157 H159 0.960 . S
C157 H160 0.961 . S
H158 C157 0.959 . S
H159 C157 0.960 . S
H160 C157 0.961 . S
O161 Co136 1.967 . S
O161 C169 1.258 . S
O162 Co137 1.941 . S
O162 C169 1.266 . S
H163 C165 0.959 . S
H164 C165 0.961 . S
C165 C155 1.510 . S
C165 H163 0.959 . S
C165 H164 0.961 . S
C165 H166 0.960 . S
H166 C165 0.960 . S
H167 N147 0.862 . S
O168 Co136 1.920 . S
O168 C141 1.289 . S
C169 O161 1.258 . S
C169 O162 1.266 . S
Co170 O173 1.970 . S
Co170 N187 1.989 1_655 S
Co170 O195 1.967 1_655 S
Co170 O202 1.920 . S
Co171 O174 1.966 . S
Co171 N180 2.022 . S
Co171 N188 1.993 . S
Co171 O196 1.941 . S
C172 O173 1.258 . S
C172 O174 1.263 1_655 S
O173 Co170 1.970 . S
O173 C172 1.258 . S
O174 Co171 1.966 . S
O174 C172 1.263 1_455 S
C175 O176 1.235 . S
C175 O202 1.289 . S
O176 C175 1.235 . S
C177 C179 1.400 . S
C177 N180 1.351 . S
C177 C182 1.501 . S
C178 C179 1.387 . S
C178 N181 1.341 . S
C179 C177 1.400 . S
C179 C178 1.387 . S
N180 Co171 2.022 . S
N180 C177 1.351 . S
N180 N181 1.365 . S
N181 C178 1.341 . S
N181 N180 1.365 . S
N181 H201 0.862 . S
C182 C177 1.501 . S
C182 H183 0.961 . S
C182 H184 0.961 . S
C182 H185 0.960 . S
H183 C182 0.961 . S
H184 C182 0.961 . S
H185 C182 0.960 . S
C186 N187 1.342 . S
C186 C190 1.401 . S
C186 C191 1.499 . S
N187 Co170 1.989 1_455 S
N187 C186 1.342 . S
N187 N188 1.388 . S
N188 Co171 1.993 . S
N188 N187 1.388 . S
N188 C189 1.346 . S
C189 N188 1.346 . S
C189 C190 1.396 . S
C189 C199 1.510 . S
C190 C186 1.401 . S
C190 C189 1.396 . S
C191 C186 1.499 . S
C191 H192 0.959 . S
C191 H193 0.960 . S
C191 H194 0.961 . S
H192 C191 0.959 . S
H193 C191 0.960 . S
H194 C191 0.961 . S
O195 Co170 1.967 1_455 S
O195 C203 1.258 . S
O196 Co171 1.941 . S
O196 C203 1.266 . S
H197 C199 0.959 . S
H198 C199 0.961 . S
C199 C189 1.510 . S
C199 H197 0.959 . S
C199 H198 0.961 . S
C199 H200 0.960 . S
H200 C199 0.960 . S
H201 N181 0.862 . S
O202 Co170 1.920 . S
O202 C175 1.289 . S
C203 O195 1.258 . S
C203 O196 1.266 . S
Co204 O207 1.970 . S
Co204 N221 1.989 . S
Co204 O229 1.967 . S
Co204 O236 1.920 . S
Co205 O208 1.966 . S
Co205 N214 2.022 . S
Co205 N222 1.993 . S
Co205 O230 1.941 . S
C206 O207 1.258 . S
C206 O208 1.263 . S
O207 Co204 1.970 . S
O207 C206 1.258 . S
O208 Co205 1.966 . S
O208 C206 1.263 . S
C209 O210 1.235 . S
C209 O236 1.289 . S
O210 C209 1.235 . S
C211 C213 1.400 . S
C211 N214 1.351 . S
C211 C216 1.501 . S
C212 C213 1.387 . S
C212 N215 1.341 . S
C213 C211 1.400 . S
C213 C212 1.387 . S
N214 Co205 2.022 . S
N214 C211 1.351 . S
N214 N215 1.365 . S
N215 C212 1.341 . S
N215 N214 1.365 . S
N215 H235 0.862 . S
C216 C211 1.501 . S
C216 H217 0.961 . S
C216 H218 0.961 . S
C216 H219 0.960 . S
H217 C216 0.961 . S
H218 C216 0.961 . S
H219 C216 0.960 . S
C220 N221 1.342 . S
C220 C224 1.401 . S
C220 C225 1.499 . S
N221 Co204 1.989 . S
N221 C220 1.342 . S
N221 N222 1.388 . S
N222 Co205 1.993 . S
N222 N221 1.388 . S
N222 C223 1.346 . S
C223 N222 1.346 . S
C223 C224 1.396 . S
C223 C233 1.510 . S
C224 C220 1.401 . S
C224 C223 1.396 . S
C225 C220 1.499 . S
C225 H226 0.959 . S
C225 H227 0.960 . S
C225 H228 0.961 . S
H226 C225 0.959 . S
H227 C225 0.960 . S
H228 C225 0.961 . S
O229 Co204 1.967 . S
O229 C237 1.258 . S
O230 Co205 1.941 . S
O230 C237 1.266 . S
H231 C233 0.959 . S
H232 C233 0.961 . S
C233 C223 1.510 . S
C233 H231 0.959 . S
C233 H232 0.961 . S
C233 H234 0.960 . S
H234 C233 0.960 . S
H235 N215 0.862 . S
O236 Co204 1.920 . S
O236 C209 1.289 . S
C237 O229 1.258 . S
C237 O230 1.266 . S
Co238 O241 1.976 . S
Co238 N255 1.978 1_655 S
Co238 O263 1.965 . S
Co238 O270 1.928 . S
Co239 O242 1.966 . S
Co239 N248 2.022 . S
Co239 N256 1.993 . S
Co239 O264 1.941 . S
C240 O241 1.258 . S
C240 O242 1.263 1_655 S
O241 Co238 1.976 . S
O241 C240 1.258 . S
O242 Co239 1.966 . S
O242 C240 1.263 1_455 S
C243 O244 1.235 . S
C243 O270 1.289 . S
O244 C243 1.235 . S
C245 C247 1.400 . S
C245 N248 1.351 . S
C245 C250 1.501 . S
C246 C247 1.387 . S
C246 N249 1.341 . S
C247 C245 1.400 . S
C247 C246 1.387 . S
N248 Co239 2.022 . S
N248 C245 1.351 . S
N248 N249 1.365 . S
N249 C246 1.341 . S
N249 N248 1.365 . S
N249 H269 0.862 . S
C250 C245 1.501 . S
C250 H251 0.961 . S
C250 H252 0.961 . S
C250 H253 0.960 . S
H251 C250 0.961 . S
H252 C250 0.961 . S
H253 C250 0.960 . S
C254 N255 1.342 . S
C254 C258 1.401 . S
C254 C259 1.499 . S
N255 Co238 1.978 1_455 S
N255 C254 1.342 . S
N255 N256 1.388 . S
N256 Co239 1.993 . S
N256 N255 1.388 . S
N256 C257 1.346 . S
C257 N256 1.346 . S
C257 C258 1.396 . S
C257 C267 1.510 . S
C258 C254 1.401 . S
C258 C257 1.396 . S
C259 C254 1.499 . S
C259 H260 0.959 . S
C259 H261 0.960 . S
C259 H262 0.961 . S
H260 C259 0.959 . S
H261 C259 0.960 . S
H262 C259 0.961 . S
O263 Co238 1.965 . S
O263 C271 1.256 1_655 S
O264 Co239 1.941 . S
O264 C271 1.266 . S
H265 C267 0.959 . S
H266 C267 0.961 . S
C267 C257 1.510 . S
C267 H265 0.959 . S
C267 H266 0.961 . S
C267 H268 0.960 . S
H268 C267 0.960 . S
H269 N249 0.862 . S
O270 Co238 1.928 . S
O270 C243 1.289 . S
C271 O263 1.256 1_455 S
C271 O264 1.266 . S
H272 C278 0.930 . S
H273 C282 0.930 . S
H274 C287 0.929 . S
H275 C285 0.929 . S
H276 C280 0.929 . S
H277 C286 0.929 . S
C278 H272 0.930 . S
C278 C279 1.367 . S
C278 C286 1.378 . S
C279 C278 1.367 . S
C279 C287 1.433 . S
C280 H276 0.929 . S
C280 C282 1.378 . S
C280 C284 1.350 . S
C281 C284 1.463 . S
C281 C286 1.350 . S
C281 N289 1.427 . S
C282 H273 0.930 . S
C282 C280 1.378 . S
C282 C283 1.367 . S
C283 C282 1.367 . S
C283 C285 1.433 . S
C284 C280 1.350 . S
C284 C281 1.463 . S
C284 N288 1.427 . S
C285 H275 0.929 . S
C285 C283 1.433 . S
C285 N288 1.384 . S
C286 H277 0.929 . S
C286 C278 1.378 . S
C286 C281 1.350 . S
C287 H274 0.929 . S
C287 C279 1.433 . S
C287 N289 1.384 . S
N288 C284 1.427 . S
N288 C285 1.384 . S
N289 C281 1.427 . S
N289 C287 1.384 . S
H290 C296 0.930 . S
H291 C300 0.930 . S
H292 C305 0.929 . S
H293 C303 0.929 . S
H294 C298 0.929 . S
H295 C304 0.929 . S
C296 H290 0.930 . S
C296 C297 1.367 . S
C296 C304 1.378 . S
C297 C296 1.367 . S
C297 C305 1.433 . S
C298 H294 0.929 . S
C298 C300 1.378 . S
C298 C302 1.350 . S
C299 C302 1.463 . S
C299 C304 1.350 . S
C299 N307 1.427 . S
C300 H291 0.930 . S
C300 C298 1.378 . S
C300 C301 1.367 . S
C301 C300 1.367 . S
C301 C303 1.433 . S
C302 C298 1.350 . S
C302 C299 1.463 . S
C302 N306 1.427 . S
C303 H293 0.929 . S
C303 C301 1.433 . S
C303 N306 1.384 . S
C304 H295 0.929 . S
C304 C296 1.378 . S
C304 C299 1.350 . S
C305 H292 0.929 . S
C305 C297 1.433 . S
C305 N307 1.384 . S
N306 C302 1.427 . S
N306 C303 1.384 . S
N307 C299 1.427 . S
N307 C305 1.384 . S
H308 C314 0.930 . S
H309 C318 0.930 . S
H310 C323 0.929 . S
H311 C321 0.929 . S
H312 C316 0.929 . S
H313 C322 0.929 . S
C314 H308 0.930 . S
C314 C315 1.367 . S
C314 C322 1.378 . S
C315 C314 1.367 . S
C315 C323 1.433 . S
C316 H312 0.929 . S
C316 C318 1.378 . S
C316 C320 1.350 . S
C317 C320 1.463 . S
C317 C322 1.350 . S
C317 N325 1.427 . S
C318 H309 0.930 . S
C318 C316 1.378 . S
C318 C319 1.367 . S
C319 C318 1.367 . S
C319 C321 1.433 . S
C320 C316 1.350 . S
C320 C317 1.463 . S
C320 N324 1.427 . S
C321 H311 0.929 . S
C321 C319 1.433 . S
C321 N324 1.384 . S
C322 H313 0.929 . S
C322 C314 1.378 . S
C322 C317 1.350 . S
C323 H310 0.929 . S
C323 C315 1.433 . S
C323 N325 1.384 . S
N324 C320 1.427 . S
N324 C321 1.384 . S
N325 C317 1.427 . S
N325 C323 1.384 . S
H326 C332 0.930 . S
H327 C336 0.930 . S
H328 C341 0.929 . S
H329 C339 0.929 . S
H330 C334 0.929 . S
H331 C340 0.929 . S
C332 H326 0.930 . S
C332 C333 1.367 . S
C332 C340 1.378 . S
C333 C332 1.367 . S
C333 C341 1.433 . S
C334 H330 0.929 . S
C334 C336 1.378 . S
C334 C338 1.350 . S
C335 C338 1.463 . S
C335 C340 1.350 . S
C335 N343 1.427 . S
C336 H327 0.930 . S
C336 C334 1.378 . S
C336 C337 1.367 . S
C337 C336 1.367 . S
C337 C339 1.433 . S
C338 C334 1.350 . S
C338 C335 1.463 . S
C338 N342 1.427 . S
C339 H329 0.929 . S
C339 C337 1.433 . S
C339 N342 1.384 . S
C340 H331 0.929 . S
C340 C332 1.378 . S
C340 C335 1.350 . S
C341 H328 0.929 . S
C341 C333 1.433 . S
C341 N343 1.384 . S
N342 C338 1.427 . S
N342 C339 1.384 . S
N343 C335 1.427 . S
N343 C341 1.384 . S
H344 C350 0.930 . S
H345 C354 0.930 . S
H346 C359 0.929 . S
H347 C357 0.929 . S
H348 C352 0.929 . S
H349 C358 0.929 . S
C350 H344 0.930 . S
C350 C351 1.367 . S
C350 C358 1.378 . S
C351 C350 1.367 . S
C351 C359 1.433 . S
C352 H348 0.929 . S
C352 C354 1.378 . S
C352 C356 1.350 . S
C353 C356 1.463 . S
C353 C358 1.350 . S
C353 N361 1.427 . S
C354 H345 0.930 . S
C354 C352 1.378 . S
C354 C355 1.367 . S
C355 C354 1.367 . S
C355 C357 1.433 . S
C356 C352 1.350 . S
C356 C353 1.463 . S
C356 N360 1.427 . S
C357 H347 0.929 . S
C357 C355 1.433 . S
C357 N360 1.384 . S
C358 H349 0.929 . S
C358 C350 1.378 . S
C358 C353 1.350 . S
C359 H346 0.929 . S
C359 C351 1.433 . S
C359 N361 1.384 . S
N360 C356 1.427 . S
N360 C357 1.384 . S
N361 C353 1.427 . S
N361 C359 1.384 . S
H362 C368 0.930 . S
H363 C372 0.930 . S
H364 C377 0.929 . S
H365 C375 0.929 . S
H366 C370 0.929 . S
H367 C376 0.929 . S
C368 H362 0.930 . S
C368 C369 1.367 . S
C368 C376 1.378 . S
C369 C368 1.367 . S
C369 C377 1.433 . S
C370 H366 0.929 . S
C370 C372 1.378 . S
C370 C374 1.350 . S
C371 C374 1.463 . S
C371 C376 1.350 . S
C371 N379 1.427 . S
C372 H363 0.930 . S
C372 C370 1.378 . S
C372 C373 1.367 . S
C373 C372 1.367 . S
C373 C375 1.433 . S
C374 C370 1.350 . S
C374 C371 1.463 . S
C374 N378 1.427 . S
C375 H365 0.929 . S
C375 C373 1.433 . S
C375 N378 1.384 . S
C376 H367 0.929 . S
C376 C368 1.378 . S
C376 C371 1.350 . S
C377 H364 0.929 . S
C377 C369 1.433 . S
C377 N379 1.384 . S
N378 C374 1.427 . S
N378 C375 1.384 . S
N379 C371 1.427 . S
N379 C377 1.384 . S
H380 C386 0.930 . S
H381 C390 0.930 . S
H382 C395 0.929 . S
H383 C393 0.929 . S
H384 C388 0.929 . S
H385 C394 0.929 . S
C386 H380 0.930 . S
C386 C387 1.367 . S
C386 C394 1.378 . S
C387 C386 1.367 . S
C387 C395 1.433 . S
C388 H384 0.929 . S
C388 C390 1.378 . S
C388 C392 1.350 . S
C389 C392 1.463 . S
C389 C394 1.350 . S
C389 N397 1.427 . S
C390 H381 0.930 . S
C390 C388 1.378 . S
C390 C391 1.367 . S
C391 C390 1.367 . S
C391 C393 1.433 . S
C392 C388 1.350 . S
C392 C389 1.463 . S
C392 N396 1.427 . S
C393 H383 0.929 . S
C393 C391 1.433 . S
C393 N396 1.384 . S
C394 H385 0.929 . S
C394 C386 1.378 . S
C394 C389 1.350 . S
C395 H382 0.929 . S
C395 C387 1.433 . S
C395 N397 1.384 . S
N396 C392 1.427 . S
N396 C393 1.384 . S
N397 C389 1.427 . S
N397 C395 1.384 . S
H398 C404 0.930 . S
H399 C408 0.930 . S
H400 C413 0.929 . S
H401 C411 0.929 . S
H402 C406 0.929 . S
H403 C412 0.929 . S
C404 H398 0.930 . S
C404 C405 1.367 . S
C404 C412 1.378 . S
C405 C404 1.367 . S
C405 C413 1.433 . S
C406 H402 0.929 . S
C406 C408 1.378 . S
C406 C410 1.350 . S
C407 C410 1.463 . S
C407 C412 1.350 . S
C407 N415 1.427 . S
C408 H399 0.930 . S
C408 C406 1.378 . S
C408 C409 1.367 . S
C409 C408 1.367 . S
C409 C411 1.433 . S
C410 C406 1.350 . S
C410 C407 1.463 . S
C410 N414 1.427 . S
C411 H401 0.929 . S
C411 C409 1.433 . S
C411 N414 1.384 . S
C412 H403 0.929 . S
C412 C404 1.378 . S
C412 C407 1.350 . S
C413 H400 0.929 . S
C413 C405 1.433 . S
C413 N415 1.384 . S
N414 C410 1.427 . S
N414 C411 1.384 . S
N415 C407 1.427 . S
N415 C413 1.384 . S
H416 C422 0.930 1_655 S
H417 C426 0.930 . S
H418 C431 0.929 . S
H419 C429 0.929 . S
H420 C424 0.929 . S
H421 C430 0.929 1_655 S
C422 H416 0.930 1_455 S
C422 C423 1.367 . S
C422 C430 1.378 . S
C423 C422 1.367 . S
C423 C431 1.433 . S
C424 H420 0.929 . S
C424 C426 1.378 . S
C424 C428 1.350 . S
C425 C428 1.463 . S
C425 C430 1.350 . S
C425 N433 1.427 . S
C426 H417 0.930 . S
C426 C424 1.378 . S
C426 C427 1.367 . S
C427 C426 1.367 . S
C427 C429 1.433 . S
C428 C424 1.350 . S
C428 C425 1.463 . S
C428 N432 1.427 . S
C429 H419 0.929 . S
C429 C427 1.433 . S
C429 N432 1.384 . S
C430 H421 0.929 1_455 S
C430 C422 1.378 . S
C430 C425 1.350 . S
C431 H418 0.929 . S
C431 C423 1.433 . S
C431 N433 1.384 . S
N432 C428 1.427 . S
N432 C429 1.384 . S
N433 C425 1.427 . S
N433 C431 1.384 . S
H434 C440 0.930 . S
H435 C444 0.930 . S
H436 C449 0.929 . S
H437 C447 0.929 . S
H438 C442 0.929 . S
H439 C448 0.929 . S
C440 H434 0.930 . S
C440 C441 1.367 . S
C440 C448 1.378 . S
C441 C440 1.367 . S
C441 C449 1.433 . S
C442 H438 0.929 . S
C442 C444 1.378 . S
C442 C446 1.350 . S
C443 C446 1.463 1_556 S
C443 C448 1.350 . S
C443 N451 1.427 . S
C444 H435 0.930 . S
C444 C442 1.378 . S
C444 C445 1.367 . S
C445 C444 1.367 . S
C445 C447 1.433 . S
C446 C442 1.350 . S
C446 C443 1.463 1_554 S
C446 N450 1.427 1_554 S
C447 H437 0.929 . S
C447 C445 1.433 . S
C447 N450 1.384 1_554 S
C448 H439 0.929 . S
C448 C440 1.378 . S
C448 C443 1.350 . S
C449 H436 0.929 . S
C449 C441 1.433 . S
C449 N451 1.384 . S
N450 C446 1.427 1_556 S
N450 C447 1.384 1_556 S
N451 C443 1.427 . S
N451 C449 1.384 . S
H452 C458 0.930 . S
H453 C462 0.930 . S
H454 C467 0.929 . S
H455 C465 0.929 . S
H456 C460 0.929 . S
H457 C466 0.929 . S
C458 H452 0.930 . S
C458 C459 1.367 . S
C458 C466 1.378 . S
C459 C458 1.367 . S
C459 C467 1.433 . S
C460 H456 0.929 . S
C460 C462 1.378 . S
C460 C464 1.350 . S
C461 C464 1.463 1_545 S
C461 C466 1.350 . S
C461 N469 1.427 . S
C462 H453 0.930 . S
C462 C460 1.378 . S
C462 C463 1.367 . S
C463 C462 1.367 . S
C463 C465 1.433 . S
C464 C460 1.350 . S
C464 C461 1.463 1_565 S
C464 N468 1.427 . S
C465 H455 0.929 . S
C465 C463 1.433 . S
C465 N468 1.384 . S
C466 H457 0.929 . S
C466 C458 1.378 . S
C466 C461 1.350 . S
C467 H454 0.929 . S
C467 C459 1.433 . S
C467 N469 1.384 . S
N468 C464 1.427 . S
N468 C465 1.384 . S
N469 C461 1.427 . S
N469 C467 1.384 . S
H470 C476 0.930 . S
H471 C480 0.930 . S
H472 C485 0.934 . S
H473 C483 0.929 . S
H474 C478 0.929 1_565 S
H475 C484 0.929 1_545 S
C476 H470 0.930 . S
C476 C477 1.367 . S
C476 C484 1.378 . S
C477 C476 1.367 . S
C477 C485 1.433 . S
C478 H474 0.929 1_545 S
C478 C480 1.378 . S
C478 C482 1.350 . S
C479 C482 1.463 1_564 S
C479 C484 1.350 . S
C479 N487 1.427 1_554 S
C480 H471 0.930 . S
C480 C478 1.378 . S
C480 C481 1.367 . S
C481 C480 1.367 . S
C481 C483 1.433 . S
C482 C478 1.350 . S
C482 C479 1.463 1_546 S
C482 N486 1.427 . S
C483 H473 0.929 . S
C483 C481 1.433 . S
C483 N486 1.384 . S
C484 H475 0.929 1_565 S
C484 C476 1.378 . S
C484 C479 1.350 . S
C485 H472 0.934 . S
C485 C477 1.433 . S
C485 N487 1.384 1_554 S
N486 C482 1.427 . S
N486 C483 1.384 . S
N487 C479 1.427 1_556 S
N487 C485 1.384 1_556 S
H488 C494 0.930 . S
H489 C498 0.930 . S
H490 C503 0.929 . S
H491 C501 0.929 . S
H492 C496 0.929 . S
H493 C502 0.929 . S
C494 H488 0.930 . S
C494 C495 1.367 . S
C494 C502 1.378 . S
C495 C494 1.367 . S
C495 C503 1.433 . S
C496 H492 0.929 . S
C496 C498 1.378 . S
C496 C500 1.350 . S
C497 C500 1.463 . S
C497 C502 1.350 . S
C497 N505 1.427 . S
C498 H489 0.930 . S
C498 C496 1.378 . S
C498 C499 1.367 . S
C499 C498 1.367 . S
C499 C501 1.433 . S
C500 C496 1.350 . S
C500 C497 1.463 . S
C500 N504 1.427 . S
C501 H491 0.929 . S
C501 C499 1.433 . S
C501 N504 1.384 . S
C502 H493 0.929 . S
C502 C494 1.378 . S
C502 C497 1.350 . S
C503 H490 0.929 . S
C503 C495 1.433 . S
C503 N505 1.384 . S
N504 C500 1.427 . S
N504 C501 1.384 . S
N505 C497 1.427 . S
N505 C503 1.384 . S
H506 C512 0.930 . S
H507 C516 0.930 . S
H508 C521 0.929 . S
H509 C519 0.929 . S
H510 C514 0.929 . S
H511 C520 0.929 . S
C512 H506 0.930 . S
C512 C513 1.367 . S
C512 C520 1.378 . S
C513 C512 1.367 . S
C513 C521 1.433 . S
C514 H510 0.929 . S
C514 C516 1.378 1_556 S
C514 C518 1.350 . S
C515 C518 1.463 . S
C515 C520 1.350 . S
C515 N523 1.427 . S
C516 H507 0.930 . S
C516 C514 1.378 1_554 S
C516 C517 1.367 . S
C517 C516 1.367 . S
C517 C519 1.433 . S
C518 C514 1.350 . S
C518 C515 1.463 . S
C518 N522 1.427 . S
C519 H509 0.929 . S
C519 C517 1.433 . S
C519 N522 1.384 1_554 S
C520 H511 0.929 . S
C520 C512 1.378 . S
C520 C515 1.350 . S
C521 H508 0.929 . S
C521 C513 1.433 . S
C521 N523 1.384 . S
N522 C518 1.427 . S
N522 C519 1.384 1_556 S
N523 C515 1.427 . S
N523 C521 1.384 . S
H524 C530 0.930 . S
H525 C534 0.930 . S
H526 C539 0.929 . S
H527 C537 0.929 . S
H528 C532 0.929 . S
H529 C538 0.929 . S
C530 H524 0.930 . S
C530 C531 1.367 . S
C530 C538 1.378 . S
C531 C530 1.367 . S
C531 C539 1.433 . S
C532 H528 0.929 . S
C532 C534 1.378 . S
C532 C536 1.350 . S
C533 C536 1.463 . S
C533 C538 1.350 . S
C533 N541 1.427 . S
C534 H525 0.930 . S
C534 C532 1.378 . S
C534 C535 1.367 . S
C535 C534 1.367 . S
C535 C537 1.433 . S
C536 C532 1.350 . S
C536 C533 1.463 . S
C536 N540 1.427 . S
C537 H527 0.929 . S
C537 C535 1.433 . S
C537 N540 1.384 . S
C538 H529 0.929 . S
C538 C530 1.378 . S
C538 C533 1.350 . S
C539 H526 0.929 . S
C539 C531 1.433 . S
C539 N541 1.384 . S
N540 C536 1.427 . S
N540 C537 1.384 . S
N541 C533 1.427 . S
N541 C539 1.384 . S
H542 C548 0.930 . S
H543 C552 0.930 1_556 S
H544 C557 0.929 . S
H545 C555 0.929 . S
H546 C550 0.929 . S
H547 C556 0.929 . S
C548 H542 0.930 . S
C548 C549 1.367 1_554 S
C548 C556 1.378 . S
C549 C548 1.367 1_556 S
C549 C557 1.433 . S
C550 H546 0.929 . S
C550 C552 1.378 1_556 S
C550 C554 1.350 1_556 S
C551 C554 1.463 . S
C551 C556 1.350 . S
C551 N559 1.427 1_554 S
C552 H543 0.930 1_554 S
C552 C550 1.378 1_554 S
C552 C553 1.367 . S
C553 C552 1.367 . S
C553 C555 1.433 . S
C554 C550 1.350 1_554 S
C554 C551 1.463 . S
C554 N558 1.427 . S
C555 H545 0.929 . S
C555 C553 1.433 . S
C555 N558 1.384 . S
C556 H547 0.929 . S
C556 C548 1.378 . S
C556 C551 1.350 . S
C557 H544 0.929 . S
C557 C549 1.433 . S
C557 N559 1.384 . S
N558 C554 1.427 . S
N558 C555 1.384 . S
N559 C551 1.427 1_556 S
N559 C557 1.384 . S
H560 C566 0.930 . S
H561 C570 0.930 . S
H562 C575 0.929 . S
H563 C573 0.929 . S
H564 C568 0.929 . S
H565 C574 0.929 . S
C566 H560 0.930 . S
C566 C567 1.367 . S
C566 C574 1.378 . S
C567 C566 1.367 . S
C567 C575 1.433 . S
C568 H564 0.929 . S
C568 C570 1.378 . S
C568 C572 1.350 . S
C569 C572 1.463 . S
C569 C574 1.350 . S
C569 N577 1.427 . S
C570 H561 0.930 . S
C570 C568 1.378 . S
C570 C571 1.367 . S
C571 C570 1.367 . S
C571 C573 1.433 . S
C572 C568 1.350 . S
C572 C569 1.463 . S
C572 N576 1.427 . S
C573 H563 0.929 . S
C573 C571 1.433 . S
C573 N576 1.384 . S
C574 H565 0.929 . S
C574 C566 1.378 . S
C574 C569 1.350 . S
C575 H562 0.929 . S
C575 C567 1.433 . S
C575 N577 1.384 . S
N576 C572 1.427 . S
N576 C573 1.384 . S
N577 C569 1.427 . S
N577 C575 1.384 . S
H578 C584 0.930 . S
H579 C588 0.930 . S
H580 C593 0.929 . S
H581 C591 0.929 . S
H582 C586 0.929 . S
H583 C592 0.929 . S
C584 H578 0.930 . S
C584 C585 1.367 1_556 S
C584 C592 1.378 . S
C585 C584 1.367 1_554 S
C585 C593 1.433 . S
C586 H582 0.929 . S
C586 C588 1.378 . S
C586 C590 1.350 . S
C587 C590 1.463 . S
C587 C592 1.350 . S
C587 N595 1.427 1_556 S
C588 H579 0.930 . S
C588 C586 1.378 . S
C588 C589 1.367 . S
C589 C588 1.367 . S
C589 C591 1.433 . S
C590 C586 1.350 . S
C590 C587 1.463 . S
C590 N594 1.427 . S
C591 H581 0.929 . S
C591 C589 1.433 . S
C591 N594 1.384 . S
C592 H583 0.929 . S
C592 C584 1.378 . S
C592 C587 1.350 . S
C593 H580 0.929 . S
C593 C585 1.433 . S
C593 N595 1.384 . S
N594 C590 1.427 . S
N594 C591 1.384 . S
N595 C587 1.427 1_554 S
N595 C593 1.384 . S
H596 C602 0.930 . S
H597 C606 0.930 . S
H598 C611 0.929 . S
H599 C609 0.929 . S
H600 C604 0.929 . S
H601 C610 0.929 . S
C602 H596 0.930 . S
C602 C603 1.367 . S
C602 C610 1.378 . S
C603 C602 1.367 . S
C603 C611 1.433 . S
C604 H600 0.929 . S
C604 C606 1.378 . S
C604 C608 1.350 . S
C605 C608 1.463 . S
C605 C610 1.350 . S
C605 N613 1.427 . S
C606 H597 0.930 . S
C606 C604 1.378 . S
C606 C607 1.367 . S
C607 C606 1.367 . S
C607 C609 1.433 . S
C608 C604 1.350 . S
C608 C605 1.463 . S
C608 N612 1.427 . S
C609 H599 0.929 . S
C609 C607 1.433 . S
C609 N612 1.384 . S
C610 H601 0.929 . S
C610 C602 1.378 . S
C610 C605 1.350 . S
C611 H598 0.929 . S
C611 C603 1.433 . S
C611 N613 1.384 . S
N612 C608 1.427 . S
N612 C609 1.384 . S
N613 C605 1.427 . S
N613 C611 1.384 . S
H614 C620 0.930 . S
H615 C624 0.930 . S
H616 C629 0.929 . S
H617 C627 0.929 . S
H618 C622 0.929 . S
H619 C628 0.929 . S
C620 H614 0.930 . S
C620 C621 1.367 . S
C620 C628 1.378 . S
C621 C620 1.367 . S
C621 C629 1.433 1_556 S
C622 H618 0.929 . S
C622 C624 1.378 . S
C622 C626 1.350 . S
C623 C626 1.463 . S
C623 C628 1.350 1_554 S
C623 N631 1.427 . S
C624 H615 0.930 . S
C624 C622 1.378 . S
C624 C625 1.367 . S
C625 C624 1.367 . S
C625 C627 1.433 . S
C626 C622 1.350 . S
C626 C623 1.463 . S
C626 N630 1.427 . S
C627 H617 0.929 . S
C627 C625 1.433 . S
C627 N630 1.384 . S
C628 H619 0.929 . S
C628 C620 1.378 . S
C628 C623 1.350 1_556 S
C629 H616 0.929 . S
C629 C621 1.433 1_554 S
C629 N631 1.384 . S
N630 C626 1.427 . S
N630 C627 1.384 . S
N631 C623 1.427 . S
N631 C629 1.384 . S
C279 C5 1.707 . S
C283 C107 1.670 . S
C297 C39 1.486 . S
C301 C88 1.539 . S
C315 C77 1.511 . S
C319 C54 1.535 . S
C333 C122 1.343 . S
C337 C20 1.342 . S
C351 C141 1.697 . S
C355 C243 1.682 . S
C369 C224 1.539 . S
C373 C175 1.485 . S
C387 C190 1.536 . S
C391 C213 1.512 . S
C405 C258 1.341 . S
C409 C156 1.339 . S
C423 C101 1.671 . S
C427 C33 1.654 . S
C441 C67 1.487 . S
C445 C135 1.471 . S
C459 C237 1.668 . S
C463 C169 1.646 . S
C477 C271 1.469 . S
C481 C203 1.488 . S
C495 C2 1.967 . S
C499 C206 1.967 . S
C513 C36 1.204 . S
C517 C247 1.176 . S
C531 C73 1.347 . S
C535 C145 1.345 . S
C549 C179 1.594 . S
C553 C104 1.627 . S
C567 C70 1.967 . S
C571 C138 1.967 . S
C585 C111 1.160 . S
C589 C172 1.201 . S
C603 C9 1.357 . S
C607 C209 1.332 . S
C621 C43 1.600 . S
C625 C240 1.624 . S
