# Generated by pormake.
# Topology umh, (4)-cn, num edge types: 1
# Building blocks:
#     Node 0, Type 0, BuildingBlock: ESEHIV_clean_sbu_0, # of connection points: 4
#     Node 1, Type 0, BuildingBlock: ESEHIV_clean_sbu_0, # of connection points: 4
#     Node 2, Type 0, BuildingBlock: ESEHIV_clean_sbu_0, # of connection points: 4
#     Node 3, Type 0, BuildingBlock: ESEHIV_clean_sbu_0, # of connection points: 4
#     Node 4, Type 0, BuildingBlock: ESEHIV_clean_sbu_0, # of connection points: 4
#     Node 5, Type 0, BuildingBlock: ESEHIV_clean_sbu_0, # of connection points: 4
#     Node 6, Type 0, BuildingBlock: ESEHIV_clean_sbu_0, # of connection points: 4
#     Node 7, Type 0, BuildingBlock: ESEHIV_clean_sbu_0, # of connection points: 4
#     Node 8, Type 0, BuildingBlock: ESEHIV_clean_sbu_0, # of connection points: 4
#     Node 9, Type 0, BuildingBlock: ESEHIV_clean_sbu_0, # of connection points: 4
#     Node 10, Type 0, BuildingBlock: ESEHIV_clean_sbu_0, # of connection points: 4
#     Node 11, Type 0, BuildingBlock: ESEHIV_clean_sbu_0, # of connection points: 4
#     Node 12, Type 0, BuildingBlock: ESEHIV_clean_sbu_0, # of connection points: 4
#     Node 13, Type 0, BuildingBlock: ESEHIV_clean_sbu_0, # of connection points: 4
#     Node 14, Type 0, BuildingBlock: ESEHIV_clean_sbu_0, # of connection points: 4
#     Node 15, Type 0, BuildingBlock: ESEHIV_clean_sbu_0, # of connection points: 4
#     Edge 16, Type (0, 0), BuildingBlock: TEMPAE_clean_linker_10, # of connection points: 2
#     Edge 17, Type (0, 0), BuildingBlock: TEMPAE_clean_linker_10, # of connection points: 2
#     Edge 18, Type (0, 0), BuildingBlock: TEMPAE_clean_linker_10, # of connection points: 2
#     Edge 19, Type (0, 0), BuildingBlock: TEMPAE_clean_linker_10, # of connection points: 2
#     Edge 20, Type (0, 0), BuildingBlock: TEMPAE_clean_linker_10, # of connection points: 2
#     Edge 21, Type (0, 0), BuildingBlock: TEMPAE_clean_linker_10, # of connection points: 2
#     Edge 22, Type (0, 0), BuildingBlock: TEMPAE_clean_linker_10, # of connection points: 2
#     Edge 23, Type (0, 0), BuildingBlock: TEMPAE_clean_linker_10, # of connection points: 2
#     Edge 24, Type (0, 0), BuildingBlock: TEMPAE_clean_linker_10, # of connection points: 2
#     Edge 25, Type (0, 0), BuildingBlock: TEMPAE_clean_linker_10, # of connection points: 2
#     Edge 26, Type (0, 0), BuildingBlock: TEMPAE_clean_linker_10, # of connection points: 2
#     Edge 27, Type (0, 0), BuildingBlock: TEMPAE_clean_linker_10, # of connection points: 2
#     Edge 28, Type (0, 0), BuildingBlock: TEMPAE_clean_linker_10, # of connection points: 2
#     Edge 29, Type (0, 0), BuildingBlock: TEMPAE_clean_linker_10, # of connection points: 2
#     Edge 30, Type (0, 0), BuildingBlock: TEMPAE_clean_linker_10, # of connection points: 2
#     Edge 31, Type (0, 0), BuildingBlock: TEMPAE_clean_linker_10, # of connection points: 2
#     Edge 32, Type (0, 0), BuildingBlock: TEMPAE_clean_linker_10, # of connection points: 2
#     Edge 33, Type (0, 0), BuildingBlock: TEMPAE_clean_linker_10, # of connection points: 2
#     Edge 34, Type (0, 0), BuildingBlock: TEMPAE_clean_linker_10, # of connection points: 2
#     Edge 35, Type (0, 0), BuildingBlock: TEMPAE_clean_linker_10, # of connection points: 2
#     Edge 36, Type (0, 0), BuildingBlock: TEMPAE_clean_linker_10, # of connection points: 2
#     Edge 37, Type (0, 0), BuildingBlock: TEMPAE_clean_linker_10, # of connection points: 2
#     Edge 38, Type (0, 0), BuildingBlock: TEMPAE_clean_linker_10, # of connection points: 2
#     Edge 39, Type (0, 0), BuildingBlock: TEMPAE_clean_linker_10, # of connection points: 2
#     Edge 40, Type (0, 0), BuildingBlock: TEMPAE_clean_linker_10, # of connection points: 2
#     Edge 41, Type (0, 0), BuildingBlock: TEMPAE_clean_linker_10, # of connection points: 2
#     Edge 42, Type (0, 0), BuildingBlock: TEMPAE_clean_linker_10, # of connection points: 2
#     Edge 43, Type (0, 0), BuildingBlock: TEMPAE_clean_linker_10, # of connection points: 2
#     Edge 44, Type (0, 0), BuildingBlock: TEMPAE_clean_linker_10, # of connection points: 2
#     Edge 45, Type (0, 0), BuildingBlock: TEMPAE_clean_linker_10, # of connection points: 2
#     Edge 46, Type (0, 0), BuildingBlock: TEMPAE_clean_linker_10, # of connection points: 2
#     Edge 47, Type (0, 0), BuildingBlock: TEMPAE_clean_linker_10, # of connection points: 2
# Relax obj value: 0.058
# Max RMSD: 0.084
# Mean RMSD: 0.084
data_MOF--net-umh--node1-ESEHIV_clean_sbu_0--edge1-TEMPAE_clean_linker_10
_symmetry_space_group_name_H-M    P1
_symmetry_Int_Tables_number       1
_symmetry_cell_setting            triclinic
loop_
_symmetry_equiv_pos_as_xyz
'x, y, z'
_cell_length_a     47.812565
_cell_length_b     47.762705
_cell_length_c     53.019303
_cell_angle_alpha  89.862818
_cell_angle_beta   90.020758
_cell_angle_gamma 90.227976
loop_
_atom_site_label
_atom_site_type_symbol
_atom_site_fract_x
_atom_site_fract_y
_atom_site_fract_z
_atom_type_partial_charge
Cu0 Cu 0.35135 0.11004 0.14604 0.0
N1 N 0.35446 0.14915 0.14893 0.0
N2 N 0.3416 0.19403 0.15307 0.0
C3 C 0.33425 0.16693 0.15644 0.0
C4 C 0.36772 0.19323 0.14339 0.0
C5 C 0.37557 0.16557 0.14089 0.0
O6 O 0.32132 0.09857 0.16899 0.0
C7 C 0.33461 0.11799 0.09513 0.0
O8 O 0.32289 0.14058 0.10435 0.0
H9 H 0.31391 0.16016 0.16287 0.0
H10 H 0.39485 0.15794 0.1328 0.0
N11 N 0.38452 0.09342 0.15785 0.0
N12 N 0.42151 0.0652 0.16337 0.0
C13 C 0.40049 0.07298 0.14767 0.0
C14 C 0.39599 0.0988 0.18048 0.0
C15 C 0.41866 0.08153 0.18395 0.0
C16 C 0.29559 0.10516 0.16706 0.0
O17 O 0.28669 0.11712 0.14622 0.0
H18 H 0.39629 0.06341 0.12957 0.0
H19 H 0.38802 0.11395 0.19377 0.0
O20 O 0.34607 0.10068 0.11027 0.0
H21 H 0.38005 0.21127 0.13787 0.0
H22 H 0.43205 0.08103 0.20041 0.0
Cu23 Cu 0.42267 0.35841 0.6426 0.0
N24 N 0.40165 0.33038 0.62622 0.0
N25 N 0.36154 0.30817 0.61612 0.0
C26 C 0.37347 0.33044 0.62765 0.0
C27 C 0.38337 0.29351 0.60681 0.0
C28 C 0.40806 0.30718 0.61312 0.0
O29 O 0.41912 0.34816 0.67853 0.0
C30 C 0.41146 0.3955 0.60562 0.0
O31 O 0.42964 0.37831 0.59555 0.0
H32 H 0.36199 0.34674 0.63722 0.0
H33 H 0.42903 0.30027 0.60893 0.0
N34 N 0.46151 0.36207 0.63501 0.0
N35 N 0.50358 0.38312 0.63051 0.0
C36 C 0.4775 0.38479 0.64045 0.0
C37 C 0.47821 0.34533 0.62131 0.0
C38 C 0.50399 0.35821 0.61849 0.0
C39 C 0.43097 0.32479 0.68354 0.0
O40 O 0.44461 0.31229 0.66527 0.0
H41 H 0.46971 0.40276 0.65063 0.0
H42 H 0.47193 0.32551 0.6133 0.0
O43 O 0.40474 0.39204 0.62879 0.0
H44 H 0.38179 0.27384 0.59682 0.0
H45 H 0.52164 0.3499 0.60819 0.0
Cu46 Cu 0.19681 0.43873 0.14603 0.0
N47 N 0.19337 0.39991 0.15108 0.0
N48 N 0.20743 0.35528 0.15487 0.0
C49 C 0.21403 0.38254 0.1585 0.0
C50 C 0.1814 0.35556 0.14496 0.0
C51 C 0.17294 0.383 0.14245 0.0
O52 O 0.22199 0.45258 0.1723 0.0
C53 C 0.20477 0.46175 0.09515 0.0
O54 O 0.19745 0.48638 0.10377 0.0
H55 H 0.23435 0.38976 0.16458 0.0
H56 H 0.15406 0.39011 0.13327 0.0
N57 N 0.16228 0.45696 0.15072 0.0
N58 N 0.13031 0.49104 0.15449 0.0
C59 C 0.15721 0.48474 0.14905 0.0
C60 C 0.1378 0.44543 0.15789 0.0
C61 C 0.11809 0.46628 0.16012 0.0
C62 C 0.24791 0.44726 0.17485 0.0
O63 O 0.26136 0.43499 0.15634 0.0
H64 H 0.17313 0.50015 0.14472 0.0
H65 H 0.13448 0.42345 0.16169 0.0
O66 O 0.20825 0.44152 0.11057 0.0
H67 H 0.16972 0.33736 0.13883 0.0
H68 H 0.09639 0.46336 0.16534 0.0
Cu69 Cu 0.10186 0.19679 0.64318 0.0
N70 N 0.11869 0.2283 0.62815 0.0
N71 N 0.15677 0.25423 0.61888 0.0
C72 C 0.14672 0.22872 0.62528 0.0
C73 C 0.1338 0.27061 0.61725 0.0
C74 C 0.11035 0.25461 0.62318 0.0
O75 O 0.10979 0.203 0.67919 0.0
C76 C 0.11119 0.16587 0.60153 0.0
O77 O 0.09067 0.18249 0.59486 0.0
H78 H 0.15959 0.2106 0.62898 0.0
H79 H 0.08914 0.26207 0.62519 0.0
N80 N 0.06282 0.19024 0.63905 0.0
N81 N 0.02295 0.16501 0.63641 0.0
C82 C 0.04978 0.16574 0.64464 0.0
C83 C 0.04342 0.20568 0.62706 0.0
C84 C 1.01893 0.19021 0.62537 0.0
C85 C 0.09541 0.22299 0.68857 0.0
O86 O 0.07604 0.23451 0.6744 0.0
H87 H 0.0603 0.14819 0.65338 0.0
H88 H 0.04715 0.22624 0.61912 0.0
O89 O 0.12029 0.16693 0.62422 0.0
H90 H 0.13401 0.2929 0.61355 0.0
H91 H 0.99978 0.19685 0.61628 0.0
Cu92 Cu 0.3675 0.41331 0.38544 0.0
N93 N 0.37425 0.37461 0.38227 0.0
N94 N 0.36657 0.32811 0.38254 0.0
C95 C 0.35493 0.35388 0.3807 0.0
C96 C 0.39426 0.33294 0.38524 0.0
C97 C 0.39888 0.36147 0.38517 0.0
O98 O 0.33834 0.42245 0.36064 0.0
C99 C 0.35215 0.43899 0.43432 0.0
O100 O 0.34853 0.46332 0.42322 0.0
H101 H 0.33266 0.35768 0.37958 0.0
H102 H 0.41872 0.37191 0.3881 0.0
N103 N 0.40017 0.43419 0.37784 0.0
N104 N 0.43084 0.46981 0.37364 0.0
C105 C 0.4074 0.46034 0.38535 0.0
C106 C 0.41986 0.42686 0.36103 0.0
C107 C 0.43875 0.44855 0.3585 0.0
C108 C 0.33813 0.44523 0.348 0.0
O109 O 0.35536 0.46547 0.35441 0.0
H110 H 0.39492 0.4727 0.3981 0.0
H111 H 0.41999 0.40738 0.35069 0.0
O112 O 0.3582 0.41758 0.42115 0.0
H113 H 0.41008 0.317 0.38759 0.0
H114 H 0.45674 0.44865 0.34614 0.0
Cu115 Cu 0.11724 0.35974 0.89563 0.0
N116 N 0.13529 0.3308 0.91341 0.0
N117 N 0.17258 0.30514 0.92483 0.0
C118 C 0.16207 0.324 0.90836 0.0
C119 C 0.15133 0.29985 0.94104 0.0
C120 C 0.12837 0.31572 0.93396 0.0
O121 O 0.12224 0.34885 0.85991 0.0
C122 C 0.12913 0.39661 0.9327 0.0
O123 O 0.1093 0.38066 0.9422 0.0
H124 H 0.17399 0.33385 0.89341 0.0
H125 H 0.10846 0.31684 0.94357 0.0
N126 N 0.07822 0.36469 0.90135 0.0
N127 N 0.03624 0.38599 0.90335 0.0
C128 C 0.06414 0.38924 0.89971 0.0
C129 C 0.05848 0.34529 0.90636 0.0
C130 C 0.0327 0.35828 0.90749 0.0
C131 C 0.11367 0.32383 0.85565 0.0
O132 O 0.10207 0.31002 0.8744 0.0
H133 H 0.07414 0.40905 0.8954 0.0
H134 H 0.06247 0.32319 0.90883 0.0
O135 O 0.13644 0.3926 0.90977 0.0
H136 H 0.15233 0.28578 0.95704 0.0
H137 H 1.01287 0.3481 0.91128 0.0
Cu138 Cu 0.19798 0.0979 0.3843 0.0
N139 N 0.23584 0.10785 0.38753 0.0
N140 N 0.27114 0.13908 0.38697 0.0
C141 C 0.24388 0.13445 0.39234 0.0
C142 C 0.2807 0.11419 0.37855 0.0
C143 C 0.25888 0.09502 0.37881 0.0
O144 O 0.19005 0.10901 0.3493 0.0
C145 C 0.18868 0.107 0.43377 0.0
O146 O 0.20937 0.089 0.43328 0.0
H147 H 0.22929 0.15074 0.3975 0.0
H148 H 0.25928 0.07396 0.37136 0.0
N149 N 0.18823 0.05969 0.38812 0.0
N150 N 0.15953 1.02242 0.39034 0.0
C151 C 0.16256 0.0493 0.38281 0.0
C152 C 0.20203 0.03849 0.39929 0.0
C153 C 0.18432 1.01553 0.40082 0.0
C154 C 0.1968 0.09095 0.33259 0.0
O155 O 0.20477 0.06599 0.34001 0.0
H156 H 0.14596 0.0617 0.37461 0.0
H157 H 0.22307 0.03994 0.40669 0.0
O158 O 0.17928 0.11622 0.41274 0.0
H159 H 0.30162 0.1104 0.37158 0.0
H160 H 0.18913 0.99549 0.40931 0.0
Cu161 Cu 0.4268 0.18355 0.89029 0.0
N162 N 0.40962 0.21294 0.90812 0.0
N163 N 0.37256 0.23795 0.92115 0.0
C164 C 0.3816 0.21606 0.9073 0.0
C165 C 0.39609 0.24919 0.93112 0.0
C166 C 0.4189 0.23366 0.92315 0.0
O167 O 0.42141 0.19464 0.85474 0.0
C168 C 0.41459 0.14828 0.92812 0.0
O169 O 0.43456 0.1646 0.93676 0.0
H170 H 0.36812 0.20255 0.89629 0.0
H171 H 0.44054 0.2373 0.92806 0.0
N172 N 0.46562 0.17674 0.89581 0.0
N173 N 0.50556 0.1521 0.89981 0.0
C174 C 0.47882 0.15216 0.89128 0.0
C175 C 0.48489 0.19287 0.90735 0.0
C176 C 0.50937 0.17778 0.90989 0.0
C177 C 0.43336 0.21806 0.84974 0.0
O178 O 0.44837 0.22977 0.86762 0.0
H179 H 0.46855 0.1342 0.88292 0.0
H180 H 0.48127 0.21386 0.91411 0.0
O181 O 0.40692 0.15143 0.90514 0.0
H182 H 0.39682 0.26713 0.94353 0.0
H183 H 0.52846 0.18509 0.91872 0.0
Cu184 Cu 0.68008 0.91859 0.89467 0.0
N185 N 0.70727 0.90051 0.91454 0.0
N186 N 0.73046 0.86268 0.9286 0.0
C187 C 0.70941 0.87236 0.91405 0.0
C188 C 0.74215 0.8859 0.93875 0.0
C189 C 0.7277 0.90922 0.93015 0.0
O190 O 0.69344 0.91273 0.85987 0.0
C191 C 0.63981 0.90736 0.92903 0.0
O192 O 0.65324 0.92878 0.93878 0.0
H193 H 0.69604 0.85926 0.90253 0.0
H194 H 0.73204 0.93087 0.9347 0.0
N195 N 0.67426 0.95773 0.89935 0.0
N196 N 0.65182 0.9992 0.90015 0.0
C197 C 0.64949 0.97119 0.89662 0.0
C198 C 0.69287 0.97804 0.90484 0.0
C199 C 0.67918 1.00352 0.90524 0.0
C200 C 0.71835 0.92197 0.85656 0.0
O201 O 0.7306 0.93464 0.87556 0.0
H202 H 0.63014 0.96062 0.89183 0.0
H203 H 0.7149 0.97467 0.90825 0.0
O204 O 0.64665 0.89909 0.90696 0.0
H205 H 0.75983 0.88607 0.95151 0.0
H206 H 0.68862 0.02366 0.90929 0.0
Cu207 Cu 0.60379 0.6986 0.37907 0.0
N208 N 0.61153 0.73668 0.38414 0.0
N209 N 0.64129 0.77297 0.38711 0.0
C210 C 0.63653 0.74739 0.37727 0.0
C211 C 0.61813 0.7788 0.40069 0.0
C212 C 0.59972 0.75638 0.39877 0.0
O213 O 0.62052 0.69261 0.34563 0.0
C214 C 0.60597 0.68507 0.42879 0.0
O215 O 0.58385 0.70117 0.42703 0.0
H216 H 0.65198 0.73552 0.36695 0.0
H217 H 0.58007 0.75395 0.40865 0.0
N218 N 0.56596 0.68716 0.37875 0.0
N219 N 0.52988 0.65682 0.37995 0.0
C220 C 0.55801 0.66003 0.37978 0.0
C221 C 0.54203 0.70186 0.37832 0.0
C222 C 0.51976 0.68322 0.37896 0.0
C223 C 0.60496 0.69264 0.32602 0.0
O224 O 0.57793 0.68884 0.32879 0.0
H225 H 0.57282 0.64297 0.3801 0.0
H226 H 0.54086 0.72447 0.37775 0.0
O227 O 0.61991 0.68002 0.40871 0.0
H228 H 0.61517 0.79737 0.41202 0.0
H229 H 0.49785 0.6888 0.3791 0.0
Cu230 Cu 0.84774 0.60697 0.89807 0.0
N231 N 0.81814 0.62363 0.91592 0.0
N232 N 0.79287 0.66083 0.92834 0.0
C233 C 0.81055 0.65026 0.91092 0.0
C234 C 0.78914 0.6397 0.94509 0.0
C235 C 0.80484 0.61686 0.93746 0.0
O236 O 0.83751 0.61326 0.86252 0.0
C237 C 0.88509 0.61781 0.93536 0.0
O238 O 0.87173 0.59571 0.94392 0.0
H239 H 0.81949 0.66225 0.89555 0.0
H240 H 0.80751 0.5974 0.94761 0.0
N241 N 0.85454 0.56807 0.90281 0.0
N242 N 0.8795 0.52824 0.90605 0.0
C243 C 0.87898 0.55502 0.89754 0.0
C244 C 0.8389 0.54871 0.91482 0.0
C245 C 0.85421 0.52426 0.91688 0.0
C246 C 0.81334 0.60317 0.85735 0.0
O247 O 0.80027 0.58902 0.8751 0.0
H248 H 0.89663 0.5655 0.88881 0.0
H249 H 0.81825 0.5524 0.92239 0.0
O250 O 0.8794 0.62683 0.9132 0.0
H251 H 0.77663 0.64083 0.96205 0.0
H252 H 0.84735 0.50514 0.92602 0.0
Cu253 Cu 0.91796 0.85694 0.39299 0.0
N254 N 0.8796 0.86595 0.39176 0.0
N255 N 0.83291 0.86114 0.38948 0.0
C256 C 0.85802 0.84852 0.38652 0.0
C257 C 0.83902 0.88752 0.39679 0.0
C258 C 0.86769 0.89034 0.39835 0.0
O259 O 0.9239 0.82576 0.36972 0.0
C260 C 0.90998 0.83661 0.44303 0.0
O261 O 0.88621 0.82711 0.43399 0.0
H262 H 0.86071 0.82682 0.38122 0.0
H263 H 0.87905 0.90864 0.40469 0.0
N264 N 0.94019 0.88818 0.38371 0.0
N265 N 0.97596 0.91872 0.3812 0.0
C266 C 0.96763 0.89283 0.38863 0.0
C267 C 0.93115 0.91183 0.37255 0.0
C268 C 0.95301 0.93067 0.37112 0.0
C269 C 0.9248 0.83083 0.34611 0.0
O270 O 0.92309 0.85691 0.33836 0.0
H271 H 0.98096 0.87794 0.39822 0.0
H272 H 0.90996 0.91534 0.3662 0.0
O273 O 0.92743 0.84807 0.42802 0.0
H274 H 0.82382 0.90332 0.40173 0.0
H275 H 0.95212 0.95161 0.36331 0.0
Cu276 Cu 0.69337 0.6035 0.64134 0.0
N277 N 0.72512 0.6214 0.62774 0.0
N278 N 0.75081 0.66008 0.61979 0.0
C279 C 0.72566 0.64962 0.62673 0.0
C280 C 0.76681 0.63716 0.61589 0.0
C281 C 0.75095 0.61333 0.62092 0.0
O282 O 0.69778 0.61053 0.67773 0.0
C283 C 0.6651 0.61241 0.59855 0.0
O284 O 0.68342 0.59303 0.59282 0.0
H285 H 0.70775 0.6622 0.63172 0.0
H286 H 0.75813 0.59189 0.62068 0.0
N287 N 0.68733 0.56437 0.63694 0.0
N288 N 0.66275 0.52401 0.63472 0.0
C289 C 0.66175 0.55209 0.63812 0.0
C290 C 0.7052 0.54325 0.63244 0.0
C291 C 0.69016 0.51841 0.63122 0.0
C292 C 0.71891 0.59744 0.68669 0.0
O293 O 0.73283 0.58088 0.67151 0.0
H294 H 0.64273 0.56364 0.6417 0.0
H295 H 0.72756 0.54567 0.63019 0.0
O296 O 0.66403 0.6213 0.62129 0.0
H297 H 0.78874 0.63748 0.61087 0.0
H298 H 0.69876 0.49787 0.62764 0.0
Cu299 Cu 0.95039 0.71027 0.15005 0.0
N300 N 0.94203 0.7483 0.1469 0.0
N301 N 0.91305 0.78503 0.14739 0.0
C302 C 0.9171 0.75823 0.15446 0.0
C303 C 0.93657 0.7924 0.13485 0.0
C304 C 0.95452 0.76966 0.13465 0.0
O305 O 0.9331 0.7013 0.18264 0.0
C306 C 0.94803 0.69953 0.09957 0.0
O307 O 0.9694 0.71677 0.10142 0.0
H308 H 0.90143 0.74532 0.16361 0.0
H309 H 0.97457 0.76846 0.12529 0.0
N310 N 0.98863 0.70142 0.15079 0.0
N311 N 0.02648 0.67383 0.15079 0.0
C312 C 0.99857 0.67538 0.14705 0.0
C313 C 1.01102 0.71712 0.15692 0.0
C314 C 0.03441 0.70013 0.157 0.0
C315 C 0.94795 0.69706 0.20229 0.0
O316 O 0.9739 0.6888 0.19947 0.0
H317 H 0.98525 0.65764 0.14281 0.0
H318 H 1.01027 0.73911 0.16169 0.0
O319 O 0.9351 0.69258 0.11976 0.0
H320 H 0.94024 0.81246 0.1259 0.0
H321 H 0.05553 0.70661 0.16157 0.0
Cu322 Cu 0.85754 0.92414 0.64974 0.0
N323 N 0.82856 0.90448 0.63339 0.0
N324 N 0.80549 0.86511 0.62246 0.0
C325 C 0.82744 0.87631 0.63503 0.0
C326 C 0.79227 0.88748 0.61228 0.0
C327 C 0.80653 0.91172 0.61905 0.0
O328 O 0.84884 0.91804 0.68565 0.0
C329 C 0.89205 0.91434 0.61099 0.0
O330 O 0.87505 0.93397 0.60294 0.0
H331 H 0.84295 0.86431 0.64518 0.0
H332 H 0.80113 0.93296 0.61397 0.0
N333 N 0.86133 0.9635 0.64416 0.0
N334 N 0.882 1.00599 0.64166 0.0
C335 C 0.88558 0.97822 0.64589 0.0
C336 C 0.84178 0.9827 0.6384 0.0
C337 C 0.85438 1.0088 0.63702 0.0
C338 C 0.82547 0.92904 0.69186 0.0
O339 O 0.81173 0.94321 0.67464 0.0
H340 H 0.90547 0.96873 0.6505 0.0
H341 H 0.81985 0.97814 0.63544 0.0
O342 O 0.88995 0.90637 0.63396 0.0
H343 H 0.77339 0.88658 0.60106 0.0
H344 H 0.84403 0.02832 0.63258 0.0
Cu345 Cu 0.63781 0.86857 0.15071 0.0
N346 N 0.676 0.87731 0.15468 0.0
N347 N 0.72274 0.87307 0.15631 0.0
C348 C 0.69785 0.85947 0.15525 0.0
C349 C 0.71619 0.90054 0.15637 0.0
C350 C 0.68751 0.90306 0.15521 0.0
O351 O 0.62873 0.83775 0.17382 0.0
C352 C 0.61204 0.85161 0.10278 0.0
O353 O 0.58937 0.84422 0.11515 0.0
H354 H 0.6956 0.83698 0.1546 0.0
H355 H 0.6759 0.9224 0.15405 0.0
N356 N 0.61637 0.90004 0.15991 0.0
N357 N 0.58454 0.93446 0.16165 0.0
C358 C 0.59292 0.91098 0.14949 0.0
C359 C 0.62255 0.91693 0.17941 0.0
C360 C 0.6032 0.93813 0.18044 0.0
C361 C 0.63783 0.81277 0.17214 0.0
O362 O 0.65215 0.80547 0.15208 0.0
H363 H 0.58248 0.90221 0.13318 0.0
H364 H 0.64009 0.91402 0.19203 0.0
O365 O 0.63316 0.86085 0.11486 0.0
H366 H 0.73107 0.91767 0.15628 0.0
H367 H 0.60266 0.95479 0.19424 0.0
C368 C 0.37034 0.12754 0.9464 0.0
C369 C 0.39949 0.13084 0.94692 0.0
C370 C 0.3557 0.11906 0.9683 0.0
C371 C 0.37055 0.11464 0.99118 0.0
C372 C 0.40014 0.11526 0.99088 0.0
C373 C 0.41415 0.12287 0.96869 0.0
C374 C 0.32426 0.11694 0.96738 0.0
C375 C 0.41708 0.11094 1.01464 0.0
C376 C 0.34167 0.14084 0.05334 0.0
C377 C 0.33946 0.11609 0.0675 0.0
C378 C 0.35029 0.14045 0.02805 0.0
C379 C 0.35587 0.11452 1.01612 0.0
C380 C 0.35141 0.08927 0.02973 0.0
C381 C 0.34395 0.09036 0.05546 0.0
C382 C 0.35543 0.16801 1.01472 0.0
C383 C 0.35564 0.0611 1.01757 0.0
H384 H 0.35883 0.13356 0.92964 0.0
H385 H 0.43675 0.12495 0.96906 0.0
H386 H 0.31654 0.09998 0.97996 0.0
H387 H 0.315 0.13693 0.97385 0.0
H388 H 0.31675 0.11293 0.94788 0.0
H389 H 0.43994 0.11082 1.01093 0.0
H390 H 0.41251 0.12799 0.02822 0.0
H391 H 0.41128 0.09088 0.02381 0.0
H392 H 0.33834 0.16083 0.06248 0.0
H393 H 0.34195 0.07112 0.0662 0.0
H394 H 0.34341 0.16888 0.99687 0.0
H395 H 0.37793 0.16998 1.00984 0.0
H396 H 0.34948 0.18628 0.02646 0.0
H397 H 0.35052 0.06169 0.99715 0.0
H398 H 0.34254 0.04479 0.02682 0.0
H399 H 0.37782 0.05478 0.0196 0.0
C400 C 0.36067 0.41126 0.47376 0.0
C401 C 0.35312 0.43674 0.46241 0.0
C402 C 0.36563 0.40927 0.4998 0.0
C403 C 0.36262 0.43326 0.51524 0.0
C404 C 0.35319 0.45861 0.50425 0.0
C405 C 0.34877 0.46013 0.47794 0.0
C406 C 0.37574 0.38176 0.51052 0.0
C407 C 0.349 0.48449 0.52003 0.0
C408 C 0.36794 0.41244 0.58442 0.0
C409 C 0.3969 0.41464 0.58809 0.0
C410 C 0.35565 0.42125 0.56153 0.0
C411 C 0.37282 0.43216 0.54196 0.0
C412 C 0.40152 0.43721 0.54688 0.0
C413 C 0.41313 0.42842 0.56986 0.0
C414 C 0.32483 0.41627 0.55743 0.0
C415 C 0.42078 0.4488 0.5268 0.0
H416 H 0.3639 0.39294 0.46211 0.0
H417 H 0.34273 0.47989 0.4695 0.0
H418 H 0.39745 0.38425 0.5176 0.0
H419 H 0.36251 0.3753 0.52671 0.0
H420 H 0.37548 0.3647 0.49631 0.0
H421 H 0.33632 0.50046 0.50998 0.0
H422 H 0.33857 0.47917 0.53813 0.0
H423 H 0.36963 0.49389 0.52459 0.0
H424 H 0.35536 0.40141 0.59829 0.0
H425 H 0.43558 0.42994 0.57261 0.0
H426 H 0.32183 0.39658 0.54669 0.0
H427 H 0.31542 0.43353 0.54629 0.0
H428 H 0.31345 0.41423 0.57562 0.0
H429 H 0.42401 0.43272 0.51202 0.0
H430 H 0.44153 0.45481 0.53458 0.0
H431 H 0.41139 0.46739 0.51759 0.0
C432 C 0.17338 0.41871 0.94963 0.0
C433 C 0.14423 0.41536 0.95042 0.0
C434 C 0.18802 0.42998 0.97047 0.0
C435 C 0.17313 0.43771 0.99256 0.0
C436 C 0.14355 0.43636 0.99246 0.0
C437 C 0.12957 0.42541 0.97142 0.0
C438 C 0.21949 0.43179 0.96945 0.0
C439 C 0.12661 0.44432 1.01539 0.0
C440 C 0.20111 0.42807 0.05902 0.0
C441 C 0.20289 0.45583 0.06757 0.0
C442 C 0.19345 0.42191 0.03402 0.0
C443 C 0.18789 0.44401 1.01685 0.0
C444 C 0.19219 0.47203 0.02472 0.0
C445 C 0.19931 0.47763 0.05003 0.0
C446 C 0.18903 0.39169 0.02664 0.0
C447 C 0.18745 0.49621 1.00689 0.0
H448 H 0.18489 0.41081 0.93355 0.0
H449 H 0.107 0.42307 0.97207 0.0
H450 H 0.22714 0.45118 0.97869 0.0
H451 H 0.22857 0.41372 0.97973 0.0
H452 H 0.22729 0.43131 0.94972 0.0
H453 H 0.10374 0.44377 1.01169 0.0
H454 H 0.13124 0.42962 0.03108 0.0
H455 H 0.13235 0.46565 0.02183 0.0
H456 H 0.20392 0.411 0.07227 0.0
H457 H 0.20095 0.49917 0.05629 0.0
H458 H 0.19978 0.38713 1.00859 0.0
H459 H 0.16637 0.38771 0.02376 0.0
H460 H 0.19681 0.37693 0.04125 0.0
H461 H 0.19615 0.49155 0.98797 0.0
H462 H 0.19708 0.51587 1.01401 0.0
H463 H 0.16466 0.49971 1.00463 0.0
C464 C 0.10848 0.13578 0.56381 0.0
C465 C 0.12518 0.15035 0.58113 0.0
C466 C 0.11897 0.12766 0.54022 0.0
C467 C 0.14673 0.13487 0.5335 0.0
C468 C 0.16411 0.14858 0.55138 0.0
C469 C 0.15315 0.15603 0.57511 0.0
C470 C 0.09989 0.11247 0.52208 0.0
C471 C 0.19377 0.15679 0.54492 0.0
C472 C 0.18047 0.09596 0.47905 0.0
C473 C 0.17663 0.11446 0.45869 0.0
C474 C 0.17087 0.10234 0.50334 0.0
C475 C 0.15737 0.12814 0.50769 0.0
C476 C 0.15329 0.14698 0.48723 0.0
C477 C 0.16274 0.1398 0.46287 0.0
C478 C 0.17509 0.08135 0.52435 0.0
C479 C 0.13917 0.17482 0.49116 0.0
H480 H 0.08667 0.13189 0.5683 0.0
H481 H 0.1658 0.16809 0.58817 0.0
H482 H 0.09564 0.126 0.50549 0.0
H483 H 0.11012 0.0932 0.51505 0.0
H484 H 0.07961 0.1066 0.53088 0.0
H485 H 0.20496 0.16616 0.56124 0.0
H486 H 0.20561 0.13828 0.53834 0.0
H487 H 0.19364 0.17222 0.52924 0.0
H488 H 0.19094 0.07617 0.47598 0.0
H489 H 0.15988 0.15424 0.44729 0.0
H490 H 0.15457 0.07523 0.53248 0.0
H491 H 0.18759 0.09088 0.53975 0.0
H492 H 0.18591 0.06214 0.51782 0.0
H493 H 0.11753 0.17148 0.49812 0.0
H494 H 0.1383 0.18747 0.47357 0.0
H495 H 0.15052 0.18697 0.50578 0.0
C496 C 0.5899 0.84194 0.06033 0.0
C497 C 0.61249 0.8521 0.07466 0.0
C498 C 0.58948 0.8448 0.03383 0.0
C499 C 0.61189 0.85864 0.02143 0.0
C500 C 0.63519 0.86788 0.03575 0.0
C501 C 0.63528 0.86432 0.06202 0.0
C502 C 0.56458 0.83398 0.01929 0.0
C503 C 0.65955 0.8829 0.02348 0.0
C504 C 0.63063 0.8627 0.952 0.0
C505 C 0.62296 0.89039 0.94672 0.0
C506 C 0.62427 0.85047 0.97556 0.0
C507 C 0.61019 0.86649 0.99413 0.0
C508 C 0.59943 0.89311 0.9875 0.0
C509 C 0.60593 0.90467 0.96387 0.0
C510 C 0.63537 0.82169 0.98149 0.0
C511 C 0.58423 0.91102 1.00646 0.0
H512 H 0.57228 0.83224 0.06983 0.0
H513 H 0.65294 0.87212 0.07276 0.0
H514 H 0.55085 0.85174 1.0141 0.0
H515 H 0.57132 0.82375 1.00154 0.0
H516 H 0.55209 0.8188 0.03055 0.0
H517 H 0.67653 0.88778 0.03711 0.0
H518 H 0.66839 0.86997 1.0081 0.0
H519 H 0.65227 0.90282 1.01494 0.0
H520 H 0.64413 0.8517 0.93894 0.0
H521 H 0.60014 0.92616 0.95984 0.0
H522 H 0.62042 0.80976 0.99342 0.0
H523 H 0.65527 0.82369 0.99211 0.0
H524 H 0.63959 0.80962 0.96402 0.0
H525 H 0.56831 0.89855 1.01679 0.0
H526 H 0.57375 0.92916 0.99739 0.0
H527 H 0.59943 0.91911 0.02053 0.0
C528 C 0.65135 0.6536 0.57227 0.0
C529 C 0.64935 0.62491 0.57746 0.0
C530 C 0.64371 0.66422 0.54841 0.0
C531 C 0.63364 0.64567 0.52954 0.0
C532 C 0.63008 0.61695 0.53537 0.0
C533 C 0.63821 0.60693 0.55914 0.0
C534 C 0.64784 0.69497 0.54293 0.0
C535 C 0.6189 0.59651 0.51612 0.0
C536 C 0.59346 0.67437 0.47339 0.0
C537 C 0.61356 0.67385 0.45405 0.0
C538 C 0.59979 0.66551 0.49796 0.0
C539 C 0.62704 0.65603 0.5036 0.0
C540 C 0.64751 0.65533 0.48419 0.0
C541 C 0.64048 0.66409 0.45956 0.0
C542 C 0.57719 0.66614 0.51786 0.0
C543 C 0.67686 0.64544 0.48951 0.0
H544 H 0.6607 0.66738 0.58617 0.0
H545 H 0.63707 0.58465 0.56307 0.0
H546 H 0.66415 0.69762 0.52822 0.0
H547 H 0.62827 0.70419 0.53543 0.0
H548 H 0.65432 0.70686 0.55996 0.0
H549 H 0.61565 0.57526 0.52419 0.0
H550 H 0.59873 0.60404 0.50835 0.0
H551 H 0.63377 0.59491 0.50013 0.0
H552 H 0.5725 0.68168 0.46933 0.0
H553 H 0.65615 0.66382 0.4448 0.0
H554 H 0.58395 0.67932 0.53396 0.0
H555 H 0.57349 0.64471 0.5253 0.0
H556 H 0.5571 0.67442 0.51048 0.0
H557 H 0.68621 0.65804 0.50494 0.0
H558 H 0.69058 0.64699 0.47266 0.0
H559 H 0.67638 0.62333 0.49597 0.0
C560 C 0.91866 0.61922 0.97067 0.0
C561 C 0.90146 0.63396 0.9539 0.0
C562 C 0.92765 0.63123 0.99339 0.0
C563 C 0.91883 0.65857 0.99975 0.0
C564 C 0.9028 0.67422 0.98218 0.0
C565 C 0.89438 0.66172 0.95933 0.0
C566 C 0.94515 0.61395 1.01128 0.0
C567 C 0.89295 0.70341 0.98823 0.0
C568 C 0.91502 0.67401 0.07031 0.0
C569 C 0.93989 0.68901 0.07421 0.0
C570 C 0.90754 0.6646 0.04604 0.0
C571 C 0.92547 0.6701 0.02525 0.0
C572 C 0.95051 0.6853 0.02912 0.0
C573 C 0.95735 0.6946 0.05344 0.0
C574 C 0.88056 0.64853 0.04265 0.0
C575 C 0.97038 0.69134 1.00761 0.0
H576 H 0.92376 0.59757 0.96663 0.0
H577 H 0.88042 0.67286 0.94672 0.0
H578 H 0.96377 0.62601 1.01752 0.0
H579 H 0.93273 0.6088 0.02836 0.0
H580 H 0.95228 0.59407 1.00258 0.0
H581 H 0.88296 0.71371 0.97174 0.0
H582 H 0.87752 0.70245 1.00385 0.0
H583 H 0.91069 0.71657 0.99473 0.0
H584 H 0.90136 0.66972 0.08618 0.0
H585 H 0.97668 0.70612 0.05617 0.0
H586 H 0.88513 0.627 0.03606 0.0
H587 H 0.8675 0.65871 0.02799 0.0
H588 H 0.86829 0.64712 0.0604 0.0
H589 H 0.9783 0.67138 0.99974 0.0
H590 H 0.98854 0.7043 1.01357 0.0
H591 H 0.95927 0.70239 0.99218 0.0
C592 C 0.88986 0.84155 0.48614 0.0
C593 C 0.91359 0.83955 0.47073 0.0
C594 C 0.89209 0.84955 0.51152 0.0
C595 C 0.91884 0.85476 0.52212 0.0
C596 C 0.94304 0.85011 0.50729 0.0
C597 C 0.94013 0.84319 0.48158 0.0
C598 C 0.8656 0.8547 0.52632 0.0
C599 C 0.972 0.85385 0.51809 0.0
C600 C 0.9148 0.91359 0.56927 0.0
C601 C 0.90822 0.89914 0.59156 0.0
C602 C 0.92057 0.89929 0.54686 0.0
C603 C 0.92071 0.86966 0.54684 0.0
C604 C 0.9178 0.85503 0.57005 0.0
C605 C 0.91118 0.86995 0.59221 0.0
C606 C 0.92335 0.91599 0.52273 0.0
C607 C 0.91942 0.82354 0.57118 0.0
H608 H 0.86927 0.83877 0.47794 0.0
H609 H 0.9586 0.8413 0.46987 0.0
H610 H 0.86597 0.84283 0.5443 0.0
H611 H 0.86409 0.87726 0.53109 0.0
H612 H 0.84652 0.84857 0.51568 0.0
H613 H 0.98763 0.84143 0.50744 0.0
H614 H 0.9782 0.87621 0.51681 0.0
H615 H 0.9727 0.84755 0.53825 0.0
H616 H 0.91294 0.93621 0.56879 0.0
H617 H 0.90619 0.85862 0.60938 0.0
H618 H 0.90517 0.91158 0.5103 0.0
H619 H 0.94247 0.90983 0.51237 0.0
H620 H 0.92428 0.9389 0.52621 0.0
H621 H 0.89871 0.81444 0.56644 0.0
H622 H 0.92519 0.81623 0.59039 0.0
H623 H 0.9349 0.81543 0.55744 0.0
C624 C 0.24879 0.33231 0.174 0.0
C625 C 0.22606 0.33155 0.1572 0.0
C626 C 0.26814 0.31021 0.17521 0.0
C627 C 0.26475 0.28668 0.15927 0.0
C628 C 0.24153 0.28548 0.1427 0.0
C629 C 0.22254 0.30786 0.14186 0.0
C630 C 0.29251 0.31227 0.19323 0.0
C631 C 0.2371 0.26081 0.12536 0.0
C632 C 0.32748 0.24213 0.14105 0.0
C633 C 0.32371 0.21819 0.15611 0.0
C634 C 0.30889 0.26483 0.14239 0.0
C635 C 0.28588 0.26368 0.15919 0.0
C636 C 0.28239 0.23995 0.17497 0.0
C637 C 0.30131 0.21755 0.17324 0.0
C638 C 0.3134 0.2897 0.1252 0.0
C639 C 0.25825 0.23789 0.19324 0.0
H640 H 0.25154 0.35027 0.18618 0.0
H641 H 0.20539 0.30708 0.12856 0.0
H642 H 0.29293 0.29369 0.20582 0.0
H643 H 0.31243 0.31247 0.1825 0.0
H644 H 0.29162 0.33144 0.20504 0.0
H645 H 0.21745 0.26254 0.11429 0.0
H646 H 0.2549 0.2592 0.11203 0.0
H647 H 0.23641 0.24109 0.13644 0.0
H648 H 0.34445 0.2428 0.12755 0.0
H649 H 0.29842 0.1994 0.18525 0.0
H650 H 0.31404 0.3093 0.13637 0.0
H651 H 0.29565 0.29144 0.11181 0.0
H652 H 0.3331 0.28807 0.11419 0.0
H653 H 0.25798 0.25646 0.20577 0.0
H654 H 0.25926 0.21871 0.2051 0.0
H655 H 0.2382 0.23771 0.18269 0.0
C656 C 0.3132 0.31216 0.63307 0.0
C657 C 0.33189 0.30119 0.61517 0.0
C658 C 0.28449 0.30544 0.63268 0.0
C659 C 0.27384 0.28709 0.614 0.0
C660 C 0.29245 0.27609 0.59573 0.0
C661 C 0.32113 0.28324 0.59652 0.0
C662 C 0.2656 0.3176 0.65263 0.0
C663 C 0.28209 0.25644 0.57549 0.0
C664 C 0.20676 0.24712 0.63004 0.0
C665 C 0.18606 0.26245 0.6172 0.0
C666 C 0.23521 0.25468 0.62883 0.0
C667 C 0.24358 0.27834 0.61451 0.0
C668 C 0.22291 0.29395 0.60145 0.0
C669 C 0.19448 0.28587 0.60298 0.0
C670 C 0.25633 0.23747 0.64323 0.0
C671 C 0.23082 0.31931 0.58596 0.0
H672 H 0.32103 0.32564 0.64786 0.0
H673 H 0.33509 0.27482 0.5824 0.0
H674 H 0.24776 0.32858 0.64367 0.0
H675 H 0.25677 0.30052 0.66444 0.0
H676 H 0.27677 0.33258 0.66513 0.0
H677 H 0.29889 0.25049 0.5621 0.0
H678 H 0.27354 0.23712 0.58429 0.0
H679 H 0.26483 0.26634 0.56475 0.0
H680 H 0.20075 0.22938 0.64156 0.0
H681 H 0.17886 0.29779 0.59284 0.0
H682 H 0.26685 0.25069 0.65759 0.0
H683 H 0.27275 0.22975 0.63024 0.0
H684 H 0.24663 0.2192 0.6529 0.0
H685 H 0.2408 0.33528 0.59823 0.0
H686 H 0.21247 0.32889 0.57648 0.0
H687 H 0.24638 0.31344 0.57141 0.0
C688 C 0.32753 0.29653 0.37004 0.0
C689 C 0.35249 0.30114 0.3834 0.0
C690 C 0.31407 0.27018 0.37039 0.0
C691 C 0.32556 0.24786 0.3847 0.0
C692 C 0.35055 0.25253 0.39846 0.0
C693 C 0.36372 0.27894 0.39754 0.0
C694 C 0.28765 0.26613 0.35522 0.0
C695 C 0.36339 0.2296 0.41428 0.0
C696 C 0.27796 0.1869 0.40411 0.0
C697 C 0.28541 0.16596 0.38684 0.0
C698 C 0.29082 0.21351 0.40367 0.0
C699 C 0.31154 0.21963 0.38532 0.0
C700 C 0.31916 0.19858 0.36782 0.0
C701 C 0.30616 0.17205 0.36887 0.0
C702 C 0.28226 0.23507 0.42292 0.0
C703 C 0.34091 0.20418 0.34778 0.0
H704 H 0.31881 0.31342 0.35891 0.0
H705 H 0.38269 0.28233 0.40828 0.0
H706 H 0.29063 0.24908 0.34131 0.0
H707 H 0.27024 0.2597 0.36782 0.0
H708 H 0.28143 0.28544 0.34497 0.0
H709 H 0.38266 0.23664 0.42414 0.0
H710 H 0.34811 0.22217 0.42857 0.0
H711 H 0.36866 0.21144 0.4022 0.0
H712 H 0.26214 0.18236 0.41818 0.0
H713 H 0.3118 0.15625 0.35519 0.0
H714 H 0.27411 0.25398 0.41327 0.0
H715 H 0.30073 0.24168 0.43413 0.0
H716 H 0.26595 0.22704 0.43603 0.0
H717 H 0.33443 0.22222 0.33595 0.0
H718 H 0.34427 0.1858 0.33536 0.0
H719 H 0.36112 0.20987 0.35673 0.0
C720 C 0.33759 0.27537 0.92906 0.0
C721 C 0.34383 0.24721 0.92404 0.0
C722 C 0.30968 0.28478 0.93048 0.0
C723 C 0.28728 0.26562 0.92687 0.0
C724 C 0.29345 0.23705 0.92246 0.0
C725 C 0.32149 0.22824 0.92113 0.0
C726 C 0.30417 0.3154 0.93523 0.0
C727 C 0.27038 0.2158 0.91867 0.0
C728 C 0.21332 0.28548 0.94812 0.0
C729 C 0.20101 0.29449 0.92544 0.0
C730 C 0.24129 0.27611 0.94892 0.0
C731 C 0.25749 0.27561 0.92652 0.0
C732 C 0.2451 0.28441 0.90356 0.0
C733 C 0.21717 0.29366 0.90331 0.0
C734 C 0.25358 0.26695 0.97382 0.0
C735 C 0.26138 0.28407 0.87917 0.0
H736 H 0.35454 0.29028 0.9312 0.0
H737 H 0.3259 0.20635 0.91779 0.0
H738 H 0.29361 0.32474 0.91859 0.0
H739 H 0.28991 0.31786 0.95157 0.0
H740 H 0.3237 0.32737 0.93898 0.0
H741 H 0.27855 0.19419 0.91651 0.0
H742 H 0.25574 0.21616 0.93489 0.0
H743 H 0.25814 0.22121 0.90156 0.0
H744 H 0.20128 0.28625 0.96539 0.0
H745 H 0.2079 0.30007 0.88559 0.0
H746 H 0.27197 0.28019 0.97849 0.0
H747 H 0.26103 0.24504 0.97246 0.0
H748 H 0.23825 0.26832 0.9895 0.0
H749 H 0.28037 0.29735 0.88094 0.0
H750 H 0.24885 0.29175 0.86293 0.0
H751 H 0.26846 0.26247 0.87503 0.0
C752 C 0.71931 0.81187 0.92857 0.0
C753 C 0.73893 0.83365 0.9314 0.0
C754 C 0.72737 0.78354 0.92943 0.0
C755 C 0.75584 0.7765 0.93317 0.0
C756 C 0.77565 0.79835 0.93676 0.0
C757 C 0.76698 0.82656 0.93591 0.0
C758 C 0.70541 0.76111 0.92577 0.0
C759 C 0.80621 0.79193 0.94078 0.0
C760 C 0.77474 0.70151 0.95273 0.0
C761 C 0.78266 0.68946 0.92964 0.0
C762 C 0.76595 0.72967 0.9542 0.0
C763 C 0.76503 0.74642 0.93208 0.0
C764 C 0.77273 0.73433 0.90872 0.0
C765 C 0.7813 0.70616 0.90778 0.0
C766 C 0.75785 0.74157 0.97949 0.0
C767 C 0.77201 0.75121 0.88462 0.0
H768 H 0.69751 0.81699 0.9256 0.0
H769 H 0.78235 0.84311 0.93797 0.0
H770 H 0.70978 0.74934 0.9082 0.0
H771 H 0.70607 0.7459 0.9416 0.0
H772 H 0.68397 0.7699 0.92452 0.0
H773 H 0.81876 0.81107 0.94464 0.0
H774 H 0.80875 0.77716 0.95679 0.0
H775 H 0.81479 0.78157 0.92376 0.0
H776 H 0.77591 0.68913 0.96982 0.0
H777 H 0.78682 0.69716 0.88975 0.0
H778 H 0.73617 0.74972 0.97871 0.0
H779 H 0.77175 0.75945 0.98424 0.0
H780 H 0.75917 0.72577 0.99486 0.0
H781 H 0.75048 0.75888 0.8811 0.0
H782 H 0.77888 0.73889 0.868 0.0
H783 H 0.78576 0.76987 0.8864 0.0
C784 C 0.6775 0.80264 0.40741 0.0
C785 C 0.66755 0.78814 0.38622 0.0
C786 C 0.7043 0.81504 0.40753 0.0
C787 C 0.72151 0.81331 0.3858 0.0
C788 C 0.71117 0.79946 0.36407 0.0
C789 C 0.68449 0.78691 0.36462 0.0
C790 C 0.71451 0.82933 0.43119 0.0
C791 C 0.72848 0.79749 0.34034 0.0
C792 C 0.78232 0.86511 0.3801 0.0
C793 C 0.80528 0.84877 0.38748 0.0
C794 C 0.7551 0.85379 0.37911 0.0
C795 C 0.7505 0.82545 0.38599 0.0
C796 C 0.77363 0.80878 0.39329 0.0
C797 C 0.8007 0.82056 0.39378 0.0
C798 C 0.73121 0.87222 0.3708 0.0
C799 C 0.76972 0.77859 0.40104 0.0
H800 H 0.66473 0.80337 0.42426 0.0
H801 H 0.67683 0.77595 0.34811 0.0
H802 H 0.73342 0.81852 0.43838 0.0
H803 H 0.7206 0.85127 0.42695 0.0
H804 H 0.69844 0.82942 0.44631 0.0
H805 H 0.71686 0.78739 0.32463 0.0
H806 H 0.73524 0.81869 0.3342 0.0
H807 H 0.74767 0.7852 0.34413 0.0
H808 H 0.7857 0.88681 0.37493 0.0
H809 H 0.81821 0.80788 0.39981 0.0
H810 H 0.71571 0.87411 0.38626 0.0
H811 H 0.72027 0.8626 0.3545 0.0
H812 H 0.73834 0.89355 0.36534 0.0
H813 H 0.7554 0.77731 0.41747 0.0
H814 H 0.78979 0.76839 0.40614 0.0
H815 H 0.75988 0.76661 0.38546 0.0
C816 C 0.78021 0.82552 0.60171 0.0
C817 C 0.79798 0.83555 0.62084 0.0
C818 C 0.77281 0.7969 0.60017 0.0
C819 C 0.78347 0.77756 0.61808 0.0
C820 C 0.80159 0.78747 0.63725 0.0
C821 C 0.80846 0.81614 0.63847 0.0
C822 C 0.75331 0.78737 0.57949 0.0
C823 C 0.81349 0.76779 0.65681 0.0
C824 C 0.74361 0.70978 0.6322 0.0
C825 C 0.75895 0.68951 0.61887 0.0
C826 C 0.75104 0.73833 0.63167 0.0
C827 C 0.77467 0.74726 0.61765 0.0
C828 C 0.79032 0.72706 0.60413 0.0
C829 C 0.7823 0.69854 0.60487 0.0
C830 C 0.73372 0.75895 0.64646 0.0
C831 C 0.81573 0.73555 0.58903 0.0
H832 H 0.77213 0.83998 0.58779 0.0
H833 H 0.82176 0.82332 0.65365 0.0
H834 H 0.76329 0.77058 0.56826 0.0
H835 H 0.73399 0.7784 0.58787 0.0
H836 H 0.74739 0.80474 0.5666 0.0
H837 H 0.82835 0.77844 0.66976 0.0
H838 H 0.79628 0.75857 0.66818 0.0
H839 H 0.82449 0.75024 0.64745 0.0
H840 H 0.72592 0.70338 0.64356 0.0
H841 H 0.79426 0.68335 0.59432 0.0
H842 H 0.72625 0.77593 0.63387 0.0
H843 H 0.74676 0.76883 0.66131 0.0
H844 H 0.71531 0.74892 0.65558 0.0
H845 H 0.80995 0.75167 0.57487 0.0
H846 H 0.82535 0.71754 0.5791 0.0
H847 H 0.83161 0.74506 0.60167 0.0
C848 C 0.87835 0.81909 0.13131 0.0
C849 C 0.88733 0.80054 0.15017 0.0
C850 C 0.85193 0.83193 0.13264 0.0
C851 C 0.8341 0.82628 0.15343 0.0
C852 C 0.84351 0.80835 0.17296 0.0
C853 C 0.86991 0.79569 0.17106 0.0
C854 C 0.84273 0.85087 0.1114 0.0
C855 C 0.82541 0.80197 0.19561 0.0
C856 C 0.77329 0.87565 0.16651 0.0
C857 C 0.75052 0.86107 0.15602 0.0
C858 C 0.80052 0.86462 0.16584 0.0
C859 C 0.80528 0.83833 0.15436 0.0
C860 C 0.7824 0.82342 0.14384 0.0
C861 C 0.75537 0.83493 0.14483 0.0
C862 C 0.82424 0.88111 0.17746 0.0
C863 C 0.78652 0.79536 0.13136 0.0
H864 H 0.89154 0.82273 0.11502 0.0
H865 H 0.87688 0.7817 0.18588 0.0
H866 H 0.82421 0.84166 0.10185 0.0
H867 H 0.83636 0.87153 0.11894 0.0
H868 H 0.85947 0.85416 0.09716 0.0
H869 H 0.83641 0.7889 0.20983 0.0
H870 H 0.81865 0.82169 0.20473 0.0
H871 H 0.80624 0.79071 0.18949 0.0
H872 H 0.76978 0.89566 0.17551 0.0
H873 H 0.73811 0.82363 0.13636 0.0
H874 H 0.84041 0.88565 0.163 0.0
H875 H 0.83437 0.86857 0.19252 0.0
H876 H 0.81711 0.90123 0.18568 0.0
H877 H 0.80143 0.79749 0.11543 0.0
H878 H 0.76662 0.78641 0.12408 0.0
H879 H 0.79574 0.78035 0.14499 0.0
C880 C 0.19842 0.0774 0.28748 0.0
C881 C 0.20168 0.09834 0.30577 0.0
C882 C 0.21024 0.08017 0.26336 0.0
C883 C 0.22608 0.10439 0.25737 0.0
C884 C 0.22762 0.12659 0.27511 0.0
C885 C 0.21528 0.12334 0.29913 0.0
C886 C 0.20766 0.05612 0.24506 0.0
C887 C 0.2442 0.15281 0.26951 0.0
C888 C 0.28735 0.09304 0.2126 0.0
C889 C 0.27708 0.10361 0.18968 0.0
C890 C 0.27108 0.09353 0.23468 0.0
C891 C 0.2437 0.1048 0.234 0.0
C892 C 0.23307 0.11529 0.21091 0.0
C893 C 0.24985 0.11458 0.18907 0.0
C894 C 0.28329 0.08202 0.25884 0.0
C895 C 0.20401 0.1274 0.20932 0.0
H896 H 0.18797 0.058 0.29257 0.0
H897 H 0.21826 0.1394 0.3133 0.0
H898 H 0.20203 0.06386 0.22599 0.0
H899 H 0.22811 0.04536 0.24349 0.0
H900 H 0.19172 0.04055 0.25118 0.0
H901 H 0.24 0.16961 0.28345 0.0
H902 H 0.26686 0.14791 0.27002 0.0
H903 H 0.23934 0.16079 0.25034 0.0
H904 H 0.30836 0.08465 0.21342 0.0
H905 H 0.24172 0.12301 0.17156 0.0
H906 H 0.27028 0.06432 0.26577 0.0
H907 H 0.28317 0.09839 0.27365 0.0
H908 H 0.30509 0.07453 0.25637 0.0
H909 H 0.18836 0.11142 0.2151 0.0
H910 H 0.19881 0.13479 0.19001 0.0
H911 H 0.20205 0.14523 0.22256 0.0
C912 C 0.44712 0.28781 0.71356 0.0
C913 C 0.42916 0.31041 0.70859 0.0
C914 C 0.44555 0.27244 0.73614 0.0
C915 C 0.42535 0.27952 0.75452 0.0
C916 C 0.40697 0.30224 0.7497 0.0
C917 C 0.40916 0.31751 0.72684 0.0
C918 C 0.46594 0.24882 0.74045 0.0
C919 C 0.38507 0.31046 0.76873 0.0
C920 C 0.41264 0.22384 0.80576 0.0
C921 C 0.43021 0.23332 0.8252 0.0
C922 C 0.40998 0.23911 0.78296 0.0
C923 C 0.42528 0.26441 0.77944 0.0
C924 C 0.44267 0.27416 0.79917 0.0
C925 C 0.44489 0.25863 0.8216 0.0
C926 C 0.39114 0.22798 0.76246 0.0
C927 C 0.45964 0.30075 0.79637 0.0
H928 H 0.46274 0.28206 0.69972 0.0
H929 H 0.395 0.3347 0.72314 0.0
H930 H 0.47928 0.25354 0.75705 0.0
H931 H 0.45446 0.22912 0.74463 0.0
H932 H 0.47973 0.24525 0.72392 0.0
H933 H 0.37143 0.32756 0.76171 0.0
H934 H 0.37182 0.29208 0.77353 0.0
H935 H 0.39532 0.31746 0.78641 0.0
H936 H 0.40103 0.20451 0.80833 0.0
H937 H 0.4585 0.26641 0.83637 0.0
H938 H 0.40384 0.22223 0.74576 0.0
H939 H 0.37626 0.24442 0.75634 0.0
H940 H 0.37909 0.20926 0.76868 0.0
H941 H 0.47517 0.29824 0.78099 0.0
H942 H 0.471 0.30634 0.81394 0.0
H943 H 0.44586 0.31845 0.79108 0.0
C944 C 0.24587 0.46055 0.22072 0.0
C945 C 0.26132 0.45048 0.20011 0.0
C946 C 0.25712 0.4608 0.24526 0.0
C947 C 0.28459 0.45082 0.24945 0.0
C948 C 0.30058 0.44132 0.22867 0.0
C949 C 0.28878 0.44124 0.20432 0.0
C950 C 0.23934 0.47115 0.26681 0.0
C951 C 0.33002 0.43068 0.23222 0.0
C952 C 0.32412 0.47177 0.30907 0.0
C953 C 0.32194 0.44751 0.32401 0.0
C954 C 0.31172 0.4733 0.28504 0.0
C955 C 0.29656 0.45005 0.27558 0.0
C956 C 0.29349 0.42582 0.29086 0.0
C957 C 0.30622 0.42482 0.31483 0.0
C958 C 0.31552 0.49955 0.26947 0.0
C959 C 0.27734 0.40063 0.28161 0.0
H960 H 0.22462 0.46769 0.21781 0.0
H961 H 0.30093 0.43333 0.18864 0.0
H962 H 0.23583 0.45394 0.28056 0.0
H963 H 0.25033 0.48824 0.27696 0.0
H964 H 0.2187 0.479 0.26036 0.0
H965 H 0.34001 0.42483 0.21408 0.0
H966 H 0.34308 0.44691 0.24151 0.0
H967 H 0.3298 0.41206 0.24477 0.0
H968 H 0.33619 0.48946 0.31586 0.0
H969 H 0.3044 0.40595 0.32612 0.0
H970 H 0.29489 0.5078 0.26351 0.0
H971 H 0.32741 0.49462 0.25207 0.0
H972 H 0.32689 0.51623 0.2799 0.0
H973 H 0.25591 0.40688 0.27596 0.0
H974 H 0.27579 0.38391 0.29615 0.0
H975 H 0.2877 0.39188 0.26466 0.0
C976 C 0.07979 0.25095 0.72561 0.0
C977 C 0.10102 0.2355 0.71384 0.0
C978 C 0.08461 0.26575 0.74807 0.0
C979 C 0.11153 0.26557 0.7592 0.0
C980 C 0.13315 0.24989 0.74753 0.0
C981 C 0.12761 0.23488 0.72507 0.0
C982 C 0.0607 0.28155 0.75996 0.0
C983 C 0.16218 0.24924 0.75864 0.0
C984 C 0.12308 0.32342 0.80835 0.0
C985 C 0.1163 0.3093 0.83079 0.0
C986 C 0.12304 0.3092 0.78493 0.0
C987 C 0.11608 0.28024 0.78393 0.0
C988 C 0.11045 0.26579 0.80668 0.0
C989 C 0.11067 0.28038 0.82963 0.0
C990 C 0.1294 0.32538 0.76115 0.0
C991 C 0.10282 0.23505 0.80675 0.0
H992 H 0.05916 0.25159 0.71713 0.0
H993 H 0.14426 0.2234 0.71592 0.0
H994 H 0.05652 0.27319 0.77914 0.0
H995 H 0.06633 0.30398 0.76201 0.0
H996 H 0.04113 0.28002 0.74872 0.0
H997 H 0.17687 0.23669 0.74707 0.0
H998 H 0.17051 0.27088 0.76027 0.0
H999 H 0.16149 0.24029 0.77795 0.0
H1000 H 0.12761 0.34565 0.80897 0.0
H1001 H 0.10577 0.26899 0.84678 0.0
H1002 H 0.11011 0.32728 0.74965 0.0
H1003 H 0.14503 0.31405 0.7496 0.0
H1004 H 0.13747 0.34675 0.7652 0.0
H1005 H 0.08239 0.23204 0.79718 0.0
H1006 H 0.10126 0.22633 0.82614 0.0
H1007 H 0.11857 0.22284 0.79613 0.0
C1008 C 0.72278 0.90674 0.81078 0.0
C1009 C 0.73434 0.91893 0.83249 0.0
C1010 C 0.7383 0.90526 0.7881 0.0
C1011 C 0.76594 0.91629 0.78708 0.0
C1012 C 0.77787 0.9278 0.80916 0.0
C1013 C 0.76205 0.92891 0.83142 0.0
C1014 C 0.72485 0.89263 0.76502 0.0
C1015 C 0.80705 0.94008 0.80908 0.0
C1016 C 0.81626 0.90193 0.73219 0.0
C1017 C 0.81238 0.92583 0.71719 0.0
C1018 C 0.80081 0.89807 0.75471 0.0
C1019 C 0.78141 0.91878 0.76254 0.0
C1020 C 0.77796 0.94312 0.74761 0.0
C1021 C 0.79327 0.94622 0.7252 0.0
C1022 C 0.80497 0.87172 0.76997 0.0
C1023 C 0.75812 0.9661 0.75536 0.0
H1024 H 0.70154 0.89878 0.81138 0.0
H1025 H 0.77148 0.93819 0.84802 0.0
H1026 H 0.72124 0.90922 0.75072 0.0
H1027 H 0.73898 0.87695 0.75641 0.0
H1028 H 0.70451 0.88241 0.76942 0.0
H1029 H 0.81407 0.94638 0.82822 0.0
H1030 H 0.82218 0.92476 0.80141 0.0
H1031 H 0.80767 0.95879 0.79664 0.0
H1032 H 0.83064 0.8859 0.72595 0.0
H1033 H 0.79016 0.96481 0.71377 0.0
H1034 H 0.78472 0.86055 0.77215 0.0
H1035 H 0.81244 0.87709 0.78917 0.0
H1036 H 0.82028 0.85734 0.76111 0.0
H1037 H 0.73665 0.95755 0.75747 0.0
H1038 H 0.75757 0.98357 0.74149 0.0
H1039 H 0.76447 0.97467 0.77395 0.0
C1040 C 0.63891 0.72146 0.30035 0.0
C1041 C 0.61512 0.70417 0.30153 0.0
C1042 C 0.64482 0.73752 0.27861 0.0
C1043 C 0.62658 0.73621 0.25751 0.0
C1044 C 0.6036 0.71742 0.25807 0.0
C1045 C 0.5982 0.70169 0.27998 0.0
C1046 C 0.66966 0.75711 0.27883 0.0
C1047 C 0.58366 0.71515 0.23607 0.0
C1048 C 0.6189 0.80041 0.21506 0.0
C1049 C 0.63442 0.79284 0.19367 0.0
C1050 C 0.6165 0.78233 0.23597 0.0
C1051 C 0.63002 0.75597 0.23569 0.0
C1052 C 0.64577 0.7482 0.21421 0.0
C1053 C 0.64772 0.76664 0.19348 0.0
C1054 C 0.59932 0.79145 0.25837 0.0
C1055 C 0.66059 0.72038 0.21312 0.0
H1056 H 0.65201 0.72375 0.31691 0.0
H1057 H 0.57982 0.68834 0.28063 0.0
H1058 H 0.68196 0.75492 0.26121 0.0
H1059 H 0.66225 0.77907 0.27974 0.0
H1060 H 0.68364 0.75324 0.29521 0.0
H1061 H 0.56828 0.69786 0.23855 0.0
H1062 H 0.57202 0.73508 0.23394 0.0
H1063 H 0.59534 0.71167 0.21829 0.0
H1064 H 0.6086 0.82057 0.21553 0.0
H1065 H 0.65994 0.76058 0.17719 0.0
H1066 H 0.61239 0.79128 0.27567 0.0
H1067 H 0.58182 0.7765 0.26146 0.0
H1068 H 0.5905 0.81276 0.25587 0.0
H1069 H 0.67519 0.71842 0.22929 0.0
H1070 H 0.67257 0.7177 0.19535 0.0
H1071 H 0.64516 0.70306 0.21473 0.0
C1072 C 0.81266 0.61815 0.8113 0.0
C1073 C 0.79894 0.60727 0.83259 0.0
C1074 C 0.7988 0.62001 0.78778 0.0
C1075 C 0.77058 0.61087 0.7855 0.0
C1076 C 0.7564 0.60105 0.80721 0.0
C1077 C 0.77067 0.59937 0.8303 0.0
C1078 C 0.81468 0.63072 0.76513 0.0
C1079 C 0.72644 0.591 0.80585 0.0
C1080 C 0.72624 0.62586 0.72654 0.0
C1081 C 0.72962 0.60098 0.71289 0.0
C1082 C 0.7398 0.62974 0.75003 0.0
C1083 C 0.75685 0.60814 0.76014 0.0
C1084 C 0.75973 0.58284 0.74657 0.0
C1085 C 0.74624 0.57966 0.72325 0.0
C1086 C 0.73624 0.65706 0.76384 0.0
C1087 C 0.77715 0.55897 0.75667 0.0
H1088 H 0.83438 0.62449 0.81284 0.0
H1089 H 0.75959 0.59128 0.84661 0.0
H1090 H 0.81834 0.61324 0.7518 0.0
H1091 H 0.80224 0.64677 0.755 0.0
H1092 H 0.83523 0.63994 0.77042 0.0
H1093 H 0.71755 0.58649 0.8248 0.0
H1094 H 0.71315 0.60686 0.79641 0.0
H1095 H 0.72531 0.57159 0.79443 0.0
H1096 H 0.71378 0.64258 0.71853 0.0
H1097 H 0.74895 0.5603 0.71291 0.0
H1098 H 0.75695 0.66717 0.7666 0.0
H1099 H 0.7273 0.65317 0.78283 0.0
H1100 H 0.72241 0.67181 0.75352 0.0
H1101 H 0.79896 0.56613 0.7599 0.0
H1102 H 0.77756 0.54079 0.74366 0.0
H1103 H 0.76871 0.55186 0.77511 0.0
C1104 C 0.93772 0.81383 0.3032 0.0
C1105 C 0.92677 0.80802 0.32719 0.0
C1106 C 0.93894 0.79313 0.28447 0.0
C1107 C 0.92831 0.76596 0.28954 0.0
C1108 C 0.9169 0.75999 0.31367 0.0
C1109 C 0.9166 0.781 0.33233 0.0
C1110 C 0.95185 0.80035 0.25926 0.0
C1111 C 0.90469 0.73156 0.31961 0.0
C1112 C 0.91464 0.72482 0.22924 0.0
C1113 C 0.93954 0.70952 0.2269 0.0
C1114 C 0.90968 0.74177 0.25049 0.0
C1115 C 0.93025 0.74381 0.2697 0.0
C1116 C 0.95448 0.72695 0.26822 0.0
C1117 C 0.95866 0.70985 0.24704 0.0
C1118 C 0.88324 0.75888 0.25149 0.0
C1119 C 0.97717 0.72865 0.28799 0.0
H1120 H 0.94567 0.83464 0.2991 0.0
H1121 H 0.90775 0.77649 0.35072 0.0
H1122 H 0.96955 0.78605 0.2553 0.0
H1123 H 0.93623 0.79744 0.24401 0.0
H1124 H 0.95968 0.82226 0.2585 0.0
H1125 H 0.89594 0.73045 0.339 0.0
H1126 H 0.88785 0.72651 0.30593 0.0
H1127 H 0.92097 0.71524 0.31766 0.0
H1128 H 0.89964 0.72473 0.21391 0.0
H1129 H 0.97791 0.69804 0.24561 0.0
H1130 H 0.88811 0.78093 0.24644 0.0
H1131 H 0.87431 0.7588 0.2708 0.0
H1132 H 0.86719 0.75098 0.23809 0.0
H1133 H 0.98755 0.74944 0.28688 0.0
H1134 H 0.99331 0.71222 0.28548 0.0
H1135 H 0.96816 0.7266 0.30718 0.0
C1136 C 0.45448 0.03877 0.13617 0.0
C1137 C 0.4424 0.04365 0.15988 0.0
C1138 C 0.47678 1.0197 0.13334 0.0
C1139 C 0.48701 1.00486 0.15464 0.0
C1140 C 0.47396 1.00884 0.17835 0.0
C1141 C 0.45204 0.0282 0.18067 0.0
C1142 C 0.49016 1.01634 0.10777 0.0
C1143 C 0.48375 0.99329 0.20154 0.0
C1144 C 0.53469 0.94079 0.14976 0.0
C1145 C 0.56068 0.9522 0.15659 0.0
C1146 C 0.51062 0.95777 0.14805 0.0
C1147 C 0.51268 0.98693 0.15291 0.0
C1148 C 0.53923 0.99868 0.15844 0.0
C1149 C 0.56274 0.98121 0.16038 0.0
C1150 C 0.48278 0.94427 0.14229 0.0
C1151 C 0.54268 0.02963 0.16337 0.0
H1152 H 0.44724 0.0507 0.12006 0.0
H1153 H 0.4425 0.03146 0.19896 0.0
H1154 H 0.51173 0.02498 0.10825 0.0
H1155 H 0.49179 0.99385 0.10284 0.0
H1156 H 0.47827 0.02728 0.0927 0.0
H1157 H 0.47004 0.99703 0.2181 0.0
H1158 H 0.4844 0.97046 0.1978 0.0
H1159 H 0.50531 1.00005 0.20643 0.0
H1160 H 0.53293 0.91839 0.14695 0.0
H1161 H 0.58285 0.99022 0.16529 0.0
H1162 H 0.47181 0.95595 0.12715 0.0
H1163 H 0.46932 0.94499 0.15932 0.0
H1164 H 0.48502 0.92208 0.13641 0.0
H1165 H 0.53297 0.04197 0.14796 0.0
H1166 H 0.565 0.03588 0.16508 0.0
H1167 H 0.53181 0.03523 0.18113 0.0
C1168 C 0.6431 0.47657 0.64314 0.0
C1169 C 0.6395 0.50424 0.63469 0.0
C1170 C 0.62076 0.45712 0.64316 0.0
C1171 C 0.59403 0.46516 0.63407 0.0
C1172 C 0.59029 0.49306 0.62544 0.0
C1173 C 0.61288 0.51222 0.62606 0.0
C1174 C 0.62578 0.42787 0.65294 0.0
C1175 C 0.56246 0.50258 0.61516 0.0
C1176 C 0.54481 0.4068 0.61121 0.0
C1177 C 0.52587 0.40397 0.63135 0.0
C1178 C 0.56668 0.42675 0.61173 0.0
C1179 C 0.57025 0.44424 0.63309 0.0
C1180 C 0.55122 0.44147 0.65351 0.0
C1181 C 0.52921 0.42164 0.6523 0.0
C1182 C 0.58597 0.42914 0.58929 0.0
C1183 C 0.55433 0.45924 0.67684 0.0
H1184 H 0.66339 0.47021 0.65013 0.0
H1185 H 0.60987 0.53338 0.61921 0.0
H1186 H 0.61081 0.42297 0.66834 0.0
H1187 H 0.6221 0.41244 0.63769 0.0
H1188 H 0.6474 0.4251 0.6602 0.0
H1189 H 0.56283 0.52491 0.60924 0.0
H1190 H 0.55653 0.48956 0.59869 0.0
H1191 H 0.54594 0.49974 0.62963 0.0
H1192 H 0.54227 0.39364 0.59476 0.0
H1193 H 0.51492 0.41953 0.66805 0.0
H1194 H 0.60776 0.4245 0.5951 0.0
H1195 H 0.58575 0.45088 0.58186 0.0
H1196 H 0.58002 0.41462 0.57384 0.0
H1197 H 0.57517 0.4557 0.68546 0.0
H1198 H 0.53797 0.45457 0.69114 0.0
H1199 H 0.55314 0.48175 0.67176 0.0
C1200 C 0.12635 0.53934 0.13764 0.0
C1201 C 0.11718 0.51831 0.15427 0.0
C1202 C 0.11291 0.56552 0.13651 0.0
C1203 C 0.08986 0.57097 0.15254 0.0
C1204 C 0.08086 0.55 0.1697 0.0
C1205 C 0.09453 0.52398 0.17028 0.0
C1206 C 0.12306 0.58716 0.11781 0.0
C1207 C 0.05657 0.55494 0.18731 0.0
C1208 C 0.06714 0.64615 0.16564 0.0
C1209 C 0.04345 0.64878 0.15016 0.0
C1210 C 0.08272 0.62118 0.16629 0.0
C1211 C 0.07459 0.59825 0.151 0.0
C1212 C 0.05112 0.60103 0.13487 0.0
C1213 C 0.03587 0.62616 0.13469 0.0
C1214 C 0.10749 0.6191 0.18385 0.0
C1215 C 0.04181 0.57726 0.11808 0.0
H1216 H 0.14361 0.53508 0.12501 0.0
H1217 H 0.08755 0.50806 0.18345 0.0
H1218 H 0.10615 0.59202 0.10416 0.0
H1219 H 0.12838 0.60692 0.1277 0.0
H1220 H 0.14171 0.58002 0.10716 0.0
H1221 H 0.0527 0.53686 0.20007 0.0
H1222 H 0.06058 0.57381 0.19896 0.0
H1223 H 0.0373 0.55892 0.17623 0.0
H1224 H 0.07304 0.66333 0.17785 0.0
H1225 H 1.0179 0.6281 0.12237 0.0
H1226 H 0.12642 0.61286 0.1732 0.0
H1227 H 0.10352 0.60263 0.19822 0.0
H1228 H 0.11188 0.63915 0.1937 0.0
H1229 H 0.05939 0.57043 0.10594 0.0
H1230 H 0.02391 0.58315 0.10583 0.0
H1231 H 0.03552 0.55903 0.12981 0.0
C1232 C 0.89634 0.05506 0.65055 0.0
C1233 C 0.90301 0.02811 0.6419 0.0
C1234 C 0.91626 0.07697 0.65046 0.0
C1235 C 0.94357 0.07226 0.64093 0.0
C1236 C 0.95043 0.04506 0.63215 0.0
C1237 C 0.93025 0.02333 0.63301 0.0
C1238 C 0.908 0.10528 0.66056 0.0
C1239 C 0.97895 0.03903 0.62133 0.0
C1240 C 0.98437 0.13677 0.61774 0.0
C1241 C 1.00339 0.14161 0.63749 0.0
C1242 C 0.96531 0.11412 0.61841 0.0
C1243 C 0.96461 0.09593 0.63962 0.0
C1244 C 0.9837 0.10078 0.65968 0.0
C1245 C 1.00299 0.12326 0.65824 0.0
C1246 C 0.94593 0.10959 0.59631 0.0
C1247 C 0.98346 0.08246 0.6829 0.0
H1248 H 0.8755 0.05892 0.65772 0.0
H1249 H 0.93556 1.00272 0.62605 0.0
H1250 H 0.92281 0.11188 0.67555 0.0
H1251 H 0.90918 0.12116 0.64529 0.0
H1252 H 0.88647 0.10528 0.66842 0.0
H1253 H 0.98114 1.01687 0.61536 0.0
H1254 H 0.98284 0.05277 0.60478 0.0
H1255 H 0.99538 0.04378 0.63548 0.0
H1256 H 0.98473 0.1505 0.60145 0.0
H1257 H 1.0174 0.1269 0.67367 0.0
H1258 H 0.92387 0.11157 0.60251 0.0
H1259 H 0.94855 0.08809 0.58881 0.0
H1260 H 0.94976 0.12482 0.5808 0.0
H1261 H 0.96255 0.08324 0.69196 0.0
H1262 H 0.99947 0.08897 0.69692 0.0
H1263 H 0.98732 0.06036 0.67761 0.0
C1264 C 0.48673 0.629 0.37156 0.0
C1265 C 0.51426 0.63064 0.38077 0.0
C1266 C 0.47183 0.60344 0.37136 0.0
C1267 C 0.48467 0.57872 0.38054 0.0
C1268 C 0.5122 0.58033 0.39035 0.0
C1269 C 0.52656 0.60614 0.3904 0.0
C1270 C 0.44253 0.60277 0.36076 0.0
C1271 C 0.52677 0.55462 0.40038 0.0
C1272 C 0.44029 0.51414 0.39688 0.0
C1273 C 0.44377 0.49735 0.37538 0.0
C1274 C 0.45316 0.54072 0.39876 0.0
C1275 C 0.46999 0.55092 0.37869 0.0
C1276 C 0.47332 0.53422 0.35686 0.0
C1277 C 0.46021 0.50784 0.35546 0.0
C1278 C 0.44898 0.55778 0.42237 0.0
C1279 C 0.49096 0.54415 0.33494 0.0
H1280 H 0.47697 0.64758 0.36389 0.0
H1281 H 0.54752 0.60706 0.39807 0.0
H1282 H 0.44199 0.58952 0.34361 0.0
H1283 H 0.42794 0.59326 0.37464 0.0
H1284 H 0.43485 0.62399 0.35575 0.0
H1285 H 0.54774 0.5595 0.40829 0.0
H1286 H 0.5139 0.54459 0.41531 0.0
H1287 H 0.52928 0.53909 0.38502 0.0
H1288 H 0.42787 0.50634 0.41247 0.0
H1289 H 0.46269 0.49553 0.33851 0.0
H1290 H 0.44034 0.57862 0.41747 0.0
H1291 H 0.46941 0.56138 0.43177 0.0
H1292 H 0.43464 0.54736 0.43597 0.0
H1293 H 0.4829 0.56439 0.32771 0.0
H1294 H 0.49125 0.52887 0.31919 0.0
H1295 H 0.51279 0.54781 0.3413 0.0
C1296 C 0.98774 0.401 0.89345 0.0
C1297 C 1.01457 0.40729 0.90272 0.0
C1298 C 0.96623 0.42117 0.89318 0.0
C1299 C 0.97124 0.44838 0.90294 0.0
C1300 C 0.99834 0.45488 0.9123 0.0
C1301 C 1.01967 0.43444 0.91182 0.0
C1302 C 0.93802 0.41329 0.88249 0.0
C1303 C 1.00465 0.48329 0.92336 0.0
C1304 C 0.92147 0.5083 0.88495 0.0
C1305 C 0.90274 0.50865 0.90536 0.0
C1306 C 0.94373 0.48891 0.88387 0.0
C1307 C 0.94793 0.46964 0.90394 0.0
C1308 C 0.92938 0.4703 0.92482 0.0
C1309 C 0.90699 0.48949 0.92515 0.0
C1310 C 0.96249 0.48875 0.86099 0.0
C1311 C 0.93318 0.45069 0.94691 0.0
H1312 H 0.98364 0.38025 0.88608 0.0
H1313 H 0.0402 0.43946 0.91924 0.0
H1314 H 0.92187 0.41448 0.89745 0.0
H1315 H 0.932 0.42832 0.86746 0.0
H1316 H 0.93781 0.39181 0.87449 0.0
H1317 H 0.02672 0.48522 0.9297 0.0
H1318 H 1.00041 0.49989 0.90923 0.0
H1319 H 0.99072 0.48716 0.93971 0.0
H1320 H 0.9183 0.52281 0.86949 0.0
H1321 H 0.89297 0.48979 0.94119 0.0
H1322 H 0.96149 0.46795 0.85175 0.0
H1323 H 0.98453 0.49229 0.86673 0.0
H1324 H 0.95658 0.50502 0.84699 0.0
H1325 H 0.93096 0.42868 0.94056 0.0
H1326 H 0.91776 0.45454 0.96217 0.0
H1327 H 0.95457 0.45307 0.95479 0.0
C1328 C 0.0277 0.91739 0.37818 0.0
C1329 C 1.0031 0.93183 0.38414 0.0
C1330 C 0.05403 0.93086 0.37911 0.0
C1331 C 0.05594 0.95922 0.38692 0.0
C1332 C 0.03115 0.97352 0.39378 0.0
C1333 C 1.00511 0.95981 0.39195 0.0
C1334 C 0.07972 0.91499 0.37102 0.0
C1335 C 0.03209 1.00343 0.40289 0.0
C1336 C 0.12618 0.98873 0.40956 0.0
C1337 C 0.13435 1.00555 0.38909 0.0
C1338 C 0.10088 0.97344 0.4091 0.0
C1339 C 0.0836 0.9743 0.38734 0.0
C1340 C 0.09225 0.99062 0.36633 0.0
C1341 C 0.11723 1.00633 0.36761 0.0
C1342 C 0.09222 0.95705 0.4322 0.0
C1343 C 0.07498 0.99169 0.34251 0.0
H1344 H 0.02617 0.89587 0.37191 0.0
H1345 H 0.98616 0.97094 0.3968 0.0
H1346 H 0.08953 0.92566 0.35463 0.0
H1347 H 0.0954 0.9148 0.38644 0.0
H1348 H 0.07484 0.89302 0.36571 0.0
H1349 H 1.01124 1.01099 0.40905 0.0
H1350 H 0.04691 1.00539 0.4189 0.0
H1351 H 0.03979 1.01733 0.38759 0.0
H1352 H 0.13918 0.98831 0.4263 0.0
H1353 H 0.12359 1.01911 0.35169 0.0
H1354 H 0.08861 0.93478 0.42726 0.0
H1355 H 0.07219 0.96536 0.43957 0.0
H1356 H 0.10815 0.95809 0.44744 0.0
H1357 H 0.07066 0.97015 0.3357 0.0
H1358 H 0.08554 1.00367 0.32723 0.0
H1359 H 0.05452 1.00163 0.34646 0.0
C1360 C 0.60274 1.01428 0.90759 0.0
C1361 C 0.62991 1.02021 0.89897 0.0
C1362 C 0.58167 0.03499 0.90761 0.0
C1363 C 0.58756 0.06227 0.89825 0.0
C1364 C 0.6148 0.0681 0.88895 0.0
C1365 C 0.63561 0.04722 0.8897 0.0
C1366 C 0.55325 0.02783 0.91823 0.0
C1367 C 0.62206 0.09653 0.87826 0.0
C1368 C 0.52664 0.11035 0.87928 0.0
C1369 C 0.52547 0.12914 0.89959 0.0
C1370 C 0.54662 0.08859 0.87855 0.0
C1371 C 0.56563 0.08496 0.89888 0.0
C1372 C 0.56406 0.10353 0.91969 0.0
C1373 C 0.54432 0.12544 0.91966 0.0
C1374 C 0.54776 0.06982 0.85573 0.0
C1375 C 0.58331 0.10028 0.94207 0.0
H1376 H 0.59818 0.99362 0.91502 0.0
H1377 H 0.6564 0.05193 0.88273 0.0
H1378 H 0.54863 0.04163 0.93451 0.0
H1379 H 0.53684 0.03161 0.90385 0.0
H1380 H 0.55182 1.00569 0.92457 0.0
H1381 H 0.64364 0.09735 0.87053 0.0
H1382 H 0.60714 0.10213 0.86304 0.0
H1383 H 0.62016 0.11267 0.89317 0.0
H1384 H 0.51235 0.11313 0.86362 0.0
H1385 H 0.54338 0.13953 0.9356 0.0
H1386 H 0.54482 0.04766 0.86148 0.0
H1387 H 0.56866 0.07148 0.84673 0.0
H1388 H 0.53156 0.07521 0.84152 0.0
H1389 H 0.58147 0.07878 0.9499 0.0
H1390 H 0.57865 0.11553 0.95727 0.0
H1391 H 0.60534 0.10325 0.93605 0.0
loop_
_geom_bond_atom_site_label_1
_geom_bond_atom_site_label_2
_geom_bond_distance
_geom_bond_site_symmetry_2
_ccdc_geom_bond_type
Cu0 N1 1.999 . S
Cu0 O6 1.974 . S
Cu0 N11 1.985 . S
Cu0 O20 1.959 . S
N1 Cu0 1.999 . S
N1 C3 1.263 . S
N1 C5 1.389 . S
N2 C3 1.358 . S
N2 C4 1.400 . S
C3 N1 1.263 . S
C3 N2 1.358 . S
C3 H9 0.930 . S
C4 N2 1.400 . S
C4 C5 1.351 . S
C4 H21 0.930 . S
C5 N1 1.389 . S
C5 C4 1.351 . S
C5 H10 0.930 . S
O6 Cu0 1.974 . S
O6 C16 1.282 . S
C7 O8 1.261 . S
C7 O20 1.251 . S
O8 C7 1.261 . S
H9 C3 0.930 . S
H10 C5 0.930 . S
N11 Cu0 1.985 . S
N11 C13 1.335 . S
N11 C14 1.390 . S
N12 C13 1.345 . S
N12 C15 1.336 . S
C13 N11 1.335 . S
C13 N12 1.345 . S
C13 H18 0.930 . S
C14 N11 1.390 . S
C14 C15 1.346 . S
C14 H19 0.930 . S
C15 N12 1.336 . S
C15 C14 1.346 . S
C15 H22 0.929 . S
C16 O6 1.282 . S
C16 O17 1.216 . S
O17 C16 1.216 . S
H18 C13 0.930 . S
H19 C14 0.930 . S
O20 Cu0 1.959 . S
O20 C7 1.251 . S
H21 C4 0.930 . S
H22 C15 0.929 . S
Cu23 N24 1.999 . S
Cu23 O29 1.974 . S
Cu23 N34 1.985 . S
Cu23 O43 1.959 . S
N24 Cu23 1.999 . S
N24 C26 1.263 . S
N24 C28 1.389 . S
N25 C26 1.358 . S
N25 C27 1.400 . S
C26 N24 1.263 . S
C26 N25 1.358 . S
C26 H32 0.930 . S
C27 N25 1.400 . S
C27 C28 1.351 . S
C27 H44 0.930 . S
C28 N24 1.389 . S
C28 C27 1.351 . S
C28 H33 0.930 . S
O29 Cu23 1.974 . S
O29 C39 1.282 . S
C30 O31 1.261 . S
C30 O43 1.251 . S
O31 C30 1.261 . S
H32 C26 0.930 . S
H33 C28 0.930 . S
N34 Cu23 1.985 . S
N34 C36 1.335 . S
N34 C37 1.390 . S
N35 C36 1.345 . S
N35 C38 1.336 . S
C36 N34 1.335 . S
C36 N35 1.345 . S
C36 H41 0.930 . S
C37 N34 1.390 . S
C37 C38 1.346 . S
C37 H42 0.930 . S
C38 N35 1.336 . S
C38 C37 1.346 . S
C38 H45 0.929 . S
C39 O29 1.282 . S
C39 O40 1.216 . S
O40 C39 1.216 . S
H41 C36 0.930 . S
H42 C37 0.930 . S
O43 Cu23 1.959 . S
O43 C30 1.251 . S
H44 C27 0.930 . S
H45 C38 0.929 . S
Cu46 N47 1.999 . S
Cu46 O52 1.974 . S
Cu46 N57 1.985 . S
Cu46 O66 1.959 . S
N47 Cu46 1.999 . S
N47 C49 1.263 . S
N47 C51 1.389 . S
N48 C49 1.358 . S
N48 C50 1.400 . S
C49 N47 1.263 . S
C49 N48 1.358 . S
C49 H55 0.930 . S
C50 N48 1.400 . S
C50 C51 1.351 . S
C50 H67 0.930 . S
C51 N47 1.389 . S
C51 C50 1.351 . S
C51 H56 0.930 . S
O52 Cu46 1.974 . S
O52 C62 1.282 . S
C53 O54 1.261 . S
C53 O66 1.251 . S
O54 C53 1.261 . S
H55 C49 0.930 . S
H56 C51 0.930 . S
N57 Cu46 1.985 . S
N57 C59 1.335 . S
N57 C60 1.390 . S
N58 C59 1.345 . S
N58 C61 1.336 . S
C59 N57 1.335 . S
C59 N58 1.345 . S
C59 H64 0.930 . S
C60 N57 1.390 . S
C60 C61 1.346 . S
C60 H65 0.930 . S
C61 N58 1.336 . S
C61 C60 1.346 . S
C61 H68 0.929 . S
C62 O52 1.282 . S
C62 O63 1.216 . S
O63 C62 1.216 . S
H64 C59 0.930 . S
H65 C60 0.930 . S
O66 Cu46 1.959 . S
O66 C53 1.251 . S
H67 C50 0.930 . S
H68 C61 0.929 . S
Cu69 N70 1.999 . S
Cu69 O75 1.974 . S
Cu69 N80 1.985 . S
Cu69 O89 1.959 . S
N70 Cu69 1.999 . S
N70 C72 1.263 . S
N70 C74 1.389 . S
N71 C72 1.358 . S
N71 C73 1.400 . S
C72 N70 1.263 . S
C72 N71 1.358 . S
C72 H78 0.930 . S
C73 N71 1.400 . S
C73 C74 1.351 . S
C73 H90 0.930 . S
C74 N70 1.389 . S
C74 C73 1.351 . S
C74 H79 0.930 . S
O75 Cu69 1.974 . S
O75 C85 1.282 . S
C76 O77 1.261 . S
C76 O89 1.251 . S
O77 C76 1.261 . S
H78 C72 0.930 . S
H79 C74 0.930 . S
N80 Cu69 1.985 . S
N80 C82 1.335 . S
N80 C83 1.390 . S
N81 C82 1.345 . S
N81 C84 1.336 . S
C82 N80 1.335 . S
C82 N81 1.345 . S
C82 H87 0.930 . S
C83 N80 1.390 . S
C83 C84 1.346 . S
C83 H88 0.930 . S
C84 N81 1.336 . S
C84 C83 1.346 . S
C84 H91 0.929 . S
C85 O75 1.282 . S
C85 O86 1.216 . S
O86 C85 1.216 . S
H87 C82 0.930 . S
H88 C83 0.930 . S
O89 Cu69 1.959 . S
O89 C76 1.251 . S
H90 C73 0.930 . S
H91 C84 0.929 . S
Cu92 N93 1.999 . S
Cu92 O98 1.974 . S
Cu92 N103 1.985 . S
Cu92 O112 1.959 . S
N93 Cu92 1.999 . S
N93 C95 1.263 . S
N93 C97 1.389 . S
N94 C95 1.358 . S
N94 C96 1.400 . S
C95 N93 1.263 . S
C95 N94 1.358 . S
C95 H101 0.930 . S
C96 N94 1.400 . S
C96 C97 1.351 . S
C96 H113 0.930 . S
C97 N93 1.389 . S
C97 C96 1.351 . S
C97 H102 0.930 . S
O98 Cu92 1.974 . S
O98 C108 1.282 . S
C99 O100 1.261 . S
C99 O112 1.251 . S
O100 C99 1.261 . S
H101 C95 0.930 . S
H102 C97 0.930 . S
N103 Cu92 1.985 . S
N103 C105 1.335 . S
N103 C106 1.390 . S
N104 C105 1.345 . S
N104 C107 1.336 . S
C105 N103 1.335 . S
C105 N104 1.345 . S
C105 H110 0.930 . S
C106 N103 1.390 . S
C106 C107 1.346 . S
C106 H111 0.930 . S
C107 N104 1.336 . S
C107 C106 1.346 . S
C107 H114 0.929 . S
C108 O98 1.282 . S
C108 O109 1.216 . S
O109 C108 1.216 . S
H110 C105 0.930 . S
H111 C106 0.930 . S
O112 Cu92 1.959 . S
O112 C99 1.251 . S
H113 C96 0.930 . S
H114 C107 0.929 . S
Cu115 N116 1.999 . S
Cu115 O121 1.974 . S
Cu115 N126 1.985 . S
Cu115 O135 1.959 . S
N116 Cu115 1.999 . S
N116 C118 1.263 . S
N116 C120 1.389 . S
N117 C118 1.358 . S
N117 C119 1.400 . S
C118 N116 1.263 . S
C118 N117 1.358 . S
C118 H124 0.930 . S
C119 N117 1.400 . S
C119 C120 1.351 . S
C119 H136 0.930 . S
C120 N116 1.389 . S
C120 C119 1.351 . S
C120 H125 0.930 . S
O121 Cu115 1.974 . S
O121 C131 1.282 . S
C122 O123 1.261 . S
C122 O135 1.251 . S
O123 C122 1.261 . S
H124 C118 0.930 . S
H125 C120 0.930 . S
N126 Cu115 1.985 . S
N126 C128 1.335 . S
N126 C129 1.390 . S
N127 C128 1.345 . S
N127 C130 1.336 . S
C128 N126 1.335 . S
C128 N127 1.345 . S
C128 H133 0.930 . S
C129 N126 1.390 . S
C129 C130 1.346 . S
C129 H134 0.930 . S
C130 N127 1.336 . S
C130 C129 1.346 . S
C130 H137 0.929 . S
C131 O121 1.282 . S
C131 O132 1.216 . S
O132 C131 1.216 . S
H133 C128 0.930 . S
H134 C129 0.930 . S
O135 Cu115 1.959 . S
O135 C122 1.251 . S
H136 C119 0.930 . S
H137 C130 0.929 . S
Cu138 N139 1.999 . S
Cu138 O144 1.974 . S
Cu138 N149 1.985 . S
Cu138 O158 1.959 . S
N139 Cu138 1.999 . S
N139 C141 1.263 . S
N139 C143 1.389 . S
N140 C141 1.358 . S
N140 C142 1.400 . S
C141 N139 1.263 . S
C141 N140 1.358 . S
C141 H147 0.930 . S
C142 N140 1.400 . S
C142 C143 1.351 . S
C142 H159 0.930 . S
C143 N139 1.389 . S
C143 C142 1.351 . S
C143 H148 0.930 . S
O144 Cu138 1.974 . S
O144 C154 1.282 . S
C145 O146 1.261 . S
C145 O158 1.251 . S
O146 C145 1.261 . S
H147 C141 0.930 . S
H148 C143 0.930 . S
N149 Cu138 1.985 . S
N149 C151 1.335 . S
N149 C152 1.390 . S
N150 C151 1.345 . S
N150 C153 1.336 . S
C151 N149 1.335 . S
C151 N150 1.345 . S
C151 H156 0.930 . S
C152 N149 1.390 . S
C152 C153 1.346 . S
C152 H157 0.930 . S
C153 N150 1.336 . S
C153 C152 1.346 . S
C153 H160 0.929 . S
C154 O144 1.282 . S
C154 O155 1.216 . S
O155 C154 1.216 . S
H156 C151 0.930 . S
H157 C152 0.930 . S
O158 Cu138 1.959 . S
O158 C145 1.251 . S
H159 C142 0.930 . S
H160 C153 0.929 . S
Cu161 N162 1.999 . S
Cu161 O167 1.974 . S
Cu161 N172 1.985 . S
Cu161 O181 1.959 . S
N162 Cu161 1.999 . S
N162 C164 1.263 . S
N162 C166 1.389 . S
N163 C164 1.358 . S
N163 C165 1.400 . S
C164 N162 1.263 . S
C164 N163 1.358 . S
C164 H170 0.930 . S
C165 N163 1.400 . S
C165 C166 1.351 . S
C165 H182 0.930 . S
C166 N162 1.389 . S
C166 C165 1.351 . S
C166 H171 0.930 . S
O167 Cu161 1.974 . S
O167 C177 1.282 . S
C168 O169 1.261 . S
C168 O181 1.251 . S
O169 C168 1.261 . S
H170 C164 0.930 . S
H171 C166 0.930 . S
N172 Cu161 1.985 . S
N172 C174 1.335 . S
N172 C175 1.390 . S
N173 C174 1.345 . S
N173 C176 1.336 . S
C174 N172 1.335 . S
C174 N173 1.345 . S
C174 H179 0.930 . S
C175 N172 1.390 . S
C175 C176 1.346 . S
C175 H180 0.930 . S
C176 N173 1.336 . S
C176 C175 1.346 . S
C176 H183 0.929 . S
C177 O167 1.282 . S
C177 O178 1.216 . S
O178 C177 1.216 . S
H179 C174 0.930 . S
H180 C175 0.930 . S
O181 Cu161 1.959 . S
O181 C168 1.251 . S
H182 C165 0.930 . S
H183 C176 0.929 . S
Cu184 N185 1.999 . S
Cu184 O190 1.974 . S
Cu184 N195 1.985 . S
Cu184 O204 1.959 . S
N185 Cu184 1.999 . S
N185 C187 1.263 . S
N185 C189 1.389 . S
N186 C187 1.358 . S
N186 C188 1.400 . S
C187 N185 1.263 . S
C187 N186 1.358 . S
C187 H193 0.930 . S
C188 N186 1.400 . S
C188 C189 1.351 . S
C188 H205 0.930 . S
C189 N185 1.389 . S
C189 C188 1.351 . S
C189 H194 0.930 . S
O190 Cu184 1.974 . S
O190 C200 1.282 . S
C191 O192 1.261 . S
C191 O204 1.251 . S
O192 C191 1.261 . S
H193 C187 0.930 . S
H194 C189 0.930 . S
N195 Cu184 1.985 . S
N195 C197 1.335 . S
N195 C198 1.390 . S
N196 C197 1.345 . S
N196 C199 1.336 . S
C197 N195 1.335 . S
C197 N196 1.345 . S
C197 H202 0.930 . S
C198 N195 1.390 . S
C198 C199 1.346 . S
C198 H203 0.930 . S
C199 N196 1.336 . S
C199 C198 1.346 . S
C199 H206 0.929 . S
C200 O190 1.282 . S
C200 O201 1.216 . S
O201 C200 1.216 . S
H202 C197 0.930 . S
H203 C198 0.930 . S
O204 Cu184 1.959 . S
O204 C191 1.251 . S
H205 C188 0.930 . S
H206 C199 0.929 . S
Cu207 N208 1.999 . S
Cu207 O213 1.974 . S
Cu207 N218 1.985 . S
Cu207 O227 1.959 . S
N208 Cu207 1.999 . S
N208 C210 1.263 . S
N208 C212 1.389 . S
N209 C210 1.358 . S
N209 C211 1.400 . S
C210 N208 1.263 . S
C210 N209 1.358 . S
C210 H216 0.930 . S
C211 N209 1.400 . S
C211 C212 1.351 . S
C211 H228 0.930 . S
C212 N208 1.389 . S
C212 C211 1.351 . S
C212 H217 0.930 . S
O213 Cu207 1.974 . S
O213 C223 1.282 . S
C214 O215 1.261 . S
C214 O227 1.251 . S
O215 C214 1.261 . S
H216 C210 0.930 . S
H217 C212 0.930 . S
N218 Cu207 1.985 . S
N218 C220 1.335 . S
N218 C221 1.390 . S
N219 C220 1.345 . S
N219 C222 1.336 . S
C220 N218 1.335 . S
C220 N219 1.345 . S
C220 H225 0.930 . S
C221 N218 1.390 . S
C221 C222 1.346 . S
C221 H226 0.930 . S
C222 N219 1.336 . S
C222 C221 1.346 . S
C222 H229 0.929 . S
C223 O213 1.282 . S
C223 O224 1.216 . S
O224 C223 1.216 . S
H225 C220 0.930 . S
H226 C221 0.930 . S
O227 Cu207 1.959 . S
O227 C214 1.251 . S
H228 C211 0.930 . S
H229 C222 0.929 . S
Cu230 N231 1.999 . S
Cu230 O236 1.974 . S
Cu230 N241 1.985 . S
Cu230 O250 1.959 . S
N231 Cu230 1.999 . S
N231 C233 1.263 . S
N231 C235 1.389 . S
N232 C233 1.358 . S
N232 C234 1.400 . S
C233 N231 1.263 . S
C233 N232 1.358 . S
C233 H239 0.930 . S
C234 N232 1.400 . S
C234 C235 1.351 . S
C234 H251 0.930 . S
C235 N231 1.389 . S
C235 C234 1.351 . S
C235 H240 0.930 . S
O236 Cu230 1.974 . S
O236 C246 1.282 . S
C237 O238 1.261 . S
C237 O250 1.251 . S
O238 C237 1.261 . S
H239 C233 0.930 . S
H240 C235 0.930 . S
N241 Cu230 1.985 . S
N241 C243 1.335 . S
N241 C244 1.390 . S
N242 C243 1.345 . S
N242 C245 1.336 . S
C243 N241 1.335 . S
C243 N242 1.345 . S
C243 H248 0.930 . S
C244 N241 1.390 . S
C244 C245 1.346 . S
C244 H249 0.930 . S
C245 N242 1.336 . S
C245 C244 1.346 . S
C245 H252 0.929 . S
C246 O236 1.282 . S
C246 O247 1.216 . S
O247 C246 1.216 . S
H248 C243 0.930 . S
H249 C244 0.930 . S
O250 Cu230 1.959 . S
O250 C237 1.251 . S
H251 C234 0.930 . S
H252 C245 0.929 . S
Cu253 N254 1.999 . S
Cu253 O259 1.974 . S
Cu253 N264 1.985 . S
Cu253 O273 1.959 . S
N254 Cu253 1.999 . S
N254 C256 1.263 . S
N254 C258 1.389 . S
N255 C256 1.358 . S
N255 C257 1.400 . S
C256 N254 1.263 . S
C256 N255 1.358 . S
C256 H262 0.930 . S
C257 N255 1.400 . S
C257 C258 1.351 . S
C257 H274 0.930 . S
C258 N254 1.389 . S
C258 C257 1.351 . S
C258 H263 0.930 . S
O259 Cu253 1.974 . S
O259 C269 1.282 . S
C260 O261 1.261 . S
C260 O273 1.251 . S
O261 C260 1.261 . S
H262 C256 0.930 . S
H263 C258 0.930 . S
N264 Cu253 1.985 . S
N264 C266 1.335 . S
N264 C267 1.390 . S
N265 C266 1.345 . S
N265 C268 1.336 . S
C266 N264 1.335 . S
C266 N265 1.345 . S
C266 H271 0.930 . S
C267 N264 1.390 . S
C267 C268 1.346 . S
C267 H272 0.930 . S
C268 N265 1.336 . S
C268 C267 1.346 . S
C268 H275 0.929 . S
C269 O259 1.282 . S
C269 O270 1.216 . S
O270 C269 1.216 . S
H271 C266 0.930 . S
H272 C267 0.930 . S
O273 Cu253 1.959 . S
O273 C260 1.251 . S
H274 C257 0.930 . S
H275 C268 0.929 . S
Cu276 N277 1.999 . S
Cu276 O282 1.974 . S
Cu276 N287 1.985 . S
Cu276 O296 1.959 . S
N277 Cu276 1.999 . S
N277 C279 1.263 . S
N277 C281 1.389 . S
N278 C279 1.358 . S
N278 C280 1.400 . S
C279 N277 1.263 . S
C279 N278 1.358 . S
C279 H285 0.930 . S
C280 N278 1.400 . S
C280 C281 1.351 . S
C280 H297 0.930 . S
C281 N277 1.389 . S
C281 C280 1.351 . S
C281 H286 0.930 . S
O282 Cu276 1.974 . S
O282 C292 1.282 . S
C283 O284 1.261 . S
C283 O296 1.251 . S
O284 C283 1.261 . S
H285 C279 0.930 . S
H286 C281 0.930 . S
N287 Cu276 1.985 . S
N287 C289 1.335 . S
N287 C290 1.390 . S
N288 C289 1.345 . S
N288 C291 1.336 . S
C289 N287 1.335 . S
C289 N288 1.345 . S
C289 H294 0.930 . S
C290 N287 1.390 . S
C290 C291 1.346 . S
C290 H295 0.930 . S
C291 N288 1.336 . S
C291 C290 1.346 . S
C291 H298 0.929 . S
C292 O282 1.282 . S
C292 O293 1.216 . S
O293 C292 1.216 . S
H294 C289 0.930 . S
H295 C290 0.930 . S
O296 Cu276 1.959 . S
O296 C283 1.251 . S
H297 C280 0.930 . S
H298 C291 0.929 . S
Cu299 N300 1.999 . S
Cu299 O305 1.974 . S
Cu299 N310 1.985 . S
Cu299 O319 1.959 . S
N300 Cu299 1.999 . S
N300 C302 1.263 . S
N300 C304 1.389 . S
N301 C302 1.358 . S
N301 C303 1.400 . S
C302 N300 1.263 . S
C302 N301 1.358 . S
C302 H308 0.930 . S
C303 N301 1.400 . S
C303 C304 1.351 . S
C303 H320 0.930 . S
C304 N300 1.389 . S
C304 C303 1.351 . S
C304 H309 0.930 . S
O305 Cu299 1.974 . S
O305 C315 1.282 . S
C306 O307 1.261 . S
C306 O319 1.251 . S
O307 C306 1.261 . S
H308 C302 0.930 . S
H309 C304 0.930 . S
N310 Cu299 1.985 . S
N310 C312 1.335 . S
N310 C313 1.390 . S
N311 C312 1.345 . S
N311 C314 1.336 . S
C312 N310 1.335 . S
C312 N311 1.345 . S
C312 H317 0.930 . S
C313 N310 1.390 . S
C313 C314 1.346 . S
C313 H318 0.930 . S
C314 N311 1.336 . S
C314 C313 1.346 . S
C314 H321 0.929 . S
C315 O305 1.282 . S
C315 O316 1.216 . S
O316 C315 1.216 . S
H317 C312 0.930 . S
H318 C313 0.930 . S
O319 Cu299 1.959 . S
O319 C306 1.251 . S
H320 C303 0.930 . S
H321 C314 0.929 . S
Cu322 N323 1.999 . S
Cu322 O328 1.974 . S
Cu322 N333 1.985 . S
Cu322 O342 1.959 . S
N323 Cu322 1.999 . S
N323 C325 1.263 . S
N323 C327 1.389 . S
N324 C325 1.358 . S
N324 C326 1.400 . S
C325 N323 1.263 . S
C325 N324 1.358 . S
C325 H331 0.930 . S
C326 N324 1.400 . S
C326 C327 1.351 . S
C326 H343 0.930 . S
C327 N323 1.389 . S
C327 C326 1.351 . S
C327 H332 0.930 . S
O328 Cu322 1.974 . S
O328 C338 1.282 . S
C329 O330 1.261 . S
C329 O342 1.251 . S
O330 C329 1.261 . S
H331 C325 0.930 . S
H332 C327 0.930 . S
N333 Cu322 1.985 . S
N333 C335 1.335 . S
N333 C336 1.390 . S
N334 C335 1.345 . S
N334 C337 1.336 . S
C335 N333 1.335 . S
C335 N334 1.345 . S
C335 H340 0.930 . S
C336 N333 1.390 . S
C336 C337 1.346 . S
C336 H341 0.930 . S
C337 N334 1.336 . S
C337 C336 1.346 . S
C337 H344 0.929 . S
C338 O328 1.282 . S
C338 O339 1.216 . S
O339 C338 1.216 . S
H340 C335 0.930 . S
H341 C336 0.930 . S
O342 Cu322 1.959 . S
O342 C329 1.251 . S
H343 C326 0.930 . S
H344 C337 0.929 . S
Cu345 N346 1.999 . S
Cu345 O351 1.974 . S
Cu345 N356 1.985 . S
Cu345 O365 1.959 . S
N346 Cu345 1.999 . S
N346 C348 1.263 . S
N346 C350 1.389 . S
N347 C348 1.358 . S
N347 C349 1.400 . S
C348 N346 1.263 . S
C348 N347 1.358 . S
C348 H354 0.930 . S
C349 N347 1.400 . S
C349 C350 1.351 . S
C349 H366 0.930 . S
C350 N346 1.389 . S
C350 C349 1.351 . S
C350 H355 0.930 . S
O351 Cu345 1.974 . S
O351 C361 1.282 . S
C352 O353 1.261 . S
C352 O365 1.251 . S
O353 C352 1.261 . S
H354 C348 0.930 . S
H355 C350 0.930 . S
N356 Cu345 1.985 . S
N356 C358 1.335 . S
N356 C359 1.390 . S
N357 C358 1.345 . S
N357 C360 1.336 . S
C358 N356 1.335 . S
C358 N357 1.345 . S
C358 H363 0.930 . S
C359 N356 1.390 . S
C359 C360 1.346 . S
C359 H364 0.930 . S
C360 N357 1.336 . S
C360 C359 1.346 . S
C360 H367 0.929 . S
C361 O351 1.282 . S
C361 O362 1.216 . S
O362 C361 1.216 . S
H363 C358 0.930 . S
H364 C359 0.930 . S
O365 Cu345 1.959 . S
O365 C352 1.251 . S
H366 C349 0.930 . S
H367 C360 0.929 . S
C368 C369 1.391 . S
C368 C370 1.394 . S
C368 H384 0.931 . S
C369 C368 1.391 . S
C369 C373 1.376 . S
C370 C368 1.394 . S
C370 C371 1.369 . S
C370 C374 1.531 . S
C371 C370 1.369 . S
C371 C372 1.410 . S
C371 C379 1.503 1_556 S
C372 C371 1.410 . S
C372 C373 1.392 . S
C372 C375 1.511 1_556 S
C373 C369 1.376 . S
C373 C372 1.392 . S
C373 H385 0.929 . S
C374 C370 1.531 . S
C374 H386 0.960 . S
C374 H387 0.962 . S
C374 H388 0.960 . S
C375 C372 1.511 1_554 S
C375 H389 0.961 1_554 S
C375 H390 0.961 . S
C375 H391 0.961 . S
C376 C377 1.370 . S
C376 C378 1.363 . S
C376 H392 0.931 . S
C377 C376 1.370 . S
C377 C381 1.408 . S
C378 C376 1.363 . S
C378 C379 1.370 . S
C378 C382 1.524 . S
C379 C371 1.503 1_554 S
C379 C378 1.370 . S
C379 C380 1.403 . S
C380 C379 1.403 . S
C380 C381 1.404 . S
C380 C383 1.539 . S
C381 C377 1.408 . S
C381 C380 1.404 . S
C381 H393 0.930 . S
C382 C378 1.524 . S
C382 H394 0.956 1_554 S
C382 H395 0.961 . S
C382 H396 0.961 . S
C383 C380 1.539 . S
C383 H397 0.958 . S
C383 H398 0.961 . S
C383 H399 0.960 . S
H384 C368 0.931 . S
H385 C373 0.929 . S
H386 C374 0.960 . S
H387 C374 0.962 . S
H388 C374 0.960 . S
H389 C375 0.961 1_556 S
H390 C375 0.961 . S
H391 C375 0.961 . S
H392 C376 0.931 . S
H393 C381 0.930 . S
H394 C382 0.956 1_556 S
H395 C382 0.961 . S
H396 C382 0.961 . S
H397 C383 0.958 . S
H398 C383 0.961 . S
H399 C383 0.960 . S
C400 C401 1.391 . S
C400 C402 1.394 . S
C400 H416 0.931 . S
C401 C400 1.391 . S
C401 C405 1.376 . S
C402 C400 1.394 . S
C402 C403 1.369 . S
C402 C406 1.531 . S
C403 C402 1.369 . S
C403 C404 1.410 . S
C403 C411 1.503 . S
C404 C403 1.410 . S
C404 C405 1.392 . S
C404 C407 1.511 . S
C405 C401 1.376 . S
C405 C404 1.392 . S
C405 H417 0.929 . S
C406 C402 1.531 . S
C406 H418 0.960 . S
C406 H419 0.962 . S
C406 H420 0.960 . S
C407 C404 1.511 . S
C407 H421 0.961 . S
C407 H422 0.961 . S
C407 H423 0.961 . S
C408 C409 1.370 . S
C408 C410 1.363 . S
C408 H424 0.931 . S
C409 C408 1.370 . S
C409 C413 1.408 . S
C410 C408 1.363 . S
C410 C411 1.370 . S
C410 C414 1.524 . S
C411 C403 1.503 . S
C411 C410 1.370 . S
C411 C412 1.403 . S
C412 C411 1.403 . S
C412 C413 1.404 . S
C412 C415 1.539 . S
C413 C409 1.408 . S
C413 C412 1.404 . S
C413 H425 0.930 . S
C414 C410 1.524 . S
C414 H426 0.956 . S
C414 H427 0.961 . S
C414 H428 0.961 . S
C415 C412 1.539 . S
C415 H429 0.958 . S
C415 H430 0.961 . S
C415 H431 0.960 . S
H416 C400 0.931 . S
H417 C405 0.929 . S
H418 C406 0.960 . S
H419 C406 0.962 . S
H420 C406 0.960 . S
H421 C407 0.961 . S
H422 C407 0.961 . S
H423 C407 0.961 . S
H424 C408 0.931 . S
H425 C413 0.930 . S
H426 C414 0.956 . S
H427 C414 0.961 . S
H428 C414 0.961 . S
H429 C415 0.958 . S
H430 C415 0.961 . S
H431 C415 0.960 . S
C432 C433 1.391 . S
C432 C434 1.394 . S
C432 H448 0.931 . S
C433 C432 1.391 . S
C433 C437 1.376 . S
C434 C432 1.394 . S
C434 C435 1.369 . S
C434 C438 1.531 . S
C435 C434 1.369 . S
C435 C436 1.410 . S
C435 C443 1.503 1_556 S
C436 C435 1.410 . S
C436 C437 1.392 . S
C436 C439 1.512 . S
C437 C433 1.376 . S
C437 C436 1.392 . S
C437 H449 0.929 . S
C438 C434 1.531 . S
C438 H450 0.960 . S
C438 H451 0.962 . S
C438 H452 0.960 . S
C439 C436 1.512 . S
C439 H453 0.961 . S
C439 H454 0.960 1_556 S
C439 H455 0.960 1_556 S
C440 C441 1.370 . S
C440 C442 1.363 . S
C440 H456 0.931 . S
C441 C440 1.370 . S
C441 C445 1.408 . S
C442 C440 1.363 . S
C442 C443 1.370 . S
C442 C446 1.524 . S
C443 C435 1.503 1_554 S
C443 C442 1.370 . S
C443 C444 1.403 . S
C444 C443 1.403 . S
C444 C445 1.404 . S
C444 C447 1.539 . S
C445 C441 1.408 . S
C445 C444 1.404 . S
C445 H457 0.930 . S
C446 C442 1.524 . S
C446 H458 0.956 . S
C446 H459 0.961 . S
C446 H460 0.961 . S
C447 C444 1.539 . S
C447 H461 0.958 . S
C447 H462 0.961 . S
C447 H463 0.960 1_554 S
H448 C432 0.931 . S
H449 C437 0.929 . S
H450 C438 0.960 . S
H451 C438 0.962 . S
H452 C438 0.960 . S
H453 C439 0.961 . S
H454 C439 0.960 1_554 S
H455 C439 0.960 1_554 S
H456 C440 0.931 . S
H457 C445 0.930 . S
H458 C446 0.956 . S
H459 C446 0.961 . S
H460 C446 0.961 . S
H461 C447 0.958 . S
H462 C447 0.961 . S
H463 C447 0.960 1_556 S
C464 C465 1.391 . S
C464 C466 1.394 . S
C464 H480 0.931 . S
C465 C464 1.391 . S
C465 C469 1.376 . S
C466 C464 1.394 . S
C466 C467 1.369 . S
C466 C470 1.531 . S
C467 C466 1.369 . S
C467 C468 1.410 . S
C467 C475 1.503 . S
C468 C467 1.410 . S
C468 C469 1.392 . S
C468 C471 1.511 . S
C469 C465 1.376 . S
C469 C468 1.392 . S
C469 H481 0.929 . S
C470 C466 1.531 . S
C470 H482 0.960 . S
C470 H483 0.962 . S
C470 H484 0.960 . S
C471 C468 1.511 . S
C471 H485 0.961 . S
C471 H486 0.961 . S
C471 H487 0.961 . S
C472 C473 1.370 . S
C472 C474 1.363 . S
C472 H488 0.931 . S
C473 C472 1.370 . S
C473 C477 1.408 . S
C474 C472 1.363 . S
C474 C475 1.370 . S
C474 C478 1.524 . S
C475 C467 1.503 . S
C475 C474 1.370 . S
C475 C476 1.403 . S
C476 C475 1.403 . S
C476 C477 1.404 . S
C476 C479 1.539 . S
C477 C473 1.408 . S
C477 C476 1.404 . S
C477 H489 0.930 . S
C478 C474 1.524 . S
C478 H490 0.956 . S
C478 H491 0.961 . S
C478 H492 0.961 . S
C479 C476 1.539 . S
C479 H493 0.958 . S
C479 H494 0.961 . S
C479 H495 0.960 . S
H480 C464 0.931 . S
H481 C469 0.929 . S
H482 C470 0.960 . S
H483 C470 0.962 . S
H484 C470 0.960 . S
H485 C471 0.961 . S
H486 C471 0.961 . S
H487 C471 0.961 . S
H488 C472 0.931 . S
H489 C477 0.930 . S
H490 C478 0.956 . S
H491 C478 0.961 . S
H492 C478 0.961 . S
H493 C479 0.958 . S
H494 C479 0.961 . S
H495 C479 0.960 . S
C496 C497 1.391 . S
C496 C498 1.394 . S
C496 H512 0.931 . S
C497 C496 1.391 . S
C497 C501 1.376 . S
C498 C496 1.394 . S
C498 C499 1.369 . S
C498 C502 1.539 . S
C499 C498 1.369 . S
C499 C500 1.410 . S
C499 C507 1.503 1_554 S
C500 C499 1.410 . S
C500 C501 1.392 . S
C500 C503 1.511 . S
C501 C497 1.376 . S
C501 C500 1.392 . S
C501 H513 0.929 . S
C502 C498 1.539 . S
C502 H514 0.952 1_554 S
C502 H515 0.957 1_554 S
C502 H516 0.966 . S
C503 C500 1.511 . S
C503 H517 0.961 . S
C503 H518 0.961 . S
C503 H519 0.961 . S
C504 C505 1.370 . S
C504 C506 1.363 . S
C504 H520 0.931 . S
C505 C504 1.370 . S
C505 C509 1.408 . S
C506 C504 1.363 . S
C506 C507 1.370 . S
C506 C510 1.524 . S
C507 C499 1.503 1_556 S
C507 C506 1.370 . S
C507 C508 1.403 . S
C508 C507 1.403 . S
C508 C509 1.404 . S
C508 C511 1.539 . S
C509 C505 1.408 . S
C509 C508 1.404 . S
C509 H521 0.930 . S
C510 C506 1.524 . S
C510 H522 0.956 . S
C510 H523 0.984 . S
C510 H524 0.961 . S
C511 C508 1.539 . S
C511 H525 0.958 . S
C511 H526 0.961 . S
C511 H527 0.960 1_556 S
H512 C496 0.931 . S
H513 C501 0.929 . S
H514 C502 0.952 1_556 S
H515 C502 0.957 1_556 S
H516 C502 0.966 . S
H517 C503 0.961 . S
H518 C503 0.961 . S
H519 C503 0.961 . S
H520 C504 0.931 . S
H521 C509 0.930 . S
H522 C510 0.956 . S
H523 C510 0.984 . S
H524 C510 0.961 . S
H525 C511 0.958 . S
H526 C511 0.961 . S
H527 C511 0.960 1_554 S
C528 C529 1.391 . S
C528 C530 1.394 . S
C528 H544 0.931 . S
C529 C528 1.391 . S
C529 C533 1.376 . S
C530 C528 1.394 . S
C530 C531 1.369 . S
C530 C534 1.531 . S
C531 C530 1.369 . S
C531 C532 1.410 . S
C531 C539 1.503 . S
C532 C531 1.410 . S
C532 C533 1.392 . S
C532 C535 1.511 . S
C533 C529 1.376 . S
C533 C532 1.392 . S
C533 H545 0.929 . S
C534 C530 1.531 . S
C534 H546 0.960 . S
C534 H547 0.962 . S
C534 H548 0.960 . S
C535 C532 1.511 . S
C535 H549 0.961 . S
C535 H550 0.961 . S
C535 H551 0.961 . S
C536 C537 1.370 . S
C536 C538 1.363 . S
C536 H552 0.931 . S
C537 C536 1.370 . S
C537 C541 1.408 . S
C538 C536 1.363 . S
C538 C539 1.370 . S
C538 C542 1.524 . S
C539 C531 1.503 . S
C539 C538 1.370 . S
C539 C540 1.403 . S
C540 C539 1.403 . S
C540 C541 1.404 . S
C540 C543 1.539 . S
C541 C537 1.408 . S
C541 C540 1.404 . S
C541 H553 0.930 . S
C542 C538 1.524 . S
C542 H554 0.956 . S
C542 H555 0.961 . S
C542 H556 0.961 . S
C543 C540 1.539 . S
C543 H557 0.958 . S
C543 H558 0.961 . S
C543 H559 0.960 . S
H544 C528 0.931 . S
H545 C533 0.929 . S
H546 C534 0.960 . S
H547 C534 0.962 . S
H548 C534 0.960 . S
H549 C535 0.961 . S
H550 C535 0.961 . S
H551 C535 0.961 . S
H552 C536 0.931 . S
H553 C541 0.930 . S
H554 C542 0.956 . S
H555 C542 0.961 . S
H556 C542 0.961 . S
H557 C543 0.958 . S
H558 C543 0.961 . S
H559 C543 0.960 . S
C560 C561 1.391 . S
C560 C562 1.394 . S
C560 H576 0.931 . S
C561 C560 1.391 . S
C561 C565 1.376 . S
C562 C560 1.394 . S
C562 C563 1.369 . S
C562 C566 1.531 1_556 S
C563 C562 1.369 . S
C563 C564 1.410 . S
C563 C571 1.503 1_556 S
C564 C563 1.410 . S
C564 C565 1.392 . S
C564 C567 1.511 . S
C565 C561 1.376 . S
C565 C564 1.392 . S
C565 H577 0.929 . S
C566 C562 1.531 1_554 S
C566 H578 0.960 . S
C566 H579 0.962 . S
C566 H580 0.960 1_554 S
C567 C564 1.511 . S
C567 H581 0.961 . S
C567 H582 0.961 . S
C567 H583 0.961 . S
C568 C569 1.370 . S
C568 C570 1.363 . S
C568 H584 0.931 . S
C569 C568 1.370 . S
C569 C573 1.408 . S
C570 C568 1.363 . S
C570 C571 1.370 . S
C570 C574 1.524 . S
C571 C563 1.503 1_554 S
C571 C570 1.370 . S
C571 C572 1.403 . S
C572 C571 1.403 . S
C572 C573 1.404 . S
C572 C575 1.539 . S
C573 C569 1.408 . S
C573 C572 1.404 . S
C573 H585 0.930 . S
C574 C570 1.524 . S
C574 H586 0.956 . S
C574 H587 0.961 1_554 S
C574 H588 0.961 . S
C575 C572 1.539 . S
C575 H589 0.958 . S
C575 H590 0.961 . S
C575 H591 0.960 1_554 S
H576 C560 0.931 . S
H577 C565 0.929 . S
H578 C566 0.960 . S
H579 C566 0.962 . S
H580 C566 0.960 1_556 S
H581 C567 0.961 . S
H582 C567 0.961 . S
H583 C567 0.961 . S
H584 C568 0.931 . S
H585 C573 0.930 . S
H586 C574 0.956 . S
H587 C574 0.961 1_556 S
H588 C574 0.961 . S
H589 C575 0.958 . S
H590 C575 0.961 . S
H591 C575 0.960 1_556 S
C592 C593 1.391 . S
C592 C594 1.394 . S
C592 H608 0.931 . S
C593 C592 1.391 . S
C593 C597 1.376 . S
C594 C592 1.394 . S
C594 C595 1.369 . S
C594 C598 1.531 . S
C595 C594 1.369 . S
C595 C596 1.410 . S
C595 C603 1.503 . S
C596 C595 1.410 . S
C596 C597 1.392 . S
C596 C599 1.511 . S
C597 C593 1.376 . S
C597 C596 1.392 . S
C597 H609 0.929 . S
C598 C594 1.531 . S
C598 H610 0.960 . S
C598 H611 0.962 . S
C598 H612 0.960 . S
C599 C596 1.511 . S
C599 H613 0.961 . S
C599 H614 0.961 . S
C599 H615 0.961 . S
C600 C601 1.370 . S
C600 C602 1.363 . S
C600 H616 0.931 . S
C601 C600 1.370 . S
C601 C605 1.408 . S
C602 C600 1.363 . S
C602 C603 1.370 . S
C602 C606 1.524 . S
C603 C595 1.503 . S
C603 C602 1.370 . S
C603 C604 1.403 . S
C604 C603 1.403 . S
C604 C605 1.404 . S
C604 C607 1.539 . S
C605 C601 1.408 . S
C605 C604 1.404 . S
C605 H617 0.930 . S
C606 C602 1.524 . S
C606 H618 0.956 . S
C606 H619 0.961 . S
C606 H620 0.961 . S
C607 C604 1.539 . S
C607 H621 0.958 . S
C607 H622 0.961 . S
C607 H623 0.960 . S
H608 C592 0.931 . S
H609 C597 0.929 . S
H610 C598 0.960 . S
H611 C598 0.962 . S
H612 C598 0.960 . S
H613 C599 0.961 . S
H614 C599 0.961 . S
H615 C599 0.961 . S
H616 C600 0.931 . S
H617 C605 0.930 . S
H618 C606 0.956 . S
H619 C606 0.961 . S
H620 C606 0.961 . S
H621 C607 0.958 . S
H622 C607 0.961 . S
H623 C607 0.960 . S
C624 C625 1.391 . S
C624 C626 1.394 . S
C624 H640 0.931 . S
C625 C624 1.391 . S
C625 C629 1.376 . S
C626 C624 1.394 . S
C626 C627 1.369 . S
C626 C630 1.531 . S
C627 C626 1.369 . S
C627 C628 1.410 . S
C627 C635 1.503 . S
C628 C627 1.410 . S
C628 C629 1.392 . S
C628 C631 1.511 . S
C629 C625 1.376 . S
C629 C628 1.392 . S
C629 H641 0.929 . S
C630 C626 1.531 . S
C630 H642 0.960 . S
C630 H643 0.962 . S
C630 H644 0.960 . S
C631 C628 1.511 . S
C631 H645 0.961 . S
C631 H646 0.961 . S
C631 H647 0.961 . S
C632 C633 1.370 . S
C632 C634 1.363 . S
C632 H648 0.931 . S
C633 C632 1.370 . S
C633 C637 1.408 . S
C634 C632 1.363 . S
C634 C635 1.370 . S
C634 C638 1.524 . S
C635 C627 1.503 . S
C635 C634 1.370 . S
C635 C636 1.403 . S
C636 C635 1.403 . S
C636 C637 1.404 . S
C636 C639 1.539 . S
C637 C633 1.408 . S
C637 C636 1.404 . S
C637 H649 0.930 . S
C638 C634 1.524 . S
C638 H650 0.956 . S
C638 H651 0.961 . S
C638 H652 0.961 . S
C639 C636 1.539 . S
C639 H653 0.958 . S
C639 H654 0.961 . S
C639 H655 0.960 . S
H640 C624 0.931 . S
H641 C629 0.929 . S
H642 C630 0.960 . S
H643 C630 0.962 . S
H644 C630 0.960 . S
H645 C631 0.961 . S
H646 C631 0.961 . S
H647 C631 0.961 . S
H648 C632 0.931 . S
H649 C637 0.930 . S
H650 C638 0.956 . S
H651 C638 0.961 . S
H652 C638 0.961 . S
H653 C639 0.958 . S
H654 C639 0.961 . S
H655 C639 0.960 . S
C656 C657 1.391 . S
C656 C658 1.394 . S
C656 H672 0.931 . S
C657 C656 1.391 . S
C657 C661 1.376 . S
C658 C656 1.394 . S
C658 C659 1.369 . S
C658 C662 1.531 . S
C659 C658 1.369 . S
C659 C660 1.410 . S
C659 C667 1.503 . S
C660 C659 1.410 . S
C660 C661 1.392 . S
C660 C663 1.511 . S
C661 C657 1.376 . S
C661 C660 1.392 . S
C661 H673 0.929 . S
C662 C658 1.531 . S
C662 H674 0.960 . S
C662 H675 0.962 . S
C662 H676 0.960 . S
C663 C660 1.511 . S
C663 H677 0.961 . S
C663 H678 0.961 . S
C663 H679 0.961 . S
C664 C665 1.370 . S
C664 C666 1.363 . S
C664 H680 0.931 . S
C665 C664 1.370 . S
C665 C669 1.408 . S
C666 C664 1.363 . S
C666 C667 1.370 . S
C666 C670 1.524 . S
C667 C659 1.503 . S
C667 C666 1.370 . S
C667 C668 1.403 . S
C668 C667 1.403 . S
C668 C669 1.404 . S
C668 C671 1.539 . S
C669 C665 1.408 . S
C669 C668 1.404 . S
C669 H681 0.930 . S
C670 C666 1.524 . S
C670 H682 0.956 . S
C670 H683 0.961 . S
C670 H684 0.961 . S
C671 C668 1.539 . S
C671 H685 0.958 . S
C671 H686 0.961 . S
C671 H687 0.960 . S
H672 C656 0.931 . S
H673 C661 0.929 . S
H674 C662 0.960 . S
H675 C662 0.962 . S
H676 C662 0.960 . S
H677 C663 0.961 . S
H678 C663 0.961 . S
H679 C663 0.961 . S
H680 C664 0.931 . S
H681 C669 0.930 . S
H682 C670 0.956 . S
H683 C670 0.961 . S
H684 C670 0.961 . S
H685 C671 0.958 . S
H686 C671 0.961 . S
H687 C671 0.960 . S
C688 C689 1.391 . S
C688 C690 1.394 . S
C688 H704 0.931 . S
C689 C688 1.391 . S
C689 C693 1.376 . S
C690 C688 1.394 . S
C690 C691 1.369 . S
C690 C694 1.531 . S
C691 C690 1.369 . S
C691 C692 1.410 . S
C691 C699 1.503 . S
C692 C691 1.410 . S
C692 C693 1.392 . S
C692 C695 1.511 . S
C693 C689 1.376 . S
C693 C692 1.392 . S
C693 H705 0.929 . S
C694 C690 1.531 . S
C694 H706 0.960 . S
C694 H707 0.962 . S
C694 H708 0.960 . S
C695 C692 1.511 . S
C695 H709 0.961 . S
C695 H710 0.961 . S
C695 H711 0.961 . S
C696 C697 1.370 . S
C696 C698 1.363 . S
C696 H712 0.931 . S
C697 C696 1.370 . S
C697 C701 1.408 . S
C698 C696 1.363 . S
C698 C699 1.370 . S
C698 C702 1.524 . S
C699 C691 1.503 . S
C699 C698 1.370 . S
C699 C700 1.403 . S
C700 C699 1.403 . S
C700 C701 1.404 . S
C700 C703 1.539 . S
C701 C697 1.408 . S
C701 C700 1.404 . S
C701 H713 0.930 . S
C702 C698 1.524 . S
C702 H714 0.956 . S
C702 H715 0.961 . S
C702 H716 0.961 . S
C703 C700 1.539 . S
C703 H717 0.958 . S
C703 H718 0.961 . S
C703 H719 0.960 . S
H704 C688 0.931 . S
H705 C693 0.929 . S
H706 C694 0.960 . S
H707 C694 0.962 . S
H708 C694 0.960 . S
H709 C695 0.961 . S
H710 C695 0.961 . S
H711 C695 0.961 . S
H712 C696 0.931 . S
H713 C701 0.930 . S
H714 C702 0.956 . S
H715 C702 0.961 . S
H716 C702 0.961 . S
H717 C703 0.958 . S
H718 C703 0.961 . S
H719 C703 0.960 . S
C720 C721 1.391 . S
C720 C722 1.394 . S
C720 H736 0.931 . S
C721 C720 1.391 . S
C721 C725 1.376 . S
C722 C720 1.394 . S
C722 C723 1.369 . S
C722 C726 1.531 . S
C723 C722 1.369 . S
C723 C724 1.410 . S
C723 C731 1.503 . S
C724 C723 1.410 . S
C724 C725 1.392 . S
C724 C727 1.511 . S
C725 C721 1.376 . S
C725 C724 1.392 . S
C725 H737 0.929 . S
C726 C722 1.531 . S
C726 H738 0.960 . S
C726 H739 0.962 . S
C726 H740 0.960 . S
C727 C724 1.511 . S
C727 H741 0.961 . S
C727 H742 0.961 . S
C727 H743 0.961 . S
C728 C729 1.370 . S
C728 C730 1.363 . S
C728 H744 0.931 . S
C729 C728 1.370 . S
C729 C733 1.408 . S
C730 C728 1.363 . S
C730 C731 1.370 . S
C730 C734 1.524 . S
C731 C723 1.503 . S
C731 C730 1.370 . S
C731 C732 1.403 . S
C732 C731 1.403 . S
C732 C733 1.404 . S
C732 C735 1.539 . S
C733 C729 1.408 . S
C733 C732 1.404 . S
C733 H745 0.930 . S
C734 C730 1.524 . S
C734 H746 0.956 . S
C734 H747 0.961 . S
C734 H748 0.961 . S
C735 C732 1.539 . S
C735 H749 0.958 . S
C735 H750 0.961 . S
C735 H751 0.960 . S
H736 C720 0.931 . S
H737 C725 0.929 . S
H738 C726 0.960 . S
H739 C726 0.962 . S
H740 C726 0.960 . S
H741 C727 0.961 . S
H742 C727 0.961 . S
H743 C727 0.961 . S
H744 C728 0.931 . S
H745 C733 0.930 . S
H746 C734 0.956 . S
H747 C734 0.961 . S
H748 C734 0.961 . S
H749 C735 0.958 . S
H750 C735 0.961 . S
H751 C735 0.960 . S
C752 C753 1.391 . S
C752 C754 1.394 . S
C752 H768 0.931 . S
C753 C752 1.391 . S
C753 C757 1.376 . S
C754 C752 1.394 . S
C754 C755 1.369 . S
C754 C758 1.531 . S
C755 C754 1.369 . S
C755 C756 1.410 . S
C755 C763 1.503 . S
C756 C755 1.410 . S
C756 C757 1.392 . S
C756 C759 1.511 . S
C757 C753 1.376 . S
C757 C756 1.392 . S
C757 H769 0.929 . S
C758 C754 1.531 . S
C758 H770 0.960 . S
C758 H771 0.962 . S
C758 H772 0.960 . S
C759 C756 1.511 . S
C759 H773 0.961 . S
C759 H774 0.961 . S
C759 H775 0.961 . S
C760 C761 1.370 . S
C760 C762 1.363 . S
C760 H776 0.931 . S
C761 C760 1.370 . S
C761 C765 1.408 . S
C762 C760 1.363 . S
C762 C763 1.370 . S
C762 C766 1.524 . S
C763 C755 1.503 . S
C763 C762 1.370 . S
C763 C764 1.403 . S
C764 C763 1.403 . S
C764 C765 1.404 . S
C764 C767 1.539 . S
C765 C761 1.408 . S
C765 C764 1.404 . S
C765 H777 0.930 . S
C766 C762 1.524 . S
C766 H778 0.956 . S
C766 H779 0.961 . S
C766 H780 0.961 . S
C767 C764 1.539 . S
C767 H781 0.958 . S
C767 H782 0.961 . S
C767 H783 0.960 . S
H768 C752 0.931 . S
H769 C757 0.929 . S
H770 C758 0.960 . S
H771 C758 0.962 . S
H772 C758 0.960 . S
H773 C759 0.961 . S
H774 C759 0.961 . S
H775 C759 0.961 . S
H776 C760 0.931 . S
H777 C765 0.930 . S
H778 C766 0.956 . S
H779 C766 0.961 . S
H780 C766 0.961 . S
H781 C767 0.958 . S
H782 C767 0.961 . S
H783 C767 0.960 . S
C784 C785 1.391 . S
C784 C786 1.394 . S
C784 H800 0.931 . S
C785 C784 1.391 . S
C785 C789 1.376 . S
C786 C784 1.394 . S
C786 C787 1.369 . S
C786 C790 1.531 . S
C787 C786 1.369 . S
C787 C788 1.410 . S
C787 C795 1.503 . S
C788 C787 1.410 . S
C788 C789 1.392 . S
C788 C791 1.511 . S
C789 C785 1.376 . S
C789 C788 1.392 . S
C789 H801 0.929 . S
C790 C786 1.531 . S
C790 H802 0.960 . S
C790 H803 0.962 . S
C790 H804 0.960 . S
C791 C788 1.511 . S
C791 H805 0.961 . S
C791 H806 0.961 . S
C791 H807 0.961 . S
C792 C793 1.370 . S
C792 C794 1.363 . S
C792 H808 0.931 . S
C793 C792 1.370 . S
C793 C797 1.408 . S
C794 C792 1.363 . S
C794 C795 1.370 . S
C794 C798 1.524 . S
C795 C787 1.503 . S
C795 C794 1.370 . S
C795 C796 1.403 . S
C796 C795 1.403 . S
C796 C797 1.404 . S
C796 C799 1.539 . S
C797 C793 1.408 . S
C797 C796 1.404 . S
C797 H809 0.930 . S
C798 C794 1.524 . S
C798 H810 0.956 . S
C798 H811 0.961 . S
C798 H812 0.961 . S
C799 C796 1.539 . S
C799 H813 0.958 . S
C799 H814 0.961 . S
C799 H815 0.960 . S
H800 C784 0.931 . S
H801 C789 0.929 . S
H802 C790 0.960 . S
H803 C790 0.962 . S
H804 C790 0.960 . S
H805 C791 0.961 . S
H806 C791 0.961 . S
H807 C791 0.961 . S
H808 C792 0.931 . S
H809 C797 0.930 . S
H810 C798 0.956 . S
H811 C798 0.961 . S
H812 C798 0.961 . S
H813 C799 0.958 . S
H814 C799 0.961 . S
H815 C799 0.960 . S
C816 C817 1.391 . S
C816 C818 1.394 . S
C816 H832 0.931 . S
C817 C816 1.391 . S
C817 C821 1.376 . S
C818 C816 1.394 . S
C818 C819 1.369 . S
C818 C822 1.531 . S
C819 C818 1.369 . S
C819 C820 1.410 . S
C819 C827 1.503 . S
C820 C819 1.410 . S
C820 C821 1.392 . S
C820 C823 1.511 . S
C821 C817 1.376 . S
C821 C820 1.392 . S
C821 H833 0.929 . S
C822 C818 1.531 . S
C822 H834 0.960 . S
C822 H835 0.962 . S
C822 H836 0.960 . S
C823 C820 1.511 . S
C823 H837 0.961 . S
C823 H838 0.961 . S
C823 H839 0.961 . S
C824 C825 1.370 . S
C824 C826 1.363 . S
C824 H840 0.931 . S
C825 C824 1.370 . S
C825 C829 1.408 . S
C826 C824 1.363 . S
C826 C827 1.370 . S
C826 C830 1.524 . S
C827 C819 1.503 . S
C827 C826 1.370 . S
C827 C828 1.403 . S
C828 C827 1.403 . S
C828 C829 1.404 . S
C828 C831 1.539 . S
C829 C825 1.408 . S
C829 C828 1.404 . S
C829 H841 0.930 . S
C830 C826 1.524 . S
C830 H842 0.956 . S
C830 H843 0.961 . S
C830 H844 0.961 . S
C831 C828 1.539 . S
C831 H845 0.958 . S
C831 H846 0.961 . S
C831 H847 0.960 . S
H832 C816 0.931 . S
H833 C821 0.929 . S
H834 C822 0.960 . S
H835 C822 0.962 . S
H836 C822 0.960 . S
H837 C823 0.961 . S
H838 C823 0.961 . S
H839 C823 0.961 . S
H840 C824 0.931 . S
H841 C829 0.930 . S
H842 C830 0.956 . S
H843 C830 0.961 . S
H844 C830 0.961 . S
H845 C831 0.958 . S
H846 C831 0.961 . S
H847 C831 0.960 . S
C848 C849 1.391 . S
C848 C850 1.394 . S
C848 H864 0.931 . S
C849 C848 1.391 . S
C849 C853 1.376 . S
C850 C848 1.394 . S
C850 C851 1.369 . S
C850 C854 1.531 . S
C851 C850 1.369 . S
C851 C852 1.410 . S
C851 C859 1.503 . S
C852 C851 1.410 . S
C852 C853 1.392 . S
C852 C855 1.511 . S
C853 C849 1.376 . S
C853 C852 1.392 . S
C853 H865 0.929 . S
C854 C850 1.531 . S
C854 H866 0.960 . S
C854 H867 0.962 . S
C854 H868 0.960 . S
C855 C852 1.511 . S
C855 H869 0.961 . S
C855 H870 0.961 . S
C855 H871 0.961 . S
C856 C857 1.370 . S
C856 C858 1.363 . S
C856 H872 0.931 . S
C857 C856 1.370 . S
C857 C861 1.408 . S
C858 C856 1.363 . S
C858 C859 1.370 . S
C858 C862 1.524 . S
C859 C851 1.503 . S
C859 C858 1.370 . S
C859 C860 1.403 . S
C860 C859 1.403 . S
C860 C861 1.404 . S
C860 C863 1.539 . S
C861 C857 1.408 . S
C861 C860 1.404 . S
C861 H873 0.930 . S
C862 C858 1.524 . S
C862 H874 0.956 . S
C862 H875 0.961 . S
C862 H876 0.961 . S
C863 C860 1.539 . S
C863 H877 0.958 . S
C863 H878 0.961 . S
C863 H879 0.960 . S
H864 C848 0.931 . S
H865 C853 0.929 . S
H866 C854 0.960 . S
H867 C854 0.962 . S
H868 C854 0.960 . S
H869 C855 0.961 . S
H870 C855 0.961 . S
H871 C855 0.961 . S
H872 C856 0.931 . S
H873 C861 0.930 . S
H874 C862 0.956 . S
H875 C862 0.961 . S
H876 C862 0.961 . S
H877 C863 0.958 . S
H878 C863 0.961 . S
H879 C863 0.960 . S
C880 C881 1.391 . S
C880 C882 1.394 . S
C880 H896 0.931 . S
C881 C880 1.391 . S
C881 C885 1.376 . S
C882 C880 1.394 . S
C882 C883 1.369 . S
C882 C886 1.531 . S
C883 C882 1.369 . S
C883 C884 1.410 . S
C883 C891 1.503 . S
C884 C883 1.410 . S
C884 C885 1.392 . S
C884 C887 1.511 . S
C885 C881 1.376 . S
C885 C884 1.392 . S
C885 H897 0.929 . S
C886 C882 1.531 . S
C886 H898 0.960 . S
C886 H899 0.962 . S
C886 H900 0.960 . S
C887 C884 1.511 . S
C887 H901 0.961 . S
C887 H902 0.961 . S
C887 H903 0.961 . S
C888 C889 1.370 . S
C888 C890 1.363 . S
C888 H904 0.931 . S
C889 C888 1.370 . S
C889 C893 1.408 . S
C890 C888 1.363 . S
C890 C891 1.370 . S
C890 C894 1.524 . S
C891 C883 1.503 . S
C891 C890 1.370 . S
C891 C892 1.403 . S
C892 C891 1.403 . S
C892 C893 1.404 . S
C892 C895 1.539 . S
C893 C889 1.408 . S
C893 C892 1.404 . S
C893 H905 0.930 . S
C894 C890 1.524 . S
C894 H906 0.956 . S
C894 H907 0.961 . S
C894 H908 0.961 . S
C895 C892 1.539 . S
C895 H909 0.958 . S
C895 H910 0.961 . S
C895 H911 0.960 . S
H896 C880 0.931 . S
H897 C885 0.929 . S
H898 C886 0.960 . S
H899 C886 0.962 . S
H900 C886 0.960 . S
H901 C887 0.961 . S
H902 C887 0.961 . S
H903 C887 0.961 . S
H904 C888 0.931 . S
H905 C893 0.930 . S
H906 C894 0.956 . S
H907 C894 0.961 . S
H908 C894 0.961 . S
H909 C895 0.958 . S
H910 C895 0.961 . S
H911 C895 0.960 . S
C912 C913 1.391 . S
C912 C914 1.394 . S
C912 H928 0.931 . S
C913 C912 1.391 . S
C913 C917 1.376 . S
C914 C912 1.394 . S
C914 C915 1.369 . S
C914 C918 1.531 . S
C915 C914 1.369 . S
C915 C916 1.410 . S
C915 C923 1.503 . S
C916 C915 1.410 . S
C916 C917 1.392 . S
C916 C919 1.511 . S
C917 C913 1.376 . S
C917 C916 1.392 . S
C917 H929 0.929 . S
C918 C914 1.531 . S
C918 H930 0.960 . S
C918 H931 0.962 . S
C918 H932 0.960 . S
C919 C916 1.511 . S
C919 H933 0.961 . S
C919 H934 0.961 . S
C919 H935 0.961 . S
C920 C921 1.370 . S
C920 C922 1.363 . S
C920 H936 0.931 . S
C921 C920 1.370 . S
C921 C925 1.408 . S
C922 C920 1.363 . S
C922 C923 1.370 . S
C922 C926 1.524 . S
C923 C915 1.503 . S
C923 C922 1.370 . S
C923 C924 1.403 . S
C924 C923 1.403 . S
C924 C925 1.404 . S
C924 C927 1.539 . S
C925 C921 1.408 . S
C925 C924 1.404 . S
C925 H937 0.930 . S
C926 C922 1.524 . S
C926 H938 0.956 . S
C926 H939 0.961 . S
C926 H940 0.961 . S
C927 C924 1.539 . S
C927 H941 0.958 . S
C927 H942 0.961 . S
C927 H943 0.960 . S
H928 C912 0.931 . S
H929 C917 0.929 . S
H930 C918 0.960 . S
H931 C918 0.962 . S
H932 C918 0.960 . S
H933 C919 0.961 . S
H934 C919 0.961 . S
H935 C919 0.961 . S
H936 C920 0.931 . S
H937 C925 0.930 . S
H938 C926 0.956 . S
H939 C926 0.961 . S
H940 C926 0.961 . S
H941 C927 0.958 . S
H942 C927 0.961 . S
H943 C927 0.960 . S
C944 C945 1.391 . S
C944 C946 1.394 . S
C944 H960 0.931 . S
C945 C944 1.391 . S
C945 C949 1.376 . S
C946 C944 1.394 . S
C946 C947 1.369 . S
C946 C950 1.531 . S
C947 C946 1.369 . S
C947 C948 1.410 . S
C947 C955 1.503 . S
C948 C947 1.410 . S
C948 C949 1.392 . S
C948 C951 1.511 . S
C949 C945 1.376 . S
C949 C948 1.392 . S
C949 H961 0.929 . S
C950 C946 1.531 . S
C950 H962 0.960 . S
C950 H963 0.962 . S
C950 H964 0.960 . S
C951 C948 1.511 . S
C951 H965 0.961 . S
C951 H966 0.961 . S
C951 H967 0.961 . S
C952 C953 1.370 . S
C952 C954 1.363 . S
C952 H968 0.931 . S
C953 C952 1.370 . S
C953 C957 1.408 . S
C954 C952 1.363 . S
C954 C955 1.370 . S
C954 C958 1.524 . S
C955 C947 1.503 . S
C955 C954 1.370 . S
C955 C956 1.403 . S
C956 C955 1.403 . S
C956 C957 1.404 . S
C956 C959 1.539 . S
C957 C953 1.408 . S
C957 C956 1.404 . S
C957 H969 0.930 . S
C958 C954 1.524 . S
C958 H970 0.956 . S
C958 H971 0.961 . S
C958 H972 0.961 . S
C959 C956 1.539 . S
C959 H973 0.958 . S
C959 H974 0.961 . S
C959 H975 0.960 . S
H960 C944 0.931 . S
H961 C949 0.929 . S
H962 C950 0.960 . S
H963 C950 0.962 . S
H964 C950 0.960 . S
H965 C951 0.961 . S
H966 C951 0.961 . S
H967 C951 0.961 . S
H968 C952 0.931 . S
H969 C957 0.930 . S
H970 C958 0.956 . S
H971 C958 0.961 . S
H972 C958 0.961 . S
H973 C959 0.958 . S
H974 C959 0.961 . S
H975 C959 0.960 . S
C976 C977 1.391 . S
C976 C978 1.394 . S
C976 H992 0.931 . S
C977 C976 1.391 . S
C977 C981 1.376 . S
C978 C976 1.394 . S
C978 C979 1.369 . S
C978 C982 1.531 . S
C979 C978 1.369 . S
C979 C980 1.410 . S
C979 C987 1.503 . S
C980 C979 1.410 . S
C980 C981 1.392 . S
C980 C983 1.511 . S
C981 C977 1.376 . S
C981 C980 1.392 . S
C981 H993 0.929 . S
C982 C978 1.531 . S
C982 H994 0.960 . S
C982 H995 0.962 . S
C982 H996 0.960 . S
C983 C980 1.511 . S
C983 H997 0.961 . S
C983 H998 0.961 . S
C983 H999 0.961 . S
C984 C985 1.370 . S
C984 C986 1.363 . S
C984 H1000 0.931 . S
C985 C984 1.370 . S
C985 C989 1.408 . S
C986 C984 1.363 . S
C986 C987 1.370 . S
C986 C990 1.524 . S
C987 C979 1.503 . S
C987 C986 1.370 . S
C987 C988 1.403 . S
C988 C987 1.403 . S
C988 C989 1.404 . S
C988 C991 1.539 . S
C989 C985 1.408 . S
C989 C988 1.404 . S
C989 H1001 0.930 . S
C990 C986 1.524 . S
C990 H1002 0.956 . S
C990 H1003 0.961 . S
C990 H1004 0.961 . S
C991 C988 1.539 . S
C991 H1005 0.958 . S
C991 H1006 0.961 . S
C991 H1007 0.960 . S
H992 C976 0.931 . S
H993 C981 0.929 . S
H994 C982 0.960 . S
H995 C982 0.962 . S
H996 C982 0.960 . S
H997 C983 0.961 . S
H998 C983 0.961 . S
H999 C983 0.961 . S
H1000 C984 0.931 . S
H1001 C989 0.930 . S
H1002 C990 0.956 . S
H1003 C990 0.961 . S
H1004 C990 0.961 . S
H1005 C991 0.958 . S
H1006 C991 0.961 . S
H1007 C991 0.960 . S
C1008 C1009 1.391 . S
C1008 C1010 1.394 . S
C1008 H1024 0.931 . S
C1009 C1008 1.391 . S
C1009 C1013 1.376 . S
C1010 C1008 1.394 . S
C1010 C1011 1.369 . S
C1010 C1014 1.531 . S
C1011 C1010 1.369 . S
C1011 C1012 1.410 . S
C1011 C1019 1.503 . S
C1012 C1011 1.410 . S
C1012 C1013 1.392 . S
C1012 C1015 1.511 . S
C1013 C1009 1.376 . S
C1013 C1012 1.392 . S
C1013 H1025 0.929 . S
C1014 C1010 1.531 . S
C1014 H1026 0.960 . S
C1014 H1027 0.962 . S
C1014 H1028 0.960 . S
C1015 C1012 1.511 . S
C1015 H1029 0.961 . S
C1015 H1030 0.961 . S
C1015 H1031 0.961 . S
C1016 C1017 1.370 . S
C1016 C1018 1.363 . S
C1016 H1032 0.931 . S
C1017 C1016 1.370 . S
C1017 C1021 1.408 . S
C1018 C1016 1.363 . S
C1018 C1019 1.370 . S
C1018 C1022 1.524 . S
C1019 C1011 1.503 . S
C1019 C1018 1.370 . S
C1019 C1020 1.403 . S
C1020 C1019 1.403 . S
C1020 C1021 1.404 . S
C1020 C1023 1.539 . S
C1021 C1017 1.408 . S
C1021 C1020 1.404 . S
C1021 H1033 0.930 . S
C1022 C1018 1.524 . S
C1022 H1034 0.956 . S
C1022 H1035 0.961 . S
C1022 H1036 0.961 . S
C1023 C1020 1.539 . S
C1023 H1037 0.958 . S
C1023 H1038 0.961 . S
C1023 H1039 0.960 . S
H1024 C1008 0.931 . S
H1025 C1013 0.929 . S
H1026 C1014 0.960 . S
H1027 C1014 0.962 . S
H1028 C1014 0.960 . S
H1029 C1015 0.961 . S
H1030 C1015 0.961 . S
H1031 C1015 0.961 . S
H1032 C1016 0.931 . S
H1033 C1021 0.930 . S
H1034 C1022 0.956 . S
H1035 C1022 0.961 . S
H1036 C1022 0.961 . S
H1037 C1023 0.958 . S
H1038 C1023 0.961 . S
H1039 C1023 0.960 . S
C1040 C1041 1.391 . S
C1040 C1042 1.394 . S
C1040 H1056 0.931 . S
C1041 C1040 1.391 . S
C1041 C1045 1.376 . S
C1042 C1040 1.394 . S
C1042 C1043 1.369 . S
C1042 C1046 1.531 . S
C1043 C1042 1.369 . S
C1043 C1044 1.410 . S
C1043 C1051 1.503 . S
C1044 C1043 1.410 . S
C1044 C1045 1.392 . S
C1044 C1047 1.511 . S
C1045 C1041 1.376 . S
C1045 C1044 1.392 . S
C1045 H1057 0.929 . S
C1046 C1042 1.531 . S
C1046 H1058 0.960 . S
C1046 H1059 0.962 . S
C1046 H1060 0.960 . S
C1047 C1044 1.511 . S
C1047 H1061 0.961 . S
C1047 H1062 0.961 . S
C1047 H1063 0.961 . S
C1048 C1049 1.370 . S
C1048 C1050 1.363 . S
C1048 H1064 0.931 . S
C1049 C1048 1.370 . S
C1049 C1053 1.408 . S
C1050 C1048 1.363 . S
C1050 C1051 1.370 . S
C1050 C1054 1.524 . S
C1051 C1043 1.503 . S
C1051 C1050 1.370 . S
C1051 C1052 1.403 . S
C1052 C1051 1.403 . S
C1052 C1053 1.404 . S
C1052 C1055 1.539 . S
C1053 C1049 1.408 . S
C1053 C1052 1.404 . S
C1053 H1065 0.930 . S
C1054 C1050 1.524 . S
C1054 H1066 0.956 . S
C1054 H1067 0.961 . S
C1054 H1068 0.961 . S
C1055 C1052 1.539 . S
C1055 H1069 0.958 . S
C1055 H1070 0.961 . S
C1055 H1071 0.960 . S
H1056 C1040 0.931 . S
H1057 C1045 0.929 . S
H1058 C1046 0.960 . S
H1059 C1046 0.962 . S
H1060 C1046 0.960 . S
H1061 C1047 0.961 . S
H1062 C1047 0.961 . S
H1063 C1047 0.961 . S
H1064 C1048 0.931 . S
H1065 C1053 0.930 . S
H1066 C1054 0.956 . S
H1067 C1054 0.961 . S
H1068 C1054 0.961 . S
H1069 C1055 0.958 . S
H1070 C1055 0.961 . S
H1071 C1055 0.960 . S
C1072 C1073 1.391 . S
C1072 C1074 1.394 . S
C1072 H1088 0.931 . S
C1073 C1072 1.391 . S
C1073 C1077 1.376 . S
C1074 C1072 1.394 . S
C1074 C1075 1.369 . S
C1074 C1078 1.531 . S
C1075 C1074 1.369 . S
C1075 C1076 1.410 . S
C1075 C1083 1.503 . S
C1076 C1075 1.410 . S
C1076 C1077 1.392 . S
C1076 C1079 1.511 . S
C1077 C1073 1.376 . S
C1077 C1076 1.392 . S
C1077 H1089 0.929 . S
C1078 C1074 1.531 . S
C1078 H1090 0.960 . S
C1078 H1091 0.962 . S
C1078 H1092 0.960 . S
C1079 C1076 1.511 . S
C1079 H1093 0.961 . S
C1079 H1094 0.961 . S
C1079 H1095 0.961 . S
C1080 C1081 1.370 . S
C1080 C1082 1.363 . S
C1080 H1096 0.931 . S
C1081 C1080 1.370 . S
C1081 C1085 1.408 . S
C1082 C1080 1.363 . S
C1082 C1083 1.370 . S
C1082 C1086 1.524 . S
C1083 C1075 1.503 . S
C1083 C1082 1.370 . S
C1083 C1084 1.403 . S
C1084 C1083 1.403 . S
C1084 C1085 1.404 . S
C1084 C1087 1.539 . S
C1085 C1081 1.408 . S
C1085 C1084 1.404 . S
C1085 H1097 0.930 . S
C1086 C1082 1.524 . S
C1086 H1098 0.956 . S
C1086 H1099 0.961 . S
C1086 H1100 0.961 . S
C1087 C1084 1.539 . S
C1087 H1101 0.958 . S
C1087 H1102 0.961 . S
C1087 H1103 0.960 . S
H1088 C1072 0.931 . S
H1089 C1077 0.929 . S
H1090 C1078 0.960 . S
H1091 C1078 0.962 . S
H1092 C1078 0.960 . S
H1093 C1079 0.961 . S
H1094 C1079 0.961 . S
H1095 C1079 0.961 . S
H1096 C1080 0.931 . S
H1097 C1085 0.930 . S
H1098 C1086 0.956 . S
H1099 C1086 0.961 . S
H1100 C1086 0.961 . S
H1101 C1087 0.958 . S
H1102 C1087 0.961 . S
H1103 C1087 0.960 . S
C1104 C1105 1.391 . S
C1104 C1106 1.394 . S
C1104 H1120 0.931 . S
C1105 C1104 1.391 . S
C1105 C1109 1.376 . S
C1106 C1104 1.394 . S
C1106 C1107 1.369 . S
C1106 C1110 1.531 . S
C1107 C1106 1.369 . S
C1107 C1108 1.410 . S
C1107 C1115 1.503 . S
C1108 C1107 1.410 . S
C1108 C1109 1.392 . S
C1108 C1111 1.511 . S
C1109 C1105 1.376 . S
C1109 C1108 1.392 . S
C1109 H1121 0.929 . S
C1110 C1106 1.531 . S
C1110 H1122 0.960 . S
C1110 H1123 0.962 . S
C1110 H1124 0.960 . S
C1111 C1108 1.511 . S
C1111 H1125 0.961 . S
C1111 H1126 0.961 . S
C1111 H1127 0.961 . S
C1112 C1113 1.370 . S
C1112 C1114 1.363 . S
C1112 H1128 0.931 . S
C1113 C1112 1.370 . S
C1113 C1117 1.408 . S
C1114 C1112 1.363 . S
C1114 C1115 1.370 . S
C1114 C1118 1.524 . S
C1115 C1107 1.503 . S
C1115 C1114 1.370 . S
C1115 C1116 1.403 . S
C1116 C1115 1.403 . S
C1116 C1117 1.404 . S
C1116 C1119 1.539 . S
C1117 C1113 1.408 . S
C1117 C1116 1.404 . S
C1117 H1129 0.930 . S
C1118 C1114 1.524 . S
C1118 H1130 0.956 . S
C1118 H1131 0.961 . S
C1118 H1132 0.961 . S
C1119 C1116 1.539 . S
C1119 H1133 0.958 . S
C1119 H1134 0.961 . S
C1119 H1135 0.960 . S
H1120 C1104 0.931 . S
H1121 C1109 0.929 . S
H1122 C1110 0.960 . S
H1123 C1110 0.962 . S
H1124 C1110 0.960 . S
H1125 C1111 0.961 . S
H1126 C1111 0.961 . S
H1127 C1111 0.961 . S
H1128 C1112 0.931 . S
H1129 C1117 0.930 . S
H1130 C1118 0.956 . S
H1131 C1118 0.961 . S
H1132 C1118 0.961 . S
H1133 C1119 0.958 . S
H1134 C1119 0.961 . S
H1135 C1119 0.960 . S
C1136 C1137 1.391 . S
C1136 C1138 1.394 1_545 S
C1136 H1152 0.931 . S
C1137 C1136 1.391 . S
C1137 C1141 1.376 . S
C1138 C1136 1.394 1_565 S
C1138 C1139 1.369 . S
C1138 C1142 1.531 . S
C1139 C1138 1.369 . S
C1139 C1140 1.410 . S
C1139 C1147 1.503 . S
C1140 C1139 1.410 . S
C1140 C1141 1.392 1_565 S
C1140 C1143 1.511 . S
C1141 C1137 1.376 . S
C1141 C1140 1.392 1_545 S
C1141 H1153 0.929 . S
C1142 C1138 1.531 . S
C1142 H1154 0.960 . S
C1142 H1155 0.962 . S
C1142 H1156 0.960 1_565 S
C1143 C1140 1.511 . S
C1143 H1157 0.961 . S
C1143 H1158 0.961 . S
C1143 H1159 0.961 . S
C1144 C1145 1.370 . S
C1144 C1146 1.363 . S
C1144 H1160 0.931 . S
C1145 C1144 1.370 . S
C1145 C1149 1.408 . S
C1146 C1144 1.363 . S
C1146 C1147 1.370 . S
C1146 C1150 1.524 . S
C1147 C1139 1.503 . S
C1147 C1146 1.370 . S
C1147 C1148 1.403 . S
C1148 C1147 1.403 . S
C1148 C1149 1.404 . S
C1148 C1151 1.539 . S
C1149 C1145 1.408 . S
C1149 C1148 1.404 . S
C1149 H1161 0.930 . S
C1150 C1146 1.524 . S
C1150 H1162 0.956 . S
C1150 H1163 0.961 . S
C1150 H1164 0.961 . S
C1151 C1148 1.539 . S
C1151 H1165 0.958 1_565 S
C1151 H1166 0.961 . S
C1151 H1167 0.968 . S
H1152 C1136 0.931 . S
H1153 C1141 0.929 . S
H1154 C1142 0.960 . S
H1155 C1142 0.962 . S
H1156 C1142 0.960 1_545 S
H1157 C1143 0.961 . S
H1158 C1143 0.961 . S
H1159 C1143 0.961 . S
H1160 C1144 0.931 . S
H1161 C1149 0.930 . S
H1162 C1150 0.956 . S
H1163 C1150 0.961 . S
H1164 C1150 0.961 . S
H1165 C1151 0.958 1_545 S
H1166 C1151 0.961 . S
H1167 C1151 0.968 . S
C1168 C1169 1.391 . S
C1168 C1170 1.394 . S
C1168 H1184 0.931 . S
C1169 C1168 1.391 . S
C1169 C1173 1.376 . S
C1170 C1168 1.394 . S
C1170 C1171 1.369 . S
C1170 C1174 1.531 . S
C1171 C1170 1.369 . S
C1171 C1172 1.410 . S
C1171 C1179 1.503 . S
C1172 C1171 1.410 . S
C1172 C1173 1.392 . S
C1172 C1175 1.511 . S
C1173 C1169 1.376 . S
C1173 C1172 1.392 . S
C1173 H1185 0.929 . S
C1174 C1170 1.531 . S
C1174 H1186 0.960 . S
C1174 H1187 0.962 . S
C1174 H1188 0.960 . S
C1175 C1172 1.511 . S
C1175 H1189 0.961 . S
C1175 H1190 0.961 . S
C1175 H1191 0.961 . S
C1176 C1177 1.370 . S
C1176 C1178 1.363 . S
C1176 H1192 0.931 . S
C1177 C1176 1.370 . S
C1177 C1181 1.408 . S
C1178 C1176 1.363 . S
C1178 C1179 1.370 . S
C1178 C1182 1.524 . S
C1179 C1171 1.503 . S
C1179 C1178 1.370 . S
C1179 C1180 1.403 . S
C1180 C1179 1.403 . S
C1180 C1181 1.404 . S
C1180 C1183 1.539 . S
C1181 C1177 1.408 . S
C1181 C1180 1.404 . S
C1181 H1193 0.930 . S
C1182 C1178 1.524 . S
C1182 H1194 0.956 . S
C1182 H1195 0.961 . S
C1182 H1196 0.961 . S
C1183 C1180 1.539 . S
C1183 H1197 0.958 . S
C1183 H1198 0.961 . S
C1183 H1199 0.960 . S
H1184 C1168 0.931 . S
H1185 C1173 0.929 . S
H1186 C1174 0.960 . S
H1187 C1174 0.962 . S
H1188 C1174 0.960 . S
H1189 C1175 0.961 . S
H1190 C1175 0.961 . S
H1191 C1175 0.961 . S
H1192 C1176 0.931 . S
H1193 C1181 0.930 . S
H1194 C1182 0.956 . S
H1195 C1182 0.961 . S
H1196 C1182 0.961 . S
H1197 C1183 0.958 . S
H1198 C1183 0.961 . S
H1199 C1183 0.960 . S
C1200 C1201 1.391 . S
C1200 C1202 1.394 . S
C1200 H1216 0.931 . S
C1201 C1200 1.391 . S
C1201 C1205 1.376 . S
C1202 C1200 1.394 . S
C1202 C1203 1.369 . S
C1202 C1206 1.531 . S
C1203 C1202 1.369 . S
C1203 C1204 1.410 . S
C1203 C1211 1.503 . S
C1204 C1203 1.410 . S
C1204 C1205 1.392 . S
C1204 C1207 1.511 . S
C1205 C1201 1.376 . S
C1205 C1204 1.392 . S
C1205 H1217 0.929 . S
C1206 C1202 1.531 . S
C1206 H1218 0.960 . S
C1206 H1219 0.962 . S
C1206 H1220 0.960 . S
C1207 C1204 1.511 . S
C1207 H1221 0.961 . S
C1207 H1222 0.961 . S
C1207 H1223 0.961 . S
C1208 C1209 1.370 1_455 S
C1208 C1210 1.363 . S
C1208 H1224 0.931 . S
C1209 C1208 1.370 1_655 S
C1209 C1213 1.408 . S
C1210 C1208 1.363 . S
C1210 C1211 1.370 . S
C1210 C1214 1.524 . S
C1211 C1203 1.503 . S
C1211 C1210 1.370 . S
C1211 C1212 1.403 1_455 S
C1212 C1211 1.403 1_655 S
C1212 C1213 1.404 . S
C1212 C1215 1.539 . S
C1213 C1209 1.408 . S
C1213 C1212 1.404 . S
C1213 H1225 0.930 . S
C1214 C1210 1.524 . S
C1214 H1226 0.956 . S
C1214 H1227 0.961 . S
C1214 H1228 0.961 . S
C1215 C1212 1.539 . S
C1215 H1229 0.958 . S
C1215 H1230 0.961 . S
C1215 H1231 0.960 . S
H1216 C1200 0.931 . S
H1217 C1205 0.929 . S
H1218 C1206 0.960 . S
H1219 C1206 0.962 . S
H1220 C1206 0.960 . S
H1221 C1207 0.961 . S
H1222 C1207 0.961 . S
H1223 C1207 0.961 . S
H1224 C1208 0.931 . S
H1225 C1213 0.930 . S
H1226 C1214 0.956 . S
H1227 C1214 0.961 . S
H1228 C1214 0.961 . S
H1229 C1215 0.958 . S
H1230 C1215 0.961 . S
H1231 C1215 0.960 . S
C1232 C1233 1.391 1_545 S
C1232 C1234 1.394 . S
C1232 H1248 0.931 . S
C1233 C1232 1.391 1_565 S
C1233 C1237 1.376 . S
C1234 C1232 1.394 . S
C1234 C1235 1.369 . S
C1234 C1238 1.531 . S
C1235 C1234 1.369 . S
C1235 C1236 1.410 1_545 S
C1235 C1243 1.503 . S
C1236 C1235 1.410 1_565 S
C1236 C1237 1.392 . S
C1236 C1239 1.511 . S
C1237 C1233 1.376 . S
C1237 C1236 1.392 . S
C1237 H1249 0.929 . S
C1238 C1234 1.531 . S
C1238 H1250 0.960 . S
C1238 H1251 0.962 . S
C1238 H1252 0.960 . S
C1239 C1236 1.511 . S
C1239 H1253 0.961 . S
C1239 H1254 0.961 1_565 S
C1239 H1255 0.966 . S
C1240 C1241 1.370 1_655 S
C1240 C1242 1.363 . S
C1240 H1256 0.931 . S
C1241 C1240 1.370 1_455 S
C1241 C1245 1.408 . S
C1242 C1240 1.363 . S
C1242 C1243 1.370 . S
C1242 C1246 1.524 . S
C1243 C1235 1.503 . S
C1243 C1242 1.370 . S
C1243 C1244 1.424 . S
C1244 C1243 1.424 . S
C1244 C1245 1.384 1_655 S
C1244 C1247 1.536 1_655 S
C1245 C1241 1.408 . S
C1245 C1244 1.384 1_455 S
C1245 H1257 0.930 . S
C1246 C1242 1.524 . S
C1246 H1258 0.956 . S
C1246 H1259 0.961 . S
C1246 H1260 0.961 . S
C1247 C1244 1.536 1_455 S
C1247 H1261 0.958 1_455 S
C1247 H1262 0.961 . S
C1247 H1263 0.960 1_455 S
H1248 C1232 0.931 . S
H1249 C1237 0.929 . S
H1250 C1238 0.960 . S
H1251 C1238 0.962 . S
H1252 C1238 0.960 . S
H1253 C1239 0.961 . S
H1254 C1239 0.961 1_545 S
H1255 C1239 0.966 . S
H1256 C1240 0.931 . S
H1257 C1245 0.930 . S
H1258 C1246 0.956 . S
H1259 C1246 0.961 . S
H1260 C1246 0.961 . S
H1261 C1247 0.958 1_655 S
H1262 C1247 0.961 . S
H1263 C1247 0.960 1_655 S
C1264 C1265 1.391 . S
C1264 C1266 1.394 . S
C1264 H1280 0.931 . S
C1265 C1264 1.391 . S
C1265 C1269 1.376 . S
C1266 C1264 1.394 . S
C1266 C1267 1.369 . S
C1266 C1270 1.531 . S
C1267 C1266 1.369 . S
C1267 C1268 1.410 . S
C1267 C1275 1.503 . S
C1268 C1267 1.410 . S
C1268 C1269 1.392 . S
C1268 C1271 1.511 . S
C1269 C1265 1.376 . S
C1269 C1268 1.392 . S
C1269 H1281 0.929 . S
C1270 C1266 1.531 . S
C1270 H1282 0.960 . S
C1270 H1283 0.962 . S
C1270 H1284 0.960 . S
C1271 C1268 1.511 . S
C1271 H1285 0.961 . S
C1271 H1286 0.961 . S
C1271 H1287 0.961 . S
C1272 C1273 1.370 . S
C1272 C1274 1.363 . S
C1272 H1288 0.931 . S
C1273 C1272 1.370 . S
C1273 C1277 1.408 . S
C1274 C1272 1.363 . S
C1274 C1275 1.370 . S
C1274 C1278 1.524 . S
C1275 C1267 1.503 . S
C1275 C1274 1.370 . S
C1275 C1276 1.403 . S
C1276 C1275 1.403 . S
C1276 C1277 1.404 . S
C1276 C1279 1.539 . S
C1277 C1273 1.408 . S
C1277 C1276 1.404 . S
C1277 H1289 0.930 . S
C1278 C1274 1.524 . S
C1278 H1290 0.956 . S
C1278 H1291 0.961 . S
C1278 H1292 0.961 . S
C1279 C1276 1.539 . S
C1279 H1293 0.958 . S
C1279 H1294 0.961 . S
C1279 H1295 0.960 . S
H1280 C1264 0.931 . S
H1281 C1269 0.929 . S
H1282 C1270 0.960 . S
H1283 C1270 0.962 . S
H1284 C1270 0.960 . S
H1285 C1271 0.961 . S
H1286 C1271 0.961 . S
H1287 C1271 0.961 . S
H1288 C1272 0.931 . S
H1289 C1277 0.930 . S
H1290 C1278 0.956 . S
H1291 C1278 0.961 . S
H1292 C1278 0.961 . S
H1293 C1279 0.958 . S
H1294 C1279 0.961 . S
H1295 C1279 0.960 . S
C1296 C1297 1.391 1_655 S
C1296 C1298 1.394 . S
C1296 H1312 0.931 1_655 S
C1297 C1296 1.391 1_455 S
C1297 C1301 1.376 . S
C1298 C1296 1.394 . S
C1298 C1299 1.369 . S
C1298 C1302 1.531 . S
C1299 C1298 1.369 . S
C1299 C1300 1.410 . S
C1299 C1307 1.503 . S
C1300 C1299 1.410 . S
C1300 C1301 1.392 1_655 S
C1300 C1303 1.511 . S
C1301 C1297 1.376 . S
C1301 C1300 1.392 1_455 S
C1301 H1313 0.929 . S
C1302 C1298 1.531 . S
C1302 H1314 0.960 . S
C1302 H1315 0.962 . S
C1302 H1316 0.960 . S
C1303 C1300 1.511 . S
C1303 H1317 0.961 . S
C1303 H1318 0.961 . S
C1303 H1319 0.961 . S
C1304 C1305 1.370 . S
C1304 C1306 1.363 . S
C1304 H1320 0.931 . S
C1305 C1304 1.370 . S
C1305 C1309 1.408 . S
C1306 C1304 1.363 . S
C1306 C1307 1.370 . S
C1306 C1310 1.524 . S
C1307 C1299 1.503 . S
C1307 C1306 1.370 . S
C1307 C1308 1.403 . S
C1308 C1307 1.403 . S
C1308 C1309 1.404 . S
C1308 C1311 1.539 . S
C1309 C1305 1.408 . S
C1309 C1308 1.404 . S
C1309 H1321 0.930 . S
C1310 C1306 1.524 . S
C1310 H1322 0.956 . S
C1310 H1323 0.951 1_655 S
C1310 H1324 0.961 . S
C1311 C1308 1.539 . S
C1311 H1325 0.958 . S
C1311 H1326 0.961 . S
C1311 H1327 0.960 . S
H1312 C1296 0.931 1_455 S
H1313 C1301 0.929 . S
H1314 C1302 0.960 . S
H1315 C1302 0.962 . S
H1316 C1302 0.960 . S
H1317 C1303 0.961 . S
H1318 C1303 0.961 . S
H1319 C1303 0.961 . S
H1320 C1304 0.931 . S
H1321 C1309 0.930 . S
H1322 C1310 0.956 . S
H1323 C1310 0.951 1_455 S
H1324 C1310 0.961 . S
H1325 C1311 0.958 . S
H1326 C1311 0.961 . S
H1327 C1311 0.960 . S
C1328 C1329 1.391 1_455 S
C1328 C1330 1.394 . S
C1328 H1344 0.931 . S
C1329 C1328 1.391 1_655 S
C1329 C1333 1.376 . S
C1330 C1328 1.394 . S
C1330 C1331 1.369 . S
C1330 C1334 1.531 . S
C1331 C1330 1.369 . S
C1331 C1332 1.410 1_455 S
C1331 C1339 1.503 . S
C1332 C1331 1.410 1_655 S
C1332 C1333 1.392 . S
C1332 C1335 1.511 . S
C1333 C1329 1.376 . S
C1333 C1332 1.392 . S
C1333 H1345 0.929 . S
C1334 C1330 1.531 . S
C1334 H1346 0.960 . S
C1334 H1347 0.962 . S
C1334 H1348 0.960 . S
C1335 C1332 1.511 . S
C1335 H1349 0.961 . S
C1335 H1350 0.961 1_665 S
C1335 H1351 0.954 1_565 S
C1336 C1337 1.370 1_565 S
C1336 C1338 1.363 . S
C1336 H1352 0.931 1_565 S
C1337 C1336 1.370 1_545 S
C1337 C1341 1.408 . S
C1338 C1336 1.363 . S
C1338 C1339 1.370 . S
C1338 C1342 1.524 . S
C1339 C1331 1.503 . S
C1339 C1338 1.370 . S
C1339 C1340 1.403 . S
C1340 C1339 1.403 . S
C1340 C1341 1.404 1_565 S
C1340 C1343 1.539 . S
C1341 C1337 1.408 . S
C1341 C1340 1.404 1_545 S
C1341 H1353 0.930 . S
C1342 C1338 1.524 . S
C1342 H1354 0.956 . S
C1342 H1355 0.961 . S
C1342 H1356 0.961 . S
C1343 C1340 1.539 . S
C1343 H1357 0.958 . S
C1343 H1358 0.961 1_565 S
C1343 H1359 0.960 . S
H1344 C1328 0.931 . S
H1345 C1333 0.929 . S
H1346 C1334 0.960 . S
H1347 C1334 0.962 . S
H1348 C1334 0.960 . S
H1349 C1335 0.961 . S
H1350 C1335 0.961 1_445 S
H1351 C1335 0.954 1_545 S
H1352 C1336 0.931 1_545 S
H1353 C1341 0.930 . S
H1354 C1342 0.956 . S
H1355 C1342 0.961 . S
H1356 C1342 0.961 . S
H1357 C1343 0.958 . S
H1358 C1343 0.961 1_545 S
H1359 C1343 0.960 . S
C1360 C1361 1.391 . S
C1360 C1362 1.394 1_565 S
C1360 H1376 0.931 . S
C1361 C1360 1.391 . S
C1361 C1365 1.376 1_565 S
C1362 C1360 1.394 1_545 S
C1362 C1363 1.369 . S
C1362 C1366 1.531 . S
C1363 C1362 1.369 . S
C1363 C1364 1.410 . S
C1363 C1371 1.503 . S
C1364 C1363 1.410 . S
C1364 C1365 1.392 . S
C1364 C1367 1.511 . S
C1365 C1361 1.376 1_545 S
C1365 C1364 1.392 . S
C1365 H1377 0.929 . S
C1366 C1362 1.531 . S
C1366 H1378 0.960 . S
C1366 H1379 0.962 1_545 S
C1366 H1380 0.960 1_545 S
C1367 C1364 1.511 . S
C1367 H1381 0.961 . S
C1367 H1382 0.961 . S
C1367 H1383 0.961 . S
C1368 C1369 1.370 . S
C1368 C1370 1.363 . S
C1368 H1384 0.931 . S
C1369 C1368 1.370 . S
C1369 C1373 1.408 . S
C1370 C1368 1.363 . S
C1370 C1371 1.370 . S
C1370 C1374 1.524 . S
C1371 C1363 1.503 . S
C1371 C1370 1.370 . S
C1371 C1372 1.403 . S
C1372 C1371 1.403 . S
C1372 C1373 1.404 . S
C1372 C1375 1.539 . S
C1373 C1369 1.408 . S
C1373 C1372 1.404 . S
C1373 H1385 0.930 . S
C1374 C1370 1.524 . S
C1374 H1386 0.956 . S
C1374 H1387 0.961 . S
C1374 H1388 0.961 . S
C1375 C1372 1.539 . S
C1375 H1389 0.958 . S
C1375 H1390 0.961 . S
C1375 H1391 0.960 . S
H1376 C1360 0.931 . S
H1377 C1365 0.929 . S
H1378 C1366 0.960 . S
H1379 C1366 0.962 1_565 S
H1380 C1366 0.960 1_565 S
H1381 C1367 0.961 . S
H1382 C1367 0.961 . S
H1383 C1367 0.961 . S
H1384 C1368 0.931 . S
H1385 C1373 0.930 . S
H1386 C1374 0.956 . S
H1387 C1374 0.961 . S
H1388 C1374 0.961 . S
H1389 C1375 0.958 . S
H1390 C1375 0.961 . S
H1391 C1375 0.960 . S
C369 C168 1.672 . S
C377 C7 1.666 . S
C401 C99 1.663 . S
C409 C30 1.662 . S
C433 C122 1.671 . S
C441 C53 1.665 . S
C465 C76 1.637 . S
C473 C145 1.651 . S
C497 C352 1.670 . S
C505 C191 1.664 . S
C529 C283 1.642 . S
C537 C214 1.655 . S
C561 C237 1.672 . S
C569 C306 1.665 . S
C593 C260 1.652 . S
C601 C329 1.660 . S
C625 N48 1.284 . S
C633 N2 1.313 . S
C657 N25 1.259 . S
C665 N71 1.301 . S
C689 N94 1.255 . S
C697 N140 1.312 . S
C721 N163 1.297 . S
C729 N117 1.310 . S
C753 N186 1.312 . S
C761 N232 1.299 . S
C785 N209 1.256 . S
C793 N255 1.309 . S
C817 N324 1.255 . S
C825 N278 1.309 . S
C849 N301 1.286 . S
C857 N347 1.309 . S
C881 C154 1.651 . S
C889 C16 1.631 . S
C913 C39 1.651 . S
C921 C177 1.632 . S
C945 C62 1.648 . S
C953 C108 1.636 . S
C977 C85 1.651 . S
C985 C131 1.631 . S
C1009 C200 1.621 . S
C1017 C338 1.637 . S
C1041 C223 1.651 . S
C1049 C361 1.630 . S
C1073 C246 1.633 . S
C1081 C292 1.632 . S
C1105 C269 1.616 . S
C1113 C315 1.644 . S
C1137 N12 1.460 . S
C1145 N357 1.460 . S
C1169 N288 1.451 . S
C1177 N35 1.460 . S
C1201 N58 1.464 . S
C1209 N311 1.463 . S
C1233 N334 1.447 . S
C1241 N81 1.458 . S
C1265 N219 1.446 . S
C1273 N104 1.458 . S
C1297 N127 1.454 . S
C1305 N242 1.461 . S
C1329 N265 1.439 . S
C1337 N150 1.455 . S
C1361 N196 1.464 . S
C1369 N173 1.462 . S
