# Generated by pormake.
# Topology fcn, (5)-cn, num edge types: 1
# Building blocks:
#     Node 0, Type 0, BuildingBlock: BEQFEK_clean_sbu_0, # of connection points: 5
#     Node 1, Type 0, BuildingBlock: BEQFEK_clean_sbu_0, # of connection points: 5
#     Node 2, Type 0, BuildingBlock: BEQFEK_clean_sbu_0, # of connection points: 5
#     Node 3, Type 0, BuildingBlock: BEQFEK_clean_sbu_0, # of connection points: 5
#     Node 4, Type 0, BuildingBlock: BEQFEK_clean_sbu_0, # of connection points: 5
#     Node 5, Type 0, BuildingBlock: BEQFEK_clean_sbu_0, # of connection points: 5
#     Node 6, Type 0, BuildingBlock: BEQFEK_clean_sbu_0, # of connection points: 5
#     Node 7, Type 0, BuildingBlock: BEQFEK_clean_sbu_0, # of connection points: 5
#     Node 8, Type 0, BuildingBlock: BEQFEK_clean_sbu_0, # of connection points: 5
#     Node 9, Type 0, BuildingBlock: BEQFEK_clean_sbu_0, # of connection points: 5
#     Node 10, Type 0, BuildingBlock: BEQFEK_clean_sbu_0, # of connection points: 5
#     Node 11, Type 0, BuildingBlock: BEQFEK_clean_sbu_0, # of connection points: 5
#     Node 12, Type 0, BuildingBlock: BEQFEK_clean_sbu_0, # of connection points: 5
#     Node 13, Type 0, BuildingBlock: BEQFEK_clean_sbu_0, # of connection points: 5
#     Node 14, Type 0, BuildingBlock: BEQFEK_clean_sbu_0, # of connection points: 5
#     Node 15, Type 0, BuildingBlock: BEQFEK_clean_sbu_0, # of connection points: 5
#     Node 16, Type 0, BuildingBlock: BEQFEK_clean_sbu_0, # of connection points: 5
#     Node 17, Type 0, BuildingBlock: BEQFEK_clean_sbu_0, # of connection points: 5
#     Node 18, Type 0, BuildingBlock: BEQFEK_clean_sbu_0, # of connection points: 5
#     Node 19, Type 0, BuildingBlock: BEQFEK_clean_sbu_0, # of connection points: 5
#     Node 20, Type 0, BuildingBlock: BEQFEK_clean_sbu_0, # of connection points: 5
#     Node 21, Type 0, BuildingBlock: BEQFEK_clean_sbu_0, # of connection points: 5
#     Node 22, Type 0, BuildingBlock: BEQFEK_clean_sbu_0, # of connection points: 5
#     Node 23, Type 0, BuildingBlock: BEQFEK_clean_sbu_0, # of connection points: 5
#     Node 24, Type 0, BuildingBlock: BEQFEK_clean_sbu_0, # of connection points: 5
#     Node 25, Type 0, BuildingBlock: BEQFEK_clean_sbu_0, # of connection points: 5
#     Node 26, Type 0, BuildingBlock: BEQFEK_clean_sbu_0, # of connection points: 5
#     Node 27, Type 0, BuildingBlock: BEQFEK_clean_sbu_0, # of connection points: 5
#     Node 28, Type 0, BuildingBlock: BEQFEK_clean_sbu_0, # of connection points: 5
#     Node 29, Type 0, BuildingBlock: BEQFEK_clean_sbu_0, # of connection points: 5
#     Node 30, Type 0, BuildingBlock: BEQFEK_clean_sbu_0, # of connection points: 5
#     Node 31, Type 0, BuildingBlock: BEQFEK_clean_sbu_0, # of connection points: 5
#     Node 32, Type 0, BuildingBlock: BEQFEK_clean_sbu_0, # of connection points: 5
#     Node 33, Type 0, BuildingBlock: BEQFEK_clean_sbu_0, # of connection points: 5
#     Node 34, Type 0, BuildingBlock: BEQFEK_clean_sbu_0, # of connection points: 5
#     Node 35, Type 0, BuildingBlock: BEQFEK_clean_sbu_0, # of connection points: 5
#     Node 36, Type 0, BuildingBlock: BEQFEK_clean_sbu_0, # of connection points: 5
#     Node 37, Type 0, BuildingBlock: BEQFEK_clean_sbu_0, # of connection points: 5
#     Node 38, Type 0, BuildingBlock: BEQFEK_clean_sbu_0, # of connection points: 5
#     Node 39, Type 0, BuildingBlock: BEQFEK_clean_sbu_0, # of connection points: 5
#     Node 40, Type 0, BuildingBlock: BEQFEK_clean_sbu_0, # of connection points: 5
#     Node 41, Type 0, BuildingBlock: BEQFEK_clean_sbu_0, # of connection points: 5
#     Node 42, Type 0, BuildingBlock: BEQFEK_clean_sbu_0, # of connection points: 5
#     Node 43, Type 0, BuildingBlock: BEQFEK_clean_sbu_0, # of connection points: 5
#     Node 44, Type 0, BuildingBlock: BEQFEK_clean_sbu_0, # of connection points: 5
#     Node 45, Type 0, BuildingBlock: BEQFEK_clean_sbu_0, # of connection points: 5
#     Node 46, Type 0, BuildingBlock: BEQFEK_clean_sbu_0, # of connection points: 5
#     Node 47, Type 0, BuildingBlock: BEQFEK_clean_sbu_0, # of connection points: 5
#     Edge 48, Type (0, 0), BuildingBlock: XIVTED_clean_linker_0, # of connection points: 2
#     Edge 49, Type (0, 0), BuildingBlock: XIVTED_clean_linker_0, # of connection points: 2
#     Edge 50, Type (0, 0), BuildingBlock: XIVTED_clean_linker_0, # of connection points: 2
#     Edge 51, Type (0, 0), BuildingBlock: XIVTED_clean_linker_0, # of connection points: 2
#     Edge 52, Type (0, 0), BuildingBlock: XIVTED_clean_linker_0, # of connection points: 2
#     Edge 53, Type (0, 0), BuildingBlock: XIVTED_clean_linker_0, # of connection points: 2
#     Edge 54, Type (0, 0), BuildingBlock: XIVTED_clean_linker_0, # of connection points: 2
#     Edge 55, Type (0, 0), BuildingBlock: XIVTED_clean_linker_0, # of connection points: 2
#     Edge 56, Type (0, 0), BuildingBlock: XIVTED_clean_linker_0, # of connection points: 2
#     Edge 57, Type (0, 0), BuildingBlock: XIVTED_clean_linker_0, # of connection points: 2
#     Edge 58, Type (0, 0), BuildingBlock: XIVTED_clean_linker_0, # of connection points: 2
#     Edge 59, Type (0, 0), BuildingBlock: XIVTED_clean_linker_0, # of connection points: 2
#     Edge 60, Type (0, 0), BuildingBlock: XIVTED_clean_linker_0, # of connection points: 2
#     Edge 61, Type (0, 0), BuildingBlock: XIVTED_clean_linker_0, # of connection points: 2
#     Edge 62, Type (0, 0), BuildingBlock: XIVTED_clean_linker_0, # of connection points: 2
#     Edge 63, Type (0, 0), BuildingBlock: XIVTED_clean_linker_0, # of connection points: 2
#     Edge 64, Type (0, 0), BuildingBlock: XIVTED_clean_linker_0, # of connection points: 2
#     Edge 65, Type (0, 0), BuildingBlock: XIVTED_clean_linker_0, # of connection points: 2
#     Edge 66, Type (0, 0), BuildingBlock: XIVTED_clean_linker_0, # of connection points: 2
#     Edge 67, Type (0, 0), BuildingBlock: XIVTED_clean_linker_0, # of connection points: 2
#     Edge 68, Type (0, 0), BuildingBlock: XIVTED_clean_linker_0, # of connection points: 2
#     Edge 69, Type (0, 0), BuildingBlock: XIVTED_clean_linker_0, # of connection points: 2
#     Edge 70, Type (0, 0), BuildingBlock: XIVTED_clean_linker_0, # of connection points: 2
#     Edge 71, Type (0, 0), BuildingBlock: XIVTED_clean_linker_0, # of connection points: 2
#     Edge 72, Type (0, 0), BuildingBlock: XIVTED_clean_linker_0, # of connection points: 2
#     Edge 73, Type (0, 0), BuildingBlock: XIVTED_clean_linker_0, # of connection points: 2
#     Edge 74, Type (0, 0), BuildingBlock: XIVTED_clean_linker_0, # of connection points: 2
#     Edge 75, Type (0, 0), BuildingBlock: XIVTED_clean_linker_0, # of connection points: 2
#     Edge 76, Type (0, 0), BuildingBlock: XIVTED_clean_linker_0, # of connection points: 2
#     Edge 77, Type (0, 0), BuildingBlock: XIVTED_clean_linker_0, # of connection points: 2
#     Edge 78, Type (0, 0), BuildingBlock: XIVTED_clean_linker_0, # of connection points: 2
#     Edge 79, Type (0, 0), BuildingBlock: XIVTED_clean_linker_0, # of connection points: 2
#     Edge 80, Type (0, 0), BuildingBlock: XIVTED_clean_linker_0, # of connection points: 2
#     Edge 81, Type (0, 0), BuildingBlock: XIVTED_clean_linker_0, # of connection points: 2
#     Edge 82, Type (0, 0), BuildingBlock: XIVTED_clean_linker_0, # of connection points: 2
#     Edge 83, Type (0, 0), BuildingBlock: XIVTED_clean_linker_0, # of connection points: 2
#     Edge 84, Type (0, 0), BuildingBlock: XIVTED_clean_linker_0, # of connection points: 2
#     Edge 85, Type (0, 0), BuildingBlock: XIVTED_clean_linker_0, # of connection points: 2
#     Edge 86, Type (0, 0), BuildingBlock: XIVTED_clean_linker_0, # of connection points: 2
#     Edge 87, Type (0, 0), BuildingBlock: XIVTED_clean_linker_0, # of connection points: 2
#     Edge 88, Type (0, 0), BuildingBlock: XIVTED_clean_linker_0, # of connection points: 2
#     Edge 89, Type (0, 0), BuildingBlock: XIVTED_clean_linker_0, # of connection points: 2
#     Edge 90, Type (0, 0), BuildingBlock: XIVTED_clean_linker_0, # of connection points: 2
#     Edge 91, Type (0, 0), BuildingBlock: XIVTED_clean_linker_0, # of connection points: 2
#     Edge 92, Type (0, 0), BuildingBlock: XIVTED_clean_linker_0, # of connection points: 2
#     Edge 93, Type (0, 0), BuildingBlock: XIVTED_clean_linker_0, # of connection points: 2
#     Edge 94, Type (0, 0), BuildingBlock: XIVTED_clean_linker_0, # of connection points: 2
#     Edge 95, Type (0, 0), BuildingBlock: XIVTED_clean_linker_0, # of connection points: 2
#     Edge 96, Type (0, 0), BuildingBlock: XIVTED_clean_linker_0, # of connection points: 2
#     Edge 97, Type (0, 0), BuildingBlock: XIVTED_clean_linker_0, # of connection points: 2
#     Edge 98, Type (0, 0), BuildingBlock: XIVTED_clean_linker_0, # of connection points: 2
#     Edge 99, Type (0, 0), BuildingBlock: XIVTED_clean_linker_0, # of connection points: 2
#     Edge 100, Type (0, 0), BuildingBlock: XIVTED_clean_linker_0, # of connection points: 2
#     Edge 101, Type (0, 0), BuildingBlock: XIVTED_clean_linker_0, # of connection points: 2
#     Edge 102, Type (0, 0), BuildingBlock: XIVTED_clean_linker_0, # of connection points: 2
#     Edge 103, Type (0, 0), BuildingBlock: XIVTED_clean_linker_0, # of connection points: 2
#     Edge 104, Type (0, 0), BuildingBlock: XIVTED_clean_linker_0, # of connection points: 2
#     Edge 105, Type (0, 0), BuildingBlock: XIVTED_clean_linker_0, # of connection points: 2
#     Edge 106, Type (0, 0), BuildingBlock: XIVTED_clean_linker_0, # of connection points: 2
#     Edge 107, Type (0, 0), BuildingBlock: XIVTED_clean_linker_0, # of connection points: 2
#     Edge 108, Type (0, 0), BuildingBlock: XIVTED_clean_linker_0, # of connection points: 2
#     Edge 109, Type (0, 0), BuildingBlock: XIVTED_clean_linker_0, # of connection points: 2
#     Edge 110, Type (0, 0), BuildingBlock: XIVTED_clean_linker_0, # of connection points: 2
#     Edge 111, Type (0, 0), BuildingBlock: XIVTED_clean_linker_0, # of connection points: 2
#     Edge 112, Type (0, 0), BuildingBlock: XIVTED_clean_linker_0, # of connection points: 2
#     Edge 113, Type (0, 0), BuildingBlock: XIVTED_clean_linker_0, # of connection points: 2
#     Edge 114, Type (0, 0), BuildingBlock: XIVTED_clean_linker_0, # of connection points: 2
#     Edge 115, Type (0, 0), BuildingBlock: XIVTED_clean_linker_0, # of connection points: 2
#     Edge 116, Type (0, 0), BuildingBlock: XIVTED_clean_linker_0, # of connection points: 2
#     Edge 117, Type (0, 0), BuildingBlock: XIVTED_clean_linker_0, # of connection points: 2
#     Edge 118, Type (0, 0), BuildingBlock: XIVTED_clean_linker_0, # of connection points: 2
#     Edge 119, Type (0, 0), BuildingBlock: XIVTED_clean_linker_0, # of connection points: 2
#     Edge 120, Type (0, 0), BuildingBlock: XIVTED_clean_linker_0, # of connection points: 2
#     Edge 121, Type (0, 0), BuildingBlock: XIVTED_clean_linker_0, # of connection points: 2
#     Edge 122, Type (0, 0), BuildingBlock: XIVTED_clean_linker_0, # of connection points: 2
#     Edge 123, Type (0, 0), BuildingBlock: XIVTED_clean_linker_0, # of connection points: 2
#     Edge 124, Type (0, 0), BuildingBlock: XIVTED_clean_linker_0, # of connection points: 2
#     Edge 125, Type (0, 0), BuildingBlock: XIVTED_clean_linker_0, # of connection points: 2
#     Edge 126, Type (0, 0), BuildingBlock: XIVTED_clean_linker_0, # of connection points: 2
#     Edge 127, Type (0, 0), BuildingBlock: XIVTED_clean_linker_0, # of connection points: 2
#     Edge 128, Type (0, 0), BuildingBlock: XIVTED_clean_linker_0, # of connection points: 2
#     Edge 129, Type (0, 0), BuildingBlock: XIVTED_clean_linker_0, # of connection points: 2
#     Edge 130, Type (0, 0), BuildingBlock: XIVTED_clean_linker_0, # of connection points: 2
#     Edge 131, Type (0, 0), BuildingBlock: XIVTED_clean_linker_0, # of connection points: 2
#     Edge 132, Type (0, 0), BuildingBlock: XIVTED_clean_linker_0, # of connection points: 2
#     Edge 133, Type (0, 0), BuildingBlock: XIVTED_clean_linker_0, # of connection points: 2
#     Edge 134, Type (0, 0), BuildingBlock: XIVTED_clean_linker_0, # of connection points: 2
#     Edge 135, Type (0, 0), BuildingBlock: XIVTED_clean_linker_0, # of connection points: 2
#     Edge 136, Type (0, 0), BuildingBlock: XIVTED_clean_linker_0, # of connection points: 2
#     Edge 137, Type (0, 0), BuildingBlock: XIVTED_clean_linker_0, # of connection points: 2
#     Edge 138, Type (0, 0), BuildingBlock: XIVTED_clean_linker_0, # of connection points: 2
#     Edge 139, Type (0, 0), BuildingBlock: XIVTED_clean_linker_0, # of connection points: 2
#     Edge 140, Type (0, 0), BuildingBlock: XIVTED_clean_linker_0, # of connection points: 2
#     Edge 141, Type (0, 0), BuildingBlock: XIVTED_clean_linker_0, # of connection points: 2
#     Edge 142, Type (0, 0), BuildingBlock: XIVTED_clean_linker_0, # of connection points: 2
#     Edge 143, Type (0, 0), BuildingBlock: XIVTED_clean_linker_0, # of connection points: 2
#     Edge 144, Type (0, 0), BuildingBlock: XIVTED_clean_linker_0, # of connection points: 2
#     Edge 145, Type (0, 0), BuildingBlock: XIVTED_clean_linker_0, # of connection points: 2
#     Edge 146, Type (0, 0), BuildingBlock: XIVTED_clean_linker_0, # of connection points: 2
#     Edge 147, Type (0, 0), BuildingBlock: XIVTED_clean_linker_0, # of connection points: 2
#     Edge 148, Type (0, 0), BuildingBlock: XIVTED_clean_linker_0, # of connection points: 2
#     Edge 149, Type (0, 0), BuildingBlock: XIVTED_clean_linker_0, # of connection points: 2
#     Edge 150, Type (0, 0), BuildingBlock: XIVTED_clean_linker_0, # of connection points: 2
#     Edge 151, Type (0, 0), BuildingBlock: XIVTED_clean_linker_0, # of connection points: 2
#     Edge 152, Type (0, 0), BuildingBlock: XIVTED_clean_linker_0, # of connection points: 2
#     Edge 153, Type (0, 0), BuildingBlock: XIVTED_clean_linker_0, # of connection points: 2
#     Edge 154, Type (0, 0), BuildingBlock: XIVTED_clean_linker_0, # of connection points: 2
#     Edge 155, Type (0, 0), BuildingBlock: XIVTED_clean_linker_0, # of connection points: 2
#     Edge 156, Type (0, 0), BuildingBlock: XIVTED_clean_linker_0, # of connection points: 2
#     Edge 157, Type (0, 0), BuildingBlock: XIVTED_clean_linker_0, # of connection points: 2
#     Edge 158, Type (0, 0), BuildingBlock: XIVTED_clean_linker_0, # of connection points: 2
#     Edge 159, Type (0, 0), BuildingBlock: XIVTED_clean_linker_0, # of connection points: 2
#     Edge 160, Type (0, 0), BuildingBlock: XIVTED_clean_linker_0, # of connection points: 2
#     Edge 161, Type (0, 0), BuildingBlock: XIVTED_clean_linker_0, # of connection points: 2
#     Edge 162, Type (0, 0), BuildingBlock: XIVTED_clean_linker_0, # of connection points: 2
#     Edge 163, Type (0, 0), BuildingBlock: XIVTED_clean_linker_0, # of connection points: 2
#     Edge 164, Type (0, 0), BuildingBlock: XIVTED_clean_linker_0, # of connection points: 2
#     Edge 165, Type (0, 0), BuildingBlock: XIVTED_clean_linker_0, # of connection points: 2
#     Edge 166, Type (0, 0), BuildingBlock: XIVTED_clean_linker_0, # of connection points: 2
#     Edge 167, Type (0, 0), BuildingBlock: XIVTED_clean_linker_0, # of connection points: 2
# Relax obj value: 0.493
# Max RMSD: 0.190
# Mean RMSD: 0.190
data_MOF--net-fcn--node1-BEQFEK_clean_sbu_0--edge1-XIVTED_clean_linker_0
_symmetry_space_group_name_H-M    P1
_symmetry_Int_Tables_number       1
_symmetry_cell_setting            triclinic
loop_
_symmetry_equiv_pos_as_xyz
'x, y, z'
_cell_length_a     73.134295
_cell_length_b     73.140106
_cell_length_c     73.131899
_cell_angle_alpha  90.007253
_cell_angle_beta   89.996301
_cell_angle_gamma 89.969165
loop_
_atom_site_label
_atom_site_type_symbol
_atom_site_fract_x
_atom_site_fract_y
_atom_site_fract_z
_atom_type_partial_charge
Co0 Co 0.06974 0.17815 0.30166 0.0
Co1 Co 0.09907 0.15424 0.28194 0.0
C2 C 0.09652 0.15633 0.32284 0.0
O3 O 0.08272 0.16693 0.32282 0.0
O4 O 0.10362 0.15056 0.30808 0.0
C5 C 0.05286 0.20698 0.32382 0.0
O6 O 0.06875 0.20943 0.33182 0.0
C7 C 0.13619 0.14245 0.2715 0.0
C8 C 0.12993 0.12144 0.25069 0.0
C9 C 0.14423 0.12969 0.25997 0.0
N10 N 0.11796 0.14174 0.2691 0.0
N11 N 0.11435 0.1292 0.2566 0.0
C12 C 0.14544 0.15413 0.28553 0.0
H13 H 0.13531 0.16028 0.29497 0.0
H14 H 0.15292 0.16537 0.27865 0.0
H15 H 0.15554 0.14588 0.29331 0.0
C16 C 0.08784 0.20707 0.27869 0.0
N17 N 0.08653 0.18987 0.28528 0.0
N18 N 0.09855 0.17948 0.27676 0.0
C19 C 0.10764 0.18955 0.26438 0.0
C20 C 0.10145 0.20745 0.2654 0.0
C21 C 0.07594 0.22259 0.28466 0.0
H22 H 0.06137 0.21884 0.28271 0.0
H23 H 0.07815 0.22513 0.29943 0.0
H24 H 0.07901 0.23533 0.27703 0.0
O25 O 0.05493 0.16002 0.28778 0.0
O26 O 0.07594 0.1434 0.27369 0.0
H27 H 0.11503 0.1679 0.24591 0.0
H28 H 0.12034 0.19036 0.23759 0.0
C29 C 0.11991 0.18164 0.24998 0.0
H30 H 0.13397 0.18043 0.2555 0.0
H31 H 0.1012 0.1257 0.25232 0.0
O32 O 0.05125 0.19529 0.31109 0.0
C33 C 0.05929 0.1472 0.27687 0.0
Co34 Co 0.06246 0.82426 0.55398 0.0
Co35 Co 0.08479 0.85427 0.53338 0.0
C36 C 0.08659 0.85061 0.57392 0.0
O37 O 0.07594 0.83681 0.5742 0.0
O38 O 0.09109 0.8584 0.55905 0.0
C39 C 0.04914 0.79244 0.57235 0.0
O40 O 0.06661 0.78867 0.57421 0.0
C41 C 0.0994 0.89028 0.52306 0.0
C42 C 0.10681 0.88552 0.49413 0.0
C43 C 0.10638 0.89876 0.50765 0.0
N44 N 0.09578 0.87277 0.51882 0.0
N45 N 0.1005 0.86995 0.5016 0.0
C46 C 0.0948 0.89895 0.54099 0.0
H47 H 0.08247 0.8924 0.54694 0.0
H48 H 0.09244 0.91386 0.5394 0.0
H49 H 0.10638 0.89687 0.55056 0.0
C50 C 0.03243 0.84189 0.53278 0.0
N51 N 0.04979 0.84143 0.53894 0.0
N52 N 0.05918 0.85442 0.53077 0.0
C53 C 0.04806 0.86377 0.51948 0.0
C54 C 0.0307 0.85613 0.5203 0.0
C55 C 0.0183 0.82786 0.53742 0.0
H56 H 0.01632 0.82757 0.55246 0.0
H57 H 0.00503 0.83085 0.53069 0.0
H58 H 0.02323 0.81416 0.53313 0.0
O59 O 0.07909 0.80919 0.53855 0.0
O60 O 0.09446 0.83087 0.524 0.0
H61 H 0.04346 0.88412 0.4982 0.0
H62 H 0.06237 0.88851 0.51328 0.0
C63 C 0.05473 0.87767 0.50598 0.0
H64 H 0.06409 0.87094 0.49614 0.0
H65 H 0.09894 0.85751 0.4948 0.0
O66 O 0.04443 0.80728 0.56464 0.0
C67 C 0.09105 0.81407 0.52688 0.0
Co68 Co 0.42876 0.81778 0.80199 0.0
Co69 Co 0.39808 0.83986 0.78207 0.0
C70 C 0.4012 0.83904 0.82294 0.0
O71 O 0.41538 0.82894 0.823 0.0
O72 O 0.39373 0.84418 0.80813 0.0
C73 C 0.4464 0.78939 0.82406 0.0
O74 O 0.43035 0.78613 0.83143 0.0
C75 C 0.36048 0.85059 0.77215 0.0
C76 C 0.36588 0.87076 0.75031 0.0
C77 C 0.35197 0.86288 0.76043 0.0
N78 N 0.37861 0.85127 0.76906 0.0
N79 N 0.3817 0.86327 0.75591 0.0
C80 C 0.35178 0.83944 0.78694 0.0
H81 H 0.36228 0.8335 0.79611 0.0
H82 H 0.34396 0.82804 0.78074 0.0
H83 H 0.34208 0.848 0.79488 0.0
C84 C 0.41255 0.78793 0.7789 0.0
N85 N 0.41245 0.80503 0.78585 0.0
N86 N 0.39954 0.81453 0.77762 0.0
C87 C 0.39105 0.80389 0.76526 0.0
C88 C 0.39884 0.7866 0.76579 0.0
C89 C 0.4263 0.77361 0.78383 0.0
H90 H 0.4403 0.77927 0.78239 0.0
H91 H 0.42433 0.76965 0.79832 0.0
H92 H 0.42488 0.76121 0.77521 0.0
O93 O 0.44267 0.83626 0.78772 0.0
O94 O 0.42079 0.85139 0.77324 0.0
H95 H 0.38282 0.82439 0.74596 0.0
H96 H 0.37641 0.80158 0.73947 0.0
C97 C 0.37796 0.81104 0.7512 0.0
H98 H 0.36438 0.81307 0.75762 0.0
H99 H 0.39467 0.86668 0.75106 0.0
O100 O 0.44794 0.80148 0.8117 0.0
C101 C 0.43763 0.84853 0.77646 0.0
Co102 Co 0.43125 0.17794 0.05227 0.0
Co103 Co 0.40923 0.14769 0.03189 0.0
C104 C 0.40902 0.15075 0.07269 0.0
O105 O 0.41931 0.16477 0.07295 0.0
O106 O 0.40416 0.14331 0.05778 0.0
C107 C 0.45954 0.19434 0.07511 0.0
O108 O 0.46256 0.17795 0.08181 0.0
C109 C 0.39852 0.11031 0.02158 0.0
C110 C 0.37875 0.11587 -0.0006 0.0
C111 C 0.38649 0.1019 0.00957 0.0
N112 N 0.39788 0.12845 0.0186 0.0
N113 N 0.38611 0.13165 0.00527 0.0
C114 C 0.40936 0.10151 0.03654 0.0
H115 H 0.41528 0.11194 0.0458 0.0
H116 H 0.42076 0.09351 0.03054 0.0
H117 H 0.40057 0.09193 0.04437 0.0
C118 C 0.46141 0.16136 0.02976 0.0
N119 N 0.44418 0.16148 0.0364 0.0
N120 N 0.43468 0.1487 0.02798 0.0
C121 C 0.44544 0.14007 0.01583 0.0
C122 C 0.46282 0.1476 0.0167 0.0
C123 C 0.47578 0.17499 0.03485 0.0
H124 H 0.4701 0.18902 0.03382 0.0
H125 H 0.47992 0.17265 0.04924 0.0
H126 H 0.48808 0.17376 0.02606 0.0
O127 O 0.41335 0.19227 0.03761 0.0
O128 O 0.39823 0.17057 0.02286 0.0
H129 H 0.42518 0.1322 0.99611 0.0
H130 H 0.44803 0.12561 0.98995 0.0
C131 C 0.43839 0.12716 0.00154 0.0
H132 H 0.43617 0.11356 0.00781 0.0
H133 H 0.38279 0.14465 0.00044 0.0
O134 O 0.4476 0.19658 0.06272 0.0
C135 C 0.40124 0.18737 0.02612 0.0
Co136 Co 0.07073 0.81426 0.19615 0.0
Co137 Co 0.10186 0.83548 0.21607 0.0
C138 C 0.09787 0.83651 0.17551 0.0
O139 O 0.08366 0.82649 0.17552 0.0
O140 O 0.10587 0.84098 0.19024 0.0
C141 C 0.05458 0.78626 0.17308 0.0
O142 O 0.07115 0.78326 0.16682 0.0
C143 C 0.13928 0.84669 0.22596 0.0
C144 C 0.13363 0.86536 0.24905 0.0
C145 C 0.14757 0.8586 0.23818 0.0
N146 N 0.12122 0.84651 0.22946 0.0
N147 N 0.11799 0.8576 0.24337 0.0
C148 C 0.14808 0.83675 0.21038 0.0
H149 H 0.13764 0.8305 0.20136 0.0
H150 H 0.15692 0.82569 0.21578 0.0
H151 H 0.15684 0.84627 0.20245 0.0
C152 C 0.08691 0.78376 0.21831 0.0
N153 N 0.08729 0.8009 0.21149 0.0
N154 N 0.1006 0.81 0.21952 0.0
C155 C 0.10918 0.79902 0.23149 0.0
C156 C 0.10093 0.78194 0.23105 0.0
C157 C 0.07239 0.77002 0.214 0.0
H158 H 0.05872 0.77652 0.21506 0.0
H159 H 0.07421 0.76523 0.19974 0.0
H160 H 0.0731 0.75799 0.2232 0.0
O161 O 0.05679 0.83197 0.21136 0.0
O162 O 0.07919 0.84656 0.22557 0.0
H163 H 0.11743 0.81839 0.25186 0.0
H164 H 0.12555 0.79558 0.25616 0.0
C165 C 0.12271 0.80577 0.24533 0.0
H166 H 0.13571 0.80914 0.23831 0.0
H167 H 0.10501 0.86026 0.24866 0.0
O168 O 0.05202 0.79817 0.18544 0.0
C169 C 0.06224 0.84388 0.22281 0.0
Co170 Co 0.43141 0.82252 0.44607 0.0
Co171 Co 0.4084 0.85302 0.46513 0.0
C172 C 0.40936 0.8486 0.4243 0.0
O173 O 0.41987 0.83472 0.42462 0.0
O174 O 0.40404 0.85637 0.4389 0.0
C175 C 0.46007 0.80481 0.42431 0.0
O176 O 0.4617 0.82013 0.41507 0.0
C177 C 0.39725 0.89071 0.47416 0.0
C178 C 0.3776 0.88568 0.49656 0.0
C179 C 0.38528 0.89946 0.48607 0.0
N180 N 0.39661 0.87264 0.47755 0.0
N181 N 0.38487 0.86975 0.49097 0.0
C182 C 0.40829 0.89909 0.45911 0.0
H183 H 0.41285 0.88854 0.44925 0.0
H184 H 0.42067 0.90559 0.46495 0.0
H185 H 0.40021 0.90978 0.45197 0.0
C186 C 0.46075 0.84032 0.46839 0.0
N187 N 0.44362 0.83975 0.46157 0.0
N188 N 0.43374 0.85243 0.46969 0.0
C189 C 0.44413 0.86135 0.48196 0.0
C190 C 0.46168 0.85414 0.48141 0.0
C191 C 0.47554 0.82706 0.46345 0.0
H192 H 0.47852 0.82827 0.44864 0.0
H193 H 0.48831 0.82971 0.47118 0.0
H194 H 0.47077 0.81292 0.46614 0.0
O195 O 0.41333 0.80848 0.46082 0.0
O196 O 0.39749 0.8303 0.47464 0.0
H197 H 0.44579 0.87555 0.50804 0.0
H198 H 0.43456 0.8878 0.4899 0.0
C199 C 0.43656 0.87413 0.4961 0.0
H200 H 0.42316 0.86906 0.50101 0.0
H201 H 0.38163 0.85687 0.49617 0.0
O202 O 0.44863 0.80375 0.43733 0.0
C203 C 0.40088 0.81347 0.47191 0.0
Co204 Co 0.42765 0.1817 0.69732 0.0
Co205 Co 0.39736 0.15888 0.71703 0.0
C206 C 0.40089 0.15942 0.67629 0.0
O207 O 0.41481 0.16986 0.67634 0.0
O208 O 0.39332 0.15424 0.69102 0.0
C209 C 0.44381 0.2108 0.67526 0.0
O210 O 0.42744 0.2135 0.66835 0.0
C211 C 0.36014 0.14672 0.72688 0.0
C212 C 0.36626 0.12728 0.7492 0.0
C213 C 0.3521 0.13433 0.7388 0.0
N214 N 0.37825 0.14692 0.73011 0.0
N215 N 0.38177 0.13535 0.74354 0.0
C216 C 0.35106 0.1571 0.71176 0.0
H217 H 0.36133 0.16385 0.70291 0.0
H218 H 0.34206 0.1678 0.71762 0.0
H219 H 0.3424 0.14773 0.70354 0.0
C220 C 0.41005 0.21129 0.71981 0.0
N221 N 0.41076 0.19407 0.71318 0.0
N222 N 0.39796 0.18428 0.72124 0.0
C223 C 0.3887 0.19485 0.73308 0.0
C224 C 0.39586 0.21239 0.73242 0.0
C225 C 0.42336 0.22605 0.715 0.0
H226 H 0.43752 0.22066 0.71589 0.0
H227 H 0.42089 0.23045 0.70072 0.0
H228 H 0.4219 0.23813 0.72405 0.0
O229 O 0.44207 0.16376 0.71183 0.0
O230 O 0.42037 0.14811 0.72601 0.0
H231 H 0.38032 0.1746 0.75257 0.0
H232 H 0.37276 0.19735 0.75808 0.0
C233 C 0.37522 0.18762 0.74672 0.0
H234 H 0.36206 0.18491 0.73973 0.0
H235 H 0.39484 0.13262 0.74856 0.0
O236 O 0.44617 0.19863 0.68741 0.0
C237 C 0.43717 0.15138 0.72302 0.0
Co238 Co 0.06716 0.17679 0.94683 0.0
Co239 Co 0.0897 0.14664 0.96675 0.0
C240 C 0.08951 0.15038 0.92582 0.0
O241 O 0.07909 0.16432 0.9257 0.0
O242 O 0.09444 0.14283 0.94066 0.0
C243 C 0.03901 0.19455 0.92436 0.0
O244 O 0.03747 0.17925 0.91509 0.0
C245 C 0.09978 0.109 0.97637 0.0
C246 C 0.12121 0.11377 0.99715 0.0
C247 C 0.11227 0.10012 0.98755 0.0
N248 N 0.10131 0.12709 0.97927 0.0
N249 N 0.11408 0.12983 0.99175 0.0
C250 C 0.08762 0.10067 0.96218 0.0
H251 H 0.08225 0.11128 0.95277 0.0
H252 H 0.07583 0.09396 0.96894 0.0
H253 H 0.09519 0.09008 0.95438 0.0
C254 C 0.03733 0.1594 0.96888 0.0
N255 N 0.05457 0.15979 0.96233 0.0
N256 N 0.06435 0.14743 0.97106 0.0
C257 C 0.05384 0.13907 0.98361 0.0
C258 C 0.03626 0.14619 0.98252 0.0
C259 C 0.02252 0.1722 0.96294 0.0
H260 H 0.02667 0.18648 0.96593 0.0
H261 H 0.02055 0.17091 0.94797 0.0
H262 H 0.00934 0.16917 0.9698 0.0
O263 O 0.08499 0.19098 0.96188 0.0
O264 O 0.1006 0.16931 0.97618 0.0
H265 H 0.07522 0.13171 0.0024 0.0
H266 H 0.05261 0.12743 0.01091 0.0
C267 C 0.06132 0.12713 0.99851 0.0
H268 H 0.06212 0.11284 0.99353 0.0
H269 H 0.11821 0.1427 0.99631 0.0
O270 O 0.05019 0.19556 0.93761 0.0
C271 C 0.09724 0.18611 0.97325 0.0
Co272 Co 0.30106 0.07014 0.17829 0.0
Co273 Co 0.2817 0.09861 0.15284 0.0
C274 C 0.32263 0.09597 0.15577 0.0
O275 O 0.32244 0.08263 0.16694 0.0
O276 O 0.30796 0.10284 0.1495 0.0
C277 C 0.32238 0.05344 0.2081 0.0
O278 O 0.33036 0.06929 0.21078 0.0
C279 C 0.27242 0.13579 0.14036 0.0
C280 C 0.25152 0.12996 0.11935 0.0
C281 C 0.26126 0.1441 0.12738 0.0
N282 N 0.26935 0.11764 0.13993 0.0
N283 N 0.25679 0.11429 0.12739 0.0
C284 C 0.28661 0.14463 0.15217 0.0
H285 H 0.29603 0.1343 0.15797 0.0
H286 H 0.27984 0.15167 0.16377 0.0
H287 H 0.29439 0.15494 0.14422 0.0
C288 C 0.27711 0.08841 0.20589 0.0
N289 N 0.28447 0.08718 0.18902 0.0
N290 N 0.27605 0.09882 0.17813 0.0
C291 C 0.26309 0.10776 0.18766 0.0
C292 C 0.26345 0.10163 0.20562 0.0
C293 C 0.2823 0.07634 0.22156 0.0
H294 H 0.2803 0.06183 0.21764 0.0
H295 H 0.29699 0.07834 0.2247 0.0
H296 H 0.27421 0.07945 0.23401 0.0
O297 O 0.28728 0.05515 0.1605 0.0
O298 O 0.27385 0.07503 0.14195 0.0
H299 H 0.24475 0.11406 0.16562 0.0
H300 H 0.23644 0.12087 0.18777 0.0
C301 C 0.24881 0.1197 0.17908 0.0
H302 H 0.25453 0.13356 0.17698 0.0
H303 H 0.25206 0.10124 0.12408 0.0
O304 O 0.31005 0.05186 0.19599 0.0
C305 C 0.27699 0.05865 0.14692 0.0
Co306 Co 0.17879 0.05221 0.4303 0.0
Co307 Co 0.15141 0.03302 0.40368 0.0
C308 C 0.15341 0.07391 0.40752 0.0
O309 O 0.16653 0.07372 0.41893 0.0
O310 O 0.14686 0.05926 0.40087 0.0
C311 C 0.19517 0.07378 0.46014 0.0
O312 O 0.1796 0.08252 0.4621 0.0
C313 C 0.1146 0.0233 0.39061 0.0
C314 C 0.12106 0.00353 0.36869 0.0
C315 C 0.10666 0.01243 0.3772 0.0
N316 N 0.13283 0.02083 0.39002 0.0
N317 N 0.13658 0.00897 0.37692 0.0
C318 C 0.1053 0.03674 0.40293 0.0
H319 H 0.11531 0.04635 0.40899 0.0
H320 H 0.09852 0.02937 0.4143 0.0
H321 H 0.09466 0.0444 0.39527 0.0
C322 C 0.15899 0.02859 0.45725 0.0
N323 N 0.16146 0.03551 0.44032 0.0
N324 N 0.15064 0.02684 0.42882 0.0
C325 C 0.14122 0.01396 0.43793 0.0
C326 C 0.14592 0.01482 0.45631 0.0
C327 C 0.1693 0.03481 0.47377 0.0
H328 H 0.18406 0.03183 0.4719 0.0
H329 H 0.16774 0.04981 0.47526 0.0
H330 H 0.16429 0.02809 0.48641 0.0
O331 O 0.19441 0.03863 0.41278 0.0
O332 O 0.17522 0.02569 0.39321 0.0
H333 H 0.13564 0.99626 0.4151 0.0
H334 H 0.13005 0.98656 0.43698 0.0
C335 C 0.13008 -0.00064 0.42884 0.0
H336 H 0.11577 0.00413 0.42741 0.0
H337 H 0.14977 0.00481 0.3734 0.0
O338 O 0.19659 0.06096 0.44852 0.0
C339 C 0.19139 0.02871 0.39883 0.0
Co340 Co 0.19598 0.92702 0.68213 0.0
Co341 Co 0.21577 0.89885 0.6568 0.0
C342 C 0.17482 0.90188 0.65847 0.0
O343 O 0.17483 0.91499 0.6699 0.0
O344 O 0.1896 0.89496 0.65253 0.0
C345 C 0.17394 0.94354 0.71152 0.0
O346 O 0.16582 0.92771 0.71394 0.0
C347 C 0.22519 0.86168 0.64479 0.0
C348 C 0.24671 0.86718 0.62432 0.0
C349 C 0.23678 0.85317 0.63235 0.0
N350 N 0.22824 0.87981 0.64411 0.0
N351 N 0.24112 0.88299 0.63187 0.0
C352 C 0.2107 0.85305 0.6564 0.0
H353 H 0.20084 0.86341 0.66135 0.0
H354 H 0.2171 0.84668 0.66857 0.0
H355 H 0.20344 0.84224 0.6486 0.0
C356 C 0.21903 0.90819 0.71013 0.0
N357 N 0.21205 0.90967 0.69312 0.0
N358 N 0.22072 0.8982 0.68224 0.0
C359 C 0.23352 0.88919 0.69191 0.0
C360 C 0.23273 0.89501 0.70996 0.0
C361 C 0.21358 0.92012 0.72582 0.0
H362 H 0.21586 0.93466 0.72214 0.0
H363 H 0.19879 0.91829 0.72855 0.0
H364 H 0.22132 0.91675 0.73842 0.0
O365 O 0.21055 0.94214 0.66507 0.0
O366 O 0.22421 0.92244 0.64648 0.0
H367 H 0.25227 0.88346 0.67002 0.0
H368 H 0.26056 0.8769 0.69222 0.0
C369 C 0.24823 0.87769 0.68343 0.0
H370 H 0.24298 0.86364 0.68129 0.0
H371 H 0.24595 0.89598 0.6285 0.0
O372 O 0.1866 0.94512 0.69975 0.0
C373 C 0.22116 0.93874 0.65171 0.0
Co374 Co 0.32295 0.94526 0.93177 0.0
Co375 Co 0.35064 0.96422 0.90538 0.0
C376 C 0.348 0.92328 0.90894 0.0
O377 O 0.33489 0.92355 0.92039 0.0
O378 O 0.35471 0.9379 0.9024 0.0
C379 C 0.30584 0.92412 0.96169 0.0
O380 O 0.32058 0.91391 0.96281 0.0
C381 C 0.38756 0.97345 0.89256 0.0
C382 C 0.38153 0.9935 0.87078 0.0
C383 C 0.39576 0.9843 0.87929 0.0
N384 N 0.36939 0.9762 0.89189 0.0
N385 N 0.36589 0.98822 0.87887 0.0
C386 C 0.39657 0.95979 0.90487 0.0
H387 H 0.3864 0.95017 0.91062 0.0
H388 H 0.40315 0.96699 0.91647 0.0
H389 H 0.40731 0.95216 0.89732 0.0
C390 C 0.34227 0.96897 0.95867 0.0
N391 N 0.34043 0.96171 0.94183 0.0
N392 N 0.35157 0.97023 0.93054 0.0
C393 C 0.36068 0.98329 0.93974 0.0
C394 C 0.35527 0.98279 0.95793 0.0
C395 C 0.33096 0.9635 0.97481 0.0
H396 H 0.3164 0.9668 0.97209 0.0
H397 H 0.33206 0.94852 0.97682 0.0
H398 H 0.33548 0.97053 0.98747 0.0
O399 O 0.30749 0.95906 0.91429 0.0
O400 O 0.32691 0.97206 0.89498 0.0
H401 H 0.3664 0.00109 0.91706 0.0
H402 H 0.37229 0.01055 0.939 0.0
C403 C 0.37198 0.99783 0.93076 0.0
H404 H 0.3862 0.99283 0.92916 0.0
H405 H 0.35279 0.99262 0.87532 0.0
O406 O 0.3052 0.93723 0.95032 0.0
C407 C 0.31068 0.96914 0.90049 0.0
Co408 Co 0.30278 0.92645 0.31585 0.0
Co409 Co 0.28272 0.89886 0.34173 0.0
C410 C 0.32365 0.90022 0.33868 0.0
O411 O 0.3238 0.9135 0.32742 0.0
O412 O 0.30882 0.8938 0.34503 0.0
C413 C 0.32417 0.9427 0.28559 0.0
O414 O 0.33199 0.9268 0.28267 0.0
C415 C 0.27185 0.86237 0.35515 0.0
C416 C 0.25122 0.86977 0.37596 0.0
C417 C 0.26028 0.855 0.36831 0.0
N418 N 0.26965 0.88065 0.35509 0.0
N419 N 0.25725 0.88494 0.36751 0.0
C420 C 0.28568 0.85248 0.34376 0.0
H421 H 0.29546 0.86219 0.33749 0.0
H422 H 0.27867 0.84505 0.33257 0.0
H423 H 0.29311 0.84229 0.35223 0.0
C424 C 0.27874 0.90801 0.28841 0.0
N425 N 0.2858 0.90965 0.30537 0.0
N426 N 0.27708 0.89842 0.31644 0.0
C427 C 0.26422 0.88934 0.30693 0.0
C428 C 0.265 0.89491 0.28881 0.0
C429 C 0.28445 0.91942 0.27243 0.0
H430 H 0.28298 0.93411 0.27593 0.0
H431 H 0.29906 0.91677 0.26944 0.0
H432 H 0.27631 0.91627 0.26003 0.0
O433 O 0.28939 0.94211 0.33337 0.0
O434 O 0.27568 0.9228 0.35227 0.0
H435 H 0.24569 0.8834 0.32894 0.0
H436 H 0.23739 0.87669 0.30676 0.0
C437 C 0.24974 0.87766 0.31551 0.0
H438 H 0.25522 0.8637 0.31764 0.0
H439 H 0.25313 0.89828 0.37047 0.0
O440 O 0.31207 0.94434 0.29793 0.0
C441 C 0.27915 0.93902 0.34706 0.0
Co442 Co 0.32116 0.05286 0.56854 0.0
Co443 Co 0.34944 0.0329 0.59363 0.0
C444 C 0.34668 0.07386 0.59194 0.0
O445 O 0.33341 0.07393 0.58068 0.0
O446 O 0.35358 0.05904 0.59781 0.0
C447 C 0.3044 0.07502 0.53933 0.0
O448 O 0.32016 0.08323 0.5368 0.0
C449 C 0.38652 0.02324 0.60598 0.0
C450 C 0.38059 0.0019 0.62653 0.0
C451 C 0.39475 0.01174 0.61869 0.0
N452 N 0.36837 0.02025 0.60635 0.0
N453 N 0.36494 0.00745 0.61861 0.0
C454 C 0.39547 0.03769 0.59459 0.0
H455 H 0.38518 0.04722 0.58888 0.0
H456 H 0.40273 0.03122 0.58296 0.0
H457 H 0.40566 0.04531 0.60285 0.0
C458 C 0.34023 0.03033 0.54022 0.0
N459 N 0.33846 0.03682 0.55739 0.0
N460 N 0.34997 0.02808 0.56816 0.0
C461 C 0.35934 0.01574 0.55825 0.0
C462 C 0.3537 0.01692 0.54018 0.0
C463 C 0.32859 0.0362 0.52447 0.0
H464 H 0.31396 0.03413 0.52793 0.0
H465 H 0.33072 0.05099 0.52198 0.0
H466 H 0.33198 0.02859 0.51179 0.0
O467 O 0.30607 0.03831 0.58562 0.0
O468 O 0.32586 0.02459 0.60404 0.0
H469 H 0.36587 0.99686 0.5798 0.0
H470 H 0.37231 0.98907 0.55737 0.0
C471 C 0.37133 0.00123 0.56637 0.0
H472 H 0.38527 0.00682 0.56836 0.0
H473 H 0.35187 0.00272 0.62182 0.0
O474 O 0.30297 0.06231 0.55106 0.0
C475 C 0.30952 0.02768 0.59893 0.0
Co476 Co 0.19669 0.0699 0.81854 0.0
Co477 Co 0.21666 0.09813 0.84361 0.0
C478 C 0.17572 0.09573 0.84179 0.0
O479 O 0.17564 0.08243 0.83057 0.0
O480 O 0.19055 0.10255 0.8477 0.0
C481 C 0.17466 0.05384 0.78896 0.0
O482 O 0.16715 0.06993 0.78628 0.0
C483 C 0.22649 0.13513 0.85591 0.0
C484 C 0.24772 0.12912 0.87656 0.0
C485 C 0.23796 0.14332 0.86865 0.0
N486 N 0.22941 0.11696 0.85632 0.0
N487 N 0.24216 0.11349 0.86864 0.0
C488 C 0.21211 0.14412 0.84444 0.0
H489 H 0.20447 0.15435 0.85267 0.0
H490 H 0.20259 0.13387 0.83867 0.0
H491 H 0.21866 0.15135 0.83284 0.0
C492 C 0.22002 0.08827 0.7904 0.0
N493 N 0.21305 0.08693 0.80742 0.0
N494 N 0.22168 0.09852 0.81819 0.0
C495 C 0.23436 0.10757 0.8084 0.0
C496 C 0.23358 0.10158 0.79042 0.0
C497 C 0.21465 0.07619 0.77479 0.0
H498 H 0.20007 0.07864 0.77144 0.0
H499 H 0.223 0.07889 0.76242 0.0
H500 H 0.21611 0.06166 0.77889 0.0
O501 O 0.21096 0.05466 0.83577 0.0
O502 O 0.22469 0.07448 0.85416 0.0
H503 H 0.25323 0.1138 0.83002 0.0
H504 H 0.261 0.12064 0.80769 0.0
C505 C 0.24884 0.11947 0.81668 0.0
H506 H 0.24319 0.13335 0.81893 0.0
H507 H 0.24682 0.1004 0.87189 0.0
O508 O 0.18702 0.05189 0.80098 0.0
C509 C 0.22152 0.05813 0.84914 0.0
Co510 Co 0.17405 0.94477 0.0666 0.0
Co511 Co 0.14739 0.9648 0.09333 0.0
C512 C 0.14973 0.92386 0.09123 0.0
O513 O 0.16251 0.92378 0.07943 0.0
O514 O 0.1431 0.93866 0.09743 0.0
C515 C 0.20364 0.9255 0.05119 0.0
O516 O 0.20643 0.92125 0.06842 0.0
C517 C 0.11106 0.97524 0.10691 0.0
C518 C 0.11804 0.99575 0.12797 0.0
C519 C 0.10342 0.98667 0.12004 0.0
N520 N 0.1293 0.97756 0.1071 0.0
N521 N 0.13338 0.98985 0.11969 0.0
C522 C 0.10146 0.96143 0.09525 0.0
H523 H 0.11127 0.95135 0.08963 0.0
H524 H 0.0948 0.96842 0.08356 0.0
H525 H 0.0907 0.95435 0.10327 0.0
C526 C 0.15381 0.96733 0.03967 0.0
N527 N 0.15618 0.96081 0.05672 0.0
N528 N 0.14555 0.96992 0.06804 0.0
C529 C 0.13628 0.98272 0.05861 0.0
C530 C 0.14103 0.98136 0.04026 0.0
C531 C 0.16455 0.96105 0.02343 0.0
H532 H 0.16485 0.94589 0.02308 0.0
H533 H 0.1586 0.96628 0.01049 0.0
H534 H 0.17885 0.96596 0.02472 0.0
O535 O 0.19052 0.95916 0.08269 0.0
O536 O 0.17169 0.9725 0.10243 0.0
H537 H 0.1257 0.0104 0.05881 0.0
H538 H 0.11124 0.99348 0.0692 0.0
C539 C 0.12562 0.99789 0.06737 0.0
H540 H 0.13146 0.00129 0.08092 0.0
H541 H 0.14666 0.99403 0.12281 0.0
O542 O 0.18983 0.9352 0.047 0.0
C543 C 0.18774 0.96951 0.0964 0.0
Co544 Co 0.18008 0.30095 0.071 0.0
Co545 Co 0.16044 0.28047 0.10283 0.0
C546 C 0.1588 0.32107 0.09961 0.0
O547 O 0.16832 0.32124 0.08502 0.0
O548 O 0.15467 0.30622 0.10761 0.0
C549 C 0.20802 0.32357 0.05416 0.0
O550 O 0.21198 0.32908 0.07079 0.0
C551 C 0.14738 0.27089 0.13968 0.0
C552 C 0.14121 0.2415 0.13636 0.0
C553 C 0.14117 0.25562 0.14894 0.0
N554 N 0.15099 0.26602 0.12232 0.0
N555 N 0.14705 0.24849 0.12038 0.0
C556 C 0.151 0.28945 0.14743 0.0
H557 H 0.16367 0.29517 0.14138 0.0
H558 H 0.1523 0.28895 0.16254 0.0
H559 H 0.13944 0.2986 0.14384 0.0
C560 C 0.21128 0.27826 0.08502 0.0
N561 N 0.19427 0.28529 0.0865 0.0
N562 N 0.18605 0.27758 0.10054 0.0
C563 C 0.19772 0.26601 0.10882 0.0
C564 C 0.2141 0.26591 0.09921 0.0
C565 C 0.2239 0.28197 0.06934 0.0
H566 H 0.21616 0.28168 0.0563 0.0
H567 H 0.22986 0.2958 0.071 0.0
H568 H 0.23529 0.27197 0.06879 0.0
O569 O 0.16183 0.28605 0.05769 0.0
O570 O 0.14849 0.27106 0.08038 0.0
H571 H 0.18335 0.24236 0.11807 0.0
H572 H 0.20421 0.24651 0.13031 0.0
C573 C 0.19227 0.25317 0.12382 0.0
H574 H 0.1846 0.26073 0.13447 0.0
H575 H 0.14865 0.24123 0.10819 0.0
O576 O 0.1954 0.31191 0.05174 0.0
C577 C 0.15035 0.2743 0.06339 0.0
Co578 Co 0.67996 0.19719 0.9257 0.0
Co579 Co 0.65817 0.21723 0.89485 0.0
C580 C 0.65781 0.17653 0.89843 0.0
O581 O 0.66807 0.17647 0.9125 0.0
O582 O 0.65296 0.19133 0.89075 0.0
C583 C 0.70893 0.17509 0.94196 0.0
O584 O 0.71246 0.16911 0.92539 0.0
C585 C 0.64602 0.22709 0.85757 0.0
C586 C 0.62796 0.25056 0.86362 0.0
C587 C 0.63404 0.23945 0.84954 0.0
N588 N 0.64686 0.23073 0.8756 0.0
N589 N 0.63614 0.24487 0.87905 0.0
C590 C 0.65549 0.21132 0.8486 0.0
H591 H 0.66172 0.20215 0.85891 0.0
H592 H 0.6666 0.21651 0.83969 0.0
H593 H 0.64571 0.20363 0.83991 0.0
C594 C 0.70995 0.22009 0.90958 0.0
N595 N 0.6929 0.21303 0.90929 0.0
N596 N 0.68364 0.2209 0.89597 0.0
C597 C 0.6945 0.23286 0.88722 0.0
C598 C 0.71158 0.23266 0.89544 0.0
C599 C 0.72378 0.21618 0.92414 0.0
H600 H 0.71711 0.21636 0.93776 0.0
H601 H 0.72955 0.20235 0.92188 0.0
H602 H 0.73517 0.2262 0.92389 0.0
O603 O 0.66198 0.21185 0.93977 0.0
O604 O 0.64714 0.22642 0.91774 0.0
H605 H 0.67557 0.2535 0.87867 0.0
H606 H 0.69828 0.2565 0.86954 0.0
C607 C 0.68775 0.24626 0.87326 0.0
H608 H 0.68362 0.23876 0.86077 0.0
H609 H 0.63399 0.25031 0.89206 0.0
O610 O 0.69634 0.18679 0.94443 0.0
C611 C 0.64994 0.22331 0.93462 0.0
Co612 Co 0.05395 0.43253 0.17761 0.0
Co613 Co 0.03392 0.40718 0.1497 0.0
C614 C 0.07485 0.40942 0.15164 0.0
O615 O 0.07505 0.4207 0.1649 0.0
O616 O 0.05997 0.40341 0.14504 0.0
C617 C 0.07541 0.46274 0.1933 0.0
O618 O 0.08246 0.4657 0.17705 0.0
C619 C 0.02385 0.39552 0.11268 0.0
C620 C 0.00328 0.37414 0.11836 0.0
C621 C 0.01253 0.38281 0.10428 0.0
N622 N 0.0213 0.39442 0.13086 0.0
N623 N 0.00898 0.38163 0.13416 0.0
C624 C 0.03777 0.40761 0.10379 0.0
H625 H 0.04745 0.41316 0.11403 0.0
H626 H 0.03085 0.41934 0.09715 0.0
H627 H 0.04531 0.39992 0.09309 0.0
C628 C 0.02984 0.46033 0.15954 0.0
N629 N 0.03713 0.44342 0.16082 0.0
N630 N 0.02846 0.43249 0.1494 0.0
C631 C 0.01545 0.44204 0.14057 0.0
C632 C 0.01606 0.46005 0.14646 0.0
C633 C 0.03511 0.47605 0.17152 0.0
H634 H 0.03428 0.47186 0.18607 0.0
H635 H 0.04946 0.47991 0.16857 0.0
H636 H 0.02625 0.48814 0.16916 0.0
O637 O 0.0402 0.41498 0.19302 0.0
O638 O 0.02641 0.39643 0.17338 0.0
H639 H 0.99698 0.41997 0.13466 0.0
H640 H 0.98832 0.44217 0.12855 0.0
C641 C 0.00077 0.43352 0.12908 0.0
H642 H 0.00589 0.43174 0.11494 0.0
H643 H 0.00465 0.37784 0.14722 0.0
O644 O 0.06353 0.45028 0.19549 0.0
C645 C 0.02983 0.40143 0.18969 0.0
Co646 Co 0.81806 0.80203 0.42356 0.0
Co647 Co 0.84286 0.78293 0.39436 0.0
C648 C 0.8417 0.82374 0.3988 0.0
O649 O 0.83048 0.82342 0.4121 0.0
O650 O 0.84735 0.80915 0.39126 0.0
C651 C 0.8026 0.81951 0.4549 0.0
O652 O 0.81978 0.82289 0.4589 0.0
C653 C 0.85662 0.77435 0.35746 0.0
C654 C 0.87671 0.75263 0.36363 0.0
C655 C 0.86976 0.76315 0.34948 0.0
N656 N 0.85596 0.7706 0.37547 0.0
N657 N 0.86792 0.75753 0.37902 0.0
C658 C 0.84577 0.78922 0.34852 0.0
H659 H 0.83961 0.79839 0.35888 0.0
H660 H 0.83448 0.78308 0.3405 0.0
H661 H 0.85456 0.79717 0.33904 0.0
C662 C 0.79009 0.77957 0.40439 0.0
N663 N 0.8071 0.78654 0.40557 0.0
N664 N 0.81759 0.77835 0.39345 0.0
C665 C 0.80771 0.76583 0.3843 0.0
C666 C 0.78987 0.76624 0.39085 0.0
C667 C 0.7748 0.78455 0.41703 0.0
H668 H 0.7733 0.79964 0.41745 0.0
H669 H 0.76167 0.77836 0.41261 0.0
H670 H 0.77815 0.7798 0.43105 0.0
O671 O 0.83512 0.78724 0.43891 0.0
O672 O 0.85225 0.77364 0.41788 0.0
H673 H 0.82902 0.74669 0.37796 0.0
H674 H 0.80681 0.73982 0.36988 0.0
C675 C 0.816 0.75167 0.37201 0.0
H676 H 0.81904 0.75795 0.35855 0.0
H677 H 0.87042 0.75227 0.39204 0.0
O678 O 0.79882 0.81114 0.44015 0.0
C679 C 0.84789 0.77623 0.43453 0.0
Co680 Co 0.94472 0.0675 0.17684 0.0
Co681 Co 0.9645 0.09015 0.14656 0.0
C682 C 0.92373 0.0893 0.14963 0.0
O683 O 0.92372 0.07892 0.16361 0.0
O684 O 0.93851 0.09455 0.14221 0.0
C685 C 0.92351 0.03789 0.19355 0.0
O686 O 0.9173 0.03387 0.17719 0.0
C687 C 0.97442 0.10265 0.10949 0.0
C688 C 0.99687 0.12182 0.1159 0.0
C689 C 0.98634 0.11517 0.10164 0.0
N690 N 0.97775 0.10206 0.12758 0.0
N691 N 0.99128 0.11344 0.13126 0.0
C692 C 0.95932 0.09237 0.10027 0.0
H693 H 0.95 0.08615 0.11046 0.0
H694 H 0.96523 0.08117 0.09194 0.0
H695 H 0.95161 0.10159 0.091 0.0
C696 C 0.96894 0.03839 0.16088 0.0
N697 N 0.96123 0.05516 0.16054 0.0
N698 N 0.96915 0.06485 0.14757 0.0
C699 C 0.9819 0.05461 0.13918 0.0
C700 C 0.98213 0.03742 0.14721 0.0
C701 C 0.96487 0.02417 0.17501 0.0
H702 H 0.95091 0.01876 0.17268 0.0
H703 H 0.97465 0.01259 0.17436 0.0
H704 H 0.96524 0.03043 0.18883 0.0
O705 O 0.95868 0.08579 0.19123 0.0
O706 O 0.97302 0.10131 0.16956 0.0
H707 H 0.00683 0.05243 0.12302 0.0
H708 H 0.98863 0.06567 0.11299 0.0
C709 C 0.99562 0.06219 0.12597 0.0
H710 H 0.00163 0.07489 0.13166 0.0
H711 H 0.99637 0.11589 0.14436 0.0
O712 O 0.93488 0.05084 0.19557 0.0
C713 C 0.9698 0.09823 0.18636 0.0
Co714 Co 0.31887 0.69791 0.57017 0.0
Co715 Co 0.34166 0.71733 0.60064 0.0
C716 C 0.3404 0.67649 0.59723 0.0
O717 O 0.33001 0.67664 0.58325 0.0
O718 O 0.34586 0.69121 0.60465 0.0
C719 C 0.2894 0.67672 0.55336 0.0
O720 O 0.2861 0.66985 0.56962 0.0
C721 C 0.35341 0.72652 0.63811 0.0
C722 C 0.37325 0.74863 0.63261 0.0
C723 C 0.36589 0.7381 0.64653 0.0
N724 N 0.3535 0.73006 0.62005 0.0
N725 N 0.3653 0.74337 0.61691 0.0
C726 C 0.34258 0.71148 0.64677 0.0
H727 H 0.33633 0.70257 0.63624 0.0
H728 H 0.33138 0.71742 0.65506 0.0
H729 H 0.35145 0.70331 0.656 0.0
C730 C 0.28952 0.72122 0.58714 0.0
N731 N 0.30656 0.7141 0.5868 0.0
N732 N 0.31634 0.72199 0.59973 0.0
C733 C 0.30592 0.73418 0.60871 0.0
C734 C 0.28852 0.73397 0.6012 0.0
C735 C 0.27491 0.71679 0.57353 0.0
H736 H 0.28061 0.71745 0.55949 0.0
H737 H 0.27003 0.70266 0.57597 0.0
H738 H 0.26307 0.7262 0.5747 0.0
O739 O 0.33726 0.71209 0.55602 0.0
O740 O 0.3528 0.72632 0.57778 0.0
H741 H 0.32639 0.75339 0.61717 0.0
H742 H 0.30367 0.75919 0.62466 0.0
C743 C 0.31328 0.74772 0.62222 0.0
H744 H 0.31587 0.74069 0.63539 0.0
H745 H 0.36827 0.74856 0.60395 0.0
O746 O 0.30203 0.68845 0.55133 0.0
C747 C 0.34966 0.72325 0.56095 0.0
Co748 Co 0.05213 0.56849 0.32087 0.0
Co749 Co 0.03181 0.58981 0.3517 0.0
C750 C 0.07259 0.59067 0.34816 0.0
O751 O 0.07287 0.58055 0.33399 0.0
O752 O 0.05767 0.59518 0.35581 0.0
C753 C 0.07493 0.54068 0.3033 0.0
O754 O 0.08223 0.53751 0.31941 0.0
C755 C 0.02194 0.60044 0.38925 0.0
C756 C -0.00063 0.61983 0.38392 0.0
C757 C 0.00997 0.61245 0.39776 0.0
N758 N 0.01856 0.6008 0.37118 0.0
N759 N 0.00498 0.61231 0.36812 0.0
C760 C 0.0372 0.58988 0.39788 0.0
H761 H 0.04634 0.58398 0.38733 0.0
H762 H 0.03148 0.57848 0.40605 0.0
H763 H 0.04508 0.59885 0.40725 0.0
C764 C 0.02997 0.53792 0.3371 0.0
N765 N 0.0366 0.55514 0.33733 0.0
N766 N 0.02823 0.56435 0.35037 0.0
C767 C 0.01614 0.5534 0.35882 0.0
C768 C 0.01694 0.53619 0.35086 0.0
C769 C 0.03498 0.52389 0.32308 0.0
H770 H 0.04955 0.52011 0.32485 0.0
H771 H 0.02657 0.51134 0.32439 0.0
H772 H 0.03333 0.52976 0.30918 0.0
O773 O 0.03699 0.58638 0.30703 0.0
O774 O 0.02233 0.60099 0.32912 0.0
H775 H 0.99059 0.55038 0.37384 0.0
H776 H 0.00843 0.56281 0.38539 0.0
C777 C 0.00193 0.56023 0.37195 0.0
H778 H 0.99612 0.57327 0.36687 0.0
H779 H -0.00015 0.61542 0.35518 0.0
O780 O 0.06234 0.55252 0.30168 0.0
C781 C 0.02538 0.59825 0.31224 0.0
Co782 Co 0.44558 0.43131 0.82579 0.0
Co783 Co 0.46395 0.40572 0.85454 0.0
C784 C 0.4232 0.4085 0.85068 0.0
O785 O 0.42382 0.41973 0.83741 0.0
O786 O 0.43765 0.40224 0.858 0.0
C787 C 0.42696 0.44651 0.79545 0.0
O788 O 0.42176 0.42946 0.79318 0.0
C789 C 0.47269 0.39221 0.89137 0.0
C790 C 0.49303 0.37073 0.88511 0.0
C791 C 0.48343 0.37872 0.89936 0.0
N792 N 0.47586 0.39212 0.87325 0.0
N793 N 0.48806 0.3793 0.86962 0.0
C794 C 0.45871 0.40407 0.90048 0.0
H795 H 0.44939 0.41024 0.89026 0.0
H796 H 0.46566 0.41534 0.90784 0.0
H797 H 0.45079 0.39601 0.9106 0.0
C798 C 0.46931 0.4584 0.8448 0.0
N799 N 0.46168 0.44168 0.84358 0.0
N800 N 0.46961 0.43079 0.85553 0.0
C801 C 0.48261 0.44011 0.86458 0.0
C802 C 0.48277 0.45801 0.85823 0.0
C803 C 0.46485 0.47394 0.83227 0.0
H804 H 0.44981 0.47585 0.83174 0.0
H805 H 0.4714 0.48683 0.83686 0.0
H806 H 0.46961 0.47057 0.81826 0.0
O807 O 0.45958 0.4138 0.81024 0.0
O808 O 0.4727 0.39601 0.83099 0.0
H809 H 0.50923 0.43968 0.87782 0.0
H810 H 0.49089 0.42911 0.89036 0.0
C811 C 0.49671 0.43123 0.87653 0.0
H812 H 0.50059 0.41774 0.87083 0.0
H813 H 0.49274 0.37615 0.85652 0.0
O814 O 0.43695 0.45057 0.80907 0.0
C815 C 0.47014 0.4006 0.8144 0.0
Co816 Co 0.57015 0.67849 0.80174 0.0
Co817 Co 0.59752 0.65286 0.78126 0.0
C818 C 0.59609 0.65497 0.82224 0.0
O819 O 0.58288 0.66631 0.8226 0.0
O820 O 0.60252 0.64894 0.80728 0.0
C821 C 0.55454 0.70851 0.82385 0.0
O822 O 0.57061 0.71109 0.83144 0.0
C823 C 0.63399 0.6397 0.77072 0.0
C824 C 0.62701 0.61797 0.75091 0.0
C825 C 0.64158 0.62612 0.75986 0.0
N826 N 0.61576 0.63955 0.76829 0.0
N827 N 0.61171 0.62661 0.75635 0.0
C828 C 0.64363 0.65152 0.78436 0.0
H829 H 0.63368 0.65907 0.79297 0.0
H830 H 0.65228 0.66163 0.77711 0.0
H831 H 0.65271 0.64302 0.79306 0.0
C832 C 0.58863 0.70623 0.77806 0.0
N833 N 0.5871 0.68923 0.78503 0.0
N834 N 0.59826 0.67824 0.7761 0.0
C835 C 0.60716 0.68784 0.76318 0.0
C836 C 0.60152 0.70594 0.7641 0.0
C837 C 0.57715 0.72211 0.78395 0.0
H838 H 0.56247 0.71863 0.78236 0.0
H839 H 0.57972 0.7249 0.79862 0.0
H840 H 0.58033 0.73464 0.77603 0.0
O841 O 0.55431 0.66159 0.7877 0.0
O842 O 0.57354 0.64276 0.77374 0.0
H843 H 0.61282 0.66587 0.74451 0.0
H844 H 0.61934 0.68807 0.73612 0.0
C845 C 0.61859 0.67931 0.74846 0.0
H846 H 0.63266 0.67718 0.7537 0.0
H847 H 0.59843 0.62332 0.75229 0.0
O848 O 0.55254 0.69642 0.81156 0.0
C849 C 0.55735 0.64814 0.77711 0.0
Co850 Co 0.5677 0.31906 0.05263 0.0
Co851 Co 0.58875 0.35019 0.03243 0.0
C852 C 0.58977 0.34629 0.07315 0.0
O853 O 0.57971 0.3321 0.07327 0.0
O854 O 0.59427 0.35413 0.05833 0.0
C855 C 0.54018 0.3018 0.07573 0.0
O856 O 0.53716 0.31802 0.08284 0.0
C857 C 0.59951 0.38784 0.02281 0.0
C858 C 0.61844 0.3826 -0.00016 0.0
C859 C 0.61143 0.39638 0.01076 0.0
N860 N 0.59958 0.3698 0.01917 0.0
N861 N 0.61082 0.36681 0.00534 0.0
C862 C 0.58934 0.39637 0.03839 0.0
H863 H 0.59865 0.4053 0.04639 0.0
H864 H 0.58326 0.38577 0.04734 0.0
H865 H 0.57811 0.405 0.03298 0.0
C866 C 0.53693 0.33529 0.03092 0.0
N867 N 0.55422 0.33553 0.03734 0.0
N868 N 0.56324 0.34877 0.02909 0.0
C869 C 0.55207 0.35738 0.01732 0.0
C870 C 0.53494 0.34927 0.01819 0.0
C871 C 0.52306 0.32107 0.03582 0.0
H872 H 0.52916 0.30726 0.03429 0.0
H873 H 0.51908 0.32286 0.05033 0.0
H874 H 0.51059 0.32216 0.02727 0.0
O875 O 0.58558 0.30537 0.03744 0.0
O876 O 0.59995 0.32762 0.02277 0.0
H877 H 0.57137 0.36599 0.99702 0.0
H878 H 0.54834 0.37339 0.99249 0.0
C879 C 0.55856 0.37097 0.00342 0.0
H880 H 0.5615 0.38412 0.01034 0.0
H881 H 0.6137 0.35391 -2e-05 0.0
O882 O 0.55186 0.29994 0.06303 0.0
C883 C 0.59735 0.3107 0.0258 0.0
Co884 Co 0.9284 0.31625 0.30053 0.0
Co885 Co 0.9017 0.34341 0.2814 0.0
C886 C 0.90282 0.33886 0.32224 0.0
O887 O 0.91582 0.3273 0.3221 0.0
O888 O 0.89667 0.34581 0.30758 0.0
C889 C 0.94362 0.28577 0.3218 0.0
O890 O 0.92767 0.28389 0.32984 0.0
C891 C 0.86502 0.35582 0.27132 0.0
C892 C 0.87109 0.37853 0.25234 0.0
C893 C 0.85684 0.36919 0.26062 0.0
N894 N 0.88324 0.35717 0.26933 0.0
N895 N 0.88679 0.37077 0.25798 0.0
C896 C 0.85586 0.34278 0.28419 0.0
H897 H 0.86584 0.33691 0.29395 0.0
H898 H 0.84979 0.33132 0.27637 0.0
H899 H 0.8447 0.34981 0.2917 0.0
C900 C 0.9089 0.28991 0.27581 0.0
N901 N 0.91137 0.30664 0.28323 0.0
N902 N 0.9009 0.31846 0.27455 0.0
C903 C 0.89177 0.30979 0.26116 0.0
C904 C 0.8962 0.29135 0.26172 0.0
C905 C 0.91888 0.27312 0.28185 0.0
H906 H 0.93376 0.27502 0.2796 0.0
H907 H 0.91667 0.27108 0.2967 0.0
H908 H 0.91413 0.26077 0.27444 0.0
O909 O 0.94444 0.33396 0.28757 0.0
O910 O 0.9256 0.35395 0.27471 0.0
H911 H 0.88703 0.33315 0.2439 0.0
H912 H 0.88192 0.31156 0.23332 0.0
C913 C 0.88133 0.31934 0.24633 0.0
H914 H 0.86679 0.32062 0.25041 0.0
H915 H 0.89993 0.37487 0.25423 0.0
O916 O 0.94575 0.29767 0.30935 0.0
C917 C 0.94168 0.34816 0.27791 0.0
Co918 Co 0.92762 0.67658 0.55091 0.0
Co919 Co 0.90424 0.64685 0.53105 0.0
C920 C 0.90532 0.64998 0.57193 0.0
O921 O 0.91588 0.66382 0.57196 0.0
O922 O 0.89994 0.64263 0.55714 0.0
C923 C 0.95667 0.6932 0.57316 0.0
O924 O 0.95823 0.67756 0.58185 0.0
C925 C 0.89177 0.60984 0.52092 0.0
C926 C 0.87128 0.6164 0.49969 0.0
C927 C 0.8788 0.60206 0.50948 0.0
N928 N 0.89184 0.62801 0.51802 0.0
N929 N 0.87966 0.63179 0.50522 0.0
C930 C 0.90272 0.60048 0.53543 0.0
H931 H 0.91067 0.61053 0.54354 0.0
H932 H 0.91236 0.59067 0.52902 0.0
H933 H 0.89349 0.59259 0.54453 0.0
C934 C 0.95683 0.65865 0.52844 0.0
N935 N 0.93959 0.65956 0.53496 0.0
N936 N 0.92959 0.64715 0.52656 0.0
C937 C 0.94002 0.63806 0.51445 0.0
C938 C 0.9577 0.64489 0.51536 0.0
C939 C 0.97188 0.67135 0.53397 0.0
H940 H 0.97469 0.66953 0.54874 0.0
H941 H 0.98467 0.66865 0.52628 0.0
H942 H 0.96749 0.6857 0.53175 0.0
O943 O 0.90975 0.69138 0.53659 0.0
O944 O 0.89368 0.67006 0.52234 0.0
H945 H 0.9419 0.62344 0.48864 0.0
H946 H 0.93025 0.61162 0.50682 0.0
C947 C 0.93251 0.62516 0.50041 0.0
H948 H 0.91923 0.63031 0.49525 0.0
H949 H 0.87669 0.64495 0.5006 0.0
O950 O 0.94513 0.69483 0.56028 0.0
C951 C 0.89722 0.68679 0.52544 0.0
Co952 Co 0.56767 0.32125 0.69643 0.0
Co953 Co 0.59825 0.34289 0.71693 0.0
C954 C 0.59528 0.343 0.67602 0.0
O955 O 0.58116 0.33282 0.67568 0.0
O956 O 0.60261 0.34784 0.69099 0.0
C957 C 0.55092 0.29276 0.67408 0.0
O958 O 0.56729 0.28972 0.66732 0.0
C959 C 0.63596 0.3528 0.72706 0.0
C960 C 0.631 0.37192 0.74993 0.0
C961 C 0.64478 0.36423 0.73943 0.0
N962 N 0.61785 0.35376 0.7302 0.0
N963 N 0.61501 0.36516 0.74392 0.0
C964 C 0.64434 0.34201 0.71181 0.0
H965 H 0.63378 0.33745 0.70198 0.0
H966 H 0.651 0.32961 0.71743 0.0
H967 H 0.6549 0.35027 0.70472 0.0
C968 C 0.58378 0.2909 0.71906 0.0
N969 N 0.58389 0.30813 0.71241 0.0
N970 N 0.59679 0.31746 0.72084 0.0
C971 C 0.60525 0.30658 0.73301 0.0
C972 C 0.59751 0.2893 0.73211 0.0
C973 C 0.56999 0.27668 0.71398 0.0
H974 H 0.55603 0.28258 0.71474 0.0
H975 H 0.57247 0.27227 0.69969 0.0
H976 H 0.57089 0.26449 0.72296 0.0
O977 O 0.55368 0.33949 0.71106 0.0
O978 O 0.57553 0.35423 0.72599 0.0
H979 H 0.61333 0.32663 0.75284 0.0
H980 H 0.61971 0.30368 0.75885 0.0
C981 C 0.61824 0.31341 0.74732 0.0
H982 H 0.63187 0.31554 0.74107 0.0
H983 H 0.60212 0.36857 0.74899 0.0
O984 O 0.54873 0.30496 0.68623 0.0
C985 C 0.55869 0.35149 0.72262 0.0
Co986 Co 0.93205 0.32452 0.94746 0.0
Co987 Co 0.90768 0.35373 0.96679 0.0
C988 C 0.90914 0.35018 0.92598 0.0
O989 O 0.92003 0.3366 0.92618 0.0
O990 O 0.9035 0.35756 0.94064 0.0
C991 C 0.94668 0.29383 0.92858 0.0
O992 O 0.92942 0.29082 0.92461 0.0
C993 C 0.89473 0.39063 0.97609 0.0
C994 C 0.87389 0.38443 0.99707 0.0
C995 C 0.88154 0.39864 0.98716 0.0
N996 N 0.89478 0.37253 0.97932 0.0
N997 N 0.88237 0.36894 0.99195 0.0
C998 C 0.90614 0.39969 0.96172 0.0
H999 H 0.91238 0.38943 0.9525 0.0
H1000 H 0.91737 0.40743 0.96834 0.0
H1001 H 0.89772 0.40949 0.95375 0.0
C1002 C 0.96028 0.34288 0.97036 0.0
N1003 N 0.94328 0.342 0.96333 0.0
N1004 N 0.93291 0.35414 0.97165 0.0
C1005 C 0.94284 0.36297 0.98435 0.0
C1006 C 0.96062 0.35625 0.98387 0.0
C1007 C 0.97546 0.33016 0.96522 0.0
H1008 H 0.97689 0.32986 0.95012 0.0
H1009 H 0.98864 0.33441 0.97141 0.0
H1010 H 0.972 0.31613 0.96984 0.0
O1011 O 0.9147 0.30915 0.96193 0.0
O1012 O 0.89778 0.33031 0.97556 0.0
H1013 H 0.92127 0.36959 0.00313 0.0
H1014 H 0.94359 0.37638 0.01089 0.0
C1015 C 0.93466 0.37511 0.99871 0.0
H1016 H 0.93244 0.38892 0.99286 0.0
H1017 H 0.87936 0.35585 0.99674 0.0
O1018 O 0.95091 0.3078 0.93798 0.0
C1019 C 0.9019 0.31363 0.97286 0.0
Co1020 Co 0.92901 0.6816 0.19607 0.0
Co1021 Co 0.89678 0.66341 0.21719 0.0
C1022 C 0.90042 0.6596 0.17682 0.0
O1023 O 0.91508 0.66898 0.17633 0.0
O1024 O 0.89222 0.6563 0.19177 0.0
C1025 C 0.946 0.7081 0.17209 0.0
O1026 O 0.92936 0.71191 0.1665 0.0
C1027 C 0.85956 0.65187 0.22691 0.0
C1028 C 0.86233 0.64688 0.25659 0.0
C1029 C 0.84992 0.64668 0.24231 0.0
N1030 N 0.87698 0.65506 0.23183 0.0
N1031 N 0.87859 0.65182 0.24955 0.0
C1032 C 0.85212 0.65502 0.20814 0.0
H1033 H 0.85885 0.66709 0.20187 0.0
H1034 H 0.83709 0.65713 0.20846 0.0
H1035 H 0.85515 0.64287 0.19958 0.0
C1036 C 0.91513 0.71408 0.21696 0.0
N1037 N 0.91356 0.69675 0.2108 0.0
N1038 N 0.8993 0.68911 0.21869 0.0
C1039 C 0.89094 0.70147 0.22945 0.0
C1040 C 0.90072 0.71772 0.22885 0.0
C1041 C 0.9311 0.72625 0.21303 0.0
H1042 H 0.94397 0.71824 0.21365 0.0
H1043 H 0.92968 0.73185 0.19902 0.0
H1044 H 0.9318 0.73789 0.22273 0.0
O1045 O 0.94194 0.66393 0.21194 0.0
O1046 O 0.91898 0.65163 0.22741 0.0
H1047 H 0.88104 0.68834 0.25358 0.0
H1048 H 0.86932 0.70927 0.24833 0.0
C1049 C 0.87565 0.69691 0.2423 0.0
H1050 H 0.86495 0.68916 0.23492 0.0
H1051 H 0.89073 0.65334 0.25689 0.0
O1052 O 0.94842 0.6961 0.18439 0.0
C1053 C 0.93602 0.65309 0.22417 0.0
Co1054 Co 0.56767 0.67495 0.44607 0.0
Co1055 Co 0.59252 0.64626 0.46555 0.0
C1056 C 0.59043 0.64931 0.42462 0.0
O1057 O 0.57935 0.66272 0.4247 0.0
O1058 O 0.59638 0.64233 0.43936 0.0
C1059 C 0.55261 0.7055 0.4273 0.0
O1060 O 0.56978 0.7085 0.42295 0.0
C1061 C 0.6047 0.60917 0.47465 0.0
C1062 C 0.62631 0.61463 0.49505 0.0
C1063 C 0.61781 0.60068 0.48546 0.0
N1064 N 0.60547 0.62727 0.47776 0.0
N1065 N 0.61836 0.63044 0.49001 0.0
C1066 C 0.59259 0.60052 0.4606 0.0
H1067 H 0.58658 0.61099 0.45145 0.0
H1068 H 0.58118 0.59331 0.46747 0.0
H1069 H 0.60041 0.59033 0.4525 0.0
C1070 C 0.53963 0.65608 0.46888 0.0
N1071 N 0.55673 0.65752 0.46217 0.0
N1072 N 0.56734 0.64571 0.47067 0.0
C1073 C 0.55745 0.63659 0.4832 0.0
C1074 C 0.53949 0.64267 0.48234 0.0
C1075 C 0.52404 0.66805 0.4632 0.0
H1076 H 0.52665 0.68222 0.46795 0.0
H1077 H 0.52313 0.66832 0.44806 0.0
H1078 H 0.51088 0.66316 0.46895 0.0
O1079 O 0.5852 0.69049 0.46015 0.0
O1080 O 0.60241 0.66977 0.47415 0.0
H1081 H 0.57937 0.62964 0.50153 0.0
H1082 H 0.55699 0.62422 0.51016 0.0
C1083 C 0.56561 0.6246 0.49769 0.0
H1084 H 0.56691 0.61048 0.49234 0.0
H1085 H 0.622 0.64343 0.49465 0.0
O1086 O 0.54859 0.69157 0.43685 0.0
C1087 C 0.59811 0.68636 0.47111 0.0
Co1088 Co 0.80084 0.57013 0.68086 0.0
Co1089 Co 0.78069 0.60088 0.65919 0.0
C1090 C 0.82152 0.59792 0.65961 0.0
O1091 O 0.82168 0.58369 0.66963 0.0
O1092 O 0.80666 0.60541 0.65467 0.0
C1093 C 0.82289 0.55301 0.70943 0.0
O1094 O 0.82938 0.56934 0.71311 0.0
C1095 C 0.77066 0.63835 0.64824 0.0
C1096 C 0.74854 0.63273 0.62843 0.0
C1097 C 0.75889 0.64671 0.63591 0.0
N1098 N 0.76742 0.62024 0.64794 0.0
N1099 N 0.75409 0.61703 0.63618 0.0
C1100 C 0.7856 0.64714 0.65911 0.0
H1101 H 0.79488 0.63672 0.66499 0.0
H1102 H 0.77952 0.65498 0.67058 0.0
H1103 H 0.79339 0.65682 0.6504 0.0
C1104 C 0.77684 0.58511 0.71056 0.0
N1105 N 0.78446 0.58607 0.69378 0.0
N1106 N 0.77629 0.59918 0.68451 0.0
C1107 C 0.7634 0.60702 0.69501 0.0
C1108 C 0.76336 0.59847 0.71196 0.0
C1109 C 0.78116 0.57056 0.72427 0.0
H1110 H 0.78022 0.55691 0.7177 0.0
H1111 H 0.79539 0.57242 0.72914 0.0
H1112 H 0.77188 0.57115 0.73625 0.0
O1113 O 0.78675 0.5562 0.66232 0.0
O1114 O 0.77206 0.57816 0.6475 0.0
H1115 H 0.7436 0.61457 0.67478 0.0
H1116 H 0.73786 0.6222 0.69746 0.0
C1117 C 0.74928 0.61999 0.68775 0.0
H1118 H 0.75583 0.63333 0.68483 0.0
H1119 H 0.74913 0.60403 0.63304 0.0
O1120 O 0.81094 0.55106 0.697 0.0
C1121 C 0.77544 0.56131 0.65013 0.0
Co1122 Co 0.67732 0.55179 0.93302 0.0
Co1123 Co 0.64955 0.53095 0.9081 0.0
C1124 C 0.65112 0.57193 0.90945 0.0
O1125 O 0.66444 0.57248 0.92064 0.0
O1126 O 0.6446 0.55688 0.90378 0.0
C1127 C 0.69305 0.57424 0.96259 0.0
O1128 O 0.67687 0.58158 0.96523 0.0
C1129 C 0.6127 0.52008 0.89645 0.0
C1130 C 0.61887 0.49923 0.87547 0.0
C1131 C 0.60459 0.50843 0.88386 0.0
N1132 N 0.63093 0.51778 0.89556 0.0
N1133 N 0.63451 0.50527 0.88302 0.0
C1134 C 0.60349 0.53413 0.90817 0.0
H1135 H 0.6136 0.5438 0.91397 0.0
H1136 H 0.59642 0.52731 0.9197 0.0
H1137 H 0.59308 0.54165 0.90008 0.0
C1138 C 0.65921 0.52851 0.96141 0.0
N1139 N 0.66055 0.53525 0.94429 0.0
N1140 N 0.64925 0.52618 0.93356 0.0
C1141 C 0.64046 0.51341 0.94346 0.0
C1142 C 0.64623 0.51465 0.96148 0.0
C1143 C 0.67098 0.53443 0.97705 0.0
H1144 H 0.68559 0.53325 0.97313 0.0
H1145 H 0.66814 0.54898 0.98015 0.0
H1146 H 0.66835 0.52622 0.98952 0.0
O1147 O 0.69285 0.53754 0.91597 0.0
O1148 O 0.67333 0.5233 0.89764 0.0
H1149 H 0.63471 0.49436 0.92183 0.0
H1150 H 0.62878 0.48616 0.94424 0.0
C1151 C 0.62912 0.49841 0.93531 0.0
H1152 H 0.61492 0.50333 0.93345 0.0
H1153 H 0.64766 0.50107 0.8794 0.0
O1154 O 0.69515 0.56189 0.95057 0.0
C1155 C 0.68961 0.5268 0.90268 0.0
Co1156 Co 0.69887 0.42362 0.17941 0.0
Co1157 Co 0.71729 0.39346 0.15535 0.0
C1158 C 0.6765 0.39786 0.15766 0.0
O1159 O 0.67712 0.41156 0.16837 0.0
O1160 O 0.69094 0.39017 0.15178 0.0
C1161 C 0.67747 0.44152 0.20831 0.0
O1162 O 0.66739 0.42669 0.20932 0.0
C1163 C 0.72562 0.35626 0.14195 0.0
C1164 C 0.74727 0.36231 0.12176 0.0
C1165 C 0.73669 0.34824 0.12873 0.0
N1166 N 0.72946 0.37424 0.14259 0.0
N1167 N 0.74252 0.3777 0.1306 0.0
C1168 C 0.71079 0.34736 0.15287 0.0
H1169 H 0.70184 0.35774 0.15931 0.0
H1170 H 0.717 0.33907 0.16393 0.0
H1171 H 0.7026 0.33811 0.14404 0.0
C1172 C 0.72235 0.40573 0.20758 0.0
N1173 N 0.71482 0.40628 0.19077 0.0
N1174 N 0.7226 0.39367 0.18053 0.0
C1175 C 0.73531 0.38476 0.19038 0.0
C1176 C 0.73553 0.39203 0.20793 0.0
C1177 C 0.71794 0.41897 0.22254 0.0
H1178 H 0.7031 0.41834 0.22553 0.0
H1179 H 0.72562 0.41587 0.23525 0.0
H1180 H 0.72118 0.43306 0.21792 0.0
O1181 O 0.71286 0.43796 0.16109 0.0
O1182 O 0.72629 0.41644 0.14454 0.0
H1183 H 0.76071 0.36927 0.19136 0.0
H1184 H 0.74209 0.35864 0.17921 0.0
C1185 C 0.74893 0.37183 0.18218 0.0
H1186 H 0.75412 0.37749 0.16911 0.0
H1187 H 0.74784 0.39069 0.12806 0.0
O1188 O 0.69077 0.44218 0.19717 0.0
C1189 C 0.72356 0.4332 0.14822 0.0
Co1190 Co 0.82017 0.44556 0.42655 0.0
Co1191 Co 0.8512 0.46516 0.40463 0.0
C1192 C 0.84805 0.4243 0.40591 0.0
O1193 O 0.83369 0.4244 0.41577 0.0
O1194 O 0.85564 0.43904 0.40076 0.0
C1195 C 0.80258 0.42391 0.45523 0.0
O1196 O 0.81869 0.41666 0.45852 0.0
C1197 C 0.88888 0.47489 0.39384 0.0
C1198 C 0.8835 0.4967 0.37363 0.0
C1199 C 0.89742 0.48649 0.38144 0.0
N1200 N 0.87077 0.47811 0.39325 0.0
N1201 N 0.86769 0.49125 0.38124 0.0
C1202 C 0.89753 0.46016 0.40509 0.0
H1203 H 0.88704 0.45081 0.41073 0.0
H1204 H 0.90492 0.46642 0.41675 0.0
H1205 H 0.90757 0.4524 0.39676 0.0
C1206 C 0.83572 0.46935 0.45615 0.0
N1207 N 0.8363 0.46195 0.43926 0.0
N1208 N 0.84934 0.47007 0.42986 0.0
C1209 C 0.85743 0.48282 0.44035 0.0
C1210 C 0.8492 0.48271 0.45746 0.0
C1211 C 0.8217 0.46461 0.47028 0.0
H1212 H 0.80781 0.46605 0.46434 0.0
H1213 H 0.82356 0.45016 0.47441 0.0
H1214 H 0.82292 0.47331 0.48263 0.0
O1215 O 0.80642 0.45956 0.40766 0.0
O1216 O 0.82859 0.47366 0.39261 0.0
H1217 H 0.86554 0.50199 0.41973 0.0
H1218 H 0.87219 0.50857 0.44247 0.0
C1219 C 0.87051 0.49681 0.43307 0.0
H1220 H 0.88403 0.49031 0.43092 0.0
H1221 H 0.85473 0.49618 0.37788 0.0
O1222 O 0.80092 0.43604 0.44293 0.0
C1223 C 0.81169 0.47055 0.39524 0.0
Co1224 Co 0.80193 0.42669 0.81726 0.0
Co1225 Co 0.78283 0.39884 0.84338 0.0
C1226 C 0.82372 0.40132 0.84 0.0
O1227 O 0.82348 0.41448 0.82862 0.0
O1228 O 0.80908 0.39464 0.8465 0.0
C1229 C 0.8231 0.44282 0.7871 0.0
O1230 O 0.8311 0.42693 0.78465 0.0
C1231 C 0.77364 0.36165 0.85521 0.0
C1232 C 0.75375 0.36693 0.87733 0.0
C1233 C 0.76285 0.35302 0.86823 0.0
N1234 N 0.77092 0.37979 0.85655 0.0
N1235 N 0.75902 0.38285 0.86979 0.0
C1236 C 0.78725 0.35304 0.84256 0.0
H1237 H 0.79677 0.3634 0.83699 0.0
H1238 H 0.78004 0.34667 0.83086 0.0
H1239 H 0.795 0.34217 0.8498 0.0
C1240 C 0.77807 0.40763 0.79007 0.0
N1241 N 0.78535 0.40944 0.80692 0.0
N1242 N 0.77688 0.39819 0.81817 0.0
C1243 C 0.76389 0.38903 0.80891 0.0
C1244 C 0.7644 0.39447 0.79075 0.0
C1245 C 0.78342 0.41905 0.77397 0.0
H1246 H 0.78154 0.43372 0.77733 0.0
H1247 H 0.7981 0.4168 0.77095 0.0
H1248 H 0.77532 0.41556 0.76163 0.0
O1249 O 0.78813 0.44198 0.83486 0.0
O1250 O 0.77497 0.42249 0.85401 0.0
H1251 H 0.74614 0.383 0.83157 0.0
H1252 H 0.73659 0.37754 0.80957 0.0
C1253 C 0.74935 0.37764 0.81778 0.0
H1254 H 0.75425 0.36336 0.81905 0.0
H1255 H 0.75467 0.39582 0.87383 0.0
O1256 O 0.81078 0.44461 0.7992 0.0
C1257 C 0.77798 0.43875 0.84862 0.0
Co1258 Co 0.82002 0.55237 0.0689 0.0
Co1259 Co 0.85087 0.53171 0.09014 0.0
C1260 C 0.84709 0.57242 0.09173 0.0
O1261 O 0.83305 0.57281 0.08143 0.0
O1262 O 0.85478 0.55747 0.0961 0.0
C1263 C 0.80277 0.57524 0.04087 0.0
O1264 O 0.819 0.58217 0.03751 0.0
C1265 C 0.88831 0.5216 0.10144 0.0
C1266 C 0.88255 0.49831 0.11981 0.0
C1267 C 0.89654 0.50923 0.11326 0.0
N1268 N 0.87024 0.51814 0.10112 0.0
N1269 N 0.86694 0.50411 0.11202 0.0
C1270 C 0.89716 0.5373 0.09177 0.0
H1271 H 0.88675 0.54627 0.08537 0.0
H1272 H 0.90627 0.53204 0.08086 0.0
H1273 H 0.90566 0.54524 0.10152 0.0
C1274 C 0.8365 0.5307 0.03816 0.0
N1275 N 0.83662 0.53709 0.05548 0.0
N1276 N 0.84978 0.52878 0.06457 0.0
C1277 C 0.8585 0.51707 0.05341 0.0
C1278 C 0.85052 0.51799 0.03623 0.0
C1279 C 0.82227 0.53547 0.02425 0.0
H1280 H 0.80847 0.53431 0.03044 0.0
H1281 H 0.82427 0.54984 0.01988 0.0
H1282 H 0.82317 0.52659 0.01199 0.0
O1283 O 0.80608 0.53703 0.08642 0.0
O1284 O 0.82809 0.52201 0.10081 0.0
H1285 H 0.86671 0.49638 0.07248 0.0
H1286 H 0.87482 0.49243 0.04959 0.0
C1287 C 0.87201 0.5031 0.05997 0.0
H1288 H 0.88502 0.51004 0.06345 0.0
H1289 H 0.85395 0.4988 0.11456 0.0
O1290 O 0.80098 0.56288 0.05292 0.0
C1291 C 0.81123 0.52517 0.09805 0.0
Co1292 Co 0.69722 0.57317 0.31487 0.0
Co1293 Co 0.71582 0.60082 0.34149 0.0
C1294 C 0.67498 0.59716 0.33858 0.0
O1295 O 0.67542 0.58429 0.32687 0.0
O1296 O 0.68951 0.6041 0.34506 0.0
C1297 C 0.67905 0.54318 0.29854 0.0
O1298 O 0.67412 0.54005 0.31554 0.0
C1299 C 0.72469 0.63765 0.35456 0.0
C1300 C 0.74505 0.63181 0.37611 0.0
C1301 C 0.73574 0.64593 0.36757 0.0
N1302 N 0.72747 0.61949 0.35533 0.0
N1303 N 0.73963 0.61609 0.36826 0.0
C1304 C 0.7108 0.64661 0.34247 0.0
H1305 H 0.70129 0.63635 0.33666 0.0
H1306 H 0.71774 0.65356 0.33094 0.0
H1307 H 0.70307 0.65709 0.35027 0.0
C1308 C 0.7193 0.59465 0.28798 0.0
N1309 N 0.71293 0.59157 0.30502 0.0
N1310 N 0.72129 0.60268 0.31645 0.0
C1311 C 0.73352 0.61281 0.30722 0.0
C1312 C 0.7324 0.60838 0.28881 0.0
C1313 C 0.71347 0.5841 0.27147 0.0
H1314 H 0.69833 0.58312 0.27115 0.0
H1315 H 0.71839 0.59064 0.25869 0.0
H1316 H 0.71903 0.57001 0.27235 0.0
O1317 O 0.71154 0.55712 0.33183 0.0
O1318 O 0.72477 0.57712 0.35041 0.0
H1319 H 0.76081 0.62423 0.30781 0.0
H1320 H 0.74329 0.63841 0.31753 0.0
C1321 C 0.74812 0.62412 0.31613 0.0
H1322 H 0.75148 0.61863 0.32983 0.0
H1323 H 0.74415 0.60303 0.37179 0.0
O1324 O 0.68873 0.55714 0.29498 0.0
C1325 C 0.72219 0.56075 0.34514 0.0
Co1326 Co 0.67862 0.44555 0.56647 0.0
Co1327 Co 0.64742 0.46615 0.58717 0.0
C1328 C 0.6505 0.4255 0.58831 0.0
O1329 O 0.66488 0.42508 0.57848 0.0
O1330 O 0.64285 0.44047 0.59264 0.0
C1331 C 0.69528 0.42364 0.53753 0.0
O1332 O 0.67868 0.41814 0.53342 0.0
C1333 C 0.61004 0.47659 0.59795 0.0
C1334 C 0.61564 0.5002 0.61598 0.0
C1335 C 0.60172 0.48921 0.60941 0.0
N1336 N 0.62811 0.47999 0.59781 0.0
N1337 N 0.63133 0.49418 0.60851 0.0
C1338 C 0.60125 0.46071 0.58853 0.0
H1339 H 0.61153 0.45258 0.5809 0.0
H1340 H 0.59078 0.46565 0.57876 0.0
H1341 H 0.59426 0.45195 0.59877 0.0
C1342 C 0.66331 0.46823 0.53573 0.0
N1343 N 0.66264 0.46138 0.55287 0.0
N1344 N 0.64911 0.46937 0.5617 0.0
C1345 C 0.64053 0.48111 0.55046 0.0
C1346 C 0.64911 0.48067 0.53358 0.0
C1347 C 0.67828 0.46439 0.52232 0.0
H1348 H 0.69165 0.46397 0.52946 0.0
H1349 H 0.67585 0.45087 0.51593 0.0
H1350 H 0.67871 0.47482 0.51131 0.0
O1351 O 0.69245 0.46044 0.5845 0.0
O1352 O 0.67009 0.47528 0.59855 0.0
H1353 H 0.63133 0.50197 0.56885 0.0
H1354 H 0.62284 0.50461 0.54586 0.0
C1355 C 0.62632 0.49452 0.55663 0.0
H1356 H 0.61374 0.48702 0.56048 0.0
H1357 H 0.64431 0.49948 0.61111 0.0
O1358 O 0.69765 0.43487 0.55055 0.0
C1359 C 0.68703 0.47211 0.59621 0.0
Co1360 Co 0.67955 0.80138 0.57041 0.0
Co1361 Co 0.65608 0.78214 0.60047 0.0
C1362 C 0.65774 0.823 0.59702 0.0
O1363 O 0.6682 0.82282 0.58308 0.0
O1364 O 0.65224 0.80832 0.60448 0.0
C1365 C 0.70884 0.82293 0.5534 0.0
O1366 O 0.71015 0.83209 0.5688 0.0
C1367 C 0.64458 0.77227 0.63783 0.0
C1368 C 0.62391 0.75101 0.63202 0.0
C1369 C 0.63204 0.76068 0.64612 0.0
N1370 N 0.64384 0.76951 0.61965 0.0
N1371 N 0.6315 0.75676 0.6163 0.0
C1372 C 0.65608 0.78662 0.64679 0.0
H1373 H 0.66188 0.79609 0.63649 0.0
H1374 H 0.66757 0.78005 0.65417 0.0
H1375 H 0.64781 0.79433 0.65694 0.0
C1376 C 0.7085 0.77839 0.58818 0.0
N1377 N 0.6914 0.78531 0.58743 0.0
N1378 N 0.68132 0.77711 0.5999 0.0
C1379 C 0.69154 0.76469 0.60883 0.0
C1380 C 0.70918 0.76525 0.60189 0.0
C1381 C 0.72355 0.78352 0.57531 0.0
H1382 H 0.71901 0.78123 0.56102 0.0
H1383 H 0.72664 0.79826 0.57696 0.0
H1384 H 0.73621 0.7756 0.57798 0.0
O1385 O 0.66129 0.78719 0.55589 0.0
O1386 O 0.6451 0.77347 0.57748 0.0
H1387 H 0.67023 0.74603 0.61656 0.0
H1388 H 0.6928 0.73836 0.62252 0.0
C1389 C 0.68382 0.75053 0.62148 0.0
H1390 H 0.68224 0.75654 0.6353 0.0
H1391 H 0.62804 0.75217 0.60325 0.0
O1392 O 0.69723 0.8101 0.55197 0.0
C1393 C 0.64857 0.77633 0.5607 0.0
Co1394 Co 0.17655 0.69958 0.43005 0.0
Co1395 Co 0.15395 0.71857 0.3992 0.0
C1396 C 0.15542 0.67779 0.40298 0.0
O1397 O 0.16566 0.67812 0.41706 0.0
O1398 O 0.15002 0.6924 0.39533 0.0
C1399 C 0.2058 0.6784 0.44702 0.0
O1400 O 0.20895 0.67144 0.43076 0.0
C1401 C 0.14259 0.72708 0.36154 0.0
C1402 C 0.12203 0.74868 0.36645 0.0
C1403 C 0.12985 0.73812 0.3528 0.0
N1404 N 0.1422 0.73093 0.37953 0.0
N1405 N 0.12999 0.74395 0.38232 0.0
C1406 C 0.15393 0.71218 0.35327 0.0
H1407 H 0.16033 0.70363 0.36401 0.0
H1408 H 0.16505 0.71829 0.34498 0.0
H1409 H 0.1454 0.70361 0.34409 0.0
C1410 C 0.20578 0.72325 0.41346 0.0
N1411 N 0.18889 0.71581 0.41346 0.0
N1412 N 0.17919 0.72356 0.40039 0.0
C1413 C 0.18951 0.736 0.39166 0.0
C1414 C 0.20679 0.73613 0.39949 0.0
C1415 C 0.22022 0.719 0.42731 0.0
H1416 H 0.21437 0.72004 0.44127 0.0
H1417 H 0.22497 0.70475 0.42527 0.0
H1418 H 0.23216 0.72825 0.42605 0.0
O1419 O 0.15779 0.71364 0.44392 0.0
O1420 O 0.14233 0.72748 0.42184 0.0
H1421 H 0.16879 0.7549 0.38309 0.0
H1422 H 0.19146 0.76114 0.37586 0.0
C1423 C 0.18205 0.74948 0.37814 0.0
H1424 H 0.1797 0.74247 0.36492 0.0
H1425 H 0.12669 0.74924 0.39516 0.0
O1426 O 0.19331 0.69029 0.44905 0.0
C1427 C 0.14525 0.72454 0.43873 0.0
Co1428 Co 0.55212 0.93104 0.67748 0.0
Co1429 Co 0.53211 0.90909 0.64687 0.0
C1430 C 0.57293 0.90938 0.65 0.0
O1431 O 0.57307 0.91954 0.66415 0.0
O1432 O 0.55807 0.90444 0.64254 0.0
C1433 C 0.57404 0.9599 0.6943 0.0
O1434 O 0.5806 0.96333 0.67793 0.0
C1435 C 0.52238 0.89824 0.60935 0.0
C1436 C 0.50038 0.87823 0.61467 0.0
C1437 C 0.51072 0.88594 0.60081 0.0
N1438 N 0.51906 0.89774 0.62744 0.0
N1439 N 0.50581 0.88585 0.63049 0.0
C1440 C 0.5373 0.90929 0.60075 0.0
H1441 H 0.54648 0.91513 0.61129 0.0
H1442 H 0.53123 0.92079 0.59297 0.0
H1443 H 0.54522 0.9007 0.59105 0.0
C1444 C 0.52862 0.96083 0.66166 0.0
N1445 N 0.53594 0.94388 0.66122 0.0
N1446 N 0.52777 0.93444 0.64823 0.0
C1447 C 0.51514 0.94496 0.64 0.0
C1448 C 0.51535 0.96213 0.64808 0.0
C1449 C 0.53316 0.97493 0.67576 0.0
H1450 H 0.54739 0.97965 0.6736 0.0
H1451 H 0.52395 0.98696 0.67491 0.0
H1452 H 0.5323 0.96878 0.6896 0.0
O1453 O 0.53766 0.91278 0.69154 0.0
O1454 O 0.52319 0.89772 0.6696 0.0
H1455 H 0.48943 0.94723 0.62514 0.0
H1456 H 0.50751 0.93517 0.61355 0.0
C1457 C 0.50104 0.93768 0.62703 0.0
H1458 H 0.49562 0.92452 0.63223 0.0
H1459 H 0.50081 0.88256 0.64344 0.0
O1460 O 0.56214 0.94744 0.6964 0.0
C1461 C 0.52633 0.90059 0.68646 0.0
Co1462 Co 0.31641 0.30123 0.92865 0.0
Co1463 Co 0.3388 0.2824 0.89754 0.0
C1464 C 0.33756 0.32311 0.9017 0.0
O1465 O 0.32739 0.32263 0.91582 0.0
O1466 O 0.34289 0.30859 0.89384 0.0
C1467 C 0.28751 0.32276 0.94551 0.0
O1468 O 0.28445 0.32962 0.92919 0.0
C1469 C 0.34988 0.27363 0.85976 0.0
C1470 C 0.36944 0.25111 0.86462 0.0
C1471 C 0.36197 0.26188 0.85093 0.0
N1472 N 0.35031 0.2699 0.87778 0.0
N1473 N 0.36195 0.25638 0.88055 0.0
C1474 C 0.33889 0.2888 0.85153 0.0
H1475 H 0.33383 0.29825 0.86222 0.0
H1476 H 0.32679 0.283 0.84449 0.0
H1477 H 0.34718 0.29638 0.84133 0.0
C1478 C 0.28717 0.27754 0.91239 0.0
N1479 N 0.30395 0.2852 0.91205 0.0
N1480 N 0.31354 0.27749 0.89889 0.0
C1481 C 0.30327 0.2648 0.89045 0.0
C1482 C 0.28612 0.2645 0.89858 0.0
C1483 C 0.273 0.28158 0.92659 0.0
H1484 H 0.27912 0.28025 0.94041 0.0
H1485 H 0.26827 0.29587 0.92493 0.0
H1486 H 0.261 0.27239 0.92538 0.0
O1487 O 0.33506 0.28695 0.94236 0.0
O1488 O 0.35047 0.27332 0.92009 0.0
H1489 H 0.32401 0.2457 0.88242 0.0
H1490 H 0.30145 0.23943 0.87495 0.0
C1491 C 0.31084 0.2511 0.8772 0.0
H1492 H 0.31341 0.25791 0.86392 0.0
H1493 H 0.36508 0.25098 0.89338 0.0
O1494 O 0.2998 0.31068 0.94764 0.0
C1495 C 0.34756 0.27607 0.93702 0.0
Co1496 Co 0.44518 0.56555 0.67469 0.0
Co1497 Co 0.46405 0.59226 0.64724 0.0
C1498 C 0.42302 0.58874 0.65025 0.0
O1499 O 0.42329 0.57698 0.66308 0.0
O1500 O 0.43764 0.59538 0.64365 0.0
C1501 C 0.42453 0.53549 0.69238 0.0
O1502 O 0.41366 0.53446 0.67813 0.0
C1503 C 0.47285 0.60412 0.61 0.0
C1504 C 0.49359 0.62549 0.61499 0.0
C1505 C 0.48412 0.61661 0.60117 0.0
N1506 N 0.47569 0.60552 0.62812 0.0
N1507 N 0.48806 0.61835 0.63101 0.0
C1508 C 0.4589 0.59168 0.60164 0.0
H1509 H 0.4488 0.5872 0.61198 0.0
H1510 H 0.46572 0.57926 0.59628 0.0
H1511 H 0.45182 0.59862 0.59015 0.0
C1512 C 0.46868 0.53881 0.65483 0.0
N1513 N 0.46148 0.55565 0.65698 0.0
N1514 N 0.47 0.56709 0.64599 0.0
C1515 C 0.48301 0.55797 0.63669 0.0
C1516 C 0.48243 0.5397 0.64176 0.0
C1517 C 0.46331 0.52254 0.66598 0.0
H1518 H 0.46683 0.52504 0.68053 0.0
H1519 H 0.44831 0.5206 0.66508 0.0
H1520 H 0.47026 0.50993 0.66118 0.0
O1521 O 0.4591 0.58301 0.69005 0.0
O1522 O 0.47234 0.60247 0.67093 0.0
H1523 H 0.50085 0.58072 0.6313 0.0
H1524 H 0.51045 0.55881 0.62552 0.0
C1525 C 0.4977 0.56703 0.62564 0.0
H1526 H 0.49298 0.5686 0.61133 0.0
H1527 H 0.4927 0.62225 0.64393 0.0
O1528 O 0.43764 0.54686 0.69251 0.0
C1529 C 0.46933 0.59676 0.68709 0.0
Co1530 Co 0.81816 0.19547 0.06651 0.0
Co1531 Co 0.8372 0.21619 0.09866 0.0
C1532 C 0.83951 0.17568 0.09536 0.0
O1533 O 0.83013 0.17541 0.08067 0.0
O1534 O 0.84336 0.19056 0.10347 0.0
C1535 C 0.79063 0.17258 0.04909 0.0
O1536 O 0.78653 0.16677 0.06559 0.0
C1537 C 0.84972 0.2266 0.13562 0.0
C1538 C 0.8552 0.25606 0.13175 0.0
C1539 C 0.85546 0.24223 0.14465 0.0
N1540 N 0.84616 0.23103 0.11812 0.0
N1541 N 0.84969 0.24861 0.11587 0.0
C1542 C 0.84637 0.20813 0.14369 0.0
H1543 H 0.83418 0.2018 0.13724 0.0
H1544 H 0.84437 0.20898 0.15871 0.0
H1545 H 0.85838 0.19928 0.14085 0.0
C1546 C 0.78625 0.21705 0.08084 0.0
N1547 N 0.80357 0.21074 0.08202 0.0
N1548 N 0.81156 0.21847 0.09618 0.0
C1549 C 0.79946 0.22929 0.10484 0.0
C1550 C 0.78301 0.22884 0.09541 0.0
C1551 C 0.7736 0.21312 0.06524 0.0
H1552 H 0.76775 0.19926 0.06703 0.0
H1553 H 0.76214 0.22304 0.06469 0.0
H1554 H 0.78127 0.21341 0.05216 0.0
O1555 O 0.83635 0.21065 0.05342 0.0
O1556 O 0.84922 0.22573 0.07632 0.0
H1557 H 0.79222 0.24806 0.12676 0.0
H1558 H 0.81211 0.23419 0.13078 0.0
C1559 C 0.80439 0.24185 0.12025 0.0
H1560 H 0.81314 0.25302 0.11493 0.0
H1561 H 0.84801 0.25559 0.10354 0.0
O1562 O 0.80317 0.1844 0.04701 0.0
C1563 C 0.84763 0.2225 0.05929 0.0
Co1564 Co 0.55153 0.06723 0.82088 0.0
Co1565 Co 0.53166 0.08882 0.85198 0.0
C1566 C 0.57241 0.08892 0.84821 0.0
O1567 O 0.57243 0.07886 0.834 0.0
O1568 O 0.55764 0.09369 0.85599 0.0
C1569 C 0.57376 0.03885 0.80366 0.0
O1570 O 0.58071 0.03562 0.8199 0.0
C1571 C 0.52224 0.10016 0.88957 0.0
C1572 C 0.49955 0.11937 0.88413 0.0
C1573 C 0.51041 0.11241 0.898 0.0
N1574 N 0.51855 0.10003 0.87154 0.0
N1575 N 0.50487 0.11142 0.86844 0.0
C1576 C 0.53762 0.08977 0.89819 0.0
H1577 H 0.54672 0.0838 0.88765 0.0
H1578 H 0.53199 0.07839 0.90646 0.0
H1579 H 0.54552 0.09885 0.90744 0.0
C1580 C 0.52867 0.03714 0.83686 0.0
N1581 N 0.53573 0.05419 0.83729 0.0
N1582 N 0.52764 0.06344 0.85047 0.0
C1583 C 0.51533 0.05268 0.85886 0.0
C1584 C 0.51564 0.03557 0.85064 0.0
C1585 C 0.53329 0.02316 0.82265 0.0
H1586 H 0.53196 0.02929 0.80884 0.0
H1587 H 0.54769 0.01883 0.82449 0.0
H1588 H 0.52445 0.01089 0.8237 0.0
O1589 O 0.53684 0.08551 0.80713 0.0
O1590 O 0.52251 0.10028 0.82936 0.0
H1591 H 0.49543 0.07258 0.86702 0.0
H1592 H 0.49026 0.04981 0.8747 0.0
C1593 C 0.50147 0.05969 0.87224 0.0
H1594 H 0.50834 0.06268 0.8854 0.0
H1595 H 0.49952 0.1142 0.85551 0.0
O1596 O 0.56152 0.05102 0.80176 0.0
C1597 C 0.52552 0.09762 0.81245 0.0
Co1598 Co 0.94938 0.93046 0.32042 0.0
Co1599 Co 0.9687 0.90842 0.35145 0.0
C1600 C 0.92789 0.90934 0.34761 0.0
O1601 O 0.92812 0.91951 0.33349 0.0
O1602 O 0.94256 0.90414 0.35529 0.0
C1603 C 0.92748 0.95874 0.30272 0.0
O1604 O 0.92018 0.96199 0.31881 0.0
C1605 C 0.9772 0.89763 0.38926 0.0
C1606 C 0.99895 0.87714 0.38469 0.0
C1607 C 0.98826 0.88504 0.39819 0.0
N1608 N 0.98116 0.89708 0.3713 0.0
N1609 N 0.99428 0.88492 0.3687 0.0
C1610 C 0.96218 0.90895 0.39733 0.0
H1611 H 0.95364 0.91517 0.38648 0.0
H1612 H 0.96819 0.92019 0.40553 0.0
H1613 H 0.95362 0.90047 0.40655 0.0
C1614 C 0.97287 0.96005 0.3364 0.0
N1615 N 0.96548 0.94315 0.33678 0.0
N1616 N 0.97337 0.93371 0.34994 0.0
C1617 C 0.9859 0.9442 0.35835 0.0
C1618 C 0.98592 0.96133 0.35018 0.0
C1619 C 0.96851 0.97414 0.32223 0.0
H1620 H 0.97014 0.96812 0.3084 0.0
H1621 H 0.95405 0.97841 0.32378 0.0
H1622 H 0.97733 0.9864 0.32356 0.0
O1623 O 0.96355 0.91168 0.30682 0.0
O1624 O 0.97779 0.89663 0.32893 0.0
H1625 H 0.00508 0.9237 0.36679 0.0
H1626 H 0.01119 0.94645 0.37389 0.0
C1627 C -0.0004 0.93693 0.37175 0.0
H1628 H 0.99274 0.93454 0.38506 0.0
H1629 H -0.00037 0.8815 0.35593 0.0
O1630 O 0.93988 0.94669 0.30113 0.0
C1631 C 0.97465 0.89934 0.31204 0.0
H1632 H 0.02205 0.14612 0.28275 0.0
H1633 H 0.00127 0.11736 0.1809 0.0
H1634 H 0.06397 0.12874 0.24493 0.0
H1635 H 0.9644 0.09993 0.22364 0.0
H1636 H 0.02224 0.12876 0.20412 0.0
H1637 H 0.9987 0.13482 0.26126 0.0
C1638 C 0.02634 0.13976 0.27008 0.0
C1639 C 0.04499 0.13837 0.26563 0.0
C1640 C 0.00949 0.12256 0.20838 0.0
C1641 C 0.01851 0.12608 0.241 0.0
C1642 C 0.99741 0.11619 0.19515 0.0
C1643 C 0.98108 0.10755 0.20033 0.0
C1644 C 0.00513 0.1206 0.22694 0.0
C1645 C 0.97691 0.1064 0.21907 0.0
C1646 C 0.01304 0.13338 0.25788 0.0
C1647 C 0.04979 0.13005 0.24901 0.0
N1648 N 0.98889 0.11287 0.23177 0.0
N1649 N 0.03664 0.12448 0.2372 0.0
H1650 H 0.14242 0.71906 0.47593 0.0
H1651 H 0.10824 0.81982 0.49439 0.0
H1652 H 0.12609 0.75594 0.43279 0.0
H1653 H 0.09367 0.77678 0.5321 0.0
H1654 H 0.12039 0.79695 0.47345 0.0
H1655 H 0.12898 0.74021 0.49842 0.0
C1656 C 0.13586 0.73146 0.47117 0.0
C1657 C 0.1354 0.73574 0.45244 0.0
C1658 C 0.11457 0.79251 0.48633 0.0
C1659 C 0.12054 0.76001 0.47801 0.0
C1660 C 0.10777 0.80556 0.49839 0.0
C1661 C 0.09987 0.80021 0.51504 0.0
C1662 C 0.11381 0.77395 0.49101 0.0
C1663 C 0.09958 0.78148 0.51937 0.0
C1664 C 0.12823 0.74347 0.48399 0.0
C1665 C 0.12675 0.75201 0.44704 0.0
N1666 N 0.10654 0.76897 0.50743 0.0
N1667 N 0.1199 0.76364 0.45977 0.0
H1668 H 0.49457 0.88205 0.68059 0.0
H1669 H 0.47472 0.85157 0.7824 0.0
H1670 H 0.53149 0.89824 0.72374 0.0
H1671 H 0.43217 0.8663 0.74419 0.0
H1672 H 0.49755 0.8639 0.76098 0.0
H1673 H 0.47355 0.87013 0.7035 0.0
C1674 C 0.49841 0.88287 0.69487 0.0
C1675 C 0.51482 0.89124 0.70024 0.0
C1676 C 0.48318 0.86454 0.75747 0.0
C1677 C 0.49068 0.87761 0.72654 0.0
C1678 C 0.47016 0.85756 0.76964 0.0
C1679 C 0.45149 0.8579 0.76509 0.0
C1680 C 0.47746 0.87145 0.74051 0.0
C1681 C 0.44636 0.86579 0.74835 0.0
C1682 C 0.4863 0.87621 0.70793 0.0
C1683 C 0.51895 0.89196 0.71901 0.0
N1684 N 0.45928 0.87201 0.73659 0.0
N1685 N 0.50695 0.88519 0.73154 0.0
H1686 H 0.39785 0.22439 0.03235 0.0
H1687 H 0.36715 0.24501 0.93061 0.0
H1688 H 0.38431 0.18213 0.99339 0.0
H1689 H 0.34994 0.2808 0.97434 0.0
H1690 H 0.37986 0.22407 0.95318 0.0
H1691 H 0.38538 0.24731 0.01108 0.0
C1692 C 0.39213 0.21992 0.01944 0.0
C1693 C 0.39209 0.20131 0.01466 0.0
C1694 C 0.37339 0.23657 0.95782 0.0
C1695 C 0.37841 0.22737 0.99026 0.0
C1696 C 0.36627 0.24863 0.94494 0.0
C1697 C 0.35736 0.26468 0.95058 0.0
C1698 C 0.37191 0.24065 0.97649 0.0
C1699 C 0.3566 0.26854 0.96941 0.0
C1700 C 0.38506 0.23298 0.00736 0.0
C1701 C 0.38455 0.19628 0.99773 0.0
N1702 N 0.36381 0.25659 0.98175 0.0
N1703 N 0.37823 0.20925 0.98608 0.0
H1704 H 0.06898 0.86169 0.25481 0.0
H1705 H 0.96833 0.89571 0.27511 0.0
H1706 H 0.02496 0.84717 0.21823 0.0
H1707 H 0.00663 0.88102 0.31759 0.0
H1708 H 0.98915 0.88228 0.25235 0.0
H1709 H 0.04672 0.87434 0.2761 0.0
C1710 C 0.05465 0.86136 0.25111 0.0
C1711 C 0.04883 0.8533 0.23469 0.0
C1712 C 0.99281 0.88189 0.26669 0.0
C1713 C 0.02326 0.86777 0.25913 0.0
C1714 C 0.98099 0.88952 0.27967 0.0
C1715 C 0.98575 0.88949 0.29829 0.0
C1716 C 0.00964 0.87465 0.27239 0.0
C1717 C 0.00233 0.8813 0.30343 0.0
C1718 C 0.04194 0.86844 0.26338 0.0
C1719 C 0.03002 0.8532 0.23076 0.0
N1720 N 0.01377 0.87443 0.29053 0.0
N1721 N 0.01785 0.86039 0.2429 0.0
H1722 H 0.3525 0.71739 0.52383 0.0
H1723 H 0.38239 0.81932 0.50373 0.0
H1724 H 0.36725 0.75562 0.56635 0.0
H1725 H 0.39895 0.77615 0.46697 0.0
H1726 H 0.37064 0.79638 0.52485 0.0
H1727 H 0.36466 0.73887 0.50096 0.0
C1728 C 0.35845 0.73017 0.52837 0.0
C1729 C 0.35888 0.7347 0.54704 0.0
C1730 C 0.37677 0.79195 0.51211 0.0
C1731 C 0.37221 0.75935 0.52103 0.0
C1732 C 0.38333 0.80503 0.49995 0.0
C1733 C 0.39174 0.79965 0.48355 0.0
C1734 C 0.37831 0.77334 0.50778 0.0
C1735 C 0.39264 0.78088 0.4795 0.0
C1736 C 0.36534 0.74238 0.51533 0.0
C1737 C 0.3667 0.75147 0.55215 0.0
N1738 N 0.38595 0.76834 0.49154 0.0
N1739 N 0.37282 0.76327 0.53921 0.0
H1740 H 0.47436 0.14879 0.71736 0.0
H1741 H 0.49372 0.11602 0.81866 0.0
H1742 H 0.43167 0.13342 0.75515 0.0
H1743 H 0.5308 0.1008 0.77526 0.0
H1744 H 0.47286 0.12864 0.79597 0.0
H1745 H 0.49712 0.13616 0.73871 0.0
C1746 C 0.46976 0.14264 0.73002 0.0
C1747 C 0.45107 0.14215 0.73447 0.0
C1748 C 0.48561 0.12262 0.79143 0.0
C1749 C 0.47694 0.12825 0.75895 0.0
C1750 C 0.49763 0.11555 0.80438 0.0
C1751 C 0.51403 0.10725 0.79885 0.0
C1752 C 0.49009 0.1217 0.77282 0.0
C1753 C 0.51825 0.10699 0.78009 0.0
C1754 C 0.48274 0.13547 0.74214 0.0
C1755 C 0.44588 0.13404 0.75108 0.0
N1756 N 0.50634 0.11416 0.76769 0.0
N1757 N 0.45875 0.12763 0.76279 0.0
H1758 H 0.0991 0.22344 0.96829 0.0
H1759 H 0.13349 0.24163 0.06965 0.0
H1760 H 0.11517 0.1804 0.00539 0.0
H1761 H 0.14535 0.28021 0.02655 0.0
H1762 H 0.1208 0.22074 0.04696 0.0
H1763 H 0.11127 0.24605 0.99003 0.0
C1764 C 0.10531 0.21874 0.98088 0.0
C1765 C 0.10615 0.19999 0.985 0.0
C1766 C 0.12609 0.23383 0.0425 0.0
C1767 C 0.11954 0.22569 0.00996 0.0
C1768 C 0.13319 0.24585 0.05545 0.0
C1769 C 0.14058 0.26269 0.04999 0.0
C1770 C 0.12608 0.23875 0.02396 0.0
C1771 C 0.13988 0.26732 0.03134 0.0
C1772 C 0.1122 0.23163 0.99325 0.0
C1773 C 0.1143 0.19467 0.00156 0.0
N1774 N 0.13273 0.25541 0.01895 0.0
N1775 N 0.12047 0.20745 0.01349 0.0
H1776 H 0.26373 0.05664 0.11188 0.0
H1777 H 0.1924 0.98035 0.13186 0.0
H1778 H 0.26655 0.02655 0.16257 0.0
H1779 H 0.21777 0.98262 0.07865 0.0
H1780 H 0.2166 0.00032 0.14381 0.0
H1781 H 0.24393 0.03257 0.09923 0.0
C1782 C 0.26035 0.04489 0.12025 0.0
C1783 C 0.26681 0.04353 0.13825 0.0
C1784 C 0.21694 0.99622 0.12958 0.0
C1785 C 0.24392 0.01644 0.12413 0.0
C1786 C 0.20317 0.9849 0.12277 0.0
C1787 C 0.20318 0.97979 0.1043 0.0
C1788 C 0.2304 0.00294 0.11767 0.0
C1789 C 0.21739 0.98613 0.09303 0.0
C1790 C 0.24913 0.03121 0.11303 0.0
C1791 C 0.26198 0.02806 0.14857 0.0
N1792 N 0.23028 0.99767 0.09982 0.0
N1793 N 0.25054 0.01527 0.14147 0.0
H1794 H 0.19496 0.0176 0.36326 0.0
H1795 H 0.26703 0.94194 0.38239 0.0
H1796 H 0.22229 0.01637 0.41554 0.0
H1797 H 0.26841 0.97081 0.33095 0.0
H1798 H 0.24772 0.96637 0.39507 0.0
H1799 H 0.21896 0.99766 0.35074 0.0
C1800 C 0.20612 0.01331 0.37201 0.0
C1801 C 0.20673 0.01867 0.39041 0.0
C1802 C 0.2525 0.9674 0.38109 0.0
C1803 C 0.2337 0.99558 0.37641 0.0
C1804 C 0.26344 0.95351 0.37387 0.0
C1805 C 0.26935 0.95443 0.35565 0.0
C1806 C 0.24699 0.98192 0.36982 0.0
C1807 C 0.26426 0.96967 0.34512 0.0
C1808 C 0.21977 0.00201 0.36488 0.0
C1809 C 0.22143 0.01267 0.40123 0.0
N1810 N 0.25307 0.98267 0.35225 0.0
N1811 N 0.23417 0.00115 0.39416 0.0
H1812 H 0.27844 0.01594 0.58219 0.0
H1813 H 0.23296 0.96972 0.66859 0.0
H1814 H 0.30659 0.0149 0.63404 0.0
H1815 H 0.23377 0.94191 0.61655 0.0
H1816 H 0.25333 0.99318 0.65598 0.0
H1817 H 0.25514 0.9954 0.59483 0.0
C1818 C 0.27952 0.01167 0.59633 0.0
C1819 C 0.29444 0.0171 0.60713 0.0
C1820 C 0.24884 0.98202 0.64733 0.0
C1821 C 0.26781 0.99394 0.62157 0.0
C1822 C 0.23715 0.96874 0.65442 0.0
C1823 C 0.2317 0.95388 0.64356 0.0
C1824 C 0.25467 0.98069 0.62914 0.0
C1825 C 0.23771 0.95313 0.62536 0.0
C1826 C 0.26633 -0.00011 0.60343 0.0
C1827 C 0.29532 0.01098 0.62528 0.0
N1828 N 0.24883 0.96645 0.61865 0.0
N1829 N 0.28209 -0.00023 0.63201 0.0
H1830 H 0.23413 0.05557 0.88433 0.0
H1831 H 0.30733 0.98073 0.86502 0.0
H1832 H 0.23308 0.0267 0.83288 0.0
H1833 H 0.27978 0.98147 0.91719 0.0
H1834 H 0.28331 0.0007 0.85256 0.0
H1835 H 0.25409 0.03158 0.89686 0.0
C1836 C 0.23795 0.0441 0.87576 0.0
C1837 C 0.23191 0.04303 0.8576 0.0
C1838 C 0.28248 0.99626 0.86667 0.0
C1839 C 0.25501 0.01605 0.87159 0.0
C1840 C 0.29613 0.98494 0.87376 0.0
C1841 C 0.29545 0.9794 0.89211 0.0
C1842 C 0.26846 0.00253 0.87818 0.0
C1843 C 0.2807 0.9853 0.90292 0.0
C1844 C 0.24926 0.03046 0.8829 0.0
C1845 C 0.23732 0.02794 0.84701 0.0
N1846 N 0.26794 0.99684 0.89588 0.0
N1847 N 0.24884 0.01518 0.85406 0.0
H1848 H 0.60109 0.27362 0.0312 0.0
H1849 H 0.63173 0.25533 0.92885 0.0
H1850 H 0.61405 0.31678 0.99305 0.0
H1851 H 0.64717 0.21783 0.97178 0.0
H1852 H 0.6195 0.27612 0.95186 0.0
H1853 H 0.61347 0.25124 0.00934 0.0
C1854 C 0.60667 0.27841 0.01834 0.0
C1855 C 0.60655 0.29711 0.01396 0.0
C1856 C 0.62549 0.26329 0.95622 0.0
C1857 C 0.62017 0.27165 0.98889 0.0
C1858 C 0.63233 0.25132 0.9431 0.0
C1859 C 0.64056 0.23481 0.94839 0.0
C1860 C 0.62659 0.25866 0.9748 0.0
C1861 C 0.64102 0.23046 0.96711 0.0
C1862 C 0.61369 0.26565 0.00592 0.0
C1863 C 0.61393 0.30254 0.99709 0.0
N1864 N 0.63409 0.24232 0.97969 0.0
N1865 N 0.62022 0.28986 0.9851 0.0
H1866 H 0.01775 0.36608 0.19205 0.0
H1867 H 0.94563 0.38399 0.26791 0.0
H1868 H 0.019 0.41707 0.22172 0.0
H1869 H 0.97263 0.33158 0.26548 0.0
H1870 H 0.96979 0.39685 0.24845 0.0
H1871 H 0.99848 0.35298 0.21627 0.0
C1872 C 0.01413 0.37442 0.20375 0.0
C1873 C 0.01999 0.39264 0.20495 0.0
C1874 C 0.97051 0.38261 0.25244 0.0
C1875 C 0.99769 0.37798 0.23223 0.0
C1876 C 0.95677 0.37528 0.26348 0.0
C1877 C 0.95722 0.35674 0.26833 0.0
C1878 C 0.98439 0.37115 0.24576 0.0
C1879 C 0.97189 0.34598 0.26216 0.0
C1880 C 0.00322 0.36696 0.21753 0.0
C1881 C 0.01488 0.40292 0.22035 0.0
N1882 N 0.98473 0.35326 0.25088 0.0
N1883 N 0.00372 0.39555 0.23325 0.0
H1884 H 0.89526 0.72404 0.5312 0.0
H1885 H 0.86654 0.74445 0.42933 0.0
H1886 H 0.87914 0.68172 0.49331 0.0
H1887 H 0.84835 0.78104 0.47198 0.0
H1888 H 0.87769 0.72337 0.45258 0.0
H1889 H 0.88326 0.7471 0.50976 0.0
C1890 C 0.88905 0.71959 0.51852 0.0
C1891 C 0.88821 0.70091 0.51405 0.0
C1892 C 0.87134 0.73607 0.45684 0.0
C1893 C 0.87505 0.7271 0.48947 0.0
C1894 C 0.8651 0.7482 0.44358 0.0
C1895 C 0.85643 0.76455 0.4487 0.0
C1896 C 0.86923 0.74037 0.47539 0.0
C1897 C 0.85489 0.76855 0.46745 0.0
C1898 C 0.88224 0.73272 0.50635 0.0
C1899 C 0.88004 0.69591 0.49741 0.0
N1900 N 0.8613 0.75654 0.48019 0.0
N1901 N 0.87404 0.70893 0.48564 0.0
H1902 H 0.03042 0.60098 0.27501 0.0
H1903 H 0.92947 0.63728 0.25734 0.0
H1904 H 0.99322 0.61611 0.31832 0.0
H1905 H 0.9727 0.64721 0.21837 0.0
H1906 H 0.95189 0.62428 0.27836 0.0
H1907 H 0.00881 0.61374 0.25265 0.0
C1908 C 0.01782 0.60711 0.27983 0.0
C1909 C 0.01365 0.6075 0.29858 0.0
C1910 C 0.95644 0.62925 0.26517 0.0
C1911 C 0.98883 0.62163 0.27313 0.0
C1912 C 0.94364 0.63653 0.25309 0.0
C1913 C 0.94922 0.64341 0.23607 0.0
C1914 C 0.97495 0.62858 0.26015 0.0
C1915 C 0.96782 0.64214 0.23139 0.0
C1916 C 0.00553 0.61434 0.26707 0.0
C1917 C 0.9971 0.61557 0.30404 0.0
N1918 N 0.98005 0.63483 0.24336 0.0
N1919 N 0.98523 0.62213 0.29138 0.0
H1920 H 0.50098 0.38031 0.81925 0.0
H1921 H 0.52167 0.35522 0.71645 0.0
H1922 H 0.4656 0.40147 0.77694 0.0
H1923 H 0.56404 0.36804 0.75553 0.0
H1924 H 0.49878 0.36708 0.73812 0.0
H1925 H 0.5219 0.36927 0.7958 0.0
C1926 C 0.49744 0.38241 0.80502 0.0
C1927 C 0.48151 0.39191 0.80007 0.0
C1928 C 0.51313 0.36742 0.74175 0.0
C1929 C 0.50552 0.37926 0.77316 0.0
C1930 C 0.52618 0.36069 0.72945 0.0
C1931 C 0.54481 0.36063 0.73418 0.0
C1932 C 0.51878 0.3736 0.75901 0.0
C1933 C 0.54988 0.36786 0.75123 0.0
C1934 C 0.5095 0.37624 0.79166 0.0
C1935 C 0.47777 0.39428 0.78135 0.0
N1936 N 0.53692 0.37379 0.7631 0.0
N1937 N 0.4897 0.38794 0.76851 0.0
H1938 H 0.48059 0.57957 0.71812 0.0
H1939 H 0.52644 0.66536 0.7655 0.0
H1940 H 0.4818 0.63194 0.69097 0.0
H1941 H 0.5537 0.61303 0.76455 0.0
H1942 H 0.503 0.65314 0.74482 0.0
H1943 H 0.50059 0.59188 0.74204 0.0
C1944 C 0.48478 0.59375 0.71737 0.0
C1945 C 0.47957 0.60478 0.70254 0.0
C1946 C 0.51401 0.64434 0.74937 0.0
C1947 C 0.50213 0.61886 0.72992 0.0
C1948 C 0.52728 0.6512 0.76125 0.0
C1949 C 0.542 0.64015 0.76672 0.0
C1950 C 0.51523 0.62619 0.74338 0.0
C1951 C 0.54257 0.62198 0.76061 0.0
C1952 C 0.49626 0.60067 0.73094 0.0
C1953 C 0.48557 0.623 0.70215 0.0
N1954 N 0.5293 0.6155 0.7493 0.0
N1955 N 0.4965 0.62953 0.71571 0.0
H1956 H 0.85379 0.21642 0.02264 0.0
H1957 H 0.88211 0.319 0.00393 0.0
H1958 H 0.8636 0.25554 0.06577 0.0
H1959 H 0.90169 0.27614 0.9683 0.0
H1960 H 0.87002 0.2959 0.02459 0.0
H1961 H 0.86723 0.23799 0.00062 0.0
C1962 C 0.85891 0.22943 0.02751 0.0
C1963 C 0.85755 0.2342 0.04608 0.0
C1964 C 0.87691 0.29155 0.01222 0.0
C1965 C 0.87243 0.25892 0.02099 0.0
C1966 C 0.88369 0.30472 0.0003 0.0
C1967 C 0.89298 0.29951 0.98432 0.0
C1968 C 0.87912 0.27297 0.00809 0.0
C1969 C 0.89467 0.28075 0.98049 0.0
C1970 C 0.86656 0.24168 0.01495 0.0
C1971 C 0.86441 0.25124 0.05162 0.0
N1972 N 0.88773 0.2681 0.99228 0.0
N1973 N 0.87131 0.26305 0.0391 0.0
H1974 H 0.59899 0.72364 0.46511 0.0
H1975 H 0.62887 0.74529 0.56644 0.0
H1976 H 0.61644 0.68197 0.50316 0.0
H1977 H 0.64726 0.78111 0.52324 0.0
H1978 H 0.61693 0.72431 0.54351 0.0
H1979 H 0.61075 0.74713 0.48626 0.0
C1980 C 0.60542 0.71943 0.47777 0.0
C1981 C 0.60676 0.7008 0.48236 0.0
C1982 C 0.62346 0.73684 0.53908 0.0
C1983 C 0.61959 0.72745 0.5066 0.0
C1984 C 0.63016 0.74893 0.55214 0.0
C1985 C 0.6392 0.76498 0.54677 0.0
C1986 C 0.62547 0.7409 0.52046 0.0
C1987 C 0.64048 0.76884 0.52797 0.0
C1988 C 0.61208 0.7328 0.48977 0.0
C1989 C 0.61517 0.69611 0.49897 0.0
N1990 N 0.63366 0.75686 0.51542 0.0
N1991 N 0.62101 0.70934 0.51057 0.0
H1992 H 0.68056 0.50415 0.61408 0.0
H1993 H 0.78169 0.52431 0.64681 0.0
H1994 H 0.72426 0.46715 0.59953 0.0
H1995 H 0.74334 0.56673 0.63201 0.0
H1996 H 0.76064 0.50145 0.63394 0.0
H1997 H 0.70305 0.52536 0.62642 0.0
C1998 C 0.69487 0.50034 0.61369 0.0
C1999 C 0.70053 0.48384 0.60568 0.0
C2000 C 0.75701 0.5158 0.63341 0.0
C2001 C 0.72635 0.5082 0.61978 0.0
C2002 C 0.76898 0.52883 0.6407 0.0
C2003 C 0.76427 0.54747 0.64049 0.0
C2004 C 0.74011 0.52147 0.62631 0.0
C2005 C 0.74761 0.55256 0.63243 0.0
C2006 C 0.70771 0.51256 0.62059 0.0
C2007 C 0.71932 0.47975 0.60552 0.0
N2008 N 0.73605 0.53962 0.62589 0.0
N2009 N 0.73161 0.49186 0.61251 0.0
H2010 H 0.76617 0.46992 0.83208 0.0
H2011 H 0.72096 0.51544 0.91923 0.0
H2012 H 0.76613 0.44197 0.88405 0.0
H2013 H 0.69271 0.51449 0.86744 0.0
H2014 H 0.74454 0.49531 0.90634 0.0
H2015 H 0.74601 0.49338 0.84507 0.0
C2016 C 0.76221 0.46892 0.84632 0.0
C2017 C 0.76779 0.45399 0.85704 0.0
C2018 C 0.73328 0.49974 0.8978 0.0
C2019 C 0.74505 0.48082 0.87189 0.0
C2020 C 0.71992 0.51129 0.90505 0.0
C2021 C 0.70489 0.5166 0.89435 0.0
C2022 C 0.73183 0.49393 0.87961 0.0
C2023 C 0.70407 0.51065 0.87613 0.0
C2024 C 0.75065 0.48221 0.85363 0.0
C2025 C 0.76208 0.45324 0.87534 0.0
N2026 N 0.71743 0.49967 0.86927 0.0
N2027 N 0.75105 0.46654 0.88225 0.0
H2028 H 0.75457 0.4278 0.12826 0.0
H2029 H 0.77422 0.53097 0.10205 0.0
H2030 H 0.71854 0.47052 0.14741 0.0
H2031 H 0.81691 0.49177 0.11346 0.0
H2032 H 0.75157 0.50896 0.11367 0.0
H2033 H 0.77533 0.45104 0.11647 0.0
C2034 C 0.75086 0.44206 0.12975 0.0
C2035 C 0.73481 0.44721 0.13893 0.0
C2036 C 0.76594 0.50535 0.11372 0.0
C2037 C 0.75861 0.47386 0.12546 0.0
C2038 C 0.77884 0.51785 0.10714 0.0
C2039 C 0.79749 0.51321 0.10682 0.0
C2040 C 0.77174 0.488 0.11952 0.0
C2041 C 0.80272 0.496 0.11353 0.0
C2042 C 0.76281 0.4553 0.12316 0.0
C2043 C 0.73082 0.46596 0.1405 0.0
N2044 N 0.7899 0.48396 0.11938 0.0
N2045 N 0.74266 0.47866 0.1338 0.0
H2046 H 0.81781 0.5018 0.37591 0.0
H2047 H 0.71668 0.52338 0.34452 0.0
H2048 H 0.77442 0.4653 0.39241 0.0
H2049 H 0.75416 0.56482 0.3636 0.0
H2050 H 0.738 0.49972 0.35568 0.0
H2051 H 0.79503 0.52274 0.36355 0.0
C2052 C 0.80352 0.498 0.37667 0.0
C2053 C 0.79803 0.48179 0.38536 0.0
C2054 C 0.74137 0.51403 0.35747 0.0
C2055 C 0.7719 0.5058 0.37115 0.0
C2056 C 0.72927 0.5275 0.35115 0.0
C2057 C 0.73362 0.5461 0.35319 0.0
C2058 C 0.75807 0.5193 0.36531 0.0
C2059 C 0.75014 0.55068 0.36183 0.0
C2060 C 0.79053 0.51005 0.36973 0.0
C2061 C 0.77924 0.47771 0.38594 0.0
N2062 N 0.76184 0.53739 0.36734 0.0
N2063 N 0.76678 0.48967 0.37893 0.0
H2064 H 0.11583 0.27538 0.16809 0.0
H2065 H 0.07932 0.22796 0.24323 0.0
H2066 H 0.15517 0.23184 0.17351 0.0
H2067 H 0.13567 0.21952 0.25824 0.0
H2068 H 0.08944 0.24561 0.21655 0.0
H2069 H 0.10573 0.26971 0.19978 0.0
C2070 C 0.12248 0.26484 0.17609 0.0
C2071 C 0.1362 0.25391 0.16833 0.0
C2072 C 0.09956 0.2405 0.22608 0.0
C2073 C 0.12497 0.24752 0.20415 0.0
C2074 C 0.09379 0.2305 0.24132 0.0
C2075 C 0.10674 0.2223 0.25282 0.0
C2076 C 0.11835 0.24189 0.22231 0.0
C2077 C 0.12533 0.22559 0.24956 0.0
C2078 C 0.11667 0.26156 0.19402 0.0
C2079 C 0.14442 0.24039 0.17905 0.0
N2080 N 0.13061 0.23469 0.2343 0.0
N2081 N 0.13871 0.2376 0.19647 0.0
H2082 H 0.99209 0.85084 0.41197 0.0
H2083 H 0.01041 0.88654 0.51297 0.0
H2084 H 0.98552 0.90702 0.42866 0.0
H2085 H 0.01987 0.83124 0.49506 0.0
H2086 H 0.99424 0.89278 0.48426 0.0
H2087 H 0.99593 0.84212 0.44394 0.0
C2088 C 0.9912 0.86132 0.42242 0.0
C2089 C 0.98843 0.87967 0.41766 0.0
C2090 C -0.00056 0.87914 0.48678 0.0
C2091 C 0.993 0.86984 0.4543 0.0
C2092 C 0.0085 0.87557 0.5032 0.0
C2093 C 0.01652 0.85844 0.50617 0.0
C2094 C 0.99857 0.86546 0.4733 0.0
C2095 C 0.01384 0.84464 0.49319 0.0
C2096 C 0.99333 0.85632 0.44067 0.0
C2097 C 0.98729 0.89268 0.43171 0.0
N2098 N 0.00536 0.84854 0.47715 0.0
N2099 N 0.98981 0.88754 0.4494 0.0
H2100 H 0.34422 0.73571 0.67727 0.0
H2101 H 0.42359 0.7729 0.74162 0.0
H2102 H 0.39999 0.74387 0.65992 0.0
H2103 H 0.36723 0.76866 0.75815 0.0
H2104 H 0.41655 0.75535 0.71402 0.0
H2105 H 0.35356 0.74117 0.70883 0.0
C2106 C 0.35851 0.73811 0.68012 0.0
C2107 C 0.37137 0.73921 0.66594 0.0
C2108 C 0.40577 0.75787 0.72386 0.0
C2109 C 0.38209 0.74601 0.702 0.0
C2110 C 0.40986 0.7677 0.73969 0.0
C2111 C 0.39593 0.77216 0.75203 0.0
C2112 C 0.38759 0.75272 0.72033 0.0
C2113 C 0.37829 0.76544 0.74884 0.0
C2114 C 0.36383 0.74143 0.69817 0.0
C2115 C 0.38962 0.74303 0.67045 0.0
N2116 N 0.37453 0.75628 0.73312 0.0
N2117 N 0.39441 0.74643 0.68805 0.0
H2118 H 0.47685 0.17197 0.99236 0.0
H2119 H 0.51377 0.09143 0.92913 0.0
H2120 H 0.48074 0.11583 0.00969 0.0
H2121 H 0.50435 0.14668 0.91078 0.0
H2122 H 0.50866 0.10138 0.96063 0.0
H2123 H 0.49433 0.16439 0.96485 0.0
C2124 C 0.48199 0.15818 0.99064 0.0
C2125 C 0.47743 0.14446 0.00318 0.0
C2126 C 0.50805 0.1114 0.94974 0.0
C2127 C 0.49677 0.13551 0.97157 0.0
C2128 C 0.51113 0.10573 0.93175 0.0
C2129 C 0.50954 0.11826 0.91732 0.0
C2130 C 0.50327 0.12968 0.95327 0.0
C2131 C 0.50554 0.13654 0.9215 0.0
C2132 C 0.49176 0.15378 0.97486 0.0
C2133 C 0.48406 0.12673 0.00024 0.0
N2134 N 0.50241 0.14167 0.93906 0.0
N2135 N 0.49315 0.12266 0.98456 0.0
H2136 H 0.09561 0.7422 0.33917 0.0
H2137 H 0.13123 0.76168 0.23836 0.0
H2138 H 0.15173 0.73572 0.32224 0.0
H2139 H 0.07601 0.77128 0.25643 0.0
H2140 H 0.13742 0.74521 0.26689 0.0
H2141 H 0.08682 0.74655 0.30727 0.0
C2142 C 0.10605 0.74143 0.32869 0.0
C2143 C 0.12442 0.73853 0.33335 0.0
C2144 C 0.12381 0.7505 0.26444 0.0
C2145 C 0.11451 0.74368 0.29681 0.0
C2146 C 0.12026 0.75973 0.24812 0.0
C2147 C 0.10313 0.76777 0.24519 0.0
C2148 C 0.11013 0.74954 0.27791 0.0
C2149 C 0.08936 0.76514 0.25821 0.0
C2150 C 0.10102 0.74385 0.31047 0.0
C2151 C 0.13738 0.73756 0.31926 0.0
N2152 N 0.09325 0.75649 0.27417 0.0
N2153 N 0.13221 0.74036 0.30163 0.0
H2154 H 0.47663 0.82941 0.50482 0.0
H2155 H 0.51242 0.90834 0.5706 0.0
H2156 H 0.4782 0.88635 0.48985 0.0
H2157 H 0.5054 0.85206 0.58676 0.0
H2158 H 0.5067 0.89961 0.53887 0.0
H2159 H 0.49434 0.83642 0.5323 0.0
C2160 C 0.48126 0.8433 0.50707 0.0
C2161 C 0.47601 0.85737 0.4952 0.0
C2162 C 0.50675 0.88911 0.54932 0.0
C2163 C 0.49564 0.86563 0.52679 0.0
C2164 C 0.51019 0.89407 0.56744 0.0
C2165 C 0.50947 0.88088 0.58132 0.0
C2166 C 0.50247 0.87086 0.54513 0.0
C2167 C 0.50593 0.86268 0.57646 0.0
C2168 C 0.49118 0.84735 0.52283 0.0
C2169 C 0.48201 0.87519 0.4988 0.0
N2170 N 0.50243 0.85822 0.5588 0.0
N2171 N 0.49129 0.87889 0.51445 0.0
H2172 H 0.34032 0.26779 0.82044 0.0
H2173 H 0.36337 0.2295 0.73744 0.0
H2174 H 0.39495 0.25256 0.83672 0.0
H2175 H 0.41856 0.22743 0.75775 0.0
H2176 H 0.35431 0.24703 0.76417 0.0
H2177 H 0.34862 0.26284 0.78878 0.0
C2178 C 0.35418 0.26374 0.81738 0.0
C2179 C 0.36695 0.26065 0.83135 0.0
C2180 C 0.36855 0.24342 0.76271 0.0
C2181 C 0.3764 0.25376 0.79488 0.0
C2182 C 0.3737 0.2334 0.74731 0.0
C2183 C 0.39168 0.22712 0.7455 0.0
C2184 C 0.38155 0.24701 0.77645 0.0
C2185 C 0.40458 0.2322 0.75866 0.0
C2186 C 0.35888 0.26052 0.79914 0.0
C2187 C 0.38457 0.2549 0.82642 0.0
N2188 N 0.39919 0.2416 0.77375 0.0
N2189 N 0.38871 0.25151 0.80866 0.0
H2190 H 0.01868 0.17216 0.00281 0.0
H2191 H 0.99308 0.14961 0.08988 0.0
H2192 H 0.02145 0.114 0.99383 0.0
H2193 H 0.98356 0.09496 0.06994 0.0
H2194 H -0.00047 0.15953 0.05896 0.0
H2195 H 0.00016 0.16688 0.02994 0.0
C2196 C 0.01503 0.15826 0.00639 0.0
C2197 C 0.02171 0.14346 0.99624 0.0
C2198 C 0.99542 0.1455 0.06103 0.0
C2199 C 0.00171 0.13713 0.0281 0.0
C2200 C 0.99193 0.13977 0.07885 0.0
C2201 C 0.98766 0.12146 0.08249 0.0
C2202 C 0.9948 0.13274 0.04666 0.0
C2203 C 0.98641 0.10928 0.06775 0.0
C2204 C 0.00479 0.15518 0.02218 0.0
C2205 C 0.0167 0.12574 0.0015 0.0
N2206 N 0.99022 0.1151 0.0505 0.0
N2207 N 0.00728 0.12304 0.01727 0.0
H2208 H 0.2539 0.1346 0.21988 0.0
H2209 H 0.15897 0.09595 0.25565 0.0
H2210 H 0.24062 0.07727 0.22206 0.0
H2211 H 0.17359 0.15302 0.2577 0.0
H2212 H 0.19044 0.08848 0.2474 0.0
H2213 H 0.22653 0.14136 0.23801 0.0
C2214 C 0.24541 0.12343 0.22462 0.0
C2215 C 0.2494 0.10539 0.21958 0.0
C2216 C 0.18689 0.10262 0.24998 0.0
C2217 C 0.21799 0.11293 0.23986 0.0
C2218 C 0.16891 0.10688 0.25465 0.0
C2219 C 0.16372 0.12511 0.25747 0.0
C2220 C 0.1997 0.11674 0.24774 0.0
C2221 C 0.17708 0.13876 0.25602 0.0
C2222 C 0.22978 0.12726 0.23488 0.0
C2223 C 0.23802 0.09135 0.22584 0.0
N2224 N 0.19443 0.13432 0.25102 0.0
N2225 N 0.22267 0.09544 0.23546 0.0
H2226 H 0.1297 0.92002 0.52782 0.0
H2227 H 0.16697 0.99428 0.47953 0.0
H2228 H 0.09347 0.92122 0.48135 0.0
H2229 H 0.11106 0.00557 0.46468 0.0
H2230 H 0.15653 0.96793 0.49745 0.0
H2231 H 0.1392 0.95159 0.52072 0.0
C2232 C 0.12361 0.92706 0.5163 0.0
C2233 C 0.11096 0.91814 0.505 0.0
C2234 C 0.1465 0.97656 0.49081 0.0
C2235 C 0.12154 0.95381 0.49694 0.0
C2236 C 0.15245 0.9916 0.48063 0.0
C2237 C 0.13982 0.00197 0.47062 0.0
C2238 C 0.12788 0.97184 0.49061 0.0
C2239 C 0.1212 0.99773 0.47211 0.0
C2240 C 0.12909 0.94493 0.51221 0.0
C2241 C 0.10342 0.92766 0.49022 0.0
N2242 N 0.11582 0.9827 0.48152 0.0
N2243 N 0.10879 0.94503 0.48664 0.0
H2244 H 0.32213 0.83997 0.76079 0.0
H2245 H 0.25511 0.91925 0.72721 0.0
H2246 H 0.33748 0.89665 0.7556 0.0
H2247 H 0.24235 0.86186 0.72373 0.0
H2248 H 0.28249 0.91178 0.74497 0.0
H2249 H 0.29041 0.84832 0.75427 0.0
C2250 C 0.31876 0.85423 0.7588 0.0
C2251 C 0.33242 0.86767 0.75882 0.0
C2252 C 0.27352 0.90082 0.74066 0.0
C2253 C 0.29628 0.87726 0.75095 0.0
C2254 C 0.25782 0.90511 0.73071 0.0
C2255 C 0.24659 0.89111 0.72408 0.0
C2256 C 0.27802 0.8824 0.74382 0.0
C2257 C 0.25079 0.87298 0.72865 0.0
C2258 C 0.30067 0.85897 0.75489 0.0
C2259 C 0.32735 0.88587 0.75557 0.0
N2260 N 0.26633 0.8691 0.73805 0.0
N2261 N 0.30972 0.89012 0.75165 0.0
H2262 H 0.40981 0.07245 0.00928 0.0
H2263 H 0.33114 0.00448 0.9762 0.0
H2264 H 0.35288 0.08712 0.00464 0.0
H2265 H 0.38871 0.99338 0.97025 0.0
H2266 H 0.33853 0.03175 0.99413 0.0
H2267 H 0.40189 0.04073 0.00223 0.0
C2268 C 0.39559 0.06891 0.00731 0.0
C2269 C 0.38195 0.08236 0.00765 0.0
C2270 C 0.34956 0.02317 0.98921 0.0
C2271 C 0.37285 0.04628 -0.00082 0.0
C2272 C 0.34533 0.00754 0.97915 0.0
C2273 C 0.35938 0.99681 0.9718 0.0
C2274 C 0.36796 0.02809 0.99179 0.0
C2275 C 0.37754 0.00145 0.9757 0.0
C2276 C 0.3911 0.05084 0.00309 0.0
C2277 C 0.36381 0.07713 0.00439 0.0
N2278 N 0.38135 0.0169 0.98527 0.0
N2279 N 0.35979 0.05951 0.00019 0.0
H2280 H 0.24241 0.91832 0.27074 0.0
H2281 H 0.17821 0.83689 0.23693 0.0
H2282 H 0.2564 0.86131 0.27557 0.0
H2283 H 0.16069 0.89284 0.24324 0.0
H2284 H 0.20967 0.84635 0.24332 0.0
H2285 H 0.21554 0.9099 0.25261 0.0
C2286 C 0.24008 0.90407 0.26747 0.0
C2287 C 0.25148 0.89044 0.27458 0.0
C2288 C 0.19898 0.85661 0.24295 0.0
C2289 C 0.22069 0.88067 0.2544 0.0
C2290 C 0.18106 0.85123 0.23913 0.0
C2291 C 0.16689 0.86414 0.23951 0.0
C2292 C 0.20267 0.87499 0.24717 0.0
C2293 C 0.17126 0.88247 0.24297 0.0
C2294 C 0.22469 0.89924 0.2573 0.0
C2295 C 0.2478 0.87214 0.27028 0.0
N2296 N 0.18874 0.88734 0.24679 0.0
N2297 N 0.23256 0.86774 0.26064 0.0
H2298 H 0.38757 0.00942 0.52711 0.0
H2299 H 0.40806 0.92931 0.4818 0.0
H2300 H 0.33097 0.99434 0.52118 0.0
H2301 H 0.35264 0.9144 0.49543 0.0
H2302 H 0.40086 0.96105 0.48847 0.0
H2303 H 0.39635 0.98305 0.50878 0.0
C2304 C 0.37698 0.00082 0.52132 0.0
C2305 C 0.35858 0.00397 0.52553 0.0
C2306 C 0.39024 0.9509 0.49007 0.0
C2307 C 0.36835 0.97365 0.50453 0.0
C2308 C 0.39428 0.93271 0.48585 0.0
C2309 C 0.38093 0.91912 0.48802 0.0
C2310 C 0.37282 0.95544 0.49685 0.0
C2311 C 0.36342 0.9244 0.49378 0.0
C2312 C 0.38196 0.98573 0.51078 0.0
C2313 C 0.34531 0.99241 0.51803 0.0
N2314 N 0.35992 0.9421 0.49812 0.0
N2315 N 0.35049 0.97756 0.50814 0.0
H2316 H 0.2416 0.13469 0.7757 0.0
H2317 H 0.33891 0.1 0.74319 0.0
H2318 H 0.25708 0.0779 0.77389 0.0
H2319 H 0.32153 0.15618 0.73907 0.0
H2320 H 0.30752 0.09111 0.75022 0.0
H2321 H 0.26882 0.1424 0.75777 0.0
C2322 C 0.25052 0.12382 0.77103 0.0
C2323 C 0.24721 0.10568 0.77616 0.0
C2324 C 0.31045 0.10535 0.74744 0.0
C2325 C 0.27852 0.11432 0.75618 0.0
C2326 C 0.32838 0.11042 0.74347 0.0
C2327 C 0.33277 0.12882 0.74045 0.0
C2328 C 0.29686 0.11885 0.7488 0.0
C2329 C 0.31868 0.1418 0.74095 0.0
C2330 C 0.26608 0.1282 0.7609 0.0
C2331 C 0.25916 0.09204 0.77003 0.0
N2332 N 0.30137 0.1366 0.74533 0.0
N2333 N 0.27447 0.09667 0.76059 0.0
H2334 H 0.16507 0.00121 0.01992 0.0
H2335 H 0.08779 0.07168 0.98901 0.0
H2336 H 0.10746 0.99283 0.02904 0.0
H2337 H 0.14544 0.08393 0.99086 0.0
H2338 H 0.09471 0.03972 0.99607 0.0
H2339 H 0.15791 0.0281 0.00137 0.0
C2340 C 0.15088 0.00475 0.01753 0.0
C2341 C 0.13679 0.99495 0.026 0.0
C2342 C 0.10586 0.04935 0.99458 0.0
C2343 C 0.12852 0.02584 0.00529 0.0
C2344 C 0.10192 0.06755 0.99038 0.0
C2345 C 0.11609 0.08041 0.9893 0.0
C2346 C 0.12406 0.04406 0.99772 0.0
C2347 C 0.13413 0.07442 0.99173 0.0
C2348 C 0.1468 0.02018 0.00711 0.0
C2349 C 0.11866 0.0002 0.02276 0.0
N2350 N 0.1376 0.0567 0.99594 0.0
N2351 N 0.11502 0.01547 0.01284 0.0
H2352 H 0.26416 0.17481 0.14927 0.0
H2353 H 0.2209 0.23948 0.07407 0.0
H2354 H 0.2539 0.15789 0.09368 0.0
H2355 H 0.23752 0.25848 0.12727 0.0
H2356 H 0.23742 0.21091 0.07938 0.0
H2357 H 0.2586 0.20641 0.14036 0.0
C2358 C 0.26127 0.17772 0.13509 0.0
C2359 C 0.2597 0.16362 0.12217 0.0
C2360 C 0.23784 0.22144 0.08977 0.0
C2361 C 0.25268 0.19985 0.11198 0.0
C2362 C 0.22857 0.23782 0.08664 0.0
C2363 C 0.22788 0.25121 0.1003 0.0
C2364 C 0.24618 0.21837 0.10682 0.0
C2365 C 0.23775 0.24836 0.11646 0.0
C2366 C 0.25791 0.19583 0.13002 0.0
C2367 C 0.25515 0.16831 0.10412 0.0
N2368 N 0.24623 0.23209 0.11944 0.0
N2369 N 0.25166 0.18597 0.0996 0.0
H2370 H 0.73374 0.23725 0.86598 0.0
H2371 H 0.7616 0.32454 0.84374 0.0
H2372 H 0.72058 0.26024 0.91855 0.0
H2373 H 0.75808 0.33675 0.90131 0.0
H2374 H 0.75471 0.29286 0.8502 0.0
H2375 H 0.75174 0.26441 0.85882 0.0
C2376 C 0.73501 0.24798 0.87612 0.0
C2377 C 0.72577 0.24667 0.89281 0.0
C2378 C 0.75599 0.30216 0.8616 0.0
C2379 C 0.74527 0.27834 0.88443 0.0
C2380 C 0.76004 0.32042 0.85784 0.0
C2381 C 0.76072 0.33329 0.87203 0.0
C2382 C 0.75248 0.29672 0.87973 0.0
C2383 C 0.75767 0.32725 0.88996 0.0
C2384 C 0.745 0.26369 0.87194 0.0
C2385 C 0.72764 0.26082 0.90554 0.0
N2386 N 0.75356 0.30945 0.89327 0.0
N2387 N 0.73698 0.2762 0.90098 0.0
H2388 H 0.00776 0.47459 0.11336 0.0
H2389 H 0.90946 0.50398 0.14758 0.0
H2390 H 0.99228 0.47617 0.17015 0.0
H2391 H 0.92736 0.51046 0.09179 0.0
H2392 H 0.94094 0.49756 0.15664 0.0
H2393 H 0.98013 0.49187 0.1056 0.0
C2394 C 0.99875 0.4791 0.12422 0.0
C2395 C 0.0022 0.47409 0.14238 0.0
C2396 C 0.93809 0.50072 0.14246 0.0
C2397 C 0.9704 0.49328 0.13368 0.0
C2398 C 0.92011 0.50433 0.13729 0.0
C2399 C 0.91585 0.50782 0.11894 0.0
C2400 C 0.95188 0.5002 0.12911 0.0
C2401 C 0.9301 0.50815 0.10613 0.0
C2402 C 0.98295 0.48885 0.11982 0.0
C2403 C 0.9901 0.47996 0.15601 0.0
N2404 N 0.94747 0.50411 0.11142 0.0
N2405 N 0.97456 0.48901 0.15134 0.0
H2406 H 0.74023 0.66176 0.40084 0.0
H2407 H 0.77446 0.7559 0.35858 0.0
H2408 H 0.73799 0.67451 0.34332 0.0
H2409 H 0.77455 0.74379 0.41623 0.0
H2410 H 0.75637 0.72822 0.3531 0.0
H2411 H 0.7484 0.69351 0.40722 0.0
C2412 C 0.74115 0.67135 0.38959 0.0
C2413 C 0.73825 0.66555 0.37156 0.0
C2414 C 0.76001 0.73179 0.367 0.0
C2415 C 0.74789 0.70182 0.37866 0.0
C2416 C 0.77024 0.74759 0.3701 0.0
C2417 C 0.77595 0.75198 0.38783 0.0
C2418 C 0.75569 0.72026 0.38176 0.0
C2419 C 0.7703 0.74086 0.40236 0.0
C2420 C 0.74578 0.68947 0.39322 0.0
C2421 C 0.73965 0.67847 0.35745 0.0
N2422 N 0.76068 0.72535 0.39898 0.0
N2423 N 0.74458 0.69596 0.36129 0.0
H2424 H 0.99033 0.01816 0.11652 0.0
H2425 H 0.08966 0.99323 0.15393 0.0
H2426 H 0.00756 0.02674 0.17217 0.0
H2427 H 0.0731 0.9869 0.09768 0.0
H2428 H 0.05811 0.00068 0.16202 0.0
H2429 H 0.01867 0.00125 0.11063 0.0
C2430 C -9e-05 0.01598 0.12761 0.0
C2431 C 0.99672 0.02372 0.14483 0.0
C2432 C 0.06131 0.99736 0.14795 0.0
C2433 C 0.02925 0.00492 0.13818 0.0
C2434 C 0.07933 0.99315 0.14332 0.0
C2435 C 0.08402 0.98925 0.12513 0.0
C2436 C 0.04789 0.99794 0.13423 0.0
C2437 C 0.0701 0.98933 0.11193 0.0
C2438 C 0.01611 0.00648 0.12424 0.0
C2439 C 0.00953 0.0208 0.15875 0.0
N2440 N 0.0527 0.99378 0.11672 0.0
N2441 N 0.02538 0.01183 0.15506 0.0
H2442 H 0.27061 0.73937 0.63319 0.0
H2443 H 0.23304 0.82316 0.65505 0.0
H2444 H 0.27484 0.75979 0.57817 0.0
H2445 H 0.24604 0.83835 0.59955 0.0
H2446 H 0.2391 0.79157 0.64763 0.0
H2447 H 0.25298 0.7662 0.64168 0.0
C2448 C 0.26723 0.74936 0.62278 0.0
C2449 C 0.27406 0.74747 0.60501 0.0
C2450 C 0.24064 0.80162 0.63694 0.0
C2451 C 0.25419 0.77866 0.61452 0.0
C2452 C 0.23678 0.81984 0.64116 0.0
C2453 C 0.23886 0.83352 0.62788 0.0
C2454 C 0.24703 0.79706 0.61936 0.0
C2455 C 0.2444 0.82828 0.61029 0.0
C2456 C 0.25721 0.76485 0.62761 0.0
C2457 C 0.26963 0.76076 0.59199 0.0
N2458 N 0.24842 0.81054 0.6066 0.0
N2459 N 0.2602 0.77593 0.59708 0.0
H2460 H 0.92781 0.48427 0.40367 0.0
H2461 H 0.99301 0.5229 0.32568 0.0
H2462 H 0.91139 0.4926 0.34763 0.0
H2463 H 0.00909 0.51759 0.38209 0.0
H2464 H 0.96543 0.50515 0.33215 0.0
H2465 H 0.95949 0.49017 0.39492 0.0
C2466 C 0.93089 0.48683 0.38945 0.0
C2467 C 0.91693 0.48786 0.37634 0.0
C2468 C 0.97516 0.50748 0.34306 0.0
C2469 C 0.95311 0.4951 0.3663 0.0
C2470 C 0.99099 0.51743 0.33929 0.0
C2471 C 0.00321 0.52164 0.3534 0.0
C2472 C 0.97147 0.50198 0.36111 0.0
C2473 C -0.00012 0.51457 0.37089 0.0
C2474 C 0.949 0.49037 0.38447 0.0
C2475 C 0.92173 0.49183 0.3582 0.0
N2476 N 0.98415 0.50532 0.37435 0.0
N2477 N 0.93937 0.49543 0.35374 0.0
H2478 H 0.49333 0.47246 0.89081 0.0
H2479 H 0.58937 0.50338 0.85038 0.0
H2480 H 0.50592 0.47306 0.83327 0.0
H2481 H 0.57547 0.50685 0.90758 0.0
H2482 H 0.55756 0.49596 0.84343 0.0
H2483 H 0.52167 0.48925 0.89691 0.0
C2484 C 0.50189 0.47658 0.87945 0.0
C2485 C 0.49741 0.47145 0.86156 0.0
C2486 C 0.56137 0.49866 0.85748 0.0
C2487 C 0.52993 0.49017 0.86834 0.0
C2488 C 0.57954 0.50284 0.86145 0.0
C2489 C 0.58502 0.50591 0.87955 0.0
C2490 C 0.54863 0.4972 0.87178 0.0
C2491 C 0.57178 0.50503 0.89339 0.0
C2492 C 0.51808 0.48606 0.8829 0.0
C2493 C 0.5089 0.47692 0.84725 0.0
N2494 N 0.55423 0.50056 0.88924 0.0
N2495 N 0.52479 0.48577 0.85097 0.0
H2496 H 0.57715 0.72403 0.74254 0.0
H2497 H 0.65551 0.75956 0.67548 0.0
H2498 H 0.63475 0.71921 0.75397 0.0
H2499 H 0.59847 0.75577 0.66102 0.0
H2500 H 0.64771 0.75165 0.70701 0.0
H2501 H 0.58432 0.74271 0.71572 0.0
C2502 C 0.59129 0.72738 0.73966 0.0
C2503 C 0.60542 0.72016 0.75037 0.0
C2504 C 0.63686 0.75289 0.69701 0.0
C2505 C 0.61377 0.74099 0.71954 0.0
C2506 C 0.64129 0.7576 0.67904 0.0
C2507 C 0.62758 0.75843 0.66566 0.0
C2508 C 0.61862 0.74893 0.70156 0.0
C2509 C 0.60945 0.75516 0.67093 0.0
C2510 C 0.5954 0.73788 0.72428 0.0
C2511 C 0.62352 0.72457 0.74593 0.0
N2512 N 0.6055 0.75044 0.68844 0.0
N2513 N 0.62722 0.73453 0.7307 0.0
H2514 H 0.5154 0.38019 0.01164 0.0
H2515 H 0.4877 0.34441 0.91282 0.0
H2516 H 0.52217 0.32456 0.99354 0.0
H2517 H 0.48339 0.40069 0.92992 0.0
H2518 H 0.49428 0.33568 0.94436 0.0
H2519 H 0.49714 0.3866 0.98428 0.0
C2520 C 0.5125 0.36921 0.00213 0.0
C2521 C 0.52021 0.35187 0.0047 0.0
C2522 C 0.49156 0.3499 0.9413 0.0
C2523 C 0.49989 0.3591 0.97328 0.0
C2524 C 0.48785 0.3549 0.92329 0.0
C2525 C 0.48492 0.37329 0.91875 0.0
C2526 C 0.49266 0.36346 0.95485 0.0
C2527 C 0.48519 0.38632 0.93282 0.0
C2528 C 0.50223 0.37287 0.98648 0.0
C2529 C 0.51632 0.33808 0.99202 0.0
N2530 N 0.48924 0.38118 0.95021 0.0
N2531 N 0.50665 0.34206 0.97668 0.0
H2532 H 0.91702 0.26824 0.24072 0.0
H2533 H 0.87939 0.22203 0.16528 0.0
H2534 H 0.86131 0.28379 0.25203 0.0
H2535 H 0.84253 0.26797 0.16781 0.0
H2536 H 0.88926 0.2287 0.19681 0.0
H2537 H 0.90642 0.2511 0.21389 0.0
C2538 C 0.9025 0.26745 0.23793 0.0
C2539 C 0.88998 0.27742 0.24849 0.0
C2540 C 0.87894 0.23721 0.19045 0.0
C2541 C 0.87785 0.25831 0.21782 0.0
C2542 C 0.87322 0.23333 0.17261 0.0
C2543 C 0.86024 0.24458 0.16406 0.0
C2544 C 0.87136 0.25224 0.19971 0.0
C2545 C 0.85269 0.25912 0.17395 0.0
C2546 C 0.89645 0.25772 0.22261 0.0
C2547 C 0.87136 0.27636 0.24409 0.0
N2548 N 0.85833 0.2625 0.19128 0.0
N2549 N 0.8659 0.26736 0.22883 0.0
H2550 H 0.97419 0.66931 0.4927 0.0
H2551 H 0.01125 0.59005 0.42794 0.0
H2552 H 0.9735 0.61221 0.50715 0.0
H2553 H 0.00477 0.64636 0.41169 0.0
H2554 H 0.0047 0.59877 0.45956 0.0
H2555 H 0.99297 0.66204 0.46602 0.0
C2556 C 0.97851 0.6553 0.49052 0.0
C2557 C 0.97234 0.64129 0.50199 0.0
C2558 C 0.00507 0.60927 0.44912 0.0
C2559 C 0.99322 0.63277 0.47128 0.0
C2560 C 0.00898 0.60432 0.43109 0.0
C2561 C 0.00859 0.61753 0.41722 0.0
C2562 C 0.00069 0.62754 0.4532 0.0
C2563 C 0.00503 0.63574 0.422 0.0
C2564 C 0.98906 0.65112 0.47521 0.0
C2565 C 0.978 0.62333 0.49848 0.0
N2566 N 0.00108 0.64019 0.43956 0.0
N2567 N 0.98792 0.61951 0.48324 0.0
H2568 H 0.65418 0.23583 0.8179 0.0
H2569 H 0.57329 0.27552 0.75676 0.0
H2570 H 0.59967 0.24668 0.83765 0.0
H2571 H 0.62908 0.27083 0.73846 0.0
H2572 H 0.58101 0.25758 0.78395 0.0
H2573 H 0.64369 0.24161 0.78672 0.0
C2574 C 0.6399 0.23891 0.81565 0.0
C2575 C 0.62775 0.24069 0.83038 0.0
C2576 C 0.59149 0.26008 0.77379 0.0
C2577 C 0.61574 0.24777 0.79479 0.0
C2578 C 0.58702 0.27012 0.7582 0.0
C2579 C 0.60061 0.27455 0.74548 0.0
C2580 C 0.60972 0.25468 0.7767 0.0
C2581 C 0.61827 0.2676 0.74805 0.0
C2582 C 0.63394 0.24239 0.79784 0.0
C2583 C 0.60951 0.24531 0.82667 0.0
N2584 N 0.62242 0.25823 0.76354 0.0
N2585 N 0.60409 0.24882 0.80927 0.0
H2586 H 0.97636 0.33077 0.00597 0.0
H2587 H 0.0117 0.40687 0.07538 0.0
H2588 H 0.97576 0.38853 0.99445 0.0
H2589 H 0.00715 0.34958 0.0886 0.0
H2590 H 0.00472 0.39979 0.04355 0.0
H2591 H 0.9941 0.33674 0.03369 0.0
C2592 C 0.98046 0.34466 0.00904 0.0
C2593 C 0.97462 0.35922 0.99806 0.0
C2594 C 0.00557 0.38872 0.05335 0.0
C2595 C 0.99437 0.36624 0.0299 0.0
C2596 C 0.00977 0.39274 0.07152 0.0
C2597 C 0.01021 0.37876 0.08463 0.0
C2598 C 0.00164 0.37061 0.0483 0.0
C2599 C 0.00686 0.36077 0.07892 0.0
C2600 C 0.99041 0.3481 0.02494 0.0
C2601 C 0.98001 0.377 0.0027 0.0
N2602 N 0.00261 0.35722 0.0612 0.0
N2603 N 0.98938 0.38006 0.01844 0.0
H2604 H 0.87335 0.74246 0.23411 0.0
H2605 H 0.90433 0.75664 0.33759 0.0
H2606 H 0.92493 0.72447 0.25611 0.0
H2607 H 0.8498 0.76711 0.31767 0.0
H2608 H 0.9145 0.75173 0.30618 0.0
H2609 H 0.86732 0.75911 0.26261 0.0
C2610 C 0.88367 0.74261 0.24474 0.0
C2611 C 0.89959 0.73211 0.24292 0.0
C2612 C 0.90037 0.75543 0.30864 0.0
C2613 C 0.8927 0.7506 0.27556 0.0
C2614 C 0.89453 0.75817 0.32658 0.0
C2615 C 0.87618 0.76236 0.33029 0.0
C2616 C 0.88771 0.75665 0.29426 0.0
C2617 C 0.86412 0.76428 0.3155 0.0
C2618 C 0.88017 0.75192 0.26104 0.0
C2619 C 0.91251 0.7325 0.25704 0.0
N2620 N 0.87006 0.7612 0.29814 0.0
N2621 N 0.90866 0.74134 0.27291 0.0
H2622 H 0.52639 0.6092 0.49139 0.0
H2623 H 0.48173 0.59211 0.57245 0.0
H2624 H 0.52075 0.66639 0.50419 0.0
H2625 H 0.49327 0.64865 0.58471 0.0
H2626 H 0.48882 0.59776 0.54065 0.0
H2627 H 0.50827 0.60159 0.51817 0.0
C2628 C 0.52075 0.62016 0.49961 0.0
C2629 C 0.52501 0.63839 0.49568 0.0
C2630 C 0.48991 0.60899 0.55019 0.0
C2631 C 0.50415 0.62998 0.52651 0.0
C2632 C 0.48539 0.60583 0.56845 0.0
C2633 C 0.48673 0.61996 0.58136 0.0
C2634 C 0.4963 0.62631 0.54485 0.0
C2635 C 0.4922 0.6373 0.57527 0.0
C2636 C 0.5103 0.61586 0.51496 0.0
C2637 C 0.51761 0.65216 0.50674 0.0
N2638 N 0.49691 0.63994 0.55751 0.0
N2639 N 0.50778 0.64765 0.52184 0.0
H2640 H 0.65492 0.59151 0.75943 0.0
H2641 H 0.73908 0.572 0.72122 0.0
H2642 H 0.67192 0.6478 0.75591 0.0
H2643 H 0.75319 0.62809 0.73208 0.0
H2644 H 0.7104 0.57625 0.73732 0.0
H2645 H 0.68619 0.5819 0.75356 0.0
C2646 C 0.66534 0.60184 0.75746 0.0
C2647 C 0.66086 0.62045 0.75815 0.0
C2648 C 0.71983 0.58759 0.73687 0.0
C2649 C 0.69675 0.60965 0.75053 0.0
C2650 C 0.73634 0.58505 0.72767 0.0
C2651 C 0.74844 0.5997 0.72547 0.0
C2652 C 0.71536 0.605 0.74383 0.0
C2653 C 0.74415 0.61647 0.73362 0.0
C2654 C 0.68327 0.59636 0.75393 0.0
C2655 C 0.67484 0.63331 0.75576 0.0
N2656 N 0.72783 0.61875 0.74222 0.0
N2657 N 0.69211 0.62766 0.75184 0.0
H2658 H 0.67016 0.49212 0.97898 0.0
H2659 H 0.58953 0.4269 0.0127 0.0
H2660 H 0.61302 0.50604 0.97563 0.0
H2661 H 0.64554 0.40986 0.00559 0.0
H2662 H 0.59875 0.45852 0.00688 0.0
H2663 H 0.66219 0.46493 0.99683 0.0
C2664 C 0.65598 0.48973 0.98256 0.0
C2665 C 0.64218 0.5012 0.97592 0.0
C2666 C 0.60907 0.4479 0.00695 0.0
C2667 C 0.6329 0.47001 0.99575 0.0
C2668 C 0.60384 0.42987 0.01044 0.0
C2669 C 0.61682 0.41578 0.00968 0.0
C2670 C 0.6274 0.45179 0.00266 0.0
C2671 C 0.6351 0.42035 0.00615 0.0
C2672 C 0.65141 0.47414 0.99256 0.0
C2673 C 0.62399 0.49742 0.98058 0.0
N2674 N 0.63983 0.43794 0.00264 0.0
N2675 N 0.61983 0.48198 0.99001 0.0
H2676 H 0.84081 0.40245 0.25662 0.0
H2677 H 0.74558 0.36027 0.22453 0.0
H2678 H 0.82842 0.34481 0.2574 0.0
H2679 H 0.75901 0.41752 0.22134 0.0
H2680 H 0.77368 0.35495 0.24202 0.0
H2681 H 0.80899 0.40884 0.24869 0.0
C2682 C 0.83131 0.39116 0.25539 0.0
C2683 C 0.83722 0.37309 0.25786 0.0
C2684 C 0.77032 0.36874 0.23781 0.0
C2685 C 0.80086 0.38023 0.24858 0.0
C2686 C 0.75428 0.37176 0.22794 0.0
C2687 C 0.75013 0.38931 0.22155 0.0
C2688 C 0.7823 0.3834 0.24112 0.0
C2689 C 0.76175 0.4038 0.22617 0.0
C2690 C 0.81315 0.3948 0.25091 0.0
C2691 C 0.82439 0.35896 0.25611 0.0
N2692 N 0.77746 0.40049 0.23549 0.0
N2693 N 0.80685 0.36282 0.2514 0.0
H2694 H 0.84416 0.58904 0.50922 0.0
H2695 H 0.82308 0.5061 0.46979 0.0
H2696 H 0.90031 0.5716 0.50556 0.0
H2697 H 0.88004 0.49251 0.4759 0.0
H2698 H 0.82786 0.53366 0.48749 0.0
H2699 H 0.83428 0.55813 0.50245 0.0
C2700 C 0.8544 0.57854 0.50709 0.0
C2701 C 0.87304 0.58282 0.50791 0.0
C2702 C 0.83938 0.52464 0.48554 0.0
C2703 C 0.86195 0.54729 0.49919 0.0
C2704 C 0.83652 0.50872 0.47545 0.0
C2705 C 0.85118 0.49709 0.47148 0.0
C2706 C 0.85715 0.52906 0.49156 0.0
C2707 C 0.86841 0.50123 0.47873 0.0
C2708 C 0.84878 0.56079 0.50303 0.0
C2709 C 0.88579 0.56879 0.50526 0.0
N2710 N 0.87097 0.51701 0.4882 0.0
N2711 N 0.88001 0.55171 0.50076 0.0
H2712 H 0.67435 0.3411 0.7349 0.0
H2713 H 0.75572 0.36059 0.77856 0.0
H2714 H 0.66012 0.39649 0.74941 0.0
H2715 H 0.74141 0.41737 0.77241 0.0
H2716 H 0.72851 0.35206 0.76139 0.0
H2717 H 0.70624 0.34791 0.74117 0.0
C2718 C 0.67793 0.3548 0.73907 0.0
C2719 C 0.66449 0.36827 0.74153 0.0
C2720 C 0.73153 0.36643 0.76308 0.0
C2721 C 0.70101 0.37592 0.74991 0.0
C2722 C 0.74709 0.37126 0.77296 0.0
C2723 C 0.75075 0.38966 0.77675 0.0
C2724 C 0.71948 0.38017 0.75706 0.0
C2725 C 0.73911 0.40303 0.76954 0.0
C2726 C 0.69621 0.3586 0.74307 0.0
C2727 C 0.67001 0.38563 0.74751 0.0
N2728 N 0.72381 0.39801 0.76029 0.0
N2729 N 0.6878 0.38892 0.75159 0.0
H2730 H 0.84708 0.41158 0.99178 0.0
H2731 H 0.88128 0.5117 0.01637 0.0
H2732 H 0.90294 0.42959 0.9861 0.0
H2733 H 0.82604 0.49285 0.02407 0.0
H2734 H 0.88799 0.48402 0.99869 0.0
H2735 H 0.83782 0.44311 0.99761 0.0
C2736 C 0.85736 0.42223 0.99149 0.0
C2737 C 0.87579 0.41796 0.98839 0.0
C2738 C 0.87427 0.48612 0.00384 0.0
C2739 C 0.86536 0.45408 0.99525 0.0
C2740 C 0.87043 0.50196 0.01377 0.0
C2741 C 0.85313 0.50441 0.02159 0.0
C2742 C 0.86072 0.47263 0.00198 0.0
C2743 C 0.83952 0.49142 0.01811 0.0
C2744 C 0.85207 0.44024 0.99476 0.0
C2745 C 0.88855 0.43227 0.98807 0.0
N2746 N 0.84369 0.47591 0.00879 0.0
N2747 N 0.88312 0.44967 0.9917 0.0
H2748 H 0.73952 0.64364 0.28029 0.0
H2749 H 0.83015 0.62088 0.22394 0.0
H2750 H 0.7541 0.58844 0.26567 0.0
H2751 H 0.82554 0.66333 0.26455 0.0
H2752 H 0.79794 0.61254 0.22957 0.0
H2753 H 0.76638 0.6548 0.26374 0.0
C2754 C 0.74809 0.63395 0.27306 0.0
C2755 C 0.74485 0.61513 0.27448 0.0
C2756 C 0.80396 0.62387 0.23697 0.0
C2757 C 0.77546 0.6277 0.25574 0.0
C2758 C 0.82221 0.62861 0.23378 0.0
C2759 C 0.83032 0.64268 0.24394 0.0
C2760 C 0.79386 0.63361 0.25006 0.0
C2761 C 0.81969 0.6523 0.25659 0.0
C2762 C 0.76341 0.64029 0.26374 0.0
C2763 C 0.75622 0.60307 0.26485 0.0
N2764 N 0.80197 0.64759 0.2593 0.0
N2765 N 0.77129 0.60954 0.25608 0.0
H2766 H 0.62055 0.48404 0.5101 0.0
H2767 H 0.5947 0.57104 0.48523 0.0
H2768 H 0.67153 0.50906 0.52553 0.0
H2769 H 0.65157 0.5858 0.48997 0.0
H2770 H 0.60263 0.53943 0.49085 0.0
H2771 H 0.61272 0.51128 0.49247 0.0
C2772 C 0.63025 0.49522 0.50935 0.0
C2773 C 0.64665 0.49447 0.51917 0.0
C2774 C 0.61357 0.54931 0.49009 0.0
C2775 C 0.63739 0.52621 0.50018 0.0
C2776 C 0.60897 0.56753 0.48679 0.0
C2777 C 0.62251 0.58107 0.48686 0.0
C2778 C 0.63191 0.54459 0.49357 0.0
C2779 C 0.64069 0.57577 0.48984 0.0
C2780 C 0.62565 0.51096 0.49961 0.0
C2781 C 0.65877 0.5092 0.518 0.0
N2782 N 0.64483 0.55798 0.49321 0.0
N2783 N 0.65378 0.5246 0.50892 0.0
H2784 H 0.76049 0.67726 0.65786 0.0
H2785 H 0.72503 0.74186 0.57765 0.0
H2786 H 0.75356 0.66023 0.60182 0.0
H2787 H 0.72496 0.75715 0.63455 0.0
H2788 H 0.74291 0.71463 0.58528 0.0
H2789 H 0.75455 0.70884 0.64865 0.0
C2790 C 0.75822 0.68021 0.64355 0.0
C2791 C 0.75757 0.66613 0.63056 0.0
C2792 C 0.73935 0.72413 0.59607 0.0
C2793 C 0.75036 0.70212 0.61999 0.0
C2794 C 0.72933 0.73975 0.59167 0.0
C2795 C 0.72357 0.75162 0.60554 0.0
C2796 C 0.74342 0.72033 0.61447 0.0
C2797 C 0.72917 0.74819 0.62353 0.0
C2798 C 0.75467 0.69823 0.63831 0.0
C2799 C 0.75402 0.67069 0.61229 0.0
N2800 N 0.73857 0.73268 0.62755 0.0
N2801 N 0.75043 0.68826 0.60756 0.0
H2802 H 0.22496 0.7432 0.36786 0.0
H2803 H 0.25444 0.84207 0.4026 0.0
H2804 H 0.21959 0.76143 0.4236 0.0
H2805 H 0.2593 0.82421 0.34661 0.0
H2806 H 0.24645 0.81091 0.41151 0.0
H2807 H 0.24276 0.7707 0.36085 0.0
C2808 C 0.22801 0.75281 0.37871 0.0
C2809 C 0.22092 0.75015 0.3963 0.0
C2810 C 0.24957 0.81372 0.39731 0.0
C2811 C 0.24077 0.78175 0.3884 0.0
C2812 C 0.25409 0.83152 0.39222 0.0
C2813 C 0.25767 0.83573 0.37386 0.0
C2814 C 0.24831 0.80004 0.38389 0.0
C2815 C 0.25706 0.82155 0.36096 0.0
C2816 C 0.23805 0.76853 0.37472 0.0
C2817 C 0.225 0.76298 0.40991 0.0
N2818 N 0.25225 0.80437 0.3662 0.0
N2819 N 0.23446 0.77837 0.40561 0.0
H2820 H 0.4909 0.97409 0.67346 0.0
H2821 H 0.42506 0.0134 0.5963 0.0
H2822 H 0.50681 0.98089 0.61717 0.0
H2823 H 0.40883 0.00496 0.65238 0.0
H2824 H 0.45667 0.00715 0.60481 0.0
H2825 H 0.46285 0.99129 0.66734 0.0
C2826 C 0.48872 0.97976 0.65995 0.0
C2827 C 0.50107 0.97618 0.64577 0.0
C2828 C 0.44625 0.00699 0.61533 0.0
C2829 C 0.46885 0.99524 0.63846 0.0
C2830 C 0.42817 0.01076 0.61049 0.0
C2831 C 0.41427 0.00989 0.62368 0.0
C2832 C 0.45044 0.00213 0.63345 0.0
C2833 C 0.41912 0.00568 0.64176 0.0
C2834 C 0.47264 0.9894 0.65639 0.0
C2835 C 0.49753 0.98346 0.62842 0.0
N2836 N 0.43676 0.00183 0.64608 0.0
N2837 N 0.48159 0.99243 0.62516 0.0
H2838 H 0.2747 0.23962 0.92376 0.0
H2839 H 0.23641 0.17362 0.84627 0.0
H2840 H 0.26754 0.25579 0.86759 0.0
H2841 H 0.24455 0.15737 0.90239 0.0
H2842 H 0.24239 0.20525 0.85487 0.0
H2843 H 0.25797 0.21135 0.91748 0.0
C2844 C 0.26906 0.23743 0.91024 0.0
C2845 C 0.27241 0.24993 0.89614 0.0
C2846 C 0.24255 0.19482 0.86538 0.0
C2847 C 0.25388 0.21747 0.88865 0.0
C2848 C 0.23893 0.17673 0.86049 0.0
C2849 C 0.23978 0.16282 0.87367 0.0
C2850 C 0.24723 0.19901 0.88354 0.0
C2851 C 0.24385 0.16767 0.89178 0.0
C2852 C 0.25969 0.22123 0.90658 0.0
C2853 C 0.26516 0.24639 0.87877 0.0
N2854 N 0.24755 0.18532 0.89615 0.0
N2855 N 0.25646 0.23034 0.87542 0.0
H2856 H 0.58799 0.49319 0.64357 0.0
H2857 H 0.49195 0.52762 0.60798 0.0
H2858 H 0.57167 0.48989 0.58703 0.0
H2859 H 0.50493 0.52137 0.66509 0.0
H2860 H 0.51939 0.5101 0.60009 0.0
H2861 H 0.5564 0.50009 0.652 0.0
C2862 C 0.57763 0.49361 0.63298 0.0
C2863 C 0.58234 0.49084 0.61462 0.0
C2864 C 0.51605 0.51217 0.61437 0.0
C2865 C 0.54627 0.49906 0.62405 0.0
C2866 C 0.50039 0.52209 0.61884 0.0
C2867 C 0.49631 0.52585 0.63716 0.0
C2868 C 0.52784 0.5063 0.62836 0.0
C2869 C 0.50762 0.5186 0.6508 0.0
C2870 C 0.55961 0.49749 0.63778 0.0
C2871 C 0.56851 0.49156 0.60138 0.0
N2872 N 0.52306 0.5094 0.64611 0.0
N2873 N 0.55112 0.49587 0.60633 0.0
H2874 H 0.742 0.33669 0.0939 0.0
H2875 H 0.75924 0.23345 0.12373 0.0
H2876 H 0.73333 0.31631 0.14856 0.0
H2877 H 0.77484 0.25614 0.0717 0.0
H2878 H 0.74209 0.26149 0.1305 0.0
H2879 H 0.74693 0.30543 0.08335 0.0
C2880 C 0.74087 0.32559 0.10365 0.0
C2881 C 0.73723 0.32913 0.12214 0.0
C2882 C 0.74886 0.26016 0.1174 0.0
C2883 C 0.74303 0.29328 0.1102 0.0
C2884 C 0.75847 0.24413 0.1135 0.0
C2885 C 0.76844 0.24266 0.09721 0.0
C2886 C 0.74935 0.27475 0.10491 0.0
C2887 C 0.76724 0.25681 0.08439 0.0
C2888 C 0.74363 0.30774 0.0976 0.0
C2889 C 0.73578 0.31424 0.13415 0.0
N2890 N 0.75812 0.27242 0.08863 0.0
N2891 N 0.73892 0.29697 0.12801 0.0
H2892 H 0.42575 0.98393 0.90216 0.0
H2893 H 0.4914 0.02335 0.82522 0.0
H2894 H 0.41022 0.99006 0.84557 0.0
H2895 H 0.50738 0.01657 0.88151 0.0
H2896 H 0.46373 0.00558 0.83121 0.0
H2897 H 0.45733 0.9905 0.8939 0.0
C2898 C 0.42901 0.98612 0.88792 0.0
C2899 C 0.41531 0.98626 0.87451 0.0
C2900 C 0.47344 0.00761 0.84219 0.0
C2901 C 0.45144 0.99443 0.86502 0.0
C2902 C 0.48931 0.01758 0.83871 0.0
C2903 C 0.50156 0.02135 0.85293 0.0
C2904 C 0.46973 0.00163 0.86008 0.0
C2905 C 0.49815 0.0139 0.87024 0.0
C2906 C 0.44708 0.99008 0.88322 0.0
C2907 C 0.42035 0.98992 0.85637 0.0
N2908 N 0.48239 0.00462 0.87343 0.0
N2909 N 0.43797 0.994 0.85218 0.0
H2910 H 0.99398 0.98016 0.38118 0.0
H2911 H 0.09241 0.00741 0.34326 0.0
H2912 H 0.01074 0.97325 0.32515 0.0
H2913 H 0.07662 0.01152 0.39994 0.0
H2914 H 0.06078 0.0002 0.33533 0.0
H2915 H 0.02201 0.99752 0.38715 0.0
C2916 C 0.00338 0.9828 0.37004 0.0
C2917 C 0.00017 0.97536 0.35269 0.0
C2918 C 0.06416 0.003 0.34948 0.0
C2919 C 0.03236 0.99469 0.3594 0.0
C2920 C 0.08223 0.00707 0.35402 0.0
C2921 C 0.08716 0.01022 0.37228 0.0
C2922 C 0.05094 0.00179 0.36335 0.0
C2923 C 0.07342 0.00963 0.38565 0.0
C2924 C 0.01941 0.99256 0.37344 0.0
C2925 C 0.01273 0.97892 0.33868 0.0
N2926 N 0.05598 0.0053 0.38094 0.0
N2927 N 0.02842 0.98812 0.3424 0.0
H2928 H 0.17091 0.1054 0.39741 0.0
H2929 H 0.07932 0.1474 0.35491 0.0
H2930 H 0.11743 0.08142 0.40369 0.0
H2931 H 0.13255 0.15157 0.32986 0.0
H2932 H 0.09349 0.13213 0.38135 0.0
H2933 H 0.15685 0.13137 0.38123 0.0
C2934 C 0.15618 0.1059 0.39584 0.0
C2935 C 0.14527 0.09124 0.40152 0.0
C2936 C 0.10205 0.13681 0.37021 0.0
C2937 C 0.12924 0.12064 0.38342 0.0
C2938 C 0.09401 0.14551 0.35521 0.0
C2939 C 0.10479 0.15034 0.34015 0.0
C2940 C 0.12096 0.13333 0.37014 0.0
C2941 C 0.12376 0.14767 0.34112 0.0
C2942 C 0.1482 0.12061 0.3866 0.0
C2943 C 0.12628 0.0924 0.39918 0.0
N2944 N 0.13125 0.13919 0.3558 0.0
N2945 N 0.11885 0.10677 0.39015 0.0
H2946 H 0.14323 0.92013 0.64985 0.0
H2947 H 0.09819 0.83159 0.60402 0.0
H2948 H 0.16736 0.86633 0.65134 0.0
H2949 H 0.09256 0.88617 0.58242 0.0
H2950 H 0.11581 0.84409 0.6298 0.0
H2951 H 0.11682 0.90732 0.63339 0.0
C2952 C 0.14274 0.90558 0.6471 0.0
C2953 C 0.15753 0.89428 0.6516 0.0
C2954 C 0.11036 0.85331 0.61957 0.0
C2955 C 0.12756 0.87963 0.63322 0.0
C2956 C 0.10031 0.84622 0.60495 0.0
C2957 C 0.0943 0.85787 0.591 0.0
C2958 C 0.11403 0.87216 0.62028 0.0
C2959 C 0.09734 0.87673 0.59277 0.0
C2960 C 0.12776 0.89832 0.63771 0.0
C2961 C 0.15632 0.87552 0.64777 0.0
N2962 N 0.10712 0.8833 0.60708 0.0
N2963 N 0.14165 0.86878 0.63868 0.0
H2964 H 0.36519 0.84399 0.83011 0.0
H2965 H 0.38388 0.9154 0.9051 0.0
H2966 H 0.41855 0.8486 0.85478 0.0
H2967 H 0.33018 0.89212 0.89832 0.0
H2968 H 0.39704 0.88934 0.88893 0.0
H2969 H 0.35187 0.85942 0.85652 0.0
C2970 C 0.37405 0.84803 0.84128 0.0
C2971 C 0.39301 0.84535 0.8402 0.0
C2972 C 0.38243 0.88964 0.89134 0.0
C2973 C 0.37792 0.86322 0.87029 0.0
C2974 C 0.37492 0.90454 0.90049 0.0
C2975 C 0.35594 0.90591 0.90277 0.0
C2976 C 0.3708 0.87633 0.88394 0.0
C2977 C 0.34489 0.89151 0.89672 0.0
C2978 C 0.36643 0.85671 0.85639 0.0
C2979 C 0.40388 0.85057 0.85508 0.0
N2980 N 0.35244 0.87747 0.88713 0.0
N2981 N 0.39622 0.85969 0.86937 0.0
H2982 H 0.3985 0.16857 0.10393 0.0
H2983 H 0.35432 0.07816 0.1467 0.0
H2984 H 0.40366 0.11486 0.08011 0.0
H2985 H 0.33018 0.13182 0.15064 0.0
H2986 H 0.38077 0.09171 0.1309 0.0
H2987 H 0.38173 0.15502 0.12975 0.0
C2988 C 0.3965 0.15391 0.10439 0.0
C2989 C 0.40209 0.14281 0.08981 0.0
C2990 C 0.36983 0.10051 0.13564 0.0
C2991 C 0.38334 0.12733 0.11913 0.0
C2992 C 0.35484 0.09282 0.14466 0.0
C2993 C 0.34002 0.1039 0.1496 0.0
C2994 C 0.37001 0.11937 0.13196 0.0
C2995 C 0.34125 0.12281 0.14669 0.0
C2996 C 0.38694 0.14621 0.11904 0.0
C2997 C 0.39922 0.12389 0.09098 0.0
N2998 N 0.35592 0.12996 0.13792 0.0
N2999 N 0.3899 0.11674 0.10532 0.0
H3000 H 0.07905 0.84748 0.14507 0.0
H3001 H 0.16778 0.89205 0.09936 0.0
H3002 H 0.13353 0.84198 0.16701 0.0
H3003 H 0.11419 0.9167 0.09854 0.0
H3004 H 0.15482 0.8655 0.11549 0.0
H3005 H 0.09173 0.86468 0.11911 0.0
C3006 C 0.0937 0.84951 0.14416 0.0
C3007 C 0.10527 0.84369 0.15827 0.0
C3008 C 0.1459 0.87659 0.11138 0.0
C3009 C 0.11974 0.86293 0.12879 0.0
C3010 C 0.15325 0.89165 0.1022 0.0
C3011 C 0.14204 0.9066 0.098 0.0
C3012 C 0.12723 0.87649 0.11594 0.0
C3013 C 0.1233 0.90551 0.1019 0.0
C3014 C 0.10089 0.85931 0.12944 0.0
C3015 C 0.12415 0.84659 0.15652 0.0
N3016 N 0.11648 0.89075 0.11077 0.0
N3017 N 0.13081 0.85616 0.14211 0.0
H3018 H 0.33015 0.86432 0.34485 0.0
H3019 H 0.40531 0.88431 0.4155 0.0
H3020 H 0.35589 0.91729 0.34715 0.0
H3021 H 0.39826 0.82997 0.39376 0.0
H3022 H 0.38922 0.89677 0.38907 0.0
H3023 H 0.35637 0.85111 0.36071 0.0
C3024 C 0.34153 0.8731 0.34844 0.0
C3025 C 0.34083 0.89194 0.34499 0.0
C3026 C 0.39154 0.88216 0.38982 0.0
C3027 C 0.37065 0.87702 0.3634 0.0
C3028 C 0.40061 0.87504 0.40494 0.0
C3029 C 0.40281 0.8561 0.40685 0.0
C3030 C 0.38414 0.87019 0.3768 0.0
C3031 C 0.3967 0.84466 0.39276 0.0
C3032 C 0.35652 0.86554 0.35739 0.0
C3033 C 0.35594 0.90271 0.34969 0.0
N3034 N 0.3872 0.85186 0.37849 0.0
N3035 N 0.3701 0.89516 0.35911 0.0
H3036 H 0.32892 0.10557 0.6011 0.0
H3037 H 0.41909 0.14888 0.64529 0.0
H3038 H 0.38248 0.08108 0.59784 0.0
H3039 H 0.36507 0.15462 0.66825 0.0
H3040 H 0.40576 0.1323 0.61923 0.0
H3041 H 0.34242 0.13186 0.61721 0.0
C3042 C 0.34355 0.10596 0.60339 0.0
C3043 C 0.3546 0.0911 0.59852 0.0
C3044 C 0.39684 0.13759 0.6298 0.0
C3045 C 0.37003 0.12092 0.61648 0.0
C3046 C 0.40441 0.14705 0.64458 0.0
C3047 C 0.39315 0.15274 0.65899 0.0
C3048 C 0.37793 0.13419 0.62943 0.0
C3049 C 0.37421 0.1501 0.65751 0.0
C3050 C 0.35121 0.12087 0.61256 0.0
C3051 C 0.37348 0.09218 0.60173 0.0
N3052 N 0.36718 0.14086 0.64306 0.0
N3053 N 0.3806 0.10678 0.61064 0.0
H3054 H 0.10045 0.16846 0.89487 0.0
H3055 H 0.14397 0.0781 0.85103 0.0
H3056 H 0.09464 0.11454 0.91803 0.0
H3057 H 0.16859 0.13156 0.84772 0.0
H3058 H 0.11776 0.0917 0.86721 0.0
H3059 H 0.11737 0.15503 0.86906 0.0
C3060 C 0.10233 0.15378 0.89426 0.0
C3061 C 0.09649 0.14258 0.90864 0.0
C3062 C 0.12875 0.10045 0.86255 0.0
C3063 C 0.11544 0.12724 0.87935 0.0
C3064 C 0.14362 0.09273 0.85331 0.0
C3065 C 0.15849 0.10373 0.84839 0.0
C3066 C 0.12876 0.11927 0.86647 0.0
C3067 C 0.15747 0.12261 0.85163 0.0
C3068 C 0.112 0.14616 0.87962 0.0
C3069 C 0.09925 0.12364 0.9073 0.0
N3070 N 0.14291 0.12979 0.86059 0.0
N3071 N 0.10866 0.11656 0.89297 0.0
H3072 H 0.15422 0.32926 0.13555 0.0
H3073 H 0.0821 0.4043 0.11575 0.0
H3074 H 0.14769 0.35193 0.08152 0.0
H3075 H 0.10598 0.39839 0.16931 0.0
H3076 H 0.10751 0.38705 0.10272 0.0
H3077 H 0.13837 0.35571 0.14833 0.0
C3078 C 0.14959 0.33994 0.12641 0.0
C3079 C 0.1519 0.33829 0.10744 0.0
C3080 C 0.10747 0.38986 0.11726 0.0
C3081 C 0.13368 0.36851 0.12193 0.0
C3082 C 0.09295 0.39965 0.1247 0.0
C3083 C 0.09194 0.40255 0.14362 0.0
C3084 C 0.12078 0.38245 0.12891 0.0
C3085 C 0.10633 0.39637 0.15465 0.0
C3086 C 0.1407 0.35511 0.13372 0.0
C3087 C 0.14603 0.35266 0.09621 0.0
N3088 N 0.11999 0.38619 0.14717 0.0
N3089 N 0.1368 0.36702 0.1036 0.0
H3090 H 0.58049 0.09417 0.88399 0.0
H3091 H 0.65188 0.16881 0.86267 0.0
H3092 H 0.60319 0.09983 0.82987 0.0
H3093 H 0.64796 0.14526 0.91659 0.0
H3094 H 0.63583 0.14239 0.85019 0.0
H3095 H 0.60645 0.11101 0.89642 0.0
C3096 C 0.59115 0.09871 0.87477 0.0
C3097 C 0.58964 0.0959 0.85587 0.0
C3098 C 0.63881 0.14277 0.86469 0.0
C3099 C 0.61915 0.11542 0.86993 0.0
C3100 C 0.64785 0.1579 0.87184 0.0
C3101 C 0.65094 0.15928 0.89071 0.0
C3102 C 0.63237 0.12918 0.87658 0.0
C3103 C 0.6457 0.14471 0.90198 0.0
C3104 C 0.60601 0.10823 0.88188 0.0
C3105 C 0.60387 0.10184 0.84452 0.0
N3106 N 0.63624 0.1304 0.89478 0.0
N3107 N 0.61787 0.11175 0.85169 0.0
H3108 H 0.89652 0.90027 0.32926 0.0
H3109 H 0.85197 0.85428 0.41793 0.0
H3110 H 0.91993 0.9033 0.38332 0.0
H3111 H 0.84723 0.83256 0.36331 0.0
H3112 H 0.86871 0.88068 0.40547 0.0
H3113 H 0.87014 0.88387 0.34212 0.0
C3114 C 0.89586 0.89789 0.34387 0.0
C3115 C 0.91048 0.90277 0.35523 0.0
C3116 C 0.86361 0.8703 0.39623 0.0
C3117 C 0.88055 0.88437 0.36993 0.0
C3118 C 0.85406 0.85533 0.4033 0.0
C3119 C 0.84858 0.84119 0.39161 0.0
C3120 C 0.8673 0.87114 0.37738 0.0
C3121 C 0.85157 0.84309 0.37277 0.0
C3122 C 0.8809 0.88852 0.35116 0.0
C3123 C 0.90904 0.89942 0.37407 0.0
N3124 N 0.86086 0.85772 0.36623 0.0
N3125 N 0.89441 0.89027 0.38083 0.0
H3126 H 0.85018 0.14463 0.07731 0.0
H3127 H 0.89274 0.10011 0.16771 0.0
H3128 H 0.8447 0.16779 0.13129 0.0
H3129 H 0.91586 0.09413 0.11378 0.0
H3130 H 0.86702 0.11715 0.15429 0.0
H3131 H 0.86627 0.11835 0.09071 0.0
C3132 C 0.85205 0.14399 0.092 0.0
C3133 C 0.84653 0.15852 0.10321 0.0
C3134 C 0.87755 0.11172 0.14541 0.0
C3135 C 0.86456 0.12863 0.11852 0.0
C3136 C 0.89212 0.10197 0.15302 0.0
C3137 C 0.90649 0.09606 0.14182 0.0
C3138 C 0.87734 0.11522 0.12651 0.0
C3139 C 0.90515 0.09879 0.12289 0.0
C3140 C 0.86122 0.12907 0.0996 0.0
C3141 C 0.84918 0.15704 0.12215 0.0
N3142 N 0.89091 0.10832 0.11582 0.0
N3143 N 0.85815 0.14243 0.12922 0.0
H3144 H 0.34524 0.66918 0.6332 0.0
H3145 H 0.41472 0.59203 0.61442 0.0
H3146 H 0.34956 0.64453 0.57981 0.0
H3147 H 0.39237 0.60048 0.66829 0.0
H3148 H 0.38904 0.60883 0.60132 0.0
H3149 H 0.36014 0.6425 0.64652 0.0
C3150 C 0.34912 0.65798 0.62432 0.0
C3151 C 0.34649 0.65912 0.60536 0.0
C3152 C 0.38945 0.60665 0.61596 0.0
C3153 C 0.36379 0.62869 0.62046 0.0
C3154 C 0.40413 0.59712 0.62344 0.0
C3155 C 0.40567 0.59512 0.64243 0.0
C3156 C 0.37654 0.61471 0.62763 0.0
C3157 C 0.39161 0.60182 0.65356 0.0
C3158 C 0.35751 0.6427 0.63194 0.0
C3159 C 0.35149 0.64417 0.59448 0.0
N3160 N 0.37781 0.61176 0.64602 0.0
N3161 N 0.36033 0.6297 0.60215 0.0
H3162 H 0.14563 0.6464 0.421 0.0
H3163 H 0.10363 0.6018 0.3303 0.0
H3164 H 0.15089 0.66975 0.36711 0.0
H3165 H 0.08009 0.59592 0.38406 0.0
H3166 H 0.12923 0.61887 0.34391 0.0
H3167 H 0.12982 0.61996 0.40748 0.0
C3168 C 0.14386 0.64572 0.40631 0.0
C3169 C 0.14921 0.66033 0.39515 0.0
C3170 C 0.11862 0.61346 0.35271 0.0
C3171 C 0.13148 0.63034 0.37969 0.0
C3172 C 0.10411 0.60372 0.34499 0.0
C3173 C 0.08966 0.5978 0.35608 0.0
C3174 C 0.11872 0.61695 0.37162 0.0
C3175 C 0.09085 0.60059 0.37503 0.0
C3176 C 0.13482 0.63073 0.39863 0.0
C3177 C 0.14663 0.65887 0.37619 0.0
N3178 N 0.10505 0.6101 0.3822 0.0
N3179 N 0.13781 0.64421 0.36906 0.0
H3180 H 0.34682 0.35421 0.92042 0.0
H3181 H 0.39219 0.39931 0.83178 0.0
H3182 H 0.3429 0.33171 0.86604 0.0
H3183 H 0.41449 0.4032 0.88622 0.0
H3184 H 0.36553 0.38309 0.84436 0.0
H3185 H 0.36304 0.38079 0.90774 0.0
C3186 C 0.34896 0.35511 0.90579 0.0
C3187 C 0.34392 0.34067 0.89426 0.0
C3188 C 0.37609 0.38792 0.85354 0.0
C3189 C 0.36209 0.37084 0.87977 0.0
C3190 C 0.39121 0.39718 0.8464 0.0
C3191 C 0.40559 0.40221 0.85799 0.0
C3192 C 0.37537 0.38406 0.87237 0.0
C3193 C 0.40377 0.39918 0.87684 0.0
C3194 C 0.35821 0.37019 0.89859 0.0
C3195 C 0.34694 0.34243 0.8754 0.0
N3196 N 0.389 0.39015 0.88344 0.0
N3197 N 0.356 0.35717 0.86874 0.0
H3198 H 0.61508 0.57862 0.90455 0.0
H3199 H 0.6321 0.6492 0.82845 0.0
H3200 H 0.66822 0.60327 0.8981 0.0
H3201 H 0.57931 0.64572 0.85448 0.0
H3202 H 0.64582 0.63373 0.85466 0.0
H3203 H 0.60147 0.60401 0.88765 0.0
C3204 C 0.62382 0.58962 0.89984 0.0
C3205 C 0.64279 0.58885 0.90249 0.0
C3206 C 0.63131 0.63669 0.85486 0.0
C3207 C 0.6274 0.61765 0.88286 0.0
C3208 C 0.62346 0.6454 0.83987 0.0
C3209 C 0.60454 0.64848 0.83929 0.0
C3210 C 0.62007 0.63053 0.86911 0.0
C3211 C 0.59395 0.64349 0.85445 0.0
C3212 C 0.61604 0.60413 0.89029 0.0
C3213 C 0.65353 0.60341 0.89626 0.0
N3214 N 0.60181 0.63432 0.86861 0.0
N3215 N 0.64573 0.61706 0.8863 0.0
H3216 H 0.64572 0.41686 0.14801 0.0
H3217 H 0.59931 0.32803 0.10444 0.0
H3218 H 0.66752 0.36228 0.1529 0.0
H3219 H 0.59623 0.38199 0.08081 0.0
H3220 H 0.6159 0.34095 0.13066 0.0
H3221 H 0.61905 0.40427 0.13183 0.0
C3222 C 0.64463 0.40221 0.1461 0.0
C3223 C 0.65888 0.39057 0.1514 0.0
C3224 C 0.61121 0.34996 0.11988 0.0
C3225 C 0.62865 0.3762 0.1333 0.0
C3226 C 0.60176 0.34263 0.10499 0.0
C3227 C 0.5968 0.35395 0.09036 0.0
C3228 C 0.61535 0.36872 0.12015 0.0
C3229 C 0.6002 0.37277 0.0917 0.0
C3230 C 0.62951 0.39507 0.13686 0.0
C3231 C 0.65691 0.3717 0.14866 0.0
N3232 N 0.60942 0.37957 0.10627 0.0
N3233 N 0.64214 0.36509 0.13964 0.0
H3234 H 0.86675 0.34295 0.32912 0.0
H3235 H 0.88411 0.4167 0.40212 0.0
H3236 H 0.9198 0.34873 0.35413 0.0
H3237 H 0.83065 0.39275 0.39557 0.0
H3238 H 0.8976 0.39032 0.38678 0.0
H3239 H 0.853 0.35888 0.35502 0.0
C3240 C 0.87543 0.34727 0.34032 0.0
C3241 C 0.89442 0.34478 0.3395 0.0
C3242 C 0.88296 0.39059 0.38905 0.0
C3243 C 0.87888 0.36337 0.3689 0.0
C3244 C 0.87525 0.40568 0.3977 0.0
C3245 C 0.85624 0.40696 0.39981 0.0
C3246 C 0.87152 0.37692 0.38199 0.0
C3247 C 0.84537 0.39228 0.39407 0.0
C3248 C 0.86758 0.35629 0.35513 0.0
C3249 C 0.9051 0.35048 0.35432 0.0
N3250 N 0.85313 0.37802 0.38498 0.0
N3251 N 0.89722 0.35997 0.36826 0.0
H3252 H 0.82913 0.63385 0.65479 0.0
H3253 H 0.89974 0.61413 0.57924 0.0
H3254 H 0.85258 0.58009 0.64865 0.0
H3255 H 0.89602 0.66768 0.60365 0.0
H3256 H 0.88428 0.60119 0.60581 0.0
H3257 H 0.8549 0.64676 0.63798 0.0
C3258 C 0.83993 0.62482 0.65016 0.0
C3259 C 0.83868 0.60588 0.65282 0.0
C3260 C 0.88718 0.61571 0.60558 0.0
C3261 C 0.86794 0.62048 0.63332 0.0
C3262 C 0.89588 0.62312 0.59038 0.0
C3263 C 0.89885 0.64202 0.58921 0.0
C3264 C 0.88093 0.62737 0.61946 0.0
C3265 C 0.89384 0.65305 0.60404 0.0
C3266 C 0.85467 0.6322 0.64066 0.0
C3267 C 0.85305 0.59477 0.64676 0.0
N3268 N 0.88468 0.64561 0.61842 0.0
N3269 N 0.86693 0.60219 0.63685 0.0
H3270 H 0.61444 0.41804 0.59198 0.0
H3271 H 0.63138 0.34794 0.66939 0.0
H3272 H 0.66787 0.39481 0.60104 0.0
H3273 H 0.57838 0.35304 0.64404 0.0
H3274 H 0.64517 0.36321 0.64318 0.0
H3275 H 0.60081 0.39285 0.60908 0.0
C3276 C 0.62326 0.4074 0.59732 0.0
C3277 C 0.6423 0.40856 0.59537 0.0
C3278 C 0.63058 0.36069 0.64313 0.0
C3279 C 0.62686 0.37993 0.61521 0.0
C3280 C 0.62268 0.35208 0.65814 0.0
C3281 C 0.60369 0.34952 0.65895 0.0
C3282 C 0.61935 0.36723 0.62904 0.0
C3283 C 0.59307 0.35489 0.64394 0.0
C3284 C 0.61547 0.39299 0.607 0.0
C3285 C 0.65314 0.39439 0.60235 0.0
N3286 N 0.601 0.3639 0.62973 0.0
N3287 N 0.64528 0.38084 0.61237 0.0
H3288 H 0.90408 0.38593 0.91796 0.0
H3289 H 0.83126 0.36549 0.84513 0.0
H3290 H 0.89923 0.33195 0.89476 0.0
H3291 H 0.85531 0.41913 0.84933 0.0
H3292 H 0.85757 0.35264 0.86114 0.0
H3293 H 0.88828 0.39854 0.89143 0.0
C3294 C 0.89992 0.37678 0.90707 0.0
C3295 C 0.90265 0.35787 0.90858 0.0
C3296 C 0.85735 0.36715 0.85819 0.0
C3297 C 0.88433 0.37213 0.8784 0.0
C3298 C 0.84231 0.3745 0.84915 0.0
C3299 C 0.8411 0.3934 0.8462 0.0
C3300 C 0.87098 0.37889 0.86481 0.0
C3301 C 0.85577 0.40449 0.85147 0.0
C3302 C 0.89102 0.38399 0.89189 0.0
C3303 C 0.89724 0.3466 0.89408 0.0
N3304 N 0.86996 0.39712 0.86098 0.0
N3305 N 0.88789 0.35386 0.87973 0.0
H3306 H 0.82906 0.60369 0.10196 0.0
H3307 H 0.91895 0.64696 0.14686 0.0
H3308 H 0.88281 0.57963 0.09831 0.0
H3309 H 0.86459 0.65459 0.16843 0.0
H3310 H 0.90589 0.62954 0.12128 0.0
H3311 H 0.84232 0.62963 0.11877 0.0
C3312 C 0.84367 0.60408 0.10436 0.0
C3313 C 0.85485 0.58944 0.0991 0.0
C3314 C 0.89684 0.63532 0.13149 0.0
C3315 C 0.87 0.61888 0.11793 0.0
C3316 C 0.90426 0.64526 0.146 0.0
C3317 C 0.89282 0.65179 0.15991 0.0
C3318 C 0.87789 0.63221 0.13085 0.0
C3319 C 0.87388 0.64933 0.15819 0.0
C3320 C 0.8512 0.61879 0.11396 0.0
C3321 C 0.8737 0.59054 0.10248 0.0
N3322 N 0.86699 0.63959 0.14399 0.0
N3323 N 0.88068 0.60495 0.1118 0.0
H3324 H 0.59572 0.61342 0.4175 0.0
H3325 H 0.66652 0.63288 0.34229 0.0
H3326 H 0.59946 0.66675 0.39268 0.0
H3327 H 0.64416 0.57884 0.34943 0.0
H3328 H 0.64024 0.6457 0.35836 0.0
H3329 H 0.6111 0.60021 0.39103 0.0
C3330 C 0.59956 0.62229 0.40628 0.0
C3331 C 0.59666 0.64121 0.40732 0.0
C3332 C 0.6408 0.63108 0.35605 0.0
C3333 C 0.6145 0.62627 0.37717 0.0
C3334 C 0.65582 0.62376 0.34697 0.0
C3335 C 0.65751 0.6048 0.34484 0.0
C3336 C 0.62768 0.61928 0.36353 0.0
C3337 C 0.64331 0.59354 0.35094 0.0
C3338 C 0.60821 0.61474 0.39112 0.0
C3339 C 0.60161 0.65211 0.39238 0.0
N3340 N 0.62913 0.60093 0.36047 0.0
N3341 N 0.61074 0.64453 0.37805 0.0
H3342 H 0.65354 0.83086 0.63293 0.0
H3343 H 0.58031 0.90461 0.61402 0.0
H3344 H 0.64714 0.85426 0.57919 0.0
H3345 H 0.60427 0.89858 0.66755 0.0
H3346 H 0.60621 0.88827 0.6008 0.0
H3347 H 0.63762 0.85709 0.64603 0.0
C3348 C 0.64903 0.84174 0.62393 0.0
C3349 C 0.65138 0.84036 0.60495 0.0
C3350 C 0.60605 0.89085 0.61538 0.0
C3351 C 0.63287 0.8702 0.6198 0.0
C3352 C 0.59123 0.90009 0.62295 0.0
C3353 C 0.59009 0.90267 0.64192 0.0
C3354 C 0.61958 0.88369 0.62693 0.0
C3355 C 0.60465 0.89675 0.65287 0.0
C3356 C 0.64004 0.85674 0.63143 0.0
C3357 C 0.6455 0.85484 0.5939 0.0
N3358 N 0.61864 0.88712 0.64525 0.0
N3359 N 0.63608 0.86901 0.60145 0.0
H3360 H 0.94332 0.25039 0.3342 0.0
H3361 H 0.05243 0.24223 0.33647 0.0
H3362 H 0.97951 0.295 0.32084 0.0
H3363 H 0.01708 0.19733 0.32188 0.0
H3364 H 0.0253 0.26171 0.3404 0.0
H3365 H 0.97018 0.23073 0.33922 0.0
C3366 C 0.9569 0.25609 0.33263 0.0
C3367 C 0.95929 0.2742 0.32687 0.0
C3368 C 0.02355 0.2475 0.33661 0.0
C3369 C 0.98978 0.25209 0.33283 0.0
C3370 C 0.03896 0.23641 0.33444 0.0
C3371 C 0.03691 0.21828 0.32863 0.0
C3372 C 0.00609 0.24023 0.33327 0.0
C3373 C 0.0192 0.21135 0.32613 0.0
C3374 C 0.97215 0.24491 0.33543 0.0
C3375 C 0.97713 0.281 0.325 0.0
N3376 N 0.00443 0.22236 0.32841 0.0
N3377 N 0.99172 0.26992 0.32794 0.0
H3378 H 0.05411 0.75794 0.58635 0.0
H3379 H 0.95168 0.72895 0.5644 0.0
H3380 H 0.0121 0.79549 0.56868 0.0
H3381 H 0.99003 0.69248 0.59052 0.0
H3382 H 0.9734 0.75388 0.56784 0.0
H3383 H 0.03077 0.73423 0.59011 0.0
C3384 C 0.03997 0.76128 0.58348 0.0
C3385 C 0.03509 0.77867 0.57696 0.0
C3386 C 0.97707 0.74049 0.573 0.0
C3387 C 0.0084 0.75161 0.58112 0.0
C3388 C 0.96466 0.72622 0.57099 0.0
C3389 C 0.96914 0.70859 0.57703 0.0
C3390 C 0.99424 0.73711 0.58089 0.0
C3391 C 0.98607 0.70588 0.58564 0.0
C3392 C 0.02666 0.74773 0.58563 0.0
C3393 C 0.01655 0.78224 0.57355 0.0
N3394 N 0.99815 0.71997 0.58711 0.0
N3395 N 0.00394 0.76879 0.57548 0.0
H3396 H 0.51873 0.69887 0.8233 0.0
H3397 H 0.48218 0.79924 0.82176 0.0
H3398 H 0.55443 0.7443 0.83504 0.0
H3399 H 0.44723 0.7542 0.83685 0.0
H3400 H 0.5089 0.77961 0.82614 0.0
H3401 H 0.4923 0.7188 0.82778 0.0
C3402 C 0.52097 0.71303 0.82701 0.0
C3403 C 0.53874 0.72004 0.82868 0.0
C3404 C 0.49541 0.7741 0.82877 0.0
C3405 C 0.5086 0.74293 0.83355 0.0
C3406 C 0.48016 0.78524 0.82618 0.0
C3407 C 0.4625 0.77824 0.82881 0.0
C3408 C 0.49294 0.75572 0.83358 0.0
C3409 C 0.46063 0.76009 0.83467 0.0
C3410 C 0.50589 0.72435 0.82966 0.0
C3411 C 0.54092 0.73842 0.83364 0.0
N3412 N 0.47568 0.74932 0.83655 0.0
N3413 N 0.52599 0.74936 0.83557 0.0
H3414 H 0.55006 0.26602 0.0745 0.0
H3415 H 0.44971 0.23014 0.07525 0.0
H3416 H 0.50507 0.30143 0.08874 0.0
H3417 H 0.49501 0.19427 0.08713 0.0
H3418 H 0.46955 0.2565 0.08042 0.0
H3419 H 0.53037 0.23948 0.07935 0.0
C3420 C 0.53607 0.26817 0.07887 0.0
C3421 C 0.52908 0.28589 0.08107 0.0
C3422 C 0.47508 0.24288 0.08221 0.0
C3423 C 0.50647 0.25567 0.08636 0.0
C3424 C 0.46381 0.22785 0.07917 0.0
C3425 C 0.47083 0.21006 0.08061 0.0
C3426 C 0.49361 0.24009 0.08627 0.0
C3427 C 0.48912 0.20779 0.08587 0.0
C3428 C 0.52489 0.25303 0.08173 0.0
C3429 C 0.51094 0.28796 0.08688 0.0
N3430 N 0.50002 0.22268 0.08817 0.0
N3431 N 0.50011 0.273 0.08899 0.0
H3432 H 0.94598 0.74323 0.15921 0.0
H3433 H 0.05509 0.75103 0.16039 0.0
H3434 H 0.98181 0.698 0.17161 0.0
H3435 H 0.01873 0.79593 0.1724 0.0
H3436 H 0.02836 0.73148 0.15475 0.0
H3437 H 0.9729 0.7626 0.15415 0.0
C3438 C 0.95949 0.73729 0.16047 0.0
C3439 C 0.96174 0.7191 0.16607 0.0
C3440 C 0.02631 0.7457 0.15833 0.0
C3441 C 0.99238 0.74102 0.16024 0.0
C3442 C 0.0415 0.75684 0.16148 0.0
C3443 C 0.03903 0.77499 0.1671 0.0
C3444 C 0.00864 0.75293 0.16054 0.0
C3445 C 0.02117 0.7819 0.16836 0.0
C3446 C 0.9748 0.74834 0.15767 0.0
C3447 C 0.97953 0.71206 0.16756 0.0
N3448 N 0.00664 0.77083 0.16519 0.0
N3449 N 0.9942 0.72307 0.16479 0.0
H3450 H 0.55656 0.73858 0.40998 0.0
H3451 H 0.4552 0.7696 0.43507 0.0
H3452 H 0.51605 0.70336 0.43453 0.0
H3453 H 0.49295 0.80444 0.40603 0.0
H3454 H 0.47676 0.74444 0.43243 0.0
H3455 H 0.53305 0.76207 0.40584 0.0
C3456 C 0.5427 0.7357 0.41432 0.0
C3457 C 0.53831 0.71906 0.42282 0.0
C3458 C 0.48034 0.75752 0.42647 0.0
C3459 C 0.51143 0.74585 0.41819 0.0
C3460 C 0.46802 0.77192 0.42801 0.0
C3461 C 0.47238 0.78919 0.42093 0.0
C3462 C 0.4973 0.76039 0.41798 0.0
C3463 C 0.48909 0.79135 0.41173 0.0
C3464 C 0.5293 0.74912 0.41195 0.0
C3465 C 0.52012 0.71604 0.42808 0.0
N3466 N 0.50108 0.77714 0.41072 0.0
N3467 N 0.50741 0.72936 0.42582 0.0
H3468 H 0.55164 0.25727 0.66217 0.0
H3469 H 0.4428 0.24622 0.66313 0.0
H3470 H 0.51476 0.30144 0.67525 0.0
H3471 H 0.48 0.20233 0.6762 0.0
H3472 H 0.46912 0.26657 0.65854 0.0
H3473 H 0.52521 0.23695 0.65822 0.0
C3474 C 0.53799 0.26276 0.66386 0.0
C3475 C 0.53533 0.28097 0.66922 0.0
C3476 C 0.47146 0.25241 0.66217 0.0
C3477 C 0.50524 0.25798 0.6646 0.0
C3478 C 0.4565 0.24081 0.66471 0.0
C3479 C 0.45929 0.22267 0.67023 0.0
C3480 C 0.48925 0.24566 0.66485 0.0
C3481 C 0.47729 0.21631 0.67216 0.0
C3482 C 0.52296 0.25117 0.6617 0.0
C3483 C 0.51737 0.28741 0.67132 0.0
N3484 N 0.49161 0.22781 0.66952 0.0
N3485 N 0.50298 0.27591 0.66906 0.0
H3486 H 0.04427 0.22989 0.93441 0.0
H3487 H 0.94233 0.26062 0.91159 0.0
H3488 H 0.00589 0.1948 0.90656 0.0
H3489 H 0.98342 0.2961 0.93478 0.0
H3490 H 0.96577 0.23716 0.90694 0.0
H3491 H 0.0227 0.25507 0.93192 0.0
C3492 C 0.03131 0.22753 0.92763 0.0
C3493 C 0.02676 0.21019 0.92085 0.0
C3494 C 0.96967 0.25016 0.91285 0.0
C3495 C 0.00183 0.23899 0.91811 0.0
C3496 C 0.9563 0.26356 0.91551 0.0
C3497 C 0.96088 0.28027 0.9238 0.0
C3498 C 0.98769 0.25351 0.91857 0.0
C3499 C 0.9792 0.28336 0.92853 0.0
C3500 C 0.01899 0.24194 0.92618 0.0
C3501 C 0.00989 0.20796 0.912 0.0
N3502 N 0.99187 0.27006 0.92599 0.0
N3503 N 0.99789 0.22217 0.9111 0.0
H3504 H 0.33506 0.05269 0.24337 0.0
H3505 H 0.33531 0.94344 0.2498 0.0
H3506 H 0.32019 0.01768 0.19828 0.0
H3507 H 0.32275 0.97842 0.29562 0.0
H3508 H 0.3388 0.97076 0.2305 0.0
H3509 H 0.33953 0.02539 0.26249 0.0
C3510 C 0.33302 0.03927 0.23745 0.0
C3511 C 0.32705 0.03738 0.21934 0.0
C3512 C 0.33552 0.97238 0.24485 0.0
C3513 C 0.33236 0.00633 0.24088 0.0
C3514 C 0.33361 0.95686 0.25584 0.0
C3515 C 0.32854 0.95874 0.27422 0.0
C3516 C 0.3327 0.9898 0.25246 0.0
C3517 C 0.32644 0.97641 0.28142 0.0
C3518 C 0.33551 0.02376 0.24833 0.0
C3519 C 0.32457 0.01971 0.21228 0.0
N3520 N 0.32849 0.99128 0.27052 0.0
N3521 N 0.32721 0.00485 0.22307 0.0
H3522 H 0.2308 0.07126 0.45022 0.0
H3523 H 0.26881 0.0734 0.54965 0.0
H3524 H 0.19608 0.08682 0.4953 0.0
H3525 H 0.30337 0.08695 0.50382 0.0
H3526 H 0.24189 0.07755 0.53026 0.0
H3527 H 0.25763 0.07613 0.46952 0.0
C3528 C 0.22886 0.07585 0.46418 0.0
C3529 C 0.21125 0.0785 0.47129 0.0
C3530 C 0.25534 0.07991 0.52452 0.0
C3531 C 0.24181 0.08385 0.49344 0.0
C3532 C 0.27069 0.07745 0.53552 0.0
C3533 C 0.28828 0.0797 0.52822 0.0
C3534 C 0.25764 0.08418 0.50599 0.0
C3535 C 0.29001 0.08508 0.50992 0.0
C3536 C 0.24417 0.07874 0.47512 0.0
C3537 C 0.20946 0.08461 0.48936 0.0
N3538 N 0.27484 0.0868 0.49928 0.0
N3539 N 0.22459 0.08676 0.49997 0.0
H3540 H 0.16114 0.94424 0.74675 0.0
H3541 H 0.16267 0.05347 0.75345 0.0
H3542 H 0.17594 0.97925 0.70164 0.0
H3543 H 0.1753 0.0181 0.79894 0.0
H3544 H 0.15807 0.0263 0.73418 0.0
H3545 H 0.15689 0.97154 0.76594 0.0
C3546 C 0.16317 0.95766 0.74083 0.0
C3547 C 0.16912 0.95956 0.72272 0.0
C3548 C 0.1616 0.02456 0.74846 0.0
C3549 C 0.16407 0.99059 0.74433 0.0
C3550 C 0.16414 0.04 0.75943 0.0
C3551 C 0.16958 0.03795 0.77769 0.0
C3552 C 0.16416 0.00706 0.75598 0.0
C3553 C 0.17136 0.02022 0.78482 0.0
C3554 C 0.16081 0.97317 0.75176 0.0
C3555 C 0.1716 0.97723 0.71566 0.0
N3556 N 0.16871 0.00544 0.77394 0.0
N3557 N 0.16911 0.99208 0.72649 0.0
H3558 H 0.27119 0.93645 0.95671 0.0
H3559 H 0.23646 0.90788 0.05577 0.0
H3560 H 0.30426 0.90481 0.99399 0.0
H3561 H 0.20257 0.93341 0.01471 0.0
H3562 H 0.26078 0.90443 0.03303 0.0
H3563 H 0.24539 0.93347 0.97738 0.0
C3564 C 0.27301 0.92879 0.96926 0.0
C3565 C 0.28996 0.92102 0.97374 0.0
C3566 C 0.24793 0.91058 0.02897 0.0
C3567 C 0.26035 0.91763 0.99763 0.0
C3568 C 0.23404 0.91255 0.04193 0.0
C3569 C 0.21753 0.92116 0.03719 0.0
C3570 C 0.2453 0.91734 0.01119 0.0
C3571 C 0.21512 0.92687 0.01904 0.0
C3572 C 0.25821 0.92704 0.98105 0.0
C3573 C 0.29143 0.91106 0.99007 0.0
N3574 N 0.22891 0.92501 0.00678 0.0
N3575 N 0.27683 0.90982 0.00157 0.0
H3576 H 0.25226 0.33547 0.94529 0.0
H3577 H 0.2437 0.33484 0.05437 0.0
H3578 H 0.29671 0.32152 0.9815 0.0
H3579 H 0.19832 0.32411 0.01824 0.0
H3580 H 0.26345 0.33916 0.02759 0.0
H3581 H 0.23255 0.34035 0.97206 0.0
C3582 C 0.25793 0.33374 0.95886 0.0
C3583 C 0.27603 0.32788 0.96124 0.0
C3584 C 0.2491 0.33613 0.02559 0.0
C3585 C 0.25378 0.33359 0.99171 0.0
C3586 C 0.23783 0.33376 0.04082 0.0
C3587 C 0.21944 0.32891 0.03845 0.0
C3588 C 0.2418 0.3339 0.00796 0.0
C3589 C 0.2125 0.32761 0.02061 0.0
C3590 C 0.2467 0.33645 0.97408 0.0
C3591 C 0.28274 0.32579 0.9791 0.0
N3592 N 0.22372 0.33 0.00601 0.0
N3593 N 0.27159 0.32859 0.99366 0.0
H3594 H 0.80051 0.17301 0.01321 0.0
H3595 H 0.69941 0.17484 0.9779 0.0
H3596 H 0.75501 0.1611 0.0488 0.0
H3597 H 0.74451 0.16332 0.94166 0.0
H3598 H 0.71943 0.16946 0.00409 0.0
H3599 H 0.7805 0.169 0.98674 0.0
C3600 C 0.78634 0.1693 0.01542 0.0
C3601 C 0.77933 0.16752 0.03319 0.0
C3602 C 0.72489 0.16782 0.99042 0.0
C3603 C 0.75634 0.16322 0.00304 0.0
C3604 C 0.71351 0.17098 0.97548 0.0
C3605 C 0.7204 0.16967 0.95762 0.0
C3606 C 0.7434 0.16373 0.98749 0.0
C3607 C 0.7387 0.16448 0.95522 0.0
C3608 C 0.77496 0.16695 0.00032 0.0
C3609 C 0.76093 0.1626 0.03532 0.0
N3610 N 0.74969 0.16202 0.97002 0.0
N3611 N 0.74996 0.16094 0.0204 0.0
H3612 H 0.08615 0.49865 0.19331 0.0
H3613 H 0.08844 0.50575 0.30251 0.0
H3614 H 0.07558 0.45298 0.22911 0.0
H3615 H 0.0728 0.55061 0.26753 0.0
H3616 H 0.09296 0.48664 0.27525 0.0
H3617 H 0.09042 0.51824 0.22031 0.0
C3618 C 0.08506 0.49271 0.20683 0.0
C3619 C 0.0803 0.47428 0.20906 0.0
C3620 C 0.08879 0.50076 0.2736 0.0
C3621 C 0.08535 0.49637 0.23975 0.0
C3622 C 0.08629 0.51165 0.2891 0.0
C3623 C 0.08004 0.52967 0.28722 0.0
C3624 C 0.08532 0.5081 0.25619 0.0
C3625 C 0.07739 0.53668 0.26955 0.0
C3626 C 0.08742 0.50386 0.22217 0.0
C3627 C 0.07899 0.46721 0.22685 0.0
N3628 N 0.07999 0.52586 0.25469 0.0
N3629 N 0.08145 0.47828 0.24153 0.0
H3630 H 0.74136 0.84182 0.55395 0.0
H3631 H 0.76596 0.81322 0.45117 0.0
H3632 H 0.70576 0.81116 0.51823 0.0
H3633 H 0.80573 0.83514 0.48891 0.0
H3634 H 0.74232 0.81719 0.47428 0.0
H3635 H 0.76368 0.84411 0.52899 0.0
C3636 C 0.73814 0.83577 0.54082 0.0
C3637 C 0.72176 0.82614 0.53821 0.0
C3638 C 0.75619 0.82125 0.4775 0.0
C3639 C 0.74713 0.82871 0.50971 0.0
C3640 C 0.76972 0.81901 0.46427 0.0
C3641 C 0.78792 0.82365 0.46817 0.0
C3642 C 0.76085 0.82816 0.4948 0.0
C3643 C 0.7919 0.83124 0.48536 0.0
C3644 C 0.7509 0.83702 0.52662 0.0
C3645 C 0.7183 0.81854 0.52093 0.0
N3646 N 0.77849 0.83313 0.49812 0.0
N3647 N 0.73089 0.81993 0.5074 0.0
H3648 H 0.92267 0.04841 0.22917 0.0
H3649 H 0.92993 0.94862 0.26703 0.0
H3650 H 0.91433 0.00159 0.19428 0.0
H3651 H 0.91342 0.99347 0.30164 0.0
H3652 H 0.92437 0.96766 0.24016 0.0
H3653 H 0.91923 0.02874 0.25595 0.0
C3654 C 0.91988 0.034 0.22717 0.0
C3655 C 0.91892 0.02654 0.20953 0.0
C3656 C 0.9217 0.97326 0.25361 0.0
C3657 C 0.91527 0.00397 0.24006 0.0
C3658 C 0.92498 0.96245 0.26895 0.0
C3659 C 0.92229 0.96958 0.28655 0.0
C3660 C 0.9161 0.99145 0.25591 0.0
C3661 C 0.91569 0.9875 0.28829 0.0
C3662 C 0.91785 0.02281 0.24245 0.0
C3663 C 0.91517 0.00784 0.20767 0.0
N3664 N 0.91312 0.99796 0.27313 0.0
N3665 N 0.91381 0.99709 0.22278 0.0
H3666 H 0.29842 0.6779 0.5173 0.0
H3667 H 0.19694 0.68015 0.48311 0.0
H3668 H 0.25353 0.66595 0.55365 0.0
H3669 H 0.24128 0.66633 0.44671 0.0
H3670 H 0.21731 0.67558 0.50921 0.0
H3671 H 0.2779 0.67423 0.49118 0.0
C3672 C 0.28426 0.67431 0.51975 0.0
C3673 C 0.27759 0.67234 0.53763 0.0
C3674 C 0.22251 0.67329 0.49553 0.0
C3675 C 0.25403 0.6684 0.50787 0.0
C3676 C 0.21094 0.67598 0.48064 0.0
C3677 C 0.21751 0.67373 0.46275 0.0
C3678 C 0.24089 0.66873 0.4925 0.0
C3679 C 0.2357 0.6682 0.4603 0.0
C3680 C 0.2726 0.67214 0.50485 0.0
C3681 C 0.25919 0.66757 0.54006 0.0
N3682 N 0.24688 0.66619 0.47502 0.0
N3683 N 0.24794 0.66608 0.52533 0.0
H3684 H 0.40815 0.44224 0.76323 0.0
H3685 H 0.43936 0.53971 0.72615 0.0
H3686 H 0.43699 0.48246 0.79542 0.0
H3687 H 0.40426 0.50384 0.69511 0.0
H3688 H 0.43717 0.51912 0.75207 0.0
H3689 H 0.4049 0.46478 0.73868 0.0
C3690 C 0.41363 0.45585 0.76522 0.0
C3691 C 0.42304 0.46041 0.78133 0.0
C3692 C 0.42982 0.51574 0.73967 0.0
C3693 C 0.41944 0.48616 0.75331 0.0
C3694 C 0.43112 0.52748 0.72479 0.0
C3695 C 0.42211 0.5234 0.70836 0.0
C3696 C 0.41958 0.4996 0.73814 0.0
C3697 C 0.41146 0.50746 0.70751 0.0
C3698 C 0.41176 0.4687 0.7512 0.0
C3699 C 0.42977 0.47826 0.7832 0.0
N3700 N 0.41064 0.496 0.72217 0.0
N3701 N 0.42798 0.4904 0.7693 0.0
H3702 H 0.83472 0.55243 0.74495 0.0
H3703 H 0.8354 0.4432 0.75167 0.0
H3704 H 0.82243 0.51726 0.6992 0.0
H3705 H 0.82137 0.47859 0.79674 0.0
H3706 H 0.83975 0.47036 0.7323 0.0
H3707 H 0.8391 0.52522 0.76413 0.0
C3708 C 0.83328 0.539 0.73888 0.0
C3709 C 0.828 0.53703 0.72057 0.0
C3710 C 0.83596 0.4721 0.74651 0.0
C3711 C 0.83311 0.50606 0.74224 0.0
C3712 C 0.83354 0.45668 0.75753 0.0
C3713 C 0.82781 0.45873 0.7757 0.0
C3714 C 0.83298 0.48959 0.7539 0.0
C3715 C 0.82555 0.47645 0.7827 0.0
C3716 C 0.8357 0.52352 0.74981 0.0
C3717 C 0.82626 0.51933 0.71335 0.0
N3718 N 0.8281 0.49122 0.77177 0.0
N3719 N 0.82874 0.5045 0.72423 0.0
H3720 H 0.80225 0.58761 0.00552 0.0
H3721 H 0.69305 0.58635 0.99808 0.0
H3722 H 0.76696 0.57406 0.05081 0.0
H3723 H 0.72891 0.57357 0.95301 0.0
H3724 H 0.72002 0.59106 0.01761 0.0
H3725 H 0.7751 0.59178 0.98618 0.0
C3726 C 0.78879 0.58586 0.01146 0.0
C3727 C 0.78678 0.58029 0.02968 0.0
C3728 C 0.72191 0.58747 0.00337 0.0
C3729 C 0.75588 0.58516 0.00783 0.0
C3730 C 0.70658 0.58486 0.99224 0.0
C3731 C 0.70883 0.57937 0.97402 0.0
C3732 C 0.73949 0.58491 0.99604 0.0
C3733 C 0.72663 0.57757 0.96708 0.0
C3734 C 0.77336 0.58815 0.00043 0.0
C3735 C 0.76906 0.57813 0.03673 0.0
N3736 N 0.74129 0.58028 0.97812 0.0
N3737 N 0.75427 0.58051 0.02577 0.0
H3738 H 0.68804 0.54523 0.26235 0.0
H3739 H 0.65648 0.44295 0.23953 0.0
H3740 H 0.66134 0.51025 0.30172 0.0
H3741 H 0.69129 0.47587 0.20506 0.0
H3742 H 0.65372 0.46886 0.26072 0.0
H3743 H 0.68463 0.5214 0.23934 0.0
C3744 C 0.68131 0.53259 0.26613 0.0
C3745 C 0.67517 0.52964 0.28406 0.0
C3746 C 0.66184 0.47039 0.24843 0.0
C3747 C 0.67132 0.5022 0.25776 0.0
C3748 C 0.66339 0.45565 0.23634 0.0
C3749 C 0.67429 0.4572 0.22063 0.0
C3750 C 0.67115 0.48677 0.24464 0.0
C3751 C 0.68292 0.47397 0.21712 0.0
C3752 C 0.67939 0.51896 0.25298 0.0
C3753 C 0.66641 0.51304 0.2881 0.0
N3754 N 0.68121 0.48804 0.22905 0.0
N3755 N 0.66489 0.49985 0.27508 0.0
H3756 H 0.76665 0.42665 0.44601 0.0
H3757 H 0.73123 0.42288 0.54715 0.0
H3758 H 0.80219 0.41112 0.49046 0.0
H3759 H 0.69512 0.41378 0.5014 0.0
H3760 H 0.75749 0.41882 0.52686 0.0
H3761 H 0.74022 0.42232 0.466 0.0
C3762 C 0.76886 0.42215 0.45996 0.0
C3763 C 0.78661 0.41935 0.46667 0.0
C3764 C 0.74383 0.41741 0.52132 0.0
C3765 C 0.75648 0.41462 0.48964 0.0
C3766 C 0.72885 0.4198 0.53286 0.0
C3767 C 0.71101 0.41877 0.52589 0.0
C3768 C 0.74094 0.41441 0.5026 0.0
C3769 C 0.70867 0.41466 0.50731 0.0
C3770 C 0.75378 0.4196 0.47131 0.0
C3771 C 0.78872 0.41342 0.48478 0.0
N3772 N 0.72349 0.41294 0.49621 0.0
N3773 N 0.77382 0.41154 0.49576 0.0
H3774 H 0.58553 0.99554 0.69432 0.0
H3775 H 0.58623 0.00353 0.80346 0.0
H3776 H 0.57357 0.95028 0.73021 0.0
H3777 H 0.5724 0.04841 0.76775 0.0
H3778 H 0.59064 0.98399 0.77648 0.0
H3779 H 0.58978 0.01519 0.72123 0.0
C3780 C 0.58413 0.98968 0.70785 0.0
C3781 C 0.579 0.97136 0.71011 0.0
C3782 C 0.58689 0.9982 0.77462 0.0
C3783 C 0.58398 0.99357 0.74073 0.0
C3784 C 0.58445 0.00934 0.78995 0.0
C3785 C 0.57876 0.02751 0.78777 0.0
C3786 C 0.58392 0.00544 0.75707 0.0
C3787 C 0.57657 0.03438 0.76999 0.0
C3788 C 0.58647 0.00088 0.72315 0.0
C3789 C 0.5773 0.96442 0.72792 0.0
N3790 N 0.5791 0.02332 0.7553 0.0
N3791 N 0.57972 0.97555 0.74257 0.0
loop_
_geom_bond_atom_site_label_1
_geom_bond_atom_site_label_2
_geom_bond_distance
_geom_bond_site_symmetry_2
_ccdc_geom_bond_type
Co0 O3 1.970 . S
Co0 N17 1.989 . S
Co0 O25 1.967 . S
Co0 O32 1.920 . S
Co1 O4 1.966 . S
Co1 N10 2.022 . S
Co1 N18 1.993 . S
Co1 O26 1.941 . S
C2 O3 1.258 . S
C2 O4 1.263 . S
O3 Co0 1.970 . S
O3 C2 1.258 . S
O4 Co1 1.966 . S
O4 C2 1.263 . S
C5 O6 1.235 . S
C5 O32 1.289 . S
O6 C5 1.235 . S
C7 C9 1.400 . S
C7 N10 1.351 . S
C7 C12 1.501 . S
C8 C9 1.387 . S
C8 N11 1.341 . S
C9 C7 1.400 . S
C9 C8 1.387 . S
N10 Co1 2.022 . S
N10 C7 1.351 . S
N10 N11 1.365 . S
N11 C8 1.341 . S
N11 N10 1.365 . S
N11 H31 0.862 . S
C12 C7 1.501 . S
C12 H13 0.961 . S
C12 H14 0.961 . S
C12 H15 0.960 . S
H13 C12 0.961 . S
H14 C12 0.961 . S
H15 C12 0.960 . S
C16 N17 1.342 . S
C16 C20 1.401 . S
C16 C21 1.499 . S
N17 Co0 1.989 . S
N17 C16 1.342 . S
N17 N18 1.388 . S
N18 Co1 1.993 . S
N18 N17 1.388 . S
N18 C19 1.346 . S
C19 N18 1.346 . S
C19 C20 1.396 . S
C19 C29 1.510 . S
C20 C16 1.401 . S
C20 C19 1.396 . S
C21 C16 1.499 . S
C21 H22 0.959 . S
C21 H23 0.960 . S
C21 H24 0.961 . S
H22 C21 0.959 . S
H23 C21 0.960 . S
H24 C21 0.961 . S
O25 Co0 1.967 . S
O25 C33 1.258 . S
O26 Co1 1.941 . S
O26 C33 1.266 . S
H27 C29 0.959 . S
H28 C29 0.961 . S
C29 C19 1.510 . S
C29 H27 0.959 . S
C29 H28 0.961 . S
C29 H30 0.960 . S
H30 C29 0.960 . S
H31 N11 0.862 . S
O32 Co0 1.920 . S
O32 C5 1.289 . S
C33 O25 1.258 . S
C33 O26 1.266 . S
Co34 O37 1.970 . S
Co34 N51 1.989 . S
Co34 O59 1.967 . S
Co34 O66 1.920 . S
Co35 O38 1.966 . S
Co35 N44 2.022 . S
Co35 N52 1.993 . S
Co35 O60 1.941 . S
C36 O37 1.258 . S
C36 O38 1.263 . S
O37 Co34 1.970 . S
O37 C36 1.258 . S
O38 Co35 1.966 . S
O38 C36 1.263 . S
C39 O40 1.235 . S
C39 O66 1.289 . S
O40 C39 1.235 . S
C41 C43 1.400 . S
C41 N44 1.351 . S
C41 C46 1.501 . S
C42 C43 1.387 . S
C42 N45 1.341 . S
C43 C41 1.400 . S
C43 C42 1.387 . S
N44 Co35 2.022 . S
N44 C41 1.351 . S
N44 N45 1.365 . S
N45 C42 1.341 . S
N45 N44 1.365 . S
N45 H65 0.862 . S
C46 C41 1.501 . S
C46 H47 0.961 . S
C46 H48 0.961 . S
C46 H49 0.960 . S
H47 C46 0.961 . S
H48 C46 0.961 . S
H49 C46 0.960 . S
C50 N51 1.342 . S
C50 C54 1.401 . S
C50 C55 1.499 . S
N51 Co34 1.989 . S
N51 C50 1.342 . S
N51 N52 1.388 . S
N52 Co35 1.993 . S
N52 N51 1.388 . S
N52 C53 1.346 . S
C53 N52 1.346 . S
C53 C54 1.396 . S
C53 C63 1.510 . S
C54 C50 1.401 . S
C54 C53 1.396 . S
C55 C50 1.499 . S
C55 H56 0.959 . S
C55 H57 0.960 . S
C55 H58 0.961 . S
H56 C55 0.959 . S
H57 C55 0.960 . S
H58 C55 0.961 . S
O59 Co34 1.967 . S
O59 C67 1.258 . S
O60 Co35 1.941 . S
O60 C67 1.266 . S
H61 C63 0.959 . S
H62 C63 0.961 . S
C63 C53 1.510 . S
C63 H61 0.959 . S
C63 H62 0.961 . S
C63 H64 0.960 . S
H64 C63 0.960 . S
H65 N45 0.862 . S
O66 Co34 1.920 . S
O66 C39 1.289 . S
C67 O59 1.258 . S
C67 O60 1.266 . S
Co68 O71 1.970 . S
Co68 N85 1.989 . S
Co68 O93 1.967 . S
Co68 O100 1.920 . S
Co69 O72 1.966 . S
Co69 N78 2.022 . S
Co69 N86 1.993 . S
Co69 O94 1.941 . S
C70 O71 1.258 . S
C70 O72 1.263 . S
O71 Co68 1.970 . S
O71 C70 1.258 . S
O72 Co69 1.966 . S
O72 C70 1.263 . S
C73 O74 1.235 . S
C73 O100 1.289 . S
O74 C73 1.235 . S
C75 C77 1.400 . S
C75 N78 1.351 . S
C75 C80 1.501 . S
C76 C77 1.387 . S
C76 N79 1.341 . S
C77 C75 1.400 . S
C77 C76 1.387 . S
N78 Co69 2.022 . S
N78 C75 1.351 . S
N78 N79 1.365 . S
N79 C76 1.341 . S
N79 N78 1.365 . S
N79 H99 0.862 . S
C80 C75 1.501 . S
C80 H81 0.961 . S
C80 H82 0.961 . S
C80 H83 0.960 . S
H81 C80 0.961 . S
H82 C80 0.961 . S
H83 C80 0.960 . S
C84 N85 1.342 . S
C84 C88 1.401 . S
C84 C89 1.499 . S
N85 Co68 1.989 . S
N85 C84 1.342 . S
N85 N86 1.388 . S
N86 Co69 1.993 . S
N86 N85 1.388 . S
N86 C87 1.346 . S
C87 N86 1.346 . S
C87 C88 1.396 . S
C87 C97 1.510 . S
C88 C84 1.401 . S
C88 C87 1.396 . S
C89 C84 1.499 . S
C89 H90 0.959 . S
C89 H91 0.960 . S
C89 H92 0.961 . S
H90 C89 0.959 . S
H91 C89 0.960 . S
H92 C89 0.961 . S
O93 Co68 1.967 . S
O93 C101 1.258 . S
O94 Co69 1.941 . S
O94 C101 1.266 . S
H95 C97 0.959 . S
H96 C97 0.961 . S
C97 C87 1.510 . S
C97 H95 0.959 . S
C97 H96 0.961 . S
C97 H98 0.960 . S
H98 C97 0.960 . S
H99 N79 0.862 . S
O100 Co68 1.920 . S
O100 C73 1.289 . S
C101 O93 1.258 . S
C101 O94 1.266 . S
Co102 O105 1.970 . S
Co102 N119 1.989 . S
Co102 O127 1.967 . S
Co102 O134 1.920 . S
Co103 O106 1.966 . S
Co103 N112 2.022 . S
Co103 N120 1.993 . S
Co103 O128 1.941 . S
C104 O105 1.258 . S
C104 O106 1.263 . S
O105 Co102 1.970 . S
O105 C104 1.258 . S
O106 Co103 1.966 . S
O106 C104 1.263 . S
C107 O108 1.235 . S
C107 O134 1.289 . S
O108 C107 1.235 . S
C109 C111 1.400 . S
C109 N112 1.351 . S
C109 C114 1.501 . S
C110 C111 1.387 . S
C110 N113 1.341 . S
C111 C109 1.400 . S
C111 C110 1.387 . S
N112 Co103 2.022 . S
N112 C109 1.351 . S
N112 N113 1.365 . S
N113 C110 1.341 . S
N113 N112 1.365 . S
N113 H133 0.868 . S
C114 C109 1.501 . S
C114 H115 0.961 . S
C114 H116 0.961 . S
C114 H117 0.960 . S
H115 C114 0.961 . S
H116 C114 0.961 . S
H117 C114 0.960 . S
C118 N119 1.342 . S
C118 C122 1.401 . S
C118 C123 1.499 . S
N119 Co102 1.989 . S
N119 C118 1.342 . S
N119 N120 1.388 . S
N120 Co103 1.993 . S
N120 N119 1.388 . S
N120 C121 1.346 . S
C121 N120 1.346 . S
C121 C122 1.396 . S
C121 C131 1.510 . S
C122 C118 1.401 . S
C122 C121 1.396 . S
C123 C118 1.499 . S
C123 H124 0.959 . S
C123 H125 0.960 . S
C123 H126 0.961 . S
H124 C123 0.959 . S
H125 C123 0.960 . S
H126 C123 0.961 . S
O127 Co102 1.967 . S
O127 C135 1.258 . S
O128 Co103 1.941 . S
O128 C135 1.266 . S
H129 C131 0.941 1_556 S
H130 C131 0.961 . S
C131 C121 1.510 . S
C131 H129 0.941 1_554 S
C131 H130 0.961 . S
C131 H132 0.960 . S
H132 C131 0.960 . S
H133 N113 0.868 . S
O134 Co102 1.920 . S
O134 C107 1.289 . S
C135 O127 1.258 . S
C135 O128 1.266 . S
Co136 O139 1.970 . S
Co136 N153 1.989 . S
Co136 O161 1.967 . S
Co136 O168 1.920 . S
Co137 O140 1.966 . S
Co137 N146 2.022 . S
Co137 N154 1.993 . S
Co137 O162 1.941 . S
C138 O139 1.258 . S
C138 O140 1.263 . S
O139 Co136 1.970 . S
O139 C138 1.258 . S
O140 Co137 1.966 . S
O140 C138 1.263 . S
C141 O142 1.235 . S
C141 O168 1.289 . S
O142 C141 1.235 . S
C143 C145 1.400 . S
C143 N146 1.351 . S
C143 C148 1.501 . S
C144 C145 1.387 . S
C144 N147 1.341 . S
C145 C143 1.400 . S
C145 C144 1.387 . S
N146 Co137 2.022 . S
N146 C143 1.351 . S
N146 N147 1.365 . S
N147 C144 1.341 . S
N147 N146 1.365 . S
N147 H167 0.862 . S
C148 C143 1.501 . S
C148 H149 0.961 . S
C148 H150 0.961 . S
C148 H151 0.960 . S
H149 C148 0.961 . S
H150 C148 0.961 . S
H151 C148 0.960 . S
C152 N153 1.342 . S
C152 C156 1.401 . S
C152 C157 1.499 . S
N153 Co136 1.989 . S
N153 C152 1.342 . S
N153 N154 1.388 . S
N154 Co137 1.993 . S
N154 N153 1.388 . S
N154 C155 1.346 . S
C155 N154 1.346 . S
C155 C156 1.396 . S
C155 C165 1.510 . S
C156 C152 1.401 . S
C156 C155 1.396 . S
C157 C152 1.499 . S
C157 H158 0.959 . S
C157 H159 0.960 . S
C157 H160 0.961 . S
H158 C157 0.959 . S
H159 C157 0.960 . S
H160 C157 0.961 . S
O161 Co136 1.967 . S
O161 C169 1.258 . S
O162 Co137 1.941 . S
O162 C169 1.266 . S
H163 C165 0.959 . S
H164 C165 0.961 . S
C165 C155 1.510 . S
C165 H163 0.959 . S
C165 H164 0.961 . S
C165 H166 0.960 . S
H166 C165 0.960 . S
H167 N147 0.862 . S
O168 Co136 1.920 . S
O168 C141 1.289 . S
C169 O161 1.258 . S
C169 O162 1.266 . S
Co170 O173 1.970 . S
Co170 N187 1.989 . S
Co170 O195 1.967 . S
Co170 O202 1.920 . S
Co171 O174 1.966 . S
Co171 N180 2.022 . S
Co171 N188 1.993 . S
Co171 O196 1.941 . S
C172 O173 1.258 . S
C172 O174 1.263 . S
O173 Co170 1.970 . S
O173 C172 1.258 . S
O174 Co171 1.966 . S
O174 C172 1.263 . S
C175 O176 1.235 . S
C175 O202 1.289 . S
O176 C175 1.235 . S
C177 C179 1.400 . S
C177 N180 1.351 . S
C177 C182 1.501 . S
C178 C179 1.387 . S
C178 N181 1.341 . S
C179 C177 1.400 . S
C179 C178 1.387 . S
N180 Co171 2.022 . S
N180 C177 1.351 . S
N180 N181 1.365 . S
N181 C178 1.341 . S
N181 N180 1.365 . S
N181 H201 0.862 . S
C182 C177 1.501 . S
C182 H183 0.961 . S
C182 H184 0.961 . S
C182 H185 0.960 . S
H183 C182 0.961 . S
H184 C182 0.961 . S
H185 C182 0.960 . S
C186 N187 1.342 . S
C186 C190 1.401 . S
C186 C191 1.499 . S
N187 Co170 1.989 . S
N187 C186 1.342 . S
N187 N188 1.388 . S
N188 Co171 1.993 . S
N188 N187 1.388 . S
N188 C189 1.346 . S
C189 N188 1.346 . S
C189 C190 1.396 . S
C189 C199 1.510 . S
C190 C186 1.401 . S
C190 C189 1.396 . S
C191 C186 1.499 . S
C191 H192 0.959 . S
C191 H193 0.960 . S
C191 H194 0.961 . S
H192 C191 0.959 . S
H193 C191 0.960 . S
H194 C191 0.961 . S
O195 Co170 1.967 . S
O195 C203 1.258 . S
O196 Co171 1.941 . S
O196 C203 1.266 . S
H197 C199 0.959 . S
H198 C199 0.961 . S
C199 C189 1.510 . S
C199 H197 0.959 . S
C199 H198 0.961 . S
C199 H200 0.960 . S
H200 C199 0.960 . S
H201 N181 0.862 . S
O202 Co170 1.920 . S
O202 C175 1.289 . S
C203 O195 1.258 . S
C203 O196 1.266 . S
Co204 O207 1.970 . S
Co204 N221 1.989 . S
Co204 O229 1.967 . S
Co204 O236 1.920 . S
Co205 O208 1.966 . S
Co205 N214 2.022 . S
Co205 N222 1.993 . S
Co205 O230 1.941 . S
C206 O207 1.258 . S
C206 O208 1.263 . S
O207 Co204 1.970 . S
O207 C206 1.258 . S
O208 Co205 1.966 . S
O208 C206 1.263 . S
C209 O210 1.235 . S
C209 O236 1.289 . S
O210 C209 1.235 . S
C211 C213 1.400 . S
C211 N214 1.351 . S
C211 C216 1.501 . S
C212 C213 1.387 . S
C212 N215 1.341 . S
C213 C211 1.400 . S
C213 C212 1.387 . S
N214 Co205 2.022 . S
N214 C211 1.351 . S
N214 N215 1.365 . S
N215 C212 1.341 . S
N215 N214 1.365 . S
N215 H235 0.862 . S
C216 C211 1.501 . S
C216 H217 0.961 . S
C216 H218 0.961 . S
C216 H219 0.960 . S
H217 C216 0.961 . S
H218 C216 0.961 . S
H219 C216 0.960 . S
C220 N221 1.342 . S
C220 C224 1.401 . S
C220 C225 1.499 . S
N221 Co204 1.989 . S
N221 C220 1.342 . S
N221 N222 1.388 . S
N222 Co205 1.993 . S
N222 N221 1.388 . S
N222 C223 1.346 . S
C223 N222 1.346 . S
C223 C224 1.396 . S
C223 C233 1.510 . S
C224 C220 1.401 . S
C224 C223 1.396 . S
C225 C220 1.499 . S
C225 H226 0.959 . S
C225 H227 0.960 . S
C225 H228 0.961 . S
H226 C225 0.959 . S
H227 C225 0.960 . S
H228 C225 0.961 . S
O229 Co204 1.967 . S
O229 C237 1.258 . S
O230 Co205 1.941 . S
O230 C237 1.266 . S
H231 C233 0.959 . S
H232 C233 0.961 . S
C233 C223 1.510 . S
C233 H231 0.959 . S
C233 H232 0.961 . S
C233 H234 0.960 . S
H234 C233 0.960 . S
H235 N215 0.862 . S
O236 Co204 1.920 . S
O236 C209 1.289 . S
C237 O229 1.258 . S
C237 O230 1.266 . S
Co238 O241 1.970 . S
Co238 N255 1.989 . S
Co238 O263 1.967 . S
Co238 O270 1.920 . S
Co239 O242 1.966 . S
Co239 N248 2.022 . S
Co239 N256 1.993 . S
Co239 O264 1.941 . S
C240 O241 1.258 . S
C240 O242 1.263 . S
O241 Co238 1.970 . S
O241 C240 1.258 . S
O242 Co239 1.966 . S
O242 C240 1.263 . S
C243 O244 1.235 . S
C243 O270 1.289 . S
O244 C243 1.235 . S
C245 C247 1.400 . S
C245 N248 1.351 . S
C245 C250 1.501 . S
C246 C247 1.387 . S
C246 N249 1.341 . S
C247 C245 1.400 . S
C247 C246 1.387 . S
N248 Co239 2.022 . S
N248 C245 1.351 . S
N248 N249 1.365 . S
N249 C246 1.341 . S
N249 N248 1.365 . S
N249 H269 0.868 . S
C250 C245 1.501 . S
C250 H251 0.961 . S
C250 H252 0.961 . S
C250 H253 0.960 . S
H251 C250 0.961 . S
H252 C250 0.961 . S
H253 C250 0.960 . S
C254 N255 1.342 . S
C254 C258 1.401 . S
C254 C259 1.499 . S
N255 Co238 1.989 . S
N255 C254 1.342 . S
N255 N256 1.388 . S
N256 Co239 1.993 . S
N256 N255 1.388 . S
N256 C257 1.346 . S
C257 N256 1.346 . S
C257 C258 1.396 . S
C257 C267 1.510 . S
C258 C254 1.401 . S
C258 C257 1.396 . S
C259 C254 1.499 . S
C259 H260 0.959 . S
C259 H261 0.960 . S
C259 H262 0.961 . S
H260 C259 0.959 . S
H261 C259 0.960 . S
H262 C259 0.961 . S
O263 Co238 1.967 . S
O263 C271 1.258 . S
O264 Co239 1.941 . S
O264 C271 1.266 . S
H265 C267 0.941 1_554 S
H266 C267 0.961 . S
C267 C257 1.510 . S
C267 H265 0.941 1_556 S
C267 H266 0.961 . S
C267 H268 0.960 . S
H268 C267 0.960 . S
H269 N249 0.868 . S
O270 Co238 1.920 . S
O270 C243 1.289 . S
C271 O263 1.258 . S
C271 O264 1.266 . S
Co272 O275 1.970 . S
Co272 N289 1.989 . S
Co272 O297 1.967 . S
Co272 O304 1.920 . S
Co273 O276 1.966 . S
Co273 N282 2.022 . S
Co273 N290 1.993 . S
Co273 O298 1.941 . S
C274 O275 1.258 . S
C274 O276 1.263 . S
O275 Co272 1.970 . S
O275 C274 1.258 . S
O276 Co273 1.966 . S
O276 C274 1.263 . S
C277 O278 1.235 . S
C277 O304 1.289 . S
O278 C277 1.235 . S
C279 C281 1.400 . S
C279 N282 1.351 . S
C279 C284 1.501 . S
C280 C281 1.387 . S
C280 N283 1.341 . S
C281 C279 1.400 . S
C281 C280 1.387 . S
N282 Co273 2.022 . S
N282 C279 1.351 . S
N282 N283 1.365 . S
N283 C280 1.341 . S
N283 N282 1.365 . S
N283 H303 0.862 . S
C284 C279 1.501 . S
C284 H285 0.961 . S
C284 H286 0.961 . S
C284 H287 0.960 . S
H285 C284 0.961 . S
H286 C284 0.961 . S
H287 C284 0.960 . S
C288 N289 1.342 . S
C288 C292 1.401 . S
C288 C293 1.499 . S
N289 Co272 1.989 . S
N289 C288 1.342 . S
N289 N290 1.388 . S
N290 Co273 1.993 . S
N290 N289 1.388 . S
N290 C291 1.346 . S
C291 N290 1.346 . S
C291 C292 1.396 . S
C291 C301 1.510 . S
C292 C288 1.401 . S
C292 C291 1.396 . S
C293 C288 1.499 . S
C293 H294 0.959 . S
C293 H295 0.960 . S
C293 H296 0.961 . S
H294 C293 0.959 . S
H295 C293 0.960 . S
H296 C293 0.961 . S
O297 Co272 1.967 . S
O297 C305 1.258 . S
O298 Co273 1.941 . S
O298 C305 1.266 . S
H299 C301 0.959 . S
H300 C301 0.961 . S
C301 C291 1.510 . S
C301 H299 0.959 . S
C301 H300 0.961 . S
C301 H302 0.960 . S
H302 C301 0.960 . S
H303 N283 0.862 . S
O304 Co272 1.920 . S
O304 C277 1.289 . S
C305 O297 1.258 . S
C305 O298 1.266 . S
Co306 O309 1.970 . S
Co306 N323 1.989 . S
Co306 O331 1.967 . S
Co306 O338 1.920 . S
Co307 O310 1.966 . S
Co307 N316 2.022 . S
Co307 N324 1.993 . S
Co307 O332 1.941 . S
C308 O309 1.258 . S
C308 O310 1.263 . S
O309 Co306 1.970 . S
O309 C308 1.258 . S
O310 Co307 1.966 . S
O310 C308 1.263 . S
C311 O312 1.235 . S
C311 O338 1.289 . S
O312 C311 1.235 . S
C313 C315 1.400 . S
C313 N316 1.351 . S
C313 C318 1.501 . S
C314 C315 1.387 . S
C314 N317 1.341 . S
C315 C313 1.400 . S
C315 C314 1.387 . S
N316 Co307 2.022 . S
N316 C313 1.351 . S
N316 N317 1.365 . S
N317 C314 1.341 . S
N317 N316 1.365 . S
N317 H337 0.868 . S
C318 C313 1.501 . S
C318 H319 0.961 . S
C318 H320 0.961 . S
C318 H321 0.960 . S
H319 C318 0.961 . S
H320 C318 0.961 . S
H321 C318 0.960 . S
C322 N323 1.342 . S
C322 C326 1.401 . S
C322 C327 1.499 . S
N323 Co306 1.989 . S
N323 C322 1.342 . S
N323 N324 1.388 . S
N324 Co307 1.993 . S
N324 N323 1.388 . S
N324 C325 1.346 . S
C325 N324 1.346 . S
C325 C326 1.396 . S
C325 C335 1.510 . S
C326 C322 1.401 . S
C326 C325 1.396 . S
C327 C322 1.499 . S
C327 H328 0.959 . S
C327 H329 0.960 . S
C327 H330 0.961 . S
H328 C327 0.959 . S
H329 C327 0.960 . S
H330 C327 0.961 . S
O331 Co306 1.967 . S
O331 C339 1.258 . S
O332 Co307 1.941 . S
O332 C339 1.266 . S
H333 C335 0.941 1_565 S
H334 C335 0.961 . S
C335 C325 1.510 . S
C335 H333 0.941 1_545 S
C335 H334 0.961 . S
C335 H336 0.960 . S
H336 C335 0.960 . S
H337 N317 0.868 . S
O338 Co306 1.920 . S
O338 C311 1.289 . S
C339 O331 1.258 . S
C339 O332 1.266 . S
Co340 O343 1.970 . S
Co340 N357 1.989 . S
Co340 O365 1.967 . S
Co340 O372 1.920 . S
Co341 O344 1.966 . S
Co341 N350 2.022 . S
Co341 N358 1.993 . S
Co341 O366 1.941 . S
C342 O343 1.258 . S
C342 O344 1.263 . S
O343 Co340 1.970 . S
O343 C342 1.258 . S
O344 Co341 1.966 . S
O344 C342 1.263 . S
C345 O346 1.235 . S
C345 O372 1.289 . S
O346 C345 1.235 . S
C347 C349 1.400 . S
C347 N350 1.351 . S
C347 C352 1.501 . S
C348 C349 1.387 . S
C348 N351 1.341 . S
C349 C347 1.400 . S
C349 C348 1.387 . S
N350 Co341 2.022 . S
N350 C347 1.351 . S
N350 N351 1.365 . S
N351 C348 1.341 . S
N351 N350 1.365 . S
N351 H371 0.862 . S
C352 C347 1.501 . S
C352 H353 0.961 . S
C352 H354 0.961 . S
C352 H355 0.960 . S
H353 C352 0.961 . S
H354 C352 0.961 . S
H355 C352 0.960 . S
C356 N357 1.342 . S
C356 C360 1.401 . S
C356 C361 1.499 . S
N357 Co340 1.989 . S
N357 C356 1.342 . S
N357 N358 1.388 . S
N358 Co341 1.993 . S
N358 N357 1.388 . S
N358 C359 1.346 . S
C359 N358 1.346 . S
C359 C360 1.396 . S
C359 C369 1.510 . S
C360 C356 1.401 . S
C360 C359 1.396 . S
C361 C356 1.499 . S
C361 H362 0.959 . S
C361 H363 0.960 . S
C361 H364 0.961 . S
H362 C361 0.959 . S
H363 C361 0.960 . S
H364 C361 0.961 . S
O365 Co340 1.967 . S
O365 C373 1.258 . S
O366 Co341 1.941 . S
O366 C373 1.266 . S
H367 C369 0.959 . S
H368 C369 0.961 . S
C369 C359 1.510 . S
C369 H367 0.959 . S
C369 H368 0.961 . S
C369 H370 0.960 . S
H370 C369 0.960 . S
H371 N351 0.862 . S
O372 Co340 1.920 . S
O372 C345 1.289 . S
C373 O365 1.258 . S
C373 O366 1.266 . S
Co374 O377 1.970 . S
Co374 N391 1.989 . S
Co374 O399 1.967 . S
Co374 O406 1.920 . S
Co375 O378 1.966 . S
Co375 N384 2.022 . S
Co375 N392 1.993 . S
Co375 O400 1.941 . S
C376 O377 1.258 . S
C376 O378 1.263 . S
O377 Co374 1.970 . S
O377 C376 1.258 . S
O378 Co375 1.966 . S
O378 C376 1.263 . S
C379 O380 1.235 . S
C379 O406 1.289 . S
O380 C379 1.235 . S
C381 C383 1.400 . S
C381 N384 1.351 . S
C381 C386 1.501 . S
C382 C383 1.387 . S
C382 N385 1.341 . S
C383 C381 1.400 . S
C383 C382 1.387 . S
N384 Co375 2.022 . S
N384 C381 1.351 . S
N384 N385 1.365 . S
N385 C382 1.341 . S
N385 N384 1.365 . S
N385 H405 0.868 . S
C386 C381 1.501 . S
C386 H387 0.961 . S
C386 H388 0.961 . S
C386 H389 0.960 . S
H387 C386 0.961 . S
H388 C386 0.961 . S
H389 C386 0.960 . S
C390 N391 1.342 . S
C390 C394 1.401 . S
C390 C395 1.499 . S
N391 Co374 1.989 . S
N391 C390 1.342 . S
N391 N392 1.388 . S
N392 Co375 1.993 . S
N392 N391 1.388 . S
N392 C393 1.346 . S
C393 N392 1.346 . S
C393 C394 1.396 . S
C393 C403 1.510 . S
C394 C390 1.401 . S
C394 C393 1.396 . S
C395 C390 1.499 . S
C395 H396 0.959 . S
C395 H397 0.960 . S
C395 H398 0.961 . S
H396 C395 0.959 . S
H397 C395 0.960 . S
H398 C395 0.961 . S
O399 Co374 1.967 . S
O399 C407 1.258 . S
O400 Co375 1.941 . S
O400 C407 1.266 . S
H401 C403 0.941 1_545 S
H402 C403 0.961 . S
C403 C393 1.510 . S
C403 H401 0.941 1_565 S
C403 H402 0.961 . S
C403 H404 0.960 . S
H404 C403 0.960 . S
H405 N385 0.868 . S
O406 Co374 1.920 . S
O406 C379 1.289 . S
C407 O399 1.258 . S
C407 O400 1.266 . S
Co408 O411 1.970 . S
Co408 N425 1.989 . S
Co408 O433 1.967 . S
Co408 O440 1.920 . S
Co409 O412 1.966 . S
Co409 N418 2.022 . S
Co409 N426 1.993 . S
Co409 O434 1.941 . S
C410 O411 1.258 . S
C410 O412 1.263 . S
O411 Co408 1.970 . S
O411 C410 1.258 . S
O412 Co409 1.966 . S
O412 C410 1.263 . S
C413 O414 1.235 . S
C413 O440 1.289 . S
O414 C413 1.235 . S
C415 C417 1.400 . S
C415 N418 1.351 . S
C415 C420 1.501 . S
C416 C417 1.387 . S
C416 N419 1.341 . S
C417 C415 1.400 . S
C417 C416 1.387 . S
N418 Co409 2.022 . S
N418 C415 1.351 . S
N418 N419 1.365 . S
N419 C416 1.341 . S
N419 N418 1.365 . S
N419 H439 0.862 . S
C420 C415 1.501 . S
C420 H421 0.961 . S
C420 H422 0.961 . S
C420 H423 0.960 . S
H421 C420 0.961 . S
H422 C420 0.961 . S
H423 C420 0.960 . S
C424 N425 1.342 . S
C424 C428 1.401 . S
C424 C429 1.499 . S
N425 Co408 1.989 . S
N425 C424 1.342 . S
N425 N426 1.388 . S
N426 Co409 1.993 . S
N426 N425 1.388 . S
N426 C427 1.346 . S
C427 N426 1.346 . S
C427 C428 1.396 . S
C427 C437 1.510 . S
C428 C424 1.401 . S
C428 C427 1.396 . S
C429 C424 1.499 . S
C429 H430 0.959 . S
C429 H431 0.960 . S
C429 H432 0.961 . S
H430 C429 0.959 . S
H431 C429 0.960 . S
H432 C429 0.961 . S
O433 Co408 1.967 . S
O433 C441 1.258 . S
O434 Co409 1.941 . S
O434 C441 1.266 . S
H435 C437 0.959 . S
H436 C437 0.961 . S
C437 C427 1.510 . S
C437 H435 0.959 . S
C437 H436 0.961 . S
C437 H438 0.960 . S
H438 C437 0.960 . S
H439 N419 0.862 . S
O440 Co408 1.920 . S
O440 C413 1.289 . S
C441 O433 1.258 . S
C441 O434 1.266 . S
Co442 O445 1.970 . S
Co442 N459 1.989 . S
Co442 O467 1.967 . S
Co442 O474 1.920 . S
Co443 O446 1.966 . S
Co443 N452 2.022 . S
Co443 N460 1.993 . S
Co443 O468 1.941 . S
C444 O445 1.258 . S
C444 O446 1.263 . S
O445 Co442 1.970 . S
O445 C444 1.258 . S
O446 Co443 1.966 . S
O446 C444 1.263 . S
C447 O448 1.235 . S
C447 O474 1.289 . S
O448 C447 1.235 . S
C449 C451 1.400 . S
C449 N452 1.351 . S
C449 C454 1.501 . S
C450 C451 1.387 . S
C450 N453 1.341 . S
C451 C449 1.400 . S
C451 C450 1.387 . S
N452 Co443 2.022 . S
N452 C449 1.351 . S
N452 N453 1.365 . S
N453 C450 1.341 . S
N453 N452 1.365 . S
N453 H473 0.868 . S
C454 C449 1.501 . S
C454 H455 0.961 . S
C454 H456 0.961 . S
C454 H457 0.960 . S
H455 C454 0.961 . S
H456 C454 0.961 . S
H457 C454 0.960 . S
C458 N459 1.342 . S
C458 C462 1.401 . S
C458 C463 1.499 . S
N459 Co442 1.989 . S
N459 C458 1.342 . S
N459 N460 1.388 . S
N460 Co443 1.993 . S
N460 N459 1.388 . S
N460 C461 1.346 . S
C461 N460 1.346 . S
C461 C462 1.396 . S
C461 C471 1.510 . S
C462 C458 1.401 . S
C462 C461 1.396 . S
C463 C458 1.499 . S
C463 H464 0.959 . S
C463 H465 0.960 . S
C463 H466 0.961 . S
H464 C463 0.959 . S
H465 C463 0.960 . S
H466 C463 0.961 . S
O467 Co442 1.967 . S
O467 C475 1.258 . S
O468 Co443 1.941 . S
O468 C475 1.266 . S
H469 C471 0.941 1_565 S
H470 C471 0.961 . S
C471 C461 1.510 . S
C471 H469 0.941 1_545 S
C471 H470 0.961 . S
C471 H472 0.960 . S
H472 C471 0.960 . S
H473 N453 0.868 . S
O474 Co442 1.920 . S
O474 C447 1.289 . S
C475 O467 1.258 . S
C475 O468 1.266 . S
Co476 O479 1.970 . S
Co476 N493 1.989 . S
Co476 O501 1.967 . S
Co476 O508 1.920 . S
Co477 O480 1.966 . S
Co477 N486 2.022 . S
Co477 N494 1.993 . S
Co477 O502 1.941 . S
C478 O479 1.258 . S
C478 O480 1.263 . S
O479 Co476 1.970 . S
O479 C478 1.258 . S
O480 Co477 1.966 . S
O480 C478 1.263 . S
C481 O482 1.235 . S
C481 O508 1.289 . S
O482 C481 1.235 . S
C483 C485 1.400 . S
C483 N486 1.351 . S
C483 C488 1.501 . S
C484 C485 1.387 . S
C484 N487 1.341 . S
C485 C483 1.400 . S
C485 C484 1.387 . S
N486 Co477 2.022 . S
N486 C483 1.351 . S
N486 N487 1.365 . S
N487 C484 1.341 . S
N487 N486 1.365 . S
N487 H507 0.862 . S
C488 C483 1.501 . S
C488 H489 0.961 . S
C488 H490 0.961 . S
C488 H491 0.960 . S
H489 C488 0.961 . S
H490 C488 0.961 . S
H491 C488 0.960 . S
C492 N493 1.342 . S
C492 C496 1.401 . S
C492 C497 1.499 . S
N493 Co476 1.989 . S
N493 C492 1.342 . S
N493 N494 1.388 . S
N494 Co477 1.993 . S
N494 N493 1.388 . S
N494 C495 1.346 . S
C495 N494 1.346 . S
C495 C496 1.396 . S
C495 C505 1.510 . S
C496 C492 1.401 . S
C496 C495 1.396 . S
C497 C492 1.499 . S
C497 H498 0.959 . S
C497 H499 0.960 . S
C497 H500 0.961 . S
H498 C497 0.959 . S
H499 C497 0.960 . S
H500 C497 0.961 . S
O501 Co476 1.967 . S
O501 C509 1.258 . S
O502 Co477 1.941 . S
O502 C509 1.266 . S
H503 C505 0.959 . S
H504 C505 0.961 . S
C505 C495 1.510 . S
C505 H503 0.959 . S
C505 H504 0.961 . S
C505 H506 0.960 . S
H506 C505 0.960 . S
H507 N487 0.862 . S
O508 Co476 1.920 . S
O508 C481 1.289 . S
C509 O501 1.258 . S
C509 O502 1.266 . S
Co510 O513 1.970 . S
Co510 N527 1.989 . S
Co510 O535 1.967 . S
Co510 O542 1.920 . S
Co511 O514 1.966 . S
Co511 N520 2.022 . S
Co511 N528 1.993 . S
Co511 O536 1.941 . S
C512 O513 1.258 . S
C512 O514 1.263 . S
O513 Co510 1.970 . S
O513 C512 1.258 . S
O514 Co511 1.966 . S
O514 C512 1.263 . S
C515 O516 1.235 . S
C515 O542 1.289 . S
O516 C515 1.235 . S
C517 C519 1.400 . S
C517 N520 1.351 . S
C517 C522 1.501 . S
C518 C519 1.387 . S
C518 N521 1.341 . S
C519 C517 1.400 . S
C519 C518 1.387 . S
N520 Co511 2.022 . S
N520 C517 1.351 . S
N520 N521 1.365 . S
N521 C518 1.341 . S
N521 N520 1.365 . S
N521 H541 0.868 . S
C522 C517 1.501 . S
C522 H523 0.961 . S
C522 H524 0.961 . S
C522 H525 0.960 . S
H523 C522 0.961 . S
H524 C522 0.961 . S
H525 C522 0.960 . S
C526 N527 1.342 . S
C526 C530 1.401 . S
C526 C531 1.499 . S
N527 Co510 1.989 . S
N527 C526 1.342 . S
N527 N528 1.388 . S
N528 Co511 1.993 . S
N528 N527 1.388 . S
N528 C529 1.346 . S
C529 N528 1.346 . S
C529 C530 1.396 . S
C529 C539 1.510 . S
C530 C526 1.401 . S
C530 C529 1.396 . S
C531 C526 1.499 . S
C531 H532 0.959 . S
C531 H533 0.960 . S
C531 H534 0.961 . S
H532 C531 0.959 . S
H533 C531 0.960 . S
H534 C531 0.961 . S
O535 Co510 1.967 . S
O535 C543 1.258 . S
O536 Co511 1.941 . S
O536 C543 1.266 . S
H537 C539 0.941 1_545 S
H538 C539 0.961 . S
C539 C529 1.510 . S
C539 H537 0.941 1_565 S
C539 H538 0.961 . S
C539 H540 0.960 . S
H540 C539 0.960 . S
H541 N521 0.868 . S
O542 Co510 1.920 . S
O542 C515 1.289 . S
C543 O535 1.258 . S
C543 O536 1.266 . S
Co544 O547 1.970 . S
Co544 N561 1.989 . S
Co544 O569 1.967 . S
Co544 O576 1.920 . S
Co545 O548 1.966 . S
Co545 N554 2.022 . S
Co545 N562 1.993 . S
Co545 O570 1.941 . S
C546 O547 1.258 . S
C546 O548 1.263 . S
O547 Co544 1.970 . S
O547 C546 1.258 . S
O548 Co545 1.966 . S
O548 C546 1.263 . S
C549 O550 1.235 . S
C549 O576 1.289 . S
O550 C549 1.235 . S
C551 C553 1.400 . S
C551 N554 1.351 . S
C551 C556 1.501 . S
C552 C553 1.387 . S
C552 N555 1.341 . S
C553 C551 1.400 . S
C553 C552 1.387 . S
N554 Co545 2.022 . S
N554 C551 1.351 . S
N554 N555 1.365 . S
N555 C552 1.341 . S
N555 N554 1.365 . S
N555 H575 0.862 . S
C556 C551 1.501 . S
C556 H557 0.961 . S
C556 H558 0.961 . S
C556 H559 0.960 . S
H557 C556 0.961 . S
H558 C556 0.961 . S
H559 C556 0.960 . S
C560 N561 1.342 . S
C560 C564 1.401 . S
C560 C565 1.499 . S
N561 Co544 1.989 . S
N561 C560 1.342 . S
N561 N562 1.388 . S
N562 Co545 1.993 . S
N562 N561 1.388 . S
N562 C563 1.346 . S
C563 N562 1.346 . S
C563 C564 1.396 . S
C563 C573 1.510 . S
C564 C560 1.401 . S
C564 C563 1.396 . S
C565 C560 1.499 . S
C565 H566 0.959 . S
C565 H567 0.960 . S
C565 H568 0.961 . S
H566 C565 0.959 . S
H567 C565 0.960 . S
H568 C565 0.961 . S
O569 Co544 1.967 . S
O569 C577 1.258 . S
O570 Co545 1.941 . S
O570 C577 1.266 . S
H571 C573 0.959 . S
H572 C573 0.961 . S
C573 C563 1.510 . S
C573 H571 0.959 . S
C573 H572 0.961 . S
C573 H574 0.960 . S
H574 C573 0.960 . S
H575 N555 0.862 . S
O576 Co544 1.920 . S
O576 C549 1.289 . S
C577 O569 1.258 . S
C577 O570 1.266 . S
Co578 O581 1.970 . S
Co578 N595 1.989 . S
Co578 O603 1.967 . S
Co578 O610 1.920 . S
Co579 O582 1.966 . S
Co579 N588 2.022 . S
Co579 N596 1.993 . S
Co579 O604 1.941 . S
C580 O581 1.258 . S
C580 O582 1.263 . S
O581 Co578 1.970 . S
O581 C580 1.258 . S
O582 Co579 1.966 . S
O582 C580 1.263 . S
C583 O584 1.235 . S
C583 O610 1.289 . S
O584 C583 1.235 . S
C585 C587 1.400 . S
C585 N588 1.351 . S
C585 C590 1.501 . S
C586 C587 1.387 . S
C586 N589 1.341 . S
C587 C585 1.400 . S
C587 C586 1.387 . S
N588 Co579 2.022 . S
N588 C585 1.351 . S
N588 N589 1.365 . S
N589 C586 1.341 . S
N589 N588 1.365 . S
N589 H609 0.862 . S
C590 C585 1.501 . S
C590 H591 0.961 . S
C590 H592 0.961 . S
C590 H593 0.960 . S
H591 C590 0.961 . S
H592 C590 0.961 . S
H593 C590 0.960 . S
C594 N595 1.342 . S
C594 C598 1.401 . S
C594 C599 1.499 . S
N595 Co578 1.989 . S
N595 C594 1.342 . S
N595 N596 1.388 . S
N596 Co579 1.993 . S
N596 N595 1.388 . S
N596 C597 1.346 . S
C597 N596 1.346 . S
C597 C598 1.396 . S
C597 C607 1.510 . S
C598 C594 1.401 . S
C598 C597 1.396 . S
C599 C594 1.499 . S
C599 H600 0.959 . S
C599 H601 0.960 . S
C599 H602 0.961 . S
H600 C599 0.959 . S
H601 C599 0.960 . S
H602 C599 0.961 . S
O603 Co578 1.967 . S
O603 C611 1.258 . S
O604 Co579 1.941 . S
O604 C611 1.266 . S
H605 C607 0.959 . S
H606 C607 0.961 . S
C607 C597 1.510 . S
C607 H605 0.959 . S
C607 H606 0.961 . S
C607 H608 0.960 . S
H608 C607 0.960 . S
H609 N589 0.862 . S
O610 Co578 1.920 . S
O610 C583 1.289 . S
C611 O603 1.258 . S
C611 O604 1.266 . S
Co612 O615 1.970 . S
Co612 N629 1.989 . S
Co612 O637 1.967 . S
Co612 O644 1.920 . S
Co613 O616 1.966 . S
Co613 N622 2.022 . S
Co613 N630 1.993 . S
Co613 O638 1.941 . S
C614 O615 1.258 . S
C614 O616 1.263 . S
O615 Co612 1.970 . S
O615 C614 1.258 . S
O616 Co613 1.966 . S
O616 C614 1.263 . S
C617 O618 1.235 . S
C617 O644 1.289 . S
O618 C617 1.235 . S
C619 C621 1.400 . S
C619 N622 1.351 . S
C619 C624 1.501 . S
C620 C621 1.387 . S
C620 N623 1.341 . S
C621 C619 1.400 . S
C621 C620 1.387 . S
N622 Co613 2.022 . S
N622 C619 1.351 . S
N622 N623 1.365 . S
N623 C620 1.341 . S
N623 N622 1.365 . S
N623 H643 0.868 . S
C624 C619 1.501 . S
C624 H625 0.961 . S
C624 H626 0.961 . S
C624 H627 0.960 . S
H625 C624 0.961 . S
H626 C624 0.961 . S
H627 C624 0.960 . S
C628 N629 1.342 . S
C628 C632 1.401 . S
C628 C633 1.499 . S
N629 Co612 1.989 . S
N629 C628 1.342 . S
N629 N630 1.388 . S
N630 Co613 1.993 . S
N630 N629 1.388 . S
N630 C631 1.346 . S
C631 N630 1.346 . S
C631 C632 1.396 . S
C631 C641 1.510 . S
C632 C628 1.401 . S
C632 C631 1.396 . S
C633 C628 1.499 . S
C633 H634 0.959 . S
C633 H635 0.960 . S
C633 H636 0.961 . S
H634 C633 0.959 . S
H635 C633 0.960 . S
H636 C633 0.961 . S
O637 Co612 1.967 . S
O637 C645 1.258 . S
O638 Co613 1.941 . S
O638 C645 1.266 . S
H639 C641 0.941 1_655 S
H640 C641 0.961 . S
C641 C631 1.510 . S
C641 H639 0.941 1_455 S
C641 H640 0.961 . S
C641 H642 0.960 . S
H642 C641 0.960 . S
H643 N623 0.868 . S
O644 Co612 1.920 . S
O644 C617 1.289 . S
C645 O637 1.258 . S
C645 O638 1.266 . S
Co646 O649 1.970 . S
Co646 N663 1.989 . S
Co646 O671 1.967 . S
Co646 O678 1.920 . S
Co647 O650 1.966 . S
Co647 N656 2.022 . S
Co647 N664 1.993 . S
Co647 O672 1.941 . S
C648 O649 1.258 . S
C648 O650 1.263 . S
O649 Co646 1.970 . S
O649 C648 1.258 . S
O650 Co647 1.966 . S
O650 C648 1.263 . S
C651 O652 1.235 . S
C651 O678 1.289 . S
O652 C651 1.235 . S
C653 C655 1.400 . S
C653 N656 1.351 . S
C653 C658 1.501 . S
C654 C655 1.387 . S
C654 N657 1.341 . S
C655 C653 1.400 . S
C655 C654 1.387 . S
N656 Co647 2.022 . S
N656 C653 1.351 . S
N656 N657 1.365 . S
N657 C654 1.341 . S
N657 N656 1.365 . S
N657 H677 0.862 . S
C658 C653 1.501 . S
C658 H659 0.961 . S
C658 H660 0.961 . S
C658 H661 0.960 . S
H659 C658 0.961 . S
H660 C658 0.961 . S
H661 C658 0.960 . S
C662 N663 1.342 . S
C662 C666 1.401 . S
C662 C667 1.499 . S
N663 Co646 1.989 . S
N663 C662 1.342 . S
N663 N664 1.388 . S
N664 Co647 1.993 . S
N664 N663 1.388 . S
N664 C665 1.346 . S
C665 N664 1.346 . S
C665 C666 1.396 . S
C665 C675 1.510 . S
C666 C662 1.401 . S
C666 C665 1.396 . S
C667 C662 1.499 . S
C667 H668 0.959 . S
C667 H669 0.960 . S
C667 H670 0.961 . S
H668 C667 0.959 . S
H669 C667 0.960 . S
H670 C667 0.961 . S
O671 Co646 1.967 . S
O671 C679 1.258 . S
O672 Co647 1.941 . S
O672 C679 1.266 . S
H673 C675 0.959 . S
H674 C675 0.961 . S
C675 C665 1.510 . S
C675 H673 0.959 . S
C675 H674 0.961 . S
C675 H676 0.960 . S
H676 C675 0.960 . S
H677 N657 0.862 . S
O678 Co646 1.920 . S
O678 C651 1.289 . S
C679 O671 1.258 . S
C679 O672 1.266 . S
Co680 O683 1.970 . S
Co680 N697 1.989 . S
Co680 O705 1.967 . S
Co680 O712 1.920 . S
Co681 O684 1.966 . S
Co681 N690 2.022 . S
Co681 N698 1.993 . S
Co681 O706 1.941 . S
C682 O683 1.258 . S
C682 O684 1.263 . S
O683 Co680 1.970 . S
O683 C682 1.258 . S
O684 Co681 1.966 . S
O684 C682 1.263 . S
C685 O686 1.235 . S
C685 O712 1.289 . S
O686 C685 1.235 . S
C687 C689 1.400 . S
C687 N690 1.351 . S
C687 C692 1.501 . S
C688 C689 1.387 . S
C688 N691 1.341 . S
C689 C687 1.400 . S
C689 C688 1.387 . S
N690 Co681 2.022 . S
N690 C687 1.351 . S
N690 N691 1.365 . S
N691 C688 1.341 . S
N691 N690 1.365 . S
N691 H711 0.868 . S
C692 C687 1.501 . S
C692 H693 0.961 . S
C692 H694 0.961 . S
C692 H695 0.960 . S
H693 C692 0.961 . S
H694 C692 0.961 . S
H695 C692 0.960 . S
C696 N697 1.342 . S
C696 C700 1.401 . S
C696 C701 1.499 . S
N697 Co680 1.989 . S
N697 C696 1.342 . S
N697 N698 1.388 . S
N698 Co681 1.993 . S
N698 N697 1.388 . S
N698 C699 1.346 . S
C699 N698 1.346 . S
C699 C700 1.396 . S
C699 C709 1.510 . S
C700 C696 1.401 . S
C700 C699 1.396 . S
C701 C696 1.499 . S
C701 H702 0.959 . S
C701 H703 0.960 . S
C701 H704 0.961 . S
H702 C701 0.959 . S
H703 C701 0.960 . S
H704 C701 0.961 . S
O705 Co680 1.967 . S
O705 C713 1.258 . S
O706 Co681 1.941 . S
O706 C713 1.266 . S
H707 C709 0.941 1_455 S
H708 C709 0.961 . S
C709 C699 1.510 . S
C709 H707 0.941 1_655 S
C709 H708 0.961 . S
C709 H710 0.960 . S
H710 C709 0.960 . S
H711 N691 0.868 . S
O712 Co680 1.920 . S
O712 C685 1.289 . S
C713 O705 1.258 . S
C713 O706 1.266 . S
Co714 O717 1.970 . S
Co714 N731 1.989 . S
Co714 O739 1.967 . S
Co714 O746 1.920 . S
Co715 O718 1.966 . S
Co715 N724 2.022 . S
Co715 N732 1.993 . S
Co715 O740 1.941 . S
C716 O717 1.258 . S
C716 O718 1.263 . S
O717 Co714 1.970 . S
O717 C716 1.258 . S
O718 Co715 1.966 . S
O718 C716 1.263 . S
C719 O720 1.235 . S
C719 O746 1.289 . S
O720 C719 1.235 . S
C721 C723 1.400 . S
C721 N724 1.351 . S
C721 C726 1.501 . S
C722 C723 1.387 . S
C722 N725 1.341 . S
C723 C721 1.400 . S
C723 C722 1.387 . S
N724 Co715 2.022 . S
N724 C721 1.351 . S
N724 N725 1.365 . S
N725 C722 1.341 . S
N725 N724 1.365 . S
N725 H745 0.862 . S
C726 C721 1.501 . S
C726 H727 0.961 . S
C726 H728 0.961 . S
C726 H729 0.960 . S
H727 C726 0.961 . S
H728 C726 0.961 . S
H729 C726 0.960 . S
C730 N731 1.342 . S
C730 C734 1.401 . S
C730 C735 1.499 . S
N731 Co714 1.989 . S
N731 C730 1.342 . S
N731 N732 1.388 . S
N732 Co715 1.993 . S
N732 N731 1.388 . S
N732 C733 1.346 . S
C733 N732 1.346 . S
C733 C734 1.396 . S
C733 C743 1.510 . S
C734 C730 1.401 . S
C734 C733 1.396 . S
C735 C730 1.499 . S
C735 H736 0.959 . S
C735 H737 0.960 . S
C735 H738 0.961 . S
H736 C735 0.959 . S
H737 C735 0.960 . S
H738 C735 0.961 . S
O739 Co714 1.967 . S
O739 C747 1.258 . S
O740 Co715 1.941 . S
O740 C747 1.266 . S
H741 C743 0.959 . S
H742 C743 0.961 . S
C743 C733 1.510 . S
C743 H741 0.959 . S
C743 H742 0.961 . S
C743 H744 0.960 . S
H744 C743 0.960 . S
H745 N725 0.862 . S
O746 Co714 1.920 . S
O746 C719 1.289 . S
C747 O739 1.258 . S
C747 O740 1.266 . S
Co748 O751 1.970 . S
Co748 N765 1.989 . S
Co748 O773 1.967 . S
Co748 O780 1.920 . S
Co749 O752 1.966 . S
Co749 N758 2.022 . S
Co749 N766 1.993 . S
Co749 O774 1.941 . S
C750 O751 1.258 . S
C750 O752 1.263 . S
O751 Co748 1.970 . S
O751 C750 1.258 . S
O752 Co749 1.966 . S
O752 C750 1.263 . S
C753 O754 1.235 . S
C753 O780 1.289 . S
O754 C753 1.235 . S
C755 C757 1.400 . S
C755 N758 1.351 . S
C755 C760 1.501 . S
C756 C757 1.387 . S
C756 N759 1.341 . S
C757 C755 1.400 . S
C757 C756 1.387 . S
N758 Co749 2.022 . S
N758 C755 1.351 . S
N758 N759 1.365 . S
N759 C756 1.341 . S
N759 N758 1.365 . S
N759 H779 0.868 . S
C760 C755 1.501 . S
C760 H761 0.961 . S
C760 H762 0.961 . S
C760 H763 0.960 . S
H761 C760 0.961 . S
H762 C760 0.961 . S
H763 C760 0.960 . S
C764 N765 1.342 . S
C764 C768 1.401 . S
C764 C769 1.499 . S
N765 Co748 1.989 . S
N765 C764 1.342 . S
N765 N766 1.388 . S
N766 Co749 1.993 . S
N766 N765 1.388 . S
N766 C767 1.346 . S
C767 N766 1.346 . S
C767 C768 1.396 . S
C767 C777 1.510 . S
C768 C764 1.401 . S
C768 C767 1.396 . S
C769 C764 1.499 . S
C769 H770 0.959 . S
C769 H771 0.960 . S
C769 H772 0.961 . S
H770 C769 0.959 . S
H771 C769 0.960 . S
H772 C769 0.961 . S
O773 Co748 1.967 . S
O773 C781 1.258 . S
O774 Co749 1.941 . S
O774 C781 1.266 . S
H775 C777 0.941 1_655 S
H776 C777 0.961 . S
C777 C767 1.510 . S
C777 H775 0.941 1_455 S
C777 H776 0.961 . S
C777 H778 0.960 . S
H778 C777 0.960 . S
H779 N759 0.868 . S
O780 Co748 1.920 . S
O780 C753 1.289 . S
C781 O773 1.258 . S
C781 O774 1.266 . S
Co782 O785 1.970 . S
Co782 N799 1.989 . S
Co782 O807 1.967 . S
Co782 O814 1.920 . S
Co783 O786 1.966 . S
Co783 N792 2.022 . S
Co783 N800 1.993 . S
Co783 O808 1.941 . S
C784 O785 1.258 . S
C784 O786 1.263 . S
O785 Co782 1.970 . S
O785 C784 1.258 . S
O786 Co783 1.966 . S
O786 C784 1.263 . S
C787 O788 1.235 . S
C787 O814 1.289 . S
O788 C787 1.235 . S
C789 C791 1.400 . S
C789 N792 1.351 . S
C789 C794 1.501 . S
C790 C791 1.387 . S
C790 N793 1.341 . S
C791 C789 1.400 . S
C791 C790 1.387 . S
N792 Co783 2.022 . S
N792 C789 1.351 . S
N792 N793 1.365 . S
N793 C790 1.341 . S
N793 N792 1.365 . S
N793 H813 0.862 . S
C794 C789 1.501 . S
C794 H795 0.961 . S
C794 H796 0.961 . S
C794 H797 0.960 . S
H795 C794 0.961 . S
H796 C794 0.961 . S
H797 C794 0.960 . S
C798 N799 1.342 . S
C798 C802 1.401 . S
C798 C803 1.499 . S
N799 Co782 1.989 . S
N799 C798 1.342 . S
N799 N800 1.388 . S
N800 Co783 1.993 . S
N800 N799 1.388 . S
N800 C801 1.346 . S
C801 N800 1.346 . S
C801 C802 1.396 . S
C801 C811 1.510 . S
C802 C798 1.401 . S
C802 C801 1.396 . S
C803 C798 1.499 . S
C803 H804 0.959 . S
C803 H805 0.960 . S
C803 H806 0.961 . S
H804 C803 0.959 . S
H805 C803 0.960 . S
H806 C803 0.961 . S
O807 Co782 1.967 . S
O807 C815 1.258 . S
O808 Co783 1.941 . S
O808 C815 1.266 . S
H809 C811 0.959 . S
H810 C811 0.961 . S
C811 C801 1.510 . S
C811 H809 0.959 . S
C811 H810 0.961 . S
C811 H812 0.960 . S
H812 C811 0.960 . S
H813 N793 0.862 . S
O814 Co782 1.920 . S
O814 C787 1.289 . S
C815 O807 1.258 . S
C815 O808 1.266 . S
Co816 O819 1.970 . S
Co816 N833 1.989 . S
Co816 O841 1.967 . S
Co816 O848 1.920 . S
Co817 O820 1.966 . S
Co817 N826 2.022 . S
Co817 N834 1.993 . S
Co817 O842 1.941 . S
C818 O819 1.258 . S
C818 O820 1.263 . S
O819 Co816 1.970 . S
O819 C818 1.258 . S
O820 Co817 1.966 . S
O820 C818 1.263 . S
C821 O822 1.235 . S
C821 O848 1.289 . S
O822 C821 1.235 . S
C823 C825 1.400 . S
C823 N826 1.351 . S
C823 C828 1.501 . S
C824 C825 1.387 . S
C824 N827 1.341 . S
C825 C823 1.400 . S
C825 C824 1.387 . S
N826 Co817 2.022 . S
N826 C823 1.351 . S
N826 N827 1.365 . S
N827 C824 1.341 . S
N827 N826 1.365 . S
N827 H847 0.862 . S
C828 C823 1.501 . S
C828 H829 0.961 . S
C828 H830 0.961 . S
C828 H831 0.960 . S
H829 C828 0.961 . S
H830 C828 0.961 . S
H831 C828 0.960 . S
C832 N833 1.342 . S
C832 C836 1.401 . S
C832 C837 1.499 . S
N833 Co816 1.989 . S
N833 C832 1.342 . S
N833 N834 1.388 . S
N834 Co817 1.993 . S
N834 N833 1.388 . S
N834 C835 1.346 . S
C835 N834 1.346 . S
C835 C836 1.396 . S
C835 C845 1.510 . S
C836 C832 1.401 . S
C836 C835 1.396 . S
C837 C832 1.499 . S
C837 H838 0.959 . S
C837 H839 0.960 . S
C837 H840 0.961 . S
H838 C837 0.959 . S
H839 C837 0.960 . S
H840 C837 0.961 . S
O841 Co816 1.967 . S
O841 C849 1.258 . S
O842 Co817 1.941 . S
O842 C849 1.266 . S
H843 C845 0.959 . S
H844 C845 0.961 . S
C845 C835 1.510 . S
C845 H843 0.959 . S
C845 H844 0.961 . S
C845 H846 0.960 . S
H846 C845 0.960 . S
H847 N827 0.862 . S
O848 Co816 1.920 . S
O848 C821 1.289 . S
C849 O841 1.258 . S
C849 O842 1.266 . S
Co850 O853 1.970 . S
Co850 N867 1.989 . S
Co850 O875 1.967 . S
Co850 O882 1.920 . S
Co851 O854 1.966 . S
Co851 N860 2.022 . S
Co851 N868 1.993 . S
Co851 O876 1.941 . S
C852 O853 1.258 . S
C852 O854 1.263 . S
O853 Co850 1.970 . S
O853 C852 1.258 . S
O854 Co851 1.966 . S
O854 C852 1.263 . S
C855 O856 1.235 . S
C855 O882 1.289 . S
O856 C855 1.235 . S
C857 C859 1.400 . S
C857 N860 1.351 . S
C857 C862 1.501 . S
C858 C859 1.387 . S
C858 N861 1.341 . S
C859 C857 1.400 . S
C859 C858 1.387 . S
N860 Co851 2.022 . S
N860 C857 1.351 . S
N860 N861 1.365 . S
N861 C858 1.341 . S
N861 N860 1.365 . S
N861 H881 0.868 . S
C862 C857 1.501 . S
C862 H863 0.961 . S
C862 H864 0.961 . S
C862 H865 0.960 . S
H863 C862 0.961 . S
H864 C862 0.961 . S
H865 C862 0.960 . S
C866 N867 1.342 . S
C866 C870 1.401 . S
C866 C871 1.499 . S
N867 Co850 1.989 . S
N867 C866 1.342 . S
N867 N868 1.388 . S
N868 Co851 1.993 . S
N868 N867 1.388 . S
N868 C869 1.346 . S
C869 N868 1.346 . S
C869 C870 1.396 . S
C869 C879 1.510 . S
C870 C866 1.401 . S
C870 C869 1.396 . S
C871 C866 1.499 . S
C871 H872 0.959 . S
C871 H873 0.960 . S
C871 H874 0.961 . S
H872 C871 0.959 . S
H873 C871 0.960 . S
H874 C871 0.961 . S
O875 Co850 1.967 . S
O875 C883 1.258 . S
O876 Co851 1.941 . S
O876 C883 1.266 . S
H877 C879 0.941 1_556 S
H878 C879 0.961 . S
C879 C869 1.510 . S
C879 H877 0.941 1_554 S
C879 H878 0.961 . S
C879 H880 0.960 . S
H880 C879 0.960 . S
H881 N861 0.868 . S
O882 Co850 1.920 . S
O882 C855 1.289 . S
C883 O875 1.258 . S
C883 O876 1.266 . S
Co884 O887 1.970 . S
Co884 N901 1.989 . S
Co884 O909 1.967 . S
Co884 O916 1.920 . S
Co885 O888 1.966 . S
Co885 N894 2.022 . S
Co885 N902 1.993 . S
Co885 O910 1.941 . S
C886 O887 1.258 . S
C886 O888 1.263 . S
O887 Co884 1.970 . S
O887 C886 1.258 . S
O888 Co885 1.966 . S
O888 C886 1.263 . S
C889 O890 1.235 . S
C889 O916 1.289 . S
O890 C889 1.235 . S
C891 C893 1.400 . S
C891 N894 1.351 . S
C891 C896 1.501 . S
C892 C893 1.387 . S
C892 N895 1.341 . S
C893 C891 1.400 . S
C893 C892 1.387 . S
N894 Co885 2.022 . S
N894 C891 1.351 . S
N894 N895 1.365 . S
N895 C892 1.341 . S
N895 N894 1.365 . S
N895 H915 0.862 . S
C896 C891 1.501 . S
C896 H897 0.961 . S
C896 H898 0.961 . S
C896 H899 0.960 . S
H897 C896 0.961 . S
H898 C896 0.961 . S
H899 C896 0.960 . S
C900 N901 1.342 . S
C900 C904 1.401 . S
C900 C905 1.499 . S
N901 Co884 1.989 . S
N901 C900 1.342 . S
N901 N902 1.388 . S
N902 Co885 1.993 . S
N902 N901 1.388 . S
N902 C903 1.346 . S
C903 N902 1.346 . S
C903 C904 1.396 . S
C903 C913 1.510 . S
C904 C900 1.401 . S
C904 C903 1.396 . S
C905 C900 1.499 . S
C905 H906 0.959 . S
C905 H907 0.960 . S
C905 H908 0.961 . S
H906 C905 0.959 . S
H907 C905 0.960 . S
H908 C905 0.961 . S
O909 Co884 1.967 . S
O909 C917 1.258 . S
O910 Co885 1.941 . S
O910 C917 1.266 . S
H911 C913 0.959 . S
H912 C913 0.961 . S
C913 C903 1.510 . S
C913 H911 0.959 . S
C913 H912 0.961 . S
C913 H914 0.960 . S
H914 C913 0.960 . S
H915 N895 0.862 . S
O916 Co884 1.920 . S
O916 C889 1.289 . S
C917 O909 1.258 . S
C917 O910 1.266 . S
Co918 O921 1.970 . S
Co918 N935 1.989 . S
Co918 O943 1.967 . S
Co918 O950 1.920 . S
Co919 O922 1.966 . S
Co919 N928 2.022 . S
Co919 N936 1.993 . S
Co919 O944 1.941 . S
C920 O921 1.258 . S
C920 O922 1.263 . S
O921 Co918 1.970 . S
O921 C920 1.258 . S
O922 Co919 1.966 . S
O922 C920 1.263 . S
C923 O924 1.235 . S
C923 O950 1.289 . S
O924 C923 1.235 . S
C925 C927 1.400 . S
C925 N928 1.351 . S
C925 C930 1.501 . S
C926 C927 1.387 . S
C926 N929 1.341 . S
C927 C925 1.400 . S
C927 C926 1.387 . S
N928 Co919 2.022 . S
N928 C925 1.351 . S
N928 N929 1.365 . S
N929 C926 1.341 . S
N929 N928 1.365 . S
N929 H949 0.862 . S
C930 C925 1.501 . S
C930 H931 0.961 . S
C930 H932 0.961 . S
C930 H933 0.960 . S
H931 C930 0.961 . S
H932 C930 0.961 . S
H933 C930 0.960 . S
C934 N935 1.342 . S
C934 C938 1.401 . S
C934 C939 1.499 . S
N935 Co918 1.989 . S
N935 C934 1.342 . S
N935 N936 1.388 . S
N936 Co919 1.993 . S
N936 N935 1.388 . S
N936 C937 1.346 . S
C937 N936 1.346 . S
C937 C938 1.396 . S
C937 C947 1.510 . S
C938 C934 1.401 . S
C938 C937 1.396 . S
C939 C934 1.499 . S
C939 H940 0.959 . S
C939 H941 0.960 . S
C939 H942 0.961 . S
H940 C939 0.959 . S
H941 C939 0.960 . S
H942 C939 0.961 . S
O943 Co918 1.967 . S
O943 C951 1.258 . S
O944 Co919 1.941 . S
O944 C951 1.266 . S
H945 C947 0.959 . S
H946 C947 0.961 . S
C947 C937 1.510 . S
C947 H945 0.959 . S
C947 H946 0.961 . S
C947 H948 0.960 . S
H948 C947 0.960 . S
H949 N929 0.862 . S
O950 Co918 1.920 . S
O950 C923 1.289 . S
C951 O943 1.258 . S
C951 O944 1.266 . S
Co952 O955 1.970 . S
Co952 N969 1.989 . S
Co952 O977 1.967 . S
Co952 O984 1.920 . S
Co953 O956 1.966 . S
Co953 N962 2.022 . S
Co953 N970 1.993 . S
Co953 O978 1.941 . S
C954 O955 1.258 . S
C954 O956 1.263 . S
O955 Co952 1.970 . S
O955 C954 1.258 . S
O956 Co953 1.966 . S
O956 C954 1.263 . S
C957 O958 1.235 . S
C957 O984 1.289 . S
O958 C957 1.235 . S
C959 C961 1.400 . S
C959 N962 1.351 . S
C959 C964 1.501 . S
C960 C961 1.387 . S
C960 N963 1.341 . S
C961 C959 1.400 . S
C961 C960 1.387 . S
N962 Co953 2.022 . S
N962 C959 1.351 . S
N962 N963 1.365 . S
N963 C960 1.341 . S
N963 N962 1.365 . S
N963 H983 0.862 . S
C964 C959 1.501 . S
C964 H965 0.961 . S
C964 H966 0.961 . S
C964 H967 0.960 . S
H965 C964 0.961 . S
H966 C964 0.961 . S
H967 C964 0.960 . S
C968 N969 1.342 . S
C968 C972 1.401 . S
C968 C973 1.499 . S
N969 Co952 1.989 . S
N969 C968 1.342 . S
N969 N970 1.388 . S
N970 Co953 1.993 . S
N970 N969 1.388 . S
N970 C971 1.346 . S
C971 N970 1.346 . S
C971 C972 1.396 . S
C971 C981 1.510 . S
C972 C968 1.401 . S
C972 C971 1.396 . S
C973 C968 1.499 . S
C973 H974 0.959 . S
C973 H975 0.960 . S
C973 H976 0.961 . S
H974 C973 0.959 . S
H975 C973 0.960 . S
H976 C973 0.961 . S
O977 Co952 1.967 . S
O977 C985 1.258 . S
O978 Co953 1.941 . S
O978 C985 1.266 . S
H979 C981 0.959 . S
H980 C981 0.961 . S
C981 C971 1.510 . S
C981 H979 0.959 . S
C981 H980 0.961 . S
C981 H982 0.960 . S
H982 C981 0.960 . S
H983 N963 0.862 . S
O984 Co952 1.920 . S
O984 C957 1.289 . S
C985 O977 1.258 . S
C985 O978 1.266 . S
Co986 O989 1.970 . S
Co986 N1003 1.989 . S
Co986 O1011 1.967 . S
Co986 O1018 1.920 . S
Co987 O990 1.966 . S
Co987 N996 2.022 . S
Co987 N1004 1.993 . S
Co987 O1012 1.941 . S
C988 O989 1.258 . S
C988 O990 1.263 . S
O989 Co986 1.970 . S
O989 C988 1.258 . S
O990 Co987 1.966 . S
O990 C988 1.263 . S
C991 O992 1.235 . S
C991 O1018 1.289 . S
O992 C991 1.235 . S
C993 C995 1.400 . S
C993 N996 1.351 . S
C993 C998 1.501 . S
C994 C995 1.387 . S
C994 N997 1.341 . S
C995 C993 1.400 . S
C995 C994 1.387 . S
N996 Co987 2.022 . S
N996 C993 1.351 . S
N996 N997 1.365 . S
N997 C994 1.341 . S
N997 N996 1.365 . S
N997 H1017 0.868 . S
C998 C993 1.501 . S
C998 H999 0.961 . S
C998 H1000 0.961 . S
C998 H1001 0.960 . S
H999 C998 0.961 . S
H1000 C998 0.961 . S
H1001 C998 0.960 . S
C1002 N1003 1.342 . S
C1002 C1006 1.401 . S
C1002 C1007 1.499 . S
N1003 Co986 1.989 . S
N1003 C1002 1.342 . S
N1003 N1004 1.388 . S
N1004 Co987 1.993 . S
N1004 N1003 1.388 . S
N1004 C1005 1.346 . S
C1005 N1004 1.346 . S
C1005 C1006 1.396 . S
C1005 C1015 1.510 . S
C1006 C1002 1.401 . S
C1006 C1005 1.396 . S
C1007 C1002 1.499 . S
C1007 H1008 0.959 . S
C1007 H1009 0.960 . S
C1007 H1010 0.961 . S
H1008 C1007 0.959 . S
H1009 C1007 0.960 . S
H1010 C1007 0.961 . S
O1011 Co986 1.967 . S
O1011 C1019 1.258 . S
O1012 Co987 1.941 . S
O1012 C1019 1.266 . S
H1013 C1015 0.941 1_554 S
H1014 C1015 0.961 . S
C1015 C1005 1.510 . S
C1015 H1013 0.941 1_556 S
C1015 H1014 0.961 . S
C1015 H1016 0.960 . S
H1016 C1015 0.960 . S
H1017 N997 0.868 . S
O1018 Co986 1.920 . S
O1018 C991 1.289 . S
C1019 O1011 1.258 . S
C1019 O1012 1.266 . S
Co1020 O1023 1.970 . S
Co1020 N1037 1.989 . S
Co1020 O1045 1.967 . S
Co1020 O1052 1.920 . S
Co1021 O1024 1.966 . S
Co1021 N1030 2.022 . S
Co1021 N1038 1.993 . S
Co1021 O1046 1.941 . S
C1022 O1023 1.258 . S
C1022 O1024 1.263 . S
O1023 Co1020 1.970 . S
O1023 C1022 1.258 . S
O1024 Co1021 1.966 . S
O1024 C1022 1.263 . S
C1025 O1026 1.235 . S
C1025 O1052 1.289 . S
O1026 C1025 1.235 . S
C1027 C1029 1.400 . S
C1027 N1030 1.351 . S
C1027 C1032 1.501 . S
C1028 C1029 1.387 . S
C1028 N1031 1.341 . S
C1029 C1027 1.400 . S
C1029 C1028 1.387 . S
N1030 Co1021 2.022 . S
N1030 C1027 1.351 . S
N1030 N1031 1.365 . S
N1031 C1028 1.341 . S
N1031 N1030 1.365 . S
N1031 H1051 0.862 . S
C1032 C1027 1.501 . S
C1032 H1033 0.961 . S
C1032 H1034 0.961 . S
C1032 H1035 0.960 . S
H1033 C1032 0.961 . S
H1034 C1032 0.961 . S
H1035 C1032 0.960 . S
C1036 N1037 1.342 . S
C1036 C1040 1.401 . S
C1036 C1041 1.499 . S
N1037 Co1020 1.989 . S
N1037 C1036 1.342 . S
N1037 N1038 1.388 . S
N1038 Co1021 1.993 . S
N1038 N1037 1.388 . S
N1038 C1039 1.346 . S
C1039 N1038 1.346 . S
C1039 C1040 1.396 . S
C1039 C1049 1.510 . S
C1040 C1036 1.401 . S
C1040 C1039 1.396 . S
C1041 C1036 1.499 . S
C1041 H1042 0.959 . S
C1041 H1043 0.960 . S
C1041 H1044 0.961 . S
H1042 C1041 0.959 . S
H1043 C1041 0.960 . S
H1044 C1041 0.961 . S
O1045 Co1020 1.967 . S
O1045 C1053 1.258 . S
O1046 Co1021 1.941 . S
O1046 C1053 1.266 . S
H1047 C1049 0.959 . S
H1048 C1049 0.961 . S
C1049 C1039 1.510 . S
C1049 H1047 0.959 . S
C1049 H1048 0.961 . S
C1049 H1050 0.960 . S
H1050 C1049 0.960 . S
H1051 N1031 0.862 . S
O1052 Co1020 1.920 . S
O1052 C1025 1.289 . S
C1053 O1045 1.258 . S
C1053 O1046 1.266 . S
Co1054 O1057 1.970 . S
Co1054 N1071 1.989 . S
Co1054 O1079 1.967 . S
Co1054 O1086 1.920 . S
Co1055 O1058 1.966 . S
Co1055 N1064 2.022 . S
Co1055 N1072 1.993 . S
Co1055 O1080 1.941 . S
C1056 O1057 1.258 . S
C1056 O1058 1.263 . S
O1057 Co1054 1.970 . S
O1057 C1056 1.258 . S
O1058 Co1055 1.966 . S
O1058 C1056 1.263 . S
C1059 O1060 1.235 . S
C1059 O1086 1.289 . S
O1060 C1059 1.235 . S
C1061 C1063 1.400 . S
C1061 N1064 1.351 . S
C1061 C1066 1.501 . S
C1062 C1063 1.387 . S
C1062 N1065 1.341 . S
C1063 C1061 1.400 . S
C1063 C1062 1.387 . S
N1064 Co1055 2.022 . S
N1064 C1061 1.351 . S
N1064 N1065 1.365 . S
N1065 C1062 1.341 . S
N1065 N1064 1.365 . S
N1065 H1085 0.862 . S
C1066 C1061 1.501 . S
C1066 H1067 0.961 . S
C1066 H1068 0.961 . S
C1066 H1069 0.960 . S
H1067 C1066 0.961 . S
H1068 C1066 0.961 . S
H1069 C1066 0.960 . S
C1070 N1071 1.342 . S
C1070 C1074 1.401 . S
C1070 C1075 1.499 . S
N1071 Co1054 1.989 . S
N1071 C1070 1.342 . S
N1071 N1072 1.388 . S
N1072 Co1055 1.993 . S
N1072 N1071 1.388 . S
N1072 C1073 1.346 . S
C1073 N1072 1.346 . S
C1073 C1074 1.396 . S
C1073 C1083 1.510 . S
C1074 C1070 1.401 . S
C1074 C1073 1.396 . S
C1075 C1070 1.499 . S
C1075 H1076 0.959 . S
C1075 H1077 0.960 . S
C1075 H1078 0.961 . S
H1076 C1075 0.959 . S
H1077 C1075 0.960 . S
H1078 C1075 0.961 . S
O1079 Co1054 1.967 . S
O1079 C1087 1.258 . S
O1080 Co1055 1.941 . S
O1080 C1087 1.266 . S
H1081 C1083 0.959 . S
H1082 C1083 0.961 . S
C1083 C1073 1.510 . S
C1083 H1081 0.959 . S
C1083 H1082 0.961 . S
C1083 H1084 0.960 . S
H1084 C1083 0.960 . S
H1085 N1065 0.862 . S
O1086 Co1054 1.920 . S
O1086 C1059 1.289 . S
C1087 O1079 1.258 . S
C1087 O1080 1.266 . S
Co1088 O1091 1.970 . S
Co1088 N1105 1.989 . S
Co1088 O1113 1.967 . S
Co1088 O1120 1.920 . S
Co1089 O1092 1.966 . S
Co1089 N1098 2.022 . S
Co1089 N1106 1.993 . S
Co1089 O1114 1.941 . S
C1090 O1091 1.258 . S
C1090 O1092 1.263 . S
O1091 Co1088 1.970 . S
O1091 C1090 1.258 . S
O1092 Co1089 1.966 . S
O1092 C1090 1.263 . S
C1093 O1094 1.235 . S
C1093 O1120 1.289 . S
O1094 C1093 1.235 . S
C1095 C1097 1.400 . S
C1095 N1098 1.351 . S
C1095 C1100 1.501 . S
C1096 C1097 1.387 . S
C1096 N1099 1.341 . S
C1097 C1095 1.400 . S
C1097 C1096 1.387 . S
N1098 Co1089 2.022 . S
N1098 C1095 1.351 . S
N1098 N1099 1.365 . S
N1099 C1096 1.341 . S
N1099 N1098 1.365 . S
N1099 H1119 0.862 . S
C1100 C1095 1.501 . S
C1100 H1101 0.961 . S
C1100 H1102 0.961 . S
C1100 H1103 0.960 . S
H1101 C1100 0.961 . S
H1102 C1100 0.961 . S
H1103 C1100 0.960 . S
C1104 N1105 1.342 . S
C1104 C1108 1.401 . S
C1104 C1109 1.499 . S
N1105 Co1088 1.989 . S
N1105 C1104 1.342 . S
N1105 N1106 1.388 . S
N1106 Co1089 1.993 . S
N1106 N1105 1.388 . S
N1106 C1107 1.346 . S
C1107 N1106 1.346 . S
C1107 C1108 1.396 . S
C1107 C1117 1.510 . S
C1108 C1104 1.401 . S
C1108 C1107 1.396 . S
C1109 C1104 1.499 . S
C1109 H1110 0.959 . S
C1109 H1111 0.960 . S
C1109 H1112 0.961 . S
H1110 C1109 0.959 . S
H1111 C1109 0.960 . S
H1112 C1109 0.961 . S
O1113 Co1088 1.967 . S
O1113 C1121 1.258 . S
O1114 Co1089 1.941 . S
O1114 C1121 1.266 . S
H1115 C1117 0.959 . S
H1116 C1117 0.961 . S
C1117 C1107 1.510 . S
C1117 H1115 0.959 . S
C1117 H1116 0.961 . S
C1117 H1118 0.960 . S
H1118 C1117 0.960 . S
H1119 N1099 0.862 . S
O1120 Co1088 1.920 . S
O1120 C1093 1.289 . S
C1121 O1113 1.258 . S
C1121 O1114 1.266 . S
Co1122 O1125 1.970 . S
Co1122 N1139 1.989 . S
Co1122 O1147 1.967 . S
Co1122 O1154 1.920 . S
Co1123 O1126 1.966 . S
Co1123 N1132 2.022 . S
Co1123 N1140 1.993 . S
Co1123 O1148 1.941 . S
C1124 O1125 1.258 . S
C1124 O1126 1.263 . S
O1125 Co1122 1.970 . S
O1125 C1124 1.258 . S
O1126 Co1123 1.966 . S
O1126 C1124 1.263 . S
C1127 O1128 1.235 . S
C1127 O1154 1.289 . S
O1128 C1127 1.235 . S
C1129 C1131 1.400 . S
C1129 N1132 1.351 . S
C1129 C1134 1.501 . S
C1130 C1131 1.387 . S
C1130 N1133 1.341 . S
C1131 C1129 1.400 . S
C1131 C1130 1.387 . S
N1132 Co1123 2.022 . S
N1132 C1129 1.351 . S
N1132 N1133 1.365 . S
N1133 C1130 1.341 . S
N1133 N1132 1.365 . S
N1133 H1153 0.862 . S
C1134 C1129 1.501 . S
C1134 H1135 0.961 . S
C1134 H1136 0.961 . S
C1134 H1137 0.960 . S
H1135 C1134 0.961 . S
H1136 C1134 0.961 . S
H1137 C1134 0.960 . S
C1138 N1139 1.342 . S
C1138 C1142 1.401 . S
C1138 C1143 1.499 . S
N1139 Co1122 1.989 . S
N1139 C1138 1.342 . S
N1139 N1140 1.388 . S
N1140 Co1123 1.993 . S
N1140 N1139 1.388 . S
N1140 C1141 1.346 . S
C1141 N1140 1.346 . S
C1141 C1142 1.396 . S
C1141 C1151 1.510 . S
C1142 C1138 1.401 . S
C1142 C1141 1.396 . S
C1143 C1138 1.499 . S
C1143 H1144 0.959 . S
C1143 H1145 0.960 . S
C1143 H1146 0.961 . S
H1144 C1143 0.959 . S
H1145 C1143 0.960 . S
H1146 C1143 0.961 . S
O1147 Co1122 1.967 . S
O1147 C1155 1.258 . S
O1148 Co1123 1.941 . S
O1148 C1155 1.266 . S
H1149 C1151 0.959 . S
H1150 C1151 0.961 . S
C1151 C1141 1.510 . S
C1151 H1149 0.959 . S
C1151 H1150 0.961 . S
C1151 H1152 0.960 . S
H1152 C1151 0.960 . S
H1153 N1133 0.862 . S
O1154 Co1122 1.920 . S
O1154 C1127 1.289 . S
C1155 O1147 1.258 . S
C1155 O1148 1.266 . S
Co1156 O1159 1.970 . S
Co1156 N1173 1.989 . S
Co1156 O1181 1.967 . S
Co1156 O1188 1.920 . S
Co1157 O1160 1.966 . S
Co1157 N1166 2.022 . S
Co1157 N1174 1.993 . S
Co1157 O1182 1.941 . S
C1158 O1159 1.258 . S
C1158 O1160 1.263 . S
O1159 Co1156 1.970 . S
O1159 C1158 1.258 . S
O1160 Co1157 1.966 . S
O1160 C1158 1.263 . S
C1161 O1162 1.235 . S
C1161 O1188 1.289 . S
O1162 C1161 1.235 . S
C1163 C1165 1.400 . S
C1163 N1166 1.351 . S
C1163 C1168 1.501 . S
C1164 C1165 1.387 . S
C1164 N1167 1.341 . S
C1165 C1163 1.400 . S
C1165 C1164 1.387 . S
N1166 Co1157 2.022 . S
N1166 C1163 1.351 . S
N1166 N1167 1.365 . S
N1167 C1164 1.341 . S
N1167 N1166 1.365 . S
N1167 H1187 0.862 . S
C1168 C1163 1.501 . S
C1168 H1169 0.961 . S
C1168 H1170 0.961 . S
C1168 H1171 0.960 . S
H1169 C1168 0.961 . S
H1170 C1168 0.961 . S
H1171 C1168 0.960 . S
C1172 N1173 1.342 . S
C1172 C1176 1.401 . S
C1172 C1177 1.499 . S
N1173 Co1156 1.989 . S
N1173 C1172 1.342 . S
N1173 N1174 1.388 . S
N1174 Co1157 1.993 . S
N1174 N1173 1.388 . S
N1174 C1175 1.346 . S
C1175 N1174 1.346 . S
C1175 C1176 1.396 . S
C1175 C1185 1.510 . S
C1176 C1172 1.401 . S
C1176 C1175 1.396 . S
C1177 C1172 1.499 . S
C1177 H1178 0.959 . S
C1177 H1179 0.960 . S
C1177 H1180 0.961 . S
H1178 C1177 0.959 . S
H1179 C1177 0.960 . S
H1180 C1177 0.961 . S
O1181 Co1156 1.967 . S
O1181 C1189 1.258 . S
O1182 Co1157 1.941 . S
O1182 C1189 1.266 . S
H1183 C1185 0.959 . S
H1184 C1185 0.961 . S
C1185 C1175 1.510 . S
C1185 H1183 0.959 . S
C1185 H1184 0.961 . S
C1185 H1186 0.960 . S
H1186 C1185 0.960 . S
H1187 N1167 0.862 . S
O1188 Co1156 1.920 . S
O1188 C1161 1.289 . S
C1189 O1181 1.258 . S
C1189 O1182 1.266 . S
Co1190 O1193 1.970 . S
Co1190 N1207 1.989 . S
Co1190 O1215 1.967 . S
Co1190 O1222 1.920 . S
Co1191 O1194 1.966 . S
Co1191 N1200 2.022 . S
Co1191 N1208 1.993 . S
Co1191 O1216 1.941 . S
C1192 O1193 1.258 . S
C1192 O1194 1.263 . S
O1193 Co1190 1.970 . S
O1193 C1192 1.258 . S
O1194 Co1191 1.966 . S
O1194 C1192 1.263 . S
C1195 O1196 1.235 . S
C1195 O1222 1.289 . S
O1196 C1195 1.235 . S
C1197 C1199 1.400 . S
C1197 N1200 1.351 . S
C1197 C1202 1.501 . S
C1198 C1199 1.387 . S
C1198 N1201 1.341 . S
C1199 C1197 1.400 . S
C1199 C1198 1.387 . S
N1200 Co1191 2.022 . S
N1200 C1197 1.351 . S
N1200 N1201 1.365 . S
N1201 C1198 1.341 . S
N1201 N1200 1.365 . S
N1201 H1221 0.862 . S
C1202 C1197 1.501 . S
C1202 H1203 0.961 . S
C1202 H1204 0.961 . S
C1202 H1205 0.960 . S
H1203 C1202 0.961 . S
H1204 C1202 0.961 . S
H1205 C1202 0.960 . S
C1206 N1207 1.342 . S
C1206 C1210 1.401 . S
C1206 C1211 1.499 . S
N1207 Co1190 1.989 . S
N1207 C1206 1.342 . S
N1207 N1208 1.388 . S
N1208 Co1191 1.993 . S
N1208 N1207 1.388 . S
N1208 C1209 1.346 . S
C1209 N1208 1.346 . S
C1209 C1210 1.396 . S
C1209 C1219 1.510 . S
C1210 C1206 1.401 . S
C1210 C1209 1.396 . S
C1211 C1206 1.499 . S
C1211 H1212 0.959 . S
C1211 H1213 0.960 . S
C1211 H1214 0.961 . S
H1212 C1211 0.959 . S
H1213 C1211 0.960 . S
H1214 C1211 0.961 . S
O1215 Co1190 1.967 . S
O1215 C1223 1.258 . S
O1216 Co1191 1.941 . S
O1216 C1223 1.266 . S
H1217 C1219 0.959 . S
H1218 C1219 0.961 . S
C1219 C1209 1.510 . S
C1219 H1217 0.959 . S
C1219 H1218 0.961 . S
C1219 H1220 0.960 . S
H1220 C1219 0.960 . S
H1221 N1201 0.862 . S
O1222 Co1190 1.920 . S
O1222 C1195 1.289 . S
C1223 O1215 1.258 . S
C1223 O1216 1.266 . S
Co1224 O1227 1.970 . S
Co1224 N1241 1.989 . S
Co1224 O1249 1.967 . S
Co1224 O1256 1.920 . S
Co1225 O1228 1.966 . S
Co1225 N1234 2.022 . S
Co1225 N1242 1.993 . S
Co1225 O1250 1.941 . S
C1226 O1227 1.258 . S
C1226 O1228 1.263 . S
O1227 Co1224 1.970 . S
O1227 C1226 1.258 . S
O1228 Co1225 1.966 . S
O1228 C1226 1.263 . S
C1229 O1230 1.235 . S
C1229 O1256 1.289 . S
O1230 C1229 1.235 . S
C1231 C1233 1.400 . S
C1231 N1234 1.351 . S
C1231 C1236 1.501 . S
C1232 C1233 1.387 . S
C1232 N1235 1.341 . S
C1233 C1231 1.400 . S
C1233 C1232 1.387 . S
N1234 Co1225 2.022 . S
N1234 C1231 1.351 . S
N1234 N1235 1.365 . S
N1235 C1232 1.341 . S
N1235 N1234 1.365 . S
N1235 H1255 0.862 . S
C1236 C1231 1.501 . S
C1236 H1237 0.961 . S
C1236 H1238 0.961 . S
C1236 H1239 0.960 . S
H1237 C1236 0.961 . S
H1238 C1236 0.961 . S
H1239 C1236 0.960 . S
C1240 N1241 1.342 . S
C1240 C1244 1.401 . S
C1240 C1245 1.499 . S
N1241 Co1224 1.989 . S
N1241 C1240 1.342 . S
N1241 N1242 1.388 . S
N1242 Co1225 1.993 . S
N1242 N1241 1.388 . S
N1242 C1243 1.346 . S
C1243 N1242 1.346 . S
C1243 C1244 1.396 . S
C1243 C1253 1.510 . S
C1244 C1240 1.401 . S
C1244 C1243 1.396 . S
C1245 C1240 1.499 . S
C1245 H1246 0.959 . S
C1245 H1247 0.960 . S
C1245 H1248 0.961 . S
H1246 C1245 0.959 . S
H1247 C1245 0.960 . S
H1248 C1245 0.961 . S
O1249 Co1224 1.967 . S
O1249 C1257 1.258 . S
O1250 Co1225 1.941 . S
O1250 C1257 1.266 . S
H1251 C1253 0.959 . S
H1252 C1253 0.961 . S
C1253 C1243 1.510 . S
C1253 H1251 0.959 . S
C1253 H1252 0.961 . S
C1253 H1254 0.960 . S
H1254 C1253 0.960 . S
H1255 N1235 0.862 . S
O1256 Co1224 1.920 . S
O1256 C1229 1.289 . S
C1257 O1249 1.258 . S
C1257 O1250 1.266 . S
Co1258 O1261 1.970 . S
Co1258 N1275 1.989 . S
Co1258 O1283 1.967 . S
Co1258 O1290 1.920 . S
Co1259 O1262 1.966 . S
Co1259 N1268 2.022 . S
Co1259 N1276 1.993 . S
Co1259 O1284 1.941 . S
C1260 O1261 1.258 . S
C1260 O1262 1.263 . S
O1261 Co1258 1.970 . S
O1261 C1260 1.258 . S
O1262 Co1259 1.966 . S
O1262 C1260 1.263 . S
C1263 O1264 1.235 . S
C1263 O1290 1.289 . S
O1264 C1263 1.235 . S
C1265 C1267 1.400 . S
C1265 N1268 1.351 . S
C1265 C1270 1.501 . S
C1266 C1267 1.387 . S
C1266 N1269 1.341 . S
C1267 C1265 1.400 . S
C1267 C1266 1.387 . S
N1268 Co1259 2.022 . S
N1268 C1265 1.351 . S
N1268 N1269 1.365 . S
N1269 C1266 1.341 . S
N1269 N1268 1.365 . S
N1269 H1289 0.862 . S
C1270 C1265 1.501 . S
C1270 H1271 0.961 . S
C1270 H1272 0.961 . S
C1270 H1273 0.960 . S
H1271 C1270 0.961 . S
H1272 C1270 0.961 . S
H1273 C1270 0.960 . S
C1274 N1275 1.342 . S
C1274 C1278 1.401 . S
C1274 C1279 1.499 . S
N1275 Co1258 1.989 . S
N1275 C1274 1.342 . S
N1275 N1276 1.388 . S
N1276 Co1259 1.993 . S
N1276 N1275 1.388 . S
N1276 C1277 1.346 . S
C1277 N1276 1.346 . S
C1277 C1278 1.396 . S
C1277 C1287 1.510 . S
C1278 C1274 1.401 . S
C1278 C1277 1.396 . S
C1279 C1274 1.499 . S
C1279 H1280 0.959 . S
C1279 H1281 0.960 . S
C1279 H1282 0.961 . S
H1280 C1279 0.959 . S
H1281 C1279 0.960 . S
H1282 C1279 0.961 . S
O1283 Co1258 1.967 . S
O1283 C1291 1.258 . S
O1284 Co1259 1.941 . S
O1284 C1291 1.266 . S
H1285 C1287 0.959 . S
H1286 C1287 0.961 . S
C1287 C1277 1.510 . S
C1287 H1285 0.959 . S
C1287 H1286 0.961 . S
C1287 H1288 0.960 . S
H1288 C1287 0.960 . S
H1289 N1269 0.862 . S
O1290 Co1258 1.920 . S
O1290 C1263 1.289 . S
C1291 O1283 1.258 . S
C1291 O1284 1.266 . S
Co1292 O1295 1.970 . S
Co1292 N1309 1.989 . S
Co1292 O1317 1.967 . S
Co1292 O1324 1.920 . S
Co1293 O1296 1.966 . S
Co1293 N1302 2.022 . S
Co1293 N1310 1.993 . S
Co1293 O1318 1.941 . S
C1294 O1295 1.258 . S
C1294 O1296 1.263 . S
O1295 Co1292 1.970 . S
O1295 C1294 1.258 . S
O1296 Co1293 1.966 . S
O1296 C1294 1.263 . S
C1297 O1298 1.235 . S
C1297 O1324 1.289 . S
O1298 C1297 1.235 . S
C1299 C1301 1.400 . S
C1299 N1302 1.351 . S
C1299 C1304 1.501 . S
C1300 C1301 1.387 . S
C1300 N1303 1.341 . S
C1301 C1299 1.400 . S
C1301 C1300 1.387 . S
N1302 Co1293 2.022 . S
N1302 C1299 1.351 . S
N1302 N1303 1.365 . S
N1303 C1300 1.341 . S
N1303 N1302 1.365 . S
N1303 H1323 0.862 . S
C1304 C1299 1.501 . S
C1304 H1305 0.961 . S
C1304 H1306 0.961 . S
C1304 H1307 0.960 . S
H1305 C1304 0.961 . S
H1306 C1304 0.961 . S
H1307 C1304 0.960 . S
C1308 N1309 1.342 . S
C1308 C1312 1.401 . S
C1308 C1313 1.499 . S
N1309 Co1292 1.989 . S
N1309 C1308 1.342 . S
N1309 N1310 1.388 . S
N1310 Co1293 1.993 . S
N1310 N1309 1.388 . S
N1310 C1311 1.346 . S
C1311 N1310 1.346 . S
C1311 C1312 1.396 . S
C1311 C1321 1.510 . S
C1312 C1308 1.401 . S
C1312 C1311 1.396 . S
C1313 C1308 1.499 . S
C1313 H1314 0.959 . S
C1313 H1315 0.960 . S
C1313 H1316 0.961 . S
H1314 C1313 0.959 . S
H1315 C1313 0.960 . S
H1316 C1313 0.961 . S
O1317 Co1292 1.967 . S
O1317 C1325 1.258 . S
O1318 Co1293 1.941 . S
O1318 C1325 1.266 . S
H1319 C1321 0.959 . S
H1320 C1321 0.961 . S
C1321 C1311 1.510 . S
C1321 H1319 0.959 . S
C1321 H1320 0.961 . S
C1321 H1322 0.960 . S
H1322 C1321 0.960 . S
H1323 N1303 0.862 . S
O1324 Co1292 1.920 . S
O1324 C1297 1.289 . S
C1325 O1317 1.258 . S
C1325 O1318 1.266 . S
Co1326 O1329 1.970 . S
Co1326 N1343 1.989 . S
Co1326 O1351 1.967 . S
Co1326 O1358 1.920 . S
Co1327 O1330 1.966 . S
Co1327 N1336 2.022 . S
Co1327 N1344 1.993 . S
Co1327 O1352 1.941 . S
C1328 O1329 1.258 . S
C1328 O1330 1.263 . S
O1329 Co1326 1.970 . S
O1329 C1328 1.258 . S
O1330 Co1327 1.966 . S
O1330 C1328 1.263 . S
C1331 O1332 1.235 . S
C1331 O1358 1.289 . S
O1332 C1331 1.235 . S
C1333 C1335 1.400 . S
C1333 N1336 1.351 . S
C1333 C1338 1.501 . S
C1334 C1335 1.387 . S
C1334 N1337 1.341 . S
C1335 C1333 1.400 . S
C1335 C1334 1.387 . S
N1336 Co1327 2.022 . S
N1336 C1333 1.351 . S
N1336 N1337 1.365 . S
N1337 C1334 1.341 . S
N1337 N1336 1.365 . S
N1337 H1357 0.862 . S
C1338 C1333 1.501 . S
C1338 H1339 0.961 . S
C1338 H1340 0.961 . S
C1338 H1341 0.960 . S
H1339 C1338 0.961 . S
H1340 C1338 0.961 . S
H1341 C1338 0.960 . S
C1342 N1343 1.342 . S
C1342 C1346 1.401 . S
C1342 C1347 1.499 . S
N1343 Co1326 1.989 . S
N1343 C1342 1.342 . S
N1343 N1344 1.388 . S
N1344 Co1327 1.993 . S
N1344 N1343 1.388 . S
N1344 C1345 1.346 . S
C1345 N1344 1.346 . S
C1345 C1346 1.396 . S
C1345 C1355 1.510 . S
C1346 C1342 1.401 . S
C1346 C1345 1.396 . S
C1347 C1342 1.499 . S
C1347 H1348 0.959 . S
C1347 H1349 0.960 . S
C1347 H1350 0.961 . S
H1348 C1347 0.959 . S
H1349 C1347 0.960 . S
H1350 C1347 0.961 . S
O1351 Co1326 1.967 . S
O1351 C1359 1.258 . S
O1352 Co1327 1.941 . S
O1352 C1359 1.266 . S
H1353 C1355 0.959 . S
H1354 C1355 0.961 . S
C1355 C1345 1.510 . S
C1355 H1353 0.959 . S
C1355 H1354 0.961 . S
C1355 H1356 0.960 . S
H1356 C1355 0.960 . S
H1357 N1337 0.862 . S
O1358 Co1326 1.920 . S
O1358 C1331 1.289 . S
C1359 O1351 1.258 . S
C1359 O1352 1.266 . S
Co1360 O1363 1.970 . S
Co1360 N1377 1.989 . S
Co1360 O1385 1.967 . S
Co1360 O1392 1.920 . S
Co1361 O1364 1.966 . S
Co1361 N1370 2.022 . S
Co1361 N1378 1.993 . S
Co1361 O1386 1.941 . S
C1362 O1363 1.258 . S
C1362 O1364 1.263 . S
O1363 Co1360 1.970 . S
O1363 C1362 1.258 . S
O1364 Co1361 1.966 . S
O1364 C1362 1.263 . S
C1365 O1366 1.235 . S
C1365 O1392 1.289 . S
O1366 C1365 1.235 . S
C1367 C1369 1.400 . S
C1367 N1370 1.351 . S
C1367 C1372 1.501 . S
C1368 C1369 1.387 . S
C1368 N1371 1.341 . S
C1369 C1367 1.400 . S
C1369 C1368 1.387 . S
N1370 Co1361 2.022 . S
N1370 C1367 1.351 . S
N1370 N1371 1.365 . S
N1371 C1368 1.341 . S
N1371 N1370 1.365 . S
N1371 H1391 0.862 . S
C1372 C1367 1.501 . S
C1372 H1373 0.961 . S
C1372 H1374 0.961 . S
C1372 H1375 0.960 . S
H1373 C1372 0.961 . S
H1374 C1372 0.961 . S
H1375 C1372 0.960 . S
C1376 N1377 1.342 . S
C1376 C1380 1.401 . S
C1376 C1381 1.499 . S
N1377 Co1360 1.989 . S
N1377 C1376 1.342 . S
N1377 N1378 1.388 . S
N1378 Co1361 1.993 . S
N1378 N1377 1.388 . S
N1378 C1379 1.346 . S
C1379 N1378 1.346 . S
C1379 C1380 1.396 . S
C1379 C1389 1.510 . S
C1380 C1376 1.401 . S
C1380 C1379 1.396 . S
C1381 C1376 1.499 . S
C1381 H1382 0.959 . S
C1381 H1383 0.960 . S
C1381 H1384 0.961 . S
H1382 C1381 0.959 . S
H1383 C1381 0.960 . S
H1384 C1381 0.961 . S
O1385 Co1360 1.967 . S
O1385 C1393 1.258 . S
O1386 Co1361 1.941 . S
O1386 C1393 1.266 . S
H1387 C1389 0.959 . S
H1388 C1389 0.961 . S
C1389 C1379 1.510 . S
C1389 H1387 0.959 . S
C1389 H1388 0.961 . S
C1389 H1390 0.960 . S
H1390 C1389 0.960 . S
H1391 N1371 0.862 . S
O1392 Co1360 1.920 . S
O1392 C1365 1.289 . S
C1393 O1385 1.258 . S
C1393 O1386 1.266 . S
Co1394 O1397 1.970 . S
Co1394 N1411 1.989 . S
Co1394 O1419 1.967 . S
Co1394 O1426 1.920 . S
Co1395 O1398 1.966 . S
Co1395 N1404 2.022 . S
Co1395 N1412 1.993 . S
Co1395 O1420 1.941 . S
C1396 O1397 1.258 . S
C1396 O1398 1.263 . S
O1397 Co1394 1.970 . S
O1397 C1396 1.258 . S
O1398 Co1395 1.966 . S
O1398 C1396 1.263 . S
C1399 O1400 1.235 . S
C1399 O1426 1.289 . S
O1400 C1399 1.235 . S
C1401 C1403 1.400 . S
C1401 N1404 1.351 . S
C1401 C1406 1.501 . S
C1402 C1403 1.387 . S
C1402 N1405 1.341 . S
C1403 C1401 1.400 . S
C1403 C1402 1.387 . S
N1404 Co1395 2.022 . S
N1404 C1401 1.351 . S
N1404 N1405 1.365 . S
N1405 C1402 1.341 . S
N1405 N1404 1.365 . S
N1405 H1425 0.862 . S
C1406 C1401 1.501 . S
C1406 H1407 0.961 . S
C1406 H1408 0.961 . S
C1406 H1409 0.960 . S
H1407 C1406 0.961 . S
H1408 C1406 0.961 . S
H1409 C1406 0.960 . S
C1410 N1411 1.342 . S
C1410 C1414 1.401 . S
C1410 C1415 1.499 . S
N1411 Co1394 1.989 . S
N1411 C1410 1.342 . S
N1411 N1412 1.388 . S
N1412 Co1395 1.993 . S
N1412 N1411 1.388 . S
N1412 C1413 1.346 . S
C1413 N1412 1.346 . S
C1413 C1414 1.396 . S
C1413 C1423 1.510 . S
C1414 C1410 1.401 . S
C1414 C1413 1.396 . S
C1415 C1410 1.499 . S
C1415 H1416 0.959 . S
C1415 H1417 0.960 . S
C1415 H1418 0.961 . S
H1416 C1415 0.959 . S
H1417 C1415 0.960 . S
H1418 C1415 0.961 . S
O1419 Co1394 1.967 . S
O1419 C1427 1.258 . S
O1420 Co1395 1.941 . S
O1420 C1427 1.266 . S
H1421 C1423 0.959 . S
H1422 C1423 0.961 . S
C1423 C1413 1.510 . S
C1423 H1421 0.959 . S
C1423 H1422 0.961 . S
C1423 H1424 0.960 . S
H1424 C1423 0.960 . S
H1425 N1405 0.862 . S
O1426 Co1394 1.920 . S
O1426 C1399 1.289 . S
C1427 O1419 1.258 . S
C1427 O1420 1.266 . S
Co1428 O1431 1.970 . S
Co1428 N1445 1.989 . S
Co1428 O1453 1.967 . S
Co1428 O1460 1.920 . S
Co1429 O1432 1.966 . S
Co1429 N1438 2.022 . S
Co1429 N1446 1.993 . S
Co1429 O1454 1.941 . S
C1430 O1431 1.258 . S
C1430 O1432 1.263 . S
O1431 Co1428 1.970 . S
O1431 C1430 1.258 . S
O1432 Co1429 1.966 . S
O1432 C1430 1.263 . S
C1433 O1434 1.235 . S
C1433 O1460 1.289 . S
O1434 C1433 1.235 . S
C1435 C1437 1.400 . S
C1435 N1438 1.351 . S
C1435 C1440 1.501 . S
C1436 C1437 1.387 . S
C1436 N1439 1.341 . S
C1437 C1435 1.400 . S
C1437 C1436 1.387 . S
N1438 Co1429 2.022 . S
N1438 C1435 1.351 . S
N1438 N1439 1.365 . S
N1439 C1436 1.341 . S
N1439 N1438 1.365 . S
N1439 H1459 0.862 . S
C1440 C1435 1.501 . S
C1440 H1441 0.961 . S
C1440 H1442 0.961 . S
C1440 H1443 0.960 . S
H1441 C1440 0.961 . S
H1442 C1440 0.961 . S
H1443 C1440 0.960 . S
C1444 N1445 1.342 . S
C1444 C1448 1.401 . S
C1444 C1449 1.499 . S
N1445 Co1428 1.989 . S
N1445 C1444 1.342 . S
N1445 N1446 1.388 . S
N1446 Co1429 1.993 . S
N1446 N1445 1.388 . S
N1446 C1447 1.346 . S
C1447 N1446 1.346 . S
C1447 C1448 1.396 . S
C1447 C1457 1.510 . S
C1448 C1444 1.401 . S
C1448 C1447 1.396 . S
C1449 C1444 1.499 . S
C1449 H1450 0.959 . S
C1449 H1451 0.960 . S
C1449 H1452 0.961 . S
H1450 C1449 0.959 . S
H1451 C1449 0.960 . S
H1452 C1449 0.961 . S
O1453 Co1428 1.967 . S
O1453 C1461 1.258 . S
O1454 Co1429 1.941 . S
O1454 C1461 1.266 . S
H1455 C1457 0.959 . S
H1456 C1457 0.961 . S
C1457 C1447 1.510 . S
C1457 H1455 0.959 . S
C1457 H1456 0.961 . S
C1457 H1458 0.960 . S
H1458 C1457 0.960 . S
H1459 N1439 0.862 . S
O1460 Co1428 1.920 . S
O1460 C1433 1.289 . S
C1461 O1453 1.258 . S
C1461 O1454 1.266 . S
Co1462 O1465 1.970 . S
Co1462 N1479 1.989 . S
Co1462 O1487 1.967 . S
Co1462 O1494 1.920 . S
Co1463 O1466 1.966 . S
Co1463 N1472 2.022 . S
Co1463 N1480 1.993 . S
Co1463 O1488 1.941 . S
C1464 O1465 1.258 . S
C1464 O1466 1.263 . S
O1465 Co1462 1.970 . S
O1465 C1464 1.258 . S
O1466 Co1463 1.966 . S
O1466 C1464 1.263 . S
C1467 O1468 1.235 . S
C1467 O1494 1.289 . S
O1468 C1467 1.235 . S
C1469 C1471 1.400 . S
C1469 N1472 1.351 . S
C1469 C1474 1.501 . S
C1470 C1471 1.387 . S
C1470 N1473 1.341 . S
C1471 C1469 1.400 . S
C1471 C1470 1.387 . S
N1472 Co1463 2.022 . S
N1472 C1469 1.351 . S
N1472 N1473 1.365 . S
N1473 C1470 1.341 . S
N1473 N1472 1.365 . S
N1473 H1493 0.862 . S
C1474 C1469 1.501 . S
C1474 H1475 0.961 . S
C1474 H1476 0.961 . S
C1474 H1477 0.960 . S
H1475 C1474 0.961 . S
H1476 C1474 0.961 . S
H1477 C1474 0.960 . S
C1478 N1479 1.342 . S
C1478 C1482 1.401 . S
C1478 C1483 1.499 . S
N1479 Co1462 1.989 . S
N1479 C1478 1.342 . S
N1479 N1480 1.388 . S
N1480 Co1463 1.993 . S
N1480 N1479 1.388 . S
N1480 C1481 1.346 . S
C1481 N1480 1.346 . S
C1481 C1482 1.396 . S
C1481 C1491 1.510 . S
C1482 C1478 1.401 . S
C1482 C1481 1.396 . S
C1483 C1478 1.499 . S
C1483 H1484 0.959 . S
C1483 H1485 0.960 . S
C1483 H1486 0.961 . S
H1484 C1483 0.959 . S
H1485 C1483 0.960 . S
H1486 C1483 0.961 . S
O1487 Co1462 1.967 . S
O1487 C1495 1.258 . S
O1488 Co1463 1.941 . S
O1488 C1495 1.266 . S
H1489 C1491 0.959 . S
H1490 C1491 0.961 . S
C1491 C1481 1.510 . S
C1491 H1489 0.959 . S
C1491 H1490 0.961 . S
C1491 H1492 0.960 . S
H1492 C1491 0.960 . S
H1493 N1473 0.862 . S
O1494 Co1462 1.920 . S
O1494 C1467 1.289 . S
C1495 O1487 1.258 . S
C1495 O1488 1.266 . S
Co1496 O1499 1.970 . S
Co1496 N1513 1.989 . S
Co1496 O1521 1.967 . S
Co1496 O1528 1.920 . S
Co1497 O1500 1.966 . S
Co1497 N1506 2.022 . S
Co1497 N1514 1.993 . S
Co1497 O1522 1.941 . S
C1498 O1499 1.258 . S
C1498 O1500 1.263 . S
O1499 Co1496 1.970 . S
O1499 C1498 1.258 . S
O1500 Co1497 1.966 . S
O1500 C1498 1.263 . S
C1501 O1502 1.235 . S
C1501 O1528 1.289 . S
O1502 C1501 1.235 . S
C1503 C1505 1.400 . S
C1503 N1506 1.351 . S
C1503 C1508 1.501 . S
C1504 C1505 1.387 . S
C1504 N1507 1.341 . S
C1505 C1503 1.400 . S
C1505 C1504 1.387 . S
N1506 Co1497 2.022 . S
N1506 C1503 1.351 . S
N1506 N1507 1.365 . S
N1507 C1504 1.341 . S
N1507 N1506 1.365 . S
N1507 H1527 0.862 . S
C1508 C1503 1.501 . S
C1508 H1509 0.961 . S
C1508 H1510 0.961 . S
C1508 H1511 0.960 . S
H1509 C1508 0.961 . S
H1510 C1508 0.961 . S
H1511 C1508 0.960 . S
C1512 N1513 1.342 . S
C1512 C1516 1.401 . S
C1512 C1517 1.499 . S
N1513 Co1496 1.989 . S
N1513 C1512 1.342 . S
N1513 N1514 1.388 . S
N1514 Co1497 1.993 . S
N1514 N1513 1.388 . S
N1514 C1515 1.346 . S
C1515 N1514 1.346 . S
C1515 C1516 1.396 . S
C1515 C1525 1.510 . S
C1516 C1512 1.401 . S
C1516 C1515 1.396 . S
C1517 C1512 1.499 . S
C1517 H1518 0.959 . S
C1517 H1519 0.960 . S
C1517 H1520 0.961 . S
H1518 C1517 0.959 . S
H1519 C1517 0.960 . S
H1520 C1517 0.961 . S
O1521 Co1496 1.967 . S
O1521 C1529 1.258 . S
O1522 Co1497 1.941 . S
O1522 C1529 1.266 . S
H1523 C1525 0.959 . S
H1524 C1525 0.961 . S
C1525 C1515 1.510 . S
C1525 H1523 0.959 . S
C1525 H1524 0.961 . S
C1525 H1526 0.960 . S
H1526 C1525 0.960 . S
H1527 N1507 0.862 . S
O1528 Co1496 1.920 . S
O1528 C1501 1.289 . S
C1529 O1521 1.258 . S
C1529 O1522 1.266 . S
Co1530 O1533 1.970 . S
Co1530 N1547 1.989 . S
Co1530 O1555 1.967 . S
Co1530 O1562 1.920 . S
Co1531 O1534 1.966 . S
Co1531 N1540 2.022 . S
Co1531 N1548 1.993 . S
Co1531 O1556 1.941 . S
C1532 O1533 1.258 . S
C1532 O1534 1.263 . S
O1533 Co1530 1.970 . S
O1533 C1532 1.258 . S
O1534 Co1531 1.966 . S
O1534 C1532 1.263 . S
C1535 O1536 1.235 . S
C1535 O1562 1.289 . S
O1536 C1535 1.235 . S
C1537 C1539 1.400 . S
C1537 N1540 1.351 . S
C1537 C1542 1.501 . S
C1538 C1539 1.387 . S
C1538 N1541 1.341 . S
C1539 C1537 1.400 . S
C1539 C1538 1.387 . S
N1540 Co1531 2.022 . S
N1540 C1537 1.351 . S
N1540 N1541 1.365 . S
N1541 C1538 1.341 . S
N1541 N1540 1.365 . S
N1541 H1561 0.862 . S
C1542 C1537 1.501 . S
C1542 H1543 0.961 . S
C1542 H1544 0.961 . S
C1542 H1545 0.960 . S
H1543 C1542 0.961 . S
H1544 C1542 0.961 . S
H1545 C1542 0.960 . S
C1546 N1547 1.342 . S
C1546 C1550 1.401 . S
C1546 C1551 1.499 . S
N1547 Co1530 1.989 . S
N1547 C1546 1.342 . S
N1547 N1548 1.388 . S
N1548 Co1531 1.993 . S
N1548 N1547 1.388 . S
N1548 C1549 1.346 . S
C1549 N1548 1.346 . S
C1549 C1550 1.396 . S
C1549 C1559 1.510 . S
C1550 C1546 1.401 . S
C1550 C1549 1.396 . S
C1551 C1546 1.499 . S
C1551 H1552 0.959 . S
C1551 H1553 0.960 . S
C1551 H1554 0.961 . S
H1552 C1551 0.959 . S
H1553 C1551 0.960 . S
H1554 C1551 0.961 . S
O1555 Co1530 1.967 . S
O1555 C1563 1.258 . S
O1556 Co1531 1.941 . S
O1556 C1563 1.266 . S
H1557 C1559 0.959 . S
H1558 C1559 0.961 . S
C1559 C1549 1.510 . S
C1559 H1557 0.959 . S
C1559 H1558 0.961 . S
C1559 H1560 0.960 . S
H1560 C1559 0.960 . S
H1561 N1541 0.862 . S
O1562 Co1530 1.920 . S
O1562 C1535 1.289 . S
C1563 O1555 1.258 . S
C1563 O1556 1.266 . S
Co1564 O1567 1.970 . S
Co1564 N1581 1.989 . S
Co1564 O1589 1.967 . S
Co1564 O1596 1.920 . S
Co1565 O1568 1.966 . S
Co1565 N1574 2.022 . S
Co1565 N1582 1.993 . S
Co1565 O1590 1.941 . S
C1566 O1567 1.258 . S
C1566 O1568 1.263 . S
O1567 Co1564 1.970 . S
O1567 C1566 1.258 . S
O1568 Co1565 1.966 . S
O1568 C1566 1.263 . S
C1569 O1570 1.235 . S
C1569 O1596 1.289 . S
O1570 C1569 1.235 . S
C1571 C1573 1.400 . S
C1571 N1574 1.351 . S
C1571 C1576 1.501 . S
C1572 C1573 1.387 . S
C1572 N1575 1.341 . S
C1573 C1571 1.400 . S
C1573 C1572 1.387 . S
N1574 Co1565 2.022 . S
N1574 C1571 1.351 . S
N1574 N1575 1.365 . S
N1575 C1572 1.341 . S
N1575 N1574 1.365 . S
N1575 H1595 0.862 . S
C1576 C1571 1.501 . S
C1576 H1577 0.961 . S
C1576 H1578 0.961 . S
C1576 H1579 0.960 . S
H1577 C1576 0.961 . S
H1578 C1576 0.961 . S
H1579 C1576 0.960 . S
C1580 N1581 1.342 . S
C1580 C1584 1.401 . S
C1580 C1585 1.499 . S
N1581 Co1564 1.989 . S
N1581 C1580 1.342 . S
N1581 N1582 1.388 . S
N1582 Co1565 1.993 . S
N1582 N1581 1.388 . S
N1582 C1583 1.346 . S
C1583 N1582 1.346 . S
C1583 C1584 1.396 . S
C1583 C1593 1.510 . S
C1584 C1580 1.401 . S
C1584 C1583 1.396 . S
C1585 C1580 1.499 . S
C1585 H1586 0.959 . S
C1585 H1587 0.960 . S
C1585 H1588 0.961 . S
H1586 C1585 0.959 . S
H1587 C1585 0.960 . S
H1588 C1585 0.961 . S
O1589 Co1564 1.967 . S
O1589 C1597 1.258 . S
O1590 Co1565 1.941 . S
O1590 C1597 1.266 . S
H1591 C1593 0.959 . S
H1592 C1593 0.961 . S
C1593 C1583 1.510 . S
C1593 H1591 0.959 . S
C1593 H1592 0.961 . S
C1593 H1594 0.960 . S
H1594 C1593 0.960 . S
H1595 N1575 0.862 . S
O1596 Co1564 1.920 . S
O1596 C1569 1.289 . S
C1597 O1589 1.258 . S
C1597 O1590 1.266 . S
Co1598 O1601 1.970 . S
Co1598 N1615 1.989 . S
Co1598 O1623 1.967 . S
Co1598 O1630 1.920 . S
Co1599 O1602 1.966 . S
Co1599 N1608 2.022 . S
Co1599 N1616 1.993 . S
Co1599 O1624 1.941 . S
C1600 O1601 1.258 . S
C1600 O1602 1.263 . S
O1601 Co1598 1.970 . S
O1601 C1600 1.258 . S
O1602 Co1599 1.966 . S
O1602 C1600 1.263 . S
C1603 O1604 1.235 . S
C1603 O1630 1.289 . S
O1604 C1603 1.235 . S
C1605 C1607 1.400 . S
C1605 N1608 1.351 . S
C1605 C1610 1.501 . S
C1606 C1607 1.387 . S
C1606 N1609 1.341 . S
C1607 C1605 1.400 . S
C1607 C1606 1.387 . S
N1608 Co1599 2.022 . S
N1608 C1605 1.351 . S
N1608 N1609 1.365 . S
N1609 C1606 1.341 . S
N1609 N1608 1.365 . S
N1609 H1629 0.868 . S
C1610 C1605 1.501 . S
C1610 H1611 0.961 . S
C1610 H1612 0.961 . S
C1610 H1613 0.960 . S
H1611 C1610 0.961 . S
H1612 C1610 0.961 . S
H1613 C1610 0.960 . S
C1614 N1615 1.342 . S
C1614 C1618 1.401 . S
C1614 C1619 1.499 . S
N1615 Co1598 1.989 . S
N1615 C1614 1.342 . S
N1615 N1616 1.388 . S
N1616 Co1599 1.993 . S
N1616 N1615 1.388 . S
N1616 C1617 1.346 . S
C1617 N1616 1.346 . S
C1617 C1618 1.396 . S
C1617 C1627 1.510 . S
C1618 C1614 1.401 . S
C1618 C1617 1.396 . S
C1619 C1614 1.499 . S
C1619 H1620 0.959 . S
C1619 H1621 0.960 . S
C1619 H1622 0.961 . S
H1620 C1619 0.959 . S
H1621 C1619 0.960 . S
H1622 C1619 0.961 . S
O1623 Co1598 1.967 . S
O1623 C1631 1.258 . S
O1624 Co1599 1.941 . S
O1624 C1631 1.266 . S
H1625 C1627 0.941 1_455 S
H1626 C1627 0.961 . S
C1627 C1617 1.510 . S
C1627 H1625 0.941 1_655 S
C1627 H1626 0.961 . S
C1627 H1628 0.960 . S
H1628 C1627 0.960 . S
H1629 N1609 0.868 . S
O1630 Co1598 1.920 . S
O1630 C1603 1.289 . S
C1631 O1623 1.258 . S
C1631 O1624 1.266 . S
H1632 C1638 0.930 . S
H1633 C1642 0.930 . S
H1634 C1647 0.929 . S
H1635 C1645 0.929 . S
H1636 C1640 0.929 . S
H1637 C1646 0.929 . S
C1638 H1632 0.930 . S
C1638 C1639 1.367 . S
C1638 C1646 1.378 . S
C1639 C1638 1.367 . S
C1639 C1647 1.433 . S
C1640 H1636 0.929 . S
C1640 C1642 1.378 . S
C1640 C1644 1.350 . S
C1641 C1644 1.463 . S
C1641 C1646 1.350 . S
C1641 N1649 1.427 . S
C1642 H1633 0.930 . S
C1642 C1640 1.378 . S
C1642 C1643 1.367 1_455 S
C1643 C1642 1.367 1_655 S
C1643 C1645 1.433 . S
C1644 C1640 1.350 . S
C1644 C1641 1.463 . S
C1644 N1648 1.427 1_455 S
C1645 H1635 0.929 . S
C1645 C1643 1.433 . S
C1645 N1648 1.384 . S
C1646 H1637 0.929 . S
C1646 C1638 1.378 . S
C1646 C1641 1.350 . S
C1647 H1634 0.929 . S
C1647 C1639 1.433 . S
C1647 N1649 1.384 . S
N1648 C1644 1.427 1_655 S
N1648 C1645 1.384 . S
N1649 C1641 1.427 . S
N1649 C1647 1.384 . S
H1650 C1656 0.930 . S
H1651 C1660 0.930 . S
H1652 C1665 0.929 . S
H1653 C1663 0.929 . S
H1654 C1658 0.929 . S
H1655 C1664 0.929 . S
C1656 H1650 0.930 . S
C1656 C1657 1.367 . S
C1656 C1664 1.378 . S
C1657 C1656 1.367 . S
C1657 C1665 1.433 . S
C1658 H1654 0.929 . S
C1658 C1660 1.378 . S
C1658 C1662 1.350 . S
C1659 C1662 1.463 . S
C1659 C1664 1.350 . S
C1659 N1667 1.427 . S
C1660 H1651 0.930 . S
C1660 C1658 1.378 . S
C1660 C1661 1.367 . S
C1661 C1660 1.367 . S
C1661 C1663 1.433 . S
C1662 C1658 1.350 . S
C1662 C1659 1.463 . S
C1662 N1666 1.427 . S
C1663 H1653 0.929 . S
C1663 C1661 1.433 . S
C1663 N1666 1.384 . S
C1664 H1655 0.929 . S
C1664 C1656 1.378 . S
C1664 C1659 1.350 . S
C1665 H1652 0.929 . S
C1665 C1657 1.433 . S
C1665 N1667 1.384 . S
N1666 C1662 1.427 . S
N1666 C1663 1.384 . S
N1667 C1659 1.427 . S
N1667 C1665 1.384 . S
H1668 C1674 0.930 . S
H1669 C1678 0.930 . S
H1670 C1683 0.929 . S
H1671 C1681 0.929 . S
H1672 C1676 0.929 . S
H1673 C1682 0.929 . S
C1674 H1668 0.930 . S
C1674 C1675 1.367 . S
C1674 C1682 1.378 . S
C1675 C1674 1.367 . S
C1675 C1683 1.433 . S
C1676 H1672 0.929 . S
C1676 C1678 1.378 . S
C1676 C1680 1.350 . S
C1677 C1680 1.463 . S
C1677 C1682 1.350 . S
C1677 N1685 1.427 . S
C1678 H1669 0.930 . S
C1678 C1676 1.378 . S
C1678 C1679 1.367 . S
C1679 C1678 1.367 . S
C1679 C1681 1.433 . S
C1680 C1676 1.350 . S
C1680 C1677 1.463 . S
C1680 N1684 1.427 . S
C1681 H1671 0.929 . S
C1681 C1679 1.433 . S
C1681 N1684 1.384 . S
C1682 H1673 0.929 . S
C1682 C1674 1.378 . S
C1682 C1677 1.350 . S
C1683 H1670 0.929 . S
C1683 C1675 1.433 . S
C1683 N1685 1.384 . S
N1684 C1680 1.427 . S
N1684 C1681 1.384 . S
N1685 C1677 1.427 . S
N1685 C1683 1.384 . S
H1686 C1692 0.930 . S
H1687 C1696 0.930 . S
H1688 C1701 0.929 . S
H1689 C1699 0.929 . S
H1690 C1694 0.929 . S
H1691 C1700 0.929 . S
C1692 H1686 0.930 . S
C1692 C1693 1.367 . S
C1692 C1700 1.378 . S
C1693 C1692 1.367 . S
C1693 C1701 1.433 1_554 S
C1694 H1690 0.929 . S
C1694 C1696 1.378 . S
C1694 C1698 1.350 . S
C1695 C1698 1.463 . S
C1695 C1700 1.350 1_556 S
C1695 N1703 1.427 . S
C1696 H1687 0.930 . S
C1696 C1694 1.378 . S
C1696 C1697 1.367 . S
C1697 C1696 1.367 . S
C1697 C1699 1.433 . S
C1698 C1694 1.350 . S
C1698 C1695 1.463 . S
C1698 N1702 1.427 . S
C1699 H1689 0.929 . S
C1699 C1697 1.433 . S
C1699 N1702 1.384 . S
C1700 H1691 0.929 . S
C1700 C1692 1.378 . S
C1700 C1695 1.350 1_554 S
C1701 H1688 0.929 . S
C1701 C1693 1.433 1_556 S
C1701 N1703 1.384 . S
N1702 C1698 1.427 . S
N1702 C1699 1.384 . S
N1703 C1695 1.427 . S
N1703 C1701 1.384 . S
H1704 C1710 0.930 . S
H1705 C1714 0.930 . S
H1706 C1719 0.929 . S
H1707 C1717 0.929 . S
H1708 C1712 0.929 . S
H1709 C1718 0.929 . S
C1710 H1704 0.930 . S
C1710 C1711 1.367 . S
C1710 C1718 1.378 . S
C1711 C1710 1.367 . S
C1711 C1719 1.433 . S
C1712 H1708 0.929 . S
C1712 C1714 1.378 1_455 S
C1712 C1716 1.350 . S
C1713 C1716 1.463 . S
C1713 C1718 1.350 . S
C1713 N1721 1.427 . S
C1714 H1705 0.930 . S
C1714 C1712 1.378 1_655 S
C1714 C1715 1.367 . S
C1715 C1714 1.367 . S
C1715 C1717 1.433 1_655 S
C1716 C1712 1.350 . S
C1716 C1713 1.463 . S
C1716 N1720 1.427 . S
C1717 H1707 0.929 . S
C1717 C1715 1.433 1_455 S
C1717 N1720 1.384 . S
C1718 H1709 0.929 . S
C1718 C1710 1.378 . S
C1718 C1713 1.350 . S
C1719 H1706 0.929 . S
C1719 C1711 1.433 . S
C1719 N1721 1.384 . S
N1720 C1716 1.427 . S
N1720 C1717 1.384 . S
N1721 C1713 1.427 . S
N1721 C1719 1.384 . S
H1722 C1728 0.930 . S
H1723 C1732 0.930 . S
H1724 C1737 0.929 . S
H1725 C1735 0.929 . S
H1726 C1730 0.929 . S
H1727 C1736 0.929 . S
C1728 H1722 0.930 . S
C1728 C1729 1.367 . S
C1728 C1736 1.378 . S
C1729 C1728 1.367 . S
C1729 C1737 1.433 . S
C1730 H1726 0.929 . S
C1730 C1732 1.378 . S
C1730 C1734 1.350 . S
C1731 C1734 1.463 . S
C1731 C1736 1.350 . S
C1731 N1739 1.427 . S
C1732 H1723 0.930 . S
C1732 C1730 1.378 . S
C1732 C1733 1.367 . S
C1733 C1732 1.367 . S
C1733 C1735 1.433 . S
C1734 C1730 1.350 . S
C1734 C1731 1.463 . S
C1734 N1738 1.427 . S
C1735 H1725 0.929 . S
C1735 C1733 1.433 . S
C1735 N1738 1.384 . S
C1736 H1727 0.929 . S
C1736 C1728 1.378 . S
C1736 C1731 1.350 . S
C1737 H1724 0.929 . S
C1737 C1729 1.433 . S
C1737 N1739 1.384 . S
N1738 C1734 1.427 . S
N1738 C1735 1.384 . S
N1739 C1731 1.427 . S
N1739 C1737 1.384 . S
H1740 C1746 0.930 . S
H1741 C1750 0.930 . S
H1742 C1755 0.929 . S
H1743 C1753 0.929 . S
H1744 C1748 0.929 . S
H1745 C1754 0.929 . S
C1746 H1740 0.930 . S
C1746 C1747 1.367 . S
C1746 C1754 1.378 . S
C1747 C1746 1.367 . S
C1747 C1755 1.433 . S
C1748 H1744 0.929 . S
C1748 C1750 1.378 . S
C1748 C1752 1.350 . S
C1749 C1752 1.463 . S
C1749 C1754 1.350 . S
C1749 N1757 1.427 . S
C1750 H1741 0.930 . S
C1750 C1748 1.378 . S
C1750 C1751 1.367 . S
C1751 C1750 1.367 . S
C1751 C1753 1.433 . S
C1752 C1748 1.350 . S
C1752 C1749 1.463 . S
C1752 N1756 1.427 . S
C1753 H1743 0.929 . S
C1753 C1751 1.433 . S
C1753 N1756 1.384 . S
C1754 H1745 0.929 . S
C1754 C1746 1.378 . S
C1754 C1749 1.350 . S
C1755 H1742 0.929 . S
C1755 C1747 1.433 . S
C1755 N1757 1.384 . S
N1756 C1752 1.427 . S
N1756 C1753 1.384 . S
N1757 C1749 1.427 . S
N1757 C1755 1.384 . S
H1758 C1764 0.930 . S
H1759 C1768 0.930 . S
H1760 C1773 0.929 . S
H1761 C1771 0.929 . S
H1762 C1766 0.929 . S
H1763 C1772 0.929 . S
C1764 H1758 0.930 . S
C1764 C1765 1.367 . S
C1764 C1772 1.378 . S
C1765 C1764 1.367 . S
C1765 C1773 1.433 1_556 S
C1766 H1762 0.929 . S
C1766 C1768 1.378 . S
C1766 C1770 1.350 . S
C1767 C1770 1.463 . S
C1767 C1772 1.350 1_554 S
C1767 N1775 1.427 . S
C1768 H1759 0.930 . S
C1768 C1766 1.378 . S
C1768 C1769 1.367 . S
C1769 C1768 1.367 . S
C1769 C1771 1.433 . S
C1770 C1766 1.350 . S
C1770 C1767 1.463 . S
C1770 N1774 1.427 . S
C1771 H1761 0.929 . S
C1771 C1769 1.433 . S
C1771 N1774 1.384 . S
C1772 H1763 0.929 . S
C1772 C1764 1.378 . S
C1772 C1767 1.350 1_556 S
C1773 H1760 0.929 . S
C1773 C1765 1.433 1_554 S
C1773 N1775 1.384 . S
N1774 C1770 1.427 . S
N1774 C1771 1.384 . S
N1775 C1767 1.427 . S
N1775 C1773 1.384 . S
H1776 C1782 0.930 . S
H1777 C1786 0.930 . S
H1778 C1791 0.929 . S
H1779 C1789 0.929 . S
H1780 C1784 0.929 . S
H1781 C1790 0.929 . S
C1782 H1776 0.930 . S
C1782 C1783 1.367 . S
C1782 C1790 1.378 . S
C1783 C1782 1.367 . S
C1783 C1791 1.433 . S
C1784 H1780 0.929 . S
C1784 C1786 1.378 1_545 S
C1784 C1788 1.350 . S
C1785 C1788 1.463 . S
C1785 C1790 1.350 . S
C1785 N1793 1.427 . S
C1786 H1777 0.930 . S
C1786 C1784 1.378 1_565 S
C1786 C1787 1.367 . S
C1787 C1786 1.367 . S
C1787 C1789 1.433 . S
C1788 C1784 1.350 . S
C1788 C1785 1.463 . S
C1788 N1792 1.427 . S
C1789 H1779 0.929 . S
C1789 C1787 1.433 . S
C1789 N1792 1.384 1_565 S
C1790 H1781 0.929 . S
C1790 C1782 1.378 . S
C1790 C1785 1.350 . S
C1791 H1778 0.929 . S
C1791 C1783 1.433 . S
C1791 N1793 1.384 . S
N1792 C1788 1.427 . S
N1792 C1789 1.384 1_545 S
N1793 C1785 1.427 . S
N1793 C1791 1.384 . S
H1794 C1800 0.930 . S
H1795 C1804 0.930 . S
H1796 C1809 0.929 . S
H1797 C1807 0.929 . S
H1798 C1802 0.929 . S
H1799 C1808 0.929 . S
C1800 H1794 0.930 . S
C1800 C1801 1.367 . S
C1800 C1808 1.378 1_545 S
C1801 C1800 1.367 . S
C1801 C1809 1.433 1_545 S
C1802 H1798 0.929 . S
C1802 C1804 1.378 . S
C1802 C1806 1.350 . S
C1803 C1806 1.463 . S
C1803 C1808 1.350 . S
C1803 N1811 1.427 . S
C1804 H1795 0.930 . S
C1804 C1802 1.378 . S
C1804 C1805 1.367 . S
C1805 C1804 1.367 . S
C1805 C1807 1.433 . S
C1806 C1802 1.350 . S
C1806 C1803 1.463 . S
C1806 N1810 1.427 . S
C1807 H1797 0.929 . S
C1807 C1805 1.433 . S
C1807 N1810 1.384 . S
C1808 H1799 0.929 . S
C1808 C1800 1.378 1_565 S
C1808 C1803 1.350 . S
C1809 H1796 0.929 . S
C1809 C1801 1.433 1_565 S
C1809 N1811 1.384 . S
N1810 C1806 1.427 . S
N1810 C1807 1.384 . S
N1811 C1803 1.427 . S
N1811 C1809 1.384 . S
H1812 C1818 0.930 . S
H1813 C1822 0.930 . S
H1814 C1827 0.929 . S
H1815 C1825 0.929 . S
H1816 C1820 0.929 . S
H1817 C1826 0.929 . S
C1818 H1812 0.930 . S
C1818 C1819 1.367 . S
C1818 C1826 1.378 1_545 S
C1819 C1818 1.367 . S
C1819 C1827 1.433 . S
C1820 H1816 0.929 . S
C1820 C1822 1.378 . S
C1820 C1824 1.350 . S
C1821 C1824 1.463 . S
C1821 C1826 1.350 . S
C1821 N1829 1.427 . S
C1822 H1813 0.930 . S
C1822 C1820 1.378 . S
C1822 C1823 1.367 . S
C1823 C1822 1.367 . S
C1823 C1825 1.433 . S
C1824 C1820 1.350 . S
C1824 C1821 1.463 . S
C1824 N1828 1.427 . S
C1825 H1815 0.929 . S
C1825 C1823 1.433 . S
C1825 N1828 1.384 . S
C1826 H1817 0.929 . S
C1826 C1818 1.378 1_565 S
C1826 C1821 1.350 . S
C1827 H1814 0.929 . S
C1827 C1819 1.433 . S
C1827 N1829 1.384 1_545 S
N1828 C1824 1.427 . S
N1828 C1825 1.384 . S
N1829 C1821 1.427 . S
N1829 C1827 1.384 1_565 S
H1830 C1836 0.930 . S
H1831 C1840 0.930 . S
H1832 C1845 0.929 . S
H1833 C1843 0.929 . S
H1834 C1838 0.929 . S
H1835 C1844 0.929 . S
C1836 H1830 0.930 . S
C1836 C1837 1.367 . S
C1836 C1844 1.378 . S
C1837 C1836 1.367 . S
C1837 C1845 1.433 . S
C1838 H1834 0.929 . S
C1838 C1840 1.378 1_545 S
C1838 C1842 1.350 . S
C1839 C1842 1.463 . S
C1839 C1844 1.350 . S
C1839 N1847 1.427 . S
C1840 H1831 0.930 . S
C1840 C1838 1.378 1_565 S
C1840 C1841 1.367 . S
C1841 C1840 1.367 . S
C1841 C1843 1.433 1_565 S
C1842 C1838 1.350 . S
C1842 C1839 1.463 . S
C1842 N1846 1.427 . S
C1843 H1833 0.929 . S
C1843 C1841 1.433 1_545 S
C1843 N1846 1.384 . S
C1844 H1835 0.929 . S
C1844 C1836 1.378 . S
C1844 C1839 1.350 . S
C1845 H1832 0.929 . S
C1845 C1837 1.433 . S
C1845 N1847 1.384 . S
N1846 C1842 1.427 . S
N1846 C1843 1.384 . S
N1847 C1839 1.427 . S
N1847 C1845 1.384 . S
H1848 C1854 0.930 . S
H1849 C1858 0.930 . S
H1850 C1863 0.929 . S
H1851 C1861 0.929 . S
H1852 C1856 0.929 . S
H1853 C1862 0.929 . S
C1854 H1848 0.930 . S
C1854 C1855 1.367 . S
C1854 C1862 1.378 . S
C1855 C1854 1.367 . S
C1855 C1863 1.433 1_554 S
C1856 H1852 0.929 . S
C1856 C1858 1.378 . S
C1856 C1860 1.350 . S
C1857 C1860 1.463 . S
C1857 C1862 1.350 1_556 S
C1857 N1865 1.427 . S
C1858 H1849 0.930 . S
C1858 C1856 1.378 . S
C1858 C1859 1.367 . S
C1859 C1858 1.367 . S
C1859 C1861 1.433 . S
C1860 C1856 1.350 . S
C1860 C1857 1.463 . S
C1860 N1864 1.427 . S
C1861 H1851 0.929 . S
C1861 C1859 1.433 . S
C1861 N1864 1.384 . S
C1862 H1853 0.929 . S
C1862 C1854 1.378 . S
C1862 C1857 1.350 1_554 S
C1863 H1850 0.929 . S
C1863 C1855 1.433 1_556 S
C1863 N1865 1.384 . S
N1864 C1860 1.427 . S
N1864 C1861 1.384 . S
N1865 C1857 1.427 . S
N1865 C1863 1.384 . S
H1866 C1872 0.930 . S
H1867 C1876 0.930 . S
H1868 C1881 0.929 . S
H1869 C1879 0.929 . S
H1870 C1874 0.929 . S
H1871 C1880 0.929 . S
C1872 H1866 0.930 . S
C1872 C1873 1.367 . S
C1872 C1880 1.378 1_455 S
C1873 C1872 1.367 . S
C1873 C1881 1.433 1_455 S
C1874 H1870 0.929 . S
C1874 C1876 1.378 . S
C1874 C1878 1.350 . S
C1875 C1878 1.463 . S
C1875 C1880 1.350 . S
C1875 N1883 1.427 . S
C1876 H1867 0.930 . S
C1876 C1874 1.378 . S
C1876 C1877 1.367 . S
C1877 C1876 1.367 . S
C1877 C1879 1.433 . S
C1878 C1874 1.350 . S
C1878 C1875 1.463 . S
C1878 N1882 1.427 . S
C1879 H1869 0.929 . S
C1879 C1877 1.433 . S
C1879 N1882 1.384 . S
C1880 H1871 0.929 . S
C1880 C1872 1.378 1_655 S
C1880 C1875 1.350 . S
C1881 H1868 0.929 . S
C1881 C1873 1.433 1_655 S
C1881 N1883 1.384 . S
N1882 C1878 1.427 . S
N1882 C1879 1.384 . S
N1883 C1875 1.427 . S
N1883 C1881 1.384 . S
H1884 C1890 0.930 . S
H1885 C1894 0.930 . S
H1886 C1899 0.929 . S
H1887 C1897 0.929 . S
H1888 C1892 0.929 . S
H1889 C1898 0.929 . S
C1890 H1884 0.930 . S
C1890 C1891 1.367 . S
C1890 C1898 1.378 . S
C1891 C1890 1.367 . S
C1891 C1899 1.433 . S
C1892 H1888 0.929 . S
C1892 C1894 1.378 . S
C1892 C1896 1.350 . S
C1893 C1896 1.463 . S
C1893 C1898 1.350 . S
C1893 N1901 1.427 . S
C1894 H1885 0.930 . S
C1894 C1892 1.378 . S
C1894 C1895 1.367 . S
C1895 C1894 1.367 . S
C1895 C1897 1.433 . S
C1896 C1892 1.350 . S
C1896 C1893 1.463 . S
C1896 N1900 1.427 . S
C1897 H1887 0.929 . S
C1897 C1895 1.433 . S
C1897 N1900 1.384 . S
C1898 H1889 0.929 . S
C1898 C1890 1.378 . S
C1898 C1893 1.350 . S
C1899 H1886 0.929 . S
C1899 C1891 1.433 . S
C1899 N1901 1.384 . S
N1900 C1896 1.427 . S
N1900 C1897 1.384 . S
N1901 C1893 1.427 . S
N1901 C1899 1.384 . S
H1902 C1908 0.930 . S
H1903 C1912 0.930 . S
H1904 C1917 0.929 . S
H1905 C1915 0.929 . S
H1906 C1910 0.929 . S
H1907 C1916 0.929 . S
C1908 H1902 0.930 . S
C1908 C1909 1.367 . S
C1908 C1916 1.378 1_455 S
C1909 C1908 1.367 . S
C1909 C1917 1.433 1_455 S
C1910 H1906 0.929 . S
C1910 C1912 1.378 . S
C1910 C1914 1.350 . S
C1911 C1914 1.463 . S
C1911 C1916 1.350 . S
C1911 N1919 1.427 . S
C1912 H1903 0.930 . S
C1912 C1910 1.378 . S
C1912 C1913 1.367 . S
C1913 C1912 1.367 . S
C1913 C1915 1.433 . S
C1914 C1910 1.350 . S
C1914 C1911 1.463 . S
C1914 N1918 1.427 . S
C1915 H1905 0.929 . S
C1915 C1913 1.433 . S
C1915 N1918 1.384 . S
C1916 H1907 0.929 . S
C1916 C1908 1.378 1_655 S
C1916 C1911 1.350 . S
C1917 H1904 0.929 . S
C1917 C1909 1.433 1_655 S
C1917 N1919 1.384 . S
N1918 C1914 1.427 . S
N1918 C1915 1.384 . S
N1919 C1911 1.427 . S
N1919 C1917 1.384 . S
H1920 C1926 0.930 . S
H1921 C1930 0.930 . S
H1922 C1935 0.929 . S
H1923 C1933 0.929 . S
H1924 C1928 0.929 . S
H1925 C1934 0.929 . S
C1926 H1920 0.930 . S
C1926 C1927 1.367 . S
C1926 C1934 1.378 . S
C1927 C1926 1.367 . S
C1927 C1935 1.433 . S
C1928 H1924 0.929 . S
C1928 C1930 1.378 . S
C1928 C1932 1.350 . S
C1929 C1932 1.463 . S
C1929 C1934 1.350 . S
C1929 N1937 1.427 . S
C1930 H1921 0.930 . S
C1930 C1928 1.378 . S
C1930 C1931 1.367 . S
C1931 C1930 1.367 . S
C1931 C1933 1.433 . S
C1932 C1928 1.350 . S
C1932 C1929 1.463 . S
C1932 N1936 1.427 . S
C1933 H1923 0.929 . S
C1933 C1931 1.433 . S
C1933 N1936 1.384 . S
C1934 H1925 0.929 . S
C1934 C1926 1.378 . S
C1934 C1929 1.350 . S
C1935 H1922 0.929 . S
C1935 C1927 1.433 . S
C1935 N1937 1.384 . S
N1936 C1932 1.427 . S
N1936 C1933 1.384 . S
N1937 C1929 1.427 . S
N1937 C1935 1.384 . S
H1938 C1944 0.930 . S
H1939 C1948 0.930 . S
H1940 C1953 0.929 . S
H1941 C1951 0.929 . S
H1942 C1946 0.929 . S
H1943 C1952 0.929 . S
C1944 H1938 0.930 . S
C1944 C1945 1.367 . S
C1944 C1952 1.378 . S
C1945 C1944 1.367 . S
C1945 C1953 1.433 . S
C1946 H1942 0.929 . S
C1946 C1948 1.378 . S
C1946 C1950 1.350 . S
C1947 C1950 1.463 . S
C1947 C1952 1.350 . S
C1947 N1955 1.427 . S
C1948 H1939 0.930 . S
C1948 C1946 1.378 . S
C1948 C1949 1.367 . S
C1949 C1948 1.367 . S
C1949 C1951 1.433 . S
C1950 C1946 1.350 . S
C1950 C1947 1.463 . S
C1950 N1954 1.427 . S
C1951 H1941 0.929 . S
C1951 C1949 1.433 . S
C1951 N1954 1.384 . S
C1952 H1943 0.929 . S
C1952 C1944 1.378 . S
C1952 C1947 1.350 . S
C1953 H1940 0.929 . S
C1953 C1945 1.433 . S
C1953 N1955 1.384 . S
N1954 C1950 1.427 . S
N1954 C1951 1.384 . S
N1955 C1947 1.427 . S
N1955 C1953 1.384 . S
H1956 C1962 0.930 . S
H1957 C1966 0.930 . S
H1958 C1971 0.929 . S
H1959 C1969 0.929 . S
H1960 C1964 0.929 . S
H1961 C1970 0.929 . S
C1962 H1956 0.930 . S
C1962 C1963 1.367 . S
C1962 C1970 1.378 . S
C1963 C1962 1.367 . S
C1963 C1971 1.433 . S
C1964 H1960 0.929 . S
C1964 C1966 1.378 . S
C1964 C1968 1.350 . S
C1965 C1968 1.463 . S
C1965 C1970 1.350 . S
C1965 N1973 1.427 . S
C1966 H1957 0.930 . S
C1966 C1964 1.378 . S
C1966 C1967 1.367 1_554 S
C1967 C1966 1.367 1_556 S
C1967 C1969 1.433 . S
C1968 C1964 1.350 . S
C1968 C1965 1.463 . S
C1968 N1972 1.427 1_554 S
C1969 H1959 0.929 . S
C1969 C1967 1.433 . S
C1969 N1972 1.384 . S
C1970 H1961 0.929 . S
C1970 C1962 1.378 . S
C1970 C1965 1.350 . S
C1971 H1958 0.929 . S
C1971 C1963 1.433 . S
C1971 N1973 1.384 . S
N1972 C1968 1.427 1_556 S
N1972 C1969 1.384 . S
N1973 C1965 1.427 . S
N1973 C1971 1.384 . S
H1974 C1980 0.930 . S
H1975 C1984 0.930 . S
H1976 C1989 0.929 . S
H1977 C1987 0.929 . S
H1978 C1982 0.929 . S
H1979 C1988 0.929 . S
C1980 H1974 0.930 . S
C1980 C1981 1.367 . S
C1980 C1988 1.378 . S
C1981 C1980 1.367 . S
C1981 C1989 1.433 . S
C1982 H1978 0.929 . S
C1982 C1984 1.378 . S
C1982 C1986 1.350 . S
C1983 C1986 1.463 . S
C1983 C1988 1.350 . S
C1983 N1991 1.427 . S
C1984 H1975 0.930 . S
C1984 C1982 1.378 . S
C1984 C1985 1.367 . S
C1985 C1984 1.367 . S
C1985 C1987 1.433 . S
C1986 C1982 1.350 . S
C1986 C1983 1.463 . S
C1986 N1990 1.427 . S
C1987 H1977 0.929 . S
C1987 C1985 1.433 . S
C1987 N1990 1.384 . S
C1988 H1979 0.929 . S
C1988 C1980 1.378 . S
C1988 C1983 1.350 . S
C1989 H1976 0.929 . S
C1989 C1981 1.433 . S
C1989 N1991 1.384 . S
N1990 C1986 1.427 . S
N1990 C1987 1.384 . S
N1991 C1983 1.427 . S
N1991 C1989 1.384 . S
H1992 C1998 0.930 . S
H1993 C2002 0.930 . S
H1994 C2007 0.929 . S
H1995 C2005 0.929 . S
H1996 C2000 0.929 . S
H1997 C2006 0.929 . S
C1998 H1992 0.930 . S
C1998 C1999 1.367 . S
C1998 C2006 1.378 . S
C1999 C1998 1.367 . S
C1999 C2007 1.433 . S
C2000 H1996 0.929 . S
C2000 C2002 1.378 . S
C2000 C2004 1.350 . S
C2001 C2004 1.463 . S
C2001 C2006 1.350 . S
C2001 N2009 1.427 . S
C2002 H1993 0.930 . S
C2002 C2000 1.378 . S
C2002 C2003 1.367 . S
C2003 C2002 1.367 . S
C2003 C2005 1.433 . S
C2004 C2000 1.350 . S
C2004 C2001 1.463 . S
C2004 N2008 1.427 . S
C2005 H1995 0.929 . S
C2005 C2003 1.433 . S
C2005 N2008 1.384 . S
C2006 H1997 0.929 . S
C2006 C1998 1.378 . S
C2006 C2001 1.350 . S
C2007 H1994 0.929 . S
C2007 C1999 1.433 . S
C2007 N2009 1.384 . S
N2008 C2004 1.427 . S
N2008 C2005 1.384 . S
N2009 C2001 1.427 . S
N2009 C2007 1.384 . S
H2010 C2016 0.930 . S
H2011 C2020 0.930 . S
H2012 C2025 0.929 . S
H2013 C2023 0.929 . S
H2014 C2018 0.929 . S
H2015 C2024 0.929 . S
C2016 H2010 0.930 . S
C2016 C2017 1.367 . S
C2016 C2024 1.378 . S
C2017 C2016 1.367 . S
C2017 C2025 1.433 . S
C2018 H2014 0.929 . S
C2018 C2020 1.378 . S
C2018 C2022 1.350 . S
C2019 C2022 1.463 . S
C2019 C2024 1.350 . S
C2019 N2027 1.427 . S
C2020 H2011 0.930 . S
C2020 C2018 1.378 . S
C2020 C2021 1.367 . S
C2021 C2020 1.367 . S
C2021 C2023 1.433 . S
C2022 C2018 1.350 . S
C2022 C2019 1.463 . S
C2022 N2026 1.427 . S
C2023 H2013 0.929 . S
C2023 C2021 1.433 . S
C2023 N2026 1.384 . S
C2024 H2015 0.929 . S
C2024 C2016 1.378 . S
C2024 C2019 1.350 . S
C2025 H2012 0.929 . S
C2025 C2017 1.433 . S
C2025 N2027 1.384 . S
N2026 C2022 1.427 . S
N2026 C2023 1.384 . S
N2027 C2019 1.427 . S
N2027 C2025 1.384 . S
H2028 C2034 0.930 . S
H2029 C2038 0.930 . S
H2030 C2043 0.929 . S
H2031 C2041 0.929 . S
H2032 C2036 0.929 . S
H2033 C2042 0.929 . S
C2034 H2028 0.930 . S
C2034 C2035 1.367 . S
C2034 C2042 1.378 . S
C2035 C2034 1.367 . S
C2035 C2043 1.433 . S
C2036 H2032 0.929 . S
C2036 C2038 1.378 . S
C2036 C2040 1.350 . S
C2037 C2040 1.463 . S
C2037 C2042 1.350 . S
C2037 N2045 1.427 . S
C2038 H2029 0.930 . S
C2038 C2036 1.378 . S
C2038 C2039 1.367 . S
C2039 C2038 1.367 . S
C2039 C2041 1.433 . S
C2040 C2036 1.350 . S
C2040 C2037 1.463 . S
C2040 N2044 1.427 . S
C2041 H2031 0.929 . S
C2041 C2039 1.433 . S
C2041 N2044 1.384 . S
C2042 H2033 0.929 . S
C2042 C2034 1.378 . S
C2042 C2037 1.350 . S
C2043 H2030 0.929 . S
C2043 C2035 1.433 . S
C2043 N2045 1.384 . S
N2044 C2040 1.427 . S
N2044 C2041 1.384 . S
N2045 C2037 1.427 . S
N2045 C2043 1.384 . S
H2046 C2052 0.930 . S
H2047 C2056 0.930 . S
H2048 C2061 0.929 . S
H2049 C2059 0.929 . S
H2050 C2054 0.929 . S
H2051 C2060 0.929 . S
C2052 H2046 0.930 . S
C2052 C2053 1.367 . S
C2052 C2060 1.378 . S
C2053 C2052 1.367 . S
C2053 C2061 1.433 . S
C2054 H2050 0.929 . S
C2054 C2056 1.378 . S
C2054 C2058 1.350 . S
C2055 C2058 1.463 . S
C2055 C2060 1.350 . S
C2055 N2063 1.427 . S
C2056 H2047 0.930 . S
C2056 C2054 1.378 . S
C2056 C2057 1.367 . S
C2057 C2056 1.367 . S
C2057 C2059 1.433 . S
C2058 C2054 1.350 . S
C2058 C2055 1.463 . S
C2058 N2062 1.427 . S
C2059 H2049 0.929 . S
C2059 C2057 1.433 . S
C2059 N2062 1.384 . S
C2060 H2051 0.929 . S
C2060 C2052 1.378 . S
C2060 C2055 1.350 . S
C2061 H2048 0.929 . S
C2061 C2053 1.433 . S
C2061 N2063 1.384 . S
N2062 C2058 1.427 . S
N2062 C2059 1.384 . S
N2063 C2055 1.427 . S
N2063 C2061 1.384 . S
H2064 C2070 0.930 . S
H2065 C2074 0.930 . S
H2066 C2079 0.929 . S
H2067 C2077 0.929 . S
H2068 C2072 0.929 . S
H2069 C2078 0.929 . S
C2070 H2064 0.930 . S
C2070 C2071 1.367 . S
C2070 C2078 1.378 . S
C2071 C2070 1.367 . S
C2071 C2079 1.433 . S
C2072 H2068 0.929 . S
C2072 C2074 1.378 . S
C2072 C2076 1.350 . S
C2073 C2076 1.463 . S
C2073 C2078 1.350 . S
C2073 N2081 1.427 . S
C2074 H2065 0.930 . S
C2074 C2072 1.378 . S
C2074 C2075 1.367 . S
C2075 C2074 1.367 . S
C2075 C2077 1.433 . S
C2076 C2072 1.350 . S
C2076 C2073 1.463 . S
C2076 N2080 1.427 . S
C2077 H2067 0.929 . S
C2077 C2075 1.433 . S
C2077 N2080 1.384 . S
C2078 H2069 0.929 . S
C2078 C2070 1.378 . S
C2078 C2073 1.350 . S
C2079 H2066 0.929 . S
C2079 C2071 1.433 . S
C2079 N2081 1.384 . S
N2080 C2076 1.427 . S
N2080 C2077 1.384 . S
N2081 C2073 1.427 . S
N2081 C2079 1.384 . S
H2082 C2088 0.930 . S
H2083 C2092 0.930 . S
H2084 C2097 0.929 . S
H2085 C2095 0.929 . S
H2086 C2090 0.929 . S
H2087 C2096 0.929 . S
C2088 H2082 0.930 . S
C2088 C2089 1.367 . S
C2088 C2096 1.378 . S
C2089 C2088 1.367 . S
C2089 C2097 1.433 . S
C2090 H2086 0.929 . S
C2090 C2092 1.378 . S
C2090 C2094 1.350 . S
C2091 C2094 1.463 1_655 S
C2091 C2096 1.350 . S
C2091 N2099 1.427 . S
C2092 H2083 0.930 . S
C2092 C2090 1.378 . S
C2092 C2093 1.367 . S
C2093 C2092 1.367 . S
C2093 C2095 1.433 . S
C2094 C2090 1.350 . S
C2094 C2091 1.463 1_455 S
C2094 N2098 1.427 . S
C2095 H2085 0.929 . S
C2095 C2093 1.433 . S
C2095 N2098 1.384 . S
C2096 H2087 0.929 . S
C2096 C2088 1.378 . S
C2096 C2091 1.350 . S
C2097 H2084 0.929 . S
C2097 C2089 1.433 . S
C2097 N2099 1.384 . S
N2098 C2094 1.427 . S
N2098 C2095 1.384 . S
N2099 C2091 1.427 . S
N2099 C2097 1.384 . S
H2100 C2106 0.930 . S
H2101 C2110 0.930 . S
H2102 C2115 0.929 . S
H2103 C2113 0.929 . S
H2104 C2108 0.929 . S
H2105 C2114 0.929 . S
C2106 H2100 0.930 . S
C2106 C2107 1.367 . S
C2106 C2114 1.378 . S
C2107 C2106 1.367 . S
C2107 C2115 1.433 . S
C2108 H2104 0.929 . S
C2108 C2110 1.378 . S
C2108 C2112 1.350 . S
C2109 C2112 1.463 . S
C2109 C2114 1.350 . S
C2109 N2117 1.427 . S
C2110 H2101 0.930 . S
C2110 C2108 1.378 . S
C2110 C2111 1.367 . S
C2111 C2110 1.367 . S
C2111 C2113 1.433 . S
C2112 C2108 1.350 . S
C2112 C2109 1.463 . S
C2112 N2116 1.427 . S
C2113 H2103 0.929 . S
C2113 C2111 1.433 . S
C2113 N2116 1.384 . S
C2114 H2105 0.929 . S
C2114 C2106 1.378 . S
C2114 C2109 1.350 . S
C2115 H2102 0.929 . S
C2115 C2107 1.433 . S
C2115 N2117 1.384 . S
N2116 C2112 1.427 . S
N2116 C2113 1.384 . S
N2117 C2109 1.427 . S
N2117 C2115 1.384 . S
H2118 C2124 0.930 . S
H2119 C2128 0.930 . S
H2120 C2133 0.929 . S
H2121 C2131 0.929 . S
H2122 C2126 0.929 . S
H2123 C2132 0.929 . S
C2124 H2118 0.930 . S
C2124 C2125 1.367 1_556 S
C2124 C2132 1.378 . S
C2125 C2124 1.367 1_554 S
C2125 C2133 1.433 . S
C2126 H2122 0.929 . S
C2126 C2128 1.378 . S
C2126 C2130 1.350 . S
C2127 C2130 1.463 . S
C2127 C2132 1.350 . S
C2127 N2135 1.427 . S
C2128 H2119 0.930 . S
C2128 C2126 1.378 . S
C2128 C2129 1.367 . S
C2129 C2128 1.367 . S
C2129 C2131 1.433 . S
C2130 C2126 1.350 . S
C2130 C2127 1.463 . S
C2130 N2134 1.427 . S
C2131 H2121 0.929 . S
C2131 C2129 1.433 . S
C2131 N2134 1.384 . S
C2132 H2123 0.929 . S
C2132 C2124 1.378 . S
C2132 C2127 1.350 . S
C2133 H2120 0.929 . S
C2133 C2125 1.433 . S
C2133 N2135 1.384 1_554 S
N2134 C2130 1.427 . S
N2134 C2131 1.384 . S
N2135 C2127 1.427 . S
N2135 C2133 1.384 1_556 S
H2136 C2142 0.930 . S
H2137 C2146 0.930 . S
H2138 C2151 0.929 . S
H2139 C2149 0.929 . S
H2140 C2144 0.929 . S
H2141 C2150 0.929 . S
C2142 H2136 0.930 . S
C2142 C2143 1.367 . S
C2142 C2150 1.378 . S
C2143 C2142 1.367 . S
C2143 C2151 1.433 . S
C2144 H2140 0.929 . S
C2144 C2146 1.378 . S
C2144 C2148 1.350 . S
C2145 C2148 1.463 . S
C2145 C2150 1.350 . S
C2145 N2153 1.427 . S
C2146 H2137 0.930 . S
C2146 C2144 1.378 . S
C2146 C2147 1.367 . S
C2147 C2146 1.367 . S
C2147 C2149 1.433 . S
C2148 C2144 1.350 . S
C2148 C2145 1.463 . S
C2148 N2152 1.427 . S
C2149 H2139 0.929 . S
C2149 C2147 1.433 . S
C2149 N2152 1.384 . S
C2150 H2141 0.929 . S
C2150 C2142 1.378 . S
C2150 C2145 1.350 . S
C2151 H2138 0.929 . S
C2151 C2143 1.433 . S
C2151 N2153 1.384 . S
N2152 C2148 1.427 . S
N2152 C2149 1.384 . S
N2153 C2145 1.427 . S
N2153 C2151 1.384 . S
H2154 C2160 0.930 . S
H2155 C2164 0.930 . S
H2156 C2169 0.929 . S
H2157 C2167 0.929 . S
H2158 C2162 0.929 . S
H2159 C2168 0.929 . S
C2160 H2154 0.930 . S
C2160 C2161 1.367 . S
C2160 C2168 1.378 . S
C2161 C2160 1.367 . S
C2161 C2169 1.433 . S
C2162 H2158 0.929 . S
C2162 C2164 1.378 . S
C2162 C2166 1.350 . S
C2163 C2166 1.463 . S
C2163 C2168 1.350 . S
C2163 N2171 1.427 . S
C2164 H2155 0.930 . S
C2164 C2162 1.378 . S
C2164 C2165 1.367 . S
C2165 C2164 1.367 . S
C2165 C2167 1.433 . S
C2166 C2162 1.350 . S
C2166 C2163 1.463 . S
C2166 N2170 1.427 . S
C2167 H2157 0.929 . S
C2167 C2165 1.433 . S
C2167 N2170 1.384 . S
C2168 H2159 0.929 . S
C2168 C2160 1.378 . S
C2168 C2163 1.350 . S
C2169 H2156 0.929 . S
C2169 C2161 1.433 . S
C2169 N2171 1.384 . S
N2170 C2166 1.427 . S
N2170 C2167 1.384 . S
N2171 C2163 1.427 . S
N2171 C2169 1.384 . S
H2172 C2178 0.930 . S
H2173 C2182 0.930 . S
H2174 C2187 0.929 . S
H2175 C2185 0.929 . S
H2176 C2180 0.929 . S
H2177 C2186 0.929 . S
C2178 H2172 0.930 . S
C2178 C2179 1.367 . S
C2178 C2186 1.378 . S
C2179 C2178 1.367 . S
C2179 C2187 1.433 . S
C2180 H2176 0.929 . S
C2180 C2182 1.378 . S
C2180 C2184 1.350 . S
C2181 C2184 1.463 . S
C2181 C2186 1.350 . S
C2181 N2189 1.427 . S
C2182 H2173 0.930 . S
C2182 C2180 1.378 . S
C2182 C2183 1.367 . S
C2183 C2182 1.367 . S
C2183 C2185 1.433 . S
C2184 C2180 1.350 . S
C2184 C2181 1.463 . S
C2184 N2188 1.427 . S
C2185 H2175 0.929 . S
C2185 C2183 1.433 . S
C2185 N2188 1.384 . S
C2186 H2177 0.929 . S
C2186 C2178 1.378 . S
C2186 C2181 1.350 . S
C2187 H2174 0.929 . S
C2187 C2179 1.433 . S
C2187 N2189 1.384 . S
N2188 C2184 1.427 . S
N2188 C2185 1.384 . S
N2189 C2181 1.427 . S
N2189 C2187 1.384 . S
H2190 C2196 0.930 1_556 S
H2191 C2200 0.930 . S
H2192 C2205 0.929 1_655 S
H2193 C2203 0.929 . S
H2194 C2198 0.929 . S
H2195 C2204 0.929 . S
C2196 H2190 0.930 1_554 S
C2196 C2197 1.367 1_554 S
C2196 C2204 1.378 . S
C2197 C2196 1.367 1_556 S
C2197 C2205 1.433 . S
C2198 H2194 0.929 . S
C2198 C2200 1.378 . S
C2198 C2202 1.350 . S
C2199 C2202 1.463 1_455 S
C2199 C2204 1.350 . S
C2199 N2207 1.427 1_455 S
C2200 H2191 0.930 . S
C2200 C2198 1.378 . S
C2200 C2201 1.367 . S
C2201 C2200 1.367 . S
C2201 C2203 1.433 . S
C2202 C2198 1.350 . S
C2202 C2199 1.463 1_655 S
C2202 N2206 1.430 . S
C2203 H2193 0.929 . S
C2203 C2201 1.433 . S
C2203 N2206 1.387 . S
C2204 H2195 0.929 . S
C2204 C2196 1.378 . S
C2204 C2199 1.350 . S
C2205 H2192 0.929 1_455 S
C2205 C2197 1.433 . S
C2205 N2207 1.384 1_456 S
N2206 C2202 1.430 . S
N2206 C2203 1.387 . S
N2207 C2199 1.427 1_655 S
N2207 C2205 1.384 1_654 S
H2208 C2214 0.930 . S
H2209 C2218 0.930 . S
H2210 C2223 0.929 . S
H2211 C2221 0.929 . S
H2212 C2216 0.929 . S
H2213 C2222 0.929 . S
C2214 H2208 0.930 . S
C2214 C2215 1.367 . S
C2214 C2222 1.378 . S
C2215 C2214 1.367 . S
C2215 C2223 1.433 . S
C2216 H2212 0.929 . S
C2216 C2218 1.378 . S
C2216 C2220 1.350 . S
C2217 C2220 1.463 . S
C2217 C2222 1.350 . S
C2217 N2225 1.427 . S
C2218 H2209 0.930 . S
C2218 C2216 1.378 . S
C2218 C2219 1.367 . S
C2219 C2218 1.367 . S
C2219 C2221 1.433 . S
C2220 C2216 1.350 . S
C2220 C2217 1.463 . S
C2220 N2224 1.427 . S
C2221 H2211 0.929 . S
C2221 C2219 1.433 . S
C2221 N2224 1.384 . S
C2222 H2213 0.929 . S
C2222 C2214 1.378 . S
C2222 C2217 1.350 . S
C2223 H2210 0.929 . S
C2223 C2215 1.433 . S
C2223 N2225 1.384 . S
N2224 C2220 1.427 . S
N2224 C2221 1.384 . S
N2225 C2217 1.427 . S
N2225 C2223 1.384 . S
H2226 C2232 0.930 . S
H2227 C2236 0.930 . S
H2228 C2241 0.929 . S
H2229 C2239 0.929 . S
H2230 C2234 0.929 . S
H2231 C2240 0.929 . S
C2232 H2226 0.930 . S
C2232 C2233 1.367 . S
C2232 C2240 1.378 . S
C2233 C2232 1.367 . S
C2233 C2241 1.433 . S
C2234 H2230 0.929 . S
C2234 C2236 1.378 . S
C2234 C2238 1.350 . S
C2235 C2238 1.463 . S
C2235 C2240 1.350 . S
C2235 N2243 1.427 . S
C2236 H2227 0.930 . S
C2236 C2234 1.378 . S
C2236 C2237 1.367 1_565 S
C2237 C2236 1.367 1_545 S
C2237 C2239 1.433 . S
C2238 C2234 1.350 . S
C2238 C2235 1.463 . S
C2238 N2242 1.427 . S
C2239 H2229 0.929 . S
C2239 C2237 1.433 . S
C2239 N2242 1.384 1_545 S
C2240 H2231 0.929 . S
C2240 C2232 1.378 . S
C2240 C2235 1.350 . S
C2241 H2228 0.929 . S
C2241 C2233 1.433 . S
C2241 N2243 1.384 . S
N2242 C2238 1.427 . S
N2242 C2239 1.384 1_565 S
N2243 C2235 1.427 . S
N2243 C2241 1.384 . S
H2244 C2250 0.930 . S
H2245 C2254 0.930 . S
H2246 C2259 0.929 . S
H2247 C2257 0.929 . S
H2248 C2252 0.929 . S
H2249 C2258 0.929 . S
C2250 H2244 0.930 . S
C2250 C2251 1.367 . S
C2250 C2258 1.378 . S
C2251 C2250 1.367 . S
C2251 C2259 1.433 . S
C2252 H2248 0.929 . S
C2252 C2254 1.378 . S
C2252 C2256 1.350 . S
C2253 C2256 1.463 . S
C2253 C2258 1.350 . S
C2253 N2261 1.427 . S
C2254 H2245 0.930 . S
C2254 C2252 1.378 . S
C2254 C2255 1.367 . S
C2255 C2254 1.367 . S
C2255 C2257 1.433 . S
C2256 C2252 1.350 . S
C2256 C2253 1.463 . S
C2256 N2260 1.427 . S
C2257 H2247 0.929 . S
C2257 C2255 1.433 . S
C2257 N2260 1.384 . S
C2258 H2249 0.929 . S
C2258 C2250 1.378 . S
C2258 C2253 1.350 . S
C2259 H2246 0.929 . S
C2259 C2251 1.433 . S
C2259 N2261 1.384 . S
N2260 C2256 1.427 . S
N2260 C2257 1.384 . S
N2261 C2253 1.427 . S
N2261 C2259 1.384 . S
H2262 C2268 0.930 . S
H2263 C2272 0.930 . S
H2264 C2277 0.929 . S
H2265 C2275 0.929 . S
H2266 C2270 0.929 . S
H2267 C2276 0.929 . S
C2268 H2262 0.930 . S
C2268 C2269 1.367 . S
C2268 C2276 1.378 . S
C2269 C2268 1.367 . S
C2269 C2277 1.433 . S
C2270 H2266 0.929 . S
C2270 C2272 1.378 . S
C2270 C2274 1.350 . S
C2271 C2274 1.463 1_554 S
C2271 C2276 1.350 . S
C2271 N2279 1.427 . S
C2272 H2263 0.930 . S
C2272 C2270 1.378 . S
C2272 C2273 1.367 1_545 S
C2273 C2272 1.367 1_565 S
C2273 C2275 1.433 . S
C2274 C2270 1.350 . S
C2274 C2271 1.463 1_556 S
C2274 N2278 1.427 1_556 S
C2275 H2265 0.929 . S
C2275 C2273 1.433 . S
C2275 N2278 1.384 1_566 S
C2276 H2267 0.929 . S
C2276 C2268 1.378 . S
C2276 C2271 1.350 . S
C2277 H2264 0.929 . S
C2277 C2269 1.433 . S
C2277 N2279 1.384 . S
N2278 C2274 1.427 1_554 S
N2278 C2275 1.384 1_544 S
N2279 C2271 1.427 . S
N2279 C2277 1.384 . S
H2280 C2286 0.930 . S
H2281 C2290 0.930 . S
H2282 C2295 0.929 . S
H2283 C2293 0.929 . S
H2284 C2288 0.929 . S
H2285 C2294 0.929 . S
C2286 H2280 0.930 . S
C2286 C2287 1.367 . S
C2286 C2294 1.378 . S
C2287 C2286 1.367 . S
C2287 C2295 1.433 . S
C2288 H2284 0.929 . S
C2288 C2290 1.378 . S
C2288 C2292 1.350 . S
C2289 C2292 1.463 . S
C2289 C2294 1.350 . S
C2289 N2297 1.427 . S
C2290 H2281 0.930 . S
C2290 C2288 1.378 . S
C2290 C2291 1.367 . S
C2291 C2290 1.367 . S
C2291 C2293 1.433 . S
C2292 C2288 1.350 . S
C2292 C2289 1.463 . S
C2292 N2296 1.427 . S
C2293 H2283 0.929 . S
C2293 C2291 1.433 . S
C2293 N2296 1.384 . S
C2294 H2285 0.929 . S
C2294 C2286 1.378 . S
C2294 C2289 1.350 . S
C2295 H2282 0.929 . S
C2295 C2287 1.433 . S
C2295 N2297 1.384 . S
N2296 C2292 1.427 . S
N2296 C2293 1.384 . S
N2297 C2289 1.427 . S
N2297 C2295 1.384 . S
H2298 C2304 0.930 . S
H2299 C2308 0.930 . S
H2300 C2313 0.929 . S
H2301 C2311 0.929 . S
H2302 C2306 0.929 . S
H2303 C2312 0.929 . S
C2304 H2298 0.930 . S
C2304 C2305 1.367 . S
C2304 C2312 1.378 1_545 S
C2305 C2304 1.367 . S
C2305 C2313 1.433 1_545 S
C2306 H2302 0.929 . S
C2306 C2308 1.378 . S
C2306 C2310 1.350 . S
C2307 C2310 1.463 . S
C2307 C2312 1.350 . S
C2307 N2315 1.427 . S
C2308 H2299 0.930 . S
C2308 C2306 1.378 . S
C2308 C2309 1.367 . S
C2309 C2308 1.367 . S
C2309 C2311 1.433 . S
C2310 C2306 1.350 . S
C2310 C2307 1.463 . S
C2310 N2314 1.427 . S
C2311 H2301 0.929 . S
C2311 C2309 1.433 . S
C2311 N2314 1.384 . S
C2312 H2303 0.929 . S
C2312 C2304 1.378 1_565 S
C2312 C2307 1.350 . S
C2313 H2300 0.929 . S
C2313 C2305 1.433 1_565 S
C2313 N2315 1.384 . S
N2314 C2310 1.427 . S
N2314 C2311 1.384 . S
N2315 C2307 1.427 . S
N2315 C2313 1.384 . S
H2316 C2322 0.930 . S
H2317 C2326 0.930 . S
H2318 C2331 0.929 . S
H2319 C2329 0.929 . S
H2320 C2324 0.929 . S
H2321 C2330 0.929 . S
C2322 H2316 0.930 . S
C2322 C2323 1.367 . S
C2322 C2330 1.378 . S
C2323 C2322 1.367 . S
C2323 C2331 1.433 . S
C2324 H2320 0.929 . S
C2324 C2326 1.378 . S
C2324 C2328 1.350 . S
C2325 C2328 1.463 . S
C2325 C2330 1.350 . S
C2325 N2333 1.427 . S
C2326 H2317 0.930 . S
C2326 C2324 1.378 . S
C2326 C2327 1.367 . S
C2327 C2326 1.367 . S
C2327 C2329 1.433 . S
C2328 C2324 1.350 . S
C2328 C2325 1.463 . S
C2328 N2332 1.427 . S
C2329 H2319 0.929 . S
C2329 C2327 1.433 . S
C2329 N2332 1.384 . S
C2330 H2321 0.929 . S
C2330 C2322 1.378 . S
C2330 C2325 1.350 . S
C2331 H2318 0.929 . S
C2331 C2323 1.433 . S
C2331 N2333 1.384 . S
N2332 C2328 1.427 . S
N2332 C2329 1.384 . S
N2333 C2325 1.427 . S
N2333 C2331 1.384 . S
H2334 C2340 0.912 1_556 S
H2335 C2344 0.930 . S
H2336 C2349 0.914 1_565 S
H2337 C2347 0.929 . S
H2338 C2342 0.929 1_554 S
H2339 C2348 0.929 . S
C2340 H2334 0.912 1_554 S
C2340 C2341 1.367 . S
C2340 C2348 1.378 1_564 S
C2341 C2340 1.367 . S
C2341 C2349 1.412 1_565 S
C2342 H2338 0.929 1_556 S
C2342 C2344 1.378 . S
C2342 C2346 1.350 . S
C2343 C2346 1.438 1_554 S
C2343 C2348 1.331 1_554 S
C2343 N2351 1.475 . S
C2344 H2335 0.930 . S
C2344 C2342 1.378 . S
C2344 C2345 1.367 . S
C2345 C2344 1.367 . S
C2345 C2347 1.433 . S
C2346 C2342 1.350 . S
C2346 C2343 1.438 1_556 S
C2346 N2350 1.427 . S
C2347 H2337 0.929 . S
C2347 C2345 1.433 . S
C2347 N2350 1.384 . S
C2348 H2339 0.929 . S
C2348 C2340 1.378 1_546 S
C2348 C2343 1.331 1_556 S
C2349 H2336 0.914 1_545 S
C2349 C2341 1.412 1_545 S
C2349 N2351 1.423 . S
N2350 C2346 1.427 . S
N2350 C2347 1.384 . S
N2351 C2343 1.475 . S
N2351 C2349 1.423 . S
H2352 C2358 0.930 . S
H2353 C2362 0.930 . S
H2354 C2367 0.929 . S
H2355 C2365 0.929 . S
H2356 C2360 0.929 . S
H2357 C2366 0.929 . S
C2358 H2352 0.930 . S
C2358 C2359 1.367 . S
C2358 C2366 1.378 . S
C2359 C2358 1.367 . S
C2359 C2367 1.433 . S
C2360 H2356 0.929 . S
C2360 C2362 1.378 . S
C2360 C2364 1.350 . S
C2361 C2364 1.463 . S
C2361 C2366 1.350 . S
C2361 N2369 1.427 . S
C2362 H2353 0.930 . S
C2362 C2360 1.378 . S
C2362 C2363 1.367 . S
C2363 C2362 1.367 . S
C2363 C2365 1.433 . S
C2364 C2360 1.350 . S
C2364 C2361 1.463 . S
C2364 N2368 1.427 . S
C2365 H2355 0.929 . S
C2365 C2363 1.433 . S
C2365 N2368 1.384 . S
C2366 H2357 0.929 . S
C2366 C2358 1.378 . S
C2366 C2361 1.350 . S
C2367 H2354 0.929 . S
C2367 C2359 1.433 . S
C2367 N2369 1.384 . S
N2368 C2364 1.427 . S
N2368 C2365 1.384 . S
N2369 C2361 1.427 . S
N2369 C2367 1.384 . S
H2370 C2376 0.930 . S
H2371 C2380 0.930 . S
H2372 C2385 0.929 . S
H2373 C2383 0.929 . S
H2374 C2378 0.929 . S
H2375 C2384 0.929 . S
C2376 H2370 0.930 . S
C2376 C2377 1.367 . S
C2376 C2384 1.378 . S
C2377 C2376 1.367 . S
C2377 C2385 1.433 . S
C2378 H2374 0.929 . S
C2378 C2380 1.378 . S
C2378 C2382 1.350 . S
C2379 C2382 1.463 . S
C2379 C2384 1.350 . S
C2379 N2387 1.427 . S
C2380 H2371 0.930 . S
C2380 C2378 1.378 . S
C2380 C2381 1.367 . S
C2381 C2380 1.367 . S
C2381 C2383 1.433 . S
C2382 C2378 1.350 . S
C2382 C2379 1.463 . S
C2382 N2386 1.427 . S
C2383 H2373 0.929 . S
C2383 C2381 1.433 . S
C2383 N2386 1.384 . S
C2384 H2375 0.929 . S
C2384 C2376 1.378 . S
C2384 C2379 1.350 . S
C2385 H2372 0.929 . S
C2385 C2377 1.433 . S
C2385 N2387 1.384 . S
N2386 C2382 1.427 . S
N2386 C2383 1.384 . S
N2387 C2379 1.427 . S
N2387 C2385 1.384 . S
H2388 C2394 0.930 . S
H2389 C2398 0.930 . S
H2390 C2403 0.929 . S
H2391 C2401 0.929 . S
H2392 C2396 0.929 . S
H2393 C2402 0.929 . S
C2394 H2388 0.930 . S
C2394 C2395 1.367 . S
C2394 C2402 1.378 1_455 S
C2395 C2394 1.367 . S
C2395 C2403 1.433 1_455 S
C2396 H2392 0.929 . S
C2396 C2398 1.378 . S
C2396 C2400 1.350 . S
C2397 C2400 1.463 . S
C2397 C2402 1.350 . S
C2397 N2405 1.427 . S
C2398 H2389 0.930 . S
C2398 C2396 1.378 . S
C2398 C2399 1.367 . S
C2399 C2398 1.367 . S
C2399 C2401 1.433 . S
C2400 C2396 1.350 . S
C2400 C2397 1.463 . S
C2400 N2404 1.427 . S
C2401 H2391 0.929 . S
C2401 C2399 1.433 . S
C2401 N2404 1.384 . S
C2402 H2393 0.929 . S
C2402 C2394 1.378 1_655 S
C2402 C2397 1.350 . S
C2403 H2390 0.929 . S
C2403 C2395 1.433 1_655 S
C2403 N2405 1.384 . S
N2404 C2400 1.427 . S
N2404 C2401 1.384 . S
N2405 C2397 1.427 . S
N2405 C2403 1.384 . S
H2406 C2412 0.930 . S
H2407 C2416 0.930 . S
H2408 C2421 0.929 . S
H2409 C2419 0.929 . S
H2410 C2414 0.929 . S
H2411 C2420 0.929 . S
C2412 H2406 0.930 . S
C2412 C2413 1.367 . S
C2412 C2420 1.378 . S
C2413 C2412 1.367 . S
C2413 C2421 1.433 . S
C2414 H2410 0.929 . S
C2414 C2416 1.378 . S
C2414 C2418 1.350 . S
C2415 C2418 1.463 . S
C2415 C2420 1.350 . S
C2415 N2423 1.427 . S
C2416 H2407 0.930 . S
C2416 C2414 1.378 . S
C2416 C2417 1.367 . S
C2417 C2416 1.367 . S
C2417 C2419 1.433 . S
C2418 C2414 1.350 . S
C2418 C2415 1.463 . S
C2418 N2422 1.427 . S
C2419 H2409 0.929 . S
C2419 C2417 1.433 . S
C2419 N2422 1.384 . S
C2420 H2411 0.929 . S
C2420 C2412 1.378 . S
C2420 C2415 1.350 . S
C2421 H2408 0.929 . S
C2421 C2413 1.433 . S
C2421 N2423 1.384 . S
N2422 C2418 1.427 . S
N2422 C2419 1.384 . S
N2423 C2415 1.427 . S
N2423 C2421 1.384 . S
H2424 C2430 0.930 . S
H2425 C2434 0.930 . S
H2426 C2439 0.933 . S
H2427 C2437 0.929 . S
H2428 C2432 0.929 . S
H2429 C2438 0.929 . S
C2430 H2424 0.930 . S
C2430 C2431 1.367 . S
C2430 C2438 1.378 1_655 S
C2431 C2430 1.367 . S
C2431 C2439 1.437 . S
C2432 H2428 0.929 . S
C2432 C2434 1.378 . S
C2432 C2436 1.350 . S
C2433 C2436 1.463 1_545 S
C2433 C2438 1.350 . S
C2433 N2441 1.427 1_545 S
C2434 H2425 0.930 . S
C2434 C2432 1.378 . S
C2434 C2435 1.367 . S
C2435 C2434 1.367 . S
C2435 C2437 1.433 . S
C2436 C2432 1.350 . S
C2436 C2433 1.463 1_565 S
C2436 N2440 1.427 . S
C2437 H2427 0.929 . S
C2437 C2435 1.433 . S
C2437 N2440 1.384 . S
C2438 H2429 0.929 . S
C2438 C2430 1.378 1_455 S
C2438 C2433 1.350 . S
C2439 H2426 0.933 . S
C2439 C2431 1.437 . S
C2439 N2441 1.376 1_645 S
N2440 C2436 1.427 . S
N2440 C2437 1.384 . S
N2441 C2433 1.427 1_565 S
N2441 C2439 1.376 1_465 S
H2442 C2448 0.930 . S
H2443 C2452 0.930 . S
H2444 C2457 0.929 . S
H2445 C2455 0.929 . S
H2446 C2450 0.929 . S
H2447 C2456 0.929 . S
C2448 H2442 0.930 . S
C2448 C2449 1.367 . S
C2448 C2456 1.378 . S
C2449 C2448 1.367 . S
C2449 C2457 1.433 . S
C2450 H2446 0.929 . S
C2450 C2452 1.378 . S
C2450 C2454 1.350 . S
C2451 C2454 1.463 . S
C2451 C2456 1.350 . S
C2451 N2459 1.427 . S
C2452 H2443 0.930 . S
C2452 C2450 1.378 . S
C2452 C2453 1.367 . S
C2453 C2452 1.367 . S
C2453 C2455 1.433 . S
C2454 C2450 1.350 . S
C2454 C2451 1.463 . S
C2454 N2458 1.427 . S
C2455 H2445 0.929 . S
C2455 C2453 1.433 . S
C2455 N2458 1.384 . S
C2456 H2447 0.929 . S
C2456 C2448 1.378 . S
C2456 C2451 1.350 . S
C2457 H2444 0.929 . S
C2457 C2449 1.433 . S
C2457 N2459 1.384 . S
N2458 C2454 1.427 . S
N2458 C2455 1.384 . S
N2459 C2451 1.427 . S
N2459 C2457 1.384 . S
H2460 C2466 0.930 . S
H2461 C2470 0.931 . S
H2462 C2475 0.929 . S
H2463 C2473 0.929 . S
H2464 C2468 0.929 . S
H2465 C2474 0.929 . S
C2466 H2460 0.930 . S
C2466 C2467 1.367 . S
C2466 C2474 1.378 . S
C2467 C2466 1.367 . S
C2467 C2475 1.433 . S
C2468 H2464 0.929 . S
C2468 C2470 1.377 1_655 S
C2468 C2472 1.350 . S
C2469 C2472 1.463 . S
C2469 C2474 1.350 . S
C2469 N2477 1.427 . S
C2470 H2461 0.931 . S
C2470 C2468 1.377 1_455 S
C2470 C2471 1.367 . S
C2471 C2470 1.367 . S
C2471 C2473 1.433 . S
C2472 C2468 1.350 . S
C2472 C2469 1.463 . S
C2472 N2476 1.427 . S
C2473 H2463 0.929 . S
C2473 C2471 1.433 . S
C2473 N2476 1.384 1_455 S
C2474 H2465 0.929 . S
C2474 C2466 1.378 . S
C2474 C2469 1.350 . S
C2475 H2462 0.929 . S
C2475 C2467 1.433 . S
C2475 N2477 1.384 . S
N2476 C2472 1.427 . S
N2476 C2473 1.384 1_655 S
N2477 C2469 1.427 . S
N2477 C2475 1.384 . S
H2478 C2484 0.930 . S
H2479 C2488 0.930 . S
H2480 C2493 0.929 . S
H2481 C2491 0.929 . S
H2482 C2486 0.929 . S
H2483 C2492 0.929 . S
C2484 H2478 0.930 . S
C2484 C2485 1.367 . S
C2484 C2492 1.378 . S
C2485 C2484 1.367 . S
C2485 C2493 1.433 . S
C2486 H2482 0.929 . S
C2486 C2488 1.378 . S
C2486 C2490 1.350 . S
C2487 C2490 1.463 . S
C2487 C2492 1.350 . S
C2487 N2495 1.427 . S
C2488 H2479 0.930 . S
C2488 C2486 1.378 . S
C2488 C2489 1.367 . S
C2489 C2488 1.367 . S
C2489 C2491 1.433 . S
C2490 C2486 1.350 . S
C2490 C2487 1.463 . S
C2490 N2494 1.427 . S
C2491 H2481 0.929 . S
C2491 C2489 1.433 . S
C2491 N2494 1.384 . S
C2492 H2483 0.929 . S
C2492 C2484 1.378 . S
C2492 C2487 1.350 . S
C2493 H2480 0.929 . S
C2493 C2485 1.433 . S
C2493 N2495 1.384 . S
N2494 C2490 1.427 . S
N2494 C2491 1.384 . S
N2495 C2487 1.427 . S
N2495 C2493 1.384 . S
H2496 C2502 0.930 . S
H2497 C2506 0.930 . S
H2498 C2511 0.929 . S
H2499 C2509 0.929 . S
H2500 C2504 0.929 . S
H2501 C2510 0.929 . S
C2502 H2496 0.930 . S
C2502 C2503 1.367 . S
C2502 C2510 1.378 . S
C2503 C2502 1.367 . S
C2503 C2511 1.433 . S
C2504 H2500 0.929 . S
C2504 C2506 1.378 . S
C2504 C2508 1.350 . S
C2505 C2508 1.463 . S
C2505 C2510 1.350 . S
C2505 N2513 1.427 . S
C2506 H2497 0.930 . S
C2506 C2504 1.378 . S
C2506 C2507 1.367 . S
C2507 C2506 1.367 . S
C2507 C2509 1.433 . S
C2508 C2504 1.350 . S
C2508 C2505 1.463 . S
C2508 N2512 1.427 . S
C2509 H2499 0.929 . S
C2509 C2507 1.433 . S
C2509 N2512 1.384 . S
C2510 H2501 0.929 . S
C2510 C2502 1.378 . S
C2510 C2505 1.350 . S
C2511 H2498 0.929 . S
C2511 C2503 1.433 . S
C2511 N2513 1.384 . S
N2512 C2508 1.427 . S
N2512 C2509 1.384 . S
N2513 C2505 1.427 . S
N2513 C2511 1.384 . S
H2514 C2520 0.930 . S
H2515 C2524 0.930 . S
H2516 C2529 0.929 . S
H2517 C2527 0.929 . S
H2518 C2522 0.929 . S
H2519 C2528 0.929 . S
C2520 H2514 0.930 . S
C2520 C2521 1.367 . S
C2520 C2528 1.378 1_554 S
C2521 C2520 1.367 . S
C2521 C2529 1.433 1_554 S
C2522 H2518 0.929 . S
C2522 C2524 1.378 . S
C2522 C2526 1.350 . S
C2523 C2526 1.463 . S
C2523 C2528 1.350 . S
C2523 N2531 1.427 . S
C2524 H2515 0.930 . S
C2524 C2522 1.378 . S
C2524 C2525 1.367 . S
C2525 C2524 1.367 . S
C2525 C2527 1.433 . S
C2526 C2522 1.350 . S
C2526 C2523 1.463 . S
C2526 N2530 1.427 . S
C2527 H2517 0.929 . S
C2527 C2525 1.433 . S
C2527 N2530 1.384 . S
C2528 H2519 0.929 . S
C2528 C2520 1.378 1_556 S
C2528 C2523 1.350 . S
C2529 H2516 0.929 . S
C2529 C2521 1.433 1_556 S
C2529 N2531 1.384 . S
N2530 C2526 1.427 . S
N2530 C2527 1.384 . S
N2531 C2523 1.427 . S
N2531 C2529 1.384 . S
H2532 C2538 0.930 . S
H2533 C2542 0.930 . S
H2534 C2547 0.929 . S
H2535 C2545 0.929 . S
H2536 C2540 0.929 . S
H2537 C2546 0.929 . S
C2538 H2532 0.930 . S
C2538 C2539 1.367 . S
C2538 C2546 1.378 . S
C2539 C2538 1.367 . S
C2539 C2547 1.433 . S
C2540 H2536 0.929 . S
C2540 C2542 1.378 . S
C2540 C2544 1.350 . S
C2541 C2544 1.463 . S
C2541 C2546 1.350 . S
C2541 N2549 1.427 . S
C2542 H2533 0.930 . S
C2542 C2540 1.378 . S
C2542 C2543 1.367 . S
C2543 C2542 1.367 . S
C2543 C2545 1.433 . S
C2544 C2540 1.350 . S
C2544 C2541 1.463 . S
C2544 N2548 1.427 . S
C2545 H2535 0.929 . S
C2545 C2543 1.433 . S
C2545 N2548 1.384 . S
C2546 H2537 0.929 . S
C2546 C2538 1.378 . S
C2546 C2541 1.350 . S
C2547 H2534 0.929 . S
C2547 C2539 1.433 . S
C2547 N2549 1.384 . S
N2548 C2544 1.427 . S
N2548 C2545 1.384 . S
N2549 C2541 1.427 . S
N2549 C2547 1.384 . S
H2550 C2556 0.930 . S
H2551 C2560 0.930 . S
H2552 C2565 0.929 . S
H2553 C2563 0.929 . S
H2554 C2558 0.929 . S
H2555 C2564 0.917 1_455 S
C2556 H2550 0.930 . S
C2556 C2557 1.367 . S
C2556 C2564 1.378 . S
C2557 C2556 1.367 . S
C2557 C2565 1.433 . S
C2558 H2554 0.929 . S
C2558 C2560 1.378 . S
C2558 C2562 1.350 . S
C2559 C2562 1.463 1_655 S
C2559 C2564 1.350 . S
C2559 N2567 1.427 . S
C2560 H2551 0.930 . S
C2560 C2558 1.378 . S
C2560 C2561 1.367 . S
C2561 C2560 1.367 . S
C2561 C2563 1.433 . S
C2562 C2558 1.350 . S
C2562 C2559 1.463 1_455 S
C2562 N2566 1.427 . S
C2563 H2553 0.929 . S
C2563 C2561 1.433 . S
C2563 N2566 1.384 . S
C2564 H2555 0.917 1_655 S
C2564 C2556 1.378 . S
C2564 C2559 1.350 . S
C2565 H2552 0.929 . S
C2565 C2557 1.433 . S
C2565 N2567 1.384 . S
N2566 C2562 1.427 . S
N2566 C2563 1.384 . S
N2567 C2559 1.427 . S
N2567 C2565 1.384 . S
H2568 C2574 0.930 . S
H2569 C2578 0.930 . S
H2570 C2583 0.929 . S
H2571 C2581 0.929 . S
H2572 C2576 0.929 . S
H2573 C2582 0.929 . S
C2574 H2568 0.930 . S
C2574 C2575 1.367 . S
C2574 C2582 1.378 . S
C2575 C2574 1.367 . S
C2575 C2583 1.433 . S
C2576 H2572 0.929 . S
C2576 C2578 1.378 . S
C2576 C2580 1.350 . S
C2577 C2580 1.463 . S
C2577 C2582 1.350 . S
C2577 N2585 1.427 . S
C2578 H2569 0.930 . S
C2578 C2576 1.378 . S
C2578 C2579 1.367 . S
C2579 C2578 1.367 . S
C2579 C2581 1.433 . S
C2580 C2576 1.350 . S
C2580 C2577 1.463 . S
C2580 N2584 1.427 . S
C2581 H2571 0.929 . S
C2581 C2579 1.433 . S
C2581 N2584 1.384 . S
C2582 H2573 0.929 . S
C2582 C2574 1.378 . S
C2582 C2577 1.350 . S
C2583 H2570 0.929 . S
C2583 C2575 1.433 . S
C2583 N2585 1.384 . S
N2584 C2580 1.427 . S
N2584 C2581 1.384 . S
N2585 C2577 1.427 . S
N2585 C2583 1.384 . S
H2586 C2592 0.943 . S
H2587 C2596 0.930 . S
H2588 C2601 0.929 . S
H2589 C2599 0.929 . S
H2590 C2594 0.929 . S
H2591 C2600 0.929 1_455 S
C2592 H2586 0.943 . S
C2592 C2593 1.367 1_554 S
C2592 C2600 1.378 . S
C2593 C2592 1.367 1_556 S
C2593 C2601 1.433 . S
C2594 H2590 0.929 . S
C2594 C2596 1.378 . S
C2594 C2598 1.350 . S
C2595 C2598 1.463 1_655 S
C2595 C2600 1.350 . S
C2595 N2603 1.427 . S
C2596 H2587 0.930 . S
C2596 C2594 1.378 . S
C2596 C2597 1.367 . S
C2597 C2596 1.367 . S
C2597 C2599 1.433 . S
C2598 C2594 1.350 . S
C2598 C2595 1.463 1_455 S
C2598 N2602 1.427 . S
C2599 H2589 0.929 . S
C2599 C2597 1.433 . S
C2599 N2602 1.384 . S
C2600 H2591 0.929 1_655 S
C2600 C2592 1.378 . S
C2600 C2595 1.350 . S
C2601 H2588 0.929 . S
C2601 C2593 1.433 . S
C2601 N2603 1.384 1_556 S
N2602 C2598 1.427 . S
N2602 C2599 1.384 . S
N2603 C2595 1.427 . S
N2603 C2601 1.384 1_554 S
H2604 C2610 0.930 . S
H2605 C2614 0.930 . S
H2606 C2619 0.929 . S
H2607 C2617 0.929 . S
H2608 C2612 0.929 . S
H2609 C2618 0.929 . S
C2610 H2604 0.930 . S
C2610 C2611 1.367 . S
C2610 C2618 1.378 . S
C2611 C2610 1.367 . S
C2611 C2619 1.433 . S
C2612 H2608 0.929 . S
C2612 C2614 1.378 . S
C2612 C2616 1.350 . S
C2613 C2616 1.463 . S
C2613 C2618 1.350 . S
C2613 N2621 1.427 . S
C2614 H2605 0.930 . S
C2614 C2612 1.378 . S
C2614 C2615 1.367 . S
C2615 C2614 1.367 . S
C2615 C2617 1.433 . S
C2616 C2612 1.350 . S
C2616 C2613 1.463 . S
C2616 N2620 1.427 . S
C2617 H2607 0.929 . S
C2617 C2615 1.433 . S
C2617 N2620 1.384 . S
C2618 H2609 0.929 . S
C2618 C2610 1.378 . S
C2618 C2613 1.350 . S
C2619 H2606 0.929 . S
C2619 C2611 1.433 . S
C2619 N2621 1.384 . S
N2620 C2616 1.427 . S
N2620 C2617 1.384 . S
N2621 C2613 1.427 . S
N2621 C2619 1.384 . S
H2622 C2628 0.930 . S
H2623 C2632 0.930 . S
H2624 C2637 0.929 . S
H2625 C2635 0.929 . S
H2626 C2630 0.929 . S
H2627 C2636 0.929 . S
C2628 H2622 0.930 . S
C2628 C2629 1.367 . S
C2628 C2636 1.378 . S
C2629 C2628 1.367 . S
C2629 C2637 1.433 . S
C2630 H2626 0.929 . S
C2630 C2632 1.378 . S
C2630 C2634 1.350 . S
C2631 C2634 1.463 . S
C2631 C2636 1.350 . S
C2631 N2639 1.427 . S
C2632 H2623 0.930 . S
C2632 C2630 1.378 . S
C2632 C2633 1.367 . S
C2633 C2632 1.367 . S
C2633 C2635 1.433 . S
C2634 C2630 1.350 . S
C2634 C2631 1.463 . S
C2634 N2638 1.427 . S
C2635 H2625 0.929 . S
C2635 C2633 1.433 . S
C2635 N2638 1.384 . S
C2636 H2627 0.929 . S
C2636 C2628 1.378 . S
C2636 C2631 1.350 . S
C2637 H2624 0.929 . S
C2637 C2629 1.433 . S
C2637 N2639 1.384 . S
N2638 C2634 1.427 . S
N2638 C2635 1.384 . S
N2639 C2631 1.427 . S
N2639 C2637 1.384 . S
H2640 C2646 0.930 . S
H2641 C2650 0.930 . S
H2642 C2655 0.929 . S
H2643 C2653 0.929 . S
H2644 C2648 0.929 . S
H2645 C2654 0.929 . S
C2646 H2640 0.930 . S
C2646 C2647 1.367 . S
C2646 C2654 1.378 . S
C2647 C2646 1.367 . S
C2647 C2655 1.433 . S
C2648 H2644 0.929 . S
C2648 C2650 1.378 . S
C2648 C2652 1.350 . S
C2649 C2652 1.463 . S
C2649 C2654 1.350 . S
C2649 N2657 1.427 . S
C2650 H2641 0.930 . S
C2650 C2648 1.378 . S
C2650 C2651 1.367 . S
C2651 C2650 1.367 . S
C2651 C2653 1.433 . S
C2652 C2648 1.350 . S
C2652 C2649 1.463 . S
C2652 N2656 1.427 . S
C2653 H2643 0.929 . S
C2653 C2651 1.433 . S
C2653 N2656 1.384 . S
C2654 H2645 0.929 . S
C2654 C2646 1.378 . S
C2654 C2649 1.350 . S
C2655 H2642 0.929 . S
C2655 C2647 1.433 . S
C2655 N2657 1.384 . S
N2656 C2652 1.427 . S
N2656 C2653 1.384 . S
N2657 C2649 1.427 . S
N2657 C2655 1.384 . S
H2658 C2664 0.930 . S
H2659 C2668 0.930 . S
H2660 C2673 0.924 1_554 S
H2661 C2671 0.957 . S
H2662 C2666 0.929 . S
H2663 C2672 0.929 . S
C2664 H2658 0.930 . S
C2664 C2665 1.367 . S
C2664 C2672 1.378 . S
C2665 C2664 1.367 . S
C2665 C2673 1.444 . S
C2666 H2662 0.929 . S
C2666 C2668 1.378 . S
C2666 C2670 1.350 . S
C2667 C2670 1.463 1_556 S
C2667 C2672 1.350 . S
C2667 N2675 1.427 1_556 S
C2668 H2659 0.930 . S
C2668 C2666 1.378 . S
C2668 C2669 1.367 . S
C2669 C2668 1.367 . S
C2669 C2671 1.433 . S
C2670 C2666 1.350 . S
C2670 C2667 1.463 1_554 S
C2670 N2674 1.427 1_554 S
C2671 H2661 0.957 . S
C2671 C2669 1.433 . S
C2671 N2674 1.384 1_554 S
C2672 H2663 0.929 . S
C2672 C2664 1.378 . S
C2672 C2667 1.350 . S
C2673 H2660 0.924 1_556 S
C2673 C2665 1.444 . S
C2673 N2675 1.379 1_556 S
N2674 C2670 1.427 1_556 S
N2674 C2671 1.384 1_556 S
N2675 C2667 1.427 1_554 S
N2675 C2673 1.379 1_554 S
H2676 C2682 0.930 . S
H2677 C2686 0.930 . S
H2678 C2691 0.929 . S
H2679 C2689 0.929 . S
H2680 C2684 0.929 . S
H2681 C2690 0.929 . S
C2682 H2676 0.930 . S
C2682 C2683 1.367 . S
C2682 C2690 1.378 . S
C2683 C2682 1.367 . S
C2683 C2691 1.433 . S
C2684 H2680 0.929 . S
C2684 C2686 1.378 . S
C2684 C2688 1.350 . S
C2685 C2688 1.463 . S
C2685 C2690 1.350 . S
C2685 N2693 1.427 . S
C2686 H2677 0.930 . S
C2686 C2684 1.378 . S
C2686 C2687 1.367 . S
C2687 C2686 1.367 . S
C2687 C2689 1.433 . S
C2688 C2684 1.350 . S
C2688 C2685 1.463 . S
C2688 N2692 1.427 . S
C2689 H2679 0.929 . S
C2689 C2687 1.433 . S
C2689 N2692 1.384 . S
C2690 H2681 0.929 . S
C2690 C2682 1.378 . S
C2690 C2685 1.350 . S
C2691 H2678 0.929 . S
C2691 C2683 1.433 . S
C2691 N2693 1.384 . S
N2692 C2688 1.427 . S
N2692 C2689 1.384 . S
N2693 C2685 1.427 . S
N2693 C2691 1.384 . S
H2694 C2700 0.930 . S
H2695 C2704 0.930 . S
H2696 C2709 0.929 . S
H2697 C2707 0.929 . S
H2698 C2702 0.929 . S
H2699 C2708 0.929 . S
C2700 H2694 0.930 . S
C2700 C2701 1.367 . S
C2700 C2708 1.378 . S
C2701 C2700 1.367 . S
C2701 C2709 1.433 . S
C2702 H2698 0.929 . S
C2702 C2704 1.378 . S
C2702 C2706 1.350 . S
C2703 C2706 1.463 . S
C2703 C2708 1.350 . S
C2703 N2711 1.427 . S
C2704 H2695 0.930 . S
C2704 C2702 1.378 . S
C2704 C2705 1.367 . S
C2705 C2704 1.367 . S
C2705 C2707 1.433 . S
C2706 C2702 1.350 . S
C2706 C2703 1.463 . S
C2706 N2710 1.427 . S
C2707 H2697 0.929 . S
C2707 C2705 1.433 . S
C2707 N2710 1.384 . S
C2708 H2699 0.929 . S
C2708 C2700 1.378 . S
C2708 C2703 1.350 . S
C2709 H2696 0.929 . S
C2709 C2701 1.433 . S
C2709 N2711 1.384 . S
N2710 C2706 1.427 . S
N2710 C2707 1.384 . S
N2711 C2703 1.427 . S
N2711 C2709 1.384 . S
H2712 C2718 0.930 . S
H2713 C2722 0.930 . S
H2714 C2727 0.929 . S
H2715 C2725 0.929 . S
H2716 C2720 0.929 . S
H2717 C2726 0.929 . S
C2718 H2712 0.930 . S
C2718 C2719 1.367 . S
C2718 C2726 1.378 . S
C2719 C2718 1.367 . S
C2719 C2727 1.433 . S
C2720 H2716 0.929 . S
C2720 C2722 1.378 . S
C2720 C2724 1.350 . S
C2721 C2724 1.463 . S
C2721 C2726 1.350 . S
C2721 N2729 1.427 . S
C2722 H2713 0.930 . S
C2722 C2720 1.378 . S
C2722 C2723 1.367 . S
C2723 C2722 1.367 . S
C2723 C2725 1.433 . S
C2724 C2720 1.350 . S
C2724 C2721 1.463 . S
C2724 N2728 1.427 . S
C2725 H2715 0.929 . S
C2725 C2723 1.433 . S
C2725 N2728 1.384 . S
C2726 H2717 0.929 . S
C2726 C2718 1.378 . S
C2726 C2721 1.350 . S
C2727 H2714 0.929 . S
C2727 C2719 1.433 . S
C2727 N2729 1.384 . S
N2728 C2724 1.427 . S
N2728 C2725 1.384 . S
N2729 C2721 1.427 . S
N2729 C2727 1.384 . S
H2730 C2736 0.917 1_554 S
H2731 C2740 0.942 . S
H2732 C2745 0.929 . S
H2733 C2743 0.929 . S
H2734 C2738 0.929 . S
H2735 C2744 0.929 . S
C2736 H2730 0.917 1_556 S
C2736 C2737 1.367 . S
C2736 C2744 1.378 1_556 S
C2737 C2736 1.367 . S
C2737 C2745 1.433 . S
C2738 H2734 0.929 . S
C2738 C2740 1.388 . S
C2738 C2742 1.323 1_556 S
C2739 C2742 1.442 1_556 S
C2739 C2744 1.350 1_556 S
C2739 N2747 1.427 . S
C2740 H2731 0.942 . S
C2740 C2738 1.388 . S
C2740 C2741 1.345 1_556 S
C2741 C2740 1.345 1_554 S
C2741 C2743 1.433 . S
C2742 C2738 1.323 1_554 S
C2742 C2739 1.442 1_554 S
C2742 N2746 1.478 . S
C2743 H2733 0.929 . S
C2743 C2741 1.433 . S
C2743 N2746 1.384 . S
C2744 H2735 0.929 . S
C2744 C2736 1.378 1_554 S
C2744 C2739 1.350 1_554 S
C2745 H2732 0.929 . S
C2745 C2737 1.433 . S
C2745 N2747 1.384 . S
N2746 C2742 1.478 . S
N2746 C2743 1.384 . S
N2747 C2739 1.427 . S
N2747 C2745 1.384 . S
H2748 C2754 0.930 . S
H2749 C2758 0.930 . S
H2750 C2763 0.929 . S
H2751 C2761 0.929 . S
H2752 C2756 0.929 . S
H2753 C2762 0.929 . S
C2754 H2748 0.930 . S
C2754 C2755 1.367 . S
C2754 C2762 1.378 . S
C2755 C2754 1.367 . S
C2755 C2763 1.433 . S
C2756 H2752 0.929 . S
C2756 C2758 1.378 . S
C2756 C2760 1.350 . S
C2757 C2760 1.463 . S
C2757 C2762 1.350 . S
C2757 N2765 1.427 . S
C2758 H2749 0.930 . S
C2758 C2756 1.378 . S
C2758 C2759 1.367 . S
C2759 C2758 1.367 . S
C2759 C2761 1.433 . S
C2760 C2756 1.350 . S
C2760 C2757 1.463 . S
C2760 N2764 1.427 . S
C2761 H2751 0.929 . S
C2761 C2759 1.433 . S
C2761 N2764 1.384 . S
C2762 H2753 0.929 . S
C2762 C2754 1.378 . S
C2762 C2757 1.350 . S
C2763 H2750 0.929 . S
C2763 C2755 1.433 . S
C2763 N2765 1.384 . S
N2764 C2760 1.427 . S
N2764 C2761 1.384 . S
N2765 C2757 1.427 . S
N2765 C2763 1.384 . S
H2766 C2772 0.930 . S
H2767 C2776 0.930 . S
H2768 C2781 0.929 . S
H2769 C2779 0.929 . S
H2770 C2774 0.929 . S
H2771 C2780 0.929 . S
C2772 H2766 0.930 . S
C2772 C2773 1.367 . S
C2772 C2780 1.378 . S
C2773 C2772 1.367 . S
C2773 C2781 1.433 . S
C2774 H2770 0.929 . S
C2774 C2776 1.378 . S
C2774 C2778 1.350 . S
C2775 C2778 1.463 . S
C2775 C2780 1.350 . S
C2775 N2783 1.427 . S
C2776 H2767 0.930 . S
C2776 C2774 1.378 . S
C2776 C2777 1.367 . S
C2777 C2776 1.367 . S
C2777 C2779 1.433 . S
C2778 C2774 1.350 . S
C2778 C2775 1.463 . S
C2778 N2782 1.427 . S
C2779 H2769 0.929 . S
C2779 C2777 1.433 . S
C2779 N2782 1.384 . S
C2780 H2771 0.929 . S
C2780 C2772 1.378 . S
C2780 C2775 1.350 . S
C2781 H2768 0.929 . S
C2781 C2773 1.433 . S
C2781 N2783 1.384 . S
N2782 C2778 1.427 . S
N2782 C2779 1.384 . S
N2783 C2775 1.427 . S
N2783 C2781 1.384 . S
H2784 C2790 0.930 . S
H2785 C2794 0.930 . S
H2786 C2799 0.929 . S
H2787 C2797 0.929 . S
H2788 C2792 0.929 . S
H2789 C2798 0.929 . S
C2790 H2784 0.930 . S
C2790 C2791 1.367 . S
C2790 C2798 1.378 . S
C2791 C2790 1.367 . S
C2791 C2799 1.433 . S
C2792 H2788 0.929 . S
C2792 C2794 1.378 . S
C2792 C2796 1.350 . S
C2793 C2796 1.463 . S
C2793 C2798 1.350 . S
C2793 N2801 1.427 . S
C2794 H2785 0.930 . S
C2794 C2792 1.378 . S
C2794 C2795 1.367 . S
C2795 C2794 1.367 . S
C2795 C2797 1.433 . S
C2796 C2792 1.350 . S
C2796 C2793 1.463 . S
C2796 N2800 1.427 . S
C2797 H2787 0.929 . S
C2797 C2795 1.433 . S
C2797 N2800 1.384 . S
C2798 H2789 0.929 . S
C2798 C2790 1.378 . S
C2798 C2793 1.350 . S
C2799 H2786 0.929 . S
C2799 C2791 1.433 . S
C2799 N2801 1.384 . S
N2800 C2796 1.427 . S
N2800 C2797 1.384 . S
N2801 C2793 1.427 . S
N2801 C2799 1.384 . S
H2802 C2808 0.930 . S
H2803 C2812 0.930 . S
H2804 C2817 0.929 . S
H2805 C2815 0.929 . S
H2806 C2810 0.929 . S
H2807 C2816 0.929 . S
C2808 H2802 0.930 . S
C2808 C2809 1.367 . S
C2808 C2816 1.378 . S
C2809 C2808 1.367 . S
C2809 C2817 1.433 . S
C2810 H2806 0.929 . S
C2810 C2812 1.378 . S
C2810 C2814 1.350 . S
C2811 C2814 1.463 . S
C2811 C2816 1.350 . S
C2811 N2819 1.427 . S
C2812 H2803 0.930 . S
C2812 C2810 1.378 . S
C2812 C2813 1.367 . S
C2813 C2812 1.367 . S
C2813 C2815 1.433 . S
C2814 C2810 1.350 . S
C2814 C2811 1.463 . S
C2814 N2818 1.427 . S
C2815 H2805 0.929 . S
C2815 C2813 1.433 . S
C2815 N2818 1.384 . S
C2816 H2807 0.929 . S
C2816 C2808 1.378 . S
C2816 C2811 1.350 . S
C2817 H2804 0.929 . S
C2817 C2809 1.433 . S
C2817 N2819 1.384 . S
N2818 C2814 1.427 . S
N2818 C2815 1.384 . S
N2819 C2811 1.427 . S
N2819 C2817 1.384 . S
H2820 C2826 0.930 . S
H2821 C2830 0.930 . S
H2822 C2835 0.929 . S
H2823 C2833 0.929 . S
H2824 C2828 0.929 . S
H2825 C2834 0.911 1_545 S
C2826 H2820 0.930 . S
C2826 C2827 1.367 . S
C2826 C2834 1.395 . S
C2827 C2826 1.367 . S
C2827 C2835 1.433 . S
C2828 H2824 0.929 . S
C2828 C2830 1.378 . S
C2828 C2832 1.350 . S
C2829 C2832 1.463 1_565 S
C2829 C2834 1.351 . S
C2829 N2837 1.427 . S
C2830 H2821 0.930 . S
C2830 C2828 1.378 . S
C2830 C2831 1.367 . S
C2831 C2830 1.367 . S
C2831 C2833 1.433 . S
C2832 C2828 1.350 . S
C2832 C2829 1.463 1_545 S
C2832 N2836 1.427 . S
C2833 H2823 0.929 . S
C2833 C2831 1.433 . S
C2833 N2836 1.384 . S
C2834 H2825 0.911 1_565 S
C2834 C2826 1.395 . S
C2834 C2829 1.351 . S
C2835 H2822 0.929 . S
C2835 C2827 1.433 . S
C2835 N2837 1.384 . S
N2836 C2832 1.427 . S
N2836 C2833 1.384 . S
N2837 C2829 1.427 . S
N2837 C2835 1.384 . S
H2838 C2844 0.930 . S
H2839 C2848 0.930 . S
H2840 C2853 0.929 . S
H2841 C2851 0.929 . S
H2842 C2846 0.929 . S
H2843 C2852 0.929 . S
C2844 H2838 0.930 . S
C2844 C2845 1.367 . S
C2844 C2852 1.378 . S
C2845 C2844 1.367 . S
C2845 C2853 1.433 . S
C2846 H2842 0.929 . S
C2846 C2848 1.378 . S
C2846 C2850 1.350 . S
C2847 C2850 1.463 . S
C2847 C2852 1.350 . S
C2847 N2855 1.427 . S
C2848 H2839 0.930 . S
C2848 C2846 1.378 . S
C2848 C2849 1.367 . S
C2849 C2848 1.367 . S
C2849 C2851 1.433 . S
C2850 C2846 1.350 . S
C2850 C2847 1.463 . S
C2850 N2854 1.427 . S
C2851 H2841 0.929 . S
C2851 C2849 1.433 . S
C2851 N2854 1.384 . S
C2852 H2843 0.929 . S
C2852 C2844 1.378 . S
C2852 C2847 1.350 . S
C2853 H2840 0.929 . S
C2853 C2845 1.433 . S
C2853 N2855 1.384 . S
N2854 C2850 1.427 . S
N2854 C2851 1.384 . S
N2855 C2847 1.427 . S
N2855 C2853 1.384 . S
H2856 C2862 0.930 . S
H2857 C2866 0.930 . S
H2858 C2871 0.929 . S
H2859 C2869 0.929 . S
H2860 C2864 0.929 . S
H2861 C2870 0.929 . S
C2862 H2856 0.930 . S
C2862 C2863 1.367 . S
C2862 C2870 1.378 . S
C2863 C2862 1.367 . S
C2863 C2871 1.433 . S
C2864 H2860 0.929 . S
C2864 C2866 1.378 . S
C2864 C2868 1.350 . S
C2865 C2868 1.463 . S
C2865 C2870 1.350 . S
C2865 N2873 1.427 . S
C2866 H2857 0.930 . S
C2866 C2864 1.378 . S
C2866 C2867 1.367 . S
C2867 C2866 1.367 . S
C2867 C2869 1.433 . S
C2868 C2864 1.350 . S
C2868 C2865 1.463 . S
C2868 N2872 1.427 . S
C2869 H2859 0.929 . S
C2869 C2867 1.433 . S
C2869 N2872 1.384 . S
C2870 H2861 0.929 . S
C2870 C2862 1.378 . S
C2870 C2865 1.350 . S
C2871 H2858 0.929 . S
C2871 C2863 1.433 . S
C2871 N2873 1.384 . S
N2872 C2868 1.427 . S
N2872 C2869 1.384 . S
N2873 C2865 1.427 . S
N2873 C2871 1.384 . S
H2874 C2880 0.930 . S
H2875 C2884 0.930 . S
H2876 C2889 0.929 . S
H2877 C2887 0.929 . S
H2878 C2882 0.929 . S
H2879 C2888 0.929 . S
C2880 H2874 0.930 . S
C2880 C2881 1.367 . S
C2880 C2888 1.378 . S
C2881 C2880 1.367 . S
C2881 C2889 1.433 . S
C2882 H2878 0.929 . S
C2882 C2884 1.378 . S
C2882 C2886 1.350 . S
C2883 C2886 1.463 . S
C2883 C2888 1.350 . S
C2883 N2891 1.427 . S
C2884 H2875 0.930 . S
C2884 C2882 1.378 . S
C2884 C2885 1.367 . S
C2885 C2884 1.367 . S
C2885 C2887 1.433 . S
C2886 C2882 1.350 . S
C2886 C2883 1.463 . S
C2886 N2890 1.427 . S
C2887 H2877 0.929 . S
C2887 C2885 1.433 . S
C2887 N2890 1.384 . S
C2888 H2879 0.929 . S
C2888 C2880 1.378 . S
C2888 C2883 1.350 . S
C2889 H2876 0.929 . S
C2889 C2881 1.433 . S
C2889 N2891 1.384 . S
N2890 C2886 1.427 . S
N2890 C2887 1.384 . S
N2891 C2883 1.427 . S
N2891 C2889 1.384 . S
H2892 C2898 0.930 . S
H2893 C2902 0.930 . S
H2894 C2907 0.929 . S
H2895 C2905 0.929 . S
H2896 C2900 0.929 . S
H2897 C2906 0.929 . S
C2898 H2892 0.930 . S
C2898 C2899 1.367 . S
C2898 C2906 1.378 . S
C2899 C2898 1.367 . S
C2899 C2907 1.433 . S
C2900 H2896 0.929 . S
C2900 C2902 1.378 . S
C2900 C2904 1.350 . S
C2901 C2904 1.463 1_565 S
C2901 C2906 1.350 . S
C2901 N2909 1.427 . S
C2902 H2893 0.930 . S
C2902 C2900 1.378 . S
C2902 C2903 1.367 . S
C2903 C2902 1.367 . S
C2903 C2905 1.433 . S
C2904 C2900 1.350 . S
C2904 C2901 1.463 1_545 S
C2904 N2908 1.427 . S
C2905 H2895 0.929 . S
C2905 C2903 1.433 . S
C2905 N2908 1.384 . S
C2906 H2897 0.929 . S
C2906 C2898 1.378 . S
C2906 C2901 1.350 . S
C2907 H2894 0.929 . S
C2907 C2899 1.433 . S
C2907 N2909 1.384 . S
N2908 C2904 1.427 . S
N2908 C2905 1.384 . S
N2909 C2901 1.427 . S
N2909 C2907 1.384 . S
H2910 C2916 0.930 . S
H2911 C2920 0.930 . S
H2912 C2925 0.929 . S
H2913 C2923 0.929 . S
H2914 C2918 0.929 . S
H2915 C2924 0.929 . S
C2916 H2910 0.930 . S
C2916 C2917 1.367 . S
C2916 C2924 1.378 1_655 S
C2917 C2916 1.367 . S
C2917 C2925 1.433 1_655 S
C2918 H2914 0.929 . S
C2918 C2920 1.378 . S
C2918 C2922 1.350 . S
C2919 C2922 1.463 1_565 S
C2919 C2924 1.350 . S
C2919 N2927 1.427 . S
C2920 H2911 0.930 . S
C2920 C2918 1.378 . S
C2920 C2921 1.367 . S
C2921 C2920 1.367 . S
C2921 C2923 1.433 . S
C2922 C2918 1.350 . S
C2922 C2919 1.463 1_545 S
C2922 N2926 1.427 . S
C2923 H2913 0.929 . S
C2923 C2921 1.433 . S
C2923 N2926 1.384 . S
C2924 H2915 0.929 . S
C2924 C2916 1.378 1_455 S
C2924 C2919 1.350 . S
C2925 H2912 0.929 . S
C2925 C2917 1.433 1_455 S
C2925 N2927 1.384 . S
N2926 C2922 1.427 . S
N2926 C2923 1.384 . S
N2927 C2919 1.427 . S
N2927 C2925 1.384 . S
H2928 C2934 0.930 . S
H2929 C2938 0.930 . S
H2930 C2943 0.929 . S
H2931 C2941 0.929 . S
H2932 C2936 0.929 . S
H2933 C2942 0.929 . S
C2934 H2928 0.930 . S
C2934 C2935 1.367 . S
C2934 C2942 1.378 . S
C2935 C2934 1.367 . S
C2935 C2943 1.433 . S
C2936 H2932 0.929 . S
C2936 C2938 1.378 . S
C2936 C2940 1.350 . S
C2937 C2940 1.463 . S
C2937 C2942 1.350 . S
C2937 N2945 1.427 . S
C2938 H2929 0.930 . S
C2938 C2936 1.378 . S
C2938 C2939 1.367 . S
C2939 C2938 1.367 . S
C2939 C2941 1.433 . S
C2940 C2936 1.350 . S
C2940 C2937 1.463 . S
C2940 N2944 1.427 . S
C2941 H2931 0.929 . S
C2941 C2939 1.433 . S
C2941 N2944 1.384 . S
C2942 H2933 0.929 . S
C2942 C2934 1.378 . S
C2942 C2937 1.350 . S
C2943 H2930 0.929 . S
C2943 C2935 1.433 . S
C2943 N2945 1.384 . S
N2944 C2940 1.427 . S
N2944 C2941 1.384 . S
N2945 C2937 1.427 . S
N2945 C2943 1.384 . S
H2946 C2952 0.930 . S
H2947 C2956 0.930 . S
H2948 C2961 0.929 . S
H2949 C2959 0.929 . S
H2950 C2954 0.929 . S
H2951 C2960 0.929 . S
C2952 H2946 0.930 . S
C2952 C2953 1.367 . S
C2952 C2960 1.378 . S
C2953 C2952 1.367 . S
C2953 C2961 1.433 . S
C2954 H2950 0.929 . S
C2954 C2956 1.378 . S
C2954 C2958 1.350 . S
C2955 C2958 1.463 . S
C2955 C2960 1.350 . S
C2955 N2963 1.427 . S
C2956 H2947 0.930 . S
C2956 C2954 1.378 . S
C2956 C2957 1.367 . S
C2957 C2956 1.367 . S
C2957 C2959 1.433 . S
C2958 C2954 1.350 . S
C2958 C2955 1.463 . S
C2958 N2962 1.427 . S
C2959 H2949 0.929 . S
C2959 C2957 1.433 . S
C2959 N2962 1.384 . S
C2960 H2951 0.929 . S
C2960 C2952 1.378 . S
C2960 C2955 1.350 . S
C2961 H2948 0.929 . S
C2961 C2953 1.433 . S
C2961 N2963 1.384 . S
N2962 C2958 1.427 . S
N2962 C2959 1.384 . S
N2963 C2955 1.427 . S
N2963 C2961 1.384 . S
H2964 C2970 0.930 . S
H2965 C2974 0.930 . S
H2966 C2979 0.929 . S
H2967 C2977 0.929 . S
H2968 C2972 0.929 . S
H2969 C2978 0.929 . S
C2970 H2964 0.930 . S
C2970 C2971 1.367 . S
C2970 C2978 1.378 . S
C2971 C2970 1.367 . S
C2971 C2979 1.433 . S
C2972 H2968 0.929 . S
C2972 C2974 1.378 . S
C2972 C2976 1.350 . S
C2973 C2976 1.463 . S
C2973 C2978 1.350 . S
C2973 N2981 1.427 . S
C2974 H2965 0.930 . S
C2974 C2972 1.378 . S
C2974 C2975 1.367 . S
C2975 C2974 1.367 . S
C2975 C2977 1.433 . S
C2976 C2972 1.350 . S
C2976 C2973 1.463 . S
C2976 N2980 1.427 . S
C2977 H2967 0.929 . S
C2977 C2975 1.433 . S
C2977 N2980 1.384 . S
C2978 H2969 0.929 . S
C2978 C2970 1.378 . S
C2978 C2973 1.350 . S
C2979 H2966 0.929 . S
C2979 C2971 1.433 . S
C2979 N2981 1.384 . S
N2980 C2976 1.427 . S
N2980 C2977 1.384 . S
N2981 C2973 1.427 . S
N2981 C2979 1.384 . S
H2982 C2988 0.930 . S
H2983 C2992 0.930 . S
H2984 C2997 0.929 . S
H2985 C2995 0.929 . S
H2986 C2990 0.929 . S
H2987 C2996 0.929 . S
C2988 H2982 0.930 . S
C2988 C2989 1.367 . S
C2988 C2996 1.378 . S
C2989 C2988 1.367 . S
C2989 C2997 1.433 . S
C2990 H2986 0.929 . S
C2990 C2992 1.378 . S
C2990 C2994 1.350 . S
C2991 C2994 1.463 . S
C2991 C2996 1.350 . S
C2991 N2999 1.427 . S
C2992 H2983 0.930 . S
C2992 C2990 1.378 . S
C2992 C2993 1.367 . S
C2993 C2992 1.367 . S
C2993 C2995 1.433 . S
C2994 C2990 1.350 . S
C2994 C2991 1.463 . S
C2994 N2998 1.427 . S
C2995 H2985 0.929 . S
C2995 C2993 1.433 . S
C2995 N2998 1.384 . S
C2996 H2987 0.929 . S
C2996 C2988 1.378 . S
C2996 C2991 1.350 . S
C2997 H2984 0.929 . S
C2997 C2989 1.433 . S
C2997 N2999 1.384 . S
N2998 C2994 1.427 . S
N2998 C2995 1.384 . S
N2999 C2991 1.427 . S
N2999 C2997 1.384 . S
H3000 C3006 0.930 . S
H3001 C3010 0.930 . S
H3002 C3015 0.929 . S
H3003 C3013 0.929 . S
H3004 C3008 0.929 . S
H3005 C3014 0.929 . S
C3006 H3000 0.930 . S
C3006 C3007 1.367 . S
C3006 C3014 1.378 . S
C3007 C3006 1.367 . S
C3007 C3015 1.433 . S
C3008 H3004 0.929 . S
C3008 C3010 1.378 . S
C3008 C3012 1.350 . S
C3009 C3012 1.463 . S
C3009 C3014 1.350 . S
C3009 N3017 1.427 . S
C3010 H3001 0.930 . S
C3010 C3008 1.378 . S
C3010 C3011 1.367 . S
C3011 C3010 1.367 . S
C3011 C3013 1.433 . S
C3012 C3008 1.350 . S
C3012 C3009 1.463 . S
C3012 N3016 1.427 . S
C3013 H3003 0.929 . S
C3013 C3011 1.433 . S
C3013 N3016 1.384 . S
C3014 H3005 0.929 . S
C3014 C3006 1.378 . S
C3014 C3009 1.350 . S
C3015 H3002 0.929 . S
C3015 C3007 1.433 . S
C3015 N3017 1.384 . S
N3016 C3012 1.427 . S
N3016 C3013 1.384 . S
N3017 C3009 1.427 . S
N3017 C3015 1.384 . S
H3018 C3024 0.930 . S
H3019 C3028 0.930 . S
H3020 C3033 0.929 . S
H3021 C3031 0.929 . S
H3022 C3026 0.929 . S
H3023 C3032 0.929 . S
C3024 H3018 0.930 . S
C3024 C3025 1.367 . S
C3024 C3032 1.378 . S
C3025 C3024 1.367 . S
C3025 C3033 1.433 . S
C3026 H3022 0.929 . S
C3026 C3028 1.378 . S
C3026 C3030 1.350 . S
C3027 C3030 1.463 . S
C3027 C3032 1.350 . S
C3027 N3035 1.427 . S
C3028 H3019 0.930 . S
C3028 C3026 1.378 . S
C3028 C3029 1.367 . S
C3029 C3028 1.367 . S
C3029 C3031 1.433 . S
C3030 C3026 1.350 . S
C3030 C3027 1.463 . S
C3030 N3034 1.427 . S
C3031 H3021 0.929 . S
C3031 C3029 1.433 . S
C3031 N3034 1.384 . S
C3032 H3023 0.929 . S
C3032 C3024 1.378 . S
C3032 C3027 1.350 . S
C3033 H3020 0.929 . S
C3033 C3025 1.433 . S
C3033 N3035 1.384 . S
N3034 C3030 1.427 . S
N3034 C3031 1.384 . S
N3035 C3027 1.427 . S
N3035 C3033 1.384 . S
H3036 C3042 0.930 . S
H3037 C3046 0.930 . S
H3038 C3051 0.929 . S
H3039 C3049 0.929 . S
H3040 C3044 0.929 . S
H3041 C3050 0.929 . S
C3042 H3036 0.930 . S
C3042 C3043 1.367 . S
C3042 C3050 1.378 . S
C3043 C3042 1.367 . S
C3043 C3051 1.433 . S
C3044 H3040 0.929 . S
C3044 C3046 1.378 . S
C3044 C3048 1.350 . S
C3045 C3048 1.463 . S
C3045 C3050 1.350 . S
C3045 N3053 1.427 . S
C3046 H3037 0.930 . S
C3046 C3044 1.378 . S
C3046 C3047 1.367 . S
C3047 C3046 1.367 . S
C3047 C3049 1.433 . S
C3048 C3044 1.350 . S
C3048 C3045 1.463 . S
C3048 N3052 1.427 . S
C3049 H3039 0.929 . S
C3049 C3047 1.433 . S
C3049 N3052 1.384 . S
C3050 H3041 0.929 . S
C3050 C3042 1.378 . S
C3050 C3045 1.350 . S
C3051 H3038 0.929 . S
C3051 C3043 1.433 . S
C3051 N3053 1.384 . S
N3052 C3048 1.427 . S
N3052 C3049 1.384 . S
N3053 C3045 1.427 . S
N3053 C3051 1.384 . S
H3054 C3060 0.930 . S
H3055 C3064 0.930 . S
H3056 C3069 0.929 . S
H3057 C3067 0.929 . S
H3058 C3062 0.929 . S
H3059 C3068 0.929 . S
C3060 H3054 0.930 . S
C3060 C3061 1.367 . S
C3060 C3068 1.378 . S
C3061 C3060 1.367 . S
C3061 C3069 1.433 . S
C3062 H3058 0.929 . S
C3062 C3064 1.378 . S
C3062 C3066 1.350 . S
C3063 C3066 1.463 . S
C3063 C3068 1.350 . S
C3063 N3071 1.427 . S
C3064 H3055 0.930 . S
C3064 C3062 1.378 . S
C3064 C3065 1.367 . S
C3065 C3064 1.367 . S
C3065 C3067 1.433 . S
C3066 C3062 1.350 . S
C3066 C3063 1.463 . S
C3066 N3070 1.427 . S
C3067 H3057 0.929 . S
C3067 C3065 1.433 . S
C3067 N3070 1.384 . S
C3068 H3059 0.929 . S
C3068 C3060 1.378 . S
C3068 C3063 1.350 . S
C3069 H3056 0.929 . S
C3069 C3061 1.433 . S
C3069 N3071 1.384 . S
N3070 C3066 1.427 . S
N3070 C3067 1.384 . S
N3071 C3063 1.427 . S
N3071 C3069 1.384 . S
H3072 C3078 0.930 . S
H3073 C3082 0.930 . S
H3074 C3087 0.929 . S
H3075 C3085 0.929 . S
H3076 C3080 0.929 . S
H3077 C3086 0.929 . S
C3078 H3072 0.930 . S
C3078 C3079 1.367 . S
C3078 C3086 1.378 . S
C3079 C3078 1.367 . S
C3079 C3087 1.433 . S
C3080 H3076 0.929 . S
C3080 C3082 1.378 . S
C3080 C3084 1.350 . S
C3081 C3084 1.463 . S
C3081 C3086 1.350 . S
C3081 N3089 1.427 . S
C3082 H3073 0.930 . S
C3082 C3080 1.378 . S
C3082 C3083 1.367 . S
C3083 C3082 1.367 . S
C3083 C3085 1.433 . S
C3084 C3080 1.350 . S
C3084 C3081 1.463 . S
C3084 N3088 1.427 . S
C3085 H3075 0.929 . S
C3085 C3083 1.433 . S
C3085 N3088 1.384 . S
C3086 H3077 0.929 . S
C3086 C3078 1.378 . S
C3086 C3081 1.350 . S
C3087 H3074 0.929 . S
C3087 C3079 1.433 . S
C3087 N3089 1.384 . S
N3088 C3084 1.427 . S
N3088 C3085 1.384 . S
N3089 C3081 1.427 . S
N3089 C3087 1.384 . S
H3090 C3096 0.930 . S
H3091 C3100 0.930 . S
H3092 C3105 0.929 . S
H3093 C3103 0.929 . S
H3094 C3098 0.929 . S
H3095 C3104 0.929 . S
C3096 H3090 0.930 . S
C3096 C3097 1.367 . S
C3096 C3104 1.378 . S
C3097 C3096 1.367 . S
C3097 C3105 1.433 . S
C3098 H3094 0.929 . S
C3098 C3100 1.378 . S
C3098 C3102 1.350 . S
C3099 C3102 1.463 . S
C3099 C3104 1.350 . S
C3099 N3107 1.427 . S
C3100 H3091 0.930 . S
C3100 C3098 1.378 . S
C3100 C3101 1.367 . S
C3101 C3100 1.367 . S
C3101 C3103 1.433 . S
C3102 C3098 1.350 . S
C3102 C3099 1.463 . S
C3102 N3106 1.427 . S
C3103 H3093 0.929 . S
C3103 C3101 1.433 . S
C3103 N3106 1.384 . S
C3104 H3095 0.929 . S
C3104 C3096 1.378 . S
C3104 C3099 1.350 . S
C3105 H3092 0.929 . S
C3105 C3097 1.433 . S
C3105 N3107 1.384 . S
N3106 C3102 1.427 . S
N3106 C3103 1.384 . S
N3107 C3099 1.427 . S
N3107 C3105 1.384 . S
H3108 C3114 0.930 . S
H3109 C3118 0.930 . S
H3110 C3123 0.929 . S
H3111 C3121 0.929 . S
H3112 C3116 0.929 . S
H3113 C3122 0.929 . S
C3114 H3108 0.930 . S
C3114 C3115 1.367 . S
C3114 C3122 1.378 . S
C3115 C3114 1.367 . S
C3115 C3123 1.433 . S
C3116 H3112 0.929 . S
C3116 C3118 1.378 . S
C3116 C3120 1.350 . S
C3117 C3120 1.463 . S
C3117 C3122 1.350 . S
C3117 N3125 1.427 . S
C3118 H3109 0.930 . S
C3118 C3116 1.378 . S
C3118 C3119 1.367 . S
C3119 C3118 1.367 . S
C3119 C3121 1.433 . S
C3120 C3116 1.350 . S
C3120 C3117 1.463 . S
C3120 N3124 1.427 . S
C3121 H3111 0.929 . S
C3121 C3119 1.433 . S
C3121 N3124 1.384 . S
C3122 H3113 0.929 . S
C3122 C3114 1.378 . S
C3122 C3117 1.350 . S
C3123 H3110 0.929 . S
C3123 C3115 1.433 . S
C3123 N3125 1.384 . S
N3124 C3120 1.427 . S
N3124 C3121 1.384 . S
N3125 C3117 1.427 . S
N3125 C3123 1.384 . S
H3126 C3132 0.930 . S
H3127 C3136 0.930 . S
H3128 C3141 0.929 . S
H3129 C3139 0.929 . S
H3130 C3134 0.929 . S
H3131 C3140 0.929 . S
C3132 H3126 0.930 . S
C3132 C3133 1.367 . S
C3132 C3140 1.378 . S
C3133 C3132 1.367 . S
C3133 C3141 1.433 . S
C3134 H3130 0.929 . S
C3134 C3136 1.378 . S
C3134 C3138 1.350 . S
C3135 C3138 1.463 . S
C3135 C3140 1.350 . S
C3135 N3143 1.427 . S
C3136 H3127 0.930 . S
C3136 C3134 1.378 . S
C3136 C3137 1.367 . S
C3137 C3136 1.367 . S
C3137 C3139 1.433 . S
C3138 C3134 1.350 . S
C3138 C3135 1.463 . S
C3138 N3142 1.427 . S
C3139 H3129 0.929 . S
C3139 C3137 1.433 . S
C3139 N3142 1.384 . S
C3140 H3131 0.929 . S
C3140 C3132 1.378 . S
C3140 C3135 1.350 . S
C3141 H3128 0.929 . S
C3141 C3133 1.433 . S
C3141 N3143 1.384 . S
N3142 C3138 1.427 . S
N3142 C3139 1.384 . S
N3143 C3135 1.427 . S
N3143 C3141 1.384 . S
H3144 C3150 0.930 . S
H3145 C3154 0.930 . S
H3146 C3159 0.929 . S
H3147 C3157 0.929 . S
H3148 C3152 0.929 . S
H3149 C3158 0.929 . S
C3150 H3144 0.930 . S
C3150 C3151 1.367 . S
C3150 C3158 1.378 . S
C3151 C3150 1.367 . S
C3151 C3159 1.433 . S
C3152 H3148 0.929 . S
C3152 C3154 1.378 . S
C3152 C3156 1.350 . S
C3153 C3156 1.463 . S
C3153 C3158 1.350 . S
C3153 N3161 1.427 . S
C3154 H3145 0.930 . S
C3154 C3152 1.378 . S
C3154 C3155 1.367 . S
C3155 C3154 1.367 . S
C3155 C3157 1.433 . S
C3156 C3152 1.350 . S
C3156 C3153 1.463 . S
C3156 N3160 1.427 . S
C3157 H3147 0.929 . S
C3157 C3155 1.433 . S
C3157 N3160 1.384 . S
C3158 H3149 0.929 . S
C3158 C3150 1.378 . S
C3158 C3153 1.350 . S
C3159 H3146 0.929 . S
C3159 C3151 1.433 . S
C3159 N3161 1.384 . S
N3160 C3156 1.427 . S
N3160 C3157 1.384 . S
N3161 C3153 1.427 . S
N3161 C3159 1.384 . S
H3162 C3168 0.930 . S
H3163 C3172 0.930 . S
H3164 C3177 0.929 . S
H3165 C3175 0.929 . S
H3166 C3170 0.929 . S
H3167 C3176 0.929 . S
C3168 H3162 0.930 . S
C3168 C3169 1.367 . S
C3168 C3176 1.378 . S
C3169 C3168 1.367 . S
C3169 C3177 1.433 . S
C3170 H3166 0.929 . S
C3170 C3172 1.378 . S
C3170 C3174 1.350 . S
C3171 C3174 1.463 . S
C3171 C3176 1.350 . S
C3171 N3179 1.427 . S
C3172 H3163 0.930 . S
C3172 C3170 1.378 . S
C3172 C3173 1.367 . S
C3173 C3172 1.367 . S
C3173 C3175 1.433 . S
C3174 C3170 1.350 . S
C3174 C3171 1.463 . S
C3174 N3178 1.427 . S
C3175 H3165 0.929 . S
C3175 C3173 1.433 . S
C3175 N3178 1.384 . S
C3176 H3167 0.929 . S
C3176 C3168 1.378 . S
C3176 C3171 1.350 . S
C3177 H3164 0.929 . S
C3177 C3169 1.433 . S
C3177 N3179 1.384 . S
N3178 C3174 1.427 . S
N3178 C3175 1.384 . S
N3179 C3171 1.427 . S
N3179 C3177 1.384 . S
H3180 C3186 0.930 . S
H3181 C3190 0.930 . S
H3182 C3195 0.929 . S
H3183 C3193 0.929 . S
H3184 C3188 0.929 . S
H3185 C3194 0.929 . S
C3186 H3180 0.930 . S
C3186 C3187 1.367 . S
C3186 C3194 1.378 . S
C3187 C3186 1.367 . S
C3187 C3195 1.433 . S
C3188 H3184 0.929 . S
C3188 C3190 1.378 . S
C3188 C3192 1.350 . S
C3189 C3192 1.463 . S
C3189 C3194 1.350 . S
C3189 N3197 1.427 . S
C3190 H3181 0.930 . S
C3190 C3188 1.378 . S
C3190 C3191 1.367 . S
C3191 C3190 1.367 . S
C3191 C3193 1.433 . S
C3192 C3188 1.350 . S
C3192 C3189 1.463 . S
C3192 N3196 1.427 . S
C3193 H3183 0.929 . S
C3193 C3191 1.433 . S
C3193 N3196 1.384 . S
C3194 H3185 0.929 . S
C3194 C3186 1.378 . S
C3194 C3189 1.350 . S
C3195 H3182 0.929 . S
C3195 C3187 1.433 . S
C3195 N3197 1.384 . S
N3196 C3192 1.427 . S
N3196 C3193 1.384 . S
N3197 C3189 1.427 . S
N3197 C3195 1.384 . S
H3198 C3204 0.930 . S
H3199 C3208 0.930 . S
H3200 C3213 0.929 . S
H3201 C3211 0.929 . S
H3202 C3206 0.929 . S
H3203 C3212 0.929 . S
C3204 H3198 0.930 . S
C3204 C3205 1.367 . S
C3204 C3212 1.378 . S
C3205 C3204 1.367 . S
C3205 C3213 1.433 . S
C3206 H3202 0.929 . S
C3206 C3208 1.378 . S
C3206 C3210 1.350 . S
C3207 C3210 1.463 . S
C3207 C3212 1.350 . S
C3207 N3215 1.427 . S
C3208 H3199 0.930 . S
C3208 C3206 1.378 . S
C3208 C3209 1.367 . S
C3209 C3208 1.367 . S
C3209 C3211 1.433 . S
C3210 C3206 1.350 . S
C3210 C3207 1.463 . S
C3210 N3214 1.427 . S
C3211 H3201 0.929 . S
C3211 C3209 1.433 . S
C3211 N3214 1.384 . S
C3212 H3203 0.929 . S
C3212 C3204 1.378 . S
C3212 C3207 1.350 . S
C3213 H3200 0.929 . S
C3213 C3205 1.433 . S
C3213 N3215 1.384 . S
N3214 C3210 1.427 . S
N3214 C3211 1.384 . S
N3215 C3207 1.427 . S
N3215 C3213 1.384 . S
H3216 C3222 0.930 . S
H3217 C3226 0.930 . S
H3218 C3231 0.929 . S
H3219 C3229 0.929 . S
H3220 C3224 0.929 . S
H3221 C3230 0.929 . S
C3222 H3216 0.930 . S
C3222 C3223 1.367 . S
C3222 C3230 1.378 . S
C3223 C3222 1.367 . S
C3223 C3231 1.433 . S
C3224 H3220 0.929 . S
C3224 C3226 1.378 . S
C3224 C3228 1.350 . S
C3225 C3228 1.463 . S
C3225 C3230 1.350 . S
C3225 N3233 1.427 . S
C3226 H3217 0.930 . S
C3226 C3224 1.378 . S
C3226 C3227 1.367 . S
C3227 C3226 1.367 . S
C3227 C3229 1.433 . S
C3228 C3224 1.350 . S
C3228 C3225 1.463 . S
C3228 N3232 1.427 . S
C3229 H3219 0.929 . S
C3229 C3227 1.433 . S
C3229 N3232 1.384 . S
C3230 H3221 0.929 . S
C3230 C3222 1.378 . S
C3230 C3225 1.350 . S
C3231 H3218 0.929 . S
C3231 C3223 1.433 . S
C3231 N3233 1.384 . S
N3232 C3228 1.427 . S
N3232 C3229 1.384 . S
N3233 C3225 1.427 . S
N3233 C3231 1.384 . S
H3234 C3240 0.930 . S
H3235 C3244 0.930 . S
H3236 C3249 0.929 . S
H3237 C3247 0.929 . S
H3238 C3242 0.929 . S
H3239 C3248 0.929 . S
C3240 H3234 0.930 . S
C3240 C3241 1.367 . S
C3240 C3248 1.378 . S
C3241 C3240 1.367 . S
C3241 C3249 1.433 . S
C3242 H3238 0.929 . S
C3242 C3244 1.378 . S
C3242 C3246 1.350 . S
C3243 C3246 1.463 . S
C3243 C3248 1.350 . S
C3243 N3251 1.427 . S
C3244 H3235 0.930 . S
C3244 C3242 1.378 . S
C3244 C3245 1.367 . S
C3245 C3244 1.367 . S
C3245 C3247 1.433 . S
C3246 C3242 1.350 . S
C3246 C3243 1.463 . S
C3246 N3250 1.427 . S
C3247 H3237 0.929 . S
C3247 C3245 1.433 . S
C3247 N3250 1.384 . S
C3248 H3239 0.929 . S
C3248 C3240 1.378 . S
C3248 C3243 1.350 . S
C3249 H3236 0.929 . S
C3249 C3241 1.433 . S
C3249 N3251 1.384 . S
N3250 C3246 1.427 . S
N3250 C3247 1.384 . S
N3251 C3243 1.427 . S
N3251 C3249 1.384 . S
H3252 C3258 0.930 . S
H3253 C3262 0.930 . S
H3254 C3267 0.929 . S
H3255 C3265 0.929 . S
H3256 C3260 0.929 . S
H3257 C3266 0.929 . S
C3258 H3252 0.930 . S
C3258 C3259 1.367 . S
C3258 C3266 1.378 . S
C3259 C3258 1.367 . S
C3259 C3267 1.433 . S
C3260 H3256 0.929 . S
C3260 C3262 1.378 . S
C3260 C3264 1.350 . S
C3261 C3264 1.463 . S
C3261 C3266 1.350 . S
C3261 N3269 1.427 . S
C3262 H3253 0.930 . S
C3262 C3260 1.378 . S
C3262 C3263 1.367 . S
C3263 C3262 1.367 . S
C3263 C3265 1.433 . S
C3264 C3260 1.350 . S
C3264 C3261 1.463 . S
C3264 N3268 1.427 . S
C3265 H3255 0.929 . S
C3265 C3263 1.433 . S
C3265 N3268 1.384 . S
C3266 H3257 0.929 . S
C3266 C3258 1.378 . S
C3266 C3261 1.350 . S
C3267 H3254 0.929 . S
C3267 C3259 1.433 . S
C3267 N3269 1.384 . S
N3268 C3264 1.427 . S
N3268 C3265 1.384 . S
N3269 C3261 1.427 . S
N3269 C3267 1.384 . S
H3270 C3276 0.930 . S
H3271 C3280 0.930 . S
H3272 C3285 0.929 . S
H3273 C3283 0.929 . S
H3274 C3278 0.929 . S
H3275 C3284 0.929 . S
C3276 H3270 0.930 . S
C3276 C3277 1.367 . S
C3276 C3284 1.378 . S
C3277 C3276 1.367 . S
C3277 C3285 1.433 . S
C3278 H3274 0.929 . S
C3278 C3280 1.378 . S
C3278 C3282 1.350 . S
C3279 C3282 1.463 . S
C3279 C3284 1.350 . S
C3279 N3287 1.427 . S
C3280 H3271 0.930 . S
C3280 C3278 1.378 . S
C3280 C3281 1.367 . S
C3281 C3280 1.367 . S
C3281 C3283 1.433 . S
C3282 C3278 1.350 . S
C3282 C3279 1.463 . S
C3282 N3286 1.427 . S
C3283 H3273 0.929 . S
C3283 C3281 1.433 . S
C3283 N3286 1.384 . S
C3284 H3275 0.929 . S
C3284 C3276 1.378 . S
C3284 C3279 1.350 . S
C3285 H3272 0.929 . S
C3285 C3277 1.433 . S
C3285 N3287 1.384 . S
N3286 C3282 1.427 . S
N3286 C3283 1.384 . S
N3287 C3279 1.427 . S
N3287 C3285 1.384 . S
H3288 C3294 0.930 . S
H3289 C3298 0.930 . S
H3290 C3303 0.929 . S
H3291 C3301 0.929 . S
H3292 C3296 0.929 . S
H3293 C3302 0.929 . S
C3294 H3288 0.930 . S
C3294 C3295 1.367 . S
C3294 C3302 1.378 . S
C3295 C3294 1.367 . S
C3295 C3303 1.433 . S
C3296 H3292 0.929 . S
C3296 C3298 1.378 . S
C3296 C3300 1.350 . S
C3297 C3300 1.463 . S
C3297 C3302 1.350 . S
C3297 N3305 1.427 . S
C3298 H3289 0.930 . S
C3298 C3296 1.378 . S
C3298 C3299 1.367 . S
C3299 C3298 1.367 . S
C3299 C3301 1.433 . S
C3300 C3296 1.350 . S
C3300 C3297 1.463 . S
C3300 N3304 1.427 . S
C3301 H3291 0.929 . S
C3301 C3299 1.433 . S
C3301 N3304 1.384 . S
C3302 H3293 0.929 . S
C3302 C3294 1.378 . S
C3302 C3297 1.350 . S
C3303 H3290 0.929 . S
C3303 C3295 1.433 . S
C3303 N3305 1.384 . S
N3304 C3300 1.427 . S
N3304 C3301 1.384 . S
N3305 C3297 1.427 . S
N3305 C3303 1.384 . S
H3306 C3312 0.930 . S
H3307 C3316 0.930 . S
H3308 C3321 0.929 . S
H3309 C3319 0.929 . S
H3310 C3314 0.929 . S
H3311 C3320 0.929 . S
C3312 H3306 0.930 . S
C3312 C3313 1.367 . S
C3312 C3320 1.378 . S
C3313 C3312 1.367 . S
C3313 C3321 1.433 . S
C3314 H3310 0.929 . S
C3314 C3316 1.378 . S
C3314 C3318 1.350 . S
C3315 C3318 1.463 . S
C3315 C3320 1.350 . S
C3315 N3323 1.427 . S
C3316 H3307 0.930 . S
C3316 C3314 1.378 . S
C3316 C3317 1.367 . S
C3317 C3316 1.367 . S
C3317 C3319 1.433 . S
C3318 C3314 1.350 . S
C3318 C3315 1.463 . S
C3318 N3322 1.427 . S
C3319 H3309 0.929 . S
C3319 C3317 1.433 . S
C3319 N3322 1.384 . S
C3320 H3311 0.929 . S
C3320 C3312 1.378 . S
C3320 C3315 1.350 . S
C3321 H3308 0.929 . S
C3321 C3313 1.433 . S
C3321 N3323 1.384 . S
N3322 C3318 1.427 . S
N3322 C3319 1.384 . S
N3323 C3315 1.427 . S
N3323 C3321 1.384 . S
H3324 C3330 0.930 . S
H3325 C3334 0.930 . S
H3326 C3339 0.929 . S
H3327 C3337 0.929 . S
H3328 C3332 0.929 . S
H3329 C3338 0.929 . S
C3330 H3324 0.930 . S
C3330 C3331 1.367 . S
C3330 C3338 1.378 . S
C3331 C3330 1.367 . S
C3331 C3339 1.433 . S
C3332 H3328 0.929 . S
C3332 C3334 1.378 . S
C3332 C3336 1.350 . S
C3333 C3336 1.463 . S
C3333 C3338 1.350 . S
C3333 N3341 1.427 . S
C3334 H3325 0.930 . S
C3334 C3332 1.378 . S
C3334 C3335 1.367 . S
C3335 C3334 1.367 . S
C3335 C3337 1.433 . S
C3336 C3332 1.350 . S
C3336 C3333 1.463 . S
C3336 N3340 1.427 . S
C3337 H3327 0.929 . S
C3337 C3335 1.433 . S
C3337 N3340 1.384 . S
C3338 H3329 0.929 . S
C3338 C3330 1.378 . S
C3338 C3333 1.350 . S
C3339 H3326 0.929 . S
C3339 C3331 1.433 . S
C3339 N3341 1.384 . S
N3340 C3336 1.427 . S
N3340 C3337 1.384 . S
N3341 C3333 1.427 . S
N3341 C3339 1.384 . S
H3342 C3348 0.930 . S
H3343 C3352 0.930 . S
H3344 C3357 0.929 . S
H3345 C3355 0.929 . S
H3346 C3350 0.929 . S
H3347 C3356 0.929 . S
C3348 H3342 0.930 . S
C3348 C3349 1.367 . S
C3348 C3356 1.378 . S
C3349 C3348 1.367 . S
C3349 C3357 1.433 . S
C3350 H3346 0.929 . S
C3350 C3352 1.378 . S
C3350 C3354 1.350 . S
C3351 C3354 1.463 . S
C3351 C3356 1.350 . S
C3351 N3359 1.427 . S
C3352 H3343 0.930 . S
C3352 C3350 1.378 . S
C3352 C3353 1.367 . S
C3353 C3352 1.367 . S
C3353 C3355 1.433 . S
C3354 C3350 1.350 . S
C3354 C3351 1.463 . S
C3354 N3358 1.427 . S
C3355 H3345 0.929 . S
C3355 C3353 1.433 . S
C3355 N3358 1.384 . S
C3356 H3347 0.929 . S
C3356 C3348 1.378 . S
C3356 C3351 1.350 . S
C3357 H3344 0.929 . S
C3357 C3349 1.433 . S
C3357 N3359 1.384 . S
N3358 C3354 1.427 . S
N3358 C3355 1.384 . S
N3359 C3351 1.427 . S
N3359 C3357 1.384 . S
H3360 C3366 0.930 . S
H3361 C3370 0.930 . S
H3362 C3375 0.929 . S
H3363 C3373 0.929 . S
H3364 C3368 0.929 . S
H3365 C3374 0.929 . S
C3366 H3360 0.930 . S
C3366 C3367 1.367 . S
C3366 C3374 1.378 . S
C3367 C3366 1.367 . S
C3367 C3375 1.433 . S
C3368 H3364 0.929 . S
C3368 C3370 1.378 . S
C3368 C3372 1.350 . S
C3369 C3372 1.463 1_655 S
C3369 C3374 1.350 . S
C3369 N3377 1.427 . S
C3370 H3361 0.930 . S
C3370 C3368 1.378 . S
C3370 C3371 1.367 . S
C3371 C3370 1.367 . S
C3371 C3373 1.433 . S
C3372 C3368 1.350 . S
C3372 C3369 1.463 1_455 S
C3372 N3376 1.427 . S
C3373 H3363 0.929 . S
C3373 C3371 1.433 . S
C3373 N3376 1.384 . S
C3374 H3365 0.929 . S
C3374 C3366 1.378 . S
C3374 C3369 1.350 . S
C3375 H3362 0.929 . S
C3375 C3367 1.433 . S
C3375 N3377 1.384 . S
N3376 C3372 1.427 . S
N3376 C3373 1.384 . S
N3377 C3369 1.427 . S
N3377 C3375 1.384 . S
H3378 C3384 0.930 . S
H3379 C3388 0.930 . S
H3380 C3393 0.929 . S
H3381 C3391 0.929 . S
H3382 C3386 0.929 . S
H3383 C3392 0.929 . S
C3384 H3378 0.930 . S
C3384 C3385 1.367 . S
C3384 C3392 1.378 . S
C3385 C3384 1.367 . S
C3385 C3393 1.433 . S
C3386 H3382 0.929 . S
C3386 C3388 1.378 . S
C3386 C3390 1.350 . S
C3387 C3390 1.463 1_455 S
C3387 C3392 1.350 . S
C3387 N3395 1.427 . S
C3388 H3379 0.930 . S
C3388 C3386 1.378 . S
C3388 C3389 1.367 . S
C3389 C3388 1.367 . S
C3389 C3391 1.433 . S
C3390 C3386 1.350 . S
C3390 C3387 1.463 1_655 S
C3390 N3394 1.427 . S
C3391 H3381 0.929 . S
C3391 C3389 1.433 . S
C3391 N3394 1.384 . S
C3392 H3383 0.929 . S
C3392 C3384 1.378 . S
C3392 C3387 1.350 . S
C3393 H3380 0.929 . S
C3393 C3385 1.433 . S
C3393 N3395 1.384 . S
N3394 C3390 1.427 . S
N3394 C3391 1.384 . S
N3395 C3387 1.427 . S
N3395 C3393 1.384 . S
H3396 C3402 0.930 . S
H3397 C3406 0.930 . S
H3398 C3411 0.929 . S
H3399 C3409 0.929 . S
H3400 C3404 0.929 . S
H3401 C3410 0.929 . S
C3402 H3396 0.930 . S
C3402 C3403 1.367 . S
C3402 C3410 1.378 . S
C3403 C3402 1.367 . S
C3403 C3411 1.433 . S
C3404 H3400 0.929 . S
C3404 C3406 1.378 . S
C3404 C3408 1.350 . S
C3405 C3408 1.463 . S
C3405 C3410 1.350 . S
C3405 N3413 1.427 . S
C3406 H3397 0.930 . S
C3406 C3404 1.378 . S
C3406 C3407 1.367 . S
C3407 C3406 1.367 . S
C3407 C3409 1.433 . S
C3408 C3404 1.350 . S
C3408 C3405 1.463 . S
C3408 N3412 1.427 . S
C3409 H3399 0.929 . S
C3409 C3407 1.433 . S
C3409 N3412 1.384 . S
C3410 H3401 0.929 . S
C3410 C3402 1.378 . S
C3410 C3405 1.350 . S
C3411 H3398 0.929 . S
C3411 C3403 1.433 . S
C3411 N3413 1.384 . S
N3412 C3408 1.427 . S
N3412 C3409 1.384 . S
N3413 C3405 1.427 . S
N3413 C3411 1.384 . S
H3414 C3420 0.930 . S
H3415 C3424 0.930 . S
H3416 C3429 0.929 . S
H3417 C3427 0.929 . S
H3418 C3422 0.929 . S
H3419 C3428 0.929 . S
C3420 H3414 0.930 . S
C3420 C3421 1.367 . S
C3420 C3428 1.378 . S
C3421 C3420 1.367 . S
C3421 C3429 1.433 . S
C3422 H3418 0.929 . S
C3422 C3424 1.378 . S
C3422 C3426 1.350 . S
C3423 C3426 1.463 . S
C3423 C3428 1.350 . S
C3423 N3431 1.427 . S
C3424 H3415 0.930 . S
C3424 C3422 1.378 . S
C3424 C3425 1.367 . S
C3425 C3424 1.367 . S
C3425 C3427 1.433 . S
C3426 C3422 1.350 . S
C3426 C3423 1.463 . S
C3426 N3430 1.427 . S
C3427 H3417 0.929 . S
C3427 C3425 1.433 . S
C3427 N3430 1.384 . S
C3428 H3419 0.929 . S
C3428 C3420 1.378 . S
C3428 C3423 1.350 . S
C3429 H3416 0.929 . S
C3429 C3421 1.433 . S
C3429 N3431 1.384 . S
N3430 C3426 1.427 . S
N3430 C3427 1.384 . S
N3431 C3423 1.427 . S
N3431 C3429 1.384 . S
H3432 C3438 0.930 . S
H3433 C3442 0.930 . S
H3434 C3447 0.929 . S
H3435 C3445 0.929 . S
H3436 C3440 0.929 . S
H3437 C3446 0.929 . S
C3438 H3432 0.930 . S
C3438 C3439 1.367 . S
C3438 C3446 1.378 . S
C3439 C3438 1.367 . S
C3439 C3447 1.433 . S
C3440 H3436 0.929 . S
C3440 C3442 1.378 . S
C3440 C3444 1.350 . S
C3441 C3444 1.463 1_655 S
C3441 C3446 1.350 . S
C3441 N3449 1.427 . S
C3442 H3433 0.930 . S
C3442 C3440 1.378 . S
C3442 C3443 1.367 . S
C3443 C3442 1.367 . S
C3443 C3445 1.433 . S
C3444 C3440 1.350 . S
C3444 C3441 1.463 1_455 S
C3444 N3448 1.427 . S
C3445 H3435 0.929 . S
C3445 C3443 1.433 . S
C3445 N3448 1.384 . S
C3446 H3437 0.929 . S
C3446 C3438 1.378 . S
C3446 C3441 1.350 . S
C3447 H3434 0.929 . S
C3447 C3439 1.433 . S
C3447 N3449 1.384 . S
N3448 C3444 1.427 . S
N3448 C3445 1.384 . S
N3449 C3441 1.427 . S
N3449 C3447 1.384 . S
H3450 C3456 0.930 . S
H3451 C3460 0.930 . S
H3452 C3465 0.929 . S
H3453 C3463 0.929 . S
H3454 C3458 0.929 . S
H3455 C3464 0.929 . S
C3456 H3450 0.930 . S
C3456 C3457 1.367 . S
C3456 C3464 1.378 . S
C3457 C3456 1.367 . S
C3457 C3465 1.433 . S
C3458 H3454 0.929 . S
C3458 C3460 1.378 . S
C3458 C3462 1.350 . S
C3459 C3462 1.463 . S
C3459 C3464 1.350 . S
C3459 N3467 1.427 . S
C3460 H3451 0.930 . S
C3460 C3458 1.378 . S
C3460 C3461 1.367 . S
C3461 C3460 1.367 . S
C3461 C3463 1.433 . S
C3462 C3458 1.350 . S
C3462 C3459 1.463 . S
C3462 N3466 1.427 . S
C3463 H3453 0.929 . S
C3463 C3461 1.433 . S
C3463 N3466 1.384 . S
C3464 H3455 0.929 . S
C3464 C3456 1.378 . S
C3464 C3459 1.350 . S
C3465 H3452 0.929 . S
C3465 C3457 1.433 . S
C3465 N3467 1.384 . S
N3466 C3462 1.427 . S
N3466 C3463 1.384 . S
N3467 C3459 1.427 . S
N3467 C3465 1.384 . S
H3468 C3474 0.930 . S
H3469 C3478 0.930 . S
H3470 C3483 0.929 . S
H3471 C3481 0.929 . S
H3472 C3476 0.929 . S
H3473 C3482 0.929 . S
C3474 H3468 0.930 . S
C3474 C3475 1.367 . S
C3474 C3482 1.378 . S
C3475 C3474 1.367 . S
C3475 C3483 1.433 . S
C3476 H3472 0.929 . S
C3476 C3478 1.378 . S
C3476 C3480 1.350 . S
C3477 C3480 1.463 . S
C3477 C3482 1.350 . S
C3477 N3485 1.427 . S
C3478 H3469 0.930 . S
C3478 C3476 1.378 . S
C3478 C3479 1.367 . S
C3479 C3478 1.367 . S
C3479 C3481 1.433 . S
C3480 C3476 1.350 . S
C3480 C3477 1.463 . S
C3480 N3484 1.427 . S
C3481 H3471 0.929 . S
C3481 C3479 1.433 . S
C3481 N3484 1.384 . S
C3482 H3473 0.929 . S
C3482 C3474 1.378 . S
C3482 C3477 1.350 . S
C3483 H3470 0.929 . S
C3483 C3475 1.433 . S
C3483 N3485 1.384 . S
N3484 C3480 1.427 . S
N3484 C3481 1.384 . S
N3485 C3477 1.427 . S
N3485 C3483 1.384 . S
H3486 C3492 0.930 . S
H3487 C3496 0.930 . S
H3488 C3501 0.929 . S
H3489 C3499 0.929 . S
H3490 C3494 0.929 . S
H3491 C3500 0.929 . S
C3492 H3486 0.930 . S
C3492 C3493 1.367 . S
C3492 C3500 1.378 . S
C3493 C3492 1.367 . S
C3493 C3501 1.433 . S
C3494 H3490 0.929 . S
C3494 C3496 1.378 . S
C3494 C3498 1.350 . S
C3495 C3498 1.463 1_455 S
C3495 C3500 1.350 . S
C3495 N3503 1.416 1_455 S
C3496 H3487 0.930 . S
C3496 C3494 1.378 . S
C3496 C3497 1.367 . S
C3497 C3496 1.367 . S
C3497 C3499 1.433 . S
C3498 C3494 1.350 . S
C3498 C3495 1.463 1_655 S
C3498 N3502 1.416 1_655 S
C3499 H3489 0.929 . S
C3499 C3497 1.433 . S
C3499 N3502 1.366 1_655 S
C3500 H3491 0.929 . S
C3500 C3492 1.378 . S
C3500 C3495 1.350 . S
C3501 H3488 0.929 . S
C3501 C3493 1.433 . S
C3501 N3503 1.366 1_455 S
N3502 C3498 1.416 1_455 S
N3502 C3499 1.366 1_455 S
N3503 C3495 1.416 1_655 S
N3503 C3501 1.366 1_655 S
H3504 C3510 0.930 . S
H3505 C3514 0.930 . S
H3506 C3519 0.929 . S
H3507 C3517 0.929 . S
H3508 C3512 0.929 . S
H3509 C3518 0.929 . S
C3510 H3504 0.930 . S
C3510 C3511 1.367 . S
C3510 C3518 1.378 . S
C3511 C3510 1.367 . S
C3511 C3519 1.433 . S
C3512 H3508 0.929 . S
C3512 C3514 1.378 . S
C3512 C3516 1.350 . S
C3513 C3516 1.463 1_545 S
C3513 C3518 1.350 . S
C3513 N3521 1.427 . S
C3514 H3505 0.930 . S
C3514 C3512 1.378 . S
C3514 C3515 1.367 . S
C3515 C3514 1.367 . S
C3515 C3517 1.433 . S
C3516 C3512 1.350 . S
C3516 C3513 1.463 1_565 S
C3516 N3520 1.427 . S
C3517 H3507 0.929 . S
C3517 C3515 1.433 . S
C3517 N3520 1.384 . S
C3518 H3509 0.929 . S
C3518 C3510 1.378 . S
C3518 C3513 1.350 . S
C3519 H3506 0.929 . S
C3519 C3511 1.433 . S
C3519 N3521 1.384 . S
N3520 C3516 1.427 . S
N3520 C3517 1.384 . S
N3521 C3513 1.427 . S
N3521 C3519 1.384 . S
H3522 C3528 0.930 . S
H3523 C3532 0.930 . S
H3524 C3537 0.929 . S
H3525 C3535 0.929 . S
H3526 C3530 0.929 . S
H3527 C3536 0.929 . S
C3528 H3522 0.930 . S
C3528 C3529 1.367 . S
C3528 C3536 1.378 . S
C3529 C3528 1.367 . S
C3529 C3537 1.433 . S
C3530 H3526 0.929 . S
C3530 C3532 1.378 . S
C3530 C3534 1.350 . S
C3531 C3534 1.463 . S
C3531 C3536 1.350 . S
C3531 N3539 1.427 . S
C3532 H3523 0.930 . S
C3532 C3530 1.378 . S
C3532 C3533 1.367 . S
C3533 C3532 1.367 . S
C3533 C3535 1.433 . S
C3534 C3530 1.350 . S
C3534 C3531 1.463 . S
C3534 N3538 1.427 . S
C3535 H3525 0.929 . S
C3535 C3533 1.433 . S
C3535 N3538 1.384 . S
C3536 H3527 0.929 . S
C3536 C3528 1.378 . S
C3536 C3531 1.350 . S
C3537 H3524 0.929 . S
C3537 C3529 1.433 . S
C3537 N3539 1.384 . S
N3538 C3534 1.427 . S
N3538 C3535 1.384 . S
N3539 C3531 1.427 . S
N3539 C3537 1.384 . S
H3540 C3546 0.930 . S
H3541 C3550 0.930 . S
H3542 C3555 0.929 . S
H3543 C3553 0.929 . S
H3544 C3548 0.929 . S
H3545 C3554 0.929 . S
C3546 H3540 0.930 . S
C3546 C3547 1.367 . S
C3546 C3554 1.378 . S
C3547 C3546 1.367 . S
C3547 C3555 1.433 . S
C3548 H3544 0.929 . S
C3548 C3550 1.378 . S
C3548 C3552 1.350 . S
C3549 C3552 1.463 1_565 S
C3549 C3554 1.350 . S
C3549 N3557 1.427 . S
C3550 H3541 0.930 . S
C3550 C3548 1.378 . S
C3550 C3551 1.367 . S
C3551 C3550 1.367 . S
C3551 C3553 1.433 . S
C3552 C3548 1.350 . S
C3552 C3549 1.463 1_545 S
C3552 N3556 1.427 . S
C3553 H3543 0.929 . S
C3553 C3551 1.433 . S
C3553 N3556 1.384 . S
C3554 H3545 0.929 . S
C3554 C3546 1.378 . S
C3554 C3549 1.350 . S
C3555 H3542 0.929 . S
C3555 C3547 1.433 . S
C3555 N3557 1.384 . S
N3556 C3552 1.427 . S
N3556 C3553 1.384 . S
N3557 C3549 1.427 . S
N3557 C3555 1.384 . S
H3558 C3564 0.930 . S
H3559 C3568 0.930 . S
H3560 C3573 0.929 . S
H3561 C3571 0.929 . S
H3562 C3566 0.929 . S
H3563 C3572 0.929 . S
C3564 H3558 0.930 . S
C3564 C3565 1.367 . S
C3564 C3572 1.378 . S
C3565 C3564 1.367 . S
C3565 C3573 1.433 . S
C3566 H3562 0.929 . S
C3566 C3568 1.378 . S
C3566 C3570 1.350 . S
C3567 C3570 1.463 1_556 S
C3567 C3572 1.350 . S
C3567 N3575 1.420 1_556 S
C3568 H3559 0.930 . S
C3568 C3566 1.378 . S
C3568 C3569 1.367 . S
C3569 C3568 1.367 . S
C3569 C3571 1.433 . S
C3570 C3566 1.350 . S
C3570 C3567 1.463 1_554 S
C3570 N3574 1.420 1_554 S
C3571 H3561 0.929 . S
C3571 C3569 1.433 . S
C3571 N3574 1.372 1_554 S
C3572 H3563 0.929 . S
C3572 C3564 1.378 . S
C3572 C3567 1.350 . S
C3573 H3560 0.929 . S
C3573 C3565 1.433 . S
C3573 N3575 1.372 1_556 S
N3574 C3570 1.420 1_556 S
N3574 C3571 1.372 1_556 S
N3575 C3567 1.420 1_554 S
N3575 C3573 1.372 1_554 S
H3576 C3582 0.930 . S
H3577 C3586 0.930 . S
H3578 C3591 0.929 . S
H3579 C3589 0.929 . S
H3580 C3584 0.929 . S
H3581 C3590 0.929 . S
C3582 H3576 0.930 . S
C3582 C3583 1.367 . S
C3582 C3590 1.378 . S
C3583 C3582 1.367 . S
C3583 C3591 1.433 . S
C3584 H3580 0.929 . S
C3584 C3586 1.378 . S
C3584 C3588 1.350 . S
C3585 C3588 1.463 1_556 S
C3585 C3590 1.350 . S
C3585 N3593 1.427 . S
C3586 H3577 0.930 . S
C3586 C3584 1.378 . S
C3586 C3587 1.367 . S
C3587 C3586 1.367 . S
C3587 C3589 1.433 . S
C3588 C3584 1.350 . S
C3588 C3585 1.463 1_554 S
C3588 N3592 1.427 . S
C3589 H3579 0.929 . S
C3589 C3587 1.433 . S
C3589 N3592 1.384 . S
C3590 H3581 0.929 . S
C3590 C3582 1.378 . S
C3590 C3585 1.350 . S
C3591 H3578 0.929 . S
C3591 C3583 1.433 . S
C3591 N3593 1.384 . S
N3592 C3588 1.427 . S
N3592 C3589 1.384 . S
N3593 C3585 1.427 . S
N3593 C3591 1.384 . S
H3594 C3600 0.930 . S
H3595 C3604 0.930 . S
H3596 C3609 0.929 . S
H3597 C3607 0.929 . S
H3598 C3602 0.929 . S
H3599 C3608 0.929 . S
C3600 H3594 0.930 . S
C3600 C3601 1.367 . S
C3600 C3608 1.378 . S
C3601 C3600 1.367 . S
C3601 C3609 1.433 . S
C3602 H3598 0.929 . S
C3602 C3604 1.378 . S
C3602 C3606 1.350 . S
C3603 C3606 1.463 1_554 S
C3603 C3608 1.350 . S
C3603 N3611 1.427 . S
C3604 H3595 0.930 . S
C3604 C3602 1.378 . S
C3604 C3605 1.367 . S
C3605 C3604 1.367 . S
C3605 C3607 1.433 . S
C3606 C3602 1.350 . S
C3606 C3603 1.463 1_556 S
C3606 N3610 1.427 . S
C3607 H3597 0.929 . S
C3607 C3605 1.433 . S
C3607 N3610 1.384 . S
C3608 H3599 0.929 . S
C3608 C3600 1.378 . S
C3608 C3603 1.350 . S
C3609 H3596 0.929 . S
C3609 C3601 1.433 . S
C3609 N3611 1.384 . S
N3610 C3606 1.427 . S
N3610 C3607 1.384 . S
N3611 C3603 1.427 . S
N3611 C3609 1.384 . S
H3612 C3618 0.930 . S
H3613 C3622 0.930 . S
H3614 C3627 0.929 . S
H3615 C3625 0.929 . S
H3616 C3620 0.929 . S
H3617 C3626 0.929 . S
C3618 H3612 0.930 . S
C3618 C3619 1.367 . S
C3618 C3626 1.378 . S
C3619 C3618 1.367 . S
C3619 C3627 1.433 . S
C3620 H3616 0.929 . S
C3620 C3622 1.378 . S
C3620 C3624 1.350 . S
C3621 C3624 1.463 . S
C3621 C3626 1.350 . S
C3621 N3629 1.427 . S
C3622 H3613 0.930 . S
C3622 C3620 1.378 . S
C3622 C3623 1.367 . S
C3623 C3622 1.367 . S
C3623 C3625 1.433 . S
C3624 C3620 1.350 . S
C3624 C3621 1.463 . S
C3624 N3628 1.427 . S
C3625 H3615 0.929 . S
C3625 C3623 1.433 . S
C3625 N3628 1.384 . S
C3626 H3617 0.929 . S
C3626 C3618 1.378 . S
C3626 C3621 1.350 . S
C3627 H3614 0.929 . S
C3627 C3619 1.433 . S
C3627 N3629 1.384 . S
N3628 C3624 1.427 . S
N3628 C3625 1.384 . S
N3629 C3621 1.427 . S
N3629 C3627 1.384 . S
H3630 C3636 0.930 . S
H3631 C3640 0.930 . S
H3632 C3645 0.929 . S
H3633 C3643 0.929 . S
H3634 C3638 0.929 . S
H3635 C3644 0.929 . S
C3636 H3630 0.930 . S
C3636 C3637 1.367 . S
C3636 C3644 1.378 . S
C3637 C3636 1.367 . S
C3637 C3645 1.433 . S
C3638 H3634 0.929 . S
C3638 C3640 1.378 . S
C3638 C3642 1.350 . S
C3639 C3642 1.463 . S
C3639 C3644 1.350 . S
C3639 N3647 1.427 . S
C3640 H3631 0.930 . S
C3640 C3638 1.378 . S
C3640 C3641 1.367 . S
C3641 C3640 1.367 . S
C3641 C3643 1.433 . S
C3642 C3638 1.350 . S
C3642 C3639 1.463 . S
C3642 N3646 1.427 . S
C3643 H3633 0.929 . S
C3643 C3641 1.433 . S
C3643 N3646 1.384 . S
C3644 H3635 0.929 . S
C3644 C3636 1.378 . S
C3644 C3639 1.350 . S
C3645 H3632 0.929 . S
C3645 C3637 1.433 . S
C3645 N3647 1.384 . S
N3646 C3642 1.427 . S
N3646 C3643 1.384 . S
N3647 C3639 1.427 . S
N3647 C3645 1.384 . S
H3648 C3654 0.930 . S
H3649 C3658 0.930 . S
H3650 C3663 0.897 1_565 S
H3651 C3661 0.897 1_545 S
H3652 C3656 0.929 . S
H3653 C3662 0.929 . S
C3654 H3648 0.930 . S
C3654 C3655 1.367 . S
C3654 C3662 1.378 . S
C3655 C3654 1.367 . S
C3655 C3663 1.494 . S
C3656 H3652 0.929 . S
C3656 C3658 1.378 . S
C3656 C3660 1.350 . S
C3657 C3660 1.463 1_545 S
C3657 C3662 1.350 . S
C3657 N3665 1.427 1_545 S
C3658 H3649 0.930 . S
C3658 C3656 1.378 . S
C3658 C3659 1.367 . S
C3659 C3658 1.367 . S
C3659 C3661 1.494 . S
C3660 C3656 1.350 . S
C3660 C3657 1.463 1_565 S
C3660 N3664 1.427 1_565 S
C3661 H3651 0.897 1_565 S
C3661 C3659 1.494 . S
C3661 N3664 1.359 1_565 S
C3662 H3653 0.929 . S
C3662 C3654 1.378 . S
C3662 C3657 1.350 . S
C3663 H3650 0.897 1_545 S
C3663 C3655 1.494 . S
C3663 N3665 1.359 1_545 S
N3664 C3660 1.427 1_545 S
N3664 C3661 1.359 1_545 S
N3665 C3657 1.427 1_565 S
N3665 C3663 1.359 1_565 S
H3666 C3672 0.930 . S
H3667 C3676 0.930 . S
H3668 C3681 0.929 . S
H3669 C3679 0.929 . S
H3670 C3674 0.929 . S
H3671 C3680 0.929 . S
C3672 H3666 0.930 . S
C3672 C3673 1.367 . S
C3672 C3680 1.378 . S
C3673 C3672 1.367 . S
C3673 C3681 1.433 . S
C3674 H3670 0.929 . S
C3674 C3676 1.378 . S
C3674 C3678 1.350 . S
C3675 C3678 1.463 . S
C3675 C3680 1.350 . S
C3675 N3683 1.427 . S
C3676 H3667 0.930 . S
C3676 C3674 1.378 . S
C3676 C3677 1.367 . S
C3677 C3676 1.367 . S
C3677 C3679 1.433 . S
C3678 C3674 1.350 . S
C3678 C3675 1.463 . S
C3678 N3682 1.427 . S
C3679 H3669 0.929 . S
C3679 C3677 1.433 . S
C3679 N3682 1.384 . S
C3680 H3671 0.929 . S
C3680 C3672 1.378 . S
C3680 C3675 1.350 . S
C3681 H3668 0.929 . S
C3681 C3673 1.433 . S
C3681 N3683 1.384 . S
N3682 C3678 1.427 . S
N3682 C3679 1.384 . S
N3683 C3675 1.427 . S
N3683 C3681 1.384 . S
H3684 C3690 0.930 . S
H3685 C3694 0.930 . S
H3686 C3699 0.929 . S
H3687 C3697 0.929 . S
H3688 C3692 0.929 . S
H3689 C3698 0.929 . S
C3690 H3684 0.930 . S
C3690 C3691 1.367 . S
C3690 C3698 1.378 . S
C3691 C3690 1.367 . S
C3691 C3699 1.433 . S
C3692 H3688 0.929 . S
C3692 C3694 1.378 . S
C3692 C3696 1.350 . S
C3693 C3696 1.463 . S
C3693 C3698 1.350 . S
C3693 N3701 1.427 . S
C3694 H3685 0.930 . S
C3694 C3692 1.378 . S
C3694 C3695 1.367 . S
C3695 C3694 1.367 . S
C3695 C3697 1.433 . S
C3696 C3692 1.350 . S
C3696 C3693 1.463 . S
C3696 N3700 1.427 . S
C3697 H3687 0.929 . S
C3697 C3695 1.433 . S
C3697 N3700 1.384 . S
C3698 H3689 0.929 . S
C3698 C3690 1.378 . S
C3698 C3693 1.350 . S
C3699 H3686 0.929 . S
C3699 C3691 1.433 . S
C3699 N3701 1.384 . S
N3700 C3696 1.427 . S
N3700 C3697 1.384 . S
N3701 C3693 1.427 . S
N3701 C3699 1.384 . S
H3702 C3708 0.930 . S
H3703 C3712 0.930 . S
H3704 C3717 0.929 . S
H3705 C3715 0.929 . S
H3706 C3710 0.929 . S
H3707 C3716 0.929 . S
C3708 H3702 0.930 . S
C3708 C3709 1.367 . S
C3708 C3716 1.378 . S
C3709 C3708 1.367 . S
C3709 C3717 1.433 . S
C3710 H3706 0.929 . S
C3710 C3712 1.378 . S
C3710 C3714 1.350 . S
C3711 C3714 1.463 . S
C3711 C3716 1.350 . S
C3711 N3719 1.427 . S
C3712 H3703 0.930 . S
C3712 C3710 1.378 . S
C3712 C3713 1.367 . S
C3713 C3712 1.367 . S
C3713 C3715 1.433 . S
C3714 C3710 1.350 . S
C3714 C3711 1.463 . S
C3714 N3718 1.427 . S
C3715 H3705 0.929 . S
C3715 C3713 1.433 . S
C3715 N3718 1.384 . S
C3716 H3707 0.929 . S
C3716 C3708 1.378 . S
C3716 C3711 1.350 . S
C3717 H3704 0.929 . S
C3717 C3709 1.433 . S
C3717 N3719 1.384 . S
N3718 C3714 1.427 . S
N3718 C3715 1.384 . S
N3719 C3711 1.427 . S
N3719 C3717 1.384 . S
H3720 C3726 0.930 . S
H3721 C3730 0.930 . S
H3722 C3735 0.929 . S
H3723 C3733 0.929 . S
H3724 C3728 0.975 . S
H3725 C3734 0.975 . S
C3726 H3720 0.930 . S
C3726 C3727 1.367 . S
C3726 C3734 1.351 1_554 S
C3727 C3726 1.367 . S
C3727 C3735 1.433 . S
C3728 H3724 0.975 . S
C3728 C3730 1.351 1_554 S
C3728 C3732 1.334 1_554 S
C3729 C3732 1.463 1_554 S
C3729 C3734 1.334 1_554 S
C3729 N3737 1.427 . S
C3730 H3721 0.930 . S
C3730 C3728 1.351 1_556 S
C3730 C3731 1.367 . S
C3731 C3730 1.367 . S
C3731 C3733 1.433 . S
C3732 C3728 1.334 1_556 S
C3732 C3729 1.463 1_556 S
C3732 N3736 1.427 . S
C3733 H3723 0.929 . S
C3733 C3731 1.433 . S
C3733 N3736 1.384 . S
C3734 H3725 0.975 . S
C3734 C3726 1.351 1_556 S
C3734 C3729 1.334 1_556 S
C3735 H3722 0.929 . S
C3735 C3727 1.433 . S
C3735 N3737 1.384 . S
N3736 C3732 1.427 . S
N3736 C3733 1.384 . S
N3737 C3729 1.427 . S
N3737 C3735 1.384 . S
H3738 C3744 0.930 . S
H3739 C3748 0.930 . S
H3740 C3753 0.929 . S
H3741 C3751 0.929 . S
H3742 C3746 0.929 . S
H3743 C3752 0.929 . S
C3744 H3738 0.930 . S
C3744 C3745 1.367 . S
C3744 C3752 1.378 . S
C3745 C3744 1.367 . S
C3745 C3753 1.433 . S
C3746 H3742 0.929 . S
C3746 C3748 1.378 . S
C3746 C3750 1.350 . S
C3747 C3750 1.463 . S
C3747 C3752 1.350 . S
C3747 N3755 1.427 . S
C3748 H3739 0.930 . S
C3748 C3746 1.378 . S
C3748 C3749 1.367 . S
C3749 C3748 1.367 . S
C3749 C3751 1.433 . S
C3750 C3746 1.350 . S
C3750 C3747 1.463 . S
C3750 N3754 1.427 . S
C3751 H3741 0.929 . S
C3751 C3749 1.433 . S
C3751 N3754 1.384 . S
C3752 H3743 0.929 . S
C3752 C3744 1.378 . S
C3752 C3747 1.350 . S
C3753 H3740 0.929 . S
C3753 C3745 1.433 . S
C3753 N3755 1.384 . S
N3754 C3750 1.427 . S
N3754 C3751 1.384 . S
N3755 C3747 1.427 . S
N3755 C3753 1.384 . S
H3756 C3762 0.930 . S
H3757 C3766 0.930 . S
H3758 C3771 0.929 . S
H3759 C3769 0.929 . S
H3760 C3764 0.929 . S
H3761 C3770 0.929 . S
C3762 H3756 0.930 . S
C3762 C3763 1.367 . S
C3762 C3770 1.378 . S
C3763 C3762 1.367 . S
C3763 C3771 1.433 . S
C3764 H3760 0.929 . S
C3764 C3766 1.378 . S
C3764 C3768 1.350 . S
C3765 C3768 1.463 . S
C3765 C3770 1.350 . S
C3765 N3773 1.427 . S
C3766 H3757 0.930 . S
C3766 C3764 1.378 . S
C3766 C3767 1.367 . S
C3767 C3766 1.367 . S
C3767 C3769 1.433 . S
C3768 C3764 1.350 . S
C3768 C3765 1.463 . S
C3768 N3772 1.427 . S
C3769 H3759 0.929 . S
C3769 C3767 1.433 . S
C3769 N3772 1.384 . S
C3770 H3761 0.929 . S
C3770 C3762 1.378 . S
C3770 C3765 1.350 . S
C3771 H3758 0.929 . S
C3771 C3763 1.433 . S
C3771 N3773 1.384 . S
N3772 C3768 1.427 . S
N3772 C3769 1.384 . S
N3773 C3765 1.427 . S
N3773 C3771 1.384 . S
H3774 C3780 0.930 1_545 S
H3775 C3784 0.930 1_565 S
H3776 C3789 0.929 . S
H3777 C3787 0.929 . S
H3778 C3782 0.929 . S
H3779 C3788 0.929 . S
C3780 H3774 0.930 1_565 S
C3780 C3781 1.367 . S
C3780 C3788 1.378 1_565 S
C3781 C3780 1.367 . S
C3781 C3789 1.433 . S
C3782 H3778 0.929 . S
C3782 C3784 1.378 1_565 S
C3782 C3786 1.350 1_565 S
C3783 C3786 1.463 1_565 S
C3783 C3788 1.350 1_565 S
C3783 N3791 1.427 . S
C3784 H3775 0.930 1_545 S
C3784 C3782 1.378 1_545 S
C3784 C3785 1.367 . S
C3785 C3784 1.367 . S
C3785 C3787 1.433 . S
C3786 C3782 1.350 1_545 S
C3786 C3783 1.463 1_545 S
C3786 N3790 1.427 . S
C3787 H3777 0.929 . S
C3787 C3785 1.433 . S
C3787 N3790 1.384 . S
C3788 H3779 0.929 . S
C3788 C3780 1.378 1_545 S
C3788 C3783 1.350 1_545 S
C3789 H3776 0.929 . S
C3789 C3781 1.433 . S
C3789 N3791 1.384 . S
N3790 C3786 1.427 . S
N3790 C3787 1.384 . S
N3791 C3783 1.427 . S
N3791 C3789 1.384 . S
C1639 C33 2.538 . S
C1643 C713 2.535 . S
C1657 C1427 2.539 . S
C1661 C67 2.536 . S
C1675 C1461 2.535 . S
C1679 C101 2.537 . S
C1693 C135 2.539 . S
C1697 C1495 2.535 . S
C1711 C169 2.535 . S
C1715 C1631 2.537 . S
C1729 C747 2.538 . S
C1733 C203 2.535 . S
C1747 C237 2.538 . S
C1751 C1597 2.535 . S
C1765 C271 2.539 . S
C1769 C577 2.536 . S
C1783 C305 2.539 . S
C1787 C543 2.538 . S
C1801 C339 2.539 . S
C1805 C441 2.539 . S
C1819 C475 2.536 . S
C1823 C373 2.535 . S
C1837 C509 2.538 . S
C1841 C407 2.539 . S
C1855 C883 2.539 . S
C1859 C611 2.536 . S
C1873 C645 2.539 . S
C1877 C917 2.539 . S
C1891 C951 2.540 . S
C1895 C679 2.537 . S
C1909 C781 2.537 . S
C1913 C1053 2.535 . S
C1927 C815 2.535 . S
C1931 C985 2.537 . S
C1945 C1529 2.535 . S
C1949 C849 2.536 . S
C1963 C1563 2.538 . S
C1967 C1019 2.535 . S
C1981 C1087 2.538 . S
C1985 C1393 2.535 . S
C1999 C1359 2.538 . S
C2003 C1121 2.540 . S
C2017 C1257 2.535 . S
C2021 C1155 2.536 . S
C2035 C1189 2.538 . S
C2039 C1291 2.539 . S
C2053 C1223 2.535 . S
C2057 C1325 2.538 . S
C2071 C553 0.937 . S
C2075 C20 0.952 . S
C2089 C1607 0.918 . S
C2093 C54 0.962 . S
C2107 C723 0.936 . S
C2111 C88 0.953 . S
C2125 C122 0.952 . S
C2129 C1573 0.936 . S
C2143 C1403 0.910 . S
C2147 C156 0.965 . S
C2161 C190 0.962 . S
C2165 C1437 0.916 . S
C2179 C1471 0.910 . S
C2183 C224 0.965 . S
C2197 C258 0.955 . S
C2201 C689 0.932 . S
C2215 C292 0.964 . S
C2219 C9 0.913 . S
C2233 C43 0.938 . S
C2237 C326 0.952 . S
C2251 C77 0.927 . S
C2255 C360 0.957 . S
C2269 C111 0.933 . S
C2273 C394 0.954 . S
C2287 C428 0.956 . S
C2291 C145 0.929 . S
C2305 C462 0.967 . S
C2309 C179 0.907 . S
C2323 C496 0.956 . S
C2327 C213 0.929 . S
C2341 C530 0.963 . S
C2345 C247 0.914 . S
C2359 C281 0.936 . S
C2363 C564 0.953 . S
C2377 C598 0.964 . S
C2381 C1233 0.911 . S
C2395 C632 0.963 . S
C2399 C1267 0.915 . S
C2413 C1301 0.916 . S
C2417 C666 0.962 . S
C2431 C700 0.957 . S
C2435 C519 0.928 . S
C2449 C734 0.966 . S
C2453 C349 0.907 . S
C2467 C1199 0.918 . S
C2471 C768 0.961 . S
C2485 C802 0.958 . S
C2489 C1131 0.926 . S
C2503 C836 0.953 . S
C2507 C1369 0.936 . S
C2521 C870 0.961 . S
C2525 C791 0.920 . S
C2539 C904 0.952 . S
C2543 C1539 0.938 . S
C2557 C938 0.958 . S
C2561 C757 0.925 . S
C2575 C587 0.938 . S
C2579 C972 0.952 . S
C2593 C1006 0.958 . S
C2597 C621 0.924 . S
C2611 C1040 0.966 . S
C2615 C655 0.908 . S
C2629 C1074 0.964 . S
C2633 C1505 0.913 . S
C2647 C825 0.934 . S
C2651 C1108 0.954 . S
C2665 C1142 0.952 . S
C2669 C859 0.938 . S
C2683 C893 0.926 . S
C2687 C1176 0.958 . S
C2701 C927 0.937 . S
C2705 C1210 0.952 . S
C2719 C961 0.913 . S
C2723 C1244 0.964 . S
C2737 C995 0.907 . S
C2741 C1278 0.967 . S
C2755 C1312 0.958 . S
C2759 C1029 0.926 . S
C2773 C1346 0.965 . S
C2777 C1063 0.909 . S
C2791 C1097 0.931 . S
C2795 C1380 0.955 . S
C2809 C1414 0.960 . S
C2813 C417 0.921 . S
C2827 C1448 0.960 . S
C2831 C451 0.922 . S
C2845 C1482 0.952 . S
C2849 C485 0.938 . S
C2863 C1335 0.912 . S
C2867 C1516 0.964 . S
C2881 C1165 0.930 . S
C2885 C1550 0.956 . S
C2899 C383 0.931 . S
C2903 C1584 0.955 . S
C2917 C1618 0.961 . S
C2921 C315 0.920 . S
C2935 C308 1.734 . S
C2939 C2 1.741 . S
C2953 C342 1.740 . S
C2957 C36 1.739 . S
C2971 C70 1.732 . S
C2975 C376 1.736 . S
C2989 C104 1.741 . S
C2993 C274 1.738 . S
C3007 C138 1.734 . S
C3011 C512 1.741 . S
C3025 C410 1.738 . S
C3029 C172 1.732 . S
C3043 C444 1.741 . S
C3047 C206 1.734 . S
C3061 C240 1.739 . S
C3065 C478 1.740 . S
C3079 C546 1.739 . S
C3083 C614 1.732 . S
C3097 C1566 1.737 . S
C3101 C580 1.732 . S
C3115 C1600 1.741 . S
C3119 C648 1.734 . S
C3133 C1532 1.741 . S
C3137 C682 1.735 . S
C3151 C716 1.732 . S
C3155 C1498 1.738 . S
C3169 C1396 1.741 . S
C3173 C750 1.733 . S
C3187 C1464 1.739 . S
C3191 C784 1.740 . S
C3205 C1124 1.732 . S
C3209 C818 1.740 . S
C3223 C1158 1.739 . S
C3227 C852 1.740 . S
C3241 C886 1.732 . S
C3245 C1192 1.737 . S
C3259 C1090 1.736 . S
C3263 C920 1.732 . S
C3277 C1328 1.739 . S
C3281 C954 1.732 . S
C3295 C988 1.736 . S
C3299 C1226 1.732 . S
C3313 C1260 1.733 . S
C3317 C1022 1.741 . S
C3331 C1056 1.732 . S
C3335 C1294 1.737 . S
C3349 C1362 1.737 . S
C3353 C1430 1.732 . S
C3367 C889 1.414 . S
C3371 C5 1.411 . S
C3385 C39 1.414 . S
C3389 C923 1.410 . S
C3403 C821 1.411 . S
C3407 C73 1.412 . S
C3421 C855 1.410 . S
C3425 C107 1.414 . S
C3439 C1025 1.414 . S
C3443 C141 1.411 . S
C3457 C1059 1.414 . S
C3461 C175 1.410 . S
C3475 C957 1.411 . S
C3479 C209 1.414 . S
C3493 C243 1.410 . S
C3497 C991 1.414 . S
C3511 C277 1.411 . S
C3515 C413 1.414 . S
C3529 C311 1.413 . S
C3533 C447 1.410 . S
C3547 C345 1.412 . S
C3551 C481 1.413 . S
C3565 C379 1.410 . S
C3569 C515 1.414 . S
C3583 C1467 1.413 . S
C3587 C549 1.412 . S
C3601 C1535 1.410 . S
C3605 C583 1.414 . S
C3619 C617 1.411 . S
C3623 C753 1.414 . S
C3637 C1365 1.414 . S
C3641 C651 1.410 . S
C3655 C685 1.412 . S
C3659 C1603 1.411 . S
C3673 C719 1.410 . S
C3677 C1399 1.413 . S
C3691 C787 1.414 . S
C3695 C1501 1.410 . S
C3709 C1093 1.411 . S
C3713 C1229 1.414 . S
C3727 C1263 1.414 . S
C3731 C1127 1.410 . S
C3745 C1297 1.410 . S
C3749 C1161 1.415 . S
C3763 C1195 1.410 . S
C3767 C1331 1.414 . S
C3781 C1433 1.411 . S
C3785 C1569 1.414 . S
