# Generated by pormake.
# Topology uol, (4)-cn, num edge types: 1
# Building blocks:
#     Node 0, Type 0, BuildingBlock: KOZSID_clean_sbu_0, # of connection points: 4
#     Node 1, Type 0, BuildingBlock: KOZSID_clean_sbu_0, # of connection points: 4
#     Node 2, Type 0, BuildingBlock: KOZSID_clean_sbu_0, # of connection points: 4
#     Node 3, Type 0, BuildingBlock: KOZSID_clean_sbu_0, # of connection points: 4
#     Node 4, Type 0, BuildingBlock: KOZSID_clean_sbu_0, # of connection points: 4
#     Node 5, Type 0, BuildingBlock: KOZSID_clean_sbu_0, # of connection points: 4
#     Node 6, Type 0, BuildingBlock: KOZSID_clean_sbu_0, # of connection points: 4
#     Node 7, Type 0, BuildingBlock: KOZSID_clean_sbu_0, # of connection points: 4
#     Node 8, Type 0, BuildingBlock: KOZSID_clean_sbu_0, # of connection points: 4
#     Node 9, Type 0, BuildingBlock: KOZSID_clean_sbu_0, # of connection points: 4
#     Node 10, Type 0, BuildingBlock: KOZSID_clean_sbu_0, # of connection points: 4
#     Node 11, Type 0, BuildingBlock: KOZSID_clean_sbu_0, # of connection points: 4
#     Edge 12, Type (0, 0), BuildingBlock: CIFDUS_clean_linker_0, # of connection points: 2
#     Edge 13, Type (0, 0), BuildingBlock: CIFDUS_clean_linker_0, # of connection points: 2
#     Edge 14, Type (0, 0), BuildingBlock: CIFDUS_clean_linker_0, # of connection points: 2
#     Edge 15, Type (0, 0), BuildingBlock: CIFDUS_clean_linker_0, # of connection points: 2
#     Edge 16, Type (0, 0), BuildingBlock: CIFDUS_clean_linker_0, # of connection points: 2
#     Edge 17, Type (0, 0), BuildingBlock: CIFDUS_clean_linker_0, # of connection points: 2
#     Edge 18, Type (0, 0), BuildingBlock: CIFDUS_clean_linker_0, # of connection points: 2
#     Edge 19, Type (0, 0), BuildingBlock: CIFDUS_clean_linker_0, # of connection points: 2
#     Edge 20, Type (0, 0), BuildingBlock: CIFDUS_clean_linker_0, # of connection points: 2
#     Edge 21, Type (0, 0), BuildingBlock: CIFDUS_clean_linker_0, # of connection points: 2
#     Edge 22, Type (0, 0), BuildingBlock: CIFDUS_clean_linker_0, # of connection points: 2
#     Edge 23, Type (0, 0), BuildingBlock: CIFDUS_clean_linker_0, # of connection points: 2
#     Edge 24, Type (0, 0), BuildingBlock: CIFDUS_clean_linker_0, # of connection points: 2
#     Edge 25, Type (0, 0), BuildingBlock: CIFDUS_clean_linker_0, # of connection points: 2
#     Edge 26, Type (0, 0), BuildingBlock: CIFDUS_clean_linker_0, # of connection points: 2
#     Edge 27, Type (0, 0), BuildingBlock: CIFDUS_clean_linker_0, # of connection points: 2
#     Edge 28, Type (0, 0), BuildingBlock: CIFDUS_clean_linker_0, # of connection points: 2
#     Edge 29, Type (0, 0), BuildingBlock: CIFDUS_clean_linker_0, # of connection points: 2
#     Edge 30, Type (0, 0), BuildingBlock: CIFDUS_clean_linker_0, # of connection points: 2
#     Edge 31, Type (0, 0), BuildingBlock: CIFDUS_clean_linker_0, # of connection points: 2
#     Edge 32, Type (0, 0), BuildingBlock: CIFDUS_clean_linker_0, # of connection points: 2
#     Edge 33, Type (0, 0), BuildingBlock: CIFDUS_clean_linker_0, # of connection points: 2
#     Edge 34, Type (0, 0), BuildingBlock: CIFDUS_clean_linker_0, # of connection points: 2
#     Edge 35, Type (0, 0), BuildingBlock: CIFDUS_clean_linker_0, # of connection points: 2
# Relax obj value: 0.145
# Max RMSD: 0.330
# Mean RMSD: 0.314
data_MOF--net-uol--node1-KOZSID_clean_sbu_0--edge1-CIFDUS_clean_linker_0
_symmetry_space_group_name_H-M    P1
_symmetry_Int_Tables_number       1
_symmetry_cell_setting            triclinic
loop_
_symmetry_equiv_pos_as_xyz
'x, y, z'
_cell_length_a     36.922922
_cell_length_b     39.505947
_cell_length_c     60.248968
_cell_angle_alpha  90.097223
_cell_angle_beta   89.97978
_cell_angle_gamma 117.73318
loop_
_atom_site_label
_atom_site_type_symbol
_atom_site_fract_x
_atom_site_fract_y
_atom_site_fract_z
_atom_type_partial_charge
C0 C 0.18508 0.33227 0.08732 0.0
C1 C 0.17314 0.31551 0.06653 0.0
C2 C 0.13238 0.30546 0.06438 0.0
C3 C 0.12183 0.3167 0.08387 0.0
N4 N 0.15338 0.33315 0.09809 0.0
Co5 Co 0.15158 0.3541 0.12772 0.0
N6 N 0.09138 0.32246 0.12961 0.0
C7 C 0.0662 0.30646 0.11222 0.0
C8 C 1.02571 0.28785 0.11813 0.0
C9 C 1.02531 0.29268 0.14064 0.0
C10 C 0.06583 0.31394 0.14729 0.0
N11 N 0.14902 0.37593 0.15706 0.0
C12 C 0.11892 0.36287 0.17269 0.0
C13 C 0.13099 0.38691 0.19106 0.0
C14 C 0.16919 0.41629 0.1864 0.0
C15 C 0.17876 0.40862 0.16558 0.0
N16 N 0.21189 0.38481 0.12563 0.0
C17 C 0.23514 0.41601 0.13776 0.0
C18 C 0.2762 0.43 0.13332 0.0
C19 C 0.27863 0.40599 0.11742 0.0
C20 C 0.23884 0.37863 0.113 0.0
N21 N 0.14479 0.39611 0.11349 0.0
C22 C 0.14685 0.46541 0.09921 0.0
C23 C 0.17263 0.45197 0.08979 0.0
C24 C 0.17092 0.4174 0.09697 0.0
C25 C 0.11814 0.4418 0.11495 0.0
C26 C 0.1176 0.4075 0.12182 0.0
N27 N 0.16043 0.3137 0.14242 0.0
C28 C 0.19875 0.29992 0.1702 0.0
C29 C 0.19189 0.26602 0.15949 0.0
C30 C 0.16529 0.25454 0.14108 0.0
C31 C 0.14936 0.27859 0.13301 0.0
C32 C 0.18387 0.32341 0.16125 0.0
H33 H 0.13 0.26966 0.11849 0.0
H34 H 0.19401 0.35067 0.16911 0.0
H35 H 0.19211 0.40876 0.08977 0.0
H36 H 0.09637 0.39117 0.13469 0.0
C37 C 0.08193 0.30574 0.09116 0.0
C38 C 0.22687 0.34826 0.09602 0.0
C39 C 0.07823 0.32908 0.16995 0.0
C40 C 0.21781 0.42638 0.15566 0.0
H41 H 0.19186 0.31087 0.0543 0.0
H42 H 0.11245 0.29012 0.0507 0.0
H43 H 0.9996 0.27217 0.10744 0.0
H44 H 0.99813 0.2826 0.15082 0.0
H45 H 0.11434 0.38358 0.20634 0.0
H46 H 0.18849 0.43936 0.1974 0.0
H47 H 0.30151 0.4537 0.1414 0.0
H48 H 0.30638 0.40827 0.11002 0.0
H49 H 0.1947 0.46844 0.07718 0.0
H50 H 0.09745 0.45058 0.12278 0.0
H51 H 0.21758 0.30961 0.18497 0.0
H52 H 0.15845 0.2283 0.13232 0.0
C53 C 0.70895 0.15622 0.29503 0.0
C54 C 0.69924 0.1845 0.30216 0.0
C55 C 0.72806 0.20606 0.3174 0.0
C56 C 0.75426 0.19047 0.31839 0.0
N57 N 0.74434 0.16052 0.30459 0.0
Co58 Co 0.77857 0.1341 0.2989 0.0
N59 N 0.81754 0.16243 0.32367 0.0
C60 C 0.81495 0.18841 0.33729 0.0
C61 C 0.84587 0.20388 0.35253 0.0
C62 C 0.87022 0.18729 0.3482 0.0
C63 C 0.85267 0.16242 0.33042 0.0
N64 N 0.81388 0.10922 0.2924 0.0
C65 C 0.85102 0.11633 0.30083 0.0
C66 C 0.86694 0.09538 0.28981 0.0
C67 C 0.83958 0.07519 0.27351 0.0
C68 C 0.80851 0.08483 0.2755 0.0
N69 N 0.7374 0.10412 0.27514 0.0
C70 C 0.73971 0.07799 0.26149 0.0
C71 C 0.70576 0.05893 0.24845 0.0
C72 C 0.68001 0.07358 0.25412 0.0
C73 C 0.7 0.10152 0.2701 0.0
N74 N 0.81358 0.17493 0.27707 0.0
C75 C 0.88109 0.21726 0.24864 0.0
C76 C 0.84547 0.18634 0.2407 0.0
C77 C 0.81202 0.16646 0.25484 0.0
C78 C 0.88009 0.22977 0.27027 0.0
C79 C 0.84604 0.20863 0.28402 0.0
N80 N 0.74575 0.09265 0.32051 0.0
C81 C 0.71546 0.02544 0.33023 0.0
C82 C 0.70757 0.03274 0.35187 0.0
C83 C 0.71824 0.07074 0.35748 0.0
C84 C 0.73657 0.10007 0.34149 0.0
C85 C 0.73461 0.05535 0.31512 0.0
H86 H 0.74362 0.12862 0.34637 0.0
H87 H 0.7409 0.04757 0.29923 0.0
H88 H 0.78604 0.14328 0.24746 0.0
H89 H 0.84769 0.21927 0.30054 0.0
C90 C 0.78638 0.20132 0.33334 0.0
C91 C 0.68267 0.12528 0.27977 0.0
C92 C 0.8731 0.14356 0.31868 0.0
C93 C 0.7739 0.07153 0.26188 0.0
H94 H 0.67367 0.18897 0.29713 0.0
H95 H 0.72935 0.22985 0.32693 0.0
H96 H 0.85137 0.2262 0.36452 0.0
H97 H 0.89881 0.1946 0.35653 0.0
H98 H 0.89576 0.09531 0.29299 0.0
H99 H 0.84233 0.05621 0.26143 0.0
H100 H 0.70004 0.03646 0.23653 0.0
H101 H 0.64978 0.06427 0.24731 0.0
H102 H 0.84386 0.17667 0.22372 0.0
H103 H 0.90635 0.25443 0.27699 0.0
H104 H 0.70778 0.99658 0.32507 0.0
H105 H 0.71215 0.0777 0.374 0.0
C106 C 0.67062 0.83124 0.42378 0.0
C107 C 0.68611 0.83431 0.4025 0.0
C108 C 0.69901 0.80688 0.40071 0.0
C109 C 0.69064 0.78867 0.42093 0.0
N110 N 0.67308 0.80287 0.43515 0.0
Co111 Co 0.65816 0.78713 0.46637 0.0
N112 N 0.69645 0.765 0.46812 0.0
C113 C 0.71257 0.75551 0.45059 0.0
C114 C 0.7379 0.74046 0.45672 0.0
C115 C 0.73728 0.74005 0.47949 0.0
C116 C 0.71128 0.75472 0.48606 0.0
N117 N 0.64283 0.77115 0.49761 0.0
C118 C 0.66163 0.75983 0.51314 0.0
C119 C 0.63914 0.74969 0.53267 0.0
C120 C 0.60508 0.75457 0.52907 0.0
C121 C 0.60848 0.76733 0.50758 0.0
N122 N 0.62054 0.80986 0.46431 0.0
C123 C 0.58867 0.80235 0.47774 0.0
C124 C 0.57035 0.82493 0.47299 0.0
C125 C 0.59238 0.84803 0.45561 0.0
C126 C 0.62298 0.83826 0.45075 0.0
N127 N 0.6138 0.73689 0.45642 0.0
C128 C 0.54583 0.66555 0.44573 0.0
C129 C 0.55363 0.69903 0.434 0.0
C130 C 0.58749 0.7343 0.43966 0.0
C131 C 0.57393 0.66866 0.4623 0.0
C132 C 0.60753 0.70412 0.46722 0.0
N133 N 0.70141 0.83704 0.47653 0.0
C134 C 0.72022 0.89377 0.49867 0.0
C135 C 0.75727 0.91316 0.48722 0.0
C136 C 0.7666 0.89288 0.47095 0.0
C137 C 0.73851 0.85473 0.46606 0.0
C138 C 0.69285 0.85606 0.49305 0.0
H139 H 0.74615 0.84002 0.45324 0.0
H140 H 0.66386 0.84292 0.50151 0.0
H141 H 0.59185 0.75968 0.43081 0.0
H142 H 0.62793 0.70498 0.48024 0.0
C143 C 0.70767 0.76592 0.42895 0.0
C144 C 0.65327 0.85502 0.43283 0.0
C145 C 0.6983 0.75482 0.50921 0.0
C146 C 0.58378 0.78132 0.49735 0.0
H147 H 0.68859 0.85469 0.38985 0.0
H148 H 0.71516 0.80264 0.38687 0.0
H149 H 0.75557 0.73174 0.44598 0.0
H150 H 0.75359 0.72952 0.49 0.0
H151 H 0.6463 0.7393 0.5478 0.0
H152 H 0.58128 0.75026 0.54092 0.0
H153 H 0.54567 0.82628 0.48198 0.0
H154 H 0.58702 0.86985 0.44767 0.0
H155 H 0.53294 0.69831 0.42106 0.0
H156 H 0.56992 0.64372 0.47162 0.0
H157 H 0.71141 0.90823 0.5112 0.0
H158 H 0.79507 0.90657 0.46181 0.0
C159 C 0.87131 0.71212 0.58268 0.0
C160 C 0.88148 0.72486 0.56101 0.0
C161 C 0.9215 0.7326 0.55807 0.0
C162 C 0.93337 0.72406 0.57802 0.0
N163 N 0.90323 0.71131 0.59318 0.0
Co164 Co 0.907 0.69638 0.62406 0.0
N165 N 0.9676 0.72634 0.62401 0.0
C166 C 0.99125 0.73882 0.60576 0.0
C167 C 0.03214 0.75909 0.61065 0.0
C168 C 0.03444 0.759 0.63335 0.0
C169 C 0.99465 0.73816 0.64113 0.0
N170 N 0.91105 0.68111 0.6549 0.0
C171 C 0.94272 0.69634 0.66953 0.0
C172 C 0.93248 0.6757 0.68917 0.0
C173 C 0.89323 0.64661 0.6866 0.0
C174 C 0.8816 0.65089 0.66555 0.0
N175 N 0.84649 0.66698 0.62382 0.0
C176 C 0.82357 0.63859 0.6378 0.0
C177 C 0.78234 0.62559 0.63436 0.0
C178 C 0.77952 0.64733 0.6172 0.0
C179 C 0.81926 0.67241 0.61108 0.0
N180 N 0.91062 0.65058 0.61302 0.0
C181 C 0.90734 0.57951 0.60116 0.0
C182 C 0.88122 0.59214 0.59134 0.0
C183 C 0.88348 0.62749 0.59733 0.0
C184 C 0.93651 0.60445 0.61636 0.0
C185 C 0.93757 0.63957 0.62207 0.0
N186 N 0.90147 0.74082 0.63527 0.0
C187 C 0.86222 0.76239 0.65798 0.0
C188 C 0.87676 0.79679 0.64616 0.0
C189 C 0.90618 0.80336 0.62952 0.0
C190 C 0.91825 0.77518 0.62442 0.0
C191 C 0.87502 0.73526 0.65245 0.0
H192 H 0.93969 0.78045 0.61105 0.0
H193 H 0.86123 0.70861 0.66132 0.0
H194 H 0.86226 0.63561 0.58966 0.0
H195 H 0.95946 0.65725 0.63437 0.0
C196 C 0.97376 0.73571 0.58471 0.0
C197 C 0.83106 0.70023 0.59274 0.0
C198 C 0.98381 0.72784 0.66459 0.0
C199 C 0.84178 0.63152 0.65658 0.0
H200 H 0.8622 0.72867 0.5488 0.0
H201 H 0.94032 0.74518 0.54358 0.0
H202 H 0.05723 0.77335 0.59914 0.0
H203 H 0.06237 0.77261 0.64292 0.0
H204 H 0.95159 0.68083 0.7037 0.0
H205 H 0.875 0.62559 0.69888 0.0
H206 H 0.75731 0.60448 0.644 0.0
H207 H 0.75156 0.64527 0.61023 0.0
H208 H 0.8587 0.57462 0.57915 0.0
H209 H 0.95742 0.5963 0.6245 0.0
H210 H 0.83918 0.75517 0.67075 0.0
H211 H 0.91918 0.8297 0.62011 0.0
C212 C 0.34573 0.88838 0.79462 0.0
C213 C 0.35642 0.86024 0.80062 0.0
C214 C 0.32735 0.83655 0.81514 0.0
C215 C 0.30019 0.85098 0.81696 0.0
N216 N 0.30998 0.88236 0.80453 0.0
Co217 Co 0.27463 0.9079 0.80054 0.0
N218 N 0.24037 0.88172 0.82712 0.0
C219 C 0.24099 0.85228 0.83806 0.0
C220 C 0.2145 0.8394 0.8556 0.0
C221 C 0.195 0.86144 0.85556 0.0
C222 C 0.21071 0.88676 0.83784 0.0
N223 N 0.23869 0.93255 0.79612 0.0
C224 C 0.20692 0.93093 0.80846 0.0
C225 C 0.1887 0.95047 0.79806 0.0
C226 C 0.20881 0.96376 0.77835 0.0
C227 C 0.23829 0.95186 0.7778 0.0
N228 N 0.31035 0.93427 0.77431 0.0
C229 C 0.30149 0.95353 0.75864 0.0
C230 C 0.33223 0.97084 0.74335 0.0
C231 C 0.36229 0.96164 0.74955 0.0
C232 C 0.3481 0.93858 0.7682 0.0
N233 N 0.2363 0.86542 0.78094 0.0
C234 C 0.17689 0.82003 0.74883 0.0
C235 C 0.21917 0.83478 0.74471 0.0
C236 C 0.24825 0.85698 0.76101 0.0
C237 C 0.16558 0.82587 0.77006 0.0
C238 C 0.19519 0.8483 0.78556 0.0
N239 N 0.31083 0.95151 0.8199 0.0
C240 C 0.34178 1.01984 0.8264 0.0
C241 C 0.34868 1.01556 0.84884 0.0
C242 C 0.33741 0.97821 0.85631 0.0
C243 C 0.31915 0.94674 0.84153 0.0
C244 C 0.32297 0.98796 0.81245 0.0
H245 H 0.31067 0.91851 0.84785 0.0
H246 H 0.31677 0.99315 0.79578 0.0
H247 H 0.28029 0.8686 0.75699 0.0
H248 H 0.18372 0.85301 0.80087 0.0
C249 C 0.26804 0.8385 0.832 0.0
C250 C 0.36983 0.91922 0.77879 0.0
C251 C 0.19056 0.90852 0.82898 0.0
C252 C 0.26736 0.95983 0.76099 0.0
H253 H 0.38236 0.85684 0.79499 0.0
H254 H 0.32654 0.81212 0.82368 0.0
H255 H 0.20943 0.81629 0.86686 0.0
H256 H 0.17034 0.85743 0.86664 0.0
H257 H 0.16282 0.95383 0.80388 0.0
H258 H 0.20256 0.98004 0.76588 0.0
H259 H 0.33347 0.98939 0.72985 0.0
H260 H 0.39137 0.97125 0.74128 0.0
H261 H 0.22994 0.83066 0.72873 0.0
H262 H 0.13366 0.81393 0.77472 0.0
H263 H 0.34941 0.04778 0.81968 0.0
H264 H 0.34258 0.97329 0.87342 0.0
C265 C 0.3797 0.21605 0.92181 0.0
C266 C 0.36252 0.21139 0.90084 0.0
C267 C 0.34781 0.23749 0.89919 0.0
C268 C 0.35676 0.25654 0.91917 0.0
N269 N 0.37639 0.24415 0.93314 0.0
Co270 Co 0.39309 0.26214 0.96399 0.0
N271 N 0.35319 0.28249 0.96621 0.0
C272 C 0.3347 0.28964 0.94891 0.0
C273 C 0.30835 0.30341 0.95531 0.0
C274 C 0.31081 0.30551 0.97802 0.0
C275 C 0.33892 0.29316 0.9843 0.0
N276 N 0.41041 0.28066 0.99474 0.0
C277 C 0.39219 0.2924 0.01044 0.0
C278 C 0.41631 0.30465 0.02937 0.0
C279 C 0.45075 0.30065 0.02522 0.0
C280 C 0.44598 0.28632 1.00402 0.0
N281 N 0.43196 0.24076 0.96156 0.0
C282 C 0.46491 0.25 0.97445 0.0
C283 C 0.48415 0.22821 0.96967 0.0
C284 C 0.46162 0.20378 0.95284 0.0
C285 C 0.42978 0.21198 0.94829 0.0
N286 N 0.43546 0.31244 0.95278 0.0
C287 C 0.49966 0.38474 0.93979 0.0
C288 C 0.49511 0.35054 0.93009 0.0
C289 C 0.46274 0.31491 0.93661 0.0
C290 C 0.47083 0.38156 0.95595 0.0
C291 C 0.43949 0.3456 0.96223 0.0
N292 N 0.35198 0.21234 0.97545 0.0
C293 C 0.33699 0.15846 0.99928 0.0
C294 C 0.29942 0.13657 0.98864 0.0
C295 C 0.28775 0.15451 0.97199 0.0
C296 C 0.3143 0.19247 0.96578 0.0
C297 C 0.36269 0.19576 0.99239 0.0
H298 H 0.30499 0.20526 0.95264 0.0
H299 H 0.39203 0.21064 1.00036 0.0
H300 H 0.4601 0.28927 0.92874 0.0
H301 H 0.41892 0.3448 0.97513 0.0
C302 C 0.33869 0.27834 0.92734 0.0
C303 C 0.39908 0.19377 0.93061 0.0
C304 C 0.35434 0.29575 0.00719 0.0
C305 C 0.47062 0.27238 0.99361 0.0
H306 H 0.36001 0.19079 0.8883 0.0
H307 H 0.33012 0.24025 0.88564 0.0
H308 H 0.28887 0.3102 0.94479 0.0
H309 H 0.29425 0.31561 0.98867 0.0
H310 H 0.40993 0.3158 0.04446 0.0
H311 H 0.47572 0.30655 0.03656 0.0
H312 H 0.50998 0.22838 0.97826 0.0
H313 H 0.46761 0.18226 0.94496 0.0
H314 H 0.51615 0.35125 0.91735 0.0
H315 H 0.47295 0.4068 0.96421 0.0
H316 H 0.3471 0.14673 0.01272 0.0
H317 H 0.25905 0.13904 0.96323 0.0
C318 C 0.57071 0.88518 0.71694 0.0
C319 C 0.5322 0.85611 0.71137 0.0
C320 C 0.53811 0.83177 0.69752 0.0
C321 C 0.5797 0.84676 0.69564 0.0
N322 N 0.60078 0.87907 0.70746 0.0
Co323 Co 0.66165 0.90589 0.71124 0.0
N324 N 0.67027 0.87789 0.68559 0.0
C325 C 0.64052 0.84782 0.67491 0.0
C326 C 0.65453 0.83409 0.6579 0.0
C327 C 0.696 0.85613 0.6581 0.0
C328 C 0.70517 0.88223 0.6754 0.0
N329 N 0.7222 0.9318 0.71554 0.0
C330 C 0.75242 0.92903 0.70393 0.0
C331 C 0.79027 0.95069 0.71381 0.0
C332 C 0.7835 0.96654 0.73255 0.0
C333 C 0.74205 0.95393 0.73305 0.0
N334 N 0.65196 0.93455 0.73627 0.0
C335 C 0.68035 0.95653 0.75121 0.0
C336 C 0.6667 0.97527 0.76544 0.0
C337 C 0.62705 0.96426 0.75931 0.0
C338 C 0.61817 0.93871 0.74182 0.0
N339 N 0.65869 0.86541 0.73229 0.0
C340 C 0.67393 0.82166 0.76504 0.0
C341 C 0.64867 0.83882 0.76954 0.0
C342 C 0.64109 0.86012 0.75293 0.0
C343 C 0.68803 0.82428 0.7433 0.0
C344 C 0.68039 0.84596 0.72753 0.0
N345 N 0.66766 0.94713 0.69035 0.0
C346 C 0.70674 1.01387 0.68006 0.0
C347 C 0.69544 1.00557 0.65773 0.0
C348 C 0.66718 0.9676 0.65248 0.0
C349 C 0.65317 0.93908 0.66903 0.0
C350 C 0.69275 0.98455 0.69592 0.0
H351 H 0.63219 0.91021 0.66425 0.0
H352 H 0.70446 0.99227 0.71246 0.0
H353 H 0.62221 0.87332 0.7572 0.0
H354 H 0.69418 0.84769 0.71179 0.0
C355 C 0.59971 0.83389 0.68097 0.0
C356 C 0.57686 0.91726 0.73176 0.0
C357 C 0.74654 0.90329 0.68496 0.0
C358 C 0.72096 0.96356 0.74906 0.0
H359 H 0.50272 0.8526 0.7168 0.0
H360 H 0.51481 0.80659 0.68939 0.0
H361 H 0.6368 0.81029 0.64696 0.0
H362 H 0.71692 0.85156 0.6475 0.0
H363 H 0.81954 0.95363 0.70836 0.0
H364 H 0.80608 0.98483 0.74448 0.0
H365 H 0.68409 0.99591 0.77812 0.0
H366 H 0.6074 0.97449 0.76681 0.0
H367 H 0.63603 0.83711 0.78596 0.0
H368 H 0.70594 0.81025 0.73837 0.0
H369 H 0.72838 0.04257 0.68513 0.0
H370 H 0.65666 0.95972 0.63557 0.0
C371 C 0.87761 0.71046 0.92667 0.0
C372 C 0.88277 0.72489 0.94814 0.0
C373 C 0.8533 0.73629 0.95135 0.0
C374 C 0.83173 0.72805 0.93181 0.0
N375 N 0.84576 0.71216 0.91655 0.0
Co376 Co 0.82304 0.69549 0.88638 0.0
N377 N 0.7957 0.72855 0.8868 0.0
C378 C 0.78809 0.74385 0.90509 0.0
C379 C 0.76927 0.76587 0.90049 0.0
C380 C 0.76425 0.76401 0.87792 0.0
C381 C 0.7799 0.74042 0.86997 0.0
N382 N 0.79978 0.67874 0.85624 0.0
C383 C 0.78338 0.69444 0.84188 0.0
C384 C 0.76959 0.67237 0.82281 0.0
C385 C 0.7775 0.64185 0.82546 0.0
C386 C 0.79553 0.6468 0.84598 0.0
N387 N 0.85057 0.66273 0.88623 0.0
C388 C 0.84136 0.63274 0.87268 0.0
C389 C 0.86676 0.61647 0.87586 0.0
C390 C 0.89335 0.63754 0.89248 0.0
C391 C 0.8826 0.66551 0.89866 0.0
N392 N 0.77331 0.65234 0.89918 0.0
C393 C 0.70526 0.58204 0.91156 0.0
C394 C 0.74409 0.5944 0.9212 0.0
C395 C 0.77731 0.62936 0.91496 0.0
C396 C 0.70099 0.60723 0.89656 0.0
C397 C 0.73514 0.64202 0.89065 0.0
N398 N 0.8731 0.73701 0.87321 0.0
C399 C 0.92845 0.75382 0.8471 0.0
C400 C 0.95058 0.79042 0.85635 0.0
C401 C 0.93227 0.79984 0.87426 0.0
C402 C 0.89349 0.77282 0.88237 0.0
C403 C 0.89028 0.72811 0.85551 0.0
H404 H 0.88045 0.78053 0.89632 0.0
H405 H 0.87547 0.70019 0.84806 0.0
H406 H 0.80676 0.63698 0.92229 0.0
H407 H 0.73089 0.65976 0.87841 0.0
C408 C 0.80425 0.74152 0.92569 0.0
C409 C 0.90169 0.69323 0.91695 0.0
C410 C 0.77682 0.72784 0.84671 0.0
C411 C 0.81456 0.62597 0.85467 0.0
H412 H 0.90542 0.72699 0.96021 0.0
H413 H 0.84939 0.75053 0.96583 0.0
H414 H 0.7614 0.78241 0.91205 0.0
H415 H 0.75046 0.77835 0.86856 0.0
H416 H 0.7548 0.67749 0.80864 0.0
H417 H 0.77179 0.61937 0.81356 0.0
H418 H 0.86732 0.59334 0.86648 0.0
H419 H 0.91795 0.63296 0.89909 0.0
H420 H 0.74915 0.57683 0.93332 0.0
H421 H 0.67186 0.59943 0.88862 0.0
H422 H 0.94101 0.74415 0.83374 0.0
H423 H 0.94771 0.82774 0.88201 0.0
C424 C 0.19086 0.83101 0.08701 0.0
C425 C 0.17775 0.83625 0.10771 0.0
C426 C 0.13657 0.81143 0.1088 0.0
C427 C 0.12686 0.79253 0.08877 0.0
N428 N 0.15946 0.80389 0.07531 0.0
Co429 Co 0.15922 0.78567 0.04469 0.0
N430 N 0.09966 0.76769 0.0415 0.0
C431 C 0.07311 0.76074 0.05832 0.0
C432 C 0.03364 0.74824 0.05111 0.0
C433 C 0.0355 0.74695 0.02839 0.0
C434 C 0.07615 0.75863 0.02296 0.0
N435 N 0.15886 0.76681 0.01417 0.0
C436 C 0.1304 0.75751 0.99788 0.0
C437 C 0.1421 0.74456 0.97917 0.0
C438 C 0.17906 0.74569 0.98411 0.0
C439 C 0.1879 0.75916 1.00553 0.0
N440 N 0.21879 0.80445 0.04806 0.0
C441 C 0.24202 0.79359 0.03583 0.0
C442 C 0.28285 0.81374 0.04132 0.0
C443 C 0.28505 0.83872 0.05793 0.0
C444 C 0.2454 0.83245 0.06163 0.0
N445 N 0.14855 0.73483 0.05624 0.0
C446 C 0.13865 0.66204 0.06929 0.0
C447 C 0.1679 0.69577 0.07948 0.0
C448 C 0.17202 0.73165 0.07293 0.0
C449 C 0.11396 0.66581 0.05277 0.0
C450 C 0.11948 0.70211 0.04645 0.0
N451 N 0.17103 0.83623 0.03292 0.0
C452 C 0.21576 0.88997 0.01054 0.0
C453 C 0.20207 0.91357 0.02098 0.0
C454 C 0.16997 0.89679 0.03638 0.0
C455 C 0.15474 0.85791 0.04208 0.0
C456 C 0.20003 0.85178 0.01669 0.0
H457 H 0.13126 0.84591 0.05463 0.0
H458 H 0.21329 0.8355 0.00908 0.0
H459 H 0.1948 0.75695 0.08111 0.0
H460 H 0.10071 0.70361 0.03318 0.0
C461 C 0.08727 0.77159 0.08011 0.0
C462 C 0.23305 0.85164 0.07881 0.0
C463 C 0.09087 0.75786 1.00036 0.0
C464 C 0.22565 0.77134 0.01657 0.0
H465 H 0.19577 0.85635 0.12046 0.0
H466 H 0.11579 0.80935 0.12203 0.0
H467 H 1.00689 0.74194 0.06111 0.0
H468 H 1.00979 0.73803 0.01717 0.0
H469 H 0.1255 0.73501 0.9637 0.0
H470 H 0.19786 0.73881 0.97309 0.0
H471 H 0.30828 0.81213 0.03335 0.0
H472 H 0.31252 0.85929 0.06623 0.0
H473 H 0.18735 0.6945 0.09254 0.0
H474 H 0.09111 0.64084 0.04424 0.0
H475 H 0.2399 0.9014 0.99823 0.0
H476 H 0.15829 0.91394 0.04479 0.0
C477 C 0.47768 0.15305 0.21844 0.0
C478 C 0.51525 0.18052 0.21047 0.0
C479 C 0.50727 0.19964 0.19397 0.0
C480 C 0.4655 0.18361 0.19308 0.0
N481 N 0.44617 0.15571 0.2082 0.0
Co482 Co 0.38578 0.1295 0.21431 0.0
N483 N 0.37442 0.15531 0.18861 0.0
C484 C 0.40191 0.17851 0.17362 0.0
C485 C 0.38509 0.19025 0.15697 0.0
C486 C 0.34441 0.17413 0.16189 0.0
C487 C 0.33897 0.15402 0.18156 0.0
N488 N 0.32566 0.10492 0.2211 0.0
C489 C 0.29575 0.11234 0.21273 0.0
C490 C 0.25946 0.09295 0.22442 0.0
C491 C 0.26673 0.07289 0.24077 0.0
C492 C 0.30699 0.08134 0.23832 0.0
N493 N 0.39781 0.10214 0.23926 0.0
C494 C 0.36965 0.0763 0.25307 0.0
C495 C 0.38522 0.05874 0.26687 0.0
C496 C 0.42572 0.07394 0.26148 0.0
C497 C 0.43302 0.10066 0.24485 0.0
N498 N 0.39176 0.1723 0.2346 0.0
C499 C 0.37324 0.2232 0.25993 0.0
C500 C 0.36949 0.18915 0.26897 0.0
C501 C 0.37956 0.16484 0.25637 0.0
C502 C 0.39056 0.23313 0.23868 0.0
C503 C 0.3998 0.2076 0.22646 0.0
N504 N 0.37713 0.08612 0.19398 0.0
C505 C 0.33881 1.01847 0.18539 0.0
C506 C 0.35439 0.02397 0.16382 0.0
C507 C 0.38281 0.06132 0.1578 0.0
C508 C 0.39425 0.0917 0.17318 0.0
C509 C 0.35028 0.04938 0.19991 0.0
H510 H 0.41655 0.11955 0.16789 0.0
H511 H 0.33609 0.04278 0.21576 0.0
H512 H 0.37555 0.13938 0.26445 0.0
H513 H 0.41188 0.21636 0.2101 0.0
C514 C 0.44363 0.19201 0.17712 0.0
C515 C 0.47379 0.12388 0.23483 0.0
C516 C 0.3011 0.13877 0.19441 0.0
C517 C 0.32865 0.06888 0.25232 0.0
H518 H 0.54546 0.18582 0.2157 0.0
H519 H 0.5293 0.22204 0.18353 0.0
H520 H 0.40078 0.20959 0.14347 0.0
H521 H 0.32167 0.17842 0.15272 0.0
H522 H 0.23097 0.09386 0.22179 0.0
H523 H 0.2455 0.05518 0.25337 0.0
H524 H 0.36886 0.03687 0.27912 0.0
H525 H 0.44708 0.06565 0.26883 0.0
H526 H 0.35816 0.18089 0.28572 0.0
H527 H 0.3953 0.25969 0.23107 0.0
H528 H 0.31666 0.9903 0.19097 0.0
H529 H 0.39637 0.06705 0.1414 0.0
C530 C 0.18541 0.3338 0.42783 0.0
C531 C 0.18439 0.32059 0.44925 0.0
C532 C 0.21681 0.31269 0.45102 0.0
C533 C 0.23576 0.32158 0.43065 0.0
N534 N 0.21726 0.33463 0.41633 0.0
Co535 Co 0.23392 0.3503 0.38531 0.0
N536 N 0.26379 0.31977 0.38377 0.0
C537 C 0.27732 0.30786 0.40134 0.0
C538 C 0.29856 0.28854 0.3953 0.0
C539 C 0.2986 0.28859 0.37252 0.0
C540 C 0.27722 0.30793 0.36591 0.0
N541 N 0.25116 0.36608 0.35423 0.0
C542 C 0.26545 0.35025 0.33867 0.0
C543 C 0.2738 0.3707 0.319 0.0
C544 C 0.26487 0.40048 0.32261 0.0
C545 C 0.25147 0.39664 0.34422 0.0
N546 N 0.2036 0.38039 0.3873 0.0
C547 C 0.20855 0.4093 0.37385 0.0
C548 C 0.18102 0.42276 0.37852 0.0
C549 C 0.15752 0.40078 0.39591 0.0
C550 C 0.17202 0.37506 0.40094 0.0
N551 N 0.28442 0.39537 0.3958 0.0
C552 C 0.35433 0.46548 0.40626 0.0
C553 C 0.31734 0.45332 0.41792 0.0
C554 C 0.28291 0.41846 0.41241 0.0
C555 C 0.35572 0.4406 0.38997 0.0
C556 C 0.32089 0.40589 0.38515 0.0
N557 N 0.18336 0.30664 0.37443 0.0
C558 C 0.12308 0.28527 0.35147 0.0
C559 C 0.10505 0.24921 0.36156 0.0
C560 C 0.12815 0.24222 0.37788 0.0
C561 C 0.16724 0.27123 0.38401 0.0
C562 C 0.16182 0.31311 0.35797 0.0
H563 H 0.18394 0.26546 0.3969 0.0
H564 H 0.17348 0.34064 0.35017 0.0
H565 H 0.25461 0.41077 0.42116 0.0
H566 H 0.32328 0.38811 0.37224 0.0
C567 C 0.26452 0.31054 0.42292 0.0
C568 C 0.15683 0.34664 0.41906 0.0
C569 C 0.27355 0.31747 0.34271 0.0
C570 C 0.23222 0.41634 0.35437 0.0
H571 H 0.16236 0.31679 0.46212 0.0
H572 H 0.2242 0.29998 0.46506 0.0
H573 H 0.31155 0.27517 0.40611 0.0
H574 H 0.31332 0.2764 0.362 0.0
H575 H 0.28521 0.36484 0.30371 0.0
H576 H 0.26642 0.42145 0.3106 0.0
H577 H 0.17676 0.44433 0.36951 0.0
H578 H 0.13238 0.40308 0.40374 0.0
H579 H 0.31445 0.47131 0.43064 0.0
H580 H 0.38359 0.44803 0.38075 0.0
H581 H 0.10676 0.29291 0.33919 0.0
H582 H 0.11603 0.21475 0.38608 0.0
C583 C 0.8684 0.21576 0.59205 0.0
C584 C 0.88132 0.21254 0.61321 0.0
C585 C 0.92206 0.23854 0.61449 0.0
C586 C 0.93179 0.25613 0.59412 0.0
N587 N 0.89963 0.24287 0.58021 0.0
Co588 Co 0.90057 0.25906 0.549 0.0
N589 N 0.96079 0.27949 0.54683 0.0
C590 C 0.98655 0.28786 0.56419 0.0
C591 C 1.02666 0.30182 0.55786 0.0
C592 C 1.0262 0.30277 0.53512 0.0
C593 C 0.98566 0.28949 0.52877 0.0
N594 N 0.9015 0.27576 0.51784 0.0
C595 C 0.93142 0.28684 0.50218 0.0
C596 C 0.9193 0.2978 0.48286 0.0
C597 C 0.88078 0.29375 0.4867 0.0
C598 C 0.87142 0.28062 0.50812 0.0
N599 N 0.8404 0.23785 0.55138 0.0
C600 C 0.81667 0.24643 0.53807 0.0
C601 C 0.77581 0.22578 0.54326 0.0
C602 C 0.77399 0.20283 0.56087 0.0
C603 C 0.81392 0.21069 0.56544 0.0
N604 N 0.90817 0.30984 0.5593 0.0
C605 C 0.91625 0.38248 0.57179 0.0
C606 C 0.88705 0.3486 0.58184 0.0
C607 C 0.88379 0.31282 0.57555 0.0
C608 C 0.94142 0.37883 0.55547 0.0
C609 C 0.93681 0.34266 0.54945 0.0
N610 N 0.89213 0.20863 0.53861 0.0
C611 C 0.85276 0.15242 0.51636 0.0
C612 C 0.869 0.13185 0.52791 0.0
C613 C 0.89868 0.15123 0.54425 0.0
C614 C 0.91026 0.18973 0.5491 0.0
C615 C 0.86445 0.19045 0.52202 0.0
H616 H 0.93273 0.20376 0.56193 0.0
H617 H 0.84957 0.20455 0.51355 0.0
H618 H 0.8612 0.28748 0.58375 0.0
H619 H 0.95627 0.34139 0.5365 0.0
C620 C 0.97147 0.27768 0.58584 0.0
C621 C 0.82628 0.19359 0.58381 0.0
C622 C 0.97275 0.29074 0.50574 0.0
C623 C 0.83304 0.26741 0.51851 0.0
H624 H 0.86345 0.19303 0.62621 0.0
H625 H 0.94265 0.2423 0.62815 0.0
H626 H 0.05302 0.30959 0.56847 0.0
H627 H 0.0528 0.31281 0.52448 0.0
H628 H 0.93674 0.30818 0.46771 0.0
H629 H 0.86156 0.29887 0.47506 0.0
H630 H 0.75019 0.2258 0.53455 0.0
H631 H 0.74654 0.18248 0.56924 0.0
H632 H 0.86713 0.34968 0.5947 0.0
H633 H 0.96419 0.40383 0.54698 0.0
H634 H 0.82953 0.13865 0.50375 0.0
H635 H 0.9124 0.13658 0.55345 0.0
H636 H 0.1983 0.63994 0.07671 0.0
H637 H 0.06733 0.59599 0.07611 0.0
H638 H 0.05804 0.53219 0.08525 0.0
H639 H 0.0869 0.48798 0.09307 0.0
H640 H 0.21795 0.53186 0.09293 0.0
H641 H 0.22713 0.59571 0.08439 0.0
C642 C 0.16771 0.6165 0.07875 0.0
C643 C 0.1336 0.62316 0.07568 0.0
C644 C 0.16248 0.57942 0.08376 0.0
C645 C 0.09423 0.59199 0.07814 0.0
C646 C 0.08885 0.55533 0.08345 0.0
C647 C 0.11751 0.51149 0.09128 0.0
C648 C 0.15162 0.50454 0.09358 0.0
C649 C 0.12272 0.54855 0.08622 0.0
C650 C 0.19096 0.53572 0.09093 0.0
C651 C 0.19633 0.57255 0.08618 0.0
H652 H 0.64522 0.12082 0.23881 0.0
H653 H 0.62244 0.11681 0.30917 0.0
H654 H 0.55736 0.11711 0.30217 0.0
H655 H 0.50844 0.12285 0.27591 0.0
H656 H 0.52407 0.11241 0.20575 0.0
H657 H 0.58955 0.11297 0.21276 0.0
C658 C 0.62554 0.11869 0.25266 0.0
C659 C 0.63957 0.11923 0.27461 0.0
C660 C 0.58668 0.11669 0.2485 0.0
C661 C 0.61322 0.11707 0.29213 0.0
C662 C 0.57576 0.11718 0.28813 0.0
C663 C 0.52535 0.11942 0.26214 0.0
C664 C 0.51097 0.11811 0.2402 0.0
C665 C 0.56231 0.11757 0.26637 0.0
C666 C 0.53429 0.11419 0.22277 0.0
C667 C 0.57191 0.11443 0.22677 0.0
H668 H 0.51168 0.63028 0.40581 0.0
H669 H 0.49447 0.61557 0.47659 0.0
H670 H 0.43423 0.55379 0.47097 0.0
H671 H 0.38628 0.50265 0.446 0.0
H672 H 0.40458 0.51636 0.37524 0.0
H673 H 0.46375 0.5789 0.38081 0.0
C674 C 0.49462 0.61369 0.42001 0.0
C675 C 0.50808 0.62792 0.44164 0.0
C676 C 0.45993 0.57752 0.41667 0.0
C677 C 0.48546 0.60548 0.45976 0.0
C678 C 0.45074 0.57003 0.45656 0.0
C679 C 0.40303 0.51936 0.43177 0.0
C680 C 0.39064 0.50425 0.41019 0.0
C681 C 0.43767 0.55553 0.4351 0.0
C682 C 0.41337 0.5266 0.39206 0.0
C683 C 0.44728 0.56267 0.39523 0.0
H684 H 0.96747 0.55694 0.59522 0.0
H685 H 0.83636 0.51238 0.59609 0.0
H686 H 0.82735 0.44844 0.58782 0.0
H687 H 0.85633 0.40435 0.57978 0.0
H688 H 0.98739 0.449 0.57825 0.0
H689 H 0.99647 0.51276 0.58734 0.0
C690 C 0.93689 0.53326 0.59374 0.0
C691 C 0.90271 0.54009 0.59621 0.0
C692 C 0.93177 0.49611 0.5888 0.0
C693 C 0.8634 0.50864 0.59396 0.0
C694 C 0.85814 0.47176 0.58935 0.0
C695 C 0.88691 0.42792 0.58161 0.0
C696 C 0.92108 0.4214 0.57822 0.0
C697 C 0.89204 0.46503 0.58664 0.0
C698 C 0.9604 0.45281 0.58045 0.0
C699 C 0.96567 0.48948 0.58576 0.0
H700 H 0.54463 0.92283 0.77323 0.0
H701 H 0.52408 0.92526 0.70295 0.0
H702 H 0.45914 0.92559 0.71041 0.0
H703 H 0.40501 0.92025 0.73706 0.0
H704 H 0.43282 0.93212 0.80701 0.0
H705 H 0.49771 0.93178 0.79952 0.0
C706 C 0.52716 0.9252 0.75943 0.0
C707 C 0.54021 0.92413 0.73739 0.0
C708 C 0.49039 0.92752 0.76384 0.0
C709 C 0.51531 0.92575 0.72006 0.0
C710 C 0.47788 0.92594 0.72433 0.0
C711 C 0.42583 0.92455 0.75068 0.0
C712 C 0.4132 0.92634 0.77273 0.0
C713 C 0.46464 0.9263 0.74617 0.0
C714 C 0.44098 0.93046 0.78991 0.0
C715 C 0.47833 0.93019 0.78563 0.0
H716 H 0.58157 0.40669 0.9323 0.0
H717 H 0.49468 0.45102 0.93267 0.0
H718 H 0.5492 0.51483 0.92393 0.0
H719 H 0.62237 0.55921 0.91682 0.0
H720 H 0.70936 0.5149 0.91687 0.0
H721 H 0.65464 0.45095 0.92478 0.0
C722 C 0.57442 0.43019 0.93027 0.0
C723 C 0.53364 0.42356 0.93327 0.0
C724 C 0.60631 0.46736 0.92543 0.0
C725 C 0.52555 0.4549 0.93077 0.0
C726 C 0.55685 0.4916 0.92568 0.0
C727 C 0.62945 0.5356 0.91842 0.0
C728 C 0.67055 0.54258 0.91636 0.0
C729 C 0.5975 0.49838 0.92309 0.0
C730 C 0.67854 0.51114 0.91873 0.0
C731 C 0.64702 0.47421 0.92313 0.0
H732 H 0.31766 0.21264 0.19672 0.0
H733 H 0.2201 0.10099 0.18115 0.0
H734 H 0.17672 0.12968 0.16927 0.0
H735 H 0.1681 0.18786 0.16158 0.0
H736 H 0.27114 0.29896 0.17325 0.0
H737 H 0.31051 0.26936 0.18787 0.0
C738 C 0.28667 0.19455 0.19096 0.0
C739 C 0.27191 0.15473 0.19018 0.0
C740 C 0.26292 0.21134 0.18311 0.0
C741 C 0.23189 0.13167 0.18241 0.0
C742 C 0.20731 0.14817 0.17532 0.0
C743 C 0.19919 0.20555 0.16722 0.0
C744 C 0.21581 0.24584 0.16682 0.0
C745 C 0.22272 0.18817 0.17524 0.0
C746 C 0.25654 0.26804 0.17404 0.0
C747 C 0.27946 0.25113 0.18233 0.0
H748 H 0.91365 0.1381 0.3556 0.0
H749 H 0.93383 0.18264 0.289 0.0
H750 H 1.00783 0.21541 0.29548 0.0
H751 H 0.06609 0.23639 0.32111 0.0
H752 H 0.04527 0.19776 0.38915 0.0
H753 H 0.97286 0.15743 0.38103 0.0
C754 C 0.93443 0.15462 0.34246 0.0
C755 C 0.91829 0.15813 0.32187 0.0
C756 C 0.97693 0.17476 0.34665 0.0
C757 C 0.94548 0.17943 0.30494 0.0
C758 C 0.98778 0.19842 0.30873 0.0
C759 C 0.04587 0.21933 0.33428 0.0
C760 C 0.06167 0.22074 0.35586 0.0
C761 C 1.00378 0.19719 0.32971 0.0
C762 C 0.03463 0.19727 0.37235 0.0
C763 C 0.99291 0.17436 0.36776 0.0
H764 H 0.85608 0.09429 0.48815 0.0
H765 H 0.84411 0.075 0.5588 0.0
H766 H 0.81059 1.00585 0.55262 0.0
H767 H 0.78077 0.9506 0.52706 0.0
H768 H 0.7935 0.96983 0.45641 0.0
H769 H 0.83078 0.03888 0.46262 0.0
C770 C 0.8464 0.07491 0.50218 0.0
C771 C 0.85262 0.08991 0.52392 0.0
C772 C 0.82713 0.03505 0.49849 0.0
C773 C 0.84018 0.06435 0.54192 0.0
C774 C 0.82071 0.02474 0.53839 0.0
C775 C 0.79196 0.96991 0.51303 0.0
C776 C 0.78411 0.9549 0.49128 0.0
C777 C 0.81347 1.00973 0.51674 0.0
C778 C 0.79931 0.98041 0.47331 0.0
C779 C 0.82042 1.02 0.47686 0.0
H780 H 0.85049 0.8129 0.68575 0.0
H781 H 0.86205 0.84165 0.61611 0.0
H782 H 0.82712 0.8803 0.62225 0.0
H783 H 0.78816 0.9023 0.64696 0.0
H784 H 0.77145 0.86794 0.71562 0.0
H785 H 0.81316 0.83546 0.7103 0.0
C786 C 0.84532 0.82737 0.67179 0.0
C787 C 0.85905 0.82382 0.6504 0.0
C788 C 0.82392 0.84868 0.67529 0.0
C789 C 0.85262 0.84393 0.63282 0.0
C790 C 0.83216 0.86588 0.63628 0.0
C791 C 0.79387 0.88782 0.66074 0.0
C792 C 0.7763 0.88741 0.68164 0.0
C793 C 0.81698 0.86796 0.65737 0.0
C794 C 0.78445 0.86882 0.69938 0.0
C795 C 0.80819 0.85001 0.69631 0.0
H796 H 1.01969 0.84383 0.87864 0.0
H797 H 0.97671 0.79833 0.81311 0.0
H798 H 0.04597 0.83202 0.79878 0.0
H799 H 0.12014 0.86964 0.80522 0.0
H800 H 0.1637 0.92047 0.86936 0.0
H801 H 0.0933 0.89042 0.88358 0.0
C802 C 1.02517 0.84184 0.86113 0.0
C803 C 0.99251 0.81711 0.8473 0.0
C804 C 0.06555 0.86232 0.85264 0.0
C805 C 1.00093 0.81557 0.82456 0.0
C806 C 0.04074 0.83522 0.81618 0.0
C807 C 0.11412 0.87497 0.82215 0.0
C808 C 0.14727 0.89699 0.83627 0.0
C809 C 0.07349 0.85786 0.83015 0.0
C810 C 0.1388 0.90352 0.85818 0.0
C811 C 0.0985 0.88612 0.86634 0.0
H812 H 0.17114 0.96363 0.01119 0.0
H813 H 0.28395 0.95837 0.02198 0.0
H814 H 0.32326 0.02571 0.01258 0.0
H815 H 0.32635 0.0853 0.99988 0.0
H816 H 0.215 0.09367 0.99022 0.0
H817 H 0.17466 0.02602 0.99996 0.0
C818 C 0.20429 0.97743 0.01168 0.0
C819 C 0.22451 0.95571 0.017 0.0
C820 C 0.2271 1.01665 0.00614 0.0
C821 C 0.26755 0.97409 0.01754 0.0
C822 C 0.29014 1.0127 0.01221 0.0
C823 C 0.29326 0.07279 1.00028 0.0
C824 C 0.27402 0.0951 0.99446 0.0
C825 C 0.27032 0.03415 0.00625 0.0
C826 C 0.23092 0.07744 0.99441 0.0
C827 C 0.20774 0.03869 1.00017 0.0
H828 H 0.28963 0.38902 0.06697 0.0
H829 H 0.22635 0.27976 0.0993 0.0
H830 H 0.26187 0.25398 0.0758 0.0
H831 H 0.30617 0.26066 0.0433 0.0
H832 H 0.36922 0.36983 0.01084 0.0
H833 H 0.33929 0.39751 0.03696 0.0
C834 C 0.28473 0.35999 0.06933 0.0
C835 C 0.25595 0.33654 0.0852 0.0
C836 C 0.30484 0.3451 0.05537 0.0
C837 C 0.2489 0.29855 0.08752 0.0
C838 C 0.26894 0.2837 0.07391 0.0
C839 C 0.31374 0.29062 0.04222 0.0
C840 C 0.33952 0.31308 0.025 0.0
C841 C 0.29624 0.30637 0.05736 0.0
C842 C 0.34922 0.35193 0.02384 0.0
C843 C 0.33204 0.36774 0.03877 0.0
H844 H 0.93213 0.29289 0.23796 0.0
H845 H 0.91641 0.17866 0.22847 0.0
H846 H 0.97764 0.20332 0.20528 0.0
H847 H 0.03441 0.25697 0.18616 0.0
H848 H 0.0468 0.37044 0.1924 0.0
H849 H 0.98935 0.34697 0.21846 0.0
C850 C 0.94232 0.2735 0.23091 0.0
C851 C 0.91941 0.23386 0.23492 0.0
C852 C 0.97742 0.2879 0.21707 0.0
C853 C 0.93303 0.20917 0.22549 0.0
C854 C 0.96823 0.22329 0.21227 0.0
C855 C 1.02493 0.27663 0.19355 0.0
C856 C 0.04602 0.31571 0.18789 0.0
C857 C 0.99052 0.26254 0.20775 0.0
C858 C 0.03243 0.34058 0.19711 0.0
C859 C 0.99904 0.327 0.21179 0.0
H860 H 0.73802 1.02169 0.39128 0.0
H861 H 0.63411 0.96946 0.34751 0.0
H862 H 0.6059 0.91101 0.36977 0.0
H863 H 0.61375 0.87218 0.39979 0.0
H864 H 0.71899 0.92281 0.44255 0.0
H865 H 0.74362 0.98396 0.42294 0.0
C866 C 0.70877 0.99779 0.38697 0.0
C867 C 0.68805 1.0001 0.36781 0.0
C868 C 0.69316 0.96365 0.39961 0.0
C869 C 0.65056 0.96851 0.36219 0.0
C870 C 0.6345 0.93497 0.37487 0.0
C871 C 0.64159 0.89692 0.40504 0.0
C872 C 0.66433 0.89322 0.42276 0.0
C873 C 0.6559 0.93182 0.39334 0.0
C874 C 0.7008 0.92519 0.42913 0.0
C875 C 0.71495 0.96009 0.41783 0.0
H876 H 0.76107 0.65997 0.56827 0.0
H877 H 0.84128 0.77255 0.59319 0.0
H878 H 0.80568 0.79963 0.57088 0.0
H879 H 0.75576 0.79216 0.54126 0.0
H880 H 0.6757 0.67967 0.51622 0.0
H881 H 0.70645 0.65164 0.54151 0.0
C882 C 0.76979 0.69019 0.56932 0.0
C883 C 0.80333 0.71415 0.58268 0.0
C884 C 0.74946 0.70568 0.55609 0.0
C885 C 0.81518 0.75349 0.58331 0.0
C886 C 0.79501 0.76903 0.5704 0.0
C887 C 0.74468 0.76148 0.54169 0.0
C888 C 0.71365 0.73797 0.52687 0.0
C889 C 0.76273 0.74559 0.55628 0.0
C890 C 0.69957 0.69825 0.5275 0.0
C891 C 0.71726 0.68226 0.54191 0.0
H892 H 0.10436 0.82253 0.7425 0.0
H893 H 0.17559 0.77113 0.71552 0.0
H894 H 0.1222 0.7373 0.68787 0.0
H895 H 0.05452 0.72181 0.67122 0.0
H896 H 0.98393 0.77328 0.6985 0.0
H897 H 0.03686 0.80618 0.72665 0.0
C898 C 0.10823 0.80354 0.73083 0.0
C899 C 0.14441 0.79951 0.73143 0.0
C900 C 0.07709 0.78379 0.71505 0.0
C901 C 0.14867 0.77538 0.71555 0.0
C902 C 0.11784 0.75569 0.69976 0.0
C903 C 0.05086 0.74031 0.68334 0.0
C904 C 1.01548 0.74551 0.68258 0.0
C905 C 0.08188 0.75963 0.69933 0.0
C906 C 1.01085 0.76898 0.69864 0.0
C907 C 0.04125 0.78792 0.71467 0.0
H908 H 0.43264 0.1812 0.89294 0.0
H909 H 0.34477 0.12225 0.94428 0.0
H910 H 0.32313 0.06117 0.92478 0.0
H911 H 0.32551 0.02502 0.89127 0.0
H912 H 0.41339 0.08523 0.83989 0.0
H913 H 0.43855 0.14455 0.86104 0.0
C914 C 0.4093 0.15481 0.90001 0.0
C915 C 0.39054 0.15621 0.92013 0.0
C916 C 0.39662 0.11983 0.88848 0.0
C917 C 0.35993 0.12188 0.92895 0.0
C918 C 0.3474 0.08695 0.91769 0.0
C919 C 0.35066 0.05095 0.88489 0.0
C920 C 0.36712 0.05033 0.86375 0.0
C921 C 0.36499 0.08556 0.89719 0.0
C922 C 0.39955 0.08461 0.85584 0.0
C923 C 0.41411 0.11873 0.86799 0.0
H924 H 0.74767 0.82089 0.76916 0.0
H925 H 0.62923 0.77724 0.80044 0.0
H926 H 0.64965 0.74339 0.82769 0.0
H927 H 0.70129 0.72549 0.84263 0.0
H928 H 0.81911 0.76927 0.81101 0.0
H929 H 0.79817 0.80227 0.78338 0.0
C930 C 0.72588 0.80359 0.7817 0.0
C931 C 0.68659 0.80167 0.78241 0.0
C932 C 0.73768 0.78377 0.7972 0.0
C933 C 0.65967 0.7798 0.79939 0.0
C934 C 0.67127 0.76008 0.81493 0.0
C935 C 0.72232 0.74231 0.82966 0.0
C936 C 0.762 0.74531 0.82902 0.0
C937 C 0.71017 0.76176 0.81399 0.0
C938 C 0.78861 0.76665 0.81192 0.0
C939 C 0.77666 0.78568 0.7962 0.0
H940 H 0.97424 0.75722 0.92299 0.0
H941 H 0.90966 0.63817 0.94082 0.0
H942 H 0.96426 0.6468 0.96684 0.0
H943 H 1.02757 0.68977 0.98723 0.0
H944 H 0.09067 0.80934 0.97058 0.0
H945 H 0.04009 0.79925 0.94147 0.0
C946 C 0.97278 0.73303 0.93218 0.0
C947 C 0.93842 0.69686 0.92953 0.0
C948 C 1.00389 0.73853 0.9476 0.0
C949 C 0.93631 0.66596 0.942 0.0
C950 C 0.96732 0.67105 0.95712 0.0
C951 C 0.03044 0.71339 0.97694 0.0
C952 C 0.06271 0.75029 0.98099 0.0
C953 C 1.00086 0.70735 0.96042 0.0
C954 C 0.06613 0.78075 0.96769 0.0
C955 C 0.03712 0.77496 0.95112 0.0
H956 H 0.27647 0.86137 0.117 0.0
H957 H 0.25361 0.92398 0.0653 0.0
H958 H 0.29251 0.98398 0.08583 0.0
H959 H 0.32765 1.01784 0.12049 0.0
H960 H 0.34837 0.95387 0.17244 0.0
H961 H 0.3163 0.89581 0.15001 0.0
C962 C 0.28087 0.88834 0.11007 0.0
C963 C 0.26254 0.88838 0.0896 0.0
C964 C 0.3026 0.9226 0.12223 0.0
C965 C 0.26782 0.92336 0.08092 0.0
C966 C 0.28984 0.95763 0.09276 0.0
C967 C 0.32588 0.99136 0.12669 0.0
C968 C 0.34026 0.99038 0.14829 0.0
C969 C 0.30667 0.95757 0.11371 0.0
C970 C 0.33723 0.95555 0.15606 0.0
C971 C 0.31885 0.92221 0.14321 0.0
H972 H 0.30164 0.19987 0.28283 0.0
H973 H 0.41201 0.30142 0.26562 0.0
H974 H 0.38987 0.34032 0.28804 0.0
H975 H 0.34075 0.34491 0.31485 0.0
H976 H 0.23034 0.24301 0.33132 0.0
H977 H 0.25065 0.20506 0.30704 0.0
C978 C 0.32092 0.23054 0.28396 0.0
C979 C 0.35878 0.24749 0.27266 0.0
C980 C 0.3078 0.25279 0.29679 0.0
C981 C 0.3828 0.28745 0.27405 0.0
C982 C 0.37014 0.30975 0.28697 0.0
C983 C 0.32067 0.3146 0.31259 0.0
C984 C 0.28359 0.29692 0.3246 0.0
C985 C 0.33286 0.29274 0.29864 0.0
C986 C 0.25859 0.25738 0.32201 0.0
C987 C 0.27039 0.23561 0.30825 0.0
H988 H 0.12921 0.38647 0.44577 0.0
H989 H 0.09412 0.27474 0.41841 0.0
H990 H 0.03261 0.24743 0.44162 0.0
H991 H 0.99154 0.25426 0.47234 0.0
H992 H 1.02673 0.36585 0.49986 0.0
H993 H 0.08469 0.39425 0.4741 0.0
C994 C 0.1074 0.3564 0.44444 0.0
C995 C 0.11588 0.33278 0.43005 0.0
C996 C 0.07221 0.34072 0.45819 0.0
C997 C 0.08796 0.2936 0.42907 0.0
C998 C 0.05291 0.27791 0.44249 0.0
C999 C 1.0116 0.28485 0.47239 0.0
C1000 C 1.00497 0.30793 0.48803 0.0
C1001 C 0.04509 0.30098 0.4575 0.0
C1002 C 0.03126 0.34754 0.48798 0.0
C1003 C 0.06448 0.36375 0.47328 0.0
H1004 H 0.71197 0.0812 0.65838 0.0
H1005 H 0.72549 0.9982 0.6174 0.0
H1006 H 0.7648 0.04798 0.59034 0.0
H1007 H 0.79983 0.1166 0.57933 0.0
H1008 H 0.78504 0.19906 0.61994 0.0
H1009 H 0.74206 0.1485 0.64591 0.0
C1010 C 0.72325 0.07389 0.64346 0.0
C1011 C 0.71562 0.03569 0.64011 0.0
C1012 C 0.7459 0.10283 0.62783 0.0
C1013 C 0.73031 0.02702 0.62046 0.0
C1014 C 0.75315 0.05565 0.60498 0.0
C1015 C 0.78651 0.12324 0.59367 0.0
C1016 C 0.79544 0.16153 0.59768 0.0
C1017 C 0.76167 0.09381 0.60859 0.0
C1018 C 0.77833 0.16982 0.61643 0.0
C1019 C 0.75394 0.14089 0.63135 0.0
loop_
_geom_bond_atom_site_label_1
_geom_bond_atom_site_label_2
_geom_bond_distance
_geom_bond_site_symmetry_2
_ccdc_geom_bond_type
C0 C1 1.443 . S
C0 N4 1.376 . S
C0 C38 1.389 . S
C1 C0 1.443 . S
C1 C2 1.340 . S
C1 H41 0.951 . S
C2 C1 1.340 . S
C2 C3 1.439 . S
C2 H42 0.950 . S
C3 C2 1.439 . S
C3 N4 1.374 . S
C3 C37 1.395 . S
N4 C0 1.376 . S
N4 C3 1.374 . S
N4 Co5 2.008 . S
Co5 N4 2.008 . S
Co5 N6 1.995 . S
Co5 N11 2.008 . S
Co5 N16 1.995 . S
Co5 N21 2.282 . S
Co5 N27 2.282 . S
N6 Co5 1.995 . S
N6 C7 1.376 . S
N6 C10 1.383 . S
C7 N6 1.376 . S
C7 C8 1.446 . S
C7 C37 1.391 . S
C8 C7 1.446 . S
C8 C9 1.339 . S
C8 H43 0.949 . S
C9 C8 1.339 . S
C9 C10 1.439 . S
C9 H44 0.950 . S
C10 N6 1.383 . S
C10 C9 1.439 . S
C10 C39 1.392 . S
N11 Co5 2.008 . S
N11 C12 1.376 . S
N11 C15 1.374 . S
C12 N11 1.376 . S
C12 C13 1.443 . S
C12 C39 1.389 . S
C13 C12 1.443 . S
C13 C14 1.340 . S
C13 H45 0.951 . S
C14 C13 1.340 . S
C14 C15 1.439 . S
C14 H46 0.950 . S
C15 N11 1.374 . S
C15 C14 1.439 . S
C15 C40 1.395 . S
N16 Co5 1.995 . S
N16 C17 1.376 . S
N16 C20 1.383 . S
C17 N16 1.376 . S
C17 C18 1.446 . S
C17 C40 1.391 . S
C18 C17 1.446 . S
C18 C19 1.339 . S
C18 H47 0.949 . S
C19 C18 1.339 . S
C19 C20 1.439 . S
C19 H48 0.950 . S
C20 N16 1.383 . S
C20 C19 1.439 . S
C20 C38 1.392 . S
N21 Co5 2.282 . S
N21 C24 1.332 . S
N21 C26 1.332 . S
C22 C23 1.386 . S
C22 C25 1.388 . S
C23 C22 1.386 . S
C23 C24 1.382 . S
C23 H49 0.950 . S
C24 N21 1.332 . S
C24 C23 1.382 . S
C24 H35 0.952 . S
C25 C22 1.388 . S
C25 C26 1.382 . S
C25 H50 0.950 . S
C26 N21 1.332 . S
C26 C25 1.382 . S
C26 H36 0.948 . S
N27 Co5 2.282 . S
N27 C31 1.332 . S
N27 C32 1.332 . S
C28 C29 1.388 . S
C28 C32 1.382 . S
C28 H51 0.950 . S
C29 C28 1.388 . S
C29 C30 1.386 . S
C30 C29 1.386 . S
C30 C31 1.382 . S
C30 H52 0.950 . S
C31 N27 1.332 . S
C31 C30 1.382 . S
C31 H33 0.952 . S
C32 N27 1.332 . S
C32 C28 1.382 . S
C32 H34 0.948 . S
H33 C31 0.952 . S
H34 C32 0.948 . S
H35 C24 0.952 . S
H36 C26 0.948 . S
C37 C3 1.395 . S
C37 C7 1.391 . S
C38 C0 1.389 . S
C38 C20 1.392 . S
C39 C10 1.392 . S
C39 C12 1.389 . S
C40 C15 1.395 . S
C40 C17 1.391 . S
H41 C1 0.951 . S
H42 C2 0.950 . S
H43 C8 0.949 . S
H44 C9 0.950 . S
H45 C13 0.951 . S
H46 C14 0.950 . S
H47 C18 0.949 . S
H48 C19 0.950 . S
H49 C23 0.950 . S
H50 C25 0.950 . S
H51 C28 0.950 . S
H52 C30 0.950 . S
C53 C54 1.443 . S
C53 N57 1.376 . S
C53 C91 1.389 . S
C54 C53 1.443 . S
C54 C55 1.340 . S
C54 H94 0.951 . S
C55 C54 1.340 . S
C55 C56 1.439 . S
C55 H95 0.950 . S
C56 C55 1.439 . S
C56 N57 1.374 . S
C56 C90 1.395 . S
N57 C53 1.376 . S
N57 C56 1.374 . S
N57 Co58 2.008 . S
Co58 N57 2.008 . S
Co58 N59 1.995 . S
Co58 N64 2.008 . S
Co58 N69 1.995 . S
Co58 N74 2.282 . S
Co58 N80 2.282 . S
N59 Co58 1.995 . S
N59 C60 1.376 . S
N59 C63 1.383 . S
C60 N59 1.376 . S
C60 C61 1.446 . S
C60 C90 1.391 . S
C61 C60 1.446 . S
C61 C62 1.339 . S
C61 H96 0.949 . S
C62 C61 1.339 . S
C62 C63 1.439 . S
C62 H97 0.950 . S
C63 N59 1.383 . S
C63 C62 1.439 . S
C63 C92 1.392 . S
N64 Co58 2.008 . S
N64 C65 1.376 . S
N64 C68 1.374 . S
C65 N64 1.376 . S
C65 C66 1.443 . S
C65 C92 1.389 . S
C66 C65 1.443 . S
C66 C67 1.340 . S
C66 H98 0.951 . S
C67 C66 1.340 . S
C67 C68 1.439 . S
C67 H99 0.950 . S
C68 N64 1.374 . S
C68 C67 1.439 . S
C68 C93 1.395 . S
N69 Co58 1.995 . S
N69 C70 1.376 . S
N69 C73 1.383 . S
C70 N69 1.376 . S
C70 C71 1.446 . S
C70 C93 1.391 . S
C71 C70 1.446 . S
C71 C72 1.339 . S
C71 H100 0.949 . S
C72 C71 1.339 . S
C72 C73 1.439 . S
C72 H101 0.950 . S
C73 N69 1.383 . S
C73 C72 1.439 . S
C73 C91 1.392 . S
N74 Co58 2.282 . S
N74 C77 1.332 . S
N74 C79 1.332 . S
C75 C76 1.386 . S
C75 C78 1.388 . S
C76 C75 1.386 . S
C76 C77 1.382 . S
C76 H102 0.950 . S
C77 N74 1.332 . S
C77 C76 1.382 . S
C77 H88 0.952 . S
C78 C75 1.388 . S
C78 C79 1.382 . S
C78 H103 0.950 . S
C79 N74 1.332 . S
C79 C78 1.382 . S
C79 H89 0.948 . S
N80 Co58 2.282 . S
N80 C84 1.332 . S
N80 C85 1.332 . S
C81 C82 1.388 . S
C81 C85 1.382 . S
C81 H104 0.950 . S
C82 C81 1.388 . S
C82 C83 1.386 . S
C83 C82 1.386 . S
C83 C84 1.382 . S
C83 H105 0.950 . S
C84 N80 1.332 . S
C84 C83 1.382 . S
C84 H86 0.952 . S
C85 N80 1.332 . S
C85 C81 1.382 . S
C85 H87 0.948 . S
H86 C84 0.952 . S
H87 C85 0.948 . S
H88 C77 0.952 . S
H89 C79 0.948 . S
C90 C56 1.395 . S
C90 C60 1.391 . S
C91 C53 1.389 . S
C91 C73 1.392 . S
C92 C63 1.392 . S
C92 C65 1.389 . S
C93 C68 1.395 . S
C93 C70 1.391 . S
H94 C54 0.951 . S
H95 C55 0.950 . S
H96 C61 0.949 . S
H97 C62 0.950 . S
H98 C66 0.951 . S
H99 C67 0.950 . S
H100 C71 0.949 . S
H101 C72 0.950 . S
H102 C76 0.950 . S
H103 C78 0.950 . S
H104 C81 0.950 . S
H105 C83 0.950 . S
C106 C107 1.443 . S
C106 N110 1.376 . S
C106 C144 1.389 . S
C107 C106 1.443 . S
C107 C108 1.340 . S
C107 H147 0.951 . S
C108 C107 1.340 . S
C108 C109 1.439 . S
C108 H148 0.950 . S
C109 C108 1.439 . S
C109 N110 1.374 . S
C109 C143 1.395 . S
N110 C106 1.376 . S
N110 C109 1.374 . S
N110 Co111 2.008 . S
Co111 N110 2.008 . S
Co111 N112 1.995 . S
Co111 N117 2.008 . S
Co111 N122 1.995 . S
Co111 N127 2.282 . S
Co111 N133 2.282 . S
N112 Co111 1.995 . S
N112 C113 1.376 . S
N112 C116 1.383 . S
C113 N112 1.376 . S
C113 C114 1.446 . S
C113 C143 1.391 . S
C114 C113 1.446 . S
C114 C115 1.339 . S
C114 H149 0.949 . S
C115 C114 1.339 . S
C115 C116 1.439 . S
C115 H150 0.950 . S
C116 N112 1.383 . S
C116 C115 1.439 . S
C116 C145 1.392 . S
N117 Co111 2.008 . S
N117 C118 1.376 . S
N117 C121 1.374 . S
C118 N117 1.376 . S
C118 C119 1.443 . S
C118 C145 1.389 . S
C119 C118 1.443 . S
C119 C120 1.340 . S
C119 H151 0.951 . S
C120 C119 1.340 . S
C120 C121 1.439 . S
C120 H152 0.950 . S
C121 N117 1.374 . S
C121 C120 1.439 . S
C121 C146 1.395 . S
N122 Co111 1.995 . S
N122 C123 1.376 . S
N122 C126 1.383 . S
C123 N122 1.376 . S
C123 C124 1.446 . S
C123 C146 1.391 . S
C124 C123 1.446 . S
C124 C125 1.339 . S
C124 H153 0.949 . S
C125 C124 1.339 . S
C125 C126 1.439 . S
C125 H154 0.950 . S
C126 N122 1.383 . S
C126 C125 1.439 . S
C126 C144 1.392 . S
N127 Co111 2.282 . S
N127 C130 1.332 . S
N127 C132 1.332 . S
C128 C129 1.386 . S
C128 C131 1.388 . S
C129 C128 1.386 . S
C129 C130 1.382 . S
C129 H155 0.950 . S
C130 N127 1.332 . S
C130 C129 1.382 . S
C130 H141 0.952 . S
C131 C128 1.388 . S
C131 C132 1.382 . S
C131 H156 0.950 . S
C132 N127 1.332 . S
C132 C131 1.382 . S
C132 H142 0.948 . S
N133 Co111 2.282 . S
N133 C137 1.332 . S
N133 C138 1.332 . S
C134 C135 1.388 . S
C134 C138 1.382 . S
C134 H157 0.950 . S
C135 C134 1.388 . S
C135 C136 1.386 . S
C136 C135 1.386 . S
C136 C137 1.382 . S
C136 H158 0.950 . S
C137 N133 1.332 . S
C137 C136 1.382 . S
C137 H139 0.952 . S
C138 N133 1.332 . S
C138 C134 1.382 . S
C138 H140 0.948 . S
H139 C137 0.952 . S
H140 C138 0.948 . S
H141 C130 0.952 . S
H142 C132 0.948 . S
C143 C109 1.395 . S
C143 C113 1.391 . S
C144 C106 1.389 . S
C144 C126 1.392 . S
C145 C116 1.392 . S
C145 C118 1.389 . S
C146 C121 1.395 . S
C146 C123 1.391 . S
H147 C107 0.951 . S
H148 C108 0.950 . S
H149 C114 0.949 . S
H150 C115 0.950 . S
H151 C119 0.951 . S
H152 C120 0.950 . S
H153 C124 0.949 . S
H154 C125 0.950 . S
H155 C129 0.950 . S
H156 C131 0.950 . S
H157 C134 0.950 . S
H158 C136 0.950 . S
C159 C160 1.443 . S
C159 N163 1.376 . S
C159 C197 1.389 . S
C160 C159 1.443 . S
C160 C161 1.340 . S
C160 H200 0.951 . S
C161 C160 1.340 . S
C161 C162 1.439 . S
C161 H201 0.950 . S
C162 C161 1.439 . S
C162 N163 1.374 . S
C162 C196 1.395 . S
N163 C159 1.376 . S
N163 C162 1.374 . S
N163 Co164 2.008 . S
Co164 N163 2.008 . S
Co164 N165 1.995 . S
Co164 N170 2.008 . S
Co164 N175 1.995 . S
Co164 N180 2.282 . S
Co164 N186 2.282 . S
N165 Co164 1.995 . S
N165 C166 1.376 . S
N165 C169 1.383 . S
C166 N165 1.376 . S
C166 C167 1.446 . S
C166 C196 1.391 . S
C167 C166 1.446 . S
C167 C168 1.339 . S
C167 H202 0.949 . S
C168 C167 1.339 . S
C168 C169 1.439 . S
C168 H203 0.950 . S
C169 N165 1.383 . S
C169 C168 1.439 . S
C169 C198 1.392 . S
N170 Co164 2.008 . S
N170 C171 1.376 . S
N170 C174 1.374 . S
C171 N170 1.376 . S
C171 C172 1.443 . S
C171 C198 1.389 . S
C172 C171 1.443 . S
C172 C173 1.340 . S
C172 H204 0.951 . S
C173 C172 1.340 . S
C173 C174 1.439 . S
C173 H205 0.950 . S
C174 N170 1.374 . S
C174 C173 1.439 . S
C174 C199 1.395 . S
N175 Co164 1.995 . S
N175 C176 1.376 . S
N175 C179 1.383 . S
C176 N175 1.376 . S
C176 C177 1.446 . S
C176 C199 1.391 . S
C177 C176 1.446 . S
C177 C178 1.339 . S
C177 H206 0.949 . S
C178 C177 1.339 . S
C178 C179 1.439 . S
C178 H207 0.950 . S
C179 N175 1.383 . S
C179 C178 1.439 . S
C179 C197 1.392 . S
N180 Co164 2.282 . S
N180 C183 1.332 . S
N180 C185 1.332 . S
C181 C182 1.386 . S
C181 C184 1.388 . S
C182 C181 1.386 . S
C182 C183 1.382 . S
C182 H208 0.950 . S
C183 N180 1.332 . S
C183 C182 1.382 . S
C183 H194 0.952 . S
C184 C181 1.388 . S
C184 C185 1.382 . S
C184 H209 0.950 . S
C185 N180 1.332 . S
C185 C184 1.382 . S
C185 H195 0.948 . S
N186 Co164 2.282 . S
N186 C190 1.332 . S
N186 C191 1.332 . S
C187 C188 1.388 . S
C187 C191 1.382 . S
C187 H210 0.950 . S
C188 C187 1.388 . S
C188 C189 1.386 . S
C189 C188 1.386 . S
C189 C190 1.382 . S
C189 H211 0.950 . S
C190 N186 1.332 . S
C190 C189 1.382 . S
C190 H192 0.952 . S
C191 N186 1.332 . S
C191 C187 1.382 . S
C191 H193 0.948 . S
H192 C190 0.952 . S
H193 C191 0.948 . S
H194 C183 0.952 . S
H195 C185 0.948 . S
C196 C162 1.395 . S
C196 C166 1.391 . S
C197 C159 1.389 . S
C197 C179 1.392 . S
C198 C169 1.392 . S
C198 C171 1.389 . S
C199 C174 1.395 . S
C199 C176 1.391 . S
H200 C160 0.951 . S
H201 C161 0.950 . S
H202 C167 0.949 . S
H203 C168 0.950 . S
H204 C172 0.951 . S
H205 C173 0.950 . S
H206 C177 0.949 . S
H207 C178 0.950 . S
H208 C182 0.950 . S
H209 C184 0.950 . S
H210 C187 0.950 . S
H211 C189 0.950 . S
C212 C213 1.443 . S
C212 N216 1.376 . S
C212 C250 1.389 . S
C213 C212 1.443 . S
C213 C214 1.340 . S
C213 H253 0.951 . S
C214 C213 1.340 . S
C214 C215 1.439 . S
C214 H254 0.950 . S
C215 C214 1.439 . S
C215 N216 1.374 . S
C215 C249 1.395 . S
N216 C212 1.376 . S
N216 C215 1.374 . S
N216 Co217 2.008 . S
Co217 N216 2.008 . S
Co217 N218 1.995 . S
Co217 N223 2.008 . S
Co217 N228 1.995 . S
Co217 N233 2.282 . S
Co217 N239 2.282 . S
N218 Co217 1.995 . S
N218 C219 1.376 . S
N218 C222 1.383 . S
C219 N218 1.376 . S
C219 C220 1.446 . S
C219 C249 1.391 . S
C220 C219 1.446 . S
C220 C221 1.339 . S
C220 H255 0.949 . S
C221 C220 1.339 . S
C221 C222 1.439 . S
C221 H256 0.950 . S
C222 N218 1.383 . S
C222 C221 1.439 . S
C222 C251 1.392 . S
N223 Co217 2.008 . S
N223 C224 1.376 . S
N223 C227 1.374 . S
C224 N223 1.376 . S
C224 C225 1.443 . S
C224 C251 1.389 . S
C225 C224 1.443 . S
C225 C226 1.340 . S
C225 H257 0.951 . S
C226 C225 1.340 . S
C226 C227 1.439 . S
C226 H258 0.950 . S
C227 N223 1.374 . S
C227 C226 1.439 . S
C227 C252 1.395 . S
N228 Co217 1.995 . S
N228 C229 1.376 . S
N228 C232 1.383 . S
C229 N228 1.376 . S
C229 C230 1.446 . S
C229 C252 1.391 . S
C230 C229 1.446 . S
C230 C231 1.339 . S
C230 H259 0.949 . S
C231 C230 1.339 . S
C231 C232 1.439 . S
C231 H260 0.950 . S
C232 N228 1.383 . S
C232 C231 1.439 . S
C232 C250 1.392 . S
N233 Co217 2.282 . S
N233 C236 1.332 . S
N233 C238 1.332 . S
C234 C235 1.386 . S
C234 C237 1.388 . S
C235 C234 1.386 . S
C235 C236 1.382 . S
C235 H261 0.950 . S
C236 N233 1.332 . S
C236 C235 1.382 . S
C236 H247 0.952 . S
C237 C234 1.388 . S
C237 C238 1.382 . S
C237 H262 0.950 . S
C238 N233 1.332 . S
C238 C237 1.382 . S
C238 H248 0.948 . S
N239 Co217 2.282 . S
N239 C243 1.332 . S
N239 C244 1.332 . S
C240 C241 1.388 . S
C240 C244 1.382 . S
C240 H263 0.950 . S
C241 C240 1.388 . S
C241 C242 1.386 . S
C242 C241 1.386 . S
C242 C243 1.382 . S
C242 H264 0.950 . S
C243 N239 1.332 . S
C243 C242 1.382 . S
C243 H245 0.952 . S
C244 N239 1.332 . S
C244 C240 1.382 . S
C244 H246 0.948 . S
H245 C243 0.952 . S
H246 C244 0.948 . S
H247 C236 0.952 . S
H248 C238 0.948 . S
C249 C215 1.395 . S
C249 C219 1.391 . S
C250 C212 1.389 . S
C250 C232 1.392 . S
C251 C222 1.392 . S
C251 C224 1.389 . S
C252 C227 1.395 . S
C252 C229 1.391 . S
H253 C213 0.951 . S
H254 C214 0.950 . S
H255 C220 0.949 . S
H256 C221 0.950 . S
H257 C225 0.951 . S
H258 C226 0.950 . S
H259 C230 0.949 . S
H260 C231 0.950 . S
H261 C235 0.950 . S
H262 C237 0.950 . S
H263 C240 0.950 . S
H264 C242 0.950 . S
C265 C266 1.443 . S
C265 N269 1.376 . S
C265 C303 1.389 . S
C266 C265 1.443 . S
C266 C267 1.340 . S
C266 H306 0.951 . S
C267 C266 1.340 . S
C267 C268 1.439 . S
C267 H307 0.950 . S
C268 C267 1.439 . S
C268 N269 1.374 . S
C268 C302 1.395 . S
N269 C265 1.376 . S
N269 C268 1.374 . S
N269 Co270 2.008 . S
Co270 N269 2.008 . S
Co270 N271 1.995 . S
Co270 N276 2.008 . S
Co270 N281 1.995 . S
Co270 N286 2.282 . S
Co270 N292 2.282 . S
N271 Co270 1.995 . S
N271 C272 1.376 . S
N271 C275 1.383 . S
C272 N271 1.376 . S
C272 C273 1.446 . S
C272 C302 1.391 . S
C273 C272 1.446 . S
C273 C274 1.339 . S
C273 H308 0.949 . S
C274 C273 1.339 . S
C274 C275 1.439 . S
C274 H309 0.950 . S
C275 N271 1.383 . S
C275 C274 1.439 . S
C275 C304 1.392 . S
N276 Co270 2.008 . S
N276 C277 1.376 . S
N276 C280 1.374 . S
C277 N276 1.376 . S
C277 C278 1.443 . S
C277 C304 1.389 . S
C278 C277 1.443 . S
C278 C279 1.340 . S
C278 H310 0.951 1_556 S
C279 C278 1.340 . S
C279 C280 1.439 . S
C279 H311 0.932 1_556 S
C280 N276 1.374 . S
C280 C279 1.439 . S
C280 C305 1.395 . S
N281 Co270 1.995 . S
N281 C282 1.376 . S
N281 C285 1.383 . S
C282 N281 1.376 . S
C282 C283 1.446 . S
C282 C305 1.391 . S
C283 C282 1.446 . S
C283 C284 1.339 . S
C283 H312 0.949 . S
C284 C283 1.339 . S
C284 C285 1.439 . S
C284 H313 0.950 . S
C285 N281 1.383 . S
C285 C284 1.439 . S
C285 C303 1.392 . S
N286 Co270 2.282 . S
N286 C289 1.332 . S
N286 C291 1.332 . S
C287 C288 1.386 . S
C287 C290 1.388 . S
C288 C287 1.386 . S
C288 C289 1.382 . S
C288 H314 0.950 . S
C289 N286 1.332 . S
C289 C288 1.382 . S
C289 H300 0.952 . S
C290 C287 1.388 . S
C290 C291 1.382 . S
C290 H315 0.950 . S
C291 N286 1.332 . S
C291 C290 1.382 . S
C291 H301 0.948 . S
N292 Co270 2.282 . S
N292 C296 1.332 . S
N292 C297 1.332 . S
C293 C294 1.388 . S
C293 C297 1.382 . S
C293 H316 0.950 . S
C294 C293 1.388 . S
C294 C295 1.386 . S
C295 C294 1.386 . S
C295 C296 1.382 . S
C295 H317 0.950 . S
C296 N292 1.332 . S
C296 C295 1.382 . S
C296 H298 0.952 . S
C297 N292 1.332 . S
C297 C293 1.382 . S
C297 H299 0.948 . S
H298 C296 0.952 . S
H299 C297 0.948 . S
H300 C289 0.952 . S
H301 C291 0.948 . S
C302 C268 1.395 . S
C302 C272 1.391 . S
C303 C265 1.389 . S
C303 C285 1.392 . S
C304 C275 1.392 . S
C304 C277 1.389 . S
C305 C280 1.395 . S
C305 C282 1.391 . S
H306 C266 0.951 . S
H307 C267 0.950 . S
H308 C273 0.949 . S
H309 C274 0.950 . S
H310 C278 0.951 1_554 S
H311 C279 0.932 1_554 S
H312 C283 0.949 . S
H313 C284 0.950 . S
H314 C288 0.950 . S
H315 C290 0.950 . S
H316 C293 0.950 . S
H317 C295 0.950 . S
C318 C319 1.443 . S
C318 N322 1.376 . S
C318 C356 1.389 . S
C319 C318 1.443 . S
C319 C320 1.340 . S
C319 H359 0.951 . S
C320 C319 1.340 . S
C320 C321 1.439 . S
C320 H360 0.950 . S
C321 C320 1.439 . S
C321 N322 1.374 . S
C321 C355 1.395 . S
N322 C318 1.376 . S
N322 C321 1.374 . S
N322 Co323 2.008 . S
Co323 N322 2.008 . S
Co323 N324 1.995 . S
Co323 N329 2.008 . S
Co323 N334 1.995 . S
Co323 N339 2.282 . S
Co323 N345 2.282 . S
N324 Co323 1.995 . S
N324 C325 1.376 . S
N324 C328 1.383 . S
C325 N324 1.376 . S
C325 C326 1.446 . S
C325 C355 1.391 . S
C326 C325 1.446 . S
C326 C327 1.339 . S
C326 H361 0.949 . S
C327 C326 1.339 . S
C327 C328 1.439 . S
C327 H362 0.950 . S
C328 N324 1.383 . S
C328 C327 1.439 . S
C328 C357 1.392 . S
N329 Co323 2.008 . S
N329 C330 1.376 . S
N329 C333 1.374 . S
C330 N329 1.376 . S
C330 C331 1.443 . S
C330 C357 1.389 . S
C331 C330 1.443 . S
C331 C332 1.340 . S
C331 H363 0.951 . S
C332 C331 1.340 . S
C332 C333 1.439 . S
C332 H364 0.950 . S
C333 N329 1.374 . S
C333 C332 1.439 . S
C333 C358 1.395 . S
N334 Co323 1.995 . S
N334 C335 1.376 . S
N334 C338 1.383 . S
C335 N334 1.376 . S
C335 C336 1.446 . S
C335 C358 1.391 . S
C336 C335 1.446 . S
C336 C337 1.339 . S
C336 H365 0.949 . S
C337 C336 1.339 . S
C337 C338 1.439 . S
C337 H366 0.950 . S
C338 N334 1.383 . S
C338 C337 1.439 . S
C338 C356 1.392 . S
N339 Co323 2.282 . S
N339 C342 1.332 . S
N339 C344 1.332 . S
C340 C341 1.386 . S
C340 C343 1.388 . S
C341 C340 1.386 . S
C341 C342 1.382 . S
C341 H367 0.950 . S
C342 N339 1.332 . S
C342 C341 1.382 . S
C342 H353 0.952 . S
C343 C340 1.388 . S
C343 C344 1.382 . S
C343 H368 0.950 . S
C344 N339 1.332 . S
C344 C343 1.382 . S
C344 H354 0.948 . S
N345 Co323 2.282 . S
N345 C349 1.332 . S
N345 C350 1.332 . S
C346 C347 1.388 . S
C346 C350 1.382 . S
C346 H369 0.950 . S
C347 C346 1.388 . S
C347 C348 1.386 . S
C348 C347 1.386 . S
C348 C349 1.382 . S
C348 H370 0.950 . S
C349 N345 1.332 . S
C349 C348 1.382 . S
C349 H351 0.952 . S
C350 N345 1.332 . S
C350 C346 1.382 . S
C350 H352 0.948 . S
H351 C349 0.952 . S
H352 C350 0.948 . S
H353 C342 0.952 . S
H354 C344 0.948 . S
C355 C321 1.395 . S
C355 C325 1.391 . S
C356 C318 1.389 . S
C356 C338 1.392 . S
C357 C328 1.392 . S
C357 C330 1.389 . S
C358 C333 1.395 . S
C358 C335 1.391 . S
H359 C319 0.951 . S
H360 C320 0.950 . S
H361 C326 0.949 . S
H362 C327 0.950 . S
H363 C331 0.951 . S
H364 C332 0.950 . S
H365 C336 0.949 . S
H366 C337 0.950 . S
H367 C341 0.950 . S
H368 C343 0.950 . S
H369 C346 0.950 . S
H370 C348 0.950 . S
C371 C372 1.443 . S
C371 N375 1.376 . S
C371 C409 1.389 . S
C372 C371 1.443 . S
C372 C373 1.340 . S
C372 H412 0.951 . S
C373 C372 1.340 . S
C373 C374 1.439 . S
C373 H413 0.950 . S
C374 C373 1.439 . S
C374 N375 1.374 . S
C374 C408 1.395 . S
N375 C371 1.376 . S
N375 C374 1.374 . S
N375 Co376 2.008 . S
Co376 N375 2.008 . S
Co376 N377 1.995 . S
Co376 N382 2.008 . S
Co376 N387 1.995 . S
Co376 N392 2.282 . S
Co376 N398 2.282 . S
N377 Co376 1.995 . S
N377 C378 1.376 . S
N377 C381 1.383 . S
C378 N377 1.376 . S
C378 C379 1.446 . S
C378 C408 1.391 . S
C379 C378 1.446 . S
C379 C380 1.339 . S
C379 H414 0.949 . S
C380 C379 1.339 . S
C380 C381 1.439 . S
C380 H415 0.950 . S
C381 N377 1.383 . S
C381 C380 1.439 . S
C381 C410 1.392 . S
N382 Co376 2.008 . S
N382 C383 1.376 . S
N382 C386 1.374 . S
C383 N382 1.376 . S
C383 C384 1.443 . S
C383 C410 1.389 . S
C384 C383 1.443 . S
C384 C385 1.340 . S
C384 H416 0.951 . S
C385 C384 1.340 . S
C385 C386 1.439 . S
C385 H417 0.950 . S
C386 N382 1.374 . S
C386 C385 1.439 . S
C386 C411 1.395 . S
N387 Co376 1.995 . S
N387 C388 1.376 . S
N387 C391 1.383 . S
C388 N387 1.376 . S
C388 C389 1.446 . S
C388 C411 1.391 . S
C389 C388 1.446 . S
C389 C390 1.339 . S
C389 H418 0.949 . S
C390 C389 1.339 . S
C390 C391 1.439 . S
C390 H419 0.950 . S
C391 N387 1.383 . S
C391 C390 1.439 . S
C391 C409 1.392 . S
N392 Co376 2.282 . S
N392 C395 1.332 . S
N392 C397 1.332 . S
C393 C394 1.386 . S
C393 C396 1.388 . S
C394 C393 1.386 . S
C394 C395 1.382 . S
C394 H420 0.950 . S
C395 N392 1.332 . S
C395 C394 1.382 . S
C395 H406 0.952 . S
C396 C393 1.388 . S
C396 C397 1.382 . S
C396 H421 0.950 . S
C397 N392 1.332 . S
C397 C396 1.382 . S
C397 H407 0.948 . S
N398 Co376 2.282 . S
N398 C402 1.332 . S
N398 C403 1.332 . S
C399 C400 1.388 . S
C399 C403 1.382 . S
C399 H422 0.950 . S
C400 C399 1.388 . S
C400 C401 1.386 . S
C401 C400 1.386 . S
C401 C402 1.382 . S
C401 H423 0.950 . S
C402 N398 1.332 . S
C402 C401 1.382 . S
C402 H404 0.952 . S
C403 N398 1.332 . S
C403 C399 1.382 . S
C403 H405 0.948 . S
H404 C402 0.952 . S
H405 C403 0.948 . S
H406 C395 0.952 . S
H407 C397 0.948 . S
C408 C374 1.395 . S
C408 C378 1.391 . S
C409 C371 1.389 . S
C409 C391 1.392 . S
C410 C381 1.392 . S
C410 C383 1.389 . S
C411 C386 1.395 . S
C411 C388 1.391 . S
H412 C372 0.951 . S
H413 C373 0.950 . S
H414 C379 0.949 . S
H415 C380 0.950 . S
H416 C384 0.951 . S
H417 C385 0.950 . S
H418 C389 0.949 . S
H419 C390 0.950 . S
H420 C394 0.950 . S
H421 C396 0.950 . S
H422 C399 0.950 . S
H423 C401 0.950 . S
C424 C425 1.443 . S
C424 N428 1.376 . S
C424 C462 1.389 . S
C425 C424 1.443 . S
C425 C426 1.340 . S
C425 H465 0.951 . S
C426 C425 1.340 . S
C426 C427 1.439 . S
C426 H466 0.950 . S
C427 C426 1.439 . S
C427 N428 1.374 . S
C427 C461 1.395 . S
N428 C424 1.376 . S
N428 C427 1.374 . S
N428 Co429 2.008 . S
Co429 N428 2.008 . S
Co429 N430 1.995 . S
Co429 N435 2.008 . S
Co429 N440 1.995 . S
Co429 N445 2.282 . S
Co429 N451 2.282 . S
N430 Co429 1.995 . S
N430 C431 1.376 . S
N430 C434 1.383 . S
C431 N430 1.376 . S
C431 C432 1.446 . S
C431 C461 1.391 . S
C432 C431 1.446 . S
C432 C433 1.339 . S
C432 H467 0.949 . S
C433 C432 1.339 . S
C433 C434 1.439 . S
C433 H468 0.950 . S
C434 N430 1.383 . S
C434 C433 1.439 . S
C434 C463 1.392 . S
N435 Co429 2.008 . S
N435 C436 1.376 . S
N435 C439 1.374 . S
C436 N435 1.376 . S
C436 C437 1.443 . S
C436 C463 1.389 . S
C437 C436 1.443 . S
C437 C438 1.340 . S
C437 H469 0.951 1_554 S
C438 C437 1.340 . S
C438 C439 1.439 . S
C438 H470 0.932 1_554 S
C439 N435 1.374 . S
C439 C438 1.439 . S
C439 C464 1.395 . S
N440 Co429 1.995 . S
N440 C441 1.376 . S
N440 C444 1.383 . S
C441 N440 1.376 . S
C441 C442 1.446 . S
C441 C464 1.391 . S
C442 C441 1.446 . S
C442 C443 1.339 . S
C442 H471 0.949 . S
C443 C442 1.339 . S
C443 C444 1.439 . S
C443 H472 0.950 . S
C444 N440 1.383 . S
C444 C443 1.439 . S
C444 C462 1.392 . S
N445 Co429 2.282 . S
N445 C448 1.332 . S
N445 C450 1.332 . S
C446 C447 1.386 . S
C446 C449 1.388 . S
C447 C446 1.386 . S
C447 C448 1.382 . S
C447 H473 0.950 . S
C448 N445 1.332 . S
C448 C447 1.382 . S
C448 H459 0.952 . S
C449 C446 1.388 . S
C449 C450 1.382 . S
C449 H474 0.950 . S
C450 N445 1.332 . S
C450 C449 1.382 . S
C450 H460 0.948 . S
N451 Co429 2.282 . S
N451 C455 1.332 . S
N451 C456 1.332 . S
C452 C453 1.388 . S
C452 C456 1.382 . S
C452 H475 0.950 . S
C453 C452 1.388 . S
C453 C454 1.386 . S
C454 C453 1.386 . S
C454 C455 1.382 . S
C454 H476 0.950 . S
C455 N451 1.332 . S
C455 C454 1.382 . S
C455 H457 0.952 . S
C456 N451 1.332 . S
C456 C452 1.382 . S
C456 H458 0.948 . S
H457 C455 0.952 . S
H458 C456 0.948 . S
H459 C448 0.952 . S
H460 C450 0.948 . S
C461 C427 1.395 . S
C461 C431 1.391 . S
C462 C424 1.389 . S
C462 C444 1.392 . S
C463 C434 1.392 . S
C463 C436 1.389 . S
C464 C439 1.395 . S
C464 C441 1.391 . S
H465 C425 0.951 . S
H466 C426 0.950 . S
H467 C432 0.949 . S
H468 C433 0.950 . S
H469 C437 0.951 1_556 S
H470 C438 0.932 1_556 S
H471 C442 0.949 . S
H472 C443 0.950 . S
H473 C447 0.950 . S
H474 C449 0.950 . S
H475 C452 0.950 . S
H476 C454 0.950 . S
C477 C478 1.443 . S
C477 N481 1.376 . S
C477 C515 1.389 . S
C478 C477 1.443 . S
C478 C479 1.340 . S
C478 H518 0.951 . S
C479 C478 1.340 . S
C479 C480 1.439 . S
C479 H519 0.950 . S
C480 C479 1.439 . S
C480 N481 1.374 . S
C480 C514 1.395 . S
N481 C477 1.376 . S
N481 C480 1.374 . S
N481 Co482 2.008 . S
Co482 N481 2.008 . S
Co482 N483 1.995 . S
Co482 N488 2.008 . S
Co482 N493 1.995 . S
Co482 N498 2.282 . S
Co482 N504 2.282 . S
N483 Co482 1.995 . S
N483 C484 1.376 . S
N483 C487 1.383 . S
C484 N483 1.376 . S
C484 C485 1.446 . S
C484 C514 1.391 . S
C485 C484 1.446 . S
C485 C486 1.339 . S
C485 H520 0.949 . S
C486 C485 1.339 . S
C486 C487 1.439 . S
C486 H521 0.950 . S
C487 N483 1.383 . S
C487 C486 1.439 . S
C487 C516 1.392 . S
N488 Co482 2.008 . S
N488 C489 1.376 . S
N488 C492 1.374 . S
C489 N488 1.376 . S
C489 C490 1.443 . S
C489 C516 1.389 . S
C490 C489 1.443 . S
C490 C491 1.340 . S
C490 H522 0.951 . S
C491 C490 1.340 . S
C491 C492 1.439 . S
C491 H523 0.950 . S
C492 N488 1.374 . S
C492 C491 1.439 . S
C492 C517 1.395 . S
N493 Co482 1.995 . S
N493 C494 1.376 . S
N493 C497 1.383 . S
C494 N493 1.376 . S
C494 C495 1.446 . S
C494 C517 1.391 . S
C495 C494 1.446 . S
C495 C496 1.339 . S
C495 H524 0.949 . S
C496 C495 1.339 . S
C496 C497 1.439 . S
C496 H525 0.950 . S
C497 N493 1.383 . S
C497 C496 1.439 . S
C497 C515 1.392 . S
N498 Co482 2.282 . S
N498 C501 1.332 . S
N498 C503 1.332 . S
C499 C500 1.386 . S
C499 C502 1.388 . S
C500 C499 1.386 . S
C500 C501 1.382 . S
C500 H526 0.950 . S
C501 N498 1.332 . S
C501 C500 1.382 . S
C501 H512 0.952 . S
C502 C499 1.388 . S
C502 C503 1.382 . S
C502 H527 0.950 . S
C503 N498 1.332 . S
C503 C502 1.382 . S
C503 H513 0.948 . S
N504 Co482 2.282 . S
N504 C508 1.332 . S
N504 C509 1.332 . S
C505 C506 1.388 . S
C505 C509 1.382 . S
C505 H528 0.950 . S
C506 C505 1.388 . S
C506 C507 1.386 . S
C507 C506 1.386 . S
C507 C508 1.382 . S
C507 H529 0.950 . S
C508 N504 1.332 . S
C508 C507 1.382 . S
C508 H510 0.952 . S
C509 N504 1.332 . S
C509 C505 1.382 . S
C509 H511 0.948 . S
H510 C508 0.952 . S
H511 C509 0.948 . S
H512 C501 0.952 . S
H513 C503 0.948 . S
C514 C480 1.395 . S
C514 C484 1.391 . S
C515 C477 1.389 . S
C515 C497 1.392 . S
C516 C487 1.392 . S
C516 C489 1.389 . S
C517 C492 1.395 . S
C517 C494 1.391 . S
H518 C478 0.951 . S
H519 C479 0.950 . S
H520 C485 0.949 . S
H521 C486 0.950 . S
H522 C490 0.951 . S
H523 C491 0.950 . S
H524 C495 0.949 . S
H525 C496 0.950 . S
H526 C500 0.950 . S
H527 C502 0.950 . S
H528 C505 0.950 . S
H529 C507 0.950 . S
C530 C531 1.443 . S
C530 N534 1.376 . S
C530 C568 1.389 . S
C531 C530 1.443 . S
C531 C532 1.340 . S
C531 H571 0.951 . S
C532 C531 1.340 . S
C532 C533 1.439 . S
C532 H572 0.950 . S
C533 C532 1.439 . S
C533 N534 1.374 . S
C533 C567 1.395 . S
N534 C530 1.376 . S
N534 C533 1.374 . S
N534 Co535 2.008 . S
Co535 N534 2.008 . S
Co535 N536 1.995 . S
Co535 N541 2.008 . S
Co535 N546 1.995 . S
Co535 N551 2.282 . S
Co535 N557 2.282 . S
N536 Co535 1.995 . S
N536 C537 1.376 . S
N536 C540 1.383 . S
C537 N536 1.376 . S
C537 C538 1.446 . S
C537 C567 1.391 . S
C538 C537 1.446 . S
C538 C539 1.339 . S
C538 H573 0.949 . S
C539 C538 1.339 . S
C539 C540 1.439 . S
C539 H574 0.950 . S
C540 N536 1.383 . S
C540 C539 1.439 . S
C540 C569 1.392 . S
N541 Co535 2.008 . S
N541 C542 1.376 . S
N541 C545 1.374 . S
C542 N541 1.376 . S
C542 C543 1.443 . S
C542 C569 1.389 . S
C543 C542 1.443 . S
C543 C544 1.340 . S
C543 H575 0.951 . S
C544 C543 1.340 . S
C544 C545 1.439 . S
C544 H576 0.950 . S
C545 N541 1.374 . S
C545 C544 1.439 . S
C545 C570 1.395 . S
N546 Co535 1.995 . S
N546 C547 1.376 . S
N546 C550 1.383 . S
C547 N546 1.376 . S
C547 C548 1.446 . S
C547 C570 1.391 . S
C548 C547 1.446 . S
C548 C549 1.339 . S
C548 H577 0.949 . S
C549 C548 1.339 . S
C549 C550 1.439 . S
C549 H578 0.950 . S
C550 N546 1.383 . S
C550 C549 1.439 . S
C550 C568 1.392 . S
N551 Co535 2.282 . S
N551 C554 1.332 . S
N551 C556 1.332 . S
C552 C553 1.386 . S
C552 C555 1.388 . S
C553 C552 1.386 . S
C553 C554 1.382 . S
C553 H579 0.950 . S
C554 N551 1.332 . S
C554 C553 1.382 . S
C554 H565 0.952 . S
C555 C552 1.388 . S
C555 C556 1.382 . S
C555 H580 0.950 . S
C556 N551 1.332 . S
C556 C555 1.382 . S
C556 H566 0.948 . S
N557 Co535 2.282 . S
N557 C561 1.332 . S
N557 C562 1.332 . S
C558 C559 1.388 . S
C558 C562 1.382 . S
C558 H581 0.950 . S
C559 C558 1.388 . S
C559 C560 1.386 . S
C560 C559 1.386 . S
C560 C561 1.382 . S
C560 H582 0.950 . S
C561 N557 1.332 . S
C561 C560 1.382 . S
C561 H563 0.952 . S
C562 N557 1.332 . S
C562 C558 1.382 . S
C562 H564 0.948 . S
H563 C561 0.952 . S
H564 C562 0.948 . S
H565 C554 0.952 . S
H566 C556 0.948 . S
C567 C533 1.395 . S
C567 C537 1.391 . S
C568 C530 1.389 . S
C568 C550 1.392 . S
C569 C540 1.392 . S
C569 C542 1.389 . S
C570 C545 1.395 . S
C570 C547 1.391 . S
H571 C531 0.951 . S
H572 C532 0.950 . S
H573 C538 0.949 . S
H574 C539 0.950 . S
H575 C543 0.951 . S
H576 C544 0.950 . S
H577 C548 0.949 . S
H578 C549 0.950 . S
H579 C553 0.950 . S
H580 C555 0.950 . S
H581 C558 0.950 . S
H582 C560 0.950 . S
C583 C584 1.443 . S
C583 N587 1.376 . S
C583 C621 1.389 . S
C584 C583 1.443 . S
C584 C585 1.340 . S
C584 H624 0.951 . S
C585 C584 1.340 . S
C585 C586 1.439 . S
C585 H625 0.950 . S
C586 C585 1.439 . S
C586 N587 1.374 . S
C586 C620 1.395 . S
N587 C583 1.376 . S
N587 C586 1.374 . S
N587 Co588 2.008 . S
Co588 N587 2.008 . S
Co588 N589 1.995 . S
Co588 N594 2.008 . S
Co588 N599 1.995 . S
Co588 N604 2.282 . S
Co588 N610 2.282 . S
N589 Co588 1.995 . S
N589 C590 1.376 . S
N589 C593 1.383 . S
C590 N589 1.376 . S
C590 C591 1.446 . S
C590 C620 1.391 . S
C591 C590 1.446 . S
C591 C592 1.339 . S
C591 H626 0.949 . S
C592 C591 1.339 . S
C592 C593 1.439 . S
C592 H627 0.950 . S
C593 N589 1.383 . S
C593 C592 1.439 . S
C593 C622 1.392 . S
N594 Co588 2.008 . S
N594 C595 1.376 . S
N594 C598 1.374 . S
C595 N594 1.376 . S
C595 C596 1.443 . S
C595 C622 1.389 . S
C596 C595 1.443 . S
C596 C597 1.340 . S
C596 H628 0.951 . S
C597 C596 1.340 . S
C597 C598 1.439 . S
C597 H629 0.950 . S
C598 N594 1.374 . S
C598 C597 1.439 . S
C598 C623 1.395 . S
N599 Co588 1.995 . S
N599 C600 1.376 . S
N599 C603 1.383 . S
C600 N599 1.376 . S
C600 C601 1.446 . S
C600 C623 1.391 . S
C601 C600 1.446 . S
C601 C602 1.339 . S
C601 H630 0.949 . S
C602 C601 1.339 . S
C602 C603 1.439 . S
C602 H631 0.950 . S
C603 N599 1.383 . S
C603 C602 1.439 . S
C603 C621 1.392 . S
N604 Co588 2.282 . S
N604 C607 1.332 . S
N604 C609 1.332 . S
C605 C606 1.386 . S
C605 C608 1.388 . S
C606 C605 1.386 . S
C606 C607 1.382 . S
C606 H632 0.950 . S
C607 N604 1.332 . S
C607 C606 1.382 . S
C607 H618 0.952 . S
C608 C605 1.388 . S
C608 C609 1.382 . S
C608 H633 0.950 . S
C609 N604 1.332 . S
C609 C608 1.382 . S
C609 H619 0.948 . S
N610 Co588 2.282 . S
N610 C614 1.332 . S
N610 C615 1.332 . S
C611 C612 1.388 . S
C611 C615 1.382 . S
C611 H634 0.950 . S
C612 C611 1.388 . S
C612 C613 1.386 . S
C613 C612 1.386 . S
C613 C614 1.382 . S
C613 H635 0.950 . S
C614 N610 1.332 . S
C614 C613 1.382 . S
C614 H616 0.952 . S
C615 N610 1.332 . S
C615 C611 1.382 . S
C615 H617 0.948 . S
H616 C614 0.952 . S
H617 C615 0.948 . S
H618 C607 0.952 . S
H619 C609 0.948 . S
C620 C586 1.395 . S
C620 C590 1.391 . S
C621 C583 1.389 . S
C621 C603 1.392 . S
C622 C593 1.392 . S
C622 C595 1.389 . S
C623 C598 1.395 . S
C623 C600 1.391 . S
H624 C584 0.951 . S
H625 C585 0.950 . S
H626 C591 0.949 . S
H627 C592 0.950 . S
H628 C596 0.951 . S
H629 C597 0.950 . S
H630 C601 0.949 . S
H631 C602 0.950 . S
H632 C606 0.950 . S
H633 C608 0.950 . S
H634 C611 0.950 . S
H635 C613 0.950 . S
H636 C642 0.930 . S
H637 C645 0.930 . S
H638 C646 0.930 . S
H639 C647 0.930 . S
H640 C650 0.930 . S
H641 C651 0.930 . S
C642 H636 0.930 . S
C642 C643 1.355 . S
C642 C644 1.415 . S
C643 C642 1.355 . S
C643 C645 1.419 . S
C644 C642 1.415 . S
C644 C649 1.425 . S
C644 C651 1.409 . S
C645 H637 0.930 . S
C645 C643 1.419 . S
C645 C646 1.362 . S
C646 H638 0.930 . S
C646 C645 1.362 . S
C646 C649 1.409 . S
C647 H639 0.930 . S
C647 C648 1.355 . S
C647 C649 1.415 . S
C648 C647 1.355 . S
C648 C650 1.419 . S
C649 C644 1.425 . S
C649 C646 1.409 . S
C649 C647 1.415 . S
C650 H640 0.930 . S
C650 C648 1.419 . S
C650 C651 1.362 . S
C651 H641 0.930 . S
C651 C644 1.409 . S
C651 C650 1.362 . S
H652 C658 0.930 . S
H653 C661 0.930 . S
H654 C662 0.930 . S
H655 C663 0.930 . S
H656 C666 0.930 . S
H657 C667 0.930 . S
C658 H652 0.930 . S
C658 C659 1.355 . S
C658 C660 1.415 . S
C659 C658 1.355 . S
C659 C661 1.419 . S
C660 C658 1.415 . S
C660 C665 1.425 . S
C660 C667 1.409 . S
C661 H653 0.930 . S
C661 C659 1.419 . S
C661 C662 1.362 . S
C662 H654 0.930 . S
C662 C661 1.362 . S
C662 C665 1.409 . S
C663 H655 0.930 . S
C663 C664 1.355 . S
C663 C665 1.415 . S
C664 C663 1.355 . S
C664 C666 1.419 . S
C665 C660 1.425 . S
C665 C662 1.409 . S
C665 C663 1.415 . S
C666 H656 0.930 . S
C666 C664 1.419 . S
C666 C667 1.362 . S
C667 H657 0.930 . S
C667 C660 1.409 . S
C667 C666 1.362 . S
H668 C674 0.930 . S
H669 C677 0.930 . S
H670 C678 0.930 . S
H671 C679 0.930 . S
H672 C682 0.930 . S
H673 C683 0.930 . S
C674 H668 0.930 . S
C674 C675 1.355 . S
C674 C676 1.415 . S
C675 C674 1.355 . S
C675 C677 1.419 . S
C676 C674 1.415 . S
C676 C681 1.425 . S
C676 C683 1.409 . S
C677 H669 0.930 . S
C677 C675 1.419 . S
C677 C678 1.362 . S
C678 H670 0.930 . S
C678 C677 1.362 . S
C678 C681 1.409 . S
C679 H671 0.930 . S
C679 C680 1.355 . S
C679 C681 1.415 . S
C680 C679 1.355 . S
C680 C682 1.419 . S
C681 C676 1.425 . S
C681 C678 1.409 . S
C681 C679 1.415 . S
C682 H672 0.930 . S
C682 C680 1.419 . S
C682 C683 1.362 . S
C683 H673 0.930 . S
C683 C676 1.409 . S
C683 C682 1.362 . S
H684 C690 0.930 . S
H685 C693 0.930 . S
H686 C694 0.930 . S
H687 C695 0.930 . S
H688 C698 0.930 . S
H689 C699 0.930 . S
C690 H684 0.930 . S
C690 C691 1.355 . S
C690 C692 1.415 . S
C691 C690 1.355 . S
C691 C693 1.419 . S
C692 C690 1.415 . S
C692 C697 1.425 . S
C692 C699 1.409 . S
C693 H685 0.930 . S
C693 C691 1.419 . S
C693 C694 1.362 . S
C694 H686 0.930 . S
C694 C693 1.362 . S
C694 C697 1.409 . S
C695 H687 0.930 . S
C695 C696 1.355 . S
C695 C697 1.415 . S
C696 C695 1.355 . S
C696 C698 1.419 . S
C697 C692 1.425 . S
C697 C694 1.409 . S
C697 C695 1.415 . S
C698 H688 0.930 . S
C698 C696 1.419 . S
C698 C699 1.362 . S
C699 H689 0.930 . S
C699 C692 1.409 . S
C699 C698 1.362 . S
H700 C706 0.930 . S
H701 C709 0.930 . S
H702 C710 0.930 . S
H703 C711 0.930 . S
H704 C714 0.930 . S
H705 C715 0.930 . S
C706 H700 0.930 . S
C706 C707 1.355 . S
C706 C708 1.415 . S
C707 C706 1.355 . S
C707 C709 1.419 . S
C708 C706 1.415 . S
C708 C713 1.425 . S
C708 C715 1.409 . S
C709 H701 0.930 . S
C709 C707 1.419 . S
C709 C710 1.362 . S
C710 H702 0.930 . S
C710 C709 1.362 . S
C710 C713 1.409 . S
C711 H703 0.930 . S
C711 C712 1.355 . S
C711 C713 1.415 . S
C712 C711 1.355 . S
C712 C714 1.419 . S
C713 C708 1.425 . S
C713 C710 1.409 . S
C713 C711 1.415 . S
C714 H704 0.930 . S
C714 C712 1.419 . S
C714 C715 1.362 . S
C715 H705 0.930 . S
C715 C708 1.409 . S
C715 C714 1.362 . S
H716 C722 0.930 . S
H717 C725 0.930 . S
H718 C726 0.930 . S
H719 C727 0.930 . S
H720 C730 0.930 . S
H721 C731 0.930 . S
C722 H716 0.930 . S
C722 C723 1.355 . S
C722 C724 1.415 . S
C723 C722 1.355 . S
C723 C725 1.419 . S
C724 C722 1.415 . S
C724 C729 1.425 . S
C724 C731 1.409 . S
C725 H717 0.930 . S
C725 C723 1.419 . S
C725 C726 1.362 . S
C726 H718 0.930 . S
C726 C725 1.362 . S
C726 C729 1.409 . S
C727 H719 0.930 . S
C727 C728 1.355 . S
C727 C729 1.415 . S
C728 C727 1.355 . S
C728 C730 1.419 . S
C729 C724 1.425 . S
C729 C726 1.409 . S
C729 C727 1.415 . S
C730 H720 0.930 . S
C730 C728 1.419 . S
C730 C731 1.362 . S
C731 H721 0.930 . S
C731 C724 1.409 . S
C731 C730 1.362 . S
H732 C738 0.930 . S
H733 C741 0.930 . S
H734 C742 0.930 . S
H735 C743 0.930 . S
H736 C746 0.930 . S
H737 C747 0.930 . S
C738 H732 0.930 . S
C738 C739 1.355 . S
C738 C740 1.415 . S
C739 C738 1.355 . S
C739 C741 1.419 . S
C740 C738 1.415 . S
C740 C745 1.425 . S
C740 C747 1.409 . S
C741 H733 0.930 . S
C741 C739 1.419 . S
C741 C742 1.362 . S
C742 H734 0.930 . S
C742 C741 1.362 . S
C742 C745 1.409 . S
C743 H735 0.930 . S
C743 C744 1.355 . S
C743 C745 1.415 . S
C744 C743 1.355 . S
C744 C746 1.419 . S
C745 C740 1.425 . S
C745 C742 1.409 . S
C745 C743 1.415 . S
C746 H736 0.930 . S
C746 C744 1.419 . S
C746 C747 1.362 . S
C747 H737 0.930 . S
C747 C740 1.409 . S
C747 C746 1.362 . S
H748 C754 0.930 . S
H749 C757 0.930 . S
H750 C758 0.930 . S
H751 C759 0.930 . S
H752 C762 0.944 . S
H753 C763 0.930 . S
C754 H748 0.930 . S
C754 C755 1.355 . S
C754 C756 1.415 . S
C755 C754 1.355 . S
C755 C757 1.419 . S
C756 C754 1.415 . S
C756 C761 1.425 . S
C756 C763 1.409 . S
C757 H749 0.930 . S
C757 C755 1.419 . S
C757 C758 1.362 . S
C758 H750 0.930 . S
C758 C757 1.362 . S
C758 C761 1.409 . S
C759 H751 0.930 . S
C759 C760 1.355 1_655 S
C759 C761 1.415 . S
C760 C759 1.355 1_455 S
C760 C762 1.414 . S
C761 C756 1.425 . S
C761 C758 1.409 . S
C761 C759 1.415 . S
C762 H752 0.944 . S
C762 C760 1.414 . S
C762 C763 1.353 1_455 S
C763 H753 0.930 . S
C763 C756 1.409 . S
C763 C762 1.353 1_655 S
H764 C770 0.930 . S
H765 C773 0.930 . S
H766 C774 0.930 . S
H767 C775 0.930 . S
H768 C778 0.930 . S
H769 C779 0.930 . S
C770 H764 0.930 . S
C770 C771 1.355 . S
C770 C772 1.415 . S
C771 C770 1.355 . S
C771 C773 1.419 . S
C772 C770 1.415 . S
C772 C777 1.425 1_545 S
C772 C779 1.409 . S
C773 H765 0.930 . S
C773 C771 1.419 . S
C773 C774 1.362 1_545 S
C774 H766 0.930 . S
C774 C773 1.362 1_565 S
C774 C777 1.409 . S
C775 H767 0.930 . S
C775 C776 1.355 . S
C775 C777 1.415 . S
C776 C775 1.355 . S
C776 C778 1.419 . S
C777 C772 1.425 1_565 S
C777 C774 1.409 . S
C777 C775 1.415 . S
C778 H768 0.930 . S
C778 C776 1.419 . S
C778 C779 1.362 1_565 S
C779 H769 0.930 . S
C779 C772 1.409 . S
C779 C778 1.362 1_545 S
H780 C786 0.930 . S
H781 C789 0.930 . S
H782 C790 0.930 . S
H783 C791 0.930 . S
H784 C794 0.930 . S
H785 C795 0.930 . S
C786 H780 0.930 . S
C786 C787 1.355 . S
C786 C788 1.415 . S
C787 C786 1.355 . S
C787 C789 1.419 . S
C788 C786 1.415 . S
C788 C793 1.425 . S
C788 C795 1.409 . S
C789 H781 0.930 . S
C789 C787 1.419 . S
C789 C790 1.362 . S
C790 H782 0.930 . S
C790 C789 1.362 . S
C790 C793 1.409 . S
C791 H783 0.930 . S
C791 C792 1.355 . S
C791 C793 1.415 . S
C792 C791 1.355 . S
C792 C794 1.419 . S
C793 C788 1.425 . S
C793 C790 1.409 . S
C793 C791 1.415 . S
C794 H784 0.930 . S
C794 C792 1.419 . S
C794 C795 1.362 . S
C795 H785 0.930 . S
C795 C788 1.409 . S
C795 C794 1.362 . S
H796 C802 0.930 . S
H797 C805 0.930 . S
H798 C806 0.930 . S
H799 C807 0.930 . S
H800 C810 0.930 . S
H801 C811 0.930 . S
C802 H796 0.930 . S
C802 C803 1.355 1_455 S
C802 C804 1.415 . S
C803 C802 1.355 1_655 S
C803 C805 1.419 . S
C804 C802 1.415 . S
C804 C809 1.425 . S
C804 C811 1.409 . S
C805 H797 0.930 . S
C805 C803 1.419 . S
C805 C806 1.362 . S
C806 H798 0.930 . S
C806 C805 1.362 . S
C806 C809 1.409 1_655 S
C807 H799 0.930 . S
C807 C808 1.355 . S
C807 C809 1.415 . S
C808 C807 1.355 . S
C808 C810 1.419 . S
C809 C804 1.425 . S
C809 C806 1.409 1_455 S
C809 C807 1.415 . S
C810 H800 0.930 . S
C810 C808 1.419 . S
C810 C811 1.362 . S
C811 H801 0.930 . S
C811 C804 1.409 . S
C811 C810 1.362 . S
H812 C818 0.930 . S
H813 C821 0.930 . S
H814 C822 0.930 . S
H815 C823 0.930 . S
H816 C826 0.930 . S
H817 C827 0.930 . S
C818 H812 0.930 . S
C818 C819 1.355 . S
C818 C820 1.446 . S
C819 C818 1.355 . S
C819 C821 1.419 . S
C820 C818 1.446 . S
C820 C825 1.420 1_564 S
C820 C827 1.384 1_564 S
C821 H813 0.930 . S
C821 C819 1.419 . S
C821 C822 1.362 . S
C822 H814 0.930 . S
C822 C821 1.362 . S
C822 C825 1.384 1_564 S
C823 H815 0.930 . S
C823 C824 1.355 . S
C823 C825 1.445 . S
C824 C823 1.355 . S
C824 C826 1.419 . S
C825 C820 1.420 1_546 S
C825 C822 1.384 1_546 S
C825 C823 1.445 . S
C826 H816 0.930 . S
C826 C824 1.419 . S
C826 C827 1.362 . S
C827 H817 0.930 . S
C827 C820 1.384 1_546 S
C827 C826 1.362 . S
H828 C834 0.930 . S
H829 C837 0.930 . S
H830 C838 0.930 . S
H831 C839 0.930 1_556 S
H832 C842 0.930 . S
H833 C843 0.930 . S
C834 H828 0.930 . S
C834 C835 1.355 . S
C834 C836 1.415 . S
C835 C834 1.355 . S
C835 C837 1.419 . S
C836 C834 1.415 . S
C836 C841 1.425 . S
C836 C843 1.409 . S
C837 H829 0.930 . S
C837 C835 1.419 . S
C837 C838 1.362 . S
C838 H830 0.930 . S
C838 C837 1.362 . S
C838 C841 1.409 . S
C839 H831 0.930 1_554 S
C839 C840 1.355 1_554 S
C839 C841 1.415 . S
C840 C839 1.355 1_556 S
C840 C842 1.419 1_556 S
C841 C836 1.425 . S
C841 C838 1.409 . S
C841 C839 1.415 . S
C842 H832 0.930 . S
C842 C840 1.419 1_554 S
C842 C843 1.362 . S
C843 H833 0.930 . S
C843 C836 1.409 . S
C843 C842 1.362 . S
H844 C850 0.930 . S
H845 C853 0.930 . S
H846 C854 0.930 . S
H847 C855 0.930 . S
H848 C858 0.930 . S
H849 C859 0.930 . S
C850 H844 0.930 . S
C850 C851 1.355 . S
C850 C852 1.415 . S
C851 C850 1.355 . S
C851 C853 1.419 . S
C852 C850 1.415 . S
C852 C857 1.425 . S
C852 C859 1.409 1_655 S
C853 H845 0.930 . S
C853 C851 1.419 . S
C853 C854 1.362 . S
C854 H846 0.930 . S
C854 C853 1.362 . S
C854 C857 1.409 . S
C855 H847 0.930 . S
C855 C856 1.355 . S
C855 C857 1.415 1_455 S
C856 C855 1.355 . S
C856 C858 1.419 . S
C857 C852 1.425 . S
C857 C854 1.409 . S
C857 C855 1.415 1_655 S
C858 H848 0.930 . S
C858 C856 1.419 . S
C858 C859 1.362 . S
C859 H849 0.930 . S
C859 C852 1.409 1_455 S
C859 C858 1.362 . S
H860 C866 0.930 1_545 S
H861 C869 0.930 . S
H862 C870 0.930 . S
H863 C871 0.930 . S
H864 C874 0.930 . S
H865 C875 0.930 . S
C866 H860 0.930 1_565 S
C866 C867 1.355 1_565 S
C866 C868 1.415 . S
C867 C866 1.355 1_545 S
C867 C869 1.419 1_545 S
C868 C866 1.415 . S
C868 C873 1.425 . S
C868 C875 1.409 . S
C869 H861 0.930 . S
C869 C867 1.419 1_565 S
C869 C870 1.362 . S
C870 H862 0.930 . S
C870 C869 1.362 . S
C870 C873 1.409 . S
C871 H863 0.930 . S
C871 C872 1.355 . S
C871 C873 1.415 . S
C872 C871 1.355 . S
C872 C874 1.419 . S
C873 C868 1.425 . S
C873 C870 1.409 . S
C873 C871 1.415 . S
C874 H864 0.930 . S
C874 C872 1.419 . S
C874 C875 1.362 . S
C875 H865 0.930 . S
C875 C868 1.409 . S
C875 C874 1.362 . S
H876 C882 0.930 . S
H877 C885 0.930 . S
H878 C886 0.930 . S
H879 C887 0.930 . S
H880 C890 0.930 . S
H881 C891 0.930 . S
C882 H876 0.930 . S
C882 C883 1.355 . S
C882 C884 1.415 . S
C883 C882 1.355 . S
C883 C885 1.419 . S
C884 C882 1.415 . S
C884 C889 1.425 . S
C884 C891 1.409 . S
C885 H877 0.930 . S
C885 C883 1.419 . S
C885 C886 1.362 . S
C886 H878 0.930 . S
C886 C885 1.362 . S
C886 C889 1.409 . S
C887 H879 0.930 . S
C887 C888 1.355 . S
C887 C889 1.415 . S
C888 C887 1.355 . S
C888 C890 1.419 . S
C889 C884 1.425 . S
C889 C886 1.409 . S
C889 C887 1.415 . S
C890 H880 0.930 . S
C890 C888 1.419 . S
C890 C891 1.362 . S
C891 H881 0.930 . S
C891 C884 1.409 . S
C891 C890 1.362 . S
H892 C898 0.930 . S
H893 C901 0.930 . S
H894 C902 0.930 . S
H895 C903 0.930 . S
H896 C906 0.930 . S
H897 C907 0.930 . S
C898 H892 0.930 . S
C898 C899 1.355 . S
C898 C900 1.415 . S
C899 C898 1.355 . S
C899 C901 1.419 . S
C900 C898 1.415 . S
C900 C905 1.425 . S
C900 C907 1.409 1_455 S
C901 H893 0.930 . S
C901 C899 1.419 . S
C901 C902 1.362 . S
C902 H894 0.930 . S
C902 C901 1.362 . S
C902 C905 1.409 . S
C903 H895 0.930 . S
C903 C904 1.355 . S
C903 C905 1.415 1_655 S
C904 C903 1.355 . S
C904 C906 1.419 . S
C905 C900 1.425 . S
C905 C902 1.409 . S
C905 C903 1.415 1_455 S
C906 H896 0.930 . S
C906 C904 1.419 . S
C906 C907 1.362 . S
C907 H897 0.930 . S
C907 C900 1.409 1_655 S
C907 C906 1.362 . S
H908 C914 0.930 . S
H909 C917 0.930 . S
H910 C918 0.930 . S
H911 C919 0.935 . S
H912 C922 0.930 . S
H913 C923 0.930 . S
C914 H908 0.930 . S
C914 C915 1.355 . S
C914 C916 1.415 . S
C915 C914 1.355 . S
C915 C917 1.419 . S
C916 C914 1.415 . S
C916 C921 1.425 . S
C916 C923 1.409 . S
C917 H909 0.930 . S
C917 C915 1.419 . S
C917 C918 1.362 . S
C918 H910 0.930 . S
C918 C917 1.362 . S
C918 C921 1.409 . S
C919 H911 0.935 . S
C919 C920 1.356 . S
C919 C921 1.407 1_565 S
C920 C919 1.356 . S
C920 C922 1.419 1_565 S
C921 C916 1.425 . S
C921 C918 1.409 . S
C921 C919 1.407 1_545 S
C922 H912 0.930 . S
C922 C920 1.419 1_545 S
C922 C923 1.362 . S
C923 H913 0.930 . S
C923 C916 1.409 . S
C923 C922 1.362 . S
H924 C930 0.930 . S
H925 C933 0.930 . S
H926 C934 0.930 . S
H927 C935 0.930 . S
H928 C938 0.930 . S
H929 C939 0.930 . S
C930 H924 0.930 . S
C930 C931 1.355 . S
C930 C932 1.415 . S
C931 C930 1.355 . S
C931 C933 1.419 . S
C932 C930 1.415 . S
C932 C937 1.425 . S
C932 C939 1.409 . S
C933 H925 0.930 . S
C933 C931 1.419 . S
C933 C934 1.362 . S
C934 H926 0.930 . S
C934 C933 1.362 . S
C934 C937 1.409 . S
C935 H927 0.930 . S
C935 C936 1.355 . S
C935 C937 1.415 . S
C936 C935 1.355 . S
C936 C938 1.419 . S
C937 C932 1.425 . S
C937 C934 1.409 . S
C937 C935 1.415 . S
C938 H928 0.930 . S
C938 C936 1.419 . S
C938 C939 1.362 . S
C939 H929 0.930 . S
C939 C932 1.409 . S
C939 C938 1.362 . S
H940 C946 0.930 . S
H941 C949 0.930 . S
H942 C950 0.930 1_554 S
H943 C951 0.930 . S
H944 C954 0.930 . S
H945 C955 0.930 . S
C946 H940 0.930 . S
C946 C947 1.355 . S
C946 C948 1.433 . S
C947 C946 1.355 . S
C947 C949 1.419 . S
C948 C946 1.433 . S
C948 C953 1.434 . S
C948 C955 1.383 1_655 S
C949 H941 0.930 . S
C949 C947 1.419 . S
C949 C950 1.362 . S
C950 H942 0.930 1_556 S
C950 C949 1.362 . S
C950 C953 1.409 . S
C951 H943 0.930 . S
C951 C952 1.360 . S
C951 C953 1.415 1_454 S
C952 C951 1.360 . S
C952 C954 1.396 1_554 S
C953 C948 1.434 . S
C953 C950 1.409 . S
C953 C951 1.415 1_656 S
C954 H944 0.930 . S
C954 C952 1.396 1_556 S
C954 C955 1.362 . S
C955 H945 0.930 . S
C955 C948 1.383 1_455 S
C955 C954 1.362 . S
H956 C962 0.930 . S
H957 C965 0.930 . S
H958 C966 0.930 . S
H959 C967 0.927 1_545 S
H960 C970 0.930 . S
H961 C971 0.930 . S
C962 H956 0.930 . S
C962 C963 1.355 . S
C962 C964 1.415 . S
C963 C962 1.355 . S
C963 C965 1.419 . S
C964 C962 1.415 . S
C964 C969 1.425 . S
C964 C971 1.409 . S
C965 H957 0.930 . S
C965 C963 1.419 . S
C965 C966 1.362 . S
C966 H958 0.930 . S
C966 C965 1.362 . S
C966 C969 1.409 . S
C967 H959 0.927 1_565 S
C967 C968 1.354 1_565 S
C967 C969 1.417 . S
C968 C967 1.354 1_545 S
C968 C970 1.419 1_545 S
C969 C964 1.425 . S
C969 C966 1.409 . S
C969 C967 1.417 . S
C970 H960 0.930 . S
C970 C968 1.419 1_565 S
C970 C971 1.362 . S
C971 H961 0.930 . S
C971 C964 1.409 . S
C971 C970 1.362 . S
H972 C978 0.930 . S
H973 C981 0.930 . S
H974 C982 0.930 . S
H975 C983 0.930 . S
H976 C986 0.930 . S
H977 C987 0.930 . S
C978 H972 0.930 . S
C978 C979 1.355 . S
C978 C980 1.415 . S
C979 C978 1.355 . S
C979 C981 1.419 . S
C980 C978 1.415 . S
C980 C985 1.425 . S
C980 C987 1.409 . S
C981 H973 0.930 . S
C981 C979 1.419 . S
C981 C982 1.362 . S
C982 H974 0.930 . S
C982 C981 1.362 . S
C982 C985 1.409 . S
C983 H975 0.930 . S
C983 C984 1.355 . S
C983 C985 1.415 . S
C984 C983 1.355 . S
C984 C986 1.419 . S
C985 C980 1.425 . S
C985 C982 1.409 . S
C985 C983 1.415 . S
C986 H976 0.930 . S
C986 C984 1.419 . S
C986 C987 1.362 . S
C987 H977 0.930 . S
C987 C980 1.409 . S
C987 C986 1.362 . S
H988 C994 0.930 . S
H989 C997 0.930 . S
H990 C998 0.936 . S
H991 C999 0.930 . S
H992 C1002 0.930 . S
H993 C1003 0.930 . S
C994 H988 0.930 . S
C994 C995 1.355 . S
C994 C996 1.415 . S
C995 C994 1.355 . S
C995 C997 1.419 . S
C996 C994 1.415 . S
C996 C1001 1.425 1_455 S
C996 C1003 1.409 . S
C997 H989 0.930 . S
C997 C995 1.419 . S
C997 C998 1.351 1_455 S
C998 H990 0.936 . S
C998 C997 1.351 1_655 S
C998 C1001 1.415 . S
C999 H991 0.930 . S
C999 C1000 1.355 . S
C999 C1001 1.415 . S
C1000 C999 1.355 . S
C1000 C1002 1.419 . S
C1001 C996 1.425 1_655 S
C1001 C998 1.415 . S
C1001 C999 1.415 . S
C1002 H992 0.930 . S
C1002 C1000 1.419 . S
C1002 C1003 1.362 1_655 S
C1003 H993 0.930 . S
C1003 C996 1.409 . S
C1003 C1002 1.362 1_455 S
H1004 C1010 0.930 . S
H1005 C1013 0.930 . S
H1006 C1014 0.930 . S
H1007 C1015 0.930 . S
H1008 C1018 0.930 . S
H1009 C1019 0.930 . S
C1010 H1004 0.930 . S
C1010 C1011 1.355 1_545 S
C1010 C1012 1.415 . S
C1011 C1010 1.355 1_565 S
C1011 C1013 1.419 . S
C1012 C1010 1.415 . S
C1012 C1017 1.425 . S
C1012 C1019 1.409 . S
C1013 H1005 0.930 . S
C1013 C1011 1.419 . S
C1013 C1014 1.362 1_565 S
C1014 H1006 0.930 . S
C1014 C1013 1.362 1_545 S
C1014 C1017 1.409 . S
C1015 H1007 0.930 . S
C1015 C1016 1.355 . S
C1015 C1017 1.415 . S
C1016 C1015 1.355 . S
C1016 C1018 1.419 . S
C1017 C1012 1.425 . S
C1017 C1014 1.409 . S
C1017 C1015 1.415 . S
C1018 H1008 0.930 . S
C1018 C1016 1.419 . S
C1018 C1019 1.362 . S
C1019 H1009 0.930 . S
C1019 C1012 1.409 . S
C1019 C1018 1.362 . S
C643 C446 1.805 . S
C648 C22 1.777 . S
C659 C91 1.738 . S
C664 C515 1.749 . S
C675 C128 1.759 . S
C680 C552 1.763 . S
C691 C181 1.770 . S
C696 C605 1.801 . S
C707 C356 1.735 . S
C712 C250 1.765 . S
C723 C287 1.790 . S
C728 C393 1.760 . S
C739 C516 1.520 . S
C744 C29 1.482 . S
C755 C92 1.489 . S
C760 C559 1.496 . S
C771 C612 1.412 . S
C776 C135 1.410 . S
C787 C188 1.502 . S
C792 C357 1.532 . S
C803 C400 1.469 . S
C808 C251 1.479 . S
C819 C453 1.363 . S
C824 C294 1.394 . S
C835 C38 2.119 . S
C840 C304 2.139 . S
C851 C75 2.315 . S
C856 C39 2.359 . S
C867 C82 2.201 . S
C872 C144 2.263 . S
C883 C197 2.114 . S
C888 C145 2.135 . S
C899 C234 2.340 . S
C904 C198 2.325 . S
C915 C303 2.262 . S
C920 C241 2.177 . S
C931 C340 2.344 . S
C936 C410 2.332 . S
C947 C409 2.140 . S
C952 C463 2.135 . S
C963 C462 2.262 . S
C968 C506 2.175 . S
C979 C499 2.338 . S
C984 C569 2.323 . S
C995 C568 2.115 . S
C1000 C622 2.134 . S
C1011 C347 2.171 . S
C1016 C621 2.286 . S
