# Generated by pormake.
# Topology snp, (6)-cn, num edge types: 1
# Building blocks:
#     Node 0, Type 0, BuildingBlock: KUMBOL_clean_sbu_0, # of connection points: 6
#     Node 1, Type 0, BuildingBlock: KUMBOL_clean_sbu_0, # of connection points: 6
#     Node 2, Type 0, BuildingBlock: KUMBOL_clean_sbu_0, # of connection points: 6
#     Node 3, Type 0, BuildingBlock: KUMBOL_clean_sbu_0, # of connection points: 6
#     Edge 4, Type (0, 0), BuildingBlock: CIFDUS_clean_linker_0, # of connection points: 2
#     Edge 5, Type (0, 0), BuildingBlock: CIFDUS_clean_linker_0, # of connection points: 2
#     Edge 6, Type (0, 0), BuildingBlock: CIFDUS_clean_linker_0, # of connection points: 2
#     Edge 7, Type (0, 0), BuildingBlock: CIFDUS_clean_linker_0, # of connection points: 2
#     Edge 8, Type (0, 0), BuildingBlock: CIFDUS_clean_linker_0, # of connection points: 2
#     Edge 9, Type (0, 0), BuildingBlock: CIFDUS_clean_linker_0, # of connection points: 2
#     Edge 10, Type (0, 0), BuildingBlock: CIFDUS_clean_linker_0, # of connection points: 2
#     Edge 11, Type (0, 0), BuildingBlock: CIFDUS_clean_linker_0, # of connection points: 2
#     Edge 12, Type (0, 0), BuildingBlock: CIFDUS_clean_linker_0, # of connection points: 2
#     Edge 13, Type (0, 0), BuildingBlock: CIFDUS_clean_linker_0, # of connection points: 2
#     Edge 14, Type (0, 0), BuildingBlock: CIFDUS_clean_linker_0, # of connection points: 2
#     Edge 15, Type (0, 0), BuildingBlock: CIFDUS_clean_linker_0, # of connection points: 2
# Relax obj value: 0.240
# Max RMSD: 0.271
# Mean RMSD: 0.243
data_MOF--net-snp--node1-KUMBOL_clean_sbu_0--edge1-CIFDUS_clean_linker_0
_symmetry_space_group_name_H-M    P1
_symmetry_Int_Tables_number       1
_symmetry_cell_setting            triclinic
loop_
_symmetry_equiv_pos_as_xyz
'x, y, z'
_cell_length_a     21.491932
_cell_length_b     23.234628
_cell_length_c     30.350234
_cell_angle_alpha  117.79014
_cell_angle_beta   96.079505
_cell_angle_gamma 95.477845
loop_
_atom_site_label
_atom_site_type_symbol
_atom_site_fract_x
_atom_site_fract_y
_atom_site_fract_z
_atom_type_partial_charge
Gd0 Gd 0.37509 0.04715 0.27246 0.0
Gd1 Gd 0.38701 0.19571 0.25733 0.0
C2 C 0.47845 0.38689 0.39929 0.0
C3 C 0.39785 0.45631 0.40787 0.0
C4 C 0.37989 0.34318 0.33942 0.0
C5 C 0.4392 0.33474 0.356 0.0
C6 C 0.35874 0.4042 0.36499 0.0
C7 C 0.4575 0.44763 0.42504 0.0
C8 C 0.5375 0.37639 0.41565 0.0
C9 C 0.55602 0.31502 0.38919 0.0
N10 N 0.45794 0.27526 0.33044 0.0
C11 C 0.51561 0.26483 0.34645 0.0
H12 H 0.53053 0.21751 0.32741 0.0
C13 C 0.28547 0.29882 0.27909 0.0
N14 N 0.34254 0.29149 0.29861 0.0
C15 C 0.26244 0.35829 0.30307 0.0
C16 C 0.29904 0.41113 0.34647 0.0
H17 H 0.25783 0.25865 0.24468 0.0
H18 H 0.48707 0.48822 0.4583 0.0
H19 H 0.24935 0.9526 0.18254 0.0
H20 H 0.56895 0.41515 0.44878 0.0
H21 H 0.6014 0.30622 0.4018 0.0
H22 H 0.38241 0.50351 0.42803 0.0
H23 H 0.51429 0.04759 0.33434 0.0
H24 H 0.30376 0.7712 0.08119 0.0
H25 H 0.22386 0.84559 0.10484 0.0
H26 H 0.51141 0.7826 0.16311 0.0
H27 H 0.21677 0.36352 0.28782 0.0
H28 H 0.28117 0.45725 0.36497 0.0
H29 H 0.41112 0.74801 0.10341 0.0
H30 H 0.59507 0.97534 0.32219 0.0
N31 N 0.34445 0.94286 0.20027 0.0
C32 C 0.31558 0.81901 0.11481 0.0
C33 C 0.27046 0.86091 0.12792 0.0
C34 C 0.37452 0.83829 0.14635 0.0
C35 C 0.38749 0.90113 0.18961 0.0
C36 C 0.28546 0.92241 0.17152 0.0
N37 N 0.45391 0.98076 0.26475 0.0
C38 C 0.44374 0.92038 0.22314 0.0
C39 C 0.55282 0.95937 0.29394 0.0
C40 C 0.54414 0.89815 0.25037 0.0
C41 C 0.50682 1.00014 0.30075 0.0
C42 C 0.48889 0.87771 0.21445 0.0
H43 H 0.57995 0.86678 0.24511 0.0
O44 O 0.37759 0.02604 0.33582 0.0
O45 O 0.37596 0.15541 0.31047 0.0
O46 O 0.47878 0.15402 0.24259 0.0
O47 O 0.46338 0.04965 0.23724 0.0
O48 O 0.43671 0.1226 0.34596 0.0
O49 O 0.28837 0.01225 0.28945 0.0
O50 O 0.35369 0.21529 0.19643 0.0
O51 O 0.37638 0.08653 0.2182 0.0
O52 O 0.27816 0.06622 0.2486 0.0
O53 O 0.29162 0.17959 0.27835 0.0
O54 O 0.32221 0.12738 0.18362 0.0
O55 O 0.45382 0.24174 0.22945 0.0
C56 C 0.41011 0.17266 0.35236 0.0
C57 C 0.47712 0.81591 0.17065 0.0
C58 C 0.42006 0.79626 0.13663 0.0
C59 C 0.31664 1.00597 0.32684 0.0
C60 C 0.29447 0.94445 0.3283 0.0
C61 C 0.27466 0.8856 0.28264 0.0
C62 C 0.28985 0.94435 0.37469 0.0
C63 C 0.26551 0.8854 0.37475 0.0
C64 C 0.24912 0.82825 0.28245 0.0
C65 C 0.24404 0.82816 0.32775 0.0
C66 C 0.49632 0.09608 0.23108 0.0
C67 C 0.33832 0.0728 0.17853 0.0
C68 C 0.40976 0.24204 0.19632 0.0
C69 C 0.41225 0.30132 0.19008 0.0
C70 C 0.42109 0.36453 0.23189 0.0
C71 C 0.40392 0.29394 0.14097 0.0
C72 C 0.40397 0.34936 0.13332 0.0
C73 C 0.42058 0.41966 0.22478 0.0
C74 C 0.41188 0.41231 0.17602 0.0
C75 C 0.2549 0.12129 0.2582 0.0
H76 H 0.27774 0.88408 0.24681 0.0
H77 H 0.30562 0.98939 0.41017 0.0
H78 H 0.2329 0.7835 0.24689 0.0
H79 H 0.22308 0.78258 0.32582 0.0
H80 H 0.42825 0.37133 0.26989 0.0
H81 H 0.39823 0.24494 0.10883 0.0
H82 H 0.42683 0.46835 0.25722 0.0
H83 H 0.41084 0.45603 0.17183 0.0
Gd84 Gd 0.23368 0.33366 0.68291 0.0
Gd85 Gd 0.08324 0.26161 0.58828 0.0
C86 C 0.88535 0.22913 0.62329 0.0
C87 C 0.86004 0.10955 0.58191 0.0
C88 C 0.96117 0.16303 0.57881 0.0
C89 C 0.94526 0.22403 0.60806 0.0
C90 C 0.91835 0.10498 0.56455 0.0
C91 C 0.8435 0.17159 0.6112 0.0
C92 C 0.8682 0.29168 0.64814 0.0
C93 C 0.90958 0.34677 0.65571 0.0
N94 N 0.98651 0.27835 0.61837 0.0
C95 C 0.96882 0.33915 0.64039 0.0
H96 H 1.00044 0.38224 0.64679 0.0
C97 C 0.03236 0.10163 0.52865 0.0
N98 N 0.0172 0.16061 0.56187 0.0
C99 C 0.9915 0.04272 0.51336 0.0
C100 C 0.93448 0.04429 0.53181 0.0
H101 H 0.07635 0.09976 0.51429 0.0
H102 H 0.79752 0.17451 0.62297 0.0
H103 H 0.33115 0.22849 0.62784 0.0
H104 H 0.82247 0.29773 0.66018 0.0
H105 H 0.89622 0.39525 0.6738 0.0
H106 H 0.82667 0.0655 0.57166 0.0
H107 H 0.21947 0.49234 0.75469 0.0
H108 H 0.49522 0.33448 0.61355 0.0
H109 H 0.43444 0.22935 0.59887 0.0
H110 H 0.46421 0.55969 0.70351 0.0
H111 H 0.00396 0.99643 0.487 0.0
H112 H 0.90246 0.99875 0.51959 0.0
H113 H 0.50596 0.45798 0.65285 0.0
H114 H 0.27805 0.60285 0.78078 0.0
N115 N 0.3317 0.33084 0.65513 0.0
C116 C 0.44963 0.33415 0.62569 0.0
C117 C 0.41547 0.27473 0.61733 0.0
C118 C 0.42573 0.3928 0.65157 0.0
C119 C 0.36615 0.38952 0.66653 0.0
C120 C 0.35675 0.27424 0.63324 0.0
N121 N 0.28703 0.44136 0.71117 0.0
C122 C 0.34338 0.44669 0.69583 0.0
C123 C 0.29696 0.55931 0.75688 0.0
C124 C 0.35425 0.56553 0.74041 0.0
C125 C 0.26403 0.49654 0.74222 0.0
C126 C 0.37846 0.50885 0.70984 0.0
H127 H 0.37967 0.61424 0.75189 0.0
O128 O 0.25512 0.36789 0.76386 0.0
O129 O 0.12881 0.30672 0.66939 0.0
O130 O 0.10954 0.37228 0.6305 0.0
O131 O 0.21876 0.3936 0.64349 0.0
O132 O 0.16659 0.38402 0.73726 0.0
O133 O 0.28643 0.27908 0.71088 0.0
O134 O 0.06629 0.2266 0.50713 0.0
O135 O 0.18845 0.28258 0.60168 0.0
O136 O 0.21031 0.22181 0.64427 0.0
O137 O 0.1003 0.19738 0.62244 0.0
O138 O 0.14605 0.20184 0.5344 0.0
O139 O 0.0417 0.32033 0.55855 0.0
C140 C 0.1138 0.3463 0.71091 0.0
C141 C 0.43666 0.5124 0.69334 0.0
C142 C 0.46032 0.45448 0.66435 0.0
C143 C 0.28739 0.32083 0.75831 0.0
C144 C 0.34859 0.34008 0.79254 0.0
C145 C 0.40528 0.35391 0.7777 0.0
C146 C 0.3505 0.34404 0.84045 0.0
C147 C 0.40879 0.36217 0.87352 0.0
C148 C 0.46309 0.37094 0.80986 0.0
C149 C 0.46499 0.37499 0.85732 0.0
C150 C 0.16286 0.40597 0.6311 0.0
C151 C 0.19969 0.23601 0.56149 0.0
C152 C 0.03957 0.27665 0.51154 0.0
C153 C 0.97973 0.26148 0.47685 0.0
C154 C 0.92092 0.25927 0.49262 0.0
C155 C 0.98166 0.24854 0.42701 0.0
C156 C 0.9252 0.23206 0.39236 0.0
C157 C 0.86482 0.24421 0.45895 0.0
C158 C 0.86674 0.23037 0.40917 0.0
C159 C 0.15502 0.1868 0.63927 0.0
H160 H 0.4051 0.35128 0.74122 0.0
H161 H 0.30664 0.33412 0.8522 0.0
H162 H 0.50666 0.38107 0.79795 0.0
H163 H 0.51067 0.3879 0.88132 0.0
H164 H 0.91823 0.26895 0.53077 0.0
H165 H 0.02732 0.25102 0.4153 0.0
H166 H 0.81958 0.24224 0.47127 0.0
H167 H 0.82226 0.21641 0.38356 0.0
Gd168 Gd 0.85158 0.94415 0.02718 0.0
Gd169 Gd 0.84733 0.08842 1.00447 0.0
C170 C 0.79081 0.28283 0.11584 0.0
C171 C 0.68936 0.28136 0.07124 0.0
C172 C 0.74862 0.19123 0.03277 0.0
C173 C 0.79554 0.22141 0.07493 0.0
C174 C 0.69532 0.22119 0.03006 0.0
C175 C 0.73702 0.31212 0.11409 0.0
C176 C 0.84089 0.31362 0.1568 0.0
C177 C 0.89465 0.28403 0.15555 0.0
N178 N 0.84701 0.19191 0.07508 0.0
C179 C 0.89722 0.22332 0.11395 0.0
H180 H 0.9393 0.20166 0.11362 0.0
C181 C 0.7128 0.10353 0.94989 0.0
N182 N 0.75568 0.13268 0.99396 0.0
C183 C 0.65921 0.13142 0.94537 0.0
C184 C 0.65008 0.19018 0.98579 0.0
H185 H 0.71911 0.05827 0.91821 0.0
H186 H 0.73235 0.35906 0.14529 0.0
H187 H 0.71358 0.87326 0.03927 0.0
H188 H 0.83907 0.36074 0.18901 0.0
H189 H 0.93418 0.30791 0.18663 0.0
H190 H 0.64855 0.30494 0.07003 0.0
H191 H 0.98319 0.8821 0.98562 0.0
H192 H 0.63382 0.70454 0.89727 0.0
H193 H 0.62478 0.78325 0.98517 0.0
H194 H 0.81158 0.66373 0.81054 0.0
H195 H 0.62497 0.10753 0.91067 0.0
H196 H 0.60848 0.21161 0.98218 0.0
H197 H 0.704 0.66084 0.83135 0.0
H198 H 0.01158 0.79662 0.90812 0.0
N199 N 0.76893 0.85143 0.98112 0.0
C200 C 0.67212 0.74515 0.92056 0.0
C201 C 0.66689 0.78936 0.97012 0.0
C202 C 0.72904 0.75071 0.90332 0.0
C203 C 0.77738 0.80451 0.93536 0.0
C204 C 0.71694 0.84097 1.00051 0.0
N205 N 0.88359 0.85366 0.95957 0.0
C206 C 0.83743 0.80545 0.92424 0.0
C207 C 0.9622 0.799 0.9117 0.0
C208 C 0.91463 0.75213 0.87319 0.0
C209 C 0.94577 0.84853 0.95533 0.0
C210 C 0.85137 0.75349 0.87999 0.0
H211 H 0.92739 0.7134 0.83963 0.0
O212 O 0.93465 0.951 0.07864 0.0
O213 O 0.86276 0.05393 0.06186 0.0
O214 O 0.94205 0.0933 0.04812 0.0
O215 O 0.94421 0.98267 1.01253 0.0
O216 O 0.8148 0.01101 0.09694 0.0
O217 O 0.84472 0.90071 0.07691 0.0
O218 O 0.8654 0.08996 0.93535 0.0
O219 O 0.86063 0.98319 0.97408 0.0
O220 O 0.74905 0.96236 1.01643 0.0
O221 O 0.75207 0.06793 0.02394 0.0
O222 O 0.80418 1.00277 0.92693 0.0
O223 O 0.92543 0.15675 1.00576 0.0
C224 C 0.83574 0.06658 0.09969 0.0
C225 C 0.80213 0.7033 0.84524 0.0
C226 C 0.74086 0.70182 0.85698 0.0
C227 C 0.90367 0.92097 0.0985 0.0
C228 C 0.93564 0.87796 0.1137 0.0
C229 C 0.96647 0.82933 0.08039 0.0
C230 C 0.93491 0.88601 0.16275 0.0
C231 C 0.96441 0.84533 0.17863 0.0
C232 C 0.99601 0.78905 0.09565 0.0
C233 C 0.99487 0.79664 0.14407 0.0
C234 C 0.97405 0.04416 0.03866 0.0
C235 C 0.8302 0.95677 0.92978 0.0
C236 C 0.91186 0.1393 0.95798 0.0
C237 C 0.90999 0.19342 0.94487 0.0
C238 C 0.87519 0.24357 0.97022 0.0
C239 C 0.94342 0.19607 0.90774 0.0
C240 C 0.94257 0.24918 0.89659 0.0
C241 C 0.87417 0.29584 0.95976 0.0
C242 C 0.90772 0.29904 0.92382 0.0
C243 C 0.72306 0.01577 0.02506 0.0
H244 H 0.96747 0.82237 0.04264 0.0
H245 H 0.91171 0.92444 0.18854 0.0
H246 H 0.0195 0.75125 0.06965 0.0
H247 H 0.01692 0.76328 0.15394 0.0
H248 H 0.84933 0.24279 0.99866 0.0
H249 H 0.96964 0.15682 0.88767 0.0
H250 H 0.84775 0.3347 0.98015 0.0
H251 H 0.90719 0.3418 0.91835 0.0
Gd252 Gd 0.16001 0.84539 0.69899 0.0
Gd253 Gd 0.01711 0.83131 0.61508 0.0
C254 C 0.82066 0.75247 0.62826 0.0
C255 C 0.7961 0.6446 0.55344 0.0
C256 C 0.89627 0.71598 0.57108 0.0
C257 C 0.88009 0.76298 0.61505 0.0
C258 C 0.85391 0.65679 0.53918 0.0
C259 C 0.77945 0.69242 0.59788 0.0
C260 C 0.80347 0.80348 0.6706 0.0
C261 C 0.84456 0.86355 0.69793 0.0
N262 N 0.92073 0.82067 0.64324 0.0
C263 C 0.90324 0.87134 0.68365 0.0
H264 H 0.93438 0.91788 0.70547 0.0
C265 C 0.96579 0.68898 0.51152 0.0
N266 N 0.95204 0.72976 0.55808 0.0
C267 C 0.92573 0.62932 0.47891 0.0
C268 C 0.86994 0.61268 0.4931 0.0
H269 H 0.00856 0.70163 0.50004 0.0
H270 H 0.7339 0.68321 0.6077 0.0
H271 H 0.24608 0.7702 0.60731 0.0
H272 H 0.75819 0.79746 0.68192 0.0
H273 H 0.83143 0.90367 0.73038 0.0
H274 H 0.76316 0.59919 0.52965 0.0
H275 H 0.19092 0.95212 0.82557 0.0
H276 H 0.39616 0.91493 0.62049 0.0
H277 H 0.33832 0.80042 0.57619 0.0
H278 H 0.39268 0.09839 0.78157 0.0
H279 H 0.93774 0.5964 0.44275 0.0
H280 H 0.83871 0.56668 0.46757 0.0
H281 H 0.41425 0.0274 0.6964 0.0
H282 H 0.25983 0.05768 0.88454 0.0
N283 N 0.24998 0.86725 0.66785 0.0
C284 C 0.35552 0.90204 0.63433 0.0
C285 C 0.32325 0.83727 0.60941 0.0
C286 C 0.33777 0.94814 0.67886 0.0
C287 C 0.28468 0.92867 0.69541 0.0
C288 C 0.27072 0.8204 0.62713 0.0
N289 N 0.22548 0.94529 0.76021 0.0
C290 C 0.27225 0.96892 0.74328 0.0
C291 C 0.26312 0.0339 0.84476 0.0
C292 C 0.30649 0.06269 0.82672 0.0
C293 C 0.22397 0.97405 0.81111 0.0
C294 C 0.31307 0.02912 0.77582 0.0
H295 H 0.33703 0.10891 0.85291 0.0
O296 O 0.1719 0.8277 0.76298 0.0
O297 O 0.05515 0.84263 0.68982 0.0
O298 O 0.03664 0.93297 0.68488 0.0
O299 O 0.1285 0.94342 0.73882 0.0
O300 O 0.08668 0.78618 0.71751 0.0
O301 O 0.23005 0.78623 0.70493 0.0
O302 O 0.01824 0.85158 0.55184 0.0
O303 O 0.12298 0.86535 0.63561 0.0
O304 O 0.14115 0.75143 0.62537 0.0
O305 O 0.03163 0.73155 0.60496 0.0
O306 O 0.08569 0.80078 0.56079 0.0
O307 O 0.95539 0.89479 0.60451 0.0
C308 C 0.03652 0.80845 0.70972 0.0
C309 C 0.36188 0.05156 0.75751 0.0
C310 C 0.37415 0.01113 0.709 0.0
C311 C 0.22062 0.79804 0.7501 0.0
C312 C 0.2765 0.82142 0.79085 0.0
C313 C 0.33861 0.82218 0.78048 0.0
C314 C 0.26741 0.8445 0.84129 0.0
C315 C 0.31931 0.87098 0.88142 0.0
C316 C 0.3904 0.84655 0.81982 0.0
C317 C 0.38102 0.87122 0.86992 0.0
C318 C 0.07901 0.96649 0.72737 0.0
C319 C 0.13642 0.83822 0.5912 0.0
C320 C 0.97131 0.884 0.5614 0.0
C321 C 0.9199 0.86313 0.51779 0.0
C322 C 0.859 0.83506 0.51756 0.0
C323 C 0.93214 0.86959 0.47527 0.0
C324 C 0.88317 0.85106 0.43383 0.0
C325 C 0.81101 0.81471 0.47622 0.0
C326 C 0.82273 0.82273 0.43489 0.0
C327 C 0.0867 0.7108 0.60512 0.0
H328 H 0.34729 0.80452 0.74213 0.0
H329 H 0.21955 0.84262 0.84932 0.0
H330 H 0.43813 0.84746 0.81153 0.0
H331 H 0.42216 0.89213 0.89964 0.0
H332 H 0.84847 0.82836 0.54915 0.0
H333 H 0.97939 0.89016 0.47509 0.0
H334 H 0.76431 0.79265 0.47622 0.0
H335 H 0.78431 0.80589 0.40337 0.0
H336 H 0.01769 0.14775 0.1329 0.0
H337 H 0.06519 0.96703 0.01932 0.0
H338 H 0.14842 0.96914 0.0812 0.0
H339 H 0.20711 0.02219 0.16577 0.0
H340 H 0.16872 0.20711 0.27977 0.0
H341 H 0.08075 0.20355 0.21922 0.0
C342 C 0.04705 0.10958 0.12145 0.0
C343 C 0.03411 0.05605 0.07195 0.0
C344 C 0.09517 0.11142 0.15735 0.0
C345 C 0.07292 0.00737 0.05759 0.0
C346 C 0.12043 0.0086 0.09294 0.0
C347 C 0.17852 0.06065 0.17837 0.0
C348 C 0.19361 0.1139 0.22763 0.0
C349 C 0.13101 0.05968 0.14299 0.0
C350 C 0.15736 0.165 0.24217 0.0
C351 C 0.10789 0.16341 0.20738 0.0
H352 H 0.17801 0.0653 0.78342 0.0
H353 H 0.97595 0.03468 0.74557 0.0
H354 H 0.98389 0.10445 0.70546 0.0
H355 H 0.04826 0.14105 0.65947 0.0
H356 H 0.25267 0.15605 0.68591 0.0
H357 H 0.24462 0.11665 0.74721 0.0
C358 C 0.1358 0.07554 0.76755 0.0
C359 C 0.07724 0.03673 0.75849 0.0
C360 C 0.14211 0.10649 0.73821 0.0
C361 C 0.02238 0.05855 0.7468 0.0
C362 C 0.02686 0.09588 0.72202 0.0
C363 C 0.09142 0.13553 0.67813 0.0
C364 C 0.15117 0.15161 0.66826 0.0
C365 C 0.08658 0.11374 0.71312 0.0
C366 C 0.20622 0.14426 0.69318 0.0
C367 C 0.20179 0.12271 0.72865 0.0
H368 H 0.69535 0.97131 0.09039 0.0
H369 H 0.63268 0.09224 0.02732 0.0
H370 H 0.55997 0.13121 0.08815 0.0
H371 H 0.51771 0.13383 0.1613 0.0
H372 H 0.5782 0.00926 0.22179 0.0
H373 H 0.64854 0.96792 0.15921 0.0
C374 C 0.66392 1.00357 0.08794 0.0
C375 C 0.66852 0.02703 0.05288 0.0
C376 C 0.62317 0.02644 0.12358 0.0
C377 C 0.6296 0.07245 0.05313 0.0
C378 C 0.58847 0.09523 0.08831 0.0
C379 C 0.54714 0.09849 0.16145 0.0
C380 C 0.54413 0.076 0.19723 0.0
C381 C 0.5859 0.07357 0.12439 0.0
C382 C 0.5806 0.02825 0.19543 0.0
C383 C 0.62036 1.00427 0.15936 0.0
H384 H 0.05653 0.44628 0.60774 0.0
H385 H 0.261 0.48545 0.6262 0.0
H386 H 0.25388 0.57742 0.60896 0.0
H387 H 0.19028 0.65213 0.59758 0.0
H388 H 0.98613 0.61475 0.58255 0.0
H389 H 0.99242 0.5125 0.58571 0.0
C390 C 0.09966 0.47389 0.60712 0.0
C391 C 0.15924 0.45961 0.61882 0.0
C392 C 0.09519 0.52592 0.59684 0.0
C393 C 0.21458 0.49627 0.6181 0.0
C394 C 0.21055 0.54841 0.60785 0.0
C395 C 0.14697 0.6211 0.5941 0.0
C396 C 0.088 0.64171 0.59139 0.0
C397 C 0.15114 0.56443 0.59835 0.0
C398 C 0.03219 0.60024 0.58538 0.0
C399 C 0.03579 0.54226 0.58778 0.0
H400 H 0.24429 0.31007 0.52158 0.0
H401 H 0.27445 0.14302 0.54194 0.0
H402 H 0.35499 0.11888 0.48726 0.0
H403 H 0.40671 0.13725 0.42612 0.0
H404 H 0.34542 0.27744 0.38303 0.0
H405 H 0.29022 0.32274 0.45475 0.0
C406 C 0.27057 0.27008 0.51544 0.0
C407 C 0.25722 0.23121 0.53858 0.0
C408 C 0.31157 0.25219 0.47955 0.0
C409 C 0.28695 0.17582 0.52685 0.0
C410 C 0.33233 0.16159 0.4951 0.0
C411 C 0.38237 0.17856 0.43268 0.0
C412 C 0.38352 0.20631 0.40002 0.0
C413 C 0.34383 0.19846 0.47019 0.0
C414 C 0.3494 0.25813 0.40885 0.0
C415 C 0.31622 0.28287 0.44943 0.0
H416 H 0.1351 0.2723 0.75672 0.0
H417 H 0.00264 0.389 0.73776 0.0
H418 H 0.93248 0.35892 0.78469 0.0
H419 H 0.91195 0.30428 0.83545 0.0
H420 H 0.05739 0.20993 0.87219 0.0
H421 H 0.12031 0.22856 0.81631 0.0
C422 C 0.08964 0.28897 0.76137 0.0
C423 C 0.06983 0.32583 0.73785 0.0
C424 C 0.05291 0.27689 0.79316 0.0
C425 C 0.01456 0.35331 0.74917 0.0
C426 C 0.97567 0.33799 0.77783 0.0
C427 C 0.95736 0.28748 0.83151 0.0
C428 C 0.97905 0.25519 0.85853 0.0
C429 C 0.9944 0.29979 0.80011 0.0
C430 C 0.03806 0.23352 0.85159 0.0
C431 C 0.07447 0.24441 0.81956 0.0
H432 H 0.98762 0.83553 0.38586 0.0
H433 H 0.80182 0.89092 0.38194 0.0
H434 H 0.81097 0.89577 0.3045 0.0
H435 H 0.86803 0.87716 0.23437 0.0
H436 H 0.05668 0.82869 0.24019 0.0
H437 H 0.04982 0.82851 0.3198 0.0
C438 C 0.94948 0.84962 0.36857 0.0
C439 C 0.8934 0.86116 0.38951 0.0
C440 C 0.95515 0.85298 0.32375 0.0
C441 C 0.84477 0.87959 0.36618 0.0
C442 C 0.85006 0.88285 0.32185 0.0
C443 C 0.90828 0.86771 0.25328 0.0
C444 C 0.96235 0.85183 0.23018 0.0
C445 C 0.90446 0.86841 0.29968 0.0
C446 C 0.01355 0.83927 0.2558 0.0
C447 C 0.00993 0.8396 0.30178 0.0
H448 H 0.38788 0.87056 0.96337 0.0
H449 H 0.22766 0.94437 0.921 0.0
H450 H 0.21372 1.00296 1.00863 0.0
H451 H 0.25419 0.04455 0.09761 0.0
H452 H 0.41923 0.98069 0.14278 0.0
H453 H 0.42438 0.90741 0.05418 0.0
C454 C 0.34987 0.89938 0.97324 0.0
C455 C 0.30888 0.90258 0.9351 0.0
C456 C 0.34306 0.935 0.02438 0.0
C457 C 0.25933 0.9396 0.9489 0.0
C458 C 0.25157 0.97381 0.99926 0.0
C459 C 0.28997 0.01283 0.0882 0.0
C460 C 0.33519 0.01707 0.12705 0.0
C461 C 0.2939 0.97299 0.03729 0.0
C462 C 0.38277 0.97747 0.11405 0.0
C463 C 0.38617 0.93607 0.06314 0.0
H464 H 0.95091 0.97474 0.91897 0.0
H465 H 0.77243 0.84661 0.84113 0.0
H466 H 0.82091 0.78415 0.76614 0.0
H467 H 0.91532 0.77008 0.72151 0.0
H468 H 0.08668 0.91098 0.79965 0.0
H469 H 0.04092 0.96351 0.8755 0.0
C470 C 0.92288 0.93229 0.88594 0.0
C471 C 0.8589 0.91378 0.88607 0.0
C472 C 0.95 0.89943 0.8426 0.0
C473 C 0.82228 0.86075 0.84216 0.0
C474 C 0.84997 0.82536 0.79928 0.0
C475 C 0.94196 0.81282 0.755 0.0
C476 C 0.00387 0.8382 0.75415 0.0
C477 C 0.91386 0.84487 0.79872 0.0
C478 C 0.03852 0.89206 0.7985 0.0
C479 C 0.01242 0.92192 0.8422 0.0
H480 H 0.22741 0.9711 0.46513 0.0
H481 H 0.29845 0.78704 0.39187 0.0
H482 H 0.27083 0.75965 0.45602 0.0
H483 H 0.21044 0.77828 0.52379 0.0
H484 H 0.14985 0.9655 0.60593 0.0
H485 H 0.1892 1.00143 0.54791 0.0
C486 C 0.23837 0.92588 0.46397 0.0
C487 C 0.26254 0.87988 0.42203 0.0
C488 C 0.22359 0.91058 0.50234 0.0
C489 C 0.27746 0.82219 0.42216 0.0
C490 C 0.26192 0.80641 0.45907 0.0
C491 C 0.20884 0.82832 0.53072 0.0
C492 C 0.17888 0.86964 0.57002 0.0
C493 C 0.23262 0.8488 0.49801 0.0
C494 C 0.17463 0.93337 0.57703 0.0
C495 C 0.19637 0.95352 0.54329 0.0
H496 H 0.34516 0.2808 0.90271 0.0
H497 H 0.47957 0.46051 0.96101 0.0
H498 H 0.49052 0.47141 0.04535 0.0
H499 H 0.46419 0.42946 0.10249 0.0
H500 H 0.32697 0.25228 0.04643 0.0
H501 H 0.31567 0.24052 0.96149 0.0
C502 C 0.37629 0.32269 0.934 0.0
C503 C 0.41186 0.36947 0.92526 0.0
C504 C 0.38237 0.32891 0.98285 0.0
C505 C 0.45243 0.42313 0.9663 0.0
C506 C 0.45857 0.42962 1.0147 0.0
C507 C 0.43104 0.3887 0.07199 0.0
C508 C 0.39648 0.34199 0.08127 0.0
C509 C 0.42411 0.38269 0.02339 0.0
C510 C 0.35493 0.28867 0.0406 0.0
C511 C 0.34802 0.28214 0.99195 0.0
H512 H 0.94153 0.08524 0.16125 0.0
H513 H 0.77122 0.16513 0.15222 0.0
H514 H 0.78975 0.23314 0.24459 0.0
H515 H 0.84575 0.25549 0.32756 0.0
H516 H 0.00791 0.16132 0.33411 0.0
H517 H 0.00245 0.11475 0.24343 0.0
C518 C 0.91065 0.12046 0.1795 0.0
C519 C 0.85683 0.12281 0.15029 0.0
C520 C 0.91955 0.15568 0.23238 0.0
C521 C 0.81421 0.1647 0.17416 0.0
C522 C 0.82436 0.20263 0.22691 0.0
C523 C 0.88021 0.22517 0.30927 0.0
C524 C 0.92684 0.21173 0.33805 0.0
C525 C 0.87541 0.19621 0.25646 0.0
C526 C 0.97189 0.17344 0.31353 0.0
C527 C 0.96863 0.14626 0.26138 0.0
loop_
_geom_bond_atom_site_label_1
_geom_bond_atom_site_label_2
_geom_bond_distance
_geom_bond_site_symmetry_2
_ccdc_geom_bond_type
Gd0 N31 2.661 . S
Gd0 N37 2.601 . S
Gd0 O44 2.545 . S
Gd0 O45 2.606 1_565 S
Gd0 O47 2.429 . S
Gd0 O48 2.545 1_565 S
Gd0 O49 2.412 . S
Gd0 O51 2.362 . S
Gd0 O52 2.324 . S
Gd0 C59 2.828 . S
Gd1 N10 2.661 . S
Gd1 N14 2.601 . S
Gd1 O45 2.362 . S
Gd1 O46 2.324 . S
Gd1 O50 2.545 . S
Gd1 O51 2.606 1_545 S
Gd1 O53 2.429 . S
Gd1 O54 2.545 . S
Gd1 O55 2.412 . S
Gd1 C68 2.828 . S
C2 C5 1.417 . S
C2 C7 1.431 . S
C2 C8 1.412 . S
C3 C6 1.437 . S
C3 C7 1.317 . S
C3 H22 0.929 . S
C4 C5 1.426 . S
C4 C6 1.413 . S
C4 N14 1.359 . S
C5 C2 1.417 . S
C5 C4 1.426 . S
C5 N10 1.350 . S
C6 C3 1.437 . S
C6 C4 1.413 . S
C6 C16 1.391 . S
C7 C2 1.431 . S
C7 C3 1.317 . S
C7 H18 0.930 . S
C8 C2 1.412 . S
C8 C9 1.355 . S
C8 H20 0.930 . S
C9 C8 1.355 . S
C9 C11 1.402 . S
C9 H21 0.930 . S
N10 Gd1 2.661 . S
N10 C5 1.350 . S
N10 C11 1.307 . S
C11 C9 1.402 . S
C11 N10 1.307 . S
C11 H12 0.930 . S
H12 C11 0.930 . S
C13 N14 1.334 . S
C13 C15 1.394 . S
C13 H17 0.930 . S
N14 Gd1 2.601 . S
N14 C4 1.359 . S
N14 C13 1.334 . S
C15 C13 1.394 . S
C15 C16 1.359 . S
C15 H27 0.930 . S
C16 C6 1.391 . S
C16 C15 1.359 . S
C16 H28 0.929 . S
H17 C13 0.930 . S
H18 C7 0.930 . S
H19 C36 0.930 . S
H20 C8 0.930 . S
H21 C9 0.930 . S
H22 C3 0.929 . S
H23 C41 0.930 . S
H24 C32 0.930 1_556 S
H25 C33 0.930 . S
H26 C57 0.929 . S
H27 C15 0.930 . S
H28 C16 0.929 . S
H29 C58 0.930 1_556 S
H30 C39 0.930 . S
N31 Gd0 2.661 . S
N31 C35 1.350 . S
N31 C36 1.307 . S
C32 H24 0.930 1_554 S
C32 C33 1.355 . S
C32 C34 1.412 . S
C33 H25 0.930 . S
C33 C32 1.355 . S
C33 C36 1.402 . S
C34 C32 1.412 . S
C34 C35 1.417 . S
C34 C58 1.431 . S
C35 N31 1.350 . S
C35 C34 1.417 . S
C35 C38 1.426 . S
C36 H19 0.930 . S
C36 N31 1.307 . S
C36 C33 1.402 . S
N37 Gd0 2.601 . S
N37 C38 1.359 . S
N37 C41 1.334 . S
C38 C35 1.426 . S
C38 N37 1.359 . S
C38 C42 1.413 . S
C39 H30 0.930 . S
C39 C40 1.359 . S
C39 C41 1.394 . S
C40 C39 1.359 . S
C40 C42 1.391 . S
C40 H43 0.929 . S
C41 H23 0.930 . S
C41 N37 1.334 . S
C41 C39 1.394 . S
C42 C38 1.413 . S
C42 C40 1.391 . S
C42 C57 1.437 . S
H43 C40 0.929 . S
O44 Gd0 2.545 . S
O44 C59 1.258 . S
O45 Gd0 2.606 1_545 S
O45 Gd1 2.362 . S
O45 C56 1.284 . S
O46 Gd1 2.324 . S
O46 C66 1.254 . S
O47 Gd0 2.429 . S
O47 C66 1.268 1_565 S
O48 Gd0 2.545 1_545 S
O48 C56 1.250 . S
O49 Gd0 2.412 . S
O49 C59 1.252 . S
O50 Gd1 2.545 . S
O50 C68 1.258 . S
O51 Gd0 2.362 . S
O51 Gd1 2.606 1_565 S
O51 C67 1.284 . S
O52 Gd0 2.324 . S
O52 C75 1.254 1_565 S
O53 Gd1 2.429 . S
O53 C75 1.268 . S
O54 Gd1 2.545 . S
O54 C67 1.250 1_545 S
O55 Gd1 2.412 . S
O55 C68 1.252 . S
C56 O45 1.284 . S
C56 O48 1.250 . S
C57 H26 0.929 . S
C57 C42 1.437 . S
C57 C58 1.317 . S
C58 H29 0.930 1_554 S
C58 C34 1.431 . S
C58 C57 1.317 . S
C59 Gd0 2.828 . S
C59 O44 1.258 . S
C59 O49 1.252 . S
C59 C60 1.497 . S
C60 C59 1.497 . S
C60 C61 1.395 . S
C60 C62 1.380 . S
C61 C60 1.395 . S
C61 C64 1.398 . S
C61 H76 0.930 . S
C62 C60 1.380 . S
C62 C63 1.391 . S
C62 H77 0.930 . S
C63 C62 1.391 . S
C63 C65 1.387 . S
C64 C61 1.398 . S
C64 C65 1.380 . S
C64 H78 0.930 . S
C65 C63 1.387 . S
C65 C64 1.380 . S
C65 H79 0.930 . S
C66 O46 1.254 . S
C66 O47 1.268 1_545 S
C67 O51 1.284 . S
C67 O54 1.250 1_565 S
C68 Gd1 2.828 . S
C68 O50 1.258 . S
C68 O55 1.252 . S
C68 C69 1.497 . S
C69 C68 1.497 . S
C69 C70 1.395 . S
C69 C71 1.380 . S
C70 C69 1.395 . S
C70 C73 1.398 . S
C70 H80 0.930 . S
C71 C69 1.380 . S
C71 C72 1.391 . S
C71 H81 0.930 . S
C72 C71 1.391 . S
C72 C74 1.387 . S
C73 C70 1.398 . S
C73 C74 1.380 . S
C73 H82 0.930 . S
C74 C72 1.387 . S
C74 C73 1.380 . S
C74 H83 0.930 . S
C75 O52 1.254 1_545 S
C75 O53 1.268 . S
H76 C61 0.930 . S
H77 C62 0.930 . S
H78 C64 0.930 . S
H79 C65 0.930 . S
H80 C70 0.930 . S
H81 C71 0.930 . S
H82 C73 0.930 . S
H83 C74 0.930 . S
Gd84 N115 2.661 . S
Gd84 N121 2.601 . S
Gd84 O128 2.545 . S
Gd84 O129 2.606 . S
Gd84 O131 2.429 . S
Gd84 O132 2.545 . S
Gd84 O133 2.412 . S
Gd84 O135 2.362 . S
Gd84 O136 2.324 . S
Gd84 C143 2.828 . S
Gd85 N94 2.661 . S
Gd85 N98 2.601 . S
Gd85 O129 2.362 . S
Gd85 O130 2.324 . S
Gd85 O134 2.545 . S
Gd85 O135 2.606 . S
Gd85 O137 2.429 . S
Gd85 O138 2.545 . S
Gd85 O139 2.412 . S
Gd85 C152 2.828 . S
C86 C89 1.417 . S
C86 C91 1.431 . S
C86 C92 1.412 . S
C87 C90 1.437 . S
C87 C91 1.317 . S
C87 H106 0.929 . S
C88 C89 1.426 . S
C88 C90 1.413 . S
C88 N98 1.359 1_655 S
C89 C86 1.417 . S
C89 C88 1.426 . S
C89 N94 1.350 1_655 S
C90 C87 1.437 . S
C90 C88 1.413 . S
C90 C100 1.391 . S
C91 C86 1.431 . S
C91 C87 1.317 . S
C91 H102 0.930 . S
C92 C86 1.412 . S
C92 C93 1.355 . S
C92 H104 0.930 . S
C93 C92 1.355 . S
C93 C95 1.402 1_655 S
C93 H105 0.930 1_655 S
N94 Gd85 2.661 . S
N94 C89 1.350 1_455 S
N94 C95 1.307 . S
C95 C93 1.402 1_455 S
C95 N94 1.307 . S
C95 H96 0.930 . S
H96 C95 0.930 . S
C97 N98 1.334 . S
C97 C99 1.394 1_455 S
C97 H101 0.930 . S
N98 Gd85 2.601 . S
N98 C88 1.359 1_455 S
N98 C97 1.334 . S
C99 C97 1.394 1_655 S
C99 C100 1.359 . S
C99 H111 0.930 . S
C100 C90 1.391 . S
C100 C99 1.359 . S
C100 H112 0.929 . S
H101 C97 0.930 . S
H102 C91 0.930 . S
H103 C120 0.930 . S
H104 C92 0.930 . S
H105 C93 0.930 1_455 S
H106 C87 0.929 . S
H107 C125 0.930 . S
H108 C116 0.930 . S
H109 C117 0.930 . S
H110 C141 0.929 . S
H111 C99 0.930 . S
H112 C100 0.929 . S
H113 C142 0.930 . S
H114 C123 0.930 . S
N115 Gd84 2.661 . S
N115 C119 1.350 . S
N115 C120 1.307 . S
C116 H108 0.930 . S
C116 C117 1.355 . S
C116 C118 1.412 . S
C117 H109 0.930 . S
C117 C116 1.355 . S
C117 C120 1.402 . S
C118 C116 1.412 . S
C118 C119 1.417 . S
C118 C142 1.431 . S
C119 N115 1.350 . S
C119 C118 1.417 . S
C119 C122 1.426 . S
C120 H103 0.930 . S
C120 N115 1.307 . S
C120 C117 1.402 . S
N121 Gd84 2.601 . S
N121 C122 1.359 . S
N121 C125 1.334 . S
C122 C119 1.426 . S
C122 N121 1.359 . S
C122 C126 1.413 . S
C123 H114 0.930 . S
C123 C124 1.359 . S
C123 C125 1.394 . S
C124 C123 1.359 . S
C124 C126 1.391 . S
C124 H127 0.929 . S
C125 H107 0.930 . S
C125 N121 1.334 . S
C125 C123 1.394 . S
C126 C122 1.413 . S
C126 C124 1.391 . S
C126 C141 1.437 . S
H127 C124 0.929 . S
O128 Gd84 2.545 . S
O128 C143 1.258 . S
O129 Gd84 2.606 . S
O129 Gd85 2.362 . S
O129 C140 1.284 . S
O130 Gd85 2.324 . S
O130 C150 1.254 . S
O131 Gd84 2.429 . S
O131 C150 1.268 . S
O132 Gd84 2.545 . S
O132 C140 1.250 . S
O133 Gd84 2.412 . S
O133 C143 1.252 . S
O134 Gd85 2.545 . S
O134 C152 1.258 . S
O135 Gd84 2.362 . S
O135 Gd85 2.606 . S
O135 C151 1.284 . S
O136 Gd84 2.324 . S
O136 C159 1.254 . S
O137 Gd85 2.429 . S
O137 C159 1.268 . S
O138 Gd85 2.545 . S
O138 C151 1.250 . S
O139 Gd85 2.412 . S
O139 C152 1.252 . S
C140 O129 1.284 . S
C140 O132 1.250 . S
C141 H110 0.929 . S
C141 C126 1.437 . S
C141 C142 1.317 . S
C142 H113 0.930 . S
C142 C118 1.431 . S
C142 C141 1.317 . S
C143 Gd84 2.828 . S
C143 O128 1.258 . S
C143 O133 1.252 . S
C143 C144 1.497 . S
C144 C143 1.497 . S
C144 C145 1.395 . S
C144 C146 1.380 . S
C145 C144 1.395 . S
C145 C148 1.398 . S
C145 H160 0.930 . S
C146 C144 1.380 . S
C146 C147 1.391 . S
C146 H161 0.930 . S
C147 C146 1.391 . S
C147 C149 1.387 . S
C148 C145 1.398 . S
C148 C149 1.380 . S
C148 H162 0.930 . S
C149 C147 1.387 . S
C149 C148 1.380 . S
C149 H163 0.930 . S
C150 O130 1.254 . S
C150 O131 1.268 . S
C151 O135 1.284 . S
C151 O138 1.250 . S
C152 Gd85 2.828 . S
C152 O134 1.258 . S
C152 O139 1.252 . S
C152 C153 1.497 . S
C153 C152 1.497 . S
C153 C154 1.395 1_455 S
C153 C155 1.380 . S
C154 C153 1.395 1_655 S
C154 C157 1.398 . S
C154 H164 0.930 . S
C155 C153 1.380 . S
C155 C156 1.391 . S
C155 H165 0.930 . S
C156 C155 1.391 . S
C156 C158 1.387 1_455 S
C157 C154 1.398 . S
C157 C158 1.380 . S
C157 H166 0.930 . S
C158 C156 1.387 1_655 S
C158 C157 1.380 . S
C158 H167 0.930 . S
C159 O136 1.254 . S
C159 O137 1.268 . S
H160 C145 0.930 . S
H161 C146 0.930 . S
H162 C148 0.930 . S
H163 C149 0.930 . S
H164 C154 0.930 . S
H165 C155 0.930 . S
H166 C157 0.930 . S
H167 C158 0.930 . S
Gd168 N199 2.661 1_545 S
Gd168 N205 2.601 1_545 S
Gd168 O212 2.545 1_545 S
Gd168 O213 2.606 . S
Gd168 O215 2.429 . S
Gd168 O216 2.545 . S
Gd168 O217 2.412 1_545 S
Gd168 O219 2.362 . S
Gd168 O220 2.324 . S
Gd168 C227 2.828 1_545 S
Gd169 N178 2.661 . S
Gd169 N182 2.601 . S
Gd169 O213 2.362 . S
Gd169 O214 2.324 . S
Gd169 O218 2.545 . S
Gd169 O219 2.606 . S
Gd169 O221 2.429 . S
Gd169 O222 2.545 1_554 S
Gd169 O223 2.412 . S
Gd169 C236 2.828 . S
C170 C173 1.417 . S
C170 C175 1.431 . S
C170 C176 1.412 1_655 S
C171 C174 1.437 . S
C171 C175 1.317 . S
C171 H190 0.929 . S
C172 C173 1.426 . S
C172 C174 1.413 . S
C172 N182 1.359 . S
C173 C170 1.417 . S
C173 C172 1.426 . S
C173 N178 1.350 . S
C174 C171 1.437 . S
C174 C172 1.413 . S
C174 C184 1.391 . S
C175 C170 1.431 . S
C175 C171 1.317 . S
C175 H186 0.930 . S
C176 C170 1.412 1_455 S
C176 C177 1.355 . S
C176 H188 0.930 . S
C177 C176 1.355 . S
C177 C179 1.402 . S
C177 H189 0.930 . S
N178 Gd169 2.661 . S
N178 C173 1.350 . S
N178 C179 1.307 1_655 S
C179 C177 1.402 . S
C179 N178 1.307 1_455 S
C179 H180 0.930 . S
H180 C179 0.930 . S
C181 N182 1.334 . S
C181 C183 1.394 . S
C181 H185 0.930 . S
N182 Gd169 2.601 . S
N182 C172 1.359 . S
N182 C181 1.334 . S
C183 C181 1.394 . S
C183 C184 1.359 . S
C183 H195 0.930 . S
C184 C174 1.391 . S
C184 C183 1.359 . S
C184 H196 0.929 . S
H185 C181 0.930 . S
H186 C175 0.930 . S
H187 C204 0.930 1_554 S
H188 C176 0.930 . S
H189 C177 0.930 . S
H190 C171 0.929 . S
H191 C209 0.930 1_455 S
H192 C200 0.930 . S
H193 C201 0.930 . S
H194 C225 0.929 . S
H195 C183 0.930 . S
H196 C184 0.929 . S
H197 C226 0.930 . S
H198 C207 0.930 . S
N199 Gd168 2.661 1_565 S
N199 C203 1.350 1_554 S
N199 C204 1.307 1_554 S
C200 H192 0.930 . S
C200 C201 1.355 . S
C200 C202 1.412 . S
C201 H193 0.930 . S
C201 C200 1.355 . S
C201 C204 1.402 . S
C202 C200 1.412 . S
C202 C203 1.417 . S
C202 C226 1.431 . S
C203 N199 1.350 1_556 S
C203 C202 1.417 . S
C203 C206 1.426 . S
C204 H187 0.930 1_556 S
C204 N199 1.307 1_556 S
C204 C201 1.402 . S
N205 Gd168 2.601 1_565 S
N205 C206 1.359 1_554 S
N205 C209 1.334 . S
C206 C203 1.426 . S
C206 N205 1.359 1_556 S
C206 C210 1.413 . S
C207 H198 0.930 . S
C207 C208 1.359 1_454 S
C207 C209 1.394 1_455 S
C208 C207 1.359 1_656 S
C208 C210 1.391 . S
C208 H211 0.929 1_655 S
C209 H191 0.930 1_655 S
C209 N205 1.334 . S
C209 C207 1.394 1_655 S
C210 C206 1.413 . S
C210 C208 1.391 . S
C210 C225 1.437 . S
H211 C208 0.929 1_455 S
O212 Gd168 2.545 1_565 S
O212 C227 1.258 . S
O213 Gd168 2.606 . S
O213 Gd169 2.362 . S
O213 C224 1.284 . S
O214 Gd169 2.324 . S
O214 C234 1.254 1_655 S
O215 Gd168 2.429 . S
O215 C234 1.268 1_655 S
O216 Gd168 2.545 . S
O216 C224 1.250 . S
O217 Gd168 2.412 1_565 S
O217 C227 1.252 . S
O218 Gd169 2.545 . S
O218 C236 1.258 . S
O219 Gd168 2.362 . S
O219 Gd169 2.606 . S
O219 C235 1.284 1_554 S
O220 Gd168 2.324 . S
O220 C243 1.254 . S
O221 Gd169 2.429 . S
O221 C243 1.268 . S
O222 Gd169 2.545 1_556 S
O222 C235 1.250 . S
O223 Gd169 2.412 . S
O223 C236 1.252 . S
C224 O213 1.284 . S
C224 O216 1.250 . S
C225 H194 0.929 . S
C225 C210 1.437 . S
C225 C226 1.317 . S
C226 H197 0.930 . S
C226 C202 1.431 . S
C226 C225 1.317 . S
C227 Gd168 2.828 1_565 S
C227 O212 1.258 . S
C227 O217 1.252 . S
C227 C228 1.497 . S
C228 C227 1.497 . S
C228 C229 1.395 . S
C228 C230 1.380 . S
C229 C228 1.395 . S
C229 C232 1.398 . S
C229 H244 0.930 . S
C230 C228 1.380 . S
C230 C231 1.391 . S
C230 H245 0.930 . S
C231 C230 1.391 . S
C231 C233 1.387 . S
C232 C229 1.398 . S
C232 C233 1.380 . S
C232 H246 0.930 . S
C233 C231 1.387 . S
C233 C232 1.380 . S
C233 H247 0.930 . S
C234 O214 1.254 1_455 S
C234 O215 1.268 1_455 S
C235 O219 1.284 1_556 S
C235 O222 1.250 . S
C236 Gd169 2.828 . S
C236 O218 1.258 . S
C236 O223 1.252 . S
C236 C237 1.497 1_554 S
C237 C236 1.497 1_556 S
C237 C238 1.395 . S
C237 C239 1.380 . S
C238 C237 1.395 . S
C238 C241 1.398 . S
C238 H248 0.930 . S
C239 C237 1.380 . S
C239 C240 1.391 . S
C239 H249 0.930 . S
C240 C239 1.391 . S
C240 C242 1.387 . S
C241 C238 1.398 . S
C241 C242 1.380 . S
C241 H250 0.930 . S
C242 C240 1.387 . S
C242 C241 1.380 . S
C242 H251 0.930 . S
C243 O220 1.254 . S
C243 O221 1.268 . S
H244 C229 0.930 . S
H245 C230 0.930 . S
H246 C232 0.930 . S
H247 C233 0.930 . S
H248 C238 0.930 . S
H249 C239 0.930 . S
H250 C241 0.930 . S
H251 C242 0.930 . S
Gd252 N283 2.661 . S
Gd252 N289 2.601 . S
Gd252 O296 2.545 . S
Gd252 O297 2.606 1_455 S
Gd252 O299 2.429 . S
Gd252 O300 2.545 . S
Gd252 O301 2.412 . S
Gd252 O303 2.362 . S
Gd252 O304 2.324 . S
Gd252 C311 2.828 . S
Gd253 N262 2.661 . S
Gd253 N266 2.601 . S
Gd253 O297 2.362 . S
Gd253 O298 2.324 . S
Gd253 O302 2.545 . S
Gd253 O303 2.606 1_655 S
Gd253 O305 2.429 . S
Gd253 O306 2.545 1_655 S
Gd253 O307 2.412 . S
Gd253 C320 2.828 . S
C254 C257 1.417 . S
C254 C259 1.431 . S
C254 C260 1.412 . S
C255 C258 1.437 . S
C255 C259 1.317 . S
C255 H274 0.929 . S
C256 C257 1.426 . S
C256 C258 1.413 . S
C256 N266 1.359 . S
C257 C254 1.417 . S
C257 C256 1.426 . S
C257 N262 1.350 . S
C258 C255 1.437 . S
C258 C256 1.413 . S
C258 C268 1.391 . S
C259 C254 1.431 . S
C259 C255 1.317 . S
C259 H270 0.930 . S
C260 C254 1.412 . S
C260 C261 1.355 . S
C260 H272 0.930 . S
C261 C260 1.355 . S
C261 C263 1.402 . S
C261 H273 0.930 . S
N262 Gd253 2.661 . S
N262 C257 1.350 . S
N262 C263 1.307 . S
C263 C261 1.402 . S
C263 N262 1.307 . S
C263 H264 0.930 . S
H264 C263 0.930 . S
C265 N266 1.334 . S
C265 C267 1.394 . S
C265 H269 0.930 . S
N266 Gd253 2.601 . S
N266 C256 1.359 . S
N266 C265 1.334 . S
C267 C265 1.394 . S
C267 C268 1.359 . S
C267 H279 0.930 . S
C268 C258 1.391 . S
C268 C267 1.359 . S
C268 H280 0.929 . S
H269 C265 0.930 . S
H270 C259 0.930 . S
H271 C288 0.930 . S
H272 C260 0.930 . S
H273 C261 0.930 . S
H274 C255 0.929 . S
H275 C293 0.930 1_545 S
H276 C284 0.930 . S
H277 C285 0.930 . S
H278 C309 0.929 . S
H279 C267 0.930 . S
H280 C268 0.929 . S
H281 C310 0.930 . S
H282 C291 0.930 . S
N283 Gd252 2.661 . S
N283 C287 1.350 . S
N283 C288 1.307 . S
C284 H276 0.930 . S
C284 C285 1.355 . S
C284 C286 1.412 . S
C285 H277 0.930 . S
C285 C284 1.355 . S
C285 C288 1.402 . S
C286 C284 1.412 . S
C286 C287 1.417 . S
C286 C310 1.431 . S
C287 N283 1.350 . S
C287 C286 1.417 . S
C287 C290 1.426 . S
C288 H271 0.930 . S
C288 N283 1.307 . S
C288 C285 1.402 . S
N289 Gd252 2.601 . S
N289 C290 1.359 . S
N289 C293 1.334 . S
C290 C287 1.426 . S
C290 N289 1.359 . S
C290 C294 1.413 . S
C291 H282 0.930 . S
C291 C292 1.359 . S
C291 C293 1.394 1_545 S
C292 C291 1.359 . S
C292 C294 1.391 1_545 S
C292 H295 0.929 . S
C293 H275 0.930 1_565 S
C293 N289 1.334 . S
C293 C291 1.394 1_565 S
C294 C290 1.413 . S
C294 C292 1.391 1_565 S
C294 C309 1.437 . S
H295 C292 0.929 . S
O296 Gd252 2.545 . S
O296 C311 1.258 . S
O297 Gd252 2.606 1_655 S
O297 Gd253 2.362 . S
O297 C308 1.284 . S
O298 Gd253 2.324 . S
O298 C318 1.254 1_655 S
O299 Gd252 2.429 . S
O299 C318 1.268 . S
O300 Gd252 2.545 . S
O300 C308 1.250 1_455 S
O301 Gd252 2.412 . S
O301 C311 1.252 . S
O302 Gd253 2.545 . S
O302 C320 1.258 . S
O303 Gd252 2.362 . S
O303 Gd253 2.606 1_455 S
O303 C319 1.284 . S
O304 Gd252 2.324 . S
O304 C327 1.254 . S
O305 Gd253 2.429 . S
O305 C327 1.268 1_655 S
O306 Gd253 2.545 1_455 S
O306 C319 1.250 . S
O307 Gd253 2.412 . S
O307 C320 1.252 . S
C308 O297 1.284 . S
C308 O300 1.250 1_655 S
C309 H278 0.929 . S
C309 C294 1.437 . S
C309 C310 1.317 . S
C310 H281 0.930 . S
C310 C286 1.431 . S
C310 C309 1.317 . S
C311 Gd252 2.828 . S
C311 O296 1.258 . S
C311 O301 1.252 . S
C311 C312 1.497 . S
C312 C311 1.497 . S
C312 C313 1.395 . S
C312 C314 1.380 . S
C313 C312 1.395 . S
C313 C316 1.398 . S
C313 H328 0.930 . S
C314 C312 1.380 . S
C314 C315 1.391 . S
C314 H329 0.930 . S
C315 C314 1.391 . S
C315 C317 1.387 . S
C316 C313 1.398 . S
C316 C317 1.380 . S
C316 H330 0.930 . S
C317 C315 1.387 . S
C317 C316 1.380 . S
C317 H331 0.930 . S
C318 O298 1.254 1_455 S
C318 O299 1.268 . S
C319 O303 1.284 . S
C319 O306 1.250 . S
C320 Gd253 2.828 . S
C320 O302 1.258 . S
C320 O307 1.252 . S
C320 C321 1.497 . S
C321 C320 1.497 . S
C321 C322 1.395 . S
C321 C323 1.380 . S
C322 C321 1.395 . S
C322 C325 1.398 . S
C322 H332 0.930 . S
C323 C321 1.380 . S
C323 C324 1.391 . S
C323 H333 0.930 . S
C324 C323 1.391 . S
C324 C326 1.387 . S
C325 C322 1.398 . S
C325 C326 1.380 . S
C325 H334 0.930 . S
C326 C324 1.387 . S
C326 C325 1.380 . S
C326 H335 0.930 . S
C327 O304 1.254 . S
C327 O305 1.268 1_455 S
H328 C313 0.930 . S
H329 C314 0.930 . S
H330 C316 0.930 . S
H331 C317 0.930 . S
H332 C322 0.930 . S
H333 C323 0.930 . S
H334 C325 0.930 . S
H335 C326 0.930 . S
H336 C342 0.930 . S
H337 C345 0.930 1_655 S
H338 C346 0.930 . S
H339 C347 0.930 . S
H340 C350 0.930 . S
H341 C351 0.930 . S
C342 H336 0.930 . S
C342 C343 1.355 . S
C342 C344 1.415 . S
C343 C342 1.355 . S
C343 C345 1.419 . S
C344 C342 1.415 . S
C344 C349 1.425 . S
C344 C351 1.409 . S
C345 H337 0.930 1_455 S
C345 C343 1.419 . S
C345 C346 1.362 . S
C346 H338 0.930 . S
C346 C345 1.362 . S
C346 C349 1.409 . S
C347 H339 0.930 . S
C347 C348 1.355 . S
C347 C349 1.415 . S
C348 C347 1.355 . S
C348 C350 1.419 . S
C349 C344 1.425 . S
C349 C346 1.409 . S
C349 C347 1.415 . S
C350 H340 0.930 . S
C350 C348 1.419 . S
C350 C351 1.362 . S
C351 H341 0.930 . S
C351 C344 1.409 . S
C351 C350 1.362 . S
H352 C358 0.930 . S
H353 C361 0.930 . S
H354 C362 0.930 1_565 S
H355 C363 0.930 . S
H356 C366 0.930 . S
H357 C367 0.930 . S
C358 H352 0.930 . S
C358 C359 1.355 1_545 S
C358 C360 1.415 . S
C359 C358 1.355 1_565 S
C359 C361 1.419 . S
C360 C358 1.415 . S
C360 C365 1.425 . S
C360 C367 1.409 . S
C361 H353 0.930 . S
C361 C359 1.419 . S
C361 C362 1.362 1_565 S
C362 H354 0.930 1_545 S
C362 C361 1.362 1_545 S
C362 C365 1.409 . S
C363 H355 0.930 . S
C363 C364 1.355 . S
C363 C365 1.415 . S
C364 C363 1.355 . S
C364 C366 1.419 . S
C365 C360 1.425 . S
C365 C362 1.409 . S
C365 C363 1.415 . S
C366 H356 0.930 . S
C366 C364 1.419 . S
C366 C367 1.362 . S
C367 H357 0.930 . S
C367 C360 1.409 . S
C367 C366 1.362 . S
H368 C374 0.930 . S
H369 C377 0.930 . S
H370 C378 0.930 . S
H371 C379 0.930 . S
H372 C382 0.930 . S
H373 C383 0.930 1_565 S
C374 H368 0.930 . S
C374 C375 1.355 . S
C374 C376 1.415 . S
C375 C374 1.355 . S
C375 C377 1.419 . S
C376 C374 1.415 . S
C376 C381 1.425 . S
C376 C383 1.409 . S
C377 H369 0.930 . S
C377 C375 1.419 . S
C377 C378 1.362 . S
C378 H370 0.930 . S
C378 C377 1.362 . S
C378 C381 1.409 . S
C379 H371 0.930 . S
C379 C380 1.355 . S
C379 C381 1.415 . S
C380 C379 1.355 . S
C380 C382 1.419 1_545 S
C381 C376 1.425 . S
C381 C378 1.409 . S
C381 C379 1.415 . S
C382 H372 0.930 . S
C382 C380 1.419 1_565 S
C382 C383 1.362 1_565 S
C383 H373 0.930 1_545 S
C383 C376 1.409 . S
C383 C382 1.362 1_545 S
H384 C390 0.930 . S
H385 C393 0.930 . S
H386 C394 0.930 . S
H387 C395 0.930 . S
H388 C398 0.930 . S
H389 C399 0.930 . S
C390 H384 0.930 . S
C390 C391 1.355 . S
C390 C392 1.415 . S
C391 C390 1.355 . S
C391 C393 1.419 . S
C392 C390 1.415 . S
C392 C397 1.425 . S
C392 C399 1.409 . S
C393 H385 0.930 . S
C393 C391 1.419 . S
C393 C394 1.362 . S
C394 H386 0.930 . S
C394 C393 1.362 . S
C394 C397 1.409 . S
C395 H387 0.930 . S
C395 C396 1.355 . S
C395 C397 1.415 . S
C396 C395 1.355 . S
C396 C398 1.419 . S
C397 C392 1.425 . S
C397 C394 1.409 . S
C397 C395 1.415 . S
C398 H388 0.930 . S
C398 C396 1.419 . S
C398 C399 1.362 . S
C399 H389 0.930 . S
C399 C392 1.409 . S
C399 C398 1.362 . S
H400 C406 0.930 . S
H401 C409 0.930 . S
H402 C410 0.930 . S
H403 C411 0.930 . S
H404 C414 0.930 . S
H405 C415 0.930 . S
C406 H400 0.930 . S
C406 C407 1.355 . S
C406 C408 1.415 . S
C407 C406 1.355 . S
C407 C409 1.419 . S
C408 C406 1.415 . S
C408 C413 1.425 . S
C408 C415 1.409 . S
C409 H401 0.930 . S
C409 C407 1.419 . S
C409 C410 1.362 . S
C410 H402 0.930 . S
C410 C409 1.362 . S
C410 C413 1.409 . S
C411 H403 0.930 . S
C411 C412 1.355 . S
C411 C413 1.415 . S
C412 C411 1.355 . S
C412 C414 1.419 . S
C413 C408 1.425 . S
C413 C410 1.409 . S
C413 C411 1.415 . S
C414 H404 0.930 . S
C414 C412 1.419 . S
C414 C415 1.362 . S
C415 H405 0.930 . S
C415 C408 1.409 . S
C415 C414 1.362 . S
H416 C422 0.930 . S
H417 C425 0.930 . S
H418 C426 0.930 . S
H419 C427 0.930 1_655 S
H420 C430 0.930 . S
H421 C431 0.930 . S
C422 H416 0.930 . S
C422 C423 1.355 . S
C422 C424 1.415 . S
C423 C422 1.355 . S
C423 C425 1.419 . S
C424 C422 1.415 . S
C424 C429 1.425 . S
C424 C431 1.409 . S
C425 H417 0.930 . S
C425 C423 1.419 . S
C425 C426 1.362 . S
C426 H418 0.930 . S
C426 C425 1.362 . S
C426 C429 1.409 . S
C427 H419 0.930 1_455 S
C427 C428 1.355 . S
C427 C429 1.415 . S
C428 C427 1.355 . S
C428 C430 1.419 . S
C429 C424 1.425 . S
C429 C426 1.409 . S
C429 C427 1.415 . S
C430 H420 0.930 . S
C430 C428 1.419 . S
C430 C431 1.362 . S
C431 H421 0.930 . S
C431 C424 1.409 . S
C431 C430 1.362 . S
H432 C438 0.930 . S
H433 C441 0.930 . S
H434 C442 0.930 . S
H435 C443 0.930 . S
H436 C446 0.930 . S
H437 C447 0.930 . S
C438 H432 0.930 . S
C438 C439 1.355 . S
C438 C440 1.415 . S
C439 C438 1.355 . S
C439 C441 1.419 . S
C440 C438 1.415 . S
C440 C445 1.425 . S
C440 C447 1.409 . S
C441 H433 0.930 . S
C441 C439 1.419 . S
C441 C442 1.362 . S
C442 H434 0.930 . S
C442 C441 1.362 . S
C442 C445 1.409 . S
C443 H435 0.930 . S
C443 C444 1.355 . S
C443 C445 1.415 . S
C444 C443 1.355 . S
C444 C446 1.419 . S
C445 C440 1.425 . S
C445 C442 1.409 . S
C445 C443 1.415 . S
C446 H436 0.930 . S
C446 C444 1.419 . S
C446 C447 1.362 . S
C447 H437 0.930 . S
C447 C440 1.409 . S
C447 C446 1.362 . S
H448 C454 0.930 . S
H449 C457 0.930 . S
H450 C458 0.930 . S
H451 C459 0.930 . S
H452 C462 0.930 . S
H453 C463 0.930 . S
C454 H448 0.930 . S
C454 C455 1.355 . S
C454 C456 1.415 . S
C455 C454 1.355 . S
C455 C457 1.419 . S
C456 C454 1.415 . S
C456 C461 1.425 . S
C456 C463 1.409 . S
C457 H449 0.930 . S
C457 C455 1.419 . S
C457 C458 1.362 . S
C458 H450 0.930 . S
C458 C457 1.362 . S
C458 C461 1.409 . S
C459 H451 0.930 . S
C459 C460 1.355 . S
C459 C461 1.415 1_554 S
C460 C459 1.355 . S
C460 C462 1.419 . S
C461 C456 1.425 . S
C461 C458 1.409 . S
C461 C459 1.415 1_556 S
C462 H452 0.930 . S
C462 C460 1.419 . S
C462 C463 1.362 1_554 S
C463 H453 0.930 . S
C463 C456 1.409 . S
C463 C462 1.362 1_556 S
H464 C470 0.930 . S
H465 C473 0.930 . S
H466 C474 0.930 . S
H467 C475 0.930 . S
H468 C478 0.930 . S
H469 C479 0.930 1_545 S
C470 H464 0.930 . S
C470 C471 1.355 1_545 S
C470 C472 1.415 1_545 S
C471 C470 1.355 1_565 S
C471 C473 1.419 . S
C472 C470 1.415 1_565 S
C472 C477 1.425 . S
C472 C479 1.409 . S
C473 H465 0.930 . S
C473 C471 1.419 . S
C473 C474 1.362 . S
C474 H466 0.930 . S
C474 C473 1.362 . S
C474 C477 1.409 . S
C475 H467 0.930 . S
C475 C476 1.355 . S
C475 C477 1.415 . S
C476 C475 1.355 . S
C476 C478 1.419 . S
C477 C472 1.425 . S
C477 C474 1.409 . S
C477 C475 1.415 . S
C478 H468 0.930 . S
C478 C476 1.419 . S
C478 C479 1.362 . S
C479 H469 0.930 1_565 S
C479 C472 1.409 . S
C479 C478 1.362 . S
H480 C486 0.930 . S
H481 C489 0.930 . S
H482 C490 0.930 . S
H483 C491 0.930 . S
H484 C494 0.930 . S
H485 C495 0.930 . S
C486 H480 0.930 . S
C486 C487 1.355 . S
C486 C488 1.415 . S
C487 C486 1.355 . S
C487 C489 1.419 . S
C488 C486 1.415 . S
C488 C493 1.425 . S
C488 C495 1.409 . S
C489 H481 0.930 . S
C489 C487 1.419 . S
C489 C490 1.362 . S
C490 H482 0.930 . S
C490 C489 1.362 . S
C490 C493 1.409 . S
C491 H483 0.930 . S
C491 C492 1.355 . S
C491 C493 1.415 . S
C492 C491 1.355 . S
C492 C494 1.419 . S
C493 C488 1.425 . S
C493 C490 1.409 . S
C493 C491 1.415 . S
C494 H484 0.930 . S
C494 C492 1.419 . S
C494 C495 1.362 . S
C495 H485 0.930 . S
C495 C488 1.409 . S
C495 C494 1.362 . S
H496 C502 0.930 . S
H497 C505 0.930 . S
H498 C506 0.930 1_554 S
H499 C507 0.930 . S
H500 C510 0.930 . S
H501 C511 0.930 . S
C502 H496 0.930 . S
C502 C503 1.355 . S
C502 C504 1.415 . S
C503 C502 1.355 . S
C503 C505 1.419 . S
C504 C502 1.415 . S
C504 C509 1.425 . S
C504 C511 1.409 . S
C505 H497 0.930 . S
C505 C503 1.419 . S
C505 C506 1.362 . S
C506 H498 0.930 1_556 S
C506 C505 1.362 . S
C506 C509 1.409 . S
C507 H499 0.930 . S
C507 C508 1.355 . S
C507 C509 1.415 1_554 S
C508 C507 1.355 . S
C508 C510 1.419 1_554 S
C509 C504 1.425 . S
C509 C506 1.409 . S
C509 C507 1.415 1_556 S
C510 H500 0.930 . S
C510 C508 1.419 1_556 S
C510 C511 1.362 . S
C511 H501 0.930 . S
C511 C504 1.409 . S
C511 C510 1.362 . S
H512 C518 0.930 . S
H513 C521 0.930 . S
H514 C522 0.930 . S
H515 C523 0.930 . S
H516 C526 0.930 . S
H517 C527 0.930 . S
C518 H512 0.930 . S
C518 C519 1.355 . S
C518 C520 1.415 . S
C519 C518 1.355 . S
C519 C521 1.419 . S
C520 C518 1.415 . S
C520 C525 1.425 . S
C520 C527 1.409 1_655 S
C521 H513 0.930 . S
C521 C519 1.419 . S
C521 C522 1.362 . S
C522 H514 0.930 . S
C522 C521 1.362 . S
C522 C525 1.409 . S
C523 H515 0.930 . S
C523 C524 1.355 1_655 S
C523 C525 1.415 . S
C524 C523 1.355 1_455 S
C524 C526 1.419 . S
C525 C520 1.425 . S
C525 C522 1.409 . S
C525 C523 1.415 . S
C526 H516 0.930 . S
C526 C524 1.419 . S
C526 C527 1.362 . S
C527 H517 0.930 . S
C527 C520 1.409 1_455 S
C527 C526 1.362 . S
C343 C234 0.940 . S
C348 C75 0.940 . S
C359 C318 0.928 . S
C364 C159 0.928 . S
C375 C243 1.353 . S
C380 C66 1.353 . S
C391 C150 1.453 . S
C396 C327 1.453 . S
C407 C151 1.895 . S
C412 C56 2.117 . S
C423 C140 2.001 . S
C428 C240 2.005 1_455 S
C439 C324 1.128 . S
C444 C231 0.846 . S
C455 C315 0.795 . S
C460 C67 1.006 . S
C471 C235 2.114 1_565 S
C476 C308 1.889 . S
C487 C63 2.004 . S
C492 C319 1.964 . S
C503 C147 1.103 . S
C508 C72 1.004 . S
C519 C224 0.923 . S
C524 C156 0.937 . S
