# Generated by pormake.
# Topology uoz, (4)-cn, num edge types: 1
# Building blocks:
#     Node 0, Type 0, BuildingBlock: TATPOV_clean_sbu_0, # of connection points: 4
#     Node 1, Type 0, BuildingBlock: TATPOV_clean_sbu_0, # of connection points: 4
#     Node 2, Type 0, BuildingBlock: TATPOV_clean_sbu_0, # of connection points: 4
#     Node 3, Type 0, BuildingBlock: TATPOV_clean_sbu_0, # of connection points: 4
#     Node 4, Type 0, BuildingBlock: TATPOV_clean_sbu_0, # of connection points: 4
#     Node 5, Type 0, BuildingBlock: TATPOV_clean_sbu_0, # of connection points: 4
#     Node 6, Type 0, BuildingBlock: TATPOV_clean_sbu_0, # of connection points: 4
#     Node 7, Type 0, BuildingBlock: TATPOV_clean_sbu_0, # of connection points: 4
#     Node 8, Type 0, BuildingBlock: TATPOV_clean_sbu_0, # of connection points: 4
#     Node 9, Type 0, BuildingBlock: TATPOV_clean_sbu_0, # of connection points: 4
#     Node 10, Type 0, BuildingBlock: TATPOV_clean_sbu_0, # of connection points: 4
#     Node 11, Type 0, BuildingBlock: TATPOV_clean_sbu_0, # of connection points: 4
#     Node 12, Type 0, BuildingBlock: TATPOV_clean_sbu_0, # of connection points: 4
#     Node 13, Type 0, BuildingBlock: TATPOV_clean_sbu_0, # of connection points: 4
#     Node 14, Type 0, BuildingBlock: TATPOV_clean_sbu_0, # of connection points: 4
#     Node 15, Type 0, BuildingBlock: TATPOV_clean_sbu_0, # of connection points: 4
#     Edge 16, Type (0, 0), BuildingBlock: AJUNOK_clean_linker_0, # of connection points: 2
#     Edge 17, Type (0, 0), BuildingBlock: AJUNOK_clean_linker_0, # of connection points: 2
#     Edge 18, Type (0, 0), BuildingBlock: AJUNOK_clean_linker_0, # of connection points: 2
#     Edge 19, Type (0, 0), BuildingBlock: AJUNOK_clean_linker_0, # of connection points: 2
#     Edge 20, Type (0, 0), BuildingBlock: AJUNOK_clean_linker_0, # of connection points: 2
#     Edge 21, Type (0, 0), BuildingBlock: AJUNOK_clean_linker_0, # of connection points: 2
#     Edge 22, Type (0, 0), BuildingBlock: AJUNOK_clean_linker_0, # of connection points: 2
#     Edge 23, Type (0, 0), BuildingBlock: AJUNOK_clean_linker_0, # of connection points: 2
#     Edge 24, Type (0, 0), BuildingBlock: AJUNOK_clean_linker_0, # of connection points: 2
#     Edge 25, Type (0, 0), BuildingBlock: AJUNOK_clean_linker_0, # of connection points: 2
#     Edge 26, Type (0, 0), BuildingBlock: AJUNOK_clean_linker_0, # of connection points: 2
#     Edge 27, Type (0, 0), BuildingBlock: AJUNOK_clean_linker_0, # of connection points: 2
#     Edge 28, Type (0, 0), BuildingBlock: AJUNOK_clean_linker_0, # of connection points: 2
#     Edge 29, Type (0, 0), BuildingBlock: AJUNOK_clean_linker_0, # of connection points: 2
#     Edge 30, Type (0, 0), BuildingBlock: AJUNOK_clean_linker_0, # of connection points: 2
#     Edge 31, Type (0, 0), BuildingBlock: AJUNOK_clean_linker_0, # of connection points: 2
#     Edge 32, Type (0, 0), BuildingBlock: AJUNOK_clean_linker_0, # of connection points: 2
#     Edge 33, Type (0, 0), BuildingBlock: AJUNOK_clean_linker_0, # of connection points: 2
#     Edge 34, Type (0, 0), BuildingBlock: AJUNOK_clean_linker_0, # of connection points: 2
#     Edge 35, Type (0, 0), BuildingBlock: AJUNOK_clean_linker_0, # of connection points: 2
#     Edge 36, Type (0, 0), BuildingBlock: AJUNOK_clean_linker_0, # of connection points: 2
#     Edge 37, Type (0, 0), BuildingBlock: AJUNOK_clean_linker_0, # of connection points: 2
#     Edge 38, Type (0, 0), BuildingBlock: AJUNOK_clean_linker_0, # of connection points: 2
#     Edge 39, Type (0, 0), BuildingBlock: AJUNOK_clean_linker_0, # of connection points: 2
#     Edge 40, Type (0, 0), BuildingBlock: AJUNOK_clean_linker_0, # of connection points: 2
#     Edge 41, Type (0, 0), BuildingBlock: AJUNOK_clean_linker_0, # of connection points: 2
#     Edge 42, Type (0, 0), BuildingBlock: AJUNOK_clean_linker_0, # of connection points: 2
#     Edge 43, Type (0, 0), BuildingBlock: AJUNOK_clean_linker_0, # of connection points: 2
#     Edge 44, Type (0, 0), BuildingBlock: AJUNOK_clean_linker_0, # of connection points: 2
#     Edge 45, Type (0, 0), BuildingBlock: AJUNOK_clean_linker_0, # of connection points: 2
#     Edge 46, Type (0, 0), BuildingBlock: AJUNOK_clean_linker_0, # of connection points: 2
#     Edge 47, Type (0, 0), BuildingBlock: AJUNOK_clean_linker_0, # of connection points: 2
# Relax obj value: 0.125
# Max RMSD: 0.095
# Mean RMSD: 0.094
data_MOF--net-uoz--node1-TATPOV_clean_sbu_0--edge1-AJUNOK_clean_linker_0
_symmetry_space_group_name_H-M    P1
_symmetry_Int_Tables_number       1
_symmetry_cell_setting            triclinic
loop_
_symmetry_equiv_pos_as_xyz
'x, y, z'
_cell_length_a     44.495835
_cell_length_b     44.262317
_cell_length_c     17.038779
_cell_angle_alpha  90.27184
_cell_angle_beta   90.016311
_cell_angle_gamma 89.767146
loop_
_atom_site_label
_atom_site_type_symbol
_atom_site_fract_x
_atom_site_fract_y
_atom_site_fract_z
_atom_type_partial_charge
Zn0 Zn 0.0461 0.5821 0.15301 0.0
Zn1 Zn 0.03635 0.56156 0.27328 0.0
O2 O 0.00413 0.59669 0.25361 0.0
O3 O 0.03176 0.62346 0.17345 0.0
O4 O 0.02942 0.53904 0.3806 0.0
O5 O 0.01828 0.55753 0.09157 0.0
O6 O 0.02606 0.52821 0.19263 0.0
C7 C 0.00775 0.62056 0.21203 0.0
C8 C 0.09985 0.57849 0.21126 0.0
O9 O 0.08177 0.57718 0.26992 0.0
O10 O 0.08946 0.57393 0.14348 0.0
C11 C 0.04249 0.51369 0.39437 0.0
O12 O 0.06142 0.50317 0.34165 0.0
C13 C 0.01598 0.53203 0.1232 0.0
Zn14 Zn 0.66416 0.73325 0.43064 0.0
Zn15 Zn 0.68461 0.72679 0.5502 0.0
O16 O 0.64821 0.69573 0.53383 0.0
O17 O 0.62175 0.72671 0.46139 0.0
O18 O 0.70723 0.72165 0.65885 0.0
O19 O 0.68511 0.69968 0.37683 0.0
O20 O 0.71651 0.71378 0.46901 0.0
C21 C 0.62376 0.70188 0.49706 0.0
C22 C 0.67308 0.78852 0.47297 0.0
O23 O 0.67161 0.77307 0.53648 0.0
O24 O 0.67828 0.77465 0.40962 0.0
C25 C 0.73196 0.73551 0.67334 0.0
O26 O 0.74216 0.75425 0.62013 0.0
C27 C 0.71146 0.70034 0.4038 0.0
Zn28 Zn 0.50347 0.396 0.63919 0.0
Zn29 Zn 0.51225 0.40604 0.77292 0.0
O30 O 0.54555 0.37319 0.73966 0.0
O31 O 0.52389 0.35711 0.63129 0.0
O32 O 0.52045 0.42419 0.88542 0.0
O33 O 0.52537 0.42921 0.59146 0.0
O34 O 0.51898 0.44556 0.71163 0.0
C35 C 0.54511 0.35524 0.68001 0.0
C36 C 0.44981 0.38817 0.70496 0.0
O37 O 0.46777 0.38838 0.76408 0.0
O38 O 0.45939 0.3969 0.63927 0.0
C39 C 0.50036 0.43666 0.92882 0.0
O40 O 0.47206 0.43441 0.90771 0.0
C41 C 0.52665 0.4504 0.64083 0.0
Zn42 Zn 0.86931 0.22642 0.91412 0.0
Zn43 Zn 0.85332 0.23511 0.03924 0.0
O44 O 0.89136 0.2633 0.0189 0.0
O45 O 0.9126 0.2324 0.93432 0.0
O46 O 0.83378 0.24063 0.1518 0.0
O47 O 0.84823 0.26017 0.86278 0.0
O48 O 0.82008 0.25106 0.96521 0.0
C49 C 0.91382 0.25626 0.97493 0.0
C50 C 0.86135 0.17211 0.96162 0.0
O51 O 0.86431 0.18862 0.0233 0.0
O52 O 0.85425 0.18483 0.89823 0.0
C53 C 0.81024 0.22565 0.17092 0.0
O54 O 0.79985 0.2058 0.12028 0.0
C55 C 0.82355 0.26326 0.89792 0.0
Zn56 Zn 0.0378 0.37643 0.92634 0.0
Zn57 Zn 0.03624 0.39401 0.80172 0.0
O58 O 0.00305 0.35961 0.81492 0.0
O59 O 0.02922 0.33373 0.90055 0.0
O60 O 0.03719 0.41517 0.6906 0.0
O61 O 0.00433 0.40118 0.96859 0.0
O62 O 0.02356 0.42872 0.87498 0.0
C63 C 0.0063 0.33591 0.85741 0.0
C64 C 0.09441 0.38048 0.89368 0.0
O65 O 0.08063 0.37857 0.82761 0.0
O66 O 0.07942 0.38789 0.95355 0.0
C67 C 0.02043 0.438 0.67468 0.0
O68 O -0.00012 0.44587 0.72617 0.0
C69 C 0.00767 0.42664 0.93699 0.0
Zn70 Zn 0.86838 0.73257 0.21546 0.0
Zn71 Zn 0.85119 0.73233 0.08546 0.0
O72 O 0.88744 0.70035 0.08742 0.0
O73 O 0.90917 0.71854 0.19369 0.0
O74 O 0.8291 0.73445 0.97473 0.0
O75 O 0.84146 0.70249 0.26107 0.0
O76 O 0.81671 0.71723 0.15703 0.0
C77 C 0.90961 0.70075 0.1358 0.0
C78 C 0.86823 0.79042 0.18145 0.0
O79 O 0.8667 0.77685 0.11465 0.0
O80 O 0.86305 0.77549 0.24275 0.0
C81 C 0.80708 0.7169 0.95761 0.0
O82 O 0.80051 0.69536 0.00735 0.0
C83 C 0.81734 0.70335 0.2225 0.0
Zn84 Zn 0.50192 0.63031 0.49042 0.0
Zn85 Zn 0.50672 0.5742 0.30128 0.0
O86 O 0.54049 0.60747 0.2854 0.0
O87 O 0.51062 0.62413 0.37441 0.0
O88 O 0.50898 0.53671 0.22398 0.0
O89 O 0.51763 0.58997 0.53038 0.0
O90 O 0.51695 0.56185 0.41845 0.0
C91 C 0.53606 0.6258 0.34209 0.0
C92 C 0.45763 0.6032 0.36346 0.0
O93 O 0.46057 0.58759 0.30149 0.0
O94 O 0.48217 0.61085 0.39506 0.0
C95 C 0.5252 0.53199 0.16297 0.0
O96 O 0.54546 0.55221 0.1442 0.0
C97 C 0.52145 0.56497 0.49305 0.0
Zn98 Zn 0.65328 0.24144 0.7661 0.0
Zn99 Zn 0.68856 0.23489 0.57775 0.0
O100 O 0.65337 0.26451 0.54114 0.0
O101 O 0.65039 0.25324 0.66054 0.0
O102 O 0.71756 0.2273 0.48072 0.0
O103 O 0.69219 0.26162 0.78451 0.0
O104 O 0.71363 0.25629 0.66606 0.0
C105 C 0.64034 0.26884 0.60611 0.0
C106 C 0.66359 0.18092 0.68991 0.0
O107 O 0.67307 0.19275 0.62515 0.0
O108 O 0.6568 0.19687 0.74983 0.0
C109 C 0.73685 0.24668 0.4569 0.0
O110 O 0.73839 0.27265 0.49425 0.0
C111 C 0.71406 0.26573 0.73771 0.0
Zn112 Zn 0.36956 0.23833 0.72404 0.0
Zn113 Zn 0.3508 0.23391 0.59939 0.0
O114 O 0.38806 0.20411 0.60909 0.0
O115 O 0.41216 0.2313 0.69646 0.0
O116 O 0.3304 0.23082 0.48806 0.0
O117 O 0.34773 0.20382 0.76945 0.0
O118 O 0.31823 0.21692 0.67248 0.0
C119 C 0.41167 0.20891 0.65049 0.0
C120 C 0.36255 0.29428 0.68847 0.0
O121 O 0.36309 0.27962 0.62316 0.0
O122 O 0.35695 0.27997 0.75052 0.0
C123 C 0.30318 0.2394 0.47636 0.0
O124 O 0.28851 0.25188 0.53513 0.0
C125 C 0.3225 0.20237 0.73603 0.0
Zn126 Zn 0.17611 0.72871 0.23129 0.0
Zn127 Zn 0.19629 0.73182 0.10792 0.0
O128 O 0.15862 0.76127 0.11255 0.0
O129 O 0.13386 0.73417 0.19804 0.0
O130 O 0.21726 0.73053 0.99668 0.0
O131 O 0.19645 0.76451 0.27565 0.0
O132 O 0.22769 0.75064 0.18277 0.0
C133 C 0.13461 0.75639 0.15208 0.0
C134 C 0.18499 0.67262 0.20172 0.0
O135 O 0.18463 0.6864 0.13557 0.0
O136 O 0.18923 0.68785 0.26344 0.0
C137 C 0.24236 0.7434 0.98132 0.0
O138 O 0.25477 0.76017 0.03604 0.0
C139 C 0.22215 0.76595 0.24488 0.0
Zn140 Zn 0.17358 0.2352 0.92711 0.0
Zn141 Zn 0.19085 0.23307 0.05193 0.0
O142 O 0.15277 0.20423 0.04237 0.0
O143 O 0.13049 0.2328 0.9551 0.0
O144 O 0.21144 0.23383 0.16459 0.0
O145 O 0.19302 0.1978 0.88732 0.0
O146 O 0.22317 0.21485 0.97841 0.0
C147 C 0.12963 0.21027 1.00002 0.0
C148 C 0.18267 0.29117 0.95508 0.0
O149 O 0.17927 0.27825 0.02175 0.0
O150 O 0.19023 0.27505 0.89702 0.0
C151 C 0.23756 0.22226 0.17663 0.0
O152 O 0.25062 0.20795 0.11822 0.0
C153 C 0.21881 0.1984 0.91773 0.0
Zn154 Zn 0.36979 0.73092 0.43584 0.0
Zn155 Zn 0.35487 0.73667 0.56174 0.0
O156 O 0.39245 0.76512 0.544 0.0
O157 O 0.41335 0.73421 0.459 0.0
O158 O 0.33582 0.73943 0.67424 0.0
O159 O 0.34993 0.76766 0.39492 0.0
O160 O 0.32109 0.75376 0.49176 0.0
C161 C 0.41486 0.75793 0.50017 0.0
C162 C 0.36222 0.67627 0.47436 0.0
O163 O 0.36703 0.69125 0.53771 0.0
O164 O 0.35177 0.69038 0.41621 0.0
C165 C 0.30988 0.72756 0.68455 0.0
O166 O 0.29758 0.71335 0.62489 0.0
C167 C 0.32483 0.76888 0.4289 0.0
Zn168 Zn 0.53512 0.08131 0.67359 0.0
Zn169 Zn 0.52963 0.06269 0.7974 0.0
O170 O 0.49792 0.09811 0.78389 0.0
O171 O 0.52523 0.12374 0.70047 0.0
O172 O 0.52611 0.04181 0.90775 0.0
O173 O 0.5027 0.05781 0.62401 0.0
O174 O 0.51619 0.02889 0.72184 0.0
C175 C 0.50212 0.12201 0.74306 0.0
C176 C 0.59005 0.07823 0.7166 0.0
O177 O 0.57421 0.07875 0.77961 0.0
O178 O 0.5776 0.07 0.65357 0.0
C179 C 0.5368 0.01524 0.91947 0.0
O180 O 0.55163 0.00206 0.862 0.0
C181 C 0.50237 0.03237 0.65685 0.0
Zn182 Zn 0.01024 0.88358 0.17749 0.0
Zn183 Zn 0.01451 0.90147 0.30268 0.0
O184 O 0.04713 0.86652 0.28858 0.0
O185 O 0.02107 0.84134 0.20091 0.0
O186 O 0.01673 0.9228 0.41397 0.0
O187 O 0.04195 0.90826 0.12916 0.0
O188 O 0.02743 0.9359 0.22904 0.0
C189 C 0.04367 0.84295 0.24534 0.0
C190 C 0.95475 0.88492 0.21827 0.0
O191 O 0.97009 0.88476 0.28221 0.0
O192 O 0.9676 0.893 0.15587 0.0
C193 C 0.00644 0.94979 0.42218 0.0
O194 O -0.0063 0.96247 0.36103 0.0
C195 C 0.04136 0.93345 0.16387 0.0
Zn196 Zn 0.53439 0.87943 0.45753 0.0
Zn197 Zn 0.53298 0.89895 0.33503 0.0
O198 O 0.50116 0.8635 0.34232 0.0
O199 O 0.52859 0.83694 0.4235 0.0
O200 O 0.53407 0.92071 0.22459 0.0
O201 O 0.49901 0.90145 0.49935 0.0
O202 O 0.51763 0.93183 0.41107 0.0
C203 C 0.50544 0.83909 0.38116 0.0
C204 C 0.59045 0.88481 0.43033 0.0
O205 O 0.57719 0.88365 0.36337 0.0
O206 O 0.57515 0.89247 0.48946 0.0
C207 C 0.51924 0.94509 0.21125 0.0
O208 O 0.50123 0.95523 0.26649 0.0
C209 C 0.50113 0.92764 0.47131 0.0
Zn210 Zn 0.00682 0.0878 0.96507 0.0
Zn211 Zn 0.01012 0.0674 0.84249 0.0
O212 O 0.04186 0.10311 0.85265 0.0
O213 O 0.0146 0.1301 0.93415 0.0
O214 O 0.00997 0.04557 0.73125 0.0
O215 O 0.04067 0.06529 0.01202 0.0
O216 O 0.02481 0.03476 0.91956 0.0
C217 C 0.03784 0.12756 0.89223 0.0
C218 C 0.95094 0.08182 0.93116 0.0
O219 O 0.96527 0.08219 0.86575 0.0
O220 O 0.96539 0.076 0.99296 0.0
C221 C 0.02119 0.01921 0.71838 0.0
O222 O 0.03557 0.00578 0.77587 0.0
C223 C 0.03972 0.03915 0.98265 0.0
C224 C 0.15746 0.6343 0.28098 0.0
C225 C 0.17188 0.64198 0.20995 0.0
C226 C 0.13651 0.61076 0.2843 0.0
C227 C 0.12952 0.59377 0.217 0.0
H228 H 0.16002 0.64835 0.33275 0.0
H229 H 0.12371 0.60792 0.33783 0.0
S230 S 0.16863 0.59827 0.02443 0.0
N231 N 0.18285 0.62638 0.07635 0.0
N232 N 0.14452 0.58123 0.08293 0.0
C233 C 0.14739 0.59812 0.14934 0.0
C234 C 0.16824 0.62254 0.14559 0.0
C235 C 0.63463 0.85547 0.38013 0.0
C236 C 0.61938 0.86857 0.44388 0.0
C237 C 0.65514 0.83179 0.39143 0.0
C238 C 0.66073 0.81976 0.46683 0.0
H239 H 0.62889 0.86175 0.32059 0.0
H240 H 0.66446 0.82108 0.33951 0.0
S241 S 0.63361 0.85212 0.65488 0.0
N242 N 0.61705 0.87275 0.58681 0.0
N243 N 0.65454 0.82727 0.60707 0.0
C244 C 0.64888 0.83536 0.53166 0.0
C245 C 0.62846 0.86002 0.52036 0.0
C246 C 0.408 0.3626 0.63299 0.0
C247 C 0.42095 0.37126 0.70549 0.0
C248 C 0.3866 0.33955 0.62821 0.0
C249 C 0.37672 0.32461 0.6958 0.0
H250 H 0.41622 0.3718 0.57831 0.0
H251 H 0.37949 0.33194 0.57062 0.0
S252 S 0.39693 0.34495 0.90157 0.0
N253 N 0.41791 0.36729 0.84717 0.0
N254 N 0.3767 0.32485 0.83926 0.0
C255 C 0.3863 0.33603 0.76951 0.0
C256 C 0.40867 0.35911 0.7741 0.0
C257 C 0.88996 0.12964 0.02294 0.0
C258 C 0.87519 0.14145 0.95702 0.0
C259 C 0.91221 0.10736 0.01469 0.0
C260 C 0.92095 0.09642 0.93997 0.0
H261 H 0.88633 0.13947 0.08053 0.0
H262 H 0.92453 0.10092 0.06686 0.0
S263 S 0.88265 0.11294 0.75197 0.0
N264 N 0.86552 0.13483 0.81686 0.0
N265 N 0.90835 0.09397 0.80158 0.0
C266 C 0.90351 0.1049 0.87519 0.0
C267 C 0.88032 0.12713 0.88371 0.0
C268 C 0.13803 0.34983 0.84505 0.0
C269 C 0.12442 0.36625 0.9062 0.0
C270 C 0.15998 0.32787 0.86087 0.0
C271 C 0.16875 0.32108 0.93859 0.0
H272 H 0.12991 0.35198 0.78542 0.0
H273 H 0.16785 0.31419 0.81207 0.0
S274 S 0.14684 0.36411 0.11664 0.0
N275 N 0.12694 0.3795 0.04536 0.0
N276 N 0.16715 0.33722 0.07478 0.0
C277 C 0.1584 0.34015 0.99879 0.0
C278 C 0.13652 0.36301 0.98256 0.0
C279 C 0.91686 0.85795 0.1351 0.0
C280 C 0.92611 0.86779 0.21041 0.0
C281 C 0.89583 0.83469 0.12542 0.0
C282 C 0.88274 0.82061 0.19059 0.0
H283 H 0.9277 0.86646 0.08278 0.0
H284 H 0.89155 0.82629 0.06669 0.0
S285 S 0.89312 0.84365 0.39942 0.0
N286 N 0.91642 0.86547 0.35029 0.0
N287 N 0.87605 0.82263 0.33283 0.0
C288 C 0.88888 0.83297 0.26575 0.0
C289 C 0.91076 0.85631 0.27554 0.0
C290 C 0.40423 0.641 0.50531 0.0
C291 C 0.3795 0.64814 0.45749 0.0
C292 C 0.42841 0.62411 0.47577 0.0
C293 C 0.4287 0.61347 0.39766 0.0
H294 H 0.4065 0.65102 0.56312 0.0
H295 H 0.4479 0.62115 0.51306 0.0
S296 S 0.36553 0.61808 0.25671 0.0
N297 N 0.35374 0.63725 0.33432 0.0
N298 N 0.3995 0.6056 0.27903 0.0
C299 C 0.40237 0.61661 0.3532 0.0
C300 C 0.37762 0.63384 0.38328 0.0
C301 C 0.64467 0.13324 0.628 0.0
C302 C 0.65528 0.14848 0.69475 0.0
C303 C 0.62654 0.10753 0.63546 0.0
C304 C 0.61795 0.09649 0.71001 0.0
H305 H 0.6478 0.14282 0.5702 0.0
H306 H 0.61673 0.0983 0.58238 0.0
S307 S 0.64813 0.1225 0.90114 0.0
N308 N 0.66256 0.146 0.83642 0.0
N309 N 0.6275 0.09849 0.85014 0.0
C310 C 0.63207 0.10887 0.77619 0.0
C311 C 0.65098 0.13469 0.76858 0.0
C312 C -0.01248 0.28532 0.89593 0.0
C313 C 0.98106 0.31558 0.87708 0.0
C314 C 0.96612 0.26688 0.93216 0.0
C315 C 0.93756 0.27806 0.95314 0.0
H316 H 0.00957 0.27594 0.88368 0.0
H317 H 0.97191 0.24347 0.94323 0.0
S318 S 0.90941 0.35584 0.91797 0.0
N319 N 0.94403 0.35605 0.8829 0.0
N320 N 0.90376 0.32133 0.9513 0.0
C321 C 0.93079 0.30833 0.93516 0.0
C322 C 0.95248 0.32704 0.89686 0.0
C323 C 0.48562 0.17409 0.70993 0.0
C324 C 0.47787 0.14406 0.72713 0.0
C325 C 0.4644 0.19447 0.68004 0.0
C326 C 0.43475 0.18544 0.66393 0.0
H327 H 0.50842 0.18186 0.71919 0.0
H328 H 0.47112 0.21767 0.6705 0.0
S329 S 0.4031 0.10914 0.69667 0.0
N330 N 0.43853 0.10612 0.72474 0.0
N331 N 0.3986 0.14446 0.66786 0.0
C332 C 0.42674 0.15538 0.6798 0.0
C333 C 0.44826 0.13472 0.71181 0.0
C334 C 0.55079 0.66941 0.42576 0.0
C335 C 0.55979 0.64367 0.38256 0.0
C336 C 0.57135 0.68653 0.4693 0.0
C337 C 0.60186 0.67845 0.47307 0.0
H338 H 0.52757 0.67689 0.42457 0.0
H339 H 0.56352 0.70708 0.49761 0.0
S340 S 0.63713 0.61243 0.37379 0.0
N341 N 0.60131 0.61029 0.34867 0.0
N342 N 0.64016 0.64258 0.43082 0.0
C343 C 0.61115 0.65221 0.43237 0.0
C344 C 0.59013 0.63488 0.38683 0.0
C345 C 0.08172 0.77088 0.17924 0.0
C346 C 0.11149 0.77991 0.16522 0.0
C347 C 0.06038 0.79108 0.20982 0.0
C348 C 0.06808 0.82097 0.22972 0.0
H349 H 0.07498 0.74778 0.16768 0.0
H350 H 0.0375 0.7833 0.21733 0.0
S351 S 0.14317 0.85581 0.20561 0.0
N352 N 0.14775 0.82072 0.17424 0.0
N353 N 0.10756 0.85876 0.23215 0.0
C354 C 0.09782 0.83031 0.21651 0.0
C355 C 0.11949 0.80982 0.1839 0.0
C356 C 0.95245 0.63158 0.19734 0.0
C357 C -0.01752 0.6414 0.19273 0.0
C358 C 0.92863 0.64971 0.1697 0.0
C359 C 0.93398 0.67818 0.13605 0.0
H360 H 0.94728 0.60973 0.22214 0.0
H361 H 0.90576 0.6421 0.17852 0.0
S362 S 0.00805 0.71453 0.10988 0.0
N363 N 0.01594 0.68168 0.15071 0.0
N364 N 0.97114 0.7154 0.10006 0.0
C365 C 0.96376 0.688 0.13001 0.0
C366 C -0.01203 0.66974 0.15797 0.0
C367 C 0.05575 0.17892 0.92845 0.0
C368 C 0.06268 0.14858 0.91091 0.0
C369 C 0.07705 0.1982 0.96254 0.0
C370 C 0.10597 0.1878 0.9826 0.0
H371 H 0.03347 0.18776 0.9165 0.0
H372 H 0.07097 0.22166 0.97223 0.0
S373 S 0.13534 0.11015 0.95068 0.0
N374 N 0.10049 0.10887 0.91735 0.0
N375 N 0.14055 0.14516 0.98175 0.0
C376 C 0.11316 0.15743 0.96626 0.0
C377 C 0.09158 0.13787 0.93012 0.0
C378 C 0.61069 0.30043 0.70076 0.0
C379 C 0.61688 0.29197 0.62218 0.0
C380 C 0.58798 0.32137 0.71957 0.0
C381 C 0.57024 0.33429 0.66061 0.0
H382 H 0.62347 0.29075 0.7486 0.0
H383 H 0.58389 0.32691 0.78064 0.0
S384 S 0.57846 0.32123 0.4454 0.0
N385 N 0.60433 0.29929 0.48519 0.0
N386 N 0.56152 0.33838 0.51948 0.0
C387 C 0.57664 0.32651 0.58155 0.0
C388 C 0.59999 0.30546 0.56258 0.0
C389 C 0.46672 0.76913 0.45478 0.0
C390 C 0.43819 0.77993 0.47735 0.0
C391 C 0.48764 0.78799 0.41817 0.0
C392 C 0.48066 0.81824 0.40058 0.0
H393 H 0.47284 0.74575 0.46504 0.0
H394 H 0.50974 0.77897 0.40481 0.0
S395 S 0.4087 0.85739 0.44491 0.0
N396 N 0.40376 0.8227 0.47777 0.0
N397 N 0.44309 0.85818 0.40852 0.0
C398 C 0.45204 0.82925 0.42157 0.0
C399 C 0.43087 0.81014 0.46029 0.0
C400 C 0.00249 0.47792 0.11083 0.0
C401 C 0.00553 0.50635 0.07578 0.0
C402 C -0.0004 0.452 0.06476 0.0
C403 C 0.00017 0.45378 0.98234 0.0
H404 H 0.00431 0.47538 0.17386 0.0
H405 H -0.0003 0.43033 0.09409 0.0
S406 S -0.00022 0.52335 0.86265 0.0
N407 N 0.00267 0.53534 0.95421 0.0
N408 N -0.00197 0.48619 0.86797 0.0
C409 C -0.00047 0.48224 0.94693 0.0
C410 C 0.00204 0.50871 0.99372 0.0
C411 C 0.79053 0.68555 0.341 0.0
C412 C 0.78948 0.69353 0.26103 0.0
C413 C 0.76447 0.68509 0.38628 0.0
C414 C 0.73656 0.69183 0.35266 0.0
H415 H 0.81178 0.68215 0.37071 0.0
H416 H 0.76647 0.68148 0.44897 0.0
S417 S 0.72089 0.70644 0.14197 0.0
N418 N 0.75776 0.70283 0.14724 0.0
N419 N 0.70848 0.70122 0.23216 0.0
C420 C 0.73468 0.6958 0.27078 0.0
C421 C 0.76132 0.69679 0.22488 0.0
C422 C 0.54062 0.5125 0.49769 0.0
C423 C 0.52955 0.53791 0.53802 0.0
C424 C 0.54233 0.48456 0.53435 0.0
C425 C 0.53277 0.48101 0.61241 0.0
H426 H 0.54649 0.51377 0.43608 0.0
H427 H 0.54933 0.46526 0.4994 0.0
S428 S 0.5087 0.54193 0.74897 0.0
N429 N 0.51398 0.55903 0.66422 0.0
N430 N 0.51708 0.50605 0.73321 0.0
C431 C 0.52502 0.50684 0.6562 0.0
C432 C 0.52338 0.53547 0.61883 0.0
C433 C 0.77054 0.28015 0.89518 0.0
C434 C 0.79749 0.27516 0.85482 0.0
C435 C 0.74335 0.28127 0.85483 0.0
C436 C 0.74231 0.27665 0.77281 0.0
H437 H 0.77007 0.28063 0.95888 0.0
H438 H 0.72299 0.28269 0.88929 0.0
S439 S 0.80767 0.2736 0.63823 0.0
N440 N 0.82243 0.2741 0.72714 0.0
N441 N 0.77096 0.27526 0.65129 0.0
C442 C 0.76941 0.27668 0.73098 0.0
C443 C 0.79725 0.27608 0.77198 0.0
C444 C 0.27308 0.18696 0.90775 0.0
C445 C 0.24462 0.18708 0.87238 0.0
C446 C 0.299 0.1881 0.862 0.0
C447 C 0.29705 0.18988 0.77968 0.0
H448 H 0.27534 0.1889 0.97088 0.0
H449 H 0.32032 0.19085 0.89187 0.0
S450 S 0.22852 0.18048 0.65897 0.0
N451 N 0.21636 0.18084 0.75051 0.0
N452 N 0.26539 0.18392 0.66456 0.0
C453 C 0.26915 0.18518 0.74369 0.0
C454 C 0.24273 0.18346 0.79026 0.0
C455 C 0.27022 0.77904 0.42039 0.0
C456 C 0.29876 0.7808 0.38578 0.0
C457 C 0.24449 0.77821 0.37381 0.0
C458 C 0.24675 0.77874 0.29143 0.0
H459 H 0.26785 0.77517 0.48284 0.0
H460 H 0.22323 0.77372 0.40234 0.0
S461 S 0.31498 0.79482 0.17513 0.0
N462 N 0.32697 0.79212 0.26656 0.0
N463 N 0.2783 0.78957 0.17899 0.0
C464 C 0.27447 0.78565 0.25737 0.0
C465 C 0.30067 0.78705 0.30483 0.0
C466 C 0.49031 0.98224 0.48303 0.0
C467 C 0.49062 0.95359 0.51774 0.0
C468 C 0.49064 0.00822 0.52939 0.0
C469 C 0.49182 0.00621 0.61176 0.0
H470 H 0.49235 -0.01538 0.41999 0.0
H471 H 0.49293 0.02977 0.50011 0.0
S472 S 0.48386 0.9369 0.73054 0.0
N473 N 0.48488 0.92483 0.63873 0.0
N474 N 0.48636 0.97404 0.72594 0.0
C475 C 0.48786 0.97798 0.64695 0.0
C476 C 0.48698 0.95146 0.59971 0.0
C477 C 0.05239 -0.0151 0.99327 0.0
C478 C 0.05021 0.01338 0.02919 0.0
C479 C 0.053 0.95876 0.03841 0.0
C480 C 0.05087 0.96037 0.12077 0.0
H481 H 0.05131 0.98265 0.92998 0.0
H482 H 0.05228 0.93723 0.00796 0.0
S483 S 0.05341 0.02965 0.24327 0.0
N484 N 0.05277 0.04196 0.15196 0.0
N485 N 0.05313 -0.00757 0.23676 0.0
C486 C 0.05278 -0.01132 0.15751 0.0
C487 C 0.05267 0.01539 0.11157 0.0
C488 C 0.04861 0.45086 0.54927 0.0
C489 C 0.02512 0.45716 0.60241 0.0
C490 C 0.05399 0.4693 0.48328 0.0
C491 C 0.0363 0.49517 0.46686 0.0
H492 H 0.06318 0.43156 0.55881 0.0
H493 H 0.07242 0.46314 0.44483 0.0
S494 S 0.97148 0.52173 0.58607 0.0
N495 N -0.01643 0.49138 0.63252 0.0
N496 N -0.00612 0.52568 0.50964 0.0
C497 C 0.01269 0.50173 0.5193 0.0
C498 C 0.00707 0.48288 0.5864 0.0
C499 C 0.79394 0.74401 0.83024 0.0
C500 C 0.78775 0.72114 0.88513 0.0
C501 C 0.77572 0.74847 0.76315 0.0
C502 C 0.75016 0.73044 0.74726 0.0
H503 H 0.81307 0.75868 0.83897 0.0
H504 H 0.78186 0.76638 0.72326 0.0
S505 S 0.72357 0.66744 0.87203 0.0
N506 N 0.75363 0.68014 0.91815 0.0
N507 N 0.71982 0.68871 0.79331 0.0
C508 C 0.74359 0.70761 0.80179 0.0
C509 C 0.7622 0.70293 0.87001 0.0
C510 C 0.53969 0.4994 0.0457 0.0
C511 C 0.52002 0.50517 0.10933 0.0
C512 C 0.53421 0.47616 0.99034 0.0
C513 C 0.50854 0.45772 0.99508 0.0
H514 H 0.55931 0.51342 0.03731 0.0
H515 H 0.54955 0.47356 0.9414 0.0
S516 S 0.45111 0.46114 0.15312 0.0
N517 N 0.47476 0.48846 0.17603 0.0
N518 N 0.46424 0.44558 0.07172 0.0
C519 C 0.48923 0.46247 0.05969 0.0
C520 C 0.49502 0.48586 0.11673 0.0
C521 C 0.76937 0.21145 0.26769 0.0
C522 C 0.79331 0.23081 0.24691 0.0
C523 C 0.75177 0.21626 0.33574 0.0
C524 C 0.75693 0.24088 0.38663 0.0
H525 H 0.76384 0.19233 0.23057 0.0
H526 H 0.73357 0.20076 0.34765 0.0
S527 S 0.81755 0.29787 0.36198 0.0
N528 N 0.82166 0.27522 0.28544 0.0
N529 N 0.78888 0.28441 0.41218 0.0
C530 C 0.78117 0.26016 0.36742 0.0
C531 C 0.79922 0.25511 0.29824 0.0
C532 C 0.25864 0.24802 0.38592 0.0
C533 C 0.28723 0.23482 0.39897 0.0
C534 C 0.24263 0.24372 0.31503 0.0
C535 C 0.25429 0.22586 0.25342 0.0
H536 H 0.24839 0.26201 0.43092 0.0
H537 H 0.22098 0.25469 0.30848 0.0
S538 S 0.32779 0.18513 0.25803 0.0
N539 N 0.32609 0.20249 0.34385 0.0
N540 N 0.29641 0.19418 0.21194 0.0
C541 C 0.28279 0.21227 0.26604 0.0
C542 C 0.29911 0.21679 0.33811 0.0
C543 C 0.30218 0.75086 0.81964 0.0
C544 C 0.29271 0.73067 0.76057 0.0
C545 C 0.28562 0.7549 0.88965 0.0
C546 C 0.25873 0.73894 0.90454 0.0
H547 H 0.32244 0.76396 0.81157 0.0
H548 H 0.29414 0.77083 0.93258 0.0
S549 S 0.22452 0.68227 0.77068 0.0
N550 N 0.25472 0.69377 0.72332 0.0
N551 N 0.22398 0.70143 0.85402 0.0
C552 C 0.24913 0.71848 0.8463 0.0
C553 C 0.26596 0.71434 0.77489 0.0
C554 C 0.54356 0.95393 0.07814 0.0
C555 C 0.52304 0.96309 0.13667 0.0
C556 C 0.54789 0.97101 0.0092 0.0
C557 C 0.53209 -0.00173 0.99513 0.0
H558 H 0.55653 0.93339 0.08556 0.0
H559 H 0.56396 0.96266 0.9665 0.0
S560 S 0.47509 0.03226 0.12823 0.0
N561 N 0.48621 0.00145 0.17428 0.0
N562 N 0.49459 0.03319 0.0459 0.0
C563 C 0.51147 0.00769 0.05297 0.0
C564 C 0.50689 -0.00975 0.12306 0.0
C565 C 0.03162 0.97422 0.62935 0.0
C566 C 0.0173 0.0025 0.64141 0.0
C567 C 0.02784 0.95725 0.55953 0.0
C568 C 0.00953 0.96763 0.49773 0.0
H569 H 0.04602 0.96489 0.67447 0.0
H570 H 0.03959 0.93588 0.5539 0.0
S571 S 0.96611 0.03983 0.49932 0.0
N572 N -0.01649 0.03968 0.58488 0.0
N573 N 0.97634 0.00825 0.45463 0.0
C574 C -0.00504 -0.00413 0.50906 0.0
C575 C -0.00116 0.01312 0.58027 0.0
loop_
_geom_bond_atom_site_label_1
_geom_bond_atom_site_label_2
_geom_bond_distance
_geom_bond_site_symmetry_2
_ccdc_geom_bond_type
Zn0 O3 2.031 . S
Zn0 O5 2.049 . S
Zn0 O10 2.067 . S
Zn1 O2 1.989 . S
Zn1 O4 1.986 . S
Zn1 O6 1.996 . S
Zn1 O9 1.943 . S
O2 Zn1 1.989 . S
O2 C7 1.255 . S
O3 Zn0 2.031 . S
O3 C7 1.269 . S
O4 Zn1 1.986 . S
O4 C11 1.262 . S
O5 Zn0 2.049 . S
O5 C13 1.260 . S
O6 Zn1 1.996 . S
O6 C13 1.257 . S
C7 O2 1.255 . S
C7 O3 1.269 . S
C8 O9 1.249 . S
C8 O10 1.270 . S
O9 Zn1 1.943 . S
O9 C8 1.249 . S
O10 Zn0 2.067 . S
O10 C8 1.270 . S
C11 O4 1.262 . S
C11 O12 1.232 . S
O12 C11 1.232 . S
C13 O5 1.260 . S
C13 O6 1.257 . S
Zn14 O17 2.031 . S
Zn14 O19 2.049 . S
Zn14 O24 2.067 . S
Zn15 O16 1.962 . S
Zn15 O18 1.986 . S
Zn15 O20 1.996 . S
Zn15 O23 1.943 . S
O16 Zn15 1.962 . S
O16 C21 1.254 . S
O17 Zn14 2.031 . S
O17 C21 1.269 . S
O18 Zn15 1.986 . S
O18 C25 1.262 . S
O19 Zn14 2.049 . S
O19 C27 1.260 . S
O20 Zn15 1.996 . S
O20 C27 1.257 . S
C21 O16 1.254 . S
C21 O17 1.269 . S
C22 O23 1.249 . S
C22 O24 1.270 . S
O23 Zn15 1.943 . S
O23 C22 1.249 . S
O24 Zn14 2.067 . S
O24 C22 1.270 . S
C25 O18 1.262 . S
C25 O26 1.232 . S
O26 C25 1.232 . S
C27 O19 1.260 . S
C27 O20 1.257 . S
Zn28 O31 2.031 . S
Zn28 O33 2.049 . S
Zn28 O38 2.067 . S
Zn29 O30 1.962 . S
Zn29 O32 1.986 . S
Zn29 O34 1.996 . S
Zn29 O37 1.943 . S
O30 Zn29 1.962 . S
O30 C35 1.254 . S
O31 Zn28 2.031 . S
O31 C35 1.269 . S
O32 Zn29 1.986 . S
O32 C39 1.262 . S
O33 Zn28 2.049 . S
O33 C41 1.260 . S
O34 Zn29 1.996 . S
O34 C41 1.257 . S
C35 O30 1.254 . S
C35 O31 1.269 . S
C36 O37 1.249 . S
C36 O38 1.270 . S
O37 Zn29 1.943 . S
O37 C36 1.249 . S
O38 Zn28 2.067 . S
O38 C36 1.270 . S
C39 O32 1.262 . S
C39 O40 1.232 . S
O40 C39 1.232 . S
C41 O33 1.260 . S
C41 O34 1.257 . S
Zn42 O45 2.031 . S
Zn42 O47 2.049 . S
Zn42 O52 2.067 . S
Zn43 O44 1.962 . S
Zn43 O46 1.986 . S
Zn43 O48 1.996 1_554 S
Zn43 O51 1.943 . S
O44 Zn43 1.962 . S
O44 C49 1.254 1_554 S
O45 Zn42 2.031 . S
O45 C49 1.269 . S
O46 Zn43 1.986 . S
O46 C53 1.262 . S
O47 Zn42 2.049 . S
O47 C55 1.260 . S
O48 Zn43 1.996 1_556 S
O48 C55 1.257 . S
C49 O44 1.254 1_556 S
C49 O45 1.269 . S
C50 O51 1.249 1_556 S
C50 O52 1.270 . S
O51 Zn43 1.943 . S
O51 C50 1.249 1_554 S
O52 Zn42 2.067 . S
O52 C50 1.270 . S
C53 O46 1.262 . S
C53 O54 1.232 . S
O54 C53 1.232 . S
C55 O47 1.260 . S
C55 O48 1.257 . S
Zn56 O59 2.031 1_554 S
Zn56 O61 2.049 . S
Zn56 O66 2.067 1_554 S
Zn57 O58 1.989 . S
Zn57 O60 1.986 . S
Zn57 O62 1.996 . S
Zn57 O65 1.943 . S
O58 Zn57 1.989 . S
O58 C63 1.255 . S
O59 Zn56 2.031 1_556 S
O59 C63 1.269 . S
O60 Zn57 1.986 . S
O60 C67 1.262 . S
O61 Zn56 2.049 . S
O61 C69 1.260 1_554 S
O62 Zn57 1.996 . S
O62 C69 1.257 . S
C63 O58 1.255 . S
C63 O59 1.269 . S
C64 O65 1.249 . S
C64 O66 1.270 . S
O65 Zn57 1.943 . S
O65 C64 1.249 . S
O66 Zn56 2.067 1_556 S
O66 C64 1.270 . S
C67 O60 1.262 . S
C67 O68 1.232 . S
O68 C67 1.232 . S
C69 O61 1.260 1_556 S
C69 O62 1.257 . S
Zn70 O73 2.031 . S
Zn70 O75 2.049 . S
Zn70 O80 2.067 . S
Zn71 O72 1.962 . S
Zn71 O74 1.986 . S
Zn71 O76 1.996 . S
Zn71 O79 1.943 . S
O72 Zn71 1.962 . S
O72 C77 1.254 . S
O73 Zn70 2.031 . S
O73 C77 1.269 . S
O74 Zn71 1.986 . S
O74 C81 1.262 1_554 S
O75 Zn70 2.049 . S
O75 C83 1.260 . S
O76 Zn71 1.996 . S
O76 C83 1.257 . S
C77 O72 1.254 . S
C77 O73 1.269 . S
C78 O79 1.249 . S
C78 O80 1.270 . S
O79 Zn71 1.943 . S
O79 C78 1.249 . S
O80 Zn70 2.067 . S
O80 C78 1.270 . S
C81 O74 1.262 1_556 S
C81 O82 1.232 . S
O82 C81 1.232 . S
C83 O75 1.260 . S
C83 O76 1.257 . S
Zn84 O87 2.031 . S
Zn84 O89 2.049 . S
Zn84 O94 2.067 . S
Zn85 O86 1.962 . S
Zn85 O88 1.986 . S
Zn85 O90 1.996 . S
Zn85 O93 1.943 . S
O86 Zn85 1.962 . S
O86 C91 1.254 . S
O87 Zn84 2.031 . S
O87 C91 1.269 . S
O88 Zn85 1.986 . S
O88 C95 1.262 . S
O89 Zn84 2.049 . S
O89 C97 1.260 . S
O90 Zn85 1.996 . S
O90 C97 1.257 . S
C91 O86 1.254 . S
C91 O87 1.269 . S
C92 O93 1.249 . S
C92 O94 1.270 . S
O93 Zn85 1.943 . S
O93 C92 1.249 . S
O94 Zn84 2.067 . S
O94 C92 1.270 . S
C95 O88 1.262 . S
C95 O96 1.232 . S
O96 C95 1.232 . S
C97 O89 1.260 . S
C97 O90 1.257 . S
Zn98 O101 2.031 . S
Zn98 O103 2.049 . S
Zn98 O108 2.067 . S
Zn99 O100 1.962 . S
Zn99 O102 1.986 . S
Zn99 O104 1.996 . S
Zn99 O107 1.943 . S
O100 Zn99 1.962 . S
O100 C105 1.254 . S
O101 Zn98 2.031 . S
O101 C105 1.269 . S
O102 Zn99 1.986 . S
O102 C109 1.262 . S
O103 Zn98 2.049 . S
O103 C111 1.260 . S
O104 Zn99 1.996 . S
O104 C111 1.257 . S
C105 O100 1.254 . S
C105 O101 1.269 . S
C106 O107 1.249 . S
C106 O108 1.270 . S
O107 Zn99 1.943 . S
O107 C106 1.249 . S
O108 Zn98 2.067 . S
O108 C106 1.270 . S
C109 O102 1.262 . S
C109 O110 1.232 . S
O110 C109 1.232 . S
C111 O103 1.260 . S
C111 O104 1.257 . S
Zn112 O115 2.031 . S
Zn112 O117 2.049 . S
Zn112 O122 2.067 . S
Zn113 O114 1.962 . S
Zn113 O116 1.986 . S
Zn113 O118 1.996 . S
Zn113 O121 1.943 . S
O114 Zn113 1.962 . S
O114 C119 1.254 . S
O115 Zn112 2.031 . S
O115 C119 1.269 . S
O116 Zn113 1.986 . S
O116 C123 1.262 . S
O117 Zn112 2.049 . S
O117 C125 1.260 . S
O118 Zn113 1.996 . S
O118 C125 1.257 . S
C119 O114 1.254 . S
C119 O115 1.269 . S
C120 O121 1.249 . S
C120 O122 1.270 . S
O121 Zn113 1.943 . S
O121 C120 1.249 . S
O122 Zn112 2.067 . S
O122 C120 1.270 . S
C123 O116 1.262 . S
C123 O124 1.232 . S
O124 C123 1.232 . S
C125 O117 1.260 . S
C125 O118 1.257 . S
Zn126 O129 2.031 . S
Zn126 O131 2.049 . S
Zn126 O136 2.067 . S
Zn127 O128 1.962 . S
Zn127 O130 1.986 . S
Zn127 O132 1.996 . S
Zn127 O135 1.943 . S
O128 Zn127 1.962 . S
O128 C133 1.254 . S
O129 Zn126 2.031 . S
O129 C133 1.269 . S
O130 Zn127 1.986 . S
O130 C137 1.262 1_554 S
O131 Zn126 2.049 . S
O131 C139 1.260 . S
O132 Zn127 1.996 . S
O132 C139 1.257 . S
C133 O128 1.254 . S
C133 O129 1.269 . S
C134 O135 1.249 . S
C134 O136 1.270 . S
O135 Zn127 1.943 . S
O135 C134 1.249 . S
O136 Zn126 2.067 . S
O136 C134 1.270 . S
C137 O130 1.262 1_556 S
C137 O138 1.232 . S
O138 C137 1.232 . S
C139 O131 1.260 . S
C139 O132 1.257 . S
Zn140 O143 2.031 . S
Zn140 O145 2.049 . S
Zn140 O150 2.067 . S
Zn141 O142 1.962 . S
Zn141 O144 1.986 . S
Zn141 O146 1.996 1_554 S
Zn141 O149 1.943 . S
O142 Zn141 1.962 . S
O142 C147 1.254 1_554 S
O143 Zn140 2.031 . S
O143 C147 1.269 . S
O144 Zn141 1.986 . S
O144 C151 1.262 . S
O145 Zn140 2.049 . S
O145 C153 1.260 . S
O146 Zn141 1.996 1_556 S
O146 C153 1.257 . S
C147 O142 1.254 1_556 S
C147 O143 1.269 . S
C148 O149 1.249 1_556 S
C148 O150 1.270 . S
O149 Zn141 1.943 . S
O149 C148 1.249 1_554 S
O150 Zn140 2.067 . S
O150 C148 1.270 . S
C151 O144 1.262 . S
C151 O152 1.232 . S
O152 C151 1.232 . S
C153 O145 1.260 . S
C153 O146 1.257 . S
Zn154 O157 2.031 . S
Zn154 O159 2.049 . S
Zn154 O164 2.067 . S
Zn155 O156 1.962 . S
Zn155 O158 1.986 . S
Zn155 O160 1.996 . S
Zn155 O163 1.943 . S
O156 Zn155 1.962 . S
O156 C161 1.254 . S
O157 Zn154 2.031 . S
O157 C161 1.269 . S
O158 Zn155 1.986 . S
O158 C165 1.262 . S
O159 Zn154 2.049 . S
O159 C167 1.260 . S
O160 Zn155 1.996 . S
O160 C167 1.257 . S
C161 O156 1.254 . S
C161 O157 1.269 . S
C162 O163 1.249 . S
C162 O164 1.270 . S
O163 Zn155 1.943 . S
O163 C162 1.249 . S
O164 Zn154 2.067 . S
O164 C162 1.270 . S
C165 O158 1.262 . S
C165 O166 1.232 . S
O166 C165 1.232 . S
C167 O159 1.260 . S
C167 O160 1.257 . S
Zn168 O171 2.031 . S
Zn168 O173 2.049 . S
Zn168 O178 2.067 . S
Zn169 O170 1.962 . S
Zn169 O172 1.986 . S
Zn169 O174 1.996 . S
Zn169 O177 1.943 . S
O170 Zn169 1.962 . S
O170 C175 1.254 . S
O171 Zn168 2.031 . S
O171 C175 1.269 . S
O172 Zn169 1.986 . S
O172 C179 1.262 . S
O173 Zn168 2.049 . S
O173 C181 1.260 . S
O174 Zn169 1.996 . S
O174 C181 1.257 . S
C175 O170 1.254 . S
C175 O171 1.269 . S
C176 O177 1.249 . S
C176 O178 1.270 . S
O177 Zn169 1.943 . S
O177 C176 1.249 . S
O178 Zn168 2.067 . S
O178 C176 1.270 . S
C179 O172 1.262 . S
C179 O180 1.232 . S
O180 C179 1.232 . S
C181 O173 1.260 . S
C181 O174 1.257 . S
Zn182 O185 2.031 . S
Zn182 O187 2.049 . S
Zn182 O192 2.067 1_455 S
Zn183 O184 1.962 . S
Zn183 O186 1.986 . S
Zn183 O188 1.996 . S
Zn183 O191 1.943 . S
O184 Zn183 1.962 . S
O184 C189 1.254 . S
O185 Zn182 2.031 . S
O185 C189 1.269 . S
O186 Zn183 1.986 . S
O186 C193 1.262 . S
O187 Zn182 2.049 . S
O187 C195 1.260 . S
O188 Zn183 1.996 . S
O188 C195 1.257 . S
C189 O184 1.254 . S
C189 O185 1.269 . S
C190 O191 1.249 1_655 S
C190 O192 1.270 . S
O191 Zn183 1.943 . S
O191 C190 1.249 1_455 S
O192 Zn182 2.067 1_655 S
O192 C190 1.270 . S
C193 O186 1.262 . S
C193 O194 1.232 . S
O194 C193 1.232 . S
C195 O187 1.260 . S
C195 O188 1.257 . S
Zn196 O199 2.031 . S
Zn196 O201 2.049 . S
Zn196 O206 2.067 . S
Zn197 O198 1.962 . S
Zn197 O200 1.986 . S
Zn197 O202 1.996 . S
Zn197 O205 1.943 . S
O198 Zn197 1.962 . S
O198 C203 1.254 . S
O199 Zn196 2.031 . S
O199 C203 1.269 . S
O200 Zn197 1.986 . S
O200 C207 1.262 . S
O201 Zn196 2.049 . S
O201 C209 1.260 . S
O202 Zn197 1.996 . S
O202 C209 1.257 . S
C203 O198 1.254 . S
C203 O199 1.269 . S
C204 O205 1.249 . S
C204 O206 1.270 . S
O205 Zn197 1.943 . S
O205 C204 1.249 . S
O206 Zn196 2.067 . S
O206 C204 1.270 . S
C207 O200 1.262 . S
C207 O208 1.232 . S
O208 C207 1.232 . S
C209 O201 1.260 . S
C209 O202 1.257 . S
Zn210 O213 2.031 1_554 S
Zn210 O215 2.049 . S
Zn210 O220 2.067 1_454 S
Zn211 O212 1.962 . S
Zn211 O214 1.986 . S
Zn211 O216 1.996 . S
Zn211 O219 1.943 . S
O212 Zn211 1.962 . S
O212 C217 1.254 . S
O213 Zn210 2.031 1_556 S
O213 C217 1.269 . S
O214 Zn211 1.986 . S
O214 C221 1.262 . S
O215 Zn210 2.049 . S
O215 C223 1.260 1_554 S
O216 Zn211 1.996 . S
O216 C223 1.257 . S
C217 O212 1.254 . S
C217 O213 1.269 . S
C218 O219 1.249 1_655 S
C218 O220 1.270 . S
O219 Zn211 1.943 . S
O219 C218 1.249 1_455 S
O220 Zn210 2.067 1_656 S
O220 C218 1.270 . S
C221 O214 1.262 . S
C221 O222 1.232 . S
O222 C221 1.232 . S
C223 O215 1.260 1_556 S
C223 O216 1.257 . S
C224 C225 1.369 . S
C224 C226 1.419 . S
C224 H228 0.930 . S
C225 C224 1.369 . S
C225 C234 1.429 . S
C226 C224 1.419 . S
C226 C227 1.363 . S
C226 H229 0.929 . S
C227 C226 1.363 . S
C227 C233 1.428 . S
H228 C224 0.930 . S
H229 C226 0.929 . S
S230 N231 1.613 . S
S230 N232 1.610 . S
N231 S230 1.613 . S
N231 C234 1.350 . S
N232 S230 1.610 . S
N232 C233 1.351 . S
C233 C227 1.428 . S
C233 N232 1.351 . S
C233 C234 1.434 . S
C234 C225 1.429 . S
C234 N231 1.350 . S
C234 C233 1.434 . S
C235 C236 1.369 . S
C235 C237 1.419 . S
C235 H239 0.930 . S
C236 C235 1.369 . S
C236 C245 1.429 . S
C237 C235 1.419 . S
C237 C238 1.363 . S
C237 H240 0.929 . S
C238 C237 1.363 . S
C238 C244 1.428 . S
H239 C235 0.930 . S
H240 C237 0.929 . S
S241 N242 1.613 . S
S241 N243 1.610 . S
N242 S241 1.613 . S
N242 C245 1.350 . S
N243 S241 1.610 . S
N243 C244 1.351 . S
C244 C238 1.428 . S
C244 N243 1.351 . S
C244 C245 1.434 . S
C245 C236 1.429 . S
C245 N242 1.350 . S
C245 C244 1.434 . S
C246 C247 1.369 . S
C246 C248 1.419 . S
C246 H250 0.930 . S
C247 C246 1.369 . S
C247 C256 1.429 . S
C248 C246 1.419 . S
C248 C249 1.363 . S
C248 H251 0.929 . S
C249 C248 1.363 . S
C249 C255 1.428 . S
H250 C246 0.930 . S
H251 C248 0.929 . S
S252 N253 1.613 . S
S252 N254 1.610 . S
N253 S252 1.613 . S
N253 C256 1.350 . S
N254 S252 1.610 . S
N254 C255 1.351 . S
C255 C249 1.428 . S
C255 N254 1.351 . S
C255 C256 1.434 . S
C256 C247 1.429 . S
C256 N253 1.350 . S
C256 C255 1.434 . S
C257 C258 1.369 . S
C257 C259 1.419 . S
C257 H261 0.930 1_556 S
C258 C257 1.369 . S
C258 C267 1.429 . S
C259 C257 1.419 . S
C259 C260 1.363 . S
C259 H262 0.929 . S
C260 C259 1.363 . S
C260 C266 1.428 . S
H261 C257 0.930 1_554 S
H262 C259 0.929 . S
S263 N264 1.613 . S
S263 N265 1.610 . S
N264 S263 1.613 . S
N264 C267 1.350 . S
N265 S263 1.610 . S
N265 C266 1.351 . S
C266 C260 1.428 . S
C266 N265 1.351 . S
C266 C267 1.434 . S
C267 C258 1.429 . S
C267 N264 1.350 . S
C267 C266 1.434 . S
C268 C269 1.369 . S
C268 C270 1.419 . S
C268 H272 0.930 . S
C269 C268 1.369 . S
C269 C278 1.429 . S
C270 C268 1.419 . S
C270 C271 1.363 . S
C270 H273 0.929 . S
C271 C270 1.363 . S
C271 C277 1.428 . S
H272 C268 0.930 . S
H273 C270 0.929 . S
S274 N275 1.613 . S
S274 N276 1.609 1_556 S
N275 S274 1.613 . S
N275 C278 1.350 . S
N276 S274 1.609 1_554 S
N276 C277 1.345 1_554 S
C277 C271 1.428 . S
C277 N276 1.345 1_556 S
C277 C278 1.434 . S
C278 C269 1.429 . S
C278 N275 1.350 . S
C278 C277 1.434 . S
C279 C280 1.369 . S
C279 C281 1.419 . S
C279 H283 0.930 . S
C280 C279 1.369 . S
C280 C289 1.429 . S
C281 C279 1.419 . S
C281 C282 1.363 . S
C281 H284 0.929 . S
C282 C281 1.363 . S
C282 C288 1.428 . S
H283 C279 0.930 . S
H284 C281 0.929 . S
S285 N286 1.613 . S
S285 N287 1.610 . S
N286 S285 1.613 . S
N286 C289 1.350 . S
N287 S285 1.610 . S
N287 C288 1.351 . S
C288 C282 1.428 . S
C288 N287 1.351 . S
C288 C289 1.434 . S
C289 C280 1.429 . S
C289 N286 1.350 . S
C289 C288 1.434 . S
C290 C291 1.369 . S
C290 C292 1.419 . S
C290 H294 0.930 . S
C291 C290 1.369 . S
C291 C300 1.429 . S
C292 C290 1.419 . S
C292 C293 1.363 . S
C292 H295 0.929 . S
C293 C292 1.363 . S
C293 C299 1.428 . S
H294 C290 0.930 . S
H295 C292 0.929 . S
S296 N297 1.613 . S
S296 N298 1.610 . S
N297 S296 1.613 . S
N297 C300 1.350 . S
N298 S296 1.610 . S
N298 C299 1.351 . S
C299 C293 1.428 . S
C299 N298 1.351 . S
C299 C300 1.434 . S
C300 C291 1.429 . S
C300 N297 1.350 . S
C300 C299 1.434 . S
C301 C302 1.369 . S
C301 C303 1.419 . S
C301 H305 0.930 . S
C302 C301 1.369 . S
C302 C311 1.429 . S
C303 C301 1.419 . S
C303 C304 1.363 . S
C303 H306 0.929 . S
C304 C303 1.363 . S
C304 C310 1.428 . S
H305 C301 0.930 . S
H306 C303 0.929 . S
S307 N308 1.613 . S
S307 N309 1.610 . S
N308 S307 1.613 . S
N308 C311 1.350 . S
N309 S307 1.610 . S
N309 C310 1.351 . S
C310 C304 1.428 . S
C310 N309 1.351 . S
C310 C311 1.434 . S
C311 C302 1.429 . S
C311 N308 1.350 . S
C311 C310 1.434 . S
C312 C313 1.369 . S
C312 C314 1.419 . S
C312 H316 0.930 . S
C313 C312 1.369 . S
C313 C322 1.429 . S
C314 C312 1.419 . S
C314 C315 1.363 . S
C314 H317 0.929 . S
C315 C314 1.363 . S
C315 C321 1.428 . S
H316 C312 0.930 . S
H317 C314 0.929 . S
S318 N319 1.613 . S
S318 N320 1.610 1_556 S
N319 S318 1.613 . S
N319 C322 1.350 . S
N320 S318 1.610 1_554 S
N320 C321 1.351 1_554 S
C321 C315 1.428 . S
C321 N320 1.351 1_556 S
C321 C322 1.434 . S
C322 C313 1.429 . S
C322 N319 1.350 . S
C322 C321 1.434 . S
C323 C324 1.369 . S
C323 C325 1.419 . S
C323 H327 0.930 . S
C324 C323 1.369 . S
C324 C333 1.429 . S
C325 C323 1.419 . S
C325 C326 1.363 . S
C325 H328 0.929 . S
C326 C325 1.363 . S
C326 C332 1.428 . S
H327 C323 0.930 . S
H328 C325 0.929 . S
S329 N330 1.613 . S
S329 N331 1.610 . S
N330 S329 1.613 . S
N330 C333 1.350 . S
N331 S329 1.610 . S
N331 C332 1.351 . S
C332 C326 1.428 . S
C332 N331 1.351 . S
C332 C333 1.434 . S
C333 C324 1.429 . S
C333 N330 1.350 . S
C333 C332 1.434 . S
C334 C335 1.369 . S
C334 C336 1.419 . S
C334 H338 0.930 . S
C335 C334 1.369 . S
C335 C344 1.429 . S
C336 C334 1.419 . S
C336 C337 1.363 . S
C336 H339 0.929 . S
C337 C336 1.363 . S
C337 C343 1.428 . S
H338 C334 0.930 . S
H339 C336 0.929 . S
S340 N341 1.613 . S
S340 N342 1.610 . S
N341 S340 1.613 . S
N341 C344 1.350 . S
N342 S340 1.610 . S
N342 C343 1.351 . S
C343 C337 1.428 . S
C343 N342 1.351 . S
C343 C344 1.434 . S
C344 C335 1.429 . S
C344 N341 1.350 . S
C344 C343 1.434 . S
C345 C346 1.369 . S
C345 C347 1.419 . S
C345 H349 0.930 . S
C346 C345 1.369 . S
C346 C355 1.429 . S
C347 C345 1.419 . S
C347 C348 1.363 . S
C347 H350 0.929 . S
C348 C347 1.363 . S
C348 C354 1.428 . S
H349 C345 0.930 . S
H350 C347 0.929 . S
S351 N352 1.613 . S
S351 N353 1.610 . S
N352 S351 1.613 . S
N352 C355 1.350 . S
N353 S351 1.610 . S
N353 C354 1.351 . S
C354 C348 1.428 . S
C354 N353 1.351 . S
C354 C355 1.434 . S
C355 C346 1.429 . S
C355 N352 1.350 . S
C355 C354 1.434 . S
C356 C357 1.369 . S
C356 C358 1.419 . S
C356 H360 0.930 . S
C357 C356 1.369 . S
C357 C366 1.429 . S
C358 C356 1.419 . S
C358 C359 1.363 . S
C358 H361 0.929 . S
C359 C358 1.363 . S
C359 C365 1.428 . S
H360 C356 0.930 . S
H361 C358 0.929 . S
S362 N363 1.613 . S
S362 N364 1.610 1_455 S
N363 S362 1.613 . S
N363 C366 1.350 1_455 S
N364 S362 1.610 1_655 S
N364 C365 1.351 . S
C365 C359 1.428 . S
C365 N364 1.351 . S
C365 C366 1.434 . S
C366 C357 1.429 . S
C366 N363 1.350 1_655 S
C366 C365 1.434 . S
C367 C368 1.369 . S
C367 C369 1.419 . S
C367 H371 0.930 . S
C368 C367 1.369 . S
C368 C377 1.429 . S
C369 C367 1.419 . S
C369 C370 1.363 . S
C369 H372 0.929 . S
C370 C369 1.363 . S
C370 C376 1.428 . S
H371 C367 0.930 . S
H372 C369 0.929 . S
S373 N374 1.613 1_554 S
S373 N375 1.610 . S
N374 S373 1.613 1_556 S
N374 C377 1.350 . S
N375 S373 1.610 . S
N375 C376 1.351 1_554 S
C376 C370 1.428 . S
C376 N375 1.351 1_556 S
C376 C377 1.434 . S
C377 C368 1.429 . S
C377 N374 1.350 . S
C377 C376 1.434 . S
C378 C379 1.369 . S
C378 C380 1.419 . S
C378 H382 0.930 . S
C379 C378 1.369 . S
C379 C388 1.429 . S
C380 C378 1.419 . S
C380 C381 1.363 . S
C380 H383 0.929 . S
C381 C380 1.363 . S
C381 C387 1.428 . S
H382 C378 0.930 . S
H383 C380 0.929 . S
S384 N385 1.613 . S
S384 N386 1.610 . S
N385 S384 1.613 . S
N385 C388 1.350 . S
N386 S384 1.610 . S
N386 C387 1.351 . S
C387 C381 1.428 . S
C387 N386 1.351 . S
C387 C388 1.434 . S
C388 C379 1.429 . S
C388 N385 1.350 . S
C388 C387 1.434 . S
C389 C390 1.369 . S
C389 C391 1.419 . S
C389 H393 0.930 . S
C390 C389 1.369 . S
C390 C399 1.429 . S
C391 C389 1.419 . S
C391 C392 1.363 . S
C391 H394 0.929 . S
C392 C391 1.363 . S
C392 C398 1.428 . S
H393 C389 0.930 . S
H394 C391 0.929 . S
S395 N396 1.613 . S
S395 N397 1.610 . S
N396 S395 1.613 . S
N396 C399 1.350 . S
N397 S395 1.610 . S
N397 C398 1.351 . S
C398 C392 1.428 . S
C398 N397 1.351 . S
C398 C399 1.434 . S
C399 C390 1.429 . S
C399 N396 1.350 . S
C399 C398 1.434 . S
C400 C401 1.369 . S
C400 C402 1.419 . S
C400 H404 0.930 . S
C401 C400 1.369 . S
C401 C410 1.429 . S
C402 C400 1.419 . S
C402 C403 1.363 1_554 S
C402 H405 0.929 . S
C403 C402 1.363 1_556 S
C403 C409 1.428 1_556 S
H404 C400 0.930 . S
H405 C402 0.929 . S
S406 N407 1.613 . S
S406 N408 1.610 1_554 S
N407 S406 1.613 . S
N407 C410 1.350 . S
N408 S406 1.610 1_556 S
N408 C409 1.351 1_556 S
C409 C403 1.428 1_554 S
C409 N408 1.351 1_554 S
C409 C410 1.434 . S
C410 C401 1.429 . S
C410 N407 1.350 . S
C410 C409 1.434 . S
C411 C412 1.369 . S
C411 C413 1.419 . S
C411 H415 0.930 . S
C412 C411 1.369 . S
C412 C421 1.429 . S
C413 C411 1.419 . S
C413 C414 1.363 . S
C413 H416 0.929 . S
C414 C413 1.363 . S
C414 C420 1.428 . S
H415 C411 0.930 . S
H416 C413 0.929 . S
S417 N418 1.613 . S
S417 N419 1.610 . S
N418 S417 1.613 . S
N418 C421 1.350 . S
N419 S417 1.610 . S
N419 C420 1.351 . S
C420 C414 1.428 . S
C420 N419 1.351 . S
C420 C421 1.434 . S
C421 C412 1.429 . S
C421 N418 1.350 . S
C421 C420 1.434 . S
C422 C423 1.369 . S
C422 C424 1.419 . S
C422 H426 0.930 . S
C423 C422 1.369 . S
C423 C432 1.429 . S
C424 C422 1.419 . S
C424 C425 1.363 . S
C424 H427 0.929 . S
C425 C424 1.363 . S
C425 C431 1.428 . S
H426 C422 0.930 . S
H427 C424 0.929 . S
S428 N429 1.613 . S
S428 N430 1.610 . S
N429 S428 1.613 . S
N429 C432 1.350 . S
N430 S428 1.610 . S
N430 C431 1.351 . S
C431 C425 1.428 . S
C431 N430 1.351 . S
C431 C432 1.434 . S
C432 C423 1.429 . S
C432 N429 1.350 . S
C432 C431 1.434 . S
C433 C434 1.369 . S
C433 C435 1.419 . S
C433 H437 0.930 . S
C434 C433 1.369 . S
C434 C443 1.429 . S
C435 C433 1.419 . S
C435 C436 1.363 . S
C435 H438 0.929 . S
C436 C435 1.363 . S
C436 C442 1.428 . S
H437 C433 0.930 . S
H438 C435 0.929 . S
S439 N440 1.613 . S
S439 N441 1.610 . S
N440 S439 1.613 . S
N440 C443 1.350 . S
N441 S439 1.610 . S
N441 C442 1.351 . S
C442 C436 1.428 . S
C442 N441 1.351 . S
C442 C443 1.434 . S
C443 C434 1.429 . S
C443 N440 1.350 . S
C443 C442 1.434 . S
C444 C445 1.369 . S
C444 C446 1.419 . S
C444 H448 0.930 . S
C445 C444 1.369 . S
C445 C454 1.429 . S
C446 C444 1.419 . S
C446 C447 1.363 . S
C446 H449 0.929 . S
C447 C446 1.363 . S
C447 C453 1.428 . S
H448 C444 0.930 . S
H449 C446 0.929 . S
S450 N451 1.613 . S
S450 N452 1.610 . S
N451 S450 1.613 . S
N451 C454 1.350 . S
N452 S450 1.610 . S
N452 C453 1.351 . S
C453 C447 1.428 . S
C453 N452 1.351 . S
C453 C454 1.434 . S
C454 C445 1.429 . S
C454 N451 1.350 . S
C454 C453 1.434 . S
C455 C456 1.369 . S
C455 C457 1.419 . S
C455 H459 0.930 . S
C456 C455 1.369 . S
C456 C465 1.429 . S
C457 C455 1.419 . S
C457 C458 1.363 . S
C457 H460 0.929 . S
C458 C457 1.363 . S
C458 C464 1.428 . S
H459 C455 0.930 . S
H460 C457 0.929 . S
S461 N462 1.613 . S
S461 N463 1.610 . S
N462 S461 1.613 . S
N462 C465 1.350 . S
N463 S461 1.610 . S
N463 C464 1.351 . S
C464 C458 1.428 . S
C464 N463 1.351 . S
C464 C465 1.434 . S
C465 C456 1.429 . S
C465 N462 1.350 . S
C465 C464 1.434 . S
C466 C467 1.369 1_545 S
C466 C468 1.419 . S
C466 H470 0.930 . S
C467 C466 1.369 1_565 S
C467 C476 1.429 . S
C468 C466 1.419 . S
C468 C469 1.363 . S
C468 H471 0.929 . S
C469 C468 1.363 . S
C469 C475 1.428 1_545 S
H470 C466 0.930 . S
H471 C468 0.929 . S
S472 N473 1.613 . S
S472 N474 1.610 . S
N473 S472 1.613 . S
N473 C476 1.350 . S
N474 S472 1.610 . S
N474 C475 1.351 . S
C475 C469 1.428 1_565 S
C475 N474 1.351 . S
C475 C476 1.434 . S
C476 C467 1.429 . S
C476 N473 1.350 . S
C476 C475 1.434 . S
C477 C478 1.369 1_565 S
C477 C479 1.419 1_556 S
C477 H481 0.930 . S
C478 C477 1.369 1_545 S
C478 C487 1.429 1_556 S
C479 C477 1.419 1_554 S
C479 C480 1.363 . S
C479 H482 0.929 . S
C480 C479 1.363 . S
C480 C486 1.428 1_565 S
H481 C477 0.930 . S
H482 C479 0.929 . S
S483 N484 1.613 . S
S483 N485 1.610 . S
N484 S483 1.613 . S
N484 C487 1.350 1_655 S
N485 S483 1.610 . S
N485 C486 1.351 1_655 S
C486 C480 1.428 1_545 S
C486 N485 1.351 1_455 S
C486 C487 1.434 . S
C487 C478 1.429 1_554 S
C487 N484 1.350 1_455 S
C487 C486 1.434 . S
C488 C489 1.369 . S
C488 C490 1.419 . S
C488 H492 0.930 . S
C489 C488 1.369 . S
C489 C498 1.429 . S
C490 C488 1.419 . S
C490 C491 1.363 . S
C490 H493 0.929 . S
C491 C490 1.363 . S
C491 C497 1.428 . S
H492 C488 0.930 . S
H493 C490 0.929 . S
S494 N495 1.613 . S
S494 N496 1.610 . S
N495 S494 1.613 . S
N495 C498 1.350 . S
N496 S494 1.610 . S
N496 C497 1.351 . S
C497 C491 1.428 . S
C497 N496 1.351 . S
C497 C498 1.434 . S
C498 C489 1.429 . S
C498 N495 1.350 . S
C498 C497 1.434 . S
C499 C500 1.369 . S
C499 C501 1.419 . S
C499 H503 0.930 . S
C500 C499 1.369 . S
C500 C509 1.429 . S
C501 C499 1.419 . S
C501 C502 1.363 . S
C501 H504 0.929 . S
C502 C501 1.363 . S
C502 C508 1.428 . S
H503 C499 0.930 . S
H504 C501 0.929 . S
S505 N506 1.613 . S
S505 N507 1.610 . S
N506 S505 1.613 . S
N506 C509 1.350 . S
N507 S505 1.610 . S
N507 C508 1.351 . S
C508 C502 1.428 . S
C508 N507 1.351 . S
C508 C509 1.434 . S
C509 C500 1.429 . S
C509 N506 1.350 . S
C509 C508 1.434 . S
C510 C511 1.369 . S
C510 C512 1.419 1_554 S
C510 H514 0.930 . S
C511 C510 1.369 . S
C511 C520 1.429 . S
C512 C510 1.419 1_556 S
C512 C513 1.363 . S
C512 H515 0.929 . S
C513 C512 1.363 . S
C513 C519 1.428 1_556 S
H514 C510 0.930 . S
H515 C512 0.929 . S
S516 N517 1.613 . S
S516 N518 1.610 . S
N517 S516 1.613 . S
N517 C520 1.350 . S
N518 S516 1.610 . S
N518 C519 1.351 . S
C519 C513 1.428 1_554 S
C519 N518 1.351 . S
C519 C520 1.434 . S
C520 C511 1.429 . S
C520 N517 1.350 . S
C520 C519 1.434 . S
C521 C522 1.369 . S
C521 C523 1.419 . S
C521 H525 0.930 . S
C522 C521 1.369 . S
C522 C531 1.429 . S
C523 C521 1.419 . S
C523 C524 1.363 . S
C523 H526 0.929 . S
C524 C523 1.363 . S
C524 C530 1.428 . S
H525 C521 0.930 . S
H526 C523 0.929 . S
S527 N528 1.613 . S
S527 N529 1.610 . S
N528 S527 1.613 . S
N528 C531 1.350 . S
N529 S527 1.610 . S
N529 C530 1.351 . S
C530 C524 1.428 . S
C530 N529 1.351 . S
C530 C531 1.434 . S
C531 C522 1.429 . S
C531 N528 1.350 . S
C531 C530 1.434 . S
C532 C533 1.369 . S
C532 C534 1.419 . S
C532 H536 0.930 . S
C533 C532 1.369 . S
C533 C542 1.429 . S
C534 C532 1.419 . S
C534 C535 1.363 . S
C534 H537 0.929 . S
C535 C534 1.363 . S
C535 C541 1.428 . S
H536 C532 0.930 . S
H537 C534 0.929 . S
S538 N539 1.613 . S
S538 N540 1.610 . S
N539 S538 1.613 . S
N539 C542 1.350 . S
N540 S538 1.610 . S
N540 C541 1.351 . S
C541 C535 1.428 . S
C541 N540 1.351 . S
C541 C542 1.434 . S
C542 C533 1.429 . S
C542 N539 1.350 . S
C542 C541 1.434 . S
C543 C544 1.369 . S
C543 C545 1.419 . S
C543 H547 0.930 . S
C544 C543 1.369 . S
C544 C553 1.429 . S
C545 C543 1.419 . S
C545 C546 1.363 . S
C545 H548 0.929 . S
C546 C545 1.363 . S
C546 C552 1.428 . S
H547 C543 0.930 . S
H548 C545 0.929 . S
S549 N550 1.613 . S
S549 N551 1.610 . S
N550 S549 1.613 . S
N550 C553 1.350 . S
N551 S549 1.610 . S
N551 C552 1.351 . S
C552 C546 1.428 . S
C552 N551 1.351 . S
C552 C553 1.434 . S
C553 C544 1.429 . S
C553 N550 1.350 . S
C553 C552 1.434 . S
C554 C555 1.369 1_545 S
C554 C556 1.419 . S
C554 H558 0.930 . S
C555 C554 1.369 1_565 S
C555 C564 1.429 . S
C556 C554 1.419 . S
C556 C557 1.363 1_554 S
C556 H559 0.929 . S
C557 C556 1.363 1_556 S
C557 C563 1.428 1_545 S
H558 C554 0.930 . S
H559 C556 0.929 . S
S560 N561 1.613 1_556 S
S560 N562 1.610 . S
N561 S560 1.613 1_554 S
N561 C564 1.350 . S
N562 S560 1.610 . S
N562 C563 1.351 . S
C563 C557 1.428 1_565 S
C563 N562 1.351 . S
C563 C564 1.434 1_556 S
C564 C555 1.429 . S
C564 N561 1.350 . S
C564 C563 1.434 1_554 S
C565 C566 1.369 . S
C565 C567 1.419 . S
C565 H569 0.930 . S
C566 C565 1.369 . S
C566 C575 1.429 1_545 S
C567 C565 1.419 . S
C567 C568 1.363 1_545 S
C567 H570 0.929 . S
C568 C567 1.363 1_565 S
C568 C574 1.428 . S
H569 C565 0.930 . S
H570 C567 0.929 . S
S571 N572 1.613 1_655 S
S571 N573 1.610 1_655 S
N572 S571 1.613 1_455 S
N572 C575 1.350 . S
N573 S571 1.610 1_455 S
N573 C574 1.351 . S
C574 C568 1.428 . S
C574 N573 1.351 . S
C574 C575 1.434 . S
C575 C566 1.429 1_565 S
C575 N572 1.350 . S
C575 C574 1.434 . S
C225 C134 1.382 . S
C227 C8 1.379 . S
C236 C204 1.376 . S
C238 C22 1.384 . S
C247 C36 1.386 . S
C249 C120 1.376 . S
C258 C50 1.375 . S
C260 C218 1.384 . S
C269 C64 1.377 . S
C271 C148 1.383 . S
C280 C190 1.385 . S
C282 C78 1.376 . S
C291 C162 1.383 . S
C293 C92 1.378 . S
C302 C106 1.375 . S
C304 C176 1.384 . S
C313 C63 1.499 1_655 S
C315 C49 1.505 . S
C324 C175 1.506 . S
C326 C119 1.499 . S
C335 C91 1.504 . S
C337 C21 1.501 . S
C346 C133 1.506 . S
C348 C189 1.500 . S
C357 C7 1.500 1_655 S
C359 C77 1.503 . S
C368 C217 1.498 . S
C370 C147 1.505 . S
C379 C105 1.506 . S
C381 C35 1.499 . S
C390 C161 1.498 . S
C392 C203 1.505 . S
C401 C13 0.685 . S
C403 C69 0.695 . S
C412 C83 0.693 . S
C414 C27 0.690 . S
C423 C97 0.686 . S
C425 C41 0.695 . S
C434 C55 0.684 . S
C436 C111 0.688 . S
C445 C153 0.675 . S
C447 C125 0.699 . S
C456 C167 0.685 . S
C458 C139 0.687 . S
C467 C209 0.675 . S
C469 C181 0.699 . S
C478 C223 0.677 . S
C480 C195 0.699 . S
C489 C67 1.742 . S
C491 C11 1.739 . S
C500 C81 1.741 . S
C502 C25 1.739 . S
C511 C95 1.738 . S
C513 C39 1.741 . S
C522 C53 1.738 . S
C524 C109 1.739 . S
C533 C123 1.738 . S
C535 C151 1.740 . S
C544 C165 1.741 . S
C546 C137 1.740 . S
C555 C207 1.741 . S
C557 C179 1.739 . S
C566 C221 1.738 . S
C568 C193 1.741 . S
