# Generated by pormake.
# Topology tfs, (6)-cn, num edge types: 1
# Building blocks:
#     Node 0, Type 0, BuildingBlock: GEDQOX_clean_sbu_0, # of connection points: 6
#     Node 1, Type 0, BuildingBlock: GEDQOX_clean_sbu_0, # of connection points: 6
#     Node 2, Type 0, BuildingBlock: GEDQOX_clean_sbu_0, # of connection points: 6
#     Node 3, Type 0, BuildingBlock: GEDQOX_clean_sbu_0, # of connection points: 6
#     Node 4, Type 0, BuildingBlock: GEDQOX_clean_sbu_0, # of connection points: 6
#     Node 5, Type 0, BuildingBlock: GEDQOX_clean_sbu_0, # of connection points: 6
#     Edge 6, Type (0, 0), BuildingBlock: EZIPEK_clean_linker_0, # of connection points: 2
#     Edge 7, Type (0, 0), BuildingBlock: EZIPEK_clean_linker_0, # of connection points: 2
#     Edge 8, Type (0, 0), BuildingBlock: EZIPEK_clean_linker_0, # of connection points: 2
#     Edge 9, Type (0, 0), BuildingBlock: EZIPEK_clean_linker_0, # of connection points: 2
#     Edge 10, Type (0, 0), BuildingBlock: EZIPEK_clean_linker_0, # of connection points: 2
#     Edge 11, Type (0, 0), BuildingBlock: EZIPEK_clean_linker_0, # of connection points: 2
#     Edge 12, Type (0, 0), BuildingBlock: EZIPEK_clean_linker_0, # of connection points: 2
#     Edge 13, Type (0, 0), BuildingBlock: EZIPEK_clean_linker_0, # of connection points: 2
#     Edge 14, Type (0, 0), BuildingBlock: EZIPEK_clean_linker_0, # of connection points: 2
#     Edge 15, Type (0, 0), BuildingBlock: EZIPEK_clean_linker_0, # of connection points: 2
#     Edge 16, Type (0, 0), BuildingBlock: EZIPEK_clean_linker_0, # of connection points: 2
#     Edge 17, Type (0, 0), BuildingBlock: EZIPEK_clean_linker_0, # of connection points: 2
#     Edge 18, Type (0, 0), BuildingBlock: EZIPEK_clean_linker_0, # of connection points: 2
#     Edge 19, Type (0, 0), BuildingBlock: EZIPEK_clean_linker_0, # of connection points: 2
#     Edge 20, Type (0, 0), BuildingBlock: EZIPEK_clean_linker_0, # of connection points: 2
#     Edge 21, Type (0, 0), BuildingBlock: EZIPEK_clean_linker_0, # of connection points: 2
#     Edge 22, Type (0, 0), BuildingBlock: EZIPEK_clean_linker_0, # of connection points: 2
#     Edge 23, Type (0, 0), BuildingBlock: EZIPEK_clean_linker_0, # of connection points: 2
# Relax obj value: 0.638
# Max RMSD: 0.456
# Mean RMSD: 0.366
data_MOF--net-tfs--node1-GEDQOX_clean_sbu_0--edge1-EZIPEK_clean_linker_0
_symmetry_space_group_name_H-M    P1
_symmetry_Int_Tables_number       1
_symmetry_cell_setting            triclinic
loop_
_symmetry_equiv_pos_as_xyz
'x, y, z'
_cell_length_a     37.543309
_cell_length_b     41.313739
_cell_length_c     9.9573345
_cell_angle_alpha  97.198823
_cell_angle_beta   85.781295
_cell_angle_gamma 110.65067
loop_
_atom_site_label
_atom_site_type_symbol
_atom_site_fract_x
_atom_site_fract_y
_atom_site_fract_z
_atom_type_partial_charge
Nd0 Nd 0.26304 0.42418 0.00256 0.0
Nd1 Nd 0.34811 0.46527 0.92475 0.0
C2 C 0.19748 0.38387 0.09808 0.0
C3 C 0.18306 0.35768 0.19366 0.0
C4 C 0.20771 0.34798 0.26675 0.0
C5 C 0.19275 0.32227 0.35565 0.0
C6 C 0.15315 0.30649 0.37207 0.0
C7 C 0.12887 0.31659 0.29937 0.0
C8 C 0.1437 0.3419 0.21064 0.0
C9 C 0.27874 0.43666 0.73518 0.0
C10 C 0.32475 0.38565 -0.02314 0.0
C11 C 0.41898 0.48772 0.82906 0.0
C12 C 0.45336 0.51597 0.87665 0.0
C13 C 0.48785 0.50972 0.87631 0.0
C14 C 0.51767 0.53215 0.95624 0.0
C15 C 0.5128 0.56066 0.03741 0.0
C16 C 0.47958 0.56836 0.02855 0.0
C17 C 0.44999 0.54613 0.94911 0.0
C18 C 0.32897 0.4707 0.19653 0.0
C19 C 0.28989 0.50678 -0.01176 0.0
O20 O 0.21472 0.416 0.15056 0.0
O21 O 0.21417 0.37486 -0.01338 0.0
O22 O 0.24676 0.43539 0.79673 0.0
O23 O 0.29873 0.42864 0.81088 0.0
O24 O 0.29533 0.38922 0.04947 0.0
O25 O 0.34111 0.40764 0.88713 0.0
O26 O 0.39188 0.4964 0.78407 0.0
O27 O 0.40614 0.46345 0.91094 0.0
O28 O 0.3556 0.49528 0.14107 0.0
O29 O 0.31758 0.44424 0.11326 0.0
O30 O 0.31786 0.50387 0.90376 0.0
O31 O 0.26856 0.48102 0.05764 0.0
H32 H 0.23828 0.36023 0.25496 0.0
H33 H 0.21183 0.31484 0.41146 0.0
H34 H 0.09825 0.30483 0.31161 0.0
H35 H 0.12438 0.34916 0.15514 0.0
H36 H 0.49065 0.48623 0.82227 0.0
H37 H 0.54327 0.52603 0.96188 0.0
H38 H 0.47553 0.5904 0.09048 0.0
H39 H 0.4235 0.55119 0.95252 0.0
Nd40 Nd 0.85623 0.25069 0.63249 0.0
Nd41 Nd 0.77451 0.24114 0.73248 0.0
C42 C 0.9199 0.25197 0.49885 0.0
C43 C 0.95237 0.24043 0.50226 0.0
C44 C 0.98105 0.25012 0.40233 0.0
C45 C 1.01628 0.24734 0.41831 0.0
C46 C 1.02344 0.2348 0.53457 0.0
C47 C 0.99347 0.22182 0.62849 0.0
C48 C 0.95806 0.22504 0.61324 0.0
C49 C 0.84329 0.2488 0.90627 0.0
C50 C 0.79153 0.17036 0.63499 0.0
C51 C 0.71599 0.24582 0.88335 0.0
C52 C 0.69461 0.26854 0.8709 0.0
C53 C 0.6742 0.2788 -0.0187 0.0
C54 C 0.65232 0.29907 0.96256 0.0
C55 C 0.65051 0.3083 0.83278 0.0
C56 C 0.67308 0.29997 0.72566 0.0
C57 C 0.69514 0.28039 0.74473 0.0
C58 C 0.78619 0.2439 0.45806 0.0
C59 C 0.83442 0.32084 0.69947 0.0
O60 O 0.88678 0.22852 0.4673 0.0
O61 O 0.91786 0.27553 0.59686 0.0
O62 O 0.87519 0.26827 0.85446 0.0
O63 O 0.8218 0.22979 0.81556 0.0
O64 O 0.82536 0.1905 0.59019 0.0
O65 O 0.76827 0.18385 0.7071 0.0
O66 O 0.75112 0.26194 0.92059 0.0
O67 O 0.71285 0.22182 0.78098 0.0
O68 O 0.7532 0.2273 0.51204 0.0
O69 O 0.80878 0.26139 0.54823 0.0
O70 O 0.80442 0.30138 0.76706 0.0
O71 O 0.85577 0.30621 0.62052 0.0
H72 H 0.97707 0.26202 0.31622 0.0
H73 H 0.03879 0.25706 0.34353 0.0
H74 H 0.99816 0.21133 0.71725 0.0
H75 H 0.93597 0.21742 0.69132 0.0
H76 H 0.67436 0.27039 0.07994 0.0
H77 H 0.63512 0.3057 0.04616 0.0
H78 H 0.67221 0.30722 0.62533 0.0
H79 H 0.71155 0.27338 0.65925 0.0
Nd80 Nd 0.56313 0.87329 0.52889 0.0
Nd81 Nd 0.52678 0.79454 0.5668 0.0
C82 C 0.60153 0.93549 0.44837 0.0
C83 C 0.63676 0.96581 0.47885 0.0
C84 C 0.65904 0.98328 0.37332 0.0
C85 C 0.6913 1.01313 0.40045 0.0
C86 C 0.70362 0.02591 0.53445 0.0
C87 C 0.67886 1.00929 0.63954 0.0
C88 C 0.64682 0.97936 0.61236 0.0
C89 C 0.55114 0.85807 0.78957 0.0
C90 C 0.61894 0.82378 0.5303 0.0
C91 C 0.49677 0.73187 0.64449 0.0
C92 C 0.51022 0.70228 0.61332 0.0
C93 C 0.4851 0.67078 0.55359 0.0
C94 C 0.49922 0.64633 0.48306 0.0
C95 C 0.5386 0.65293 0.47225 0.0
C96 C 0.56344 0.68246 0.54548 0.0
C97 C 0.54935 0.70731 0.6144 0.0
C98 C 0.54184 0.8102 0.30551 0.0
C99 C 0.46968 0.8389 0.55831 0.0
O100 O 0.60536 0.90673 0.38868 0.0
O101 O 0.57409 0.92978 0.54117 0.0
O102 O 0.54969 0.88676 0.75475 0.0
O103 O 0.56272 0.84145 0.69339 0.0
O104 O 0.61609 0.85404 0.50778 0.0
O105 O 0.58874 0.79753 0.56356 0.0
O106 O 0.48516 0.74102 0.53912 0.0
O107 O 0.51787 0.75851 0.72363 0.0
O108 O 0.54386 0.78208 0.34423 0.0
O109 O 0.52855 0.82655 0.39839 0.0
O110 O 0.47526 0.81329 0.6114 0.0
O111 O 0.49844 0.8627 0.49956 0.0
H112 H 0.65089 0.97437 0.26925 0.0
H113 H 0.70535 0.02656 0.31457 0.0
H114 H 0.68261 0.01958 0.74442 0.0
H115 H 0.62928 0.96741 0.69658 0.0
H116 H 0.45493 0.66643 0.55123 0.0
H117 H 0.4796 0.6234 0.42821 0.0
H118 H 0.59386 0.68772 0.53921 0.0
H119 H 0.56943 0.73148 0.65939 0.0
Nd120 Nd 0.87787 0.70351 0.57123 0.0
Nd121 Nd 0.90374 0.63874 0.60387 0.0
C122 C 0.85655 0.75485 0.50886 0.0
C123 C 0.82153 0.76464 0.50996 0.0
C124 C 0.81119 0.77414 0.3916 0.0
C125 C 0.77965 0.78517 0.39228 0.0
C126 C 0.75759 0.78717 0.5116 0.0
C127 C 0.76776 0.77759 0.62997 0.0
C128 C 0.79924 0.76648 0.62927 0.0
C129 C 0.87792 0.68658 0.826 0.0
C130 C 0.97122 0.71375 0.58584 0.0
C131 C 0.91323 0.58292 0.68092 0.0
C132 C 0.89713 0.54412 0.67724 0.0
C133 C 0.8695 0.52769 0.77414 0.0
C134 C 0.85772 0.49152 0.77898 0.0
C135 C 0.87339 0.47094 0.68756 0.0
C136 C 0.90046 0.48714 0.58945 0.0
C137 C 0.91225 0.52324 0.58456 0.0
C138 C 0.8997 0.65299 0.34603 0.0
C139 C 0.81179 0.62677 0.58833 0.0
O140 O 0.85953 0.72971 0.41923 0.0
O141 O 0.87012 0.75445 0.62588 0.0
O142 O 0.85295 0.6985 0.78856 0.0
O143 O 0.90284 0.68647 0.7349 0.0
O144 O 0.9453 0.72512 0.54093 0.0
O145 O 0.9611 0.68346 0.63667 0.0
O146 O 0.89591 0.60157 0.75668 0.0
O147 O 0.92801 0.59636 0.5685 0.0
O148 O 0.92329 0.63881 0.37788 0.0
O149 O 0.87719 0.65509 0.4429 0.0
O150 O 0.83798 0.61619 0.63183 0.0
O151 O 0.82073 0.65772 0.54387 0.0
H152 H 0.82775 0.77329 0.29827 0.0
H153 H 0.77244 0.79218 0.29933 0.0
H154 H 0.75119 0.7786 0.72315 0.0
H155 H 0.80619 0.75948 0.72265 0.0
H156 H 0.85755 0.54284 0.84839 0.0
H157 H 0.83687 0.47966 0.85578 0.0
H158 H 0.91302 0.47187 0.51807 0.0
H159 H 0.93397 0.53493 0.50996 0.0
Nd160 Nd 0.22598 0.84079 0.6008 0.0
Nd161 Nd 0.22006 0.76466 0.49034 0.0
C162 C 0.24264 0.90268 0.74132 0.0
C163 C 0.26999 0.9381 0.72672 0.0
C164 C 0.28794 0.95962 0.84084 0.0
C165 C 0.31202 0.99398 0.82899 0.0
C166 C 0.31812 1.00735 0.70293 0.0
C167 C 0.30105 0.98552 0.5883 0.0
C168 C 0.27736 0.95117 0.59985 0.0
C169 C 0.22578 0.82749 0.32776 0.0
C170 C 0.13931 0.78198 0.55858 0.0
C171 C 0.2078 0.70652 0.32874 0.0
C172 C 0.22761 0.68364 0.2616 0.0
C173 C 0.22156 0.67161 0.12408 0.0
C174 C 0.23565 0.64608 0.06277 0.0
C175 C 0.25555 0.63211 0.1391 0.0
C176 C 0.2636 0.6456 0.27423 0.0
C177 C 0.24984 0.67133 0.33516 0.0
C178 C 0.22261 0.77919 0.76246 0.0
C179 C 0.30613 0.81918 0.54625 0.0
O180 O 0.21575 0.89035 0.65261 0.0
O181 O 0.25654 0.87934 0.76863 0.0
O182 O 0.21347 0.85114 0.39068 0.0
O183 O 0.24186 0.81599 0.40669 0.0
O184 O 0.15961 0.81361 0.61466 0.0
O185 O 0.15671 0.76062 0.5009 0.0
O186 O 0.21562 0.73678 0.28326 0.0
O187 O 0.20333 0.70761 0.46085 0.0
O188 O 0.23624 0.7564 0.69782 0.0
O189 O 0.20492 0.78988 0.6858 0.0
O190 O 0.28522 0.78691 0.50132 0.0
O191 O 0.29006 0.84311 0.58689 0.0
H192 H 0.28282 0.95003 0.93944 0.0
H193 H 0.32517 1.01038 0.9184 0.0
H194 H 0.30561 0.99528 0.49008 0.0
H195 H 0.26425 0.93505 0.50981 0.0
H196 H 0.20461 0.68093 0.06568 0.0
H197 H 0.22933 0.6359 0.95819 0.0
H198 H 0.27906 0.63509 0.3341 0.0
H199 H 0.25526 0.68049 0.44103 0.0
Nd200 Nd 0.46462 0.31393 0.44056 0.0
Nd201 Nd 0.50727 0.39311 0.44091 0.0
C202 C 0.43728 0.24508 0.40082 0.0
C203 C 0.42361 0.21239 0.46536 0.0
C204 C 0.38936 0.18679 0.42179 0.0
C205 C 0.37561 0.15495 0.47595 0.0
C206 C 0.3959 0.14799 0.57461 0.0
C207 C 0.43006 0.17363 0.62001 0.0
C208 C 0.4439 0.20572 0.56554 0.0
C209 C 0.46075 0.35094 0.69115 0.0
C210 C 0.42164 0.35968 0.32693 0.0
C211 C 0.54115 0.46185 0.46141 0.0
C212 C 0.57829 0.48757 0.50479 0.0
C213 C 0.59255 0.51923 0.44756 0.0
C214 C 0.62953 0.5423 0.4731 0.0
C215 C 0.65311 0.53401 0.55568 0.0
C216 C 0.63859 0.50273 0.6162 0.0
C217 C 0.60144 0.47961 0.59071 0.0
C218 C 0.51467 0.35239 0.20387 0.0
C219 C 0.55142 0.34724 0.54078 0.0
O220 O 0.41585 0.26436 0.41851 0.0
O221 O 0.47379 0.26325 0.39866 0.0
O222 O 0.43345 0.32399 0.63982 0.0
O223 O 0.4879 0.35733 0.60574 0.0
O224 O 0.42718 0.32965 0.31064 0.0
O225 O 0.4451 0.38715 0.39876 0.0
O226 O 0.54259 0.44125 0.35216 0.0
O227 O 0.51739 0.44555 0.55417 0.0
O228 O 0.54239 0.3786 0.25789 0.0
O229 O 0.4856 0.34897 0.27858 0.0
O230 O 0.54673 0.37765 0.56216 0.0
O231 O 0.52767 0.32086 0.46555 0.0
H232 H 0.3733 0.19136 0.34458 0.0
H233 H 0.3492 0.13553 0.44 0.0
H234 H 0.44599 0.1687 0.69658 0.0
H235 H 0.47038 0.22509 0.60093 0.0
H236 H 0.57557 0.52558 0.37899 0.0
H237 H 0.64021 0.56614 0.42476 0.0
H238 H 0.65642 0.49576 0.6796 0.0
H239 H 0.59128 0.4551 0.63439 0.0
C240 C 0.41178 0.38242 0.11676 0.0
C241 C 0.39594 0.36392 0.23078 0.0
C242 C 0.3323 0.34655 0.1398 0.0
C243 C 0.3477 0.36768 0.03321 0.0
N244 N 0.40238 0.38872 0.8847 0.0
N245 N 0.33998 0.32497 0.34139 0.0
C246 C 0.38766 0.38046 0.01052 0.0
C247 C 0.35629 0.3446 0.23824 0.0
N248 N 0.44969 0.40178 0.10884 0.0
N249 N 0.29464 0.32719 0.14878 0.0
H250 H 0.35506 0.3227 0.42184 0.0
H251 H 0.35506 0.3227 0.42184 0.0
H252 H 0.2753 0.32519 0.07498 0.0
H253 H 0.2753 0.32519 0.07498 0.0
H254 H 0.46131 0.41943 0.03764 0.0
H255 H 0.46933 0.40217 0.17809 0.0
H256 H 0.43135 0.39865 0.86066 0.0
H257 H 0.38527 0.38162 0.80026 0.0
C258 C 0.11867 0.24479 0.40701 0.0
C259 C 0.13528 0.27952 0.46509 0.0
C260 C 0.08485 0.27078 0.63957 0.0
C261 C 0.06369 0.23997 0.5595 0.0
N262 N 0.06431 0.19062 0.40746 0.0
N263 N 0.14408 0.32054 0.66265 0.0
C264 C 0.08267 0.22415 0.45912 0.0
C265 C 0.12197 0.29042 0.59273 0.0
N266 N 0.13589 0.23324 0.29535 0.0
N267 N 0.06803 0.28253 0.75192 0.0
H268 H 0.17116 0.33481 0.62603 0.0
H269 H 0.13713 0.33001 0.75896 0.0
H270 H 0.04149 0.26769 0.79006 0.0
H271 H 0.08022 0.30646 0.80824 0.0
H272 H 0.12421 0.20909 0.23989 0.0
H273 H 0.16257 0.24856 0.25902 0.0
H274 H 0.07621 0.17671 0.33483 0.0
H275 H 0.03744 0.17624 0.44563 0.0
C276 C 0.78119 0.1133 0.48055 0.0
C277 C 0.77939 0.13127 0.61188 0.0
C278 C 0.74802 0.0743 0.69774 0.0
C279 C 0.73866 0.05878 0.56425 0.0
N280 N 0.77362 0.05732 0.35322 0.0
N281 N 0.76456 0.12664 0.85183 0.0
C282 C 0.76314 0.07633 0.46061 0.0
C283 C 0.76397 0.11109 0.72247 0.0
N284 N 0.79869 0.13105 0.37347 0.0
N285 N 0.74808 0.05405 0.79577 0.0
H286 H 0.77846 0.15306 0.87761 0.0
H287 H 0.74979 0.11314 0.93228 0.0
H288 H 0.74333 0.02752 0.77273 0.0
H289 H 0.75816 0.06422 0.89248 0.0
H290 H 0.79625 0.11948 0.27377 0.0
H291 H 0.81415 0.15755 0.38213 0.0
H292 H 0.79423 0.06826 0.28019 0.0
H293 H 0.76548 0.0303 0.34909 0.0
C294 C 0.72366 0.83118 0.57393 0.0
C295 C 0.72307 0.79805 0.51127 0.0
C296 C 0.65824 0.78656 0.43604 0.0
C297 C 0.65659 0.81747 0.51395 0.0
N298 N 0.68754 0.8676 0.67024 0.0
N299 N 0.6868 0.7418 0.40126 0.0
C300 C 0.68941 0.83953 0.58563 0.0
C301 C 0.68953 0.77516 0.44732 0.0
N302 N 0.75724 0.85506 0.61979 0.0
N303 N 0.63065 0.76867 0.34549 0.0
H304 H 0.70887 0.73228 0.40738 0.0
H305 H 0.66144 0.72269 0.36858 0.0
H306 H 0.6079 0.77643 0.33039 0.0
H307 H 0.6329 0.74873 0.27408 0.0
H308 H 0.76073 0.88089 0.65289 0.0
H309 H 0.78257 0.8498 0.61387 0.0
H310 H 0.70872 0.88219 0.73758 0.0
H311 H 0.66354 0.87488 0.68076 0.0
C312 C 0.07271 0.77767 0.67018 0.0
C313 C 0.09559 0.76834 0.56106 0.0
C314 C 0.03694 0.72203 0.47534 0.0
C315 C 1.01362 0.73415 0.57271 0.0
N316 N 1.00999 0.77869 0.74794 0.0
N317 N 0.09398 0.73864 0.33405 0.0
C318 C 1.03175 0.76388 0.66427 0.0
C319 C 0.07602 0.74269 0.45597 0.0
N320 N 0.0893 0.79743 0.78454 0.0
N321 N 1.02251 0.69019 0.40277 0.0
H322 H 0.12141 0.75466 0.30956 0.0
H323 H 0.07975 0.72237 0.25134 0.0
H324 H 0.99466 0.67343 0.41601 0.0
H325 H 0.03952 0.67904 0.33995 0.0
H326 H 0.07365 0.80186 0.87123 0.0
H327 H 0.11837 0.80603 0.80016 0.0
H328 H 1.02146 0.80225 0.80796 0.0
H329 H 0.98032 0.76908 0.74721 0.0
C330 C 0.32698 0.07126 0.74014 0.0
C331 C 0.34149 0.04448 0.68953 0.0
C332 C 0.39481 0.08665 0.5755 0.0
C333 C 0.38064 0.11346 0.62829 0.0
N334 N 0.33922 0.13327 0.7867 0.0
N335 N 0.39354 0.0279 0.58717 0.0
C336 C 0.34867 0.10635 0.71949 0.0
C337 C 0.37688 0.05263 0.61619 0.0
N338 N 0.29151 0.06303 0.80097 0.0
N339 N 0.42427 0.09329 0.48174 0.0
H340 H 0.38121 1.00284 0.61645 0.0
H341 H 0.42099 0.03306 0.54547 0.0
H342 H 0.43867 0.11801 0.45172 0.0
H343 H 0.43287 0.07396 0.4272 0.0
H344 H 0.27764 0.08091 0.82574 0.0
H345 H 0.27447 0.03769 0.8173 0.0
H346 H 0.31859 0.13016 0.8646 0.0
H347 H 0.35458 0.15924 0.77332 0.0
C348 C 0.23468 0.56816 0.06655 0.0
C349 C 0.26449 0.60084 0.08326 0.0
C350 C 0.31178 0.57231 0.03606 0.0
C351 C 0.28188 0.53977 0.00872 0.0
N352 N 0.21517 0.50874 0.96429 0.0
N353 N 0.33078 0.63515 0.0541 0.0
C354 C 0.24342 0.53833 0.01327 0.0
C355 C 0.30287 0.60326 0.05771 0.0
N356 N 0.1982 0.56513 0.10805 0.0
N357 N 0.34819 0.57373 0.05166 0.0
H358 H 0.32509 0.65833 0.07016 0.0
H359 H 0.35879 0.63838 0.02248 0.0
H360 H 0.35615 0.55187 0.04415 0.0
H361 H 0.36993 0.59646 0.08606 0.0
H362 H 0.17634 0.54122 0.11293 0.0
H363 H 0.19034 0.58616 0.14965 0.0
H364 H 0.18744 0.50772 0.95227 0.0
H365 H 0.22002 0.48622 0.92252 0.0
C366 C 0.55951 0.31144 0.71238 0.0
C367 C 0.5756 0.34004 0.63438 0.0
C368 C 0.63553 0.35577 0.74959 0.0
C369 C 0.62214 0.32285 0.79938 0.0
N370 N 0.57149 0.26768 0.82146 0.0
N371 N 0.62958 0.38993 0.57768 0.0
C372 C 0.58395 0.30042 0.78133 0.0
C373 C 0.61366 0.36286 0.65452 0.0
N374 N 0.52094 0.29539 0.72477 0.0
N375 N 0.66961 0.37961 0.79106 0.0
H376 H 0.61496 0.39522 0.50303 0.0
H377 H 0.65828 0.40541 0.57974 0.0
H378 H 0.68587 0.37448 0.86086 0.0
H379 H 0.67972 0.40519 0.76715 0.0
H380 H 0.50816 0.27691 0.7922 0.0
H381 H 0.50144 0.30314 0.68053 0.0
H382 H 0.54541 0.24892 0.79356 0.0
H383 H 0.58797 0.25824 0.87439 0.0
C384 C 0.54274 0.5953 0.38955 0.0
C385 C 0.55262 0.63068 0.3695 0.0
C386 C 0.56042 0.61605 0.12617 0.0
C387 C 0.53951 0.58104 0.14424 0.0
N388 N 0.51454 0.53556 0.29131 0.0
N389 N 0.57503 0.67603 0.21968 0.0
C390 C 0.53309 0.56989 0.2757 0.0
C391 C 0.56419 0.64166 0.23846 0.0
N392 N 0.54077 0.58637 0.51799 0.0
N393 N 0.57426 0.62454 -0.00019 0.0
H394 H 0.57828 0.69558 0.29945 0.0
H395 H 0.57926 0.6851 0.12476 0.0
H396 H 0.57065 0.60551 0.91722 0.0
H397 H 0.59195 0.64938 -0.02014 0.0
H398 H 0.53593 0.56115 0.53999 0.0
H399 H 0.54752 0.6052 0.60155 0.0
H400 H 0.50466 0.52628 0.38454 0.0
H401 H 0.50826 0.51631 0.20936 0.0
C402 C 0.88806 0.41966 0.75175 0.0
C403 C 0.86245 0.43256 0.69688 0.0
C404 C 0.81597 0.37284 0.66353 0.0
C405 C 0.84319 0.35945 0.70501 0.0
N406 N 0.90614 0.37024 0.78309 0.0
N407 N 0.80395 0.42133 0.58497 0.0
C408 C 0.87956 0.38296 0.74706 0.0
C409 C 0.8268 0.40912 0.64953 0.0
N410 N 0.91993 0.44264 0.81346 0.0
N411 N 0.77962 0.35104 0.63721 0.0
H412 H 0.8107 0.4476 0.57356 0.0
H413 H 0.77986 0.4053 0.53312 0.0
H414 H 0.77084 0.32416 0.63567 0.0
H415 H 0.75731 0.35975 0.62507 0.0
H416 H 0.9377 0.43529 0.86904 0.0
H417 H 0.92707 0.46955 0.81899 0.0
H418 H 0.93468 0.38534 0.79646 0.0
H419 H 0.90024 0.34407 0.79373 0.0
C420 C 0.36749 0.81379 0.43507 0.0
C421 C 0.34933 0.82853 0.54438 0.0
C422 C 0.41293 0.85692 0.64681 0.0
C423 C 0.42903 0.83744 0.5492 0.0
N424 N 0.41889 0.79245 0.36256 0.0
N425 N 0.35589 0.86155 0.76607 0.0
C426 C 0.40545 0.81449 0.44709 0.0
C427 C 0.37245 0.84976 0.65293 0.0
N428 N 0.34927 0.80047 0.31597 0.0
N429 N 0.43632 0.88235 0.73418 0.0
H430 H 0.32682 0.85677 0.7781 0.0
H431 H 0.3706 0.87344 0.854 0.0
H432 H 0.46567 0.8878 0.73324 0.0
H433 H 0.42722 0.89999 0.79855 0.0
H434 H 0.36253 0.79251 0.22901 0.0
H435 H 0.32263 0.80134 0.29849 0.0
H436 H 0.40171 0.77246 0.29605 0.0
H437 H 0.44633 0.79214 0.36819 0.0
C438 C 0.74167 0.61311 0.65252 0.0
C439 C 0.77118 0.60246 0.58467 0.0
C440 C 0.72282 0.54731 0.49533 0.0
C441 C 0.69387 0.55706 0.57002 0.0
N442 N 0.67583 0.59642 0.73631 0.0
N443 N 0.78986 0.55661 0.45757 0.0
C444 C 0.70335 0.58924 0.65308 0.0
C445 C 0.76177 0.56865 0.5118 0.0
N446 N 0.7501 0.64606 0.71674 0.0
N447 N 0.71298 0.5184 0.40287 0.0
H448 H 0.81863 0.57161 0.45624 0.0
H449 H 0.78487 0.53069 0.42108 0.0
H450 H 0.68493 0.5019 0.38794 0.0
H451 H 0.73218 0.51229 0.33249 0.0
H452 H 0.72953 0.65691 0.75161 0.0
H453 H 0.77776 0.66352 0.72957 0.0
H454 H 0.68138 0.61749 0.81074 0.0
H455 H 0.64757 0.57963 0.73884 0.0
C456 C 0.31381 0.42986 0.51645 0.0
C457 C 0.29154 0.44698 0.59738 0.0
C458 C 0.29958 0.48561 0.4192 0.0
C459 C 0.32225 0.46855 0.34297 0.0
N460 N 0.35891 0.43173 0.32963 0.0
N461 N 0.26997 0.49644 0.63559 0.0
C462 C 0.33218 0.44334 0.39714 0.0
C463 C 0.2861 0.47633 0.55152 0.0
N464 N 0.31631 0.3993 0.54482 0.0
N465 N 0.29046 0.51021 0.36408 0.0
H466 H 0.25961 0.49099 0.73253 0.0
H467 H 0.26947 0.52024 0.61342 0.0
H468 H 0.30323 0.51991 0.27401 0.0
H469 H 0.26961 0.52014 0.40496 0.0
H470 H 0.3009 0.38497 0.62211 0.0
H471 H 0.3009 0.38497 0.62211 0.0
H472 H 0.36909 0.41424 0.36684 0.0
H473 H 0.36909 0.41424 0.36684 0.0
C474 C 0.79436 0.21479 0.22842 0.0
C475 C 0.79598 0.24558 0.31157 0.0
C476 C 0.82908 0.28009 0.12621 0.0
C477 C 0.8316 0.24936 0.05131 0.0
N478 N 0.82651 0.18963 0.04975 0.0
N479 N 0.81449 0.30811 0.34106 0.0
C480 C 0.81691 0.2173 0.10748 0.0
C481 C 0.81346 0.27847 0.26096 0.0
N482 N 0.77098 0.18308 0.26262 0.0
N483 N 0.83993 0.31038 0.06712 0.0
H484 H 0.79887 0.30758 0.43204 0.0
H485 H 0.83133 0.33303 0.31905 0.0
H486 H 0.85273 0.313 0.97094 0.0
H487 H 0.83433 0.33247 0.10996 0.0
H488 H 0.76574 0.16048 0.19574 0.0
H489 H 0.75414 0.17971 0.35119 0.0
H490 H 0.8196 0.16663 0.09482 0.0
H491 H 0.84443 0.19096 0.96372 0.0
C492 C 0.58171 0.83926 0.11384 0.0
C493 C 0.54585 0.81832 0.16471 0.0
C494 C 0.5135 0.82991 -0.01669 0.0
C495 C 0.54923 0.84964 0.92866 0.0
N496 N 0.61768 0.87282 0.93395 0.0
N497 N 0.48002 0.7848 0.12664 0.0
C498 C 0.58354 0.85429 -0.00813 0.0
C499 C 0.51236 0.81103 0.09321 0.0
N500 N 0.61376 0.84469 0.18269 0.0
N501 N 0.48076 0.82986 0.93188 0.0
H502 H 0.47955 0.769 0.20123 0.0
H503 H 0.45537 0.77625 0.07091 0.0
H504 H 0.48106 0.84498 0.8552 0.0
H505 H 0.45381 0.81811 -0.02504 0.0
H506 H 0.64033 0.86287 0.16201 0.0
H507 H 0.61344 0.83061 0.26245 0.0
H508 H 0.64404 0.87412 0.96505 0.0
H509 H 0.61956 0.88665 0.85136 0.0
C510 C 0.86134 0.64046 0.14066 0.0
C511 C 0.89514 0.6605 0.20941 0.0
C512 C 0.91481 0.70018 0.03392 0.0
C513 C 0.88135 0.67982 0.96435 0.0
N514 N 0.81932 0.63498 0.95919 0.0
N515 N 0.95665 0.70609 0.21562 0.0
C516 C 0.85347 0.65126 0.02014 0.0
C517 C 0.92269 0.68941 0.15424 0.0
N518 N 0.83815 0.60991 0.18658 0.0
N519 N 0.93765 0.731 -0.0111 0.0
H520 H 0.97979 0.72476 0.17329 0.0
H521 H 0.96276 0.69932 0.30569 0.0
H522 H 0.93124 0.74057 0.90523 0.0
H523 H 0.96076 0.74885 0.04071 0.0
H524 H 0.8148 0.59223 0.13553 0.0
H525 H 0.84446 0.60047 0.27057 0.0
H526 H 0.79624 0.61618 0.00115 0.0
H527 H 0.81274 0.64229 0.87071 0.0
C528 C 0.18894 0.78754 -0.01943 0.0
C529 C 0.22353 0.78898 0.90956 0.0
C530 C 0.25978 0.81923 0.10989 0.0
C531 C 0.22518 0.81769 0.18073 0.0
N532 N 0.15785 0.80781 0.17707 0.0
N533 N 0.29117 0.79999 0.91168 0.0
C534 C 0.19004 0.80415 0.11422 0.0
C535 C 0.25878 0.8029 -0.02439 0.0
N536 N 0.15489 0.76777 0.92387 0.0
N537 N 0.29372 0.83897 0.16729 0.0
H538 H 0.29251 0.78996 0.81106 0.0
H539 H 0.31644 0.80534 0.96104 0.0
H540 H 0.29552 0.85287 0.26305 0.0
H541 H 0.31998 0.84457 0.11572 0.0
H542 H 0.12871 0.76247 -0.02417 0.0
H543 H 0.1529 0.75334 0.82918 0.0
H544 H 0.13277 0.80277 0.12693 0.0
H545 H 0.15658 0.81811 0.27742 0.0
C546 C 0.52731 0.37273 -0.02508 0.0
C547 C 0.50874 0.34569 0.05617 0.0
C548 C 0.45302 0.32584 0.91405 0.0
C549 C 0.47107 0.35376 0.83495 0.0
N550 N 0.51886 0.41024 0.82237 0.0
N551 N 0.46104 0.28965 0.07484 0.0
C552 C 0.5065 0.3791 0.87489 0.0
C553 C 0.47394 0.31982 0.01504 0.0
N554 N 0.56515 0.3912 -0.01044 0.0
N555 N 0.41508 0.30729 0.90177 0.0
H556 H 0.4769 0.28498 0.14729 0.0
H557 H 0.43729 0.26842 0.04301 0.0
H558 H 0.39783 0.31451 0.84293 0.0
H559 H 0.3998 0.28834 0.96446 0.0
H560 H 0.58091 0.40963 0.92542 0.0
H561 H 0.58151 0.38447 0.05401 0.0
H562 H 0.54308 0.43093 0.85444 0.0
H563 H 0.50162 0.41639 0.7599 0.0
loop_
_geom_bond_atom_site_label_1
_geom_bond_atom_site_label_2
_geom_bond_distance
_geom_bond_site_symmetry_2
_ccdc_geom_bond_type
Nd0 C2 2.836 . S
Nd0 O20 2.500 . S
Nd0 O21 2.492 1_554 S
Nd0 O22 2.487 1_554 S
Nd0 O23 2.682 1_554 S
Nd0 O24 2.410 1_554 S
Nd0 O29 2.414 . S
Nd0 O31 2.424 1_554 S
Nd1 C11 2.836 . S
Nd1 O23 2.414 . S
Nd1 O25 2.424 1_556 S
Nd1 O26 2.500 . S
Nd1 O27 2.492 1_556 S
Nd1 O28 2.487 1_556 S
Nd1 O29 2.682 1_556 S
Nd1 O30 2.410 1_556 S
C2 Nd0 2.836 . S
C2 C3 1.498 . S
C2 O20 1.258 . S
C2 O21 1.239 1_554 S
C3 C2 1.498 . S
C3 C4 1.366 . S
C3 C8 1.407 . S
C4 C3 1.366 . S
C4 C5 1.392 . S
C4 H32 0.930 . S
C5 C4 1.392 . S
C5 C6 1.398 . S
C5 H33 0.929 . S
C6 C5 1.398 . S
C6 C7 1.352 . S
C7 C6 1.352 . S
C7 C8 1.384 . S
C7 H34 0.930 1_554 S
C8 C3 1.407 . S
C8 C7 1.384 . S
C8 H35 0.929 1_554 S
C9 O22 1.241 . S
C9 O23 1.273 . S
C10 O24 1.251 1_554 S
C10 O25 1.268 . S
C11 Nd1 2.836 . S
C11 C12 1.498 . S
C11 O26 1.258 . S
C11 O27 1.239 1_556 S
C12 C11 1.498 . S
C12 C13 1.366 . S
C12 C17 1.407 . S
C13 C12 1.366 . S
C13 C14 1.392 . S
C13 H36 0.930 . S
C14 C13 1.392 . S
C14 C15 1.398 . S
C14 H37 0.929 . S
C15 C14 1.398 . S
C15 C16 1.352 . S
C16 C15 1.352 . S
C16 C17 1.384 . S
C16 H38 0.930 1_556 S
C17 C12 1.407 . S
C17 C16 1.384 . S
C17 H39 0.929 1_556 S
C18 O28 1.241 . S
C18 O29 1.273 . S
C19 O30 1.251 1_556 S
C19 O31 1.268 . S
O20 Nd0 2.500 . S
O20 C2 1.258 . S
O21 Nd0 2.492 1_556 S
O21 C2 1.239 1_556 S
O22 Nd0 2.487 1_556 S
O22 C9 1.241 . S
O23 Nd0 2.682 1_556 S
O23 Nd1 2.414 . S
O23 C9 1.273 . S
O24 Nd0 2.410 1_556 S
O24 C10 1.251 1_556 S
O25 Nd1 2.424 1_554 S
O25 C10 1.268 . S
O26 Nd1 2.500 . S
O26 C11 1.258 . S
O27 Nd1 2.492 1_554 S
O27 C11 1.239 1_554 S
O28 Nd1 2.487 1_554 S
O28 C18 1.241 . S
O29 Nd0 2.414 . S
O29 Nd1 2.682 1_554 S
O29 C18 1.273 . S
O30 Nd1 2.410 1_554 S
O30 C19 1.251 1_554 S
O31 Nd0 2.424 1_556 S
O31 C19 1.268 . S
H32 C4 0.930 . S
H33 C5 0.929 . S
H34 C7 0.930 1_556 S
H35 C8 0.929 1_556 S
H36 C13 0.930 . S
H37 C14 0.929 . S
H38 C16 0.930 1_554 S
H39 C17 0.929 1_554 S
Nd40 C42 2.836 . S
Nd40 O60 2.500 . S
Nd40 O61 2.492 1_556 S
Nd40 O62 2.487 1_556 S
Nd40 O63 2.682 1_556 S
Nd40 O64 2.410 . S
Nd40 O69 2.414 . S
Nd40 O71 2.424 1_556 S
Nd41 C51 2.836 . S
Nd41 O63 2.414 . S
Nd41 O65 2.424 1_554 S
Nd41 O66 2.500 . S
Nd41 O67 2.492 1_554 S
Nd41 O68 2.487 1_554 S
Nd41 O69 2.682 1_554 S
Nd41 O70 2.410 . S
C42 Nd40 2.836 . S
C42 C43 1.498 . S
C42 O60 1.258 . S
C42 O61 1.239 1_556 S
C43 C42 1.498 . S
C43 C44 1.366 . S
C43 C48 1.407 . S
C44 C43 1.366 . S
C44 C45 1.392 . S
C44 H72 0.930 . S
C45 C44 1.392 . S
C45 C46 1.398 . S
C45 H73 0.929 . S
C46 C45 1.398 . S
C46 C47 1.352 . S
C47 C46 1.352 . S
C47 C48 1.384 . S
C47 H74 0.930 . S
C48 C43 1.407 . S
C48 C47 1.384 . S
C48 H75 0.929 1_556 S
C49 O62 1.241 . S
C49 O63 1.273 . S
C50 O64 1.251 . S
C50 O65 1.268 . S
C51 Nd41 2.836 . S
C51 C52 1.498 . S
C51 O66 1.258 . S
C51 O67 1.239 1_554 S
C52 C51 1.498 . S
C52 C53 1.366 . S
C52 C57 1.407 . S
C53 C52 1.366 . S
C53 C54 1.392 . S
C53 H76 0.930 . S
C54 C53 1.392 . S
C54 C55 1.398 . S
C54 H77 0.929 . S
C55 C54 1.398 . S
C55 C56 1.352 . S
C56 C55 1.352 . S
C56 C57 1.384 . S
C56 H78 0.930 . S
C57 C52 1.407 . S
C57 C56 1.384 . S
C57 H79 0.929 1_554 S
C58 O68 1.241 . S
C58 O69 1.273 . S
C59 O70 1.251 . S
C59 O71 1.268 . S
O60 Nd40 2.500 . S
O60 C42 1.258 . S
O61 Nd40 2.492 1_554 S
O61 C42 1.239 1_554 S
O62 Nd40 2.487 1_554 S
O62 C49 1.241 . S
O63 Nd40 2.682 1_554 S
O63 Nd41 2.414 . S
O63 C49 1.273 . S
O64 Nd40 2.410 . S
O64 C50 1.251 . S
O65 Nd41 2.424 1_556 S
O65 C50 1.268 . S
O66 Nd41 2.500 . S
O66 C51 1.258 . S
O67 Nd41 2.492 1_556 S
O67 C51 1.239 1_556 S
O68 Nd41 2.487 1_556 S
O68 C58 1.241 . S
O69 Nd40 2.414 . S
O69 Nd41 2.682 1_556 S
O69 C58 1.273 . S
O70 Nd41 2.410 . S
O70 C59 1.251 . S
O71 Nd40 2.424 1_554 S
O71 C59 1.268 . S
H72 C44 0.930 . S
H73 C45 0.929 . S
H74 C47 0.930 . S
H75 C48 0.929 1_554 S
H76 C53 0.930 . S
H77 C54 0.929 . S
H78 C56 0.930 . S
H79 C57 0.929 1_556 S
Nd80 C82 2.836 . S
Nd80 O100 2.500 1_554 S
Nd80 O101 2.492 . S
Nd80 O102 2.487 . S
Nd80 O103 2.682 . S
Nd80 O104 2.410 . S
Nd80 O109 2.414 1_554 S
Nd80 O111 2.424 . S
Nd81 C91 2.836 . S
Nd81 O103 2.414 1_556 S
Nd81 O105 2.424 . S
Nd81 O106 2.500 1_556 S
Nd81 O107 2.492 . S
Nd81 O108 2.487 . S
Nd81 O109 2.682 . S
Nd81 O110 2.410 . S
C82 Nd80 2.836 . S
C82 C83 1.498 . S
C82 O100 1.258 1_554 S
C82 O101 1.239 . S
C83 C82 1.498 . S
C83 C84 1.363 1_554 S
C83 C88 1.407 1_565 S
C84 C83 1.363 1_556 S
C84 C85 1.392 1_566 S
C84 H112 0.934 . S
C85 C84 1.392 1_544 S
C85 C86 1.398 . S
C85 H113 0.929 1_554 S
C86 C85 1.398 . S
C86 C87 1.352 . S
C87 C86 1.352 . S
C87 C88 1.384 . S
C87 H114 0.930 . S
C88 C83 1.407 1_545 S
C88 C87 1.384 . S
C88 H115 0.929 1_545 S
C89 O102 1.241 . S
C89 O103 1.273 . S
C90 O104 1.251 . S
C90 O105 1.268 1_554 S
C91 Nd81 2.836 . S
C91 C92 1.498 . S
C91 O106 1.258 1_556 S
C91 O107 1.239 . S
C92 C91 1.498 . S
C92 C93 1.361 1_556 S
C92 C97 1.407 . S
C93 C92 1.361 1_554 S
C93 C94 1.392 1_554 S
C93 H116 0.935 . S
C94 C93 1.392 1_556 S
C94 C95 1.398 . S
C94 H117 0.929 1_556 S
C95 C94 1.398 . S
C95 C96 1.352 . S
C96 C95 1.352 . S
C96 C97 1.384 . S
C96 H118 0.930 . S
C97 C92 1.407 . S
C97 C96 1.384 . S
C97 H119 0.929 . S
C98 O108 1.241 . S
C98 O109 1.273 . S
C99 O110 1.251 . S
C99 O111 1.268 1_556 S
O100 Nd80 2.500 1_556 S
O100 C82 1.258 1_556 S
O101 Nd80 2.492 . S
O101 C82 1.239 . S
O102 Nd80 2.487 . S
O102 C89 1.241 . S
O103 Nd80 2.682 . S
O103 Nd81 2.414 1_554 S
O103 C89 1.273 . S
O104 Nd80 2.410 . S
O104 C90 1.251 . S
O105 Nd81 2.424 . S
O105 C90 1.268 1_556 S
O106 Nd81 2.500 1_554 S
O106 C91 1.258 1_554 S
O107 Nd81 2.492 . S
O107 C91 1.239 . S
O108 Nd81 2.487 . S
O108 C98 1.241 . S
O109 Nd80 2.414 1_556 S
O109 Nd81 2.682 . S
O109 C98 1.273 . S
O110 Nd81 2.410 . S
O110 C99 1.251 . S
O111 Nd80 2.424 . S
O111 C99 1.268 1_554 S
H112 C84 0.934 . S
H113 C85 0.929 1_556 S
H114 C87 0.930 . S
H115 C88 0.929 1_565 S
H116 C93 0.935 . S
H117 C94 0.929 1_554 S
H118 C96 0.930 . S
H119 C97 0.929 . S
Nd120 C122 2.836 . S
Nd120 O140 2.500 . S
Nd120 O141 2.492 1_556 S
Nd120 O142 2.487 1_556 S
Nd120 O143 2.682 1_556 S
Nd120 O144 2.410 . S
Nd120 O149 2.414 . S
Nd120 O151 2.424 1_556 S
Nd121 C131 2.836 1_556 S
Nd121 O143 2.414 1_556 S
Nd121 O145 2.424 . S
Nd121 O146 2.500 1_556 S
Nd121 O147 2.492 . S
Nd121 O148 2.487 . S
Nd121 O149 2.682 . S
Nd121 O150 2.410 . S
C122 Nd120 2.836 . S
C122 C123 1.498 . S
C122 O140 1.258 . S
C122 O141 1.239 1_556 S
C123 C122 1.498 . S
C123 C124 1.366 . S
C123 C128 1.407 . S
C124 C123 1.366 . S
C124 C125 1.392 . S
C124 H152 0.930 . S
C125 C124 1.392 . S
C125 C126 1.398 . S
C125 H153 0.929 . S
C126 C125 1.398 . S
C126 C127 1.352 . S
C127 C126 1.352 . S
C127 C128 1.384 . S
C127 H154 0.930 1_556 S
C128 C123 1.407 . S
C128 C127 1.384 . S
C128 H155 0.929 1_556 S
C129 O142 1.241 . S
C129 O143 1.273 . S
C130 O144 1.251 . S
C130 O145 1.268 . S
C131 Nd121 2.836 1_554 S
C131 C132 1.498 . S
C131 O146 1.258 . S
C131 O147 1.239 1_554 S
C132 C131 1.498 . S
C132 C133 1.366 . S
C132 C137 1.407 1_554 S
C133 C132 1.366 . S
C133 C134 1.392 . S
C133 H156 0.930 . S
C134 C133 1.392 . S
C134 C135 1.398 . S
C134 H157 0.929 . S
C135 C134 1.398 . S
C135 C136 1.352 1_554 S
C136 C135 1.352 1_556 S
C136 C137 1.384 . S
C136 H158 0.930 . S
C137 C132 1.407 1_556 S
C137 C136 1.384 . S
C137 H159 0.929 . S
C138 O148 1.241 . S
C138 O149 1.273 . S
C139 O150 1.251 1_554 S
C139 O151 1.268 . S
O140 Nd120 2.500 . S
O140 C122 1.258 . S
O141 Nd120 2.492 1_554 S
O141 C122 1.239 1_554 S
O142 Nd120 2.487 1_554 S
O142 C129 1.241 . S
O143 Nd120 2.682 1_554 S
O143 Nd121 2.414 1_554 S
O143 C129 1.273 . S
O144 Nd120 2.410 . S
O144 C130 1.251 . S
O145 Nd121 2.424 . S
O145 C130 1.268 . S
O146 Nd121 2.500 1_554 S
O146 C131 1.258 . S
O147 Nd121 2.492 . S
O147 C131 1.239 1_556 S
O148 Nd121 2.487 . S
O148 C138 1.241 . S
O149 Nd120 2.414 . S
O149 Nd121 2.682 . S
O149 C138 1.273 . S
O150 Nd121 2.410 . S
O150 C139 1.251 1_556 S
O151 Nd120 2.424 1_554 S
O151 C139 1.268 . S
H152 C124 0.930 . S
H153 C125 0.929 . S
H154 C127 0.930 1_554 S
H155 C128 0.929 1_554 S
H156 C133 0.930 . S
H157 C134 0.929 . S
H158 C136 0.930 . S
H159 C137 0.929 . S
Nd160 C162 2.836 . S
Nd160 O180 2.500 . S
Nd160 O181 2.492 . S
Nd160 O182 2.487 1_554 S
Nd160 O183 2.682 1_554 S
Nd160 O184 2.410 . S
Nd160 O189 2.414 . S
Nd160 O191 2.424 . S
Nd161 C171 2.836 1_554 S
Nd161 O183 2.414 1_554 S
Nd161 O185 2.424 . S
Nd161 O186 2.500 1_554 S
Nd161 O187 2.492 . S
Nd161 O188 2.487 . S
Nd161 O189 2.682 . S
Nd161 O190 2.410 . S
C162 Nd160 2.836 . S
C162 C163 1.498 . S
C162 O180 1.258 . S
C162 O181 1.239 . S
C163 C162 1.498 . S
C163 C164 1.366 . S
C163 C168 1.407 . S
C164 C163 1.366 . S
C164 C165 1.392 . S
C164 H192 0.930 . S
C165 C164 1.392 . S
C165 C166 1.398 . S
C165 H193 0.929 . S
C166 C165 1.398 . S
C166 C167 1.352 . S
C167 C166 1.352 . S
C167 C168 1.384 . S
C167 H194 0.930 . S
C168 C163 1.407 . S
C168 C167 1.384 . S
C168 H195 0.929 . S
C169 O182 1.241 . S
C169 O183 1.273 . S
C170 O184 1.251 . S
C170 O185 1.268 . S
C171 Nd161 2.836 1_556 S
C171 C172 1.498 . S
C171 O186 1.258 . S
C171 O187 1.239 1_556 S
C172 C171 1.498 . S
C172 C173 1.366 . S
C172 C177 1.407 . S
C173 C172 1.366 . S
C173 C174 1.392 . S
C173 H196 0.930 . S
C174 C173 1.392 . S
C174 C175 1.398 . S
C174 H197 0.929 . S
C175 C174 1.398 . S
C175 C176 1.352 . S
C176 C175 1.352 . S
C176 C177 1.384 . S
C176 H198 0.930 . S
C177 C172 1.407 . S
C177 C176 1.384 . S
C177 H199 0.929 1_556 S
C178 O188 1.241 . S
C178 O189 1.273 . S
C179 O190 1.251 . S
C179 O191 1.268 . S
O180 Nd160 2.500 . S
O180 C162 1.258 . S
O181 Nd160 2.492 . S
O181 C162 1.239 . S
O182 Nd160 2.487 1_556 S
O182 C169 1.241 . S
O183 Nd160 2.682 1_556 S
O183 Nd161 2.414 1_556 S
O183 C169 1.273 . S
O184 Nd160 2.410 . S
O184 C170 1.251 . S
O185 Nd161 2.424 . S
O185 C170 1.268 . S
O186 Nd161 2.500 1_556 S
O186 C171 1.258 . S
O187 Nd161 2.492 . S
O187 C171 1.239 1_554 S
O188 Nd161 2.487 . S
O188 C178 1.241 . S
O189 Nd160 2.414 . S
O189 Nd161 2.682 . S
O189 C178 1.273 . S
O190 Nd161 2.410 . S
O190 C179 1.251 . S
O191 Nd160 2.424 . S
O191 C179 1.268 . S
H192 C164 0.930 . S
H193 C165 0.929 . S
H194 C167 0.930 . S
H195 C168 0.929 . S
H196 C173 0.930 . S
H197 C174 0.929 . S
H198 C176 0.930 . S
H199 C177 0.929 1_554 S
Nd200 C202 2.836 . S
Nd200 O220 2.500 . S
Nd200 O221 2.492 1_556 S
Nd200 O222 2.487 1_556 S
Nd200 O223 2.682 1_556 S
Nd200 O224 2.410 . S
Nd200 O229 2.414 . S
Nd200 O231 2.424 1_556 S
Nd201 C211 2.836 . S
Nd201 O223 2.414 . S
Nd201 O225 2.424 1_554 S
Nd201 O226 2.500 . S
Nd201 O227 2.492 1_554 S
Nd201 O228 2.487 1_554 S
Nd201 O229 2.682 1_554 S
Nd201 O230 2.410 . S
C202 Nd200 2.836 . S
C202 C203 1.498 . S
C202 O220 1.258 . S
C202 O221 1.239 1_556 S
C203 C202 1.498 . S
C203 C204 1.366 . S
C203 C208 1.407 . S
C204 C203 1.366 . S
C204 C205 1.392 . S
C204 H232 0.930 . S
C205 C204 1.392 . S
C205 C206 1.398 . S
C205 H233 0.929 . S
C206 C205 1.398 . S
C206 C207 1.352 . S
C207 C206 1.352 . S
C207 C208 1.384 . S
C207 H234 0.930 . S
C208 C203 1.407 . S
C208 C207 1.384 . S
C208 H235 0.929 1_556 S
C209 O222 1.241 . S
C209 O223 1.273 . S
C210 O224 1.251 . S
C210 O225 1.268 . S
C211 Nd201 2.836 . S
C211 C212 1.498 . S
C211 O226 1.258 . S
C211 O227 1.239 1_554 S
C212 C211 1.498 . S
C212 C213 1.366 . S
C212 C217 1.407 . S
C213 C212 1.366 . S
C213 C214 1.392 . S
C213 H236 0.930 . S
C214 C213 1.392 . S
C214 C215 1.398 . S
C214 H237 0.929 . S
C215 C214 1.398 . S
C215 C216 1.352 . S
C216 C215 1.352 . S
C216 C217 1.384 . S
C216 H238 0.930 . S
C217 C212 1.407 . S
C217 C216 1.384 . S
C217 H239 0.929 1_554 S
C218 O228 1.241 . S
C218 O229 1.273 . S
C219 O230 1.251 . S
C219 O231 1.268 . S
O220 Nd200 2.500 . S
O220 C202 1.258 . S
O221 Nd200 2.492 1_554 S
O221 C202 1.239 1_554 S
O222 Nd200 2.487 1_554 S
O222 C209 1.241 . S
O223 Nd200 2.682 1_554 S
O223 Nd201 2.414 . S
O223 C209 1.273 . S
O224 Nd200 2.410 . S
O224 C210 1.251 . S
O225 Nd201 2.424 1_556 S
O225 C210 1.268 . S
O226 Nd201 2.500 . S
O226 C211 1.258 . S
O227 Nd201 2.492 1_556 S
O227 C211 1.239 1_556 S
O228 Nd201 2.487 1_556 S
O228 C218 1.241 . S
O229 Nd200 2.414 . S
O229 Nd201 2.682 1_556 S
O229 C218 1.273 . S
O230 Nd201 2.410 . S
O230 C219 1.251 . S
O231 Nd200 2.424 1_554 S
O231 C219 1.268 . S
H232 C204 0.930 . S
H233 C205 0.929 . S
H234 C207 0.930 . S
H235 C208 0.929 1_554 S
H236 C213 0.930 . S
H237 C214 0.929 . S
H238 C216 0.930 . S
H239 C217 0.929 1_556 S
C240 C241 1.363 . S
C240 C246 1.379 . S
C240 N248 1.356 . S
C241 C240 1.363 . S
C241 C247 1.363 . S
C242 C243 1.363 . S
C242 C247 1.379 . S
C242 N249 1.356 . S
C243 C242 1.363 . S
C243 C246 1.363 . S
N244 C246 1.356 . S
N244 H256 0.984 . S
N244 H257 0.985 . S
N245 C247 1.356 . S
N245 H250 0.984 . S
N245 H251 0.985 . S
C246 C240 1.379 . S
C246 C243 1.363 . S
C246 N244 1.356 . S
C247 C241 1.363 . S
C247 C242 1.379 . S
C247 N245 1.356 . S
N248 C240 1.356 . S
N248 H254 0.984 . S
N248 H255 0.984 . S
N249 C242 1.356 . S
N249 H252 0.984 . S
N249 H253 0.985 . S
H250 N245 0.984 . S
H251 N245 0.985 . S
H252 N249 0.984 . S
H253 N249 0.985 . S
H254 N248 0.984 . S
H255 N248 0.984 . S
H256 N244 0.984 . S
H257 N244 0.985 . S
C258 C259 1.363 1_655 S
C258 C264 1.379 . S
C258 N266 1.356 . S
C259 C258 1.363 1_455 S
C259 C265 1.363 . S
C260 C261 1.363 1_455 S
C260 C265 1.379 . S
C260 N267 1.356 . S
C261 C260 1.363 1_655 S
C261 C264 1.363 . S
N262 C264 1.356 . S
N262 H274 0.984 . S
N262 H275 0.985 . S
N263 C265 1.356 . S
N263 H268 0.984 . S
N263 H269 0.985 . S
C264 C258 1.379 . S
C264 C261 1.363 . S
C264 N262 1.356 . S
C265 C259 1.363 . S
C265 C260 1.379 . S
C265 N263 1.356 . S
N266 C258 1.356 . S
N266 H272 0.984 . S
N266 H273 0.984 1_655 S
N267 C260 1.356 . S
N267 H270 0.984 . S
N267 H271 0.985 . S
H268 N263 0.984 . S
H269 N263 0.985 . S
H270 N267 0.984 . S
H271 N267 0.985 . S
H272 N266 0.984 . S
H273 N266 0.984 1_455 S
H274 N262 0.984 . S
H275 N262 0.985 . S
C276 C277 1.363 . S
C276 C282 1.379 . S
C276 N284 1.356 . S
C277 C276 1.363 . S
C277 C283 1.363 . S
C278 C279 1.363 . S
C278 C283 1.379 . S
C278 N285 1.356 . S
C279 C278 1.363 . S
C279 C282 1.363 . S
N280 C282 1.356 . S
N280 H292 0.984 . S
N280 H293 0.985 . S
N281 C283 1.356 . S
N281 H286 0.984 . S
N281 H287 0.985 . S
C282 C276 1.379 . S
C282 C279 1.363 . S
C282 N280 1.356 . S
C283 C277 1.363 . S
C283 C278 1.379 . S
C283 N281 1.356 . S
N284 C276 1.356 . S
N284 H290 0.984 . S
N284 H291 0.984 . S
N285 C278 1.356 . S
N285 H288 0.984 . S
N285 H289 0.985 . S
H286 N281 0.984 . S
H287 N281 0.985 . S
H288 N285 0.984 . S
H289 N285 0.985 . S
H290 N284 0.984 . S
H291 N284 0.984 . S
H292 N280 0.984 . S
H293 N280 0.985 . S
C294 C295 1.363 . S
C294 C300 1.379 . S
C294 N302 1.356 . S
C295 C294 1.363 . S
C295 C301 1.363 . S
C296 C297 1.363 . S
C296 C301 1.379 . S
C296 N303 1.356 . S
C297 C296 1.363 . S
C297 C300 1.363 . S
N298 C300 1.356 . S
N298 H310 0.984 . S
N298 H311 0.985 . S
N299 C301 1.356 . S
N299 H304 0.984 . S
N299 H305 0.985 . S
C300 C294 1.379 . S
C300 C297 1.363 . S
C300 N298 1.356 . S
C301 C295 1.363 . S
C301 C296 1.379 . S
C301 N299 1.356 . S
N302 C294 1.356 . S
N302 H308 0.984 . S
N302 H309 0.984 . S
N303 C296 1.356 . S
N303 H306 0.984 . S
N303 H307 0.985 . S
H304 N299 0.984 . S
H305 N299 0.985 . S
H306 N303 0.984 . S
H307 N303 0.985 . S
H308 N302 0.984 . S
H309 N302 0.984 . S
H310 N298 0.984 . S
H311 N298 0.985 . S
C312 C313 1.363 . S
C312 C318 1.379 . S
C312 N320 1.356 . S
C313 C312 1.363 . S
C313 C319 1.363 . S
C314 C315 1.363 1_655 S
C314 C319 1.379 1_655 S
C314 N321 1.356 . S
C315 C314 1.363 1_455 S
C315 C318 1.363 . S
N316 C318 1.356 . S
N316 H328 0.984 . S
N316 H329 0.985 . S
N317 C319 1.356 . S
N317 H322 0.984 . S
N317 H323 0.985 . S
C318 C312 1.379 . S
C318 C315 1.363 . S
C318 N316 1.356 . S
C319 C313 1.363 . S
C319 C314 1.379 1_455 S
C319 N317 1.356 . S
N320 C312 1.356 . S
N320 H326 0.984 . S
N320 H327 0.984 . S
N321 C314 1.356 . S
N321 H324 0.984 . S
N321 H325 0.985 . S
H322 N317 0.984 . S
H323 N317 0.985 . S
H324 N321 0.984 . S
H325 N321 0.985 . S
H326 N320 0.984 . S
H327 N320 0.984 . S
H328 N316 0.984 . S
H329 N316 0.985 . S
C330 C331 1.363 . S
C330 C336 1.379 . S
C330 N338 1.356 1_545 S
C331 C330 1.363 . S
C331 C337 1.363 . S
C332 C333 1.363 . S
C332 C337 1.379 . S
C332 N339 1.356 . S
C333 C332 1.363 . S
C333 C336 1.363 . S
N334 C336 1.356 . S
N334 H346 0.984 . S
N334 H347 0.985 . S
N335 C337 1.356 . S
N335 H340 0.984 . S
N335 H341 0.985 . S
C336 C330 1.379 . S
C336 C333 1.363 . S
C336 N334 1.356 . S
C337 C331 1.363 . S
C337 C332 1.379 . S
C337 N335 1.356 . S
N338 C330 1.356 1_565 S
N338 H344 0.984 . S
N338 H345 0.984 . S
N339 C332 1.356 . S
N339 H342 0.984 . S
N339 H343 0.985 . S
H340 N335 0.984 . S
H341 N335 0.985 . S
H342 N339 0.984 . S
H343 N339 0.985 . S
H344 N338 0.984 . S
H345 N338 0.984 . S
H346 N334 0.984 . S
H347 N334 0.985 . S
C348 C349 1.363 . S
C348 C354 1.379 . S
C348 N356 1.356 . S
C349 C348 1.363 . S
C349 C355 1.363 . S
C350 C351 1.363 . S
C350 C355 1.379 . S
C350 N357 1.356 1_556 S
C351 C350 1.363 . S
C351 C354 1.363 . S
N352 C354 1.356 . S
N352 H364 0.984 . S
N352 H365 0.985 . S
N353 C355 1.356 . S
N353 H358 0.984 . S
N353 H359 0.985 1_556 S
C354 C348 1.379 . S
C354 C351 1.363 . S
C354 N352 1.356 . S
C355 C349 1.363 . S
C355 C350 1.379 . S
C355 N353 1.356 . S
N356 C348 1.356 . S
N356 H362 0.984 . S
N356 H363 0.984 . S
N357 C350 1.356 1_554 S
N357 H360 0.984 . S
N357 H361 0.985 . S
H358 N353 0.984 . S
H359 N353 0.985 1_554 S
H360 N357 0.984 . S
H361 N357 0.985 . S
H362 N356 0.984 . S
H363 N356 0.984 . S
H364 N352 0.984 . S
H365 N352 0.985 . S
C366 C367 1.363 . S
C366 C372 1.379 . S
C366 N374 1.356 . S
C367 C366 1.363 . S
C367 C373 1.363 . S
C368 C369 1.363 . S
C368 C373 1.379 . S
C368 N375 1.356 . S
C369 C368 1.363 . S
C369 C372 1.363 . S
N370 C372 1.356 . S
N370 H382 0.984 . S
N370 H383 0.985 . S
N371 C373 1.356 . S
N371 H376 0.984 1_554 S
N371 H377 0.985 1_554 S
C372 C366 1.379 . S
C372 C369 1.363 . S
C372 N370 1.356 . S
C373 C367 1.363 . S
C373 C368 1.379 . S
C373 N371 1.356 . S
N374 C366 1.356 . S
N374 H380 0.984 . S
N374 H381 0.984 . S
N375 C368 1.356 . S
N375 H378 0.984 . S
N375 H379 0.985 . S
H376 N371 0.984 1_556 S
H377 N371 0.985 1_556 S
H378 N375 0.984 . S
H379 N375 0.985 . S
H380 N374 0.984 . S
H381 N374 0.984 . S
H382 N370 0.984 . S
H383 N370 0.985 . S
C384 C385 1.363 . S
C384 C390 1.379 . S
C384 N392 1.356 1_556 S
C385 C384 1.363 . S
C385 C391 1.363 . S
C386 C387 1.363 . S
C386 C391 1.379 . S
C386 N393 1.356 . S
C387 C386 1.363 . S
C387 C390 1.363 . S
N388 C390 1.356 . S
N388 H400 0.984 1_556 S
N388 H401 0.985 . S
N389 C391 1.356 . S
N389 H394 0.984 . S
N389 H395 0.985 . S
C390 C384 1.379 . S
C390 C387 1.363 . S
C390 N388 1.356 . S
C391 C385 1.363 . S
C391 C386 1.379 . S
C391 N389 1.356 . S
N392 C384 1.356 1_554 S
N392 H398 0.984 . S
N392 H399 0.984 . S
N393 C386 1.356 . S
N393 H396 0.984 . S
N393 H397 0.985 . S
H394 N389 0.984 . S
H395 N389 0.985 . S
H396 N393 0.984 . S
H397 N393 0.985 . S
H398 N392 0.984 . S
H399 N392 0.984 . S
H400 N388 0.984 1_554 S
H401 N388 0.985 . S
C402 C403 1.363 . S
C402 C408 1.379 . S
C402 N410 1.356 . S
C403 C402 1.363 . S
C403 C409 1.363 . S
C404 C405 1.363 . S
C404 C409 1.379 . S
C404 N411 1.356 1_554 S
C405 C404 1.363 . S
C405 C408 1.363 . S
N406 C408 1.356 . S
N406 H418 0.984 . S
N406 H419 0.985 . S
N407 C409 1.356 1_556 S
N407 H412 0.984 . S
N407 H413 0.985 . S
C408 C402 1.379 . S
C408 C405 1.363 . S
C408 N406 1.356 . S
C409 C403 1.363 . S
C409 C404 1.379 . S
C409 N407 1.356 1_554 S
N410 C402 1.356 . S
N410 H416 0.984 . S
N410 H417 0.984 . S
N411 C404 1.356 1_556 S
N411 H414 0.984 . S
N411 H415 0.985 . S
H412 N407 0.984 . S
H413 N407 0.985 . S
H414 N411 0.984 . S
H415 N411 0.985 . S
H416 N410 0.984 . S
H417 N410 0.984 . S
H418 N406 0.984 . S
H419 N406 0.985 . S
C420 C421 1.363 . S
C420 C426 1.379 . S
C420 N428 1.356 . S
C421 C420 1.363 . S
C421 C427 1.363 1_556 S
C422 C423 1.363 1_554 S
C422 C427 1.379 . S
C422 N429 1.356 . S
C423 C422 1.363 1_556 S
C423 C426 1.363 . S
N424 C426 1.356 . S
N424 H436 0.984 . S
N424 H437 0.985 . S
N425 C427 1.356 . S
N425 H430 0.984 . S
N425 H431 0.985 . S
C426 C420 1.379 . S
C426 C423 1.363 . S
C426 N424 1.356 . S
C427 C421 1.363 1_554 S
C427 C422 1.379 . S
C427 N425 1.356 . S
N428 C420 1.356 . S
N428 H434 0.984 . S
N428 H435 0.984 . S
N429 C422 1.356 . S
N429 H432 0.984 . S
N429 H433 0.985 . S
H430 N425 0.984 . S
H431 N425 0.985 . S
H432 N429 0.984 . S
H433 N429 0.985 . S
H434 N428 0.984 . S
H435 N428 0.984 . S
H436 N424 0.984 . S
H437 N424 0.985 . S
C438 C439 1.363 . S
C438 C444 1.379 . S
C438 N446 1.356 . S
C439 C438 1.363 . S
C439 C445 1.363 . S
C440 C441 1.363 . S
C440 C445 1.379 . S
C440 N447 1.357 . S
C441 C440 1.363 . S
C441 C444 1.363 . S
N442 C444 1.356 . S
N442 H454 0.984 . S
N442 H455 0.985 . S
N443 C445 1.356 1_556 S
N443 H448 0.984 . S
N443 H449 0.985 . S
C444 C438 1.379 . S
C444 C441 1.363 . S
C444 N442 1.356 . S
C445 C439 1.363 . S
C445 C440 1.379 . S
C445 N443 1.356 1_554 S
N446 C438 1.356 . S
N446 H452 0.984 . S
N446 H453 0.984 . S
N447 C440 1.357 . S
N447 H450 0.986 . S
N447 H451 0.982 1_554 S
H448 N443 0.984 . S
H449 N443 0.985 . S
H450 N447 0.986 . S
H451 N447 0.982 1_556 S
H452 N446 0.984 . S
H453 N446 0.984 . S
H454 N442 0.984 . S
H455 N442 0.985 . S
C456 C457 1.363 . S
C456 C462 1.379 . S
C456 N464 1.356 . S
C457 C456 1.363 . S
C457 C463 1.363 . S
C458 C459 1.363 . S
C458 C463 1.379 . S
C458 N465 1.356 . S
C459 C458 1.363 . S
C459 C462 1.363 . S
N460 C462 1.356 . S
N460 H472 0.984 . S
N460 H473 0.985 . S
N461 C463 1.356 . S
N461 H466 0.984 . S
N461 H467 0.985 . S
C462 C456 1.379 . S
C462 C459 1.363 . S
C462 N460 1.356 . S
C463 C457 1.363 . S
C463 C458 1.379 . S
C463 N461 1.356 . S
N464 C456 1.356 . S
N464 H470 0.984 . S
N464 H471 0.984 . S
N465 C458 1.356 . S
N465 H468 0.984 . S
N465 H469 0.985 . S
H466 N461 0.984 . S
H467 N461 0.985 . S
H468 N465 0.984 . S
H469 N465 0.985 . S
H470 N464 0.984 . S
H471 N464 0.984 . S
H472 N460 0.984 . S
H473 N460 0.985 . S
C474 C475 1.363 . S
C474 C480 1.379 . S
C474 N482 1.356 . S
C475 C474 1.363 . S
C475 C481 1.363 . S
C476 C477 1.363 . S
C476 C481 1.379 . S
C476 N483 1.356 . S
C477 C476 1.363 . S
C477 C480 1.363 . S
N478 C480 1.356 . S
N478 H490 0.984 . S
N478 H491 0.985 . S
N479 C481 1.356 . S
N479 H484 0.984 . S
N479 H485 0.985 . S
C480 C474 1.379 . S
C480 C477 1.363 . S
C480 N478 1.356 . S
C481 C475 1.363 . S
C481 C476 1.379 . S
C481 N479 1.356 . S
N482 C474 1.356 . S
N482 H488 0.984 . S
N482 H489 0.984 . S
N483 C476 1.356 . S
N483 H486 0.984 . S
N483 H487 0.985 . S
H484 N479 0.984 . S
H485 N479 0.985 . S
H486 N483 0.984 . S
H487 N483 0.985 . S
H488 N482 0.984 . S
H489 N482 0.984 . S
H490 N478 0.984 . S
H491 N478 0.985 . S
C492 C493 1.363 . S
C492 C498 1.379 . S
C492 N500 1.356 . S
C493 C492 1.363 . S
C493 C499 1.363 . S
C494 C495 1.363 . S
C494 C499 1.379 . S
C494 N501 1.356 . S
C495 C494 1.363 . S
C495 C498 1.363 . S
N496 C498 1.356 . S
N496 H508 0.984 . S
N496 H509 0.985 . S
N497 C499 1.356 . S
N497 H502 0.984 . S
N497 H503 0.985 . S
C498 C492 1.379 . S
C498 C495 1.363 . S
C498 N496 1.356 . S
C499 C493 1.363 . S
C499 C494 1.379 . S
C499 N497 1.356 . S
N500 C492 1.356 . S
N500 H506 0.984 . S
N500 H507 0.984 . S
N501 C494 1.356 . S
N501 H504 0.984 . S
N501 H505 0.985 . S
H502 N497 0.984 . S
H503 N497 0.985 . S
H504 N501 0.984 . S
H505 N501 0.985 . S
H506 N500 0.984 . S
H507 N500 0.984 . S
H508 N496 0.984 . S
H509 N496 0.985 . S
C510 C511 1.363 . S
C510 C516 1.379 . S
C510 N518 1.356 . S
C511 C510 1.363 . S
C511 C517 1.363 . S
C512 C513 1.363 . S
C512 C517 1.379 . S
C512 N519 1.356 . S
C513 C512 1.363 . S
C513 C516 1.363 . S
N514 C516 1.356 . S
N514 H526 0.984 . S
N514 H527 0.985 . S
N515 C517 1.356 . S
N515 H520 0.984 . S
N515 H521 0.985 . S
C516 C510 1.379 . S
C516 C513 1.363 . S
C516 N514 1.356 . S
C517 C511 1.363 . S
C517 C512 1.379 . S
C517 N515 1.356 . S
N518 C510 1.356 . S
N518 H524 0.984 . S
N518 H525 0.984 . S
N519 C512 1.356 . S
N519 H522 0.984 . S
N519 H523 0.985 . S
H520 N515 0.984 . S
H521 N515 0.985 . S
H522 N519 0.984 . S
H523 N519 0.985 . S
H524 N518 0.984 . S
H525 N518 0.984 . S
H526 N514 0.984 . S
H527 N514 0.985 . S
C528 C529 1.363 . S
C528 C534 1.379 . S
C528 N536 1.356 . S
C529 C528 1.363 . S
C529 C535 1.363 . S
C530 C531 1.363 . S
C530 C535 1.379 . S
C530 N537 1.356 . S
C531 C530 1.363 . S
C531 C534 1.363 . S
N532 C534 1.356 . S
N532 H544 0.984 . S
N532 H545 0.985 . S
N533 C535 1.356 . S
N533 H538 0.984 . S
N533 H539 0.985 . S
C534 C528 1.379 . S
C534 C531 1.363 . S
C534 N532 1.356 . S
C535 C529 1.363 . S
C535 C530 1.379 . S
C535 N533 1.356 . S
N536 C528 1.356 . S
N536 H542 0.984 . S
N536 H543 0.984 . S
N537 C530 1.356 . S
N537 H540 0.984 . S
N537 H541 0.985 . S
H538 N533 0.984 . S
H539 N533 0.985 . S
H540 N537 0.984 . S
H541 N537 0.985 . S
H542 N536 0.984 . S
H543 N536 0.984 . S
H544 N532 0.984 . S
H545 N532 0.985 . S
C546 C547 1.363 . S
C546 C552 1.379 . S
C546 N554 1.356 . S
C547 C546 1.363 . S
C547 C553 1.363 . S
C548 C549 1.363 . S
C548 C553 1.379 . S
C548 N555 1.356 . S
C549 C548 1.363 . S
C549 C552 1.363 . S
N550 C552 1.356 . S
N550 H562 0.984 . S
N550 H563 0.985 . S
N551 C553 1.356 . S
N551 H556 0.984 . S
N551 H557 0.985 . S
C552 C546 1.379 . S
C552 C549 1.363 . S
C552 N550 1.356 . S
C553 C547 1.363 . S
C553 C548 1.379 . S
C553 N551 1.356 . S
N554 C546 1.356 . S
N554 H560 0.984 . S
N554 H561 0.984 . S
N555 C548 1.356 . S
N555 H558 0.984 . S
N555 H559 0.985 . S
H556 N551 0.984 . S
H557 N551 0.985 . S
H558 N555 0.984 . S
H559 N555 0.985 . S
H560 N554 0.984 . S
H561 N554 0.984 . S
H562 N550 0.984 . S
H563 N550 0.985 . S
C241 C210 3.173 . S
C243 C10 3.025 . S
C259 C6 2.090 . S
C261 C46 2.376 . S
C277 C50 3.781 . S
C279 C86 3.362 . S
C295 C126 3.071 . S
C297 C90 3.356 . S
C313 C170 4.617 . S
C315 C130 4.486 1_455 S
C331 C166 2.633 1_545 S
C333 C206 2.495 . S
C349 C175 2.200 . S
C351 C19 2.307 . S
C367 C219 1.278 . S
C369 C55 1.209 . S
C385 C95 1.137 . S
C387 C15 1.133 . S
C403 C135 2.139 . S
C405 C59 2.052 . S
C421 C179 3.895 1_556 S
C423 C99 4.013 . S
C439 C139 3.150 . S
C441 C215 3.066 . S
C457 C9 0.944 . S
C459 C18 0.944 . S
C475 C58 0.805 . S
C477 C49 0.805 . S
C493 C98 0.970 . S
C495 C89 0.970 . S
C511 C138 0.939 . S
C513 C129 0.939 . S
C529 C178 0.793 . S
C531 C169 0.793 . S
C547 C218 0.863 . S
C549 C209 0.863 . S
