# Generated by pormake.
# Topology yff, (5)-cn, num edge types: 1
# Building blocks:
#     Node 0, Type 0, BuildingBlock: XOMCOT_clean_sbu_1, # of connection points: 5
#     Node 1, Type 0, BuildingBlock: XOMCOT_clean_sbu_1, # of connection points: 5
#     Node 2, Type 0, BuildingBlock: XOMCOT_clean_sbu_1, # of connection points: 5
#     Node 3, Type 0, BuildingBlock: XOMCOT_clean_sbu_1, # of connection points: 5
#     Node 4, Type 0, BuildingBlock: XOMCOT_clean_sbu_1, # of connection points: 5
#     Node 5, Type 0, BuildingBlock: XOMCOT_clean_sbu_1, # of connection points: 5
#     Node 6, Type 0, BuildingBlock: XOMCOT_clean_sbu_1, # of connection points: 5
#     Node 7, Type 0, BuildingBlock: XOMCOT_clean_sbu_1, # of connection points: 5
#     Node 8, Type 0, BuildingBlock: XOMCOT_clean_sbu_1, # of connection points: 5
#     Node 9, Type 0, BuildingBlock: XOMCOT_clean_sbu_1, # of connection points: 5
#     Node 10, Type 0, BuildingBlock: XOMCOT_clean_sbu_1, # of connection points: 5
#     Node 11, Type 0, BuildingBlock: XOMCOT_clean_sbu_1, # of connection points: 5
#     Node 12, Type 0, BuildingBlock: XOMCOT_clean_sbu_1, # of connection points: 5
#     Node 13, Type 0, BuildingBlock: XOMCOT_clean_sbu_1, # of connection points: 5
#     Node 14, Type 0, BuildingBlock: XOMCOT_clean_sbu_1, # of connection points: 5
#     Node 15, Type 0, BuildingBlock: XOMCOT_clean_sbu_1, # of connection points: 5
#     Edge 16, Type (0, 0), BuildingBlock: ZUJKAS_clean_linker_0, # of connection points: 2
#     Edge 17, Type (0, 0), BuildingBlock: ZUJKAS_clean_linker_0, # of connection points: 2
#     Edge 18, Type (0, 0), BuildingBlock: ZUJKAS_clean_linker_0, # of connection points: 2
#     Edge 19, Type (0, 0), BuildingBlock: ZUJKAS_clean_linker_0, # of connection points: 2
#     Edge 20, Type (0, 0), BuildingBlock: ZUJKAS_clean_linker_0, # of connection points: 2
#     Edge 21, Type (0, 0), BuildingBlock: ZUJKAS_clean_linker_0, # of connection points: 2
#     Edge 22, Type (0, 0), BuildingBlock: ZUJKAS_clean_linker_0, # of connection points: 2
#     Edge 23, Type (0, 0), BuildingBlock: ZUJKAS_clean_linker_0, # of connection points: 2
#     Edge 24, Type (0, 0), BuildingBlock: ZUJKAS_clean_linker_0, # of connection points: 2
#     Edge 25, Type (0, 0), BuildingBlock: ZUJKAS_clean_linker_0, # of connection points: 2
#     Edge 26, Type (0, 0), BuildingBlock: ZUJKAS_clean_linker_0, # of connection points: 2
#     Edge 27, Type (0, 0), BuildingBlock: ZUJKAS_clean_linker_0, # of connection points: 2
#     Edge 28, Type (0, 0), BuildingBlock: ZUJKAS_clean_linker_0, # of connection points: 2
#     Edge 29, Type (0, 0), BuildingBlock: ZUJKAS_clean_linker_0, # of connection points: 2
#     Edge 30, Type (0, 0), BuildingBlock: ZUJKAS_clean_linker_0, # of connection points: 2
#     Edge 31, Type (0, 0), BuildingBlock: ZUJKAS_clean_linker_0, # of connection points: 2
#     Edge 32, Type (0, 0), BuildingBlock: ZUJKAS_clean_linker_0, # of connection points: 2
#     Edge 33, Type (0, 0), BuildingBlock: ZUJKAS_clean_linker_0, # of connection points: 2
#     Edge 34, Type (0, 0), BuildingBlock: ZUJKAS_clean_linker_0, # of connection points: 2
#     Edge 35, Type (0, 0), BuildingBlock: ZUJKAS_clean_linker_0, # of connection points: 2
#     Edge 36, Type (0, 0), BuildingBlock: ZUJKAS_clean_linker_0, # of connection points: 2
#     Edge 37, Type (0, 0), BuildingBlock: ZUJKAS_clean_linker_0, # of connection points: 2
#     Edge 38, Type (0, 0), BuildingBlock: ZUJKAS_clean_linker_0, # of connection points: 2
#     Edge 39, Type (0, 0), BuildingBlock: ZUJKAS_clean_linker_0, # of connection points: 2
#     Edge 40, Type (0, 0), BuildingBlock: ZUJKAS_clean_linker_0, # of connection points: 2
#     Edge 41, Type (0, 0), BuildingBlock: ZUJKAS_clean_linker_0, # of connection points: 2
#     Edge 42, Type (0, 0), BuildingBlock: ZUJKAS_clean_linker_0, # of connection points: 2
#     Edge 43, Type (0, 0), BuildingBlock: ZUJKAS_clean_linker_0, # of connection points: 2
#     Edge 44, Type (0, 0), BuildingBlock: ZUJKAS_clean_linker_0, # of connection points: 2
#     Edge 45, Type (0, 0), BuildingBlock: ZUJKAS_clean_linker_0, # of connection points: 2
#     Edge 46, Type (0, 0), BuildingBlock: ZUJKAS_clean_linker_0, # of connection points: 2
#     Edge 47, Type (0, 0), BuildingBlock: ZUJKAS_clean_linker_0, # of connection points: 2
#     Edge 48, Type (0, 0), BuildingBlock: ZUJKAS_clean_linker_0, # of connection points: 2
#     Edge 49, Type (0, 0), BuildingBlock: ZUJKAS_clean_linker_0, # of connection points: 2
#     Edge 50, Type (0, 0), BuildingBlock: ZUJKAS_clean_linker_0, # of connection points: 2
#     Edge 51, Type (0, 0), BuildingBlock: ZUJKAS_clean_linker_0, # of connection points: 2
#     Edge 52, Type (0, 0), BuildingBlock: ZUJKAS_clean_linker_0, # of connection points: 2
#     Edge 53, Type (0, 0), BuildingBlock: ZUJKAS_clean_linker_0, # of connection points: 2
#     Edge 54, Type (0, 0), BuildingBlock: ZUJKAS_clean_linker_0, # of connection points: 2
#     Edge 55, Type (0, 0), BuildingBlock: ZUJKAS_clean_linker_0, # of connection points: 2
# Relax obj value: 0.474
# Max RMSD: 0.307
# Mean RMSD: 0.307
data_MOF--net-yff--node1-XOMCOT_clean_sbu_1--edge1-ZUJKAS_clean_linker_0
_symmetry_space_group_name_H-M    P1
_symmetry_Int_Tables_number       1
_symmetry_cell_setting            triclinic
loop_
_symmetry_equiv_pos_as_xyz
'x, y, z'
_cell_length_a     75.318889
_cell_length_b     75.155745
_cell_length_c     37.663676
_cell_angle_alpha  90.103994
_cell_angle_beta   89.997904
_cell_angle_gamma 90.003242
loop_
_atom_site_label
_atom_site_type_symbol
_atom_site_fract_x
_atom_site_fract_y
_atom_site_fract_z
_atom_type_partial_charge
C0 C 0.10674 0.04849 0.40251 0.0
C1 C 0.10622 0.03329 0.38221 0.0
N2 N 0.09182 0.03402 0.36095 0.0
N3 N 0.09286 0.05891 0.39391 0.0
C4 C 0.08397 0.04976 0.36863 0.0
H5 H 0.11622 0.05147 0.42327 0.0
Co6 Co 0.08612 0.07937 0.41822 0.0
C7 C 0.07942 0.10394 0.35736 0.0
O8 O 0.08965 0.11627 0.37138 0.0
N9 N 0.07884 0.09917 0.44506 0.0
C10 C 0.06335 0.12119 0.46976 0.0
C11 C 0.06807 0.11313 0.43826 0.0
C12 C 0.07994 0.0988 0.48088 0.0
N13 N 0.07075 0.11205 0.4967 0.0
O14 O 0.06377 0.06898 0.42707 0.0
H15 H 0.06248 0.11643 0.41277 0.0
H16 H 0.08616 0.08799 0.49514 0.0
O17 O 0.07684 0.08934 0.37396 0.0
C18 C 0.06326 0.05798 0.45261 0.0
O19 O 0.07787 0.05485 0.47062 0.0
N20 N 0.10893 0.08908 0.41042 0.0
C21 C 0.14509 0.09645 0.40276 0.0
C22 C 0.13454 0.09268 0.37304 0.0
C23 C 0.1166 0.08872 0.37749 0.0
C24 C 0.11895 0.09309 0.43951 0.0
C25 C 0.13698 0.09701 0.43625 0.0
H26 H 0.10913 0.08436 0.35459 0.0
H27 H 0.11338 0.09212 0.46576 0.0
H28 H 0.07165 0.05434 0.35711 0.0
H29 H 0.11528 0.02218 0.38439 0.0
H30 H 0.05432 0.13231 0.4725 0.0
H31 H 0.14024 0.09202 0.34667 0.0
H32 H 0.14469 0.09927 0.4601 0.0
C33 C 0.48796 0.0913 0.93698 0.0
C34 C 0.50021 0.081 0.91952 0.0
N35 N 0.49186 0.0724 0.89292 0.0
N36 N 0.472 0.08931 0.92133 0.0
C37 C 0.47476 0.07773 0.89444 0.0
H38 H 0.49037 0.09918 0.96054 0.0
Co39 Co 0.4512 0.09801 0.94066 0.0
C40 C 0.42583 0.09466 0.88225 0.0
O41 O 0.41449 0.08712 0.90405 0.0
N42 N 0.43073 0.10664 0.96209 0.0
C43 C 0.41001 0.1246 0.98423 0.0
C44 C 0.42047 0.12093 0.95491 0.0
C45 C 0.42617 0.1018 0.99522 0.0
N46 N 0.41367 0.11244 0.00943 0.0
O47 O 0.44273 0.07436 0.94385 0.0
H48 H 0.4216 0.129 0.93127 0.0
H49 H 0.43318 0.09177 0.01015 0.0
O50 O 0.44084 0.09995 0.89383 0.0
C51 C 0.44929 0.06502 0.96864 0.0
O52 O 0.45942 0.07282 0.99245 0.0
N53 N 0.46037 0.12087 0.93834 0.0
C54 C 0.47962 0.15238 0.94041 0.0
C55 C 0.47457 0.14486 0.90783 0.0
C56 C 0.46504 0.12897 0.90733 0.0
C57 C 0.46486 0.1281 0.97026 0.0
C58 C 0.47446 0.14392 0.97193 0.0
H59 H 0.46214 0.12289 0.88201 0.0
H60 H 0.46157 0.12114 0.9945 0.0
H61 H 0.46427 0.07253 0.87773 0.0
H62 H 0.51411 0.07968 0.92628 0.0
H63 H 0.4012 0.13587 0.98748 0.0
H64 H 0.47811 0.15107 0.88288 0.0
H65 H 0.47829 0.14914 0.99763 0.0
C66 C 0.3892 0.46132 0.43372 0.0
C67 C 0.39479 0.47548 0.41364 0.0
N68 N 0.40356 0.46909 0.38517 0.0
N69 N 0.39436 0.44607 0.41795 0.0
C70 C 0.40313 0.45119 0.38839 0.0
H71 H 0.38201 0.46202 0.45853 0.0
Co72 Co 0.39079 0.424 0.43844 0.0
C73 C 0.3857 0.40034 0.37637 0.0
O74 O 0.37149 0.39356 0.39144 0.0
N75 N 0.38783 0.40208 0.46172 0.0
C76 C 0.39451 0.37541 0.48392 0.0
C77 C 0.39402 0.38566 0.45364 0.0
C78 C 0.38509 0.40145 0.49713 0.0
N79 N 0.38916 0.38552 0.51139 0.0
O80 O 0.4154 0.42285 0.44825 0.0
H81 H 0.40001 0.3819 0.42869 0.0
H82 H 0.38216 0.41308 0.5129 0.0
O83 O 0.39469 0.41227 0.39265 0.0
C84 C 0.41939 0.43033 0.47749 0.0
O85 O 0.40648 0.43615 0.49789 0.0
N86 N 0.36625 0.42659 0.42982 0.0
C87 C 0.33365 0.44373 0.4226 0.0
C88 C 0.34388 0.43976 0.39265 0.0
C89 C 0.36028 0.43145 0.39687 0.0
C90 C 0.35578 0.4293 0.45888 0.0
C91 C 0.33938 0.43773 0.45583 0.0
H92 H 0.3689 0.43087 0.37402 0.0
H93 H 0.36077 0.4268 0.48509 0.0
H94 H 0.40952 0.44205 0.37022 0.0
H95 H 0.39255 0.4894 0.4195 0.0
H96 H 0.40039 0.36231 0.48616 0.0
H97 H 0.34011 0.4446 0.36664 0.0
H98 H 0.33183 0.44068 0.47962 0.0
C99 C 0.06873 0.38356 0.8679 0.0
C100 C 0.05513 0.3818 0.84379 0.0
N101 N 0.04559 0.39697 0.84399 0.0
N102 N 0.0677 0.3997 0.88335 0.0
C103 C 0.05357 0.40765 0.86806 0.0
H104 H 0.07851 0.37356 0.87445 0.0
Co105 Co 0.08241 0.40717 0.91988 0.0
C106 C 0.10593 0.41425 0.86684 0.0
O107 O 0.10969 0.39745 0.8729 0.0
N108 N 0.09739 0.41431 0.95665 0.0
C109 C 0.12129 0.42084 0.98861 0.0
C110 C 0.11526 0.41518 0.956 0.0
C111 C 0.09286 0.41924 0.98997 0.0
N112 N 0.10716 0.42338 0.00998 0.0
O113 O 0.06629 0.42647 0.93175 0.0
H114 H 0.12345 0.41178 0.93343 0.0
H115 H 0.07927 0.41994 0.99921 0.0
O116 O 0.09466 0.42198 0.88677 0.0
C117 C 0.06931 0.44314 0.93401 0.0
O118 O 0.0853 0.4493 0.92748 0.0
N119 N 0.07066 0.39158 0.95028 0.0
C120 C 0.05279 0.36114 0.97209 0.0
C121 C 0.07137 0.36119 0.96919 0.0
C122 C 0.08006 0.37661 0.95805 0.0
C123 C 0.0528 0.39232 0.95623 0.0
C124 C 0.04361 0.3772 0.96737 0.0
H125 H 0.09411 0.37612 0.95221 0.0
H126 H 0.04522 0.40393 0.949 0.0
H127 H 0.04879 0.42072 0.87535 0.0
H128 H 0.05241 0.37021 0.82757 0.0
H129 H 0.13505 0.42259 0.99618 0.0
H130 H 0.07897 0.34905 0.97217 0.0
H131 H 0.02928 0.37774 0.96961 0.0
C132 C 0.62294 0.96614 0.62434 0.0
C133 C 0.61667 0.9769 0.65124 0.0
N134 N 0.60054 0.97088 0.6612 0.0
N135 N 0.61088 0.95333 0.61773 0.0
C136 C 0.59748 0.95651 0.64058 0.0
H137 H 0.63505 0.96804 0.60937 0.0
Co138 Co 0.61032 0.93745 0.5802 0.0
C139 C 0.60205 0.90387 0.61862 0.0
O140 O 0.61453 0.89524 0.6013 0.0
N141 N 0.60909 0.92233 0.54087 0.0
C142 C 0.59861 0.90457 0.49842 0.0
C143 C 0.59913 0.90771 0.53435 0.0
C144 C 0.61382 0.92814 0.50833 0.0
N145 N 0.6077 0.91759 0.48207 0.0
O146 O 0.58787 0.94665 0.56694 0.0
H147 H 0.59089 0.90092 0.55341 0.0
H148 H 0.6204 0.94074 0.50395 0.0
O149 O 0.59876 0.92011 0.61098 0.0
C150 C 0.58777 0.96075 0.54836 0.0
O151 O 0.60298 0.968 0.53928 0.0
N152 N 0.63305 0.92892 0.59318 0.0
C153 C 0.66681 0.9167 0.6111 0.0
C154 C 0.65344 0.91763 0.63679 0.0
C155 C 0.63678 0.92422 0.62749 0.0
C156 C 0.64626 0.929 0.56842 0.0
C157 C 0.6632 0.92279 0.57673 0.0
H158 H 0.6268 0.92544 0.64798 0.0
H159 H 0.64387 0.93407 0.54214 0.0
H160 H 0.58535 0.94883 0.64079 0.0
H161 H 0.62305 0.98883 0.66107 0.0
H162 H 0.59054 0.89464 0.48522 0.0
H163 H 0.65593 0.91359 0.66393 0.0
H164 H 0.67335 0.92261 0.55634 0.0
C165 C 0.47324 0.62023 0.10792 0.0
C166 C 0.46212 0.61081 0.13008 0.0
N167 N 0.46936 0.59464 0.13588 0.0
N168 N 0.48746 0.61009 0.10012 0.0
C169 C 0.48467 0.59461 0.11727 0.0
H170 H 0.47103 0.63351 0.09781 0.0
Co171 Co 0.50629 0.61519 0.07006 0.0
C172 C 0.5364 0.59439 0.10553 0.0
O173 O 0.54652 0.59139 0.07777 0.0
N174 N 0.52502 0.62023 0.03889 0.0
C175 C 0.55041 0.62845 0.01356 0.0
C176 C 0.54135 0.62691 0.04527 0.0
C177 C 0.52436 0.61821 0.00327 0.0
N178 N 0.53964 0.62295 0.98711 0.0
O179 O 0.50166 0.59381 0.04523 0.0
H180 H 0.54635 0.6304 0.07129 0.0
H181 H 0.51288 0.61314 0.98938 0.0
O182 O 0.52188 0.60289 0.10234 0.0
C183 C 0.48816 0.59399 0.02493 0.0
O184 O 0.47907 0.60882 0.02152 0.0
N185 N 0.51021 0.63646 0.0943 0.0
C186 C 0.51616 0.66913 0.12668 0.0
C187 C 0.51777 0.65338 0.14614 0.0
C188 C 0.51447 0.63714 0.12956 0.0
C189 C 0.50789 0.65168 0.07533 0.0
C190 C 0.51086 0.66823 0.09101 0.0
H191 H 0.51528 0.62517 0.14528 0.0
H192 H 0.50401 0.65091 0.04771 0.0
H193 H 0.49375 0.5835 0.11588 0.0
H194 H 0.44954 0.61542 0.14045 0.0
H195 H 0.56379 0.63341 0.0103 0.0
H196 H 0.52149 0.65363 0.17392 0.0
H197 H 0.50952 0.68015 0.07513 0.0
C198 C 0.86927 0.44734 0.61111 0.0
C199 C 0.87699 0.43559 0.63469 0.0
N200 N 0.89001 0.44425 0.65217 0.0
N201 N 0.87753 0.46319 0.6138 0.0
C202 C 0.89001 0.46088 0.63899 0.0
H203 H 0.85903 0.44427 0.59192 0.0
Co204 Co 0.87593 0.48274 0.58419 0.0
C205 C 0.89319 0.51004 0.63079 0.0
O206 O 0.90384 0.51601 0.6059 0.0
N207 N 0.87468 0.50213 0.55359 0.0
C208 C 0.86905 0.52788 0.52707 0.0
C209 C 0.86876 0.51885 0.55893 0.0
C210 C 0.87842 0.50126 0.51859 0.0
N211 N 0.87515 0.51675 0.5017 0.0
O212 O 0.90027 0.48015 0.57324 0.0
H213 H 0.86408 0.52399 0.58409 0.0
H214 H 0.88276 0.4892 0.50551 0.0
O215 O 0.882 0.49783 0.62385 0.0
C216 C 0.90574 0.46783 0.55288 0.0
O217 O 0.89421 0.45695 0.53822 0.0
N218 N 0.85181 0.48515 0.59475 0.0
C219 C 0.81679 0.49538 0.606 0.0
C220 C 0.8284 0.49313 0.63476 0.0
C221 C 0.84589 0.4879 0.62858 0.0
C222 C 0.84027 0.48538 0.56692 0.0
C223 C 0.82271 0.4907 0.57187 0.0
H224 H 0.85482 0.48674 0.65089 0.0
H225 H 0.84502 0.48258 0.54039 0.0
H226 H 0.89993 0.47079 0.64547 0.0
H227 H 0.87378 0.42164 0.6377 0.0
H228 H 0.86495 0.54151 0.52292 0.0
H229 H 0.82421 0.49599 0.66167 0.0
H230 H 0.81422 0.49215 0.54886 0.0
C231 C 0.0286 0.87103 0.0996 0.0
C232 C 0.03984 0.87901 0.12374 0.0
N233 N 0.0303 0.89052 0.14353 0.0
N234 N 0.01207 0.87747 0.10429 0.0
C235 C 0.01351 0.8892 0.13132 0.0
H236 H 0.03241 0.86192 0.07867 0.0
Co237 Co 0.99266 0.87493 0.07436 0.0
C238 C 0.96556 0.86422 0.12986 0.0
O239 O 0.96055 0.84987 0.11254 0.0
N240 N 0.97337 0.87322 0.04282 0.0
C241 C 0.9475 0.87273 0.01401 0.0
C242 C 0.95554 0.87217 0.04683 0.0
C243 C 0.97564 0.87534 0.00748 0.0
N244 N 0.96023 0.8748 0.98941 0.0
O245 O 0.99036 0.90006 0.07209 0.0
H246 H 0.94847 0.87219 0.07165 0.0
H247 H 0.98845 0.87752 0.99519 0.0
O248 O 0.97725 0.87458 0.11646 0.0
C249 C 0.00093 0.90765 0.05058 0.0
O250 O 0.01276 0.89791 0.03379 0.0
N251 N -0.00437 0.84998 0.07446 0.0
C252 C -0.00419 0.81305 0.06736 0.0
C253 C -0.00426 0.821 0.10118 0.0
C254 C -0.00381 0.83957 0.10416 0.0
C255 C -0.0018 0.84245 0.04194 0.0
C256 C -0.00187 0.82405 0.0377 0.0
H257 H -0.00394 0.84557 0.13026 0.0
H258 H -4e-05 0.85071 0.01885 0.0
H259 H 0.00273 0.89772 0.13982 0.0
H260 H 0.05405 0.87706 0.12551 0.0
H261 H 0.93337 0.87263 0.00876 0.0
H262 H 0.99451 0.81309 0.12504 0.0
H263 H -0.00057 0.81854 0.01125 0.0
C264 C 0.87338 0.94657 0.59425 0.0
C265 C 0.87296 0.96165 0.61513 0.0
N266 N 0.88907 0.96375 0.63018 0.0
N267 N 0.88961 0.93911 0.59653 0.0
C268 C 0.89884 0.94986 0.61853 0.0
H269 H 0.86272 0.94164 0.57768 0.0
Co270 Co 0.89847 0.91982 0.57105 0.0
C271 C 0.92627 0.90632 0.61974 0.0
O272 O 0.93774 0.90389 0.59393 0.0
N273 N 0.90742 0.90088 0.54451 0.0
C274 C 0.91524 0.87461 0.52224 0.0
C275 C 0.90919 0.88343 0.5521 0.0
C276 C 0.9123 0.90233 0.5102 0.0
N277 N 0.91724 0.88662 0.49599 0.0
O278 O 0.91832 0.9338 0.55799 0.0
H279 H 0.90596 0.87747 0.57741 0.0
H280 H 0.91159 0.91463 0.49544 0.0
O281 O 0.91072 0.91205 0.6131 0.0
C282 C 0.91584 0.94585 0.53487 0.0
O283 O 0.90005 0.94751 0.52039 0.0
N284 N 0.87854 0.9064 0.58316 0.0
C285 C 0.84578 0.8906 0.59689 0.0
C286 C 0.85671 0.89638 0.62486 0.0
C287 C 0.87311 0.90417 0.61743 0.0
C288 C 0.8684 0.90044 0.55569 0.0
C289 C 0.85217 0.89215 0.56198 0.0
H290 H 0.88091 0.9094 0.63916 0.0
H291 H 0.87271 0.90259 0.52864 0.0
H292 H 0.91266 0.94772 0.62519 0.0
H293 H 0.8619 0.97074 0.61781 0.0
H294 H 0.9179 0.8605 0.52001 0.0
H295 H 0.85229 0.89588 0.65218 0.0
H296 H 0.84444 0.88761 0.5395 0.0
C297 C 0.52364 0.88087 0.10803 0.0
C298 C 0.50991 0.88631 0.12958 0.0
N299 N 0.51284 0.90336 0.13913 0.0
N300 N 0.53524 0.89438 0.10427 0.0
C301 C 0.52829 0.90792 0.12333 0.0
H302 H 0.52498 0.868 0.09543 0.0
Co303 Co 0.55497 0.89429 0.07472 0.0
C304 C 0.58266 0.90984 0.12026 0.0
O305 O 0.59351 0.89715 0.1099 0.0
N306 N 0.57402 0.89445 0.04261 0.0
C307 C 0.59469 0.90391 0.00475 0.0
C308 C 0.5871 0.90652 0.03752 0.0
C309 C 0.57341 0.88534 0.01167 0.0
N310 N 0.58591 0.89066 0.98838 0.0
O311 O 0.54509 0.91349 0.04933 0.0
H312 H 0.58977 0.91785 0.05433 0.0
H313 H 0.56294 0.87604 0.00516 0.0
O314 O 0.56706 0.91075 0.10698 0.0
C315 C 0.53427 0.90914 0.02487 0.0
O316 O 0.53112 0.89219 0.01908 0.0
N317 N 0.56407 0.87446 0.09991 0.0
C318 C 0.57079 0.84302 0.13682 0.0
C319 C 0.56756 0.85886 0.15523 0.0
C320 C 0.5641 0.8744 0.13631 0.0
C321 C 0.56756 0.85916 0.08173 0.0
C322 C 0.57124 0.84339 0.09963 0.0
H323 H 0.56036 0.88615 0.15109 0.0
H324 H 0.5663 0.85865 0.05335 0.0
H325 H 0.53408 0.92108 0.12437 0.0
H326 H 0.49863 0.87832 0.13745 0.0
H327 H 0.60455 0.91238 0.99246 0.0
H328 H 0.56677 0.85903 0.18395 0.0
H329 H 0.57299 0.83128 0.08436 0.0
C330 C 0.60444 0.5353 0.5914 0.0
C331 C 0.60103 0.52175 0.61502 0.0
N332 N 0.58591 0.52564 0.63257 0.0
N333 N 0.5916 0.5477 0.59433 0.0
C334 C 0.58052 0.54145 0.61954 0.0
H335 H 0.61516 0.53576 0.57232 0.0
Co336 Co 0.58762 0.56685 0.56422 0.0
C337 C 0.58184 0.59512 0.61898 0.0
O338 O 0.5938 0.60543 0.60408 0.0
N339 N 0.58299 0.58531 0.53184 0.0
C340 C 0.57173 0.60753 0.49974 0.0
C341 C 0.57461 0.6012 0.53367 0.0
C342 C 0.58451 0.58215 0.49663 0.0
N343 N 0.57786 0.59536 0.47654 0.0
O344 O 0.5649 0.5573 0.55397 0.0
H345 H 0.56947 0.60726 0.5575 0.0
H346 H 0.5899 0.56996 0.48584 0.0
O347 O 0.57785 0.58022 0.60456 0.0
C348 C 0.56582 0.54487 0.53106 0.0
O349 O 0.58134 0.54104 0.51706 0.0
N350 N 0.61091 0.5752 0.57318 0.0
C351 C 0.64764 0.57671 0.5827 0.0
C352 C 0.63623 0.57572 0.61205 0.0
C353 C 0.61791 0.57493 0.60672 0.0
C354 C 0.62182 0.57735 0.54461 0.0
C355 C 0.64015 0.57851 0.54884 0.0
H356 H 0.6095 0.57245 0.62943 0.0
H357 H 0.61666 0.57672 0.51802 0.0
H358 H 0.56807 0.54778 0.62637 0.0
H359 H 0.60881 0.50976 0.61828 0.0
H360 H 0.56448 0.61945 0.49271 0.0
H361 H 0.64138 0.574 0.63867 0.0
H362 H 0.64844 0.57952 0.52543 0.0
C363 C 0.92132 0.60707 0.14623 0.0
C364 C 0.93112 0.60621 0.17695 0.0
N365 N 0.93637 0.58927 0.18155 0.0
N366 N 0.92076 0.59081 0.13086 0.0
C367 C 0.92962 0.5802 0.15377 0.0
H368 H 0.91485 0.61889 0.13656 0.0
Co369 Co 0.90869 0.58309 0.08983 0.0
C370 C 0.8869 0.56805 0.13856 0.0
O371 O 0.87959 0.58386 0.13544 0.0
N372 N 0.89624 0.57559 0.0501 0.0
C373 C 0.87416 0.573 0.01143 0.0
C374 C 0.87864 0.57779 0.04556 0.0
C375 C 0.90221 0.56939 0.01856 0.0
N376 N 0.88902 0.56776 0.99449 0.0
O377 O 0.92868 0.56781 0.07616 0.0
H378 H 0.86976 0.58319 0.06538 0.0
H379 H 0.91607 0.56705 0.01264 0.0
O380 O 0.89935 0.56387 0.11726 0.0
C381 C 0.94554 0.5688 0.07978 0.0
O382 O 0.95272 0.58297 0.09441 0.0
N383 N 0.91706 0.6027 0.0637 0.0
C384 C 0.9295 0.63552 0.04032 0.0
C385 C 0.9135 0.63428 0.05926 0.0
C386 C 0.90733 0.61764 0.06997 0.0
C387 C 0.93108 0.60333 0.04073 0.0
C388 C 0.93775 0.6197 0.02927 0.0
H389 H 0.89547 0.61677 0.08608 0.0
H390 H 0.93754 0.59138 0.0317 0.0
H391 H 0.93155 0.56608 0.14951 0.0
H392 H 0.93405 0.61719 0.19463 0.0
H393 H 0.86103 0.57362 0.99979 0.0
H394 H 0.90642 0.64603 0.06795 0.0
H395 H 0.94956 0.61997 0.0129 0.0
C396 C 0.37853 0.01774 0.39622 0.0
C397 C 0.38398 0.00489 0.3724 0.0
N398 N 0.39902 0.01056 0.35656 0.0
N399 N 0.39 0.03148 0.39512 0.0
C400 C 0.40224 0.02677 0.37067 0.0
H401 H 0.3674 0.0168 0.41426 0.0
Co402 Co 0.39121 0.05113 0.42502 0.0
C403 C 0.40952 0.07653 0.37667 0.0
O404 O 0.42194 0.08048 0.39987 0.0
N405 N 0.39269 0.07056 0.45553 0.0
C406 C 0.38998 0.0967 0.48269 0.0
C407 C 0.38798 0.08773 0.45092 0.0
C408 C 0.39741 0.06939 0.48996 0.0
N409 N 0.39597 0.08508 0.50716 0.0
O410 O 0.41556 0.04601 0.43358 0.0
H411 H 0.38291 0.09322 0.42641 0.0
H412 H 0.40105 0.05702 0.50261 0.0
O413 O 0.39726 0.06562 0.38476 0.0
C414 C 0.41833 0.03312 0.4547 0.0
O415 O 0.4046 0.02488 0.46862 0.0
N416 N 0.36709 0.05569 0.41792 0.0
C417 C 0.33135 0.06463 0.41254 0.0
C418 C 0.342 0.06351 0.38208 0.0
C419 C 0.35987 0.05892 0.38533 0.0
C420 C 0.35671 0.05568 0.44755 0.0
C421 C 0.33882 0.06033 0.44553 0.0
H422 H 0.36787 0.05804 0.36167 0.0
H423 H 0.36247 0.05246 0.47304 0.0
H424 H 0.41367 0.03488 0.36434 0.0
H425 H 0.37786 0.99201 0.36851 0.0
H426 H 0.38706 0.11059 0.48746 0.0
H427 H 0.33669 0.06656 0.35607 0.0
H428 H 0.33093 0.06059 0.46956 0.0
C429 C 0.49817 0.39043 0.92068 0.0
C430 C 0.50957 0.39945 0.89871 0.0
N431 N 0.5 0.40698 0.87248 0.0
N432 N 0.4815 0.39204 0.90818 0.0
C433 C 0.48297 0.40231 0.87894 0.0
H434 H 0.50171 0.38357 0.94489 0.0
Co435 Co 0.46159 0.38388 0.93194 0.0
C436 C 0.44129 0.36626 0.87375 0.0
O437 O 0.43937 0.35169 0.89267 0.0
N438 N 0.44162 0.37659 0.95811 0.0
C439 C 0.41444 0.37296 0.98049 0.0
C440 C 0.42428 0.3745 0.94976 0.0
C441 C 0.44174 0.37705 0.99394 0.0
N442 N 0.42552 0.37472 0.00829 0.0
O443 O 0.45245 0.40718 0.93202 0.0
H444 H 0.4187 0.37559 0.92347 0.0
H445 H 0.45345 0.38016 0.00929 0.0
O446 O 0.44959 0.3796 0.88676 0.0
C447 C 0.45723 0.41686 0.95793 0.0
O448 O 0.46736 0.40993 0.98271 0.0
N449 N 0.47155 0.36084 0.93248 0.0
C450 C 0.48985 0.32863 0.93574 0.0
C451 C 0.48664 0.33683 0.90301 0.0
C452 C 0.47775 0.35308 0.90201 0.0
C453 C 0.47546 0.35347 0.96459 0.0
C454 C 0.48434 0.33726 0.96682 0.0
H455 H 0.47623 0.35961 0.87667 0.0
H456 H 0.47243 0.36038 0.98881 0.0
H457 H 0.47171 0.40662 0.86332 0.0
H458 H 0.52371 0.40101 0.90274 0.0
H459 H 0.40013 0.372 0.98218 0.0
H460 H 0.49085 0.33072 0.87834 0.0
H461 H 0.48718 0.33172 0.99274 0.0
C462 C 0.10683 0.5357 0.42331 0.0
C463 C 0.09384 0.54533 0.40635 0.0
N464 N 0.0838 0.53397 0.38716 0.0
N465 N 0.10511 0.51842 0.41447 0.0
C466 C 0.09101 0.51775 0.39248 0.0
H467 H 0.11641 0.54081 0.44216 0.0
Co468 Co 0.1169 0.49957 0.4351 0.0
C469 C 0.12844 0.47911 0.37094 0.0
O470 O 0.1448 0.47806 0.38296 0.0
N471 N 0.12799 0.48054 0.45841 0.0
C472 C 0.13442 0.45374 0.48003 0.0
C473 C 0.13018 0.46319 0.44992 0.0
C474 C 0.13039 0.48105 0.49394 0.0
N475 N 0.13443 0.46503 0.50783 0.0
O476 O 0.09486 0.48912 0.44655 0.0
H477 H 0.12711 0.45721 0.42462 0.0
H478 H 0.12745 0.49271 0.50979 0.0
O479 O 0.11651 0.48687 0.38952 0.0
C480 C 0.08685 0.49436 0.47431 0.0
O481 O 0.09411 0.50688 0.49392 0.0
N482 N 0.1388 0.51048 0.42431 0.0
C483 C 0.17223 0.52437 0.40944 0.0
C484 C 0.1594 0.52304 0.38265 0.0
C485 C 0.14261 0.51635 0.3908 0.0
C486 C 0.1504 0.51368 0.45132 0.0
C487 C 0.16729 0.52036 0.44443 0.0
H488 H 0.13288 0.51529 0.36982 0.0
H489 H 0.14682 0.51076 0.47835 0.0
H490 H 0.08574 0.50547 0.38184 0.0
H491 H 0.09139 0.55943 0.40957 0.0
H492 H 0.13614 0.43947 0.48158 0.0
H493 H 0.16251 0.5265 0.35545 0.0
H494 H 0.17668 0.52139 0.46612 0.0
C495 C 0.9552 0.12682 0.89033 0.0
C496 C 0.94352 0.11917 0.86656 0.0
N497 N 0.95224 0.10643 0.84826 0.0
N498 N 0.97117 0.11894 0.88691 0.0
C499 C 0.96897 0.10667 0.86109 0.0
H500 H 0.95207 0.13698 0.9097 0.0
Co501 Co 0.99128 0.12162 0.91492 0.0
C502 C 0.01856 0.11062 0.86301 0.0
O503 O 0.02508 0.09897 0.88548 0.0
N504 N 0.01128 0.12414 0.94338 0.0
C505 C 0.03681 0.13279 0.96729 0.0
C506 C 0.02656 0.13295 0.93701 0.0
C507 C 0.01247 0.11887 0.97751 0.0
N508 N 0.02789 0.12392 0.99277 0.0
O509 O 0.99265 0.09649 0.92026 0.0
H510 H 0.02979 0.13952 0.91232 0.0
H511 H 0.00183 0.11215 0.99135 0.0
O512 O 0.00561 0.12051 0.87228 0.0
C513 C 0.9819 0.08959 0.94234 0.0
O514 O 0.97032 0.09992 0.95838 0.0
N515 N 0.98952 0.1463 0.91213 0.0
C516 C 0.99165 0.18295 0.92121 0.0
C517 C 0.99513 0.17522 0.88794 0.0
C518 C 0.99397 0.15674 0.88389 0.0
C519 C 0.9847 0.15371 0.94369 0.0
C520 C 0.98578 0.17201 0.94891 0.0
H521 H -0.00266 0.15089 0.85857 0.0
H522 H 0.98094 0.14519 0.96556 0.0
H523 H 0.97923 0.09736 0.85338 0.0
H524 H 0.92962 0.12247 0.86364 0.0
H525 H 0.04972 0.13891 0.97039 0.0
H526 H -0.00038 0.18325 0.86584 0.0
H527 H 0.98261 0.1775 0.97477 0.0
H528 H 0.94876 0.94816 0.56476 0.0
H529 H 0.97233 0.96924 0.54994 0.0
H530 H 0.93904 0.99263 0.46939 0.0
H531 H 0.91539 0.97154 0.48382 0.0
H532 H 0.97455 0.98435 0.44758 0.0
H533 H 0.97236 0.02324 0.57303 0.0
H534 H 0.97402 -0.00042 0.57891 0.0
H535 H 0.95444 0.00888 0.559 0.0
C536 C 0.94645 0.95778 0.54387 0.0
C537 C 0.93022 0.95824 0.52548 0.0
C538 C 0.95987 0.96987 0.53564 0.0
C539 C 0.95725 0.98261 0.509 0.0
C540 C 0.9412 0.98295 0.49023 0.0
H541 H 0.03109 0.06035 0.4192 0.0
H542 H 0.00424 0.04319 0.4322 0.0
C543 C 0.92774 0.9709 0.49851 0.0
C544 C 0.9715 0.99526 0.50011 0.0
H545 H -0.00293 0.0284 0.53497 0.0
C546 C 0.97939 0.99413 0.46647 0.0
C547 C 0.97766 0.00795 0.52492 0.0
C548 C 0.9691 0.01016 0.5609 0.0
C549 C 0.99384 0.00495 0.45741 0.0
C550 C 0.00025 0.0174 0.48251 0.0
C551 C 0.99207 0.01881 0.51586 0.0
C552 C 0.01606 0.02839 0.47541 0.0
C553 C 0.00255 0.00252 0.42163 0.0
C554 C 0.03134 0.02606 0.49609 0.0
C555 C 0.04661 0.03587 0.48892 0.0
C556 C 0.04682 0.04823 0.46098 0.0
C557 C 0.03135 0.05085 0.44078 0.0
C558 C 0.01604 0.04101 0.44803 0.0
H559 H -0.00162 0.98993 0.40855 0.0
H560 H -0.00124 0.01374 0.40406 0.0
H561 H 0.01724 0.00252 0.42422 0.0
H562 H 0.03153 0.0164 0.51742 0.0
H563 H 0.0583 0.03361 0.50505 0.0
H564 H 0.45593 0.04139 0.02113 0.0
H565 H 0.46439 0.0103 0.01355 0.0
H566 H 0.45275 0.01358 0.90161 0.0
H567 H 0.44422 0.04486 0.90899 0.0
H568 H 0.4486 0.97867 0.98235 0.0
H569 H 0.50753 0.00503 0.90953 0.0
H570 H 0.49293 0.0195 0.93415 0.0
H571 H 0.48574 0.01011 0.89277 0.0
C572 C 0.45466 0.03536 0.9951 0.0
C573 C 0.44964 0.04553 0.96561 0.0
C574 C 0.45946 0.01761 0.99081 0.0
C575 C 0.45942 0.00982 0.95694 0.0
C576 C 0.45297 0.01948 0.92787 0.0
H577 H 0.50925 0.90403 0.9733 0.0
H578 H 0.49026 0.92664 0.946 0.0
C579 C 0.44801 0.03727 0.93221 0.0
C580 C 0.46846 0.9926 0.95225 0.0
H581 H 0.50927 0.97595 0.93127 0.0
C582 C 0.46163 0.97779 0.97022 0.0
C583 C 0.4855 0.99171 0.93653 0.0
C584 C 0.49349 0.00739 0.91723 0.0
C585 C 0.472 0.96254 0.97544 0.0
C586 C 0.48952 0.96216 0.96194 0.0
C587 C 0.49581 0.97639 0.94148 0.0
C588 C 0.50234 0.94866 0.97403 0.0
C589 C 0.46474 0.9476 0.99791 0.0
C590 C 0.51576 0.95373 0.99781 0.0
C591 C 0.5266 0.94092 0.01344 0.0
C592 C 0.52419 0.92283 0.00547 0.0
C593 C 0.51131 0.91787 0.98022 0.0
C594 C 0.50045 0.93072 0.96459 0.0
H595 H 0.45147 0.95078 0.00914 0.0
H596 H 0.46351 0.93539 0.98149 0.0
H597 H 0.47397 0.94464 0.02012 0.0
H598 H 0.51736 0.96755 0.00538 0.0
H599 H 0.53646 0.94516 0.0326 0.0
H600 H 0.56194 0.52279 0.47459 0.0
H601 H 0.53841 0.501 0.46459 0.0
H602 H 0.51189 0.51862 0.55983 0.0
H603 H 0.53549 0.54058 0.57016 0.0
H604 H 0.51923 0.47951 0.55158 0.0
H605 H 0.48525 0.51047 0.43582 0.0
H606 H 0.50908 0.50917 0.43392 0.0
H607 H 0.49868 0.52317 0.46646 0.0
C608 C 0.55099 0.5222 0.4932 0.0
C609 C 0.5505 0.53337 0.52314 0.0
C610 C 0.53757 0.50977 0.48738 0.0
C611 C 0.52348 0.50831 0.51142 0.0
C612 C 0.52271 0.51966 0.54099 0.0
H613 H 0.43206 0.4438 0.53936 0.0
H614 H 0.45973 0.45995 0.54777 0.0
C615 C 0.53609 0.53224 0.54671 0.0
C616 C 0.50998 0.49435 0.50636 0.0
H617 H 0.47567 0.48191 0.4529 0.0
C618 C 0.50967 0.47998 0.53005 0.0
C619 C 0.49781 0.49497 0.47791 0.0
C620 C 0.49754 0.5103 0.45211 0.0
C621 C 0.49733 0.46614 0.5261 0.0
C622 C 0.48481 0.46698 0.49817 0.0
C623 C 0.48538 0.48122 0.47412 0.0
C624 C 0.46991 0.45427 0.4952 0.0
C625 C 0.49791 0.45074 0.55171 0.0
C626 C 0.46654 0.44543 0.463 0.0
C627 C 0.45058 0.43629 0.45796 0.0
C628 C 0.43772 0.43604 0.48499 0.0
C629 C 0.44169 0.44383 0.518 0.0
C630 C 0.45759 0.45296 0.52297 0.0
H631 H 0.51146 0.4489 0.56279 0.0
H632 H 0.48882 0.4535 0.57423 0.0
H633 H 0.49368 0.43814 0.53878 0.0
H634 H 0.47588 0.44637 0.4412 0.0
H635 H 0.44786 0.43045 0.43221 0.0
H636 H 0.98128 0.56498 0.08873 0.0
H637 H 0.00067 0.54244 0.06244 0.0
H638 H 0.9556 0.51826 0.01087 0.0
H639 H 0.93603 0.54077 0.03707 0.0
H640 H -0.00211 0.50381 0.06861 0.0
H641 H 0.99246 0.5285 0.92975 0.0
H642 H 0.98667 0.54206 0.96767 0.0
H643 H 0.97197 0.52473 0.95313 0.0
C644 C 0.97546 0.55488 0.07181 0.0
C645 C 0.95712 0.55474 0.06483 0.0
C646 C 0.98656 0.542 0.05689 0.0
C647 C 0.97958 0.52884 0.03446 0.0
C648 C 0.96126 0.52846 0.02779 0.0
H649 H 0.03614 0.43461 0.95872 0.0
H650 H 0.0136 0.45488 0.98232 0.0
C651 C 0.9501 0.54129 0.04291 0.0
C652 C 0.99159 0.51556 0.0181 0.0
H653 H 0.00982 0.50277 0.93903 0.0
C654 C 0.00043 0.50348 0.04027 0.0
C655 C 0.99495 0.51534 0.98116 0.0
C656 C 0.98615 0.5284 0.95641 0.0
C657 C 0.01261 0.49115 0.02643 0.0
C658 C 0.01594 0.49089 0.9895 0.0
C659 C 0.0071 0.50296 0.96731 0.0
C660 C 0.02917 0.47866 0.97373 0.0
C661 C 0.02217 0.47874 0.05142 0.0
C662 C 0.0452 0.4854 0.96047 0.0
C663 C 0.05814 0.47387 0.94709 0.0
C664 C 0.0552 0.45539 0.94646 0.0
C665 C 0.03888 0.44874 0.9589 0.0
C666 C 0.02599 0.46029 0.97249 0.0
H667 H 0.0202 0.48252 0.07968 0.0
H668 H 0.01711 0.46501 0.0476 0.0
H669 H 0.03663 0.47863 0.0456 0.0
H670 H 0.04785 0.49957 0.96114 0.0
H671 H 0.07052 0.47944 0.93759 0.0
H672 H 0.58311 0.98909 0.50412 0.0
H673 H 0.55513 0.00336 0.48755 0.0
H674 H 0.52632 0.96566 0.55171 0.0
H675 H 0.55423 0.95136 0.56867 0.0
H676 H 0.52504 0.98749 0.45371 0.0
H677 H 0.50887 0.01486 0.58686 0.0
H678 H 0.53085 0.0073 0.57506 0.0
H679 H 0.51389 0.9915 0.58649 0.0
C680 C 0.57083 0.98385 0.51479 0.0
C681 C 0.57087 0.96915 0.53783 0.0
C682 C 0.55488 0.99201 0.50525 0.0
C683 C 0.53875 0.9857 0.51883 0.0
C684 C 0.5387 0.9709 0.54147 0.0
H685 H 0.42793 0.00645 0.49948 0.0
H686 H 0.45783 0.9962 0.51342 0.0
C687 C 0.55463 0.96269 0.55094 0.0
C688 C 0.52189 0.99437 0.50886 0.0
H689 H 0.48592 0.01582 0.54348 0.0
C690 C 0.51653 0.99385 0.47319 0.0
C691 C 0.51094 0.0027 0.53442 0.0
C692 C 0.51646 0.00431 0.57282 0.0
C693 C 0.50009 0.00083 0.46261 0.0
C694 C 0.48894 0.00878 0.48836 0.0
C695 C 0.49452 0.00968 0.52386 0.0
C696 C 0.47098 0.01529 0.47949 0.0
C697 C 0.49447 -0.00096 0.42431 0.0
C698 C 0.46852 0.02955 0.45598 0.0
C699 C 0.45138 0.03545 0.44785 0.0
C700 C 0.43651 0.02722 0.46329 0.0
C701 C 0.4391 0.01307 0.48708 0.0
C702 C 0.45617 0.00719 0.49514 0.0
H703 H 0.50292 0.98945 0.40953 0.0
H704 H 0.48042 0.99463 0.42243 0.0
H705 H 0.49556 0.01219 0.41111 0.0
H706 H 0.47983 0.03614 0.44409 0.0
H707 H 0.4498 0.04643 0.42951 0.0
H708 H 0.45896 0.58968 0.98274 0.0
H709 H 0.44772 0.56183 0.95744 0.0
H710 H 0.49236 0.53362 1.00173 0.0
H711 H 0.50377 0.5613 0.02692 0.0
H712 H 0.48265 0.52454 0.92843 0.0
H713 H 0.42632 0.52287 0.0246 0.0
H714 H 0.42944 0.54252 0.99804 0.0
H715 H 0.44542 0.53696 0.03152 0.0
C716 C 0.46648 0.57757 0.98679 0.0
C717 C 0.48217 0.57761 0.00709 0.0
C718 C 0.46002 0.56172 0.97235 0.0
C719 C 0.46916 0.54576 0.97806 0.0
C720 C 0.48516 0.54588 0.99709 0.0
H721 H 0.46171 0.43984 0.0128 0.0
H722 H 0.45989 0.4722 0.01088 0.0
C723 C 0.49162 0.56167 0.01155 0.0
C724 C 0.46173 0.5286 0.96644 0.0
H725 H 0.43199 0.49693 0.99201 0.0
C726 C 0.47129 0.51858 0.94153 0.0
C727 C 0.44691 0.52103 0.98379 0.0
C728 C 0.43639 0.53128 0.01112 0.0
C729 C 0.4672 0.50067 0.93532 0.0
C730 C 0.45308 0.49277 0.9544 0.0
C731 C 0.44272 0.50315 0.97737 0.0
C732 C 0.45123 0.47328 0.95613 0.0
C733 C 0.47887 0.48995 0.91067 0.0
C734 C 0.44638 0.46325 0.92626 0.0
C735 C 0.44745 0.4447 0.92726 0.0
C736 C 0.45344 0.43606 0.95813 0.0
C737 C 0.45724 0.44615 0.98856 0.0
C738 C 0.45611 0.46462 0.98756 0.0
H739 H 0.49026 0.4978 0.90044 0.0
H740 H 0.4841 0.47803 0.92459 0.0
H741 H 0.47092 0.48527 0.88768 0.0
H742 H 0.44243 0.46978 0.90189 0.0
H743 H 0.44439 0.43721 0.90343 0.0
H744 H 0.92192 0.44632 0.50395 0.0
H745 H 0.95377 0.44434 0.49112 0.0
H746 H 0.96447 0.48296 0.57322 0.0
H747 H 0.93283 0.48498 0.58632 0.0
H748 H 0.97454 0.47373 0.46975 0.0
H749 H 0.001 0.44341 0.59283 0.0
H750 H 0.97786 0.44203 0.58041 0.0
H751 H 0.98641 0.46185 0.60107 0.0
C752 C 0.93109 0.45422 0.51952 0.0
C753 C 0.9249 0.46586 0.54602 0.0
C754 C 0.94924 0.45304 0.51221 0.0
C755 C 0.96142 0.46328 0.53163 0.0
C756 C 0.95528 0.47466 0.55849 0.0
H757 H 0.06535 0.50433 0.52908 0.0
H758 H 0.03537 0.49372 0.54173 0.0
C759 C 0.93719 0.47593 0.56567 0.0
C760 C 0.98037 0.46353 0.52182 0.0
H761 H 0.02196 0.45931 0.5565 0.0
C762 C 0.98497 0.47023 0.48835 0.0
C763 C 0.99382 0.45898 0.54631 0.0
C764 C 0.98955 0.451 0.58205 0.0
C765 C 0.00271 0.47358 0.47946 0.0
C766 C 0.01615 0.46974 0.50455 0.0
C767 C 0.01159 0.46226 0.53741 0.0
C768 C 0.0348 0.47485 0.49827 0.0
C769 C 0.00684 0.48215 0.44417 0.0
C770 C 0.04448 0.46746 0.47009 0.0
C771 C 0.06156 0.47359 0.4626 0.0
C772 C 0.06926 0.4871 0.48342 0.0
C773 C 0.05976 0.49398 0.51246 0.0
C774 C 0.04266 0.48789 0.51981 0.0
H775 H 0.99473 0.48739 0.43099 0.0
H776 H 0.01643 0.49325 0.44756 0.0
H777 H 0.01294 0.47214 0.42626 0.0
H778 H 0.0387 0.45717 0.45355 0.0
H779 H 0.06863 0.46792 0.44023 0.0
H780 H 0.97634 0.93132 0.07615 0.0
H781 H 0.97274 0.96258 0.05915 0.0
H782 H 0.01789 0.95832 0.98925 0.0
H783 H 0.02173 0.92724 0.00627 0.0
H784 H 0.01771 0.9893 0.03175 0.0
H785 H 0.95345 0.97898 0.96198 0.0
H786 H 0.95419 0.97125 0.00708 0.0
H787 H 0.96788 0.96079 0.97404 0.0
C788 C 0.98556 0.93708 0.05731 0.0
C789 C -0.00075 0.92679 0.04239 0.0
C790 C 0.98341 0.95488 0.04748 0.0
C791 C 0.99488 0.96262 0.02252 0.0
C792 C 0.00885 0.95253 0.0084 0.0
H793 H 0.00613 0.06508 0.91882 0.0
H794 H 0.0092 0.03413 0.9381 0.0
C795 C 0.011 0.93477 0.01816 0.0
C796 C 0.99237 0.98121 0.01081 0.0
H797 H 0.96384 0.0086 0.96649 0.0
C798 C 0.00595 0.99354 0.01746 0.0
C799 C 0.97701 0.98663 0.99211 0.0
C800 C 0.96234 0.97372 0.98305 0.0
C801 C 0.00451 0.01127 0.00624 0.0
C802 C 0.98921 0.01666 0.98736 0.0
C803 C 0.97557 0.00436 0.9809 0.0
C804 C 0.987 0.0351 0.97453 0.0
C805 C 0.01922 0.02416 0.01519 0.0
C806 C 0.97317 0.04565 0.98783 0.0
C807 C 0.97132 0.06327 0.97678 0.0
C808 C 0.98323 0.07061 0.95206 0.0
C809 C -0.00321 0.05984 0.93801 0.0
C810 C -0.00137 0.0422 0.94914 0.0
H811 H 0.0279 0.01904 0.03672 0.0
H812 H 0.02756 0.02631 0.9913 0.0
H813 H 0.01372 0.03723 0.0235 0.0
H814 H 0.96399 0.04035 0.00728 0.0
H815 H 0.9607 0.07119 0.98802 0.0
H816 H 0.0848 0.13196 0.31246 0.0
H817 H 0.07493 0.13484 0.25092 0.0
H818 H 0.04855 0.08406 0.25778 0.0
H819 H 0.05828 0.08105 0.31949 0.0
H820 H 0.08317 0.11033 0.19502 0.0
H821 H 0.01041 0.11765 0.21529 0.0
H822 H 0.0263 0.1213 0.25048 0.0
H823 H 0.02061 0.09905 0.23724 0.0
C824 C 0.07673 0.12147 0.30109 0.0
C825 C 0.07232 0.10627 0.32097 0.0
C826 C 0.07114 0.12314 0.26587 0.0
C827 C 0.0609 0.10975 0.24991 0.0
C828 C 0.05622 0.09468 0.26978 0.0
H829 H 0.01805 0.09701 0.03644 0.0
H830 H 0.02641 0.09305 0.09873 0.0
C831 C 0.06186 0.09296 0.30501 0.0
C832 C 0.05589 0.1112 0.21196 0.0
H833 H 0.02045 0.11509 0.15599 0.0
C834 C 0.06946 0.11141 0.18644 0.0
C835 C 0.038 0.11247 0.20092 0.0
C836 C 0.02295 0.11275 0.22734 0.0
C837 C 0.06563 0.11273 0.15007 0.0
C838 C 0.04774 0.1143 0.13899 0.0
C839 C 0.03415 0.11392 0.16453 0.0
C840 C 0.04286 0.11663 0.10108 0.0
C841 C 0.08076 0.11209 0.12383 0.0
C842 C 0.04919 0.13128 0.0818 0.0
C843 C 0.04445 0.13356 0.04621 0.0
C844 C 0.03312 0.12134 0.02926 0.0
C845 C 0.02668 0.10675 0.04876 0.0
C846 C 0.03149 0.10443 0.08433 0.0
H847 H 0.09274 0.10573 0.13545 0.0
H848 H 0.07695 0.10467 0.09947 0.0
H849 H 0.08438 0.12586 0.1161 0.0
H850 H 0.05761 0.14111 0.09442 0.0
H851 H 0.04936 0.14512 0.03222 0.0
H852 H 0.44807 0.10455 0.82834 0.0
H853 H 0.44161 0.10522 0.76482 0.0
H854 H 0.38773 0.08886 0.7857 0.0
H855 H 0.39417 0.08781 0.84932 0.0
H856 H 0.40266 0.06922 0.73396 0.0
H857 H 0.41399 0.14061 0.70586 0.0
H858 H 0.43261 0.13031 0.72726 0.0
H859 H 0.41179 0.1321 0.75043 0.0
C860 C 0.43477 0.10131 0.81951 0.0
C861 C 0.42162 0.09617 0.84395 0.0
C862 C 0.43107 0.10181 0.78314 0.0
C863 C 0.4141 0.09738 0.77049 0.0
C864 C 0.40089 0.09242 0.79487 0.0
H865 H 0.37947 0.10915 0.54977 0.0
H866 H 0.38336 0.11269 0.61403 0.0
C867 C 0.4046 0.09183 0.83123 0.0
C868 C 0.41046 0.09677 0.73174 0.0
H869 H 0.41259 0.1212 0.65542 0.0
C870 C 0.4047 0.08064 0.71685 0.0
C871 C 0.41287 0.11173 0.70945 0.0
C872 C 0.41798 0.12971 0.72409 0.0
C873 C 0.40177 0.0789 0.68022 0.0
C874 C 0.40507 0.09359 0.6577 0.0
C875 C 0.4103 0.10989 0.67266 0.0
C876 C 0.40336 0.09215 0.61854 0.0
C877 C 0.395 0.06136 0.66605 0.0
C878 C 0.41367 0.0798 0.59963 0.0
C879 C 0.41146 0.07775 0.56304 0.0
C880 C 0.39903 0.08814 0.54448 0.0
C881 C 0.38921 0.10101 0.56324 0.0
C882 C 0.39136 0.10299 0.59997 0.0
H883 H 0.38832 0.05347 0.68708 0.0
H884 H 0.38552 0.0634 0.64386 0.0
H885 H 0.40637 0.05343 0.65599 0.0
H886 H 0.42336 0.07164 0.61324 0.0
H887 H 0.4195 0.06801 0.54925 0.0
H888 H 0.41334 0.41255 0.33589 0.0
H889 H 0.41929 0.406 0.27334 0.0
H890 H 0.3743 0.37056 0.27052 0.0
H891 H 0.36812 0.37712 0.3329 0.0
H892 H 0.42559 0.37236 0.23927 0.0
H893 H 0.36489 0.40599 0.18862 0.0
H894 H 0.37328 0.4096 0.23296 0.0
H895 H 0.36135 0.38957 0.22253 0.0
C896 C 0.40474 0.40332 0.32204 0.0
C897 C 0.39017 0.39546 0.33934 0.0
C898 C 0.40817 0.39959 0.28632 0.0
C899 C 0.39706 0.38803 0.26724 0.0
C900 C 0.38283 0.37977 0.28465 0.0
H901 H 0.39769 0.35904 0.04161 0.0
H902 H 0.39031 0.36092 0.10502 0.0
C903 C 0.37939 0.38347 0.32036 0.0
C904 C 0.40034 0.38473 0.22903 0.0
H905 H 0.38292 0.3914 0.14639 0.0
C906 C 0.41627 0.37648 0.21894 0.0
C907 C 0.38807 0.39004 0.20265 0.0
C908 C 0.37098 0.39942 0.21204 0.0
C909 C 0.4203 0.37345 0.18307 0.0
C910 C 0.40823 0.37913 0.15663 0.0
C911 C 0.39213 0.38704 0.16675 0.0
C912 C 0.41254 0.3779 0.11833 0.0
C913 C 0.43741 0.36409 0.17378 0.0
C914 C 0.42721 0.38713 0.10479 0.0
C915 C 0.43139 0.38615 0.06876 0.0
C916 C 0.42092 0.37595 0.04539 0.0
C917 C 0.40598 0.36701 0.0589 0.0
C918 C 0.4018 0.36801 0.09509 0.0
H919 H 0.44249 0.35613 0.19643 0.0
H920 H 0.43564 0.35517 0.15052 0.0
H921 H 0.44763 0.37416 0.16699 0.0
H922 H 0.43537 0.39526 0.12208 0.0
H923 H 0.44268 0.39363 0.05922 0.0
H924 H 0.14413 0.48667 0.56211 0.0
H925 H 0.14195 0.48028 0.62567 0.0
H926 H 0.12402 0.4271 0.60186 0.0
H927 H 0.12565 0.43351 0.53846 0.0
H928 H 0.10226 0.44542 0.64952 0.0
H929 H 0.17308 0.44909 0.69028 0.0
H930 H 0.16498 0.46797 0.66595 0.0
H931 H 0.16634 0.44665 0.64451 0.0
C932 C 0.13981 0.47358 0.57041 0.0
C933 C 0.13501 0.46063 0.54511 0.0
C934 C 0.13874 0.46991 0.60674 0.0
C935 C 0.13297 0.45317 0.61846 0.0
C936 C 0.1286 0.44008 0.59333 0.0
H937 H 0.13063 0.40145 0.82052 0.0
H938 H 0.13798 0.41307 0.76185 0.0
C939 C 0.12967 0.44374 0.55704 0.0
C940 C 0.13029 0.44961 0.65679 0.0
H941 H 0.15184 0.4458 0.73623 0.0
C942 C 0.11308 0.44555 0.66852 0.0
C943 C 0.14446 0.44974 0.68142 0.0
C944 C 0.1633 0.45345 0.67 0.0
C945 C 0.10966 0.44144 0.70418 0.0
C946 C 0.12379 0.4417 0.72892 0.0
C947 C 0.14101 0.44585 0.71726 0.0
C948 C 0.1211 0.43624 0.76633 0.0
C949 C 0.09103 0.43627 0.71484 0.0
C950 C 0.10967 0.44579 0.78884 0.0
C951 C 0.1054 0.43916 0.82248 0.0
C952 C 0.11253 0.42288 0.8341 0.0
C953 C 0.1248 0.41395 0.81229 0.0
C954 C 0.12906 0.42059 0.77875 0.0
H955 H 0.08256 0.43325 0.69145 0.0
H956 H 0.09121 0.42446 0.7325 0.0
H957 H 0.08483 0.44744 0.72964 0.0
H958 H 0.10361 0.45806 0.77991 0.0
H959 H 0.09596 0.4464 0.8387 0.0
H960 H 0.57549 0.9173 0.6602 0.0
H961 H 0.56986 0.91002 0.72239 0.0
H962 H 0.60819 0.8675 0.71663 0.0
H963 H 0.61376 0.87449 0.65431 0.0
H964 H 0.57797 0.86039 0.76203 0.0
H965 H 0.61103 0.92514 0.7892 0.0
H966 H 0.59191 0.92649 0.76084 0.0
H967 H 0.61134 0.91476 0.74599 0.0
C968 C 0.58238 0.9061 0.67186 0.0
C969 C 0.59533 0.8967 0.65255 0.0
C970 C 0.57917 0.90198 0.7074 0.0
C971 C 0.58893 0.88851 0.72417 0.0
C972 C 0.60061 0.87802 0.70412 0.0
H973 H 0.61533 0.8903 0.94762 0.0
H974 H 0.61655 0.88692 0.88296 0.0
C975 C 0.60377 0.88205 0.66849 0.0
C976 C 0.58872 0.88692 0.76324 0.0
H977 H 0.59967 0.9096 0.83858 0.0
C978 C 0.58269 0.87111 0.77888 0.0
C979 C 0.5953 0.90081 0.78495 0.0
C980 C 0.60292 0.9177 0.76949 0.0
C981 C 0.5827 0.86899 0.81595 0.0
C982 C 0.58873 0.88313 0.83766 0.0
C983 C 0.59502 0.89879 0.82186 0.0
C984 C 0.58833 0.88236 0.8769 0.0
C985 C 0.57651 0.85157 0.83149 0.0
C986 C 0.57212 0.88063 0.8949 0.0
C987 C 0.57143 0.88252 0.93176 0.0
C988 C 0.58692 0.88636 0.9512 0.0
C989 C 0.60321 0.88745 0.93323 0.0
C990 C 0.60391 0.88547 0.8964 0.0
H991 H 0.57725 0.8406 0.81173 0.0
H992 H 0.58455 0.84789 0.85508 0.0
H993 H 0.56246 0.85291 0.83996 0.0
H994 H 0.55988 0.8787 0.88032 0.0
H995 H 0.55862 0.88194 0.94472 0.0
H996 H 0.5706 0.59493 0.13047 0.0
H997 H 0.57996 0.59434 0.19285 0.0
H998 H 0.52574 0.58504 0.22492 0.0
H999 H 0.51633 0.5864 0.16311 0.0
H1000 H 0.53903 0.61129 0.26141 0.0
H1001 H 0.58746 0.55579 0.26424 0.0
H1002 H 0.59291 0.5726 0.2323 0.0
H1003 H 0.57299 0.55965 0.22688 0.0
C1004 C 0.56079 0.59232 0.15083 0.0
C1005 C 0.54274 0.59066 0.14193 0.0
C1006 C 0.56614 0.59196 0.18651 0.0
C1007 C 0.55358 0.58951 0.21374 0.0
C1008 C 0.53569 0.58701 0.20453 0.0
H1009 H 0.57063 0.56669 0.43558 0.0
H1010 H 0.56565 0.56619 0.37153 0.0
C1011 C 0.53033 0.5877 0.16912 0.0
C1012 C 0.5586 0.59092 0.25192 0.0
H1013 H 0.58574 0.57382 0.31603 0.0
C1014 C 0.54923 0.60304 0.27334 0.0
C1015 C 0.57184 0.58013 0.26762 0.0
C1016 C 0.58177 0.56619 0.24667 0.0
C1017 C 0.55247 0.60449 0.30994 0.0
C1018 C 0.56598 0.59399 0.32553 0.0
C1019 C 0.57551 0.582 0.30407 0.0
C1020 C 0.5697 0.59448 0.36437 0.0
C1021 C 0.54087 0.61677 0.33163 0.0
C1022 C 0.57387 0.61051 0.38182 0.0
C1023 C 0.57648 0.61085 0.41866 0.0
C1024 C 0.57542 0.5951 0.43857 0.0
C1025 C 0.57174 0.57901 0.42091 0.0
C1026 C 0.56887 0.57872 0.38427 0.0
H1027 H 0.5282 0.61983 0.3178 0.0
H1028 H 0.53769 0.61088 0.35789 0.0
H1029 H 0.54796 0.62952 0.33604 0.0
H1030 H 0.57508 0.62277 0.36699 0.0
H1031 H 0.57952 0.62337 0.43157 0.0
H1032 H 0.87023 0.5809 0.93934 0.0
H1033 H 0.87253 0.57221 0.87696 0.0
H1034 H 0.91368 0.5346 0.90362 0.0
H1035 H 0.91177 0.54373 0.9661 0.0
H1036 H 0.92158 0.55157 0.84336 0.0
H1037 H 0.85216 0.52768 0.83558 0.0
H1038 H 0.85344 0.55059 0.84863 0.0
H1039 H 0.8625 0.53362 0.87709 0.0
C1040 C 0.87968 0.5707 0.93192 0.0
C1041 C 0.89065 0.5628 0.95765 0.0
C1042 C 0.88097 0.56571 0.89626 0.0
C1043 C 0.89295 0.55241 0.88564 0.0
C1044 C 0.90425 0.54481 0.91117 0.0
H1045 H 0.88255 0.49298 0.69063 0.0
H1046 H 0.88397 0.50349 0.75169 0.0
C1047 C 0.90315 0.55001 0.94683 0.0
C1048 C 0.89356 0.54635 0.84803 0.0
H1049 H 0.86767 0.53019 0.78094 0.0
C1050 C 0.90982 0.54681 0.82972 0.0
C1051 C 0.87827 0.53989 0.83034 0.0
C1052 C 0.86066 0.53772 0.84902 0.0
C1053 C 0.91116 0.54113 0.79419 0.0
C1054 C 0.89571 0.53532 0.77615 0.0
C1055 C 0.8795 0.53481 0.79456 0.0
C1056 C 0.89601 0.52883 0.73877 0.0
C1057 C 0.9292 0.54095 0.77678 0.0
C1058 C 0.90242 0.53949 0.71089 0.0
C1059 C 0.90188 0.53334 0.67571 0.0
C1060 C 0.89452 0.51661 0.66778 0.0
C1061 C 0.88814 0.50601 0.69573 0.0
C1062 C 0.88896 0.51201 0.73075 0.0
H1063 H 0.94005 0.54081 0.79676 0.0
H1064 H 0.93076 0.52921 0.75914 0.0
H1065 H 0.93076 0.55315 0.76052 0.0
H1066 H 0.90752 0.5527 0.7162 0.0
H1067 H 0.90679 0.54184 0.65469 0.0
H1068 H 0.94399 0.84274 0.16947 0.0
H1069 H 0.93523 0.84664 0.23151 0.0
H1070 H 0.96405 0.89615 0.23592 0.0
H1071 H 0.97289 0.89243 0.17381 0.0
H1072 H 0.95955 0.8505 0.29068 0.0
H1073 H 0.91396 0.90821 0.27643 0.0
H1074 H 0.9201 0.89417 0.23942 0.0
H1075 H 0.93536 0.91059 0.25583 0.0
C1076 C 0.94832 0.85458 0.18344 0.0
C1077 C 0.95912 0.8673 0.16657 0.0
C1078 C 0.94334 0.85674 0.21895 0.0
C1079 C 0.94888 0.87173 0.23819 0.0
C1080 C 0.95943 0.8846 0.22137 0.0
H1081 H 0.93471 0.90961 0.45332 0.0
H1082 H 0.94273 0.90521 0.39107 0.0
C1083 C 0.96451 0.88241 0.18588 0.0
C1084 C 0.94421 0.87354 0.27628 0.0
H1085 H 0.92109 0.8993 0.33494 0.0
C1086 C 0.95108 0.86111 0.30042 0.0
C1087 C 0.93321 0.88743 0.28881 0.0
C1088 C 0.92508 0.90081 0.26383 0.0
C1089 C 0.94756 0.86243 0.33698 0.0
C1090 C 0.9365 0.87631 0.34957 0.0
C1091 C 0.92956 0.88867 0.3253 0.0
C1092 C 0.93217 0.87849 0.38784 0.0
C1093 C 0.95614 0.84925 0.36182 0.0
C1094 C 0.92356 0.86492 0.40685 0.0
C1095 C 0.91903 0.86738 0.4426 0.0
C1096 C 0.92277 0.88356 0.45982 0.0
C1097 C 0.93145 0.89707 0.44072 0.0
C1098 C 0.93609 0.89456 0.40515 0.0
H1099 H 0.9679 0.84279 0.3495 0.0
H1100 H 0.96036 0.85578 0.38691 0.0
H1101 H 0.94643 0.83866 0.36844 0.0
H1102 H 0.92001 0.85255 0.39387 0.0
H1103 H 0.91212 0.85683 0.45643 0.0
H1104 H 0.97594 0.89941 0.94803 0.0
H1105 H 0.97073 0.90441 0.88456 0.0
H1106 H 0.9347 0.85973 0.88251 0.0
H1107 H 0.93912 0.85554 0.94643 0.0
H1108 H 0.97648 0.88648 0.82779 0.0
H1109 H 0.90379 0.8955 0.83775 0.0
H1110 H 0.91775 0.89404 0.87644 0.0
H1111 H 0.9104 0.87413 0.85403 0.0
C1112 C 0.96688 0.89075 0.93387 0.0
C1113 C 0.95776 0.87723 0.95193 0.0
C1114 C 0.96391 0.89357 0.89767 0.0
C1115 C 0.95198 0.88272 0.87875 0.0
C1116 C 0.94344 0.86872 0.89664 0.0
H1117 H 0.94948 0.88145 0.64541 0.0
H1118 H 0.95621 0.87513 0.70783 0.0
C1119 C 0.94605 0.86622 0.93304 0.0
C1120 C 0.94858 0.88606 0.84038 0.0
H1121 H 0.9155 0.89186 0.77957 0.0
C1122 C 0.96314 0.88779 0.81729 0.0
C1123 C 0.93119 0.88807 0.82663 0.0
C1124 C 0.91493 0.88804 0.85009 0.0
C1125 C 0.96082 0.89144 0.78099 0.0
C1126 C 0.9434 0.8926 0.76697 0.0
C1127 C 0.92886 0.89082 0.79009 0.0
C1128 C 0.93977 0.89637 0.72882 0.0
C1129 C 0.9771 0.89462 0.75851 0.0
C1130 C 0.92782 0.90997 0.71966 0.0
C1131 C 0.9235 0.91312 0.68421 0.0
C1132 C 0.9313 0.903 0.657 0.0
C1133 C 0.94347 0.88958 0.66591 0.0
C1134 C 0.94743 0.88608 0.70158 0.0
H1135 H 0.98857 0.89896 0.77494 0.0
H1136 H 0.98091 0.88202 0.74512 0.0
H1137 H 0.97462 0.90488 0.73794 0.0
H1138 H 0.92173 0.91814 0.74002 0.0
H1139 H 0.91411 0.9236 0.67809 0.0
H1140 H 0.60728 0.95023 0.45113 0.0
H1141 H 0.6034 0.95661 0.38794 0.0
H1142 H 0.60289 0.90035 0.36522 0.0
H1143 H 0.60683 0.89387 0.42838 0.0
H1144 H 0.62319 0.94679 0.32651 0.0
H1145 H 0.55522 0.91877 0.3257 0.0
H1146 H 0.56687 0.92417 0.36622 0.0
H1147 H 0.57129 0.90357 0.34344 0.0
C1148 C 0.6067 0.93922 0.43264 0.0
C1149 C 0.60729 0.9215 0.4447 0.0
C1150 C 0.60437 0.9429 0.39659 0.0
C1151 C 0.60253 0.92895 0.37215 0.0
C1152 C 0.6039 0.91129 0.38388 0.0
H1153 H 0.61367 0.9093 0.15731 0.0
H1154 H 0.61836 0.92 0.21741 0.0
C1155 C 0.60618 0.9076 0.41986 0.0
C1156 C 0.59864 0.93264 0.33445 0.0
H1157 H 0.5693 0.92204 0.26902 0.0
C1158 C 0.61129 0.94167 0.31391 0.0
C1159 C 0.58285 0.92645 0.31839 0.0
C1160 C 0.56818 0.91787 0.33965 0.0
C1161 C 0.60914 0.94344 0.27705 0.0
C1162 C 0.59414 0.9357 0.2605 0.0
C1163 C 0.58089 0.92788 0.28156 0.0
C1164 C 0.59289 0.93324 0.22155 0.0
C1165 C 0.62315 0.95324 0.25621 0.0
C1166 C 0.57712 0.93737 0.20343 0.0
C1167 C 0.57426 0.93095 0.16904 0.0
C1168 C 0.58711 0.92024 0.15238 0.0
C1169 C 0.60346 0.91743 0.16945 0.0
C1170 C 0.60626 0.92374 0.2038 0.0
H1171 H 0.62918 0.96402 0.27244 0.0
H1172 H 0.63392 0.94384 0.24893 0.0
H1173 H 0.61763 0.95912 0.23153 0.0
H1174 H 0.5666 0.94463 0.21668 0.0
H1175 H 0.56155 0.93343 0.15654 0.0
H1176 H 0.57212 0.61951 0.95628 0.0
H1177 H 0.57857 0.61635 0.8929 0.0
H1178 H 0.52267 0.61972 0.8693 0.0
H1179 H 0.51615 0.62349 0.93229 0.0
H1180 H 0.56732 0.58989 0.84731 0.0
H1181 H 0.54371 0.65565 0.80044 0.0
H1182 H 0.54758 0.65089 0.84676 0.0
H1183 H 0.52744 0.64359 0.82558 0.0
C1184 C 0.56121 0.6199 0.93761 0.0
C1185 C 0.5436 0.62177 0.94958 0.0
C1186 C 0.56491 0.61796 0.90136 0.0
C1187 C 0.55112 0.618 0.87626 0.0
C1188 C 0.53356 0.61995 0.88806 0.0
H1189 H 0.55884 0.57581 0.66041 0.0
H1190 H 0.55065 0.5815 0.72227 0.0
C1191 C 0.52985 0.62189 0.92425 0.0
C1192 C 0.55503 0.6153 0.8379 0.0
H1193 H 0.55011 0.63408 0.75589 0.0
C1194 C 0.56361 0.59958 0.82733 0.0
C1195 C 0.55033 0.62802 0.81186 0.0
C1196 C 0.54191 0.64557 0.82168 0.0
C1197 C 0.56743 0.59611 0.79144 0.0
C1198 C 0.56223 0.60858 0.76527 0.0
C1199 C 0.55387 0.62442 0.77589 0.0
C1200 C 0.56601 0.60573 0.7269 0.0
C1201 C 0.57734 0.5793 0.782 0.0
C1202 C 0.57671 0.61787 0.70839 0.0
C1203 C 0.58127 0.61476 0.67292 0.0
C1204 C 0.57519 0.59944 0.65512 0.0
C1205 C 0.56386 0.58768 0.6733 0.0
C1206 C 0.55927 0.59083 0.7088 0.0
H1207 H 0.58428 0.57359 0.80537 0.0
H1208 H 0.56779 0.56922 0.77208 0.0
H1209 H 0.58728 0.58182 0.76081 0.0
H1210 H 0.58197 0.62952 0.72171 0.0
H1211 H 0.58998 0.62414 0.65979 0.0
H1212 H 0.90696 0.54071 0.16562 0.0
H1213 H 0.90476 0.52776 0.22513 0.0
H1214 H 0.85852 0.55993 0.24626 0.0
H1215 H 0.86045 0.57265 0.18694 0.0
H1216 H 0.90778 0.54641 0.28679 0.0
H1217 H 0.84266 0.51251 0.28464 0.0
H1218 H 0.85382 0.51946 0.24458 0.0
H1219 H 0.84098 0.53515 0.2701 0.0
C1220 C 0.89601 0.54462 0.18255 0.0
C1221 C 0.88383 0.55768 0.17145 0.0
C1222 C 0.89484 0.53729 0.21667 0.0
C1223 C 0.88135 0.54271 0.2401 0.0
C1224 C 0.8688 0.55521 0.22849 0.0
H1225 H 0.85621 0.54027 0.46232 0.0
H1226 H 0.85874 0.54559 0.39845 0.0
C1227 C 0.86998 0.56255 0.19453 0.0
C1228 C 0.88126 0.53669 0.2777 0.0
H1229 H 0.85441 0.51962 0.34238 0.0
C1230 C 0.89622 0.54028 0.29883 0.0
C1231 C 0.86616 0.52872 0.29346 0.0
C1232 C 0.85008 0.52357 0.27191 0.0
C1233 C 0.8962 0.53685 0.33551 0.0
C1234 C 0.88086 0.52947 0.35142 0.0
C1235 C 0.8661 0.52542 0.33017 0.0
C1236 C 0.87968 0.52633 0.39026 0.0
C1237 C 0.91231 0.54177 0.35722 0.0
C1238 C 0.89058 0.51369 0.40685 0.0
C1239 C 0.8892 0.51065 0.44341 0.0
C1240 C 0.87687 0.52019 0.46412 0.0
C1241 C 0.866 0.53287 0.44735 0.0
C1242 C 0.86734 0.53583 0.41077 0.0
H1243 H 0.92158 0.55049 0.34229 0.0
H1244 H 0.90832 0.54867 0.38207 0.0
H1245 H 0.91956 0.52948 0.36468 0.0
H1246 H 0.90006 0.50606 0.39146 0.0
H1247 H 0.89787 0.50091 0.45548 0.0
H1248 H 0.40849 0.08377 0.05056 0.0
H1249 H 0.40649 0.08335 0.11533 0.0
H1250 H 0.4065 0.14071 0.11732 0.0
H1251 H 0.40863 0.14119 0.05213 0.0
H1252 H 0.43465 0.10164 0.15778 0.0
H1253 H 0.3655 0.12336 0.18795 0.0
H1254 H 0.37118 0.11306 0.14608 0.0
H1255 H 0.37823 0.13536 0.15527 0.0
C1256 C 0.40771 0.09629 0.06477 0.0
C1257 C 0.40879 0.1125 0.04638 0.0
C1258 C 0.4066 0.09603 0.1017 0.0
C1259 C 0.40644 0.11198 0.12102 0.0
C1260 C 0.40649 0.12826 0.10278 0.0
H1261 H 0.42999 0.10406 0.35108 0.0
H1262 H 0.42994 0.11622 0.2905 0.0
C1263 C 0.4076 0.12852 0.06561 0.0
C1264 C 0.40777 0.11124 0.16018 0.0
H1265 H 0.38319 0.11418 0.23606 0.0
C1266 C 0.42353 0.10467 0.17508 0.0
C1267 C 0.39321 0.11519 0.18241 0.0
C1268 C 0.37599 0.12209 0.16737 0.0
C1269 C 0.42487 0.10116 0.21155 0.0
C1270 C 0.41008 0.10449 0.2337 0.0
C1271 C 0.39455 0.11177 0.21899 0.0
C1272 C 0.40967 0.09827 0.271 0.0
C1273 C 0.4417 0.09293 0.22578 0.0
C1274 C 0.39819 0.08436 0.2801 0.0
C1275 C 0.39822 0.07742 0.31437 0.0
C1276 C 0.40966 0.08431 0.34053 0.0
C1277 C 0.42107 0.09842 0.33152 0.0
C1278 C 0.42104 0.10538 0.29698 0.0
H1279 H 0.45095 0.0889 0.20423 0.0
H1280 H 0.44862 0.1027 0.24304 0.0
H1281 H 0.43858 0.08105 0.24213 0.0
H1282 H 0.38944 0.07857 0.26038 0.0
H1283 H 0.38946 0.06638 0.32005 0.0
H1284 H 0.42486 0.33971 0.83626 0.0
H1285 H 0.41494 0.34053 0.77439 0.0
H1286 H 0.43212 0.39511 0.76631 0.0
H1287 H 0.44232 0.39437 0.82784 0.0
H1288 H 0.39033 0.36248 0.74021 0.0
H1289 H 0.45772 0.37102 0.68361 0.0
H1290 H 0.45404 0.36439 0.72907 0.0
H1291 H 0.45238 0.38743 0.71659 0.0
C1292 C 0.42652 0.3519 0.82134 0.0
C1293 C 0.43453 0.36693 0.8369 0.0
C1294 C 0.42083 0.35234 0.78601 0.0
C1295 C 0.4231 0.36776 0.76562 0.0
C1296 C 0.43061 0.38293 0.78137 0.0
H1297 H 0.3993 0.4091 0.56205 0.0
H1298 H 0.40616 0.40281 0.62383 0.0
C1299 C 0.43635 0.38251 0.81661 0.0
C1300 C 0.41768 0.36807 0.72781 0.0
H1301 H 0.43336 0.37648 0.64451 0.0
C1302 C 0.39975 0.36532 0.71918 0.0
C1303 C 0.43005 0.3716 0.70045 0.0
C1304 C 0.44965 0.3736 0.70779 0.0
C1305 C 0.39372 0.36685 0.68399 0.0
C1306 C 0.406 0.37112 0.65696 0.0
C1307 C 0.42399 0.37329 0.66543 0.0
C1308 C 0.40035 0.3747 0.62008 0.0
C1309 C 0.37423 0.36463 0.67603 0.0
C1310 C 0.3947 0.36094 0.59752 0.0
C1311 C 0.39064 0.36451 0.56193 0.0
C1312 C 0.39211 0.38191 0.54852 0.0
C1313 C 0.39755 0.39564 0.57153 0.0
C1314 C 0.40166 0.39205 0.60687 0.0
H1315 H 0.36615 0.36328 0.70056 0.0
H1316 H 0.36927 0.37619 0.66061 0.0
H1317 H 0.37226 0.35254 0.65953 0.0
H1318 H 0.39381 0.34741 0.60723 0.0
H1319 H 0.38651 0.3537 0.54478 0.0
H1320 H 0.08315 0.41543 0.06132 0.0
H1321 H 0.08392 0.4249 0.1236 0.0
H1322 H 0.13258 0.45346 0.10411 0.0
H1323 H 0.13175 0.44432 0.04181 0.0
H1324 H 0.11181 0.41826 0.1738 0.0
H1325 H 0.09997 0.49043 0.15362 0.0
H1326 H 0.09494 0.47394 0.12013 0.0
H1327 H 0.11742 0.48127 0.12667 0.0
C1328 C 0.09388 0.42391 0.07018 0.0
C1329 C 0.10738 0.42914 0.04655 0.0
C1330 C 0.09435 0.42923 0.1058 0.0
C1331 C 0.10819 0.44004 0.11834 0.0
C1332 C 0.12165 0.44532 0.09485 0.0
H1333 H 0.14994 0.45996 0.32668 0.0
H1334 H 0.14346 0.44975 0.26645 0.0
C1335 C 0.12125 0.43993 0.05933 0.0
C1336 C 0.10897 0.44536 0.15623 0.0
H1337 H 0.10996 0.48161 0.211 0.0
C1338 C 0.11125 0.43209 0.18201 0.0
C1339 C 0.10803 0.46339 0.16688 0.0
C1340 C 0.10479 0.4781 0.14046 0.0
C1341 C 0.11326 0.43645 0.21808 0.0
C1342 C 0.11313 0.45454 0.22851 0.0
C1343 C 0.1102 0.46775 0.20289 0.0
C1344 C 0.11665 0.46008 0.26566 0.0
C1345 C 0.11555 0.42166 0.24473 0.0
C1346 C 0.10379 0.46947 0.28508 0.0
C1347 C 0.10745 0.47535 0.31961 0.0
C1348 C 0.12413 0.47211 0.33515 0.0
C1349 C 0.13694 0.46264 0.3156 0.0
C1350 C 0.13324 0.4567 0.2812 0.0
H1351 H 0.11068 0.40873 0.23418 0.0
H1352 H 0.12986 0.42018 0.25105 0.0
H1353 H 0.10838 0.42472 0.26977 0.0
H1354 H 0.09095 0.47231 0.27346 0.0
H1355 H 0.09731 0.48268 0.33384 0.0
H1356 H 0.04258 0.12849 0.52829 0.0
H1357 H 0.03593 0.12977 0.59162 0.0
H1358 H 0.08402 0.10093 0.61448 0.0
H1359 H 0.09105 0.09989 0.55115 0.0
H1360 H 0.05232 0.08668 0.64606 0.0
H1361 H 0.05982 0.15905 0.67203 0.0
H1362 H 0.04611 0.15345 0.63458 0.0
H1363 H 0.06938 0.14825 0.63364 0.0
C1364 C 0.05198 0.12273 0.54665 0.0
C1365 C 0.06737 0.11402 0.53433 0.0
C1366 C 0.04811 0.12346 0.58296 0.0
C1367 C 0.05954 0.11556 0.60777 0.0
C1368 C 0.07503 0.10712 0.59576 0.0
H1369 H 0.04845 0.09487 0.83572 0.0
H1370 H 0.05938 0.09622 0.77454 0.0
C1371 C 0.07896 0.10646 0.55947 0.0
C1372 C 0.05479 0.1152 0.64601 0.0
H1373 H 0.04666 0.14181 0.71779 0.0
C1374 C 0.05122 0.09871 0.66189 0.0
C1375 C 0.05328 0.13092 0.66646 0.0
C1376 C 0.05748 0.14894 0.651 0.0
C1377 C 0.04569 0.09753 0.69744 0.0
C1378 C 0.04412 0.11327 0.71794 0.0
C1379 C 0.04789 0.12976 0.70211 0.0
C1380 C 0.03803 0.11296 0.75549 0.0
C1381 C 0.04097 0.07949 0.71227 0.0
C1382 C 0.02275 0.12241 0.76547 0.0
C1383 C 0.0166 0.12184 0.80048 0.0
C1384 C 0.02562 0.1118 0.82632 0.0
C1385 C 0.04112 0.10261 0.81643 0.0
C1386 C 0.04733 0.10328 0.78141 0.0
H1387 H 0.03835 0.06964 0.69087 0.0
H1388 H 0.05222 0.07448 0.72841 0.0
H1389 H 0.02906 0.0803 0.72959 0.0
H1390 H 0.01539 0.13001 0.74599 0.0
H1391 H 0.00459 0.12904 0.80708 0.0
H1392 H 0.06249 0.90666 0.14226 0.0
H1393 H 0.07265 0.93086 0.18081 0.0
H1394 H 0.02312 0.92909 0.23804 0.0
H1395 H 0.01287 0.90476 0.19965 0.0
H1396 H 0.05223 0.96522 0.19047 0.0
H1397 H 0.06482 0.92721 0.31479 0.0
H1398 H 0.06485 0.91675 0.27154 0.0
H1399 H 0.04425 0.92312 0.29176 0.0
C1400 C 0.05388 0.91118 0.16344 0.0
C1401 C 0.03688 0.90375 0.16798 0.0
C1402 C 0.05965 0.9251 0.18524 0.0
C1403 C 0.04865 0.93169 0.21227 0.0
C1404 C 0.03183 0.9241 0.21742 0.0
H1405 H 0.05797 0.02907 0.337 0.0
H1406 H 0.04716 0.00468 0.29982 0.0
C1407 C 0.02598 0.91027 0.19541 0.0
C1408 C 0.05454 0.94695 0.23417 0.0
H1409 H 0.06859 0.95838 0.31735 0.0
C1410 C 0.05577 0.96377 0.21823 0.0
C1411 C 0.05918 0.94493 0.27029 0.0
C1412 C 0.05835 0.92704 0.28827 0.0
C1413 C 0.0615 0.9787 0.23761 0.0
C1414 C 0.06612 0.97668 0.27373 0.0
C1415 C 0.06494 0.95985 0.28965 0.0
C1416 C 0.07272 0.99181 0.29516 0.0
C1417 C 0.06286 -0.00351 0.21936 0.0
C1418 C 0.09068 0.99266 0.30464 0.0
C1419 C 0.09698 0.00669 0.3255 0.0
C1420 C 0.0854 0.02009 0.33772 0.0
C1421 C 0.06738 0.01922 0.32782 0.0
C1422 C 0.06111 0.00521 0.3067 0.0
H1423 H 0.06087 0.9954 0.1902 0.0
H1424 H 0.05263 0.0056 0.23028 0.0
H1425 H 0.07605 0.00256 0.22453 0.0
H1426 H 0.09983 0.98245 0.29582 0.0
H1427 H 0.11097 0.007 0.33199 0.0
H1428 H 0.56452 0.96749 0.66191 0.0
H1429 H 0.54367 0.98274 0.70089 0.0
H1430 H 0.5871 0.0093 0.75329 0.0
H1431 H 0.60827 0.9937 0.71503 0.0
H1432 H 0.54321 0.98369 0.78052 0.0
H1433 H 0.5522 0.04928 0.71467 0.0
H1434 H 0.55806 0.0285 0.69349 0.0
H1435 H 0.57221 0.03779 0.72709 0.0
C1436 C 0.56979 0.97628 0.68206 0.0
C1437 C 0.58819 0.97933 0.68521 0.0
C1438 C 0.55777 0.98508 0.70419 0.0
C1439 C 0.56388 -0.00279 0.72963 0.0
C1440 C 0.58217 0.0001 0.73343 0.0
H1441 H 0.51794 0.0491 0.90866 0.0
H1442 H 0.53322 0.02919 0.86749 0.0
C1443 C 0.59423 0.99122 0.71146 0.0
C1444 C 0.55108 0.00714 0.75178 0.0
H1445 H 0.53521 0.0489 0.76758 0.0
C1446 C 0.54134 -0.00207 0.77763 0.0
C1447 C 0.54851 0.02562 0.7474 0.0
C1448 C 0.55816 0.03594 0.719 0.0
C1449 C 0.52952 0.00691 0.80023 0.0
C1450 C 0.52753 0.02554 0.79685 0.0
C1451 C 0.53679 0.03461 0.77011 0.0
C1452 C 0.51693 0.03613 0.82227 0.0
C1453 C 0.51935 -0.00357 0.82766 0.0
C1454 C 0.50269 0.04662 0.81046 0.0
C1455 C 0.49397 0.0581 0.83398 0.0
C1456 C 0.4996 0.05945 0.86943 0.0
C1457 C 0.51353 0.04854 0.88133 0.0
C1458 C 0.52212 0.037 0.85796 0.0
H1459 H 0.51821 0.98218 0.82005 0.0
H1460 H 0.52652 -0.00288 0.85337 0.0
H1461 H 0.50582 0.00195 0.83161 0.0
H1462 H 0.49859 0.0462 0.78291 0.0
H1463 H 0.48332 0.06642 0.82417 0.0
H1464 H 0.40662 0.46047 0.31555 0.0
H1465 H 0.41917 0.47917 0.26829 0.0
H1466 H 0.43154 0.51977 0.34544 0.0
H1467 H 0.41916 0.5012 0.39255 0.0
H1468 H 0.40689 0.51573 0.25258 0.0
H1469 H 0.47845 0.51191 0.28728 0.0
H1470 H 0.46248 0.49545 0.30153 0.0
H1471 H 0.46385 0.51652 0.32394 0.0
C1472 C 0.41225 0.47328 0.3224 0.0
C1473 C 0.41185 0.47943 0.35766 0.0
C1474 C 0.41932 0.48395 0.29544 0.0
C1475 C 0.42638 0.50076 0.30351 0.0
C1476 C 0.42632 0.50676 0.33877 0.0
H1477 H 0.4454 0.59725 0.18965 0.0
H1478 H 0.43445 0.57318 0.22724 0.0
C1479 C 0.4191 0.49621 0.36558 0.0
C1480 C 0.43297 0.51259 0.2751 0.0
H1481 H 0.46989 0.53486 0.24712 0.0
C1482 C 0.42069 0.51977 0.25105 0.0
C1483 C 0.451 0.51772 0.27314 0.0
C1484 C 0.46478 0.50991 0.29763 0.0
C1485 C 0.42587 0.53252 0.22591 0.0
C1486 C 0.44374 0.53825 0.22504 0.0
C1487 C 0.45616 0.53053 0.24812 0.0
C1488 C 0.44972 0.55262 0.20108 0.0
C1489 C 0.41221 0.53991 0.20066 0.0
C1490 C 0.462 0.54902 0.17407 0.0
C1491 C 0.46819 0.56272 0.1523 0.0
C1492 C 0.46239 0.58037 0.15744 0.0
C1493 C 0.44999 0.58386 0.18452 0.0
C1494 C 0.44373 0.57011 0.20612 0.0
H1495 H 0.40019 0.53136 0.1993 0.0
H1496 H 0.40809 0.55332 0.20989 0.0
H1497 H 0.41783 0.5413 0.17355 0.0
H1498 H 0.46677 0.53558 0.16981 0.0
H1499 H 0.47746 0.55939 0.13142 0.0
H1500 H 0.90585 0.46105 0.70684 0.0
H1501 H 0.93159 0.4506 0.74069 0.0
H1502 H 0.9305 0.40096 0.68324 0.0
H1503 H 0.90469 0.41136 0.64917 0.0
H1504 H 0.93582 0.41197 0.77971 0.0
H1505 H 0.98153 0.43076 0.66935 0.0
H1506 H 0.96063 0.44207 0.67606 0.0
H1507 H 0.96082 0.41974 0.65941 0.0
C1508 C 0.91097 0.44782 0.70179 0.0
C1509 C 0.90334 0.43703 0.67535 0.0
C1510 C 0.9256 0.44187 0.72113 0.0
C1511 C 0.93291 0.4251 0.71419 0.0
C1512 C 0.92496 0.41396 0.68886 0.0
H1513 H 0.02098 0.37302 0.82225 0.0
H1514 H 0.99345 0.37922 0.79009 0.0
C1515 C 0.91019 0.41986 0.66964 0.0
C1516 C 0.94949 0.41978 0.73209 0.0
H1517 H 0.9945 0.41952 0.72159 0.0
C1518 C 0.94866 0.41344 0.76701 0.0
C1519 C 0.96614 0.42198 0.71538 0.0
C1520 C 0.96752 0.42904 0.678 0.0
C1521 C 0.96419 0.40928 0.78586 0.0
C1522 C 0.98087 0.41148 0.76917 0.0
C1523 C 0.98166 0.4178 0.73418 0.0
C1524 C -0.00232 0.40766 0.78794 0.0
C1525 C 0.96273 0.40298 0.82376 0.0
C1526 C 0.00928 0.42158 0.79674 0.0
C1527 C 0.02504 0.41808 0.81503 0.0
C1528 C 0.02954 0.40056 0.82447 0.0
C1529 C 0.01799 0.38662 0.81506 0.0
C1530 C 0.00218 0.39015 0.79698 0.0
H1531 H 0.9492 0.40506 0.83476 0.0
H1532 H 0.96579 0.38854 0.82489 0.0
H1533 H 0.97247 0.41003 0.84088 0.0
H1534 H 0.00604 0.43518 0.78977 0.0
H1535 H 0.03376 0.42906 0.82153 0.0
H1536 H 0.97001 0.08846 0.79684 0.0
H1537 H 0.95832 0.06499 0.75841 0.0
H1538 H 0.90638 0.07189 0.8045 0.0
H1539 H 0.91799 0.09522 0.84339 0.0
H1540 H 0.94221 0.03313 0.78253 0.0
H1541 H 0.89665 0.07217 0.69665 0.0
H1542 H 0.91401 0.08242 0.72269 0.0
H1543 H 0.89375 0.0754 0.74359 0.0
C1544 C 0.95609 0.08503 0.79882 0.0
C1545 C 0.94497 0.09372 0.82339 0.0
C1546 C 0.94941 0.07167 0.77669 0.0
C1547 C 0.93146 0.0668 0.7784 0.0
C1548 C 0.92021 0.07567 0.8023 0.0
H1549 H 0.86913 0.98415 0.67426 0.0
H1550 H 0.87934 0.00911 0.7109 0.0
C1551 C 0.92688 0.08903 0.82451 0.0
C1552 C 0.92479 0.05175 0.75666 0.0
H1553 H 0.8955 0.04078 0.69096 0.0
C1554 C 0.93204 0.0348 0.7624 0.0
C1555 C 0.91144 0.05397 0.73064 0.0
C1556 C 0.90357 0.07198 0.7227 0.0
C1557 C 0.92618 0.01993 0.74307 0.0
C1558 C 0.91297 0.02216 0.71672 0.0
C1559 C 0.90563 0.0391 0.71114 0.0
C1560 C 0.90679 0.0071 0.69438 0.0
C1561 C 0.93394 0.00192 0.75156 0.0
C1562 C 0.91876 -0.00213 0.67255 0.0
C1563 C 0.91298 0.98361 0.65168 0.0
C1564 C 0.89503 0.9784 0.65192 0.0
C1565 C 0.883 0.98788 0.67336 0.0
C1566 C 0.88883 0.00211 0.69436 0.0
H1567 H 0.93995 0.00165 0.77849 0.0
H1568 H 0.92368 0.99134 0.74992 0.0
H1569 H 0.94455 -0.00122 0.73208 0.0
H1570 H 0.93259 0.00178 0.67142 0.0
H1571 H 0.92252 0.9769 0.63487 0.0
H1572 H 0.52257 0.93169 0.17954 0.0
H1573 H 0.50313 0.95042 0.21598 0.0
H1574 H 0.45788 0.91933 0.18315 0.0
H1575 H 0.47715 0.90063 0.14672 0.0
H1576 H 0.47385 0.97108 0.19627 0.0
H1577 H 0.45404 0.91833 0.29123 0.0
H1578 H 0.47258 0.91584 0.26126 0.0
H1579 H 0.45026 0.91258 0.24557 0.0
C1580 C 0.50847 0.92889 0.17995 0.0
C1581 C 0.50145 0.91455 0.16042 0.0
C1582 C 0.49739 0.93957 0.20089 0.0
C1583 C 0.47911 0.93607 0.20278 0.0
C1584 C 0.47202 0.92199 0.18281 0.0
H1585 H 0.38929 0.98396 0.31175 0.0
H1586 H 0.40877 0.96636 0.27326 0.0
C1587 C 0.48307 0.91129 0.16199 0.0
C1588 C 0.46736 0.94727 0.22522 0.0
H1589 H 0.43815 0.94557 0.29451 0.0
C1590 C 0.46611 0.96554 0.21788 0.0
C1591 C 0.45727 0.94 0.25338 0.0
C1592 C 0.45869 0.92065 0.26362 0.0
C1593 C 0.45475 0.97667 0.2375 0.0
C1594 C 0.44458 0.96936 0.26549 0.0
C1595 C 0.44588 0.95111 0.27289 0.0
C1596 C 0.43273 0.98045 0.28789 0.0
C1597 C 0.45345 0.99607 0.22763 0.0
C1598 C 0.43977 0.99409 0.30908 0.0
C1599 C 0.4287 0.0041 0.3312 0.0
C1600 C 0.41034 0.00062 0.33274 0.0
C1601 C 0.40335 0.98692 0.31143 0.0
C1602 C 0.41445 0.9769 0.28931 0.0
H1603 H 0.45848 -0.00142 0.20036 0.0
H1604 H 0.43952 0.00082 0.22938 0.0
H1605 H 0.46158 0.00404 0.24639 0.0
H1606 H 0.4539 -0.00322 0.30905 0.0
H1607 H 0.43466 0.01424 0.34777 0.0
H1608 H 0.56382 0.53624 0.6853 0.0
H1609 H 0.54681 0.5171 0.72549 0.0
H1610 H 0.56919 0.47062 0.67539 0.0
H1611 H 0.58597 0.4896 0.63478 0.0
H1612 H 0.53066 0.47016 0.68613 0.0
H1613 H 0.56913 0.48719 0.80781 0.0
H1614 H 0.56075 0.50552 0.78213 0.0
H1615 H 0.57754 0.49132 0.76368 0.0
C1616 C 0.56506 0.52194 0.68278 0.0
C1617 C 0.57633 0.51444 0.65698 0.0
C1618 C 0.55542 0.51105 0.70586 0.0
C1619 C 0.55686 0.49248 0.70349 0.0
C1620 C 0.56796 0.48494 0.67765 0.0
H1621 H 0.53306 0.40714 0.84455 0.0
H1622 H 0.54535 0.42857 0.80262 0.0
C1623 C 0.57767 0.49581 0.65471 0.0
C1624 C 0.54694 0.4808 0.72809 0.0
H1625 H 0.54524 0.46726 0.81445 0.0
C1626 C 0.53372 0.46959 0.71425 0.0
C1627 C 0.55108 0.48008 0.76465 0.0
C1628 C 0.56547 0.49155 0.78061 0.0
C1629 C 0.52464 0.45748 0.73608 0.0
C1630 C 0.52892 0.45666 0.77256 0.0
C1631 C 0.54197 0.46803 0.78645 0.0
C1632 C 0.52089 0.44328 0.79643 0.0
C1633 C 0.51095 0.44527 0.71991 0.0
C1634 C 0.503 0.44441 0.8066 0.0
C1635 C 0.49593 0.43222 0.83087 0.0
C1636 C 0.5067 0.41875 0.8454 0.0
C1637 C 0.5245 0.41749 0.83437 0.0
C1638 C 0.53152 0.42968 0.81028 0.0
H1639 H 0.51092 0.44591 0.69044 0.0
H1640 H 0.51341 0.43131 0.72818 0.0
H1641 H 0.49757 0.4491 0.72961 0.0
H1642 H 0.49464 0.45497 0.79645 0.0
H1643 H 0.48225 0.43371 0.83911 0.0
H1644 H 0.9626 0.60748 0.21431 0.0
H1645 H 0.985 0.59545 0.2544 0.0
H1646 H 0.95999 0.54388 0.24898 0.0
H1647 H 0.93746 0.55588 0.20859 0.0
H1648 H 0.9828 0.57839 0.32006 0.0
H1649 H 0.01087 0.53397 0.21573 0.0
H1650 H -0.00469 0.55149 0.20565 0.0
H1651 H 0.98766 0.53108 0.22512 0.0
C1652 C 0.96167 0.59366 0.22209 0.0
C1653 C 0.94838 0.58258 0.20803 0.0
C1654 C 0.97452 0.58679 0.24489 0.0
C1655 C 0.97432 0.56872 0.25408 0.0
C1656 C 0.96059 0.55777 0.2415 0.0
H1657 H 0.05625 0.51162 0.37312 0.0
H1658 H 0.02862 0.51897 0.34251 0.0
C1659 C 0.94776 0.56464 0.21849 0.0
C1660 C 0.98899 0.5614 0.27565 0.0
H1661 H 0.02497 0.53384 0.27147 0.0
C1662 C 0.99195 0.56855 0.30958 0.0
C1663 C 0.00087 0.54855 0.26182 0.0
C1664 C -0.00132 0.54089 0.225 0.0
C1665 C 0.0067 0.56343 0.32983 0.0
C1666 C 0.01885 0.55102 0.31553 0.0
C1667 C 0.01558 0.54338 0.28219 0.0
C1668 C 0.03555 0.54654 0.33395 0.0
C1669 C 0.00929 0.57146 0.3662 0.0
C1670 C 0.04868 0.55957 0.33856 0.0
C1671 C 0.06458 0.55538 0.35562 0.0
C1672 C 0.06765 0.53808 0.36836 0.0
C1673 C 0.05449 0.52501 0.36324 0.0
C1674 C 0.03862 0.5292 0.34602 0.0
H1675 H -0.00323 0.5772 0.37679 0.0
H1676 H 0.0143 0.56134 0.3852 0.0
H1677 H 0.01927 0.58229 0.36454 0.0
H1678 H 0.04666 0.57295 0.32873 0.0
H1679 H 0.07452 0.56568 0.35857 0.0
H1680 H 0.1668 0.07636 0.36065 0.0
H1681 H 0.19915 0.07565 0.36058 0.0
H1682 H 0.20036 0.11771 0.43851 0.0
H1683 H 0.16783 0.11884 0.43828 0.0
H1684 H 0.226 0.10385 0.34971 0.0
H1685 H 0.22588 0.07375 0.48482 0.0
H1686 H 0.20629 0.07429 0.45723 0.0
H1687 H 0.21372 0.09415 0.47913 0.0
C1688 C 0.17388 0.08583 0.37709 0.0
C1689 C 0.1647 0.09765 0.39957 0.0
C1690 C 0.19238 0.08532 0.37714 0.0
C1691 C 0.20205 0.09648 0.39981 0.0
C1692 C 0.19305 0.10885 0.42114 0.0
H1693 H 0.31408 0.08822 0.45551 0.0
H1694 H 0.28313 0.09789 0.4516 0.0
C1695 C 0.1745 0.10943 0.42104 0.0
C1696 C 0.22145 0.09421 0.4027 0.0
H1697 H 0.25353 0.0775 0.45714 0.0
C1698 C 0.23209 0.09824 0.37326 0.0
C1699 C 0.22925 0.08687 0.4335 0.0
C1700 C 0.21826 0.08187 0.46548 0.0
C1701 C 0.25044 0.09499 0.37371 0.0
C1702 C 0.25816 0.08713 0.40412 0.0
C1703 C 0.24755 0.08351 0.43387 0.0
C1704 C 0.27709 0.0819 0.40532 0.0
C1705 C 0.26136 0.10008 0.34172 0.0
C1706 C 0.28387 0.06955 0.38083 0.0
C1707 C 0.30152 0.06399 0.38301 0.0
C1708 C 0.31263 0.07052 0.41003 0.0
C1709 C 0.30577 0.08281 0.43464 0.0
C1710 C 0.28815 0.08844 0.43232 0.0
H1711 H 0.25475 0.11065 0.32591 0.0
H1712 H 0.27475 0.10482 0.34963 0.0
H1713 H 0.26298 0.08826 0.32431 0.0
H1714 H 0.27541 0.06395 0.36041 0.0
H1715 H 0.30638 0.05432 0.364 0.0
H1716 H 0.50745 0.16186 0.89752 0.0
H1717 H 0.5228 0.19059 0.89589 0.0
H1718 H 0.49102 0.20889 0.98397 0.0
H1719 H 0.4755 0.18052 0.98542 0.0
H1720 H 0.50512 0.22139 0.88225 0.0
H1721 H 0.53977 0.22798 0.01028 0.0
H1722 H 0.5331 0.20665 0.99241 0.0
H1723 H 0.51758 0.22008 0.01719 0.0
C1724 C 0.50386 0.17198 0.91672 0.0
C1725 C 0.49017 0.169 0.94145 0.0
C1726 C 0.51279 0.18826 0.91601 0.0
C1727 C 0.50831 0.20169 0.94027 0.0
C1728 C 0.4951 0.19849 0.96574 0.0
H1729 H 0.48052 0.30088 0.97789 0.0
H1730 H 0.49238 0.27078 0.97694 0.0
C1731 C 0.48614 0.18229 0.9664 0.0
C1732 C 0.51505 0.21998 0.93577 0.0
H1733 H 0.52741 0.25574 0.98558 0.0
C1734 C 0.51066 0.22888 0.90428 0.0
C1735 C 0.52247 0.22959 0.9644 0.0
C1736 C 0.52867 0.22049 0.99781 0.0
C1737 C 0.51128 0.24747 0.90237 0.0
C1738 C 0.5167 0.25723 0.93263 0.0
C1739 C 0.52309 0.24819 0.96257 0.0
C1740 C 0.51204 0.27617 0.93644 0.0
C1741 C 0.50435 0.25657 0.86944 0.0
C1742 C 0.5195 0.28925 0.91455 0.0
C1743 C 0.51268 0.30655 0.91498 0.0
C1744 C 0.4984 0.31094 0.93745 0.0
C1745 C 0.49162 0.29797 0.96055 0.0
C1746 C 0.49839 0.28076 0.96004 0.0
H1747 H 0.49943 0.24694 0.84931 0.0
H1748 H 0.49336 0.26577 0.87645 0.0
H1749 H 0.51512 0.26455 0.85721 0.0
H1750 H 0.53018 0.28595 0.89644 0.0
H1751 H 0.51837 0.31639 0.89735 0.0
H1752 H 0.32789 0.47306 0.46312 0.0
H1753 H 0.30414 0.495 0.45708 0.0
H1754 H 0.28238 0.46532 0.36912 0.0
H1755 H 0.30636 0.44339 0.37468 0.0
H1756 H 0.28352 0.50271 0.35802 0.0
H1757 H 0.25325 0.48507 0.48819 0.0
H1758 H 0.27621 0.49144 0.48971 0.0
H1759 H 0.26984 0.47135 0.46712 0.0
C1760 C 0.31789 0.47108 0.44281 0.0
C1761 C 0.31869 0.45634 0.41982 0.0
C1762 C 0.30444 0.48368 0.43925 0.0
C1763 C 0.29144 0.48163 0.41296 0.0
C1764 C 0.29234 0.46709 0.38958 0.0
H1765 H 0.1906 0.50969 0.35471 0.0
H1766 H 0.22254 0.50597 0.35158 0.0
C1767 C 0.30592 0.45455 0.3929 0.0
C1768 C 0.27643 0.49419 0.41076 0.0
H1769 H 0.23927 0.50726 0.4551 0.0
C1770 C 0.2739 0.5039 0.37935 0.0
C1771 C 0.26407 0.49581 0.43882 0.0
C1772 C 0.26583 0.48529 0.47278 0.0
C1773 C 0.25891 0.51474 0.37477 0.0
C1774 C 0.24613 0.51565 0.40215 0.0
C1775 C 0.24919 0.50669 0.43425 0.0
C1776 C 0.22817 0.52306 0.39654 0.0
C1777 C 0.25671 0.52477 0.34043 0.0
C1778 C 0.22073 0.53458 0.42185 0.0
C1779 C 0.20233 0.53664 0.42387 0.0
C1780 C 0.19118 0.52714 0.40068 0.0
C1781 C 0.19881 0.5173 0.37282 0.0
C1782 C 0.21716 0.51521 0.37088 0.0
H1783 H 0.26982 0.52833 0.32892 0.0
H1784 H 0.24974 0.51616 0.32093 0.0
H1785 H 0.24882 0.53711 0.34422 0.0
H1786 H 0.22902 0.54075 0.44191 0.0
H1787 H 0.1968 0.54455 0.44525 0.0
H1788 H 0.02415 0.35127 0.93267 0.0
H1789 H 0.01084 0.32176 0.92806 0.0
H1790 H 0.04647 0.30231 0.00869 0.0
H1791 H 0.05986 0.332 0.01382 0.0
H1792 H 0.03408 0.29068 0.9105 0.0
H1793 H 0.99478 0.28295 0.03472 0.0
H1794 H -6e-05 0.30449 0.01606 0.0
H1795 H 0.01683 0.29204 0.03853 0.0
C1796 C 0.02881 0.3409 0.95029 0.0
C1797 C 0.04301 0.34401 0.97382 0.0
C1798 C 0.02127 0.32401 0.94738 0.0
C1799 C 0.02763 0.30995 0.96814 0.0
C1800 C 0.04128 0.3131 0.99272 0.0
H1801 H 0.00929 0.19704 0.97763 0.0
H1802 H 0.01705 0.22813 0.98821 0.0
C1803 C 0.04895 0.33 0.9955 0.0
C1804 C 0.02119 0.29168 0.96144 0.0
H1805 H -0.00278 0.25771 0.99748 0.0
C1806 C 0.02593 0.28345 0.92937 0.0
C1807 C 0.01071 0.28238 0.98628 0.0
C1808 C 0.00512 0.29086 0.02082 0.0
C1809 C 0.02077 0.26593 0.92172 0.0
C1810 C 0.01012 0.2566 0.94643 0.0
C1811 C 0.00529 0.26492 0.97847 0.0
C1812 C 0.00459 0.2379 0.9403 0.0
C1813 C 0.02732 0.25741 0.88783 0.0
C1814 C 0.99473 0.23307 0.91008 0.0
C1815 C 0.99038 0.21524 0.90381 0.0
C1816 C -0.00449 0.202 0.92803 0.0
C1817 C 0.00495 0.20697 0.9587 0.0
C1818 C 0.00944 0.22473 0.96475 0.0
H1819 H 0.03904 0.26451 0.87685 0.0
H1820 H 0.031 0.24327 0.89221 0.0
H1821 H 0.01663 0.25787 0.86761 0.0
H1822 H 0.99048 0.24308 0.89128 0.0
H1823 H 0.98293 0.2118 0.88016 0.0
H1824 H 0.67472 0.88553 0.64469 0.0
H1825 H 0.70441 0.87318 0.6563 0.0
H1826 H 0.72823 0.91975 0.60951 0.0
H1827 H 0.69875 0.93204 0.5976 0.0
H1828 H 0.73157 0.86837 0.59737 0.0
H1829 H 0.7539 0.91108 0.70896 0.0
H1830 H 0.73072 0.90682 0.69958 0.0
H1831 H 0.74281 0.92291 0.67392 0.0
C1832 C 0.68634 0.89318 0.63734 0.0
C1833 C 0.68454 0.90968 0.62016 0.0
C1834 C 0.70321 0.88612 0.64393 0.0
C1835 C 0.7184 0.89568 0.63408 0.0
C1836 C 0.7166 0.91232 0.61767 0.0
H1837 H 0.81661 0.89698 0.55558 0.0
H1838 H 0.78575 0.89151 0.56979 0.0
C1839 C 0.69981 0.91925 0.61064 0.0
C1840 C 0.73627 0.88798 0.63807 0.0
H1841 H 0.77685 0.89821 0.67238 0.0
C1842 C 0.74142 0.87446 0.61454 0.0
C1843 C 0.74896 0.89582 0.66081 0.0
C1844 C 0.74383 0.90987 0.68753 0.0
C1845 C 0.75935 0.86984 0.61067 0.0
C1846 C 0.77226 0.87904 0.63076 0.0
C1847 C 0.76689 0.89123 0.65688 0.0
C1848 C 0.79113 0.879 0.62031 0.0
C1849 C 0.76448 0.85603 0.58348 0.0
C1850 C 0.80443 0.87357 0.64393 0.0
C1851 C 0.82232 0.87635 0.63554 0.0
C1852 C 0.82712 0.88502 0.60377 0.0
C1853 C 0.81363 0.88988 0.57983 0.0
C1854 C 0.79587 0.88683 0.58796 0.0
H1855 H 0.75346 0.84649 0.57866 0.0
H1856 H 0.76756 0.86274 0.55798 0.0
H1857 H 0.77645 0.84854 0.59204 0.0
H1858 H 0.80096 0.86764 0.66918 0.0
H1859 H 0.83233 0.87217 0.65439 0.0
H1860 H 0.54593 0.67716 0.16431 0.0
H1861 H 0.556 0.70671 0.18265 0.0
H1862 H 0.50712 0.72946 0.14384 0.0
H1863 H 0.49717 0.69996 0.12475 0.0
H1864 H 0.53593 0.74353 0.11316 0.0
H1865 H 0.54524 0.74339 0.2592 0.0
H1866 H 0.55584 0.72504 0.23717 0.0
H1867 H 0.53204 0.72688 0.23634 0.0
C1868 C 0.53715 0.68842 0.16063 0.0
C1869 C 0.52087 0.68639 0.14284 0.0
C1870 C 0.54285 0.70526 0.17135 0.0
C1871 C 0.53223 0.72024 0.1649 0.0
C1872 C 0.51548 0.71804 0.14914 0.0
H1873 H 0.54713 0.8321 0.18676 0.0
H1874 H 0.54048 0.80128 0.20209 0.0
C1875 C 0.50986 0.70125 0.13807 0.0
C1876 C 0.53971 0.73829 0.16887 0.0
H1877 H 0.55895 0.76734 0.22722 0.0
C1878 C 0.54084 0.74875 0.13819 0.0
C1879 C 0.54614 0.74503 0.20153 0.0
C1880 C 0.54462 0.73457 0.23552 0.0
C1881 C 0.54828 0.76575 0.13911 0.0
C1882 C 0.55522 0.77231 0.17145 0.0
C1883 C 0.55393 0.76203 0.20239 0.0
C1884 C 0.56275 0.79037 0.17313 0.0
C1885 C 0.54843 0.77668 0.10545 0.0
C1886 C 0.57815 0.79437 0.1538 0.0
C1887 C 0.58193 0.81196 0.14476 0.0
C1888 C 0.57041 0.82569 0.15527 0.0
C1889 C 0.55628 0.82179 0.1784 0.0
C1890 C 0.55245 0.80419 0.18723 0.0
H1891 H 0.53951 0.77104 0.08479 0.0
H1892 H 0.54427 0.79059 0.11092 0.0
H1893 H 0.5621 0.777 0.09452 0.0
H1894 H 0.58627 0.78379 0.14288 0.0
H1895 H 0.59301 0.81466 0.12725 0.0
H1896 H 0.80899 0.52356 0.6492 0.0
H1897 H 0.78121 0.54032 0.65217 0.0
H1898 H 0.75763 0.50469 0.57583 0.0
H1899 H 0.7852 0.48746 0.5733 0.0
H1900 H 0.76007 0.54743 0.56437 0.0
H1901 H 0.72808 0.52191 0.68778 0.0
H1902 H 0.75177 0.52549 0.68608 0.0
H1903 H 0.74209 0.50771 0.66098 0.0
C1904 C 0.79776 0.51895 0.63377 0.0
C1905 C 0.79932 0.50415 0.61096 0.0
C1906 C 0.78197 0.52863 0.63536 0.0
C1907 C 0.76751 0.52368 0.61422 0.0
C1908 C 0.76874 0.50864 0.59231 0.0
H1909 H 0.66829 0.55627 0.53961 0.0
H1910 H 0.69875 0.54696 0.54902 0.0
C1911 C 0.7845 0.49889 0.59079 0.0
C1912 C 0.75153 0.53493 0.61281 0.0
H1913 H 0.71171 0.54223 0.65324 0.0
C1914 C 0.74954 0.54648 0.58394 0.0
C1915 C 0.7381 0.53379 0.63878 0.0
C1916 C 0.73995 0.52158 0.67028 0.0
C1917 C 0.73403 0.55651 0.57961 0.0
C1918 C 0.72008 0.55459 0.60443 0.0
C1919 C 0.72245 0.54367 0.63428 0.0
C1920 C 0.70224 0.56198 0.59756 0.0
C1921 C 0.73257 0.56882 0.54815 0.0
C1922 C 0.69403 0.57349 0.62192 0.0
C1923 C 0.67649 0.57902 0.61646 0.0
C1924 C 0.66689 0.57297 0.58672 0.0
C1925 C 0.67537 0.56167 0.56221 0.0
C1926 C 0.69282 0.55624 0.56761 0.0
H1927 H 0.74588 0.57329 0.53904 0.0
H1928 H 0.72617 0.56163 0.5258 0.0
H1929 H 0.72441 0.58071 0.55456 0.0
H1930 H 0.70108 0.57794 0.64537 0.0
H1931 H 0.67035 0.58775 0.63581 0.0
H1932 H 0.96493 0.64306 0.04562 0.0
H1933 H 0.97894 0.67236 0.0471 0.0
H1934 H 0.92826 0.69712 0.02778 0.0
H1935 H 0.91411 0.66783 0.02524 0.0
H1936 H 0.9779 0.70285 0.99522 0.0
H1937 H 0.94742 0.71629 0.12711 0.0
H1938 H 0.94949 0.69411 0.10899 0.0
H1939 H 0.93252 0.70879 0.09286 0.0
C1940 C 0.95679 0.65467 0.04064 0.0
C1941 C 0.93833 0.65306 0.03555 0.0
C1942 C 0.96484 0.67141 0.04178 0.0
C1943 C 0.95457 0.68683 0.0381 0.0
C1944 C 0.93634 0.68532 0.03118 0.0
H1945 H 0.9764 0.7973 0.0148 0.0
H1946 H 0.96905 0.76599 0.00776 0.0
C1947 C 0.92828 0.66858 0.02983 0.0
C1948 C 0.9627 0.70452 0.0435 0.0
H1949 H 0.96268 0.74017 0.09976 0.0
C1950 C 0.97468 0.711 0.01812 0.0
C1951 C 0.95868 0.71492 0.07377 0.0
C1952 C 0.94644 0.70819 0.10248 0.0
C1953 C 0.98224 0.728 0.0216 0.0
C1954 C 0.97762 0.7387 0.05112 0.0
C1955 C 0.96615 0.73193 0.07713 0.0
C1956 C 0.98349 0.75741 0.05427 0.0
C1957 C 0.99503 0.73444 0.99361 0.0
C1958 C 0.99396 0.76301 0.08304 0.0
C1959 C -0.0016 0.781 0.08704 0.0
C1960 C 0.99226 0.7937 0.0625 0.0
C1961 C 0.9818 0.78791 0.03371 0.0
C1962 C 0.9775 0.76998 0.02964 0.0
H1963 H 0.00075 0.72321 0.97818 0.0
H1964 H 0.98788 0.74327 0.97485 0.0
H1965 H 0.00602 0.74219 0.00575 0.0
H1966 H -0.00142 0.75347 0.10248 0.0
H1967 H 0.00656 0.78494 0.10936 0.0
loop_
_geom_bond_atom_site_label_1
_geom_bond_atom_site_label_2
_geom_bond_distance
_geom_bond_site_symmetry_2
_ccdc_geom_bond_type
C0 C1 1.351 . S
C0 N3 1.368 . S
C0 H5 0.931 . S
C1 C0 1.351 . S
C1 N2 1.373 . S
C1 H29 0.930 . S
N2 C1 1.373 . S
N2 C4 1.340 . S
N3 C0 1.368 . S
N3 C4 1.321 . S
N3 Co6 2.135 1_565 S
C4 N2 1.340 . S
C4 N3 1.321 . S
C4 H28 0.930 1_565 S
H5 C0 0.931 . S
Co6 N3 2.135 1_545 S
Co6 N9 2.121 . S
Co6 O14 2.055 . S
Co6 O17 2.039 . S
Co6 N20 2.140 . S
C7 O8 1.227 . S
C7 O17 1.265 . S
O8 C7 1.227 . S
N9 Co6 2.121 . S
N9 C11 1.375 . S
N9 C12 1.313 . S
C10 C11 1.338 . S
C10 N13 1.377 . S
C10 H30 0.930 . S
C11 N9 1.375 . S
C11 C10 1.338 . S
C11 H15 0.931 . S
C12 N9 1.313 . S
C12 N13 1.344 . S
C12 H16 0.930 . S
N13 C10 1.377 . S
N13 C12 1.344 . S
O14 Co6 2.055 . S
O14 C18 1.253 . S
H15 C11 0.931 . S
H16 C12 0.930 . S
O17 Co6 2.039 . S
O17 C7 1.265 . S
C18 O14 1.253 . S
C18 O19 1.219 1_545 S
O19 C18 1.219 1_565 S
N20 Co6 2.140 . S
N20 C23 1.346 . S
N20 C24 1.345 . S
C21 C22 1.387 . S
C21 C25 1.391 . S
C22 C21 1.387 . S
C22 C23 1.369 . S
C22 H31 0.929 . S
C23 N20 1.346 . S
C23 C22 1.369 . S
C23 H26 0.928 . S
C24 N20 1.345 . S
C24 C25 1.371 . S
C24 H27 0.931 . S
C25 C21 1.391 . S
C25 C24 1.371 . S
C25 H32 0.930 . S
H26 C23 0.928 . S
H27 C24 0.931 . S
H28 C4 0.930 1_545 S
H29 C1 0.930 . S
H30 C10 0.930 . S
H31 C22 0.929 . S
H32 C25 0.930 . S
C33 C34 1.351 . S
C33 N36 1.368 . S
C33 H38 0.931 . S
C34 C33 1.351 . S
C34 N35 1.373 . S
C34 H62 0.930 . S
N35 C34 1.373 . S
N35 C37 1.340 . S
N36 C33 1.368 . S
N36 C37 1.321 . S
N36 Co39 2.135 . S
C37 N35 1.340 . S
C37 N36 1.321 . S
C37 H61 0.930 . S
H38 C33 0.931 . S
Co39 N36 2.135 . S
Co39 N42 2.121 . S
Co39 O47 2.055 . S
Co39 O50 2.039 . S
Co39 N53 2.140 . S
C40 O41 1.227 . S
C40 O50 1.265 . S
O41 C40 1.227 . S
N42 Co39 2.121 . S
N42 C44 1.375 . S
N42 C45 1.313 . S
C43 C44 1.338 . S
C43 N46 1.377 1_556 S
C43 H63 0.930 . S
C44 N42 1.375 . S
C44 C43 1.338 . S
C44 H48 0.931 . S
C45 N42 1.313 . S
C45 N46 1.344 1_556 S
C45 H49 0.930 1_556 S
N46 C43 1.377 1_554 S
N46 C45 1.344 1_554 S
O47 Co39 2.055 . S
O47 C51 1.253 . S
H48 C44 0.931 . S
H49 C45 0.930 1_554 S
O50 Co39 2.039 . S
O50 C40 1.265 . S
C51 O47 1.253 . S
C51 O52 1.227 . S
O52 C51 1.227 . S
N53 Co39 2.140 . S
N53 C56 1.346 . S
N53 C57 1.345 . S
C54 C55 1.387 . S
C54 C58 1.391 . S
C55 C54 1.387 . S
C55 C56 1.369 . S
C55 H64 0.929 . S
C56 N53 1.346 . S
C56 C55 1.369 . S
C56 H59 0.928 . S
C57 N53 1.345 . S
C57 C58 1.371 . S
C57 H60 0.931 . S
C58 C54 1.391 . S
C58 C57 1.371 . S
C58 H65 0.930 . S
H59 C56 0.928 . S
H60 C57 0.931 . S
H61 C37 0.930 . S
H62 C34 0.930 . S
H63 C43 0.930 . S
H64 C55 0.929 . S
H65 C58 0.930 . S
C66 C67 1.351 . S
C66 N69 1.368 . S
C66 H71 0.931 . S
C67 C66 1.351 . S
C67 N68 1.373 . S
C67 H95 0.930 . S
N68 C67 1.373 . S
N68 C70 1.340 . S
N69 C66 1.368 . S
N69 C70 1.321 . S
N69 Co72 2.135 . S
C70 N68 1.340 . S
C70 N69 1.321 . S
C70 H94 0.930 . S
H71 C66 0.931 . S
Co72 N69 2.135 . S
Co72 N75 2.121 . S
Co72 O80 2.055 . S
Co72 O83 2.039 . S
Co72 N86 2.140 . S
C73 O74 1.227 . S
C73 O83 1.265 . S
O74 C73 1.227 . S
N75 Co72 2.121 . S
N75 C77 1.375 . S
N75 C78 1.313 . S
C76 C77 1.338 . S
C76 N79 1.377 . S
C76 H96 0.930 . S
C77 N75 1.375 . S
C77 C76 1.338 . S
C77 H81 0.931 . S
C78 N75 1.313 . S
C78 N79 1.344 . S
C78 H82 0.930 . S
N79 C76 1.377 . S
N79 C78 1.344 . S
O80 Co72 2.055 . S
O80 C84 1.253 . S
H81 C77 0.931 . S
H82 C78 0.930 . S
O83 Co72 2.039 . S
O83 C73 1.265 . S
C84 O80 1.253 . S
C84 O85 1.227 . S
O85 C84 1.227 . S
N86 Co72 2.140 . S
N86 C89 1.346 . S
N86 C90 1.345 . S
C87 C88 1.387 . S
C87 C91 1.391 . S
C88 C87 1.387 . S
C88 C89 1.369 . S
C88 H97 0.929 . S
C89 N86 1.346 . S
C89 C88 1.369 . S
C89 H92 0.928 . S
C90 N86 1.345 . S
C90 C91 1.371 . S
C90 H93 0.931 . S
C91 C87 1.391 . S
C91 C90 1.371 . S
C91 H98 0.930 . S
H92 C89 0.928 . S
H93 C90 0.931 . S
H94 C70 0.930 . S
H95 C67 0.930 . S
H96 C76 0.930 . S
H97 C88 0.929 . S
H98 C91 0.930 . S
C99 C100 1.351 . S
C99 N102 1.368 . S
C99 H104 0.931 . S
C100 C99 1.351 . S
C100 N101 1.373 . S
C100 H128 0.930 . S
N101 C100 1.373 . S
N101 C103 1.340 . S
N102 C99 1.368 . S
N102 C103 1.321 . S
N102 Co105 2.135 1_655 S
C103 N101 1.340 . S
C103 N102 1.321 . S
C103 H127 0.930 1_655 S
H104 C99 0.931 . S
Co105 N102 2.135 1_455 S
Co105 N108 2.121 . S
Co105 O113 2.055 . S
Co105 O116 2.039 . S
Co105 N119 2.140 . S
C106 O107 1.227 . S
C106 O116 1.265 . S
O107 C106 1.227 . S
N108 Co105 2.121 . S
N108 C110 1.375 . S
N108 C111 1.313 . S
C109 C110 1.338 . S
C109 N112 1.377 1_556 S
C109 H129 0.930 . S
C110 N108 1.375 . S
C110 C109 1.338 . S
C110 H114 0.931 . S
C111 N108 1.313 . S
C111 N112 1.344 1_556 S
C111 H115 0.930 1_556 S
N112 C109 1.377 1_554 S
N112 C111 1.344 1_554 S
O113 Co105 2.055 . S
O113 C117 1.253 . S
H114 C110 0.931 . S
H115 C111 0.930 1_554 S
O116 Co105 2.039 . S
O116 C106 1.265 . S
C117 O113 1.253 . S
C117 O118 1.219 1_455 S
O118 C117 1.219 1_655 S
N119 Co105 2.140 . S
N119 C122 1.346 . S
N119 C123 1.345 . S
C120 C121 1.387 . S
C120 C124 1.391 . S
C121 C120 1.387 . S
C121 C122 1.369 . S
C121 H130 0.929 . S
C122 N119 1.346 . S
C122 C121 1.369 . S
C122 H125 0.928 . S
C123 N119 1.345 . S
C123 C124 1.371 . S
C123 H126 0.931 . S
C124 C120 1.391 . S
C124 C123 1.371 . S
C124 H131 0.930 . S
H125 C122 0.928 . S
H126 C123 0.931 . S
H127 C103 0.930 1_455 S
H128 C100 0.930 . S
H129 C109 0.930 . S
H130 C121 0.929 . S
H131 C124 0.930 . S
C132 C133 1.351 . S
C132 N135 1.368 . S
C132 H137 0.931 . S
C133 C132 1.351 . S
C133 N134 1.373 . S
C133 H161 0.930 . S
N134 C133 1.373 . S
N134 C136 1.340 . S
N135 C132 1.368 . S
N135 C136 1.321 . S
N135 Co138 2.135 1_545 S
C136 N134 1.340 . S
C136 N135 1.321 . S
C136 H160 0.930 1_545 S
H137 C132 0.931 . S
Co138 N135 2.135 1_565 S
Co138 N141 2.121 . S
Co138 O146 2.055 . S
Co138 O149 2.039 . S
Co138 N152 2.140 . S
C139 O140 1.227 . S
C139 O149 1.265 . S
O140 C139 1.227 . S
N141 Co138 2.121 . S
N141 C143 1.375 . S
N141 C144 1.313 . S
C142 C143 1.338 . S
C142 N145 1.377 . S
C142 H162 0.930 . S
C143 N141 1.375 . S
C143 C142 1.338 . S
C143 H147 0.931 . S
C144 N141 1.313 . S
C144 N145 1.344 . S
C144 H148 0.930 . S
N145 C142 1.377 . S
N145 C144 1.344 . S
O146 Co138 2.055 . S
O146 C150 1.253 . S
H147 C143 0.931 . S
H148 C144 0.930 . S
O149 Co138 2.039 . S
O149 C139 1.265 . S
C150 O146 1.253 . S
C150 O151 1.219 1_565 S
O151 C150 1.219 1_545 S
N152 Co138 2.140 . S
N152 C155 1.346 . S
N152 C156 1.345 . S
C153 C154 1.387 . S
C153 C157 1.391 . S
C154 C153 1.387 . S
C154 C155 1.369 . S
C154 H163 0.929 . S
C155 N152 1.346 . S
C155 C154 1.369 . S
C155 H158 0.928 . S
C156 N152 1.345 . S
C156 C157 1.371 . S
C156 H159 0.931 . S
C157 C153 1.391 . S
C157 C156 1.371 . S
C157 H164 0.930 . S
H158 C155 0.928 . S
H159 C156 0.931 . S
H160 C136 0.930 1_565 S
H161 C133 0.930 . S
H162 C142 0.930 . S
H163 C154 0.929 . S
H164 C157 0.930 . S
C165 C166 1.351 . S
C165 N168 1.368 . S
C165 H170 0.931 . S
C166 C165 1.351 . S
C166 N167 1.373 . S
C166 H194 0.930 . S
N167 C166 1.373 . S
N167 C169 1.340 . S
N168 C165 1.368 . S
N168 C169 1.321 . S
N168 Co171 2.135 . S
C169 N167 1.340 . S
C169 N168 1.321 . S
C169 H193 0.930 . S
H170 C165 0.931 . S
Co171 N168 2.135 . S
Co171 N174 2.121 . S
Co171 O179 2.055 . S
Co171 O182 2.039 . S
Co171 N185 2.140 . S
C172 O173 1.227 . S
C172 O182 1.265 . S
O173 C172 1.227 . S
N174 Co171 2.121 . S
N174 C176 1.375 . S
N174 C177 1.313 . S
C175 C176 1.338 . S
C175 N178 1.377 1_554 S
C175 H195 0.930 . S
C176 N174 1.375 . S
C176 C175 1.338 . S
C176 H180 0.931 . S
C177 N174 1.313 . S
C177 N178 1.344 1_554 S
C177 H181 0.930 1_554 S
N178 C175 1.377 1_556 S
N178 C177 1.344 1_556 S
O179 Co171 2.055 . S
O179 C183 1.253 . S
H180 C176 0.931 . S
H181 C177 0.930 1_556 S
O182 Co171 2.039 . S
O182 C172 1.265 . S
C183 O179 1.253 . S
C183 O184 1.227 . S
O184 C183 1.227 . S
N185 Co171 2.140 . S
N185 C188 1.346 . S
N185 C189 1.345 . S
C186 C187 1.387 . S
C186 C190 1.391 . S
C187 C186 1.387 . S
C187 C188 1.369 . S
C187 H196 0.929 . S
C188 N185 1.346 . S
C188 C187 1.369 . S
C188 H191 0.928 . S
C189 N185 1.345 . S
C189 C190 1.371 . S
C189 H192 0.931 . S
C190 C186 1.391 . S
C190 C189 1.371 . S
C190 H197 0.930 . S
H191 C188 0.928 . S
H192 C189 0.931 . S
H193 C169 0.930 . S
H194 C166 0.930 . S
H195 C175 0.930 . S
H196 C187 0.929 . S
H197 C190 0.930 . S
C198 C199 1.351 . S
C198 N201 1.368 . S
C198 H203 0.931 . S
C199 C198 1.351 . S
C199 N200 1.373 . S
C199 H227 0.930 . S
N200 C199 1.373 . S
N200 C202 1.340 . S
N201 C198 1.368 . S
N201 C202 1.321 . S
N201 Co204 2.135 . S
C202 N200 1.340 . S
C202 N201 1.321 . S
C202 H226 0.930 . S
H203 C198 0.931 . S
Co204 N201 2.135 . S
Co204 N207 2.121 . S
Co204 O212 2.055 . S
Co204 O215 2.039 . S
Co204 N218 2.140 . S
C205 O206 1.227 . S
C205 O215 1.265 . S
O206 C205 1.227 . S
N207 Co204 2.121 . S
N207 C209 1.375 . S
N207 C210 1.313 . S
C208 C209 1.338 . S
C208 N211 1.377 . S
C208 H228 0.930 . S
C209 N207 1.375 . S
C209 C208 1.338 . S
C209 H213 0.931 . S
C210 N207 1.313 . S
C210 N211 1.344 . S
C210 H214 0.930 . S
N211 C208 1.377 . S
N211 C210 1.344 . S
O212 Co204 2.055 . S
O212 C216 1.253 . S
H213 C209 0.931 . S
H214 C210 0.930 . S
O215 Co204 2.039 . S
O215 C205 1.265 . S
C216 O212 1.253 . S
C216 O217 1.227 . S
O217 C216 1.227 . S
N218 Co204 2.140 . S
N218 C221 1.346 . S
N218 C222 1.345 . S
C219 C220 1.387 . S
C219 C223 1.391 . S
C220 C219 1.387 . S
C220 C221 1.369 . S
C220 H229 0.929 . S
C221 N218 1.346 . S
C221 C220 1.369 . S
C221 H224 0.928 . S
C222 N218 1.345 . S
C222 C223 1.371 . S
C222 H225 0.931 . S
C223 C219 1.391 . S
C223 C222 1.371 . S
C223 H230 0.930 . S
H224 C221 0.928 . S
H225 C222 0.931 . S
H226 C202 0.930 . S
H227 C199 0.930 . S
H228 C208 0.930 . S
H229 C220 0.929 . S
H230 C223 0.930 . S
C231 C232 1.351 . S
C231 N234 1.368 . S
C231 H236 0.931 . S
C232 C231 1.351 . S
C232 N233 1.373 . S
C232 H260 0.930 . S
N233 C232 1.373 . S
N233 C235 1.340 . S
N234 C231 1.368 . S
N234 C235 1.321 . S
N234 Co237 2.135 1_455 S
C235 N233 1.340 . S
C235 N234 1.321 . S
C235 H259 0.930 1_455 S
H236 C231 0.931 . S
Co237 N234 2.135 1_655 S
Co237 N240 2.121 . S
Co237 O245 2.055 . S
Co237 O248 2.039 . S
Co237 N251 2.140 . S
C238 O239 1.227 . S
C238 O248 1.265 . S
O239 C238 1.227 . S
N240 Co237 2.121 . S
N240 C242 1.375 . S
N240 C243 1.313 . S
C241 C242 1.338 . S
C241 N244 1.377 1_554 S
C241 H261 0.930 . S
C242 N240 1.375 . S
C242 C241 1.338 . S
C242 H246 0.931 . S
C243 N240 1.313 . S
C243 N244 1.344 1_554 S
C243 H247 0.930 1_554 S
N244 C241 1.377 1_556 S
N244 C243 1.344 1_556 S
O245 Co237 2.055 . S
O245 C249 1.253 . S
H246 C242 0.931 . S
H247 C243 0.930 1_556 S
O248 Co237 2.039 . S
O248 C238 1.265 . S
C249 O245 1.253 . S
C249 O250 1.219 1_655 S
O250 C249 1.219 1_455 S
N251 Co237 2.140 . S
N251 C254 1.346 . S
N251 C255 1.345 . S
C252 C253 1.387 . S
C252 C256 1.391 . S
C253 C252 1.387 . S
C253 C254 1.369 . S
C253 H262 0.929 . S
C254 N251 1.346 . S
C254 C253 1.369 . S
C254 H257 0.928 . S
C255 N251 1.345 . S
C255 C256 1.371 . S
C255 H258 0.931 . S
C256 C252 1.391 . S
C256 C255 1.371 . S
C256 H263 0.930 . S
H257 C254 0.928 . S
H258 C255 0.931 . S
H259 C235 0.930 1_655 S
H260 C232 0.930 . S
H261 C241 0.930 . S
H262 C253 0.929 . S
H263 C256 0.930 . S
C264 C265 1.351 . S
C264 N267 1.368 . S
C264 H269 0.931 . S
C265 C264 1.351 . S
C265 N266 1.373 . S
C265 H293 0.930 . S
N266 C265 1.373 . S
N266 C268 1.340 . S
N267 C264 1.368 . S
N267 C268 1.321 . S
N267 Co270 2.135 1_545 S
C268 N266 1.340 . S
C268 N267 1.321 . S
C268 H292 0.930 1_545 S
H269 C264 0.931 . S
Co270 N267 2.135 1_565 S
Co270 N273 2.121 . S
Co270 O278 2.055 . S
Co270 O281 2.039 . S
Co270 N284 2.140 . S
C271 O272 1.227 . S
C271 O281 1.265 . S
O272 C271 1.227 . S
N273 Co270 2.121 . S
N273 C275 1.375 . S
N273 C276 1.313 . S
C274 C275 1.338 . S
C274 N277 1.377 . S
C274 H294 0.930 . S
C275 N273 1.375 . S
C275 C274 1.338 . S
C275 H279 0.931 . S
C276 N273 1.313 . S
C276 N277 1.344 . S
C276 H280 0.930 . S
N277 C274 1.377 . S
N277 C276 1.344 . S
O278 Co270 2.055 . S
O278 C282 1.253 . S
H279 C275 0.931 . S
H280 C276 0.930 . S
O281 Co270 2.039 . S
O281 C271 1.265 . S
C282 O278 1.253 . S
C282 O283 1.219 1_565 S
O283 C282 1.219 1_545 S
N284 Co270 2.140 . S
N284 C287 1.346 . S
N284 C288 1.345 . S
C285 C286 1.387 . S
C285 C289 1.391 . S
C286 C285 1.387 . S
C286 C287 1.369 . S
C286 H295 0.929 . S
C287 N284 1.346 . S
C287 C286 1.369 . S
C287 H290 0.928 . S
C288 N284 1.345 . S
C288 C289 1.371 . S
C288 H291 0.931 . S
C289 C285 1.391 . S
C289 C288 1.371 . S
C289 H296 0.930 . S
H290 C287 0.928 . S
H291 C288 0.931 . S
H292 C268 0.930 1_565 S
H293 C265 0.930 . S
H294 C274 0.930 . S
H295 C286 0.929 . S
H296 C289 0.930 . S
C297 C298 1.351 . S
C297 N300 1.368 . S
C297 H302 0.931 . S
C298 C297 1.351 . S
C298 N299 1.373 . S
C298 H326 0.930 . S
N299 C298 1.373 . S
N299 C301 1.340 . S
N300 C297 1.368 . S
N300 C301 1.321 . S
N300 Co303 2.135 . S
C301 N299 1.340 . S
C301 N300 1.321 . S
C301 H325 0.930 . S
H302 C297 0.931 . S
Co303 N300 2.135 . S
Co303 N306 2.121 . S
Co303 O311 2.055 . S
Co303 O314 2.039 . S
Co303 N317 2.140 . S
C304 O305 1.227 . S
C304 O314 1.265 . S
O305 C304 1.227 . S
N306 Co303 2.121 . S
N306 C308 1.375 . S
N306 C309 1.313 . S
C307 C308 1.338 . S
C307 N310 1.377 1_554 S
C307 H327 0.930 . S
C308 N306 1.375 . S
C308 C307 1.338 . S
C308 H312 0.931 . S
C309 N306 1.313 . S
C309 N310 1.344 1_554 S
C309 H313 0.930 1_554 S
N310 C307 1.377 1_556 S
N310 C309 1.344 1_556 S
O311 Co303 2.055 . S
O311 C315 1.253 . S
H312 C308 0.931 . S
H313 C309 0.930 1_556 S
O314 Co303 2.039 . S
O314 C304 1.265 . S
C315 O311 1.253 . S
C315 O316 1.227 . S
O316 C315 1.227 . S
N317 Co303 2.140 . S
N317 C320 1.346 . S
N317 C321 1.345 . S
C318 C319 1.387 . S
C318 C322 1.391 . S
C319 C318 1.387 . S
C319 C320 1.369 . S
C319 H328 0.929 . S
C320 N317 1.346 . S
C320 C319 1.369 . S
C320 H323 0.928 . S
C321 N317 1.345 . S
C321 C322 1.371 . S
C321 H324 0.931 . S
C322 C318 1.391 . S
C322 C321 1.371 . S
C322 H329 0.930 . S
H323 C320 0.928 . S
H324 C321 0.931 . S
H325 C301 0.930 . S
H326 C298 0.930 . S
H327 C307 0.930 . S
H328 C319 0.929 . S
H329 C322 0.930 . S
C330 C331 1.351 . S
C330 N333 1.368 . S
C330 H335 0.931 . S
C331 C330 1.351 . S
C331 N332 1.373 . S
C331 H359 0.930 . S
N332 C331 1.373 . S
N332 C334 1.340 . S
N333 C330 1.368 . S
N333 C334 1.321 . S
N333 Co336 2.135 . S
C334 N332 1.340 . S
C334 N333 1.321 . S
C334 H358 0.930 . S
H335 C330 0.931 . S
Co336 N333 2.135 . S
Co336 N339 2.121 . S
Co336 O344 2.055 . S
Co336 O347 2.039 . S
Co336 N350 2.140 . S
C337 O338 1.227 . S
C337 O347 1.265 . S
O338 C337 1.227 . S
N339 Co336 2.121 . S
N339 C341 1.375 . S
N339 C342 1.313 . S
C340 C341 1.338 . S
C340 N343 1.377 . S
C340 H360 0.930 . S
C341 N339 1.375 . S
C341 C340 1.338 . S
C341 H345 0.931 . S
C342 N339 1.313 . S
C342 N343 1.344 . S
C342 H346 0.930 . S
N343 C340 1.377 . S
N343 C342 1.344 . S
O344 Co336 2.055 . S
O344 C348 1.253 . S
H345 C341 0.931 . S
H346 C342 0.930 . S
O347 Co336 2.039 . S
O347 C337 1.265 . S
C348 O344 1.253 . S
C348 O349 1.227 . S
O349 C348 1.227 . S
N350 Co336 2.140 . S
N350 C353 1.346 . S
N350 C354 1.345 . S
C351 C352 1.387 . S
C351 C355 1.391 . S
C352 C351 1.387 . S
C352 C353 1.369 . S
C352 H361 0.929 . S
C353 N350 1.346 . S
C353 C352 1.369 . S
C353 H356 0.928 . S
C354 N350 1.345 . S
C354 C355 1.371 . S
C354 H357 0.931 . S
C355 C351 1.391 . S
C355 C354 1.371 . S
C355 H362 0.930 . S
H356 C353 0.928 . S
H357 C354 0.931 . S
H358 C334 0.930 . S
H359 C331 0.930 . S
H360 C340 0.930 . S
H361 C352 0.929 . S
H362 C355 0.930 . S
C363 C364 1.351 . S
C363 N366 1.368 . S
C363 H368 0.931 . S
C364 C363 1.351 . S
C364 N365 1.373 . S
C364 H392 0.930 . S
N365 C364 1.373 . S
N365 C367 1.340 . S
N366 C363 1.368 . S
N366 C367 1.321 . S
N366 Co369 2.135 1_455 S
C367 N365 1.340 . S
C367 N366 1.321 . S
C367 H391 0.930 1_455 S
H368 C363 0.931 . S
Co369 N366 2.135 1_655 S
Co369 N372 2.121 . S
Co369 O377 2.055 . S
Co369 O380 2.039 . S
Co369 N383 2.140 . S
C370 O371 1.227 . S
C370 O380 1.265 . S
O371 C370 1.227 . S
N372 Co369 2.121 . S
N372 C374 1.375 . S
N372 C375 1.313 . S
C373 C374 1.338 . S
C373 N376 1.377 1_554 S
C373 H393 0.930 . S
C374 N372 1.375 . S
C374 C373 1.338 . S
C374 H378 0.931 . S
C375 N372 1.313 . S
C375 N376 1.344 1_554 S
C375 H379 0.930 1_554 S
N376 C373 1.377 1_556 S
N376 C375 1.344 1_556 S
O377 Co369 2.055 . S
O377 C381 1.253 . S
H378 C374 0.931 . S
H379 C375 0.930 1_556 S
O380 Co369 2.039 . S
O380 C370 1.265 . S
C381 O377 1.253 . S
C381 O382 1.219 1_655 S
O382 C381 1.219 1_455 S
N383 Co369 2.140 . S
N383 C386 1.346 . S
N383 C387 1.345 . S
C384 C385 1.387 . S
C384 C388 1.391 . S
C385 C384 1.387 . S
C385 C386 1.369 . S
C385 H394 0.929 . S
C386 N383 1.346 . S
C386 C385 1.369 . S
C386 H389 0.928 . S
C387 N383 1.345 . S
C387 C388 1.371 . S
C387 H390 0.931 . S
C388 C384 1.391 . S
C388 C387 1.371 . S
C388 H395 0.930 . S
H389 C386 0.928 . S
H390 C387 0.931 . S
H391 C367 0.930 1_655 S
H392 C364 0.930 . S
H393 C373 0.930 . S
H394 C385 0.929 . S
H395 C388 0.930 . S
C396 C397 1.351 . S
C396 N399 1.368 . S
C396 H401 0.931 . S
C397 C396 1.351 . S
C397 N398 1.373 . S
C397 H425 0.930 . S
N398 C397 1.373 . S
N398 C400 1.340 . S
N399 C396 1.368 . S
N399 C400 1.321 . S
N399 Co402 2.135 1_565 S
C400 N398 1.340 . S
C400 N399 1.321 . S
C400 H424 0.930 1_565 S
H401 C396 0.931 . S
Co402 N399 2.135 1_545 S
Co402 N405 2.121 . S
Co402 O410 2.055 . S
Co402 O413 2.039 . S
Co402 N416 2.140 . S
C403 O404 1.227 . S
C403 O413 1.265 . S
O404 C403 1.227 . S
N405 Co402 2.121 . S
N405 C407 1.375 . S
N405 C408 1.313 . S
C406 C407 1.338 . S
C406 N409 1.377 . S
C406 H426 0.930 . S
C407 N405 1.375 . S
C407 C406 1.338 . S
C407 H411 0.931 . S
C408 N405 1.313 . S
C408 N409 1.344 . S
C408 H412 0.930 . S
N409 C406 1.377 . S
N409 C408 1.344 . S
O410 Co402 2.055 . S
O410 C414 1.253 . S
H411 C407 0.931 . S
H412 C408 0.930 . S
O413 Co402 2.039 . S
O413 C403 1.265 . S
C414 O410 1.253 . S
C414 O415 1.219 1_545 S
O415 C414 1.219 1_565 S
N416 Co402 2.140 . S
N416 C419 1.346 . S
N416 C420 1.345 . S
C417 C418 1.387 . S
C417 C421 1.391 . S
C418 C417 1.387 . S
C418 C419 1.369 . S
C418 H427 0.929 . S
C419 N416 1.346 . S
C419 C418 1.369 . S
C419 H422 0.928 . S
C420 N416 1.345 . S
C420 C421 1.371 . S
C420 H423 0.931 . S
C421 C417 1.391 . S
C421 C420 1.371 . S
C421 H428 0.930 . S
H422 C419 0.928 . S
H423 C420 0.931 . S
H424 C400 0.930 1_545 S
H425 C397 0.930 . S
H426 C406 0.930 . S
H427 C418 0.929 . S
H428 C421 0.930 . S
C429 C430 1.351 . S
C429 N432 1.368 . S
C429 H434 0.931 . S
C430 C429 1.351 . S
C430 N431 1.373 . S
C430 H458 0.930 . S
N431 C430 1.373 . S
N431 C433 1.340 . S
N432 C429 1.368 . S
N432 C433 1.321 . S
N432 Co435 2.135 . S
C433 N431 1.340 . S
C433 N432 1.321 . S
C433 H457 0.930 . S
H434 C429 0.931 . S
Co435 N432 2.135 . S
Co435 N438 2.121 . S
Co435 O443 2.055 . S
Co435 O446 2.039 . S
Co435 N449 2.140 . S
C436 O437 1.227 . S
C436 O446 1.265 . S
O437 C436 1.227 . S
N438 Co435 2.121 . S
N438 C440 1.375 . S
N438 C441 1.313 . S
C439 C440 1.338 . S
C439 N442 1.377 1_556 S
C439 H459 0.930 . S
C440 N438 1.375 . S
C440 C439 1.338 . S
C440 H444 0.931 . S
C441 N438 1.313 . S
C441 N442 1.344 1_556 S
C441 H445 0.930 1_556 S
N442 C439 1.377 1_554 S
N442 C441 1.344 1_554 S
O443 Co435 2.055 . S
O443 C447 1.253 . S
H444 C440 0.931 . S
H445 C441 0.930 1_554 S
O446 Co435 2.039 . S
O446 C436 1.265 . S
C447 O443 1.253 . S
C447 O448 1.227 . S
O448 C447 1.227 . S
N449 Co435 2.140 . S
N449 C452 1.346 . S
N449 C453 1.345 . S
C450 C451 1.387 . S
C450 C454 1.391 . S
C451 C450 1.387 . S
C451 C452 1.369 . S
C451 H460 0.929 . S
C452 N449 1.346 . S
C452 C451 1.369 . S
C452 H455 0.928 . S
C453 N449 1.345 . S
C453 C454 1.371 . S
C453 H456 0.931 . S
C454 C450 1.391 . S
C454 C453 1.371 . S
C454 H461 0.930 . S
H455 C452 0.928 . S
H456 C453 0.931 . S
H457 C433 0.930 . S
H458 C430 0.930 . S
H459 C439 0.930 . S
H460 C451 0.929 . S
H461 C454 0.930 . S
C462 C463 1.351 . S
C462 N465 1.368 . S
C462 H467 0.931 . S
C463 C462 1.351 . S
C463 N464 1.373 . S
C463 H491 0.930 . S
N464 C463 1.373 . S
N464 C466 1.340 . S
N465 C462 1.368 . S
N465 C466 1.321 . S
N465 Co468 2.135 . S
C466 N464 1.340 . S
C466 N465 1.321 . S
C466 H490 0.930 . S
H467 C462 0.931 . S
Co468 N465 2.135 . S
Co468 N471 2.121 . S
Co468 O476 2.055 . S
Co468 O479 2.039 . S
Co468 N482 2.140 . S
C469 O470 1.227 . S
C469 O479 1.265 . S
O470 C469 1.227 . S
N471 Co468 2.121 . S
N471 C473 1.375 . S
N471 C474 1.313 . S
C472 C473 1.338 . S
C472 N475 1.377 . S
C472 H492 0.930 . S
C473 N471 1.375 . S
C473 C472 1.338 . S
C473 H477 0.931 . S
C474 N471 1.313 . S
C474 N475 1.344 . S
C474 H478 0.930 . S
N475 C472 1.377 . S
N475 C474 1.344 . S
O476 Co468 2.055 . S
O476 C480 1.253 . S
H477 C473 0.931 . S
H478 C474 0.930 . S
O479 Co468 2.039 . S
O479 C469 1.265 . S
C480 O476 1.253 . S
C480 O481 1.227 . S
O481 C480 1.227 . S
N482 Co468 2.140 . S
N482 C485 1.346 . S
N482 C486 1.345 . S
C483 C484 1.387 . S
C483 C487 1.391 . S
C484 C483 1.387 . S
C484 C485 1.369 . S
C484 H493 0.929 . S
C485 N482 1.346 . S
C485 C484 1.369 . S
C485 H488 0.928 . S
C486 N482 1.345 . S
C486 C487 1.371 . S
C486 H489 0.931 . S
C487 C483 1.391 . S
C487 C486 1.371 . S
C487 H494 0.930 . S
H488 C485 0.928 . S
H489 C486 0.931 . S
H490 C466 0.930 . S
H491 C463 0.930 . S
H492 C472 0.930 . S
H493 C484 0.929 . S
H494 C487 0.930 . S
C495 C496 1.351 . S
C495 N498 1.368 . S
C495 H500 0.931 . S
C496 C495 1.351 . S
C496 N497 1.373 . S
C496 H524 0.930 . S
N497 C496 1.373 . S
N497 C499 1.340 . S
N498 C495 1.368 . S
N498 C499 1.321 . S
N498 Co501 2.135 1_655 S
C499 N497 1.340 . S
C499 N498 1.321 . S
C499 H523 0.930 1_655 S
H500 C495 0.931 . S
Co501 N498 2.135 1_455 S
Co501 N504 2.121 . S
Co501 O509 2.055 . S
Co501 O512 2.039 . S
Co501 N515 2.140 . S
C502 O503 1.227 . S
C502 O512 1.265 . S
O503 C502 1.227 . S
N504 Co501 2.121 . S
N504 C506 1.375 . S
N504 C507 1.313 . S
C505 C506 1.338 . S
C505 N508 1.377 1_556 S
C505 H525 0.930 . S
C506 N504 1.375 . S
C506 C505 1.338 . S
C506 H510 0.931 . S
C507 N504 1.313 . S
C507 N508 1.344 1_556 S
C507 H511 0.930 1_556 S
N508 C505 1.377 1_554 S
N508 C507 1.344 1_554 S
O509 Co501 2.055 . S
O509 C513 1.253 . S
H510 C506 0.931 . S
H511 C507 0.930 1_554 S
O512 Co501 2.039 . S
O512 C502 1.265 . S
C513 O509 1.253 . S
C513 O514 1.219 1_455 S
O514 C513 1.219 1_655 S
N515 Co501 2.140 . S
N515 C518 1.346 . S
N515 C519 1.345 . S
C516 C517 1.387 . S
C516 C520 1.391 . S
C517 C516 1.387 . S
C517 C518 1.369 . S
C517 H526 0.929 . S
C518 N515 1.346 . S
C518 C517 1.369 . S
C518 H521 0.928 . S
C519 N515 1.345 . S
C519 C520 1.371 . S
C519 H522 0.931 . S
C520 C516 1.391 . S
C520 C519 1.371 . S
C520 H527 0.930 . S
H521 C518 0.928 . S
H522 C519 0.931 . S
H523 C499 0.930 1_455 S
H524 C496 0.930 . S
H525 C505 0.930 . S
H526 C517 0.929 . S
H527 C520 0.930 . S
H528 C536 0.929 . S
H529 C538 0.930 . S
H530 C540 0.930 . S
H531 C543 0.929 . S
H532 C546 0.930 . S
H533 C548 0.960 . S
H534 C548 0.960 . S
H535 C548 0.960 . S
C536 H528 0.929 . S
C536 C537 1.377 1_565 S
C536 C538 1.384 . S
C537 C536 1.377 1_545 S
C537 C543 1.390 . S
C538 H529 0.930 . S
C538 C536 1.384 . S
C538 C539 1.364 1_565 S
C539 C538 1.364 1_545 S
C539 C540 1.408 . S
C539 C544 1.488 1_545 S
C540 H530 0.930 . S
C540 C539 1.408 . S
C540 C543 1.386 . S
H541 C557 0.930 . S
H542 C558 0.931 . S
C543 H531 0.929 . S
C543 C537 1.390 . S
C543 C540 1.386 . S
C544 C539 1.488 1_565 S
C544 C546 1.414 . S
C544 C547 1.388 1_565 S
H545 C551 0.930 . S
C546 H532 0.930 . S
C546 C544 1.414 . S
C546 C549 1.403 1_655 S
C547 C544 1.388 1_545 S
C547 C548 1.524 . S
C547 C551 1.400 1_655 S
C548 H533 0.960 . S
C548 H534 0.960 . S
C548 H535 0.960 . S
C548 C547 1.524 . S
C549 C546 1.403 1_455 S
C549 C550 1.392 . S
C549 C553 1.495 . S
C550 C549 1.392 . S
C550 C551 1.385 1_565 S
C550 C552 1.478 . S
C551 H545 0.930 . S
C551 C547 1.400 1_455 S
C551 C550 1.385 1_545 S
C552 C550 1.478 . S
C552 C554 1.381 . S
C552 C558 1.383 1_565 S
C553 C549 1.495 . S
C553 H559 0.959 . S
C553 H560 0.961 . S
C553 H561 0.960 . S
C554 C552 1.381 . S
C554 C555 1.394 . S
C554 H562 0.930 . S
C555 C554 1.394 . S
C555 C556 1.383 . S
C555 H563 0.929 . S
C556 C555 1.383 . S
C556 C557 1.377 1_565 S
C557 H541 0.930 . S
C557 C556 1.377 1_545 S
C557 C558 1.379 . S
C558 H542 0.931 . S
C558 C552 1.383 1_545 S
C558 C557 1.379 . S
H559 C553 0.959 . S
H560 C553 0.961 . S
H561 C553 0.960 . S
H562 C554 0.930 . S
H563 C555 0.929 . S
H564 C572 0.929 . S
H565 C574 0.930 . S
H566 C576 0.930 . S
H567 C579 0.929 . S
H568 C582 0.930 . S
H569 C584 0.960 . S
H570 C584 0.960 . S
H571 C584 0.960 . S
C572 H564 0.929 . S
C572 C573 1.377 1_554 S
C572 C574 1.384 . S
C573 C572 1.377 1_556 S
C573 C579 1.390 . S
C574 H565 0.930 . S
C574 C572 1.384 . S
C574 C575 1.372 1_554 S
C575 C574 1.372 1_556 S
C575 C576 1.400 . S
C575 C580 1.490 . S
C576 H566 0.930 . S
C576 C575 1.400 . S
C576 C579 1.386 . S
H577 C593 0.930 . S
H578 C594 0.931 . S
C579 H567 0.929 . S
C579 C573 1.390 . S
C579 C576 1.386 . S
C580 C575 1.490 . S
C580 C582 1.395 . S
C580 C583 1.403 1_556 S
H581 C587 0.930 . S
C582 H568 0.930 . S
C582 C580 1.395 . S
C582 C585 1.403 1_545 S
C583 C580 1.403 1_554 S
C583 C584 1.524 . S
C583 C587 1.400 1_545 S
C584 H569 0.960 . S
C584 H570 0.960 . S
C584 H571 0.960 . S
C584 C583 1.524 . S
C585 C582 1.403 1_565 S
C585 C586 1.387 1_556 S
C585 C589 1.495 . S
C586 C585 1.387 1_554 S
C586 C587 1.390 . S
C586 C588 1.478 . S
C587 H581 0.930 . S
C587 C583 1.400 1_565 S
C587 C586 1.390 . S
C588 C586 1.478 . S
C588 C590 1.381 . S
C588 C594 1.383 1_554 S
C589 C585 1.495 . S
C589 H595 0.959 . S
C589 H596 0.961 . S
C589 H597 0.960 . S
C590 C588 1.381 . S
C590 C591 1.394 . S
C590 H598 0.930 . S
C591 C590 1.394 . S
C591 C592 1.383 . S
C591 H599 0.929 . S
C592 C591 1.383 . S
C592 C593 1.377 1_554 S
C593 H577 0.930 . S
C593 C592 1.377 1_556 S
C593 C594 1.379 . S
C594 H578 0.931 . S
C594 C588 1.383 1_556 S
C594 C593 1.379 . S
H595 C589 0.959 . S
H596 C589 0.961 . S
H597 C589 0.960 . S
H598 C590 0.930 . S
H599 C591 0.929 . S
H600 C608 0.929 . S
H601 C610 0.930 . S
H602 C612 0.930 . S
H603 C615 0.929 . S
H604 C618 0.930 . S
H605 C620 0.960 . S
H606 C620 0.960 . S
H607 C620 0.960 . S
C608 H600 0.929 . S
C608 C609 1.377 . S
C608 C610 1.384 . S
C609 C608 1.377 . S
C609 C615 1.390 . S
C610 H601 0.930 . S
C610 C608 1.384 . S
C610 C611 1.372 . S
C611 C610 1.372 . S
C611 C612 1.400 . S
C611 C616 1.490 . S
C612 H602 0.930 . S
C612 C611 1.400 . S
C612 C615 1.386 . S
H613 C629 0.930 . S
H614 C630 0.931 . S
C615 H603 0.929 . S
C615 C609 1.390 . S
C615 C612 1.386 . S
C616 C611 1.490 . S
C616 C618 1.395 . S
C616 C619 1.403 . S
H617 C623 0.930 . S
C618 H604 0.930 . S
C618 C616 1.395 . S
C618 C621 1.403 . S
C619 C616 1.403 . S
C619 C620 1.524 . S
C619 C623 1.400 . S
C620 H605 0.960 . S
C620 H606 0.960 . S
C620 H607 0.960 . S
C620 C619 1.524 . S
C621 C618 1.403 . S
C621 C622 1.392 . S
C621 C625 1.495 . S
C622 C621 1.392 . S
C622 C623 1.385 . S
C622 C624 1.478 . S
C623 H617 0.930 . S
C623 C619 1.400 . S
C623 C622 1.385 . S
C624 C622 1.478 . S
C624 C626 1.381 . S
C624 C630 1.383 . S
C625 C621 1.495 . S
C625 H631 0.959 . S
C625 H632 0.961 . S
C625 H633 0.960 . S
C626 C624 1.381 . S
C626 C627 1.394 . S
C626 H634 0.930 . S
C627 C626 1.394 . S
C627 C628 1.383 . S
C627 H635 0.929 . S
C628 C627 1.383 . S
C628 C629 1.377 . S
C629 H613 0.930 . S
C629 C628 1.377 . S
C629 C630 1.379 . S
C630 H614 0.931 . S
C630 C624 1.383 . S
C630 C629 1.379 . S
H631 C625 0.959 . S
H632 C625 0.961 . S
H633 C625 0.960 . S
H634 C626 0.930 . S
H635 C627 0.929 . S
H636 C644 0.929 . S
H637 C646 0.930 . S
H638 C648 0.930 . S
H639 C651 0.929 . S
H640 C654 0.930 . S
H641 C656 0.960 . S
H642 C656 0.960 . S
H643 C656 0.960 1_554 S
C644 H636 0.929 . S
C644 C645 1.377 1_556 S
C644 C646 1.384 . S
C645 C644 1.377 1_554 S
C645 C651 1.390 1_455 S
C646 H637 0.930 . S
C646 C644 1.384 . S
C646 C647 1.372 1_556 S
C647 C646 1.372 1_554 S
C647 C648 1.400 1_455 S
C647 C652 1.490 . S
C648 H638 0.930 . S
C648 C647 1.400 1_655 S
C648 C651 1.386 . S
H649 C665 0.930 . S
H650 C666 0.931 . S
C651 H639 0.929 . S
C651 C645 1.390 1_655 S
C651 C648 1.386 . S
C652 C647 1.490 . S
C652 C654 1.395 . S
C652 C655 1.403 1_454 S
H653 C659 0.930 . S
C654 H640 0.930 . S
C654 C652 1.395 . S
C654 C657 1.403 1_554 S
C655 C652 1.403 1_656 S
C655 C656 1.524 . S
C655 C659 1.400 . S
C656 H641 0.960 . S
C656 H642 0.960 . S
C656 H643 0.960 1_556 S
C656 C655 1.524 . S
C657 C654 1.403 1_556 S
C657 C658 1.392 . S
C657 C661 1.495 . S
C658 C657 1.392 . S
C658 C659 1.385 1_455 S
C658 C660 1.478 . S
C659 H653 0.930 . S
C659 C655 1.400 . S
C659 C658 1.385 1_655 S
C660 C658 1.478 . S
C660 C662 1.381 . S
C660 C666 1.383 1_456 S
C661 C657 1.495 . S
C661 H667 0.959 1_556 S
C661 H668 0.958 1_556 S
C661 H669 0.963 . S
C662 C660 1.381 . S
C662 C663 1.394 . S
C662 H670 0.930 . S
C663 C662 1.394 . S
C663 C664 1.383 1_455 S
C663 H671 0.929 . S
C664 C663 1.383 1_655 S
C664 C665 1.377 1_556 S
C665 H649 0.930 . S
C665 C664 1.377 1_554 S
C665 C666 1.379 . S
C666 H650 0.931 . S
C666 C660 1.383 1_654 S
C666 C665 1.379 . S
H667 C661 0.959 1_554 S
H668 C661 0.958 1_554 S
H669 C661 0.963 . S
H670 C662 0.930 . S
H671 C663 0.929 . S
H672 C680 0.929 . S
H673 C682 0.930 . S
H674 C684 0.930 . S
H675 C687 0.929 . S
H676 C690 0.930 . S
H677 C692 0.960 . S
H678 C692 0.960 . S
H679 C692 0.960 . S
C680 H672 0.929 . S
C680 C681 1.377 1_565 S
C680 C682 1.384 . S
C681 C680 1.377 1_545 S
C681 C687 1.390 . S
C682 H673 0.930 . S
C682 C680 1.384 . S
C682 C683 1.348 1_565 S
C683 C682 1.348 1_545 S
C683 C684 1.426 . S
C683 C688 1.487 1_545 S
C684 H674 0.930 . S
C684 C683 1.426 . S
C684 C687 1.386 . S
H685 C701 0.930 . S
H686 C702 0.931 . S
C687 H675 0.929 . S
C687 C681 1.390 . S
C687 C684 1.386 . S
C688 C683 1.487 1_565 S
C688 C690 1.429 . S
C688 C691 1.372 1_565 S
H689 C695 0.930 . S
C690 H676 0.930 . S
C690 C688 1.429 . S
C690 C693 1.403 . S
C691 C688 1.372 1_545 S
C691 C692 1.524 . S
C691 C695 1.400 . S
C692 H677 0.960 . S
C692 H678 0.960 . S
C692 H679 0.960 . S
C692 C691 1.524 . S
C693 C690 1.403 . S
C693 C694 1.392 . S
C693 C697 1.495 . S
C694 C693 1.392 . S
C694 C695 1.385 1_565 S
C694 C696 1.478 . S
C695 H689 0.930 . S
C695 C691 1.400 . S
C695 C694 1.385 1_545 S
C696 C694 1.478 . S
C696 C698 1.381 . S
C696 C702 1.383 1_565 S
C697 C693 1.495 . S
C697 H703 0.959 . S
C697 H704 0.961 . S
C697 H705 0.960 . S
C698 C696 1.381 . S
C698 C699 1.394 . S
C698 H706 0.930 . S
C699 C698 1.394 . S
C699 C700 1.383 . S
C699 H707 0.929 . S
C700 C699 1.383 . S
C700 C701 1.377 1_565 S
C701 H685 0.930 . S
C701 C700 1.377 1_545 S
C701 C702 1.379 . S
C702 H686 0.931 . S
C702 C696 1.383 1_545 S
C702 C701 1.379 . S
H703 C697 0.959 . S
H704 C697 0.961 . S
H705 C697 0.960 . S
H706 C698 0.930 . S
H707 C699 0.929 . S
H708 C716 0.929 . S
H709 C718 0.930 . S
H710 C720 0.930 . S
H711 C723 0.929 . S
H712 C726 0.930 . S
H713 C728 0.960 . S
H714 C728 0.960 . S
H715 C728 0.960 . S
C716 H708 0.929 . S
C716 C717 1.377 1_556 S
C716 C718 1.384 . S
C717 C716 1.377 1_554 S
C717 C723 1.390 . S
C718 H709 0.930 . S
C718 C716 1.384 . S
C718 C719 1.372 1_556 S
C719 C718 1.372 1_554 S
C719 C720 1.400 . S
C719 C724 1.490 . S
C720 H710 0.930 . S
C720 C719 1.400 . S
C720 C723 1.386 . S
H721 C737 0.930 . S
H722 C738 0.931 . S
C723 H711 0.929 . S
C723 C717 1.390 . S
C723 C720 1.386 . S
C724 C719 1.490 . S
C724 C726 1.395 . S
C724 C727 1.403 1_554 S
H725 C731 0.930 . S
C726 H712 0.930 . S
C726 C724 1.395 . S
C726 C729 1.403 . S
C727 C724 1.403 1_556 S
C727 C728 1.524 . S
C727 C731 1.400 . S
C728 H713 0.960 . S
C728 H714 0.960 . S
C728 H715 0.960 . S
C728 C727 1.524 . S
C729 C726 1.403 . S
C729 C730 1.392 1_554 S
C729 C733 1.495 . S
C730 C729 1.392 1_556 S
C730 C731 1.385 . S
C730 C732 1.478 . S
C731 H725 0.930 . S
C731 C727 1.400 . S
C731 C730 1.385 . S
C732 C730 1.478 . S
C732 C734 1.381 . S
C732 C738 1.383 1_556 S
C733 C729 1.495 . S
C733 H739 0.959 . S
C733 H740 0.961 . S
C733 H741 0.960 . S
C734 C732 1.381 . S
C734 C735 1.394 . S
C734 H742 0.930 . S
C735 C734 1.394 . S
C735 C736 1.383 . S
C735 H743 0.929 . S
C736 C735 1.383 . S
C736 C737 1.377 1_556 S
C737 H721 0.930 . S
C737 C736 1.377 1_554 S
C737 C738 1.379 . S
C738 H722 0.931 . S
C738 C732 1.383 1_554 S
C738 C737 1.379 . S
H739 C733 0.959 . S
H740 C733 0.961 . S
H741 C733 0.960 . S
H742 C734 0.930 . S
H743 C735 0.929 . S
H744 C752 0.929 . S
H745 C754 0.930 . S
H746 C756 0.930 . S
H747 C759 0.929 . S
H748 C762 0.930 . S
H749 C764 0.960 . S
H750 C764 0.960 . S
H751 C764 0.960 . S
C752 H744 0.929 . S
C752 C753 1.377 . S
C752 C754 1.384 . S
C753 C752 1.377 . S
C753 C759 1.390 . S
C754 H745 0.930 . S
C754 C752 1.384 . S
C754 C755 1.372 . S
C755 C754 1.372 . S
C755 C756 1.400 . S
C755 C760 1.490 . S
C756 H746 0.930 . S
C756 C755 1.400 . S
C756 C759 1.386 . S
H757 C773 0.930 . S
H758 C774 0.931 . S
C759 H747 0.929 . S
C759 C753 1.390 . S
C759 C756 1.386 . S
C760 C755 1.490 . S
C760 C762 1.395 . S
C760 C763 1.403 . S
H761 C767 0.930 . S
C762 H748 0.930 . S
C762 C760 1.395 . S
C762 C765 1.403 1_655 S
C763 C760 1.403 . S
C763 C764 1.524 . S
C763 C767 1.400 1_655 S
C764 H749 0.960 . S
C764 H750 0.960 . S
C764 H751 0.960 . S
C764 C763 1.524 . S
C765 C762 1.403 1_455 S
C765 C766 1.392 . S
C765 C769 1.495 . S
C766 C765 1.392 . S
C766 C767 1.385 . S
C766 C768 1.478 . S
C767 H761 0.930 . S
C767 C763 1.400 1_455 S
C767 C766 1.385 . S
C768 C766 1.478 . S
C768 C770 1.381 . S
C768 C774 1.383 . S
C769 C765 1.495 . S
C769 H775 0.959 . S
C769 H776 0.961 . S
C769 H777 0.960 . S
C770 C768 1.381 . S
C770 C771 1.394 . S
C770 H778 0.930 . S
C771 C770 1.394 . S
C771 C772 1.383 . S
C771 H779 0.929 . S
C772 C771 1.383 . S
C772 C773 1.377 . S
C773 H757 0.930 . S
C773 C772 1.377 . S
C773 C774 1.379 . S
C774 H758 0.931 . S
C774 C768 1.383 . S
C774 C773 1.379 . S
H775 C769 0.959 . S
H776 C769 0.961 . S
H777 C769 0.960 . S
H778 C770 0.930 . S
H779 C771 0.929 . S
H780 C788 0.929 . S
H781 C790 0.930 . S
H782 C792 0.930 . S
H783 C795 0.927 1_556 S
H784 C798 0.930 . S
H785 C800 0.960 . S
H786 C800 0.960 . S
H787 C800 0.960 . S
C788 H780 0.929 . S
C788 C789 1.377 . S
C788 C790 1.384 . S
C789 C788 1.377 . S
C789 C795 1.393 1_455 S
C790 H781 0.930 . S
C790 C788 1.384 . S
C790 C791 1.372 . S
C791 C790 1.372 . S
C791 C792 1.400 1_454 S
C791 C796 1.490 . S
C792 H782 0.930 . S
C792 C791 1.400 1_656 S
C792 C795 1.385 1_556 S
H793 C809 0.930 . S
H794 C810 0.931 . S
C795 H783 0.927 1_554 S
C795 C789 1.393 1_655 S
C795 C792 1.385 1_554 S
C796 C791 1.490 . S
C796 C798 1.395 1_554 S
C796 C799 1.403 1_455 S
H797 C803 0.930 . S
C798 H784 0.930 . S
C798 C796 1.395 1_556 S
C798 C801 1.403 1_565 S
C799 C796 1.403 1_655 S
C799 C800 1.524 . S
C799 C803 1.400 1_565 S
C800 H785 0.960 . S
C800 H786 0.960 . S
C800 H787 0.960 . S
C800 C799 1.524 . S
C801 C798 1.403 1_545 S
C801 C802 1.392 . S
C801 C805 1.495 . S
C802 C801 1.392 . S
C802 C803 1.385 1_456 S
C802 C804 1.478 . S
C803 H797 0.930 . S
C803 C799 1.400 1_545 S
C803 C802 1.385 1_654 S
C804 C802 1.478 . S
C804 C806 1.381 1_556 S
C804 C810 1.383 1_455 S
C805 C801 1.495 . S
C805 H811 0.959 . S
C805 H812 0.961 . S
C805 H813 0.960 . S
C806 C804 1.381 1_554 S
C806 C807 1.396 . S
C806 H814 0.930 . S
C807 C806 1.396 . S
C807 C808 1.370 1_454 S
C807 H815 0.942 . S
C808 C807 1.370 1_656 S
C808 C809 1.377 . S
C809 H793 0.930 . S
C809 C808 1.377 . S
C809 C810 1.379 . S
C810 H794 0.931 . S
C810 C804 1.383 1_655 S
C810 C809 1.379 . S
H811 C805 0.959 . S
H812 C805 0.961 . S
H813 C805 0.960 . S
H814 C806 0.930 . S
H815 C807 0.942 . S
H816 C824 0.929 . S
H817 C826 0.930 . S
H818 C828 0.930 . S
H819 C831 0.929 . S
H820 C834 0.930 . S
H821 C836 0.960 . S
H822 C836 0.960 . S
H823 C836 0.960 . S
C824 H816 0.929 . S
C824 C825 1.377 . S
C824 C826 1.384 . S
C825 C824 1.377 . S
C825 C831 1.390 . S
C826 H817 0.930 . S
C826 C824 1.384 . S
C826 C827 1.372 . S
C827 C826 1.372 . S
C827 C828 1.400 . S
C827 C832 1.490 . S
C828 H818 0.930 . S
C828 C827 1.400 . S
C828 C831 1.386 . S
H829 C845 0.930 . S
H830 C846 0.931 . S
C831 H819 0.929 . S
C831 C825 1.390 . S
C831 C828 1.386 . S
C832 C827 1.490 . S
C832 C834 1.395 . S
C832 C835 1.403 . S
H833 C839 0.930 . S
C834 H820 0.930 . S
C834 C832 1.395 . S
C834 C837 1.403 . S
C835 C832 1.403 . S
C835 C836 1.524 . S
C835 C839 1.400 . S
C836 H821 0.960 . S
C836 H822 0.960 . S
C836 H823 0.960 . S
C836 C835 1.524 . S
C837 C834 1.403 . S
C837 C838 1.392 . S
C837 C841 1.495 . S
C838 C837 1.392 . S
C838 C839 1.385 . S
C838 C840 1.478 . S
C839 H833 0.930 . S
C839 C835 1.400 . S
C839 C838 1.385 . S
C840 C838 1.478 . S
C840 C842 1.381 . S
C840 C846 1.383 . S
C841 C837 1.495 . S
C841 H847 0.959 . S
C841 H848 0.961 . S
C841 H849 0.960 . S
C842 C840 1.381 . S
C842 C843 1.394 . S
C842 H850 0.930 . S
C843 C842 1.394 . S
C843 C844 1.383 . S
C843 H851 0.929 . S
C844 C843 1.383 . S
C844 C845 1.377 . S
C845 H829 0.930 . S
C845 C844 1.377 . S
C845 C846 1.379 . S
C846 H830 0.931 . S
C846 C840 1.383 . S
C846 C845 1.379 . S
H847 C841 0.959 . S
H848 C841 0.961 . S
H849 C841 0.960 . S
H850 C842 0.930 . S
H851 C843 0.929 . S
H852 C860 0.929 . S
H853 C862 0.930 . S
H854 C864 0.930 . S
H855 C867 0.929 . S
H856 C870 0.930 . S
H857 C872 0.960 . S
H858 C872 0.960 . S
H859 C872 0.960 . S
C860 H852 0.929 . S
C860 C861 1.377 . S
C860 C862 1.384 . S
C861 C860 1.377 . S
C861 C867 1.390 . S
C862 H853 0.930 . S
C862 C860 1.384 . S
C862 C863 1.372 . S
C863 C862 1.372 . S
C863 C864 1.400 . S
C863 C868 1.490 . S
C864 H854 0.930 . S
C864 C863 1.400 . S
C864 C867 1.386 . S
H865 C881 0.930 . S
H866 C882 0.931 . S
C867 H855 0.929 . S
C867 C861 1.390 . S
C867 C864 1.386 . S
C868 C863 1.490 . S
C868 C870 1.395 . S
C868 C871 1.403 . S
H869 C875 0.930 . S
C870 H856 0.930 . S
C870 C868 1.395 . S
C870 C873 1.403 . S
C871 C868 1.403 . S
C871 C872 1.524 . S
C871 C875 1.400 . S
C872 H857 0.960 . S
C872 H858 0.960 . S
C872 H859 0.960 . S
C872 C871 1.524 . S
C873 C870 1.403 . S
C873 C874 1.392 . S
C873 C877 1.495 . S
C874 C873 1.392 . S
C874 C875 1.385 . S
C874 C876 1.478 . S
C875 H869 0.930 . S
C875 C871 1.400 . S
C875 C874 1.385 . S
C876 C874 1.478 . S
C876 C878 1.381 . S
C876 C882 1.383 . S
C877 C873 1.495 . S
C877 H883 0.959 . S
C877 H884 0.961 . S
C877 H885 0.960 . S
C878 C876 1.381 . S
C878 C879 1.394 . S
C878 H886 0.930 . S
C879 C878 1.394 . S
C879 C880 1.383 . S
C879 H887 0.929 . S
C880 C879 1.383 . S
C880 C881 1.377 . S
C881 H865 0.930 . S
C881 C880 1.377 . S
C881 C882 1.379 . S
C882 H866 0.931 . S
C882 C876 1.383 . S
C882 C881 1.379 . S
H883 C877 0.959 . S
H884 C877 0.961 . S
H885 C877 0.960 . S
H886 C878 0.930 . S
H887 C879 0.929 . S
H888 C896 0.929 . S
H889 C898 0.930 . S
H890 C900 0.930 . S
H891 C903 0.929 . S
H892 C906 0.930 . S
H893 C908 0.960 . S
H894 C908 0.960 . S
H895 C908 0.960 . S
C896 H888 0.929 . S
C896 C897 1.377 . S
C896 C898 1.384 . S
C897 C896 1.377 . S
C897 C903 1.390 . S
C898 H889 0.930 . S
C898 C896 1.384 . S
C898 C899 1.372 . S
C899 C898 1.372 . S
C899 C900 1.400 . S
C899 C904 1.490 . S
C900 H890 0.930 . S
C900 C899 1.400 . S
C900 C903 1.386 . S
H901 C917 0.930 . S
H902 C918 0.931 . S
C903 H891 0.929 . S
C903 C897 1.390 . S
C903 C900 1.386 . S
C904 C899 1.490 . S
C904 C906 1.395 . S
C904 C907 1.403 . S
H905 C911 0.930 . S
C906 H892 0.930 . S
C906 C904 1.395 . S
C906 C909 1.403 . S
C907 C904 1.403 . S
C907 C908 1.524 . S
C907 C911 1.400 . S
C908 H893 0.960 . S
C908 H894 0.960 . S
C908 H895 0.960 . S
C908 C907 1.524 . S
C909 C906 1.403 . S
C909 C910 1.392 . S
C909 C913 1.495 . S
C910 C909 1.392 . S
C910 C911 1.385 . S
C910 C912 1.478 . S
C911 H905 0.930 . S
C911 C907 1.400 . S
C911 C910 1.385 . S
C912 C910 1.478 . S
C912 C914 1.381 . S
C912 C918 1.383 . S
C913 C909 1.495 . S
C913 H919 0.959 . S
C913 H920 0.961 . S
C913 H921 0.960 . S
C914 C912 1.381 . S
C914 C915 1.394 . S
C914 H922 0.930 . S
C915 C914 1.394 . S
C915 C916 1.383 . S
C915 H923 0.929 . S
C916 C915 1.383 . S
C916 C917 1.377 . S
C917 H901 0.930 . S
C917 C916 1.377 . S
C917 C918 1.379 . S
C918 H902 0.931 . S
C918 C912 1.383 . S
C918 C917 1.379 . S
H919 C913 0.959 . S
H920 C913 0.961 . S
H921 C913 0.960 . S
H922 C914 0.930 . S
H923 C915 0.929 . S
H924 C932 0.929 . S
H925 C934 0.930 . S
H926 C936 0.930 . S
H927 C939 0.929 . S
H928 C942 0.930 . S
H929 C944 0.960 . S
H930 C944 0.960 . S
H931 C944 0.960 . S
C932 H924 0.929 . S
C932 C933 1.377 . S
C932 C934 1.384 . S
C933 C932 1.377 . S
C933 C939 1.390 . S
C934 H925 0.930 . S
C934 C932 1.384 . S
C934 C935 1.372 . S
C935 C934 1.372 . S
C935 C936 1.400 . S
C935 C940 1.490 . S
C936 H926 0.930 . S
C936 C935 1.400 . S
C936 C939 1.386 . S
H937 C953 0.930 . S
H938 C954 0.931 . S
C939 H927 0.929 . S
C939 C933 1.390 . S
C939 C936 1.386 . S
C940 C935 1.490 . S
C940 C942 1.395 . S
C940 C943 1.403 . S
H941 C947 0.930 . S
C942 H928 0.930 . S
C942 C940 1.395 . S
C942 C945 1.403 . S
C943 C940 1.403 . S
C943 C944 1.524 . S
C943 C947 1.400 . S
C944 H929 0.960 . S
C944 H930 0.960 . S
C944 H931 0.960 . S
C944 C943 1.524 . S
C945 C942 1.403 . S
C945 C946 1.392 . S
C945 C949 1.495 . S
C946 C945 1.392 . S
C946 C947 1.385 . S
C946 C948 1.478 . S
C947 H941 0.930 . S
C947 C943 1.400 . S
C947 C946 1.385 . S
C948 C946 1.478 . S
C948 C950 1.381 . S
C948 C954 1.383 . S
C949 C945 1.495 . S
C949 H955 0.959 . S
C949 H956 0.961 . S
C949 H957 0.960 . S
C950 C948 1.381 . S
C950 C951 1.394 . S
C950 H958 0.930 . S
C951 C950 1.394 . S
C951 C952 1.383 . S
C951 H959 0.929 . S
C952 C951 1.383 . S
C952 C953 1.377 . S
C953 H937 0.930 . S
C953 C952 1.377 . S
C953 C954 1.379 . S
C954 H938 0.931 . S
C954 C948 1.383 . S
C954 C953 1.379 . S
H955 C949 0.959 . S
H956 C949 0.961 . S
H957 C949 0.960 . S
H958 C950 0.930 . S
H959 C951 0.929 . S
H960 C968 0.929 . S
H961 C970 0.930 . S
H962 C972 0.930 . S
H963 C975 0.929 . S
H964 C978 0.930 . S
H965 C980 0.960 . S
H966 C980 0.960 . S
H967 C980 0.960 . S
C968 H960 0.929 . S
C968 C969 1.377 . S
C968 C970 1.384 . S
C969 C968 1.377 . S
C969 C975 1.390 . S
C970 H961 0.930 . S
C970 C968 1.384 . S
C970 C971 1.372 . S
C971 C970 1.372 . S
C971 C972 1.400 . S
C971 C976 1.490 . S
C972 H962 0.930 . S
C972 C971 1.400 . S
C972 C975 1.386 . S
H973 C989 0.930 . S
H974 C990 0.931 . S
C975 H963 0.929 . S
C975 C969 1.390 . S
C975 C972 1.386 . S
C976 C971 1.490 . S
C976 C978 1.395 . S
C976 C979 1.403 . S
H977 C983 0.930 . S
C978 H964 0.930 . S
C978 C976 1.395 . S
C978 C981 1.403 . S
C979 C976 1.403 . S
C979 C980 1.524 . S
C979 C983 1.400 . S
C980 H965 0.960 . S
C980 H966 0.960 . S
C980 H967 0.960 . S
C980 C979 1.524 . S
C981 C978 1.403 . S
C981 C982 1.392 . S
C981 C985 1.495 . S
C982 C981 1.392 . S
C982 C983 1.385 . S
C982 C984 1.478 . S
C983 H977 0.930 . S
C983 C979 1.400 . S
C983 C982 1.385 . S
C984 C982 1.478 . S
C984 C986 1.381 . S
C984 C990 1.383 . S
C985 C981 1.495 . S
C985 H991 0.959 . S
C985 H992 0.961 . S
C985 H993 0.960 . S
C986 C984 1.381 . S
C986 C987 1.394 . S
C986 H994 0.930 . S
C987 C986 1.394 . S
C987 C988 1.383 . S
C987 H995 0.929 . S
C988 C987 1.383 . S
C988 C989 1.377 . S
C989 H973 0.930 . S
C989 C988 1.377 . S
C989 C990 1.379 . S
C990 H974 0.931 . S
C990 C984 1.383 . S
C990 C989 1.379 . S
H991 C985 0.959 . S
H992 C985 0.961 . S
H993 C985 0.960 . S
H994 C986 0.930 . S
H995 C987 0.929 . S
H996 C1004 0.929 . S
H997 C1006 0.930 . S
H998 C1008 0.930 . S
H999 C1011 0.929 . S
H1000 C1014 0.930 . S
H1001 C1016 0.960 . S
H1002 C1016 0.960 . S
H1003 C1016 0.960 . S
C1004 H996 0.929 . S
C1004 C1005 1.377 . S
C1004 C1006 1.384 . S
C1005 C1004 1.377 . S
C1005 C1011 1.390 . S
C1006 H997 0.930 . S
C1006 C1004 1.384 . S
C1006 C1007 1.372 . S
C1007 C1006 1.372 . S
C1007 C1008 1.400 . S
C1007 C1012 1.490 . S
C1008 H998 0.930 . S
C1008 C1007 1.400 . S
C1008 C1011 1.386 . S
H1009 C1025 0.930 . S
H1010 C1026 0.931 . S
C1011 H999 0.929 . S
C1011 C1005 1.390 . S
C1011 C1008 1.386 . S
C1012 C1007 1.490 . S
C1012 C1014 1.395 . S
C1012 C1015 1.403 . S
H1013 C1019 0.930 . S
C1014 H1000 0.930 . S
C1014 C1012 1.395 . S
C1014 C1017 1.403 . S
C1015 C1012 1.403 . S
C1015 C1016 1.524 . S
C1015 C1019 1.400 . S
C1016 H1001 0.960 . S
C1016 H1002 0.960 . S
C1016 H1003 0.960 . S
C1016 C1015 1.524 . S
C1017 C1014 1.403 . S
C1017 C1018 1.392 . S
C1017 C1021 1.495 . S
C1018 C1017 1.392 . S
C1018 C1019 1.385 . S
C1018 C1020 1.478 . S
C1019 H1013 0.930 . S
C1019 C1015 1.400 . S
C1019 C1018 1.385 . S
C1020 C1018 1.478 . S
C1020 C1022 1.381 . S
C1020 C1026 1.383 . S
C1021 C1017 1.495 . S
C1021 H1027 0.959 . S
C1021 H1028 0.961 . S
C1021 H1029 0.960 . S
C1022 C1020 1.381 . S
C1022 C1023 1.394 . S
C1022 H1030 0.930 . S
C1023 C1022 1.394 . S
C1023 C1024 1.383 . S
C1023 H1031 0.929 . S
C1024 C1023 1.383 . S
C1024 C1025 1.377 . S
C1025 H1009 0.930 . S
C1025 C1024 1.377 . S
C1025 C1026 1.379 . S
C1026 H1010 0.931 . S
C1026 C1020 1.383 . S
C1026 C1025 1.379 . S
H1027 C1021 0.959 . S
H1028 C1021 0.961 . S
H1029 C1021 0.960 . S
H1030 C1022 0.930 . S
H1031 C1023 0.929 . S
H1032 C1040 0.929 . S
H1033 C1042 0.930 . S
H1034 C1044 0.930 . S
H1035 C1047 0.929 . S
H1036 C1050 0.930 . S
H1037 C1052 0.960 . S
H1038 C1052 0.960 . S
H1039 C1052 0.960 . S
C1040 H1032 0.929 . S
C1040 C1041 1.377 . S
C1040 C1042 1.384 . S
C1041 C1040 1.377 . S
C1041 C1047 1.390 . S
C1042 H1033 0.930 . S
C1042 C1040 1.384 . S
C1042 C1043 1.372 . S
C1043 C1042 1.372 . S
C1043 C1044 1.400 . S
C1043 C1048 1.490 . S
C1044 H1034 0.930 . S
C1044 C1043 1.400 . S
C1044 C1047 1.386 . S
H1045 C1061 0.930 . S
H1046 C1062 0.931 . S
C1047 H1035 0.929 . S
C1047 C1041 1.390 . S
C1047 C1044 1.386 . S
C1048 C1043 1.490 . S
C1048 C1050 1.395 . S
C1048 C1051 1.403 . S
H1049 C1055 0.930 . S
C1050 H1036 0.930 . S
C1050 C1048 1.395 . S
C1050 C1053 1.403 . S
C1051 C1048 1.403 . S
C1051 C1052 1.524 . S
C1051 C1055 1.400 . S
C1052 H1037 0.960 . S
C1052 H1038 0.960 . S
C1052 H1039 0.960 . S
C1052 C1051 1.524 . S
C1053 C1050 1.403 . S
C1053 C1054 1.392 . S
C1053 C1057 1.495 . S
C1054 C1053 1.392 . S
C1054 C1055 1.385 . S
C1054 C1056 1.478 . S
C1055 H1049 0.930 . S
C1055 C1051 1.400 . S
C1055 C1054 1.385 . S
C1056 C1054 1.478 . S
C1056 C1058 1.381 . S
C1056 C1062 1.383 . S
C1057 C1053 1.495 . S
C1057 H1063 0.959 . S
C1057 H1064 0.961 . S
C1057 H1065 0.960 . S
C1058 C1056 1.381 . S
C1058 C1059 1.394 . S
C1058 H1066 0.930 . S
C1059 C1058 1.394 . S
C1059 C1060 1.383 . S
C1059 H1067 0.929 . S
C1060 C1059 1.383 . S
C1060 C1061 1.377 . S
C1061 H1045 0.930 . S
C1061 C1060 1.377 . S
C1061 C1062 1.379 . S
C1062 H1046 0.931 . S
C1062 C1056 1.383 . S
C1062 C1061 1.379 . S
H1063 C1057 0.959 . S
H1064 C1057 0.961 . S
H1065 C1057 0.960 . S
H1066 C1058 0.930 . S
H1067 C1059 0.929 . S
H1068 C1076 0.929 . S
H1069 C1078 0.930 . S
H1070 C1080 0.930 . S
H1071 C1083 0.929 . S
H1072 C1086 0.930 . S
H1073 C1088 0.960 . S
H1074 C1088 0.960 . S
H1075 C1088 0.960 . S
C1076 H1068 0.929 . S
C1076 C1077 1.377 . S
C1076 C1078 1.384 . S
C1077 C1076 1.377 . S
C1077 C1083 1.390 . S
C1078 H1069 0.930 . S
C1078 C1076 1.384 . S
C1078 C1079 1.372 . S
C1079 C1078 1.372 . S
C1079 C1080 1.400 . S
C1079 C1084 1.490 . S
C1080 H1070 0.930 . S
C1080 C1079 1.400 . S
C1080 C1083 1.386 . S
H1081 C1097 0.930 . S
H1082 C1098 0.931 . S
C1083 H1071 0.929 . S
C1083 C1077 1.390 . S
C1083 C1080 1.386 . S
C1084 C1079 1.490 . S
C1084 C1086 1.395 . S
C1084 C1087 1.403 . S
H1085 C1091 0.930 . S
C1086 H1072 0.930 . S
C1086 C1084 1.395 . S
C1086 C1089 1.403 . S
C1087 C1084 1.403 . S
C1087 C1088 1.524 . S
C1087 C1091 1.400 . S
C1088 H1073 0.960 . S
C1088 H1074 0.960 . S
C1088 H1075 0.960 . S
C1088 C1087 1.524 . S
C1089 C1086 1.403 . S
C1089 C1090 1.392 . S
C1089 C1093 1.495 . S
C1090 C1089 1.392 . S
C1090 C1091 1.385 . S
C1090 C1092 1.478 . S
C1091 H1085 0.930 . S
C1091 C1087 1.400 . S
C1091 C1090 1.385 . S
C1092 C1090 1.478 . S
C1092 C1094 1.381 . S
C1092 C1098 1.383 . S
C1093 C1089 1.495 . S
C1093 H1099 0.959 . S
C1093 H1100 0.961 . S
C1093 H1101 0.960 . S
C1094 C1092 1.381 . S
C1094 C1095 1.394 . S
C1094 H1102 0.930 . S
C1095 C1094 1.394 . S
C1095 C1096 1.383 . S
C1095 H1103 0.929 . S
C1096 C1095 1.383 . S
C1096 C1097 1.377 . S
C1097 H1081 0.930 . S
C1097 C1096 1.377 . S
C1097 C1098 1.379 . S
C1098 H1082 0.931 . S
C1098 C1092 1.383 . S
C1098 C1097 1.379 . S
H1099 C1093 0.959 . S
H1100 C1093 0.961 . S
H1101 C1093 0.960 . S
H1102 C1094 0.930 . S
H1103 C1095 0.929 . S
H1104 C1112 0.929 . S
H1105 C1114 0.930 . S
H1106 C1116 0.930 . S
H1107 C1119 0.929 . S
H1108 C1122 0.930 . S
H1109 C1124 0.960 . S
H1110 C1124 0.960 . S
H1111 C1124 0.960 . S
C1112 H1104 0.929 . S
C1112 C1113 1.377 . S
C1112 C1114 1.384 . S
C1113 C1112 1.377 . S
C1113 C1119 1.390 . S
C1114 H1105 0.930 . S
C1114 C1112 1.384 . S
C1114 C1115 1.372 . S
C1115 C1114 1.372 . S
C1115 C1116 1.400 . S
C1115 C1120 1.490 . S
C1116 H1106 0.930 . S
C1116 C1115 1.400 . S
C1116 C1119 1.386 . S
H1117 C1133 0.930 . S
H1118 C1134 0.931 . S
C1119 H1107 0.929 . S
C1119 C1113 1.390 . S
C1119 C1116 1.386 . S
C1120 C1115 1.490 . S
C1120 C1122 1.395 . S
C1120 C1123 1.403 . S
H1121 C1127 0.930 . S
C1122 H1108 0.930 . S
C1122 C1120 1.395 . S
C1122 C1125 1.403 . S
C1123 C1120 1.403 . S
C1123 C1124 1.524 . S
C1123 C1127 1.400 . S
C1124 H1109 0.960 . S
C1124 H1110 0.960 . S
C1124 H1111 0.960 . S
C1124 C1123 1.524 . S
C1125 C1122 1.403 . S
C1125 C1126 1.392 . S
C1125 C1129 1.495 . S
C1126 C1125 1.392 . S
C1126 C1127 1.385 . S
C1126 C1128 1.478 . S
C1127 H1121 0.930 . S
C1127 C1123 1.400 . S
C1127 C1126 1.385 . S
C1128 C1126 1.478 . S
C1128 C1130 1.381 . S
C1128 C1134 1.383 . S
C1129 C1125 1.495 . S
C1129 H1135 0.959 . S
C1129 H1136 0.961 . S
C1129 H1137 0.960 . S
C1130 C1128 1.381 . S
C1130 C1131 1.394 . S
C1130 H1138 0.930 . S
C1131 C1130 1.394 . S
C1131 C1132 1.383 . S
C1131 H1139 0.929 . S
C1132 C1131 1.383 . S
C1132 C1133 1.377 . S
C1133 H1117 0.930 . S
C1133 C1132 1.377 . S
C1133 C1134 1.379 . S
C1134 H1118 0.931 . S
C1134 C1128 1.383 . S
C1134 C1133 1.379 . S
H1135 C1129 0.959 . S
H1136 C1129 0.961 . S
H1137 C1129 0.960 . S
H1138 C1130 0.930 . S
H1139 C1131 0.929 . S
H1140 C1148 0.929 . S
H1141 C1150 0.930 . S
H1142 C1152 0.930 . S
H1143 C1155 0.929 . S
H1144 C1158 0.930 . S
H1145 C1160 0.960 . S
H1146 C1160 0.960 . S
H1147 C1160 0.960 . S
C1148 H1140 0.929 . S
C1148 C1149 1.377 . S
C1148 C1150 1.384 . S
C1149 C1148 1.377 . S
C1149 C1155 1.390 . S
C1150 H1141 0.930 . S
C1150 C1148 1.384 . S
C1150 C1151 1.372 . S
C1151 C1150 1.372 . S
C1151 C1152 1.400 . S
C1151 C1156 1.490 . S
C1152 H1142 0.930 . S
C1152 C1151 1.400 . S
C1152 C1155 1.386 . S
H1153 C1169 0.930 . S
H1154 C1170 0.931 . S
C1155 H1143 0.929 . S
C1155 C1149 1.390 . S
C1155 C1152 1.386 . S
C1156 C1151 1.490 . S
C1156 C1158 1.395 . S
C1156 C1159 1.403 . S
H1157 C1163 0.930 . S
C1158 H1144 0.930 . S
C1158 C1156 1.395 . S
C1158 C1161 1.403 . S
C1159 C1156 1.403 . S
C1159 C1160 1.524 . S
C1159 C1163 1.400 . S
C1160 H1145 0.960 . S
C1160 H1146 0.960 . S
C1160 H1147 0.960 . S
C1160 C1159 1.524 . S
C1161 C1158 1.403 . S
C1161 C1162 1.392 . S
C1161 C1165 1.495 . S
C1162 C1161 1.392 . S
C1162 C1163 1.385 . S
C1162 C1164 1.478 . S
C1163 H1157 0.930 . S
C1163 C1159 1.400 . S
C1163 C1162 1.385 . S
C1164 C1162 1.478 . S
C1164 C1166 1.381 . S
C1164 C1170 1.383 . S
C1165 C1161 1.495 . S
C1165 H1171 0.959 . S
C1165 H1172 0.961 . S
C1165 H1173 0.960 . S
C1166 C1164 1.381 . S
C1166 C1167 1.394 . S
C1166 H1174 0.930 . S
C1167 C1166 1.394 . S
C1167 C1168 1.383 . S
C1167 H1175 0.929 . S
C1168 C1167 1.383 . S
C1168 C1169 1.377 . S
C1169 H1153 0.930 . S
C1169 C1168 1.377 . S
C1169 C1170 1.379 . S
C1170 H1154 0.931 . S
C1170 C1164 1.383 . S
C1170 C1169 1.379 . S
H1171 C1165 0.959 . S
H1172 C1165 0.961 . S
H1173 C1165 0.960 . S
H1174 C1166 0.930 . S
H1175 C1167 0.929 . S
H1176 C1184 0.929 . S
H1177 C1186 0.930 . S
H1178 C1188 0.930 . S
H1179 C1191 0.929 . S
H1180 C1194 0.930 . S
H1181 C1196 0.960 . S
H1182 C1196 0.960 . S
H1183 C1196 0.960 . S
C1184 H1176 0.929 . S
C1184 C1185 1.377 . S
C1184 C1186 1.384 . S
C1185 C1184 1.377 . S
C1185 C1191 1.390 . S
C1186 H1177 0.930 . S
C1186 C1184 1.384 . S
C1186 C1187 1.372 . S
C1187 C1186 1.372 . S
C1187 C1188 1.400 . S
C1187 C1192 1.490 . S
C1188 H1178 0.930 . S
C1188 C1187 1.400 . S
C1188 C1191 1.386 . S
H1189 C1205 0.930 . S
H1190 C1206 0.931 . S
C1191 H1179 0.929 . S
C1191 C1185 1.390 . S
C1191 C1188 1.386 . S
C1192 C1187 1.490 . S
C1192 C1194 1.395 . S
C1192 C1195 1.403 . S
H1193 C1199 0.930 . S
C1194 H1180 0.930 . S
C1194 C1192 1.395 . S
C1194 C1197 1.403 . S
C1195 C1192 1.403 . S
C1195 C1196 1.524 . S
C1195 C1199 1.400 . S
C1196 H1181 0.960 . S
C1196 H1182 0.960 . S
C1196 H1183 0.960 . S
C1196 C1195 1.524 . S
C1197 C1194 1.403 . S
C1197 C1198 1.392 . S
C1197 C1201 1.495 . S
C1198 C1197 1.392 . S
C1198 C1199 1.385 . S
C1198 C1200 1.478 . S
C1199 H1193 0.930 . S
C1199 C1195 1.400 . S
C1199 C1198 1.385 . S
C1200 C1198 1.478 . S
C1200 C1202 1.381 . S
C1200 C1206 1.383 . S
C1201 C1197 1.495 . S
C1201 H1207 0.959 . S
C1201 H1208 0.961 . S
C1201 H1209 0.960 . S
C1202 C1200 1.381 . S
C1202 C1203 1.394 . S
C1202 H1210 0.930 . S
C1203 C1202 1.394 . S
C1203 C1204 1.383 . S
C1203 H1211 0.929 . S
C1204 C1203 1.383 . S
C1204 C1205 1.377 . S
C1205 H1189 0.930 . S
C1205 C1204 1.377 . S
C1205 C1206 1.379 . S
C1206 H1190 0.931 . S
C1206 C1200 1.383 . S
C1206 C1205 1.379 . S
H1207 C1201 0.959 . S
H1208 C1201 0.961 . S
H1209 C1201 0.960 . S
H1210 C1202 0.930 . S
H1211 C1203 0.929 . S
H1212 C1220 0.929 . S
H1213 C1222 0.930 . S
H1214 C1224 0.930 . S
H1215 C1227 0.929 . S
H1216 C1230 0.930 . S
H1217 C1232 0.960 . S
H1218 C1232 0.960 . S
H1219 C1232 0.960 . S
C1220 H1212 0.929 . S
C1220 C1221 1.377 . S
C1220 C1222 1.384 . S
C1221 C1220 1.377 . S
C1221 C1227 1.390 . S
C1222 H1213 0.930 . S
C1222 C1220 1.384 . S
C1222 C1223 1.372 . S
C1223 C1222 1.372 . S
C1223 C1224 1.400 . S
C1223 C1228 1.490 . S
C1224 H1214 0.930 . S
C1224 C1223 1.400 . S
C1224 C1227 1.386 . S
H1225 C1241 0.930 . S
H1226 C1242 0.931 . S
C1227 H1215 0.929 . S
C1227 C1221 1.390 . S
C1227 C1224 1.386 . S
C1228 C1223 1.490 . S
C1228 C1230 1.395 . S
C1228 C1231 1.403 . S
H1229 C1235 0.930 . S
C1230 H1216 0.930 . S
C1230 C1228 1.395 . S
C1230 C1233 1.403 . S
C1231 C1228 1.403 . S
C1231 C1232 1.524 . S
C1231 C1235 1.400 . S
C1232 H1217 0.960 . S
C1232 H1218 0.960 . S
C1232 H1219 0.960 . S
C1232 C1231 1.524 . S
C1233 C1230 1.403 . S
C1233 C1234 1.392 . S
C1233 C1237 1.495 . S
C1234 C1233 1.392 . S
C1234 C1235 1.385 . S
C1234 C1236 1.478 . S
C1235 H1229 0.930 . S
C1235 C1231 1.400 . S
C1235 C1234 1.385 . S
C1236 C1234 1.478 . S
C1236 C1238 1.381 . S
C1236 C1242 1.383 . S
C1237 C1233 1.495 . S
C1237 H1243 0.959 . S
C1237 H1244 0.961 . S
C1237 H1245 0.960 . S
C1238 C1236 1.381 . S
C1238 C1239 1.394 . S
C1238 H1246 0.930 . S
C1239 C1238 1.394 . S
C1239 C1240 1.383 . S
C1239 H1247 0.929 . S
C1240 C1239 1.383 . S
C1240 C1241 1.377 . S
C1241 H1225 0.930 . S
C1241 C1240 1.377 . S
C1241 C1242 1.379 . S
C1242 H1226 0.931 . S
C1242 C1236 1.383 . S
C1242 C1241 1.379 . S
H1243 C1237 0.959 . S
H1244 C1237 0.961 . S
H1245 C1237 0.960 . S
H1246 C1238 0.930 . S
H1247 C1239 0.929 . S
H1248 C1256 0.929 . S
H1249 C1258 0.930 . S
H1250 C1260 0.930 . S
H1251 C1263 0.929 . S
H1252 C1266 0.930 . S
H1253 C1268 0.960 . S
H1254 C1268 0.960 . S
H1255 C1268 0.960 . S
C1256 H1248 0.929 . S
C1256 C1257 1.377 . S
C1256 C1258 1.384 . S
C1257 C1256 1.377 . S
C1257 C1263 1.390 . S
C1258 H1249 0.930 . S
C1258 C1256 1.384 . S
C1258 C1259 1.372 . S
C1259 C1258 1.372 . S
C1259 C1260 1.400 . S
C1259 C1264 1.490 . S
C1260 H1250 0.930 . S
C1260 C1259 1.400 . S
C1260 C1263 1.386 . S
H1261 C1277 0.930 . S
H1262 C1278 0.931 . S
C1263 H1251 0.929 . S
C1263 C1257 1.390 . S
C1263 C1260 1.386 . S
C1264 C1259 1.490 . S
C1264 C1266 1.395 . S
C1264 C1267 1.403 . S
H1265 C1271 0.930 . S
C1266 H1252 0.930 . S
C1266 C1264 1.395 . S
C1266 C1269 1.403 . S
C1267 C1264 1.403 . S
C1267 C1268 1.524 . S
C1267 C1271 1.400 . S
C1268 H1253 0.960 . S
C1268 H1254 0.960 . S
C1268 H1255 0.960 . S
C1268 C1267 1.524 . S
C1269 C1266 1.403 . S
C1269 C1270 1.392 . S
C1269 C1273 1.495 . S
C1270 C1269 1.392 . S
C1270 C1271 1.385 . S
C1270 C1272 1.478 . S
C1271 H1265 0.930 . S
C1271 C1267 1.400 . S
C1271 C1270 1.385 . S
C1272 C1270 1.478 . S
C1272 C1274 1.381 . S
C1272 C1278 1.383 . S
C1273 C1269 1.495 . S
C1273 H1279 0.959 . S
C1273 H1280 0.961 . S
C1273 H1281 0.960 . S
C1274 C1272 1.381 . S
C1274 C1275 1.394 . S
C1274 H1282 0.930 . S
C1275 C1274 1.394 . S
C1275 C1276 1.383 . S
C1275 H1283 0.929 . S
C1276 C1275 1.383 . S
C1276 C1277 1.377 . S
C1277 H1261 0.930 . S
C1277 C1276 1.377 . S
C1277 C1278 1.379 . S
C1278 H1262 0.931 . S
C1278 C1272 1.383 . S
C1278 C1277 1.379 . S
H1279 C1273 0.959 . S
H1280 C1273 0.961 . S
H1281 C1273 0.960 . S
H1282 C1274 0.930 . S
H1283 C1275 0.929 . S
H1284 C1292 0.929 . S
H1285 C1294 0.930 . S
H1286 C1296 0.930 . S
H1287 C1299 0.929 . S
H1288 C1302 0.930 . S
H1289 C1304 0.960 . S
H1290 C1304 0.960 . S
H1291 C1304 0.960 . S
C1292 H1284 0.929 . S
C1292 C1293 1.377 . S
C1292 C1294 1.384 . S
C1293 C1292 1.377 . S
C1293 C1299 1.390 . S
C1294 H1285 0.930 . S
C1294 C1292 1.384 . S
C1294 C1295 1.372 . S
C1295 C1294 1.372 . S
C1295 C1296 1.400 . S
C1295 C1300 1.490 . S
C1296 H1286 0.930 . S
C1296 C1295 1.400 . S
C1296 C1299 1.386 . S
H1297 C1313 0.930 . S
H1298 C1314 0.931 . S
C1299 H1287 0.929 . S
C1299 C1293 1.390 . S
C1299 C1296 1.386 . S
C1300 C1295 1.490 . S
C1300 C1302 1.395 . S
C1300 C1303 1.403 . S
H1301 C1307 0.930 . S
C1302 H1288 0.930 . S
C1302 C1300 1.395 . S
C1302 C1305 1.403 . S
C1303 C1300 1.403 . S
C1303 C1304 1.524 . S
C1303 C1307 1.400 . S
C1304 H1289 0.960 . S
C1304 H1290 0.960 . S
C1304 H1291 0.960 . S
C1304 C1303 1.524 . S
C1305 C1302 1.403 . S
C1305 C1306 1.392 . S
C1305 C1309 1.495 . S
C1306 C1305 1.392 . S
C1306 C1307 1.385 . S
C1306 C1308 1.478 . S
C1307 H1301 0.930 . S
C1307 C1303 1.400 . S
C1307 C1306 1.385 . S
C1308 C1306 1.478 . S
C1308 C1310 1.381 . S
C1308 C1314 1.383 . S
C1309 C1305 1.495 . S
C1309 H1315 0.959 . S
C1309 H1316 0.961 . S
C1309 H1317 0.960 . S
C1310 C1308 1.381 . S
C1310 C1311 1.394 . S
C1310 H1318 0.930 . S
C1311 C1310 1.394 . S
C1311 C1312 1.383 . S
C1311 H1319 0.929 . S
C1312 C1311 1.383 . S
C1312 C1313 1.377 . S
C1313 H1297 0.930 . S
C1313 C1312 1.377 . S
C1313 C1314 1.379 . S
C1314 H1298 0.931 . S
C1314 C1308 1.383 . S
C1314 C1313 1.379 . S
H1315 C1309 0.959 . S
H1316 C1309 0.961 . S
H1317 C1309 0.960 . S
H1318 C1310 0.930 . S
H1319 C1311 0.929 . S
H1320 C1328 0.929 . S
H1321 C1330 0.930 . S
H1322 C1332 0.930 . S
H1323 C1335 0.929 . S
H1324 C1338 0.930 . S
H1325 C1340 0.960 . S
H1326 C1340 0.960 . S
H1327 C1340 0.960 . S
C1328 H1320 0.929 . S
C1328 C1329 1.377 . S
C1328 C1330 1.384 . S
C1329 C1328 1.377 . S
C1329 C1335 1.390 . S
C1330 H1321 0.930 . S
C1330 C1328 1.384 . S
C1330 C1331 1.372 . S
C1331 C1330 1.372 . S
C1331 C1332 1.400 . S
C1331 C1336 1.490 . S
C1332 H1322 0.930 . S
C1332 C1331 1.400 . S
C1332 C1335 1.386 . S
H1333 C1349 0.930 . S
H1334 C1350 0.931 . S
C1335 H1323 0.929 . S
C1335 C1329 1.390 . S
C1335 C1332 1.386 . S
C1336 C1331 1.490 . S
C1336 C1338 1.395 . S
C1336 C1339 1.403 . S
H1337 C1343 0.930 . S
C1338 H1324 0.930 . S
C1338 C1336 1.395 . S
C1338 C1341 1.403 . S
C1339 C1336 1.403 . S
C1339 C1340 1.524 . S
C1339 C1343 1.400 . S
C1340 H1325 0.960 . S
C1340 H1326 0.960 . S
C1340 H1327 0.960 . S
C1340 C1339 1.524 . S
C1341 C1338 1.403 . S
C1341 C1342 1.392 . S
C1341 C1345 1.495 . S
C1342 C1341 1.392 . S
C1342 C1343 1.385 . S
C1342 C1344 1.478 . S
C1343 H1337 0.930 . S
C1343 C1339 1.400 . S
C1343 C1342 1.385 . S
C1344 C1342 1.478 . S
C1344 C1346 1.381 . S
C1344 C1350 1.383 . S
C1345 C1341 1.495 . S
C1345 H1351 0.959 . S
C1345 H1352 0.961 . S
C1345 H1353 0.960 . S
C1346 C1344 1.381 . S
C1346 C1347 1.394 . S
C1346 H1354 0.930 . S
C1347 C1346 1.394 . S
C1347 C1348 1.383 . S
C1347 H1355 0.929 . S
C1348 C1347 1.383 . S
C1348 C1349 1.377 . S
C1349 H1333 0.930 . S
C1349 C1348 1.377 . S
C1349 C1350 1.379 . S
C1350 H1334 0.931 . S
C1350 C1344 1.383 . S
C1350 C1349 1.379 . S
H1351 C1345 0.959 . S
H1352 C1345 0.961 . S
H1353 C1345 0.960 . S
H1354 C1346 0.930 . S
H1355 C1347 0.929 . S
H1356 C1364 0.929 . S
H1357 C1366 0.930 . S
H1358 C1368 0.930 . S
H1359 C1371 0.929 . S
H1360 C1374 0.930 . S
H1361 C1376 0.960 . S
H1362 C1376 0.960 . S
H1363 C1376 0.960 . S
C1364 H1356 0.929 . S
C1364 C1365 1.377 . S
C1364 C1366 1.384 . S
C1365 C1364 1.377 . S
C1365 C1371 1.390 . S
C1366 H1357 0.930 . S
C1366 C1364 1.384 . S
C1366 C1367 1.372 . S
C1367 C1366 1.372 . S
C1367 C1368 1.400 . S
C1367 C1372 1.490 . S
C1368 H1358 0.930 . S
C1368 C1367 1.400 . S
C1368 C1371 1.386 . S
H1369 C1385 0.930 . S
H1370 C1386 0.931 . S
C1371 H1359 0.929 . S
C1371 C1365 1.390 . S
C1371 C1368 1.386 . S
C1372 C1367 1.490 . S
C1372 C1374 1.395 . S
C1372 C1375 1.403 . S
H1373 C1379 0.930 . S
C1374 H1360 0.930 . S
C1374 C1372 1.395 . S
C1374 C1377 1.403 . S
C1375 C1372 1.403 . S
C1375 C1376 1.524 . S
C1375 C1379 1.400 . S
C1376 H1361 0.960 . S
C1376 H1362 0.960 . S
C1376 H1363 0.960 . S
C1376 C1375 1.524 . S
C1377 C1374 1.403 . S
C1377 C1378 1.392 . S
C1377 C1381 1.495 . S
C1378 C1377 1.392 . S
C1378 C1379 1.385 . S
C1378 C1380 1.478 . S
C1379 H1373 0.930 . S
C1379 C1375 1.400 . S
C1379 C1378 1.385 . S
C1380 C1378 1.478 . S
C1380 C1382 1.381 . S
C1380 C1386 1.383 . S
C1381 C1377 1.495 . S
C1381 H1387 0.959 . S
C1381 H1388 0.961 . S
C1381 H1389 0.960 . S
C1382 C1380 1.381 . S
C1382 C1383 1.394 . S
C1382 H1390 0.930 . S
C1383 C1382 1.394 . S
C1383 C1384 1.383 . S
C1383 H1391 0.929 . S
C1384 C1383 1.383 . S
C1384 C1385 1.377 . S
C1385 H1369 0.930 . S
C1385 C1384 1.377 . S
C1385 C1386 1.379 . S
C1386 H1370 0.931 . S
C1386 C1380 1.383 . S
C1386 C1385 1.379 . S
H1387 C1381 0.959 . S
H1388 C1381 0.961 . S
H1389 C1381 0.960 . S
H1390 C1382 0.930 . S
H1391 C1383 0.929 . S
H1392 C1400 0.929 . S
H1393 C1402 0.930 . S
H1394 C1404 0.930 . S
H1395 C1407 0.925 1_655 S
H1396 C1410 0.930 . S
H1397 C1412 0.960 . S
H1398 C1412 0.960 . S
H1399 C1412 0.960 . S
C1400 H1392 0.929 . S
C1400 C1401 1.377 . S
C1400 C1402 1.384 . S
C1401 C1400 1.377 . S
C1401 C1407 1.390 . S
C1402 H1393 0.930 . S
C1402 C1400 1.384 . S
C1402 C1403 1.372 . S
C1403 C1402 1.372 . S
C1403 C1404 1.400 . S
C1403 C1408 1.490 . S
C1404 H1394 0.930 . S
C1404 C1403 1.400 . S
C1404 C1407 1.386 . S
H1405 C1421 0.930 . S
H1406 C1422 0.931 . S
C1407 H1395 0.925 1_455 S
C1407 C1401 1.390 . S
C1407 C1404 1.386 . S
C1408 C1403 1.490 . S
C1408 C1410 1.395 . S
C1408 C1411 1.403 . S
H1409 C1415 0.930 . S
C1410 H1396 0.930 . S
C1410 C1408 1.395 . S
C1410 C1413 1.403 . S
C1411 C1408 1.403 . S
C1411 C1412 1.524 . S
C1411 C1415 1.400 . S
C1412 H1397 0.960 . S
C1412 H1398 0.960 . S
C1412 H1399 0.960 . S
C1412 C1411 1.524 . S
C1413 C1410 1.403 . S
C1413 C1414 1.392 . S
C1413 C1417 1.495 . S
C1414 C1413 1.392 . S
C1414 C1415 1.385 . S
C1414 C1416 1.478 . S
C1415 H1409 0.930 . S
C1415 C1411 1.400 . S
C1415 C1414 1.385 . S
C1416 C1414 1.478 . S
C1416 C1418 1.381 . S
C1416 C1422 1.383 . S
C1417 C1413 1.495 . S
C1417 H1423 0.959 . S
C1417 H1424 0.961 . S
C1417 H1425 0.960 . S
C1418 C1416 1.381 . S
C1418 C1419 1.394 . S
C1418 H1426 0.930 . S
C1419 C1418 1.394 . S
C1419 C1420 1.383 . S
C1419 H1427 0.929 . S
C1420 C1419 1.383 . S
C1420 C1421 1.377 . S
C1421 H1405 0.930 . S
C1421 C1420 1.377 . S
C1421 C1422 1.379 . S
C1422 H1406 0.931 . S
C1422 C1416 1.383 . S
C1422 C1421 1.379 . S
H1423 C1417 0.959 . S
H1424 C1417 0.961 . S
H1425 C1417 0.960 . S
H1426 C1418 0.930 . S
H1427 C1419 0.929 . S
H1428 C1436 0.929 . S
H1429 C1438 0.930 . S
H1430 C1440 0.930 . S
H1431 C1443 0.929 . S
H1432 C1446 0.930 . S
H1433 C1448 0.960 . S
H1434 C1448 0.960 . S
H1435 C1448 0.960 . S
C1436 H1428 0.929 . S
C1436 C1437 1.377 . S
C1436 C1438 1.384 . S
C1437 C1436 1.377 . S
C1437 C1443 1.390 . S
C1438 H1429 0.930 . S
C1438 C1436 1.384 . S
C1438 C1439 1.372 . S
C1439 C1438 1.372 . S
C1439 C1440 1.400 . S
C1439 C1444 1.490 . S
C1440 H1430 0.930 . S
C1440 C1439 1.400 . S
C1440 C1443 1.386 . S
H1441 C1457 0.930 . S
H1442 C1458 0.931 . S
C1443 H1431 0.929 . S
C1443 C1437 1.390 . S
C1443 C1440 1.386 . S
C1444 C1439 1.490 . S
C1444 C1446 1.395 . S
C1444 C1447 1.403 . S
H1445 C1451 0.930 . S
C1446 H1432 0.930 . S
C1446 C1444 1.395 . S
C1446 C1449 1.403 . S
C1447 C1444 1.403 . S
C1447 C1448 1.524 . S
C1447 C1451 1.400 . S
C1448 H1433 0.960 . S
C1448 H1434 0.960 . S
C1448 H1435 0.960 . S
C1448 C1447 1.524 . S
C1449 C1446 1.403 . S
C1449 C1450 1.392 . S
C1449 C1453 1.495 . S
C1450 C1449 1.392 . S
C1450 C1451 1.385 . S
C1450 C1452 1.478 . S
C1451 H1445 0.930 . S
C1451 C1447 1.400 . S
C1451 C1450 1.385 . S
C1452 C1450 1.478 . S
C1452 C1454 1.381 . S
C1452 C1458 1.383 . S
C1453 C1449 1.495 . S
C1453 H1459 0.959 . S
C1453 H1460 0.961 . S
C1453 H1461 0.960 . S
C1454 C1452 1.381 . S
C1454 C1455 1.394 . S
C1454 H1462 0.930 . S
C1455 C1454 1.394 . S
C1455 C1456 1.383 . S
C1455 H1463 0.929 . S
C1456 C1455 1.383 . S
C1456 C1457 1.377 . S
C1457 H1441 0.930 . S
C1457 C1456 1.377 . S
C1457 C1458 1.379 . S
C1458 H1442 0.931 . S
C1458 C1452 1.383 . S
C1458 C1457 1.379 . S
H1459 C1453 0.959 . S
H1460 C1453 0.961 . S
H1461 C1453 0.960 . S
H1462 C1454 0.930 . S
H1463 C1455 0.929 . S
H1464 C1472 0.929 . S
H1465 C1474 0.930 . S
H1466 C1476 0.930 . S
H1467 C1479 0.929 . S
H1468 C1482 0.930 . S
H1469 C1484 0.960 . S
H1470 C1484 0.960 . S
H1471 C1484 0.960 . S
C1472 H1464 0.929 . S
C1472 C1473 1.377 . S
C1472 C1474 1.384 . S
C1473 C1472 1.377 . S
C1473 C1479 1.390 . S
C1474 H1465 0.930 . S
C1474 C1472 1.384 . S
C1474 C1475 1.372 . S
C1475 C1474 1.372 . S
C1475 C1476 1.400 . S
C1475 C1480 1.490 . S
C1476 H1466 0.930 . S
C1476 C1475 1.400 . S
C1476 C1479 1.386 . S
H1477 C1493 0.930 . S
H1478 C1494 0.931 . S
C1479 H1467 0.929 . S
C1479 C1473 1.390 . S
C1479 C1476 1.386 . S
C1480 C1475 1.490 . S
C1480 C1482 1.395 . S
C1480 C1483 1.403 . S
H1481 C1487 0.930 . S
C1482 H1468 0.930 . S
C1482 C1480 1.395 . S
C1482 C1485 1.403 . S
C1483 C1480 1.403 . S
C1483 C1484 1.524 . S
C1483 C1487 1.400 . S
C1484 H1469 0.960 . S
C1484 H1470 0.960 . S
C1484 H1471 0.960 . S
C1484 C1483 1.524 . S
C1485 C1482 1.403 . S
C1485 C1486 1.392 . S
C1485 C1489 1.495 . S
C1486 C1485 1.392 . S
C1486 C1487 1.385 . S
C1486 C1488 1.478 . S
C1487 H1481 0.930 . S
C1487 C1483 1.400 . S
C1487 C1486 1.385 . S
C1488 C1486 1.478 . S
C1488 C1490 1.381 . S
C1488 C1494 1.383 . S
C1489 C1485 1.495 . S
C1489 H1495 0.959 . S
C1489 H1496 0.961 . S
C1489 H1497 0.960 . S
C1490 C1488 1.381 . S
C1490 C1491 1.394 . S
C1490 H1498 0.930 . S
C1491 C1490 1.394 . S
C1491 C1492 1.383 . S
C1491 H1499 0.929 . S
C1492 C1491 1.383 . S
C1492 C1493 1.377 . S
C1493 H1477 0.930 . S
C1493 C1492 1.377 . S
C1493 C1494 1.379 . S
C1494 H1478 0.931 . S
C1494 C1488 1.383 . S
C1494 C1493 1.379 . S
H1495 C1489 0.959 . S
H1496 C1489 0.961 . S
H1497 C1489 0.960 . S
H1498 C1490 0.930 . S
H1499 C1491 0.929 . S
H1500 C1508 0.929 . S
H1501 C1510 0.930 . S
H1502 C1512 0.930 . S
H1503 C1515 0.929 . S
H1504 C1518 0.930 . S
H1505 C1520 0.960 . S
H1506 C1520 0.960 . S
H1507 C1520 0.960 . S
C1508 H1500 0.929 . S
C1508 C1509 1.377 . S
C1508 C1510 1.384 . S
C1509 C1508 1.377 . S
C1509 C1515 1.390 . S
C1510 H1501 0.930 . S
C1510 C1508 1.384 . S
C1510 C1511 1.372 . S
C1511 C1510 1.372 . S
C1511 C1512 1.400 . S
C1511 C1516 1.490 . S
C1512 H1502 0.930 . S
C1512 C1511 1.400 . S
C1512 C1515 1.386 . S
H1513 C1529 0.930 . S
H1514 C1530 0.931 . S
C1515 H1503 0.929 . S
C1515 C1509 1.390 . S
C1515 C1512 1.386 . S
C1516 C1511 1.490 . S
C1516 C1518 1.395 . S
C1516 C1519 1.403 . S
H1517 C1523 0.930 . S
C1518 H1504 0.930 . S
C1518 C1516 1.395 . S
C1518 C1521 1.403 . S
C1519 C1516 1.403 . S
C1519 C1520 1.524 . S
C1519 C1523 1.400 . S
C1520 H1505 0.960 . S
C1520 H1506 0.960 . S
C1520 H1507 0.960 . S
C1520 C1519 1.524 . S
C1521 C1518 1.403 . S
C1521 C1522 1.392 . S
C1521 C1525 1.495 . S
C1522 C1521 1.392 . S
C1522 C1523 1.385 . S
C1522 C1524 1.478 . S
C1523 H1517 0.930 . S
C1523 C1519 1.400 . S
C1523 C1522 1.385 . S
C1524 C1522 1.478 . S
C1524 C1526 1.381 . S
C1524 C1530 1.383 . S
C1525 C1521 1.495 . S
C1525 H1531 0.959 . S
C1525 H1532 0.961 . S
C1525 H1533 0.960 . S
C1526 C1524 1.381 . S
C1526 C1527 1.394 . S
C1526 H1534 0.930 . S
C1527 C1526 1.394 . S
C1527 C1528 1.383 . S
C1527 H1535 0.929 . S
C1528 C1527 1.383 . S
C1528 C1529 1.377 . S
C1529 H1513 0.930 . S
C1529 C1528 1.377 . S
C1529 C1530 1.379 . S
C1530 H1514 0.931 . S
C1530 C1524 1.383 . S
C1530 C1529 1.379 . S
H1531 C1525 0.959 . S
H1532 C1525 0.961 . S
H1533 C1525 0.960 . S
H1534 C1526 0.930 . S
H1535 C1527 0.929 . S
H1536 C1544 0.929 1_455 S
H1537 C1546 0.930 . S
H1538 C1548 0.930 . S
H1539 C1551 0.929 . S
H1540 C1554 0.930 . S
H1541 C1556 0.960 . S
H1542 C1556 0.960 . S
H1543 C1556 0.960 . S
C1544 H1536 0.929 1_655 S
C1544 C1545 1.377 . S
C1544 C1546 1.384 . S
C1545 C1544 1.377 . S
C1545 C1551 1.390 . S
C1546 H1537 0.930 . S
C1546 C1544 1.384 . S
C1546 C1547 1.372 . S
C1547 C1546 1.372 . S
C1547 C1548 1.400 . S
C1547 C1552 1.490 . S
C1548 H1538 0.930 . S
C1548 C1547 1.400 . S
C1548 C1551 1.386 . S
H1549 C1565 0.930 . S
H1550 C1566 0.931 . S
C1551 H1539 0.929 . S
C1551 C1545 1.390 . S
C1551 C1548 1.386 . S
C1552 C1547 1.490 . S
C1552 C1554 1.395 . S
C1552 C1555 1.403 . S
H1553 C1559 0.930 . S
C1554 H1540 0.930 . S
C1554 C1552 1.395 . S
C1554 C1557 1.403 . S
C1555 C1552 1.403 . S
C1555 C1556 1.524 . S
C1555 C1559 1.400 . S
C1556 H1541 0.960 . S
C1556 H1542 0.960 . S
C1556 H1543 0.960 . S
C1556 C1555 1.524 . S
C1557 C1554 1.403 . S
C1557 C1558 1.392 . S
C1557 C1561 1.495 . S
C1558 C1557 1.392 . S
C1558 C1559 1.385 . S
C1558 C1560 1.478 . S
C1559 H1553 0.930 . S
C1559 C1555 1.400 . S
C1559 C1558 1.385 . S
C1560 C1558 1.478 . S
C1560 C1562 1.381 . S
C1560 C1566 1.383 . S
C1561 C1557 1.495 . S
C1561 H1567 0.959 . S
C1561 H1568 0.961 . S
C1561 H1569 0.960 . S
C1562 C1560 1.381 . S
C1562 C1563 1.394 . S
C1562 H1570 0.930 . S
C1563 C1562 1.394 . S
C1563 C1564 1.383 . S
C1563 H1571 0.929 . S
C1564 C1563 1.383 . S
C1564 C1565 1.377 . S
C1565 H1549 0.930 . S
C1565 C1564 1.377 . S
C1565 C1566 1.379 . S
C1566 H1550 0.931 . S
C1566 C1560 1.383 . S
C1566 C1565 1.379 . S
H1567 C1561 0.959 . S
H1568 C1561 0.961 . S
H1569 C1561 0.960 . S
H1570 C1562 0.930 . S
H1571 C1563 0.929 . S
H1572 C1580 0.929 . S
H1573 C1582 0.930 . S
H1574 C1584 0.930 . S
H1575 C1587 0.929 . S
H1576 C1590 0.930 . S
H1577 C1592 0.960 . S
H1578 C1592 0.960 . S
H1579 C1592 0.960 . S
C1580 H1572 0.929 . S
C1580 C1581 1.377 . S
C1580 C1582 1.384 . S
C1581 C1580 1.377 . S
C1581 C1587 1.390 . S
C1582 H1573 0.930 . S
C1582 C1580 1.384 . S
C1582 C1583 1.372 . S
C1583 C1582 1.372 . S
C1583 C1584 1.400 . S
C1583 C1588 1.490 . S
C1584 H1574 0.930 . S
C1584 C1583 1.400 . S
C1584 C1587 1.386 . S
H1585 C1601 0.930 . S
H1586 C1602 0.931 . S
C1587 H1575 0.929 . S
C1587 C1581 1.390 . S
C1587 C1584 1.386 . S
C1588 C1583 1.490 . S
C1588 C1590 1.395 . S
C1588 C1591 1.403 . S
H1589 C1595 0.930 . S
C1590 H1576 0.930 . S
C1590 C1588 1.395 . S
C1590 C1593 1.403 . S
C1591 C1588 1.403 . S
C1591 C1592 1.524 . S
C1591 C1595 1.400 . S
C1592 H1577 0.960 . S
C1592 H1578 0.960 . S
C1592 H1579 0.960 . S
C1592 C1591 1.524 . S
C1593 C1590 1.403 . S
C1593 C1594 1.392 . S
C1593 C1597 1.495 . S
C1594 C1593 1.392 . S
C1594 C1595 1.385 . S
C1594 C1596 1.478 . S
C1595 H1589 0.930 . S
C1595 C1591 1.400 . S
C1595 C1594 1.385 . S
C1596 C1594 1.478 . S
C1596 C1598 1.381 . S
C1596 C1602 1.383 . S
C1597 C1593 1.495 . S
C1597 H1603 0.959 . S
C1597 H1604 0.961 . S
C1597 H1605 0.960 . S
C1598 C1596 1.381 . S
C1598 C1599 1.394 . S
C1598 H1606 0.930 . S
C1599 C1598 1.394 . S
C1599 C1600 1.383 . S
C1599 H1607 0.929 . S
C1600 C1599 1.383 . S
C1600 C1601 1.377 . S
C1601 H1585 0.930 . S
C1601 C1600 1.377 . S
C1601 C1602 1.379 . S
C1602 H1586 0.931 . S
C1602 C1596 1.383 . S
C1602 C1601 1.379 . S
H1603 C1597 0.959 . S
H1604 C1597 0.961 . S
H1605 C1597 0.960 . S
H1606 C1598 0.930 . S
H1607 C1599 0.929 . S
H1608 C1616 0.929 . S
H1609 C1618 0.930 . S
H1610 C1620 0.930 . S
H1611 C1623 0.929 . S
H1612 C1626 0.930 . S
H1613 C1628 0.960 . S
H1614 C1628 0.960 . S
H1615 C1628 0.960 . S
C1616 H1608 0.929 . S
C1616 C1617 1.377 . S
C1616 C1618 1.384 . S
C1617 C1616 1.377 . S
C1617 C1623 1.390 . S
C1618 H1609 0.930 . S
C1618 C1616 1.384 . S
C1618 C1619 1.372 . S
C1619 C1618 1.372 . S
C1619 C1620 1.400 . S
C1619 C1624 1.490 . S
C1620 H1610 0.930 . S
C1620 C1619 1.400 . S
C1620 C1623 1.386 . S
H1621 C1637 0.930 . S
H1622 C1638 0.931 . S
C1623 H1611 0.929 . S
C1623 C1617 1.390 . S
C1623 C1620 1.386 . S
C1624 C1619 1.490 . S
C1624 C1626 1.395 . S
C1624 C1627 1.403 . S
H1625 C1631 0.930 . S
C1626 H1612 0.930 . S
C1626 C1624 1.395 . S
C1626 C1629 1.403 . S
C1627 C1624 1.403 . S
C1627 C1628 1.524 . S
C1627 C1631 1.400 . S
C1628 H1613 0.960 . S
C1628 H1614 0.960 . S
C1628 H1615 0.960 . S
C1628 C1627 1.524 . S
C1629 C1626 1.403 . S
C1629 C1630 1.392 . S
C1629 C1633 1.495 . S
C1630 C1629 1.392 . S
C1630 C1631 1.385 . S
C1630 C1632 1.478 . S
C1631 H1625 0.930 . S
C1631 C1627 1.400 . S
C1631 C1630 1.385 . S
C1632 C1630 1.478 . S
C1632 C1634 1.381 . S
C1632 C1638 1.383 . S
C1633 C1629 1.495 . S
C1633 H1639 0.959 . S
C1633 H1640 0.961 . S
C1633 H1641 0.960 . S
C1634 C1632 1.381 . S
C1634 C1635 1.394 . S
C1634 H1642 0.930 . S
C1635 C1634 1.394 . S
C1635 C1636 1.383 . S
C1635 H1643 0.929 . S
C1636 C1635 1.383 . S
C1636 C1637 1.377 . S
C1637 H1621 0.930 . S
C1637 C1636 1.377 . S
C1637 C1638 1.379 . S
C1638 H1622 0.931 . S
C1638 C1632 1.383 . S
C1638 C1637 1.379 . S
H1639 C1633 0.959 . S
H1640 C1633 0.961 . S
H1641 C1633 0.960 . S
H1642 C1634 0.930 . S
H1643 C1635 0.929 . S
H1644 C1652 0.929 . S
H1645 C1654 0.930 . S
H1646 C1656 0.930 . S
H1647 C1659 0.871 1_655 S
H1648 C1662 0.930 . S
H1649 C1664 0.960 . S
H1650 C1664 0.960 . S
H1651 C1664 0.960 . S
C1652 H1644 0.929 . S
C1652 C1653 1.377 . S
C1652 C1654 1.384 . S
C1653 C1652 1.377 . S
C1653 C1659 1.390 . S
C1654 H1645 0.930 . S
C1654 C1652 1.384 . S
C1654 C1655 1.372 . S
C1655 C1654 1.372 . S
C1655 C1656 1.400 . S
C1655 C1660 1.490 . S
C1656 H1646 0.930 . S
C1656 C1655 1.400 . S
C1656 C1659 1.386 . S
H1657 C1673 0.930 . S
H1658 C1674 0.931 . S
C1659 H1647 0.871 1_455 S
C1659 C1653 1.390 . S
C1659 C1656 1.386 . S
C1660 C1655 1.490 . S
C1660 C1662 1.395 . S
C1660 C1663 1.403 . S
H1661 C1667 0.930 . S
C1662 H1648 0.930 . S
C1662 C1660 1.395 . S
C1662 C1665 1.403 . S
C1663 C1660 1.403 . S
C1663 C1664 1.524 . S
C1663 C1667 1.400 . S
C1664 H1649 0.960 . S
C1664 H1650 0.960 . S
C1664 H1651 0.960 . S
C1664 C1663 1.524 . S
C1665 C1662 1.403 . S
C1665 C1666 1.392 . S
C1665 C1669 1.495 . S
C1666 C1665 1.392 . S
C1666 C1667 1.385 . S
C1666 C1668 1.478 . S
C1667 H1661 0.930 . S
C1667 C1663 1.400 . S
C1667 C1666 1.385 . S
C1668 C1666 1.478 . S
C1668 C1670 1.381 . S
C1668 C1674 1.383 . S
C1669 C1665 1.495 . S
C1669 H1675 0.959 . S
C1669 H1676 0.961 . S
C1669 H1677 0.960 . S
C1670 C1668 1.381 . S
C1670 C1671 1.394 . S
C1670 H1678 0.930 . S
C1671 C1670 1.394 . S
C1671 C1672 1.383 . S
C1671 H1679 0.929 . S
C1672 C1671 1.383 . S
C1672 C1673 1.377 . S
C1673 H1657 0.930 . S
C1673 C1672 1.377 . S
C1673 C1674 1.379 . S
C1674 H1658 0.931 . S
C1674 C1668 1.383 . S
C1674 C1673 1.379 . S
H1675 C1669 0.959 . S
H1676 C1669 0.961 . S
H1677 C1669 0.960 . S
H1678 C1670 0.930 . S
H1679 C1671 0.929 . S
H1680 C1688 0.929 . S
H1681 C1690 0.930 . S
H1682 C1692 0.930 . S
H1683 C1695 0.929 . S
H1684 C1698 0.930 . S
H1685 C1700 0.960 . S
H1686 C1700 0.960 . S
H1687 C1700 0.960 1_545 S
C1688 H1680 0.929 . S
C1688 C1689 1.377 1_565 S
C1688 C1690 1.384 . S
C1689 C1688 1.377 1_545 S
C1689 C1695 1.390 . S
C1690 H1681 0.930 . S
C1690 C1688 1.384 . S
C1690 C1691 1.372 1_565 S
C1691 C1690 1.372 1_545 S
C1691 C1692 1.400 . S
C1691 C1696 1.490 . S
C1692 H1682 0.930 . S
C1692 C1691 1.400 . S
C1692 C1695 1.386 . S
H1693 C1709 0.930 . S
H1694 C1710 0.931 . S
C1695 H1683 0.929 . S
C1695 C1689 1.390 . S
C1695 C1692 1.386 . S
C1696 C1691 1.490 . S
C1696 C1698 1.395 . S
C1696 C1699 1.397 1_545 S
H1697 C1703 0.931 . S
C1698 H1684 0.930 . S
C1698 C1696 1.395 . S
C1698 C1701 1.403 . S
C1699 C1696 1.397 1_565 S
C1699 C1700 1.534 . S
C1699 C1703 1.399 . S
C1700 H1685 0.960 . S
C1700 H1686 0.960 . S
C1700 H1687 0.960 1_565 S
C1700 C1699 1.534 . S
C1701 C1698 1.403 . S
C1701 C1702 1.392 . S
C1701 C1705 1.495 . S
C1702 C1701 1.392 . S
C1702 C1703 1.385 1_545 S
C1702 C1704 1.478 . S
C1703 H1697 0.931 . S
C1703 C1699 1.399 . S
C1703 C1702 1.385 1_565 S
C1704 C1702 1.478 . S
C1704 C1706 1.381 1_545 S
C1704 C1710 1.383 . S
C1705 C1701 1.495 . S
C1705 H1711 0.959 . S
C1705 H1712 0.961 . S
C1705 H1713 0.960 1_545 S
C1706 C1704 1.381 1_565 S
C1706 C1707 1.394 . S
C1706 H1714 0.930 . S
C1707 C1706 1.394 . S
C1707 C1708 1.383 1_565 S
C1707 H1715 0.929 . S
C1708 C1707 1.383 1_545 S
C1708 C1709 1.377 . S
C1709 H1693 0.930 . S
C1709 C1708 1.377 . S
C1709 C1710 1.379 . S
C1710 H1694 0.931 . S
C1710 C1704 1.383 . S
C1710 C1709 1.379 . S
H1711 C1705 0.959 . S
H1712 C1705 0.961 . S
H1713 C1705 0.960 1_565 S
H1714 C1706 0.930 . S
H1715 C1707 0.929 . S
H1716 C1724 0.929 . S
H1717 C1726 0.930 . S
H1718 C1728 0.930 . S
H1719 C1731 0.929 . S
H1720 C1734 0.930 . S
H1721 C1736 0.960 1_554 S
H1722 C1736 0.960 . S
H1723 C1736 0.960 1_554 S
C1724 H1716 0.929 . S
C1724 C1725 1.377 . S
C1724 C1726 1.384 . S
C1725 C1724 1.377 . S
C1725 C1731 1.390 . S
C1726 H1717 0.930 . S
C1726 C1724 1.384 . S
C1726 C1727 1.372 . S
C1727 C1726 1.372 . S
C1727 C1728 1.400 . S
C1727 C1732 1.490 . S
C1728 H1718 0.930 . S
C1728 C1727 1.400 . S
C1728 C1731 1.386 . S
H1729 C1745 0.930 . S
H1730 C1746 0.931 . S
C1731 H1719 0.929 . S
C1731 C1725 1.390 . S
C1731 C1728 1.386 . S
C1732 C1727 1.490 . S
C1732 C1734 1.395 . S
C1732 C1735 1.403 . S
H1733 C1739 0.930 . S
C1734 H1720 0.930 . S
C1734 C1732 1.395 . S
C1734 C1737 1.403 . S
C1735 C1732 1.403 . S
C1735 C1736 1.524 . S
C1735 C1739 1.400 . S
C1736 H1721 0.960 1_556 S
C1736 H1722 0.960 . S
C1736 H1723 0.960 1_556 S
C1736 C1735 1.524 . S
C1737 C1734 1.403 . S
C1737 C1738 1.392 . S
C1737 C1741 1.495 . S
C1738 C1737 1.392 . S
C1738 C1739 1.385 . S
C1738 C1740 1.478 . S
C1739 H1733 0.930 . S
C1739 C1735 1.400 . S
C1739 C1738 1.385 . S
C1740 C1738 1.478 . S
C1740 C1742 1.381 . S
C1740 C1746 1.383 . S
C1741 C1737 1.495 . S
C1741 H1747 0.959 . S
C1741 H1748 0.961 . S
C1741 H1749 0.960 . S
C1742 C1740 1.381 . S
C1742 C1743 1.394 . S
C1742 H1750 0.930 . S
C1743 C1742 1.394 . S
C1743 C1744 1.383 . S
C1743 H1751 0.929 . S
C1744 C1743 1.383 . S
C1744 C1745 1.377 . S
C1745 H1729 0.930 . S
C1745 C1744 1.377 . S
C1745 C1746 1.379 . S
C1746 H1730 0.931 . S
C1746 C1740 1.383 . S
C1746 C1745 1.379 . S
H1747 C1741 0.959 . S
H1748 C1741 0.961 . S
H1749 C1741 0.960 . S
H1750 C1742 0.930 . S
H1751 C1743 0.929 . S
H1752 C1760 0.929 . S
H1753 C1762 0.930 . S
H1754 C1764 0.930 . S
H1755 C1767 0.929 . S
H1756 C1770 0.930 . S
H1757 C1772 0.960 . S
H1758 C1772 0.960 . S
H1759 C1772 0.960 . S
C1760 H1752 0.929 . S
C1760 C1761 1.377 . S
C1760 C1762 1.384 . S
C1761 C1760 1.377 . S
C1761 C1767 1.390 . S
C1762 H1753 0.930 . S
C1762 C1760 1.384 . S
C1762 C1763 1.372 . S
C1763 C1762 1.372 . S
C1763 C1764 1.400 . S
C1763 C1768 1.490 . S
C1764 H1754 0.930 . S
C1764 C1763 1.400 . S
C1764 C1767 1.386 . S
H1765 C1781 0.930 . S
H1766 C1782 0.931 . S
C1767 H1755 0.929 . S
C1767 C1761 1.390 . S
C1767 C1764 1.386 . S
C1768 C1763 1.490 . S
C1768 C1770 1.395 . S
C1768 C1771 1.403 . S
H1769 C1775 0.930 . S
C1770 H1756 0.930 . S
C1770 C1768 1.395 . S
C1770 C1773 1.403 . S
C1771 C1768 1.403 . S
C1771 C1772 1.524 . S
C1771 C1775 1.400 . S
C1772 H1757 0.960 . S
C1772 H1758 0.960 . S
C1772 H1759 0.960 . S
C1772 C1771 1.524 . S
C1773 C1770 1.403 . S
C1773 C1774 1.392 . S
C1773 C1777 1.495 . S
C1774 C1773 1.392 . S
C1774 C1775 1.385 . S
C1774 C1776 1.478 . S
C1775 H1769 0.930 . S
C1775 C1771 1.400 . S
C1775 C1774 1.385 . S
C1776 C1774 1.478 . S
C1776 C1778 1.381 . S
C1776 C1782 1.383 . S
C1777 C1773 1.495 . S
C1777 H1783 0.959 . S
C1777 H1784 0.961 . S
C1777 H1785 0.960 . S
C1778 C1776 1.381 . S
C1778 C1779 1.394 . S
C1778 H1786 0.930 . S
C1779 C1778 1.394 . S
C1779 C1780 1.383 . S
C1779 H1787 0.929 . S
C1780 C1779 1.383 . S
C1780 C1781 1.377 . S
C1781 H1765 0.930 . S
C1781 C1780 1.377 . S
C1781 C1782 1.379 . S
C1782 H1766 0.931 . S
C1782 C1776 1.383 . S
C1782 C1781 1.379 . S
H1783 C1777 0.959 . S
H1784 C1777 0.961 . S
H1785 C1777 0.960 . S
H1786 C1778 0.930 . S
H1787 C1779 0.929 . S
H1788 C1796 0.928 1_655 S
H1789 C1798 0.927 1_655 S
H1790 C1800 0.930 . S
H1791 C1803 0.929 . S
H1792 C1806 0.930 . S
H1793 C1808 0.960 . S
H1794 C1808 0.960 . S
H1795 C1808 0.965 . S
C1796 H1788 0.928 1_455 S
C1796 C1797 1.379 . S
C1796 C1798 1.384 . S
C1797 C1796 1.379 . S
C1797 C1803 1.390 . S
C1798 H1789 0.927 1_455 S
C1798 C1796 1.384 . S
C1798 C1799 1.374 . S
C1799 C1798 1.374 . S
C1799 C1800 1.400 . S
C1799 C1804 1.490 . S
C1800 H1790 0.930 . S
C1800 C1799 1.400 . S
C1800 C1803 1.386 . S
H1801 C1817 0.930 . S
H1802 C1818 0.931 . S
C1803 H1791 0.929 . S
C1803 C1797 1.390 . S
C1803 C1800 1.386 . S
C1804 C1799 1.490 . S
C1804 C1806 1.395 . S
C1804 C1807 1.403 1_455 S
H1805 C1811 0.930 . S
C1806 H1792 0.930 . S
C1806 C1804 1.395 . S
C1806 C1809 1.403 . S
C1807 C1804 1.403 1_655 S
C1807 C1808 1.524 . S
C1807 C1811 1.400 . S
C1808 H1793 0.960 . S
C1808 H1794 0.960 . S
C1808 H1795 0.965 . S
C1808 C1807 1.524 . S
C1809 C1806 1.403 . S
C1809 C1810 1.392 . S
C1809 C1813 1.495 . S
C1810 C1809 1.392 . S
C1810 C1811 1.385 1_455 S
C1810 C1812 1.478 . S
C1811 H1805 0.930 . S
C1811 C1807 1.400 . S
C1811 C1810 1.385 1_655 S
C1812 C1810 1.478 . S
C1812 C1814 1.381 . S
C1812 C1818 1.383 . S
C1813 C1809 1.495 . S
C1813 H1819 0.959 . S
C1813 H1820 0.961 . S
C1813 H1821 0.960 . S
C1814 C1812 1.381 . S
C1814 C1815 1.396 . S
C1814 H1822 0.927 1_455 S
C1815 C1814 1.396 . S
C1815 C1816 1.388 . S
C1815 H1823 0.924 1_455 S
C1816 C1815 1.388 . S
C1816 C1817 1.377 . S
C1817 H1801 0.930 . S
C1817 C1816 1.377 . S
C1817 C1818 1.379 . S
C1818 H1802 0.931 . S
C1818 C1812 1.383 . S
C1818 C1817 1.379 . S
H1819 C1813 0.959 . S
H1820 C1813 0.961 . S
H1821 C1813 0.960 . S
H1822 C1814 0.927 1_655 S
H1823 C1815 0.924 1_655 S
H1824 C1832 0.929 . S
H1825 C1834 0.930 . S
H1826 C1836 0.930 . S
H1827 C1839 0.929 . S
H1828 C1842 0.930 . S
H1829 C1844 0.960 . S
H1830 C1844 0.960 . S
H1831 C1844 0.960 . S
C1832 H1824 0.929 . S
C1832 C1833 1.377 . S
C1832 C1834 1.384 . S
C1833 C1832 1.377 . S
C1833 C1839 1.390 1_565 S
C1834 H1825 0.930 . S
C1834 C1832 1.384 . S
C1834 C1835 1.372 . S
C1835 C1834 1.372 . S
C1835 C1836 1.400 1_565 S
C1835 C1840 1.490 . S
C1836 H1826 0.930 . S
C1836 C1835 1.400 1_545 S
C1836 C1839 1.386 . S
H1837 C1853 0.930 . S
H1838 C1854 0.931 . S
C1839 H1827 0.929 . S
C1839 C1833 1.390 1_545 S
C1839 C1836 1.386 . S
C1840 C1835 1.490 . S
C1840 C1842 1.395 . S
C1840 C1843 1.403 1_565 S
H1841 C1847 0.930 . S
C1842 H1828 0.930 . S
C1842 C1840 1.395 . S
C1842 C1845 1.403 . S
C1843 C1840 1.403 1_545 S
C1843 C1844 1.524 . S
C1843 C1847 1.400 . S
C1844 H1829 0.960 . S
C1844 H1830 0.960 . S
C1844 H1831 0.960 . S
C1844 C1843 1.524 . S
C1845 C1842 1.403 . S
C1845 C1846 1.392 . S
C1845 C1849 1.495 . S
C1846 C1845 1.392 . S
C1846 C1847 1.385 1_565 S
C1846 C1848 1.478 . S
C1847 H1841 0.930 . S
C1847 C1843 1.400 . S
C1847 C1846 1.385 1_545 S
C1848 C1846 1.478 . S
C1848 C1850 1.381 . S
C1848 C1854 1.383 1_565 S
C1849 C1845 1.495 . S
C1849 H1855 0.959 . S
C1849 H1856 0.961 . S
C1849 H1857 0.960 . S
C1850 C1848 1.381 . S
C1850 C1851 1.394 . S
C1850 H1858 0.930 . S
C1851 C1850 1.394 . S
C1851 C1852 1.383 . S
C1851 H1859 0.929 . S
C1852 C1851 1.383 . S
C1852 C1853 1.377 1_565 S
C1853 H1837 0.930 . S
C1853 C1852 1.377 1_545 S
C1853 C1854 1.379 . S
C1854 H1838 0.931 . S
C1854 C1848 1.383 1_545 S
C1854 C1853 1.379 . S
H1855 C1849 0.959 . S
H1856 C1849 0.961 . S
H1857 C1849 0.960 . S
H1858 C1850 0.930 . S
H1859 C1851 0.929 . S
H1860 C1868 0.929 . S
H1861 C1870 0.930 . S
H1862 C1872 0.930 . S
H1863 C1875 0.929 . S
H1864 C1878 0.930 . S
H1865 C1880 0.960 . S
H1866 C1880 0.960 . S
H1867 C1880 0.960 . S
C1868 H1860 0.929 . S
C1868 C1869 1.377 . S
C1868 C1870 1.384 . S
C1869 C1868 1.377 . S
C1869 C1875 1.390 . S
C1870 H1861 0.930 . S
C1870 C1868 1.384 . S
C1870 C1871 1.372 . S
C1871 C1870 1.372 . S
C1871 C1872 1.400 . S
C1871 C1876 1.490 . S
C1872 H1862 0.930 . S
C1872 C1871 1.400 . S
C1872 C1875 1.386 . S
H1873 C1889 0.930 . S
H1874 C1890 0.931 . S
C1875 H1863 0.929 . S
C1875 C1869 1.390 . S
C1875 C1872 1.386 . S
C1876 C1871 1.490 . S
C1876 C1878 1.395 . S
C1876 C1879 1.403 . S
H1877 C1883 0.930 . S
C1878 H1864 0.930 . S
C1878 C1876 1.395 . S
C1878 C1881 1.403 . S
C1879 C1876 1.403 . S
C1879 C1880 1.524 . S
C1879 C1883 1.400 . S
C1880 H1865 0.960 . S
C1880 H1866 0.960 . S
C1880 H1867 0.960 . S
C1880 C1879 1.524 . S
C1881 C1878 1.403 . S
C1881 C1882 1.392 . S
C1881 C1885 1.495 . S
C1882 C1881 1.392 . S
C1882 C1883 1.385 . S
C1882 C1884 1.478 . S
C1883 H1877 0.930 . S
C1883 C1879 1.400 . S
C1883 C1882 1.385 . S
C1884 C1882 1.478 . S
C1884 C1886 1.381 . S
C1884 C1890 1.383 . S
C1885 C1881 1.495 . S
C1885 H1891 0.959 . S
C1885 H1892 0.961 . S
C1885 H1893 0.960 . S
C1886 C1884 1.381 . S
C1886 C1887 1.394 . S
C1886 H1894 0.930 . S
C1887 C1886 1.394 . S
C1887 C1888 1.383 . S
C1887 H1895 0.929 . S
C1888 C1887 1.383 . S
C1888 C1889 1.377 . S
C1889 H1873 0.930 . S
C1889 C1888 1.377 . S
C1889 C1890 1.379 . S
C1890 H1874 0.931 . S
C1890 C1884 1.383 . S
C1890 C1889 1.379 . S
H1891 C1885 0.959 . S
H1892 C1885 0.961 . S
H1893 C1885 0.960 . S
H1894 C1886 0.930 . S
H1895 C1887 0.929 . S
H1896 C1904 0.929 . S
H1897 C1906 0.930 . S
H1898 C1908 0.930 . S
H1899 C1911 0.929 . S
H1900 C1914 0.930 . S
H1901 C1916 0.960 . S
H1902 C1916 0.960 . S
H1903 C1916 0.960 . S
C1904 H1896 0.929 . S
C1904 C1905 1.377 . S
C1904 C1906 1.384 . S
C1905 C1904 1.377 . S
C1905 C1911 1.390 . S
C1906 H1897 0.930 . S
C1906 C1904 1.384 . S
C1906 C1907 1.372 . S
C1907 C1906 1.372 . S
C1907 C1908 1.400 . S
C1907 C1912 1.490 . S
C1908 H1898 0.930 . S
C1908 C1907 1.400 . S
C1908 C1911 1.386 . S
H1909 C1925 0.930 . S
H1910 C1926 0.931 . S
C1911 H1899 0.929 . S
C1911 C1905 1.390 . S
C1911 C1908 1.386 . S
C1912 C1907 1.490 . S
C1912 C1914 1.395 . S
C1912 C1915 1.403 . S
H1913 C1919 0.930 . S
C1914 H1900 0.930 . S
C1914 C1912 1.395 . S
C1914 C1917 1.403 . S
C1915 C1912 1.403 . S
C1915 C1916 1.524 . S
C1915 C1919 1.400 . S
C1916 H1901 0.960 . S
C1916 H1902 0.960 . S
C1916 H1903 0.960 . S
C1916 C1915 1.524 . S
C1917 C1914 1.403 . S
C1917 C1918 1.392 . S
C1917 C1921 1.495 . S
C1918 C1917 1.392 . S
C1918 C1919 1.385 . S
C1918 C1920 1.478 . S
C1919 H1913 0.930 . S
C1919 C1915 1.400 . S
C1919 C1918 1.385 . S
C1920 C1918 1.478 . S
C1920 C1922 1.381 . S
C1920 C1926 1.383 . S
C1921 C1917 1.495 . S
C1921 H1927 0.959 . S
C1921 H1928 0.961 . S
C1921 H1929 0.960 . S
C1922 C1920 1.381 . S
C1922 C1923 1.394 . S
C1922 H1930 0.930 . S
C1923 C1922 1.394 . S
C1923 C1924 1.383 . S
C1923 H1931 0.929 . S
C1924 C1923 1.383 . S
C1924 C1925 1.377 . S
C1925 H1909 0.930 . S
C1925 C1924 1.377 . S
C1925 C1926 1.379 . S
C1926 H1910 0.931 . S
C1926 C1920 1.383 . S
C1926 C1925 1.379 . S
H1927 C1921 0.959 . S
H1928 C1921 0.961 . S
H1929 C1921 0.960 . S
H1930 C1922 0.930 . S
H1931 C1923 0.929 . S
H1932 C1940 0.929 . S
H1933 C1942 0.930 . S
H1934 C1944 0.930 . S
H1935 C1947 0.929 . S
H1936 C1950 0.928 1_456 S
H1937 C1952 0.960 . S
H1938 C1952 0.960 1_455 S
H1939 C1952 0.960 . S
C1940 H1932 0.929 . S
C1940 C1941 1.377 1_455 S
C1940 C1942 1.384 . S
C1941 C1940 1.377 1_655 S
C1941 C1947 1.390 . S
C1942 H1933 0.930 . S
C1942 C1940 1.384 . S
C1942 C1943 1.372 1_455 S
C1943 C1942 1.372 1_655 S
C1943 C1944 1.400 . S
C1943 C1948 1.490 . S
C1944 H1934 0.930 . S
C1944 C1943 1.400 . S
C1944 C1947 1.386 . S
H1945 C1961 0.930 . S
H1946 C1962 0.931 . S
C1947 H1935 0.929 . S
C1947 C1941 1.390 . S
C1947 C1944 1.386 . S
C1948 C1943 1.490 . S
C1948 C1950 1.395 . S
C1948 C1951 1.403 . S
H1949 C1955 0.930 . S
C1950 H1936 0.928 1_654 S
C1950 C1948 1.395 . S
C1950 C1953 1.403 . S
C1951 C1948 1.403 . S
C1951 C1952 1.524 . S
C1951 C1955 1.400 . S
C1952 H1937 0.960 . S
C1952 H1938 0.960 1_655 S
C1952 H1939 0.960 . S
C1952 C1951 1.524 . S
C1953 C1950 1.403 . S
C1953 C1954 1.394 . S
C1953 C1957 1.494 1_654 S
C1954 C1953 1.394 . S
C1954 C1955 1.385 . S
C1954 C1956 1.478 . S
C1955 H1949 0.930 . S
C1955 C1951 1.400 . S
C1955 C1954 1.385 . S
C1956 C1954 1.478 . S
C1956 C1958 1.381 1_655 S
C1956 C1962 1.383 . S
C1957 C1953 1.494 1_456 S
C1957 H1963 0.961 . S
C1957 H1964 0.937 1_455 S
C1957 H1965 0.983 . S
C1958 C1956 1.381 1_455 S
C1958 C1959 1.394 . S
C1958 H1966 0.930 . S
C1959 C1958 1.394 . S
C1959 C1960 1.383 1_455 S
C1959 H1967 0.929 . S
C1960 C1959 1.383 1_655 S
C1960 C1961 1.377 . S
C1961 H1945 0.930 . S
C1961 C1960 1.377 . S
C1961 C1962 1.379 . S
C1962 H1946 0.931 . S
C1962 C1956 1.383 . S
C1962 C1961 1.379 . S
H1963 C1957 0.961 . S
H1964 C1957 0.937 1_655 S
H1965 C1957 0.983 . S
H1966 C1958 0.930 . S
H1967 C1959 0.929 . S
C537 C282 0.540 1_545 S
C556 C18 0.524 1_565 S
C573 C51 0.571 . S
C592 C315 0.645 . S
C609 C348 0.578 . S
C628 C84 0.607 . S
C645 C381 0.568 1_455 S
C664 C117 0.513 1_655 S
C681 C150 0.574 1_545 S
C700 C414 0.639 1_565 S
C717 C183 0.574 . S
C736 C447 0.641 . S
C753 C216 0.575 . S
C772 C480 0.565 . S
C789 C249 0.549 1_455 S
C808 C513 0.468 1_655 S
C825 C7 1.691 . S
C844 N508 1.747 . S
C861 C40 1.682 . S
C880 N409 1.745 . S
C897 C73 1.682 . S
C916 N442 1.745 . S
C933 N475 1.752 . S
C952 C106 1.669 . S
C969 C139 1.684 . S
C988 N310 1.751 . S
C1005 C172 1.690 . S
C1024 N343 1.745 . S
C1041 N376 1.753 . S
C1060 C205 1.692 . S
C1077 C238 1.691 . S
C1096 N277 1.754 . S
C1113 N244 1.750 . S
C1132 C271 1.699 . S
C1149 N145 1.749 . S
C1168 C304 1.708 . S
C1185 N178 1.753 . S
C1204 C337 1.659 . S
C1221 C370 1.687 . S
C1240 N211 1.746 . S
C1257 N46 1.749 . S
C1276 C403 1.708 . S
C1293 C436 1.682 . S
C1312 N79 1.754 . S
C1329 N112 1.750 . S
C1348 C469 1.705 . S
C1365 N13 1.750 . S
C1384 C502 1.696 . S
C1401 N233 0.639 . S
C1420 N2 0.695 . S
C1437 N134 0.616 . S
C1456 N35 0.588 . S
C1473 N68 0.623 . S
C1492 N167 0.595 . S
C1509 N200 0.624 . S
C1528 N101 0.602 . S
C1545 N497 0.642 . S
C1564 N266 0.672 . S
C1581 N299 0.648 . S
C1600 N398 0.603 . S
C1617 N332 0.645 . S
C1636 N431 0.649 . S
C1653 N365 0.612 . S
C1672 N464 0.639 . S
C1689 C21 0.896 . S
C1708 C417 0.875 . S
C1725 C54 0.894 . S
C1744 C450 0.868 . S
C1761 C87 0.892 . S
C1780 C483 0.907 . S
C1797 C120 0.894 . S
C1816 C516 0.868 . S
C1833 C153 0.889 . S
C1852 C285 0.879 . S
C1869 C186 0.891 . S
C1888 C318 0.871 . S
C1905 C219 0.893 . S
C1924 C351 0.868 . S
C1941 C384 0.894 . S
C1960 C252 0.901 . S
