# Generated by pormake.
# Topology ulh, (4)-cn, num edge types: 1
# Building blocks:
#     Node 0, Type 0, BuildingBlock: GALJAG_clean_sbu_0, # of connection points: 4
#     Node 1, Type 0, BuildingBlock: GALJAG_clean_sbu_0, # of connection points: 4
#     Node 2, Type 0, BuildingBlock: GALJAG_clean_sbu_0, # of connection points: 4
#     Node 3, Type 0, BuildingBlock: GALJAG_clean_sbu_0, # of connection points: 4
#     Node 4, Type 0, BuildingBlock: GALJAG_clean_sbu_0, # of connection points: 4
#     Node 5, Type 0, BuildingBlock: GALJAG_clean_sbu_0, # of connection points: 4
#     Node 6, Type 0, BuildingBlock: GALJAG_clean_sbu_0, # of connection points: 4
#     Node 7, Type 0, BuildingBlock: GALJAG_clean_sbu_0, # of connection points: 4
#     Node 8, Type 0, BuildingBlock: GALJAG_clean_sbu_0, # of connection points: 4
#     Node 9, Type 0, BuildingBlock: GALJAG_clean_sbu_0, # of connection points: 4
#     Node 10, Type 0, BuildingBlock: GALJAG_clean_sbu_0, # of connection points: 4
#     Node 11, Type 0, BuildingBlock: GALJAG_clean_sbu_0, # of connection points: 4
#     Node 12, Type 0, BuildingBlock: GALJAG_clean_sbu_0, # of connection points: 4
#     Node 13, Type 0, BuildingBlock: GALJAG_clean_sbu_0, # of connection points: 4
#     Node 14, Type 0, BuildingBlock: GALJAG_clean_sbu_0, # of connection points: 4
#     Node 15, Type 0, BuildingBlock: GALJAG_clean_sbu_0, # of connection points: 4
#     Node 16, Type 0, BuildingBlock: GALJAG_clean_sbu_0, # of connection points: 4
#     Node 17, Type 0, BuildingBlock: GALJAG_clean_sbu_0, # of connection points: 4
#     Node 18, Type 0, BuildingBlock: GALJAG_clean_sbu_0, # of connection points: 4
#     Node 19, Type 0, BuildingBlock: GALJAG_clean_sbu_0, # of connection points: 4
#     Node 20, Type 0, BuildingBlock: GALJAG_clean_sbu_0, # of connection points: 4
#     Node 21, Type 0, BuildingBlock: GALJAG_clean_sbu_0, # of connection points: 4
#     Node 22, Type 0, BuildingBlock: GALJAG_clean_sbu_0, # of connection points: 4
#     Node 23, Type 0, BuildingBlock: GALJAG_clean_sbu_0, # of connection points: 4
#     Node 24, Type 0, BuildingBlock: GALJAG_clean_sbu_0, # of connection points: 4
#     Node 25, Type 0, BuildingBlock: GALJAG_clean_sbu_0, # of connection points: 4
#     Node 26, Type 0, BuildingBlock: GALJAG_clean_sbu_0, # of connection points: 4
#     Node 27, Type 0, BuildingBlock: GALJAG_clean_sbu_0, # of connection points: 4
#     Node 28, Type 0, BuildingBlock: GALJAG_clean_sbu_0, # of connection points: 4
#     Node 29, Type 0, BuildingBlock: GALJAG_clean_sbu_0, # of connection points: 4
#     Node 30, Type 0, BuildingBlock: GALJAG_clean_sbu_0, # of connection points: 4
#     Node 31, Type 0, BuildingBlock: GALJAG_clean_sbu_0, # of connection points: 4
#     Node 32, Type 0, BuildingBlock: GALJAG_clean_sbu_0, # of connection points: 4
#     Node 33, Type 0, BuildingBlock: GALJAG_clean_sbu_0, # of connection points: 4
#     Node 34, Type 0, BuildingBlock: GALJAG_clean_sbu_0, # of connection points: 4
#     Node 35, Type 0, BuildingBlock: GALJAG_clean_sbu_0, # of connection points: 4
#     Node 36, Type 0, BuildingBlock: GALJAG_clean_sbu_0, # of connection points: 4
#     Node 37, Type 0, BuildingBlock: GALJAG_clean_sbu_0, # of connection points: 4
#     Node 38, Type 0, BuildingBlock: GALJAG_clean_sbu_0, # of connection points: 4
#     Node 39, Type 0, BuildingBlock: GALJAG_clean_sbu_0, # of connection points: 4
#     Node 40, Type 0, BuildingBlock: GALJAG_clean_sbu_0, # of connection points: 4
#     Node 41, Type 0, BuildingBlock: GALJAG_clean_sbu_0, # of connection points: 4
#     Node 42, Type 0, BuildingBlock: GALJAG_clean_sbu_0, # of connection points: 4
#     Node 43, Type 0, BuildingBlock: GALJAG_clean_sbu_0, # of connection points: 4
#     Node 44, Type 0, BuildingBlock: GALJAG_clean_sbu_0, # of connection points: 4
#     Node 45, Type 0, BuildingBlock: GALJAG_clean_sbu_0, # of connection points: 4
#     Node 46, Type 0, BuildingBlock: GALJAG_clean_sbu_0, # of connection points: 4
#     Node 47, Type 0, BuildingBlock: GALJAG_clean_sbu_0, # of connection points: 4
#     Node 48, Type 0, BuildingBlock: GALJAG_clean_sbu_0, # of connection points: 4
#     Node 49, Type 0, BuildingBlock: GALJAG_clean_sbu_0, # of connection points: 4
#     Node 50, Type 0, BuildingBlock: GALJAG_clean_sbu_0, # of connection points: 4
#     Node 51, Type 0, BuildingBlock: GALJAG_clean_sbu_0, # of connection points: 4
#     Node 52, Type 0, BuildingBlock: GALJAG_clean_sbu_0, # of connection points: 4
#     Node 53, Type 0, BuildingBlock: GALJAG_clean_sbu_0, # of connection points: 4
#     Node 54, Type 0, BuildingBlock: GALJAG_clean_sbu_0, # of connection points: 4
#     Node 55, Type 0, BuildingBlock: GALJAG_clean_sbu_0, # of connection points: 4
#     Node 56, Type 0, BuildingBlock: GALJAG_clean_sbu_0, # of connection points: 4
#     Node 57, Type 0, BuildingBlock: GALJAG_clean_sbu_0, # of connection points: 4
#     Node 58, Type 0, BuildingBlock: GALJAG_clean_sbu_0, # of connection points: 4
#     Node 59, Type 0, BuildingBlock: GALJAG_clean_sbu_0, # of connection points: 4
#     Node 60, Type 0, BuildingBlock: GALJAG_clean_sbu_0, # of connection points: 4
#     Node 61, Type 0, BuildingBlock: GALJAG_clean_sbu_0, # of connection points: 4
#     Node 62, Type 0, BuildingBlock: GALJAG_clean_sbu_0, # of connection points: 4
#     Node 63, Type 0, BuildingBlock: GALJAG_clean_sbu_0, # of connection points: 4
#     Node 64, Type 0, BuildingBlock: GALJAG_clean_sbu_0, # of connection points: 4
#     Node 65, Type 0, BuildingBlock: GALJAG_clean_sbu_0, # of connection points: 4
#     Node 66, Type 0, BuildingBlock: GALJAG_clean_sbu_0, # of connection points: 4
#     Node 67, Type 0, BuildingBlock: GALJAG_clean_sbu_0, # of connection points: 4
#     Node 68, Type 0, BuildingBlock: GALJAG_clean_sbu_0, # of connection points: 4
#     Node 69, Type 0, BuildingBlock: GALJAG_clean_sbu_0, # of connection points: 4
#     Node 70, Type 0, BuildingBlock: GALJAG_clean_sbu_0, # of connection points: 4
#     Node 71, Type 0, BuildingBlock: GALJAG_clean_sbu_0, # of connection points: 4
#     Node 72, Type 0, BuildingBlock: GALJAG_clean_sbu_0, # of connection points: 4
#     Node 73, Type 0, BuildingBlock: GALJAG_clean_sbu_0, # of connection points: 4
#     Node 74, Type 0, BuildingBlock: GALJAG_clean_sbu_0, # of connection points: 4
#     Node 75, Type 0, BuildingBlock: GALJAG_clean_sbu_0, # of connection points: 4
#     Node 76, Type 0, BuildingBlock: GALJAG_clean_sbu_0, # of connection points: 4
#     Node 77, Type 0, BuildingBlock: GALJAG_clean_sbu_0, # of connection points: 4
#     Node 78, Type 0, BuildingBlock: GALJAG_clean_sbu_0, # of connection points: 4
#     Node 79, Type 0, BuildingBlock: GALJAG_clean_sbu_0, # of connection points: 4
#     Node 80, Type 0, BuildingBlock: GALJAG_clean_sbu_0, # of connection points: 4
#     Node 81, Type 0, BuildingBlock: GALJAG_clean_sbu_0, # of connection points: 4
#     Node 82, Type 0, BuildingBlock: GALJAG_clean_sbu_0, # of connection points: 4
#     Node 83, Type 0, BuildingBlock: GALJAG_clean_sbu_0, # of connection points: 4
#     Node 84, Type 0, BuildingBlock: GALJAG_clean_sbu_0, # of connection points: 4
#     Node 85, Type 0, BuildingBlock: GALJAG_clean_sbu_0, # of connection points: 4
#     Node 86, Type 0, BuildingBlock: GALJAG_clean_sbu_0, # of connection points: 4
#     Node 87, Type 0, BuildingBlock: GALJAG_clean_sbu_0, # of connection points: 4
#     Node 88, Type 0, BuildingBlock: GALJAG_clean_sbu_0, # of connection points: 4
#     Node 89, Type 0, BuildingBlock: GALJAG_clean_sbu_0, # of connection points: 4
#     Node 90, Type 0, BuildingBlock: GALJAG_clean_sbu_0, # of connection points: 4
#     Node 91, Type 0, BuildingBlock: GALJAG_clean_sbu_0, # of connection points: 4
#     Node 92, Type 0, BuildingBlock: GALJAG_clean_sbu_0, # of connection points: 4
#     Node 93, Type 0, BuildingBlock: GALJAG_clean_sbu_0, # of connection points: 4
#     Node 94, Type 0, BuildingBlock: GALJAG_clean_sbu_0, # of connection points: 4
#     Node 95, Type 0, BuildingBlock: GALJAG_clean_sbu_0, # of connection points: 4
#     Edge 96, Type (0, 0), BuildingBlock: CIFDUS_clean_linker_0, # of connection points: 2
#     Edge 97, Type (0, 0), BuildingBlock: CIFDUS_clean_linker_0, # of connection points: 2
#     Edge 98, Type (0, 0), BuildingBlock: CIFDUS_clean_linker_0, # of connection points: 2
#     Edge 99, Type (0, 0), BuildingBlock: CIFDUS_clean_linker_0, # of connection points: 2
#     Edge 100, Type (0, 0), BuildingBlock: CIFDUS_clean_linker_0, # of connection points: 2
#     Edge 101, Type (0, 0), BuildingBlock: CIFDUS_clean_linker_0, # of connection points: 2
#     Edge 102, Type (0, 0), BuildingBlock: CIFDUS_clean_linker_0, # of connection points: 2
#     Edge 103, Type (0, 0), BuildingBlock: CIFDUS_clean_linker_0, # of connection points: 2
#     Edge 104, Type (0, 0), BuildingBlock: CIFDUS_clean_linker_0, # of connection points: 2
#     Edge 105, Type (0, 0), BuildingBlock: CIFDUS_clean_linker_0, # of connection points: 2
#     Edge 106, Type (0, 0), BuildingBlock: CIFDUS_clean_linker_0, # of connection points: 2
#     Edge 107, Type (0, 0), BuildingBlock: CIFDUS_clean_linker_0, # of connection points: 2
#     Edge 108, Type (0, 0), BuildingBlock: CIFDUS_clean_linker_0, # of connection points: 2
#     Edge 109, Type (0, 0), BuildingBlock: CIFDUS_clean_linker_0, # of connection points: 2
#     Edge 110, Type (0, 0), BuildingBlock: CIFDUS_clean_linker_0, # of connection points: 2
#     Edge 111, Type (0, 0), BuildingBlock: CIFDUS_clean_linker_0, # of connection points: 2
#     Edge 112, Type (0, 0), BuildingBlock: CIFDUS_clean_linker_0, # of connection points: 2
#     Edge 113, Type (0, 0), BuildingBlock: CIFDUS_clean_linker_0, # of connection points: 2
#     Edge 114, Type (0, 0), BuildingBlock: CIFDUS_clean_linker_0, # of connection points: 2
#     Edge 115, Type (0, 0), BuildingBlock: CIFDUS_clean_linker_0, # of connection points: 2
#     Edge 116, Type (0, 0), BuildingBlock: CIFDUS_clean_linker_0, # of connection points: 2
#     Edge 117, Type (0, 0), BuildingBlock: CIFDUS_clean_linker_0, # of connection points: 2
#     Edge 118, Type (0, 0), BuildingBlock: CIFDUS_clean_linker_0, # of connection points: 2
#     Edge 119, Type (0, 0), BuildingBlock: CIFDUS_clean_linker_0, # of connection points: 2
#     Edge 120, Type (0, 0), BuildingBlock: CIFDUS_clean_linker_0, # of connection points: 2
#     Edge 121, Type (0, 0), BuildingBlock: CIFDUS_clean_linker_0, # of connection points: 2
#     Edge 122, Type (0, 0), BuildingBlock: CIFDUS_clean_linker_0, # of connection points: 2
#     Edge 123, Type (0, 0), BuildingBlock: CIFDUS_clean_linker_0, # of connection points: 2
#     Edge 124, Type (0, 0), BuildingBlock: CIFDUS_clean_linker_0, # of connection points: 2
#     Edge 125, Type (0, 0), BuildingBlock: CIFDUS_clean_linker_0, # of connection points: 2
#     Edge 126, Type (0, 0), BuildingBlock: CIFDUS_clean_linker_0, # of connection points: 2
#     Edge 127, Type (0, 0), BuildingBlock: CIFDUS_clean_linker_0, # of connection points: 2
#     Edge 128, Type (0, 0), BuildingBlock: CIFDUS_clean_linker_0, # of connection points: 2
#     Edge 129, Type (0, 0), BuildingBlock: CIFDUS_clean_linker_0, # of connection points: 2
#     Edge 130, Type (0, 0), BuildingBlock: CIFDUS_clean_linker_0, # of connection points: 2
#     Edge 131, Type (0, 0), BuildingBlock: CIFDUS_clean_linker_0, # of connection points: 2
#     Edge 132, Type (0, 0), BuildingBlock: CIFDUS_clean_linker_0, # of connection points: 2
#     Edge 133, Type (0, 0), BuildingBlock: CIFDUS_clean_linker_0, # of connection points: 2
#     Edge 134, Type (0, 0), BuildingBlock: CIFDUS_clean_linker_0, # of connection points: 2
#     Edge 135, Type (0, 0), BuildingBlock: CIFDUS_clean_linker_0, # of connection points: 2
#     Edge 136, Type (0, 0), BuildingBlock: CIFDUS_clean_linker_0, # of connection points: 2
#     Edge 137, Type (0, 0), BuildingBlock: CIFDUS_clean_linker_0, # of connection points: 2
#     Edge 138, Type (0, 0), BuildingBlock: CIFDUS_clean_linker_0, # of connection points: 2
#     Edge 139, Type (0, 0), BuildingBlock: CIFDUS_clean_linker_0, # of connection points: 2
#     Edge 140, Type (0, 0), BuildingBlock: CIFDUS_clean_linker_0, # of connection points: 2
#     Edge 141, Type (0, 0), BuildingBlock: CIFDUS_clean_linker_0, # of connection points: 2
#     Edge 142, Type (0, 0), BuildingBlock: CIFDUS_clean_linker_0, # of connection points: 2
#     Edge 143, Type (0, 0), BuildingBlock: CIFDUS_clean_linker_0, # of connection points: 2
#     Edge 144, Type (0, 0), BuildingBlock: CIFDUS_clean_linker_0, # of connection points: 2
#     Edge 145, Type (0, 0), BuildingBlock: CIFDUS_clean_linker_0, # of connection points: 2
#     Edge 146, Type (0, 0), BuildingBlock: CIFDUS_clean_linker_0, # of connection points: 2
#     Edge 147, Type (0, 0), BuildingBlock: CIFDUS_clean_linker_0, # of connection points: 2
#     Edge 148, Type (0, 0), BuildingBlock: CIFDUS_clean_linker_0, # of connection points: 2
#     Edge 149, Type (0, 0), BuildingBlock: CIFDUS_clean_linker_0, # of connection points: 2
#     Edge 150, Type (0, 0), BuildingBlock: CIFDUS_clean_linker_0, # of connection points: 2
#     Edge 151, Type (0, 0), BuildingBlock: CIFDUS_clean_linker_0, # of connection points: 2
#     Edge 152, Type (0, 0), BuildingBlock: CIFDUS_clean_linker_0, # of connection points: 2
#     Edge 153, Type (0, 0), BuildingBlock: CIFDUS_clean_linker_0, # of connection points: 2
#     Edge 154, Type (0, 0), BuildingBlock: CIFDUS_clean_linker_0, # of connection points: 2
#     Edge 155, Type (0, 0), BuildingBlock: CIFDUS_clean_linker_0, # of connection points: 2
#     Edge 156, Type (0, 0), BuildingBlock: CIFDUS_clean_linker_0, # of connection points: 2
#     Edge 157, Type (0, 0), BuildingBlock: CIFDUS_clean_linker_0, # of connection points: 2
#     Edge 158, Type (0, 0), BuildingBlock: CIFDUS_clean_linker_0, # of connection points: 2
#     Edge 159, Type (0, 0), BuildingBlock: CIFDUS_clean_linker_0, # of connection points: 2
#     Edge 160, Type (0, 0), BuildingBlock: CIFDUS_clean_linker_0, # of connection points: 2
#     Edge 161, Type (0, 0), BuildingBlock: CIFDUS_clean_linker_0, # of connection points: 2
#     Edge 162, Type (0, 0), BuildingBlock: CIFDUS_clean_linker_0, # of connection points: 2
#     Edge 163, Type (0, 0), BuildingBlock: CIFDUS_clean_linker_0, # of connection points: 2
#     Edge 164, Type (0, 0), BuildingBlock: CIFDUS_clean_linker_0, # of connection points: 2
#     Edge 165, Type (0, 0), BuildingBlock: CIFDUS_clean_linker_0, # of connection points: 2
#     Edge 166, Type (0, 0), BuildingBlock: CIFDUS_clean_linker_0, # of connection points: 2
#     Edge 167, Type (0, 0), BuildingBlock: CIFDUS_clean_linker_0, # of connection points: 2
#     Edge 168, Type (0, 0), BuildingBlock: CIFDUS_clean_linker_0, # of connection points: 2
#     Edge 169, Type (0, 0), BuildingBlock: CIFDUS_clean_linker_0, # of connection points: 2
#     Edge 170, Type (0, 0), BuildingBlock: CIFDUS_clean_linker_0, # of connection points: 2
#     Edge 171, Type (0, 0), BuildingBlock: CIFDUS_clean_linker_0, # of connection points: 2
#     Edge 172, Type (0, 0), BuildingBlock: CIFDUS_clean_linker_0, # of connection points: 2
#     Edge 173, Type (0, 0), BuildingBlock: CIFDUS_clean_linker_0, # of connection points: 2
#     Edge 174, Type (0, 0), BuildingBlock: CIFDUS_clean_linker_0, # of connection points: 2
#     Edge 175, Type (0, 0), BuildingBlock: CIFDUS_clean_linker_0, # of connection points: 2
#     Edge 176, Type (0, 0), BuildingBlock: CIFDUS_clean_linker_0, # of connection points: 2
#     Edge 177, Type (0, 0), BuildingBlock: CIFDUS_clean_linker_0, # of connection points: 2
#     Edge 178, Type (0, 0), BuildingBlock: CIFDUS_clean_linker_0, # of connection points: 2
#     Edge 179, Type (0, 0), BuildingBlock: CIFDUS_clean_linker_0, # of connection points: 2
#     Edge 180, Type (0, 0), BuildingBlock: CIFDUS_clean_linker_0, # of connection points: 2
#     Edge 181, Type (0, 0), BuildingBlock: CIFDUS_clean_linker_0, # of connection points: 2
#     Edge 182, Type (0, 0), BuildingBlock: CIFDUS_clean_linker_0, # of connection points: 2
#     Edge 183, Type (0, 0), BuildingBlock: CIFDUS_clean_linker_0, # of connection points: 2
#     Edge 184, Type (0, 0), BuildingBlock: CIFDUS_clean_linker_0, # of connection points: 2
#     Edge 185, Type (0, 0), BuildingBlock: CIFDUS_clean_linker_0, # of connection points: 2
#     Edge 186, Type (0, 0), BuildingBlock: CIFDUS_clean_linker_0, # of connection points: 2
#     Edge 187, Type (0, 0), BuildingBlock: CIFDUS_clean_linker_0, # of connection points: 2
#     Edge 188, Type (0, 0), BuildingBlock: CIFDUS_clean_linker_0, # of connection points: 2
#     Edge 189, Type (0, 0), BuildingBlock: CIFDUS_clean_linker_0, # of connection points: 2
#     Edge 190, Type (0, 0), BuildingBlock: CIFDUS_clean_linker_0, # of connection points: 2
#     Edge 191, Type (0, 0), BuildingBlock: CIFDUS_clean_linker_0, # of connection points: 2
#     Edge 192, Type (0, 0), BuildingBlock: CIFDUS_clean_linker_0, # of connection points: 2
#     Edge 193, Type (0, 0), BuildingBlock: CIFDUS_clean_linker_0, # of connection points: 2
#     Edge 194, Type (0, 0), BuildingBlock: CIFDUS_clean_linker_0, # of connection points: 2
#     Edge 195, Type (0, 0), BuildingBlock: CIFDUS_clean_linker_0, # of connection points: 2
#     Edge 196, Type (0, 0), BuildingBlock: CIFDUS_clean_linker_0, # of connection points: 2
#     Edge 197, Type (0, 0), BuildingBlock: CIFDUS_clean_linker_0, # of connection points: 2
#     Edge 198, Type (0, 0), BuildingBlock: CIFDUS_clean_linker_0, # of connection points: 2
#     Edge 199, Type (0, 0), BuildingBlock: CIFDUS_clean_linker_0, # of connection points: 2
#     Edge 200, Type (0, 0), BuildingBlock: CIFDUS_clean_linker_0, # of connection points: 2
#     Edge 201, Type (0, 0), BuildingBlock: CIFDUS_clean_linker_0, # of connection points: 2
#     Edge 202, Type (0, 0), BuildingBlock: CIFDUS_clean_linker_0, # of connection points: 2
#     Edge 203, Type (0, 0), BuildingBlock: CIFDUS_clean_linker_0, # of connection points: 2
#     Edge 204, Type (0, 0), BuildingBlock: CIFDUS_clean_linker_0, # of connection points: 2
#     Edge 205, Type (0, 0), BuildingBlock: CIFDUS_clean_linker_0, # of connection points: 2
#     Edge 206, Type (0, 0), BuildingBlock: CIFDUS_clean_linker_0, # of connection points: 2
#     Edge 207, Type (0, 0), BuildingBlock: CIFDUS_clean_linker_0, # of connection points: 2
#     Edge 208, Type (0, 0), BuildingBlock: CIFDUS_clean_linker_0, # of connection points: 2
#     Edge 209, Type (0, 0), BuildingBlock: CIFDUS_clean_linker_0, # of connection points: 2
#     Edge 210, Type (0, 0), BuildingBlock: CIFDUS_clean_linker_0, # of connection points: 2
#     Edge 211, Type (0, 0), BuildingBlock: CIFDUS_clean_linker_0, # of connection points: 2
#     Edge 212, Type (0, 0), BuildingBlock: CIFDUS_clean_linker_0, # of connection points: 2
#     Edge 213, Type (0, 0), BuildingBlock: CIFDUS_clean_linker_0, # of connection points: 2
#     Edge 214, Type (0, 0), BuildingBlock: CIFDUS_clean_linker_0, # of connection points: 2
#     Edge 215, Type (0, 0), BuildingBlock: CIFDUS_clean_linker_0, # of connection points: 2
#     Edge 216, Type (0, 0), BuildingBlock: CIFDUS_clean_linker_0, # of connection points: 2
#     Edge 217, Type (0, 0), BuildingBlock: CIFDUS_clean_linker_0, # of connection points: 2
#     Edge 218, Type (0, 0), BuildingBlock: CIFDUS_clean_linker_0, # of connection points: 2
#     Edge 219, Type (0, 0), BuildingBlock: CIFDUS_clean_linker_0, # of connection points: 2
#     Edge 220, Type (0, 0), BuildingBlock: CIFDUS_clean_linker_0, # of connection points: 2
#     Edge 221, Type (0, 0), BuildingBlock: CIFDUS_clean_linker_0, # of connection points: 2
#     Edge 222, Type (0, 0), BuildingBlock: CIFDUS_clean_linker_0, # of connection points: 2
#     Edge 223, Type (0, 0), BuildingBlock: CIFDUS_clean_linker_0, # of connection points: 2
#     Edge 224, Type (0, 0), BuildingBlock: CIFDUS_clean_linker_0, # of connection points: 2
#     Edge 225, Type (0, 0), BuildingBlock: CIFDUS_clean_linker_0, # of connection points: 2
#     Edge 226, Type (0, 0), BuildingBlock: CIFDUS_clean_linker_0, # of connection points: 2
#     Edge 227, Type (0, 0), BuildingBlock: CIFDUS_clean_linker_0, # of connection points: 2
#     Edge 228, Type (0, 0), BuildingBlock: CIFDUS_clean_linker_0, # of connection points: 2
#     Edge 229, Type (0, 0), BuildingBlock: CIFDUS_clean_linker_0, # of connection points: 2
#     Edge 230, Type (0, 0), BuildingBlock: CIFDUS_clean_linker_0, # of connection points: 2
#     Edge 231, Type (0, 0), BuildingBlock: CIFDUS_clean_linker_0, # of connection points: 2
#     Edge 232, Type (0, 0), BuildingBlock: CIFDUS_clean_linker_0, # of connection points: 2
#     Edge 233, Type (0, 0), BuildingBlock: CIFDUS_clean_linker_0, # of connection points: 2
#     Edge 234, Type (0, 0), BuildingBlock: CIFDUS_clean_linker_0, # of connection points: 2
#     Edge 235, Type (0, 0), BuildingBlock: CIFDUS_clean_linker_0, # of connection points: 2
#     Edge 236, Type (0, 0), BuildingBlock: CIFDUS_clean_linker_0, # of connection points: 2
#     Edge 237, Type (0, 0), BuildingBlock: CIFDUS_clean_linker_0, # of connection points: 2
#     Edge 238, Type (0, 0), BuildingBlock: CIFDUS_clean_linker_0, # of connection points: 2
#     Edge 239, Type (0, 0), BuildingBlock: CIFDUS_clean_linker_0, # of connection points: 2
#     Edge 240, Type (0, 0), BuildingBlock: CIFDUS_clean_linker_0, # of connection points: 2
#     Edge 241, Type (0, 0), BuildingBlock: CIFDUS_clean_linker_0, # of connection points: 2
#     Edge 242, Type (0, 0), BuildingBlock: CIFDUS_clean_linker_0, # of connection points: 2
#     Edge 243, Type (0, 0), BuildingBlock: CIFDUS_clean_linker_0, # of connection points: 2
#     Edge 244, Type (0, 0), BuildingBlock: CIFDUS_clean_linker_0, # of connection points: 2
#     Edge 245, Type (0, 0), BuildingBlock: CIFDUS_clean_linker_0, # of connection points: 2
#     Edge 246, Type (0, 0), BuildingBlock: CIFDUS_clean_linker_0, # of connection points: 2
#     Edge 247, Type (0, 0), BuildingBlock: CIFDUS_clean_linker_0, # of connection points: 2
#     Edge 248, Type (0, 0), BuildingBlock: CIFDUS_clean_linker_0, # of connection points: 2
#     Edge 249, Type (0, 0), BuildingBlock: CIFDUS_clean_linker_0, # of connection points: 2
#     Edge 250, Type (0, 0), BuildingBlock: CIFDUS_clean_linker_0, # of connection points: 2
#     Edge 251, Type (0, 0), BuildingBlock: CIFDUS_clean_linker_0, # of connection points: 2
#     Edge 252, Type (0, 0), BuildingBlock: CIFDUS_clean_linker_0, # of connection points: 2
#     Edge 253, Type (0, 0), BuildingBlock: CIFDUS_clean_linker_0, # of connection points: 2
#     Edge 254, Type (0, 0), BuildingBlock: CIFDUS_clean_linker_0, # of connection points: 2
#     Edge 255, Type (0, 0), BuildingBlock: CIFDUS_clean_linker_0, # of connection points: 2
#     Edge 256, Type (0, 0), BuildingBlock: CIFDUS_clean_linker_0, # of connection points: 2
#     Edge 257, Type (0, 0), BuildingBlock: CIFDUS_clean_linker_0, # of connection points: 2
#     Edge 258, Type (0, 0), BuildingBlock: CIFDUS_clean_linker_0, # of connection points: 2
#     Edge 259, Type (0, 0), BuildingBlock: CIFDUS_clean_linker_0, # of connection points: 2
#     Edge 260, Type (0, 0), BuildingBlock: CIFDUS_clean_linker_0, # of connection points: 2
#     Edge 261, Type (0, 0), BuildingBlock: CIFDUS_clean_linker_0, # of connection points: 2
#     Edge 262, Type (0, 0), BuildingBlock: CIFDUS_clean_linker_0, # of connection points: 2
#     Edge 263, Type (0, 0), BuildingBlock: CIFDUS_clean_linker_0, # of connection points: 2
#     Edge 264, Type (0, 0), BuildingBlock: CIFDUS_clean_linker_0, # of connection points: 2
#     Edge 265, Type (0, 0), BuildingBlock: CIFDUS_clean_linker_0, # of connection points: 2
#     Edge 266, Type (0, 0), BuildingBlock: CIFDUS_clean_linker_0, # of connection points: 2
#     Edge 267, Type (0, 0), BuildingBlock: CIFDUS_clean_linker_0, # of connection points: 2
#     Edge 268, Type (0, 0), BuildingBlock: CIFDUS_clean_linker_0, # of connection points: 2
#     Edge 269, Type (0, 0), BuildingBlock: CIFDUS_clean_linker_0, # of connection points: 2
#     Edge 270, Type (0, 0), BuildingBlock: CIFDUS_clean_linker_0, # of connection points: 2
#     Edge 271, Type (0, 0), BuildingBlock: CIFDUS_clean_linker_0, # of connection points: 2
#     Edge 272, Type (0, 0), BuildingBlock: CIFDUS_clean_linker_0, # of connection points: 2
#     Edge 273, Type (0, 0), BuildingBlock: CIFDUS_clean_linker_0, # of connection points: 2
#     Edge 274, Type (0, 0), BuildingBlock: CIFDUS_clean_linker_0, # of connection points: 2
#     Edge 275, Type (0, 0), BuildingBlock: CIFDUS_clean_linker_0, # of connection points: 2
#     Edge 276, Type (0, 0), BuildingBlock: CIFDUS_clean_linker_0, # of connection points: 2
#     Edge 277, Type (0, 0), BuildingBlock: CIFDUS_clean_linker_0, # of connection points: 2
#     Edge 278, Type (0, 0), BuildingBlock: CIFDUS_clean_linker_0, # of connection points: 2
#     Edge 279, Type (0, 0), BuildingBlock: CIFDUS_clean_linker_0, # of connection points: 2
#     Edge 280, Type (0, 0), BuildingBlock: CIFDUS_clean_linker_0, # of connection points: 2
#     Edge 281, Type (0, 0), BuildingBlock: CIFDUS_clean_linker_0, # of connection points: 2
#     Edge 282, Type (0, 0), BuildingBlock: CIFDUS_clean_linker_0, # of connection points: 2
#     Edge 283, Type (0, 0), BuildingBlock: CIFDUS_clean_linker_0, # of connection points: 2
#     Edge 284, Type (0, 0), BuildingBlock: CIFDUS_clean_linker_0, # of connection points: 2
#     Edge 285, Type (0, 0), BuildingBlock: CIFDUS_clean_linker_0, # of connection points: 2
#     Edge 286, Type (0, 0), BuildingBlock: CIFDUS_clean_linker_0, # of connection points: 2
#     Edge 287, Type (0, 0), BuildingBlock: CIFDUS_clean_linker_0, # of connection points: 2
# Relax obj value: 0.113
# Max RMSD: 0.164
# Mean RMSD: 0.164
data_MOF--net-ulh--node1-GALJAG_clean_sbu_0--edge1-CIFDUS_clean_linker_0
_symmetry_space_group_name_H-M    P1
_symmetry_Int_Tables_number       1
_symmetry_cell_setting            triclinic
loop_
_symmetry_equiv_pos_as_xyz
'x, y, z'
_cell_length_a     70.605554
_cell_length_b     70.595307
_cell_length_c     70.626393
_cell_angle_alpha  89.996841
_cell_angle_beta   89.969767
_cell_angle_gamma 89.995108
loop_
_atom_site_label
_atom_site_type_symbol
_atom_site_fract_x
_atom_site_fract_y
_atom_site_fract_z
_atom_type_partial_charge
In0 In 0.04896 0.31112 0.07514 0.0
O1 O 0.05286 0.27874 0.07978 0.0
O2 O 0.03444 0.29431 0.09783 0.0
C3 C 0.08117 0.32603 0.06115 0.0
C4 C 0.02533 0.30816 0.04541 0.0
C5 C 0.04621 0.33746 0.10247 0.0
O6 O 0.08143 0.31202 0.07237 0.0
O7 O 0.06488 0.33162 0.05654 0.0
O8 O 0.03522 0.3373 0.0883 0.0
O9 O 0.05835 0.32433 0.10277 0.0
C10 C 0.04156 0.27853 0.09369 0.0
O11 O 0.02067 0.31652 0.06054 0.0
O12 O 0.04174 0.30106 0.04541 0.0
In13 In 0.93966 0.29979 0.33228 0.0
O14 O 0.97037 0.3042 0.34281 0.0
O15 O 0.95908 0.27618 0.34031 0.0
C16 C 0.92297 0.3307 0.31798 0.0
C17 C 0.9409 0.28248 0.29863 0.0
C18 C 0.91805 0.29783 0.3636 0.0
O19 O 0.93931 0.33176 0.32548 0.0
O20 O 0.91555 0.31444 0.31807 0.0
O21 O 0.91537 0.28712 0.34947 0.0
O22 O 0.93199 0.30892 0.36209 0.0
C23 C 0.97303 0.2865 0.34452 0.0
O24 O 0.93202 0.27541 0.31256 0.0
O25 O 0.9493 0.29799 0.30186 0.0
In26 In 0.94702 0.19262 0.57783 0.0
O27 O 0.94235 0.22109 0.59311 0.0
O28 O 0.97054 0.21109 0.5888 0.0
C29 C 0.91257 0.1814 0.56566 0.0
C30 C 0.96464 0.19682 0.54435 0.0
C31 C 0.95304 0.16605 0.60476 0.0
O32 O 0.91446 0.19532 0.57677 0.0
O33 O 0.92788 0.17396 0.56041 0.0
O34 O 0.96202 0.1662 0.5893 0.0
O35 O 0.94147 0.17947 0.60674 0.0
C36 C 0.95991 0.22385 0.59541 0.0
O37 O 0.96716 0.18256 0.55488 0.0
O38 O 0.95328 0.20913 0.55075 0.0
In39 In 0.05462 0.19997 0.83348 0.0
O40 O 0.02202 0.19773 0.83241 0.0
O41 O 0.03469 0.20814 0.85749 0.0
C42 C 0.06989 0.16779 0.8195 0.0
C43 C 0.05267 0.22404 0.804 0.0
C44 C 0.08173 0.20544 0.8597 0.0
O45 O 0.0563 0.16732 0.8312 0.0
O46 O 0.07506 0.18416 0.81475 0.0
O47 O 0.07962 0.21645 0.84572 0.0
O48 O 0.06987 0.1921 0.86063 0.0
C49 C 0.01961 0.20457 0.84874 0.0
O50 O 0.05685 0.2297 0.82049 0.0
O51 O 0.04929 0.20656 0.80264 0.0
In52 In 0.0432 0.68808 0.91467 0.0
O53 O 0.01563 0.68458 0.93104 0.0
O54 O 0.03926 0.69719 0.94519 0.0
C55 C 0.03829 0.66347 0.8856 0.0
C56 C 0.03875 0.72282 0.89924 0.0
C57 C 0.07325 0.67156 0.93121 0.0
O58 O 0.02753 0.66365 0.89989 0.0
O59 O 0.05081 0.67616 0.88568 0.0
O60 O 0.07465 0.68758 0.92324 0.0
O61 O 0.05698 0.66429 0.93078 0.0
C62 C 0.02228 0.69156 0.94617 0.0
O63 O 0.0546 0.71454 0.89935 0.0
O64 O 0.02549 0.71377 0.90701 0.0
In65 In 0.56228 0.30046 0.17527 0.0
O66 O 0.53037 0.29974 0.16773 0.0
O67 O 0.5497 0.28146 0.15339 0.0
C68 C 0.5704 0.33258 0.19412 0.0
C69 C 0.56398 0.27481 0.20328 0.0
C70 C 0.58677 0.30606 0.14666 0.0
O71 O 0.5573 0.33202 0.18188 0.0
O72 O 0.57836 0.31696 0.19728 0.0
O73 O 0.5885 0.29238 0.15813 0.0
O74 O 0.57285 0.31682 0.14981 0.0
C75 C 0.53287 0.2871 0.15521 0.0
O76 O 0.57739 0.2772 0.19163 0.0
O77 O 0.54956 0.28507 0.20049 0.0
In78 In 0.9486 0.81153 0.42337 0.0
O79 O 0.97163 0.82552 0.44077 0.0
O80 O 0.96299 0.79761 0.44865 0.0
C81 C 0.94445 0.83682 0.39531 0.0
C82 C 0.9614 0.78313 0.40165 0.0
C83 C 0.91626 0.82048 0.44157 0.0
O84 O 0.95755 0.8382 0.40747 0.0
O85 O 0.93346 0.82291 0.39757 0.0
O86 O 0.91679 0.80715 0.42956 0.0
O87 O 0.93198 0.8282 0.44481 0.0
C88 C 0.97332 0.81183 0.45219 0.0
O89 O 0.94834 0.78019 0.41365 0.0
O90 O 0.96804 0.79969 0.40148 0.0
In91 In 0.44478 0.20253 0.66973 0.0
O92 O 0.43316 0.22415 0.6905 0.0
O93 O 0.46156 0.21468 0.69453 0.0
C94 C 0.41673 0.20459 0.64409 0.0
C95 C 0.47388 0.21443 0.64814 0.0
C96 C 0.4348 0.16879 0.68478 0.0
O97 O 0.41836 0.21643 0.65744 0.0
O98 O 0.42927 0.19185 0.64372 0.0
O99 O 0.44694 0.16992 0.67163 0.0
O100 O 0.42893 0.1845 0.69076 0.0
C101 C 0.44806 0.2249 0.70036 0.0
O102 O 0.47598 0.20084 0.65968 0.0
O103 O 0.45759 0.2217 0.64793 0.0
In104 In 0.07926 0.04973 0.30612 0.0
O105 O 0.0789 0.05146 0.27346 0.0
O106 O 0.10368 0.0414 0.28698 0.0
C107 C 0.06497 0.08177 0.32129 0.0
C108 C 0.04987 0.0256 0.30388 0.0
C109 C 0.10624 0.04439 0.33237 0.0
O110 O 0.07658 0.08232 0.30765 0.0
O111 O 0.06054 0.06538 0.32666 0.0
O112 O 0.09203 0.03352 0.33105 0.0
O113 O 0.10677 0.05765 0.32041 0.0
C114 C 0.09538 0.04481 0.27164 0.0
O115 O 0.06586 0.02036 0.31007 0.0
O116 O 0.04905 0.04263 0.29856 0.0
In117 In 0.19791 0.33049 0.55311 0.0
O118 O 0.22422 0.31226 0.55779 0.0
O119 O 0.20007 0.29981 0.54438 0.0
C120 C 0.20132 0.36238 0.57361 0.0
C121 C 0.20466 0.34308 0.51809 0.0
C122 C 0.1692 0.31692 0.57378 0.0
O123 O 0.21272 0.34865 0.57542 0.0
O124 O 0.18872 0.36012 0.56114 0.0
O125 O 0.16629 0.32458 0.55777 0.0
O126 O 0.18628 0.3162 0.57893 0.0
C127 C 0.2167 0.29763 0.5506 0.0
O128 O 0.18837 0.33706 0.52264 0.0
O129 O 0.21701 0.34261 0.53097 0.0
In130 In 0.92227 0.45131 0.80715 0.0
O131 O 0.90913 0.44681 0.77736 0.0
O132 O 0.91059 0.47454 0.78903 0.0
C133 C 0.93442 0.4168 0.81795 0.0
C134 C 0.95437 0.4716 0.80437 0.0
C135 C 0.89543 0.45533 0.83415 0.0
O136 O 0.92412 0.41901 0.80343 0.0
O137 O 0.93899 0.43192 0.82627 0.0
O138 O 0.91159 0.46285 0.83537 0.0
O139 O 0.89268 0.44607 0.81915 0.0
C140 C 0.90568 0.46429 0.77532 0.0
O141 O 0.94009 0.47717 0.81359 0.0
O142 O 0.95264 0.45556 0.79657 0.0
In143 In 0.80064 0.17358 0.06011 0.0
O144 O 0.77333 0.18981 0.06585 0.0
O145 O 0.79363 0.2025 0.04751 0.0
C146 C 0.79987 0.1494 0.08948 0.0
C147 C 0.7895 0.1504 0.0319 0.0
C148 C 0.83471 0.18795 0.06943 0.0
O149 O 0.78958 0.16408 0.08898 0.0
O150 O 0.81059 0.1472 0.07535 0.0
O151 O 0.83283 0.17642 0.05581 0.0
O152 O 0.81949 0.19243 0.07761 0.0
C153 C 0.77783 0.20386 0.05575 0.0
O154 O 0.802 0.16293 0.02896 0.0
O155 O 0.78279 0.15019 0.04838 0.0
In156 In 0.07742 0.95585 0.68616 0.0
O157 O 0.06185 0.98361 0.68171 0.0
O158 O 0.04649 0.96061 0.69404 0.0
C159 C 0.10766 0.96374 0.66388 0.0
C160 C 0.09119 0.9605 0.72159 0.0
C161 C 0.06245 0.92517 0.66896 0.0
O162 O 0.09241 0.97302 0.66307 0.0
O163 O 0.10774 0.95078 0.67613 0.0
O164 O 0.06878 0.92432 0.68571 0.0
O165 O 0.06374 0.9412 0.66128 0.0
C166 C 0.04631 0.97763 0.6884 0.0
O167 O 0.09348 0.94515 0.71268 0.0
O168 O 0.08171 0.97279 0.71287 0.0
In169 In 0.29573 0.33615 0.9373 0.0
O170 O 0.29744 0.34551 0.96851 0.0
O171 O 0.27133 0.34813 0.95325 0.0
C172 C 0.32715 0.31859 0.92524 0.0
C173 C 0.27471 0.30467 0.93861 0.0
C174 C 0.29752 0.3678 0.91605 0.0
O175 O 0.32729 0.32838 0.94032 0.0
O176 O 0.31147 0.31786 0.91677 0.0
O177 O 0.28524 0.35505 0.91311 0.0
O178 O 0.3086 0.36454 0.92968 0.0
C179 C 0.28003 0.35003 0.96874 0.0
O180 O 0.27368 0.31611 0.92477 0.0
O181 O 0.28631 0.30916 0.9515 0.0
In182 In 0.92233 0.55146 0.19559 0.0
O183 O 0.94043 0.5305 0.17931 0.0
O184 O 0.94614 0.53379 0.20871 0.0
C185 C 0.89574 0.5488 0.16839 0.0
C186 C 0.90296 0.54193 0.22724 0.0
C187 C 0.93846 0.58554 0.18792 0.0
O188 O 0.90817 0.5362 0.17099 0.0
O189 O 0.89675 0.56278 0.17949 0.0
O190 O 0.92428 0.584 0.19872 0.0
O191 O 0.94483 0.57001 0.18204 0.0
C192 C 0.95054 0.52587 0.19328 0.0
O193 O 0.91856 0.55068 0.22819 0.0
O194 O 0.89752 0.53823 0.21069 0.0
In195 In 0.70737 0.1661 0.43641 0.0
O196 O 0.70194 0.16294 0.46843 0.0
O197 O 0.72082 0.14373 0.45492 0.0
C198 C 0.67512 0.17966 0.42131 0.0
C199 C 0.72992 0.19652 0.44079 0.0
C200 C 0.71147 0.13966 0.40934 0.0
O201 O 0.67488 0.16773 0.4347 0.0
O202 O 0.69137 0.18499 0.41628 0.0
O203 O 0.7216 0.15445 0.40976 0.0
O204 O 0.69981 0.1381 0.4228 0.0
C205 C 0.71302 0.14899 0.47005 0.0
O206 O 0.73586 0.18142 0.43315 0.0
O207 O 0.71295 0.196 0.44634 0.0
In208 In 0.31167 0.08095 0.05024 0.0
O209 O 0.27962 0.08782 0.05024 0.0
O210 O 0.29833 0.10341 0.03238 0.0
C211 C 0.3204 0.06135 0.08176 0.0
C212 C 0.31326 0.05323 0.0242 0.0
C213 C 0.33608 0.10965 0.05585 0.0
O214 O 0.30716 0.07346 0.08167 0.0
O215 O 0.32824 0.05871 0.06597 0.0
O216 O 0.33667 0.09937 0.04116 0.0
O217 O 0.32332 0.1053 0.0676 0.0
C218 C 0.28161 0.10085 0.03804 0.0
O219 O 0.32694 0.06445 0.0271 0.0
O220 O 0.29866 0.05634 0.03409 0.0
In221 In 0.80518 0.91858 0.44576 0.0
O222 O 0.81787 0.94083 0.46539 0.0
O223 O 0.79079 0.94629 0.45284 0.0
C224 C 0.8278 0.88786 0.44631 0.0
C225 C 0.77535 0.90407 0.46407 0.0
C226 C 0.81514 0.93293 0.41202 0.0
O227 O 0.83041 0.9018 0.45729 0.0
O228 O 0.81387 0.88953 0.43526 0.0
O229 O 0.79987 0.92363 0.41395 0.0
O230 O 0.8248 0.93484 0.42691 0.0
C231 C 0.80391 0.95201 0.46363 0.0
O232 O 0.77487 0.90627 0.44624 0.0
O233 O 0.7906 0.90888 0.47201 0.0
In234 In 0.32793 0.06785 0.71071 0.0
O235 O 0.30759 0.0798 0.73269 0.0
O236 O 0.30103 0.05288 0.72082 0.0
C237 C 0.35627 0.09344 0.71106 0.0
C238 C 0.34906 0.03859 0.72259 0.0
C239 C 0.31363 0.07831 0.67699 0.0
O240 O 0.34313 0.09356 0.72327 0.0
O241 O 0.35494 0.08056 0.69874 0.0
O242 O 0.32324 0.06327 0.6788 0.0
O243 O 0.31089 0.08731 0.69214 0.0
C244 C 0.29612 0.06609 0.73184 0.0
O245 O 0.33881 0.0371 0.70796 0.0
O246 O 0.34778 0.05414 0.73127 0.0
In247 In 0.18906 0.58049 0.95454 0.0
O248 O 0.17504 0.56385 0.97835 0.0
O249 O 0.20193 0.55436 0.96844 0.0
C250 C 0.16432 0.60917 0.95057 0.0
C251 C 0.21905 0.60084 0.9659 0.0
C252 C 0.17964 0.56361 0.92168 0.0
O253 O 0.16271 0.59695 0.9636 0.0
O254 O 0.17839 0.60689 0.93978 0.0
O255 O 0.19427 0.57387 0.92305 0.0
O256 O 0.17075 0.56122 0.93694 0.0
C257 C 0.1881 0.55166 0.97949 0.0
O258 O 0.2209 0.58795 0.95356 0.0
O259 O 0.20262 0.60277 0.97258 0.0
In260 In 0.1696 0.94083 0.20762 0.0
O261 O 0.16858 0.97302 0.20218 0.0
O262 O 0.14695 0.96048 0.21894 0.0
C263 C 0.18439 0.92505 0.1763 0.0
C264 C 0.19921 0.94315 0.23155 0.0
C265 C 0.14198 0.91473 0.2103 0.0
O266 O 0.17333 0.93915 0.17532 0.0
O267 O 0.18814 0.91956 0.19283 0.0
O268 O 0.15567 0.91529 0.22187 0.0
O269 O 0.14207 0.92759 0.19789 0.0
C270 C 0.15366 0.97534 0.21176 0.0
O271 O 0.18319 0.9372 0.23698 0.0
O272 O 0.19995 0.94828 0.21447 0.0
In273 In 0.6876 0.92102 0.04401 0.0
O274 O 0.71724 0.90757 0.04741 0.0
O275 O 0.70567 0.91157 0.01975 0.0
C276 C 0.67538 0.93304 0.07813 0.0
C277 C 0.69138 0.95479 0.02697 0.0
C278 C 0.6625 0.89282 0.03798 0.0
O279 O 0.69 0.92276 0.07656 0.0
O280 O 0.66764 0.93743 0.06268 0.0
O281 O 0.66215 0.90815 0.02876 0.0
O282 O 0.67575 0.89159 0.04988 0.0
C283 C 0.71943 0.90602 0.02967 0.0
O284 O 0.67736 0.94403 0.02397 0.0
O285 O 0.70338 0.94859 0.03874 0.0
In286 In 0.32897 0.44849 0.79902 0.0
O287 O 0.31074 0.4363 0.77543 0.0
O288 O 0.30516 0.46462 0.78453 0.0
C289 C 0.35712 0.42311 0.80247 0.0
C290 C 0.35099 0.47748 0.78826 0.0
C291 C 0.30961 0.43791 0.83018 0.0
O292 O 0.34557 0.42262 0.78875 0.0
O293 O 0.35418 0.43613 0.81436 0.0
O294 O 0.32163 0.45123 0.83078 0.0
O295 O 0.30701 0.43092 0.814 0.0
C296 C 0.30061 0.451 0.77383 0.0
O297 O 0.33884 0.47965 0.80133 0.0
O298 O 0.3514 0.46128 0.78075 0.0
In299 In 0.6702 0.05229 0.29623 0.0
O300 O 0.68597 0.0569 0.26857 0.0
O301 O 0.70148 0.04559 0.29197 0.0
C302 C 0.64088 0.0758 0.28841 0.0
C303 C 0.65504 0.01751 0.29038 0.0
C304 C 0.68425 0.06707 0.32852 0.0
O305 O 0.65641 0.0766 0.27959 0.0
O306 O 0.64011 0.06303 0.3008 0.0
O307 O 0.6783 0.05018 0.32775 0.0
O308 O 0.68313 0.07612 0.31319 0.0
C309 C 0.70169 0.05102 0.2749 0.0
O310 O 0.65161 0.02691 0.30519 0.0
O311 O 0.66666 0.02523 0.2793 0.0
In312 In 0.04989 0.8063 0.58135 0.0
O313 O 0.05458 0.77562 0.59146 0.0
O314 O 0.02702 0.7881 0.59354 0.0
C315 C 0.08223 0.81965 0.56623 0.0
C316 C 0.02999 0.80303 0.54928 0.0
C317 C 0.04715 0.83066 0.61066 0.0
O318 O 0.08246 0.80658 0.57852 0.0
O319 O 0.066 0.82513 0.5614 0.0
O320 O 0.03695 0.83219 0.59602 0.0
O321 O 0.05814 0.8166 0.61066 0.0
C322 C 0.03731 0.7737 0.596 0.0
O323 O 0.02755 0.8167 0.56066 0.0
O324 O 0.04239 0.79103 0.55415 0.0
In325 In 0.9435 0.80245 0.83066 0.0
O326 O 0.96847 0.81184 0.84949 0.0
O327 O 0.96972 0.78488 0.8362 0.0
C328 C 0.92616 0.83309 0.81609 0.0
C329 C 0.94803 0.78441 0.7977 0.0
C330 C 0.9192 0.79375 0.85894 0.0
O331 O 0.94274 0.8342 0.82291 0.0
O332 O 0.91873 0.81689 0.81697 0.0
O333 O 0.91994 0.78428 0.84377 0.0
O334 O 0.93098 0.8071 0.85991 0.0
C335 C 0.97747 0.79652 0.84722 0.0
O336 O 0.94071 0.77642 0.81202 0.0
O337 O 0.9534 0.80132 0.80018 0.0
In338 In 0.95907 0.68495 0.08241 0.0
O339 O 0.94655 0.71126 0.09703 0.0
O340 O 0.97561 0.71159 0.08907 0.0
C341 C 0.92995 0.66531 0.06767 0.0
C342 C 0.97933 0.68859 0.05049 0.0
C343 C 0.96558 0.66338 0.11338 0.0
O344 O 0.92799 0.6823 0.07311 0.0
O345 O 0.94639 0.65861 0.06963 0.0
O346 O 0.97616 0.66268 0.09894 0.0
O347 O 0.95235 0.67528 0.11227 0.0
C348 C 0.96207 0.72018 0.09688 0.0
O349 O 0.98641 0.68193 0.06557 0.0
O350 O 0.96217 0.69361 0.05166 0.0
In351 In 0.05889 0.70391 0.32898 0.0
O352 O 0.03103 0.69634 0.34446 0.0
O353 O 0.03701 0.72517 0.33783 0.0
C354 C 0.0744 0.67211 0.31517 0.0
C355 C 0.05416 0.72111 0.29544 0.0
C356 C 0.08406 0.70983 0.35716 0.0
O357 O 0.05876 0.67173 0.32399 0.0
O358 O 0.08176 0.68828 0.31342 0.0
O359 O 0.08421 0.71946 0.34206 0.0
O360 O 0.07096 0.69776 0.35814 0.0
C361 C 0.0258 0.71347 0.34531 0.0
O362 O 0.06318 0.72878 0.30892 0.0
O363 O 0.04729 0.70496 0.29903 0.0
In364 In 0.05104 0.19165 0.42176 0.0
O365 O 0.02636 0.17714 0.43671 0.0
O366 O 0.03525 0.20415 0.44691 0.0
C367 C 0.05516 0.16838 0.39186 0.0
C368 C 0.04126 0.22385 0.4038 0.0
C369 C 0.08198 0.17976 0.44084 0.0
O370 O 0.04094 0.16746 0.40277 0.0
O371 O 0.06711 0.18098 0.3961 0.0
O372 O 0.08278 0.19356 0.42942 0.0
O373 O 0.06567 0.17297 0.44315 0.0
C374 C 0.02422 0.19019 0.44881 0.0
O375 O 0.05269 0.22415 0.41763 0.0
O376 O 0.03511 0.20769 0.39943 0.0
In377 In 0.55727 0.80266 0.67171 0.0
O378 O 0.56353 0.77468 0.68662 0.0
O379 O 0.54549 0.79447 0.7006 0.0
C380 C 0.58303 0.80392 0.64369 0.0
C381 C 0.52704 0.79384 0.65029 0.0
C382 C 0.57055 0.83415 0.68855 0.0
O383 O 0.58382 0.79167 0.65678 0.0
O384 O 0.56946 0.81549 0.645 0.0
O385 O 0.55522 0.83426 0.67919 0.0
O386 O 0.57856 0.81822 0.68969 0.0
C387 C 0.55375 0.77862 0.70108 0.0
O388 O 0.52623 0.8075 0.6619 0.0
O389 O 0.54239 0.78479 0.65025 0.0
In390 In 0.94698 0.30695 0.91724 0.0
O391 O 0.97692 0.30993 0.92963 0.0
O392 O 0.95445 0.30121 0.94779 0.0
C393 C 0.95235 0.33298 0.88991 0.0
C394 C 0.95121 0.2717 0.90232 0.0
C395 C 0.91572 0.32281 0.93266 0.0
O396 O 0.96382 0.33092 0.90353 0.0
O397 O 0.93844 0.32173 0.89001 0.0
O398 O 0.91449 0.30842 0.92201 0.0
O399 O 0.93232 0.32866 0.93534 0.0
C400 C 0.97177 0.30524 0.94615 0.0
O401 O 0.9456 0.27435 0.91907 0.0
O402 O 0.95355 0.28666 0.89297 0.0
In403 In 0.44487 0.69493 0.17076 0.0
O404 O 0.43757 0.72248 0.18601 0.0
O405 O 0.45622 0.70311 0.19978 0.0
C406 C 0.41835 0.69366 0.14353 0.0
C407 C 0.47499 0.70626 0.15036 0.0
C408 C 0.4332 0.66218 0.18631 0.0
O409 O 0.41716 0.70494 0.15744 0.0
O410 O 0.43285 0.68319 0.14348 0.0
O411 O 0.44769 0.6628 0.17569 0.0
O412 O 0.42548 0.67798 0.18942 0.0
C413 C 0.44752 0.71873 0.20041 0.0
O414 O 0.4767 0.69319 0.16255 0.0
O415 O 0.45864 0.71319 0.14897 0.0
In416 In 0.08429 0.54616 0.80846 0.0
O417 O 0.06976 0.51745 0.81253 0.0
O418 O 0.05547 0.53841 0.7963 0.0
C419 C 0.10744 0.54423 0.83859 0.0
C420 C 0.10794 0.53759 0.77962 0.0
C421 C 0.06921 0.58003 0.81795 0.0
O422 O 0.09285 0.53391 0.83716 0.0
O423 O 0.11003 0.55559 0.82504 0.0
O424 O 0.08117 0.57842 0.80468 0.0
O425 O 0.0647 0.56466 0.82581 0.0
C426 C 0.05517 0.52195 0.80324 0.0
O427 O 0.09351 0.54784 0.77684 0.0
O428 O 0.1099 0.53187 0.79634 0.0
In429 In 0.19825 0.83061 0.06088 0.0
O430 O 0.19799 0.84149 0.02983 0.0
O431 O 0.21827 0.85218 0.04949 0.0
C432 C 0.16545 0.81369 0.07021 0.0
C433 C 0.22223 0.80111 0.05951 0.0
C434 C 0.19381 0.85802 0.08678 0.0
O435 O 0.167 0.82349 0.05522 0.0
O436 O 0.18048 0.81206 0.07972 0.0
O437 O 0.20615 0.84512 0.08859 0.0
O438 O 0.18372 0.85685 0.07207 0.0
C439 C 0.21155 0.85283 0.03301 0.0
O440 O 0.22456 0.8148 0.0708 0.0
O441 O 0.20803 0.80245 0.04872 0.0
In442 In 0.91712 0.95485 0.30934 0.0
O443 O 0.90323 0.94336 0.28199 0.0
O444 O 0.91115 0.97238 0.28347 0.0
C445 C 0.93241 0.92513 0.3274 0.0
C446 C 0.94849 0.97605 0.30657 0.0
C447 C 0.8867 0.96099 0.33187 0.0
O448 O 0.92488 0.9233 0.31123 0.0
O449 O 0.93227 0.94168 0.33402 0.0
O450 O 0.90138 0.97117 0.33259 0.0
O451 O 0.88717 0.94828 0.31939 0.0
C452 C 0.90378 0.9593 0.27388 0.0
O453 O 0.93305 0.98249 0.31306 0.0
O454 O 0.94804 0.95893 0.30127 0.0
In455 In 0.81175 0.6657 0.55195 0.0
O456 O 0.81904 0.65403 0.52222 0.0
O457 O 0.79047 0.66095 0.5289 0.0
C458 C 0.84344 0.6783 0.56861 0.0
C459 C 0.79325 0.69885 0.5533 0.0
C460 C 0.80704 0.63331 0.57181 0.0
O461 O 0.8435 0.67278 0.55152 0.0
O462 O 0.82764 0.67733 0.57688 0.0
O463 O 0.79647 0.64758 0.5742 0.0
O464 O 0.81958 0.63539 0.5593 0.0
C465 C 0.80195 0.65454 0.51686 0.0
O466 O 0.78636 0.68377 0.56018 0.0
O467 O 0.80934 0.69713 0.5456 0.0
In468 In 0.0788 0.4476 0.19644 0.0
O469 O 0.09084 0.44147 0.22619 0.0
O470 O 0.08644 0.47011 0.21739 0.0
C471 C 0.06749 0.41461 0.181 0.0
C472 C 0.04478 0.46424 0.19927 0.0
C473 C 0.10857 0.45594 0.17389 0.0
O474 O 0.07663 0.41501 0.19642 0.0
O475 O 0.06397 0.43061 0.17398 0.0
O476 O 0.09327 0.4652 0.17344 0.0
O477 O 0.10893 0.44278 0.18595 0.0
C478 C 0.0917 0.45892 0.23026 0.0
O479 O 0.05644 0.46832 0.18628 0.0
O480 O 0.05023 0.45164 0.21077 0.0
In481 In 0.3022 0.83137 0.44606 0.0
O482 O 0.30816 0.84477 0.47533 0.0
O483 O 0.27977 0.8383 0.46729 0.0
C484 C 0.33465 0.81971 0.43019 0.0
C485 C 0.28473 0.79772 0.44737 0.0
C486 C 0.29704 0.86176 0.42363 0.0
O487 O 0.33436 0.82616 0.44696 0.0
O488 O 0.3188 0.81911 0.422 0.0
O489 O 0.28839 0.84632 0.42089 0.0
O490 O 0.3077 0.86191 0.43792 0.0
C491 C 0.29072 0.84519 0.47957 0.0
O492 O 0.27733 0.81206 0.43955 0.0
O493 O 0.30086 0.8004 0.4547 0.0
In494 In 0.91607 0.05262 0.69265 0.0
O495 O 0.92959 0.02336 0.6906 0.0
O496 O 0.94717 0.04687 0.69798 0.0
C497 C 0.88883 0.04371 0.66718 0.0
C498 C 0.89855 0.04974 0.72682 0.0
C499 C 0.93052 0.08516 0.67858 0.0
O500 O 0.90411 0.03449 0.66832 0.0
O501 O 0.88729 0.05692 0.67902 0.0
O502 O 0.92396 0.08424 0.69521 0.0
O503 O 0.92994 0.06984 0.66951 0.0
C504 C 0.94604 0.02932 0.69457 0.0
O505 O 0.89218 0.05953 0.71337 0.0
O506 O 0.91438 0.04224 0.72349 0.0
In507 In 0.70507 0.66328 0.93923 0.0
O508 O 0.73286 0.67834 0.93305 0.0
O509 O 0.71088 0.69383 0.94711 0.0
C510 C 0.70641 0.63078 0.91924 0.0
C511 C 0.71205 0.65073 0.9744 0.0
C512 C 0.67627 0.67971 0.92077 0.0
O513 O 0.71813 0.64406 0.91655 0.0
O514 O 0.69453 0.63383 0.93221 0.0
O515 O 0.67428 0.67362 0.93756 0.0
O516 O 0.69252 0.67749 0.91372 0.0
C517 C 0.72747 0.69385 0.94033 0.0
O518 O 0.69519 0.65302 0.96871 0.0
O519 O 0.72473 0.65496 0.9626 0.0
In520 In 0.31336 0.57473 0.5439 0.0
O521 O 0.28276 0.58661 0.54591 0.0
O522 O 0.29579 0.58335 0.51893 0.0
C523 C 0.32242 0.56216 0.57876 0.0
C524 C 0.31418 0.54214 0.52426 0.0
C525 C 0.33865 0.60347 0.54139 0.0
O526 O 0.30784 0.57223 0.57597 0.0
O527 O 0.33175 0.55825 0.56407 0.0
O528 O 0.34105 0.58767 0.53341 0.0
O529 O 0.32328 0.60496 0.55034 0.0
C530 C 0.28134 0.58825 0.52812 0.0
O531 O 0.32408 0.55642 0.51988 0.0
O532 O 0.30386 0.5442 0.53878 0.0
In533 In 0.8058 0.42085 0.94697 0.0
O534 O 0.81517 0.43929 0.97179 0.0
O535 O 0.79944 0.45225 0.94937 0.0
C536 C 0.82647 0.38869 0.94846 0.0
C537 C 0.77193 0.41063 0.96077 0.0
C538 C 0.82027 0.4331 0.91414 0.0
O539 O 0.83026 0.40299 0.95859 0.0
O540 O 0.8119 0.39045 0.93829 0.0
O541 O 0.8035 0.42666 0.91502 0.0
O542 O 0.82915 0.43338 0.92964 0.0
C543 C 0.80775 0.45421 0.96511 0.0
O544 O 0.77447 0.41211 0.94307 0.0
O545 O 0.78622 0.41403 0.97088 0.0
In546 In 0.32645 0.56124 0.20836 0.0
O547 O 0.33864 0.53114 0.20333 0.0
O548 O 0.33212 0.54002 0.23134 0.0
C549 C 0.3124 0.57198 0.17461 0.0
C550 C 0.29452 0.5623 0.22899 0.0
C551 C 0.35616 0.58534 0.21201 0.0
O552 O 0.32125 0.55651 0.17655 0.0
O553 O 0.31071 0.58161 0.18953 0.0
O554 O 0.34068 0.5876 0.2206 0.0
O555 O 0.35687 0.57068 0.20187 0.0
C556 C 0.33808 0.52703 0.22074 0.0
O557 O 0.30977 0.56999 0.23437 0.0
O558 O 0.29528 0.5542 0.21303 0.0
In559 In 0.19185 0.07977 0.44643 0.0
O560 O 0.22195 0.09186 0.44296 0.0
O561 O 0.20928 0.09067 0.47046 0.0
C562 C 0.1799 0.06547 0.41331 0.0
C563 C 0.19398 0.04706 0.46576 0.0
C564 C 0.16954 0.11083 0.44793 0.0
O565 O 0.19559 0.0741 0.41461 0.0
O566 O 0.17084 0.06389 0.4286 0.0
O567 O 0.1672 0.09696 0.45906 0.0
O568 O 0.18304 0.10893 0.43641 0.0
C569 C 0.22349 0.09509 0.46055 0.0
O570 O 0.18024 0.05844 0.46779 0.0
O571 O 0.20647 0.0522 0.45397 0.0
In572 In 0.17235 0.43911 0.69585 0.0
O573 O 0.16072 0.46897 0.68941 0.0
O574 O 0.16312 0.45981 0.71812 0.0
C575 C 0.18907 0.425 0.66465 0.0
C576 C 0.20386 0.43872 0.71706 0.0
C577 C 0.14037 0.41811 0.69747 0.0
O578 O 0.18103 0.44104 0.66438 0.0
O579 O 0.18851 0.41655 0.68032 0.0
O580 O 0.15341 0.41654 0.70963 0.0
O581 O 0.1435 0.43023 0.68476 0.0
C582 C 0.15833 0.47274 0.70677 0.0
O583 O 0.19085 0.4265 0.71896 0.0
O584 O 0.20078 0.45132 0.70468 0.0
In585 In 0.69136 0.42506 0.54484 0.0
O586 O 0.71636 0.40712 0.55559 0.0
O587 O 0.71741 0.41777 0.52746 0.0
C588 C 0.67355 0.43901 0.57554 0.0
C589 C 0.69685 0.45837 0.52728 0.0
C590 C 0.66681 0.39692 0.53597 0.0
O591 O 0.68993 0.43175 0.57678 0.0
O592 O 0.66656 0.43903 0.55914 0.0
O593 O 0.66728 0.41237 0.52693 0.0
O594 O 0.679 0.39559 0.5489 0.0
C595 C 0.72523 0.40787 0.54006 0.0
O596 O 0.68995 0.44414 0.51881 0.0
O597 O 0.70139 0.45562 0.54438 0.0
In598 In 0.3318 0.93952 0.30262 0.0
O599 O 0.31616 0.93334 0.27512 0.0
O600 O 0.30125 0.94781 0.29719 0.0
C601 C 0.36357 0.91819 0.30067 0.0
C602 C 0.34528 0.97453 0.29592 0.0
C603 C 0.31485 0.92234 0.33193 0.0
O604 O 0.35014 0.91631 0.28898 0.0
O605 O 0.36107 0.93102 0.31281 0.0
O606 O 0.32103 0.93914 0.33332 0.0
O607 O 0.31742 0.91459 0.31605 0.0
C608 C 0.30081 0.9408 0.28071 0.0
O609 O 0.34398 0.9682 0.31263 0.0
O610 O 0.33963 0.96344 0.28315 0.0
In611 In 0.66925 0.55682 0.79937 0.0
O612 O 0.66591 0.52431 0.80122 0.0
O613 O 0.64623 0.54026 0.78487 0.0
C614 C 0.68965 0.56712 0.83 0.0
C615 C 0.69582 0.55859 0.77207 0.0
C616 C 0.63983 0.58088 0.80318 0.0
O617 O 0.67739 0.55408 0.8309 0.0
O618 O 0.69173 0.57427 0.81383 0.0
O619 O 0.65047 0.58099 0.78876 0.0
O620 O 0.64415 0.56875 0.81559 0.0
C621 C 0.6514 0.52423 0.79072 0.0
O622 O 0.68393 0.57173 0.77471 0.0
O623 O 0.69376 0.54434 0.78268 0.0
In624 In 0.55098 0.31379 0.57013 0.0
O625 O 0.53031 0.32886 0.55057 0.0
O626 O 0.54136 0.30199 0.54188 0.0
C627 C 0.55195 0.33468 0.602 0.0
C628 C 0.53322 0.28309 0.58374 0.0
C629 C 0.5846 0.32427 0.55545 0.0
O630 O 0.54089 0.33845 0.58843 0.0
O631 O 0.56227 0.32031 0.5995 0.0
O632 O 0.58263 0.30845 0.56377 0.0
O633 O 0.56973 0.33405 0.55432 0.0
C634 C 0.53064 0.31588 0.53818 0.0
O635 O 0.55083 0.28258 0.58012 0.0
O636 O 0.52522 0.29875 0.58064 0.0
In637 In 0.43725 0.30248 0.82876 0.0
O638 O 0.4684 0.30646 0.83776 0.0
O639 O 0.45529 0.27926 0.84028 0.0
C640 C 0.42377 0.33391 0.81217 0.0
C641 C 0.43655 0.28081 0.79767 0.0
C642 C 0.41626 0.30325 0.86063 0.0
O643 O 0.43913 0.33423 0.82145 0.0
O644 O 0.41583 0.31798 0.81117 0.0
O645 O 0.41366 0.29103 0.8478 0.0
O646 O 0.42954 0.31475 0.85743 0.0
C647 C 0.46999 0.28919 0.84242 0.0
O648 O 0.42411 0.2795 0.81054 0.0
O649 O 0.44942 0.29295 0.80062 0.0
In650 In 0.45944 0.18442 0.07765 0.0
O651 O 0.47978 0.1702 0.05729 0.0
O652 O 0.46914 0.19762 0.04995 0.0
C653 C 0.46145 0.15771 0.10504 0.0
C654 C 0.47568 0.2155 0.09243 0.0
C655 C 0.42436 0.17742 0.06394 0.0
O656 O 0.46999 0.15612 0.08942 0.0
O657 O 0.45229 0.1729 0.10696 0.0
O658 O 0.42682 0.18702 0.07883 0.0
O659 O 0.43937 0.17238 0.05585 0.0
C660 C 0.47949 0.18367 0.04544 0.0
O661 O 0.4582 0.2153 0.0885 0.0
O662 O 0.48438 0.20027 0.08921 0.0
In663 In 0.55928 0.18839 0.32643 0.0
O664 O 0.57122 0.20996 0.3057 0.0
O665 O 0.54241 0.20132 0.30232 0.0
C666 C 0.58583 0.18455 0.35335 0.0
C667 C 0.53348 0.20396 0.34945 0.0
C668 C 0.56646 0.15518 0.30933 0.0
O669 O 0.58678 0.1974 0.34084 0.0
O670 O 0.57169 0.17368 0.35198 0.0
O671 O 0.55277 0.15692 0.32084 0.0
O672 O 0.57549 0.17022 0.30605 0.0
C673 C 0.556 0.21135 0.29633 0.0
O674 O 0.52925 0.18962 0.33945 0.0
O675 O 0.55008 0.21019 0.34725 0.0
In676 In 0.54971 0.69336 0.42235 0.0
O677 O 0.5583 0.72224 0.40956 0.0
O678 O 0.52906 0.71607 0.41413 0.0
C679 C 0.58011 0.67489 0.43578 0.0
C680 C 0.53113 0.69619 0.45539 0.0
C681 C 0.54551 0.6718 0.39112 0.0
O682 O 0.58149 0.69162 0.42931 0.0
O683 O 0.56363 0.668 0.43558 0.0
O684 O 0.53513 0.66963 0.40559 0.0
O685 O 0.55735 0.6851 0.39235 0.0
C686 C 0.54124 0.72764 0.40808 0.0
O687 O 0.52386 0.68824 0.44102 0.0
O688 O 0.5476 0.70284 0.45295 0.0
In689 In 0.05931 0.29964 0.6744 0.0
O690 O 0.02853 0.30124 0.66309 0.0
O691 O 0.04702 0.27894 0.65415 0.0
C692 C 0.07161 0.33085 0.69209 0.0
C693 C 0.05653 0.27613 0.70404 0.0
C694 C 0.08378 0.30402 0.64573 0.0
O695 O 0.05656 0.33112 0.68224 0.0
O696 O 0.07966 0.31495 0.6933 0.0
O697 O 0.08627 0.29159 0.65846 0.0
O698 O 0.06919 0.31417 0.64775 0.0
C699 C 0.03105 0.28677 0.65269 0.0
O700 O 0.06804 0.27326 0.69058 0.0
O701 O 0.04617 0.29066 0.70234 0.0
In702 In 0.44217 0.80478 0.91953 0.0
O703 O 0.46418 0.81653 0.93988 0.0
O704 O 0.45074 0.79034 0.94699 0.0
C705 C 0.44423 0.82837 0.88953 0.0
C706 C 0.45528 0.77295 0.90347 0.0
C707 C 0.40921 0.81693 0.9344 0.0
O708 O 0.45521 0.82983 0.90358 0.0
O709 O 0.43257 0.8149 0.89055 0.0
O710 O 0.41014 0.8016 0.92512 0.0
O711 O 0.42478 0.82536 0.93649 0.0
C712 C 0.46266 0.80296 0.95149 0.0
O713 O 0.43776 0.77502 0.90675 0.0
O714 O 0.46564 0.78669 0.90826 0.0
In715 In 0.94133 0.20599 0.16899 0.0
O716 O 0.97038 0.20117 0.1544 0.0
O717 O 0.96362 0.22843 0.16527 0.0
C718 C 0.92769 0.17214 0.17978 0.0
C719 C 0.94135 0.2216 0.20364 0.0
C720 C 0.91726 0.21292 0.14001 0.0
O721 O 0.94412 0.17371 0.17269 0.0
O722 O 0.91862 0.18744 0.18129 0.0
O723 O 0.9163 0.22163 0.1556 0.0
O724 O 0.93078 0.20133 0.13884 0.0
C725 C 0.97551 0.21816 0.15688 0.0
O726 O 0.93391 0.22971 0.18949 0.0
O727 O 0.94895 0.20573 0.20026 0.0
In728 In 0.58844 0.04541 0.8046 0.0
O729 O 0.60709 0.05388 0.77934 0.0
O730 O 0.59461 0.02649 0.77932 0.0
C731 C 0.57731 0.07853 0.81975 0.0
C732 C 0.55434 0.02897 0.80109 0.0
C733 C 0.61545 0.03681 0.8304 0.0
O734 O 0.58369 0.07763 0.803 0.0
O735 O 0.57641 0.0629 0.82831 0.0
O736 O 0.59938 0.02895 0.83042 0.0
O737 O 0.61809 0.04809 0.81686 0.0
C738 C 0.60531 0.03814 0.77105 0.0
O739 O 0.56852 0.02025 0.80778 0.0
O740 O 0.55754 0.04575 0.79571 0.0
In741 In 0.70462 0.33453 0.06119 0.0
O742 O 0.73377 0.32043 0.06379 0.0
O743 O 0.71133 0.30497 0.05083 0.0
C744 C 0.70774 0.36101 0.08846 0.0
C745 C 0.70904 0.35293 0.02803 0.0
C746 C 0.67358 0.31881 0.07668 0.0
O747 O 0.71887 0.34697 0.08751 0.0
O748 O 0.69542 0.36173 0.07553 0.0
O749 O 0.67233 0.33082 0.0634 0.0
O750 O 0.69022 0.3146 0.08148 0.0
C751 C 0.72836 0.30513 0.05618 0.0
O752 O 0.69804 0.33887 0.02938 0.0
O753 O 0.71737 0.35744 0.04311 0.0
In754 In 0.4196 0.44321 0.30578 0.0
O755 O 0.41245 0.4423 0.27385 0.0
O756 O 0.39556 0.45907 0.2924 0.0
C757 C 0.43658 0.40981 0.31392 0.0
C758 C 0.44773 0.46875 0.30365 0.0
C759 C 0.3942 0.44451 0.3342 0.0
O760 O 0.42172 0.41065 0.30402 0.0
O761 O 0.44327 0.42567 0.31846 0.0
O762 O 0.40756 0.45636 0.33275 0.0
O763 O 0.39373 0.4321 0.32135 0.0
C764 C 0.39858 0.4535 0.27573 0.0
O765 O 0.43864 0.46569 0.31876 0.0
O766 O 0.44241 0.45917 0.28951 0.0
In767 In 0.2984 0.17184 0.56211 0.0
O768 O 0.27374 0.19225 0.56618 0.0
O769 O 0.29574 0.20028 0.54712 0.0
C770 C 0.29465 0.14844 0.59189 0.0
C771 C 0.28552 0.14889 0.53471 0.0
C772 C 0.333 0.18316 0.57291 0.0
O773 O 0.28561 0.16389 0.59075 0.0
O774 O 0.30545 0.14497 0.57807 0.0
O775 O 0.33077 0.17185 0.55915 0.0
O776 O 0.31789 0.18897 0.58045 0.0
C777 C 0.28031 0.20462 0.55503 0.0
O778 O 0.30067 0.15819 0.53236 0.0
O779 O 0.27708 0.15185 0.55013 0.0
In780 In 0.5762 0.95377 0.18786 0.0
O781 O 0.58573 0.94564 0.21816 0.0
O782 O 0.59828 0.96945 0.20445 0.0
C783 C 0.55956 0.92297 0.17287 0.0
C784 C 0.54655 0.9769 0.19458 0.0
C785 C 0.60234 0.95607 0.16014 0.0
O786 O 0.5706 0.92172 0.18696 0.0
O787 O 0.55676 0.93958 0.16695 0.0
O788 O 0.58857 0.96751 0.16123 0.0
O789 O 0.60285 0.94369 0.17301 0.0
C790 C 0.59768 0.95897 0.21884 0.0
O791 O 0.56103 0.98232 0.18555 0.0
O792 O 0.54726 0.96008 0.2006 0.0
In793 In 0.79599 0.33119 0.44179 0.0
O794 O 0.80644 0.35049 0.4659 0.0
O795 O 0.77951 0.33751 0.46876 0.0
C796 C 0.8267 0.31523 0.42563 0.0
C797 C 0.77523 0.29968 0.44582 0.0
C798 C 0.78842 0.35908 0.41658 0.0
O799 O 0.82758 0.32249 0.44201 0.0
O800 O 0.8107 0.31622 0.41785 0.0
O801 O 0.77907 0.34385 0.41707 0.0
O802 O 0.80103 0.36039 0.42909 0.0
C803 C 0.79154 0.34871 0.47563 0.0
O804 O 0.76839 0.31491 0.43924 0.0
O805 O 0.7924 0.30054 0.45091 0.0
In806 In 0.42111 0.55202 0.68709 0.0
O807 O 0.44023 0.52642 0.68318 0.0
O808 O 0.45181 0.55099 0.6966 0.0
C809 C 0.39244 0.5437 0.66317 0.0
C810 C 0.40576 0.54518 0.72144 0.0
C811 C 0.43507 0.58285 0.66961 0.0
O812 O 0.4075 0.53407 0.6638 0.0
O813 O 0.39169 0.55709 0.67495 0.0
O814 O 0.42814 0.58391 0.68616 0.0
O815 O 0.43464 0.56658 0.66229 0.0
C816 C 0.45452 0.53432 0.69059 0.0
O817 O 0.40457 0.56136 0.71383 0.0
O818 O 0.4149 0.53313 0.712 0.0
In819 In 0.20536 0.17134 0.93324 0.0
O820 O 0.20438 0.16029 0.96401 0.0
O821 O 0.2311 0.16562 0.95097 0.0
C822 C 0.17008 0.18266 0.92404 0.0
C823 C 0.22185 0.20543 0.92983 0.0
C824 C 0.2099 0.14019 0.91144 0.0
O825 O 0.17339 0.17424 0.93951 0.0
O826 O 0.18437 0.18526 0.91372 0.0
O827 O 0.21963 0.15502 0.90919 0.0
O828 O 0.19806 0.14103 0.92475 0.0
C829 C 0.22225 0.16024 0.96551 0.0
O830 O 0.22335 0.19275 0.91725 0.0
O831 O 0.21207 0.20085 0.94414 0.0
In832 In 0.80919 0.07594 0.5488 0.0
O833 O 0.82607 0.05798 0.52771 0.0
O834 O 0.7971 0.05112 0.53219 0.0
C835 C 0.8337 0.10498 0.54539 0.0
C836 C 0.77548 0.09136 0.53923 0.0
C837 C 0.81791 0.06148 0.58327 0.0
O838 O 0.83209 0.09228 0.53286 0.0
O839 O 0.82285 0.10306 0.55948 0.0
O840 O 0.80481 0.07343 0.58107 0.0
O841 O 0.82582 0.05642 0.56816 0.0
C842 C 0.81238 0.04716 0.52382 0.0
O843 O 0.77671 0.07513 0.54663 0.0
O844 O 0.79103 0.0998 0.5371 0.0
In845 In 0.3076 0.92368 0.94805 0.0
O846 O 0.27886 0.90892 0.94311 0.0
O847 O 0.2882 0.91424 0.97135 0.0
C848 C 0.32061 0.93677 0.91466 0.0
C849 C 0.30451 0.95727 0.9656 0.0
C850 C 0.33184 0.89471 0.95411 0.0
O851 O 0.30517 0.92769 0.91569 0.0
O852 O 0.32888 0.93924 0.93024 0.0
O853 O 0.33211 0.90965 0.96396 0.0
O854 O 0.31927 0.89438 0.94146 0.0
C855 C 0.27558 0.90746 0.96069 0.0
O856 O 0.31822 0.9461 0.96851 0.0
O857 O 0.29223 0.95143 0.95393 0.0
In858 In 0.83291 0.05935 0.20201 0.0
O859 O 0.81828 0.06208 0.23084 0.0
O860 O 0.80327 0.04859 0.20848 0.0
C861 C 0.85778 0.08805 0.20477 0.0
C862 C 0.85439 0.02839 0.20784 0.0
C863 C 0.81912 0.07271 0.16913 0.0
O864 O 0.84339 0.0869 0.21543 0.0
O865 O 0.85964 0.07464 0.19312 0.0
O866 O 0.82956 0.05813 0.16969 0.0
O867 O 0.81512 0.07968 0.18505 0.0
C868 C 0.80315 0.05419 0.22544 0.0
O869 O 0.83999 0.02763 0.19724 0.0
O870 O 0.8574 0.04423 0.2154 0.0
In871 In 0.69843 0.58325 0.44289 0.0
O872 O 0.69204 0.56452 0.46857 0.0
O873 O 0.71142 0.55425 0.44778 0.0
C874 C 0.67231 0.61103 0.4436 0.0
C875 C 0.72848 0.6037 0.45382 0.0
C876 C 0.68561 0.56921 0.41003 0.0
O877 O 0.67121 0.59676 0.45443 0.0
O878 O 0.68645 0.61111 0.43267 0.0
O879 O 0.70034 0.57946 0.41063 0.0
O880 O 0.67801 0.56589 0.42584 0.0
C881 C 0.70261 0.55113 0.46303 0.0
O882 O 0.72915 0.59384 0.43885 0.0
O883 O 0.71331 0.60248 0.46315 0.0
In884 In 0.67729 0.93355 0.70502 0.0
O885 O 0.69603 0.9324 0.73127 0.0
O886 O 0.70755 0.94413 0.70581 0.0
C887 C 0.64784 0.91048 0.71327 0.0
C888 C 0.6611 0.96788 0.70861 0.0
C889 C 0.69135 0.91413 0.67544 0.0
O890 O 0.66319 0.90989 0.72248 0.0
O891 O 0.64731 0.923 0.70059 0.0
O892 O 0.68437 0.93054 0.67337 0.0
O893 O 0.69118 0.9079 0.69216 0.0
C894 C 0.71019 0.93969 0.72296 0.0
O895 O 0.66123 0.95916 0.69296 0.0
O896 O 0.66949 0.95956 0.72197 0.0
In897 In 0.18882 0.92381 0.55242 0.0
O898 O 0.22017 0.91417 0.55192 0.0
O899 O 0.20019 0.90158 0.53305 0.0
C900 C 0.18202 0.94221 0.5851 0.0
C901 C 0.18671 0.9525 0.52734 0.0
C902 C 0.16455 0.89503 0.55843 0.0
O903 O 0.19616 0.9313 0.58331 0.0
O904 O 0.17227 0.94429 0.57032 0.0
O905 O 0.16322 0.90578 0.54413 0.0
O906 O 0.17775 0.89916 0.56973 0.0
C907 C 0.21691 0.90186 0.53926 0.0
O908 O 0.17296 0.94151 0.53065 0.0
O909 O 0.20175 0.94867 0.53629 0.0
In910 In 0.82674 0.44245 0.30134 0.0
O911 O 0.81074 0.43252 0.27522 0.0
O912 O 0.79582 0.44944 0.29543 0.0
C913 C 0.85809 0.42043 0.30125 0.0
C914 C 0.83909 0.47593 0.28797 0.0
C915 C 0.81186 0.43054 0.33431 0.0
O916 O 0.84371 0.41672 0.29128 0.0
O917 O 0.8568 0.43545 0.31079 0.0
O918 O 0.81935 0.44679 0.33277 0.0
O919 O 0.81175 0.42083 0.31933 0.0
C920 C 0.7954 0.44056 0.27988 0.0
O921 O 0.83721 0.47325 0.30559 0.0
O922 O 0.83484 0.46204 0.27767 0.0
In923 In 0.16599 0.05307 0.80561 0.0
O924 O 0.1556 0.02206 0.80613 0.0
O925 O 0.14398 0.04152 0.78602 0.0
C926 C 0.18409 0.06147 0.83802 0.0
C927 C 0.19577 0.05136 0.78186 0.0
C928 C 0.13825 0.07889 0.81004 0.0
O929 O 0.17243 0.04784 0.8372 0.0
O930 O 0.18696 0.06983 0.82254 0.0
O931 O 0.14974 0.07959 0.79625 0.0
O932 O 0.14096 0.06535 0.8214 0.0
C933 C 0.14394 0.025 0.7928 0.0
O934 O 0.1856 0.06605 0.78346 0.0
O935 O 0.19048 0.03737 0.7917 0.0
In936 In 0.54695 0.81101 0.07601 0.0
O937 O 0.5492 0.77977 0.0854 0.0
O938 O 0.52247 0.79388 0.08676 0.0
C939 C 0.5806 0.82083 0.06084 0.0
C940 C 0.52572 0.81341 0.04454 0.0
C941 C 0.54705 0.8332 0.1072 0.0
O942 O 0.57875 0.8058 0.07045 0.0
O943 O 0.56559 0.83017 0.05864 0.0
O944 O 0.53576 0.83586 0.09359 0.0
O945 O 0.55791 0.81919 0.10519 0.0
C946 C 0.53172 0.77882 0.08931 0.0
O947 O 0.52597 0.82635 0.05695 0.0
O948 O 0.53623 0.79931 0.04798 0.0
In949 In 0.44174 0.79663 0.32825 0.0
O950 O 0.43781 0.76795 0.31387 0.0
O951 O 0.4549 0.78859 0.29994 0.0
C952 C 0.41321 0.79623 0.35346 0.0
C953 C 0.47117 0.78916 0.3513 0.0
C954 C 0.42891 0.82814 0.31096 0.0
O955 O 0.41371 0.78499 0.3395 0.0
O956 O 0.42698 0.80756 0.35454 0.0
O957 O 0.44261 0.82877 0.32255 0.0
O958 O 0.42245 0.81179 0.30788 0.0
C959 C 0.44767 0.77223 0.29956 0.0
O960 O 0.47255 0.80183 0.33867 0.0
O961 O 0.45562 0.78046 0.35166 0.0
In962 In 0.44565 0.6991 0.57962 0.0
O963 O 0.43815 0.72776 0.59355 0.0
O964 O 0.46694 0.72164 0.58688 0.0
C965 C 0.41371 0.6829 0.56672 0.0
C966 C 0.4643 0.70044 0.54648 0.0
C967 C 0.45031 0.67624 0.60991 0.0
O968 O 0.4136 0.69968 0.57317 0.0
O969 O 0.42966 0.6749 0.56674 0.0
O970 O 0.45967 0.67407 0.5948 0.0
O971 O 0.43928 0.69027 0.60988 0.0
C972 C 0.45527 0.7331 0.59403 0.0
O973 O 0.47132 0.69282 0.56112 0.0
O974 O 0.44804 0.70767 0.54869 0.0
In975 In 0.55995 0.70108 0.82941 0.0
O976 O 0.52885 0.69817 0.83958 0.0
O977 O 0.54659 0.71996 0.85083 0.0
C978 C 0.57195 0.66934 0.81226 0.0
C979 C 0.55621 0.72528 0.80031 0.0
C980 C 0.58585 0.69817 0.85705 0.0
O981 O 0.55769 0.66921 0.8232 0.0
O982 O 0.57934 0.68538 0.80962 0.0
O983 O 0.5878 0.70981 0.84351 0.0
O984 O 0.57105 0.68819 0.85641 0.0
C985 C 0.53069 0.71186 0.85108 0.0
O986 O 0.56702 0.72867 0.81419 0.0
O987 O 0.54713 0.70987 0.80126 0.0
In988 In 0.55446 0.19173 0.91544 0.0
O989 O 0.53459 0.17958 0.93754 0.0
O990 O 0.54153 0.20891 0.93958 0.0
C991 C 0.55508 0.16126 0.89256 0.0
C992 C 0.53814 0.21682 0.892 0.0
C993 C 0.58997 0.18799 0.92908 0.0
O994 O 0.54462 0.16209 0.90708 0.0
O995 O 0.56518 0.17572 0.88971 0.0
O996 O 0.58649 0.19804 0.91467 0.0
O997 O 0.57553 0.18116 0.93696 0.0
C998 C 0.53271 0.19495 0.94651 0.0
O999 O 0.55188 0.22168 0.90246 0.0
O1000 O 0.53278 0.19991 0.8939 0.0
In1001 In 0.05629 0.80075 0.16777 0.0
O1002 O 0.05961 0.7752 0.18718 0.0
O1003 O 0.04674 0.80021 0.19845 0.0
C1004 C 0.08214 0.79191 0.14079 0.0
C1005 C 0.02288 0.79334 0.15056 0.0
C1006 C 0.07048 0.83387 0.18037 0.0
O1007 O 0.08194 0.78391 0.15679 0.0
O1008 O 0.06906 0.80376 0.13835 0.0
O1009 O 0.05417 0.83291 0.17297 0.0
O1010 O 0.07924 0.81835 0.18128 0.0
C1011 C 0.0524 0.78346 0.20138 0.0
O1012 O 0.0317 0.80868 0.14796 0.0
O1013 O 0.03049 0.78228 0.16228 0.0
In1014 In 0.4448 0.3015 0.41523 0.0
O1015 O 0.46664 0.31536 0.43455 0.0
O1016 O 0.45562 0.28823 0.44234 0.0
C1017 C 0.44357 0.32324 0.38384 0.0
C1018 C 0.4593 0.26988 0.40004 0.0
C1019 C 0.4122 0.31218 0.43178 0.0
O1020 O 0.456 0.32557 0.39652 0.0
O1021 O 0.43202 0.31002 0.38705 0.0
O1022 O 0.41353 0.29659 0.42298 0.0
O1023 O 0.42723 0.32177 0.43242 0.0
C1024 C 0.46669 0.30176 0.44626 0.0
O1025 O 0.44195 0.2707 0.40461 0.0
O1026 O 0.46871 0.28478 0.40298 0.0
In1027 In 0.94472 0.69824 0.67481 0.0
O1028 O 0.94087 0.72472 0.69284 0.0
O1029 O 0.95693 0.70172 0.7042 0.0
C1030 C 0.91936 0.70269 0.6469 0.0
C1031 C 0.97714 0.70602 0.65663 0.0
C1032 C 0.92713 0.66722 0.68796 0.0
O1033 O 0.91915 0.71299 0.6616 0.0
O1034 O 0.93247 0.69055 0.64631 0.0
O1035 O 0.94137 0.66593 0.67707 0.0
O1036 O 0.92257 0.68386 0.69252 0.0
C1037 C 0.9501 0.71807 0.70669 0.0
O1038 O 0.97589 0.69153 0.66715 0.0
O1039 O 0.96247 0.71612 0.6557 0.0
In1040 In 0.57473 0.54849 0.31471 0.0
O1041 O 0.55616 0.52563 0.32742 0.0
O1042 O 0.54587 0.54034 0.30302 0.0
C1043 C 0.6062 0.54465 0.33607 0.0
C1044 C 0.58734 0.53739 0.28056 0.0
C1045 C 0.55876 0.57991 0.32943 0.0
O1046 O 0.59244 0.53328 0.33703 0.0
O1047 O 0.60419 0.55778 0.32414 0.0
O1048 O 0.56716 0.58039 0.31357 0.0
O1049 O 0.55867 0.56397 0.33737 0.0
C1050 C 0.54294 0.52783 0.31553 0.0
O1051 O 0.58577 0.55482 0.28451 0.0
O1052 O 0.58269 0.52615 0.29361 0.0
In1053 In 0.70404 0.82024 0.56035 0.0
O1054 O 0.73055 0.80255 0.56615 0.0
O1055 O 0.70882 0.79078 0.54871 0.0
C1056 C 0.70482 0.84943 0.58471 0.0
C1057 C 0.71365 0.83867 0.52858 0.0
C1058 C 0.67246 0.80616 0.576 0.0
O1059 O 0.71593 0.83542 0.5864 0.0
O1060 O 0.69372 0.84864 0.57073 0.0
O1061 O 0.67184 0.81579 0.56085 0.0
O1062 O 0.68883 0.80332 0.58255 0.0
C1063 C 0.72471 0.78853 0.55661 0.0
O1064 O 0.69891 0.82842 0.52906 0.0
O1065 O 0.72326 0.83895 0.54361 0.0
In1066 In 0.42487 0.95296 0.81112 0.0
O1067 O 0.40922 0.94706 0.78296 0.0
O1068 O 0.41625 0.97543 0.79062 0.0
C1069 C 0.43773 0.92094 0.82693 0.0
C1070 C 0.45887 0.96901 0.80595 0.0
C1071 C 0.39644 0.95915 0.83583 0.0
O1072 O 0.42918 0.92066 0.81112 0.0
O1073 O 0.43968 0.93712 0.83425 0.0
O1074 O 0.4118 0.96836 0.83648 0.0
O1075 O 0.39541 0.94727 0.82255 0.0
C1076 C 0.40852 0.96452 0.77881 0.0
O1077 O 0.44598 0.97684 0.81569 0.0
O1078 O 0.4545 0.95322 0.79868 0.0
In1079 In 0.29334 0.66884 0.06662 0.0
O1080 O 0.30359 0.65155 0.04066 0.0
O1081 O 0.27609 0.66366 0.04035 0.0
C1082 C 0.3245 0.68354 0.0829 0.0
C1083 C 0.27234 0.70022 0.06284 0.0
C1084 C 0.28573 0.64039 0.09112 0.0
O1085 O 0.32517 0.676 0.06664 0.0
O1086 O 0.30833 0.68379 0.09042 0.0
O1087 O 0.27692 0.65593 0.09144 0.0
O1088 O 0.29775 0.639 0.07803 0.0
C1089 C 0.28817 0.65369 0.03187 0.0
O1090 O 0.26553 0.68477 0.06887 0.0
O1091 O 0.28976 0.69984 0.05862 0.0
In1092 In 0.57984 0.45097 0.68935 0.0
O1093 O 0.56103 0.47634 0.68277 0.0
O1094 O 0.54941 0.45342 0.69894 0.0
C1095 C 0.61091 0.45346 0.66734 0.0
C1096 C 0.59215 0.46211 0.7234 0.0
C1097 C 0.56513 0.42055 0.67222 0.0
O1098 O 0.59668 0.46411 0.66503 0.0
O1099 O 0.60965 0.44217 0.68113 0.0
O1100 O 0.57346 0.419 0.68809 0.0
O1101 O 0.56449 0.43707 0.66548 0.0
C1102 C 0.54681 0.46942 0.69129 0.0
O1103 O 0.58961 0.44466 0.71992 0.0
O1104 O 0.58877 0.47327 0.70989 0.0
In1105 In 0.80168 0.82463 0.94093 0.0
O1106 O 0.8019 0.83033 0.97334 0.0
O1107 O 0.78513 0.84759 0.95527 0.0
C1108 C 0.83616 0.81147 0.93116 0.0
C1109 C 0.77834 0.7945 0.94218 0.0
C1110 C 0.8009 0.85067 0.91316 0.0
O1111 O 0.83393 0.82247 0.94516 0.0
O1112 O 0.82107 0.80681 0.92287 0.0
O1113 O 0.79113 0.83566 0.91244 0.0
O1114 O 0.81095 0.85244 0.92783 0.0
C1115 C 0.79049 0.84408 0.97187 0.0
O1116 O 0.7738 0.80975 0.934 0.0
O1117 O 0.79444 0.79457 0.94991 0.0
In1118 In 0.41521 0.04987 0.19548 0.0
O1119 O 0.43073 0.02236 0.18841 0.0
O1120 O 0.4445 0.04224 0.20649 0.0
C1121 C 0.38558 0.05148 0.17156 0.0
C1122 C 0.39587 0.04106 0.22696 0.0
C1123 C 0.43169 0.08091 0.18102 0.0
O1124 O 0.39829 0.03889 0.17007 0.0
O1125 O 0.38799 0.06307 0.18495 0.0
O1126 O 0.42335 0.08131 0.19693 0.0
O1127 O 0.43191 0.06496 0.17297 0.0
C1128 C 0.44529 0.02655 0.19795 0.0
O1129 O 0.40655 0.05548 0.22659 0.0
O1130 O 0.39563 0.03131 0.21204 0.0
In1131 In 0.19923 0.67385 0.44234 0.0
O1132 O 0.19668 0.66355 0.47345 0.0
O1133 O 0.21972 0.65418 0.45631 0.0
C1134 C 0.16542 0.68659 0.4303 0.0
C1135 C 0.21886 0.70619 0.44676 0.0
C1136 C 0.2017 0.64752 0.41498 0.0
O1137 O 0.16681 0.67603 0.44477 0.0
O1138 O 0.18095 0.69084 0.42257 0.0
O1139 O 0.21152 0.66253 0.41465 0.0
O1140 O 0.19077 0.64593 0.42905 0.0
C1141 C 0.21145 0.65344 0.47209 0.0
O1142 O 0.22476 0.69282 0.43642 0.0
O1143 O 0.20337 0.70305 0.45512 0.0
In1144 In 0.81018 0.57739 0.05223 0.0
O1145 O 0.81691 0.55885 0.02653 0.0
O1146 O 0.79849 0.54773 0.04771 0.0
C1147 C 0.83681 0.60466 0.05127 0.0
C1148 C 0.7803 0.59755 0.04035 0.0
C1149 C 0.82145 0.56561 0.08654 0.0
O1150 O 0.83859 0.58942 0.04197 0.0
O1151 O 0.82169 0.60602 0.06066 0.0
O1152 O 0.80662 0.5755 0.08447 0.0
O1153 O 0.82979 0.56122 0.07137 0.0
C1154 C 0.80709 0.54501 0.03226 0.0
O1155 O 0.77927 0.58772 0.05531 0.0
O1156 O 0.79572 0.5964 0.03145 0.0
In1157 In 0.30572 0.41204 0.44919 0.0
O1158 O 0.3068 0.42478 0.47913 0.0
O1159 O 0.30544 0.44342 0.45545 0.0
C1160 C 0.33096 0.38418 0.45608 0.0
C1161 C 0.26987 0.39888 0.45304 0.0
C1162 C 0.31976 0.42349 0.41553 0.0
O1163 O 0.33031 0.39907 0.466 0.0
O1164 O 0.31868 0.38329 0.44318 0.0
O1165 O 0.30412 0.41483 0.41667 0.0
O1166 O 0.32771 0.42657 0.43116 0.0
C1167 C 0.30637 0.44169 0.47319 0.0
O1168 O 0.2733 0.41607 0.44962 0.0
O1169 O 0.28433 0.38852 0.45386 0.0
In1170 In 0.82386 0.55833 0.69327 0.0
O1171 O 0.80178 0.56921 0.71398 0.0
O1172 O 0.79937 0.54064 0.70406 0.0
C1173 C 0.85177 0.58382 0.68969 0.0
C1174 C 0.84663 0.53341 0.71034 0.0
C1175 C 0.80716 0.56704 0.66038 0.0
O1176 O 0.83908 0.58543 0.70232 0.0
O1177 O 0.84996 0.56971 0.67884 0.0
O1178 O 0.81828 0.55294 0.66162 0.0
O1179 O 0.80424 0.57582 0.67565 0.0
C1180 C 0.79254 0.55381 0.71413 0.0
O1181 O 0.83831 0.529 0.69499 0.0
O1182 O 0.84266 0.54958 0.71688 0.0
In1183 In 0.69143 0.08306 0.94798 0.0
O1184 O 0.72 0.09803 0.94243 0.0
O1185 O 0.71322 0.08933 0.97044 0.0
C1186 C 0.68133 0.06684 0.91484 0.0
C1187 C 0.68781 0.05159 0.96902 0.0
C1188 C 0.66932 0.11418 0.95172 0.0
O1189 O 0.69752 0.07418 0.91706 0.0
O1190 O 0.67067 0.06784 0.92908 0.0
O1191 O 0.66978 0.10116 0.96394 0.0
O1192 O 0.68002 0.11151 0.9377 0.0
C1193 C 0.72489 0.0974 0.95963 0.0
O1194 O 0.67521 0.06431 0.96845 0.0
O1195 O 0.7024 0.05482 0.9591 0.0
In1196 In 0.66634 0.44558 0.2028 0.0
O1197 O 0.67999 0.43679 0.23091 0.0
O1198 O 0.69644 0.45289 0.21141 0.0
C1199 C 0.63673 0.42169 0.20105 0.0
C1200 C 0.64902 0.47828 0.2124 0.0
C1201 C 0.68147 0.43312 0.17011 0.0
O1202 O 0.64942 0.42018 0.21365 0.0
O1203 O 0.63917 0.43509 0.18946 0.0
O1204 O 0.67238 0.44858 0.17096 0.0
O1205 O 0.6832 0.42453 0.18567 0.0
C1206 C 0.69571 0.44449 0.22716 0.0
O1207 O 0.66294 0.4783 0.20111 0.0
O1208 O 0.64439 0.46224 0.21857 0.0
In1209 In 0.19394 0.42493 0.06094 0.0
O1210 O 0.22524 0.41544 0.06094 0.0
O1211 O 0.20638 0.40528 0.03957 0.0
C1212 C 0.18489 0.43962 0.0949 0.0
C1213 C 0.19641 0.45609 0.03918 0.0
C1214 C 0.16876 0.39629 0.06153 0.0
O1215 O 0.1988 0.42844 0.09296 0.0
O1216 O 0.17651 0.44383 0.07973 0.0
O1217 O 0.16782 0.4095 0.04942 0.0
O1218 O 0.18219 0.39776 0.07323 0.0
C1219 C 0.22289 0.40519 0.04638 0.0
O1220 O 0.1815 0.44616 0.03994 0.0
O1221 O 0.20997 0.45021 0.04925 0.0
In1222 In 0.83554 0.94789 0.80583 0.0
O1223 O 0.81696 0.94211 0.78018 0.0
O1224 O 0.80441 0.95569 0.8042 0.0
C1225 C 0.86631 0.92598 0.79987 0.0
C1226 C 0.84912 0.98263 0.79801 0.0
C1227 C 0.82344 0.93046 0.8374 0.0
O1228 O 0.85108 0.92367 0.79074 0.0
O1229 O 0.86614 0.93973 0.81121 0.0
O1230 O 0.82899 0.94754 0.83779 0.0
O1231 O 0.82394 0.92272 0.82133 0.0
C1232 C 0.8022 0.94901 0.78772 0.0
O1233 O 0.84969 0.9759 0.8146 0.0
O1234 O 0.84131 0.97216 0.78586 0.0
In1235 In 0.16557 0.55499 0.30558 0.0
O1236 O 0.16398 0.5223 0.30847 0.0
O1237 O 0.14338 0.53682 0.29199 0.0
C1238 C 0.18013 0.56931 0.33769 0.0
C1239 C 0.1946 0.55543 0.28088 0.0
C1240 C 0.13636 0.57935 0.30572 0.0
O1241 O 0.171 0.55385 0.33766 0.0
O1242 O 0.18227 0.57681 0.32165 0.0
O1243 O 0.1496 0.58041 0.29364 0.0
O1244 O 0.13787 0.56591 0.31742 0.0
C1245 C 0.14937 0.52123 0.29817 0.0
O1246 O 0.17845 0.56183 0.27656 0.0
O1247 O 0.19586 0.54856 0.29732 0.0
H1248 H 0.0357 0.3038 0.00869 0.0
H1249 H 0.98695 0.31095 0.04482 0.0
H1250 H 0.96607 0.30999 0.01722 0.0
H1251 H 0.96175 0.30758 0.98289 0.0
H1252 H 0.01045 0.30286 0.94632 0.0
H1253 H 0.03139 0.30246 0.97403 0.0
C1254 C 0.02049 0.30504 0.01048 0.0
C1255 C 0.0128 0.3073 0.02873 0.0
C1256 C 0.00864 0.30498 0.9945 0.0
C1257 C 0.99314 0.30919 0.0309 0.0
C1258 C 0.98122 0.30864 0.01514 0.0
C1259 C 0.97695 0.30639 0.98099 0.0
C1260 C 0.98459 0.30511 0.96265 0.0
C1261 C 0.98883 0.3066 0.99689 0.0
C1262 C 0.00429 0.30386 0.96034 0.0
C1263 C 0.01623 0.3036 0.97616 0.0
H1264 H 0.94116 0.25882 0.21258 0.0
H1265 H 0.94124 0.20303 0.23736 0.0
H1266 H 0.94028 0.21688 0.26915 0.0
H1267 H 0.93951 0.24503 0.28991 0.0
H1268 H 0.94253 0.30068 0.26496 0.0
H1269 H 0.94219 0.28681 0.23325 0.0
C1270 C 0.94093 0.24975 0.22497 0.0
C1271 C 0.94112 0.23 0.22273 0.0
C1272 C 0.94095 0.2578 0.24315 0.0
C1273 C 0.94112 0.21831 0.23883 0.0
C1274 C 0.94053 0.22621 0.25697 0.0
C1275 C 0.94005 0.25405 0.27749 0.0
C1276 C 0.94092 0.2738 0.27966 0.0
C1277 C 0.94044 0.24594 0.25931 0.0
C1278 C 0.9419 0.28541 0.26355 0.0
C1279 C 0.94166 0.27751 0.24544 0.0
H1280 H 0.97632 0.16881 0.521 0.0
H1281 H 0.97462 0.22958 0.52662 0.0
H1282 H 0.9925 0.23304 0.49708 0.0
H1283 H 0.00987 0.21859 0.47042 0.0
H1284 H 0.00961 0.15786 0.46377 0.0
H1285 H 0.99105 0.15452 0.49282 0.0
C1286 C 0.97984 0.18279 0.51568 0.0
C1287 C 0.97442 0.19892 0.526 0.0
C1288 C 0.98971 0.18465 0.49852 0.0
C1289 C 0.97872 0.21698 0.51888 0.0
C1290 C 0.98896 0.21895 0.50204 0.0
C1291 C 0.00558 0.20465 0.47526 0.0
C1292 C 0.01118 0.18848 0.46508 0.0
C1293 C 0.99469 0.20287 0.49184 0.0
C1294 C 0.0054 0.17051 0.47136 0.0
C1295 C 0.99489 0.16859 0.48802 0.0
H1296 H 0.05861 0.21378 0.76777 0.0
H1297 H 0.04635 0.26224 0.80285 0.0
H1298 H 0.04539 0.28258 0.7747 0.0
H1299 H 0.04835 0.28647 0.74005 0.0
H1300 H 0.06358 0.23838 0.70563 0.0
H1301 H 0.06299 0.21788 0.73358 0.0
C1302 C 0.05567 0.2288 0.76923 0.0
C1303 C 0.0524 0.23653 0.78727 0.0
C1304 C 0.05565 0.24039 0.75311 0.0
C1305 C 0.04891 0.25602 0.78906 0.0
C1306 C 0.04832 0.26761 0.77299 0.0
C1307 C 0.05141 0.27147 0.73872 0.0
C1308 C 0.0558 0.26382 0.72087 0.0
C1309 C 0.05167 0.25994 0.75494 0.0
C1310 C 0.06012 0.2445 0.71927 0.0
C1311 C 0.05979 0.23281 0.73522 0.0
H1312 H 0.9652 0.69069 0.01492 0.0
H1313 H 0.01766 0.68947 0.04615 0.0
H1314 H 0.03559 0.69143 0.01655 0.0
H1315 H 0.03631 0.69269 0.98177 0.0
H1316 H 0.98392 0.69134 0.95044 0.0
H1317 H 0.96593 0.69126 0.9801 0.0
C1318 C 0.98056 0.69096 0.01522 0.0
C1319 C 0.99013 0.69004 0.03265 0.0
C1320 C 0.99074 0.69161 0.99815 0.0
C1321 C 0.01002 0.69014 0.03288 0.0
C1322 C 0.02025 0.69129 0.01598 0.0
C1323 C 0.02094 0.69253 0.98146 0.0
C1324 C 0.0114 0.69217 0.964 0.0
C1325 C 0.01076 0.69194 0.99853 0.0
C1326 C 0.99153 0.69164 0.96375 0.0
C1327 C 0.98127 0.69159 0.98068 0.0
H1328 H 0.53553 0.26229 0.22587 0.0
H1329 H 0.59596 0.25867 0.21756 0.0
H1330 H 0.59892 0.23915 0.246 0.0
H1331 H 0.58437 0.22356 0.27356 0.0
H1332 H 0.52376 0.22567 0.28086 0.0
H1333 H 0.52081 0.24541 0.25255 0.0
C1334 C 0.54933 0.25715 0.23026 0.0
C1335 C 0.56551 0.26195 0.2197 0.0
C1336 C 0.55089 0.24578 0.2465 0.0
C1337 C 0.58328 0.2551 0.22544 0.0
C1338 C 0.585 0.24402 0.24173 0.0
C1339 C 0.57054 0.22842 0.26896 0.0
C1340 C 0.55432 0.22335 0.27932 0.0
C1341 C 0.56892 0.23938 0.25244 0.0
C1342 C 0.53645 0.22945 0.2731 0.0
C1343 C 0.53475 0.24072 0.25693 0.0
H1344 H 0.01745 0.83162 0.52717 0.0
H1345 H 0.01972 0.77074 0.53106 0.0
H1346 H 0.00245 0.76792 0.50112 0.0
H1347 H 0.98631 0.78292 0.47403 0.0
H1348 H 0.98634 0.84382 0.46908 0.0
H1349 H 0.00328 0.84653 0.49909 0.0
C1350 C 0.01407 0.81777 0.52145 0.0
C1351 C 0.01958 0.80141 0.5313 0.0
C1352 C 0.00469 0.81628 0.504 0.0
C1353 C 0.01552 0.78351 0.52366 0.0
C1354 C 0.00567 0.7819 0.50658 0.0
C1355 C 0.99016 0.79675 0.4795 0.0
C1356 C 0.98504 0.81314 0.46943 0.0
C1357 C 0.00016 0.7982 0.49663 0.0
C1358 C 0.99021 0.83099 0.47655 0.0
C1359 C 0.9998 0.83257 0.49375 0.0
H1360 H 0.41918 0.23407 0.72365 0.0
H1361 H 0.47954 0.24012 0.71667 0.0
H1362 H 0.48132 0.2583 0.74618 0.0
H1363 H 0.46558 0.27243 0.77396 0.0
H1364 H 0.40561 0.26405 0.78208 0.0
H1365 H 0.40377 0.24668 0.75218 0.0
C1366 C 0.43269 0.23948 0.72857 0.0
C1367 C 0.44918 0.23603 0.71797 0.0
C1368 C 0.43366 0.24937 0.74577 0.0
C1369 C 0.46667 0.24272 0.72462 0.0
C1370 C 0.46768 0.25308 0.74146 0.0
C1371 C 0.45213 0.26677 0.76915 0.0
C1372 C 0.43573 0.26958 0.78009 0.0
C1373 C 0.45126 0.25648 0.75215 0.0
C1374 C 0.41843 0.262 0.77389 0.0
C1375 C 0.41736 0.25215 0.75678 0.0
H1376 H 0.985 0.96389 0.30546 0.0
H1377 H 0.95058 0.01439 0.30517 0.0
H1378 H 0.979 0.03405 0.30346 0.0
H1379 H 0.01349 0.03693 0.30263 0.0
H1380 H 0.04835 0.98684 0.30528 0.0
H1381 H 0.0199 0.96689 0.3055 0.0
C1382 C 0.98378 0.9792 0.30493 0.0
C1383 C 0.96577 0.98772 0.30534 0.0
C1384 C 0.00022 0.99043 0.30442 0.0
C1385 C 0.96432 0.00755 0.3049 0.0
C1386 C 0.98054 0.01878 0.3039 0.0
C1387 C 0.01487 0.02163 0.30314 0.0
C1388 C 0.03295 0.01332 0.30379 0.0
C1389 C 0.99854 0.01038 0.30373 0.0
C1390 C 0.03455 0.99352 0.30475 0.0
C1391 C 0.01831 0.98214 0.30486 0.0
H1392 H 0.25429 0.28979 0.54748 0.0
H1393 H 0.19951 0.26362 0.55406 0.0
H1394 H 0.2143 0.2324 0.55607 0.0
H1395 H 0.24291 0.21259 0.55686 0.0
H1396 H 0.29751 0.23819 0.54739 0.0
H1397 H 0.28279 0.26954 0.54546 0.0
C1398 C 0.24566 0.2772 0.54929 0.0
C1399 C 0.22591 0.27892 0.55078 0.0
C1400 C 0.25423 0.25923 0.5499 0.0
C1401 C 0.21477 0.26257 0.55285 0.0
C1402 C 0.2232 0.24474 0.55406 0.0
C1403 C 0.25152 0.22506 0.55428 0.0
C1404 C 0.27121 0.22321 0.55241 0.0
C1405 C 0.24292 0.24291 0.55273 0.0
C1406 C 0.28228 0.23935 0.54882 0.0
C1407 C 0.27389 0.25725 0.5478 0.0
H1408 H 0.99093 0.45963 0.80255 0.0
H1409 H 0.95609 0.50979 0.80274 0.0
H1410 H 0.98429 0.52976 0.8008 0.0
H1411 H 0.01882 0.53304 0.80033 0.0
H1412 H 0.05404 0.4833 0.80375 0.0
H1413 H 0.02583 0.46301 0.80295 0.0
C1414 C 0.9896 0.47493 0.80203 0.0
C1415 C 0.97155 0.48329 0.80268 0.0
C1416 C 0.00593 0.48635 0.80161 0.0
C1417 C 0.9699 0.5031 0.8023 0.0
C1418 C 0.98599 0.51451 0.80116 0.0
C1419 C 0.02029 0.51775 0.8007 0.0
C1420 C 0.03839 0.50961 0.80191 0.0
C1421 C 0.00406 0.5063 0.80098 0.0
C1422 C 0.04018 0.48982 0.80278 0.0
C1423 C 0.02408 0.47825 0.80233 0.0
H1424 H 0.7897 0.24013 0.05204 0.0
H1425 H 0.73948 0.20578 0.05734 0.0
H1426 H 0.71967 0.23423 0.05669 0.0
H1427 H 0.71675 0.26882 0.05573 0.0
H1428 H 0.76697 0.3035 0.05386 0.0
H1429 H 0.78678 0.275 0.05207 0.0
C1430 C 0.7744 0.23894 0.05287 0.0
C1431 C 0.76597 0.22097 0.05454 0.0
C1432 C 0.76319 0.25538 0.0532 0.0
C1433 C 0.74621 0.21952 0.056 0.0
C1434 C 0.73491 0.23575 0.05563 0.0
C1435 C 0.73203 0.27012 0.05479 0.0
C1436 C 0.74044 0.28816 0.05475 0.0
C1437 C 0.74326 0.25374 0.0544 0.0
C1438 C 0.76024 0.28971 0.05389 0.0
C1439 C 0.77153 0.27345 0.05285 0.0
H1440 H 0.00976 0.96649 0.69308 0.0
H1441 H 0.04491 0.01605 0.68658 0.0
H1442 H 0.01703 0.03642 0.68879 0.0
H1443 H 0.98267 0.04015 0.69207 0.0
H1444 H 0.9471 0.99069 0.69655 0.0
H1445 H 0.97511 0.97024 0.69567 0.0
C1446 C 0.01128 0.98175 0.69221 0.0
C1447 C 0.02934 0.98978 0.68974 0.0
C1448 C 0.99513 0.99336 0.69313 0.0
C1449 C 0.03114 0.00955 0.68844 0.0
C1450 C 0.01521 0.0212 0.68973 0.0
C1451 C 0.98106 0.0249 0.69297 0.0
C1452 C 0.96289 0.01692 0.6945 0.0
C1453 C 0.99715 0.01327 0.69202 0.0
C1454 C 0.96098 0.99714 0.69539 0.0
C1455 C 0.97697 0.98546 0.69489 0.0
H1456 H 0.23072 0.2296 0.95814 0.0
H1457 H 0.23365 0.22297 0.89753 0.0
H1458 H 0.24911 0.25388 0.89465 0.0
H1459 H 0.26266 0.28247 0.90959 0.0
H1460 H 0.26205 0.28752 0.97043 0.0
H1461 H 0.24473 0.25766 0.97305 0.0
C1462 C 0.23467 0.23499 0.94431 0.0
C1463 C 0.23101 0.22412 0.92807 0.0
C1464 C 0.24396 0.2525 0.94283 0.0
C1465 C 0.23639 0.23111 0.91023 0.0
C1466 C 0.24518 0.24878 0.90858 0.0
C1467 C 0.25855 0.27706 0.92337 0.0
C1468 C 0.26347 0.28714 0.93979 0.0
C1469 C 0.24914 0.25956 0.9248 0.0
C1470 C 0.25839 0.27992 0.95761 0.0
C1471 C 0.24851 0.26288 0.95912 0.0
H1472 H 0.0245 0.48103 0.17151 0.0
H1473 H 0.02395 0.46903 0.23136 0.0
H1474 H 0.99439 0.48683 0.23491 0.0
H1475 H 0.96935 0.50692 0.22105 0.0
H1476 H 0.96911 0.51711 0.16082 0.0
H1477 H 0.99823 0.49881 0.15731 0.0
C1478 C 0.01784 0.48228 0.1853 0.0
C1479 C 0.0264 0.47394 0.20117 0.0
C1480 C 0.00072 0.4922 0.18715 0.0
C1481 C 0.01756 0.47538 0.21893 0.0
C1482 C 0.00071 0.48558 0.22098 0.0
C1483 C 0.97564 0.505 0.20717 0.0
C1484 C 0.96721 0.51343 0.19125 0.0
C1485 C 0.99226 0.49421 0.2052 0.0
C1486 C 0.97535 0.51071 0.17329 0.0
C1487 C 0.99203 0.50032 0.17127 0.0
H1488 H 0.71705 0.23213 0.4457 0.0
H1489 H 0.7685 0.19984 0.43927 0.0
H1490 H 0.78725 0.22899 0.44159 0.0
H1491 H 0.7888 0.2638 0.44453 0.0
H1492 H 0.73702 0.296 0.4483 0.0
H1493 H 0.71853 0.26671 0.44805 0.0
C1494 C 0.73238 0.23146 0.44492 0.0
C1495 C 0.74143 0.2139 0.44242 0.0
C1496 C 0.74295 0.24825 0.44579 0.0
C1497 C 0.76126 0.21323 0.44117 0.0
C1498 C 0.77195 0.22987 0.44252 0.0
C1499 C 0.77347 0.26434 0.44548 0.0
C1500 C 0.76423 0.28196 0.44658 0.0
C1501 C 0.76293 0.24747 0.44473 0.0
C1502 C 0.74439 0.28256 0.44746 0.0
C1503 C 0.73384 0.26584 0.44731 0.0
H1504 H 0.33315 0.97916 0.97855 0.0
H1505 H 0.27232 0.97676 0.97393 0.0
H1506 H 0.26958 0.00669 0.99123 0.0
H1507 H 0.28454 0.03287 0.00881 0.0
H1508 H 0.34547 0.03625 0.01159 0.0
H1509 H 0.34817 0.00674 0.99368 0.0
C1510 C 0.31932 0.98525 0.98133 0.0
C1511 C 0.30295 0.97574 0.97523 0.0
C1512 C 0.3179 0.00263 0.99088 0.0
C1513 C 0.28511 0.98386 0.97857 0.0
C1514 C 0.28354 0.00093 0.98847 0.0
C1515 C 0.2984 0.0272 0.00533 0.0
C1516 C 0.31478 0.03661 0.0116 0.0
C1517 C 0.29984 0.01036 0.99484 0.0
C1518 C 0.33266 0.02926 0.00687 0.0
C1519 C 0.33421 0.01235 0.99673 0.0
H1520 H 0.7841 0.02728 0.50732 0.0
H1521 H 0.84489 0.02937 0.51282 0.0
H1522 H 0.84777 0.99995 0.4947 0.0
H1523 H 0.83278 0.97293 0.47828 0.0
H1524 H 0.77207 0.97197 0.47156 0.0
H1525 H 0.76936 0.00161 0.48918 0.0
C1526 C 0.79798 0.02134 0.50445 0.0
C1527 C 0.81425 0.03038 0.51147 0.0
C1528 C 0.79952 0.00457 0.4939 0.0
C1529 C 0.83216 0.02267 0.50751 0.0
C1530 C 0.83381 0.0058 0.49723 0.0
C1531 C 0.81899 0.97926 0.48068 0.0
C1532 C 0.80264 0.97024 0.47379 0.0
C1533 C 0.81756 0.99651 0.49054 0.0
C1534 C 0.78486 0.97867 0.47675 0.0
C1535 C 0.78329 0.99559 0.48684 0.0
H1536 H 0.27221 0.03639 0.7378 0.0
H1537 H 0.27868 0.09625 0.74825 0.0
H1538 H 0.2476 0.09723 0.7634 0.0
H1539 H 0.21863 0.08107 0.77395 0.0
H1540 H 0.21302 0.02083 0.76578 0.0
H1541 H 0.24356 0.01998 0.74931 0.0
C1542 C 0.26681 0.04962 0.74345 0.0
C1543 C 0.27773 0.06622 0.7419 0.0
C1544 C 0.24901 0.05003 0.75241 0.0
C1545 C 0.27061 0.08325 0.74936 0.0
C1546 C 0.25279 0.08385 0.75794 0.0
C1547 C 0.22402 0.06781 0.76836 0.0
C1548 C 0.21354 0.05107 0.77082 0.0
C1549 C 0.24185 0.06734 0.75952 0.0
C1550 C 0.22084 0.0339 0.76392 0.0
C1551 C 0.2383 0.03341 0.75457 0.0
H1552 H 0.16796 0.47961 0.02849 0.0
H1553 H 0.22838 0.47164 0.02453 0.0
H1554 H 0.23124 0.50061 0.00575 0.0
H1555 H 0.21651 0.52812 0.99027 0.0
H1556 H 0.15638 0.53726 0.99602 0.0
H1557 H 0.15345 0.50807 0.01442 0.0
C1558 C 0.18171 0.48421 0.02342 0.0
C1559 C 0.19791 0.47348 0.02769 0.0
C1560 C 0.18331 0.50115 0.01307 0.0
C1561 C 0.21571 0.47971 0.02136 0.0
C1562 C 0.21736 0.49625 0.01064 0.0
C1563 C 0.20279 0.52375 0.99564 0.0
C1564 C 0.18668 0.53477 0.99176 0.0
C1565 C 0.20126 0.50709 0.00642 0.0
C1566 C 0.16901 0.52904 0.9989 0.0
C1567 C 0.16731 0.5123 0.00934 0.0
H1568 H 0.26444 0.9435 0.29278 0.0
H1569 H 0.29858 0.93882 0.24233 0.0
H1570 H 0.27006 0.93984 0.22271 0.0
H1571 H 0.23553 0.9419 0.21992 0.0
H1572 H 0.20099 0.94407 0.27025 0.0
H1573 H 0.22957 0.94418 0.28999 0.0
C1574 C 0.26559 0.94276 0.27748 0.0
C1575 C 0.28354 0.94123 0.26896 0.0
C1576 C 0.2491 0.94289 0.26633 0.0
C1577 C 0.28489 0.93999 0.24917 0.0
C1578 C 0.26861 0.94061 0.23797 0.0
C1579 C 0.23427 0.94249 0.23522 0.0
C1580 C 0.21624 0.94317 0.24366 0.0
C1581 C 0.25067 0.94205 0.2464 0.0
C1582 C 0.21476 0.94358 0.26347 0.0
C1583 C 0.23107 0.94366 0.27473 0.0
H1584 H 0.66393 0.97723 0.01237 0.0
H1585 H 0.72444 0.97304 0.01944 0.0
H1586 H 0.72881 0.00254 0.00176 0.0
H1587 H 0.71535 0.02929 0.98382 0.0
H1588 H 0.65472 0.03472 0.97897 0.0
H1589 H 0.6504 0.00501 0.99626 0.0
C1590 C 0.67805 0.98282 0.01003 0.0
C1591 C 0.69385 0.97298 0.01703 0.0
C1592 C 0.68041 0.99998 0.00025 0.0
C1593 C 0.71207 0.98044 0.01418 0.0
C1594 C 0.71457 0.99725 0.00404 0.0
C1595 C 0.70122 0.02393 0.98658 0.0
C1596 C 0.68538 0.03403 0.98004 0.0
C1597 C 0.69885 0.0071 0.99693 0.0
C1598 C 0.66712 0.02715 0.98391 0.0
C1599 C 0.66465 0.01016 0.99374 0.0
H1600 H 0.27774 0.42183 0.7644 0.0
H1601 H 0.28533 0.4819 0.75659 0.0
H1602 H 0.25624 0.48336 0.73774 0.0
H1603 H 0.22824 0.46758 0.72414 0.0
H1604 H 0.21929 0.40804 0.73449 0.0
H1605 H 0.24922 0.4063 0.7518 0.0
C1606 C 0.27309 0.43518 0.75838 0.0
C1607 C 0.28371 0.45169 0.76161 0.0
C1608 C 0.25604 0.43601 0.74819 0.0
C1609 C 0.27738 0.469 0.75415 0.0
C1610 C 0.26076 0.46984 0.74343 0.0
C1611 C 0.23288 0.45424 0.73019 0.0
C1612 C 0.22165 0.43795 0.72801 0.0
C1613 C 0.2499 0.45345 0.74048 0.0
C1614 C 0.22768 0.42079 0.73606 0.0
C1615 C 0.24482 0.41977 0.74589 0.0
H1616 H 0.7382 0.05146 0.28695 0.0
H1617 H 0.70382 0.04984 0.23652 0.0
H1618 H 0.73229 0.04953 0.21682 0.0
H1619 H 0.76689 0.05053 0.2139 0.0
H1620 H 0.8014 0.05482 0.26406 0.0
H1621 H 0.773 0.05323 0.28396 0.0
C1622 C 0.737 0.05094 0.27165 0.0
C1623 C 0.71898 0.05058 0.26316 0.0
C1624 C 0.75343 0.05127 0.26041 0.0
C1625 C 0.71755 0.05016 0.24334 0.0
C1626 C 0.73381 0.04996 0.23209 0.0
C1627 C 0.76819 0.05097 0.2292 0.0
C1628 C 0.78617 0.05264 0.23755 0.0
C1629 C 0.75181 0.05061 0.24046 0.0
C1630 C 0.78767 0.05352 0.25735 0.0
C1631 C 0.77145 0.05261 0.26871 0.0
H1632 H 0.95182 0.74687 0.79105 0.0
H1633 H 0.94756 0.80094 0.763 0.0
H1634 H 0.94793 0.78524 0.73211 0.0
H1635 H 0.94831 0.75592 0.71314 0.0
H1636 H 0.95506 0.70211 0.74123 0.0
H1637 H 0.955 0.71786 0.77204 0.0
C1638 C 0.95105 0.75516 0.77814 0.0
C1639 C 0.94949 0.77494 0.77919 0.0
C1640 C 0.95171 0.74609 0.76047 0.0
C1641 C 0.94878 0.78565 0.76245 0.0
C1642 C 0.94893 0.77669 0.74482 0.0
C1643 C 0.94987 0.74772 0.72603 0.0
C1644 C 0.95154 0.72793 0.72501 0.0
C1645 C 0.95022 0.7569 0.74366 0.0
C1646 C 0.95379 0.7174 0.74173 0.0
C1647 C 0.95369 0.72637 0.75933 0.0
H1648 H 0.05437 0.75861 0.28713 0.0
H1649 H 0.0502 0.7033 0.26161 0.0
H1650 H 0.04931 0.71763 0.23008 0.0
H1651 H 0.05071 0.74596 0.20971 0.0
H1652 H 0.05232 0.80134 0.23539 0.0
H1653 H 0.05313 0.787 0.26689 0.0
C1654 C 0.05321 0.74975 0.27464 0.0
C1655 C 0.05251 0.72997 0.2766 0.0
C1656 C 0.05226 0.7581 0.25661 0.0
C1657 C 0.05073 0.71858 0.26039 0.0
C1658 C 0.05029 0.72676 0.24238 0.0
C1659 C 0.05116 0.75484 0.22223 0.0
C1660 C 0.0516 0.77463 0.2203 0.0
C1661 C 0.05119 0.7465 0.2403 0.0
C1662 C 0.05193 0.78604 0.23658 0.0
C1663 C 0.05246 0.77786 0.25458 0.0
H1664 H 0.55376 0.78911 0.73783 0.0
H1665 H 0.55236 0.74016 0.70141 0.0
H1666 H 0.55164 0.71925 0.72912 0.0
H1667 H 0.55231 0.71497 0.76373 0.0
H1668 H 0.55771 0.76377 0.79999 0.0
H1669 H 0.55597 0.78477 0.7724 0.0
C1670 C 0.55315 0.77386 0.73604 0.0
C1671 C 0.55288 0.7661 0.71773 0.0
C1672 C 0.55354 0.76198 0.75199 0.0
C1673 C 0.55252 0.74636 0.71544 0.0
C1674 C 0.5521 0.73445 0.73125 0.0
C1675 C 0.55298 0.73022 0.76553 0.0
C1676 C 0.55493 0.73791 0.78377 0.0
C1677 C 0.55272 0.7421 0.74958 0.0
C1678 C 0.55617 0.75762 0.78602 0.0
C1679 C 0.55516 0.76959 0.77028 0.0
H1680 H 0.45116 0.70848 0.2371 0.0
H1681 H 0.44562 0.75718 0.20071 0.0
H1682 H 0.4468 0.77822 0.22828 0.0
H1683 H 0.44838 0.78263 0.26283 0.0
H1684 H 0.45005 0.73378 0.29938 0.0
H1685 H 0.4515 0.71283 0.27173 0.0
C1686 C 0.45034 0.72371 0.23526 0.0
C1687 C 0.44847 0.73136 0.21699 0.0
C1688 C 0.45032 0.73562 0.2512 0.0
C1689 C 0.44706 0.75105 0.2147 0.0
C1690 C 0.44776 0.76305 0.23043 0.0
C1691 C 0.44925 0.76739 0.26467 0.0
C1692 C 0.44935 0.75967 0.283 0.0
C1693 C 0.44927 0.75548 0.24874 0.0
C1694 C 0.45004 0.73995 0.28533 0.0
C1695 C 0.45085 0.72801 0.26956 0.0
H1696 H 0.2837 0.73664 0.06663 0.0
H1697 H 0.23488 0.70204 0.05452 0.0
H1698 H 0.2153 0.73043 0.05104 0.0
H1699 H 0.21193 0.76506 0.05226 0.0
H1700 H 0.25985 0.79953 0.06776 0.0
H1701 H 0.28002 0.77131 0.06906 0.0
C1702 C 0.26879 0.7354 0.06314 0.0
C1703 C 0.2607 0.71739 0.06071 0.0
C1704 C 0.25752 0.75174 0.06179 0.0
C1705 C 0.24134 0.71582 0.05649 0.0
C1706 C 0.23018 0.73202 0.05446 0.0
C1707 C 0.22683 0.76635 0.05576 0.0
C1708 C 0.23452 0.78426 0.05971 0.0
C1709 C 0.2381 0.75004 0.05717 0.0
C1710 C 0.25371 0.78582 0.06462 0.0
C1711 C 0.26521 0.76972 0.06537 0.0
H1712 H 0.75541 0.70475 0.5528 0.0
H1713 H 0.80895 0.73391 0.55558 0.0
H1714 H 0.79254 0.76443 0.55754 0.0
H1715 H 0.76277 0.78282 0.55843 0.0
H1716 H 0.70947 0.75362 0.55251 0.0
H1717 H 0.72587 0.72315 0.55177 0.0
C1718 C 0.76343 0.71781 0.55388 0.0
C1719 C 0.78329 0.71717 0.55421 0.0
C1720 C 0.75393 0.73528 0.55439 0.0
C1721 C 0.79361 0.73414 0.5553 0.0
C1722 C 0.78425 0.75156 0.55645 0.0
C1723 C 0.75482 0.76975 0.55698 0.0
C1724 C 0.73498 0.77038 0.55562 0.0
C1725 C 0.76439 0.7523 0.556 0.0
C1726 C 0.72478 0.75343 0.55351 0.0
C1727 C 0.73413 0.73602 0.55314 0.0
H1728 H 0.25663 0.71294 0.44442 0.0
H1729 H 0.20269 0.74057 0.45194 0.0
H1730 H 0.21825 0.77151 0.45231 0.0
H1731 H 0.2472 0.79076 0.4499 0.0
H1732 H 0.30145 0.76312 0.44555 0.0
H1733 H 0.28588 0.73211 0.44458 0.0
C1734 C 0.24836 0.72577 0.4462 0.0
C1735 C 0.22859 0.72459 0.44802 0.0
C1736 C 0.25746 0.74346 0.44694 0.0
C1737 C 0.21796 0.74121 0.45056 0.0
C1738 C 0.22683 0.75888 0.45071 0.0
C1739 C 0.25556 0.77791 0.44876 0.0
C1740 C 0.27536 0.7791 0.44761 0.0
C1741 C 0.24655 0.76018 0.44881 0.0
C1742 C 0.28615 0.76244 0.44646 0.0
C1743 C 0.27726 0.74475 0.44586 0.0
H1744 H 0.7161 0.73042 0.94075 0.0
H1745 H 0.76596 0.69514 0.94089 0.0
H1746 H 0.78615 0.7233 0.94238 0.0
H1747 H 0.78954 0.75796 0.94347 0.0
H1748 H 0.73984 0.7933 0.94036 0.0
H1749 H 0.71957 0.76514 0.94023 0.0
C1750 C 0.7314 0.72895 0.94116 0.0
C1751 C 0.7396 0.71082 0.94086 0.0
C1752 C 0.74287 0.74519 0.94148 0.0
C1753 C 0.75939 0.70901 0.94109 0.0
C1754 C 0.7709 0.72508 0.94198 0.0
C1755 C 0.77426 0.75945 0.94286 0.0
C1756 C 0.76612 0.77759 0.94212 0.0
C1757 C 0.76279 0.74323 0.94219 0.0
C1758 C 0.74636 0.77942 0.94097 0.0
C1759 C 0.7348 0.76335 0.94091 0.0
H1760 H 0.30323 0.50662 0.53485 0.0
H1761 H 0.32529 0.5387 0.48773 0.0
H1762 H 0.32465 0.51045 0.46786 0.0
H1763 H 0.31746 0.47687 0.46364 0.0
H1764 H 0.29729 0.44384 0.51086 0.0
H1765 H 0.29762 0.47217 0.531 0.0
C1766 C 0.3079 0.50736 0.52023 0.0
C1767 C 0.3142 0.52471 0.51271 0.0
C1768 C 0.30784 0.49093 0.50894 0.0
C1769 C 0.32041 0.52549 0.49384 0.0
C1770 C 0.32002 0.50936 0.48245 0.0
C1771 C 0.31313 0.47587 0.47835 0.0
C1772 C 0.3072 0.45839 0.48575 0.0
C1773 C 0.31369 0.49206 0.48983 0.0
C1774 C 0.3019 0.45719 0.50488 0.0
C1775 C 0.30205 0.47338 0.51636 0.0
H1776 H 0.80515 0.46059 0.00281 0.0
H1777 H 0.81158 0.48893 0.94916 0.0
H1778 H 0.81257 0.51969 0.96518 0.0
H1779 H 0.81137 0.53854 0.99458 0.0
H1780 H 0.8016 0.51033 0.04783 0.0
H1781 H 0.80202 0.47955 0.03195 0.0
C1782 C 0.80687 0.47353 0.9947 0.0
C1783 C 0.80852 0.4726 0.97492 0.0
C1784 C 0.8067 0.49117 0.00395 0.0
C1785 C 0.81034 0.4894 0.96444 0.0
C1786 C 0.8109 0.50695 0.97358 0.0
C1787 C 0.80932 0.52563 0.00264 0.0
C1788 C 0.80655 0.52663 0.02231 0.0
C1789 C 0.80905 0.50802 0.99333 0.0
C1790 C 0.80368 0.50987 0.03264 0.0
C1791 C 0.80399 0.49227 0.02359 0.0
H1792 H 0.25786 0.55893 0.21768 0.0
H1793 H 0.2931 0.56475 0.26721 0.0
H1794 H 0.26525 0.56256 0.28761 0.0
H1795 H 0.23102 0.55861 0.29142 0.0
H1796 H 0.19513 0.55549 0.24217 0.0
H1797 H 0.22306 0.55702 0.22151 0.0
C1798 C 0.25936 0.55975 0.23294 0.0
C1799 C 0.27745 0.56188 0.24099 0.0
C1800 C 0.24322 0.55892 0.24457 0.0
C1801 C 0.27928 0.56317 0.26073 0.0
C1802 C 0.26339 0.56185 0.27239 0.0
C1803 C 0.22934 0.55822 0.27615 0.0
C1804 C 0.21116 0.55671 0.26826 0.0
C1805 C 0.24533 0.55964 0.26447 0.0
C1806 C 0.20906 0.55659 0.2485 0.0
C1807 C 0.22499 0.55745 0.23673 0.0
H1808 H 0.21502 0.97296 0.51117 0.0
H1809 H 0.15421 0.96995 0.5162 0.0
H1810 H 0.151 0.99918 0.49793 0.0
H1811 H 0.16557 0.02612 0.48112 0.0
H1812 H 0.22623 0.02795 0.47432 0.0
H1813 H 0.22944 0.99876 0.49266 0.0
C1814 C 0.20108 0.97868 0.50817 0.0
C1815 C 0.18489 0.96938 0.51508 0.0
C1816 C 0.19932 0.99534 0.49741 0.0
C1817 C 0.16689 0.97682 0.51097 0.0
C1818 C 0.16505 0.99359 0.50059 0.0
C1819 C 0.17946 0.0201 0.48369 0.0
C1820 C 0.19565 0.02921 0.47654 0.0
C1821 C 0.18117 0.00306 0.49387 0.0
C1822 C 0.21356 0.02116 0.4797 0.0
C1823 C 0.21541 0.00449 0.4902 0.0
H1824 H 0.69738 0.54371 0.50048 0.0
H1825 H 0.70949 0.51698 0.44694 0.0
H1826 H 0.70859 0.4858 0.46194 0.0
H1827 H 0.70337 0.46598 0.4902 0.0
H1828 H 0.69412 0.49274 0.54426 0.0
H1829 H 0.69495 0.52399 0.52928 0.0
C1830 C 0.69992 0.53103 0.49218 0.0
C1831 C 0.70337 0.53258 0.47265 0.0
C1832 C 0.69984 0.51316 0.501 0.0
C1833 C 0.70686 0.51611 0.46203 0.0
C1834 C 0.70627 0.49828 0.47057 0.0
C1835 C 0.70161 0.47869 0.49865 0.0
C1836 C 0.69854 0.47714 0.51823 0.0
C1837 C 0.70262 0.49661 0.49002 0.0
C1838 C 0.69654 0.49365 0.52914 0.0
C1839 C 0.69695 0.5115 0.52058 0.0
H1840 H 0.71954 0.53084 0.76016 0.0
H1841 H 0.70907 0.59086 0.75551 0.0
H1842 H 0.73838 0.59479 0.73748 0.0
H1843 H 0.76769 0.58131 0.72416 0.0
H1844 H 0.77726 0.52107 0.72738 0.0
H1845 H 0.74767 0.51706 0.74497 0.0
C1846 C 0.72359 0.54475 0.75504 0.0
C1847 C 0.71222 0.56055 0.75922 0.0
C1848 C 0.7404 0.54688 0.74462 0.0
C1849 C 0.71756 0.57847 0.75241 0.0
C1850 C 0.73438 0.58074 0.74221 0.0
C1851 C 0.76329 0.56733 0.72879 0.0
C1852 C 0.77469 0.55153 0.72474 0.0
C1853 C 0.74604 0.56509 0.73847 0.0
C1854 C 0.76871 0.53344 0.73045 0.0
C1855 C 0.7518 0.53114 0.74047 0.0
H1856 H 0.51806 0.28623 0.51756 0.0
H1857 H 0.51697 0.34722 0.52025 0.0
H1858 H 0.49766 0.34838 0.49146 0.0
H1859 H 0.48079 0.33187 0.46565 0.0
H1860 H 0.47984 0.2708 0.46475 0.0
H1861 H 0.50023 0.26978 0.49268 0.0
C1862 C 0.51365 0.29976 0.51176 0.0
C1863 C 0.51902 0.31662 0.52085 0.0
C1864 C 0.50216 0.30027 0.49556 0.0
C1865 C 0.51299 0.33407 0.51344 0.0
C1866 C 0.50198 0.33472 0.49699 0.0
C1867 C 0.48513 0.31838 0.47158 0.0
C1868 C 0.47895 0.30144 0.46316 0.0
C1869 C 0.49645 0.31791 0.48795 0.0
C1870 C 0.48441 0.28402 0.47105 0.0
C1871 C 0.49609 0.28343 0.48698 0.0
H1872 H 0.5232 0.16603 0.96965 0.0
H1873 H 0.51842 0.22662 0.96349 0.0
H1874 H 0.50117 0.22851 0.99354 0.0
H1875 H 0.48773 0.21283 0.02171 0.0
H1876 H 0.49439 0.15246 0.02855 0.0
H1877 H 0.51071 0.15057 0.99811 0.0
C1878 C 0.51827 0.17963 0.97484 0.0
C1879 C 0.5219 0.19614 0.96435 0.0
C1880 C 0.50881 0.18064 0.99228 0.0
C1881 C 0.51573 0.21371 0.97135 0.0
C1882 C 0.50589 0.21479 0.9885 0.0
C1883 C 0.49277 0.19928 0.01651 0.0
C1884 C 0.48983 0.18281 0.0273 0.0
C1885 C 0.50241 0.19835 0.99912 0.0
C1886 C 0.49655 0.16535 0.02051 0.0
C1887 C 0.50583 0.16425 0.00309 0.0
H1888 H 0.49323 0.69743 0.46188 0.0
H1889 H 0.5473 0.69752 0.4902 0.0
H1890 H 0.53146 0.69847 0.521 0.0
H1891 H 0.50214 0.69895 0.53993 0.0
H1892 H 0.44814 0.70164 0.51159 0.0
H1893 H 0.46395 0.7 0.48079 0.0
C1894 C 0.50149 0.69764 0.47483 0.0
C1895 C 0.52136 0.69726 0.47384 0.0
C1896 C 0.49229 0.69872 0.49246 0.0
C1897 C 0.53197 0.69783 0.49065 0.0
C1898 C 0.52293 0.69833 0.50825 0.0
C1899 C 0.49388 0.6992 0.52698 0.0
C1900 C 0.47404 0.70029 0.52797 0.0
C1901 C 0.50309 0.69873 0.50934 0.0
C1902 C 0.46346 0.70085 0.51114 0.0
C1903 C 0.47248 0.69986 0.49354 0.0
H1904 H 0.47782 0.83204 0.97143 0.0
H1905 H 0.47302 0.77116 0.97055 0.0
H1906 H 0.49266 0.76895 0.999 0.0
H1907 H 0.5113 0.78438 0.02409 0.0
H1908 H 0.51386 0.84534 0.02655 0.0
H1909 H 0.49499 0.84755 0.99755 0.0
C1910 C 0.48112 0.81832 0.97749 0.0
C1911 C 0.47414 0.80178 0.96889 0.0
C1912 C 0.492 0.8172 0.99411 0.0
C1913 C 0.47824 0.78408 0.97698 0.0
C1914 C 0.4895 0.78281 0.9932 0.0
C1915 C 0.50773 0.79812 0.01822 0.0
C1916 C 0.51405 0.81468 0.02728 0.0
C1917 C 0.49647 0.79927 0.00187 0.0
C1918 C 0.50912 0.83242 0.01977 0.0
C1919 C 0.49838 0.83368 0.0032 0.0
H1920 H 0.4681 0.00625 0.80592 0.0
H1921 H 0.4921 0.95033 0.80095 0.0
H1922 H 0.52395 0.96388 0.79894 0.0
H1923 H 0.54504 0.9917 0.79957 0.0
H1924 H 0.52078 0.0477 0.80196 0.0
H1925 H 0.48897 0.03414 0.80387 0.0
C1926 C 0.48034 0.99709 0.80435 0.0
C1927 C 0.47787 0.97736 0.80376 0.0
C1928 C 0.49852 0.005 0.80273 0.0
C1929 C 0.49373 0.96558 0.80143 0.0
C1930 C 0.51191 0.97331 0.80033 0.0
C1931 C 0.53275 0.00088 0.80041 0.0
C1932 C 0.53519 0.02063 0.80077 0.0
C1933 C 0.51449 0.993 0.8011 0.0
C1934 C 0.51921 0.03244 0.80162 0.0
C1935 C 0.50104 0.0247 0.80279 0.0
H1936 H 0.51823 0.52098 0.28696 0.0
H1937 H 0.52816 0.50998 0.3462 0.0
H1938 H 0.49875 0.49181 0.34804 0.0
H1939 H 0.47064 0.47842 0.33264 0.0
H1940 H 0.46198 0.48705 0.27283 0.0
H1941 H 0.49039 0.5069 0.27134 0.0
C1942 C 0.51388 0.51464 0.30026 0.0
C1943 C 0.52525 0.51681 0.31643 0.0
C1944 C 0.4972 0.50385 0.3011 0.0
C1945 C 0.51964 0.5084 0.33355 0.0
C1946 C 0.50282 0.49807 0.33463 0.0
C1947 C 0.4749 0.48481 0.31933 0.0
C1948 C 0.46423 0.48147 0.3029 0.0
C1949 C 0.49153 0.49564 0.31848 0.0
C1950 C 0.47002 0.4895 0.28566 0.0
C1951 C 0.48624 0.50081 0.2848 0.0
H1952 H 0.51019 0.96511 0.19569 0.0
H1953 H 0.54487 0.01531 0.19782 0.0
H1954 H 0.51645 0.03509 0.20041 0.0
H1955 H 0.48167 0.03809 0.20101 0.0
H1956 H 0.44705 0.98813 0.19526 0.0
H1957 H 0.47545 0.96819 0.19516 0.0
C1958 C 0.51147 0.98038 0.1969 0.0
C1959 C 0.52952 0.9888 0.19678 0.0
C1960 C 0.49509 0.99165 0.19765 0.0
C1961 C 0.53108 0.00858 0.19794 0.0
C1962 C 0.51486 0.01986 0.19941 0.0
C1963 C 0.4804 0.02281 0.19988 0.0
C1964 C 0.46237 0.01451 0.19832 0.0
C1965 C 0.49679 0.01155 0.19914 0.0
C1966 C 0.46082 0.99478 0.1965 0.0
C1967 C 0.47704 0.9834 0.19645 0.0
H1968 H 0.53967 0.50718 0.69047 0.0
H1969 H 0.51238 0.45262 0.69323 0.0
H1970 H 0.48127 0.46784 0.69303 0.0
H1971 H 0.46182 0.4967 0.69161 0.0
H1972 H 0.48901 0.55137 0.69153 0.0
H1973 H 0.52016 0.53617 0.69125 0.0
C1974 C 0.52687 0.49869 0.69102 0.0
C1975 C 0.52821 0.47886 0.69171 0.0
C1976 C 0.50906 0.50756 0.69142 0.0
C1977 C 0.51162 0.46794 0.69272 0.0
C1978 C 0.49386 0.47662 0.69256 0.0
C1979 C 0.47459 0.50524 0.69158 0.0
C1980 C 0.4732 0.52507 0.69146 0.0
C1981 C 0.4924 0.49641 0.69186 0.0
C1982 C 0.48979 0.53605 0.69166 0.0
C1983 C 0.50758 0.52737 0.69143 0.0
H1984 H 0.71722 0.94334 0.7606 0.0
H1985 H 0.74464 0.94172 0.70605 0.0
H1986 H 0.77563 0.94444 0.72121 0.0
H1987 H 0.79502 0.9465 0.75008 0.0
H1988 H 0.76756 0.95038 0.80449 0.0
H1989 H 0.73654 0.94767 0.78935 0.0
C1990 C 0.73001 0.94362 0.75208 0.0
C1991 C 0.72871 0.94219 0.73229 0.0
C1992 C 0.74775 0.9456 0.76087 0.0
C1993 C 0.74532 0.94282 0.72134 0.0
C1994 C 0.76303 0.94433 0.72999 0.0
C1995 C 0.78222 0.94681 0.75858 0.0
C1996 C 0.78353 0.9485 0.77834 0.0
C1997 C 0.76443 0.94561 0.74975 0.0
C1998 C 0.76687 0.94912 0.78922 0.0
C1999 C 0.74914 0.94751 0.78058 0.0
H2000 H 0.75855 0.44211 0.29075 0.0
H2001 H 0.79456 0.43855 0.24155 0.0
H2002 H 0.76683 0.43998 0.22085 0.0
H2003 H 0.73239 0.4428 0.21675 0.0
H2004 H 0.696 0.44328 0.26576 0.0
H2005 H 0.72377 0.44245 0.28661 0.0
C2006 C 0.76025 0.4416 0.27549 0.0
C2007 C 0.7785 0.44037 0.26762 0.0
C2008 C 0.74421 0.44191 0.2637 0.0
C2009 C 0.78061 0.43945 0.24788 0.0
C2010 C 0.76478 0.44034 0.23606 0.0
C2011 C 0.73059 0.44273 0.23201 0.0
C2012 C 0.71228 0.44333 0.23979 0.0
C2013 C 0.74654 0.44167 0.24381 0.0
C2014 C 0.71002 0.44287 0.25952 0.0
C2015 C 0.72587 0.44243 0.27141 0.0
H2016 H 0.03621 0.27592 0.13092 0.0
H2017 H 0.03286 0.24339 0.0795 0.0
H2018 H 0.01417 0.21901 0.09594 0.0
H2019 H 0.99382 0.21048 0.12354 0.0
H2020 H 0.99644 0.24487 0.17395 0.0
H2021 H 0.02066 0.26477 0.15956 0.0
C2022 C 0.03186 0.26319 0.12349 0.0
C2023 C 0.03567 0.26143 0.10409 0.0
C2024 C 0.02079 0.24969 0.13286 0.0
C2025 C 0.03011 0.24492 0.09451 0.0
C2026 C 0.01926 0.23112 0.10387 0.0
C2027 C 0.00021 0.22195 0.13151 0.0
C2028 C 0.99329 0.22638 0.14968 0.0
C2029 C 0.01376 0.23381 0.12285 0.0
C2030 C 0.00148 0.24135 0.15988 0.0
C2031 C 0.01526 0.25277 0.15164 0.0
H2032 H 0.99367 0.29363 0.37653 0.0
H2033 H 0.99142 0.25883 0.32644 0.0
H2034 H 0.01536 0.2377 0.33953 0.0
H2035 H 0.03233 0.2261 0.36715 0.0
H2036 H 0.03405 0.25926 0.41828 0.0
H2037 H 0.01523 0.28423 0.40293 0.0
C2038 C 0.999 0.2818 0.36831 0.0
C2039 C 0.9909 0.27769 0.35058 0.0
C2040 C 0.01237 0.26926 0.37627 0.0
C2041 C 0.99755 0.26218 0.3401 0.0
C2042 C 0.01112 0.25005 0.34763 0.0
C2043 C 0.02896 0.23902 0.37477 0.0
C2044 C 0.03428 0.24082 0.39381 0.0
C2045 C 0.01793 0.25296 0.366 0.0
C2046 C 0.03007 0.25764 0.40356 0.0
C2047 C 0.01918 0.2718 0.39482 0.0
H2048 H 0.9928 0.24095 0.58809 0.0
H2049 H 0.94512 0.2427 0.62607 0.0
H2050 H 0.96209 0.26512 0.64663 0.0
H2051 H 0.99265 0.28051 0.65585 0.0
H2052 H 0.03994 0.2773 0.61729 0.0
H2053 H 0.02093 0.25955 0.59475 0.0
C2054 C 0.986 0.24654 0.6007 0.0
C2055 C 0.96794 0.24009 0.60576 0.0
C2056 C 0.99586 0.25912 0.61239 0.0
C2057 C 0.95909 0.24754 0.62195 0.0
C2058 C 0.96884 0.26023 0.63375 0.0
C2059 C 0.99851 0.27633 0.64229 0.0
C2060 C 0.01767 0.27997 0.63824 0.0
C2061 C 0.98753 0.26562 0.62944 0.0
C2062 C 0.02525 0.27443 0.62072 0.0
C2063 C 0.01443 0.26425 0.60784 0.0
H2064 H 0.95269 0.25895 0.86611 0.0
H2065 H 0.96764 0.24405 0.92337 0.0
H2066 H 0.98874 0.21923 0.91166 0.0
H2067 H 0.00727 0.2062 0.88502 0.0
H2068 H 0.99136 0.22002 0.82777 0.0
H2069 H 0.96602 0.24054 0.83951 0.0
C2070 C 0.96009 0.24982 0.876 0.0
C2071 C 0.95884 0.25344 0.89554 0.0
C2072 C 0.9722 0.23557 0.86915 0.0
C2073 C 0.96836 0.24149 0.90826 0.0
C2074 C 0.98059 0.22742 0.90156 0.0
C2075 C 0.99781 0.21322 0.87516 0.0
C2076 C 0.00125 0.21183 0.8556 0.0
C2077 C 0.98327 0.22496 0.88203 0.0
C2078 C 0.98891 0.22086 0.84289 0.0
C2079 C 0.97455 0.23275 0.84961 0.0
H2080 H 0.01938 0.7537 0.91085 0.0
H2081 H 0.04869 0.72991 0.86294 0.0
H2082 H 0.03429 0.75357 0.84207 0.0
H2083 H 0.00859 0.77675 0.83697 0.0
H2084 H 0.98052 0.80166 0.88508 0.0
H2085 H 0.99957 0.78225 0.90654 0.0
C2086 C 0.02309 0.75419 0.89595 0.0
C2087 C 0.03485 0.7401 0.8883 0.0
C2088 C 0.01487 0.76791 0.88412 0.0
C2089 C 0.0397 0.74074 0.86905 0.0
C2090 C 0.03134 0.75415 0.85712 0.0
C2091 C 0.00724 0.77844 0.85218 0.0
C2092 C 0.99314 0.79042 0.85951 0.0
C2093 C 0.01823 0.76722 0.86439 0.0
C2094 C 0.99141 0.79259 0.87919 0.0
C2095 C 0.00213 0.78132 0.89144 0.0
H2096 H 0.53716 0.2716 0.12111 0.0
H2097 H 0.49477 0.28363 0.16332 0.0
H2098 H 0.4717 0.26423 0.14582 0.0
H2099 H 0.46533 0.24021 0.12057 0.0
H2100 H 0.50937 0.22753 0.08016 0.0
H2101 H 0.53001 0.251 0.09469 0.0
C2102 C 0.52278 0.27019 0.12637 0.0
C2103 C 0.5177 0.27871 0.14357 0.0
C2104 C 0.50995 0.2588 0.11655 0.0
C2105 C 0.49898 0.2771 0.15009 0.0
C2106 C 0.48586 0.26592 0.14015 0.0
C2107 C 0.47928 0.24301 0.11477 0.0
C2108 C 0.48597 0.23218 0.09943 0.0
C2109 C 0.4914 0.25618 0.12366 0.0
C2110 C 0.50407 0.23567 0.09206 0.0
C2111 C 0.51588 0.24903 0.10036 0.0
H2112 H 0.97038 0.74555 0.40674 0.0
H2113 H 0.9675 0.79011 0.36505 0.0
H2114 H 0.98456 0.77059 0.34238 0.0
H2115 H 0.00469 0.74342 0.33626 0.0
H2116 H 0.00974 0.69894 0.37765 0.0
H2117 H 0.98722 0.7155 0.39844 0.0
C2118 C 0.97308 0.75065 0.39251 0.0
C2119 C 0.96794 0.76925 0.38755 0.0
C2120 C 0.98348 0.73946 0.3796 0.0
C2121 C 0.97156 0.77588 0.36917 0.0
C2122 C 0.98133 0.76476 0.35621 0.0
C2123 C 0.00048 0.73714 0.34965 0.0
C2124 C 0.00893 0.72019 0.35558 0.0
C2125 C 0.98804 0.74691 0.36155 0.0
C2126 C 0.00331 0.71201 0.37282 0.0
C2127 C 0.9906 0.72158 0.38476 0.0
H2128 H 0.54304 0.25677 0.61069 0.0
H2129 H 0.49813 0.27385 0.57298 0.0
H2130 H 0.4764 0.25192 0.58829 0.0
H2131 H 0.46893 0.23145 0.61481 0.0
H2132 H 0.51251 0.21464 0.65401 0.0
H2133 H 0.53609 0.23263 0.63568 0.0
C2134 C 0.52864 0.25524 0.6056 0.0
C2135 C 0.52208 0.26694 0.59084 0.0
C2136 C 0.51594 0.2429 0.61491 0.0
C2137 C 0.50337 0.26506 0.58442 0.0
C2138 C 0.49093 0.25258 0.59319 0.0
C2139 C 0.48366 0.2315 0.61921 0.0
C2140 C 0.48898 0.22203 0.63583 0.0
C2141 C 0.49686 0.24201 0.60885 0.0
C2142 C 0.50812 0.2219 0.64124 0.0
C2143 C 0.52154 0.23228 0.63082 0.0
H2144 H 0.13181 0.04505 0.25995 0.0
H2145 H 0.0758 0.02687 0.24395 0.0
H2146 H 0.0893 0.00491 0.2208 0.0
H2147 H 0.11714 0.9864 0.21051 0.0
H2148 H 0.17314 0.00535 0.22551 0.0
H2149 H 0.15964 0.0318 0.24345 0.0
C2150 C 0.1226 0.0368 0.25083 0.0
C2151 C 0.10291 0.03732 0.25372 0.0
C2152 C 0.13048 0.02417 0.23765 0.0
C2153 C 0.09101 0.0267 0.24187 0.0
C2154 C 0.09874 0.01399 0.22881 0.0
C2155 C 0.12633 0.99678 0.21714 0.0
C2156 C 0.14602 0.99398 0.21695 0.0
C2157 C 0.11846 0.01191 0.22735 0.0
C2158 C 0.15793 0.00739 0.22547 0.0
C2159 C 0.1502 0.02237 0.23586 0.0
H2160 H 0.20242 0.37889 0.50533 0.0
H2161 H 0.22011 0.32261 0.48996 0.0
H2162 H 0.23997 0.33542 0.46464 0.0
H2163 H 0.25744 0.36276 0.45226 0.0
H2164 H 0.24093 0.41924 0.46855 0.0
H2165 H 0.21511 0.40639 0.48776 0.0
C2166 C 0.20992 0.36948 0.49578 0.0
C2167 C 0.20978 0.3499 0.49922 0.0
C2168 C 0.22182 0.37704 0.48172 0.0
C2169 C 0.21986 0.33772 0.48723 0.0
C2170 C 0.23139 0.34507 0.47295 0.0
C2171 C 0.24778 0.37225 0.45953 0.0
C2172 C 0.25124 0.39185 0.45934 0.0
C2173 C 0.23329 0.36473 0.47083 0.0
C2174 C 0.23857 0.40408 0.46858 0.0
C2175 C 0.22391 0.39672 0.4797 0.0
H2176 H 0.84904 0.49443 0.713 0.0
H2177 H 0.87677 0.54653 0.72898 0.0
H2178 H 0.89901 0.52918 0.74857 0.0
H2179 H 0.90845 0.50012 0.7639 0.0
H2180 H 0.88091 0.44746 0.75014 0.0
H2181 H 0.86098 0.46391 0.72672 0.0
C2182 C 0.86017 0.50182 0.72055 0.0
C2183 C 0.86113 0.52173 0.71978 0.0
C2184 C 0.87285 0.4917 0.73227 0.0
C2185 C 0.87557 0.53124 0.72961 0.0
C2186 C 0.88834 0.52134 0.74079 0.0
C2187 C 0.89824 0.49216 0.75561 0.0
C2188 C 0.89593 0.47271 0.75886 0.0
C2189 C 0.88675 0.50171 0.74267 0.0
C2190 C 0.88289 0.4625 0.74784 0.0
C2191 C 0.87143 0.47193 0.73458 0.0
H2192 H 0.78234 0.15575 0.99404 0.0
H2193 H 0.78123 0.11408 0.0387 0.0
H2194 H 0.76349 0.09242 0.01865 0.0
H2195 H 0.74398 0.08743 0.99078 0.0
H2196 H 0.7432 0.12891 0.94608 0.0
H2197 H 0.76617 0.14839 0.96349 0.0
C2198 C 0.77865 0.14171 0.99907 0.0
C2199 C 0.78286 0.13653 0.01783 0.0
C2200 C 0.76788 0.12943 0.98757 0.0
C2201 C 0.77793 0.11839 0.02434 0.0
C2202 C 0.76775 0.10602 0.01292 0.0
C2203 C 0.74917 0.10054 0.98466 0.0
C2204 C 0.7418 0.1069 0.96737 0.0
C2205 C 0.76195 0.11171 0.99487 0.0
C2206 C 0.74874 0.12377 0.95942 0.0
C2207 C 0.76174 0.13497 0.96945 0.0
H2208 H 0.15095 0.98907 0.78014 0.0
H2209 H 0.10666 0.03016 0.78899 0.0
H2210 H 0.08472 0.01112 0.77037 0.0
H2211 H 0.08002 0.98629 0.74701 0.0
H2212 H 0.12445 0.94605 0.73562 0.0
H2213 H 0.14431 0.96082 0.76002 0.0
C2214 C 0.13631 0.99342 0.77845 0.0
C2215 C 0.13032 0.01093 0.78578 0.0
C2216 C 0.12392 0.98269 0.76704 0.0
C2217 C 0.11147 0.0167 0.78336 0.0
C2218 C 0.09897 0.00588 0.77267 0.0
C2219 C 0.09387 0.98045 0.75024 0.0
C2220 C 0.10091 0.96534 0.73943 0.0
C2221 C 0.10531 0.98936 0.76373 0.0
C2222 C 0.11875 0.95771 0.74381 0.0
C2223 C 0.13017 0.96629 0.75761 0.0
H2224 H 0.21809 0.37334 0.02685 0.0
H2225 H 0.26123 0.4125 0.04489 0.0
H2226 H 0.28429 0.39699 0.02382 0.0
H2227 H 0.29054 0.37485 0.99684 0.0
H2228 H 0.24582 0.33744 0.97858 0.0
H2229 H 0.22506 0.34949 0.00328 0.0
C2230 C 0.23264 0.37831 0.02639 0.0
C2231 C 0.23796 0.39413 0.0371 0.0
C2232 C 0.24547 0.36967 0.01407 0.0
C2233 C 0.25687 0.40029 0.03669 0.0
C2234 C 0.26997 0.39152 0.02455 0.0
C2235 C 0.2764 0.36914 0.99865 0.0
C2236 C 0.26955 0.35548 0.98588 0.0
C2237 C 0.26424 0.37658 0.01266 0.0
C2238 C 0.25122 0.34815 0.98816 0.0
C2239 C 0.23935 0.35502 0.00225 0.0
H2240 H 0.86582 0.53449 0.22851 0.0
H2241 H 0.91625 0.5333 0.26279 0.0
H2242 H 0.89938 0.51513 0.28721 0.0
H2243 H 0.87171 0.49503 0.29591 0.0
H2244 H 0.82248 0.49515 0.25986 0.0
H2245 H 0.8372 0.51861 0.23922 0.0
C2246 C 0.87301 0.53058 0.24151 0.0
C2247 C 0.89227 0.53491 0.24378 0.0
C2248 C 0.86338 0.51988 0.25513 0.0
C2249 C 0.9014 0.53005 0.26075 0.0
C2250 C 0.89179 0.51955 0.27463 0.0
C2251 C 0.86404 0.50077 0.28391 0.0
C2252 C 0.84606 0.49353 0.27934 0.0
C2253 C 0.87297 0.51374 0.27162 0.0
C2254 C 0.83631 0.50067 0.26359 0.0
C2255 C 0.84477 0.51395 0.25173 0.0
H2256 H 0.76314 0.1276 0.53877 0.0
H2257 H 0.74944 0.07136 0.51944 0.0
H2258 H 0.72604 0.08436 0.49745 0.0
H2259 H 0.7141 0.11214 0.47989 0.0
H2260 H 0.72639 0.16828 0.5003 0.0
H2261 H 0.74547 0.155 0.52605 0.0
C2262 C 0.75455 0.11822 0.53015 0.0
C2263 C 0.75806 0.09864 0.53045 0.0
C2264 C 0.74106 0.1258 0.51767 0.0
C2265 C 0.74687 0.08649 0.51941 0.0
C2266 C 0.73363 0.09393 0.50673 0.0
C2267 C 0.72042 0.12136 0.49043 0.0
C2268 C 0.71905 0.14108 0.48829 0.0
C2269 C 0.73125 0.1136 0.50517 0.0
C2270 C 0.72721 0.15303 0.50187 0.0
C2271 C 0.73827 0.14545 0.51644 0.0
H2272 H 0.21312 0.13177 0.99026 0.0
H2273 H 0.25494 0.1747 0.97831 0.0
H2274 H 0.27589 0.16147 0.00226 0.0
H2275 H 0.28423 0.1354 0.02297 0.0
H2276 H 0.24406 0.09087 0.03426 0.0
H2277 H 0.22039 0.10709 0.01451 0.0
C2278 C 0.22663 0.13842 0.99331 0.0
C2279 C 0.23262 0.15406 0.98249 0.0
C2280 C 0.23895 0.13032 0.00678 0.0
C2281 C 0.25017 0.16254 0.98638 0.0
C2282 C 0.26216 0.15497 3e-05 0.0
C2283 C 0.27017 0.12939 0.02137 0.0
C2284 C 0.26592 0.11189 0.02977 0.0
C2285 C 0.257 0.13849 0.00974 0.0
C2286 C 0.24761 0.10436 0.02786 0.0
C2287 C 0.23417 0.11356 0.01646 0.0
H2288 H 0.7265 0.8739 0.53062 0.0
H2289 H 0.7138 0.82973 0.49059 0.0
H2290 H 0.72976 0.84782 0.46538 0.0
H2291 H 0.75155 0.87428 0.45635 0.0
H2292 H 0.7645 0.91722 0.49783 0.0
H2293 H 0.74391 0.90182 0.52078 0.0
C2294 C 0.72692 0.86842 0.51626 0.0
C2295 C 0.71931 0.85052 0.5124 0.0
C2296 C 0.73625 0.87869 0.50216 0.0
C2297 C 0.71963 0.84355 0.49379 0.0
C2298 C 0.72886 0.85383 0.47946 0.0
C2299 C 0.74936 0.88046 0.47024 0.0
C2300 C 0.75958 0.89673 0.47554 0.0
C2301 C 0.73783 0.87115 0.48366 0.0
C2302 C 0.75685 0.9046 0.49358 0.0
C2303 C 0.74515 0.89579 0.50671 0.0
H2304 H 0.34539 0.00015 0.72771 0.0
H2305 H 0.38517 0.04645 0.73012 0.0
H2306 H 0.40882 0.02593 0.74451 0.0
H2307 H 0.41636 0.99675 0.76085 0.0
H2308 H 0.37657 0.95053 0.76141 0.0
H2309 H 0.35493 0.96874 0.74107 0.0
C2310 C 0.3594 0.00549 0.73104 0.0
C2311 C 0.36359 0.02475 0.72811 0.0
C2312 C 0.37283 0.99367 0.73996 0.0
C2313 C 0.38167 0.03169 0.7325 0.0
C2314 C 0.39518 0.01999 0.74071 0.0
C2315 C 0.40313 0.99048 0.75614 0.0
C2316 C 0.39791 0.9725 0.76272 0.0
C2317 C 0.39065 0.00123 0.74518 0.0
C2318 C 0.38087 0.96439 0.75642 0.0
C2319 C 0.36843 0.97489 0.745 0.0
H2320 H 0.25464 0.59211 0.97848 0.0
H2321 H 0.21681 0.63858 0.96676 0.0
H2322 H 0.23795 0.66046 0.98303 0.0
H2323 H 0.26348 0.66507 0.00559 0.0
H2324 H 0.30036 0.61872 0.0201 0.0
H2325 H 0.28379 0.59819 0.99746 0.0
C2326 C 0.25145 0.60713 0.97904 0.0
C2327 C 0.23424 0.61383 0.97163 0.0
C2328 C 0.26339 0.61957 0.98913 0.0
C2329 C 0.22999 0.63322 0.97253 0.0
C2330 C 0.24202 0.6457 0.98186 0.0
C2331 C 0.26824 0.65062 0.00336 0.0
C2332 C 0.28287 0.64329 0.01458 0.0
C2333 C 0.25823 0.63886 0.99098 0.0
C2334 C 0.2891 0.62464 0.01153 0.0
C2335 C 0.27947 0.61286 0.99877 0.0
H2336 H 0.74086 0.87493 0.03887 0.0
H2337 H 0.73633 0.92145 0.99954 0.0
H2338 H 0.76086 0.90757 0.97968 0.0
H2339 H 0.77964 0.88019 0.97095 0.0
H2340 H 0.78342 0.83216 0.00834 0.0
H2341 H 0.76351 0.84865 0.03172 0.0
C2342 C 0.74569 0.88217 0.02621 0.0
C2343 C 0.7368 0.89907 0.0205 0.0
C2344 C 0.75946 0.87371 0.01443 0.0
C2345 C 0.74293 0.90833 0.00403 0.0
C2346 C 0.75691 0.9004 0.99267 0.0
C2347 C 0.77642 0.87348 0.9844 0.0
C2348 C 0.7827 0.85497 0.98789 0.0
C2349 C 0.76466 0.88277 0.99733 0.0
C2350 C 0.7787 0.84646 0.00541 0.0
C2351 C 0.76718 0.85582 0.01866 0.0
H2352 H 0.34422 0.51395 0.7769 0.0
H2353 H 0.38839 0.47268 0.78548 0.0
H2354 H 0.41077 0.49243 0.76817 0.0
H2355 H 0.41608 0.51813 0.74588 0.0
H2356 H 0.37204 0.55892 0.73506 0.0
H2357 H 0.35142 0.54306 0.75817 0.0
C2358 C 0.35891 0.50971 0.77547 0.0
C2359 C 0.36474 0.49194 0.78233 0.0
C2360 C 0.37162 0.52091 0.76485 0.0
C2361 C 0.38369 0.48633 0.78023 0.0
C2362 C 0.39645 0.49755 0.77027 0.0
C2363 C 0.40214 0.52384 0.74897 0.0
C2364 C 0.39545 0.53946 0.73869 0.0
C2365 C 0.39033 0.51439 0.76178 0.0
C2366 C 0.37747 0.54689 0.74288 0.0
C2367 C 0.36563 0.5377 0.75594 0.0
H2368 H 0.5902 0.96946 0.25517 0.0
H2369 H 0.63535 0.95627 0.21632 0.0
H2370 H 0.65851 0.97016 0.23787 0.0
H2371 H 0.66475 0.99163 0.26417 0.0
H2372 H 0.61965 0.00707 0.30229 0.0
H2373 H 0.59774 0.98643 0.28507 0.0
C2374 C 0.6052 0.96901 0.2519 0.0
C2375 C 0.61121 0.96187 0.23433 0.0
C2376 C 0.61838 0.97773 0.26409 0.0
C2377 C 0.63057 0.96164 0.22988 0.0
C2378 C 0.64376 0.9697 0.24212 0.0
C2379 C 0.65026 0.99001 0.26905 0.0
C2380 C 0.64372 0.00104 0.28424 0.0
C2381 C 0.63769 0.97864 0.25875 0.0
C2382 C 0.62499 0.99872 0.29059 0.0
C2383 C 0.61241 0.98707 0.28061 0.0
H2384 H 0.04593 0.75238 0.62713 0.0
H2385 H 0.0089 0.75578 0.57876 0.0
H2386 H 0.9886 0.73122 0.59206 0.0
H2387 H 0.97815 0.71384 0.61991 0.0
H2388 H 0.01331 0.71141 0.66958 0.0
H2389 H 0.03783 0.73015 0.65338 0.0
C2390 C 0.03378 0.74718 0.61932 0.0
C2391 C 0.02876 0.75577 0.60207 0.0
C2392 C 0.02174 0.73346 0.62744 0.0
C2393 C 0.01289 0.74928 0.59208 0.0
C2394 C 0.00126 0.73533 0.59971 0.0
C2395 C 0.9915 0.71688 0.62691 0.0
C2396 C 0.99405 0.71143 0.6458 0.0
C2397 C 0.00505 0.72804 0.61774 0.0
C2398 C 0.01124 0.71539 0.65491 0.0
C2399 C 0.0251 0.72629 0.64572 0.0
H2400 H 0.99225 0.77244 0.16035 0.0
H2401 H 0.01988 0.79882 0.11276 0.0
H2402 H 0.00078 0.77995 0.09089 0.0
H2403 H 0.98093 0.75159 0.08588 0.0
H2404 H 0.95193 0.72641 0.13327 0.0
H2405 H 0.96649 0.74942 0.15473 0.0
C2406 C 0.99355 0.7745 0.14518 0.0
C2407 C 0.00753 0.78676 0.1381 0.0
C2408 C 0.98245 0.76367 0.13272 0.0
C2409 C 0.00913 0.78948 0.11847 0.0
C2410 C 0.99835 0.77855 0.10598 0.0
C2411 C 0.97728 0.75167 0.10081 0.0
C2412 C 0.96557 0.73735 0.10811 0.0
C2413 C 0.98564 0.76497 0.11299 0.0
C2414 C 0.96084 0.73744 0.1274 0.0
C2415 C 0.96933 0.75045 0.13968 0.0
H2416 H 0.48462 0.75493 0.58428 0.0
H2417 H 0.4416 0.74836 0.62699 0.0
H2418 H 0.45886 0.77005 0.648 0.0
H2419 H 0.48941 0.78594 0.65609 0.0
H2420 H 0.5325 0.79064 0.61309 0.0
H2421 H 0.51196 0.77505 0.5902 0.0
C2422 C 0.47876 0.75873 0.59798 0.0
C2423 C 0.46205 0.75001 0.60421 0.0
C2424 C 0.48894 0.77075 0.61001 0.0
C2425 C 0.45445 0.75502 0.6219 0.0
C2426 C 0.46443 0.76725 0.63398 0.0
C2427 C 0.49392 0.7841 0.64153 0.0
C2428 C 0.51239 0.78929 0.6362 0.0
C2429 C 0.48216 0.77452 0.6285 0.0
C2430 C 0.51831 0.78666 0.61742 0.0
C2431 C 0.50663 0.77767 0.60436 0.0
H2432 H 0.47161 0.72024 0.11557 0.0
H2433 H 0.51285 0.70995 0.15928 0.0
H2434 H 0.53597 0.72976 0.14228 0.0
H2435 H 0.54223 0.75415 0.11737 0.0
H2436 H 0.49915 0.76537 0.07558 0.0
H2437 H 0.47902 0.7409 0.08921 0.0
C2438 C 0.48581 0.72202 0.12119 0.0
C2439 C 0.49052 0.71393 0.1387 0.0
C2440 C 0.4986 0.73376 0.1117 0.0
C2441 C 0.50897 0.71608 0.14577 0.0
C2442 C 0.52208 0.72754 0.13613 0.0
C2443 C 0.52865 0.75079 0.11104 0.0
C2444 C 0.52204 0.7615 0.0956 0.0
C2445 C 0.51678 0.73707 0.11944 0.0
C2446 C 0.50438 0.7573 0.08755 0.0
C2447 C 0.49287 0.74337 0.09535 0.0
H2448 H 0.10113 0.53011 0.74208 0.0
H2449 H 0.14499 0.53108 0.78457 0.0
H2450 H 0.16614 0.5136 0.76375 0.0
H2451 H 0.16997 0.49311 0.73631 0.0
H2452 H 0.12653 0.49063 0.69366 0.0
H2453 H 0.10751 0.51381 0.71138 0.0
C2454 C 0.11552 0.52697 0.74644 0.0
C2455 C 0.12145 0.53157 0.76489 0.0
C2456 C 0.12755 0.5164 0.73449 0.0
C2457 C 0.14007 0.52742 0.7705 0.0
C2458 C 0.15216 0.51739 0.75864 0.0
C2459 C 0.15658 0.49812 0.73065 0.0
C2460 C 0.14951 0.4902 0.71391 0.0
C2461 C 0.14573 0.51104 0.74103 0.0
C2462 C 0.13223 0.49671 0.70654 0.0
C2463 C 0.1213 0.50978 0.71677 0.0
H2464 H 0.21764 0.84895 0.99465 0.0
H2465 H 0.2223 0.88809 0.04135 0.0
H2466 H 0.24034 0.90993 0.02181 0.0
H2467 H 0.25865 0.91583 0.99338 0.0
H2468 H 0.25582 0.87708 0.94639 0.0
H2469 H 0.23303 0.85732 0.96384 0.0
C2470 C 0.22224 0.86248 0.00028 0.0
C2471 C 0.21889 0.86686 0.01943 0.0
C2472 C 0.23312 0.87491 0.98901 0.0
C2473 C 0.22495 0.88435 0.02669 0.0
C2474 C 0.23528 0.89685 0.01556 0.0
C2475 C 0.25275 0.90323 0.98682 0.0
C2476 C 0.259 0.89772 0.96882 0.0
C2477 C 0.24007 0.89194 0.997 0.0
C2478 C 0.25114 0.88156 0.96029 0.0
C2479 C 0.23825 0.87021 0.97033 0.0
H2480 H 0.91687 0.98217 0.2468 0.0
H2481 H 0.86926 0.94703 0.26144 0.0
H2482 H 0.84961 0.96348 0.23797 0.0
H2483 H 0.84455 0.99277 0.21905 0.0
H2484 H 0.89228 0.02882 0.20683 0.0
H2485 H 0.91346 0.00695 0.22306 0.0
C2486 C 0.90238 0.97767 0.24428 0.0
C2487 C 0.89437 0.96368 0.25585 0.0
C2488 C 0.89115 0.98759 0.23134 0.0
C2489 C 0.87567 0.95778 0.25257 0.0
C2490 C 0.8644 0.96736 0.23933 0.0
C2491 C 0.85969 0.99533 0.21933 0.0
C2492 C 0.86694 0.01234 0.21197 0.0
C2493 C 0.87171 0.98302 0.22944 0.0
C2494 C 0.8865 0.01579 0.21254 0.0
C2495 C 0.89857 0.00336 0.2219 0.0
H2496 H 0.77207 0.66628 0.49696 0.0
H2497 H 0.81545 0.62343 0.49791 0.0
H2498 H 0.79748 0.60444 0.47497 0.0
H2499 H 0.76635 0.5976 0.45968 0.0
H2500 H 0.72267 0.64023 0.46135 0.0
H2501 H 0.7438 0.66187 0.47791 0.0
C2502 C 0.77785 0.65303 0.49168 0.0
C2503 C 0.79486 0.6461 0.49917 0.0
C2504 C 0.76718 0.64205 0.47914 0.0
C2505 C 0.80236 0.62903 0.49222 0.0
C2506 C 0.79196 0.61809 0.4793 0.0
C2507 C 0.7618 0.61185 0.46319 0.0
C2508 C 0.74305 0.61739 0.4595 0.0
C2509 C 0.7739 0.62405 0.47337 0.0
C2510 C 0.73707 0.63574 0.46422 0.0
C2511 C 0.7491 0.64808 0.47372 0.0
H2512 H 0.1252 0.45275 0.24841 0.0
H2513 H 0.07215 0.48269 0.25227 0.0
H2514 H 0.08473 0.50256 0.27754 0.0
H2515 H 0.1124 0.51549 0.29341 0.0
H2516 H 0.16647 0.48775 0.28839 0.0
H2517 H 0.15202 0.46266 0.26908 0.0
C2518 C 0.11629 0.46316 0.25535 0.0
C2519 C 0.09785 0.4664 0.24862 0.0
C2520 C 0.12393 0.4751 0.2694 0.0
C2521 C 0.0864 0.48007 0.25735 0.0
C2522 C 0.09361 0.49148 0.27169 0.0
C2523 C 0.12087 0.5036 0.28856 0.0
C2524 C 0.14041 0.50346 0.29203 0.0
C2525 C 0.11261 0.48976 0.27708 0.0
C2526 C 0.15134 0.48803 0.28588 0.0
C2527 C 0.14311 0.47384 0.27467 0.0
H2528 H 0.25536 0.90576 0.53385 0.0
H2529 H 0.20904 0.86608 0.5298 0.0
H2530 H 0.2294 0.84326 0.51403 0.0
H2531 H 0.2585 0.8365 0.49718 0.0
H2532 H 0.30483 0.87612 0.49859 0.0
H2533 H 0.2867 0.8968 0.51997 0.0
C2534 C 0.24996 0.89195 0.52983 0.0
C2535 C 0.2307 0.88767 0.53266 0.0
C2536 C 0.26172 0.87895 0.52021 0.0
C2537 C 0.22376 0.86978 0.52744 0.0
C2538 C 0.23538 0.8567 0.51846 0.0
C2539 C 0.26481 0.84945 0.50255 0.0
C2540 C 0.28281 0.85493 0.49625 0.0
C2541 C 0.25411 0.86142 0.51414 0.0
C2542 C 0.29097 0.87162 0.50337 0.0
C2543 C 0.28051 0.88353 0.51539 0.0
H2544 H 0.83653 0.01057 0.77538 0.0
H2545 H 0.88544 0.99169 0.80649 0.0
H2546 H 0.90561 0.01348 0.78851 0.0
H2547 H 0.90978 0.03329 0.75989 0.0
H2548 H 0.86038 0.05292 0.72976 0.0
H2549 H 0.83989 0.03586 0.75166 0.0
C2550 C 0.8515 0.0118 0.77866 0.0
C2551 C 0.8596 0.99959 0.79205 0.0
C2552 C 0.86293 0.02429 0.76825 0.0
C2553 C 0.87895 0.00115 0.79629 0.0
C2554 C 0.8905 0.01343 0.78586 0.0
C2555 C 0.89451 0.03426 0.7585 0.0
C2556 C 0.88662 0.04401 0.74302 0.0
C2557 C 0.88275 0.0244 0.77119 0.0
C2558 C 0.86682 0.0454 0.74148 0.0
C2559 C 0.85507 0.03553 0.75392 0.0
H2560 H 0.74288 0.59182 0.03182 0.0
H2561 H 0.78649 0.6344 0.03525 0.0
H2562 H 0.76655 0.65683 0.01825 0.0
H2563 H 0.7399 0.66197 0.99712 0.0
H2564 H 0.69671 0.61937 0.99128 0.0
H2565 H 0.71285 0.59945 0.0148 0.0
C2566 C 0.74762 0.60622 0.02934 0.0
C2567 C 0.76607 0.61155 0.03457 0.0
C2568 C 0.73624 0.61891 0.01894 0.0
C2569 C 0.77232 0.6301 0.03119 0.0
C2570 C 0.76098 0.64288 0.02144 0.0
C2571 C 0.73369 0.64861 0.00155 0.0
C2572 C 0.71733 0.642 0.99253 0.0
C2573 C 0.74336 0.63713 0.01446 0.0
C2574 C 0.70928 0.62474 0.99823 0.0
C2575 C 0.71866 0.61326 0.01147 0.0
H2576 H 0.2259 0.6191 0.46712 0.0
H2577 H 0.21397 0.66031 0.51044 0.0
H2578 H 0.23285 0.64191 0.53329 0.0
H2579 H 0.25671 0.61636 0.53912 0.0
H2580 H 0.26876 0.57652 0.49437 0.0
H2581 H 0.24565 0.59186 0.47398 0.0
C2582 C 0.22714 0.62385 0.4817 0.0
C2583 C 0.21885 0.64104 0.48713 0.0
C2584 C 0.23816 0.61346 0.49442 0.0
C2585 C 0.22027 0.64703 0.50602 0.0
C2586 C 0.23118 0.6366 0.51899 0.0
C2587 C 0.25383 0.61082 0.5251 0.0
C2588 C 0.26451 0.59548 0.51812 0.0
C2589 C 0.24077 0.62011 0.51314 0.0
C2590 C 0.26082 0.58844 0.49991 0.0
C2591 C 0.24765 0.59721 0.48823 0.0
H2592 H 0.7511 0.37866 0.95501 0.0
H2593 H 0.75373 0.4302 0.98758 0.0
H2594 H 0.73061 0.41769 0.00998 0.0
H2595 H 0.71535 0.38997 0.02371 0.0
H2596 H 0.7137 0.33744 0.99279 0.0
H2597 H 0.73039 0.35237 0.96616 0.0
C2598 C 0.74594 0.38735 0.96659 0.0
C2599 C 0.75398 0.40528 0.96977 0.0
C2600 C 0.73316 0.3797 0.97989 0.0
C2601 C 0.74759 0.41638 0.98495 0.0
C2602 C 0.73452 0.40917 0.99782 0.0
C2603 C 0.71814 0.38198 0.01087 0.0
C2604 C 0.71361 0.36267 0.01018 0.0
C2605 C 0.72806 0.39052 0.99598 0.0
C2606 C 0.71709 0.35239 0.99353 0.0
C2607 C 0.72679 0.36088 0.97841 0.0
H2608 H 0.36831 0.50501 0.21041 0.0
H2609 H 0.32172 0.50887 0.24974 0.0
H2610 H 0.33503 0.48329 0.26863 0.0
H2611 H 0.36235 0.46413 0.27696 0.0
H2612 H 0.4103 0.46095 0.2394 0.0
H2613 H 0.39401 0.48159 0.2166 0.0
C2614 C 0.36088 0.49979 0.22279 0.0
C2615 C 0.3442 0.50885 0.22886 0.0
C2616 C 0.369 0.48541 0.23402 0.0
C2617 C 0.33469 0.50216 0.24498 0.0
C2618 C 0.3423 0.48759 0.2558 0.0
C2619 C 0.36903 0.46759 0.26355 0.0
C2620 C 0.3875 0.46133 0.25989 0.0
C2621 C 0.35984 0.47977 0.25093 0.0
C2622 C 0.39602 0.46566 0.24245 0.0
C2623 C 0.38678 0.4776 0.22953 0.0
H2624 H 0.23664 0.08753 0.49501 0.0
H2625 H 0.24724 0.12242 0.44614 0.0
H2626 H 0.27024 0.14124 0.46434 0.0
H2627 H 0.28349 0.15041 0.49587 0.0
H2628 H 0.27082 0.11545 0.54436 0.0
H2629 H 0.25276 0.09381 0.52461 0.0
C2630 C 0.24427 0.09905 0.48825 0.0
C2631 C 0.24016 0.10384 0.46946 0.0
C2632 C 0.25701 0.10985 0.49883 0.0
C2633 C 0.25025 0.11855 0.46067 0.0
C2634 C 0.26325 0.12937 0.47112 0.0
C2635 C 0.27714 0.13778 0.50189 0.0
C2636 C 0.27822 0.13456 0.52151 0.0
C2637 C 0.26622 0.12557 0.49045 0.0
C2638 C 0.26992 0.11826 0.5293 0.0
C2639 C 0.25958 0.10591 0.51805 0.0
H2640 H 0.77112 0.34052 0.50708 0.0
H2641 H 0.79969 0.38611 0.47827 0.0
H2642 H 0.78321 0.40928 0.49804 0.0
H2643 H 0.7563 0.41638 0.51927 0.0
H2644 H 0.72904 0.37087 0.54944 0.0
H2645 H 0.74961 0.3478 0.53373 0.0
C2646 C 0.77419 0.35551 0.50563 0.0
C2647 C 0.7864 0.36167 0.49117 0.0
C2648 C 0.76473 0.36873 0.51713 0.0
C2649 C 0.7904 0.38107 0.48939 0.0
C2650 C 0.78082 0.39433 0.50056 0.0
C2651 C 0.75537 0.40146 0.52286 0.0
C2652 C 0.74114 0.39523 0.5353 0.0
C2653 C 0.76732 0.38832 0.51386 0.0
C2654 C 0.74 0.37594 0.53996 0.0
C2655 C 0.75162 0.36274 0.53083 0.0
H2656 H 0.40448 0.03047 0.26313 0.0
H2657 H 0.35822 0.04011 0.22456 0.0
H2658 H 0.33668 0.02304 0.24545 0.0
H2659 H 0.33287 0.99979 0.27069 0.0
H2660 H 0.37889 0.98846 0.30898 0.0
H2661 H 0.39861 0.01198 0.29261 0.0
C2662 C 0.38952 0.02945 0.25982 0.0
C2663 C 0.38281 0.03644 0.24244 0.0
C2664 C 0.3773 0.01902 0.27167 0.0
C2665 C 0.36354 0.03483 0.23796 0.0
C2666 C 0.35127 0.02496 0.24981 0.0
C2667 C 0.34699 0.00303 0.27585 0.0
C2668 C 0.35456 0.99245 0.29082 0.0
C2669 C 0.35824 0.01615 0.26613 0.0
C2670 C 0.3728 0.99662 0.2975 0.0
C2671 C 0.38413 0.00988 0.28799 0.0
H2672 H 0.62498 0.45512 0.74241 0.0
H2673 H 0.5731 0.48721 0.74433 0.0
H2674 H 0.58625 0.50779 0.76874 0.0
H2675 H 0.61429 0.52034 0.78441 0.0
H2676 H 0.66705 0.48984 0.78184 0.0
H2677 H 0.65187 0.46477 0.7631 0.0
C2678 C 0.6164 0.46615 0.74881 0.0
C2679 C 0.59814 0.46974 0.74176 0.0
C2680 C 0.62437 0.47842 0.76238 0.0
C2681 C 0.58717 0.48425 0.74973 0.0
C2682 C 0.59473 0.49609 0.76353 0.0
C2683 C 0.62231 0.50792 0.78017 0.0
C2684 C 0.64173 0.50696 0.78417 0.0
C2685 C 0.6136 0.49391 0.7692 0.0
C2686 C 0.65203 0.4908 0.77885 0.0
C2687 C 0.64338 0.47658 0.76802 0.0
H2688 H 0.48226 0.25442 0.83503 0.0
H2689 H 0.49616 0.30449 0.8669 0.0
H2690 H 0.52082 0.28684 0.88412 0.0
H2691 H 0.53513 0.25567 0.89286 0.0
H2692 H 0.51945 0.20603 0.86078 0.0
H2693 H 0.49897 0.225 0.84072 0.0
C2694 C 0.49095 0.26155 0.84552 0.0
C2695 C 0.48737 0.28054 0.84994 0.0
C2696 C 0.50464 0.2513 0.85542 0.0
C2697 C 0.49878 0.28981 0.86331 0.0
C2698 C 0.51272 0.27967 0.87323 0.0
C2699 C 0.52749 0.24918 0.88123 0.0
C2700 C 0.52851 0.22945 0.87848 0.0
C2701 C 0.51532 0.26019 0.86985 0.0
C2702 C 0.51862 0.22114 0.86337 0.0
C2703 C 0.50691 0.23196 0.85186 0.0
H2704 H 0.49451 0.206 0.3487 0.0
H2705 H 0.54385 0.22292 0.38059 0.0
H2706 H 0.52448 0.24302 0.40065 0.0
H2707 H 0.49468 0.25889 0.4066 0.0
H2708 H 0.44475 0.24358 0.37516 0.0
H2709 H 0.463 0.21957 0.35763 0.0
C2710 C 0.50085 0.21381 0.3603 0.0
C2711 C 0.52059 0.21324 0.363 0.0
C2712 C 0.48958 0.22576 0.37171 0.0
C2713 C 0.52872 0.22339 0.37805 0.0
C2714 C 0.51767 0.23489 0.38955 0.0
C2715 C 0.48772 0.25008 0.3961 0.0
C2716 C 0.46857 0.25307 0.39192 0.0
C2717 C 0.49828 0.23668 0.38608 0.0
C2718 C 0.45956 0.24145 0.37855 0.0
C2719 C 0.47002 0.22785 0.36846 0.0
H2720 H 0.50877 0.78102 0.34587 0.0
H2721 H 0.46551 0.78669 0.38858 0.0
H2722 H 0.48572 0.77105 0.41172 0.0
H2723 H 0.51258 0.75032 0.41783 0.0
H2724 H 0.55569 0.74272 0.3754 0.0
H2725 H 0.53903 0.76476 0.35425 0.0
C2726 C 0.50417 0.7794 0.36043 0.0
C2727 C 0.48571 0.78484 0.36558 0.0
C2728 C 0.51572 0.76976 0.3736 0.0
C2729 C 0.47967 0.78251 0.38437 0.0
C2730 C 0.49117 0.77348 0.39757 0.0
C2731 C 0.51863 0.75402 0.40419 0.0
C2732 C 0.53515 0.74489 0.39805 0.0
C2733 C 0.50876 0.76622 0.39207 0.0
C2734 C 0.54298 0.74972 0.38042 0.0
C2735 C 0.53334 0.76214 0.36826 0.0
H2736 H 0.49234 0.71652 0.84592 0.0
H2737 H 0.53723 0.72122 0.88706 0.0
H2738 H 0.51631 0.73809 0.90859 0.0
H2739 H 0.48739 0.75604 0.91344 0.0
H2740 H 0.44219 0.75312 0.8727 0.0
H2741 H 0.4608 0.73083 0.85339 0.0
C2742 C 0.49725 0.72079 0.85982 0.0
C2743 C 0.5163 0.71789 0.86488 0.0
C2744 C 0.48518 0.73103 0.87205 0.0
C2745 C 0.52265 0.72354 0.88285 0.0
C2746 C 0.51073 0.73322 0.89515 0.0
C2747 C 0.48145 0.75012 0.90056 0.0
C2748 C 0.46366 0.75623 0.89431 0.0
C2749 C 0.4923 0.73775 0.88955 0.0
C2750 C 0.45592 0.74847 0.87774 0.0
C2751 C 0.46663 0.7359 0.86665 0.0
H2752 H 0.67089 0.99994 0.72699 0.0
H2753 H 0.62408 0.97188 0.69978 0.0
H2754 H 0.6018 0.99361 0.71509 0.0
H2755 H 0.59573 0.01638 0.74098 0.0
H2756 H 0.64262 0.04568 0.76677 0.0
H2757 H 0.6649 0.02803 0.74696 0.0
C2758 C 0.65586 0.99912 0.72389 0.0
C2759 C 0.64901 0.98438 0.71246 0.0
C2760 C 0.64321 0.0117 0.73267 0.0
C2761 C 0.62959 0.98328 0.70845 0.0
C2762 C 0.61686 0.99556 0.71737 0.0
C2763 C 0.61079 0.01932 0.74173 0.0
C2764 C 0.61763 0.03206 0.75539 0.0
C2765 C 0.62348 0.00921 0.73021 0.0
C2766 C 0.6371 0.03594 0.75627 0.0
C2767 C 0.64984 0.02572 0.74509 0.0
H2768 H 0.61189 0.48121 0.21822 0.0
H2769 H 0.66381 0.51293 0.22214 0.0
H2770 H 0.64776 0.53708 0.24146 0.0
H2771 H 0.62035 0.54548 0.26213 0.0
H2772 H 0.56956 0.51176 0.25912 0.0
H2773 H 0.58349 0.49231 0.23423 0.0
C2774 C 0.61954 0.49372 0.22287 0.0
C2775 C 0.63896 0.4953 0.21904 0.0
C2776 C 0.61038 0.50708 0.23427 0.0
C2777 C 0.64879 0.51153 0.22494 0.0
C2778 C 0.63965 0.5252 0.23613 0.0
C2779 C 0.61219 0.53431 0.25545 0.0
C2780 C 0.594 0.52995 0.26232 0.0
C2781 C 0.62064 0.52266 0.2416 0.0
C2782 C 0.58357 0.51528 0.25394 0.0
C2783 C 0.59158 0.5041 0.23982 0.0
H2784 H 0.11492 0.3273 0.07959 0.0
H2785 H 0.0849 0.35045 0.03174 0.0
H2786 H 0.11003 0.37369 0.02681 0.0
H2787 H 0.13893 0.3895 0.03806 0.0
H2788 H 0.16831 0.36712 0.08672 0.0
H2789 H 0.14512 0.34165 0.08939 0.0
C2790 C 0.11414 0.33713 0.06782 0.0
C2791 C 0.09811 0.33718 0.05605 0.0
C2792 C 0.12837 0.35087 0.06543 0.0
C2793 C 0.09713 0.35017 0.041 0.0
C2794 C 0.11143 0.36354 0.03824 0.0
C2795 C 0.14032 0.37897 0.04916 0.0
C2796 C 0.1552 0.38033 0.06228 0.0
C2797 C 0.12683 0.3644 0.05071 0.0
C2798 C 0.15689 0.3665 0.07651 0.0
C2799 C 0.14365 0.35188 0.07804 0.0
H2800 H 0.92547 0.36814 0.32775 0.0
H2801 H 0.89666 0.32931 0.29044 0.0
H2802 H 0.87529 0.35437 0.28024 0.0
H2803 H 0.86243 0.38618 0.28454 0.0
H2804 H 0.88985 0.425 0.32288 0.0
H2805 H 0.91413 0.4013 0.32988 0.0
C2806 C 0.91476 0.36535 0.31711 0.0
C2807 C 0.91252 0.34692 0.30997 0.0
C2808 C 0.9021 0.37978 0.31164 0.0
C2809 C 0.89851 0.34338 0.29628 0.0
C2810 C 0.88626 0.35769 0.29044 0.0
C2811 C 0.87388 0.38957 0.2942 0.0
C2812 C 0.87423 0.40723 0.3033 0.0
C2813 C 0.88754 0.37577 0.29845 0.0
C2814 C 0.8892 0.41143 0.31576 0.0
C2815 C 0.90307 0.39787 0.31981 0.0
H2816 H 0.83617 0.13633 0.56758 0.0
H2817 H 0.86313 0.1079 0.52066 0.0
H2818 H 0.88892 0.13094 0.52126 0.0
H2819 H 0.90546 0.1568 0.53738 0.0
H2820 H 0.87888 0.1853 0.58442 0.0
H2821 H 0.85101 0.16486 0.58124 0.0
C2822 C 0.84759 0.13533 0.55735 0.0
C2823 C 0.84792 0.12028 0.54428 0.0
C2824 C 0.86239 0.14862 0.55781 0.0
C2825 C 0.86263 0.11928 0.53094 0.0
C2826 C 0.8774 0.13243 0.53129 0.0
C2827 C 0.8934 0.15878 0.54671 0.0
C2828 C 0.89425 0.17237 0.56124 0.0
C2829 C 0.87766 0.14682 0.54498 0.0
C2830 C 0.87851 0.17494 0.57311 0.0
C2831 C 0.86267 0.16314 0.5714 0.0
H2832 H 0.12993 0.10983 0.78858 0.0
H2833 H 0.11197 0.07911 0.83825 0.0
H2834 H 0.08755 0.10278 0.84443 0.0
H2835 H 0.0728 0.13357 0.83708 0.0
H2836 H 0.09174 0.16481 0.78814 0.0
H2837 H 0.11392 0.13953 0.78015 0.0
C2838 C 0.12058 0.10826 0.80067 0.0
C2839 C 0.12288 0.09283 0.813 0.0
C2840 C 0.10665 0.12203 0.80426 0.0
C2841 C 0.1106 0.09094 0.82859 0.0
C2842 C 0.09659 0.10446 0.83213 0.0
C2843 C 0.0815 0.13461 0.82446 0.0
C2844 C 0.08065 0.15099 0.81322 0.0
C2845 C 0.09466 0.12023 0.82023 0.0
C2846 C 0.09218 0.15231 0.79704 0.0
C2847 C 0.10494 0.13791 0.7925 0.0
H2848 H 0.11044 0.6741 0.92151 0.0
H2849 H 0.0718 0.64544 0.95914 0.0
H2850 H 0.09722 0.6247 0.97001 0.0
H2851 H 0.12957 0.61264 0.9665 0.0
H2852 H 0.16775 0.63968 0.92722 0.0
H2853 H 0.14353 0.66312 0.91939 0.0
C2854 C 0.10775 0.66355 0.93235 0.0
C2855 C 0.08935 0.66123 0.93951 0.0
C2856 C 0.1223 0.65122 0.93807 0.0
C2857 C 0.08589 0.64738 0.95338 0.0
C2858 C 0.10039 0.6355 0.95957 0.0
C2859 C 0.13265 0.62382 0.95642 0.0
C2860 C 0.15034 0.62437 0.94738 0.0
C2861 C 0.11852 0.63695 0.95165 0.0
C2862 C 0.15416 0.63889 0.93429 0.0
C2863 C 0.14032 0.6523 0.92979 0.0
H2864 H 0.57058 0.36701 0.17712 0.0
H2865 H 0.59011 0.33721 0.22668 0.0
H2866 H 0.61146 0.36332 0.23434 0.0
H2867 H 0.62777 0.3924 0.22441 0.0
H2868 H 0.60937 0.42144 0.1739 0.0
H2869 H 0.58449 0.39794 0.16914 0.0
C2870 C 0.57905 0.36656 0.18992 0.0
C2871 C 0.57881 0.35027 0.20132 0.0
C2872 C 0.59187 0.38129 0.19381 0.0
C2873 C 0.59008 0.34967 0.21771 0.0
C2874 C 0.60241 0.3645 0.222 0.0
C2875 C 0.61817 0.39369 0.21249 0.0
C2876 C 0.62059 0.40846 0.19939 0.0
C2877 C 0.60399 0.38001 0.20972 0.0
C2878 C 0.60793 0.41007 0.1841 0.0
C2879 C 0.59366 0.39665 0.18137 0.0
H2880 H 0.85719 0.87966 0.46981 0.0
H2881 H 0.82719 0.85893 0.42082 0.0
H2882 H 0.85045 0.83365 0.4169 0.0
H2883 H 0.88155 0.82005 0.42495 0.0
H2884 H 0.912 0.84161 0.47326 0.0
H2885 H 0.88616 0.86349 0.48021 0.0
C2886 C 0.85562 0.86946 0.45843 0.0
C2887 C 0.84067 0.87135 0.44546 0.0
C2888 C 0.86913 0.85502 0.45617 0.0
C2889 C 0.83869 0.85789 0.43091 0.0
C2890 C 0.85198 0.84341 0.42865 0.0
C2891 C 0.88221 0.8291 0.43735 0.0
C2892 C 0.89865 0.82929 0.44853 0.0
C2893 C 0.86756 0.84215 0.44088 0.0
C2894 C 0.89947 0.84126 0.46442 0.0
C2895 C 0.88478 0.85389 0.46831 0.0
H2896 H 0.38715 0.09388 0.68805 0.0
H2897 H 0.3601 0.12469 0.7334 0.0
H2898 H 0.38401 0.14958 0.73097 0.0
H2899 H 0.41048 0.16402 0.71388 0.0
H2900 H 0.43714 0.13391 0.66788 0.0
H2901 H 0.4158 0.10703 0.67298 0.0
C2902 C 0.38659 0.10597 0.69751 0.0
C2903 C 0.37171 0.10759 0.71071 0.0
C2904 C 0.40034 0.12029 0.69595 0.0
C2905 C 0.3713 0.1232 0.72302 0.0
C2906 C 0.38497 0.13743 0.72164 0.0
C2907 C 0.41188 0.15142 0.70519 0.0
C2908 C 0.42527 0.15101 0.69042 0.0
C2909 C 0.39927 0.13632 0.70788 0.0
C2910 C 0.42699 0.13456 0.67937 0.0
C2911 C 0.41466 0.11927 0.68216 0.0
H2912 H 0.03294 0.13882 0.38128 0.0
H2913 H 0.08402 0.16878 0.36622 0.0
H2914 H 0.09036 0.1459 0.34107 0.0
H2915 H 0.08291 0.11564 0.32528 0.0
H2916 H 0.03271 0.08496 0.34168 0.0
H2917 H 0.02433 0.10994 0.36405 0.0
C2918 C 0.04535 0.14044 0.37237 0.0
C2919 C 0.05806 0.15536 0.37572 0.0
C2920 C 0.04906 0.12708 0.35811 0.0
C2921 C 0.07407 0.15732 0.36402 0.0
C2922 C 0.07771 0.14424 0.34961 0.0
C2923 C 0.06993 0.1147 0.33344 0.0
C2924 C 0.05844 0.09854 0.33187 0.0
C2925 C 0.06551 0.12884 0.34676 0.0
C2926 C 0.04179 0.0973 0.34271 0.0
C2927 C 0.03702 0.11152 0.35556 0.0
H2928 H 0.13256 0.32875 0.57506 0.0
H2929 H 0.17223 0.29036 0.60118 0.0
H2930 H 0.14883 0.28194 0.62517 0.0
H2931 H 0.11799 0.28734 0.64022 0.0
H2932 H 0.07884 0.32701 0.6152 0.0
H2933 H 0.10103 0.33307 0.58939 0.0
C2934 C 0.1359 0.31831 0.58583 0.0
C2935 C 0.15403 0.3102 0.58641 0.0
C2936 C 0.12255 0.31394 0.59994 0.0
C2937 C 0.15834 0.29684 0.60053 0.0
C2938 C 0.145 0.29205 0.61428 0.0
C2939 C 0.11428 0.29719 0.62904 0.0
C2940 C 0.0969 0.3068 0.62969 0.0
C2941 C 0.12721 0.30083 0.61438 0.0
C2942 C 0.09224 0.31953 0.6151 0.0
C2943 C 0.10489 0.323 0.6003 0.0
H2944 H 0.96077 0.40905 0.84458 0.0
H2945 H 0.9174 0.38282 0.81052 0.0
H2946 H 0.9203 0.35363 0.82901 0.0
H2947 H 0.93256 0.33706 0.85718 0.0
H2948 H 0.97595 0.36349 0.89113 0.0
H2949 H 0.97574 0.3911 0.87027 0.0
C2950 C 0.95218 0.39682 0.84099 0.0
C2951 C 0.93874 0.39813 0.82636 0.0
C2952 C 0.95379 0.38023 0.8518 0.0
C2953 C 0.92785 0.38215 0.82172 0.0
C2954 C 0.92941 0.36551 0.83238 0.0
C2955 C 0.94214 0.34877 0.85986 0.0
C2956 C 0.95407 0.34837 0.87582 0.0
C2957 C 0.94191 0.36462 0.84782 0.0
C2958 C 0.96657 0.36351 0.87899 0.0
C2959 C 0.96642 0.37932 0.8671 0.0
H2960 H 0.84106 0.21581 0.0948 0.0
H2961 H 0.86977 0.17326 0.06168 0.0
H2962 H 0.89906 0.17909 0.07933 0.0
H2963 H 0.91501 0.19322 0.10698 0.0
H2964 H 0.88562 0.23499 0.1406 0.0
H2965 H 0.85812 0.23268 0.11979 0.0
C2966 C 0.85382 0.20804 0.09121 0.0
C2967 C 0.85322 0.19396 0.07713 0.0
C2968 C 0.87041 0.21121 0.10163 0.0
C2969 C 0.86988 0.18415 0.07248 0.0
C2970 C 0.88658 0.18739 0.08266 0.0
C2971 C 0.90272 0.20208 0.10953 0.0
C2972 C 0.90225 0.21409 0.12546 0.0
C2973 C 0.88681 0.20043 0.0977 0.0
C2974 C 0.88629 0.22555 0.12853 0.0
C2975 C 0.87053 0.22419 0.11667 0.0
H2976 H 0.03282 0.86626 0.60929 0.0
H2977 H 0.06396 0.828 0.64529 0.0
H2978 H 0.0697 0.85357 0.66791 0.0
H2979 H 0.06876 0.88765 0.67573 0.0
H2980 H 0.03945 0.92604 0.63834 0.0
H2981 H 0.02999 0.89967 0.61816 0.0
C2982 C 0.04055 0.86344 0.62226 0.0
C2983 C 0.04801 0.84531 0.62558 0.0
C2984 C 0.0443 0.87833 0.6349 0.0
C2985 C 0.05813 0.84189 0.64238 0.0
C2986 C 0.06147 0.85652 0.6553 0.0
C2987 C 0.06004 0.89014 0.66334 0.0
C2988 C 0.05491 0.90874 0.65846 0.0
C2989 C 0.05507 0.87493 0.65146 0.0
C2990 C 0.04371 0.91184 0.6423 0.0
C2991 C 0.03829 0.89677 0.63074 0.0
H2992 H 0.36347 0.33138 0.92654 0.0
H2993 H 0.32828 0.2869 0.90396 0.0
H2994 H 0.35406 0.2764 0.88348 0.0
H2995 H 0.38472 0.28284 0.86866 0.0
H2996 H 0.41936 0.32858 0.88962 0.0
H2997 H 0.3959 0.33549 0.91409 0.0
C2998 C 0.36171 0.31907 0.91753 0.0
C2999 C 0.34407 0.30996 0.91664 0.0
C3000 C 0.37639 0.31354 0.90523 0.0
C3001 C 0.34178 0.29416 0.90476 0.0
C3002 C 0.35646 0.28821 0.89298 0.0
C3003 C 0.38728 0.29409 0.87879 0.0
C3004 C 0.4036 0.30533 0.87717 0.0
C3005 C 0.37355 0.29827 0.89254 0.0
C3006 C 0.40679 0.31982 0.89046 0.0
C3007 C 0.39337 0.32381 0.90445 0.0
H3008 H 0.9443 0.66298 0.14534 0.0
H3009 H 0.98911 0.63282 0.11672 0.0
H3010 H 0.98656 0.60699 0.13964 0.0
H3011 H 0.96847 0.59114 0.16473 0.0
H3012 H 0.92266 0.62064 0.19241 0.0
H3013 H 0.92897 0.64876 0.17318 0.0
C3014 C 0.95375 0.65091 0.14432 0.0
C3015 C 0.96669 0.64968 0.12919 0.0
C3016 C 0.95192 0.63596 0.15731 0.0
C3017 C 0.97896 0.63406 0.12816 0.0
C3018 C 0.97744 0.61925 0.14122 0.0
C3019 C 0.96012 0.60386 0.16685 0.0
C3020 C 0.94495 0.60373 0.1798 0.0
C3021 C 0.96351 0.61976 0.1554 0.0
C3022 C 0.93436 0.62036 0.1825 0.0
C3023 C 0.93789 0.63639 0.1714 0.0
H3024 H 0.64138 0.16127 0.41927 0.0
H3025 H 0.67138 0.21021 0.39836 0.0
H3026 H 0.64588 0.21666 0.37595 0.0
H3027 H 0.6164 0.20683 0.36041 0.0
H3028 H 0.58687 0.15724 0.38054 0.0
H3029 H 0.61079 0.15258 0.40502 0.0
C3030 C 0.64211 0.17356 0.41008 0.0
C3031 C 0.6582 0.18523 0.41043 0.0
C3032 C 0.62763 0.17689 0.39685 0.0
C3033 C 0.65911 0.20099 0.3983 0.0
C3034 C 0.64459 0.20464 0.38542 0.0
C3035 C 0.61517 0.19506 0.37022 0.0
C3036 C 0.60001 0.18231 0.36854 0.0
C3037 C 0.62903 0.1924 0.38422 0.0
C3038 C 0.5985 0.1672 0.38144 0.0
C3039 C 0.61216 0.16453 0.39548 0.0
H3040 H 0.31977 0.07661 0.11702 0.0
H3041 H 0.34114 0.02921 0.085 0.0
H3042 H 0.36223 0.0207 0.11104 0.0
H3043 H 0.3777 0.02939 0.14096 0.0
H3044 H 0.35742 0.07779 0.17228 0.0
H3045 H 0.33288 0.08322 0.14859 0.0
C3046 C 0.32861 0.06408 0.11602 0.0
C3047 C 0.32895 0.05357 0.09915 0.0
C3048 C 0.34124 0.0597 0.13077 0.0
C3049 C 0.34067 0.03752 0.09789 0.0
C3050 C 0.35284 0.03273 0.1127 0.0
C3051 C 0.36775 0.04096 0.14271 0.0
C3052 C 0.36956 0.05331 0.1582 0.0
C3053 C 0.35379 0.04417 0.12889 0.0
C3054 C 0.35647 0.06818 0.16036 0.0
C3055 C 0.3424 0.0713 0.14683 0.0
H3056 H 0.85401 0.94061 0.33277 0.0
H3057 H 0.8855 0.9831 0.36343 0.0
H3058 H 0.86399 0.9799 0.3903 0.0
H3059 H 0.83935 0.96178 0.40663 0.0
H3060 H 0.80801 0.91888 0.37659 0.0
H3061 H 0.82613 0.9257 0.34773 0.0
C3062 C 0.85592 0.94944 0.34519 0.0
C3063 C 0.87151 0.96186 0.34625 0.0
C3064 C 0.84364 0.94733 0.36071 0.0
C3065 C 0.8737 0.97335 0.36233 0.0
C3066 C 0.86146 0.97146 0.37773 0.0
C3067 C 0.83624 0.95419 0.39364 0.0
C3068 C 0.8226 0.93968 0.39372 0.0
C3069 C 0.84686 0.958 0.37732 0.0
C3070 C 0.81847 0.9301 0.37681 0.0
C3071 C 0.82893 0.9339 0.36039 0.0
H3072 H 0.2906 0.10821 0.67108 0.0
H3073 H 0.32494 0.06712 0.64164 0.0
H3074 H 0.32074 0.08466 0.61202 0.0
H3075 H 0.31024 0.11352 0.59552 0.0
H3076 H 0.27653 0.15488 0.62537 0.0
H3077 H 0.27752 0.13532 0.6539 0.0
C3078 C 0.29692 0.10291 0.65812 0.0
C3079 C 0.30823 0.08651 0.65855 0.0
C3080 C 0.29475 0.11325 0.64132 0.0
C3081 C 0.31619 0.07971 0.64164 0.0
C3082 C 0.3139 0.08982 0.62476 0.0
C3083 C 0.30296 0.11816 0.60822 0.0
C3084 C 0.29354 0.13573 0.60845 0.0
C3085 C 0.3037 0.10691 0.62459 0.0
C3086 C 0.28398 0.14147 0.62491 0.0
C3087 C 0.28456 0.13031 0.64121 0.0
H3088 H 0.14221 0.56023 0.84139 0.0
H3089 H 0.10194 0.52615 0.87226 0.0
H3090 H 0.12239 0.52697 0.90017 0.0
H3091 H 0.15003 0.53998 0.91656 0.0
H3092 H 0.19008 0.5746 0.88602 0.0
H3093 H 0.17163 0.57053 0.85697 0.0
C3094 C 0.13798 0.55288 0.8542 0.0
C3095 C 0.12046 0.54339 0.8549 0.0
C3096 C 0.1498 0.55343 0.87015 0.0
C3097 C 0.11528 0.53367 0.87145 0.0
C3098 C 0.12697 0.53413 0.88739 0.0
C3099 C 0.15493 0.54634 0.90346 0.0
C3100 C 0.17129 0.55773 0.90345 0.0
C3101 C 0.14404 0.54431 0.88701 0.0
C3102 C 0.17755 0.56576 0.88637 0.0
C3103 C 0.1669 0.56358 0.86982 0.0
H3104 H 0.16882 0.92433 0.14112 0.0
H3105 H 0.21403 0.90077 0.17476 0.0
H3106 H 0.2217 0.8785 0.14949 0.0
H3107 H 0.21378 0.86386 0.11905 0.0
H3108 H 0.16783 0.88653 0.08578 0.0
H3109 H 0.16222 0.91093 0.10962 0.0
C3110 C 0.18059 0.91458 0.14271 0.0
C3111 C 0.19082 0.91414 0.15973 0.0
C3112 C 0.1846 0.90144 0.12831 0.0
C3113 C 0.20591 0.90131 0.16175 0.0
C3114 C 0.21026 0.88851 0.14736 0.0
C3115 C 0.20262 0.87421 0.11698 0.0
C3116 C 0.19114 0.87328 0.1008 0.0
C3117 C 0.19938 0.88812 0.1308 0.0
C3118 C 0.1768 0.88686 0.09821 0.0
C3119 C 0.17358 0.90085 0.11182 0.0
H3120 H 0.63479 0.93558 0.15733 0.0
H3121 H 0.60102 0.9771 0.12781 0.0
H3122 H 0.6221 0.97501 0.10044 0.0
H3123 H 0.64824 0.95929 0.08393 0.0
H3124 H 0.68203 0.91757 0.11308 0.0
H3125 H 0.66302 0.92209 0.14178 0.0
C3126 C 0.63216 0.9443 0.14497 0.0
C3127 C 0.61623 0.95631 0.14448 0.0
C3128 C 0.64432 0.94298 0.12927 0.0
C3129 C 0.61312 0.96768 0.12848 0.0
C3130 C 0.62515 0.96647 0.11282 0.0
C3131 C 0.65163 0.95137 0.09666 0.0
C3132 C 0.66638 0.93798 0.09637 0.0
C3133 C 0.64051 0.95386 0.11292 0.0
C3134 C 0.67074 0.92797 0.11298 0.0
C3135 C 0.65979 0.93045 0.12932 0.0
H3136 H 0.27589 0.37806 0.88585 0.0
H3137 H 0.32435 0.39541 0.91875 0.0
H3138 H 0.33062 0.42111 0.8965 0.0
H3139 H 0.32469 0.43613 0.86556 0.0
H3140 H 0.27708 0.41773 0.83208 0.0
H3141 H 0.26786 0.39541 0.85682 0.0
C3142 C 0.28766 0.38763 0.88828 0.0
C3143 C 0.29976 0.38466 0.90378 0.0
C3144 C 0.29133 0.40227 0.8753 0.0
C3145 C 0.31489 0.39727 0.90682 0.0
C3146 C 0.3185 0.412 0.8941 0.0
C3147 C 0.31197 0.42765 0.86399 0.0
C3148 C 0.30159 0.42852 0.84705 0.0
C3149 C 0.30713 0.41433 0.878 0.0
C3150 C 0.28529 0.41727 0.84503 0.0
C3151 C 0.2801 0.40439 0.8591 0.0
H3152 H 0.69597 0.10452 0.40838 0.0
H3153 H 0.72685 0.1448 0.37432 0.0
H3154 H 0.72239 0.12486 0.34638 0.0
H3155 H 0.70687 0.09775 0.33113 0.0
H3156 H 0.67647 0.05708 0.36508 0.0
H3157 H 0.68375 0.07531 0.39369 0.0
C3158 C 0.70196 0.10878 0.39488 0.0
C3159 C 0.71153 0.1262 0.39333 0.0
C3160 C 0.6993 0.09726 0.37889 0.0
C3161 C 0.71941 0.13147 0.37585 0.0
C3162 C 0.71677 0.12013 0.35986 0.0
C3163 C 0.70204 0.09276 0.34484 0.0
C3164 C 0.69095 0.07627 0.34603 0.0
C3165 C 0.7063 0.10328 0.36113 0.0
C3166 C 0.68501 0.06977 0.36385 0.0
C3167 C 0.68909 0.08024 0.38017 0.0
H3168 H 0.1374 0.88134 0.53491 0.0
H3169 H 0.16378 0.87173 0.58915 0.0
H3170 H 0.14239 0.84523 0.59518 0.0
H3171 H 0.11426 0.8266 0.58624 0.0
H3172 H 0.08712 0.83731 0.53265 0.0
H3173 H 0.11097 0.86113 0.52492 0.0
C3174 C 0.13851 0.87338 0.548 0.0
C3175 C 0.15197 0.87863 0.56165 0.0
C3176 C 0.12612 0.85821 0.55142 0.0
C3177 C 0.15339 0.86807 0.57847 0.0
C3178 C 0.14121 0.85287 0.58192 0.0
C3179 C 0.11396 0.83377 0.57266 0.0
C3180 C 0.09908 0.83021 0.55999 0.0
C3181 C 0.12731 0.84799 0.56863 0.0
C3182 C 0.09854 0.83983 0.54258 0.0
C3183 C 0.11206 0.85356 0.53823 0.0
H3184 H 0.93272 0.87088 0.82133 0.0
H3185 H 0.89568 0.8314 0.79302 0.0
H3186 H 0.87526 0.85727 0.78289 0.0
H3187 H 0.86579 0.8905 0.78529 0.0
H3188 H 0.90148 0.92998 0.81524 0.0
H3189 H 0.92465 0.90494 0.82116 0.0
C3190 C 0.92036 0.86804 0.81268 0.0
C3191 C 0.91559 0.84928 0.80812 0.0
C3192 C 0.90835 0.883 0.80724 0.0
C3193 C 0.89952 0.84574 0.79692 0.0
C3194 C 0.88782 0.86052 0.79109 0.0
C3195 C 0.87885 0.89372 0.79272 0.0
C3196 C 0.88187 0.912 0.79991 0.0
C3197 C 0.89178 0.87914 0.79663 0.0
C3198 C 0.8988 0.91595 0.80962 0.0
C3199 C 0.91201 0.90162 0.81311 0.0
H3200 H 0.87373 0.60158 0.04085 0.0
H3201 H 0.83314 0.64056 0.06462 0.0
H3202 H 0.85818 0.66375 0.07015 0.0
H3203 H 0.89208 0.67185 0.07081 0.0
H3204 H 0.93281 0.63204 0.04867 0.0
H3205 H 0.90735 0.61043 0.0398 0.0
C3206 C 0.87036 0.61526 0.04697 0.0
C3207 C 0.85167 0.61932 0.0524 0.0
C3208 C 0.8849 0.62836 0.05054 0.0
C3209 C 0.84748 0.63706 0.06042 0.0
C3210 C 0.86179 0.65033 0.06361 0.0
C3211 C 0.89532 0.65857 0.0638 0.0
C3212 C 0.91426 0.6535 0.0605 0.0
C3213 C 0.88062 0.64598 0.05913 0.0
C3214 C 0.91831 0.6362 0.05148 0.0
C3215 C 0.90377 0.62382 0.04641 0.0
H3216 H 0.07134 0.63603 0.3284 0.0
H3217 H 0.10034 0.6704 0.28706 0.0
H3218 H 0.12094 0.64387 0.27894 0.0
H3219 H 0.13297 0.61213 0.28602 0.0
H3220 H 0.10537 0.57822 0.32869 0.0
H3221 H 0.08194 0.60318 0.33377 0.0
C3222 C 0.08191 0.63753 0.31736 0.0
C3223 C 0.08442 0.6551 0.30841 0.0
C3224 C 0.09413 0.62236 0.31316 0.0
C3225 C 0.09827 0.65699 0.29423 0.0
C3226 C 0.11008 0.64186 0.28961 0.0
C3227 C 0.12167 0.61011 0.29623 0.0
C3228 C 0.12099 0.59346 0.30707 0.0
C3229 C 0.10851 0.62466 0.29937 0.0
C3230 C 0.10627 0.591 0.32026 0.0
C3231 C 0.09287 0.60527 0.32319 0.0
H3232 H 0.13827 0.11768 0.46955 0.0
H3233 H 0.17226 0.14141 0.42465 0.0
H3234 H 0.14944 0.167 0.4205 0.0
H3235 H 0.11789 0.18038 0.42691 0.0
H3236 H 0.08332 0.15585 0.47087 0.0
H3237 H 0.10837 0.13324 0.47839 0.0
C3238 C 0.1408 0.12861 0.45906 0.0
C3239 C 0.1568 0.12748 0.44727 0.0
C3240 C 0.12747 0.14321 0.45656 0.0
C3241 C 0.15995 0.14183 0.4338 0.0
C3242 C 0.1469 0.1565 0.4314 0.0
C3243 C 0.1161 0.17045 0.43849 0.0
C3244 C 0.09878 0.16972 0.44826 0.0
C3245 C 0.13034 0.15705 0.44233 0.0
C3246 C 0.09654 0.15664 0.4631 0.0
C3247 C 0.1108 0.14361 0.46733 0.0
H3248 H 0.61272 0.91168 0.69784 0.0
H3249 H 0.64925 0.87678 0.7322 0.0
H3250 H 0.62693 0.85044 0.72946 0.0
H3251 H 0.59939 0.83619 0.71367 0.0
H3252 H 0.56306 0.8709 0.67894 0.0
H3253 H 0.5828 0.89859 0.68568 0.0
C3254 C 0.61562 0.89842 0.70503 0.0
C3255 C 0.63273 0.89608 0.71499 0.0
C3256 C 0.60284 0.88328 0.70318 0.0
C3257 C 0.63621 0.87891 0.7244 0.0
C3258 C 0.6235 0.86381 0.72274 0.0
C3259 C 0.5956 0.8499 0.70786 0.0
C3260 C 0.57995 0.85147 0.69561 0.0
C3261 C 0.60713 0.86565 0.71161 0.0
C3262 C 0.57506 0.86933 0.68836 0.0
C3263 C 0.58642 0.88513 0.69212 0.0
H3264 H 0.87863 0.32154 0.92138 0.0
H3265 H 0.91636 0.34789 0.96155 0.0
H3266 H 0.89128 0.36927 0.97165 0.0
H3267 H 0.85989 0.383 0.96656 0.0
H3268 H 0.82215 0.35767 0.92579 0.0
H3269 H 0.84573 0.33335 0.91867 0.0
C3270 C 0.88119 0.33171 0.93259 0.0
C3271 C 0.89937 0.33326 0.94054 0.0
C3272 C 0.86673 0.34432 0.93814 0.0
C3273 C 0.90253 0.34655 0.95504 0.0
C3274 C 0.8882 0.35882 0.96084 0.0
C3275 C 0.85669 0.37197 0.95637 0.0
C3276 C 0.83938 0.37227 0.9466 0.0
C3277 C 0.87043 0.35824 0.95209 0.0
C3278 C 0.83543 0.35782 0.93346 0.0
C3279 C 0.84894 0.34393 0.92931 0.0
H3280 H 0.40639 0.65859 0.21321 0.0
H3281 H 0.43902 0.62611 0.17307 0.0
H3282 H 0.41893 0.5984 0.17898 0.0
H3283 H 0.38962 0.58489 0.19264 0.0
H3284 H 0.3568 0.6182 0.23205 0.0
H3285 H 0.3795 0.64409 0.2294 0.0
C3286 C 0.40933 0.64534 0.20599 0.0
C3287 C 0.42403 0.64443 0.19258 0.0
C3288 C 0.39753 0.6297 0.20916 0.0
C3289 C 0.4278 0.62715 0.18347 0.0
C3290 C 0.41621 0.61137 0.18674 0.0
C3291 C 0.38761 0.5977 0.20086 0.0
C3292 C 0.37142 0.59971 0.21234 0.0
C3293 C 0.40064 0.61269 0.19909 0.0
C3294 C 0.36906 0.61635 0.223 0.0
C3295 C 0.38202 0.63118 0.22147 0.0
H3296 H 0.04022 0.58595 0.84231 0.0
H3297 H 0.08345 0.61532 0.81065 0.0
H3298 H 0.07597 0.64472 0.82745 0.0
H3299 H 0.05988 0.66088 0.85385 0.0
H3300 H 0.01705 0.63119 0.8858 0.0
H3301 H 0.02145 0.60317 0.86597 0.0
C3302 C 0.04781 0.59887 0.83887 0.0
C3303 C 0.06253 0.59843 0.82543 0.0
C3304 C 0.04358 0.61561 0.84873 0.0
C3305 C 0.07209 0.61529 0.82096 0.0
C3306 C 0.06788 0.63207 0.83064 0.0
C3307 C 0.05126 0.64839 0.85625 0.0
C3308 C 0.03831 0.64803 0.87143 0.0
C3309 C 0.05407 0.63224 0.84496 0.0
C3310 C 0.02715 0.63181 0.87427 0.0
C3311 C 0.02974 0.61574 0.863 0.0
H3312 H 0.1602 0.78877 0.09877 0.0
H3313 H 0.12973 0.8239 0.05917 0.0
H3314 H 0.10026 0.81812 0.07652 0.0
H3315 H 0.08434 0.80683 0.10543 0.0
H3316 H 0.1152 0.77243 0.14541 0.0
H3317 H 0.14332 0.77398 0.12529 0.0
C3318 C 0.14703 0.79486 0.09371 0.0
C3319 C 0.14716 0.80695 0.07787 0.0
C3320 C 0.13029 0.79177 0.10395 0.0
C3321 C 0.13 0.81458 0.07135 0.0
C3322 C 0.11318 0.81139 0.08135 0.0
C3323 C 0.09712 0.79938 0.10957 0.0
C3324 C 0.09779 0.78976 0.12702 0.0
C3325 C 0.11332 0.80059 0.09806 0.0
C3326 C 0.11436 0.78002 0.13211 0.0
C3327 C 0.13047 0.78098 0.12064 0.0
H3328 H 0.96242 0.8704 0.39046 0.0
H3329 H 0.92076 0.83362 0.3651 0.0
H3330 H 0.91509 0.85684 0.34011 0.0
H3331 H 0.92009 0.88876 0.32697 0.0
H3332 H 0.96009 0.92628 0.35379 0.0
H3333 H 0.96857 0.90156 0.37646 0.0
C3334 C 0.95223 0.86742 0.37937 0.0
C3335 C 0.94193 0.85044 0.37969 0.0
C3336 C 0.94878 0.88097 0.36526 0.0
C3337 C 0.92876 0.84671 0.36524 0.0
C3338 C 0.92553 0.85996 0.35092 0.0
C3339 C 0.93094 0.89131 0.33754 0.0
C3340 C 0.9395 0.9092 0.33877 0.0
C3341 C 0.93522 0.87728 0.35097 0.0
C3342 C 0.95332 0.91255 0.35267 0.0
C3343 C 0.95811 0.89848 0.36566 0.0
H3344 H 0.84458 0.70105 0.59914 0.0
H3345 H 0.88037 0.66931 0.56116 0.0
H3346 H 0.9078 0.67563 0.58149 0.0
H3347 H 0.92059 0.68727 0.61179 0.0
H3348 H 0.88466 0.71936 0.64942 0.0
H3349 H 0.85823 0.71603 0.62733 0.0
C3350 C 0.85846 0.69573 0.5952 0.0
C3351 C 0.8605 0.68452 0.57888 0.0
C3352 C 0.87403 0.6994 0.60692 0.0
C3353 C 0.87852 0.67795 0.5737 0.0
C3354 C 0.89414 0.68147 0.58537 0.0
C3355 C 0.90703 0.69375 0.61501 0.0
C3356 C 0.90445 0.70333 0.6323 0.0
C3357 C 0.89192 0.69173 0.60227 0.0
C3358 C 0.88694 0.71188 0.63622 0.0
C3359 C 0.87182 0.7099 0.62365 0.0
H3360 H 0.06524 0.33795 0.13584 0.0
H3361 H 0.02603 0.37036 0.10196 0.0
H3362 H 0.02779 0.39649 0.12458 0.0
H3363 H 0.04263 0.41109 0.15229 0.0
H3364 H 0.08195 0.379 0.18627 0.0
H3365 H 0.07775 0.35155 0.16544 0.0
C3366 C 0.05695 0.35067 0.13351 0.0
C3367 C 0.0457 0.35235 0.11714 0.0
C3368 C 0.05807 0.36564 0.14656 0.0
C3369 C 0.03486 0.36879 0.1144 0.0
C3370 C 0.03589 0.38373 0.12731 0.0
C3371 C 0.0501 0.398 0.15529 0.0
C3372 C 0.06274 0.39709 0.17065 0.0
C3373 C 0.04776 0.38245 0.14318 0.0
C3374 C 0.07215 0.38001 0.17452 0.0
C3375 C 0.06984 0.36439 0.16255 0.0
H3376 H 0.33701 0.79733 0.39946 0.0
H3377 H 0.37117 0.83029 0.43786 0.0
H3378 H 0.39902 0.82507 0.41774 0.0
H3379 H 0.41278 0.81335 0.38784 0.0
H3380 H 0.3784 0.78004 0.34985 0.0
H3381 H 0.35139 0.78315 0.37129 0.0
C3382 C 0.35061 0.8032 0.40354 0.0
C3383 C 0.35207 0.81434 0.41998 0.0
C3384 C 0.3664 0.80021 0.39191 0.0
C3385 C 0.36976 0.82166 0.42526 0.0
C3386 C 0.38562 0.81878 0.41371 0.0
C3387 C 0.3994 0.80667 0.38434 0.0
C3388 C 0.39747 0.79668 0.36719 0.0
C3389 C 0.38397 0.80845 0.39677 0.0
C3390 C 0.38018 0.78786 0.36293 0.0
C3391 C 0.36474 0.78966 0.37515 0.0
H3392 H 0.93862 0.16504 0.64039 0.0
H3393 H 0.9699 0.1317 0.59981 0.0
H3394 H 0.9673 0.10395 0.62031 0.0
H3395 H 0.953 0.08842 0.64788 0.0
H3396 H 0.92188 0.12153 0.6887 0.0
H3397 H 0.92778 0.15025 0.67011 0.0
C3398 C 0.94511 0.15176 0.63619 0.0
C3399 C 0.95421 0.15032 0.6185 0.0
C3400 C 0.94348 0.13585 0.64801 0.0
C3401 C 0.96276 0.13313 0.61331 0.0
C3402 C 0.9612 0.11724 0.62499 0.0
C3403 C 0.94776 0.10198 0.65285 0.0
C3404 C 0.93681 0.10288 0.66946 0.0
C3405 C 0.95112 0.11832 0.64207 0.0
C3406 C 0.93031 0.12053 0.67592 0.0
C3407 C 0.93359 0.1369 0.66524 0.0
H3408 H 0.62196 0.71142 0.85793 0.0
H3409 H 0.58132 0.67913 0.89017 0.0
H3410 H 0.60526 0.67238 0.91417 0.0
H3411 H 0.63852 0.6733 0.92459 0.0
H3412 H 0.67953 0.70378 0.89114 0.0
H3413 H 0.65474 0.71381 0.86924 0.0
C3414 C 0.61832 0.70311 0.87033 0.0
C3415 C 0.59998 0.69569 0.87223 0.0
C3416 C 0.63226 0.69891 0.88387 0.0
C3417 C 0.59543 0.68488 0.88833 0.0
C3418 C 0.60909 0.68102 0.90207 0.0
C3419 C 0.6419 0.68242 0.9127 0.0
C3420 C 0.66075 0.68778 0.90942 0.0
C3421 C 0.62766 0.68763 0.8998 0.0
C3422 C 0.66507 0.69942 0.89386 0.0
C3423 C 0.65093 0.70512 0.88131 0.0
H3424 H 0.34794 0.53502 0.58707 0.0
H3425 H 0.3137 0.57861 0.61275 0.0
H3426 H 0.33118 0.57499 0.6425 0.0
H3427 H 0.35909 0.5626 0.65943 0.0
H3428 H 0.39357 0.51946 0.63319 0.0
H3429 H 0.37293 0.51957 0.60547 0.0
C3430 C 0.34406 0.54347 0.59931 0.0
C3431 C 0.32976 0.55724 0.5977 0.0
C3432 C 0.35434 0.54153 0.61616 0.0
C3433 C 0.32469 0.56794 0.61367 0.0
C3434 C 0.33477 0.56597 0.63062 0.0
C3435 C 0.36188 0.55297 0.64779 0.0
C3436 C 0.37801 0.54125 0.64822 0.0
C3437 C 0.35008 0.5533 0.63178 0.0
C3438 C 0.38134 0.52872 0.63314 0.0
C3439 C 0.36958 0.52882 0.61725 0.0
H3440 H 0.85098 0.4553 0.91101 0.0
H3441 H 0.81092 0.42348 0.87769 0.0
H3442 H 0.83009 0.42899 0.84922 0.0
H3443 H 0.85999 0.4401 0.83474 0.0
H3444 H 0.89988 0.47159 0.86872 0.0
H3445 H 0.87892 0.46905 0.89605 0.0
C3446 C 0.84631 0.44976 0.89746 0.0
C3447 C 0.82972 0.43881 0.89642 0.0
C3448 C 0.85745 0.4528 0.88135 0.0
C3449 C 0.82367 0.43194 0.87879 0.0
C3450 C 0.83468 0.43499 0.86257 0.0
C3451 C 0.86395 0.44661 0.84807 0.0
C3452 C 0.88156 0.45583 0.84978 0.0
C3453 C 0.85187 0.44497 0.86381 0.0
C3454 C 0.88647 0.46433 0.86707 0.0
C3455 C 0.87451 0.46285 0.88272 0.0
H3456 H 0.30377 0.60648 0.09335 0.0
H3457 H 0.26518 0.64297 0.12366 0.0
H3458 H 0.26838 0.62324 0.15186 0.0
H3459 H 0.28557 0.59849 0.16902 0.0
H3460 H 0.32454 0.56215 0.13917 0.0
H3461 H 0.31761 0.57882 0.10953 0.0
C3462 C 0.29576 0.60988 0.10602 0.0
C3463 C 0.28448 0.62632 0.10654 0.0
C3464 C 0.29792 0.59865 0.12228 0.0
C3465 C 0.27405 0.63047 0.12295 0.0
C3466 C 0.27595 0.61925 0.13911 0.0
C3467 C 0.29231 0.59403 0.15595 0.0
C3468 C 0.30576 0.57936 0.15625 0.0
C3469 C 0.28839 0.60377 0.13912 0.0
C3470 C 0.31419 0.57347 0.13924 0.0
C3471 C 0.3103 0.58306 0.12235 0.0
H3472 H 0.15171 0.0402 0.40844 0.0
H3473 H 0.18856 0.07805 0.37774 0.0
H3474 H 0.16973 0.07329 0.34901 0.0
H3475 H 0.1405 0.06158 0.33402 0.0
H3476 H 0.1037 0.02381 0.36493 0.0
H3477 H 0.12493 0.0252 0.39223 0.0
C3478 C 0.15582 0.04714 0.39535 0.0
C3479 C 0.17131 0.05965 0.3952 0.0
C3480 C 0.14482 0.04451 0.37905 0.0
C3481 C 0.17666 0.06837 0.37816 0.0
C3482 C 0.16582 0.06576 0.3618 0.0
C3483 C 0.13728 0.05345 0.34665 0.0
C3484 C 0.12043 0.04285 0.34762 0.0
C3485 C 0.1495 0.05438 0.36229 0.0
C3486 C 0.11654 0.03215 0.36392 0.0
C3487 C 0.12863 0.03299 0.37953 0.0
H3488 H 0.22087 0.36651 0.60637 0.0
H3489 H 0.18044 0.39469 0.57031 0.0
H3490 H 0.17516 0.41879 0.59456 0.0
H3491 H 0.17869 0.42917 0.62775 0.0
H3492 H 0.21739 0.39931 0.66433 0.0
H3493 H 0.22691 0.37884 0.63819 0.0
C3494 C 0.21122 0.37816 0.60367 0.0
C3495 C 0.20094 0.37872 0.58668 0.0
C3496 C 0.20782 0.39163 0.61789 0.0
C3497 C 0.18844 0.39387 0.58337 0.0
C3498 C 0.18536 0.40764 0.59725 0.0
C3499 C 0.18955 0.4185 0.6298 0.0
C3500 C 0.19726 0.41564 0.64789 0.0
C3501 C 0.19447 0.40629 0.61483 0.0
C3502 C 0.21118 0.40165 0.65049 0.0
C3503 C 0.21659 0.3899 0.63558 0.0
H3504 H 0.67774 0.43025 0.61299 0.0
H3505 H 0.64477 0.4642 0.57437 0.0
H3506 H 0.62379 0.47372 0.60007 0.0
H3507 H 0.61275 0.46974 0.63266 0.0
H3508 H 0.64423 0.43422 0.67108 0.0
H3509 H 0.6679 0.42819 0.64653 0.0
C3510 C 0.66615 0.43998 0.61033 0.0
C3511 C 0.66271 0.44641 0.59182 0.0
C3512 C 0.65377 0.44502 0.62514 0.0
C3513 C 0.64759 0.45892 0.5885 0.0
C3514 C 0.63557 0.46438 0.60318 0.0
C3515 C 0.62498 0.46098 0.63577 0.0
C3516 C 0.62669 0.45238 0.65361 0.0
C3517 C 0.63821 0.45712 0.62144 0.0
C3518 C 0.64256 0.44095 0.6574 0.0
C3519 C 0.65607 0.43744 0.64335 0.0
H3520 H 0.28345 0.86112 0.38781 0.0
H3521 H 0.31141 0.89727 0.42832 0.0
H3522 H 0.31726 0.92085 0.40367 0.0
H3523 H 0.31822 0.9291 0.36974 0.0
H3524 H 0.29217 0.89161 0.32918 0.0
H3525 H 0.28162 0.8708 0.35463 0.0
C3526 C 0.29044 0.87434 0.39132 0.0
C3527 C 0.29713 0.87739 0.40977 0.0
C3528 C 0.29431 0.88752 0.37698 0.0
C3529 C 0.30623 0.89456 0.41414 0.0
C3530 C 0.30965 0.90801 0.40004 0.0
C3531 C 0.30992 0.91658 0.36657 0.0
C3532 C 0.30614 0.91176 0.34767 0.0
C3533 C 0.30435 0.90434 0.38127 0.0
C3534 C 0.29543 0.89547 0.34366 0.0
C3535 C 0.28939 0.88356 0.35819 0.0
H3536 H 0.67858 0.56484 0.86682 0.0
H3537 H 0.72109 0.58911 0.83028 0.0
H3538 H 0.7321 0.60938 0.85598 0.0
H3539 H 0.72633 0.62365 0.88711 0.0
H3540 H 0.68269 0.60062 0.92316 0.0
H3541 H 0.67564 0.57634 0.8996 0.0
C3542 C 0.69059 0.57418 0.86469 0.0
C3543 C 0.69888 0.57564 0.84668 0.0
C3544 C 0.69647 0.58626 0.87938 0.0
C3545 C 0.71437 0.58787 0.84402 0.0
C3546 C 0.72063 0.59953 0.85868 0.0
C3547 C 0.71556 0.61307 0.88997 0.0
C3548 C 0.70487 0.6141 0.9067 0.0
C3549 C 0.71127 0.59941 0.87616 0.0
C3550 C 0.69101 0.60025 0.91026 0.0
C3551 C 0.68692 0.58637 0.89678 0.0
H3552 H 0.66485 0.36198 0.55203 0.0
H3553 H 0.63466 0.39989 0.51479 0.0
H3554 H 0.60711 0.37897 0.51558 0.0
H3555 H 0.5903 0.35236 0.53024 0.0
H3556 H 0.62005 0.31454 0.56784 0.0
H3557 H 0.64924 0.33277 0.56325 0.0
C3558 C 0.65235 0.36548 0.54381 0.0
C3559 C 0.65169 0.38261 0.53357 0.0
C3560 C 0.63648 0.35347 0.5445 0.0
C3561 C 0.6355 0.38686 0.52284 0.0
C3562 C 0.61971 0.37494 0.52336 0.0
C3563 C 0.60329 0.34788 0.53714 0.0
C3564 C 0.60301 0.33228 0.54954 0.0
C3565 C 0.61984 0.35858 0.53465 0.0
C3566 C 0.61993 0.32649 0.55822 0.0
C3567 C 0.63656 0.33702 0.55571 0.0
H3568 H 0.4236 0.36909 0.82753 0.0
H3569 H 0.40141 0.33612 0.78123 0.0
H3570 H 0.37966 0.36173 0.77297 0.0
H3571 H 0.36444 0.39187 0.78122 0.0
H3572 H 0.38511 0.42393 0.82893 0.0
H3573 H 0.40986 0.40042 0.83435 0.0
C3574 C 0.41437 0.36781 0.81533 0.0
C3575 C 0.4141 0.35088 0.80494 0.0
C3576 C 0.40133 0.38227 0.81116 0.0
C3577 C 0.40183 0.34912 0.78938 0.0
C3578 C 0.38931 0.36368 0.78474 0.0
C3579 C 0.37448 0.39378 0.79267 0.0
C3580 C 0.37282 0.40948 0.80476 0.0
C3581 C 0.3885 0.38005 0.79592 0.0
C3582 C 0.38597 0.41183 0.81953 0.0
C3583 C 0.40017 0.39843 0.82263 0.0
H3584 H 0.39351 0.17087 0.08597 0.0
H3585 H 0.41468 0.16504 0.02899 0.0
H3586 H 0.38815 0.14442 0.02091 0.0
H3587 H 0.36137 0.12481 0.0312 0.0
H3588 H 0.3407 0.12969 0.08848 0.0
H3589 H 0.36454 0.1538 0.0953 0.0
C3590 C 0.39196 0.16553 0.07165 0.0
C3591 C 0.40601 0.16939 0.05811 0.0
C3592 C 0.377 0.15314 0.06728 0.0
C3593 C 0.40401 0.16221 0.03965 0.0
C3594 C 0.38894 0.1503 0.03507 0.0
C3595 C 0.362 0.13128 0.04512 0.0
C3596 C 0.34951 0.12529 0.05938 0.0
C3597 C 0.37578 0.14508 0.04897 0.0
C3598 C 0.35029 0.13396 0.07729 0.0
C3599 C 0.36391 0.14777 0.08121 0.0
H3600 H 0.59201 0.14938 0.28156 0.0
H3601 H 0.55846 0.11983 0.32319 0.0
H3602 H 0.57747 0.09122 0.31837 0.0
H3603 H 0.60673 0.07661 0.30616 0.0
H3604 H 0.641 0.10699 0.26565 0.0
H3605 H 0.61852 0.13328 0.2661 0.0
C3606 C 0.58856 0.13653 0.28926 0.0
C3607 C 0.57403 0.13676 0.3029 0.0
C3608 C 0.59989 0.12042 0.28684 0.0
C3609 C 0.56958 0.12 0.31262 0.0
C3610 C 0.58058 0.10371 0.31 0.0
C3611 C 0.6091 0.08884 0.29717 0.0
C3612 C 0.62567 0.09001 0.28612 0.0
C3613 C 0.59627 0.10405 0.29776 0.0
C3614 C 0.62845 0.10583 0.27441 0.0
C3615 C 0.61562 0.12089 0.27469 0.0
H3616 H 0.61717 0.67906 0.42592 0.0
H3617 H 0.57932 0.6444 0.45903 0.0
H3618 H 0.60498 0.62227 0.46584 0.0
H3619 H 0.63745 0.61121 0.46002 0.0
H3620 H 0.67488 0.64488 0.4254 0.0
H3621 H 0.65029 0.66889 0.42163 0.0
C3622 C 0.61469 0.66685 0.4349 0.0
C3623 C 0.59642 0.66333 0.44192 0.0
C3624 C 0.6294 0.65385 0.43832 0.0
C3625 C 0.59328 0.64735 0.45338 0.0
C3626 C 0.60793 0.63466 0.45725 0.0
C3627 C 0.64027 0.62391 0.45185 0.0
C3628 C 0.65789 0.6262 0.44292 0.0
C3629 C 0.62593 0.63751 0.44942 0.0
C3630 C 0.66135 0.64271 0.43232 0.0
C3631 C 0.6473 0.65647 0.43015 0.0
H3632 H 0.1325 0.3882 0.72042 0.0
H3633 H 0.1103 0.42028 0.67342 0.0
H3634 H 0.08456 0.39751 0.6697 0.0
H3635 H 0.07094 0.36622 0.67703 0.0
H3636 H 0.09454 0.33326 0.72265 0.0
H3637 H 0.11676 0.35872 0.72999 0.0
C3638 C 0.12185 0.39036 0.70958 0.0
C3639 C 0.12346 0.40575 0.69708 0.0
C3640 C 0.10729 0.377 0.70726 0.0
C3641 C 0.1095 0.40842 0.68312 0.0
C3642 C 0.09476 0.3954 0.68097 0.0
C3643 C 0.08055 0.36493 0.68894 0.0
C3644 C 0.08116 0.34796 0.69929 0.0
C3645 C 0.09383 0.37932 0.69258 0.0
C3646 C 0.09387 0.34625 0.7145 0.0
C3647 C 0.10667 0.36073 0.71861 0.0
H3648 H 0.33194 0.86034 0.9368 0.0
H3649 H 0.36395 0.89521 0.97545 0.0
H3650 H 0.38995 0.8724 0.97476 0.0
H3651 H 0.40501 0.84482 0.9601 0.0
H3652 H 0.37348 0.81003 0.92106 0.0
H3653 H 0.34563 0.83032 0.9253 0.0
C3654 C 0.3445 0.86279 0.94528 0.0
C3655 C 0.34617 0.87957 0.95593 0.0
C3656 C 0.35945 0.84967 0.94471 0.0
C3657 C 0.36239 0.88247 0.96704 0.0
C3658 C 0.37728 0.86946 0.96662 0.0
C3659 C 0.39192 0.84145 0.95281 0.0
C3660 C 0.39132 0.82612 0.94011 0.0
C3661 C 0.37618 0.85334 0.95505 0.0
C3662 C 0.37425 0.82177 0.93091 0.0
C3663 C 0.3584 0.83346 0.93321 0.0
H3664 H 0.89828 0.1672 0.20352 0.0
H3665 H 0.93746 0.13645 0.16815 0.0
H3666 H 0.91987 0.10707 0.17403 0.0
H3667 H 0.89167 0.09098 0.18689 0.0
H3668 H 0.85277 0.122 0.22243 0.0
H3669 H 0.87208 0.15051 0.21895 0.0
C3670 C 0.90308 0.15402 0.19725 0.0
C3671 C 0.91897 0.15396 0.18523 0.0
C3672 C 0.89291 0.13733 0.20065 0.0
C3673 C 0.92524 0.1368 0.17742 0.0
C3674 C 0.91513 0.12006 0.18071 0.0
C3675 C 0.88754 0.10394 0.19404 0.0
C3676 C 0.87071 0.10448 0.20473 0.0
C3677 C 0.89869 0.12027 0.19193 0.0
C3678 C 0.86563 0.12126 0.21409 0.0
C3679 C 0.87662 0.13757 0.21205 0.0
H3680 H 0.5711 0.15896 0.85771 0.0
H3681 H 0.54058 0.12619 0.89932 0.0
H3682 H 0.54367 0.09792 0.8796 0.0
H3683 H 0.55676 0.0822 0.85165 0.0
H3684 H 0.58693 0.11472 0.80965 0.0
H3685 H 0.58202 0.1436 0.82831 0.0
C3686 C 0.56505 0.14564 0.86239 0.0
C3687 C 0.55582 0.14457 0.88003 0.0
C3688 C 0.5668 0.12949 0.85094 0.0
C3689 C 0.54782 0.12732 0.88584 0.0
C3690 C 0.5496 0.11117 0.87459 0.0
C3691 C 0.56211 0.09565 0.84648 0.0
C3692 C 0.57234 0.09636 0.82942 0.0
C3693 C 0.5593 0.11204 0.85728 0.0
C3694 C 0.57901 0.11387 0.82276 0.0
C3695 C 0.5763 0.13032 0.83347 0.0
H3696 H 0.61793 0.28554 0.13737 0.0
H3697 H 0.58532 0.3344 0.12053 0.0
H3698 H 0.6082 0.34139 0.09556 0.0
H3699 H 0.63889 0.33511 0.08021 0.0
H3700 H 0.67207 0.28706 0.09814 0.0
H3701 H 0.64746 0.27807 0.12067 0.0
C3702 C 0.61578 0.29763 0.12814 0.0
C3703 C 0.60008 0.30951 0.1309 0.0
C3704 C 0.62908 0.30169 0.11394 0.0
C3705 C 0.59739 0.32509 0.11878 0.0
C3706 C 0.61045 0.3291 0.10447 0.0
C3707 C 0.64049 0.32246 0.08877 0.0
C3708 C 0.65722 0.31177 0.08756 0.0
C3709 C 0.62652 0.31768 0.10212 0.0
C3710 C 0.65929 0.29553 0.09888 0.0
C3711 C 0.64528 0.29042 0.11183 0.0
H3712 H 0.46754 0.35123 0.37251 0.0
H3713 H 0.41536 0.32315 0.35761 0.0
H3714 H 0.41004 0.34594 0.3322 0.0
H3715 H 0.41819 0.37612 0.31687 0.0
H3716 H 0.46994 0.40464 0.33236 0.0
H3717 H 0.47767 0.37922 0.35444 0.0
C3718 C 0.45514 0.34998 0.36354 0.0
C3719 C 0.44173 0.33572 0.36713 0.0
C3720 C 0.45208 0.36322 0.349 0.0
C3721 C 0.42583 0.33412 0.35526 0.0
C3722 C 0.42275 0.34715 0.34071 0.0
C3723 C 0.43142 0.37648 0.32468 0.0
C3724 C 0.44339 0.39229 0.32311 0.0
C3725 C 0.43552 0.36207 0.33778 0.0
C3726 C 0.46043 0.39264 0.33339 0.0
C3727 C 0.46481 0.37818 0.34614 0.0
H3728 H 0.34045 0.2102 0.59879 0.0
H3729 H 0.36701 0.16569 0.56643 0.0
H3730 H 0.39609 0.16938 0.58497 0.0
H3731 H 0.41257 0.18303 0.61253 0.0
H3732 H 0.38552 0.22722 0.64501 0.0
H3733 H 0.35794 0.22589 0.62421 0.0
C3734 C 0.3527 0.20149 0.59559 0.0
C3735 C 0.35157 0.18757 0.58141 0.0
C3736 C 0.36915 0.20348 0.60648 0.0
C3737 C 0.36758 0.17651 0.57729 0.0
C3738 C 0.38413 0.17852 0.58798 0.0
C3739 C 0.4007 0.19248 0.61494 0.0
C3740 C 0.40095 0.20504 0.63041 0.0
C3741 C 0.38486 0.19159 0.60296 0.0
C3742 C 0.3856 0.21735 0.63326 0.0
C3743 C 0.36983 0.21659 0.62139 0.0
H3744 H 0.52773 0.86596 0.11276 0.0
H3745 H 0.57052 0.8302 0.13771 0.0
H3746 H 0.57657 0.85403 0.16205 0.0
H3747 H 0.57216 0.88652 0.17406 0.0
H3748 H 0.53038 0.92265 0.14797 0.0
H3749 H 0.5213 0.89716 0.12652 0.0
C3750 C 0.53818 0.86327 0.12369 0.0
C3751 C 0.54878 0.84644 0.12332 0.0
C3752 C 0.54183 0.87717 0.13742 0.0
C3753 C 0.56224 0.84311 0.13761 0.0
C3754 C 0.56574 0.85675 0.15152 0.0
C3755 C 0.5608 0.88864 0.16394 0.0
C3756 C 0.55204 0.90645 0.1625 0.0
C3757 C 0.55598 0.87405 0.15127 0.0
C3758 C 0.53742 0.90908 0.14926 0.0
C3759 C 0.53225 0.89453 0.13694 0.0
H3760 H 0.86427 0.32329 0.42998 0.0
H3761 H 0.82529 0.28862 0.39825 0.0
H3762 H 0.8509 0.27799 0.37768 0.0
H3763 H 0.88342 0.28152 0.3663 0.0
H3764 H 0.92221 0.31781 0.39642 0.0
H3765 H 0.89786 0.32462 0.42008 0.0
C3766 C 0.86154 0.31312 0.4188 0.0
C3767 C 0.84295 0.30684 0.41553 0.0
C3768 C 0.87628 0.30749 0.4066 0.0
C3769 C 0.8395 0.29377 0.40092 0.0
C3770 C 0.85412 0.2877 0.38913 0.0
C3771 C 0.88666 0.29062 0.37825 0.0
C3772 C 0.90452 0.29924 0.37953 0.0
C3773 C 0.87244 0.29491 0.39146 0.0
C3774 C 0.9085 0.31106 0.39506 0.0
C3775 C 0.89456 0.31502 0.40857 0.0
H3776 H 0.46499 0.64081 0.60926 0.0
H3777 H 0.4342 0.67976 0.64483 0.0
H3778 H 0.42843 0.65457 0.66787 0.0
H3779 H 0.42893 0.62053 0.676 0.0
H3780 H 0.45818 0.58156 0.63912 0.0
H3781 H 0.46783 0.6076 0.61866 0.0
C3782 C 0.45737 0.64387 0.62224 0.0
C3783 C 0.44994 0.66206 0.62528 0.0
C3784 C 0.4536 0.62921 0.63512 0.0
C3785 C 0.43999 0.66581 0.64213 0.0
C3786 C 0.43661 0.6514 0.65528 0.0
C3787 C 0.43767 0.61784 0.66366 0.0
C3788 C 0.44266 0.59917 0.65896 0.0
C3789 C 0.44283 0.63289 0.65164 0.0
C3790 C 0.45396 0.59582 0.64291 0.0
C3791 C 0.45951 0.6107 0.63119 0.0
H3792 H 0.08718 0.1856 0.89222 0.0
H3793 H 0.11302 0.22772 0.85621 0.0
H3794 H 0.14224 0.22578 0.87458 0.0
H3795 H 0.1615 0.20941 0.89832 0.0
H3796 H 0.13604 0.16734 0.93452 0.0
H3797 H 0.10544 0.17215 0.91881 0.0
C3798 C 0.09912 0.19457 0.8886 0.0
C3799 C 0.09805 0.2066 0.87272 0.0
C3800 C 0.11593 0.19329 0.89916 0.0
C3801 C 0.11352 0.21829 0.8683 0.0
C3802 C 0.13026 0.21713 0.87875 0.0
C3803 C 0.14917 0.20151 0.90296 0.0
C3804 C 0.151 0.18787 0.91734 0.0
C3805 C 0.13178 0.20427 0.89381 0.0
C3806 C 0.13492 0.1779 0.92345 0.0
C3807 C 0.11749 0.18057 0.91439 0.0
H3808 H 0.85454 0.06058 0.66391 0.0
H3809 H 0.89181 0.02094 0.63605 0.0
H3810 H 0.8712 0.02091 0.60823 0.0
H3811 H 0.84513 0.03546 0.59044 0.0
H3812 H 0.80849 0.07594 0.61791 0.0
H3813 H 0.82613 0.07206 0.64745 0.0
C3814 C 0.85799 0.05169 0.65187 0.0
C3815 C 0.87481 0.04099 0.6519 0.0
C3816 C 0.84625 0.05199 0.63584 0.0
C3817 C 0.87899 0.02938 0.63631 0.0
C3818 C 0.86726 0.02942 0.62038 0.0
C3819 C 0.84077 0.04315 0.603 0.0
C3820 C 0.82569 0.05616 0.60195 0.0
C3821 C 0.85122 0.04116 0.61977 0.0
C3822 C 0.82009 0.0659 0.61835 0.0
C3823 C 0.83025 0.06378 0.6352 0.0
H3824 H 0.34855 0.96237 0.91049 0.0
H3825 H 0.31339 0.92377 0.87882 0.0
H3826 H 0.33291 0.92903 0.85058 0.0
H3827 H 0.36224 0.94153 0.83633 0.0
H3828 H 0.39759 0.9796 0.86855 0.0
H3829 H 0.37556 0.97776 0.89516 0.0
C3830 C 0.34497 0.95533 0.89731 0.0
C3831 C 0.32974 0.94251 0.89675 0.0
C3832 C 0.35638 0.95821 0.88133 0.0
C3833 C 0.32508 0.93368 0.87957 0.0
C3834 C 0.33631 0.93659 0.86349 0.0
C3835 C 0.36497 0.94966 0.84908 0.0
C3836 C 0.38166 0.96049 0.85059 0.0
C3837 C 0.35236 0.94834 0.86441 0.0
C3838 C 0.38491 0.97108 0.86709 0.0
C3839 C 0.37236 0.96998 0.88233 0.0
H3840 H 0.79631 0.1032 0.16554 0.0
H3841 H 0.83139 0.065 0.13319 0.0
H3842 H 0.82765 0.0851 0.1052 0.0
H3843 H 0.81682 0.11498 0.09092 0.0
H3844 H 0.78216 0.15332 0.12358 0.0
H3845 H 0.78339 0.13168 0.15057 0.0
C3846 C 0.80291 0.0991 0.15229 0.0
C3847 C 0.81422 0.08272 0.15145 0.0
C3848 C 0.801 0.11088 0.13643 0.0
C3849 C 0.8226 0.07754 0.13417 0.0
C3850 C 0.82058 0.0891 0.11822 0.0
C3851 C 0.80946 0.11855 0.10392 0.0
C3852 C 0.79961 0.13582 0.10537 0.0
C3853 C 0.81023 0.10605 0.11935 0.0
C3854 C 0.78993 0.14016 0.12218 0.0
C3855 C 0.79062 0.1278 0.1376 0.0
H3856 H 0.63823 0.56606 0.33525 0.0
H3857 H 0.61045 0.52144 0.36649 0.0
H3858 H 0.63455 0.5234 0.39114 0.0
H3859 H 0.6609 0.54056 0.40568 0.0
H3860 H 0.68874 0.5854 0.37498 0.0
H3861 H 0.66749 0.58034 0.34802 0.0
C3862 C 0.63764 0.55658 0.34732 0.0
C3863 C 0.62242 0.54384 0.34923 0.0
C3864 C 0.6515 0.55787 0.36153 0.0
C3865 C 0.62194 0.53147 0.36479 0.0
C3866 C 0.63569 0.53261 0.37891 0.0
C3867 C 0.66255 0.54896 0.39292 0.0
C3868 C 0.67615 0.56348 0.39234 0.0
C3869 C 0.65014 0.54616 0.37771 0.0
C3870 C 0.67836 0.57413 0.3757 0.0
C3871 C 0.6661 0.57135 0.36038 0.0
H3872 H 0.68349 0.9178 0.63787 0.0
H3873 H 0.7147 0.88378 0.67785 0.0
H3874 H 0.72342 0.86167 0.65278 0.0
H3875 H 0.71971 0.85036 0.62014 0.0
H3876 H 0.68689 0.88326 0.58051 0.0
H3877 H 0.68143 0.90744 0.60462 0.0
C3878 C 0.69244 0.90571 0.64098 0.0
C3879 C 0.69835 0.90235 0.65965 0.0
C3880 C 0.69701 0.89274 0.62656 0.0
C3881 C 0.70985 0.88657 0.66357 0.0
C3882 C 0.71484 0.87391 0.64925 0.0
C3883 C 0.71162 0.86297 0.61672 0.0
C3884 C 0.70364 0.86498 0.59864 0.0
C3885 C 0.70813 0.87659 0.63079 0.0
C3886 C 0.69309 0.88133 0.59441 0.0
C3887 C 0.68994 0.89517 0.60819 0.0
H3888 H 0.14172 0.94574 0.6634 0.0
H3889 H 0.10831 0.98703 0.63316 0.0
H3890 H 0.13097 0.98654 0.60706 0.0
H3891 H 0.15716 0.97058 0.59087 0.0
H3892 H 0.1901 0.92849 0.6204 0.0
H3893 H 0.17108 0.93345 0.64897 0.0
C3894 C 0.13961 0.9549 0.65126 0.0
C3895 C 0.12318 0.96613 0.65003 0.0
C3896 C 0.15258 0.95433 0.63617 0.0
C3897 C 0.12074 0.97811 0.63435 0.0
C3898 C 0.13367 0.9778 0.61939 0.0
C3899 C 0.1605 0.96286 0.60373 0.0
C3900 C 0.1748 0.94901 0.6035 0.0
C3901 C 0.14919 0.96542 0.61985 0.0
C3902 C 0.17915 0.93924 0.62026 0.0
C3903 C 0.16813 0.94193 0.63652 0.0
H3904 H 0.80427 0.39409 0.41488 0.0
H3905 H 0.76923 0.3552 0.38335 0.0
H3906 H 0.77167 0.37541 0.35539 0.0
H3907 H 0.78718 0.40178 0.33891 0.0
H3908 H 0.82224 0.44078 0.37017 0.0
H3909 H 0.81616 0.42304 0.39937 0.0
C3910 C 0.79688 0.39023 0.40198 0.0
C3911 C 0.7868 0.37304 0.40108 0.0
C3912 C 0.79849 0.40185 0.38591 0.0
C3913 C 0.77713 0.36831 0.38437 0.0
C3914 C 0.77861 0.37981 0.36835 0.0
C3915 C 0.79321 0.40658 0.35219 0.0
C3916 C 0.80534 0.42238 0.3524 0.0
C3917 C 0.78977 0.39625 0.3688 0.0
C3918 C 0.81288 0.42863 0.36969 0.0
C3919 C 0.8095 0.41842 0.38634 0.0
H3920 H 0.21347 0.0854 0.84192 0.0
H3921 H 0.16994 0.05682 0.87384 0.0
H3922 H 0.1759 0.0777 0.9009 0.0
H3923 H 0.18982 0.10733 0.91319 0.0
H3924 H 0.23233 0.13649 0.8803 0.0
H3925 H 0.23048 0.11209 0.85591 0.0
C3926 C 0.20561 0.08343 0.85499 0.0
C3927 C 0.19113 0.06979 0.85585 0.0
C3928 C 0.20869 0.09584 0.87015 0.0
C3929 C 0.18118 0.06722 0.87287 0.0
C3930 C 0.18443 0.07931 0.88825 0.0
C3931 C 0.1989 0.10816 0.90083 0.0
C3932 C 0.21095 0.12387 0.89838 0.0
C3933 C 0.19756 0.0942 0.88671 0.0
C3934 C 0.22279 0.12466 0.88242 0.0
C3935 C 0.22173 0.11072 0.86845 0.0
H3936 H 0.58632 0.84755 0.03426 0.0
H3937 H 0.61598 0.81202 0.07408 0.0
H3938 H 0.64508 0.8302 0.06881 0.0
H3939 H 0.6606 0.85887 0.05615 0.0
H3940 H 0.63033 0.89458 0.01684 0.0
H3941 H 0.60296 0.87354 0.01851 0.0
C3942 C 0.59926 0.84355 0.04151 0.0
C3943 C 0.599 0.82865 0.05471 0.0
C3944 C 0.61573 0.85425 0.03866 0.0
C3945 C 0.61586 0.82345 0.06385 0.0
C3946 C 0.63244 0.83395 0.06096 0.0
C3947 C 0.64812 0.86186 0.04771 0.0
C3948 C 0.64737 0.87842 0.0366 0.0
C3949 C 0.63233 0.8498 0.04891 0.0
C3950 C 0.6312 0.88202 0.02561 0.0
C3951 C 0.61553 0.87002 0.02659 0.0
H3952 H 0.36974 0.88641 0.27973 0.0
H3953 H 0.39409 0.92061 0.3241 0.0
H3954 H 0.4185 0.89672 0.32948 0.0
H3955 H 0.43043 0.86432 0.32434 0.0
H3956 H 0.40504 0.82966 0.28095 0.0
H3957 H 0.38387 0.85553 0.27224 0.0
C3958 C 0.38059 0.88878 0.29033 0.0
C3959 C 0.37996 0.90515 0.30163 0.0
C3960 C 0.39439 0.87481 0.29362 0.0
C3961 C 0.39416 0.90804 0.3153 0.0
C3962 C 0.40812 0.89437 0.31842 0.0
C3963 C 0.42058 0.86263 0.31268 0.0
C3964 C 0.4192 0.84508 0.30341 0.0
C3965 C 0.40804 0.87742 0.30807 0.0
C3966 C 0.40628 0.84302 0.2884 0.0
C3967 C 0.3941 0.85778 0.28344 0.0
H3968 H 0.3369 0.63847 0.55775 0.0
H3969 H 0.37372 0.60162 0.5257 0.0
H3970 H 0.39968 0.62408 0.52926 0.0
H3971 H 0.41272 0.65252 0.54389 0.0
H3972 H 0.37658 0.68973 0.57611 0.0
H3973 H 0.34941 0.66895 0.56983 0.0
C3974 C 0.35054 0.6355 0.55135 0.0
C3975 C 0.35344 0.6183 0.54165 0.0
C3976 C 0.36551 0.64848 0.55354 0.0
C3977 C 0.37114 0.61468 0.53332 0.0
C3978 C 0.38602 0.6275 0.53538 0.0
C3979 C 0.39884 0.65622 0.54935 0.0
C3980 C 0.39664 0.67248 0.56061 0.0
C3981 C 0.38348 0.64419 0.54583 0.0
C3982 C 0.37858 0.67727 0.56739 0.0
C3983 C 0.3631 0.66532 0.56391 0.0
H3984 H 0.57403 0.63518 0.82966 0.0
H3985 H 0.59204 0.6655 0.77984 0.0
H3986 H 0.61364 0.63973 0.77157 0.0
H3987 H 0.63008 0.61044 0.78054 0.0
H3988 H 0.61374 0.58118 0.83163 0.0
H3989 H 0.5889 0.60457 0.83739 0.0
C3990 C 0.5823 0.63584 0.81673 0.0
C3991 C 0.58143 0.65209 0.80531 0.0
C3992 C 0.59529 0.62133 0.81251 0.0
C3993 C 0.59248 0.65303 0.78879 0.0
C3994 C 0.60492 0.63839 0.78414 0.0
C3995 C 0.62095 0.60908 0.79282 0.0
C3996 C 0.62387 0.59422 0.80572 0.0
C3997 C 0.60691 0.62277 0.79623 0.0
C3998 C 0.61189 0.5926 0.82155 0.0
C3999 C 0.59765 0.60595 0.82485 0.0
H4000 H 0.59995 0.16866 0.96046 0.0
H4001 H 0.62248 0.19068 0.90812 0.0
H4002 H 0.65076 0.17098 0.91184 0.0
H4003 H 0.66625 0.14373 0.92722 0.0
H4004 H 0.64265 0.12086 0.97877 0.0
H4005 H 0.61761 0.14468 0.97812 0.0
C4006 C 0.61128 0.16952 0.95011 0.0
C4007 C 0.60904 0.18089 0.93391 0.0
C4008 C 0.6271 0.1577 0.952 0.0
C4009 C 0.62387 0.18202 0.92071 0.0
C4010 C 0.63994 0.17059 0.92272 0.0
C4011 C 0.6558 0.14416 0.93847 0.0
C4012 C 0.65608 0.13035 0.95284 0.0
C4013 C 0.64127 0.15775 0.93786 0.0
C4014 C 0.64261 0.13121 0.96745 0.0
C4015 C 0.62828 0.14482 0.96708 0.0
H4016 H 0.10897 0.91349 0.19064 0.0
H4017 H 0.14398 0.88085 0.22863 0.0
H4018 H 0.12377 0.85317 0.22379 0.0
H4019 H 0.09823 0.83748 0.20625 0.0
H4020 H 0.06275 0.86998 0.16867 0.0
H4021 H 0.08096 0.89863 0.176 0.0
C4022 C 0.112 0.90038 0.19807 0.0
C4023 C 0.12807 0.89912 0.2098 0.0
C4024 C 0.10034 0.88453 0.19518 0.0
C4025 C 0.13172 0.88215 0.21951 0.0
C4026 C 0.12023 0.8663 0.21667 0.0
C4027 C 0.09436 0.8509 0.19984 0.0
C4028 C 0.07938 0.85165 0.18675 0.0
C4029 C 0.10484 0.86721 0.20414 0.0
C4030 C 0.07426 0.86911 0.17876 0.0
C4031 C 0.08473 0.88544 0.18288 0.0
H4032 H 0.33221 0.34943 0.43979 0.0
H4033 H 0.36406 0.38721 0.47572 0.0
H4034 H 0.39167 0.36646 0.47334 0.0
H4035 H 0.40784 0.34009 0.45748 0.0
H4036 H 0.37624 0.3024 0.42129 0.0
H4037 H 0.34727 0.32041 0.4276 0.0
C4038 C 0.3451 0.35293 0.44737 0.0
C4039 C 0.34622 0.36996 0.45767 0.0
C4040 C 0.36094 0.34103 0.44578 0.0
C4041 C 0.36289 0.37423 0.46763 0.0
C4042 C 0.3787 0.36242 0.46619 0.0
C4043 C 0.39452 0.33561 0.45128 0.0
C4044 C 0.39417 0.32014 0.43873 0.0
C4045 C 0.37806 0.34616 0.45477 0.0
C4046 C 0.37684 0.31429 0.43097 0.0
C4047 C 0.36032 0.32467 0.43447 0.0
H4048 H 0.86067 0.61355 0.71253 0.0
H4049 H 0.87933 0.58339 0.66276 0.0
H4050 H 0.9059 0.60518 0.65914 0.0
H4051 H 0.9227 0.63411 0.66889 0.0
H4052 H 0.90332 0.6649 0.71794 0.0
H4053 H 0.87851 0.6414 0.72331 0.0
C4054 C 0.87058 0.61174 0.70093 0.0
C4055 C 0.86792 0.59701 0.68785 0.0
C4056 C 0.88584 0.62436 0.69889 0.0
C4057 C 0.88098 0.59472 0.67297 0.0
C4058 C 0.89623 0.60714 0.6709 0.0
C4059 C 0.91331 0.63539 0.68099 0.0
C4060 C 0.91483 0.65113 0.69303 0.0
C4061 C 0.89869 0.62214 0.68365 0.0
C4062 C 0.9024 0.65284 0.70849 0.0
C4063 C 0.88814 0.63949 0.7115 0.0
H4064 H 0.52719 0.63811 0.38834 0.0
H4065 H 0.56511 0.67522 0.35806 0.0
H4066 H 0.57067 0.65067 0.33434 0.0
H4067 H 0.5681 0.61714 0.32467 0.0
H4068 H 0.53151 0.57979 0.35625 0.0
H4069 H 0.5219 0.60588 0.37671 0.0
C4070 C 0.53634 0.64096 0.37633 0.0
C4071 C 0.54586 0.65836 0.37507 0.0
C4072 C 0.53988 0.62661 0.36302 0.0
C4073 C 0.55771 0.66185 0.35943 0.0
C4074 C 0.56095 0.6478 0.34588 0.0
C4075 C 0.55771 0.61488 0.33575 0.0
C4076 C 0.55067 0.59659 0.33909 0.0
C4077 C 0.55263 0.62988 0.34788 0.0
C4078 C 0.53728 0.59376 0.35356 0.0
C4079 C 0.53179 0.60865 0.36529 0.0
H4080 H 0.63776 0.82274 0.57566 0.0
H4081 H 0.66981 0.77764 0.6015 0.0
H4082 H 0.64426 0.77202 0.62413 0.0
H4083 H 0.61424 0.782 0.63854 0.0
H4084 H 0.58286 0.82819 0.61373 0.0
H4085 H 0.60663 0.83133 0.58883 0.0
C4086 C 0.63891 0.8114 0.58596 0.0
C4087 C 0.65557 0.80061 0.58694 0.0
C4088 C 0.62442 0.80867 0.59935 0.0
C4089 C 0.65706 0.78614 0.60052 0.0
C4090 C 0.64252 0.78298 0.61353 0.0
C4091 C 0.61255 0.79264 0.62759 0.0
C4092 C 0.59693 0.80494 0.62809 0.0
C4093 C 0.62638 0.79452 0.61342 0.0
C4094 C 0.59486 0.81863 0.61376 0.0
C4095 C 0.60843 0.82043 0.59948 0.0
H4096 H 0.42443 0.88486 0.82341 0.0
H4097 H 0.46488 0.91906 0.85381 0.0
H4098 H 0.47208 0.89256 0.87473 0.0
H4099 H 0.46434 0.86095 0.88663 0.0
H4100 H 0.42268 0.82707 0.85752 0.0
H4101 H 0.41863 0.85197 0.83383 0.0
C4102 C 0.43509 0.88632 0.83437 0.0
C4103 C 0.44402 0.90386 0.83716 0.0
C4104 C 0.43879 0.87114 0.84674 0.0
C4105 C 0.45771 0.90569 0.85149 0.0
C4106 C 0.46182 0.89057 0.86349 0.0
C4107 C 0.4546 0.8589 0.87494 0.0
C4108 C 0.44372 0.8423 0.87392 0.0
C4109 C 0.45204 0.87342 0.86161 0.0
C4110 C 0.43115 0.83982 0.85868 0.0
C4111 C 0.42879 0.85406 0.84514 0.0
H4112 H 0.36116 0.67259 0.0783 0.0
H4113 H 0.32509 0.70912 0.11141 0.0
H4114 H 0.3515 0.71683 0.13229 0.0
H4115 H 0.38398 0.71085 0.14295 0.0
H4116 H 0.4197 0.67291 0.11104 0.0
H4117 H 0.39443 0.66815 0.08791 0.0
C4118 C 0.35924 0.68252 0.08986 0.0
C4119 C 0.34126 0.69024 0.09337 0.0
C4120 C 0.37437 0.68644 0.10219 0.0
C4121 C 0.33883 0.70293 0.10851 0.0
C4122 C 0.3539 0.70731 0.12049 0.0
C4123 C 0.38629 0.70171 0.13082 0.0
C4124 C 0.4036 0.69215 0.12879 0.0
C4125 C 0.37159 0.69876 0.11777 0.0
C4126 C 0.40642 0.68034 0.113 0.0
C4127 C 0.39198 0.6776 0.09975 0.0
H4128 H 0.53292 0.36713 0.60946 0.0
H4129 H 0.5755 0.32973 0.63225 0.0
H4130 H 0.58164 0.35203 0.658 0.0
H4131 H 0.57744 0.38393 0.67187 0.0
H4132 H 0.53596 0.42166 0.64769 0.0
H4133 H 0.52664 0.39743 0.62494 0.0
C4134 C 0.54336 0.36374 0.62021 0.0
C4135 C 0.55388 0.34695 0.61883 0.0
C4136 C 0.54706 0.37676 0.63474 0.0
C4137 C 0.56729 0.34268 0.63292 0.0
C4138 C 0.57084 0.35543 0.64765 0.0
C4139 C 0.56607 0.3866 0.6619 0.0
C4140 C 0.55747 0.40451 0.66133 0.0
C4141 C 0.56117 0.37276 0.64841 0.0
C4142 C 0.54287 0.40796 0.64825 0.0
C4143 C 0.53757 0.39416 0.63521 0.0
H4144 H 0.84344 0.78515 0.90436 0.0
H4145 H 0.87064 0.82706 0.9395 0.0
H4146 H 0.89995 0.82346 0.92132 0.0
H4147 H 0.91619 0.81159 0.89284 0.0
H4148 H 0.8885 0.77033 0.85727 0.0
H4149 H 0.86106 0.77033 0.87836 0.0
C4150 C 0.85589 0.79324 0.90827 0.0
C4151 C 0.85483 0.80653 0.92309 0.0
C4152 C 0.87252 0.79136 0.89755 0.0
C4153 C 0.87111 0.81677 0.92813 0.0
C4154 C 0.88782 0.81481 0.91765 0.0
C4155 C 0.90428 0.80236 0.88989 0.0
C4156 C 0.90425 0.79117 0.87338 0.0
C4157 C 0.88844 0.80264 0.90193 0.0
C4158 C 0.88882 0.77914 0.86983 0.0
C4159 C 0.87309 0.7792 0.88184 0.0
H4160 H 0.45515 0.08181 0.15089 0.0
H4161 H 0.42438 0.11812 0.18921 0.0
H4162 H 0.43238 0.14569 0.16971 0.0
H4163 H 0.44528 0.15875 0.13998 0.0
H4164 H 0.47576 0.12206 0.10173 0.0
H4165 H 0.47082 0.09534 0.1231 0.0
C4166 C 0.45041 0.09581 0.15513 0.0
C4167 C 0.43902 0.09794 0.17133 0.0
C4168 C 0.45488 0.11147 0.14378 0.0
C4169 C 0.43315 0.11614 0.17678 0.0
C4170 C 0.43763 0.13187 0.16557 0.0
C4171 C 0.45105 0.14495 0.13646 0.0
C4172 C 0.46068 0.14232 0.1192 0.0
C4173 C 0.44804 0.12961 0.14877 0.0
C4174 C 0.46822 0.12443 0.11488 0.0
C4175 C 0.46536 0.10913 0.12707 0.0
H4176 H 0.15998 0.71295 0.40316 0.0
H4177 H 0.13014 0.67211 0.43744 0.0
H4178 H 0.10136 0.6773 0.41879 0.0
H4179 H 0.08601 0.69072 0.39048 0.0
H4180 H 0.11632 0.73104 0.35594 0.0
H4181 H 0.14359 0.72892 0.3771 0.0
C4182 C 0.14709 0.70539 0.40674 0.0
C4183 C 0.14722 0.692 0.42151 0.0
C4184 C 0.13077 0.70825 0.39582 0.0
C4185 C 0.13039 0.68246 0.42612 0.0
C4186 C 0.11399 0.68535 0.41539 0.0
C4187 C 0.09848 0.69927 0.38776 0.0
C4188 C 0.09924 0.71086 0.37154 0.0
C4189 C 0.11419 0.69779 0.39986 0.0
C4190 C 0.11542 0.72195 0.36826 0.0
C4191 C 0.13104 0.72069 0.38032 0.0
H4192 H 0.86363 0.56968 0.16451 0.0
H4193 H 0.89596 0.52495 0.1382 0.0
H4194 H 0.87416 0.52466 0.11139 0.0
H4195 H 0.84787 0.53918 0.09413 0.0
H4196 H 0.81522 0.58376 0.12016 0.0
H4197 H 0.83491 0.58174 0.14865 0.0
C4198 C 0.86578 0.55978 0.15296 0.0
C4199 C 0.88152 0.54756 0.15315 0.0
C4200 C 0.85312 0.55962 0.13763 0.0
C4201 C 0.88402 0.53458 0.13829 0.0
C4202 C 0.87157 0.53441 0.12296 0.0
C4203 C 0.84485 0.54821 0.10619 0.0
C4204 C 0.83027 0.56171 0.10504 0.0
C4205 C 0.85634 0.54714 0.1223 0.0
C4206 C 0.82635 0.57322 0.12077 0.0
C4207 C 0.83772 0.57219 0.13697 0.0
H4208 H 0.34858 0.44799 0.41055 0.0
H4209 H 0.31261 0.40896 0.38033 0.0
H4210 H 0.33212 0.41283 0.35187 0.0
H4211 H 0.36109 0.42514 0.33669 0.0
H4212 H 0.39671 0.46438 0.36712 0.0
H4213 H 0.37559 0.46262 0.39448 0.0
C4214 C 0.34486 0.44052 0.39765 0.0
C4215 C 0.32932 0.42807 0.39753 0.0
C4216 C 0.35619 0.4427 0.3815 0.0
C4217 C 0.32451 0.41864 0.38071 0.0
C4218 C 0.33574 0.42074 0.36451 0.0
C4219 C 0.36413 0.4334 0.34927 0.0
C4220 C 0.38054 0.44469 0.35001 0.0
C4221 C 0.35188 0.43237 0.36492 0.0
C4222 C 0.38421 0.45553 0.36627 0.0
C4223 C 0.37216 0.4545 0.38191 0.0
H4224 H 0.8243 0.56503 0.62597 0.0
H4225 H 0.77584 0.58838 0.65488 0.0
H4226 H 0.7699 0.60975 0.62839 0.0
H4227 H 0.78168 0.6254 0.59969 0.0
H4228 H 0.83099 0.60307 0.57134 0.0
H4229 H 0.83331 0.57772 0.59472 0.0
C4230 C 0.81207 0.57433 0.62612 0.0
C4231 C 0.8006 0.57525 0.64234 0.0
C4232 C 0.80914 0.5871 0.61111 0.0
C4233 C 0.78491 0.58751 0.64252 0.0
C4234 C 0.78159 0.59984 0.62745 0.0
C4235 C 0.79271 0.61478 0.59844 0.0
C4236 C 0.80632 0.61631 0.58402 0.0
C4237 C 0.79414 0.60038 0.6121 0.0
C4238 C 0.82043 0.60233 0.58245 0.0
C4239 C 0.8218 0.58782 0.59584 0.0
H4240 H 0.653 0.0417 0.91033 0.0
H4241 H 0.69396 0.0744 0.87898 0.0
H4242 H 0.6784 0.06561 0.84922 0.0
H4243 H 0.65062 0.05221 0.83284 0.0
H4244 H 0.6096 0.01981 0.86455 0.0
H4245 H 0.62795 0.02457 0.89347 0.0
C4246 C 0.65869 0.04665 0.89694 0.0
C4247 C 0.67439 0.05891 0.89679 0.0
C4248 C 0.64961 0.04165 0.88001 0.0
C4249 C 0.68185 0.06499 0.8794 0.0
C4250 C 0.67289 0.06005 0.86243 0.0
C4251 C 0.64592 0.04584 0.84601 0.0
C4252 C 0.62864 0.03589 0.84662 0.0
C4253 C 0.65639 0.0489 0.86264 0.0
C4254 C 0.62281 0.02758 0.86372 0.0
C4255 C 0.63322 0.03041 0.88029 0.0
H4256 H 0.70668 0.4046 0.166 0.0
H4257 H 0.6701 0.4417 0.13413 0.0
H4258 H 0.67634 0.42336 0.10537 0.0
H4259 H 0.68947 0.39477 0.09025 0.0
H4260 H 0.72617 0.35784 0.12222 0.0
H4261 H 0.72275 0.37823 0.15 0.0
C4262 C 0.70031 0.40884 0.15269 0.0
C4263 C 0.68779 0.42434 0.15219 0.0
C4264 C 0.70385 0.39816 0.13631 0.0
C4265 C 0.67978 0.42982 0.13485 0.0
C4266 C 0.68325 0.41926 0.11844 0.0
C4267 C 0.69691 0.39133 0.10324 0.0
C4268 C 0.70787 0.3747 0.10428 0.0
C4269 C 0.69483 0.40309 0.11915 0.0
C4270 C 0.71761 0.37052 0.1211 0.0
C4271 C 0.71559 0.38213 0.137 0.0
H4272 H 0.14258 0.43793 0.17257 0.0
H4273 H 0.10902 0.48025 0.14395 0.0
H4274 H 0.13189 0.48114 0.11804 0.0
H4275 H 0.15876 0.46665 0.10161 0.0
H4276 H 0.19186 0.42354 0.12947 0.0
H4277 H 0.17213 0.42654 0.15783 0.0
C4278 C 0.14046 0.44758 0.16081 0.0
C4279 C 0.12398 0.45879 0.16002 0.0
C4280 C 0.15355 0.44782 0.14582 0.0
C4281 C 0.1215 0.47137 0.14482 0.0
C4282 C 0.13455 0.47185 0.12997 0.0
C4283 C 0.16193 0.45821 0.11405 0.0
C4284 C 0.17657 0.44472 0.11339 0.0
C4285 C 0.15025 0.45967 0.13004 0.0
C4286 C 0.18066 0.43402 0.12964 0.0
C4287 C 0.16926 0.4356 0.14578 0.0
H4288 H 0.81564 0.88617 0.91432 0.0
H4289 H 0.78692 0.84678 0.87746 0.0
H4290 H 0.79007 0.86893 0.85107 0.0
H4291 H 0.8031 0.89825 0.838 0.0
H4292 H 0.83156 0.93802 0.87457 0.0
H4293 H 0.82614 0.91706 0.90174 0.0
C4294 C 0.80996 0.88252 0.90053 0.0
C4295 C 0.80127 0.86478 0.89775 0.0
C4296 C 0.81177 0.89535 0.88545 0.0
C4297 C 0.79374 0.86031 0.87991 0.0
C4298 C 0.79556 0.87295 0.86483 0.0
C4299 C 0.80795 0.90243 0.85197 0.0
C4300 C 0.81789 0.91953 0.85431 0.0
C4301 C 0.80487 0.89032 0.86736 0.0
C4302 C 0.82387 0.92492 0.87247 0.0
C4303 C 0.82087 0.91288 0.88794 0.0
H4304 H 0.18541 0.61271 0.4151 0.0
H4305 H 0.21906 0.65033 0.38061 0.0
H4306 H 0.21708 0.62811 0.35416 0.0
H4307 H 0.20332 0.59959 0.34004 0.0
H4308 H 0.16933 0.56201 0.3742 0.0
H4309 H 0.17423 0.58247 0.40178 0.0
C4310 C 0.19245 0.61596 0.40184 0.0
C4311 C 0.20216 0.63324 0.3997 0.0
C4312 C 0.1912 0.60314 0.38669 0.0
C4313 C 0.21141 0.63717 0.38255 0.0
C4314 C 0.21026 0.62449 0.36742 0.0
C4315 C 0.19722 0.59571 0.3536 0.0
C4316 C 0.18583 0.57943 0.35508 0.0
C4317 C 0.19984 0.60766 0.36922 0.0
C4318 C 0.17816 0.57448 0.37273 0.0
C4319 C 0.18084 0.58625 0.38845 0.0
loop_
_geom_bond_atom_site_label_1
_geom_bond_atom_site_label_2
_geom_bond_distance
_geom_bond_site_symmetry_2
_ccdc_geom_bond_type
In0 O1 2.294 . S
In0 O2 2.326 . S
In0 O6 2.266 . S
In0 O7 2.326 . S
In0 O8 2.266 . S
In0 O9 2.326 . S
In0 O11 2.294 . S
In0 O12 2.326 . S
O1 In0 2.294 . S
O1 C10 1.240 . S
O2 In0 2.326 . S
O2 C10 1.252 . S
C3 O6 1.252 . S
C3 O7 1.260 . S
C4 O11 1.240 . S
C4 O12 1.252 . S
C5 O8 1.252 . S
C5 O9 1.260 . S
O6 In0 2.266 . S
O6 C3 1.252 . S
O7 In0 2.326 . S
O7 C3 1.260 . S
O8 In0 2.266 . S
O8 C5 1.252 . S
O9 In0 2.326 . S
O9 C5 1.260 . S
C10 O1 1.240 . S
C10 O2 1.252 . S
O11 In0 2.294 . S
O11 C4 1.240 . S
O12 In0 2.326 . S
O12 C4 1.252 . S
In13 O14 2.294 . S
In13 O15 2.326 . S
In13 O19 2.266 . S
In13 O20 2.326 . S
In13 O21 2.266 . S
In13 O22 2.326 . S
In13 O24 2.294 . S
In13 O25 2.326 . S
O14 In13 2.294 . S
O14 C23 1.240 . S
O15 In13 2.326 . S
O15 C23 1.252 . S
C16 O19 1.252 . S
C16 O20 1.260 . S
C17 O24 1.240 . S
C17 O25 1.252 . S
C18 O21 1.252 . S
C18 O22 1.260 . S
O19 In13 2.266 . S
O19 C16 1.252 . S
O20 In13 2.326 . S
O20 C16 1.260 . S
O21 In13 2.266 . S
O21 C18 1.252 . S
O22 In13 2.326 . S
O22 C18 1.260 . S
C23 O14 1.240 . S
C23 O15 1.252 . S
O24 In13 2.294 . S
O24 C17 1.240 . S
O25 In13 2.326 . S
O25 C17 1.252 . S
In26 O27 2.294 . S
In26 O28 2.326 . S
In26 O32 2.266 . S
In26 O33 2.326 . S
In26 O34 2.266 . S
In26 O35 2.326 . S
In26 O37 2.294 . S
In26 O38 2.326 . S
O27 In26 2.294 . S
O27 C36 1.240 . S
O28 In26 2.326 . S
O28 C36 1.252 . S
C29 O32 1.252 . S
C29 O33 1.260 . S
C30 O37 1.240 . S
C30 O38 1.252 . S
C31 O34 1.252 . S
C31 O35 1.260 . S
O32 In26 2.266 . S
O32 C29 1.252 . S
O33 In26 2.326 . S
O33 C29 1.260 . S
O34 In26 2.266 . S
O34 C31 1.252 . S
O35 In26 2.326 . S
O35 C31 1.260 . S
C36 O27 1.240 . S
C36 O28 1.252 . S
O37 In26 2.294 . S
O37 C30 1.240 . S
O38 In26 2.326 . S
O38 C30 1.252 . S
In39 O40 2.294 . S
In39 O41 2.326 . S
In39 O45 2.266 . S
In39 O46 2.326 . S
In39 O47 2.266 . S
In39 O48 2.326 . S
In39 O50 2.294 . S
In39 O51 2.326 . S
O40 In39 2.294 . S
O40 C49 1.240 . S
O41 In39 2.326 . S
O41 C49 1.252 . S
C42 O45 1.252 . S
C42 O46 1.260 . S
C43 O50 1.240 . S
C43 O51 1.252 . S
C44 O47 1.252 . S
C44 O48 1.260 . S
O45 In39 2.266 . S
O45 C42 1.252 . S
O46 In39 2.326 . S
O46 C42 1.260 . S
O47 In39 2.266 . S
O47 C44 1.252 . S
O48 In39 2.326 . S
O48 C44 1.260 . S
C49 O40 1.240 . S
C49 O41 1.252 . S
O50 In39 2.294 . S
O50 C43 1.240 . S
O51 In39 2.326 . S
O51 C43 1.252 . S
In52 O53 2.294 . S
In52 O54 2.326 . S
In52 O58 2.266 . S
In52 O59 2.326 . S
In52 O60 2.266 . S
In52 O61 2.326 . S
In52 O63 2.294 . S
In52 O64 2.326 . S
O53 In52 2.294 . S
O53 C62 1.240 . S
O54 In52 2.326 . S
O54 C62 1.252 . S
C55 O58 1.252 . S
C55 O59 1.260 . S
C56 O63 1.240 . S
C56 O64 1.252 . S
C57 O60 1.252 . S
C57 O61 1.260 . S
O58 In52 2.266 . S
O58 C55 1.252 . S
O59 In52 2.326 . S
O59 C55 1.260 . S
O60 In52 2.266 . S
O60 C57 1.252 . S
O61 In52 2.326 . S
O61 C57 1.260 . S
C62 O53 1.240 . S
C62 O54 1.252 . S
O63 In52 2.294 . S
O63 C56 1.240 . S
O64 In52 2.326 . S
O64 C56 1.252 . S
In65 O66 2.294 . S
In65 O67 2.326 . S
In65 O71 2.266 . S
In65 O72 2.326 . S
In65 O73 2.266 . S
In65 O74 2.326 . S
In65 O76 2.294 . S
In65 O77 2.326 . S
O66 In65 2.294 . S
O66 C75 1.240 . S
O67 In65 2.326 . S
O67 C75 1.252 . S
C68 O71 1.252 . S
C68 O72 1.260 . S
C69 O76 1.240 . S
C69 O77 1.252 . S
C70 O73 1.252 . S
C70 O74 1.260 . S
O71 In65 2.266 . S
O71 C68 1.252 . S
O72 In65 2.326 . S
O72 C68 1.260 . S
O73 In65 2.266 . S
O73 C70 1.252 . S
O74 In65 2.326 . S
O74 C70 1.260 . S
C75 O66 1.240 . S
C75 O67 1.252 . S
O76 In65 2.294 . S
O76 C69 1.240 . S
O77 In65 2.326 . S
O77 C69 1.252 . S
In78 O79 2.294 . S
In78 O80 2.326 . S
In78 O84 2.266 . S
In78 O85 2.326 . S
In78 O86 2.266 . S
In78 O87 2.326 . S
In78 O89 2.294 . S
In78 O90 2.326 . S
O79 In78 2.294 . S
O79 C88 1.240 . S
O80 In78 2.326 . S
O80 C88 1.252 . S
C81 O84 1.252 . S
C81 O85 1.260 . S
C82 O89 1.240 . S
C82 O90 1.252 . S
C83 O86 1.252 . S
C83 O87 1.260 . S
O84 In78 2.266 . S
O84 C81 1.252 . S
O85 In78 2.326 . S
O85 C81 1.260 . S
O86 In78 2.266 . S
O86 C83 1.252 . S
O87 In78 2.326 . S
O87 C83 1.260 . S
C88 O79 1.240 . S
C88 O80 1.252 . S
O89 In78 2.294 . S
O89 C82 1.240 . S
O90 In78 2.326 . S
O90 C82 1.252 . S
In91 O92 2.294 . S
In91 O93 2.326 . S
In91 O97 2.266 . S
In91 O98 2.326 . S
In91 O99 2.266 . S
In91 O100 2.326 . S
In91 O102 2.294 . S
In91 O103 2.326 . S
O92 In91 2.294 . S
O92 C101 1.240 . S
O93 In91 2.326 . S
O93 C101 1.252 . S
C94 O97 1.252 . S
C94 O98 1.260 . S
C95 O102 1.240 . S
C95 O103 1.252 . S
C96 O99 1.252 . S
C96 O100 1.260 . S
O97 In91 2.266 . S
O97 C94 1.252 . S
O98 In91 2.326 . S
O98 C94 1.260 . S
O99 In91 2.266 . S
O99 C96 1.252 . S
O100 In91 2.326 . S
O100 C96 1.260 . S
C101 O92 1.240 . S
C101 O93 1.252 . S
O102 In91 2.294 . S
O102 C95 1.240 . S
O103 In91 2.326 . S
O103 C95 1.252 . S
In104 O105 2.294 . S
In104 O106 2.326 . S
In104 O110 2.266 . S
In104 O111 2.326 . S
In104 O112 2.266 . S
In104 O113 2.326 . S
In104 O115 2.294 . S
In104 O116 2.326 . S
O105 In104 2.294 . S
O105 C114 1.240 . S
O106 In104 2.326 . S
O106 C114 1.252 . S
C107 O110 1.252 . S
C107 O111 1.260 . S
C108 O115 1.240 . S
C108 O116 1.252 . S
C109 O112 1.252 . S
C109 O113 1.260 . S
O110 In104 2.266 . S
O110 C107 1.252 . S
O111 In104 2.326 . S
O111 C107 1.260 . S
O112 In104 2.266 . S
O112 C109 1.252 . S
O113 In104 2.326 . S
O113 C109 1.260 . S
C114 O105 1.240 . S
C114 O106 1.252 . S
O115 In104 2.294 . S
O115 C108 1.240 . S
O116 In104 2.326 . S
O116 C108 1.252 . S
In117 O118 2.294 . S
In117 O119 2.326 . S
In117 O123 2.266 . S
In117 O124 2.326 . S
In117 O125 2.266 . S
In117 O126 2.326 . S
In117 O128 2.294 . S
In117 O129 2.326 . S
O118 In117 2.294 . S
O118 C127 1.240 . S
O119 In117 2.326 . S
O119 C127 1.252 . S
C120 O123 1.252 . S
C120 O124 1.260 . S
C121 O128 1.240 . S
C121 O129 1.252 . S
C122 O125 1.252 . S
C122 O126 1.260 . S
O123 In117 2.266 . S
O123 C120 1.252 . S
O124 In117 2.326 . S
O124 C120 1.260 . S
O125 In117 2.266 . S
O125 C122 1.252 . S
O126 In117 2.326 . S
O126 C122 1.260 . S
C127 O118 1.240 . S
C127 O119 1.252 . S
O128 In117 2.294 . S
O128 C121 1.240 . S
O129 In117 2.326 . S
O129 C121 1.252 . S
In130 O131 2.294 . S
In130 O132 2.326 . S
In130 O136 2.266 . S
In130 O137 2.326 . S
In130 O138 2.266 . S
In130 O139 2.326 . S
In130 O141 2.294 . S
In130 O142 2.326 . S
O131 In130 2.294 . S
O131 C140 1.240 . S
O132 In130 2.326 . S
O132 C140 1.252 . S
C133 O136 1.252 . S
C133 O137 1.260 . S
C134 O141 1.240 . S
C134 O142 1.252 . S
C135 O138 1.252 . S
C135 O139 1.260 . S
O136 In130 2.266 . S
O136 C133 1.252 . S
O137 In130 2.326 . S
O137 C133 1.260 . S
O138 In130 2.266 . S
O138 C135 1.252 . S
O139 In130 2.326 . S
O139 C135 1.260 . S
C140 O131 1.240 . S
C140 O132 1.252 . S
O141 In130 2.294 . S
O141 C134 1.240 . S
O142 In130 2.326 . S
O142 C134 1.252 . S
In143 O144 2.294 . S
In143 O145 2.326 . S
In143 O149 2.266 . S
In143 O150 2.326 . S
In143 O151 2.266 . S
In143 O152 2.326 . S
In143 O154 2.294 . S
In143 O155 2.326 . S
O144 In143 2.294 . S
O144 C153 1.240 . S
O145 In143 2.326 . S
O145 C153 1.252 . S
C146 O149 1.252 . S
C146 O150 1.260 . S
C147 O154 1.240 . S
C147 O155 1.252 . S
C148 O151 1.252 . S
C148 O152 1.260 . S
O149 In143 2.266 . S
O149 C146 1.252 . S
O150 In143 2.326 . S
O150 C146 1.260 . S
O151 In143 2.266 . S
O151 C148 1.252 . S
O152 In143 2.326 . S
O152 C148 1.260 . S
C153 O144 1.240 . S
C153 O145 1.252 . S
O154 In143 2.294 . S
O154 C147 1.240 . S
O155 In143 2.326 . S
O155 C147 1.252 . S
In156 O157 2.294 . S
In156 O158 2.326 . S
In156 O162 2.266 . S
In156 O163 2.326 . S
In156 O164 2.266 . S
In156 O165 2.326 . S
In156 O167 2.294 . S
In156 O168 2.326 . S
O157 In156 2.294 . S
O157 C166 1.240 . S
O158 In156 2.326 . S
O158 C166 1.252 . S
C159 O162 1.252 . S
C159 O163 1.260 . S
C160 O167 1.240 . S
C160 O168 1.252 . S
C161 O164 1.252 . S
C161 O165 1.260 . S
O162 In156 2.266 . S
O162 C159 1.252 . S
O163 In156 2.326 . S
O163 C159 1.260 . S
O164 In156 2.266 . S
O164 C161 1.252 . S
O165 In156 2.326 . S
O165 C161 1.260 . S
C166 O157 1.240 . S
C166 O158 1.252 . S
O167 In156 2.294 . S
O167 C160 1.240 . S
O168 In156 2.326 . S
O168 C160 1.252 . S
In169 O170 2.294 . S
In169 O171 2.326 . S
In169 O175 2.266 . S
In169 O176 2.326 . S
In169 O177 2.266 . S
In169 O178 2.326 . S
In169 O180 2.294 . S
In169 O181 2.326 . S
O170 In169 2.294 . S
O170 C179 1.240 . S
O171 In169 2.326 . S
O171 C179 1.252 . S
C172 O175 1.252 . S
C172 O176 1.260 . S
C173 O180 1.240 . S
C173 O181 1.252 . S
C174 O177 1.252 . S
C174 O178 1.260 . S
O175 In169 2.266 . S
O175 C172 1.252 . S
O176 In169 2.326 . S
O176 C172 1.260 . S
O177 In169 2.266 . S
O177 C174 1.252 . S
O178 In169 2.326 . S
O178 C174 1.260 . S
C179 O170 1.240 . S
C179 O171 1.252 . S
O180 In169 2.294 . S
O180 C173 1.240 . S
O181 In169 2.326 . S
O181 C173 1.252 . S
In182 O183 2.294 . S
In182 O184 2.326 . S
In182 O188 2.266 . S
In182 O189 2.326 . S
In182 O190 2.266 . S
In182 O191 2.326 . S
In182 O193 2.294 . S
In182 O194 2.326 . S
O183 In182 2.294 . S
O183 C192 1.240 . S
O184 In182 2.326 . S
O184 C192 1.252 . S
C185 O188 1.252 . S
C185 O189 1.260 . S
C186 O193 1.240 . S
C186 O194 1.252 . S
C187 O190 1.252 . S
C187 O191 1.260 . S
O188 In182 2.266 . S
O188 C185 1.252 . S
O189 In182 2.326 . S
O189 C185 1.260 . S
O190 In182 2.266 . S
O190 C187 1.252 . S
O191 In182 2.326 . S
O191 C187 1.260 . S
C192 O183 1.240 . S
C192 O184 1.252 . S
O193 In182 2.294 . S
O193 C186 1.240 . S
O194 In182 2.326 . S
O194 C186 1.252 . S
In195 O196 2.294 . S
In195 O197 2.326 . S
In195 O201 2.266 . S
In195 O202 2.326 . S
In195 O203 2.266 . S
In195 O204 2.326 . S
In195 O206 2.294 . S
In195 O207 2.326 . S
O196 In195 2.294 . S
O196 C205 1.240 . S
O197 In195 2.326 . S
O197 C205 1.252 . S
C198 O201 1.252 . S
C198 O202 1.260 . S
C199 O206 1.240 . S
C199 O207 1.252 . S
C200 O203 1.252 . S
C200 O204 1.260 . S
O201 In195 2.266 . S
O201 C198 1.252 . S
O202 In195 2.326 . S
O202 C198 1.260 . S
O203 In195 2.266 . S
O203 C200 1.252 . S
O204 In195 2.326 . S
O204 C200 1.260 . S
C205 O196 1.240 . S
C205 O197 1.252 . S
O206 In195 2.294 . S
O206 C199 1.240 . S
O207 In195 2.326 . S
O207 C199 1.252 . S
In208 O209 2.294 . S
In208 O210 2.326 . S
In208 O214 2.266 . S
In208 O215 2.326 . S
In208 O216 2.266 . S
In208 O217 2.326 . S
In208 O219 2.294 . S
In208 O220 2.326 . S
O209 In208 2.294 . S
O209 C218 1.240 . S
O210 In208 2.326 . S
O210 C218 1.252 . S
C211 O214 1.252 . S
C211 O215 1.260 . S
C212 O219 1.240 . S
C212 O220 1.252 . S
C213 O216 1.252 . S
C213 O217 1.260 . S
O214 In208 2.266 . S
O214 C211 1.252 . S
O215 In208 2.326 . S
O215 C211 1.260 . S
O216 In208 2.266 . S
O216 C213 1.252 . S
O217 In208 2.326 . S
O217 C213 1.260 . S
C218 O209 1.240 . S
C218 O210 1.252 . S
O219 In208 2.294 . S
O219 C212 1.240 . S
O220 In208 2.326 . S
O220 C212 1.252 . S
In221 O222 2.294 . S
In221 O223 2.326 . S
In221 O227 2.266 . S
In221 O228 2.326 . S
In221 O229 2.266 . S
In221 O230 2.326 . S
In221 O232 2.294 . S
In221 O233 2.326 . S
O222 In221 2.294 . S
O222 C231 1.240 . S
O223 In221 2.326 . S
O223 C231 1.252 . S
C224 O227 1.252 . S
C224 O228 1.260 . S
C225 O232 1.240 . S
C225 O233 1.252 . S
C226 O229 1.252 . S
C226 O230 1.260 . S
O227 In221 2.266 . S
O227 C224 1.252 . S
O228 In221 2.326 . S
O228 C224 1.260 . S
O229 In221 2.266 . S
O229 C226 1.252 . S
O230 In221 2.326 . S
O230 C226 1.260 . S
C231 O222 1.240 . S
C231 O223 1.252 . S
O232 In221 2.294 . S
O232 C225 1.240 . S
O233 In221 2.326 . S
O233 C225 1.252 . S
In234 O235 2.294 . S
In234 O236 2.326 . S
In234 O240 2.266 . S
In234 O241 2.326 . S
In234 O242 2.266 . S
In234 O243 2.326 . S
In234 O245 2.294 . S
In234 O246 2.326 . S
O235 In234 2.294 . S
O235 C244 1.240 . S
O236 In234 2.326 . S
O236 C244 1.252 . S
C237 O240 1.252 . S
C237 O241 1.260 . S
C238 O245 1.240 . S
C238 O246 1.252 . S
C239 O242 1.252 . S
C239 O243 1.260 . S
O240 In234 2.266 . S
O240 C237 1.252 . S
O241 In234 2.326 . S
O241 C237 1.260 . S
O242 In234 2.266 . S
O242 C239 1.252 . S
O243 In234 2.326 . S
O243 C239 1.260 . S
C244 O235 1.240 . S
C244 O236 1.252 . S
O245 In234 2.294 . S
O245 C238 1.240 . S
O246 In234 2.326 . S
O246 C238 1.252 . S
In247 O248 2.294 . S
In247 O249 2.326 . S
In247 O253 2.266 . S
In247 O254 2.326 . S
In247 O255 2.266 . S
In247 O256 2.326 . S
In247 O258 2.294 . S
In247 O259 2.326 . S
O248 In247 2.294 . S
O248 C257 1.240 . S
O249 In247 2.326 . S
O249 C257 1.252 . S
C250 O253 1.252 . S
C250 O254 1.260 . S
C251 O258 1.240 . S
C251 O259 1.252 . S
C252 O255 1.252 . S
C252 O256 1.260 . S
O253 In247 2.266 . S
O253 C250 1.252 . S
O254 In247 2.326 . S
O254 C250 1.260 . S
O255 In247 2.266 . S
O255 C252 1.252 . S
O256 In247 2.326 . S
O256 C252 1.260 . S
C257 O248 1.240 . S
C257 O249 1.252 . S
O258 In247 2.294 . S
O258 C251 1.240 . S
O259 In247 2.326 . S
O259 C251 1.252 . S
In260 O261 2.294 . S
In260 O262 2.326 . S
In260 O266 2.266 . S
In260 O267 2.326 . S
In260 O268 2.266 . S
In260 O269 2.326 . S
In260 O271 2.294 . S
In260 O272 2.326 . S
O261 In260 2.294 . S
O261 C270 1.240 . S
O262 In260 2.326 . S
O262 C270 1.252 . S
C263 O266 1.252 . S
C263 O267 1.260 . S
C264 O271 1.240 . S
C264 O272 1.252 . S
C265 O268 1.252 . S
C265 O269 1.260 . S
O266 In260 2.266 . S
O266 C263 1.252 . S
O267 In260 2.326 . S
O267 C263 1.260 . S
O268 In260 2.266 . S
O268 C265 1.252 . S
O269 In260 2.326 . S
O269 C265 1.260 . S
C270 O261 1.240 . S
C270 O262 1.252 . S
O271 In260 2.294 . S
O271 C264 1.240 . S
O272 In260 2.326 . S
O272 C264 1.252 . S
In273 O274 2.294 . S
In273 O275 2.326 . S
In273 O279 2.266 . S
In273 O280 2.326 . S
In273 O281 2.266 . S
In273 O282 2.326 . S
In273 O284 2.294 . S
In273 O285 2.326 . S
O274 In273 2.294 . S
O274 C283 1.240 . S
O275 In273 2.326 . S
O275 C283 1.252 . S
C276 O279 1.252 . S
C276 O280 1.260 . S
C277 O284 1.240 . S
C277 O285 1.252 . S
C278 O281 1.252 . S
C278 O282 1.260 . S
O279 In273 2.266 . S
O279 C276 1.252 . S
O280 In273 2.326 . S
O280 C276 1.260 . S
O281 In273 2.266 . S
O281 C278 1.252 . S
O282 In273 2.326 . S
O282 C278 1.260 . S
C283 O274 1.240 . S
C283 O275 1.252 . S
O284 In273 2.294 . S
O284 C277 1.240 . S
O285 In273 2.326 . S
O285 C277 1.252 . S
In286 O287 2.294 . S
In286 O288 2.326 . S
In286 O292 2.266 . S
In286 O293 2.326 . S
In286 O294 2.266 . S
In286 O295 2.326 . S
In286 O297 2.294 . S
In286 O298 2.326 . S
O287 In286 2.294 . S
O287 C296 1.240 . S
O288 In286 2.326 . S
O288 C296 1.252 . S
C289 O292 1.252 . S
C289 O293 1.260 . S
C290 O297 1.240 . S
C290 O298 1.252 . S
C291 O294 1.252 . S
C291 O295 1.260 . S
O292 In286 2.266 . S
O292 C289 1.252 . S
O293 In286 2.326 . S
O293 C289 1.260 . S
O294 In286 2.266 . S
O294 C291 1.252 . S
O295 In286 2.326 . S
O295 C291 1.260 . S
C296 O287 1.240 . S
C296 O288 1.252 . S
O297 In286 2.294 . S
O297 C290 1.240 . S
O298 In286 2.326 . S
O298 C290 1.252 . S
In299 O300 2.294 . S
In299 O301 2.326 . S
In299 O305 2.266 . S
In299 O306 2.326 . S
In299 O307 2.266 . S
In299 O308 2.326 . S
In299 O310 2.294 . S
In299 O311 2.326 . S
O300 In299 2.294 . S
O300 C309 1.240 . S
O301 In299 2.326 . S
O301 C309 1.252 . S
C302 O305 1.252 . S
C302 O306 1.260 . S
C303 O310 1.240 . S
C303 O311 1.252 . S
C304 O307 1.252 . S
C304 O308 1.260 . S
O305 In299 2.266 . S
O305 C302 1.252 . S
O306 In299 2.326 . S
O306 C302 1.260 . S
O307 In299 2.266 . S
O307 C304 1.252 . S
O308 In299 2.326 . S
O308 C304 1.260 . S
C309 O300 1.240 . S
C309 O301 1.252 . S
O310 In299 2.294 . S
O310 C303 1.240 . S
O311 In299 2.326 . S
O311 C303 1.252 . S
In312 O313 2.294 . S
In312 O314 2.326 . S
In312 O318 2.266 . S
In312 O319 2.326 . S
In312 O320 2.266 . S
In312 O321 2.326 . S
In312 O323 2.294 . S
In312 O324 2.326 . S
O313 In312 2.294 . S
O313 C322 1.240 . S
O314 In312 2.326 . S
O314 C322 1.252 . S
C315 O318 1.252 . S
C315 O319 1.260 . S
C316 O323 1.240 . S
C316 O324 1.252 . S
C317 O320 1.252 . S
C317 O321 1.260 . S
O318 In312 2.266 . S
O318 C315 1.252 . S
O319 In312 2.326 . S
O319 C315 1.260 . S
O320 In312 2.266 . S
O320 C317 1.252 . S
O321 In312 2.326 . S
O321 C317 1.260 . S
C322 O313 1.240 . S
C322 O314 1.252 . S
O323 In312 2.294 . S
O323 C316 1.240 . S
O324 In312 2.326 . S
O324 C316 1.252 . S
In325 O326 2.294 . S
In325 O327 2.326 . S
In325 O331 2.266 . S
In325 O332 2.326 . S
In325 O333 2.266 . S
In325 O334 2.326 . S
In325 O336 2.294 . S
In325 O337 2.326 . S
O326 In325 2.294 . S
O326 C335 1.240 . S
O327 In325 2.326 . S
O327 C335 1.252 . S
C328 O331 1.252 . S
C328 O332 1.260 . S
C329 O336 1.240 . S
C329 O337 1.252 . S
C330 O333 1.252 . S
C330 O334 1.260 . S
O331 In325 2.266 . S
O331 C328 1.252 . S
O332 In325 2.326 . S
O332 C328 1.260 . S
O333 In325 2.266 . S
O333 C330 1.252 . S
O334 In325 2.326 . S
O334 C330 1.260 . S
C335 O326 1.240 . S
C335 O327 1.252 . S
O336 In325 2.294 . S
O336 C329 1.240 . S
O337 In325 2.326 . S
O337 C329 1.252 . S
In338 O339 2.294 . S
In338 O340 2.326 . S
In338 O344 2.266 . S
In338 O345 2.326 . S
In338 O346 2.266 . S
In338 O347 2.326 . S
In338 O349 2.294 . S
In338 O350 2.326 . S
O339 In338 2.294 . S
O339 C348 1.240 . S
O340 In338 2.326 . S
O340 C348 1.252 . S
C341 O344 1.252 . S
C341 O345 1.260 . S
C342 O349 1.240 . S
C342 O350 1.252 . S
C343 O346 1.252 . S
C343 O347 1.260 . S
O344 In338 2.266 . S
O344 C341 1.252 . S
O345 In338 2.326 . S
O345 C341 1.260 . S
O346 In338 2.266 . S
O346 C343 1.252 . S
O347 In338 2.326 . S
O347 C343 1.260 . S
C348 O339 1.240 . S
C348 O340 1.252 . S
O349 In338 2.294 . S
O349 C342 1.240 . S
O350 In338 2.326 . S
O350 C342 1.252 . S
In351 O352 2.294 . S
In351 O353 2.326 . S
In351 O357 2.266 . S
In351 O358 2.326 . S
In351 O359 2.266 . S
In351 O360 2.326 . S
In351 O362 2.294 . S
In351 O363 2.326 . S
O352 In351 2.294 . S
O352 C361 1.240 . S
O353 In351 2.326 . S
O353 C361 1.252 . S
C354 O357 1.252 . S
C354 O358 1.260 . S
C355 O362 1.240 . S
C355 O363 1.252 . S
C356 O359 1.252 . S
C356 O360 1.260 . S
O357 In351 2.266 . S
O357 C354 1.252 . S
O358 In351 2.326 . S
O358 C354 1.260 . S
O359 In351 2.266 . S
O359 C356 1.252 . S
O360 In351 2.326 . S
O360 C356 1.260 . S
C361 O352 1.240 . S
C361 O353 1.252 . S
O362 In351 2.294 . S
O362 C355 1.240 . S
O363 In351 2.326 . S
O363 C355 1.252 . S
In364 O365 2.294 . S
In364 O366 2.326 . S
In364 O370 2.266 . S
In364 O371 2.326 . S
In364 O372 2.266 . S
In364 O373 2.326 . S
In364 O375 2.294 . S
In364 O376 2.326 . S
O365 In364 2.294 . S
O365 C374 1.240 . S
O366 In364 2.326 . S
O366 C374 1.252 . S
C367 O370 1.252 . S
C367 O371 1.260 . S
C368 O375 1.240 . S
C368 O376 1.252 . S
C369 O372 1.252 . S
C369 O373 1.260 . S
O370 In364 2.266 . S
O370 C367 1.252 . S
O371 In364 2.326 . S
O371 C367 1.260 . S
O372 In364 2.266 . S
O372 C369 1.252 . S
O373 In364 2.326 . S
O373 C369 1.260 . S
C374 O365 1.240 . S
C374 O366 1.252 . S
O375 In364 2.294 . S
O375 C368 1.240 . S
O376 In364 2.326 . S
O376 C368 1.252 . S
In377 O378 2.294 . S
In377 O379 2.326 . S
In377 O383 2.266 . S
In377 O384 2.326 . S
In377 O385 2.266 . S
In377 O386 2.326 . S
In377 O388 2.294 . S
In377 O389 2.326 . S
O378 In377 2.294 . S
O378 C387 1.240 . S
O379 In377 2.326 . S
O379 C387 1.252 . S
C380 O383 1.252 . S
C380 O384 1.260 . S
C381 O388 1.240 . S
C381 O389 1.252 . S
C382 O385 1.252 . S
C382 O386 1.260 . S
O383 In377 2.266 . S
O383 C380 1.252 . S
O384 In377 2.326 . S
O384 C380 1.260 . S
O385 In377 2.266 . S
O385 C382 1.252 . S
O386 In377 2.326 . S
O386 C382 1.260 . S
C387 O378 1.240 . S
C387 O379 1.252 . S
O388 In377 2.294 . S
O388 C381 1.240 . S
O389 In377 2.326 . S
O389 C381 1.252 . S
In390 O391 2.294 . S
In390 O392 2.326 . S
In390 O396 2.266 . S
In390 O397 2.326 . S
In390 O398 2.266 . S
In390 O399 2.326 . S
In390 O401 2.294 . S
In390 O402 2.326 . S
O391 In390 2.294 . S
O391 C400 1.240 . S
O392 In390 2.326 . S
O392 C400 1.252 . S
C393 O396 1.252 . S
C393 O397 1.260 . S
C394 O401 1.240 . S
C394 O402 1.252 . S
C395 O398 1.252 . S
C395 O399 1.260 . S
O396 In390 2.266 . S
O396 C393 1.252 . S
O397 In390 2.326 . S
O397 C393 1.260 . S
O398 In390 2.266 . S
O398 C395 1.252 . S
O399 In390 2.326 . S
O399 C395 1.260 . S
C400 O391 1.240 . S
C400 O392 1.252 . S
O401 In390 2.294 . S
O401 C394 1.240 . S
O402 In390 2.326 . S
O402 C394 1.252 . S
In403 O404 2.294 . S
In403 O405 2.326 . S
In403 O409 2.266 . S
In403 O410 2.326 . S
In403 O411 2.266 . S
In403 O412 2.326 . S
In403 O414 2.294 . S
In403 O415 2.326 . S
O404 In403 2.294 . S
O404 C413 1.240 . S
O405 In403 2.326 . S
O405 C413 1.252 . S
C406 O409 1.252 . S
C406 O410 1.260 . S
C407 O414 1.240 . S
C407 O415 1.252 . S
C408 O411 1.252 . S
C408 O412 1.260 . S
O409 In403 2.266 . S
O409 C406 1.252 . S
O410 In403 2.326 . S
O410 C406 1.260 . S
O411 In403 2.266 . S
O411 C408 1.252 . S
O412 In403 2.326 . S
O412 C408 1.260 . S
C413 O404 1.240 . S
C413 O405 1.252 . S
O414 In403 2.294 . S
O414 C407 1.240 . S
O415 In403 2.326 . S
O415 C407 1.252 . S
In416 O417 2.294 . S
In416 O418 2.326 . S
In416 O422 2.266 . S
In416 O423 2.326 . S
In416 O424 2.266 . S
In416 O425 2.326 . S
In416 O427 2.294 . S
In416 O428 2.326 . S
O417 In416 2.294 . S
O417 C426 1.240 . S
O418 In416 2.326 . S
O418 C426 1.252 . S
C419 O422 1.252 . S
C419 O423 1.260 . S
C420 O427 1.240 . S
C420 O428 1.252 . S
C421 O424 1.252 . S
C421 O425 1.260 . S
O422 In416 2.266 . S
O422 C419 1.252 . S
O423 In416 2.326 . S
O423 C419 1.260 . S
O424 In416 2.266 . S
O424 C421 1.252 . S
O425 In416 2.326 . S
O425 C421 1.260 . S
C426 O417 1.240 . S
C426 O418 1.252 . S
O427 In416 2.294 . S
O427 C420 1.240 . S
O428 In416 2.326 . S
O428 C420 1.252 . S
In429 O430 2.294 . S
In429 O431 2.326 . S
In429 O435 2.266 . S
In429 O436 2.326 . S
In429 O437 2.266 . S
In429 O438 2.326 . S
In429 O440 2.294 . S
In429 O441 2.326 . S
O430 In429 2.294 . S
O430 C439 1.240 . S
O431 In429 2.326 . S
O431 C439 1.252 . S
C432 O435 1.252 . S
C432 O436 1.260 . S
C433 O440 1.240 . S
C433 O441 1.252 . S
C434 O437 1.252 . S
C434 O438 1.260 . S
O435 In429 2.266 . S
O435 C432 1.252 . S
O436 In429 2.326 . S
O436 C432 1.260 . S
O437 In429 2.266 . S
O437 C434 1.252 . S
O438 In429 2.326 . S
O438 C434 1.260 . S
C439 O430 1.240 . S
C439 O431 1.252 . S
O440 In429 2.294 . S
O440 C433 1.240 . S
O441 In429 2.326 . S
O441 C433 1.252 . S
In442 O443 2.294 . S
In442 O444 2.326 . S
In442 O448 2.266 . S
In442 O449 2.326 . S
In442 O450 2.266 . S
In442 O451 2.326 . S
In442 O453 2.294 . S
In442 O454 2.326 . S
O443 In442 2.294 . S
O443 C452 1.240 . S
O444 In442 2.326 . S
O444 C452 1.252 . S
C445 O448 1.252 . S
C445 O449 1.260 . S
C446 O453 1.240 . S
C446 O454 1.252 . S
C447 O450 1.252 . S
C447 O451 1.260 . S
O448 In442 2.266 . S
O448 C445 1.252 . S
O449 In442 2.326 . S
O449 C445 1.260 . S
O450 In442 2.266 . S
O450 C447 1.252 . S
O451 In442 2.326 . S
O451 C447 1.260 . S
C452 O443 1.240 . S
C452 O444 1.252 . S
O453 In442 2.294 . S
O453 C446 1.240 . S
O454 In442 2.326 . S
O454 C446 1.252 . S
In455 O456 2.294 . S
In455 O457 2.326 . S
In455 O461 2.266 . S
In455 O462 2.326 . S
In455 O463 2.266 . S
In455 O464 2.326 . S
In455 O466 2.294 . S
In455 O467 2.326 . S
O456 In455 2.294 . S
O456 C465 1.240 . S
O457 In455 2.326 . S
O457 C465 1.252 . S
C458 O461 1.252 . S
C458 O462 1.260 . S
C459 O466 1.240 . S
C459 O467 1.252 . S
C460 O463 1.252 . S
C460 O464 1.260 . S
O461 In455 2.266 . S
O461 C458 1.252 . S
O462 In455 2.326 . S
O462 C458 1.260 . S
O463 In455 2.266 . S
O463 C460 1.252 . S
O464 In455 2.326 . S
O464 C460 1.260 . S
C465 O456 1.240 . S
C465 O457 1.252 . S
O466 In455 2.294 . S
O466 C459 1.240 . S
O467 In455 2.326 . S
O467 C459 1.252 . S
In468 O469 2.294 . S
In468 O470 2.326 . S
In468 O474 2.266 . S
In468 O475 2.326 . S
In468 O476 2.266 . S
In468 O477 2.326 . S
In468 O479 2.294 . S
In468 O480 2.326 . S
O469 In468 2.294 . S
O469 C478 1.240 . S
O470 In468 2.326 . S
O470 C478 1.252 . S
C471 O474 1.252 . S
C471 O475 1.260 . S
C472 O479 1.240 . S
C472 O480 1.252 . S
C473 O476 1.252 . S
C473 O477 1.260 . S
O474 In468 2.266 . S
O474 C471 1.252 . S
O475 In468 2.326 . S
O475 C471 1.260 . S
O476 In468 2.266 . S
O476 C473 1.252 . S
O477 In468 2.326 . S
O477 C473 1.260 . S
C478 O469 1.240 . S
C478 O470 1.252 . S
O479 In468 2.294 . S
O479 C472 1.240 . S
O480 In468 2.326 . S
O480 C472 1.252 . S
In481 O482 2.294 . S
In481 O483 2.326 . S
In481 O487 2.266 . S
In481 O488 2.326 . S
In481 O489 2.266 . S
In481 O490 2.326 . S
In481 O492 2.294 . S
In481 O493 2.326 . S
O482 In481 2.294 . S
O482 C491 1.240 . S
O483 In481 2.326 . S
O483 C491 1.252 . S
C484 O487 1.252 . S
C484 O488 1.260 . S
C485 O492 1.240 . S
C485 O493 1.252 . S
C486 O489 1.252 . S
C486 O490 1.260 . S
O487 In481 2.266 . S
O487 C484 1.252 . S
O488 In481 2.326 . S
O488 C484 1.260 . S
O489 In481 2.266 . S
O489 C486 1.252 . S
O490 In481 2.326 . S
O490 C486 1.260 . S
C491 O482 1.240 . S
C491 O483 1.252 . S
O492 In481 2.294 . S
O492 C485 1.240 . S
O493 In481 2.326 . S
O493 C485 1.252 . S
In494 O495 2.294 . S
In494 O496 2.326 . S
In494 O500 2.266 . S
In494 O501 2.326 . S
In494 O502 2.266 . S
In494 O503 2.326 . S
In494 O505 2.294 . S
In494 O506 2.326 . S
O495 In494 2.294 . S
O495 C504 1.240 . S
O496 In494 2.326 . S
O496 C504 1.252 . S
C497 O500 1.252 . S
C497 O501 1.260 . S
C498 O505 1.240 . S
C498 O506 1.252 . S
C499 O502 1.252 . S
C499 O503 1.260 . S
O500 In494 2.266 . S
O500 C497 1.252 . S
O501 In494 2.326 . S
O501 C497 1.260 . S
O502 In494 2.266 . S
O502 C499 1.252 . S
O503 In494 2.326 . S
O503 C499 1.260 . S
C504 O495 1.240 . S
C504 O496 1.252 . S
O505 In494 2.294 . S
O505 C498 1.240 . S
O506 In494 2.326 . S
O506 C498 1.252 . S
In507 O508 2.294 . S
In507 O509 2.326 . S
In507 O513 2.266 . S
In507 O514 2.326 . S
In507 O515 2.266 . S
In507 O516 2.326 . S
In507 O518 2.294 . S
In507 O519 2.326 . S
O508 In507 2.294 . S
O508 C517 1.240 . S
O509 In507 2.326 . S
O509 C517 1.252 . S
C510 O513 1.252 . S
C510 O514 1.260 . S
C511 O518 1.240 . S
C511 O519 1.252 . S
C512 O515 1.252 . S
C512 O516 1.260 . S
O513 In507 2.266 . S
O513 C510 1.252 . S
O514 In507 2.326 . S
O514 C510 1.260 . S
O515 In507 2.266 . S
O515 C512 1.252 . S
O516 In507 2.326 . S
O516 C512 1.260 . S
C517 O508 1.240 . S
C517 O509 1.252 . S
O518 In507 2.294 . S
O518 C511 1.240 . S
O519 In507 2.326 . S
O519 C511 1.252 . S
In520 O521 2.294 . S
In520 O522 2.326 . S
In520 O526 2.266 . S
In520 O527 2.326 . S
In520 O528 2.266 . S
In520 O529 2.326 . S
In520 O531 2.294 . S
In520 O532 2.326 . S
O521 In520 2.294 . S
O521 C530 1.240 . S
O522 In520 2.326 . S
O522 C530 1.252 . S
C523 O526 1.252 . S
C523 O527 1.260 . S
C524 O531 1.240 . S
C524 O532 1.252 . S
C525 O528 1.252 . S
C525 O529 1.260 . S
O526 In520 2.266 . S
O526 C523 1.252 . S
O527 In520 2.326 . S
O527 C523 1.260 . S
O528 In520 2.266 . S
O528 C525 1.252 . S
O529 In520 2.326 . S
O529 C525 1.260 . S
C530 O521 1.240 . S
C530 O522 1.252 . S
O531 In520 2.294 . S
O531 C524 1.240 . S
O532 In520 2.326 . S
O532 C524 1.252 . S
In533 O534 2.294 . S
In533 O535 2.326 . S
In533 O539 2.266 . S
In533 O540 2.326 . S
In533 O541 2.266 . S
In533 O542 2.326 . S
In533 O544 2.294 . S
In533 O545 2.326 . S
O534 In533 2.294 . S
O534 C543 1.240 . S
O535 In533 2.326 . S
O535 C543 1.252 . S
C536 O539 1.252 . S
C536 O540 1.260 . S
C537 O544 1.240 . S
C537 O545 1.252 . S
C538 O541 1.252 . S
C538 O542 1.260 . S
O539 In533 2.266 . S
O539 C536 1.252 . S
O540 In533 2.326 . S
O540 C536 1.260 . S
O541 In533 2.266 . S
O541 C538 1.252 . S
O542 In533 2.326 . S
O542 C538 1.260 . S
C543 O534 1.240 . S
C543 O535 1.252 . S
O544 In533 2.294 . S
O544 C537 1.240 . S
O545 In533 2.326 . S
O545 C537 1.252 . S
In546 O547 2.294 . S
In546 O548 2.326 . S
In546 O552 2.266 . S
In546 O553 2.326 . S
In546 O554 2.266 . S
In546 O555 2.326 . S
In546 O557 2.294 . S
In546 O558 2.326 . S
O547 In546 2.294 . S
O547 C556 1.240 . S
O548 In546 2.326 . S
O548 C556 1.252 . S
C549 O552 1.252 . S
C549 O553 1.260 . S
C550 O557 1.240 . S
C550 O558 1.252 . S
C551 O554 1.252 . S
C551 O555 1.260 . S
O552 In546 2.266 . S
O552 C549 1.252 . S
O553 In546 2.326 . S
O553 C549 1.260 . S
O554 In546 2.266 . S
O554 C551 1.252 . S
O555 In546 2.326 . S
O555 C551 1.260 . S
C556 O547 1.240 . S
C556 O548 1.252 . S
O557 In546 2.294 . S
O557 C550 1.240 . S
O558 In546 2.326 . S
O558 C550 1.252 . S
In559 O560 2.294 . S
In559 O561 2.326 . S
In559 O565 2.266 . S
In559 O566 2.326 . S
In559 O567 2.266 . S
In559 O568 2.326 . S
In559 O570 2.294 . S
In559 O571 2.326 . S
O560 In559 2.294 . S
O560 C569 1.240 . S
O561 In559 2.326 . S
O561 C569 1.252 . S
C562 O565 1.252 . S
C562 O566 1.260 . S
C563 O570 1.240 . S
C563 O571 1.252 . S
C564 O567 1.252 . S
C564 O568 1.260 . S
O565 In559 2.266 . S
O565 C562 1.252 . S
O566 In559 2.326 . S
O566 C562 1.260 . S
O567 In559 2.266 . S
O567 C564 1.252 . S
O568 In559 2.326 . S
O568 C564 1.260 . S
C569 O560 1.240 . S
C569 O561 1.252 . S
O570 In559 2.294 . S
O570 C563 1.240 . S
O571 In559 2.326 . S
O571 C563 1.252 . S
In572 O573 2.294 . S
In572 O574 2.326 . S
In572 O578 2.266 . S
In572 O579 2.326 . S
In572 O580 2.266 . S
In572 O581 2.326 . S
In572 O583 2.294 . S
In572 O584 2.326 . S
O573 In572 2.294 . S
O573 C582 1.240 . S
O574 In572 2.326 . S
O574 C582 1.252 . S
C575 O578 1.252 . S
C575 O579 1.260 . S
C576 O583 1.240 . S
C576 O584 1.252 . S
C577 O580 1.252 . S
C577 O581 1.260 . S
O578 In572 2.266 . S
O578 C575 1.252 . S
O579 In572 2.326 . S
O579 C575 1.260 . S
O580 In572 2.266 . S
O580 C577 1.252 . S
O581 In572 2.326 . S
O581 C577 1.260 . S
C582 O573 1.240 . S
C582 O574 1.252 . S
O583 In572 2.294 . S
O583 C576 1.240 . S
O584 In572 2.326 . S
O584 C576 1.252 . S
In585 O586 2.294 . S
In585 O587 2.326 . S
In585 O591 2.266 . S
In585 O592 2.326 . S
In585 O593 2.266 . S
In585 O594 2.326 . S
In585 O596 2.294 . S
In585 O597 2.326 . S
O586 In585 2.294 . S
O586 C595 1.240 . S
O587 In585 2.326 . S
O587 C595 1.252 . S
C588 O591 1.252 . S
C588 O592 1.260 . S
C589 O596 1.240 . S
C589 O597 1.252 . S
C590 O593 1.252 . S
C590 O594 1.260 . S
O591 In585 2.266 . S
O591 C588 1.252 . S
O592 In585 2.326 . S
O592 C588 1.260 . S
O593 In585 2.266 . S
O593 C590 1.252 . S
O594 In585 2.326 . S
O594 C590 1.260 . S
C595 O586 1.240 . S
C595 O587 1.252 . S
O596 In585 2.294 . S
O596 C589 1.240 . S
O597 In585 2.326 . S
O597 C589 1.252 . S
In598 O599 2.294 . S
In598 O600 2.326 . S
In598 O604 2.266 . S
In598 O605 2.326 . S
In598 O606 2.266 . S
In598 O607 2.326 . S
In598 O609 2.294 . S
In598 O610 2.326 . S
O599 In598 2.294 . S
O599 C608 1.240 . S
O600 In598 2.326 . S
O600 C608 1.252 . S
C601 O604 1.252 . S
C601 O605 1.260 . S
C602 O609 1.240 . S
C602 O610 1.252 . S
C603 O606 1.252 . S
C603 O607 1.260 . S
O604 In598 2.266 . S
O604 C601 1.252 . S
O605 In598 2.326 . S
O605 C601 1.260 . S
O606 In598 2.266 . S
O606 C603 1.252 . S
O607 In598 2.326 . S
O607 C603 1.260 . S
C608 O599 1.240 . S
C608 O600 1.252 . S
O609 In598 2.294 . S
O609 C602 1.240 . S
O610 In598 2.326 . S
O610 C602 1.252 . S
In611 O612 2.294 . S
In611 O613 2.326 . S
In611 O617 2.266 . S
In611 O618 2.326 . S
In611 O619 2.266 . S
In611 O620 2.326 . S
In611 O622 2.294 . S
In611 O623 2.326 . S
O612 In611 2.294 . S
O612 C621 1.240 . S
O613 In611 2.326 . S
O613 C621 1.252 . S
C614 O617 1.252 . S
C614 O618 1.260 . S
C615 O622 1.240 . S
C615 O623 1.252 . S
C616 O619 1.252 . S
C616 O620 1.260 . S
O617 In611 2.266 . S
O617 C614 1.252 . S
O618 In611 2.326 . S
O618 C614 1.260 . S
O619 In611 2.266 . S
O619 C616 1.252 . S
O620 In611 2.326 . S
O620 C616 1.260 . S
C621 O612 1.240 . S
C621 O613 1.252 . S
O622 In611 2.294 . S
O622 C615 1.240 . S
O623 In611 2.326 . S
O623 C615 1.252 . S
In624 O625 2.294 . S
In624 O626 2.326 . S
In624 O630 2.266 . S
In624 O631 2.326 . S
In624 O632 2.266 . S
In624 O633 2.326 . S
In624 O635 2.294 . S
In624 O636 2.326 . S
O625 In624 2.294 . S
O625 C634 1.240 . S
O626 In624 2.326 . S
O626 C634 1.252 . S
C627 O630 1.252 . S
C627 O631 1.260 . S
C628 O635 1.240 . S
C628 O636 1.252 . S
C629 O632 1.252 . S
C629 O633 1.260 . S
O630 In624 2.266 . S
O630 C627 1.252 . S
O631 In624 2.326 . S
O631 C627 1.260 . S
O632 In624 2.266 . S
O632 C629 1.252 . S
O633 In624 2.326 . S
O633 C629 1.260 . S
C634 O625 1.240 . S
C634 O626 1.252 . S
O635 In624 2.294 . S
O635 C628 1.240 . S
O636 In624 2.326 . S
O636 C628 1.252 . S
In637 O638 2.294 . S
In637 O639 2.326 . S
In637 O643 2.266 . S
In637 O644 2.326 . S
In637 O645 2.266 . S
In637 O646 2.326 . S
In637 O648 2.294 . S
In637 O649 2.326 . S
O638 In637 2.294 . S
O638 C647 1.240 . S
O639 In637 2.326 . S
O639 C647 1.252 . S
C640 O643 1.252 . S
C640 O644 1.260 . S
C641 O648 1.240 . S
C641 O649 1.252 . S
C642 O645 1.252 . S
C642 O646 1.260 . S
O643 In637 2.266 . S
O643 C640 1.252 . S
O644 In637 2.326 . S
O644 C640 1.260 . S
O645 In637 2.266 . S
O645 C642 1.252 . S
O646 In637 2.326 . S
O646 C642 1.260 . S
C647 O638 1.240 . S
C647 O639 1.252 . S
O648 In637 2.294 . S
O648 C641 1.240 . S
O649 In637 2.326 . S
O649 C641 1.252 . S
In650 O651 2.294 . S
In650 O652 2.326 . S
In650 O656 2.266 . S
In650 O657 2.326 . S
In650 O658 2.266 . S
In650 O659 2.326 . S
In650 O661 2.294 . S
In650 O662 2.326 . S
O651 In650 2.294 . S
O651 C660 1.240 . S
O652 In650 2.326 . S
O652 C660 1.252 . S
C653 O656 1.252 . S
C653 O657 1.260 . S
C654 O661 1.240 . S
C654 O662 1.252 . S
C655 O658 1.252 . S
C655 O659 1.260 . S
O656 In650 2.266 . S
O656 C653 1.252 . S
O657 In650 2.326 . S
O657 C653 1.260 . S
O658 In650 2.266 . S
O658 C655 1.252 . S
O659 In650 2.326 . S
O659 C655 1.260 . S
C660 O651 1.240 . S
C660 O652 1.252 . S
O661 In650 2.294 . S
O661 C654 1.240 . S
O662 In650 2.326 . S
O662 C654 1.252 . S
In663 O664 2.294 . S
In663 O665 2.326 . S
In663 O669 2.266 . S
In663 O670 2.326 . S
In663 O671 2.266 . S
In663 O672 2.326 . S
In663 O674 2.294 . S
In663 O675 2.326 . S
O664 In663 2.294 . S
O664 C673 1.240 . S
O665 In663 2.326 . S
O665 C673 1.252 . S
C666 O669 1.252 . S
C666 O670 1.260 . S
C667 O674 1.240 . S
C667 O675 1.252 . S
C668 O671 1.252 . S
C668 O672 1.260 . S
O669 In663 2.266 . S
O669 C666 1.252 . S
O670 In663 2.326 . S
O670 C666 1.260 . S
O671 In663 2.266 . S
O671 C668 1.252 . S
O672 In663 2.326 . S
O672 C668 1.260 . S
C673 O664 1.240 . S
C673 O665 1.252 . S
O674 In663 2.294 . S
O674 C667 1.240 . S
O675 In663 2.326 . S
O675 C667 1.252 . S
In676 O677 2.294 . S
In676 O678 2.326 . S
In676 O682 2.266 . S
In676 O683 2.326 . S
In676 O684 2.266 . S
In676 O685 2.326 . S
In676 O687 2.294 . S
In676 O688 2.326 . S
O677 In676 2.294 . S
O677 C686 1.240 . S
O678 In676 2.326 . S
O678 C686 1.252 . S
C679 O682 1.252 . S
C679 O683 1.260 . S
C680 O687 1.240 . S
C680 O688 1.252 . S
C681 O684 1.252 . S
C681 O685 1.260 . S
O682 In676 2.266 . S
O682 C679 1.252 . S
O683 In676 2.326 . S
O683 C679 1.260 . S
O684 In676 2.266 . S
O684 C681 1.252 . S
O685 In676 2.326 . S
O685 C681 1.260 . S
C686 O677 1.240 . S
C686 O678 1.252 . S
O687 In676 2.294 . S
O687 C680 1.240 . S
O688 In676 2.326 . S
O688 C680 1.252 . S
In689 O690 2.294 . S
In689 O691 2.326 . S
In689 O695 2.266 . S
In689 O696 2.326 . S
In689 O697 2.266 . S
In689 O698 2.326 . S
In689 O700 2.294 . S
In689 O701 2.326 . S
O690 In689 2.294 . S
O690 C699 1.240 . S
O691 In689 2.326 . S
O691 C699 1.252 . S
C692 O695 1.252 . S
C692 O696 1.260 . S
C693 O700 1.240 . S
C693 O701 1.252 . S
C694 O697 1.252 . S
C694 O698 1.260 . S
O695 In689 2.266 . S
O695 C692 1.252 . S
O696 In689 2.326 . S
O696 C692 1.260 . S
O697 In689 2.266 . S
O697 C694 1.252 . S
O698 In689 2.326 . S
O698 C694 1.260 . S
C699 O690 1.240 . S
C699 O691 1.252 . S
O700 In689 2.294 . S
O700 C693 1.240 . S
O701 In689 2.326 . S
O701 C693 1.252 . S
In702 O703 2.294 . S
In702 O704 2.326 . S
In702 O708 2.266 . S
In702 O709 2.326 . S
In702 O710 2.266 . S
In702 O711 2.326 . S
In702 O713 2.294 . S
In702 O714 2.326 . S
O703 In702 2.294 . S
O703 C712 1.240 . S
O704 In702 2.326 . S
O704 C712 1.252 . S
C705 O708 1.252 . S
C705 O709 1.260 . S
C706 O713 1.240 . S
C706 O714 1.252 . S
C707 O710 1.252 . S
C707 O711 1.260 . S
O708 In702 2.266 . S
O708 C705 1.252 . S
O709 In702 2.326 . S
O709 C705 1.260 . S
O710 In702 2.266 . S
O710 C707 1.252 . S
O711 In702 2.326 . S
O711 C707 1.260 . S
C712 O703 1.240 . S
C712 O704 1.252 . S
O713 In702 2.294 . S
O713 C706 1.240 . S
O714 In702 2.326 . S
O714 C706 1.252 . S
In715 O716 2.294 . S
In715 O717 2.326 . S
In715 O721 2.266 . S
In715 O722 2.326 . S
In715 O723 2.266 . S
In715 O724 2.326 . S
In715 O726 2.294 . S
In715 O727 2.326 . S
O716 In715 2.294 . S
O716 C725 1.240 . S
O717 In715 2.326 . S
O717 C725 1.252 . S
C718 O721 1.252 . S
C718 O722 1.260 . S
C719 O726 1.240 . S
C719 O727 1.252 . S
C720 O723 1.252 . S
C720 O724 1.260 . S
O721 In715 2.266 . S
O721 C718 1.252 . S
O722 In715 2.326 . S
O722 C718 1.260 . S
O723 In715 2.266 . S
O723 C720 1.252 . S
O724 In715 2.326 . S
O724 C720 1.260 . S
C725 O716 1.240 . S
C725 O717 1.252 . S
O726 In715 2.294 . S
O726 C719 1.240 . S
O727 In715 2.326 . S
O727 C719 1.252 . S
In728 O729 2.294 . S
In728 O730 2.326 . S
In728 O734 2.266 . S
In728 O735 2.326 . S
In728 O736 2.266 . S
In728 O737 2.326 . S
In728 O739 2.294 . S
In728 O740 2.326 . S
O729 In728 2.294 . S
O729 C738 1.240 . S
O730 In728 2.326 . S
O730 C738 1.252 . S
C731 O734 1.252 . S
C731 O735 1.260 . S
C732 O739 1.240 . S
C732 O740 1.252 . S
C733 O736 1.252 . S
C733 O737 1.260 . S
O734 In728 2.266 . S
O734 C731 1.252 . S
O735 In728 2.326 . S
O735 C731 1.260 . S
O736 In728 2.266 . S
O736 C733 1.252 . S
O737 In728 2.326 . S
O737 C733 1.260 . S
C738 O729 1.240 . S
C738 O730 1.252 . S
O739 In728 2.294 . S
O739 C732 1.240 . S
O740 In728 2.326 . S
O740 C732 1.252 . S
In741 O742 2.294 . S
In741 O743 2.326 . S
In741 O747 2.266 . S
In741 O748 2.326 . S
In741 O749 2.266 . S
In741 O750 2.326 . S
In741 O752 2.294 . S
In741 O753 2.326 . S
O742 In741 2.294 . S
O742 C751 1.240 . S
O743 In741 2.326 . S
O743 C751 1.252 . S
C744 O747 1.252 . S
C744 O748 1.260 . S
C745 O752 1.240 . S
C745 O753 1.252 . S
C746 O749 1.252 . S
C746 O750 1.260 . S
O747 In741 2.266 . S
O747 C744 1.252 . S
O748 In741 2.326 . S
O748 C744 1.260 . S
O749 In741 2.266 . S
O749 C746 1.252 . S
O750 In741 2.326 . S
O750 C746 1.260 . S
C751 O742 1.240 . S
C751 O743 1.252 . S
O752 In741 2.294 . S
O752 C745 1.240 . S
O753 In741 2.326 . S
O753 C745 1.252 . S
In754 O755 2.294 . S
In754 O756 2.326 . S
In754 O760 2.266 . S
In754 O761 2.326 . S
In754 O762 2.266 . S
In754 O763 2.326 . S
In754 O765 2.294 . S
In754 O766 2.326 . S
O755 In754 2.294 . S
O755 C764 1.240 . S
O756 In754 2.326 . S
O756 C764 1.252 . S
C757 O760 1.252 . S
C757 O761 1.260 . S
C758 O765 1.240 . S
C758 O766 1.252 . S
C759 O762 1.252 . S
C759 O763 1.260 . S
O760 In754 2.266 . S
O760 C757 1.252 . S
O761 In754 2.326 . S
O761 C757 1.260 . S
O762 In754 2.266 . S
O762 C759 1.252 . S
O763 In754 2.326 . S
O763 C759 1.260 . S
C764 O755 1.240 . S
C764 O756 1.252 . S
O765 In754 2.294 . S
O765 C758 1.240 . S
O766 In754 2.326 . S
O766 C758 1.252 . S
In767 O768 2.294 . S
In767 O769 2.326 . S
In767 O773 2.266 . S
In767 O774 2.326 . S
In767 O775 2.266 . S
In767 O776 2.326 . S
In767 O778 2.294 . S
In767 O779 2.326 . S
O768 In767 2.294 . S
O768 C777 1.240 . S
O769 In767 2.326 . S
O769 C777 1.252 . S
C770 O773 1.252 . S
C770 O774 1.260 . S
C771 O778 1.240 . S
C771 O779 1.252 . S
C772 O775 1.252 . S
C772 O776 1.260 . S
O773 In767 2.266 . S
O773 C770 1.252 . S
O774 In767 2.326 . S
O774 C770 1.260 . S
O775 In767 2.266 . S
O775 C772 1.252 . S
O776 In767 2.326 . S
O776 C772 1.260 . S
C777 O768 1.240 . S
C777 O769 1.252 . S
O778 In767 2.294 . S
O778 C771 1.240 . S
O779 In767 2.326 . S
O779 C771 1.252 . S
In780 O781 2.294 . S
In780 O782 2.326 . S
In780 O786 2.266 . S
In780 O787 2.326 . S
In780 O788 2.266 . S
In780 O789 2.326 . S
In780 O791 2.294 . S
In780 O792 2.326 . S
O781 In780 2.294 . S
O781 C790 1.240 . S
O782 In780 2.326 . S
O782 C790 1.252 . S
C783 O786 1.252 . S
C783 O787 1.260 . S
C784 O791 1.240 . S
C784 O792 1.252 . S
C785 O788 1.252 . S
C785 O789 1.260 . S
O786 In780 2.266 . S
O786 C783 1.252 . S
O787 In780 2.326 . S
O787 C783 1.260 . S
O788 In780 2.266 . S
O788 C785 1.252 . S
O789 In780 2.326 . S
O789 C785 1.260 . S
C790 O781 1.240 . S
C790 O782 1.252 . S
O791 In780 2.294 . S
O791 C784 1.240 . S
O792 In780 2.326 . S
O792 C784 1.252 . S
In793 O794 2.294 . S
In793 O795 2.326 . S
In793 O799 2.266 . S
In793 O800 2.326 . S
In793 O801 2.266 . S
In793 O802 2.326 . S
In793 O804 2.294 . S
In793 O805 2.326 . S
O794 In793 2.294 . S
O794 C803 1.240 . S
O795 In793 2.326 . S
O795 C803 1.252 . S
C796 O799 1.252 . S
C796 O800 1.260 . S
C797 O804 1.240 . S
C797 O805 1.252 . S
C798 O801 1.252 . S
C798 O802 1.260 . S
O799 In793 2.266 . S
O799 C796 1.252 . S
O800 In793 2.326 . S
O800 C796 1.260 . S
O801 In793 2.266 . S
O801 C798 1.252 . S
O802 In793 2.326 . S
O802 C798 1.260 . S
C803 O794 1.240 . S
C803 O795 1.252 . S
O804 In793 2.294 . S
O804 C797 1.240 . S
O805 In793 2.326 . S
O805 C797 1.252 . S
In806 O807 2.294 . S
In806 O808 2.326 . S
In806 O812 2.266 . S
In806 O813 2.326 . S
In806 O814 2.266 . S
In806 O815 2.326 . S
In806 O817 2.294 . S
In806 O818 2.326 . S
O807 In806 2.294 . S
O807 C816 1.240 . S
O808 In806 2.326 . S
O808 C816 1.252 . S
C809 O812 1.252 . S
C809 O813 1.260 . S
C810 O817 1.240 . S
C810 O818 1.252 . S
C811 O814 1.252 . S
C811 O815 1.260 . S
O812 In806 2.266 . S
O812 C809 1.252 . S
O813 In806 2.326 . S
O813 C809 1.260 . S
O814 In806 2.266 . S
O814 C811 1.252 . S
O815 In806 2.326 . S
O815 C811 1.260 . S
C816 O807 1.240 . S
C816 O808 1.252 . S
O817 In806 2.294 . S
O817 C810 1.240 . S
O818 In806 2.326 . S
O818 C810 1.252 . S
In819 O820 2.294 . S
In819 O821 2.326 . S
In819 O825 2.266 . S
In819 O826 2.326 . S
In819 O827 2.266 . S
In819 O828 2.326 . S
In819 O830 2.294 . S
In819 O831 2.326 . S
O820 In819 2.294 . S
O820 C829 1.240 . S
O821 In819 2.326 . S
O821 C829 1.252 . S
C822 O825 1.252 . S
C822 O826 1.260 . S
C823 O830 1.240 . S
C823 O831 1.252 . S
C824 O827 1.252 . S
C824 O828 1.260 . S
O825 In819 2.266 . S
O825 C822 1.252 . S
O826 In819 2.326 . S
O826 C822 1.260 . S
O827 In819 2.266 . S
O827 C824 1.252 . S
O828 In819 2.326 . S
O828 C824 1.260 . S
C829 O820 1.240 . S
C829 O821 1.252 . S
O830 In819 2.294 . S
O830 C823 1.240 . S
O831 In819 2.326 . S
O831 C823 1.252 . S
In832 O833 2.294 . S
In832 O834 2.326 . S
In832 O838 2.266 . S
In832 O839 2.326 . S
In832 O840 2.266 . S
In832 O841 2.326 . S
In832 O843 2.294 . S
In832 O844 2.326 . S
O833 In832 2.294 . S
O833 C842 1.240 . S
O834 In832 2.326 . S
O834 C842 1.252 . S
C835 O838 1.252 . S
C835 O839 1.260 . S
C836 O843 1.240 . S
C836 O844 1.252 . S
C837 O840 1.252 . S
C837 O841 1.260 . S
O838 In832 2.266 . S
O838 C835 1.252 . S
O839 In832 2.326 . S
O839 C835 1.260 . S
O840 In832 2.266 . S
O840 C837 1.252 . S
O841 In832 2.326 . S
O841 C837 1.260 . S
C842 O833 1.240 . S
C842 O834 1.252 . S
O843 In832 2.294 . S
O843 C836 1.240 . S
O844 In832 2.326 . S
O844 C836 1.252 . S
In845 O846 2.294 . S
In845 O847 2.326 . S
In845 O851 2.266 . S
In845 O852 2.326 . S
In845 O853 2.266 . S
In845 O854 2.326 . S
In845 O856 2.294 . S
In845 O857 2.326 . S
O846 In845 2.294 . S
O846 C855 1.240 . S
O847 In845 2.326 . S
O847 C855 1.252 . S
C848 O851 1.252 . S
C848 O852 1.260 . S
C849 O856 1.240 . S
C849 O857 1.252 . S
C850 O853 1.252 . S
C850 O854 1.260 . S
O851 In845 2.266 . S
O851 C848 1.252 . S
O852 In845 2.326 . S
O852 C848 1.260 . S
O853 In845 2.266 . S
O853 C850 1.252 . S
O854 In845 2.326 . S
O854 C850 1.260 . S
C855 O846 1.240 . S
C855 O847 1.252 . S
O856 In845 2.294 . S
O856 C849 1.240 . S
O857 In845 2.326 . S
O857 C849 1.252 . S
In858 O859 2.294 . S
In858 O860 2.326 . S
In858 O864 2.266 . S
In858 O865 2.326 . S
In858 O866 2.266 . S
In858 O867 2.326 . S
In858 O869 2.294 . S
In858 O870 2.326 . S
O859 In858 2.294 . S
O859 C868 1.240 . S
O860 In858 2.326 . S
O860 C868 1.252 . S
C861 O864 1.252 . S
C861 O865 1.260 . S
C862 O869 1.240 . S
C862 O870 1.252 . S
C863 O866 1.252 . S
C863 O867 1.260 . S
O864 In858 2.266 . S
O864 C861 1.252 . S
O865 In858 2.326 . S
O865 C861 1.260 . S
O866 In858 2.266 . S
O866 C863 1.252 . S
O867 In858 2.326 . S
O867 C863 1.260 . S
C868 O859 1.240 . S
C868 O860 1.252 . S
O869 In858 2.294 . S
O869 C862 1.240 . S
O870 In858 2.326 . S
O870 C862 1.252 . S
In871 O872 2.294 . S
In871 O873 2.326 . S
In871 O877 2.266 . S
In871 O878 2.326 . S
In871 O879 2.266 . S
In871 O880 2.326 . S
In871 O882 2.294 . S
In871 O883 2.326 . S
O872 In871 2.294 . S
O872 C881 1.240 . S
O873 In871 2.326 . S
O873 C881 1.252 . S
C874 O877 1.252 . S
C874 O878 1.260 . S
C875 O882 1.240 . S
C875 O883 1.252 . S
C876 O879 1.252 . S
C876 O880 1.260 . S
O877 In871 2.266 . S
O877 C874 1.252 . S
O878 In871 2.326 . S
O878 C874 1.260 . S
O879 In871 2.266 . S
O879 C876 1.252 . S
O880 In871 2.326 . S
O880 C876 1.260 . S
C881 O872 1.240 . S
C881 O873 1.252 . S
O882 In871 2.294 . S
O882 C875 1.240 . S
O883 In871 2.326 . S
O883 C875 1.252 . S
In884 O885 2.294 . S
In884 O886 2.326 . S
In884 O890 2.266 . S
In884 O891 2.326 . S
In884 O892 2.266 . S
In884 O893 2.326 . S
In884 O895 2.294 . S
In884 O896 2.326 . S
O885 In884 2.294 . S
O885 C894 1.240 . S
O886 In884 2.326 . S
O886 C894 1.252 . S
C887 O890 1.252 . S
C887 O891 1.260 . S
C888 O895 1.240 . S
C888 O896 1.252 . S
C889 O892 1.252 . S
C889 O893 1.260 . S
O890 In884 2.266 . S
O890 C887 1.252 . S
O891 In884 2.326 . S
O891 C887 1.260 . S
O892 In884 2.266 . S
O892 C889 1.252 . S
O893 In884 2.326 . S
O893 C889 1.260 . S
C894 O885 1.240 . S
C894 O886 1.252 . S
O895 In884 2.294 . S
O895 C888 1.240 . S
O896 In884 2.326 . S
O896 C888 1.252 . S
In897 O898 2.294 . S
In897 O899 2.326 . S
In897 O903 2.266 . S
In897 O904 2.326 . S
In897 O905 2.266 . S
In897 O906 2.326 . S
In897 O908 2.294 . S
In897 O909 2.326 . S
O898 In897 2.294 . S
O898 C907 1.240 . S
O899 In897 2.326 . S
O899 C907 1.252 . S
C900 O903 1.252 . S
C900 O904 1.260 . S
C901 O908 1.240 . S
C901 O909 1.252 . S
C902 O905 1.252 . S
C902 O906 1.260 . S
O903 In897 2.266 . S
O903 C900 1.252 . S
O904 In897 2.326 . S
O904 C900 1.260 . S
O905 In897 2.266 . S
O905 C902 1.252 . S
O906 In897 2.326 . S
O906 C902 1.260 . S
C907 O898 1.240 . S
C907 O899 1.252 . S
O908 In897 2.294 . S
O908 C901 1.240 . S
O909 In897 2.326 . S
O909 C901 1.252 . S
In910 O911 2.294 . S
In910 O912 2.326 . S
In910 O916 2.266 . S
In910 O917 2.326 . S
In910 O918 2.266 . S
In910 O919 2.326 . S
In910 O921 2.294 . S
In910 O922 2.326 . S
O911 In910 2.294 . S
O911 C920 1.240 . S
O912 In910 2.326 . S
O912 C920 1.252 . S
C913 O916 1.252 . S
C913 O917 1.260 . S
C914 O921 1.240 . S
C914 O922 1.252 . S
C915 O918 1.252 . S
C915 O919 1.260 . S
O916 In910 2.266 . S
O916 C913 1.252 . S
O917 In910 2.326 . S
O917 C913 1.260 . S
O918 In910 2.266 . S
O918 C915 1.252 . S
O919 In910 2.326 . S
O919 C915 1.260 . S
C920 O911 1.240 . S
C920 O912 1.252 . S
O921 In910 2.294 . S
O921 C914 1.240 . S
O922 In910 2.326 . S
O922 C914 1.252 . S
In923 O924 2.294 . S
In923 O925 2.326 . S
In923 O929 2.266 . S
In923 O930 2.326 . S
In923 O931 2.266 . S
In923 O932 2.326 . S
In923 O934 2.294 . S
In923 O935 2.326 . S
O924 In923 2.294 . S
O924 C933 1.240 . S
O925 In923 2.326 . S
O925 C933 1.252 . S
C926 O929 1.252 . S
C926 O930 1.260 . S
C927 O934 1.240 . S
C927 O935 1.252 . S
C928 O931 1.252 . S
C928 O932 1.260 . S
O929 In923 2.266 . S
O929 C926 1.252 . S
O930 In923 2.326 . S
O930 C926 1.260 . S
O931 In923 2.266 . S
O931 C928 1.252 . S
O932 In923 2.326 . S
O932 C928 1.260 . S
C933 O924 1.240 . S
C933 O925 1.252 . S
O934 In923 2.294 . S
O934 C927 1.240 . S
O935 In923 2.326 . S
O935 C927 1.252 . S
In936 O937 2.294 . S
In936 O938 2.326 . S
In936 O942 2.266 . S
In936 O943 2.326 . S
In936 O944 2.266 . S
In936 O945 2.326 . S
In936 O947 2.294 . S
In936 O948 2.326 . S
O937 In936 2.294 . S
O937 C946 1.240 . S
O938 In936 2.326 . S
O938 C946 1.252 . S
C939 O942 1.252 . S
C939 O943 1.260 . S
C940 O947 1.240 . S
C940 O948 1.252 . S
C941 O944 1.252 . S
C941 O945 1.260 . S
O942 In936 2.266 . S
O942 C939 1.252 . S
O943 In936 2.326 . S
O943 C939 1.260 . S
O944 In936 2.266 . S
O944 C941 1.252 . S
O945 In936 2.326 . S
O945 C941 1.260 . S
C946 O937 1.240 . S
C946 O938 1.252 . S
O947 In936 2.294 . S
O947 C940 1.240 . S
O948 In936 2.326 . S
O948 C940 1.252 . S
In949 O950 2.294 . S
In949 O951 2.326 . S
In949 O955 2.266 . S
In949 O956 2.326 . S
In949 O957 2.266 . S
In949 O958 2.326 . S
In949 O960 2.294 . S
In949 O961 2.326 . S
O950 In949 2.294 . S
O950 C959 1.240 . S
O951 In949 2.326 . S
O951 C959 1.252 . S
C952 O955 1.252 . S
C952 O956 1.260 . S
C953 O960 1.240 . S
C953 O961 1.252 . S
C954 O957 1.252 . S
C954 O958 1.260 . S
O955 In949 2.266 . S
O955 C952 1.252 . S
O956 In949 2.326 . S
O956 C952 1.260 . S
O957 In949 2.266 . S
O957 C954 1.252 . S
O958 In949 2.326 . S
O958 C954 1.260 . S
C959 O950 1.240 . S
C959 O951 1.252 . S
O960 In949 2.294 . S
O960 C953 1.240 . S
O961 In949 2.326 . S
O961 C953 1.252 . S
In962 O963 2.294 . S
In962 O964 2.326 . S
In962 O968 2.266 . S
In962 O969 2.326 . S
In962 O970 2.266 . S
In962 O971 2.326 . S
In962 O973 2.294 . S
In962 O974 2.326 . S
O963 In962 2.294 . S
O963 C972 1.240 . S
O964 In962 2.326 . S
O964 C972 1.252 . S
C965 O968 1.252 . S
C965 O969 1.260 . S
C966 O973 1.240 . S
C966 O974 1.252 . S
C967 O970 1.252 . S
C967 O971 1.260 . S
O968 In962 2.266 . S
O968 C965 1.252 . S
O969 In962 2.326 . S
O969 C965 1.260 . S
O970 In962 2.266 . S
O970 C967 1.252 . S
O971 In962 2.326 . S
O971 C967 1.260 . S
C972 O963 1.240 . S
C972 O964 1.252 . S
O973 In962 2.294 . S
O973 C966 1.240 . S
O974 In962 2.326 . S
O974 C966 1.252 . S
In975 O976 2.294 . S
In975 O977 2.326 . S
In975 O981 2.266 . S
In975 O982 2.326 . S
In975 O983 2.266 . S
In975 O984 2.326 . S
In975 O986 2.294 . S
In975 O987 2.326 . S
O976 In975 2.294 . S
O976 C985 1.240 . S
O977 In975 2.326 . S
O977 C985 1.252 . S
C978 O981 1.252 . S
C978 O982 1.260 . S
C979 O986 1.240 . S
C979 O987 1.252 . S
C980 O983 1.252 . S
C980 O984 1.260 . S
O981 In975 2.266 . S
O981 C978 1.252 . S
O982 In975 2.326 . S
O982 C978 1.260 . S
O983 In975 2.266 . S
O983 C980 1.252 . S
O984 In975 2.326 . S
O984 C980 1.260 . S
C985 O976 1.240 . S
C985 O977 1.252 . S
O986 In975 2.294 . S
O986 C979 1.240 . S
O987 In975 2.326 . S
O987 C979 1.252 . S
In988 O989 2.294 . S
In988 O990 2.326 . S
In988 O994 2.266 . S
In988 O995 2.326 . S
In988 O996 2.266 . S
In988 O997 2.326 . S
In988 O999 2.294 . S
In988 O1000 2.326 . S
O989 In988 2.294 . S
O989 C998 1.240 . S
O990 In988 2.326 . S
O990 C998 1.252 . S
C991 O994 1.252 . S
C991 O995 1.260 . S
C992 O999 1.240 . S
C992 O1000 1.252 . S
C993 O996 1.252 . S
C993 O997 1.260 . S
O994 In988 2.266 . S
O994 C991 1.252 . S
O995 In988 2.326 . S
O995 C991 1.260 . S
O996 In988 2.266 . S
O996 C993 1.252 . S
O997 In988 2.326 . S
O997 C993 1.260 . S
C998 O989 1.240 . S
C998 O990 1.252 . S
O999 In988 2.294 . S
O999 C992 1.240 . S
O1000 In988 2.326 . S
O1000 C992 1.252 . S
In1001 O1002 2.294 . S
In1001 O1003 2.326 . S
In1001 O1007 2.266 . S
In1001 O1008 2.326 . S
In1001 O1009 2.266 . S
In1001 O1010 2.326 . S
In1001 O1012 2.294 . S
In1001 O1013 2.326 . S
O1002 In1001 2.294 . S
O1002 C1011 1.240 . S
O1003 In1001 2.326 . S
O1003 C1011 1.252 . S
C1004 O1007 1.252 . S
C1004 O1008 1.260 . S
C1005 O1012 1.240 . S
C1005 O1013 1.252 . S
C1006 O1009 1.252 . S
C1006 O1010 1.260 . S
O1007 In1001 2.266 . S
O1007 C1004 1.252 . S
O1008 In1001 2.326 . S
O1008 C1004 1.260 . S
O1009 In1001 2.266 . S
O1009 C1006 1.252 . S
O1010 In1001 2.326 . S
O1010 C1006 1.260 . S
C1011 O1002 1.240 . S
C1011 O1003 1.252 . S
O1012 In1001 2.294 . S
O1012 C1005 1.240 . S
O1013 In1001 2.326 . S
O1013 C1005 1.252 . S
In1014 O1015 2.294 . S
In1014 O1016 2.326 . S
In1014 O1020 2.266 . S
In1014 O1021 2.326 . S
In1014 O1022 2.266 . S
In1014 O1023 2.326 . S
In1014 O1025 2.294 . S
In1014 O1026 2.326 . S
O1015 In1014 2.294 . S
O1015 C1024 1.240 . S
O1016 In1014 2.326 . S
O1016 C1024 1.252 . S
C1017 O1020 1.252 . S
C1017 O1021 1.260 . S
C1018 O1025 1.240 . S
C1018 O1026 1.252 . S
C1019 O1022 1.252 . S
C1019 O1023 1.260 . S
O1020 In1014 2.266 . S
O1020 C1017 1.252 . S
O1021 In1014 2.326 . S
O1021 C1017 1.260 . S
O1022 In1014 2.266 . S
O1022 C1019 1.252 . S
O1023 In1014 2.326 . S
O1023 C1019 1.260 . S
C1024 O1015 1.240 . S
C1024 O1016 1.252 . S
O1025 In1014 2.294 . S
O1025 C1018 1.240 . S
O1026 In1014 2.326 . S
O1026 C1018 1.252 . S
In1027 O1028 2.294 . S
In1027 O1029 2.326 . S
In1027 O1033 2.266 . S
In1027 O1034 2.326 . S
In1027 O1035 2.266 . S
In1027 O1036 2.326 . S
In1027 O1038 2.294 . S
In1027 O1039 2.326 . S
O1028 In1027 2.294 . S
O1028 C1037 1.240 . S
O1029 In1027 2.326 . S
O1029 C1037 1.252 . S
C1030 O1033 1.252 . S
C1030 O1034 1.260 . S
C1031 O1038 1.240 . S
C1031 O1039 1.252 . S
C1032 O1035 1.252 . S
C1032 O1036 1.260 . S
O1033 In1027 2.266 . S
O1033 C1030 1.252 . S
O1034 In1027 2.326 . S
O1034 C1030 1.260 . S
O1035 In1027 2.266 . S
O1035 C1032 1.252 . S
O1036 In1027 2.326 . S
O1036 C1032 1.260 . S
C1037 O1028 1.240 . S
C1037 O1029 1.252 . S
O1038 In1027 2.294 . S
O1038 C1031 1.240 . S
O1039 In1027 2.326 . S
O1039 C1031 1.252 . S
In1040 O1041 2.294 . S
In1040 O1042 2.326 . S
In1040 O1046 2.266 . S
In1040 O1047 2.326 . S
In1040 O1048 2.266 . S
In1040 O1049 2.326 . S
In1040 O1051 2.294 . S
In1040 O1052 2.326 . S
O1041 In1040 2.294 . S
O1041 C1050 1.240 . S
O1042 In1040 2.326 . S
O1042 C1050 1.252 . S
C1043 O1046 1.252 . S
C1043 O1047 1.260 . S
C1044 O1051 1.240 . S
C1044 O1052 1.252 . S
C1045 O1048 1.252 . S
C1045 O1049 1.260 . S
O1046 In1040 2.266 . S
O1046 C1043 1.252 . S
O1047 In1040 2.326 . S
O1047 C1043 1.260 . S
O1048 In1040 2.266 . S
O1048 C1045 1.252 . S
O1049 In1040 2.326 . S
O1049 C1045 1.260 . S
C1050 O1041 1.240 . S
C1050 O1042 1.252 . S
O1051 In1040 2.294 . S
O1051 C1044 1.240 . S
O1052 In1040 2.326 . S
O1052 C1044 1.252 . S
In1053 O1054 2.294 . S
In1053 O1055 2.326 . S
In1053 O1059 2.266 . S
In1053 O1060 2.326 . S
In1053 O1061 2.266 . S
In1053 O1062 2.326 . S
In1053 O1064 2.294 . S
In1053 O1065 2.326 . S
O1054 In1053 2.294 . S
O1054 C1063 1.240 . S
O1055 In1053 2.326 . S
O1055 C1063 1.252 . S
C1056 O1059 1.252 . S
C1056 O1060 1.260 . S
C1057 O1064 1.240 . S
C1057 O1065 1.252 . S
C1058 O1061 1.252 . S
C1058 O1062 1.260 . S
O1059 In1053 2.266 . S
O1059 C1056 1.252 . S
O1060 In1053 2.326 . S
O1060 C1056 1.260 . S
O1061 In1053 2.266 . S
O1061 C1058 1.252 . S
O1062 In1053 2.326 . S
O1062 C1058 1.260 . S
C1063 O1054 1.240 . S
C1063 O1055 1.252 . S
O1064 In1053 2.294 . S
O1064 C1057 1.240 . S
O1065 In1053 2.326 . S
O1065 C1057 1.252 . S
In1066 O1067 2.294 . S
In1066 O1068 2.326 . S
In1066 O1072 2.266 . S
In1066 O1073 2.326 . S
In1066 O1074 2.266 . S
In1066 O1075 2.326 . S
In1066 O1077 2.294 . S
In1066 O1078 2.326 . S
O1067 In1066 2.294 . S
O1067 C1076 1.240 . S
O1068 In1066 2.326 . S
O1068 C1076 1.252 . S
C1069 O1072 1.252 . S
C1069 O1073 1.260 . S
C1070 O1077 1.240 . S
C1070 O1078 1.252 . S
C1071 O1074 1.252 . S
C1071 O1075 1.260 . S
O1072 In1066 2.266 . S
O1072 C1069 1.252 . S
O1073 In1066 2.326 . S
O1073 C1069 1.260 . S
O1074 In1066 2.266 . S
O1074 C1071 1.252 . S
O1075 In1066 2.326 . S
O1075 C1071 1.260 . S
C1076 O1067 1.240 . S
C1076 O1068 1.252 . S
O1077 In1066 2.294 . S
O1077 C1070 1.240 . S
O1078 In1066 2.326 . S
O1078 C1070 1.252 . S
In1079 O1080 2.294 . S
In1079 O1081 2.326 . S
In1079 O1085 2.266 . S
In1079 O1086 2.326 . S
In1079 O1087 2.266 . S
In1079 O1088 2.326 . S
In1079 O1090 2.294 . S
In1079 O1091 2.326 . S
O1080 In1079 2.294 . S
O1080 C1089 1.240 . S
O1081 In1079 2.326 . S
O1081 C1089 1.252 . S
C1082 O1085 1.252 . S
C1082 O1086 1.260 . S
C1083 O1090 1.240 . S
C1083 O1091 1.252 . S
C1084 O1087 1.252 . S
C1084 O1088 1.260 . S
O1085 In1079 2.266 . S
O1085 C1082 1.252 . S
O1086 In1079 2.326 . S
O1086 C1082 1.260 . S
O1087 In1079 2.266 . S
O1087 C1084 1.252 . S
O1088 In1079 2.326 . S
O1088 C1084 1.260 . S
C1089 O1080 1.240 . S
C1089 O1081 1.252 . S
O1090 In1079 2.294 . S
O1090 C1083 1.240 . S
O1091 In1079 2.326 . S
O1091 C1083 1.252 . S
In1092 O1093 2.294 . S
In1092 O1094 2.326 . S
In1092 O1098 2.266 . S
In1092 O1099 2.326 . S
In1092 O1100 2.266 . S
In1092 O1101 2.326 . S
In1092 O1103 2.294 . S
In1092 O1104 2.326 . S
O1093 In1092 2.294 . S
O1093 C1102 1.240 . S
O1094 In1092 2.326 . S
O1094 C1102 1.252 . S
C1095 O1098 1.252 . S
C1095 O1099 1.260 . S
C1096 O1103 1.240 . S
C1096 O1104 1.252 . S
C1097 O1100 1.252 . S
C1097 O1101 1.260 . S
O1098 In1092 2.266 . S
O1098 C1095 1.252 . S
O1099 In1092 2.326 . S
O1099 C1095 1.260 . S
O1100 In1092 2.266 . S
O1100 C1097 1.252 . S
O1101 In1092 2.326 . S
O1101 C1097 1.260 . S
C1102 O1093 1.240 . S
C1102 O1094 1.252 . S
O1103 In1092 2.294 . S
O1103 C1096 1.240 . S
O1104 In1092 2.326 . S
O1104 C1096 1.252 . S
In1105 O1106 2.294 . S
In1105 O1107 2.326 . S
In1105 O1111 2.266 . S
In1105 O1112 2.326 . S
In1105 O1113 2.266 . S
In1105 O1114 2.326 . S
In1105 O1116 2.294 . S
In1105 O1117 2.326 . S
O1106 In1105 2.294 . S
O1106 C1115 1.240 . S
O1107 In1105 2.326 . S
O1107 C1115 1.252 . S
C1108 O1111 1.252 . S
C1108 O1112 1.260 . S
C1109 O1116 1.240 . S
C1109 O1117 1.252 . S
C1110 O1113 1.252 . S
C1110 O1114 1.260 . S
O1111 In1105 2.266 . S
O1111 C1108 1.252 . S
O1112 In1105 2.326 . S
O1112 C1108 1.260 . S
O1113 In1105 2.266 . S
O1113 C1110 1.252 . S
O1114 In1105 2.326 . S
O1114 C1110 1.260 . S
C1115 O1106 1.240 . S
C1115 O1107 1.252 . S
O1116 In1105 2.294 . S
O1116 C1109 1.240 . S
O1117 In1105 2.326 . S
O1117 C1109 1.252 . S
In1118 O1119 2.294 . S
In1118 O1120 2.326 . S
In1118 O1124 2.266 . S
In1118 O1125 2.326 . S
In1118 O1126 2.266 . S
In1118 O1127 2.326 . S
In1118 O1129 2.294 . S
In1118 O1130 2.326 . S
O1119 In1118 2.294 . S
O1119 C1128 1.240 . S
O1120 In1118 2.326 . S
O1120 C1128 1.252 . S
C1121 O1124 1.252 . S
C1121 O1125 1.260 . S
C1122 O1129 1.240 . S
C1122 O1130 1.252 . S
C1123 O1126 1.252 . S
C1123 O1127 1.260 . S
O1124 In1118 2.266 . S
O1124 C1121 1.252 . S
O1125 In1118 2.326 . S
O1125 C1121 1.260 . S
O1126 In1118 2.266 . S
O1126 C1123 1.252 . S
O1127 In1118 2.326 . S
O1127 C1123 1.260 . S
C1128 O1119 1.240 . S
C1128 O1120 1.252 . S
O1129 In1118 2.294 . S
O1129 C1122 1.240 . S
O1130 In1118 2.326 . S
O1130 C1122 1.252 . S
In1131 O1132 2.294 . S
In1131 O1133 2.326 . S
In1131 O1137 2.266 . S
In1131 O1138 2.326 . S
In1131 O1139 2.266 . S
In1131 O1140 2.326 . S
In1131 O1142 2.294 . S
In1131 O1143 2.326 . S
O1132 In1131 2.294 . S
O1132 C1141 1.240 . S
O1133 In1131 2.326 . S
O1133 C1141 1.252 . S
C1134 O1137 1.252 . S
C1134 O1138 1.260 . S
C1135 O1142 1.240 . S
C1135 O1143 1.252 . S
C1136 O1139 1.252 . S
C1136 O1140 1.260 . S
O1137 In1131 2.266 . S
O1137 C1134 1.252 . S
O1138 In1131 2.326 . S
O1138 C1134 1.260 . S
O1139 In1131 2.266 . S
O1139 C1136 1.252 . S
O1140 In1131 2.326 . S
O1140 C1136 1.260 . S
C1141 O1132 1.240 . S
C1141 O1133 1.252 . S
O1142 In1131 2.294 . S
O1142 C1135 1.240 . S
O1143 In1131 2.326 . S
O1143 C1135 1.252 . S
In1144 O1145 2.294 . S
In1144 O1146 2.326 . S
In1144 O1150 2.266 . S
In1144 O1151 2.326 . S
In1144 O1152 2.266 . S
In1144 O1153 2.326 . S
In1144 O1155 2.294 . S
In1144 O1156 2.326 . S
O1145 In1144 2.294 . S
O1145 C1154 1.240 . S
O1146 In1144 2.326 . S
O1146 C1154 1.252 . S
C1147 O1150 1.252 . S
C1147 O1151 1.260 . S
C1148 O1155 1.240 . S
C1148 O1156 1.252 . S
C1149 O1152 1.252 . S
C1149 O1153 1.260 . S
O1150 In1144 2.266 . S
O1150 C1147 1.252 . S
O1151 In1144 2.326 . S
O1151 C1147 1.260 . S
O1152 In1144 2.266 . S
O1152 C1149 1.252 . S
O1153 In1144 2.326 . S
O1153 C1149 1.260 . S
C1154 O1145 1.240 . S
C1154 O1146 1.252 . S
O1155 In1144 2.294 . S
O1155 C1148 1.240 . S
O1156 In1144 2.326 . S
O1156 C1148 1.252 . S
In1157 O1158 2.294 . S
In1157 O1159 2.326 . S
In1157 O1163 2.266 . S
In1157 O1164 2.326 . S
In1157 O1165 2.266 . S
In1157 O1166 2.326 . S
In1157 O1168 2.294 . S
In1157 O1169 2.326 . S
O1158 In1157 2.294 . S
O1158 C1167 1.240 . S
O1159 In1157 2.326 . S
O1159 C1167 1.252 . S
C1160 O1163 1.252 . S
C1160 O1164 1.260 . S
C1161 O1168 1.240 . S
C1161 O1169 1.252 . S
C1162 O1165 1.252 . S
C1162 O1166 1.260 . S
O1163 In1157 2.266 . S
O1163 C1160 1.252 . S
O1164 In1157 2.326 . S
O1164 C1160 1.260 . S
O1165 In1157 2.266 . S
O1165 C1162 1.252 . S
O1166 In1157 2.326 . S
O1166 C1162 1.260 . S
C1167 O1158 1.240 . S
C1167 O1159 1.252 . S
O1168 In1157 2.294 . S
O1168 C1161 1.240 . S
O1169 In1157 2.326 . S
O1169 C1161 1.252 . S
In1170 O1171 2.294 . S
In1170 O1172 2.326 . S
In1170 O1176 2.266 . S
In1170 O1177 2.326 . S
In1170 O1178 2.266 . S
In1170 O1179 2.326 . S
In1170 O1181 2.294 . S
In1170 O1182 2.326 . S
O1171 In1170 2.294 . S
O1171 C1180 1.240 . S
O1172 In1170 2.326 . S
O1172 C1180 1.252 . S
C1173 O1176 1.252 . S
C1173 O1177 1.260 . S
C1174 O1181 1.240 . S
C1174 O1182 1.252 . S
C1175 O1178 1.252 . S
C1175 O1179 1.260 . S
O1176 In1170 2.266 . S
O1176 C1173 1.252 . S
O1177 In1170 2.326 . S
O1177 C1173 1.260 . S
O1178 In1170 2.266 . S
O1178 C1175 1.252 . S
O1179 In1170 2.326 . S
O1179 C1175 1.260 . S
C1180 O1171 1.240 . S
C1180 O1172 1.252 . S
O1181 In1170 2.294 . S
O1181 C1174 1.240 . S
O1182 In1170 2.326 . S
O1182 C1174 1.252 . S
In1183 O1184 2.294 . S
In1183 O1185 2.326 . S
In1183 O1189 2.266 . S
In1183 O1190 2.326 . S
In1183 O1191 2.266 . S
In1183 O1192 2.326 . S
In1183 O1194 2.294 . S
In1183 O1195 2.326 . S
O1184 In1183 2.294 . S
O1184 C1193 1.240 . S
O1185 In1183 2.326 . S
O1185 C1193 1.252 . S
C1186 O1189 1.252 . S
C1186 O1190 1.260 . S
C1187 O1194 1.240 . S
C1187 O1195 1.252 . S
C1188 O1191 1.252 . S
C1188 O1192 1.260 . S
O1189 In1183 2.266 . S
O1189 C1186 1.252 . S
O1190 In1183 2.326 . S
O1190 C1186 1.260 . S
O1191 In1183 2.266 . S
O1191 C1188 1.252 . S
O1192 In1183 2.326 . S
O1192 C1188 1.260 . S
C1193 O1184 1.240 . S
C1193 O1185 1.252 . S
O1194 In1183 2.294 . S
O1194 C1187 1.240 . S
O1195 In1183 2.326 . S
O1195 C1187 1.252 . S
In1196 O1197 2.294 . S
In1196 O1198 2.326 . S
In1196 O1202 2.266 . S
In1196 O1203 2.326 . S
In1196 O1204 2.266 . S
In1196 O1205 2.326 . S
In1196 O1207 2.294 . S
In1196 O1208 2.326 . S
O1197 In1196 2.294 . S
O1197 C1206 1.240 . S
O1198 In1196 2.326 . S
O1198 C1206 1.252 . S
C1199 O1202 1.252 . S
C1199 O1203 1.260 . S
C1200 O1207 1.240 . S
C1200 O1208 1.252 . S
C1201 O1204 1.252 . S
C1201 O1205 1.260 . S
O1202 In1196 2.266 . S
O1202 C1199 1.252 . S
O1203 In1196 2.326 . S
O1203 C1199 1.260 . S
O1204 In1196 2.266 . S
O1204 C1201 1.252 . S
O1205 In1196 2.326 . S
O1205 C1201 1.260 . S
C1206 O1197 1.240 . S
C1206 O1198 1.252 . S
O1207 In1196 2.294 . S
O1207 C1200 1.240 . S
O1208 In1196 2.326 . S
O1208 C1200 1.252 . S
In1209 O1210 2.294 . S
In1209 O1211 2.326 . S
In1209 O1215 2.266 . S
In1209 O1216 2.326 . S
In1209 O1217 2.266 . S
In1209 O1218 2.326 . S
In1209 O1220 2.294 . S
In1209 O1221 2.326 . S
O1210 In1209 2.294 . S
O1210 C1219 1.240 . S
O1211 In1209 2.326 . S
O1211 C1219 1.252 . S
C1212 O1215 1.252 . S
C1212 O1216 1.260 . S
C1213 O1220 1.240 . S
C1213 O1221 1.252 . S
C1214 O1217 1.252 . S
C1214 O1218 1.260 . S
O1215 In1209 2.266 . S
O1215 C1212 1.252 . S
O1216 In1209 2.326 . S
O1216 C1212 1.260 . S
O1217 In1209 2.266 . S
O1217 C1214 1.252 . S
O1218 In1209 2.326 . S
O1218 C1214 1.260 . S
C1219 O1210 1.240 . S
C1219 O1211 1.252 . S
O1220 In1209 2.294 . S
O1220 C1213 1.240 . S
O1221 In1209 2.326 . S
O1221 C1213 1.252 . S
In1222 O1223 2.294 . S
In1222 O1224 2.326 . S
In1222 O1228 2.266 . S
In1222 O1229 2.326 . S
In1222 O1230 2.266 . S
In1222 O1231 2.326 . S
In1222 O1233 2.294 . S
In1222 O1234 2.326 . S
O1223 In1222 2.294 . S
O1223 C1232 1.240 . S
O1224 In1222 2.326 . S
O1224 C1232 1.252 . S
C1225 O1228 1.252 . S
C1225 O1229 1.260 . S
C1226 O1233 1.240 . S
C1226 O1234 1.252 . S
C1227 O1230 1.252 . S
C1227 O1231 1.260 . S
O1228 In1222 2.266 . S
O1228 C1225 1.252 . S
O1229 In1222 2.326 . S
O1229 C1225 1.260 . S
O1230 In1222 2.266 . S
O1230 C1227 1.252 . S
O1231 In1222 2.326 . S
O1231 C1227 1.260 . S
C1232 O1223 1.240 . S
C1232 O1224 1.252 . S
O1233 In1222 2.294 . S
O1233 C1226 1.240 . S
O1234 In1222 2.326 . S
O1234 C1226 1.252 . S
In1235 O1236 2.294 . S
In1235 O1237 2.326 . S
In1235 O1241 2.266 . S
In1235 O1242 2.326 . S
In1235 O1243 2.266 . S
In1235 O1244 2.326 . S
In1235 O1246 2.294 . S
In1235 O1247 2.326 . S
O1236 In1235 2.294 . S
O1236 C1245 1.240 . S
O1237 In1235 2.326 . S
O1237 C1245 1.252 . S
C1238 O1241 1.252 . S
C1238 O1242 1.260 . S
C1239 O1246 1.240 . S
C1239 O1247 1.252 . S
C1240 O1243 1.252 . S
C1240 O1244 1.260 . S
O1241 In1235 2.266 . S
O1241 C1238 1.252 . S
O1242 In1235 2.326 . S
O1242 C1238 1.260 . S
O1243 In1235 2.266 . S
O1243 C1240 1.252 . S
O1244 In1235 2.326 . S
O1244 C1240 1.260 . S
C1245 O1236 1.240 . S
C1245 O1237 1.252 . S
O1246 In1235 2.294 . S
O1246 C1239 1.240 . S
O1247 In1235 2.326 . S
O1247 C1239 1.252 . S
H1248 C1254 0.930 . S
H1249 C1257 0.930 . S
H1250 C1258 0.930 . S
H1251 C1259 0.930 . S
H1252 C1262 0.930 . S
H1253 C1263 0.930 . S
C1254 H1248 0.930 . S
C1254 C1255 1.355 . S
C1254 C1256 1.415 1_554 S
C1255 C1254 1.355 . S
C1255 C1257 1.420 1_455 S
C1256 C1254 1.415 1_556 S
C1256 C1261 1.425 1_456 S
C1256 C1263 1.409 . S
C1257 H1249 0.930 . S
C1257 C1255 1.420 1_655 S
C1257 C1258 1.362 . S
C1258 H1250 0.930 . S
C1258 C1257 1.362 . S
C1258 C1261 1.409 . S
C1259 H1251 0.930 . S
C1259 C1260 1.355 . S
C1259 C1261 1.415 1_556 S
C1260 C1259 1.355 . S
C1260 C1262 1.420 1_655 S
C1261 C1256 1.425 1_654 S
C1261 C1258 1.409 . S
C1261 C1259 1.415 1_554 S
C1262 H1252 0.930 . S
C1262 C1260 1.420 1_455 S
C1262 C1263 1.362 . S
C1263 H1253 0.930 . S
C1263 C1256 1.409 . S
C1263 C1262 1.362 . S
H1264 C1270 0.930 . S
H1265 C1273 0.930 . S
H1266 C1274 0.930 . S
H1267 C1275 0.930 . S
H1268 C1278 0.930 . S
H1269 C1279 0.930 . S
C1270 H1264 0.930 . S
C1270 C1271 1.355 . S
C1270 C1272 1.415 . S
C1271 C1270 1.355 . S
C1271 C1273 1.419 . S
C1272 C1270 1.415 . S
C1272 C1277 1.425 . S
C1272 C1279 1.409 . S
C1273 H1265 0.930 . S
C1273 C1271 1.419 . S
C1273 C1274 1.362 . S
C1274 H1266 0.930 . S
C1274 C1273 1.362 . S
C1274 C1277 1.409 . S
C1275 H1267 0.930 . S
C1275 C1276 1.355 . S
C1275 C1277 1.415 . S
C1276 C1275 1.355 . S
C1276 C1278 1.419 . S
C1277 C1272 1.425 . S
C1277 C1274 1.409 . S
C1277 C1275 1.415 . S
C1278 H1268 0.930 . S
C1278 C1276 1.419 . S
C1278 C1279 1.362 . S
C1279 H1269 0.930 . S
C1279 C1272 1.409 . S
C1279 C1278 1.362 . S
H1280 C1286 0.940 . S
H1281 C1289 0.930 . S
H1282 C1290 0.930 . S
H1283 C1291 0.940 . S
H1284 C1294 0.930 . S
H1285 C1295 0.930 . S
C1286 H1280 0.940 . S
C1286 C1287 1.355 . S
C1286 C1288 1.415 1_655 S
C1287 C1286 1.355 . S
C1287 C1289 1.419 . S
C1288 C1286 1.415 1_455 S
C1288 C1293 1.425 1_455 S
C1288 C1295 1.409 . S
C1289 H1281 0.930 . S
C1289 C1287 1.419 . S
C1289 C1290 1.362 . S
C1290 H1282 0.930 . S
C1290 C1289 1.362 . S
C1290 C1293 1.409 . S
C1291 H1283 0.940 . S
C1291 C1292 1.355 . S
C1291 C1293 1.415 1_455 S
C1292 C1291 1.355 . S
C1292 C1294 1.419 . S
C1293 C1288 1.425 1_655 S
C1293 C1290 1.409 . S
C1293 C1291 1.415 1_655 S
C1294 H1284 0.930 . S
C1294 C1292 1.419 . S
C1294 C1295 1.362 . S
C1295 H1285 0.930 . S
C1295 C1288 1.409 . S
C1295 C1294 1.362 . S
H1296 C1302 0.930 . S
H1297 C1305 0.930 . S
H1298 C1306 0.930 . S
H1299 C1307 0.930 . S
H1300 C1310 0.930 . S
H1301 C1311 0.930 . S
C1302 H1296 0.930 . S
C1302 C1303 1.355 . S
C1302 C1304 1.415 . S
C1303 C1302 1.355 . S
C1303 C1305 1.419 . S
C1304 C1302 1.415 . S
C1304 C1309 1.425 . S
C1304 C1311 1.409 . S
C1305 H1297 0.930 . S
C1305 C1303 1.419 . S
C1305 C1306 1.362 . S
C1306 H1298 0.930 . S
C1306 C1305 1.362 . S
C1306 C1309 1.409 . S
C1307 H1299 0.930 . S
C1307 C1308 1.355 . S
C1307 C1309 1.415 . S
C1308 C1307 1.355 . S
C1308 C1310 1.419 . S
C1309 C1304 1.425 . S
C1309 C1306 1.409 . S
C1309 C1307 1.415 . S
C1310 H1300 0.930 . S
C1310 C1308 1.419 . S
C1310 C1311 1.362 . S
C1311 H1301 0.930 . S
C1311 C1304 1.409 . S
C1311 C1310 1.362 . S
H1312 C1318 0.930 . S
H1313 C1321 0.933 . S
H1314 C1322 0.930 . S
H1315 C1323 0.930 . S
H1316 C1326 0.933 . S
H1317 C1327 0.930 . S
C1318 H1312 0.930 . S
C1318 C1319 1.355 . S
C1318 C1320 1.415 1_554 S
C1319 C1318 1.355 . S
C1319 C1321 1.407 1_655 S
C1320 C1318 1.415 1_556 S
C1320 C1325 1.425 1_656 S
C1320 C1327 1.409 . S
C1321 H1313 0.933 . S
C1321 C1319 1.407 1_455 S
C1321 C1322 1.372 . S
C1322 H1314 0.930 . S
C1322 C1321 1.372 . S
C1322 C1325 1.409 . S
C1323 H1315 0.930 . S
C1323 C1324 1.355 . S
C1323 C1325 1.415 1_556 S
C1324 C1323 1.355 . S
C1324 C1326 1.407 1_455 S
C1325 C1320 1.425 1_454 S
C1325 C1322 1.409 . S
C1325 C1323 1.415 1_554 S
C1326 H1316 0.933 . S
C1326 C1324 1.407 1_655 S
C1326 C1327 1.372 . S
C1327 H1317 0.930 . S
C1327 C1320 1.409 . S
C1327 C1326 1.372 . S
H1328 C1334 0.930 . S
H1329 C1337 0.930 . S
H1330 C1338 0.930 . S
H1331 C1339 0.930 . S
H1332 C1342 0.930 . S
H1333 C1343 0.930 . S
C1334 H1328 0.930 . S
C1334 C1335 1.355 . S
C1334 C1336 1.415 . S
C1335 C1334 1.355 . S
C1335 C1337 1.419 . S
C1336 C1334 1.415 . S
C1336 C1341 1.425 . S
C1336 C1343 1.409 . S
C1337 H1329 0.930 . S
C1337 C1335 1.419 . S
C1337 C1338 1.362 . S
C1338 H1330 0.930 . S
C1338 C1337 1.362 . S
C1338 C1341 1.409 . S
C1339 H1331 0.930 . S
C1339 C1340 1.355 . S
C1339 C1341 1.415 . S
C1340 C1339 1.355 . S
C1340 C1342 1.419 . S
C1341 C1336 1.425 . S
C1341 C1338 1.409 . S
C1341 C1339 1.415 . S
C1342 H1332 0.930 . S
C1342 C1340 1.419 . S
C1342 C1343 1.362 . S
C1343 H1333 0.930 . S
C1343 C1336 1.409 . S
C1343 C1342 1.362 . S
H1344 C1350 0.930 . S
H1345 C1353 0.930 . S
H1346 C1354 0.930 . S
H1347 C1355 0.930 . S
H1348 C1358 0.930 . S
H1349 C1359 0.930 . S
C1350 H1344 0.930 . S
C1350 C1351 1.355 . S
C1350 C1352 1.415 1_455 S
C1351 C1350 1.355 . S
C1351 C1353 1.419 . S
C1352 C1350 1.415 1_655 S
C1352 C1357 1.425 1_655 S
C1352 C1359 1.409 . S
C1353 H1345 0.930 . S
C1353 C1351 1.419 . S
C1353 C1354 1.362 . S
C1354 H1346 0.930 . S
C1354 C1353 1.362 . S
C1354 C1357 1.409 . S
C1355 H1347 0.930 . S
C1355 C1356 1.355 . S
C1355 C1357 1.415 1_655 S
C1356 C1355 1.355 . S
C1356 C1358 1.419 . S
C1357 C1352 1.425 1_455 S
C1357 C1354 1.409 . S
C1357 C1355 1.415 1_455 S
C1358 H1348 0.930 . S
C1358 C1356 1.419 . S
C1358 C1359 1.362 . S
C1359 H1349 0.930 . S
C1359 C1352 1.409 . S
C1359 C1358 1.362 . S
H1360 C1366 0.930 . S
H1361 C1369 0.930 . S
H1362 C1370 0.930 . S
H1363 C1371 0.930 . S
H1364 C1374 0.930 . S
H1365 C1375 0.930 . S
C1366 H1360 0.930 . S
C1366 C1367 1.355 . S
C1366 C1368 1.415 . S
C1367 C1366 1.355 . S
C1367 C1369 1.419 . S
C1368 C1366 1.415 . S
C1368 C1373 1.425 . S
C1368 C1375 1.409 . S
C1369 H1361 0.930 . S
C1369 C1367 1.419 . S
C1369 C1370 1.362 . S
C1370 H1362 0.930 . S
C1370 C1369 1.362 . S
C1370 C1373 1.409 . S
C1371 H1363 0.930 . S
C1371 C1372 1.355 . S
C1371 C1373 1.415 . S
C1372 C1371 1.355 . S
C1372 C1374 1.419 . S
C1373 C1368 1.425 . S
C1373 C1370 1.409 . S
C1373 C1371 1.415 . S
C1374 H1364 0.930 . S
C1374 C1372 1.419 . S
C1374 C1375 1.362 . S
C1375 H1365 0.930 . S
C1375 C1368 1.409 . S
C1375 C1374 1.362 . S
H1376 C1382 0.930 . S
H1377 C1385 0.927 1_545 S
H1378 C1386 0.930 . S
H1379 C1387 0.930 . S
H1380 C1390 0.927 1_565 S
H1381 C1391 0.930 . S
C1382 H1376 0.930 . S
C1382 C1383 1.355 . S
C1382 C1384 1.415 1_655 S
C1383 C1382 1.355 . S
C1383 C1385 1.431 . S
C1384 C1382 1.415 1_455 S
C1384 C1389 1.425 1_465 S
C1384 C1391 1.409 . S
C1385 H1377 0.927 1_565 S
C1385 C1383 1.431 . S
C1385 C1386 1.353 1_565 S
C1386 H1378 0.930 . S
C1386 C1385 1.353 1_545 S
C1386 C1389 1.409 . S
C1387 H1379 0.930 . S
C1387 C1388 1.355 . S
C1387 C1389 1.415 1_455 S
C1388 C1387 1.355 . S
C1388 C1390 1.431 . S
C1389 C1384 1.425 1_645 S
C1389 C1386 1.409 . S
C1389 C1387 1.415 1_655 S
C1390 H1380 0.927 1_545 S
C1390 C1388 1.431 . S
C1390 C1391 1.353 1_545 S
C1391 H1381 0.930 . S
C1391 C1384 1.409 . S
C1391 C1390 1.353 1_565 S
H1392 C1398 0.930 . S
H1393 C1401 0.930 . S
H1394 C1402 0.930 . S
H1395 C1403 0.930 . S
H1396 C1406 0.930 . S
H1397 C1407 0.930 . S
C1398 H1392 0.930 . S
C1398 C1399 1.355 . S
C1398 C1400 1.415 . S
C1399 C1398 1.355 . S
C1399 C1401 1.419 . S
C1400 C1398 1.415 . S
C1400 C1405 1.425 . S
C1400 C1407 1.409 . S
C1401 H1393 0.930 . S
C1401 C1399 1.419 . S
C1401 C1402 1.362 . S
C1402 H1394 0.930 . S
C1402 C1401 1.362 . S
C1402 C1405 1.409 . S
C1403 H1395 0.930 . S
C1403 C1404 1.355 . S
C1403 C1405 1.415 . S
C1404 C1403 1.355 . S
C1404 C1406 1.419 . S
C1405 C1400 1.425 . S
C1405 C1402 1.409 . S
C1405 C1403 1.415 . S
C1406 H1396 0.930 . S
C1406 C1404 1.419 . S
C1406 C1407 1.362 . S
C1407 H1397 0.930 . S
C1407 C1400 1.409 . S
C1407 C1406 1.362 . S
H1408 C1414 0.930 . S
H1409 C1417 0.930 . S
H1410 C1418 0.930 . S
H1411 C1419 0.930 . S
H1412 C1422 0.930 . S
H1413 C1423 0.930 . S
C1414 H1408 0.930 . S
C1414 C1415 1.355 . S
C1414 C1416 1.415 1_655 S
C1415 C1414 1.355 . S
C1415 C1417 1.419 . S
C1416 C1414 1.415 1_455 S
C1416 C1421 1.425 1_455 S
C1416 C1423 1.409 . S
C1417 H1409 0.930 . S
C1417 C1415 1.419 . S
C1417 C1418 1.362 . S
C1418 H1410 0.930 . S
C1418 C1417 1.362 . S
C1418 C1421 1.409 . S
C1419 H1411 0.930 . S
C1419 C1420 1.355 . S
C1419 C1421 1.415 1_455 S
C1420 C1419 1.355 . S
C1420 C1422 1.419 . S
C1421 C1416 1.425 1_655 S
C1421 C1418 1.409 . S
C1421 C1419 1.415 1_655 S
C1422 H1412 0.930 . S
C1422 C1420 1.419 . S
C1422 C1423 1.362 . S
C1423 H1413 0.930 . S
C1423 C1416 1.409 . S
C1423 C1422 1.362 . S
H1424 C1430 0.930 . S
H1425 C1433 0.930 . S
H1426 C1434 0.930 . S
H1427 C1435 0.930 . S
H1428 C1438 0.930 . S
H1429 C1439 0.930 . S
C1430 H1424 0.930 . S
C1430 C1431 1.355 . S
C1430 C1432 1.415 . S
C1431 C1430 1.355 . S
C1431 C1433 1.419 . S
C1432 C1430 1.415 . S
C1432 C1437 1.425 . S
C1432 C1439 1.409 . S
C1433 H1425 0.930 . S
C1433 C1431 1.419 . S
C1433 C1434 1.362 . S
C1434 H1426 0.930 . S
C1434 C1433 1.362 . S
C1434 C1437 1.409 . S
C1435 H1427 0.930 . S
C1435 C1436 1.355 . S
C1435 C1437 1.415 . S
C1436 C1435 1.355 . S
C1436 C1438 1.419 . S
C1437 C1432 1.425 . S
C1437 C1434 1.409 . S
C1437 C1435 1.415 . S
C1438 H1428 0.930 . S
C1438 C1436 1.419 . S
C1438 C1439 1.362 . S
C1439 H1429 0.930 . S
C1439 C1432 1.409 . S
C1439 C1438 1.362 . S
H1440 C1446 0.930 . S
H1441 C1449 0.927 1_545 S
H1442 C1450 0.930 . S
H1443 C1451 0.930 . S
H1444 C1454 0.927 1_565 S
H1445 C1455 0.930 . S
C1446 H1440 0.930 . S
C1446 C1447 1.355 . S
C1446 C1448 1.415 1_455 S
C1447 C1446 1.355 . S
C1447 C1449 1.433 . S
C1448 C1446 1.415 1_655 S
C1448 C1453 1.425 1_665 S
C1448 C1455 1.409 . S
C1449 H1441 0.927 1_565 S
C1449 C1447 1.433 . S
C1449 C1450 1.352 1_565 S
C1450 H1442 0.930 . S
C1450 C1449 1.352 1_545 S
C1450 C1453 1.409 . S
C1451 H1443 0.930 . S
C1451 C1452 1.355 . S
C1451 C1453 1.415 1_655 S
C1452 C1451 1.355 . S
C1452 C1454 1.433 . S
C1453 C1448 1.425 1_445 S
C1453 C1450 1.409 . S
C1453 C1451 1.415 1_455 S
C1454 H1444 0.927 1_545 S
C1454 C1452 1.433 . S
C1454 C1455 1.352 1_545 S
C1455 H1445 0.930 . S
C1455 C1448 1.409 . S
C1455 C1454 1.352 1_565 S
H1456 C1462 0.930 . S
H1457 C1465 0.930 . S
H1458 C1466 0.930 . S
H1459 C1467 0.930 . S
H1460 C1470 0.930 . S
H1461 C1471 0.930 . S
C1462 H1456 0.930 . S
C1462 C1463 1.355 . S
C1462 C1464 1.415 . S
C1463 C1462 1.355 . S
C1463 C1465 1.419 . S
C1464 C1462 1.415 . S
C1464 C1469 1.425 . S
C1464 C1471 1.409 . S
C1465 H1457 0.930 . S
C1465 C1463 1.419 . S
C1465 C1466 1.362 . S
C1466 H1458 0.930 . S
C1466 C1465 1.362 . S
C1466 C1469 1.409 . S
C1467 H1459 0.930 . S
C1467 C1468 1.355 . S
C1467 C1469 1.415 . S
C1468 C1467 1.355 . S
C1468 C1470 1.419 . S
C1469 C1464 1.425 . S
C1469 C1466 1.409 . S
C1469 C1467 1.415 . S
C1470 H1460 0.930 . S
C1470 C1468 1.419 . S
C1470 C1471 1.362 . S
C1471 H1461 0.930 . S
C1471 C1464 1.409 . S
C1471 C1470 1.362 . S
H1472 C1478 0.930 . S
H1473 C1481 0.930 . S
H1474 C1482 0.930 . S
H1475 C1483 0.930 . S
H1476 C1486 0.930 . S
H1477 C1487 0.930 . S
C1478 H1472 0.930 . S
C1478 C1479 1.355 . S
C1478 C1480 1.416 1_455 S
C1479 C1478 1.355 . S
C1479 C1481 1.419 . S
C1480 C1478 1.416 1_655 S
C1480 C1485 1.425 1_655 S
C1480 C1487 1.407 . S
C1481 H1473 0.930 . S
C1481 C1479 1.419 . S
C1481 C1482 1.362 . S
C1482 H1474 0.930 . S
C1482 C1481 1.362 . S
C1482 C1485 1.407 . S
C1483 H1475 0.930 . S
C1483 C1484 1.355 . S
C1483 C1485 1.416 1_655 S
C1484 C1483 1.355 . S
C1484 C1486 1.419 . S
C1485 C1480 1.425 1_455 S
C1485 C1482 1.407 . S
C1485 C1483 1.416 1_455 S
C1486 H1476 0.930 . S
C1486 C1484 1.419 . S
C1486 C1487 1.362 . S
C1487 H1477 0.930 . S
C1487 C1480 1.407 . S
C1487 C1486 1.362 . S
H1488 C1494 0.930 . S
H1489 C1497 0.930 . S
H1490 C1498 0.930 . S
H1491 C1499 0.930 . S
H1492 C1502 0.930 . S
H1493 C1503 0.930 . S
C1494 H1488 0.930 . S
C1494 C1495 1.355 . S
C1494 C1496 1.415 . S
C1495 C1494 1.355 . S
C1495 C1497 1.419 . S
C1496 C1494 1.415 . S
C1496 C1501 1.425 . S
C1496 C1503 1.409 . S
C1497 H1489 0.930 . S
C1497 C1495 1.419 . S
C1497 C1498 1.362 . S
C1498 H1490 0.930 . S
C1498 C1497 1.362 . S
C1498 C1501 1.409 . S
C1499 H1491 0.930 . S
C1499 C1500 1.355 . S
C1499 C1501 1.415 . S
C1500 C1499 1.355 . S
C1500 C1502 1.419 . S
C1501 C1496 1.425 . S
C1501 C1498 1.409 . S
C1501 C1499 1.415 . S
C1502 H1492 0.930 . S
C1502 C1500 1.419 . S
C1502 C1503 1.362 . S
C1503 H1493 0.930 . S
C1503 C1496 1.409 . S
C1503 C1502 1.362 . S
H1504 C1510 0.930 . S
H1505 C1513 0.930 . S
H1506 C1514 0.939 . S
H1507 C1515 0.930 . S
H1508 C1518 0.930 . S
H1509 C1519 0.939 . S
C1510 H1504 0.930 . S
C1510 C1511 1.355 . S
C1510 C1512 1.415 1_556 S
C1511 C1510 1.355 . S
C1511 C1513 1.419 . S
C1512 C1510 1.415 1_554 S
C1512 C1517 1.425 1_564 S
C1512 C1519 1.413 . S
C1513 H1505 0.930 . S
C1513 C1511 1.419 . S
C1513 C1514 1.350 1_565 S
C1514 H1506 0.939 . S
C1514 C1513 1.350 1_545 S
C1514 C1517 1.413 . S
C1515 H1507 0.930 . S
C1515 C1516 1.355 . S
C1515 C1517 1.415 1_554 S
C1516 C1515 1.355 . S
C1516 C1518 1.419 . S
C1517 C1512 1.425 1_546 S
C1517 C1514 1.413 . S
C1517 C1515 1.415 1_556 S
C1518 H1508 0.930 . S
C1518 C1516 1.419 . S
C1518 C1519 1.350 1_545 S
C1519 H1509 0.939 . S
C1519 C1512 1.413 . S
C1519 C1518 1.350 1_565 S
H1520 C1526 0.930 . S
H1521 C1529 0.930 . S
H1522 C1530 0.930 . S
H1523 C1531 0.930 . S
H1524 C1534 0.930 . S
H1525 C1535 0.930 . S
C1526 H1520 0.930 . S
C1526 C1527 1.355 . S
C1526 C1528 1.412 1_545 S
C1527 C1526 1.355 . S
C1527 C1529 1.419 . S
C1528 C1526 1.412 1_565 S
C1528 C1533 1.425 1_565 S
C1528 C1535 1.412 . S
C1529 H1521 0.930 . S
C1529 C1527 1.419 . S
C1529 C1530 1.362 . S
C1530 H1522 0.930 . S
C1530 C1529 1.362 . S
C1530 C1533 1.412 . S
C1531 H1523 0.930 . S
C1531 C1532 1.355 . S
C1531 C1533 1.412 1_565 S
C1532 C1531 1.355 . S
C1532 C1534 1.419 . S
C1533 C1528 1.425 1_545 S
C1533 C1530 1.412 . S
C1533 C1531 1.412 1_545 S
C1534 H1524 0.930 . S
C1534 C1532 1.419 . S
C1534 C1535 1.362 . S
C1535 H1525 0.930 . S
C1535 C1528 1.412 . S
C1535 C1534 1.362 . S
H1536 C1542 0.930 . S
H1537 C1545 0.930 . S
H1538 C1546 0.930 . S
H1539 C1547 0.930 . S
H1540 C1550 0.930 . S
H1541 C1551 0.930 . S
C1542 H1536 0.930 . S
C1542 C1543 1.355 . S
C1542 C1544 1.415 . S
C1543 C1542 1.355 . S
C1543 C1545 1.419 . S
C1544 C1542 1.415 . S
C1544 C1549 1.425 . S
C1544 C1551 1.409 . S
C1545 H1537 0.930 . S
C1545 C1543 1.419 . S
C1545 C1546 1.362 . S
C1546 H1538 0.930 . S
C1546 C1545 1.362 . S
C1546 C1549 1.409 . S
C1547 H1539 0.930 . S
C1547 C1548 1.355 . S
C1547 C1549 1.415 . S
C1548 C1547 1.355 . S
C1548 C1550 1.419 . S
C1549 C1544 1.425 . S
C1549 C1546 1.409 . S
C1549 C1547 1.415 . S
C1550 H1540 0.930 . S
C1550 C1548 1.419 . S
C1550 C1551 1.362 . S
C1551 H1541 0.930 . S
C1551 C1544 1.409 . S
C1551 C1550 1.362 . S
H1552 C1558 0.930 . S
H1553 C1561 0.930 . S
H1554 C1562 0.930 . S
H1555 C1563 0.930 . S
H1556 C1566 0.930 . S
H1557 C1567 0.930 . S
C1558 H1552 0.930 . S
C1558 C1559 1.355 . S
C1558 C1560 1.415 1_554 S
C1559 C1558 1.355 . S
C1559 C1561 1.419 . S
C1560 C1558 1.415 1_556 S
C1560 C1565 1.425 1_556 S
C1560 C1567 1.409 . S
C1561 H1553 0.930 . S
C1561 C1559 1.419 . S
C1561 C1562 1.362 . S
C1562 H1554 0.930 . S
C1562 C1561 1.362 . S
C1562 C1565 1.409 . S
C1563 H1555 0.930 . S
C1563 C1564 1.355 . S
C1563 C1565 1.415 1_556 S
C1564 C1563 1.355 . S
C1564 C1566 1.419 . S
C1565 C1560 1.425 1_554 S
C1565 C1562 1.409 . S
C1565 C1563 1.415 1_554 S
C1566 H1556 0.930 . S
C1566 C1564 1.419 . S
C1566 C1567 1.362 . S
C1567 H1557 0.930 . S
C1567 C1560 1.409 . S
C1567 C1566 1.362 . S
H1568 C1574 0.930 . S
H1569 C1577 0.930 . S
H1570 C1578 0.930 . S
H1571 C1579 0.930 . S
H1572 C1582 0.930 . S
H1573 C1583 0.930 . S
C1574 H1568 0.930 . S
C1574 C1575 1.355 . S
C1574 C1576 1.415 . S
C1575 C1574 1.355 . S
C1575 C1577 1.419 . S
C1576 C1574 1.415 . S
C1576 C1581 1.425 . S
C1576 C1583 1.409 . S
C1577 H1569 0.930 . S
C1577 C1575 1.419 . S
C1577 C1578 1.362 . S
C1578 H1570 0.930 . S
C1578 C1577 1.362 . S
C1578 C1581 1.409 . S
C1579 H1571 0.930 . S
C1579 C1580 1.355 . S
C1579 C1581 1.415 . S
C1580 C1579 1.355 . S
C1580 C1582 1.419 . S
C1581 C1576 1.425 . S
C1581 C1578 1.409 . S
C1581 C1579 1.415 . S
C1582 H1572 0.930 . S
C1582 C1580 1.419 . S
C1582 C1583 1.362 . S
C1583 H1573 0.930 . S
C1583 C1576 1.409 . S
C1583 C1582 1.362 . S
H1584 C1590 0.930 . S
H1585 C1593 0.930 . S
H1586 C1594 0.930 1_556 S
H1587 C1595 0.930 . S
H1588 C1598 0.930 . S
H1589 C1599 0.930 1_554 S
C1590 H1584 0.930 . S
C1590 C1591 1.355 . S
C1590 C1592 1.415 . S
C1591 C1590 1.355 . S
C1591 C1593 1.419 . S
C1592 C1590 1.415 . S
C1592 C1597 1.425 1_564 S
C1592 C1599 1.409 1_564 S
C1593 H1585 0.930 . S
C1593 C1591 1.419 . S
C1593 C1594 1.362 . S
C1594 H1586 0.930 1_554 S
C1594 C1593 1.362 . S
C1594 C1597 1.409 1_564 S
C1595 H1587 0.930 . S
C1595 C1596 1.355 . S
C1595 C1597 1.415 . S
C1596 C1595 1.355 . S
C1596 C1598 1.419 . S
C1597 C1592 1.425 1_546 S
C1597 C1594 1.409 1_546 S
C1597 C1595 1.415 . S
C1598 H1588 0.930 . S
C1598 C1596 1.419 . S
C1598 C1599 1.362 . S
C1599 H1589 0.930 1_556 S
C1599 C1592 1.409 1_546 S
C1599 C1598 1.362 . S
H1600 C1606 0.930 . S
H1601 C1609 0.930 . S
H1602 C1610 0.930 . S
H1603 C1611 0.930 . S
H1604 C1614 0.930 . S
H1605 C1615 0.930 . S
C1606 H1600 0.930 . S
C1606 C1607 1.355 . S
C1606 C1608 1.415 . S
C1607 C1606 1.355 . S
C1607 C1609 1.419 . S
C1608 C1606 1.415 . S
C1608 C1613 1.425 . S
C1608 C1615 1.409 . S
C1609 H1601 0.930 . S
C1609 C1607 1.419 . S
C1609 C1610 1.362 . S
C1610 H1602 0.930 . S
C1610 C1609 1.362 . S
C1610 C1613 1.409 . S
C1611 H1603 0.930 . S
C1611 C1612 1.355 . S
C1611 C1613 1.415 . S
C1612 C1611 1.355 . S
C1612 C1614 1.419 . S
C1613 C1608 1.425 . S
C1613 C1610 1.409 . S
C1613 C1611 1.415 . S
C1614 H1604 0.930 . S
C1614 C1612 1.419 . S
C1614 C1615 1.362 . S
C1615 H1605 0.930 . S
C1615 C1608 1.409 . S
C1615 C1614 1.362 . S
H1616 C1622 0.930 . S
H1617 C1625 0.930 . S
H1618 C1626 0.930 . S
H1619 C1627 0.930 . S
H1620 C1630 0.930 . S
H1621 C1631 0.930 . S
C1622 H1616 0.930 . S
C1622 C1623 1.355 . S
C1622 C1624 1.415 . S
C1623 C1622 1.355 . S
C1623 C1625 1.419 . S
C1624 C1622 1.415 . S
C1624 C1629 1.425 . S
C1624 C1631 1.409 . S
C1625 H1617 0.930 . S
C1625 C1623 1.419 . S
C1625 C1626 1.362 . S
C1626 H1618 0.930 . S
C1626 C1625 1.362 . S
C1626 C1629 1.409 . S
C1627 H1619 0.930 . S
C1627 C1628 1.355 . S
C1627 C1629 1.415 . S
C1628 C1627 1.355 . S
C1628 C1630 1.419 . S
C1629 C1624 1.425 . S
C1629 C1626 1.409 . S
C1629 C1627 1.415 . S
C1630 H1620 0.930 . S
C1630 C1628 1.419 . S
C1630 C1631 1.362 . S
C1631 H1621 0.930 . S
C1631 C1624 1.409 . S
C1631 C1630 1.362 . S
H1632 C1638 0.930 . S
H1633 C1641 0.930 . S
H1634 C1642 0.930 . S
H1635 C1643 0.930 . S
H1636 C1646 0.930 . S
H1637 C1647 0.930 . S
C1638 H1632 0.930 . S
C1638 C1639 1.355 . S
C1638 C1640 1.415 . S
C1639 C1638 1.355 . S
C1639 C1641 1.419 . S
C1640 C1638 1.415 . S
C1640 C1645 1.425 . S
C1640 C1647 1.409 . S
C1641 H1633 0.930 . S
C1641 C1639 1.419 . S
C1641 C1642 1.362 . S
C1642 H1634 0.930 . S
C1642 C1641 1.362 . S
C1642 C1645 1.409 . S
C1643 H1635 0.930 . S
C1643 C1644 1.355 . S
C1643 C1645 1.415 . S
C1644 C1643 1.355 . S
C1644 C1646 1.419 . S
C1645 C1640 1.425 . S
C1645 C1642 1.409 . S
C1645 C1643 1.415 . S
C1646 H1636 0.930 . S
C1646 C1644 1.419 . S
C1646 C1647 1.362 . S
C1647 H1637 0.930 . S
C1647 C1640 1.409 . S
C1647 C1646 1.362 . S
H1648 C1654 0.930 . S
H1649 C1657 0.930 . S
H1650 C1658 0.930 . S
H1651 C1659 0.930 . S
H1652 C1662 0.930 . S
H1653 C1663 0.930 . S
C1654 H1648 0.930 . S
C1654 C1655 1.355 . S
C1654 C1656 1.415 . S
C1655 C1654 1.355 . S
C1655 C1657 1.419 . S
C1656 C1654 1.415 . S
C1656 C1661 1.425 . S
C1656 C1663 1.409 . S
C1657 H1649 0.930 . S
C1657 C1655 1.419 . S
C1657 C1658 1.362 . S
C1658 H1650 0.930 . S
C1658 C1657 1.362 . S
C1658 C1661 1.409 . S
C1659 H1651 0.930 . S
C1659 C1660 1.355 . S
C1659 C1661 1.415 . S
C1660 C1659 1.355 . S
C1660 C1662 1.419 . S
C1661 C1656 1.425 . S
C1661 C1658 1.409 . S
C1661 C1659 1.415 . S
C1662 H1652 0.930 . S
C1662 C1660 1.419 . S
C1662 C1663 1.362 . S
C1663 H1653 0.930 . S
C1663 C1656 1.409 . S
C1663 C1662 1.362 . S
H1664 C1670 0.930 . S
H1665 C1673 0.930 . S
H1666 C1674 0.930 . S
H1667 C1675 0.930 . S
H1668 C1678 0.930 . S
H1669 C1679 0.930 . S
C1670 H1664 0.930 . S
C1670 C1671 1.355 . S
C1670 C1672 1.415 . S
C1671 C1670 1.355 . S
C1671 C1673 1.419 . S
C1672 C1670 1.415 . S
C1672 C1677 1.425 . S
C1672 C1679 1.409 . S
C1673 H1665 0.930 . S
C1673 C1671 1.419 . S
C1673 C1674 1.362 . S
C1674 H1666 0.930 . S
C1674 C1673 1.362 . S
C1674 C1677 1.409 . S
C1675 H1667 0.930 . S
C1675 C1676 1.355 . S
C1675 C1677 1.415 . S
C1676 C1675 1.355 . S
C1676 C1678 1.419 . S
C1677 C1672 1.425 . S
C1677 C1674 1.409 . S
C1677 C1675 1.415 . S
C1678 H1668 0.930 . S
C1678 C1676 1.419 . S
C1678 C1679 1.362 . S
C1679 H1669 0.930 . S
C1679 C1672 1.409 . S
C1679 C1678 1.362 . S
H1680 C1686 0.930 . S
H1681 C1689 0.930 . S
H1682 C1690 0.930 . S
H1683 C1691 0.930 . S
H1684 C1694 0.930 . S
H1685 C1695 0.930 . S
C1686 H1680 0.930 . S
C1686 C1687 1.355 . S
C1686 C1688 1.415 . S
C1687 C1686 1.355 . S
C1687 C1689 1.419 . S
C1688 C1686 1.415 . S
C1688 C1693 1.425 . S
C1688 C1695 1.409 . S
C1689 H1681 0.930 . S
C1689 C1687 1.419 . S
C1689 C1690 1.362 . S
C1690 H1682 0.930 . S
C1690 C1689 1.362 . S
C1690 C1693 1.409 . S
C1691 H1683 0.930 . S
C1691 C1692 1.355 . S
C1691 C1693 1.415 . S
C1692 C1691 1.355 . S
C1692 C1694 1.419 . S
C1693 C1688 1.425 . S
C1693 C1690 1.409 . S
C1693 C1691 1.415 . S
C1694 H1684 0.930 . S
C1694 C1692 1.419 . S
C1694 C1695 1.362 . S
C1695 H1685 0.930 . S
C1695 C1688 1.409 . S
C1695 C1694 1.362 . S
H1696 C1702 0.930 . S
H1697 C1705 0.930 . S
H1698 C1706 0.930 . S
H1699 C1707 0.930 . S
H1700 C1710 0.930 . S
H1701 C1711 0.930 . S
C1702 H1696 0.930 . S
C1702 C1703 1.355 . S
C1702 C1704 1.415 . S
C1703 C1702 1.355 . S
C1703 C1705 1.419 . S
C1704 C1702 1.415 . S
C1704 C1709 1.425 . S
C1704 C1711 1.409 . S
C1705 H1697 0.930 . S
C1705 C1703 1.419 . S
C1705 C1706 1.362 . S
C1706 H1698 0.930 . S
C1706 C1705 1.362 . S
C1706 C1709 1.409 . S
C1707 H1699 0.930 . S
C1707 C1708 1.355 . S
C1707 C1709 1.415 . S
C1708 C1707 1.355 . S
C1708 C1710 1.419 . S
C1709 C1704 1.425 . S
C1709 C1706 1.409 . S
C1709 C1707 1.415 . S
C1710 H1700 0.930 . S
C1710 C1708 1.419 . S
C1710 C1711 1.362 . S
C1711 H1701 0.930 . S
C1711 C1704 1.409 . S
C1711 C1710 1.362 . S
H1712 C1718 0.930 . S
H1713 C1721 0.930 . S
H1714 C1722 0.930 . S
H1715 C1723 0.930 . S
H1716 C1726 0.930 . S
H1717 C1727 0.930 . S
C1718 H1712 0.930 . S
C1718 C1719 1.355 . S
C1718 C1720 1.415 . S
C1719 C1718 1.355 . S
C1719 C1721 1.419 . S
C1720 C1718 1.415 . S
C1720 C1725 1.425 . S
C1720 C1727 1.409 . S
C1721 H1713 0.930 . S
C1721 C1719 1.419 . S
C1721 C1722 1.362 . S
C1722 H1714 0.930 . S
C1722 C1721 1.362 . S
C1722 C1725 1.409 . S
C1723 H1715 0.930 . S
C1723 C1724 1.355 . S
C1723 C1725 1.415 . S
C1724 C1723 1.355 . S
C1724 C1726 1.419 . S
C1725 C1720 1.425 . S
C1725 C1722 1.409 . S
C1725 C1723 1.415 . S
C1726 H1716 0.930 . S
C1726 C1724 1.419 . S
C1726 C1727 1.362 . S
C1727 H1717 0.930 . S
C1727 C1720 1.409 . S
C1727 C1726 1.362 . S
H1728 C1734 0.930 . S
H1729 C1737 0.930 . S
H1730 C1738 0.930 . S
H1731 C1739 0.930 . S
H1732 C1742 0.930 . S
H1733 C1743 0.930 . S
C1734 H1728 0.930 . S
C1734 C1735 1.355 . S
C1734 C1736 1.415 . S
C1735 C1734 1.355 . S
C1735 C1737 1.419 . S
C1736 C1734 1.415 . S
C1736 C1741 1.425 . S
C1736 C1743 1.409 . S
C1737 H1729 0.930 . S
C1737 C1735 1.419 . S
C1737 C1738 1.362 . S
C1738 H1730 0.930 . S
C1738 C1737 1.362 . S
C1738 C1741 1.409 . S
C1739 H1731 0.930 . S
C1739 C1740 1.355 . S
C1739 C1741 1.415 . S
C1740 C1739 1.355 . S
C1740 C1742 1.419 . S
C1741 C1736 1.425 . S
C1741 C1738 1.409 . S
C1741 C1739 1.415 . S
C1742 H1732 0.930 . S
C1742 C1740 1.419 . S
C1742 C1743 1.362 . S
C1743 H1733 0.930 . S
C1743 C1736 1.409 . S
C1743 C1742 1.362 . S
H1744 C1750 0.930 . S
H1745 C1753 0.930 . S
H1746 C1754 0.930 . S
H1747 C1755 0.930 . S
H1748 C1758 0.930 . S
H1749 C1759 0.930 . S
C1750 H1744 0.930 . S
C1750 C1751 1.355 . S
C1750 C1752 1.415 . S
C1751 C1750 1.355 . S
C1751 C1753 1.419 . S
C1752 C1750 1.415 . S
C1752 C1757 1.425 . S
C1752 C1759 1.409 . S
C1753 H1745 0.930 . S
C1753 C1751 1.419 . S
C1753 C1754 1.362 . S
C1754 H1746 0.930 . S
C1754 C1753 1.362 . S
C1754 C1757 1.409 . S
C1755 H1747 0.930 . S
C1755 C1756 1.355 . S
C1755 C1757 1.415 . S
C1756 C1755 1.355 . S
C1756 C1758 1.419 . S
C1757 C1752 1.425 . S
C1757 C1754 1.409 . S
C1757 C1755 1.415 . S
C1758 H1748 0.930 . S
C1758 C1756 1.419 . S
C1758 C1759 1.362 . S
C1759 H1749 0.930 . S
C1759 C1752 1.409 . S
C1759 C1758 1.362 . S
H1760 C1766 0.930 . S
H1761 C1769 0.930 . S
H1762 C1770 0.930 . S
H1763 C1771 0.930 . S
H1764 C1774 0.930 . S
H1765 C1775 0.930 . S
C1766 H1760 0.930 . S
C1766 C1767 1.355 . S
C1766 C1768 1.415 . S
C1767 C1766 1.355 . S
C1767 C1769 1.419 . S
C1768 C1766 1.415 . S
C1768 C1773 1.425 . S
C1768 C1775 1.409 . S
C1769 H1761 0.930 . S
C1769 C1767 1.419 . S
C1769 C1770 1.362 . S
C1770 H1762 0.930 . S
C1770 C1769 1.362 . S
C1770 C1773 1.409 . S
C1771 H1763 0.930 . S
C1771 C1772 1.355 . S
C1771 C1773 1.415 . S
C1772 C1771 1.355 . S
C1772 C1774 1.419 . S
C1773 C1768 1.425 . S
C1773 C1770 1.409 . S
C1773 C1771 1.415 . S
C1774 H1764 0.930 . S
C1774 C1772 1.419 . S
C1774 C1775 1.362 . S
C1775 H1765 0.930 . S
C1775 C1768 1.409 . S
C1775 C1774 1.362 . S
H1776 C1782 0.930 1_554 S
H1777 C1785 0.930 . S
H1778 C1786 0.930 . S
H1779 C1787 0.930 1_556 S
H1780 C1790 0.930 . S
H1781 C1791 0.930 . S
C1782 H1776 0.930 1_556 S
C1782 C1783 1.355 . S
C1782 C1784 1.415 1_556 S
C1783 C1782 1.355 . S
C1783 C1785 1.419 . S
C1784 C1782 1.415 1_554 S
C1784 C1789 1.425 1_554 S
C1784 C1791 1.409 . S
C1785 H1777 0.930 . S
C1785 C1783 1.419 . S
C1785 C1786 1.362 . S
C1786 H1778 0.930 . S
C1786 C1785 1.362 . S
C1786 C1789 1.409 . S
C1787 H1779 0.930 1_554 S
C1787 C1788 1.355 . S
C1787 C1789 1.415 1_554 S
C1788 C1787 1.355 . S
C1788 C1790 1.419 . S
C1789 C1784 1.425 1_556 S
C1789 C1786 1.409 . S
C1789 C1787 1.415 1_556 S
C1790 H1780 0.930 . S
C1790 C1788 1.419 . S
C1790 C1791 1.362 . S
C1791 H1781 0.930 . S
C1791 C1784 1.409 . S
C1791 C1790 1.362 . S
H1792 C1798 0.930 . S
H1793 C1801 0.930 . S
H1794 C1802 0.930 . S
H1795 C1803 0.930 . S
H1796 C1806 0.930 . S
H1797 C1807 0.930 . S
C1798 H1792 0.930 . S
C1798 C1799 1.355 . S
C1798 C1800 1.415 . S
C1799 C1798 1.355 . S
C1799 C1801 1.419 . S
C1800 C1798 1.415 . S
C1800 C1805 1.425 . S
C1800 C1807 1.409 . S
C1801 H1793 0.930 . S
C1801 C1799 1.419 . S
C1801 C1802 1.362 . S
C1802 H1794 0.930 . S
C1802 C1801 1.362 . S
C1802 C1805 1.409 . S
C1803 H1795 0.930 . S
C1803 C1804 1.355 . S
C1803 C1805 1.415 . S
C1804 C1803 1.355 . S
C1804 C1806 1.419 . S
C1805 C1800 1.425 . S
C1805 C1802 1.409 . S
C1805 C1803 1.415 . S
C1806 H1796 0.930 . S
C1806 C1804 1.419 . S
C1806 C1807 1.362 . S
C1807 H1797 0.930 . S
C1807 C1800 1.409 . S
C1807 C1806 1.362 . S
H1808 C1814 0.930 . S
H1809 C1817 0.930 . S
H1810 C1818 0.930 . S
H1811 C1819 0.930 . S
H1812 C1822 0.930 . S
H1813 C1823 0.930 . S
C1814 H1808 0.930 . S
C1814 C1815 1.355 . S
C1814 C1816 1.415 1_565 S
C1815 C1814 1.355 . S
C1815 C1817 1.419 . S
C1816 C1814 1.415 1_545 S
C1816 C1821 1.425 1_545 S
C1816 C1823 1.409 . S
C1817 H1809 0.930 . S
C1817 C1815 1.419 . S
C1817 C1818 1.362 . S
C1818 H1810 0.930 . S
C1818 C1817 1.362 . S
C1818 C1821 1.409 . S
C1819 H1811 0.930 . S
C1819 C1820 1.355 . S
C1819 C1821 1.415 1_545 S
C1820 C1819 1.355 . S
C1820 C1822 1.419 . S
C1821 C1816 1.425 1_565 S
C1821 C1818 1.409 . S
C1821 C1819 1.415 1_565 S
C1822 H1812 0.930 . S
C1822 C1820 1.419 . S
C1822 C1823 1.362 . S
C1823 H1813 0.930 . S
C1823 C1816 1.409 . S
C1823 C1822 1.362 . S
H1824 C1830 0.930 . S
H1825 C1833 0.930 . S
H1826 C1834 0.930 . S
H1827 C1835 0.930 . S
H1828 C1838 0.930 . S
H1829 C1839 0.930 . S
C1830 H1824 0.930 . S
C1830 C1831 1.355 . S
C1830 C1832 1.415 . S
C1831 C1830 1.355 . S
C1831 C1833 1.419 . S
C1832 C1830 1.415 . S
C1832 C1837 1.425 . S
C1832 C1839 1.409 . S
C1833 H1825 0.930 . S
C1833 C1831 1.419 . S
C1833 C1834 1.362 . S
C1834 H1826 0.930 . S
C1834 C1833 1.362 . S
C1834 C1837 1.409 . S
C1835 H1827 0.930 . S
C1835 C1836 1.355 . S
C1835 C1837 1.415 . S
C1836 C1835 1.355 . S
C1836 C1838 1.419 . S
C1837 C1832 1.425 . S
C1837 C1834 1.409 . S
C1837 C1835 1.415 . S
C1838 H1828 0.930 . S
C1838 C1836 1.419 . S
C1838 C1839 1.362 . S
C1839 H1829 0.930 . S
C1839 C1832 1.409 . S
C1839 C1838 1.362 . S
H1840 C1846 0.930 . S
H1841 C1849 0.930 . S
H1842 C1850 0.930 . S
H1843 C1851 0.930 . S
H1844 C1854 0.930 . S
H1845 C1855 0.930 . S
C1846 H1840 0.930 . S
C1846 C1847 1.355 . S
C1846 C1848 1.415 . S
C1847 C1846 1.355 . S
C1847 C1849 1.419 . S
C1848 C1846 1.415 . S
C1848 C1853 1.425 . S
C1848 C1855 1.409 . S
C1849 H1841 0.930 . S
C1849 C1847 1.419 . S
C1849 C1850 1.362 . S
C1850 H1842 0.930 . S
C1850 C1849 1.362 . S
C1850 C1853 1.409 . S
C1851 H1843 0.930 . S
C1851 C1852 1.355 . S
C1851 C1853 1.415 . S
C1852 C1851 1.355 . S
C1852 C1854 1.419 . S
C1853 C1848 1.425 . S
C1853 C1850 1.409 . S
C1853 C1851 1.415 . S
C1854 H1844 0.930 . S
C1854 C1852 1.419 . S
C1854 C1855 1.362 . S
C1855 H1845 0.930 . S
C1855 C1848 1.409 . S
C1855 C1854 1.362 . S
H1856 C1862 0.930 . S
H1857 C1865 0.930 . S
H1858 C1866 0.930 . S
H1859 C1867 0.930 . S
H1860 C1870 0.930 . S
H1861 C1871 0.930 . S
C1862 H1856 0.930 . S
C1862 C1863 1.355 . S
C1862 C1864 1.415 . S
C1863 C1862 1.355 . S
C1863 C1865 1.419 . S
C1864 C1862 1.415 . S
C1864 C1869 1.425 . S
C1864 C1871 1.409 . S
C1865 H1857 0.930 . S
C1865 C1863 1.419 . S
C1865 C1866 1.362 . S
C1866 H1858 0.930 . S
C1866 C1865 1.362 . S
C1866 C1869 1.409 . S
C1867 H1859 0.930 . S
C1867 C1868 1.355 . S
C1867 C1869 1.415 . S
C1868 C1867 1.355 . S
C1868 C1870 1.419 . S
C1869 C1864 1.425 . S
C1869 C1866 1.409 . S
C1869 C1867 1.415 . S
C1870 H1860 0.930 . S
C1870 C1868 1.419 . S
C1870 C1871 1.362 . S
C1871 H1861 0.930 . S
C1871 C1864 1.409 . S
C1871 C1870 1.362 . S
H1872 C1878 0.930 . S
H1873 C1881 0.930 . S
H1874 C1882 0.930 . S
H1875 C1883 0.930 . S
H1876 C1886 0.930 . S
H1877 C1887 0.930 . S
C1878 H1872 0.930 . S
C1878 C1879 1.355 . S
C1878 C1880 1.399 1_556 S
C1879 C1878 1.355 . S
C1879 C1881 1.419 . S
C1880 C1878 1.399 1_554 S
C1880 C1885 1.424 1_554 S
C1880 C1887 1.426 . S
C1881 H1873 0.930 . S
C1881 C1879 1.419 . S
C1881 C1882 1.362 . S
C1882 H1874 0.930 . S
C1882 C1881 1.362 . S
C1882 C1885 1.426 . S
C1883 H1875 0.930 . S
C1883 C1884 1.355 . S
C1883 C1885 1.399 1_554 S
C1884 C1883 1.355 . S
C1884 C1886 1.419 . S
C1885 C1880 1.424 1_556 S
C1885 C1882 1.426 . S
C1885 C1883 1.399 1_556 S
C1886 H1876 0.930 . S
C1886 C1884 1.419 . S
C1886 C1887 1.362 . S
C1887 H1877 0.930 . S
C1887 C1880 1.426 . S
C1887 C1886 1.362 . S
H1888 C1894 0.930 . S
H1889 C1897 0.930 . S
H1890 C1898 0.930 . S
H1891 C1899 0.930 . S
H1892 C1902 0.930 . S
H1893 C1903 0.930 . S
C1894 H1888 0.930 . S
C1894 C1895 1.355 . S
C1894 C1896 1.415 . S
C1895 C1894 1.355 . S
C1895 C1897 1.419 . S
C1896 C1894 1.415 . S
C1896 C1901 1.425 . S
C1896 C1903 1.409 . S
C1897 H1889 0.930 . S
C1897 C1895 1.419 . S
C1897 C1898 1.362 . S
C1898 H1890 0.930 . S
C1898 C1897 1.362 . S
C1898 C1901 1.409 . S
C1899 H1891 0.930 . S
C1899 C1900 1.355 . S
C1899 C1901 1.415 . S
C1900 C1899 1.355 . S
C1900 C1902 1.419 . S
C1901 C1896 1.425 . S
C1901 C1898 1.409 . S
C1901 C1899 1.415 . S
C1902 H1892 0.930 . S
C1902 C1900 1.419 . S
C1902 C1903 1.362 . S
C1903 H1893 0.930 . S
C1903 C1896 1.409 . S
C1903 C1902 1.362 . S
H1904 C1910 0.930 . S
H1905 C1913 0.930 . S
H1906 C1914 0.930 . S
H1907 C1915 0.930 . S
H1908 C1918 0.930 . S
H1909 C1919 0.930 . S
C1910 H1904 0.930 . S
C1910 C1911 1.355 . S
C1910 C1912 1.415 . S
C1911 C1910 1.355 . S
C1911 C1913 1.419 . S
C1912 C1910 1.415 . S
C1912 C1917 1.425 1_556 S
C1912 C1919 1.409 . S
C1913 H1905 0.930 . S
C1913 C1911 1.419 . S
C1913 C1914 1.362 1_556 S
C1914 H1906 0.930 . S
C1914 C1913 1.362 1_554 S
C1914 C1917 1.409 . S
C1915 H1907 0.930 . S
C1915 C1916 1.355 . S
C1915 C1917 1.415 . S
C1916 C1915 1.355 . S
C1916 C1918 1.419 . S
C1917 C1912 1.425 1_554 S
C1917 C1914 1.409 . S
C1917 C1915 1.415 . S
C1918 H1908 0.930 . S
C1918 C1916 1.419 . S
C1918 C1919 1.362 1_554 S
C1919 H1909 0.930 . S
C1919 C1912 1.409 . S
C1919 C1918 1.362 1_556 S
H1920 C1926 0.930 1_545 S
H1921 C1929 0.930 . S
H1922 C1930 0.930 . S
H1923 C1931 0.930 1_565 S
H1924 C1934 0.930 . S
H1925 C1935 0.930 . S
C1926 H1920 0.930 1_565 S
C1926 C1927 1.355 . S
C1926 C1928 1.415 1_565 S
C1927 C1926 1.355 . S
C1927 C1929 1.419 . S
C1928 C1926 1.415 1_545 S
C1928 C1933 1.425 1_545 S
C1928 C1935 1.409 . S
C1929 H1921 0.930 . S
C1929 C1927 1.419 . S
C1929 C1930 1.362 . S
C1930 H1922 0.930 . S
C1930 C1929 1.362 . S
C1930 C1933 1.409 . S
C1931 H1923 0.930 1_545 S
C1931 C1932 1.355 . S
C1931 C1933 1.415 1_545 S
C1932 C1931 1.355 . S
C1932 C1934 1.419 . S
C1933 C1928 1.425 1_565 S
C1933 C1930 1.409 . S
C1933 C1931 1.415 1_565 S
C1934 H1924 0.930 . S
C1934 C1932 1.419 . S
C1934 C1935 1.362 . S
C1935 H1925 0.930 . S
C1935 C1928 1.409 . S
C1935 C1934 1.362 . S
H1936 C1942 0.930 . S
H1937 C1945 0.930 . S
H1938 C1946 0.930 . S
H1939 C1947 0.930 . S
H1940 C1950 0.930 . S
H1941 C1951 0.930 . S
C1942 H1936 0.930 . S
C1942 C1943 1.355 . S
C1942 C1944 1.415 . S
C1943 C1942 1.355 . S
C1943 C1945 1.419 . S
C1944 C1942 1.415 . S
C1944 C1949 1.425 . S
C1944 C1951 1.409 . S
C1945 H1937 0.930 . S
C1945 C1943 1.419 . S
C1945 C1946 1.362 . S
C1946 H1938 0.930 . S
C1946 C1945 1.362 . S
C1946 C1949 1.409 . S
C1947 H1939 0.930 . S
C1947 C1948 1.355 . S
C1947 C1949 1.415 . S
C1948 C1947 1.355 . S
C1948 C1950 1.419 . S
C1949 C1944 1.425 . S
C1949 C1946 1.409 . S
C1949 C1947 1.415 . S
C1950 H1940 0.930 . S
C1950 C1948 1.419 . S
C1950 C1951 1.362 . S
C1951 H1941 0.930 . S
C1951 C1944 1.409 . S
C1951 C1950 1.362 . S
H1952 C1958 0.930 . S
H1953 C1961 0.927 1_545 S
H1954 C1962 0.930 . S
H1955 C1963 0.930 . S
H1956 C1966 0.927 1_565 S
H1957 C1967 0.930 . S
C1958 H1952 0.930 . S
C1958 C1959 1.355 . S
C1958 C1960 1.415 . S
C1959 C1958 1.355 . S
C1959 C1961 1.432 . S
C1960 C1958 1.415 . S
C1960 C1965 1.425 1_565 S
C1960 C1967 1.409 . S
C1961 H1953 0.927 1_565 S
C1961 C1959 1.432 . S
C1961 C1962 1.352 1_565 S
C1962 H1954 0.930 . S
C1962 C1961 1.352 1_545 S
C1962 C1965 1.409 . S
C1963 H1955 0.930 . S
C1963 C1964 1.355 . S
C1963 C1965 1.415 . S
C1964 C1963 1.355 . S
C1964 C1966 1.432 . S
C1965 C1960 1.425 1_545 S
C1965 C1962 1.409 . S
C1965 C1963 1.415 . S
C1966 H1956 0.927 1_545 S
C1966 C1964 1.432 . S
C1966 C1967 1.352 1_545 S
C1967 H1957 0.930 . S
C1967 C1960 1.409 . S
C1967 C1966 1.352 1_565 S
H1968 C1974 0.930 . S
H1969 C1977 0.930 . S
H1970 C1978 0.930 . S
H1971 C1979 0.930 . S
H1972 C1982 0.930 . S
H1973 C1983 0.930 . S
C1974 H1968 0.930 . S
C1974 C1975 1.355 . S
C1974 C1976 1.415 . S
C1975 C1974 1.355 . S
C1975 C1977 1.419 . S
C1976 C1974 1.415 . S
C1976 C1981 1.425 . S
C1976 C1983 1.409 . S
C1977 H1969 0.930 . S
C1977 C1975 1.419 . S
C1977 C1978 1.362 . S
C1978 H1970 0.930 . S
C1978 C1977 1.362 . S
C1978 C1981 1.409 . S
C1979 H1971 0.930 . S
C1979 C1980 1.355 . S
C1979 C1981 1.415 . S
C1980 C1979 1.355 . S
C1980 C1982 1.419 . S
C1981 C1976 1.425 . S
C1981 C1978 1.409 . S
C1981 C1979 1.415 . S
C1982 H1972 0.930 . S
C1982 C1980 1.419 . S
C1982 C1983 1.362 . S
C1983 H1973 0.930 . S
C1983 C1976 1.409 . S
C1983 C1982 1.362 . S
H1984 C1990 0.930 . S
H1985 C1993 0.930 . S
H1986 C1994 0.930 . S
H1987 C1995 0.930 . S
H1988 C1998 0.930 . S
H1989 C1999 0.930 . S
C1990 H1984 0.930 . S
C1990 C1991 1.355 . S
C1990 C1992 1.415 . S
C1991 C1990 1.355 . S
C1991 C1993 1.419 . S
C1992 C1990 1.415 . S
C1992 C1997 1.425 . S
C1992 C1999 1.409 . S
C1993 H1985 0.930 . S
C1993 C1991 1.419 . S
C1993 C1994 1.362 . S
C1994 H1986 0.930 . S
C1994 C1993 1.362 . S
C1994 C1997 1.409 . S
C1995 H1987 0.930 . S
C1995 C1996 1.355 . S
C1995 C1997 1.415 . S
C1996 C1995 1.355 . S
C1996 C1998 1.419 . S
C1997 C1992 1.425 . S
C1997 C1994 1.409 . S
C1997 C1995 1.415 . S
C1998 H1988 0.930 . S
C1998 C1996 1.419 . S
C1998 C1999 1.362 . S
C1999 H1989 0.930 . S
C1999 C1992 1.409 . S
C1999 C1998 1.362 . S
H2000 C2006 0.930 . S
H2001 C2009 0.930 . S
H2002 C2010 0.930 . S
H2003 C2011 0.930 . S
H2004 C2014 0.930 . S
H2005 C2015 0.930 . S
C2006 H2000 0.930 . S
C2006 C2007 1.355 . S
C2006 C2008 1.415 . S
C2007 C2006 1.355 . S
C2007 C2009 1.419 . S
C2008 C2006 1.415 . S
C2008 C2013 1.425 . S
C2008 C2015 1.409 . S
C2009 H2001 0.930 . S
C2009 C2007 1.419 . S
C2009 C2010 1.362 . S
C2010 H2002 0.930 . S
C2010 C2009 1.362 . S
C2010 C2013 1.409 . S
C2011 H2003 0.930 . S
C2011 C2012 1.355 . S
C2011 C2013 1.415 . S
C2012 C2011 1.355 . S
C2012 C2014 1.419 . S
C2013 C2008 1.425 . S
C2013 C2010 1.409 . S
C2013 C2011 1.415 . S
C2014 H2004 0.930 . S
C2014 C2012 1.419 . S
C2014 C2015 1.362 . S
C2015 H2005 0.930 . S
C2015 C2008 1.409 . S
C2015 C2014 1.362 . S
H2016 C2022 0.930 . S
H2017 C2025 0.930 . S
H2018 C2026 0.930 . S
H2019 C2027 0.930 . S
H2020 C2030 0.930 . S
H2021 C2031 0.930 . S
C2022 H2016 0.930 . S
C2022 C2023 1.355 . S
C2022 C2024 1.415 . S
C2023 C2022 1.355 . S
C2023 C2025 1.419 . S
C2024 C2022 1.415 . S
C2024 C2029 1.425 . S
C2024 C2031 1.409 1_455 S
C2025 H2017 0.930 . S
C2025 C2023 1.419 . S
C2025 C2026 1.362 . S
C2026 H2018 0.930 . S
C2026 C2025 1.362 . S
C2026 C2029 1.409 . S
C2027 H2019 0.930 . S
C2027 C2028 1.355 . S
C2027 C2029 1.415 1_655 S
C2028 C2027 1.355 . S
C2028 C2030 1.419 . S
C2029 C2024 1.425 . S
C2029 C2026 1.409 . S
C2029 C2027 1.415 1_455 S
C2030 H2020 0.930 . S
C2030 C2028 1.419 . S
C2030 C2031 1.362 . S
C2031 H2021 0.930 . S
C2031 C2024 1.409 1_655 S
C2031 C2030 1.362 . S
H2032 C2038 0.948 . S
H2033 C2041 0.930 . S
H2034 C2042 0.930 . S
H2035 C2043 0.930 . S
H2036 C2046 0.930 . S
H2037 C2047 0.930 . S
C2038 H2032 0.948 . S
C2038 C2039 1.316 1_455 S
C2038 C2040 1.437 . S
C2039 C2038 1.316 1_655 S
C2039 C2041 1.419 . S
C2040 C2038 1.437 . S
C2040 C2045 1.425 . S
C2040 C2047 1.409 . S
C2041 H2033 0.930 . S
C2041 C2039 1.419 . S
C2041 C2042 1.362 . S
C2042 H2034 0.930 . S
C2042 C2041 1.362 . S
C2042 C2045 1.409 1_655 S
C2043 H2035 0.930 . S
C2043 C2044 1.355 . S
C2043 C2045 1.415 . S
C2044 C2043 1.355 . S
C2044 C2046 1.419 . S
C2045 C2040 1.425 . S
C2045 C2042 1.409 1_455 S
C2045 C2043 1.415 . S
C2046 H2036 0.930 . S
C2046 C2044 1.419 . S
C2046 C2047 1.362 . S
C2047 H2037 0.930 . S
C2047 C2040 1.409 . S
C2047 C2046 1.362 . S
H2048 C2054 0.930 . S
H2049 C2057 0.930 . S
H2050 C2058 0.930 . S
H2051 C2059 0.930 . S
H2052 C2062 0.930 . S
H2053 C2063 0.930 . S
C2054 H2048 0.930 . S
C2054 C2055 1.355 . S
C2054 C2056 1.415 . S
C2055 C2054 1.355 . S
C2055 C2057 1.419 . S
C2056 C2054 1.415 . S
C2056 C2061 1.425 . S
C2056 C2063 1.409 1_655 S
C2057 H2049 0.930 . S
C2057 C2055 1.419 . S
C2057 C2058 1.362 . S
C2058 H2050 0.930 . S
C2058 C2057 1.362 . S
C2058 C2061 1.409 . S
C2059 H2051 0.930 . S
C2059 C2060 1.355 1_655 S
C2059 C2061 1.415 . S
C2060 C2059 1.355 1_455 S
C2060 C2062 1.419 . S
C2061 C2056 1.425 . S
C2061 C2058 1.409 . S
C2061 C2059 1.415 . S
C2062 H2052 0.930 . S
C2062 C2060 1.419 . S
C2062 C2063 1.362 . S
C2063 H2053 0.930 . S
C2063 C2056 1.409 1_455 S
C2063 C2062 1.362 . S
H2064 C2070 0.930 . S
H2065 C2073 0.930 . S
H2066 C2074 0.930 . S
H2067 C2075 0.930 . S
H2068 C2078 0.930 . S
H2069 C2079 0.930 . S
C2070 H2064 0.930 . S
C2070 C2071 1.355 . S
C2070 C2072 1.415 . S
C2071 C2070 1.355 . S
C2071 C2073 1.419 . S
C2072 C2070 1.415 . S
C2072 C2077 1.425 . S
C2072 C2079 1.409 1_655 S
C2073 H2065 0.930 . S
C2073 C2071 1.419 . S
C2073 C2074 1.362 . S
C2074 H2066 0.930 . S
C2074 C2073 1.362 . S
C2074 C2077 1.409 . S
C2075 H2067 0.930 . S
C2075 C2076 1.355 . S
C2075 C2077 1.415 1_455 S
C2076 C2075 1.355 . S
C2076 C2078 1.419 . S
C2077 C2072 1.425 . S
C2077 C2074 1.409 . S
C2077 C2075 1.415 1_655 S
C2078 H2068 0.930 . S
C2078 C2076 1.419 . S
C2078 C2079 1.362 . S
C2079 H2069 0.930 . S
C2079 C2072 1.409 1_455 S
C2079 C2078 1.362 . S
H2080 C2086 0.930 . S
H2081 C2089 0.930 . S
H2082 C2090 0.930 . S
H2083 C2091 0.930 . S
H2084 C2094 0.930 . S
H2085 C2095 0.930 . S
C2086 H2080 0.930 . S
C2086 C2087 1.355 . S
C2086 C2088 1.415 . S
C2087 C2086 1.355 . S
C2087 C2089 1.419 . S
C2088 C2086 1.415 . S
C2088 C2093 1.425 . S
C2088 C2095 1.409 1_455 S
C2089 H2081 0.930 . S
C2089 C2087 1.419 . S
C2089 C2090 1.362 . S
C2090 H2082 0.930 . S
C2090 C2089 1.362 . S
C2090 C2093 1.409 . S
C2091 H2083 0.930 . S
C2091 C2092 1.355 1_455 S
C2091 C2093 1.415 . S
C2092 C2091 1.355 1_655 S
C2092 C2094 1.419 . S
C2093 C2088 1.425 . S
C2093 C2090 1.409 . S
C2093 C2091 1.415 . S
C2094 H2084 0.930 . S
C2094 C2092 1.419 . S
C2094 C2095 1.362 . S
C2095 H2085 0.930 . S
C2095 C2088 1.409 1_655 S
C2095 C2094 1.362 . S
H2096 C2102 0.930 . S
H2097 C2105 0.930 . S
H2098 C2106 0.930 . S
H2099 C2107 0.930 . S
H2100 C2110 0.930 . S
H2101 C2111 0.930 . S
C2102 H2096 0.930 . S
C2102 C2103 1.355 . S
C2102 C2104 1.415 . S
C2103 C2102 1.355 . S
C2103 C2105 1.419 . S
C2104 C2102 1.415 . S
C2104 C2109 1.425 . S
C2104 C2111 1.409 . S
C2105 H2097 0.930 . S
C2105 C2103 1.419 . S
C2105 C2106 1.362 . S
C2106 H2098 0.930 . S
C2106 C2105 1.362 . S
C2106 C2109 1.409 . S
C2107 H2099 0.930 . S
C2107 C2108 1.355 . S
C2107 C2109 1.415 . S
C2108 C2107 1.355 . S
C2108 C2110 1.419 . S
C2109 C2104 1.425 . S
C2109 C2106 1.409 . S
C2109 C2107 1.415 . S
C2110 H2100 0.930 . S
C2110 C2108 1.419 . S
C2110 C2111 1.362 . S
C2111 H2101 0.930 . S
C2111 C2104 1.409 . S
C2111 C2110 1.362 . S
H2112 C2118 0.930 . S
H2113 C2121 0.930 . S
H2114 C2122 0.930 1_455 S
H2115 C2123 0.930 . S
H2116 C2126 0.930 . S
H2117 C2127 0.930 . S
C2118 H2112 0.930 . S
C2118 C2119 1.355 . S
C2118 C2120 1.415 . S
C2119 C2118 1.355 . S
C2119 C2121 1.419 . S
C2120 C2118 1.415 . S
C2120 C2125 1.425 . S
C2120 C2127 1.409 . S
C2121 H2113 0.930 . S
C2121 C2119 1.419 . S
C2121 C2122 1.362 . S
C2122 H2114 0.930 1_655 S
C2122 C2121 1.362 . S
C2122 C2125 1.409 . S
C2123 H2115 0.930 . S
C2123 C2124 1.355 . S
C2123 C2125 1.415 1_455 S
C2124 C2123 1.355 . S
C2124 C2126 1.419 . S
C2125 C2120 1.425 . S
C2125 C2122 1.409 . S
C2125 C2123 1.415 1_655 S
C2126 H2116 0.930 . S
C2126 C2124 1.419 . S
C2126 C2127 1.362 1_455 S
C2127 H2117 0.930 . S
C2127 C2120 1.409 . S
C2127 C2126 1.362 1_655 S
H2128 C2134 0.930 . S
H2129 C2137 0.930 . S
H2130 C2138 0.930 . S
H2131 C2139 0.930 . S
H2132 C2142 0.930 . S
H2133 C2143 0.930 . S
C2134 H2128 0.930 . S
C2134 C2135 1.355 . S
C2134 C2136 1.415 . S
C2135 C2134 1.355 . S
C2135 C2137 1.419 . S
C2136 C2134 1.415 . S
C2136 C2141 1.425 . S
C2136 C2143 1.409 . S
C2137 H2129 0.930 . S
C2137 C2135 1.419 . S
C2137 C2138 1.362 . S
C2138 H2130 0.930 . S
C2138 C2137 1.362 . S
C2138 C2141 1.409 . S
C2139 H2131 0.930 . S
C2139 C2140 1.355 . S
C2139 C2141 1.415 . S
C2140 C2139 1.355 . S
C2140 C2142 1.419 . S
C2141 C2136 1.425 . S
C2141 C2138 1.409 . S
C2141 C2139 1.415 . S
C2142 H2132 0.930 . S
C2142 C2140 1.419 . S
C2142 C2143 1.362 . S
C2143 H2133 0.930 . S
C2143 C2136 1.409 . S
C2143 C2142 1.362 . S
H2144 C2150 0.930 . S
H2145 C2153 0.930 . S
H2146 C2154 0.930 1_565 S
H2147 C2155 0.930 . S
H2148 C2158 0.930 . S
H2149 C2159 0.930 . S
C2150 H2144 0.930 . S
C2150 C2151 1.355 . S
C2150 C2152 1.415 . S
C2151 C2150 1.355 . S
C2151 C2153 1.419 . S
C2152 C2150 1.415 . S
C2152 C2157 1.460 . S
C2152 C2159 1.409 . S
C2153 H2145 0.930 . S
C2153 C2151 1.419 . S
C2153 C2154 1.362 . S
C2154 H2146 0.930 1_545 S
C2154 C2153 1.362 . S
C2154 C2157 1.419 . S
C2155 H2147 0.930 . S
C2155 C2156 1.355 . S
C2155 C2157 1.374 1_565 S
C2156 C2155 1.355 . S
C2156 C2158 1.419 . S
C2157 C2152 1.460 . S
C2157 C2154 1.419 . S
C2157 C2155 1.374 1_545 S
C2158 H2148 0.930 . S
C2158 C2156 1.419 . S
C2158 C2159 1.362 1_565 S
C2159 H2149 0.930 . S
C2159 C2152 1.409 . S
C2159 C2158 1.362 1_545 S
H2160 C2166 0.930 . S
H2161 C2169 0.930 . S
H2162 C2170 0.930 . S
H2163 C2171 0.930 . S
H2164 C2174 0.930 . S
H2165 C2175 0.930 . S
C2166 H2160 0.930 . S
C2166 C2167 1.355 . S
C2166 C2168 1.415 . S
C2167 C2166 1.355 . S
C2167 C2169 1.419 . S
C2168 C2166 1.415 . S
C2168 C2173 1.425 . S
C2168 C2175 1.409 . S
C2169 H2161 0.930 . S
C2169 C2167 1.419 . S
C2169 C2170 1.362 . S
C2170 H2162 0.930 . S
C2170 C2169 1.362 . S
C2170 C2173 1.409 . S
C2171 H2163 0.930 . S
C2171 C2172 1.355 . S
C2171 C2173 1.415 . S
C2172 C2171 1.355 . S
C2172 C2174 1.419 . S
C2173 C2168 1.425 . S
C2173 C2170 1.409 . S
C2173 C2171 1.415 . S
C2174 H2164 0.930 . S
C2174 C2172 1.419 . S
C2174 C2175 1.362 . S
C2175 H2165 0.930 . S
C2175 C2168 1.409 . S
C2175 C2174 1.362 . S
H2176 C2182 0.930 . S
H2177 C2185 0.930 . S
H2178 C2186 0.930 . S
H2179 C2187 0.930 . S
H2180 C2190 0.930 . S
H2181 C2191 0.930 . S
C2182 H2176 0.930 . S
C2182 C2183 1.355 . S
C2182 C2184 1.415 . S
C2183 C2182 1.355 . S
C2183 C2185 1.419 . S
C2184 C2182 1.415 . S
C2184 C2189 1.425 . S
C2184 C2191 1.409 . S
C2185 H2177 0.930 . S
C2185 C2183 1.419 . S
C2185 C2186 1.362 . S
C2186 H2178 0.930 . S
C2186 C2185 1.362 . S
C2186 C2189 1.409 . S
C2187 H2179 0.930 . S
C2187 C2188 1.355 . S
C2187 C2189 1.415 . S
C2188 C2187 1.355 . S
C2188 C2190 1.419 . S
C2189 C2184 1.425 . S
C2189 C2186 1.409 . S
C2189 C2187 1.415 . S
C2190 H2180 0.930 . S
C2190 C2188 1.419 . S
C2190 C2191 1.362 . S
C2191 H2181 0.930 . S
C2191 C2184 1.409 . S
C2191 C2190 1.362 . S
H2192 C2198 0.930 . S
H2193 C2201 0.930 . S
H2194 C2202 0.930 . S
H2195 C2203 0.930 . S
H2196 C2206 0.930 . S
H2197 C2207 0.930 . S
C2198 H2192 0.930 . S
C2198 C2199 1.355 1_556 S
C2198 C2200 1.415 . S
C2199 C2198 1.355 1_554 S
C2199 C2201 1.419 . S
C2200 C2198 1.415 . S
C2200 C2205 1.458 . S
C2200 C2207 1.409 . S
C2201 H2193 0.930 . S
C2201 C2199 1.419 . S
C2201 C2202 1.362 . S
C2202 H2194 0.930 . S
C2202 C2201 1.362 . S
C2202 C2205 1.352 1_554 S
C2203 H2195 0.930 . S
C2203 C2204 1.355 . S
C2203 C2205 1.441 . S
C2204 C2203 1.355 . S
C2204 C2206 1.419 . S
C2205 C2200 1.458 . S
C2205 C2202 1.352 1_556 S
C2205 C2203 1.441 . S
C2206 H2196 0.930 . S
C2206 C2204 1.419 . S
C2206 C2207 1.362 . S
C2207 H2197 0.930 . S
C2207 C2200 1.409 . S
C2207 C2206 1.362 . S
H2208 C2214 0.930 . S
H2209 C2217 0.930 . S
H2210 C2218 0.930 . S
H2211 C2219 0.930 . S
H2212 C2222 0.930 . S
H2213 C2223 0.930 . S
C2214 H2208 0.930 . S
C2214 C2215 1.355 1_565 S
C2214 C2216 1.415 . S
C2215 C2214 1.355 1_545 S
C2215 C2217 1.419 . S
C2216 C2214 1.415 . S
C2216 C2221 1.425 . S
C2216 C2223 1.409 . S
C2217 H2209 0.930 . S
C2217 C2215 1.419 . S
C2217 C2218 1.362 . S
C2218 H2210 0.930 . S
C2218 C2217 1.362 . S
C2218 C2221 1.409 1_545 S
C2219 H2211 0.930 . S
C2219 C2220 1.355 . S
C2219 C2221 1.415 . S
C2220 C2219 1.355 . S
C2220 C2222 1.419 . S
C2221 C2216 1.425 . S
C2221 C2218 1.409 1_565 S
C2221 C2219 1.415 . S
C2222 H2212 0.930 . S
C2222 C2220 1.419 . S
C2222 C2223 1.362 . S
C2223 H2213 0.930 . S
C2223 C2216 1.409 . S
C2223 C2222 1.362 . S
H2224 C2230 0.930 . S
H2225 C2233 0.930 . S
H2226 C2234 0.930 . S
H2227 C2235 0.932 . S
H2228 C2238 0.930 . S
H2229 C2239 0.930 . S
C2230 H2224 0.930 . S
C2230 C2231 1.355 . S
C2230 C2232 1.415 . S
C2231 C2230 1.355 . S
C2231 C2233 1.419 . S
C2232 C2230 1.415 . S
C2232 C2237 1.425 . S
C2232 C2239 1.409 1_554 S
C2233 H2225 0.930 . S
C2233 C2231 1.419 . S
C2233 C2234 1.362 . S
C2234 H2226 0.930 . S
C2234 C2233 1.362 . S
C2234 C2237 1.409 . S
C2235 H2227 0.932 . S
C2235 C2236 1.355 . S
C2235 C2237 1.415 1_556 S
C2236 C2235 1.355 . S
C2236 C2238 1.419 . S
C2237 C2232 1.425 . S
C2237 C2234 1.409 . S
C2237 C2235 1.415 1_554 S
C2238 H2228 0.930 . S
C2238 C2236 1.419 . S
C2238 C2239 1.362 . S
C2239 H2229 0.930 . S
C2239 C2232 1.409 1_556 S
C2239 C2238 1.362 . S
H2240 C2246 0.930 . S
H2241 C2249 0.930 . S
H2242 C2250 0.930 . S
H2243 C2251 0.930 . S
H2244 C2254 0.930 . S
H2245 C2255 0.930 . S
C2246 H2240 0.930 . S
C2246 C2247 1.355 . S
C2246 C2248 1.415 . S
C2247 C2246 1.355 . S
C2247 C2249 1.419 . S
C2248 C2246 1.415 . S
C2248 C2253 1.425 . S
C2248 C2255 1.409 . S
C2249 H2241 0.930 . S
C2249 C2247 1.419 . S
C2249 C2250 1.362 . S
C2250 H2242 0.930 . S
C2250 C2249 1.362 . S
C2250 C2253 1.409 . S
C2251 H2243 0.930 . S
C2251 C2252 1.355 . S
C2251 C2253 1.415 . S
C2252 C2251 1.355 . S
C2252 C2254 1.419 . S
C2253 C2248 1.425 . S
C2253 C2250 1.409 . S
C2253 C2251 1.415 . S
C2254 H2244 0.930 . S
C2254 C2252 1.419 . S
C2254 C2255 1.362 . S
C2255 H2245 0.930 . S
C2255 C2248 1.409 . S
C2255 C2254 1.362 . S
H2256 C2262 0.930 . S
H2257 C2265 0.930 . S
H2258 C2266 0.930 . S
H2259 C2267 0.930 . S
H2260 C2270 0.930 . S
H2261 C2271 0.930 . S
C2262 H2256 0.930 . S
C2262 C2263 1.355 . S
C2262 C2264 1.415 . S
C2263 C2262 1.355 . S
C2263 C2265 1.419 . S
C2264 C2262 1.415 . S
C2264 C2269 1.425 . S
C2264 C2271 1.409 . S
C2265 H2257 0.930 . S
C2265 C2263 1.419 . S
C2265 C2266 1.362 . S
C2266 H2258 0.930 . S
C2266 C2265 1.362 . S
C2266 C2269 1.409 . S
C2267 H2259 0.930 . S
C2267 C2268 1.355 . S
C2267 C2269 1.415 . S
C2268 C2267 1.355 . S
C2268 C2270 1.419 . S
C2269 C2264 1.425 . S
C2269 C2266 1.409 . S
C2269 C2267 1.415 . S
C2270 H2260 0.930 . S
C2270 C2268 1.419 . S
C2270 C2271 1.362 . S
C2271 H2261 0.930 . S
C2271 C2264 1.409 . S
C2271 C2270 1.362 . S
H2272 C2278 0.937 . S
H2273 C2281 0.930 . S
H2274 C2282 0.930 . S
H2275 C2283 0.930 . S
H2276 C2286 0.930 . S
H2277 C2287 0.930 . S
C2278 H2272 0.937 . S
C2278 C2279 1.355 . S
C2278 C2280 1.415 1_556 S
C2279 C2278 1.355 . S
C2279 C2281 1.419 . S
C2280 C2278 1.415 1_554 S
C2280 C2285 1.425 . S
C2280 C2287 1.409 . S
C2281 H2273 0.930 . S
C2281 C2279 1.419 . S
C2281 C2282 1.362 . S
C2282 H2274 0.930 . S
C2282 C2281 1.362 . S
C2282 C2285 1.409 1_556 S
C2283 H2275 0.930 . S
C2283 C2284 1.355 . S
C2283 C2285 1.415 . S
C2284 C2283 1.355 . S
C2284 C2286 1.419 . S
C2285 C2280 1.425 . S
C2285 C2282 1.409 1_554 S
C2285 C2283 1.415 . S
C2286 H2276 0.930 . S
C2286 C2284 1.419 . S
C2286 C2287 1.362 . S
C2287 H2277 0.930 . S
C2287 C2280 1.409 . S
C2287 C2286 1.362 . S
H2288 C2294 0.930 . S
H2289 C2297 0.930 . S
H2290 C2298 0.930 . S
H2291 C2299 0.930 . S
H2292 C2302 0.930 . S
H2293 C2303 0.930 . S
C2294 H2288 0.930 . S
C2294 C2295 1.355 . S
C2294 C2296 1.415 . S
C2295 C2294 1.355 . S
C2295 C2297 1.419 . S
C2296 C2294 1.415 . S
C2296 C2301 1.425 . S
C2296 C2303 1.409 . S
C2297 H2289 0.930 . S
C2297 C2295 1.419 . S
C2297 C2298 1.362 . S
C2298 H2290 0.930 . S
C2298 C2297 1.362 . S
C2298 C2301 1.409 . S
C2299 H2291 0.930 . S
C2299 C2300 1.355 . S
C2299 C2301 1.415 . S
C2300 C2299 1.355 . S
C2300 C2302 1.419 . S
C2301 C2296 1.425 . S
C2301 C2298 1.409 . S
C2301 C2299 1.415 . S
C2302 H2292 0.930 . S
C2302 C2300 1.419 . S
C2302 C2303 1.362 . S
C2303 H2293 0.930 . S
C2303 C2296 1.409 . S
C2303 C2302 1.362 . S
H2304 C2310 0.930 . S
H2305 C2313 0.930 . S
H2306 C2314 0.930 . S
H2307 C2315 0.930 . S
H2308 C2318 0.930 . S
H2309 C2319 0.930 . S
C2310 H2304 0.930 . S
C2310 C2311 1.355 1_565 S
C2310 C2312 1.415 . S
C2311 C2310 1.355 1_545 S
C2311 C2313 1.419 . S
C2312 C2310 1.415 . S
C2312 C2317 1.456 . S
C2312 C2319 1.409 . S
C2313 H2305 0.930 . S
C2313 C2311 1.419 . S
C2313 C2314 1.362 . S
C2314 H2306 0.930 . S
C2314 C2313 1.362 . S
C2314 C2317 1.357 1_545 S
C2315 H2307 0.930 . S
C2315 C2316 1.355 . S
C2315 C2317 1.439 . S
C2316 C2315 1.355 . S
C2316 C2318 1.419 . S
C2317 C2312 1.456 . S
C2317 C2314 1.357 1_565 S
C2317 C2315 1.439 . S
C2318 H2308 0.930 . S
C2318 C2316 1.419 . S
C2318 C2319 1.362 . S
C2319 H2309 0.930 . S
C2319 C2312 1.409 . S
C2319 C2318 1.362 . S
H2320 C2326 0.930 . S
H2321 C2329 0.930 . S
H2322 C2330 0.930 . S
H2323 C2331 0.920 1_556 S
H2324 C2334 0.930 . S
H2325 C2335 0.930 . S
C2326 H2320 0.930 . S
C2326 C2327 1.355 . S
C2326 C2328 1.415 . S
C2327 C2326 1.355 . S
C2327 C2329 1.419 . S
C2328 C2326 1.415 . S
C2328 C2333 1.425 . S
C2328 C2335 1.409 1_556 S
C2329 H2321 0.930 . S
C2329 C2327 1.419 . S
C2329 C2330 1.362 . S
C2330 H2322 0.930 . S
C2330 C2329 1.362 . S
C2330 C2333 1.409 . S
C2331 H2323 0.920 1_554 S
C2331 C2332 1.355 . S
C2331 C2333 1.415 1_554 S
C2332 C2331 1.355 . S
C2332 C2334 1.419 . S
C2333 C2328 1.425 . S
C2333 C2330 1.409 . S
C2333 C2331 1.415 1_556 S
C2334 H2324 0.930 . S
C2334 C2332 1.419 . S
C2334 C2335 1.362 . S
C2335 H2325 0.930 . S
C2335 C2328 1.409 1_554 S
C2335 C2334 1.362 . S
H2336 C2342 0.930 . S
H2337 C2345 0.930 . S
H2338 C2346 0.930 . S
H2339 C2347 0.930 . S
H2340 C2350 0.930 . S
H2341 C2351 0.930 . S
C2342 H2336 0.930 . S
C2342 C2343 1.355 . S
C2342 C2344 1.415 . S
C2343 C2342 1.355 . S
C2343 C2345 1.419 . S
C2344 C2342 1.415 . S
C2344 C2349 1.425 1_554 S
C2344 C2351 1.409 . S
C2345 H2337 0.930 . S
C2345 C2343 1.419 . S
C2345 C2346 1.362 1_554 S
C2346 H2338 0.930 . S
C2346 C2345 1.362 1_556 S
C2346 C2349 1.409 . S
C2347 H2339 0.930 . S
C2347 C2348 1.355 . S
C2347 C2349 1.415 . S
C2348 C2347 1.355 . S
C2348 C2350 1.419 1_556 S
C2349 C2344 1.425 1_556 S
C2349 C2346 1.409 . S
C2349 C2347 1.415 . S
C2350 H2340 0.930 . S
C2350 C2348 1.419 1_554 S
C2350 C2351 1.362 . S
C2351 H2341 0.930 . S
C2351 C2344 1.409 . S
C2351 C2350 1.362 . S
H2352 C2358 0.930 . S
H2353 C2361 0.930 . S
H2354 C2362 0.930 . S
H2355 C2363 0.930 . S
H2356 C2366 0.930 . S
H2357 C2367 0.930 . S
C2358 H2352 0.930 . S
C2358 C2359 1.355 . S
C2358 C2360 1.415 . S
C2359 C2358 1.355 . S
C2359 C2361 1.419 . S
C2360 C2358 1.415 . S
C2360 C2365 1.425 . S
C2360 C2367 1.409 . S
C2361 H2353 0.930 . S
C2361 C2359 1.419 . S
C2361 C2362 1.362 . S
C2362 H2354 0.930 . S
C2362 C2361 1.362 . S
C2362 C2365 1.409 . S
C2363 H2355 0.930 . S
C2363 C2364 1.355 . S
C2363 C2365 1.415 . S
C2364 C2363 1.355 . S
C2364 C2366 1.419 . S
C2365 C2360 1.425 . S
C2365 C2362 1.409 . S
C2365 C2363 1.415 . S
C2366 H2356 0.930 . S
C2366 C2364 1.419 . S
C2366 C2367 1.362 . S
C2367 H2357 0.930 . S
C2367 C2360 1.409 . S
C2367 C2366 1.362 . S
H2368 C2374 0.930 . S
H2369 C2377 0.930 . S
H2370 C2378 0.930 . S
H2371 C2379 0.930 . S
H2372 C2382 0.930 . S
H2373 C2383 0.930 . S
C2374 H2368 0.930 . S
C2374 C2375 1.355 . S
C2374 C2376 1.415 . S
C2375 C2374 1.355 . S
C2375 C2377 1.419 . S
C2376 C2374 1.415 . S
C2376 C2381 1.425 . S
C2376 C2383 1.409 . S
C2377 H2369 0.930 . S
C2377 C2375 1.419 . S
C2377 C2378 1.362 . S
C2378 H2370 0.930 . S
C2378 C2377 1.362 . S
C2378 C2381 1.409 . S
C2379 H2371 0.930 . S
C2379 C2380 1.355 . S
C2379 C2381 1.415 1_545 S
C2380 C2379 1.355 . S
C2380 C2382 1.419 . S
C2381 C2376 1.425 . S
C2381 C2378 1.409 . S
C2381 C2379 1.415 1_565 S
C2382 H2372 0.930 . S
C2382 C2380 1.419 . S
C2382 C2383 1.362 1_545 S
C2383 H2373 0.930 . S
C2383 C2376 1.409 . S
C2383 C2382 1.362 1_565 S
H2384 C2390 0.930 . S
H2385 C2393 0.930 . S
H2386 C2394 0.930 . S
H2387 C2395 0.930 . S
H2388 C2398 0.930 . S
H2389 C2399 0.930 . S
C2390 H2384 0.930 . S
C2390 C2391 1.355 . S
C2390 C2392 1.415 . S
C2391 C2390 1.355 . S
C2391 C2393 1.419 . S
C2392 C2390 1.415 . S
C2392 C2397 1.425 1_455 S
C2392 C2399 1.409 . S
C2393 H2385 0.930 . S
C2393 C2391 1.419 . S
C2393 C2394 1.362 1_455 S
C2394 H2386 0.930 . S
C2394 C2393 1.362 1_655 S
C2394 C2397 1.409 . S
C2395 H2387 0.930 . S
C2395 C2396 1.355 . S
C2395 C2397 1.415 . S
C2396 C2395 1.355 . S
C2396 C2398 1.419 1_655 S
C2397 C2392 1.425 1_655 S
C2397 C2394 1.409 . S
C2397 C2395 1.415 . S
C2398 H2388 0.930 . S
C2398 C2396 1.419 1_455 S
C2398 C2399 1.362 . S
C2399 H2389 0.930 . S
C2399 C2392 1.409 . S
C2399 C2398 1.362 . S
H2400 C2406 0.930 . S
H2401 C2409 0.930 . S
H2402 C2410 0.930 . S
H2403 C2411 0.930 . S
H2404 C2414 0.930 . S
H2405 C2415 0.930 . S
C2406 H2400 0.930 . S
C2406 C2407 1.355 1_655 S
C2406 C2408 1.415 . S
C2407 C2406 1.355 1_455 S
C2407 C2409 1.419 . S
C2408 C2406 1.415 . S
C2408 C2413 1.425 . S
C2408 C2415 1.409 . S
C2409 H2401 0.930 . S
C2409 C2407 1.419 . S
C2409 C2410 1.362 . S
C2410 H2402 0.930 . S
C2410 C2409 1.362 . S
C2410 C2413 1.409 1_455 S
C2411 H2403 0.930 . S
C2411 C2412 1.355 . S
C2411 C2413 1.415 . S
C2412 C2411 1.355 . S
C2412 C2414 1.419 . S
C2413 C2408 1.425 . S
C2413 C2410 1.409 1_655 S
C2413 C2411 1.415 . S
C2414 H2404 0.930 . S
C2414 C2412 1.419 . S
C2414 C2415 1.362 . S
C2415 H2405 0.930 . S
C2415 C2408 1.409 . S
C2415 C2414 1.362 . S
H2416 C2422 0.930 . S
H2417 C2425 0.930 . S
H2418 C2426 0.930 . S
H2419 C2427 0.930 . S
H2420 C2430 0.930 . S
H2421 C2431 0.930 . S
C2422 H2416 0.930 . S
C2422 C2423 1.355 . S
C2422 C2424 1.415 . S
C2423 C2422 1.355 . S
C2423 C2425 1.419 . S
C2424 C2422 1.415 . S
C2424 C2429 1.425 . S
C2424 C2431 1.409 . S
C2425 H2417 0.930 . S
C2425 C2423 1.419 . S
C2425 C2426 1.362 . S
C2426 H2418 0.930 . S
C2426 C2425 1.362 . S
C2426 C2429 1.409 . S
C2427 H2419 0.930 . S
C2427 C2428 1.355 . S
C2427 C2429 1.415 . S
C2428 C2427 1.355 . S
C2428 C2430 1.419 . S
C2429 C2424 1.425 . S
C2429 C2426 1.409 . S
C2429 C2427 1.415 . S
C2430 H2420 0.930 . S
C2430 C2428 1.419 . S
C2430 C2431 1.362 . S
C2431 H2421 0.930 . S
C2431 C2424 1.409 . S
C2431 C2430 1.362 . S
H2432 C2438 0.930 . S
H2433 C2441 0.930 . S
H2434 C2442 0.930 . S
H2435 C2443 0.930 . S
H2436 C2446 0.930 . S
H2437 C2447 0.930 . S
C2438 H2432 0.930 . S
C2438 C2439 1.355 . S
C2438 C2440 1.415 . S
C2439 C2438 1.355 . S
C2439 C2441 1.419 . S
C2440 C2438 1.415 . S
C2440 C2445 1.425 . S
C2440 C2447 1.409 . S
C2441 H2433 0.930 . S
C2441 C2439 1.419 . S
C2441 C2442 1.362 . S
C2442 H2434 0.930 . S
C2442 C2441 1.362 . S
C2442 C2445 1.409 . S
C2443 H2435 0.930 . S
C2443 C2444 1.355 . S
C2443 C2445 1.415 . S
C2444 C2443 1.355 . S
C2444 C2446 1.419 . S
C2445 C2440 1.425 . S
C2445 C2442 1.409 . S
C2445 C2443 1.415 . S
C2446 H2436 0.930 . S
C2446 C2444 1.419 . S
C2446 C2447 1.362 . S
C2447 H2437 0.930 . S
C2447 C2440 1.409 . S
C2447 C2446 1.362 . S
H2448 C2454 0.930 . S
H2449 C2457 0.930 . S
H2450 C2458 0.930 . S
H2451 C2459 0.930 . S
H2452 C2462 0.930 . S
H2453 C2463 0.930 . S
C2454 H2448 0.930 . S
C2454 C2455 1.355 . S
C2454 C2456 1.415 . S
C2455 C2454 1.355 . S
C2455 C2457 1.419 . S
C2456 C2454 1.415 . S
C2456 C2461 1.425 . S
C2456 C2463 1.409 . S
C2457 H2449 0.930 . S
C2457 C2455 1.419 . S
C2457 C2458 1.362 . S
C2458 H2450 0.930 . S
C2458 C2457 1.362 . S
C2458 C2461 1.409 . S
C2459 H2451 0.930 . S
C2459 C2460 1.355 . S
C2459 C2461 1.415 . S
C2460 C2459 1.355 . S
C2460 C2462 1.419 . S
C2461 C2456 1.425 . S
C2461 C2458 1.409 . S
C2461 C2459 1.415 . S
C2462 H2452 0.930 . S
C2462 C2460 1.419 . S
C2462 C2463 1.362 . S
C2463 H2453 0.930 . S
C2463 C2456 1.409 . S
C2463 C2462 1.362 . S
H2464 C2470 0.930 . S
H2465 C2473 0.930 . S
H2466 C2474 0.930 . S
H2467 C2475 0.930 . S
H2468 C2478 0.930 . S
H2469 C2479 0.930 . S
C2470 H2464 0.930 . S
C2470 C2471 1.355 1_556 S
C2470 C2472 1.415 . S
C2471 C2470 1.355 1_554 S
C2471 C2473 1.419 . S
C2472 C2470 1.415 . S
C2472 C2477 1.460 . S
C2472 C2479 1.409 . S
C2473 H2465 0.930 . S
C2473 C2471 1.419 . S
C2473 C2474 1.362 . S
C2474 H2466 0.930 . S
C2474 C2473 1.362 . S
C2474 C2477 1.349 1_554 S
C2475 H2467 0.930 . S
C2475 C2476 1.355 . S
C2475 C2477 1.443 . S
C2476 C2475 1.355 . S
C2476 C2478 1.419 . S
C2477 C2472 1.460 . S
C2477 C2474 1.349 1_556 S
C2477 C2475 1.443 . S
C2478 H2468 0.930 . S
C2478 C2476 1.419 . S
C2478 C2479 1.362 . S
C2479 H2469 0.930 . S
C2479 C2472 1.409 . S
C2479 C2478 1.362 . S
H2480 C2486 0.930 . S
H2481 C2489 0.930 . S
H2482 C2490 0.930 . S
H2483 C2491 0.917 1_565 S
H2484 C2494 0.930 . S
H2485 C2495 0.930 . S
C2486 H2480 0.930 . S
C2486 C2487 1.355 . S
C2486 C2488 1.415 . S
C2487 C2486 1.355 . S
C2487 C2489 1.419 . S
C2488 C2486 1.415 . S
C2488 C2493 1.425 . S
C2488 C2495 1.409 1_565 S
C2489 H2481 0.930 . S
C2489 C2487 1.419 . S
C2489 C2490 1.362 . S
C2490 H2482 0.930 . S
C2490 C2489 1.362 . S
C2490 C2493 1.409 . S
C2491 H2483 0.917 1_545 S
C2491 C2492 1.400 . S
C2491 C2493 1.385 1_545 S
C2492 C2491 1.400 . S
C2492 C2494 1.419 . S
C2493 C2488 1.425 . S
C2493 C2490 1.409 . S
C2493 C2491 1.385 1_565 S
C2494 H2484 0.930 . S
C2494 C2492 1.419 . S
C2494 C2495 1.362 . S
C2495 H2485 0.930 . S
C2495 C2488 1.409 1_545 S
C2495 C2494 1.362 . S
H2496 C2502 0.930 . S
H2497 C2505 0.930 . S
H2498 C2506 0.930 . S
H2499 C2507 0.930 . S
H2500 C2510 0.930 . S
H2501 C2511 0.930 . S
C2502 H2496 0.930 . S
C2502 C2503 1.355 . S
C2502 C2504 1.415 . S
C2503 C2502 1.355 . S
C2503 C2505 1.419 . S
C2504 C2502 1.415 . S
C2504 C2509 1.425 . S
C2504 C2511 1.409 . S
C2505 H2497 0.930 . S
C2505 C2503 1.419 . S
C2505 C2506 1.362 . S
C2506 H2498 0.930 . S
C2506 C2505 1.362 . S
C2506 C2509 1.409 . S
C2507 H2499 0.930 . S
C2507 C2508 1.355 . S
C2507 C2509 1.415 . S
C2508 C2507 1.355 . S
C2508 C2510 1.419 . S
C2509 C2504 1.425 . S
C2509 C2506 1.409 . S
C2509 C2507 1.415 . S
C2510 H2500 0.930 . S
C2510 C2508 1.419 . S
C2510 C2511 1.362 . S
C2511 H2501 0.930 . S
C2511 C2504 1.409 . S
C2511 C2510 1.362 . S
H2512 C2518 0.930 . S
H2513 C2521 0.930 . S
H2514 C2522 0.930 . S
H2515 C2523 0.930 . S
H2516 C2526 0.930 . S
H2517 C2527 0.930 . S
C2518 H2512 0.930 . S
C2518 C2519 1.355 . S
C2518 C2520 1.415 . S
C2519 C2518 1.355 . S
C2519 C2521 1.419 . S
C2520 C2518 1.415 . S
C2520 C2525 1.425 . S
C2520 C2527 1.409 . S
C2521 H2513 0.930 . S
C2521 C2519 1.419 . S
C2521 C2522 1.362 . S
C2522 H2514 0.930 . S
C2522 C2521 1.362 . S
C2522 C2525 1.409 . S
C2523 H2515 0.930 . S
C2523 C2524 1.355 . S
C2523 C2525 1.415 . S
C2524 C2523 1.355 . S
C2524 C2526 1.419 . S
C2525 C2520 1.425 . S
C2525 C2522 1.409 . S
C2525 C2523 1.415 . S
C2526 H2516 0.930 . S
C2526 C2524 1.419 . S
C2526 C2527 1.362 . S
C2527 H2517 0.930 . S
C2527 C2520 1.409 . S
C2527 C2526 1.362 . S
H2528 C2534 0.930 . S
H2529 C2537 0.930 . S
H2530 C2538 0.930 . S
H2531 C2539 0.930 . S
H2532 C2542 0.930 . S
H2533 C2543 0.930 . S
C2534 H2528 0.930 . S
C2534 C2535 1.355 . S
C2534 C2536 1.415 . S
C2535 C2534 1.355 . S
C2535 C2537 1.419 . S
C2536 C2534 1.415 . S
C2536 C2541 1.425 . S
C2536 C2543 1.409 . S
C2537 H2529 0.930 . S
C2537 C2535 1.419 . S
C2537 C2538 1.362 . S
C2538 H2530 0.930 . S
C2538 C2537 1.362 . S
C2538 C2541 1.409 . S
C2539 H2531 0.930 . S
C2539 C2540 1.355 . S
C2539 C2541 1.415 . S
C2540 C2539 1.355 . S
C2540 C2542 1.419 . S
C2541 C2536 1.425 . S
C2541 C2538 1.409 . S
C2541 C2539 1.415 . S
C2542 H2532 0.930 . S
C2542 C2540 1.419 . S
C2542 C2543 1.362 . S
C2543 H2533 0.930 . S
C2543 C2536 1.409 . S
C2543 C2542 1.362 . S
H2544 C2550 0.930 . S
H2545 C2553 0.930 . S
H2546 C2554 0.930 . S
H2547 C2555 0.930 . S
H2548 C2558 0.930 . S
H2549 C2559 0.930 . S
C2550 H2544 0.930 . S
C2550 C2551 1.355 1_545 S
C2550 C2552 1.415 . S
C2551 C2550 1.355 1_565 S
C2551 C2553 1.419 . S
C2552 C2550 1.415 . S
C2552 C2557 1.425 . S
C2552 C2559 1.409 . S
C2553 H2545 0.930 . S
C2553 C2551 1.419 . S
C2553 C2554 1.362 . S
C2554 H2546 0.930 . S
C2554 C2553 1.362 . S
C2554 C2557 1.409 1_565 S
C2555 H2547 0.930 . S
C2555 C2556 1.355 . S
C2555 C2557 1.415 . S
C2556 C2555 1.355 . S
C2556 C2558 1.419 . S
C2557 C2552 1.425 . S
C2557 C2554 1.409 1_545 S
C2557 C2555 1.415 . S
C2558 H2548 0.930 . S
C2558 C2556 1.419 . S
C2558 C2559 1.362 . S
C2559 H2549 0.930 . S
C2559 C2552 1.409 . S
C2559 C2558 1.362 . S
H2560 C2566 0.930 . S
H2561 C2569 0.930 . S
H2562 C2570 0.920 1_556 S
H2563 C2571 0.930 . S
H2564 C2574 0.930 . S
H2565 C2575 0.930 . S
C2566 H2560 0.930 . S
C2566 C2567 1.355 . S
C2566 C2568 1.415 . S
C2567 C2566 1.355 . S
C2567 C2569 1.419 . S
C2568 C2566 1.415 . S
C2568 C2573 1.422 . S
C2568 C2575 1.409 . S
C2569 H2561 0.930 . S
C2569 C2567 1.419 . S
C2569 C2570 1.373 . S
C2570 H2562 0.920 1_554 S
C2570 C2569 1.373 . S
C2570 C2573 1.409 . S
C2571 H2563 0.930 . S
C2571 C2572 1.355 . S
C2571 C2573 1.418 1_556 S
C2572 C2571 1.355 . S
C2572 C2574 1.415 . S
C2573 C2568 1.422 . S
C2573 C2570 1.409 . S
C2573 C2571 1.418 1_554 S
C2574 H2564 0.930 . S
C2574 C2572 1.415 . S
C2574 C2575 1.366 1_556 S
C2575 H2565 0.930 . S
C2575 C2568 1.409 . S
C2575 C2574 1.366 1_554 S
H2576 C2582 0.930 . S
H2577 C2585 0.930 . S
H2578 C2586 0.930 . S
H2579 C2587 0.930 . S
H2580 C2590 0.930 . S
H2581 C2591 0.930 . S
C2582 H2576 0.930 . S
C2582 C2583 1.355 . S
C2582 C2584 1.415 . S
C2583 C2582 1.355 . S
C2583 C2585 1.419 . S
C2584 C2582 1.415 . S
C2584 C2589 1.425 . S
C2584 C2591 1.409 . S
C2585 H2577 0.930 . S
C2585 C2583 1.419 . S
C2585 C2586 1.362 . S
C2586 H2578 0.930 . S
C2586 C2585 1.362 . S
C2586 C2589 1.409 . S
C2587 H2579 0.930 . S
C2587 C2588 1.355 . S
C2587 C2589 1.415 . S
C2588 C2587 1.355 . S
C2588 C2590 1.419 . S
C2589 C2584 1.425 . S
C2589 C2586 1.409 . S
C2589 C2587 1.415 . S
C2590 H2580 0.930 . S
C2590 C2588 1.419 . S
C2590 C2591 1.362 . S
C2591 H2581 0.930 . S
C2591 C2584 1.409 . S
C2591 C2590 1.362 . S
H2592 C2598 0.930 . S
H2593 C2601 0.930 . S
H2594 C2602 0.930 . S
H2595 C2603 0.930 . S
H2596 C2606 0.930 . S
H2597 C2607 0.930 . S
C2598 H2592 0.930 . S
C2598 C2599 1.355 . S
C2598 C2600 1.415 . S
C2599 C2598 1.355 . S
C2599 C2601 1.419 . S
C2600 C2598 1.415 . S
C2600 C2605 1.425 . S
C2600 C2607 1.409 1_556 S
C2601 H2593 0.930 . S
C2601 C2599 1.419 . S
C2601 C2602 1.362 . S
C2602 H2594 0.930 . S
C2602 C2601 1.362 . S
C2602 C2605 1.409 . S
C2603 H2595 0.930 . S
C2603 C2604 1.355 . S
C2603 C2605 1.415 1_554 S
C2604 C2603 1.355 . S
C2604 C2606 1.419 . S
C2605 C2600 1.425 . S
C2605 C2602 1.409 . S
C2605 C2603 1.415 1_556 S
C2606 H2596 0.930 . S
C2606 C2604 1.419 . S
C2606 C2607 1.362 . S
C2607 H2597 0.930 . S
C2607 C2600 1.409 1_554 S
C2607 C2606 1.362 . S
H2608 C2614 0.930 . S
H2609 C2617 0.930 . S
H2610 C2618 0.930 . S
H2611 C2619 0.930 . S
H2612 C2622 0.930 . S
H2613 C2623 0.930 . S
C2614 H2608 0.930 . S
C2614 C2615 1.355 . S
C2614 C2616 1.415 . S
C2615 C2614 1.355 . S
C2615 C2617 1.419 . S
C2616 C2614 1.415 . S
C2616 C2621 1.425 . S
C2616 C2623 1.409 . S
C2617 H2609 0.930 . S
C2617 C2615 1.419 . S
C2617 C2618 1.362 . S
C2618 H2610 0.930 . S
C2618 C2617 1.362 . S
C2618 C2621 1.409 . S
C2619 H2611 0.930 . S
C2619 C2620 1.355 . S
C2619 C2621 1.415 . S
C2620 C2619 1.355 . S
C2620 C2622 1.419 . S
C2621 C2616 1.425 . S
C2621 C2618 1.409 . S
C2621 C2619 1.415 . S
C2622 H2612 0.930 . S
C2622 C2620 1.419 . S
C2622 C2623 1.362 . S
C2623 H2613 0.930 . S
C2623 C2616 1.409 . S
C2623 C2622 1.362 . S
H2624 C2630 0.930 . S
H2625 C2633 0.930 . S
H2626 C2634 0.930 . S
H2627 C2635 0.930 . S
H2628 C2638 0.930 . S
H2629 C2639 0.930 . S
C2630 H2624 0.930 . S
C2630 C2631 1.355 . S
C2630 C2632 1.415 . S
C2631 C2630 1.355 . S
C2631 C2633 1.419 . S
C2632 C2630 1.415 . S
C2632 C2637 1.425 . S
C2632 C2639 1.409 . S
C2633 H2625 0.930 . S
C2633 C2631 1.419 . S
C2633 C2634 1.362 . S
C2634 H2626 0.930 . S
C2634 C2633 1.362 . S
C2634 C2637 1.409 . S
C2635 H2627 0.930 . S
C2635 C2636 1.355 . S
C2635 C2637 1.415 . S
C2636 C2635 1.355 . S
C2636 C2638 1.419 . S
C2637 C2632 1.425 . S
C2637 C2634 1.409 . S
C2637 C2635 1.415 . S
C2638 H2628 0.930 . S
C2638 C2636 1.419 . S
C2638 C2639 1.362 . S
C2639 H2629 0.930 . S
C2639 C2632 1.409 . S
C2639 C2638 1.362 . S
H2640 C2646 0.930 . S
H2641 C2649 0.930 . S
H2642 C2650 0.930 . S
H2643 C2651 0.930 . S
H2644 C2654 0.930 . S
H2645 C2655 0.930 . S
C2646 H2640 0.930 . S
C2646 C2647 1.355 . S
C2646 C2648 1.415 . S
C2647 C2646 1.355 . S
C2647 C2649 1.419 . S
C2648 C2646 1.415 . S
C2648 C2653 1.425 . S
C2648 C2655 1.409 . S
C2649 H2641 0.930 . S
C2649 C2647 1.419 . S
C2649 C2650 1.362 . S
C2650 H2642 0.930 . S
C2650 C2649 1.362 . S
C2650 C2653 1.409 . S
C2651 H2643 0.930 . S
C2651 C2652 1.355 . S
C2651 C2653 1.415 . S
C2652 C2651 1.355 . S
C2652 C2654 1.419 . S
C2653 C2648 1.425 . S
C2653 C2650 1.409 . S
C2653 C2651 1.415 . S
C2654 H2644 0.930 . S
C2654 C2652 1.419 . S
C2654 C2655 1.362 . S
C2655 H2645 0.930 . S
C2655 C2648 1.409 . S
C2655 C2654 1.362 . S
H2656 C2662 0.930 . S
H2657 C2665 0.930 . S
H2658 C2666 0.930 . S
H2659 C2667 0.930 . S
H2660 C2670 0.930 . S
H2661 C2671 0.930 . S
C2662 H2656 0.930 . S
C2662 C2663 1.355 . S
C2662 C2664 1.415 . S
C2663 C2662 1.355 . S
C2663 C2665 1.419 . S
C2664 C2662 1.415 . S
C2664 C2669 1.425 1_545 S
C2664 C2671 1.409 . S
C2665 H2657 0.930 . S
C2665 C2663 1.419 . S
C2665 C2666 1.362 1_545 S
C2666 H2658 0.930 . S
C2666 C2665 1.362 1_565 S
C2666 C2669 1.409 . S
C2667 H2659 0.930 . S
C2667 C2668 1.355 . S
C2667 C2669 1.415 . S
C2668 C2667 1.355 . S
C2668 C2670 1.419 1_565 S
C2669 C2664 1.425 1_565 S
C2669 C2666 1.409 . S
C2669 C2667 1.415 . S
C2670 H2660 0.930 . S
C2670 C2668 1.419 1_545 S
C2670 C2671 1.362 . S
C2671 H2661 0.930 . S
C2671 C2664 1.409 . S
C2671 C2670 1.362 . S
H2672 C2678 0.930 . S
H2673 C2681 0.930 . S
H2674 C2682 0.930 . S
H2675 C2683 0.930 . S
H2676 C2686 0.930 . S
H2677 C2687 0.930 . S
C2678 H2672 0.930 . S
C2678 C2679 1.355 . S
C2678 C2680 1.415 . S
C2679 C2678 1.355 . S
C2679 C2681 1.419 . S
C2680 C2678 1.415 . S
C2680 C2685 1.425 . S
C2680 C2687 1.409 . S
C2681 H2673 0.930 . S
C2681 C2679 1.419 . S
C2681 C2682 1.362 . S
C2682 H2674 0.930 . S
C2682 C2681 1.362 . S
C2682 C2685 1.409 . S
C2683 H2675 0.930 . S
C2683 C2684 1.355 . S
C2683 C2685 1.415 . S
C2684 C2683 1.355 . S
C2684 C2686 1.419 . S
C2685 C2680 1.425 . S
C2685 C2682 1.409 . S
C2685 C2683 1.415 . S
C2686 H2676 0.930 . S
C2686 C2684 1.419 . S
C2686 C2687 1.362 . S
C2687 H2677 0.930 . S
C2687 C2680 1.409 . S
C2687 C2686 1.362 . S
H2688 C2694 0.930 . S
H2689 C2697 0.930 . S
H2690 C2698 0.930 . S
H2691 C2699 0.930 . S
H2692 C2702 0.930 . S
H2693 C2703 0.930 . S
C2694 H2688 0.930 . S
C2694 C2695 1.355 . S
C2694 C2696 1.415 . S
C2695 C2694 1.355 . S
C2695 C2697 1.419 . S
C2696 C2694 1.415 . S
C2696 C2701 1.425 . S
C2696 C2703 1.409 . S
C2697 H2689 0.930 . S
C2697 C2695 1.419 . S
C2697 C2698 1.362 . S
C2698 H2690 0.930 . S
C2698 C2697 1.362 . S
C2698 C2701 1.409 . S
C2699 H2691 0.930 . S
C2699 C2700 1.355 . S
C2699 C2701 1.415 . S
C2700 C2699 1.355 . S
C2700 C2702 1.419 . S
C2701 C2696 1.425 . S
C2701 C2698 1.409 . S
C2701 C2699 1.415 . S
C2702 H2692 0.930 . S
C2702 C2700 1.419 . S
C2702 C2703 1.362 . S
C2703 H2693 0.930 . S
C2703 C2696 1.409 . S
C2703 C2702 1.362 . S
H2704 C2710 0.930 . S
H2705 C2713 0.930 . S
H2706 C2714 0.930 . S
H2707 C2715 0.930 . S
H2708 C2718 0.930 . S
H2709 C2719 0.930 . S
C2710 H2704 0.930 . S
C2710 C2711 1.355 . S
C2710 C2712 1.415 . S
C2711 C2710 1.355 . S
C2711 C2713 1.419 . S
C2712 C2710 1.415 . S
C2712 C2717 1.425 . S
C2712 C2719 1.409 . S
C2713 H2705 0.930 . S
C2713 C2711 1.419 . S
C2713 C2714 1.362 . S
C2714 H2706 0.930 . S
C2714 C2713 1.362 . S
C2714 C2717 1.409 . S
C2715 H2707 0.930 . S
C2715 C2716 1.355 . S
C2715 C2717 1.415 . S
C2716 C2715 1.355 . S
C2716 C2718 1.419 . S
C2717 C2712 1.425 . S
C2717 C2714 1.409 . S
C2717 C2715 1.415 . S
C2718 H2708 0.930 . S
C2718 C2716 1.419 . S
C2718 C2719 1.362 . S
C2719 H2709 0.930 . S
C2719 C2712 1.409 . S
C2719 C2718 1.362 . S
H2720 C2726 0.930 . S
H2721 C2729 0.930 . S
H2722 C2730 0.930 . S
H2723 C2731 0.930 . S
H2724 C2734 0.930 . S
H2725 C2735 0.930 . S
C2726 H2720 0.930 . S
C2726 C2727 1.355 . S
C2726 C2728 1.415 . S
C2727 C2726 1.355 . S
C2727 C2729 1.419 . S
C2728 C2726 1.415 . S
C2728 C2733 1.425 . S
C2728 C2735 1.409 . S
C2729 H2721 0.930 . S
C2729 C2727 1.419 . S
C2729 C2730 1.362 . S
C2730 H2722 0.930 . S
C2730 C2729 1.362 . S
C2730 C2733 1.409 . S
C2731 H2723 0.930 . S
C2731 C2732 1.355 . S
C2731 C2733 1.415 . S
C2732 C2731 1.355 . S
C2732 C2734 1.419 . S
C2733 C2728 1.425 . S
C2733 C2730 1.409 . S
C2733 C2731 1.415 . S
C2734 H2724 0.930 . S
C2734 C2732 1.419 . S
C2734 C2735 1.362 . S
C2735 H2725 0.930 . S
C2735 C2728 1.409 . S
C2735 C2734 1.362 . S
H2736 C2742 0.930 . S
H2737 C2745 0.930 . S
H2738 C2746 0.930 . S
H2739 C2747 0.930 . S
H2740 C2750 0.930 . S
H2741 C2751 0.930 . S
C2742 H2736 0.930 . S
C2742 C2743 1.355 . S
C2742 C2744 1.415 . S
C2743 C2742 1.355 . S
C2743 C2745 1.419 . S
C2744 C2742 1.415 . S
C2744 C2749 1.425 . S
C2744 C2751 1.409 . S
C2745 H2737 0.930 . S
C2745 C2743 1.419 . S
C2745 C2746 1.362 . S
C2746 H2738 0.930 . S
C2746 C2745 1.362 . S
C2746 C2749 1.409 . S
C2747 H2739 0.930 . S
C2747 C2748 1.355 . S
C2747 C2749 1.415 . S
C2748 C2747 1.355 . S
C2748 C2750 1.419 . S
C2749 C2744 1.425 . S
C2749 C2746 1.409 . S
C2749 C2747 1.415 . S
C2750 H2740 0.930 . S
C2750 C2748 1.419 . S
C2750 C2751 1.362 . S
C2751 H2741 0.930 . S
C2751 C2744 1.409 . S
C2751 C2750 1.362 . S
H2752 C2758 0.930 . S
H2753 C2761 0.930 . S
H2754 C2762 0.930 . S
H2755 C2763 0.930 . S
H2756 C2766 0.930 . S
H2757 C2767 0.930 . S
C2758 H2752 0.930 . S
C2758 C2759 1.355 . S
C2758 C2760 1.415 1_565 S
C2759 C2758 1.355 . S
C2759 C2761 1.419 . S
C2760 C2758 1.415 1_545 S
C2760 C2765 1.425 . S
C2760 C2767 1.409 . S
C2761 H2753 0.930 . S
C2761 C2759 1.419 . S
C2761 C2762 1.362 1_565 S
C2762 H2754 0.930 . S
C2762 C2761 1.362 1_545 S
C2762 C2765 1.409 . S
C2763 H2755 0.930 . S
C2763 C2764 1.355 . S
C2763 C2765 1.415 . S
C2764 C2763 1.355 . S
C2764 C2766 1.419 . S
C2765 C2760 1.425 . S
C2765 C2762 1.409 . S
C2765 C2763 1.415 . S
C2766 H2756 0.930 . S
C2766 C2764 1.419 . S
C2766 C2767 1.362 . S
C2767 H2757 0.930 . S
C2767 C2760 1.409 . S
C2767 C2766 1.362 . S
H2768 C2774 0.930 . S
H2769 C2777 0.930 . S
H2770 C2778 0.930 . S
H2771 C2779 0.930 . S
H2772 C2782 0.930 . S
H2773 C2783 0.930 . S
C2774 H2768 0.930 . S
C2774 C2775 1.355 . S
C2774 C2776 1.415 . S
C2775 C2774 1.355 . S
C2775 C2777 1.419 . S
C2776 C2774 1.415 . S
C2776 C2781 1.425 . S
C2776 C2783 1.409 . S
C2777 H2769 0.930 . S
C2777 C2775 1.419 . S
C2777 C2778 1.362 . S
C2778 H2770 0.930 . S
C2778 C2777 1.362 . S
C2778 C2781 1.409 . S
C2779 H2771 0.930 . S
C2779 C2780 1.355 . S
C2779 C2781 1.415 . S
C2780 C2779 1.355 . S
C2780 C2782 1.419 . S
C2781 C2776 1.425 . S
C2781 C2778 1.409 . S
C2781 C2779 1.415 . S
C2782 H2772 0.930 . S
C2782 C2780 1.419 . S
C2782 C2783 1.362 . S
C2783 H2773 0.930 . S
C2783 C2776 1.409 . S
C2783 C2782 1.362 . S
H2784 C2790 0.930 . S
H2785 C2793 0.930 . S
H2786 C2794 0.930 . S
H2787 C2795 0.930 . S
H2788 C2798 0.930 . S
H2789 C2799 0.930 . S
C2790 H2784 0.930 . S
C2790 C2791 1.355 . S
C2790 C2792 1.415 . S
C2791 C2790 1.355 . S
C2791 C2793 1.419 . S
C2792 C2790 1.415 . S
C2792 C2797 1.425 . S
C2792 C2799 1.409 . S
C2793 H2785 0.930 . S
C2793 C2791 1.419 . S
C2793 C2794 1.362 . S
C2794 H2786 0.930 . S
C2794 C2793 1.362 . S
C2794 C2797 1.409 . S
C2795 H2787 0.930 . S
C2795 C2796 1.355 . S
C2795 C2797 1.415 . S
C2796 C2795 1.355 . S
C2796 C2798 1.419 . S
C2797 C2792 1.425 . S
C2797 C2794 1.409 . S
C2797 C2795 1.415 . S
C2798 H2788 0.930 . S
C2798 C2796 1.419 . S
C2798 C2799 1.362 . S
C2799 H2789 0.930 . S
C2799 C2792 1.409 . S
C2799 C2798 1.362 . S
H2800 C2806 0.930 . S
H2801 C2809 0.930 . S
H2802 C2810 0.930 . S
H2803 C2811 0.930 . S
H2804 C2814 0.930 . S
H2805 C2815 0.930 . S
C2806 H2800 0.930 . S
C2806 C2807 1.355 . S
C2806 C2808 1.415 . S
C2807 C2806 1.355 . S
C2807 C2809 1.419 . S
C2808 C2806 1.415 . S
C2808 C2813 1.425 . S
C2808 C2815 1.409 . S
C2809 H2801 0.930 . S
C2809 C2807 1.419 . S
C2809 C2810 1.362 . S
C2810 H2802 0.930 . S
C2810 C2809 1.362 . S
C2810 C2813 1.409 . S
C2811 H2803 0.930 . S
C2811 C2812 1.355 . S
C2811 C2813 1.415 . S
C2812 C2811 1.355 . S
C2812 C2814 1.419 . S
C2813 C2808 1.425 . S
C2813 C2810 1.409 . S
C2813 C2811 1.415 . S
C2814 H2804 0.930 . S
C2814 C2812 1.419 . S
C2814 C2815 1.362 . S
C2815 H2805 0.930 . S
C2815 C2808 1.409 . S
C2815 C2814 1.362 . S
H2816 C2822 0.930 . S
H2817 C2825 0.930 . S
H2818 C2826 0.930 . S
H2819 C2827 0.930 . S
H2820 C2830 0.930 . S
H2821 C2831 0.930 . S
C2822 H2816 0.930 . S
C2822 C2823 1.355 . S
C2822 C2824 1.415 . S
C2823 C2822 1.355 . S
C2823 C2825 1.419 . S
C2824 C2822 1.415 . S
C2824 C2829 1.425 . S
C2824 C2831 1.409 . S
C2825 H2817 0.930 . S
C2825 C2823 1.419 . S
C2825 C2826 1.362 . S
C2826 H2818 0.930 . S
C2826 C2825 1.362 . S
C2826 C2829 1.409 . S
C2827 H2819 0.930 . S
C2827 C2828 1.355 . S
C2827 C2829 1.415 . S
C2828 C2827 1.355 . S
C2828 C2830 1.419 . S
C2829 C2824 1.425 . S
C2829 C2826 1.409 . S
C2829 C2827 1.415 . S
C2830 H2820 0.930 . S
C2830 C2828 1.419 . S
C2830 C2831 1.362 . S
C2831 H2821 0.930 . S
C2831 C2824 1.409 . S
C2831 C2830 1.362 . S
H2832 C2838 0.930 . S
H2833 C2841 0.930 . S
H2834 C2842 0.930 . S
H2835 C2843 0.930 . S
H2836 C2846 0.930 . S
H2837 C2847 0.930 . S
C2838 H2832 0.930 . S
C2838 C2839 1.355 . S
C2838 C2840 1.415 . S
C2839 C2838 1.355 . S
C2839 C2841 1.419 . S
C2840 C2838 1.415 . S
C2840 C2845 1.425 . S
C2840 C2847 1.409 . S
C2841 H2833 0.930 . S
C2841 C2839 1.419 . S
C2841 C2842 1.362 . S
C2842 H2834 0.930 . S
C2842 C2841 1.362 . S
C2842 C2845 1.409 . S
C2843 H2835 0.930 . S
C2843 C2844 1.355 . S
C2843 C2845 1.415 . S
C2844 C2843 1.355 . S
C2844 C2846 1.419 . S
C2845 C2840 1.425 . S
C2845 C2842 1.409 . S
C2845 C2843 1.415 . S
C2846 H2836 0.930 . S
C2846 C2844 1.419 . S
C2846 C2847 1.362 . S
C2847 H2837 0.930 . S
C2847 C2840 1.409 . S
C2847 C2846 1.362 . S
H2848 C2854 0.930 . S
H2849 C2857 0.930 . S
H2850 C2858 0.930 . S
H2851 C2859 0.930 . S
H2852 C2862 0.930 . S
H2853 C2863 0.930 . S
C2854 H2848 0.930 . S
C2854 C2855 1.355 . S
C2854 C2856 1.415 . S
C2855 C2854 1.355 . S
C2855 C2857 1.419 . S
C2856 C2854 1.415 . S
C2856 C2861 1.425 . S
C2856 C2863 1.409 . S
C2857 H2849 0.930 . S
C2857 C2855 1.419 . S
C2857 C2858 1.362 . S
C2858 H2850 0.930 . S
C2858 C2857 1.362 . S
C2858 C2861 1.409 . S
C2859 H2851 0.930 . S
C2859 C2860 1.355 . S
C2859 C2861 1.415 . S
C2860 C2859 1.355 . S
C2860 C2862 1.419 . S
C2861 C2856 1.425 . S
C2861 C2858 1.409 . S
C2861 C2859 1.415 . S
C2862 H2852 0.930 . S
C2862 C2860 1.419 . S
C2862 C2863 1.362 . S
C2863 H2853 0.930 . S
C2863 C2856 1.409 . S
C2863 C2862 1.362 . S
H2864 C2870 0.930 . S
H2865 C2873 0.930 . S
H2866 C2874 0.930 . S
H2867 C2875 0.930 . S
H2868 C2878 0.930 . S
H2869 C2879 0.930 . S
C2870 H2864 0.930 . S
C2870 C2871 1.355 . S
C2870 C2872 1.415 . S
C2871 C2870 1.355 . S
C2871 C2873 1.419 . S
C2872 C2870 1.415 . S
C2872 C2877 1.425 . S
C2872 C2879 1.409 . S
C2873 H2865 0.930 . S
C2873 C2871 1.419 . S
C2873 C2874 1.362 . S
C2874 H2866 0.930 . S
C2874 C2873 1.362 . S
C2874 C2877 1.409 . S
C2875 H2867 0.930 . S
C2875 C2876 1.355 . S
C2875 C2877 1.415 . S
C2876 C2875 1.355 . S
C2876 C2878 1.419 . S
C2877 C2872 1.425 . S
C2877 C2874 1.409 . S
C2877 C2875 1.415 . S
C2878 H2868 0.930 . S
C2878 C2876 1.419 . S
C2878 C2879 1.362 . S
C2879 H2869 0.930 . S
C2879 C2872 1.409 . S
C2879 C2878 1.362 . S
H2880 C2886 0.930 . S
H2881 C2889 0.930 . S
H2882 C2890 0.930 . S
H2883 C2891 0.930 . S
H2884 C2894 0.930 . S
H2885 C2895 0.930 . S
C2886 H2880 0.930 . S
C2886 C2887 1.355 . S
C2886 C2888 1.415 . S
C2887 C2886 1.355 . S
C2887 C2889 1.419 . S
C2888 C2886 1.415 . S
C2888 C2893 1.425 . S
C2888 C2895 1.409 . S
C2889 H2881 0.930 . S
C2889 C2887 1.419 . S
C2889 C2890 1.362 . S
C2890 H2882 0.930 . S
C2890 C2889 1.362 . S
C2890 C2893 1.409 . S
C2891 H2883 0.930 . S
C2891 C2892 1.355 . S
C2891 C2893 1.415 . S
C2892 C2891 1.355 . S
C2892 C2894 1.419 . S
C2893 C2888 1.425 . S
C2893 C2890 1.409 . S
C2893 C2891 1.415 . S
C2894 H2884 0.930 . S
C2894 C2892 1.419 . S
C2894 C2895 1.362 . S
C2895 H2885 0.930 . S
C2895 C2888 1.409 . S
C2895 C2894 1.362 . S
H2896 C2902 0.930 . S
H2897 C2905 0.930 . S
H2898 C2906 0.930 . S
H2899 C2907 0.930 . S
H2900 C2910 0.930 . S
H2901 C2911 0.930 . S
C2902 H2896 0.930 . S
C2902 C2903 1.355 . S
C2902 C2904 1.415 . S
C2903 C2902 1.355 . S
C2903 C2905 1.419 . S
C2904 C2902 1.415 . S
C2904 C2909 1.425 . S
C2904 C2911 1.409 . S
C2905 H2897 0.930 . S
C2905 C2903 1.419 . S
C2905 C2906 1.362 . S
C2906 H2898 0.930 . S
C2906 C2905 1.362 . S
C2906 C2909 1.409 . S
C2907 H2899 0.930 . S
C2907 C2908 1.355 . S
C2907 C2909 1.415 . S
C2908 C2907 1.355 . S
C2908 C2910 1.419 . S
C2909 C2904 1.425 . S
C2909 C2906 1.409 . S
C2909 C2907 1.415 . S
C2910 H2900 0.930 . S
C2910 C2908 1.419 . S
C2910 C2911 1.362 . S
C2911 H2901 0.930 . S
C2911 C2904 1.409 . S
C2911 C2910 1.362 . S
H2912 C2918 0.930 . S
H2913 C2921 0.930 . S
H2914 C2922 0.930 . S
H2915 C2923 0.930 . S
H2916 C2926 0.930 . S
H2917 C2927 0.930 . S
C2918 H2912 0.930 . S
C2918 C2919 1.355 . S
C2918 C2920 1.415 . S
C2919 C2918 1.355 . S
C2919 C2921 1.419 . S
C2920 C2918 1.415 . S
C2920 C2925 1.425 . S
C2920 C2927 1.409 . S
C2921 H2913 0.930 . S
C2921 C2919 1.419 . S
C2921 C2922 1.362 . S
C2922 H2914 0.930 . S
C2922 C2921 1.362 . S
C2922 C2925 1.409 . S
C2923 H2915 0.930 . S
C2923 C2924 1.355 . S
C2923 C2925 1.415 . S
C2924 C2923 1.355 . S
C2924 C2926 1.419 . S
C2925 C2920 1.425 . S
C2925 C2922 1.409 . S
C2925 C2923 1.415 . S
C2926 H2916 0.930 . S
C2926 C2924 1.419 . S
C2926 C2927 1.362 . S
C2927 H2917 0.930 . S
C2927 C2920 1.409 . S
C2927 C2926 1.362 . S
H2928 C2934 0.930 . S
H2929 C2937 0.930 . S
H2930 C2938 0.930 . S
H2931 C2939 0.930 . S
H2932 C2942 0.930 . S
H2933 C2943 0.930 . S
C2934 H2928 0.930 . S
C2934 C2935 1.355 . S
C2934 C2936 1.415 . S
C2935 C2934 1.355 . S
C2935 C2937 1.419 . S
C2936 C2934 1.415 . S
C2936 C2941 1.425 . S
C2936 C2943 1.409 . S
C2937 H2929 0.930 . S
C2937 C2935 1.419 . S
C2937 C2938 1.362 . S
C2938 H2930 0.930 . S
C2938 C2937 1.362 . S
C2938 C2941 1.409 . S
C2939 H2931 0.930 . S
C2939 C2940 1.355 . S
C2939 C2941 1.415 . S
C2940 C2939 1.355 . S
C2940 C2942 1.419 . S
C2941 C2936 1.425 . S
C2941 C2938 1.409 . S
C2941 C2939 1.415 . S
C2942 H2932 0.930 . S
C2942 C2940 1.419 . S
C2942 C2943 1.362 . S
C2943 H2933 0.930 . S
C2943 C2936 1.409 . S
C2943 C2942 1.362 . S
H2944 C2950 0.930 . S
H2945 C2953 0.930 . S
H2946 C2954 0.930 . S
H2947 C2955 0.930 . S
H2948 C2958 0.930 . S
H2949 C2959 0.930 . S
C2950 H2944 0.930 . S
C2950 C2951 1.355 . S
C2950 C2952 1.415 . S
C2951 C2950 1.355 . S
C2951 C2953 1.419 . S
C2952 C2950 1.415 . S
C2952 C2957 1.425 . S
C2952 C2959 1.409 . S
C2953 H2945 0.930 . S
C2953 C2951 1.419 . S
C2953 C2954 1.362 . S
C2954 H2946 0.930 . S
C2954 C2953 1.362 . S
C2954 C2957 1.409 . S
C2955 H2947 0.930 . S
C2955 C2956 1.355 . S
C2955 C2957 1.415 . S
C2956 C2955 1.355 . S
C2956 C2958 1.419 . S
C2957 C2952 1.425 . S
C2957 C2954 1.409 . S
C2957 C2955 1.415 . S
C2958 H2948 0.930 . S
C2958 C2956 1.419 . S
C2958 C2959 1.362 . S
C2959 H2949 0.930 . S
C2959 C2952 1.409 . S
C2959 C2958 1.362 . S
H2960 C2966 0.930 . S
H2961 C2969 0.930 . S
H2962 C2970 0.930 . S
H2963 C2971 0.930 . S
H2964 C2974 0.930 . S
H2965 C2975 0.930 . S
C2966 H2960 0.930 . S
C2966 C2967 1.355 . S
C2966 C2968 1.415 . S
C2967 C2966 1.355 . S
C2967 C2969 1.419 . S
C2968 C2966 1.415 . S
C2968 C2973 1.425 . S
C2968 C2975 1.409 . S
C2969 H2961 0.930 . S
C2969 C2967 1.419 . S
C2969 C2970 1.362 . S
C2970 H2962 0.930 . S
C2970 C2969 1.362 . S
C2970 C2973 1.409 . S
C2971 H2963 0.930 . S
C2971 C2972 1.355 . S
C2971 C2973 1.415 . S
C2972 C2971 1.355 . S
C2972 C2974 1.419 . S
C2973 C2968 1.425 . S
C2973 C2970 1.409 . S
C2973 C2971 1.415 . S
C2974 H2964 0.930 . S
C2974 C2972 1.419 . S
C2974 C2975 1.362 . S
C2975 H2965 0.930 . S
C2975 C2968 1.409 . S
C2975 C2974 1.362 . S
H2976 C2982 0.930 . S
H2977 C2985 0.930 . S
H2978 C2986 0.930 . S
H2979 C2987 0.930 . S
H2980 C2990 0.930 . S
H2981 C2991 0.930 . S
C2982 H2976 0.930 . S
C2982 C2983 1.355 . S
C2982 C2984 1.415 . S
C2983 C2982 1.355 . S
C2983 C2985 1.419 . S
C2984 C2982 1.415 . S
C2984 C2989 1.425 . S
C2984 C2991 1.409 . S
C2985 H2977 0.930 . S
C2985 C2983 1.419 . S
C2985 C2986 1.362 . S
C2986 H2978 0.930 . S
C2986 C2985 1.362 . S
C2986 C2989 1.409 . S
C2987 H2979 0.930 . S
C2987 C2988 1.355 . S
C2987 C2989 1.415 . S
C2988 C2987 1.355 . S
C2988 C2990 1.419 . S
C2989 C2984 1.425 . S
C2989 C2986 1.409 . S
C2989 C2987 1.415 . S
C2990 H2980 0.930 . S
C2990 C2988 1.419 . S
C2990 C2991 1.362 . S
C2991 H2981 0.930 . S
C2991 C2984 1.409 . S
C2991 C2990 1.362 . S
H2992 C2998 0.930 . S
H2993 C3001 0.930 . S
H2994 C3002 0.930 . S
H2995 C3003 0.930 . S
H2996 C3006 0.930 . S
H2997 C3007 0.930 . S
C2998 H2992 0.930 . S
C2998 C2999 1.355 . S
C2998 C3000 1.415 . S
C2999 C2998 1.355 . S
C2999 C3001 1.419 . S
C3000 C2998 1.415 . S
C3000 C3005 1.425 . S
C3000 C3007 1.409 . S
C3001 H2993 0.930 . S
C3001 C2999 1.419 . S
C3001 C3002 1.362 . S
C3002 H2994 0.930 . S
C3002 C3001 1.362 . S
C3002 C3005 1.409 . S
C3003 H2995 0.930 . S
C3003 C3004 1.355 . S
C3003 C3005 1.415 . S
C3004 C3003 1.355 . S
C3004 C3006 1.419 . S
C3005 C3000 1.425 . S
C3005 C3002 1.409 . S
C3005 C3003 1.415 . S
C3006 H2996 0.930 . S
C3006 C3004 1.419 . S
C3006 C3007 1.362 . S
C3007 H2997 0.930 . S
C3007 C3000 1.409 . S
C3007 C3006 1.362 . S
H3008 C3014 0.930 . S
H3009 C3017 0.930 . S
H3010 C3018 0.930 . S
H3011 C3019 0.930 . S
H3012 C3022 0.930 . S
H3013 C3023 0.930 . S
C3014 H3008 0.930 . S
C3014 C3015 1.355 . S
C3014 C3016 1.415 . S
C3015 C3014 1.355 . S
C3015 C3017 1.419 . S
C3016 C3014 1.415 . S
C3016 C3021 1.425 . S
C3016 C3023 1.409 . S
C3017 H3009 0.930 . S
C3017 C3015 1.419 . S
C3017 C3018 1.362 . S
C3018 H3010 0.930 . S
C3018 C3017 1.362 . S
C3018 C3021 1.409 . S
C3019 H3011 0.930 . S
C3019 C3020 1.355 . S
C3019 C3021 1.415 . S
C3020 C3019 1.355 . S
C3020 C3022 1.419 . S
C3021 C3016 1.425 . S
C3021 C3018 1.409 . S
C3021 C3019 1.415 . S
C3022 H3012 0.930 . S
C3022 C3020 1.419 . S
C3022 C3023 1.362 . S
C3023 H3013 0.930 . S
C3023 C3016 1.409 . S
C3023 C3022 1.362 . S
H3024 C3030 0.930 . S
H3025 C3033 0.930 . S
H3026 C3034 0.930 . S
H3027 C3035 0.930 . S
H3028 C3038 0.930 . S
H3029 C3039 0.930 . S
C3030 H3024 0.930 . S
C3030 C3031 1.355 . S
C3030 C3032 1.415 . S
C3031 C3030 1.355 . S
C3031 C3033 1.419 . S
C3032 C3030 1.415 . S
C3032 C3037 1.425 . S
C3032 C3039 1.409 . S
C3033 H3025 0.930 . S
C3033 C3031 1.419 . S
C3033 C3034 1.362 . S
C3034 H3026 0.930 . S
C3034 C3033 1.362 . S
C3034 C3037 1.409 . S
C3035 H3027 0.930 . S
C3035 C3036 1.355 . S
C3035 C3037 1.415 . S
C3036 C3035 1.355 . S
C3036 C3038 1.419 . S
C3037 C3032 1.425 . S
C3037 C3034 1.409 . S
C3037 C3035 1.415 . S
C3038 H3028 0.930 . S
C3038 C3036 1.419 . S
C3038 C3039 1.362 . S
C3039 H3029 0.930 . S
C3039 C3032 1.409 . S
C3039 C3038 1.362 . S
H3040 C3046 0.930 . S
H3041 C3049 0.930 . S
H3042 C3050 0.930 . S
H3043 C3051 0.930 . S
H3044 C3054 0.930 . S
H3045 C3055 0.930 . S
C3046 H3040 0.930 . S
C3046 C3047 1.355 . S
C3046 C3048 1.415 . S
C3047 C3046 1.355 . S
C3047 C3049 1.419 . S
C3048 C3046 1.415 . S
C3048 C3053 1.425 . S
C3048 C3055 1.409 . S
C3049 H3041 0.930 . S
C3049 C3047 1.419 . S
C3049 C3050 1.362 . S
C3050 H3042 0.930 . S
C3050 C3049 1.362 . S
C3050 C3053 1.409 . S
C3051 H3043 0.930 . S
C3051 C3052 1.355 . S
C3051 C3053 1.415 . S
C3052 C3051 1.355 . S
C3052 C3054 1.419 . S
C3053 C3048 1.425 . S
C3053 C3050 1.409 . S
C3053 C3051 1.415 . S
C3054 H3044 0.930 . S
C3054 C3052 1.419 . S
C3054 C3055 1.362 . S
C3055 H3045 0.930 . S
C3055 C3048 1.409 . S
C3055 C3054 1.362 . S
H3056 C3062 0.930 . S
H3057 C3065 0.930 . S
H3058 C3066 0.930 . S
H3059 C3067 0.930 . S
H3060 C3070 0.930 . S
H3061 C3071 0.930 . S
C3062 H3056 0.930 . S
C3062 C3063 1.355 . S
C3062 C3064 1.415 . S
C3063 C3062 1.355 . S
C3063 C3065 1.419 . S
C3064 C3062 1.415 . S
C3064 C3069 1.425 . S
C3064 C3071 1.409 . S
C3065 H3057 0.930 . S
C3065 C3063 1.419 . S
C3065 C3066 1.362 . S
C3066 H3058 0.930 . S
C3066 C3065 1.362 . S
C3066 C3069 1.409 . S
C3067 H3059 0.930 . S
C3067 C3068 1.355 . S
C3067 C3069 1.415 . S
C3068 C3067 1.355 . S
C3068 C3070 1.419 . S
C3069 C3064 1.425 . S
C3069 C3066 1.409 . S
C3069 C3067 1.415 . S
C3070 H3060 0.930 . S
C3070 C3068 1.419 . S
C3070 C3071 1.362 . S
C3071 H3061 0.930 . S
C3071 C3064 1.409 . S
C3071 C3070 1.362 . S
H3072 C3078 0.930 . S
H3073 C3081 0.930 . S
H3074 C3082 0.930 . S
H3075 C3083 0.930 . S
H3076 C3086 0.930 . S
H3077 C3087 0.930 . S
C3078 H3072 0.930 . S
C3078 C3079 1.355 . S
C3078 C3080 1.415 . S
C3079 C3078 1.355 . S
C3079 C3081 1.419 . S
C3080 C3078 1.415 . S
C3080 C3085 1.425 . S
C3080 C3087 1.409 . S
C3081 H3073 0.930 . S
C3081 C3079 1.419 . S
C3081 C3082 1.362 . S
C3082 H3074 0.930 . S
C3082 C3081 1.362 . S
C3082 C3085 1.409 . S
C3083 H3075 0.930 . S
C3083 C3084 1.355 . S
C3083 C3085 1.415 . S
C3084 C3083 1.355 . S
C3084 C3086 1.419 . S
C3085 C3080 1.425 . S
C3085 C3082 1.409 . S
C3085 C3083 1.415 . S
C3086 H3076 0.930 . S
C3086 C3084 1.419 . S
C3086 C3087 1.362 . S
C3087 H3077 0.930 . S
C3087 C3080 1.409 . S
C3087 C3086 1.362 . S
H3088 C3094 0.930 . S
H3089 C3097 0.930 . S
H3090 C3098 0.930 . S
H3091 C3099 0.930 . S
H3092 C3102 0.930 . S
H3093 C3103 0.930 . S
C3094 H3088 0.930 . S
C3094 C3095 1.355 . S
C3094 C3096 1.415 . S
C3095 C3094 1.355 . S
C3095 C3097 1.419 . S
C3096 C3094 1.415 . S
C3096 C3101 1.425 . S
C3096 C3103 1.409 . S
C3097 H3089 0.930 . S
C3097 C3095 1.419 . S
C3097 C3098 1.362 . S
C3098 H3090 0.930 . S
C3098 C3097 1.362 . S
C3098 C3101 1.409 . S
C3099 H3091 0.930 . S
C3099 C3100 1.355 . S
C3099 C3101 1.415 . S
C3100 C3099 1.355 . S
C3100 C3102 1.419 . S
C3101 C3096 1.425 . S
C3101 C3098 1.409 . S
C3101 C3099 1.415 . S
C3102 H3092 0.930 . S
C3102 C3100 1.419 . S
C3102 C3103 1.362 . S
C3103 H3093 0.930 . S
C3103 C3096 1.409 . S
C3103 C3102 1.362 . S
H3104 C3110 0.930 . S
H3105 C3113 0.930 . S
H3106 C3114 0.930 . S
H3107 C3115 0.930 . S
H3108 C3118 0.930 . S
H3109 C3119 0.930 . S
C3110 H3104 0.930 . S
C3110 C3111 1.355 . S
C3110 C3112 1.415 . S
C3111 C3110 1.355 . S
C3111 C3113 1.419 . S
C3112 C3110 1.415 . S
C3112 C3117 1.425 . S
C3112 C3119 1.409 . S
C3113 H3105 0.930 . S
C3113 C3111 1.419 . S
C3113 C3114 1.362 . S
C3114 H3106 0.930 . S
C3114 C3113 1.362 . S
C3114 C3117 1.409 . S
C3115 H3107 0.930 . S
C3115 C3116 1.355 . S
C3115 C3117 1.415 . S
C3116 C3115 1.355 . S
C3116 C3118 1.419 . S
C3117 C3112 1.425 . S
C3117 C3114 1.409 . S
C3117 C3115 1.415 . S
C3118 H3108 0.930 . S
C3118 C3116 1.419 . S
C3118 C3119 1.362 . S
C3119 H3109 0.930 . S
C3119 C3112 1.409 . S
C3119 C3118 1.362 . S
H3120 C3126 0.930 . S
H3121 C3129 0.930 . S
H3122 C3130 0.930 . S
H3123 C3131 0.930 . S
H3124 C3134 0.930 . S
H3125 C3135 0.930 . S
C3126 H3120 0.930 . S
C3126 C3127 1.355 . S
C3126 C3128 1.415 . S
C3127 C3126 1.355 . S
C3127 C3129 1.419 . S
C3128 C3126 1.415 . S
C3128 C3133 1.425 . S
C3128 C3135 1.409 . S
C3129 H3121 0.930 . S
C3129 C3127 1.419 . S
C3129 C3130 1.362 . S
C3130 H3122 0.930 . S
C3130 C3129 1.362 . S
C3130 C3133 1.409 . S
C3131 H3123 0.930 . S
C3131 C3132 1.355 . S
C3131 C3133 1.415 . S
C3132 C3131 1.355 . S
C3132 C3134 1.419 . S
C3133 C3128 1.425 . S
C3133 C3130 1.409 . S
C3133 C3131 1.415 . S
C3134 H3124 0.930 . S
C3134 C3132 1.419 . S
C3134 C3135 1.362 . S
C3135 H3125 0.930 . S
C3135 C3128 1.409 . S
C3135 C3134 1.362 . S
H3136 C3142 0.930 . S
H3137 C3145 0.930 . S
H3138 C3146 0.930 . S
H3139 C3147 0.930 . S
H3140 C3150 0.930 . S
H3141 C3151 0.930 . S
C3142 H3136 0.930 . S
C3142 C3143 1.355 . S
C3142 C3144 1.415 . S
C3143 C3142 1.355 . S
C3143 C3145 1.419 . S
C3144 C3142 1.415 . S
C3144 C3149 1.425 . S
C3144 C3151 1.409 . S
C3145 H3137 0.930 . S
C3145 C3143 1.419 . S
C3145 C3146 1.362 . S
C3146 H3138 0.930 . S
C3146 C3145 1.362 . S
C3146 C3149 1.409 . S
C3147 H3139 0.930 . S
C3147 C3148 1.355 . S
C3147 C3149 1.415 . S
C3148 C3147 1.355 . S
C3148 C3150 1.419 . S
C3149 C3144 1.425 . S
C3149 C3146 1.409 . S
C3149 C3147 1.415 . S
C3150 H3140 0.930 . S
C3150 C3148 1.419 . S
C3150 C3151 1.362 . S
C3151 H3141 0.930 . S
C3151 C3144 1.409 . S
C3151 C3150 1.362 . S
H3152 C3158 0.930 . S
H3153 C3161 0.930 . S
H3154 C3162 0.930 . S
H3155 C3163 0.930 . S
H3156 C3166 0.930 . S
H3157 C3167 0.930 . S
C3158 H3152 0.930 . S
C3158 C3159 1.355 . S
C3158 C3160 1.415 . S
C3159 C3158 1.355 . S
C3159 C3161 1.419 . S
C3160 C3158 1.415 . S
C3160 C3165 1.425 . S
C3160 C3167 1.409 . S
C3161 H3153 0.930 . S
C3161 C3159 1.419 . S
C3161 C3162 1.362 . S
C3162 H3154 0.930 . S
C3162 C3161 1.362 . S
C3162 C3165 1.409 . S
C3163 H3155 0.930 . S
C3163 C3164 1.355 . S
C3163 C3165 1.415 . S
C3164 C3163 1.355 . S
C3164 C3166 1.419 . S
C3165 C3160 1.425 . S
C3165 C3162 1.409 . S
C3165 C3163 1.415 . S
C3166 H3156 0.930 . S
C3166 C3164 1.419 . S
C3166 C3167 1.362 . S
C3167 H3157 0.930 . S
C3167 C3160 1.409 . S
C3167 C3166 1.362 . S
H3168 C3174 0.930 . S
H3169 C3177 0.930 . S
H3170 C3178 0.930 . S
H3171 C3179 0.930 . S
H3172 C3182 0.930 . S
H3173 C3183 0.930 . S
C3174 H3168 0.930 . S
C3174 C3175 1.355 . S
C3174 C3176 1.415 . S
C3175 C3174 1.355 . S
C3175 C3177 1.419 . S
C3176 C3174 1.415 . S
C3176 C3181 1.425 . S
C3176 C3183 1.409 . S
C3177 H3169 0.930 . S
C3177 C3175 1.419 . S
C3177 C3178 1.362 . S
C3178 H3170 0.930 . S
C3178 C3177 1.362 . S
C3178 C3181 1.409 . S
C3179 H3171 0.930 . S
C3179 C3180 1.355 . S
C3179 C3181 1.415 . S
C3180 C3179 1.355 . S
C3180 C3182 1.419 . S
C3181 C3176 1.425 . S
C3181 C3178 1.409 . S
C3181 C3179 1.415 . S
C3182 H3172 0.930 . S
C3182 C3180 1.419 . S
C3182 C3183 1.362 . S
C3183 H3173 0.930 . S
C3183 C3176 1.409 . S
C3183 C3182 1.362 . S
H3184 C3190 0.930 . S
H3185 C3193 0.930 . S
H3186 C3194 0.930 . S
H3187 C3195 0.930 . S
H3188 C3198 0.930 . S
H3189 C3199 0.930 . S
C3190 H3184 0.930 . S
C3190 C3191 1.355 . S
C3190 C3192 1.415 . S
C3191 C3190 1.355 . S
C3191 C3193 1.419 . S
C3192 C3190 1.415 . S
C3192 C3197 1.425 . S
C3192 C3199 1.409 . S
C3193 H3185 0.930 . S
C3193 C3191 1.419 . S
C3193 C3194 1.362 . S
C3194 H3186 0.930 . S
C3194 C3193 1.362 . S
C3194 C3197 1.409 . S
C3195 H3187 0.930 . S
C3195 C3196 1.355 . S
C3195 C3197 1.415 . S
C3196 C3195 1.355 . S
C3196 C3198 1.419 . S
C3197 C3192 1.425 . S
C3197 C3194 1.409 . S
C3197 C3195 1.415 . S
C3198 H3188 0.930 . S
C3198 C3196 1.419 . S
C3198 C3199 1.362 . S
C3199 H3189 0.930 . S
C3199 C3192 1.409 . S
C3199 C3198 1.362 . S
H3200 C3206 0.930 . S
H3201 C3209 0.930 . S
H3202 C3210 0.930 . S
H3203 C3211 0.930 . S
H3204 C3214 0.930 . S
H3205 C3215 0.930 . S
C3206 H3200 0.930 . S
C3206 C3207 1.355 . S
C3206 C3208 1.415 . S
C3207 C3206 1.355 . S
C3207 C3209 1.419 . S
C3208 C3206 1.415 . S
C3208 C3213 1.425 . S
C3208 C3215 1.409 . S
C3209 H3201 0.930 . S
C3209 C3207 1.419 . S
C3209 C3210 1.362 . S
C3210 H3202 0.930 . S
C3210 C3209 1.362 . S
C3210 C3213 1.409 . S
C3211 H3203 0.930 . S
C3211 C3212 1.355 . S
C3211 C3213 1.415 . S
C3212 C3211 1.355 . S
C3212 C3214 1.419 . S
C3213 C3208 1.425 . S
C3213 C3210 1.409 . S
C3213 C3211 1.415 . S
C3214 H3204 0.930 . S
C3214 C3212 1.419 . S
C3214 C3215 1.362 . S
C3215 H3205 0.930 . S
C3215 C3208 1.409 . S
C3215 C3214 1.362 . S
H3216 C3222 0.930 . S
H3217 C3225 0.930 . S
H3218 C3226 0.930 . S
H3219 C3227 0.930 . S
H3220 C3230 0.930 . S
H3221 C3231 0.930 . S
C3222 H3216 0.930 . S
C3222 C3223 1.355 . S
C3222 C3224 1.415 . S
C3223 C3222 1.355 . S
C3223 C3225 1.419 . S
C3224 C3222 1.415 . S
C3224 C3229 1.425 . S
C3224 C3231 1.409 . S
C3225 H3217 0.930 . S
C3225 C3223 1.419 . S
C3225 C3226 1.362 . S
C3226 H3218 0.930 . S
C3226 C3225 1.362 . S
C3226 C3229 1.409 . S
C3227 H3219 0.930 . S
C3227 C3228 1.355 . S
C3227 C3229 1.415 . S
C3228 C3227 1.355 . S
C3228 C3230 1.419 . S
C3229 C3224 1.425 . S
C3229 C3226 1.409 . S
C3229 C3227 1.415 . S
C3230 H3220 0.930 . S
C3230 C3228 1.419 . S
C3230 C3231 1.362 . S
C3231 H3221 0.930 . S
C3231 C3224 1.409 . S
C3231 C3230 1.362 . S
H3232 C3238 0.930 . S
H3233 C3241 0.930 . S
H3234 C3242 0.930 . S
H3235 C3243 0.930 . S
H3236 C3246 0.930 . S
H3237 C3247 0.930 . S
C3238 H3232 0.930 . S
C3238 C3239 1.355 . S
C3238 C3240 1.415 . S
C3239 C3238 1.355 . S
C3239 C3241 1.419 . S
C3240 C3238 1.415 . S
C3240 C3245 1.425 . S
C3240 C3247 1.409 . S
C3241 H3233 0.930 . S
C3241 C3239 1.419 . S
C3241 C3242 1.362 . S
C3242 H3234 0.930 . S
C3242 C3241 1.362 . S
C3242 C3245 1.409 . S
C3243 H3235 0.930 . S
C3243 C3244 1.355 . S
C3243 C3245 1.415 . S
C3244 C3243 1.355 . S
C3244 C3246 1.419 . S
C3245 C3240 1.425 . S
C3245 C3242 1.409 . S
C3245 C3243 1.415 . S
C3246 H3236 0.930 . S
C3246 C3244 1.419 . S
C3246 C3247 1.362 . S
C3247 H3237 0.930 . S
C3247 C3240 1.409 . S
C3247 C3246 1.362 . S
H3248 C3254 0.930 . S
H3249 C3257 0.930 . S
H3250 C3258 0.930 . S
H3251 C3259 0.930 . S
H3252 C3262 0.930 . S
H3253 C3263 0.930 . S
C3254 H3248 0.930 . S
C3254 C3255 1.355 . S
C3254 C3256 1.415 . S
C3255 C3254 1.355 . S
C3255 C3257 1.419 . S
C3256 C3254 1.415 . S
C3256 C3261 1.425 . S
C3256 C3263 1.409 . S
C3257 H3249 0.930 . S
C3257 C3255 1.419 . S
C3257 C3258 1.362 . S
C3258 H3250 0.930 . S
C3258 C3257 1.362 . S
C3258 C3261 1.409 . S
C3259 H3251 0.930 . S
C3259 C3260 1.355 . S
C3259 C3261 1.415 . S
C3260 C3259 1.355 . S
C3260 C3262 1.419 . S
C3261 C3256 1.425 . S
C3261 C3258 1.409 . S
C3261 C3259 1.415 . S
C3262 H3252 0.930 . S
C3262 C3260 1.419 . S
C3262 C3263 1.362 . S
C3263 H3253 0.930 . S
C3263 C3256 1.409 . S
C3263 C3262 1.362 . S
H3264 C3270 0.930 . S
H3265 C3273 0.930 . S
H3266 C3274 0.930 . S
H3267 C3275 0.930 . S
H3268 C3278 0.930 . S
H3269 C3279 0.930 . S
C3270 H3264 0.930 . S
C3270 C3271 1.355 . S
C3270 C3272 1.415 . S
C3271 C3270 1.355 . S
C3271 C3273 1.419 . S
C3272 C3270 1.415 . S
C3272 C3277 1.425 . S
C3272 C3279 1.409 . S
C3273 H3265 0.930 . S
C3273 C3271 1.419 . S
C3273 C3274 1.362 . S
C3274 H3266 0.930 . S
C3274 C3273 1.362 . S
C3274 C3277 1.409 . S
C3275 H3267 0.930 . S
C3275 C3276 1.355 . S
C3275 C3277 1.415 . S
C3276 C3275 1.355 . S
C3276 C3278 1.419 . S
C3277 C3272 1.425 . S
C3277 C3274 1.409 . S
C3277 C3275 1.415 . S
C3278 H3268 0.930 . S
C3278 C3276 1.419 . S
C3278 C3279 1.362 . S
C3279 H3269 0.930 . S
C3279 C3272 1.409 . S
C3279 C3278 1.362 . S
H3280 C3286 0.930 . S
H3281 C3289 0.930 . S
H3282 C3290 0.930 . S
H3283 C3291 0.930 . S
H3284 C3294 0.930 . S
H3285 C3295 0.930 . S
C3286 H3280 0.930 . S
C3286 C3287 1.355 . S
C3286 C3288 1.415 . S
C3287 C3286 1.355 . S
C3287 C3289 1.419 . S
C3288 C3286 1.415 . S
C3288 C3293 1.425 . S
C3288 C3295 1.409 . S
C3289 H3281 0.930 . S
C3289 C3287 1.419 . S
C3289 C3290 1.362 . S
C3290 H3282 0.930 . S
C3290 C3289 1.362 . S
C3290 C3293 1.409 . S
C3291 H3283 0.930 . S
C3291 C3292 1.355 . S
C3291 C3293 1.415 . S
C3292 C3291 1.355 . S
C3292 C3294 1.419 . S
C3293 C3288 1.425 . S
C3293 C3290 1.409 . S
C3293 C3291 1.415 . S
C3294 H3284 0.930 . S
C3294 C3292 1.419 . S
C3294 C3295 1.362 . S
C3295 H3285 0.930 . S
C3295 C3288 1.409 . S
C3295 C3294 1.362 . S
H3296 C3302 0.930 . S
H3297 C3305 0.930 . S
H3298 C3306 0.930 . S
H3299 C3307 0.930 . S
H3300 C3310 0.930 . S
H3301 C3311 0.930 . S
C3302 H3296 0.930 . S
C3302 C3303 1.355 . S
C3302 C3304 1.415 . S
C3303 C3302 1.355 . S
C3303 C3305 1.419 . S
C3304 C3302 1.415 . S
C3304 C3309 1.425 . S
C3304 C3311 1.409 . S
C3305 H3297 0.930 . S
C3305 C3303 1.419 . S
C3305 C3306 1.362 . S
C3306 H3298 0.930 . S
C3306 C3305 1.362 . S
C3306 C3309 1.409 . S
C3307 H3299 0.930 . S
C3307 C3308 1.355 . S
C3307 C3309 1.415 . S
C3308 C3307 1.355 . S
C3308 C3310 1.419 . S
C3309 C3304 1.425 . S
C3309 C3306 1.409 . S
C3309 C3307 1.415 . S
C3310 H3300 0.930 . S
C3310 C3308 1.419 . S
C3310 C3311 1.362 . S
C3311 H3301 0.930 . S
C3311 C3304 1.409 . S
C3311 C3310 1.362 . S
H3312 C3318 0.930 . S
H3313 C3321 0.930 . S
H3314 C3322 0.930 . S
H3315 C3323 0.930 . S
H3316 C3326 0.930 . S
H3317 C3327 0.930 . S
C3318 H3312 0.930 . S
C3318 C3319 1.355 . S
C3318 C3320 1.415 . S
C3319 C3318 1.355 . S
C3319 C3321 1.419 . S
C3320 C3318 1.415 . S
C3320 C3325 1.425 . S
C3320 C3327 1.409 . S
C3321 H3313 0.930 . S
C3321 C3319 1.419 . S
C3321 C3322 1.362 . S
C3322 H3314 0.930 . S
C3322 C3321 1.362 . S
C3322 C3325 1.409 . S
C3323 H3315 0.930 . S
C3323 C3324 1.355 . S
C3323 C3325 1.415 . S
C3324 C3323 1.355 . S
C3324 C3326 1.419 . S
C3325 C3320 1.425 . S
C3325 C3322 1.409 . S
C3325 C3323 1.415 . S
C3326 H3316 0.930 . S
C3326 C3324 1.419 . S
C3326 C3327 1.362 . S
C3327 H3317 0.930 . S
C3327 C3320 1.409 . S
C3327 C3326 1.362 . S
H3328 C3334 0.930 . S
H3329 C3337 0.930 . S
H3330 C3338 0.930 . S
H3331 C3339 0.930 . S
H3332 C3342 0.930 . S
H3333 C3343 0.930 . S
C3334 H3328 0.930 . S
C3334 C3335 1.355 . S
C3334 C3336 1.415 . S
C3335 C3334 1.355 . S
C3335 C3337 1.419 . S
C3336 C3334 1.415 . S
C3336 C3341 1.425 . S
C3336 C3343 1.409 . S
C3337 H3329 0.930 . S
C3337 C3335 1.419 . S
C3337 C3338 1.362 . S
C3338 H3330 0.930 . S
C3338 C3337 1.362 . S
C3338 C3341 1.409 . S
C3339 H3331 0.930 . S
C3339 C3340 1.355 . S
C3339 C3341 1.415 . S
C3340 C3339 1.355 . S
C3340 C3342 1.419 . S
C3341 C3336 1.425 . S
C3341 C3338 1.409 . S
C3341 C3339 1.415 . S
C3342 H3332 0.930 . S
C3342 C3340 1.419 . S
C3342 C3343 1.362 . S
C3343 H3333 0.930 . S
C3343 C3336 1.409 . S
C3343 C3342 1.362 . S
H3344 C3350 0.930 . S
H3345 C3353 0.930 . S
H3346 C3354 0.930 . S
H3347 C3355 0.930 . S
H3348 C3358 0.930 . S
H3349 C3359 0.930 . S
C3350 H3344 0.930 . S
C3350 C3351 1.355 . S
C3350 C3352 1.415 . S
C3351 C3350 1.355 . S
C3351 C3353 1.419 . S
C3352 C3350 1.415 . S
C3352 C3357 1.425 . S
C3352 C3359 1.409 . S
C3353 H3345 0.930 . S
C3353 C3351 1.419 . S
C3353 C3354 1.362 . S
C3354 H3346 0.930 . S
C3354 C3353 1.362 . S
C3354 C3357 1.409 . S
C3355 H3347 0.930 . S
C3355 C3356 1.355 . S
C3355 C3357 1.415 . S
C3356 C3355 1.355 . S
C3356 C3358 1.419 . S
C3357 C3352 1.425 . S
C3357 C3354 1.409 . S
C3357 C3355 1.415 . S
C3358 H3348 0.930 . S
C3358 C3356 1.419 . S
C3358 C3359 1.362 . S
C3359 H3349 0.930 . S
C3359 C3352 1.409 . S
C3359 C3358 1.362 . S
H3360 C3366 0.930 . S
H3361 C3369 0.930 . S
H3362 C3370 0.930 . S
H3363 C3371 0.930 . S
H3364 C3374 0.930 . S
H3365 C3375 0.930 . S
C3366 H3360 0.930 . S
C3366 C3367 1.355 . S
C3366 C3368 1.415 . S
C3367 C3366 1.355 . S
C3367 C3369 1.419 . S
C3368 C3366 1.415 . S
C3368 C3373 1.425 . S
C3368 C3375 1.409 . S
C3369 H3361 0.930 . S
C3369 C3367 1.419 . S
C3369 C3370 1.362 . S
C3370 H3362 0.930 . S
C3370 C3369 1.362 . S
C3370 C3373 1.409 . S
C3371 H3363 0.930 . S
C3371 C3372 1.355 . S
C3371 C3373 1.415 . S
C3372 C3371 1.355 . S
C3372 C3374 1.419 . S
C3373 C3368 1.425 . S
C3373 C3370 1.409 . S
C3373 C3371 1.415 . S
C3374 H3364 0.930 . S
C3374 C3372 1.419 . S
C3374 C3375 1.362 . S
C3375 H3365 0.930 . S
C3375 C3368 1.409 . S
C3375 C3374 1.362 . S
H3376 C3382 0.930 . S
H3377 C3385 0.930 . S
H3378 C3386 0.930 . S
H3379 C3387 0.930 . S
H3380 C3390 0.930 . S
H3381 C3391 0.930 . S
C3382 H3376 0.930 . S
C3382 C3383 1.355 . S
C3382 C3384 1.415 . S
C3383 C3382 1.355 . S
C3383 C3385 1.419 . S
C3384 C3382 1.415 . S
C3384 C3389 1.425 . S
C3384 C3391 1.409 . S
C3385 H3377 0.930 . S
C3385 C3383 1.419 . S
C3385 C3386 1.362 . S
C3386 H3378 0.930 . S
C3386 C3385 1.362 . S
C3386 C3389 1.409 . S
C3387 H3379 0.930 . S
C3387 C3388 1.355 . S
C3387 C3389 1.415 . S
C3388 C3387 1.355 . S
C3388 C3390 1.419 . S
C3389 C3384 1.425 . S
C3389 C3386 1.409 . S
C3389 C3387 1.415 . S
C3390 H3380 0.930 . S
C3390 C3388 1.419 . S
C3390 C3391 1.362 . S
C3391 H3381 0.930 . S
C3391 C3384 1.409 . S
C3391 C3390 1.362 . S
H3392 C3398 0.930 . S
H3393 C3401 0.930 . S
H3394 C3402 0.930 . S
H3395 C3403 0.930 . S
H3396 C3406 0.930 . S
H3397 C3407 0.930 . S
C3398 H3392 0.930 . S
C3398 C3399 1.355 . S
C3398 C3400 1.415 . S
C3399 C3398 1.355 . S
C3399 C3401 1.419 . S
C3400 C3398 1.415 . S
C3400 C3405 1.425 . S
C3400 C3407 1.409 . S
C3401 H3393 0.930 . S
C3401 C3399 1.419 . S
C3401 C3402 1.362 . S
C3402 H3394 0.930 . S
C3402 C3401 1.362 . S
C3402 C3405 1.409 . S
C3403 H3395 0.930 . S
C3403 C3404 1.355 . S
C3403 C3405 1.415 . S
C3404 C3403 1.355 . S
C3404 C3406 1.419 . S
C3405 C3400 1.425 . S
C3405 C3402 1.409 . S
C3405 C3403 1.415 . S
C3406 H3396 0.930 . S
C3406 C3404 1.419 . S
C3406 C3407 1.362 . S
C3407 H3397 0.930 . S
C3407 C3400 1.409 . S
C3407 C3406 1.362 . S
H3408 C3414 0.930 . S
H3409 C3417 0.930 . S
H3410 C3418 0.930 . S
H3411 C3419 0.930 . S
H3412 C3422 0.930 . S
H3413 C3423 0.930 . S
C3414 H3408 0.930 . S
C3414 C3415 1.355 . S
C3414 C3416 1.415 . S
C3415 C3414 1.355 . S
C3415 C3417 1.419 . S
C3416 C3414 1.415 . S
C3416 C3421 1.425 . S
C3416 C3423 1.409 . S
C3417 H3409 0.930 . S
C3417 C3415 1.419 . S
C3417 C3418 1.362 . S
C3418 H3410 0.930 . S
C3418 C3417 1.362 . S
C3418 C3421 1.409 . S
C3419 H3411 0.930 . S
C3419 C3420 1.355 . S
C3419 C3421 1.415 . S
C3420 C3419 1.355 . S
C3420 C3422 1.419 . S
C3421 C3416 1.425 . S
C3421 C3418 1.409 . S
C3421 C3419 1.415 . S
C3422 H3412 0.930 . S
C3422 C3420 1.419 . S
C3422 C3423 1.362 . S
C3423 H3413 0.930 . S
C3423 C3416 1.409 . S
C3423 C3422 1.362 . S
H3424 C3430 0.930 . S
H3425 C3433 0.930 . S
H3426 C3434 0.930 . S
H3427 C3435 0.930 . S
H3428 C3438 0.930 . S
H3429 C3439 0.930 . S
C3430 H3424 0.930 . S
C3430 C3431 1.355 . S
C3430 C3432 1.415 . S
C3431 C3430 1.355 . S
C3431 C3433 1.419 . S
C3432 C3430 1.415 . S
C3432 C3437 1.425 . S
C3432 C3439 1.409 . S
C3433 H3425 0.930 . S
C3433 C3431 1.419 . S
C3433 C3434 1.362 . S
C3434 H3426 0.930 . S
C3434 C3433 1.362 . S
C3434 C3437 1.409 . S
C3435 H3427 0.930 . S
C3435 C3436 1.355 . S
C3435 C3437 1.415 . S
C3436 C3435 1.355 . S
C3436 C3438 1.419 . S
C3437 C3432 1.425 . S
C3437 C3434 1.409 . S
C3437 C3435 1.415 . S
C3438 H3428 0.930 . S
C3438 C3436 1.419 . S
C3438 C3439 1.362 . S
C3439 H3429 0.930 . S
C3439 C3432 1.409 . S
C3439 C3438 1.362 . S
H3440 C3446 0.930 . S
H3441 C3449 0.930 . S
H3442 C3450 0.930 . S
H3443 C3451 0.930 . S
H3444 C3454 0.930 . S
H3445 C3455 0.930 . S
C3446 H3440 0.930 . S
C3446 C3447 1.355 . S
C3446 C3448 1.415 . S
C3447 C3446 1.355 . S
C3447 C3449 1.419 . S
C3448 C3446 1.415 . S
C3448 C3453 1.425 . S
C3448 C3455 1.409 . S
C3449 H3441 0.930 . S
C3449 C3447 1.419 . S
C3449 C3450 1.362 . S
C3450 H3442 0.930 . S
C3450 C3449 1.362 . S
C3450 C3453 1.409 . S
C3451 H3443 0.930 . S
C3451 C3452 1.355 . S
C3451 C3453 1.415 . S
C3452 C3451 1.355 . S
C3452 C3454 1.419 . S
C3453 C3448 1.425 . S
C3453 C3450 1.409 . S
C3453 C3451 1.415 . S
C3454 H3444 0.930 . S
C3454 C3452 1.419 . S
C3454 C3455 1.362 . S
C3455 H3445 0.930 . S
C3455 C3448 1.409 . S
C3455 C3454 1.362 . S
H3456 C3462 0.930 . S
H3457 C3465 0.930 . S
H3458 C3466 0.930 . S
H3459 C3467 0.930 . S
H3460 C3470 0.930 . S
H3461 C3471 0.930 . S
C3462 H3456 0.930 . S
C3462 C3463 1.355 . S
C3462 C3464 1.415 . S
C3463 C3462 1.355 . S
C3463 C3465 1.419 . S
C3464 C3462 1.415 . S
C3464 C3469 1.425 . S
C3464 C3471 1.409 . S
C3465 H3457 0.930 . S
C3465 C3463 1.419 . S
C3465 C3466 1.362 . S
C3466 H3458 0.930 . S
C3466 C3465 1.362 . S
C3466 C3469 1.409 . S
C3467 H3459 0.930 . S
C3467 C3468 1.355 . S
C3467 C3469 1.415 . S
C3468 C3467 1.355 . S
C3468 C3470 1.419 . S
C3469 C3464 1.425 . S
C3469 C3466 1.409 . S
C3469 C3467 1.415 . S
C3470 H3460 0.930 . S
C3470 C3468 1.419 . S
C3470 C3471 1.362 . S
C3471 H3461 0.930 . S
C3471 C3464 1.409 . S
C3471 C3470 1.362 . S
H3472 C3478 0.930 . S
H3473 C3481 0.930 . S
H3474 C3482 0.930 . S
H3475 C3483 0.930 . S
H3476 C3486 0.930 . S
H3477 C3487 0.930 . S
C3478 H3472 0.930 . S
C3478 C3479 1.355 . S
C3478 C3480 1.415 . S
C3479 C3478 1.355 . S
C3479 C3481 1.419 . S
C3480 C3478 1.415 . S
C3480 C3485 1.425 . S
C3480 C3487 1.409 . S
C3481 H3473 0.930 . S
C3481 C3479 1.419 . S
C3481 C3482 1.362 . S
C3482 H3474 0.930 . S
C3482 C3481 1.362 . S
C3482 C3485 1.409 . S
C3483 H3475 0.930 . S
C3483 C3484 1.355 . S
C3483 C3485 1.415 . S
C3484 C3483 1.355 . S
C3484 C3486 1.419 . S
C3485 C3480 1.425 . S
C3485 C3482 1.409 . S
C3485 C3483 1.415 . S
C3486 H3476 0.930 . S
C3486 C3484 1.419 . S
C3486 C3487 1.362 . S
C3487 H3477 0.930 . S
C3487 C3480 1.409 . S
C3487 C3486 1.362 . S
H3488 C3494 0.930 . S
H3489 C3497 0.930 . S
H3490 C3498 0.930 . S
H3491 C3499 0.930 . S
H3492 C3502 0.930 . S
H3493 C3503 0.930 . S
C3494 H3488 0.930 . S
C3494 C3495 1.355 . S
C3494 C3496 1.415 . S
C3495 C3494 1.355 . S
C3495 C3497 1.419 . S
C3496 C3494 1.415 . S
C3496 C3501 1.425 . S
C3496 C3503 1.409 . S
C3497 H3489 0.930 . S
C3497 C3495 1.419 . S
C3497 C3498 1.362 . S
C3498 H3490 0.930 . S
C3498 C3497 1.362 . S
C3498 C3501 1.409 . S
C3499 H3491 0.930 . S
C3499 C3500 1.355 . S
C3499 C3501 1.415 . S
C3500 C3499 1.355 . S
C3500 C3502 1.419 . S
C3501 C3496 1.425 . S
C3501 C3498 1.409 . S
C3501 C3499 1.415 . S
C3502 H3492 0.930 . S
C3502 C3500 1.419 . S
C3502 C3503 1.362 . S
C3503 H3493 0.930 . S
C3503 C3496 1.409 . S
C3503 C3502 1.362 . S
H3504 C3510 0.930 . S
H3505 C3513 0.930 . S
H3506 C3514 0.930 . S
H3507 C3515 0.930 . S
H3508 C3518 0.930 . S
H3509 C3519 0.930 . S
C3510 H3504 0.930 . S
C3510 C3511 1.355 . S
C3510 C3512 1.415 . S
C3511 C3510 1.355 . S
C3511 C3513 1.419 . S
C3512 C3510 1.415 . S
C3512 C3517 1.425 . S
C3512 C3519 1.409 . S
C3513 H3505 0.930 . S
C3513 C3511 1.419 . S
C3513 C3514 1.362 . S
C3514 H3506 0.930 . S
C3514 C3513 1.362 . S
C3514 C3517 1.409 . S
C3515 H3507 0.930 . S
C3515 C3516 1.355 . S
C3515 C3517 1.415 . S
C3516 C3515 1.355 . S
C3516 C3518 1.419 . S
C3517 C3512 1.425 . S
C3517 C3514 1.409 . S
C3517 C3515 1.415 . S
C3518 H3508 0.930 . S
C3518 C3516 1.419 . S
C3518 C3519 1.362 . S
C3519 H3509 0.930 . S
C3519 C3512 1.409 . S
C3519 C3518 1.362 . S
H3520 C3526 0.930 . S
H3521 C3529 0.930 . S
H3522 C3530 0.930 . S
H3523 C3531 0.930 . S
H3524 C3534 0.930 . S
H3525 C3535 0.930 . S
C3526 H3520 0.930 . S
C3526 C3527 1.355 . S
C3526 C3528 1.415 . S
C3527 C3526 1.355 . S
C3527 C3529 1.419 . S
C3528 C3526 1.415 . S
C3528 C3533 1.425 . S
C3528 C3535 1.409 . S
C3529 H3521 0.930 . S
C3529 C3527 1.419 . S
C3529 C3530 1.362 . S
C3530 H3522 0.930 . S
C3530 C3529 1.362 . S
C3530 C3533 1.409 . S
C3531 H3523 0.930 . S
C3531 C3532 1.355 . S
C3531 C3533 1.415 . S
C3532 C3531 1.355 . S
C3532 C3534 1.419 . S
C3533 C3528 1.425 . S
C3533 C3530 1.409 . S
C3533 C3531 1.415 . S
C3534 H3524 0.930 . S
C3534 C3532 1.419 . S
C3534 C3535 1.362 . S
C3535 H3525 0.930 . S
C3535 C3528 1.409 . S
C3535 C3534 1.362 . S
H3536 C3542 0.930 . S
H3537 C3545 0.930 . S
H3538 C3546 0.930 . S
H3539 C3547 0.930 . S
H3540 C3550 0.930 . S
H3541 C3551 0.930 . S
C3542 H3536 0.930 . S
C3542 C3543 1.355 . S
C3542 C3544 1.415 . S
C3543 C3542 1.355 . S
C3543 C3545 1.419 . S
C3544 C3542 1.415 . S
C3544 C3549 1.425 . S
C3544 C3551 1.409 . S
C3545 H3537 0.930 . S
C3545 C3543 1.419 . S
C3545 C3546 1.362 . S
C3546 H3538 0.930 . S
C3546 C3545 1.362 . S
C3546 C3549 1.409 . S
C3547 H3539 0.930 . S
C3547 C3548 1.355 . S
C3547 C3549 1.415 . S
C3548 C3547 1.355 . S
C3548 C3550 1.419 . S
C3549 C3544 1.425 . S
C3549 C3546 1.409 . S
C3549 C3547 1.415 . S
C3550 H3540 0.930 . S
C3550 C3548 1.419 . S
C3550 C3551 1.362 . S
C3551 H3541 0.930 . S
C3551 C3544 1.409 . S
C3551 C3550 1.362 . S
H3552 C3558 0.930 . S
H3553 C3561 0.930 . S
H3554 C3562 0.930 . S
H3555 C3563 0.930 . S
H3556 C3566 0.930 . S
H3557 C3567 0.930 . S
C3558 H3552 0.930 . S
C3558 C3559 1.355 . S
C3558 C3560 1.415 . S
C3559 C3558 1.355 . S
C3559 C3561 1.419 . S
C3560 C3558 1.415 . S
C3560 C3565 1.425 . S
C3560 C3567 1.409 . S
C3561 H3553 0.930 . S
C3561 C3559 1.419 . S
C3561 C3562 1.362 . S
C3562 H3554 0.930 . S
C3562 C3561 1.362 . S
C3562 C3565 1.409 . S
C3563 H3555 0.930 . S
C3563 C3564 1.355 . S
C3563 C3565 1.415 . S
C3564 C3563 1.355 . S
C3564 C3566 1.419 . S
C3565 C3560 1.425 . S
C3565 C3562 1.409 . S
C3565 C3563 1.415 . S
C3566 H3556 0.930 . S
C3566 C3564 1.419 . S
C3566 C3567 1.362 . S
C3567 H3557 0.930 . S
C3567 C3560 1.409 . S
C3567 C3566 1.362 . S
H3568 C3574 0.930 . S
H3569 C3577 0.930 . S
H3570 C3578 0.930 . S
H3571 C3579 0.930 . S
H3572 C3582 0.930 . S
H3573 C3583 0.930 . S
C3574 H3568 0.930 . S
C3574 C3575 1.355 . S
C3574 C3576 1.415 . S
C3575 C3574 1.355 . S
C3575 C3577 1.419 . S
C3576 C3574 1.415 . S
C3576 C3581 1.425 . S
C3576 C3583 1.409 . S
C3577 H3569 0.930 . S
C3577 C3575 1.419 . S
C3577 C3578 1.362 . S
C3578 H3570 0.930 . S
C3578 C3577 1.362 . S
C3578 C3581 1.409 . S
C3579 H3571 0.930 . S
C3579 C3580 1.355 . S
C3579 C3581 1.415 . S
C3580 C3579 1.355 . S
C3580 C3582 1.419 . S
C3581 C3576 1.425 . S
C3581 C3578 1.409 . S
C3581 C3579 1.415 . S
C3582 H3572 0.930 . S
C3582 C3580 1.419 . S
C3582 C3583 1.362 . S
C3583 H3573 0.930 . S
C3583 C3576 1.409 . S
C3583 C3582 1.362 . S
H3584 C3590 0.930 . S
H3585 C3593 0.930 . S
H3586 C3594 0.930 . S
H3587 C3595 0.930 . S
H3588 C3598 0.930 . S
H3589 C3599 0.930 . S
C3590 H3584 0.930 . S
C3590 C3591 1.355 . S
C3590 C3592 1.415 . S
C3591 C3590 1.355 . S
C3591 C3593 1.419 . S
C3592 C3590 1.415 . S
C3592 C3597 1.425 . S
C3592 C3599 1.409 . S
C3593 H3585 0.930 . S
C3593 C3591 1.419 . S
C3593 C3594 1.362 . S
C3594 H3586 0.930 . S
C3594 C3593 1.362 . S
C3594 C3597 1.409 . S
C3595 H3587 0.930 . S
C3595 C3596 1.355 . S
C3595 C3597 1.415 . S
C3596 C3595 1.355 . S
C3596 C3598 1.419 . S
C3597 C3592 1.425 . S
C3597 C3594 1.409 . S
C3597 C3595 1.415 . S
C3598 H3588 0.930 . S
C3598 C3596 1.419 . S
C3598 C3599 1.362 . S
C3599 H3589 0.930 . S
C3599 C3592 1.409 . S
C3599 C3598 1.362 . S
H3600 C3606 0.930 . S
H3601 C3609 0.930 . S
H3602 C3610 0.930 . S
H3603 C3611 0.930 . S
H3604 C3614 0.930 . S
H3605 C3615 0.930 . S
C3606 H3600 0.930 . S
C3606 C3607 1.355 . S
C3606 C3608 1.415 . S
C3607 C3606 1.355 . S
C3607 C3609 1.419 . S
C3608 C3606 1.415 . S
C3608 C3613 1.425 . S
C3608 C3615 1.409 . S
C3609 H3601 0.930 . S
C3609 C3607 1.419 . S
C3609 C3610 1.362 . S
C3610 H3602 0.930 . S
C3610 C3609 1.362 . S
C3610 C3613 1.409 . S
C3611 H3603 0.930 . S
C3611 C3612 1.355 . S
C3611 C3613 1.415 . S
C3612 C3611 1.355 . S
C3612 C3614 1.419 . S
C3613 C3608 1.425 . S
C3613 C3610 1.409 . S
C3613 C3611 1.415 . S
C3614 H3604 0.930 . S
C3614 C3612 1.419 . S
C3614 C3615 1.362 . S
C3615 H3605 0.930 . S
C3615 C3608 1.409 . S
C3615 C3614 1.362 . S
H3616 C3622 0.930 . S
H3617 C3625 0.930 . S
H3618 C3626 0.930 . S
H3619 C3627 0.930 . S
H3620 C3630 0.930 . S
H3621 C3631 0.930 . S
C3622 H3616 0.930 . S
C3622 C3623 1.355 . S
C3622 C3624 1.415 . S
C3623 C3622 1.355 . S
C3623 C3625 1.419 . S
C3624 C3622 1.415 . S
C3624 C3629 1.425 . S
C3624 C3631 1.409 . S
C3625 H3617 0.930 . S
C3625 C3623 1.419 . S
C3625 C3626 1.362 . S
C3626 H3618 0.930 . S
C3626 C3625 1.362 . S
C3626 C3629 1.409 . S
C3627 H3619 0.930 . S
C3627 C3628 1.355 . S
C3627 C3629 1.415 . S
C3628 C3627 1.355 . S
C3628 C3630 1.419 . S
C3629 C3624 1.425 . S
C3629 C3626 1.409 . S
C3629 C3627 1.415 . S
C3630 H3620 0.930 . S
C3630 C3628 1.419 . S
C3630 C3631 1.362 . S
C3631 H3621 0.930 . S
C3631 C3624 1.409 . S
C3631 C3630 1.362 . S
H3632 C3638 0.930 . S
H3633 C3641 0.930 . S
H3634 C3642 0.930 . S
H3635 C3643 0.930 . S
H3636 C3646 0.930 . S
H3637 C3647 0.930 . S
C3638 H3632 0.930 . S
C3638 C3639 1.355 . S
C3638 C3640 1.415 . S
C3639 C3638 1.355 . S
C3639 C3641 1.419 . S
C3640 C3638 1.415 . S
C3640 C3645 1.425 . S
C3640 C3647 1.409 . S
C3641 H3633 0.930 . S
C3641 C3639 1.419 . S
C3641 C3642 1.362 . S
C3642 H3634 0.930 . S
C3642 C3641 1.362 . S
C3642 C3645 1.409 . S
C3643 H3635 0.930 . S
C3643 C3644 1.355 . S
C3643 C3645 1.415 . S
C3644 C3643 1.355 . S
C3644 C3646 1.419 . S
C3645 C3640 1.425 . S
C3645 C3642 1.409 . S
C3645 C3643 1.415 . S
C3646 H3636 0.930 . S
C3646 C3644 1.419 . S
C3646 C3647 1.362 . S
C3647 H3637 0.930 . S
C3647 C3640 1.409 . S
C3647 C3646 1.362 . S
H3648 C3654 0.930 . S
H3649 C3657 0.930 . S
H3650 C3658 0.930 . S
H3651 C3659 0.930 . S
H3652 C3662 0.930 . S
H3653 C3663 0.930 . S
C3654 H3648 0.930 . S
C3654 C3655 1.355 . S
C3654 C3656 1.415 . S
C3655 C3654 1.355 . S
C3655 C3657 1.419 . S
C3656 C3654 1.415 . S
C3656 C3661 1.425 . S
C3656 C3663 1.409 . S
C3657 H3649 0.930 . S
C3657 C3655 1.419 . S
C3657 C3658 1.362 . S
C3658 H3650 0.930 . S
C3658 C3657 1.362 . S
C3658 C3661 1.409 . S
C3659 H3651 0.930 . S
C3659 C3660 1.355 . S
C3659 C3661 1.415 . S
C3660 C3659 1.355 . S
C3660 C3662 1.419 . S
C3661 C3656 1.425 . S
C3661 C3658 1.409 . S
C3661 C3659 1.415 . S
C3662 H3652 0.930 . S
C3662 C3660 1.419 . S
C3662 C3663 1.362 . S
C3663 H3653 0.930 . S
C3663 C3656 1.409 . S
C3663 C3662 1.362 . S
H3664 C3670 0.930 . S
H3665 C3673 0.930 . S
H3666 C3674 0.930 . S
H3667 C3675 0.930 . S
H3668 C3678 0.930 . S
H3669 C3679 0.930 . S
C3670 H3664 0.930 . S
C3670 C3671 1.355 . S
C3670 C3672 1.415 . S
C3671 C3670 1.355 . S
C3671 C3673 1.419 . S
C3672 C3670 1.415 . S
C3672 C3677 1.425 . S
C3672 C3679 1.409 . S
C3673 H3665 0.930 . S
C3673 C3671 1.419 . S
C3673 C3674 1.362 . S
C3674 H3666 0.930 . S
C3674 C3673 1.362 . S
C3674 C3677 1.409 . S
C3675 H3667 0.930 . S
C3675 C3676 1.355 . S
C3675 C3677 1.415 . S
C3676 C3675 1.355 . S
C3676 C3678 1.419 . S
C3677 C3672 1.425 . S
C3677 C3674 1.409 . S
C3677 C3675 1.415 . S
C3678 H3668 0.930 . S
C3678 C3676 1.419 . S
C3678 C3679 1.362 . S
C3679 H3669 0.930 . S
C3679 C3672 1.409 . S
C3679 C3678 1.362 . S
H3680 C3686 0.930 . S
H3681 C3689 0.930 . S
H3682 C3690 0.930 . S
H3683 C3691 0.930 . S
H3684 C3694 0.930 . S
H3685 C3695 0.930 . S
C3686 H3680 0.930 . S
C3686 C3687 1.355 . S
C3686 C3688 1.415 . S
C3687 C3686 1.355 . S
C3687 C3689 1.419 . S
C3688 C3686 1.415 . S
C3688 C3693 1.425 . S
C3688 C3695 1.409 . S
C3689 H3681 0.930 . S
C3689 C3687 1.419 . S
C3689 C3690 1.362 . S
C3690 H3682 0.930 . S
C3690 C3689 1.362 . S
C3690 C3693 1.409 . S
C3691 H3683 0.930 . S
C3691 C3692 1.355 . S
C3691 C3693 1.415 . S
C3692 C3691 1.355 . S
C3692 C3694 1.419 . S
C3693 C3688 1.425 . S
C3693 C3690 1.409 . S
C3693 C3691 1.415 . S
C3694 H3684 0.930 . S
C3694 C3692 1.419 . S
C3694 C3695 1.362 . S
C3695 H3685 0.930 . S
C3695 C3688 1.409 . S
C3695 C3694 1.362 . S
H3696 C3702 0.930 . S
H3697 C3705 0.930 . S
H3698 C3706 0.930 . S
H3699 C3707 0.930 . S
H3700 C3710 0.930 . S
H3701 C3711 0.930 . S
C3702 H3696 0.930 . S
C3702 C3703 1.355 . S
C3702 C3704 1.415 . S
C3703 C3702 1.355 . S
C3703 C3705 1.419 . S
C3704 C3702 1.415 . S
C3704 C3709 1.425 . S
C3704 C3711 1.409 . S
C3705 H3697 0.930 . S
C3705 C3703 1.419 . S
C3705 C3706 1.362 . S
C3706 H3698 0.930 . S
C3706 C3705 1.362 . S
C3706 C3709 1.409 . S
C3707 H3699 0.930 . S
C3707 C3708 1.355 . S
C3707 C3709 1.415 . S
C3708 C3707 1.355 . S
C3708 C3710 1.419 . S
C3709 C3704 1.425 . S
C3709 C3706 1.409 . S
C3709 C3707 1.415 . S
C3710 H3700 0.930 . S
C3710 C3708 1.419 . S
C3710 C3711 1.362 . S
C3711 H3701 0.930 . S
C3711 C3704 1.409 . S
C3711 C3710 1.362 . S
H3712 C3718 0.930 . S
H3713 C3721 0.930 . S
H3714 C3722 0.930 . S
H3715 C3723 0.930 . S
H3716 C3726 0.930 . S
H3717 C3727 0.930 . S
C3718 H3712 0.930 . S
C3718 C3719 1.355 . S
C3718 C3720 1.415 . S
C3719 C3718 1.355 . S
C3719 C3721 1.419 . S
C3720 C3718 1.415 . S
C3720 C3725 1.425 . S
C3720 C3727 1.409 . S
C3721 H3713 0.930 . S
C3721 C3719 1.419 . S
C3721 C3722 1.362 . S
C3722 H3714 0.930 . S
C3722 C3721 1.362 . S
C3722 C3725 1.409 . S
C3723 H3715 0.930 . S
C3723 C3724 1.355 . S
C3723 C3725 1.415 . S
C3724 C3723 1.355 . S
C3724 C3726 1.419 . S
C3725 C3720 1.425 . S
C3725 C3722 1.409 . S
C3725 C3723 1.415 . S
C3726 H3716 0.930 . S
C3726 C3724 1.419 . S
C3726 C3727 1.362 . S
C3727 H3717 0.930 . S
C3727 C3720 1.409 . S
C3727 C3726 1.362 . S
H3728 C3734 0.930 . S
H3729 C3737 0.930 . S
H3730 C3738 0.930 . S
H3731 C3739 0.930 . S
H3732 C3742 0.930 . S
H3733 C3743 0.930 . S
C3734 H3728 0.930 . S
C3734 C3735 1.355 . S
C3734 C3736 1.415 . S
C3735 C3734 1.355 . S
C3735 C3737 1.419 . S
C3736 C3734 1.415 . S
C3736 C3741 1.425 . S
C3736 C3743 1.409 . S
C3737 H3729 0.930 . S
C3737 C3735 1.419 . S
C3737 C3738 1.362 . S
C3738 H3730 0.930 . S
C3738 C3737 1.362 . S
C3738 C3741 1.409 . S
C3739 H3731 0.930 . S
C3739 C3740 1.355 . S
C3739 C3741 1.415 . S
C3740 C3739 1.355 . S
C3740 C3742 1.419 . S
C3741 C3736 1.425 . S
C3741 C3738 1.409 . S
C3741 C3739 1.415 . S
C3742 H3732 0.930 . S
C3742 C3740 1.419 . S
C3742 C3743 1.362 . S
C3743 H3733 0.930 . S
C3743 C3736 1.409 . S
C3743 C3742 1.362 . S
H3744 C3750 0.930 . S
H3745 C3753 0.930 . S
H3746 C3754 0.930 . S
H3747 C3755 0.930 . S
H3748 C3758 0.930 . S
H3749 C3759 0.930 . S
C3750 H3744 0.930 . S
C3750 C3751 1.355 . S
C3750 C3752 1.415 . S
C3751 C3750 1.355 . S
C3751 C3753 1.419 . S
C3752 C3750 1.415 . S
C3752 C3757 1.425 . S
C3752 C3759 1.409 . S
C3753 H3745 0.930 . S
C3753 C3751 1.419 . S
C3753 C3754 1.362 . S
C3754 H3746 0.930 . S
C3754 C3753 1.362 . S
C3754 C3757 1.409 . S
C3755 H3747 0.930 . S
C3755 C3756 1.355 . S
C3755 C3757 1.415 . S
C3756 C3755 1.355 . S
C3756 C3758 1.419 . S
C3757 C3752 1.425 . S
C3757 C3754 1.409 . S
C3757 C3755 1.415 . S
C3758 H3748 0.930 . S
C3758 C3756 1.419 . S
C3758 C3759 1.362 . S
C3759 H3749 0.930 . S
C3759 C3752 1.409 . S
C3759 C3758 1.362 . S
H3760 C3766 0.930 . S
H3761 C3769 0.930 . S
H3762 C3770 0.930 . S
H3763 C3771 0.930 . S
H3764 C3774 0.930 . S
H3765 C3775 0.930 . S
C3766 H3760 0.930 . S
C3766 C3767 1.355 . S
C3766 C3768 1.415 . S
C3767 C3766 1.355 . S
C3767 C3769 1.419 . S
C3768 C3766 1.415 . S
C3768 C3773 1.425 . S
C3768 C3775 1.409 . S
C3769 H3761 0.930 . S
C3769 C3767 1.419 . S
C3769 C3770 1.362 . S
C3770 H3762 0.930 . S
C3770 C3769 1.362 . S
C3770 C3773 1.409 . S
C3771 H3763 0.930 . S
C3771 C3772 1.355 . S
C3771 C3773 1.415 . S
C3772 C3771 1.355 . S
C3772 C3774 1.419 . S
C3773 C3768 1.425 . S
C3773 C3770 1.409 . S
C3773 C3771 1.415 . S
C3774 H3764 0.930 . S
C3774 C3772 1.419 . S
C3774 C3775 1.362 . S
C3775 H3765 0.930 . S
C3775 C3768 1.409 . S
C3775 C3774 1.362 . S
H3776 C3782 0.930 . S
H3777 C3785 0.930 . S
H3778 C3786 0.930 . S
H3779 C3787 0.930 . S
H3780 C3790 0.930 . S
H3781 C3791 0.930 . S
C3782 H3776 0.930 . S
C3782 C3783 1.355 . S
C3782 C3784 1.415 . S
C3783 C3782 1.355 . S
C3783 C3785 1.419 . S
C3784 C3782 1.415 . S
C3784 C3789 1.425 . S
C3784 C3791 1.409 . S
C3785 H3777 0.930 . S
C3785 C3783 1.419 . S
C3785 C3786 1.362 . S
C3786 H3778 0.930 . S
C3786 C3785 1.362 . S
C3786 C3789 1.409 . S
C3787 H3779 0.930 . S
C3787 C3788 1.355 . S
C3787 C3789 1.415 . S
C3788 C3787 1.355 . S
C3788 C3790 1.419 . S
C3789 C3784 1.425 . S
C3789 C3786 1.409 . S
C3789 C3787 1.415 . S
C3790 H3780 0.930 . S
C3790 C3788 1.419 . S
C3790 C3791 1.362 . S
C3791 H3781 0.930 . S
C3791 C3784 1.409 . S
C3791 C3790 1.362 . S
H3792 C3798 0.930 . S
H3793 C3801 0.930 . S
H3794 C3802 0.930 . S
H3795 C3803 0.930 . S
H3796 C3806 0.930 . S
H3797 C3807 0.930 . S
C3798 H3792 0.930 . S
C3798 C3799 1.355 . S
C3798 C3800 1.415 . S
C3799 C3798 1.355 . S
C3799 C3801 1.419 . S
C3800 C3798 1.415 . S
C3800 C3805 1.425 . S
C3800 C3807 1.409 . S
C3801 H3793 0.930 . S
C3801 C3799 1.419 . S
C3801 C3802 1.362 . S
C3802 H3794 0.930 . S
C3802 C3801 1.362 . S
C3802 C3805 1.409 . S
C3803 H3795 0.930 . S
C3803 C3804 1.355 . S
C3803 C3805 1.415 . S
C3804 C3803 1.355 . S
C3804 C3806 1.419 . S
C3805 C3800 1.425 . S
C3805 C3802 1.409 . S
C3805 C3803 1.415 . S
C3806 H3796 0.930 . S
C3806 C3804 1.419 . S
C3806 C3807 1.362 . S
C3807 H3797 0.930 . S
C3807 C3800 1.409 . S
C3807 C3806 1.362 . S
H3808 C3814 0.930 . S
H3809 C3817 0.930 . S
H3810 C3818 0.930 . S
H3811 C3819 0.930 . S
H3812 C3822 0.930 . S
H3813 C3823 0.930 . S
C3814 H3808 0.930 . S
C3814 C3815 1.355 . S
C3814 C3816 1.415 . S
C3815 C3814 1.355 . S
C3815 C3817 1.419 . S
C3816 C3814 1.415 . S
C3816 C3821 1.425 . S
C3816 C3823 1.409 . S
C3817 H3809 0.930 . S
C3817 C3815 1.419 . S
C3817 C3818 1.362 . S
C3818 H3810 0.930 . S
C3818 C3817 1.362 . S
C3818 C3821 1.409 . S
C3819 H3811 0.930 . S
C3819 C3820 1.355 . S
C3819 C3821 1.415 . S
C3820 C3819 1.355 . S
C3820 C3822 1.419 . S
C3821 C3816 1.425 . S
C3821 C3818 1.409 . S
C3821 C3819 1.415 . S
C3822 H3812 0.930 . S
C3822 C3820 1.419 . S
C3822 C3823 1.362 . S
C3823 H3813 0.930 . S
C3823 C3816 1.409 . S
C3823 C3822 1.362 . S
H3824 C3830 0.930 . S
H3825 C3833 0.930 . S
H3826 C3834 0.930 . S
H3827 C3835 0.930 . S
H3828 C3838 0.930 . S
H3829 C3839 0.930 . S
C3830 H3824 0.930 . S
C3830 C3831 1.355 . S
C3830 C3832 1.415 . S
C3831 C3830 1.355 . S
C3831 C3833 1.419 . S
C3832 C3830 1.415 . S
C3832 C3837 1.425 . S
C3832 C3839 1.409 . S
C3833 H3825 0.930 . S
C3833 C3831 1.419 . S
C3833 C3834 1.362 . S
C3834 H3826 0.930 . S
C3834 C3833 1.362 . S
C3834 C3837 1.409 . S
C3835 H3827 0.930 . S
C3835 C3836 1.355 . S
C3835 C3837 1.415 . S
C3836 C3835 1.355 . S
C3836 C3838 1.419 . S
C3837 C3832 1.425 . S
C3837 C3834 1.409 . S
C3837 C3835 1.415 . S
C3838 H3828 0.930 . S
C3838 C3836 1.419 . S
C3838 C3839 1.362 . S
C3839 H3829 0.930 . S
C3839 C3832 1.409 . S
C3839 C3838 1.362 . S
H3840 C3846 0.930 . S
H3841 C3849 0.930 . S
H3842 C3850 0.930 . S
H3843 C3851 0.930 . S
H3844 C3854 0.930 . S
H3845 C3855 0.930 . S
C3846 H3840 0.930 . S
C3846 C3847 1.355 . S
C3846 C3848 1.415 . S
C3847 C3846 1.355 . S
C3847 C3849 1.419 . S
C3848 C3846 1.415 . S
C3848 C3853 1.425 . S
C3848 C3855 1.409 . S
C3849 H3841 0.930 . S
C3849 C3847 1.419 . S
C3849 C3850 1.362 . S
C3850 H3842 0.930 . S
C3850 C3849 1.362 . S
C3850 C3853 1.409 . S
C3851 H3843 0.930 . S
C3851 C3852 1.355 . S
C3851 C3853 1.415 . S
C3852 C3851 1.355 . S
C3852 C3854 1.419 . S
C3853 C3848 1.425 . S
C3853 C3850 1.409 . S
C3853 C3851 1.415 . S
C3854 H3844 0.930 . S
C3854 C3852 1.419 . S
C3854 C3855 1.362 . S
C3855 H3845 0.930 . S
C3855 C3848 1.409 . S
C3855 C3854 1.362 . S
H3856 C3862 0.930 . S
H3857 C3865 0.930 . S
H3858 C3866 0.930 . S
H3859 C3867 0.930 . S
H3860 C3870 0.930 . S
H3861 C3871 0.930 . S
C3862 H3856 0.930 . S
C3862 C3863 1.355 . S
C3862 C3864 1.415 . S
C3863 C3862 1.355 . S
C3863 C3865 1.419 . S
C3864 C3862 1.415 . S
C3864 C3869 1.425 . S
C3864 C3871 1.409 . S
C3865 H3857 0.930 . S
C3865 C3863 1.419 . S
C3865 C3866 1.362 . S
C3866 H3858 0.930 . S
C3866 C3865 1.362 . S
C3866 C3869 1.409 . S
C3867 H3859 0.930 . S
C3867 C3868 1.355 . S
C3867 C3869 1.415 . S
C3868 C3867 1.355 . S
C3868 C3870 1.419 . S
C3869 C3864 1.425 . S
C3869 C3866 1.409 . S
C3869 C3867 1.415 . S
C3870 H3860 0.930 . S
C3870 C3868 1.419 . S
C3870 C3871 1.362 . S
C3871 H3861 0.930 . S
C3871 C3864 1.409 . S
C3871 C3870 1.362 . S
H3872 C3878 0.930 . S
H3873 C3881 0.930 . S
H3874 C3882 0.930 . S
H3875 C3883 0.930 . S
H3876 C3886 0.930 . S
H3877 C3887 0.930 . S
C3878 H3872 0.930 . S
C3878 C3879 1.355 . S
C3878 C3880 1.415 . S
C3879 C3878 1.355 . S
C3879 C3881 1.419 . S
C3880 C3878 1.415 . S
C3880 C3885 1.425 . S
C3880 C3887 1.409 . S
C3881 H3873 0.930 . S
C3881 C3879 1.419 . S
C3881 C3882 1.362 . S
C3882 H3874 0.930 . S
C3882 C3881 1.362 . S
C3882 C3885 1.409 . S
C3883 H3875 0.930 . S
C3883 C3884 1.355 . S
C3883 C3885 1.415 . S
C3884 C3883 1.355 . S
C3884 C3886 1.419 . S
C3885 C3880 1.425 . S
C3885 C3882 1.409 . S
C3885 C3883 1.415 . S
C3886 H3876 0.930 . S
C3886 C3884 1.419 . S
C3886 C3887 1.362 . S
C3887 H3877 0.930 . S
C3887 C3880 1.409 . S
C3887 C3886 1.362 . S
H3888 C3894 0.930 . S
H3889 C3897 0.930 . S
H3890 C3898 0.930 . S
H3891 C3899 0.930 . S
H3892 C3902 0.930 . S
H3893 C3903 0.930 . S
C3894 H3888 0.930 . S
C3894 C3895 1.355 . S
C3894 C3896 1.415 . S
C3895 C3894 1.355 . S
C3895 C3897 1.419 . S
C3896 C3894 1.415 . S
C3896 C3901 1.425 . S
C3896 C3903 1.409 . S
C3897 H3889 0.930 . S
C3897 C3895 1.419 . S
C3897 C3898 1.362 . S
C3898 H3890 0.930 . S
C3898 C3897 1.362 . S
C3898 C3901 1.409 . S
C3899 H3891 0.930 . S
C3899 C3900 1.355 . S
C3899 C3901 1.415 . S
C3900 C3899 1.355 . S
C3900 C3902 1.419 . S
C3901 C3896 1.425 . S
C3901 C3898 1.409 . S
C3901 C3899 1.415 . S
C3902 H3892 0.930 . S
C3902 C3900 1.419 . S
C3902 C3903 1.362 . S
C3903 H3893 0.930 . S
C3903 C3896 1.409 . S
C3903 C3902 1.362 . S
H3904 C3910 0.930 . S
H3905 C3913 0.930 . S
H3906 C3914 0.930 . S
H3907 C3915 0.930 . S
H3908 C3918 0.930 . S
H3909 C3919 0.930 . S
C3910 H3904 0.930 . S
C3910 C3911 1.355 . S
C3910 C3912 1.415 . S
C3911 C3910 1.355 . S
C3911 C3913 1.419 . S
C3912 C3910 1.415 . S
C3912 C3917 1.425 . S
C3912 C3919 1.409 . S
C3913 H3905 0.930 . S
C3913 C3911 1.419 . S
C3913 C3914 1.362 . S
C3914 H3906 0.930 . S
C3914 C3913 1.362 . S
C3914 C3917 1.409 . S
C3915 H3907 0.930 . S
C3915 C3916 1.355 . S
C3915 C3917 1.415 . S
C3916 C3915 1.355 . S
C3916 C3918 1.419 . S
C3917 C3912 1.425 . S
C3917 C3914 1.409 . S
C3917 C3915 1.415 . S
C3918 H3908 0.930 . S
C3918 C3916 1.419 . S
C3918 C3919 1.362 . S
C3919 H3909 0.930 . S
C3919 C3912 1.409 . S
C3919 C3918 1.362 . S
H3920 C3926 0.930 . S
H3921 C3929 0.930 . S
H3922 C3930 0.930 . S
H3923 C3931 0.930 . S
H3924 C3934 0.930 . S
H3925 C3935 0.930 . S
C3926 H3920 0.930 . S
C3926 C3927 1.355 . S
C3926 C3928 1.415 . S
C3927 C3926 1.355 . S
C3927 C3929 1.419 . S
C3928 C3926 1.415 . S
C3928 C3933 1.425 . S
C3928 C3935 1.409 . S
C3929 H3921 0.930 . S
C3929 C3927 1.419 . S
C3929 C3930 1.362 . S
C3930 H3922 0.930 . S
C3930 C3929 1.362 . S
C3930 C3933 1.409 . S
C3931 H3923 0.930 . S
C3931 C3932 1.355 . S
C3931 C3933 1.415 . S
C3932 C3931 1.355 . S
C3932 C3934 1.419 . S
C3933 C3928 1.425 . S
C3933 C3930 1.409 . S
C3933 C3931 1.415 . S
C3934 H3924 0.930 . S
C3934 C3932 1.419 . S
C3934 C3935 1.362 . S
C3935 H3925 0.930 . S
C3935 C3928 1.409 . S
C3935 C3934 1.362 . S
H3936 C3942 0.930 . S
H3937 C3945 0.930 . S
H3938 C3946 0.930 . S
H3939 C3947 0.930 . S
H3940 C3950 0.930 . S
H3941 C3951 0.930 . S
C3942 H3936 0.930 . S
C3942 C3943 1.355 . S
C3942 C3944 1.415 . S
C3943 C3942 1.355 . S
C3943 C3945 1.419 . S
C3944 C3942 1.415 . S
C3944 C3949 1.425 . S
C3944 C3951 1.409 . S
C3945 H3937 0.930 . S
C3945 C3943 1.419 . S
C3945 C3946 1.362 . S
C3946 H3938 0.930 . S
C3946 C3945 1.362 . S
C3946 C3949 1.409 . S
C3947 H3939 0.930 . S
C3947 C3948 1.355 . S
C3947 C3949 1.415 . S
C3948 C3947 1.355 . S
C3948 C3950 1.419 . S
C3949 C3944 1.425 . S
C3949 C3946 1.409 . S
C3949 C3947 1.415 . S
C3950 H3940 0.930 . S
C3950 C3948 1.419 . S
C3950 C3951 1.362 . S
C3951 H3941 0.930 . S
C3951 C3944 1.409 . S
C3951 C3950 1.362 . S
H3952 C3958 0.930 . S
H3953 C3961 0.930 . S
H3954 C3962 0.930 . S
H3955 C3963 0.930 . S
H3956 C3966 0.930 . S
H3957 C3967 0.930 . S
C3958 H3952 0.930 . S
C3958 C3959 1.355 . S
C3958 C3960 1.415 . S
C3959 C3958 1.355 . S
C3959 C3961 1.419 . S
C3960 C3958 1.415 . S
C3960 C3965 1.425 . S
C3960 C3967 1.409 . S
C3961 H3953 0.930 . S
C3961 C3959 1.419 . S
C3961 C3962 1.362 . S
C3962 H3954 0.930 . S
C3962 C3961 1.362 . S
C3962 C3965 1.409 . S
C3963 H3955 0.930 . S
C3963 C3964 1.355 . S
C3963 C3965 1.415 . S
C3964 C3963 1.355 . S
C3964 C3966 1.419 . S
C3965 C3960 1.425 . S
C3965 C3962 1.409 . S
C3965 C3963 1.415 . S
C3966 H3956 0.930 . S
C3966 C3964 1.419 . S
C3966 C3967 1.362 . S
C3967 H3957 0.930 . S
C3967 C3960 1.409 . S
C3967 C3966 1.362 . S
H3968 C3974 0.930 . S
H3969 C3977 0.930 . S
H3970 C3978 0.930 . S
H3971 C3979 0.930 . S
H3972 C3982 0.930 . S
H3973 C3983 0.930 . S
C3974 H3968 0.930 . S
C3974 C3975 1.355 . S
C3974 C3976 1.415 . S
C3975 C3974 1.355 . S
C3975 C3977 1.419 . S
C3976 C3974 1.415 . S
C3976 C3981 1.425 . S
C3976 C3983 1.409 . S
C3977 H3969 0.930 . S
C3977 C3975 1.419 . S
C3977 C3978 1.362 . S
C3978 H3970 0.930 . S
C3978 C3977 1.362 . S
C3978 C3981 1.409 . S
C3979 H3971 0.930 . S
C3979 C3980 1.355 . S
C3979 C3981 1.415 . S
C3980 C3979 1.355 . S
C3980 C3982 1.419 . S
C3981 C3976 1.425 . S
C3981 C3978 1.409 . S
C3981 C3979 1.415 . S
C3982 H3972 0.930 . S
C3982 C3980 1.419 . S
C3982 C3983 1.362 . S
C3983 H3973 0.930 . S
C3983 C3976 1.409 . S
C3983 C3982 1.362 . S
H3984 C3990 0.930 . S
H3985 C3993 0.930 . S
H3986 C3994 0.930 . S
H3987 C3995 0.930 . S
H3988 C3998 0.930 . S
H3989 C3999 0.930 . S
C3990 H3984 0.930 . S
C3990 C3991 1.355 . S
C3990 C3992 1.415 . S
C3991 C3990 1.355 . S
C3991 C3993 1.419 . S
C3992 C3990 1.415 . S
C3992 C3997 1.425 . S
C3992 C3999 1.409 . S
C3993 H3985 0.930 . S
C3993 C3991 1.419 . S
C3993 C3994 1.362 . S
C3994 H3986 0.930 . S
C3994 C3993 1.362 . S
C3994 C3997 1.409 . S
C3995 H3987 0.930 . S
C3995 C3996 1.355 . S
C3995 C3997 1.415 . S
C3996 C3995 1.355 . S
C3996 C3998 1.419 . S
C3997 C3992 1.425 . S
C3997 C3994 1.409 . S
C3997 C3995 1.415 . S
C3998 H3988 0.930 . S
C3998 C3996 1.419 . S
C3998 C3999 1.362 . S
C3999 H3989 0.930 . S
C3999 C3992 1.409 . S
C3999 C3998 1.362 . S
H4000 C4006 0.930 . S
H4001 C4009 0.930 . S
H4002 C4010 0.930 . S
H4003 C4011 0.930 . S
H4004 C4014 0.930 . S
H4005 C4015 0.930 . S
C4006 H4000 0.930 . S
C4006 C4007 1.355 . S
C4006 C4008 1.415 . S
C4007 C4006 1.355 . S
C4007 C4009 1.419 . S
C4008 C4006 1.415 . S
C4008 C4013 1.425 . S
C4008 C4015 1.409 . S
C4009 H4001 0.930 . S
C4009 C4007 1.419 . S
C4009 C4010 1.362 . S
C4010 H4002 0.930 . S
C4010 C4009 1.362 . S
C4010 C4013 1.409 . S
C4011 H4003 0.930 . S
C4011 C4012 1.355 . S
C4011 C4013 1.415 . S
C4012 C4011 1.355 . S
C4012 C4014 1.419 . S
C4013 C4008 1.425 . S
C4013 C4010 1.409 . S
C4013 C4011 1.415 . S
C4014 H4004 0.930 . S
C4014 C4012 1.419 . S
C4014 C4015 1.362 . S
C4015 H4005 0.930 . S
C4015 C4008 1.409 . S
C4015 C4014 1.362 . S
H4016 C4022 0.930 . S
H4017 C4025 0.930 . S
H4018 C4026 0.930 . S
H4019 C4027 0.930 . S
H4020 C4030 0.930 . S
H4021 C4031 0.930 . S
C4022 H4016 0.930 . S
C4022 C4023 1.355 . S
C4022 C4024 1.415 . S
C4023 C4022 1.355 . S
C4023 C4025 1.419 . S
C4024 C4022 1.415 . S
C4024 C4029 1.425 . S
C4024 C4031 1.409 . S
C4025 H4017 0.930 . S
C4025 C4023 1.419 . S
C4025 C4026 1.362 . S
C4026 H4018 0.930 . S
C4026 C4025 1.362 . S
C4026 C4029 1.409 . S
C4027 H4019 0.930 . S
C4027 C4028 1.355 . S
C4027 C4029 1.415 . S
C4028 C4027 1.355 . S
C4028 C4030 1.419 . S
C4029 C4024 1.425 . S
C4029 C4026 1.409 . S
C4029 C4027 1.415 . S
C4030 H4020 0.930 . S
C4030 C4028 1.419 . S
C4030 C4031 1.362 . S
C4031 H4021 0.930 . S
C4031 C4024 1.409 . S
C4031 C4030 1.362 . S
H4032 C4038 0.930 . S
H4033 C4041 0.930 . S
H4034 C4042 0.930 . S
H4035 C4043 0.930 . S
H4036 C4046 0.930 . S
H4037 C4047 0.930 . S
C4038 H4032 0.930 . S
C4038 C4039 1.355 . S
C4038 C4040 1.415 . S
C4039 C4038 1.355 . S
C4039 C4041 1.419 . S
C4040 C4038 1.415 . S
C4040 C4045 1.425 . S
C4040 C4047 1.409 . S
C4041 H4033 0.930 . S
C4041 C4039 1.419 . S
C4041 C4042 1.362 . S
C4042 H4034 0.930 . S
C4042 C4041 1.362 . S
C4042 C4045 1.409 . S
C4043 H4035 0.930 . S
C4043 C4044 1.355 . S
C4043 C4045 1.415 . S
C4044 C4043 1.355 . S
C4044 C4046 1.419 . S
C4045 C4040 1.425 . S
C4045 C4042 1.409 . S
C4045 C4043 1.415 . S
C4046 H4036 0.930 . S
C4046 C4044 1.419 . S
C4046 C4047 1.362 . S
C4047 H4037 0.930 . S
C4047 C4040 1.409 . S
C4047 C4046 1.362 . S
H4048 C4054 0.930 . S
H4049 C4057 0.930 . S
H4050 C4058 0.930 . S
H4051 C4059 0.930 . S
H4052 C4062 0.930 . S
H4053 C4063 0.930 . S
C4054 H4048 0.930 . S
C4054 C4055 1.355 . S
C4054 C4056 1.415 . S
C4055 C4054 1.355 . S
C4055 C4057 1.419 . S
C4056 C4054 1.415 . S
C4056 C4061 1.425 . S
C4056 C4063 1.409 . S
C4057 H4049 0.930 . S
C4057 C4055 1.419 . S
C4057 C4058 1.362 . S
C4058 H4050 0.930 . S
C4058 C4057 1.362 . S
C4058 C4061 1.409 . S
C4059 H4051 0.930 . S
C4059 C4060 1.355 . S
C4059 C4061 1.415 . S
C4060 C4059 1.355 . S
C4060 C4062 1.419 . S
C4061 C4056 1.425 . S
C4061 C4058 1.409 . S
C4061 C4059 1.415 . S
C4062 H4052 0.930 . S
C4062 C4060 1.419 . S
C4062 C4063 1.362 . S
C4063 H4053 0.930 . S
C4063 C4056 1.409 . S
C4063 C4062 1.362 . S
H4064 C4070 0.930 . S
H4065 C4073 0.930 . S
H4066 C4074 0.930 . S
H4067 C4075 0.930 . S
H4068 C4078 0.930 . S
H4069 C4079 0.930 . S
C4070 H4064 0.930 . S
C4070 C4071 1.355 . S
C4070 C4072 1.415 . S
C4071 C4070 1.355 . S
C4071 C4073 1.419 . S
C4072 C4070 1.415 . S
C4072 C4077 1.425 . S
C4072 C4079 1.409 . S
C4073 H4065 0.930 . S
C4073 C4071 1.419 . S
C4073 C4074 1.362 . S
C4074 H4066 0.930 . S
C4074 C4073 1.362 . S
C4074 C4077 1.409 . S
C4075 H4067 0.930 . S
C4075 C4076 1.355 . S
C4075 C4077 1.415 . S
C4076 C4075 1.355 . S
C4076 C4078 1.419 . S
C4077 C4072 1.425 . S
C4077 C4074 1.409 . S
C4077 C4075 1.415 . S
C4078 H4068 0.930 . S
C4078 C4076 1.419 . S
C4078 C4079 1.362 . S
C4079 H4069 0.930 . S
C4079 C4072 1.409 . S
C4079 C4078 1.362 . S
H4080 C4086 0.930 . S
H4081 C4089 0.930 . S
H4082 C4090 0.930 . S
H4083 C4091 0.930 . S
H4084 C4094 0.930 . S
H4085 C4095 0.930 . S
C4086 H4080 0.930 . S
C4086 C4087 1.355 . S
C4086 C4088 1.415 . S
C4087 C4086 1.355 . S
C4087 C4089 1.419 . S
C4088 C4086 1.415 . S
C4088 C4093 1.425 . S
C4088 C4095 1.409 . S
C4089 H4081 0.930 . S
C4089 C4087 1.419 . S
C4089 C4090 1.362 . S
C4090 H4082 0.930 . S
C4090 C4089 1.362 . S
C4090 C4093 1.409 . S
C4091 H4083 0.930 . S
C4091 C4092 1.355 . S
C4091 C4093 1.415 . S
C4092 C4091 1.355 . S
C4092 C4094 1.419 . S
C4093 C4088 1.425 . S
C4093 C4090 1.409 . S
C4093 C4091 1.415 . S
C4094 H4084 0.930 . S
C4094 C4092 1.419 . S
C4094 C4095 1.362 . S
C4095 H4085 0.930 . S
C4095 C4088 1.409 . S
C4095 C4094 1.362 . S
H4096 C4102 0.930 . S
H4097 C4105 0.930 . S
H4098 C4106 0.930 . S
H4099 C4107 0.930 . S
H4100 C4110 0.930 . S
H4101 C4111 0.930 . S
C4102 H4096 0.930 . S
C4102 C4103 1.355 . S
C4102 C4104 1.415 . S
C4103 C4102 1.355 . S
C4103 C4105 1.419 . S
C4104 C4102 1.415 . S
C4104 C4109 1.425 . S
C4104 C4111 1.409 . S
C4105 H4097 0.930 . S
C4105 C4103 1.419 . S
C4105 C4106 1.362 . S
C4106 H4098 0.930 . S
C4106 C4105 1.362 . S
C4106 C4109 1.409 . S
C4107 H4099 0.930 . S
C4107 C4108 1.355 . S
C4107 C4109 1.415 . S
C4108 C4107 1.355 . S
C4108 C4110 1.419 . S
C4109 C4104 1.425 . S
C4109 C4106 1.409 . S
C4109 C4107 1.415 . S
C4110 H4100 0.930 . S
C4110 C4108 1.419 . S
C4110 C4111 1.362 . S
C4111 H4101 0.930 . S
C4111 C4104 1.409 . S
C4111 C4110 1.362 . S
H4112 C4118 0.930 . S
H4113 C4121 0.930 . S
H4114 C4122 0.930 . S
H4115 C4123 0.930 . S
H4116 C4126 0.930 . S
H4117 C4127 0.930 . S
C4118 H4112 0.930 . S
C4118 C4119 1.355 . S
C4118 C4120 1.415 . S
C4119 C4118 1.355 . S
C4119 C4121 1.419 . S
C4120 C4118 1.415 . S
C4120 C4125 1.425 . S
C4120 C4127 1.409 . S
C4121 H4113 0.930 . S
C4121 C4119 1.419 . S
C4121 C4122 1.362 . S
C4122 H4114 0.930 . S
C4122 C4121 1.362 . S
C4122 C4125 1.409 . S
C4123 H4115 0.930 . S
C4123 C4124 1.355 . S
C4123 C4125 1.415 . S
C4124 C4123 1.355 . S
C4124 C4126 1.419 . S
C4125 C4120 1.425 . S
C4125 C4122 1.409 . S
C4125 C4123 1.415 . S
C4126 H4116 0.930 . S
C4126 C4124 1.419 . S
C4126 C4127 1.362 . S
C4127 H4117 0.930 . S
C4127 C4120 1.409 . S
C4127 C4126 1.362 . S
H4128 C4134 0.930 . S
H4129 C4137 0.930 . S
H4130 C4138 0.930 . S
H4131 C4139 0.930 . S
H4132 C4142 0.930 . S
H4133 C4143 0.930 . S
C4134 H4128 0.930 . S
C4134 C4135 1.355 . S
C4134 C4136 1.415 . S
C4135 C4134 1.355 . S
C4135 C4137 1.419 . S
C4136 C4134 1.415 . S
C4136 C4141 1.425 . S
C4136 C4143 1.409 . S
C4137 H4129 0.930 . S
C4137 C4135 1.419 . S
C4137 C4138 1.362 . S
C4138 H4130 0.930 . S
C4138 C4137 1.362 . S
C4138 C4141 1.409 . S
C4139 H4131 0.930 . S
C4139 C4140 1.355 . S
C4139 C4141 1.415 . S
C4140 C4139 1.355 . S
C4140 C4142 1.419 . S
C4141 C4136 1.425 . S
C4141 C4138 1.409 . S
C4141 C4139 1.415 . S
C4142 H4132 0.930 . S
C4142 C4140 1.419 . S
C4142 C4143 1.362 . S
C4143 H4133 0.930 . S
C4143 C4136 1.409 . S
C4143 C4142 1.362 . S
H4144 C4150 0.930 . S
H4145 C4153 0.930 . S
H4146 C4154 0.930 . S
H4147 C4155 0.930 . S
H4148 C4158 0.930 . S
H4149 C4159 0.930 . S
C4150 H4144 0.930 . S
C4150 C4151 1.355 . S
C4150 C4152 1.415 . S
C4151 C4150 1.355 . S
C4151 C4153 1.419 . S
C4152 C4150 1.415 . S
C4152 C4157 1.425 . S
C4152 C4159 1.409 . S
C4153 H4145 0.930 . S
C4153 C4151 1.419 . S
C4153 C4154 1.362 . S
C4154 H4146 0.930 . S
C4154 C4153 1.362 . S
C4154 C4157 1.409 . S
C4155 H4147 0.930 . S
C4155 C4156 1.355 . S
C4155 C4157 1.415 . S
C4156 C4155 1.355 . S
C4156 C4158 1.419 . S
C4157 C4152 1.425 . S
C4157 C4154 1.409 . S
C4157 C4155 1.415 . S
C4158 H4148 0.930 . S
C4158 C4156 1.419 . S
C4158 C4159 1.362 . S
C4159 H4149 0.930 . S
C4159 C4152 1.409 . S
C4159 C4158 1.362 . S
H4160 C4166 0.930 . S
H4161 C4169 0.930 . S
H4162 C4170 0.930 . S
H4163 C4171 0.930 . S
H4164 C4174 0.930 . S
H4165 C4175 0.930 . S
C4166 H4160 0.930 . S
C4166 C4167 1.355 . S
C4166 C4168 1.415 . S
C4167 C4166 1.355 . S
C4167 C4169 1.419 . S
C4168 C4166 1.415 . S
C4168 C4173 1.425 . S
C4168 C4175 1.409 . S
C4169 H4161 0.930 . S
C4169 C4167 1.419 . S
C4169 C4170 1.362 . S
C4170 H4162 0.930 . S
C4170 C4169 1.362 . S
C4170 C4173 1.409 . S
C4171 H4163 0.930 . S
C4171 C4172 1.355 . S
C4171 C4173 1.415 . S
C4172 C4171 1.355 . S
C4172 C4174 1.419 . S
C4173 C4168 1.425 . S
C4173 C4170 1.409 . S
C4173 C4171 1.415 . S
C4174 H4164 0.930 . S
C4174 C4172 1.419 . S
C4174 C4175 1.362 . S
C4175 H4165 0.930 . S
C4175 C4168 1.409 . S
C4175 C4174 1.362 . S
H4176 C4182 0.930 . S
H4177 C4185 0.930 . S
H4178 C4186 0.930 . S
H4179 C4187 0.930 . S
H4180 C4190 0.930 . S
H4181 C4191 0.930 . S
C4182 H4176 0.930 . S
C4182 C4183 1.355 . S
C4182 C4184 1.415 . S
C4183 C4182 1.355 . S
C4183 C4185 1.419 . S
C4184 C4182 1.415 . S
C4184 C4189 1.425 . S
C4184 C4191 1.409 . S
C4185 H4177 0.930 . S
C4185 C4183 1.419 . S
C4185 C4186 1.362 . S
C4186 H4178 0.930 . S
C4186 C4185 1.362 . S
C4186 C4189 1.409 . S
C4187 H4179 0.930 . S
C4187 C4188 1.355 . S
C4187 C4189 1.415 . S
C4188 C4187 1.355 . S
C4188 C4190 1.419 . S
C4189 C4184 1.425 . S
C4189 C4186 1.409 . S
C4189 C4187 1.415 . S
C4190 H4180 0.930 . S
C4190 C4188 1.419 . S
C4190 C4191 1.362 . S
C4191 H4181 0.930 . S
C4191 C4184 1.409 . S
C4191 C4190 1.362 . S
H4192 C4198 0.930 . S
H4193 C4201 0.930 . S
H4194 C4202 0.930 . S
H4195 C4203 0.930 . S
H4196 C4206 0.930 . S
H4197 C4207 0.930 . S
C4198 H4192 0.930 . S
C4198 C4199 1.355 . S
C4198 C4200 1.415 . S
C4199 C4198 1.355 . S
C4199 C4201 1.419 . S
C4200 C4198 1.415 . S
C4200 C4205 1.425 . S
C4200 C4207 1.409 . S
C4201 H4193 0.930 . S
C4201 C4199 1.419 . S
C4201 C4202 1.362 . S
C4202 H4194 0.930 . S
C4202 C4201 1.362 . S
C4202 C4205 1.409 . S
C4203 H4195 0.930 . S
C4203 C4204 1.355 . S
C4203 C4205 1.415 . S
C4204 C4203 1.355 . S
C4204 C4206 1.419 . S
C4205 C4200 1.425 . S
C4205 C4202 1.409 . S
C4205 C4203 1.415 . S
C4206 H4196 0.930 . S
C4206 C4204 1.419 . S
C4206 C4207 1.362 . S
C4207 H4197 0.930 . S
C4207 C4200 1.409 . S
C4207 C4206 1.362 . S
H4208 C4214 0.930 . S
H4209 C4217 0.930 . S
H4210 C4218 0.930 . S
H4211 C4219 0.930 . S
H4212 C4222 0.930 . S
H4213 C4223 0.930 . S
C4214 H4208 0.930 . S
C4214 C4215 1.355 . S
C4214 C4216 1.415 . S
C4215 C4214 1.355 . S
C4215 C4217 1.419 . S
C4216 C4214 1.415 . S
C4216 C4221 1.425 . S
C4216 C4223 1.409 . S
C4217 H4209 0.930 . S
C4217 C4215 1.419 . S
C4217 C4218 1.362 . S
C4218 H4210 0.930 . S
C4218 C4217 1.362 . S
C4218 C4221 1.409 . S
C4219 H4211 0.930 . S
C4219 C4220 1.355 . S
C4219 C4221 1.415 . S
C4220 C4219 1.355 . S
C4220 C4222 1.419 . S
C4221 C4216 1.425 . S
C4221 C4218 1.409 . S
C4221 C4219 1.415 . S
C4222 H4212 0.930 . S
C4222 C4220 1.419 . S
C4222 C4223 1.362 . S
C4223 H4213 0.930 . S
C4223 C4216 1.409 . S
C4223 C4222 1.362 . S
H4224 C4230 0.930 . S
H4225 C4233 0.930 . S
H4226 C4234 0.930 . S
H4227 C4235 0.930 . S
H4228 C4238 0.930 . S
H4229 C4239 0.930 . S
C4230 H4224 0.930 . S
C4230 C4231 1.355 . S
C4230 C4232 1.415 . S
C4231 C4230 1.355 . S
C4231 C4233 1.419 . S
C4232 C4230 1.415 . S
C4232 C4237 1.425 . S
C4232 C4239 1.409 . S
C4233 H4225 0.930 . S
C4233 C4231 1.419 . S
C4233 C4234 1.362 . S
C4234 H4226 0.930 . S
C4234 C4233 1.362 . S
C4234 C4237 1.409 . S
C4235 H4227 0.930 . S
C4235 C4236 1.355 . S
C4235 C4237 1.415 . S
C4236 C4235 1.355 . S
C4236 C4238 1.419 . S
C4237 C4232 1.425 . S
C4237 C4234 1.409 . S
C4237 C4235 1.415 . S
C4238 H4228 0.930 . S
C4238 C4236 1.419 . S
C4238 C4239 1.362 . S
C4239 H4229 0.930 . S
C4239 C4232 1.409 . S
C4239 C4238 1.362 . S
H4240 C4246 0.930 . S
H4241 C4249 0.930 . S
H4242 C4250 0.930 . S
H4243 C4251 0.930 . S
H4244 C4254 0.930 . S
H4245 C4255 0.930 . S
C4246 H4240 0.930 . S
C4246 C4247 1.355 . S
C4246 C4248 1.415 . S
C4247 C4246 1.355 . S
C4247 C4249 1.419 . S
C4248 C4246 1.415 . S
C4248 C4253 1.425 . S
C4248 C4255 1.409 . S
C4249 H4241 0.930 . S
C4249 C4247 1.419 . S
C4249 C4250 1.362 . S
C4250 H4242 0.930 . S
C4250 C4249 1.362 . S
C4250 C4253 1.409 . S
C4251 H4243 0.930 . S
C4251 C4252 1.355 . S
C4251 C4253 1.415 . S
C4252 C4251 1.355 . S
C4252 C4254 1.419 . S
C4253 C4248 1.425 . S
C4253 C4250 1.409 . S
C4253 C4251 1.415 . S
C4254 H4244 0.930 . S
C4254 C4252 1.419 . S
C4254 C4255 1.362 . S
C4255 H4245 0.930 . S
C4255 C4248 1.409 . S
C4255 C4254 1.362 . S
H4256 C4262 0.930 . S
H4257 C4265 0.930 . S
H4258 C4266 0.930 . S
H4259 C4267 0.930 . S
H4260 C4270 0.930 . S
H4261 C4271 0.930 . S
C4262 H4256 0.930 . S
C4262 C4263 1.355 . S
C4262 C4264 1.415 . S
C4263 C4262 1.355 . S
C4263 C4265 1.419 . S
C4264 C4262 1.415 . S
C4264 C4269 1.425 . S
C4264 C4271 1.409 . S
C4265 H4257 0.930 . S
C4265 C4263 1.419 . S
C4265 C4266 1.362 . S
C4266 H4258 0.930 . S
C4266 C4265 1.362 . S
C4266 C4269 1.409 . S
C4267 H4259 0.930 . S
C4267 C4268 1.355 . S
C4267 C4269 1.415 . S
C4268 C4267 1.355 . S
C4268 C4270 1.419 . S
C4269 C4264 1.425 . S
C4269 C4266 1.409 . S
C4269 C4267 1.415 . S
C4270 H4260 0.930 . S
C4270 C4268 1.419 . S
C4270 C4271 1.362 . S
C4271 H4261 0.930 . S
C4271 C4264 1.409 . S
C4271 C4270 1.362 . S
H4272 C4278 0.930 . S
H4273 C4281 0.930 . S
H4274 C4282 0.930 . S
H4275 C4283 0.930 . S
H4276 C4286 0.930 . S
H4277 C4287 0.930 . S
C4278 H4272 0.930 . S
C4278 C4279 1.355 . S
C4278 C4280 1.415 . S
C4279 C4278 1.355 . S
C4279 C4281 1.419 . S
C4280 C4278 1.415 . S
C4280 C4285 1.425 . S
C4280 C4287 1.409 . S
C4281 H4273 0.930 . S
C4281 C4279 1.419 . S
C4281 C4282 1.362 . S
C4282 H4274 0.930 . S
C4282 C4281 1.362 . S
C4282 C4285 1.409 . S
C4283 H4275 0.930 . S
C4283 C4284 1.355 . S
C4283 C4285 1.415 . S
C4284 C4283 1.355 . S
C4284 C4286 1.419 . S
C4285 C4280 1.425 . S
C4285 C4282 1.409 . S
C4285 C4283 1.415 . S
C4286 H4276 0.930 . S
C4286 C4284 1.419 . S
C4286 C4287 1.362 . S
C4287 H4277 0.930 . S
C4287 C4280 1.409 . S
C4287 C4286 1.362 . S
H4288 C4294 0.930 . S
H4289 C4297 0.930 . S
H4290 C4298 0.930 . S
H4291 C4299 0.930 . S
H4292 C4302 0.930 . S
H4293 C4303 0.930 . S
C4294 H4288 0.930 . S
C4294 C4295 1.355 . S
C4294 C4296 1.415 . S
C4295 C4294 1.355 . S
C4295 C4297 1.419 . S
C4296 C4294 1.415 . S
C4296 C4301 1.425 . S
C4296 C4303 1.409 . S
C4297 H4289 0.930 . S
C4297 C4295 1.419 . S
C4297 C4298 1.362 . S
C4298 H4290 0.930 . S
C4298 C4297 1.362 . S
C4298 C4301 1.409 . S
C4299 H4291 0.930 . S
C4299 C4300 1.355 . S
C4299 C4301 1.415 . S
C4300 C4299 1.355 . S
C4300 C4302 1.419 . S
C4301 C4296 1.425 . S
C4301 C4298 1.409 . S
C4301 C4299 1.415 . S
C4302 H4292 0.930 . S
C4302 C4300 1.419 . S
C4302 C4303 1.362 . S
C4303 H4293 0.930 . S
C4303 C4296 1.409 . S
C4303 C4302 1.362 . S
H4304 C4310 0.930 . S
H4305 C4313 0.930 . S
H4306 C4314 0.930 . S
H4307 C4315 0.930 . S
H4308 C4318 0.930 . S
H4309 C4319 0.930 . S
C4310 H4304 0.930 . S
C4310 C4311 1.355 . S
C4310 C4312 1.415 . S
C4311 C4310 1.355 . S
C4311 C4313 1.419 . S
C4312 C4310 1.415 . S
C4312 C4317 1.425 . S
C4312 C4319 1.409 . S
C4313 H4305 0.930 . S
C4313 C4311 1.419 . S
C4313 C4314 1.362 . S
C4314 H4306 0.930 . S
C4314 C4313 1.362 . S
C4314 C4317 1.409 . S
C4315 H4307 0.930 . S
C4315 C4316 1.355 . S
C4315 C4317 1.415 . S
C4316 C4315 1.355 . S
C4316 C4318 1.419 . S
C4317 C4312 1.425 . S
C4317 C4314 1.409 . S
C4317 C4315 1.415 . S
C4318 H4308 0.930 . S
C4318 C4316 1.419 . S
C4318 C4319 1.362 . S
C4319 H4309 0.930 . S
C4319 C4312 1.409 . S
C4319 C4318 1.362 . S
C1255 C4 1.741 . S
C1260 C400 1.747 . S
C1271 C719 1.751 . S
C1276 C17 1.750 . S
C1287 C30 1.753 . S
C1292 C374 1.743 . S
C1303 C43 1.742 . S
C1308 C693 1.744 . S
C1319 C342 1.741 . S
C1324 C62 1.746 . S
C1335 C69 1.741 . S
C1340 C673 1.751 . S
C1351 C316 1.753 . S
C1356 C88 1.743 . S
C1367 C101 1.748 . S
C1372 C641 1.741 . S
C1383 C446 1.743 . S
C1388 C108 1.743 . S
C1399 C127 1.753 . S
C1404 C777 1.745 . S
C1415 C134 1.742 . S
C1420 C426 1.744 . S
C1431 C153 1.742 . S
C1436 C751 1.745 . S
C1447 C166 1.741 . S
C1452 C504 1.747 . S
C1463 C823 1.740 . S
C1468 C173 1.749 . S
C1479 C472 1.747 . S
C1484 C192 1.741 . S
C1495 C199 1.743 . S
C1500 C797 1.743 . S
C1511 C849 1.753 . S
C1516 C212 1.743 . S
C1527 C842 1.741 . S
C1532 C231 1.751 . S
C1543 C244 1.748 . S
C1548 C927 1.752 . S
C1559 C1213 1.752 . S
C1564 C257 1.742 . S
C1575 C608 1.742 . S
C1580 C264 1.745 . S
C1591 C277 1.750 . S
C1596 C1187 1.740 . S
C1607 C296 1.747 . S
C1612 C576 1.741 . S
C1623 C309 1.741 . S
C1628 C868 1.747 . S
C1639 C329 1.753 . S
C1644 C1037 1.745 . S
C1655 C355 1.753 . S
C1660 C1011 1.746 . S
C1671 C387 1.742 . S
C1676 C979 1.745 . S
C1687 C413 1.741 . S
C1692 C959 1.747 . S
C1703 C1083 1.741 . S
C1708 C433 1.747 . S
C1719 C459 1.752 . S
C1724 C1063 1.748 . S
C1735 C1135 1.752 . S
C1740 C485 1.747 . S
C1751 C517 1.744 . S
C1756 C1109 1.742 . S
C1767 C524 1.742 . S
C1772 C1167 1.745 . S
C1783 C543 1.750 . S
C1788 C1154 1.751 . S
C1799 C550 1.741 . S
C1804 C1239 1.747 . S
C1815 C901 1.740 . S
C1820 C563 1.750 . S
C1831 C881 1.753 . S
C1836 C589 1.744 . S
C1847 C615 1.742 . S
C1852 C1180 1.752 . S
C1863 C634 1.743 . S
C1868 C1024 1.753 . S
C1879 C998 1.747 . S
C1884 C660 1.741 . S
C1895 C680 1.751 . S
C1900 C966 1.749 . S
C1911 C712 1.753 . S
C1916 C940 1.744 . S
C1927 C1070 1.751 . S
C1932 C732 1.749 . S
C1943 C1050 1.741 . S
C1948 C758 1.752 . S
C1959 C784 1.741 . S
C1964 C1128 1.747 . S
C1975 C1102 1.751 . S
C1980 C816 1.749 . S
C1991 C894 1.751 . S
C1996 C1232 1.749 . S
C2007 C920 1.743 . S
C2012 C1206 1.744 . S
C2023 C10 1.446 . S
C2028 C725 1.413 . S
C2039 C23 1.414 . S
C2044 C368 1.446 . S
C2055 C36 1.421 . S
C2060 C699 1.413 . S
C2071 C394 1.445 . S
C2076 C49 1.415 . S
C2087 C56 1.419 . S
C2092 C335 1.416 . S
C2103 C75 1.446 . S
C2108 C654 1.413 . S
C2119 C82 1.404 . S
C2124 C361 1.441 . S
C2135 C628 1.418 . S
C2140 C95 1.444 . S
C2151 C114 1.440 . S
C2156 C270 1.426 . S
C2167 C121 1.444 . S
C2172 C1161 1.405 . S
C2183 C1174 1.407 . S
C2188 C140 1.446 . S
C2199 C147 1.404 . S
C2204 C1193 1.441 . S
C2215 C933 1.404 . S
C2220 C160 1.439 . S
C2231 C1219 1.446 . S
C2236 C179 1.408 . S
C2247 C186 1.445 . S
C2252 C914 1.406 . S
C2263 C836 1.445 . S
C2268 C205 1.407 . S
C2279 C829 1.421 . S
C2284 C218 1.443 . S
C2295 C1057 1.442 . S
C2300 C225 1.404 . S
C2311 C238 1.405 . S
C2316 C1076 1.443 . S
C2327 C251 1.411 . S
C2332 C1089 1.424 . S
C2343 C283 1.412 . S
C2348 C1115 1.446 . S
C2359 C290 1.405 . S
C2364 C810 1.443 . S
C2375 C790 1.404 . S
C2380 C303 1.439 . S
C2391 C322 1.431 . S
C2396 C1031 1.436 . S
C2407 C1005 1.404 . S
C2412 C348 1.438 . S
C2423 C972 1.426 . S
C2428 C381 1.410 . S
C2439 C407 1.445 . S
C2444 C946 1.407 . S
C2455 C420 1.404 . S
C2460 C582 1.439 . S
C2471 C439 1.406 . S
C2476 C855 1.445 . S
C2487 C452 1.412 . S
C2492 C862 1.423 . S
C2503 C465 1.427 . S
C2508 C875 1.409 . S
C2519 C478 1.427 . S
C2524 C1245 1.439 . S
C2535 C907 1.408 . S
C2540 C491 1.446 . S
C2551 C1226 1.404 . S
C2556 C498 1.438 . S
C2567 C1148 1.405 . S
C2572 C511 1.444 . S
C2583 C1141 1.440 . S
C2588 C530 1.404 . S
C2599 C537 1.446 . S
C2604 C745 1.413 . S
C2615 C556 1.415 . S
C2620 C764 1.445 . S
C2631 C569 1.437 . S
C2636 C771 1.404 . S
C2647 C803 1.428 . S
C2652 C595 1.408 . S
C2663 C1122 1.407 . S
C2668 C602 1.445 . S
C2679 C1096 1.415 . S
C2684 C621 1.445 . S
C2695 C647 1.431 . S
C2700 C992 1.407 . S
C2711 C667 1.407 . S
C2716 C1018 1.430 . S
C2727 C953 1.405 . S
C2732 C686 1.435 . S
C2743 C985 1.405 . S
C2748 C706 1.442 . S
C2759 C888 1.425 . S
C2764 C738 1.410 . S
C2775 C1200 1.446 . S
C2780 C1044 1.409 . S
C2791 C3 1.193 . S
C2796 C1214 1.288 . S
C2807 C16 1.195 . S
C2812 C913 1.288 . S
C2823 C835 1.300 . S
C2828 C29 1.216 . S
C2839 C928 1.285 . S
C2844 C42 1.220 . S
C2855 C57 1.209 . S
C2860 C250 1.285 . S
C2871 C68 1.234 . S
C2876 C1199 1.285 . S
C2887 C224 1.285 . S
C2892 C83 1.222 . S
C2903 C237 1.297 . S
C2908 C96 1.281 . S
C2919 C367 1.285 . S
C2924 C107 1.221 . S
C2935 C122 1.187 . S
C2940 C694 1.291 . S
C2951 C133 1.251 . S
C2956 C393 1.301 . S
C2967 C148 1.278 . S
C2972 C720 1.291 . S
C2983 C317 1.285 . S
C2988 C161 1.209 . S
C2999 C172 1.195 . S
C3004 C642 1.288 . S
C3015 C343 1.301 . S
C3020 C187 1.238 . S
C3031 C198 1.238 . S
C3036 C666 1.285 . S
C3047 C211 1.205 . S
C3052 C1121 1.286 . S
C3063 C447 1.293 . S
C3068 C226 1.188 . S
C3079 C239 1.280 . S
C3084 C770 1.297 . S
C3095 C419 1.300 . S
C3100 C252 1.263 . S
C3111 C263 1.195 . S
C3116 C434 1.296 . S
C3127 C785 1.298 . S
C3132 C276 1.278 . S
C3143 C174 1.292 . S
C3148 C291 1.281 . S
C3159 C200 1.301 . S
C3164 C304 1.241 . S
C3175 C902 1.285 . S
C3180 C315 1.212 . S
C3191 C328 1.194 . S
C3196 C1225 1.288 . S
C3207 C1147 1.288 . S
C3212 C341 1.192 . S
C3223 C354 1.205 . S
C3228 C1240 1.286 . S
C3239 C564 1.285 . S
C3244 C369 1.218 . S
C3255 C887 1.296 . S
C3260 C382 1.282 . S
C3271 C395 1.207 . S
C3276 C536 1.286 . S
C3287 C408 1.283 . S
C3292 C551 1.294 . S
C3303 C421 1.271 . S
C3308 C55 1.300 . S
C3319 C432 1.282 . S
C3324 C1004 1.295 . S
C3335 C81 1.285 . S
C3340 C445 1.228 . S
C3351 C458 1.282 . S
C3356 C1030 1.293 . S
C3367 C5 1.301 . S
C3372 C471 1.232 . S
C3383 C484 1.276 . S
C3388 C952 1.290 . S
C3399 C31 1.301 . S
C3404 C499 1.234 . S
C3415 C980 1.285 . S
C3420 C512 1.213 . S
C3431 C523 1.282 . S
C3436 C809 1.293 . S
C3447 C538 1.280 . S
C3452 C135 1.292 . S
C3463 C1084 1.301 . S
C3468 C549 1.241 . S
C3479 C562 1.280 . S
C3484 C109 1.297 . S
C3495 C120 1.285 . S
C3500 C575 1.225 . S
C3511 C588 1.192 . S
C3516 C1095 1.288 . S
C3527 C486 1.292 . S
C3532 C603 1.187 . S
C3543 C614 1.193 . S
C3548 C510 1.296 . S
C3559 C590 1.299 . S
C3564 C629 1.272 . S
C3575 C640 1.187 . S
C3580 C289 1.291 . S
C3591 C655 1.187 . S
C3596 C213 1.292 . S
C3607 C668 1.265 . S
C3612 C302 1.287 . S
C3623 C679 1.206 . S
C3628 C874 1.286 . S
C3639 C577 1.286 . S
C3644 C692 1.202 . S
C3655 C850 1.295 . S
C3660 C707 1.192 . S
C3671 C718 1.268 . S
C3676 C861 1.300 . S
C3687 C991 1.294 . S
C3692 C731 1.190 . S
C3703 C70 1.287 . S
C3708 C746 1.196 . S
C3719 C1017 1.285 . S
C3724 C757 1.222 . S
C3735 C772 1.282 . S
C3740 C94 1.293 . S
C3751 C941 1.285 . S
C3756 C783 1.227 . S
C3767 C796 1.195 . S
C3772 C18 1.287 . S
C3783 C967 1.290 . S
C3788 C811 1.188 . S
C3799 C44 1.292 . S
C3804 C822 1.187 . S
C3815 C497 1.293 . S
C3820 C837 1.188 . S
C3831 C848 1.282 . S
C3836 C1071 1.295 . S
C3847 C863 1.209 . S
C3852 C146 1.299 . S
C3863 C1043 1.299 . S
C3868 C876 1.274 . S
C3879 C889 1.192 . S
C3884 C1056 1.295 . S
C3895 C159 1.291 . S
C3900 C900 1.187 . S
C3911 C798 1.295 . S
C3916 C915 1.283 . S
C3927 C926 1.233 . S
C3932 C824 1.301 . S
C3943 C939 1.271 . S
C3948 C278 1.289 . S
C3959 C601 1.285 . S
C3964 C954 1.241 . S
C3975 C525 1.294 . S
C3980 C965 1.189 . S
C3991 C978 1.223 . S
C3996 C616 1.285 . S
C4007 C993 1.266 . S
C4012 C1188 1.288 . S
C4023 C265 1.291 . S
C4028 C1006 1.187 . S
C4039 C1160 1.292 . S
C4044 C1019 1.280 . S
C4055 C1173 1.286 . S
C4060 C1032 1.206 . S
C4071 C681 1.287 . S
C4076 C1045 1.195 . S
C4087 C1058 1.196 . S
C4092 C380 1.297 . S
C4103 C1069 1.189 . S
C4108 C705 1.289 . S
C4119 C1082 1.189 . S
C4124 C406 1.294 . S
C4135 C627 1.288 . S
C4140 C1097 1.195 . S
C4151 C1108 1.279 . S
C4156 C330 1.291 . S
C4167 C1123 1.276 . S
C4172 C653 1.290 . S
C4183 C1134 1.266 . S
C4188 C356 1.288 . S
C4199 C185 1.296 . S
C4204 C1149 1.193 . S
C4215 C1162 1.280 . S
C4220 C759 1.297 . S
C4231 C1175 1.237 . S
C4236 C460 1.285 . S
C4247 C1186 1.274 . S
C4252 C733 1.299 . S
C4263 C1201 1.215 . S
C4268 C744 1.300 . S
C4279 C473 1.291 . S
C4284 C1212 1.279 . S
C4295 C1110 1.298 . S
C4300 C1227 1.205 . S
C4311 C1136 1.300 . S
C4316 C1238 1.213 . S
