# Generated by pormake.
# Topology uoj, (4)-cn, num edge types: 1
# Building blocks:
#     Node 0, Type 0, BuildingBlock: KOZSID_clean_sbu_0, # of connection points: 4
#     Node 1, Type 0, BuildingBlock: KOZSID_clean_sbu_0, # of connection points: 4
#     Node 2, Type 0, BuildingBlock: KOZSID_clean_sbu_0, # of connection points: 4
#     Node 3, Type 0, BuildingBlock: KOZSID_clean_sbu_0, # of connection points: 4
#     Node 4, Type 0, BuildingBlock: KOZSID_clean_sbu_0, # of connection points: 4
#     Node 5, Type 0, BuildingBlock: KOZSID_clean_sbu_0, # of connection points: 4
#     Node 6, Type 0, BuildingBlock: KOZSID_clean_sbu_0, # of connection points: 4
#     Node 7, Type 0, BuildingBlock: KOZSID_clean_sbu_0, # of connection points: 4
#     Edge 8, Type (0, 0), BuildingBlock: CIFDUS_clean_linker_0, # of connection points: 2
#     Edge 9, Type (0, 0), BuildingBlock: CIFDUS_clean_linker_0, # of connection points: 2
#     Edge 10, Type (0, 0), BuildingBlock: CIFDUS_clean_linker_0, # of connection points: 2
#     Edge 11, Type (0, 0), BuildingBlock: CIFDUS_clean_linker_0, # of connection points: 2
#     Edge 12, Type (0, 0), BuildingBlock: CIFDUS_clean_linker_0, # of connection points: 2
#     Edge 13, Type (0, 0), BuildingBlock: CIFDUS_clean_linker_0, # of connection points: 2
#     Edge 14, Type (0, 0), BuildingBlock: CIFDUS_clean_linker_0, # of connection points: 2
#     Edge 15, Type (0, 0), BuildingBlock: CIFDUS_clean_linker_0, # of connection points: 2
#     Edge 16, Type (0, 0), BuildingBlock: CIFDUS_clean_linker_0, # of connection points: 2
#     Edge 17, Type (0, 0), BuildingBlock: CIFDUS_clean_linker_0, # of connection points: 2
#     Edge 18, Type (0, 0), BuildingBlock: CIFDUS_clean_linker_0, # of connection points: 2
#     Edge 19, Type (0, 0), BuildingBlock: CIFDUS_clean_linker_0, # of connection points: 2
#     Edge 20, Type (0, 0), BuildingBlock: CIFDUS_clean_linker_0, # of connection points: 2
#     Edge 21, Type (0, 0), BuildingBlock: CIFDUS_clean_linker_0, # of connection points: 2
#     Edge 22, Type (0, 0), BuildingBlock: CIFDUS_clean_linker_0, # of connection points: 2
#     Edge 23, Type (0, 0), BuildingBlock: CIFDUS_clean_linker_0, # of connection points: 2
# Relax obj value: 0.036
# Max RMSD: 0.321
# Mean RMSD: 0.299
data_MOF--net-uoj--node1-KOZSID_clean_sbu_0--edge1-CIFDUS_clean_linker_0
_symmetry_space_group_name_H-M    P1
_symmetry_Int_Tables_number       1
_symmetry_cell_setting            triclinic
loop_
_symmetry_equiv_pos_as_xyz
'x, y, z'
_cell_length_a     34.005788
_cell_length_b     36.220608
_cell_length_c     42.82032
_cell_angle_alpha  89.884393
_cell_angle_beta   89.964185
_cell_angle_gamma 94.550311
loop_
_atom_site_label
_atom_site_type_symbol
_atom_site_fract_x
_atom_site_fract_y
_atom_site_fract_z
_atom_type_partial_charge
C0 C 0.14214 0.32427 0.39246 0.0
C1 C 0.17376 0.34986 0.3984 0.0
C2 C 0.16879 0.36269 0.42818 0.0
C3 C 0.13448 0.34433 0.43883 0.0
N4 N 0.11794 0.32013 0.41785 0.0
Co5 Co 0.06547 0.29203 0.42305 0.0
N6 N 0.06359 0.30161 0.46889 0.0
C7 C 0.08656 0.32741 0.4843 0.0
C8 C 0.07932 0.32698 0.51591 0.0
C9 C 0.04983 0.29922 0.52061 0.0
C10 C 0.04061 0.28425 0.49153 0.0
N11 N 1.01248 0.26502 0.4278 0.0
C12 C 0.99299 0.25226 0.45375 0.0
C13 C 0.95553 0.23654 0.44645 0.0
C14 C 0.95168 0.23908 0.41478 0.0
C15 C 0.98671 0.25634 0.4046 0.0
N16 N 0.06664 0.28109 0.37741 0.0
C17 C 0.03565 0.26774 0.36006 0.0
C18 C 0.04482 0.26226 0.32937 0.0
C19 C 0.08393 0.27353 0.32686 0.0
C20 C 0.09645 0.28565 0.35631 0.0
N21 N 0.09202 0.24642 0.43211 0.0
C22 C 0.13557 0.18473 0.44508 0.0
C23 C 0.1016 0.1811 0.42616 0.0
C24 C 0.08038 0.21242 0.41974 0.0
C25 C 0.14621 0.21951 0.45789 0.0
C26 C 0.12419 0.24947 0.45143 0.0
N27 N 0.04107 0.33924 0.41488 0.0
C28 C 0.05055 0.39988 0.39084 0.0
C29 C 0.02891 0.41596 0.41446 0.0
C30 C 1.01002 0.39148 0.43647 0.0
C31 C 1.01626 0.35341 0.43617 0.0
C32 C 0.05556 0.36186 0.39117 0.0
H33 H 1.00289 0.33595 0.45436 0.0
H34 H 0.07395 0.35166 0.37333 0.0
H35 H 0.05496 0.20926 0.40459 0.0
H36 H 0.13383 0.27539 0.46209 0.0
C37 C 0.11821 0.34707 0.46889 0.0
C38 C 0.13408 0.30759 0.36145 0.0
C39 C 1.0084 0.2553 0.48563 0.0
C40 C 0.99901 0.25841 0.37364 0.0
H41 H 0.1973 0.35906 0.38249 0.0
H42 H 0.18789 0.38305 0.44052 0.0
H43 H 0.0946 0.34387 0.53363 0.0
H44 H 0.03658 0.29105 0.5428 0.0
H45 H 0.93338 0.22424 0.4623 0.0
H46 H 0.92702 0.22808 0.40075 0.0
H47 H 1.02535 0.25153 0.31096 0.0
H48 H 0.10074 0.27449 0.30537 0.0
H49 H 0.09218 0.15464 0.41575 0.0
H50 H 0.17177 0.22366 0.47296 0.0
H51 H 0.06584 0.41663 0.373 0.0
H52 H 0.99141 0.40164 0.45452 0.0
C53 C 0.4017 0.96941 0.58351 0.0
C54 C 0.43146 0.95689 0.56493 0.0
C55 C 0.4163 0.92504 0.55101 0.0
C56 C 0.378 0.92034 0.56105 0.0
N57 N 0.36764 0.94746 0.58019 0.0
Co58 Co 0.31289 0.95363 0.59517 0.0
N59 N 0.29404 0.90232 0.58231 0.0
C60 C 0.31612 0.87729 0.56923 0.0
C61 C 0.29822 0.84203 0.56921 0.0
C62 C 0.262 0.84513 0.58238 0.0
C63 C 0.25931 0.88252 0.58848 0.0
N64 N 0.25692 0.96031 0.60764 0.0
C65 C 0.22298 0.93801 0.60272 0.0
C66 C 0.19002 0.95774 0.60745 0.0
C67 C 0.20342 0.99292 0.61574 0.0
C68 C 0.24367 0.99332 0.6151 0.0
N69 N 0.33345 1.00376 0.61032 0.0
C70 C 0.31112 0.03015 0.62078 0.0
C71 C 0.33285 0.05991 0.63348 0.0
C72 C 0.37145 0.05195 0.6307 0.0
C73 C 0.37135 1.01799 0.61568 0.0
N74 N 0.29911 0.97477 0.55389 0.0
C75 C 0.25563 1.01919 0.51426 0.0
C76 C 0.29236 0.0326 0.52656 0.0
C77 C 0.31401 1.00972 0.54558 0.0
C78 C 0.24475 0.98126 0.51835 0.0
C79 C 0.26704 0.95959 0.5377 0.0
N80 N 0.32521 0.93437 0.63722 0.0
C81 C 0.31822 0.94022 0.69316 0.0
C82 C 0.34687 0.91533 0.6988 0.0
C83 C 0.36322 0.8987 0.67264 0.0
C84 C 0.35201 0.90856 0.64212 0.0
C85 C 0.30815 0.94938 0.6627 0.0
H86 H 0.36579 0.89589 0.62265 0.0
H87 H 0.28714 0.96967 0.6602 0.0
H88 H 0.34125 1.02162 0.55549 0.0
H89 H 0.25609 0.93132 0.54121 0.0
C90 C 0.35361 0.88787 0.55776 0.0
C91 C 0.40747 1.00134 0.6047 0.0
C92 C 0.22127 0.89912 0.59139 0.0
C93 C 0.27002 1.02417 0.62105 0.0
H94 H 0.46138 0.9689 0.56209 0.0
H95 H 0.4319 0.90664 0.53645 0.0
H96 H 0.30978 0.81719 0.56017 0.0
H97 H 0.2388 0.823 0.58447 0.0
H98 H 0.15935 0.94883 0.60409 0.0
H99 H 0.18582 1.01588 0.62056 0.0
H100 H 0.32193 0.08399 0.64444 0.0
H101 H 0.39655 0.06933 0.63899 0.0
H102 H 0.30329 0.06125 0.52339 0.0
H103 H 0.21806 0.96856 0.50785 0.0
H104 H 0.30375 0.95321 0.7123 0.0
H105 H 0.38543 0.87916 0.67562 0.0
C106 C 0.92015 0.72464 0.38665 0.0
C107 C 0.88954 0.69847 0.39409 0.0
C108 C 0.89618 0.68683 0.42393 0.0
C109 C 0.93024 0.70661 0.4332 0.0
N110 N 0.94508 0.73078 0.41139 0.0
Co111 Co 0.99615 0.7618 0.41509 0.0
N112 N 1.0017 0.75116 0.46079 0.0
C113 C 0.98018 0.72462 0.47675 0.0
C114 C 0.99088 0.72263 0.50759 0.0
C115 C 1.02124 0.74951 0.51139 0.0
C116 C 1.02735 0.76663 0.48261 0.0
N117 N 0.0477 0.79227 0.41832 0.0
C118 C 0.06694 0.80699 0.44376 0.0
C119 C 0.09764 0.83259 0.43497 0.0
C120 C 0.09941 0.83215 0.40326 0.0
C121 C 0.06898 0.80751 0.39428 0.0
N122 N 0.99061 0.77417 0.36963 0.0
C123 C 1.01868 0.79189 0.35164 0.0
C124 C 1.00724 0.79752 0.32157 0.0
C125 C 0.96973 0.78163 0.31988 0.0
C126 C 0.96023 0.76688 0.34927 0.0
N127 N 0.96748 0.80545 0.42633 0.0
C128 C 0.92703 0.86665 0.44607 0.0
C129 C 0.95882 0.87118 0.42502 0.0
C130 C 0.97828 0.84028 0.41518 0.0
C131 C 0.9158 0.83078 0.45655 0.0
C132 C 0.93638 0.80095 0.44671 0.0
N133 N 1.02314 0.71633 0.4047 0.0
C134 C 1.01737 0.65846 0.37614 0.0
C135 C 0.03684 0.64016 0.39969 0.0
C136 C 0.05276 0.662 0.42446 0.0
C137 C 0.04639 0.70007 0.42612 0.0
C138 C 1.01127 0.69605 0.3789 0.0
H139 H 0.05866 0.71564 0.44571 0.0
H140 H 0.99443 0.7075 0.36077 0.0
H141 H 1.00226 0.84477 0.39885 0.0
H142 H 0.92722 0.77426 0.45628 0.0
C143 C 0.94821 0.70452 0.46252 0.0
C144 C 0.92643 0.73963 0.35474 0.0
C145 C 0.05984 0.79525 0.47638 0.0
C146 C 0.05441 0.80545 0.36414 0.0
H147 H 0.8657 0.68795 0.37902 0.0
H148 H 0.87847 0.66615 0.43717 0.0
H149 H 0.97783 0.70416 0.52533 0.0
H150 H 0.03737 0.75549 0.5328 0.0
H151 H 0.11685 0.85005 0.44986 0.0
H152 H 0.11875 0.84977 0.38846 0.0
H153 H 1.02424 0.81141 0.30299 0.0
H154 H 0.95263 0.77992 0.29868 0.0
H155 H 0.96852 0.8984 0.41611 0.0
H156 H 0.89191 0.8258 0.47316 0.0
H157 H 1.00471 0.64345 0.35624 0.0
H158 H 0.06946 0.64972 0.44274 0.0
C159 C 0.65024 0.07743 0.57525 0.0
C160 C 0.62255 0.08059 0.55174 0.0
C161 C 0.63741 0.10801 0.53225 0.0
C162 C 0.67353 0.11943 0.54446 0.0
N163 N 0.68295 0.10103 0.57041 0.0
Co164 Co 0.73646 0.10388 0.59058 0.0
N165 N 0.75614 0.14768 0.56435 0.0
C166 C 0.73583 0.16307 0.54137 0.0
C167 C 0.75612 0.19233 0.52678 0.0
C168 C 0.792 0.19571 0.541 0.0
C169 C 0.7916 0.16819 0.56374 0.0
N170 N 0.79101 0.10536 0.60894 0.0
C171 C 0.82469 0.12709 0.60199 0.0
C172 C 0.85626 0.11704 0.61968 0.0
C173 C 0.84221 0.08804 0.63817 0.0
C174 C 0.80295 0.08202 0.63081 0.0
N175 N 0.71544 0.06144 0.61783 0.0
C176 C 0.73626 0.04509 0.63991 0.0
C177 C 0.7137 1.02058 0.65821 0.0
C178 C 0.67604 1.0214 0.64718 0.0
C179 C 0.67766 0.04596 0.6222 0.0
N180 N 0.75413 0.06876 0.55863 0.0
C181 C 0.78823 1.01389 0.52227 0.0
C182 C 0.75234 1.0062 0.53831 0.0
C183 C 0.73566 0.0339 0.55576 0.0
C184 C 0.80498 0.05051 0.52338 0.0
C185 C 0.78782 0.0771 0.54156 0.0
N186 N 0.71981 0.13793 0.62394 0.0
C187 C 0.74018 0.17399 0.66961 0.0
C188 C 0.70323 0.16627 0.68391 0.0
C189 C 0.67355 0.14785 0.66567 0.0
C190 C 0.68227 0.13446 0.6359 0.0
C191 C 0.74747 0.16041 0.63963 0.0
H192 H 0.65854 0.12012 0.62348 0.0
H193 H 0.77634 0.1669 0.63011 0.0
H194 H 0.70839 0.02637 0.5677 0.0
H195 H 0.80306 0.10403 0.54219 0.0
C196 C 0.69874 0.148 0.5327 0.0
C197 C 0.64293 0.05358 0.60286 0.0
C198 C 0.82739 0.15916 0.58056 0.0
C199 C 0.77624 0.05545 0.64426 0.0
H200 H 0.59426 0.06504 0.5491 0.0
H201 H 0.62348 0.11849 0.51169 0.0
H202 H 0.74653 0.20837 0.50724 0.0
H203 H 0.81631 0.21498 0.53398 0.0
H204 H 0.88614 0.12981 0.61962 0.0
H205 H 0.85862 0.07333 0.65517 0.0
H206 H 0.72326 1.00489 0.67796 0.0
H207 H 0.65044 1.00608 0.65704 0.0
H208 H 0.73759 0.97862 0.53847 0.0
H209 H 0.83169 0.05888 0.5106 0.0
H210 H 0.76423 0.18894 0.6819 0.0
H211 H 0.64374 0.14298 0.67449 0.0
C212 C 0.40668 0.76271 0.98794 0.0
C213 C 0.37376 0.75967 1.0073 0.0
C214 C 0.37356 0.79225 0.02309 0.0
C215 C 0.40579 0.81349 1.01218 0.0
N216 N 0.42637 0.79686 0.9901 0.0
Co217 Co 0.4732 0.82009 0.96652 0.0
N218 N 0.4711 0.8685 0.98914 0.0
C219 C 0.44804 0.87459 1.01389 0.0
C220 C 0.45532 0.90887 0.02709 0.0
C221 C 0.48476 0.92605 1.0095 0.0
C222 C 0.4933 0.90136 0.98616 0.0
N223 N 0.51895 0.84463 0.94234 0.0
C224 C 0.53376 0.88099 0.94091 0.0
C225 C 0.56312 0.88583 0.91844 0.0
C226 C 0.56735 0.8517 0.90575 0.0
C227 C 0.54014 0.82791 0.92078 0.0
N228 N 0.47607 0.77101 0.94515 0.0
C229 C 0.50343 0.76314 0.924 0.0
C230 C 0.50005 0.72685 0.91448 0.0
C231 C 0.46861 0.7105 0.93075 0.0
C232 C 0.45439 0.73785 0.94926 0.0
N233 N 0.43736 0.83579 0.93273 0.0
C234 C 0.40636 0.8507 0.87275 0.0
C235 C 0.39728 0.81662 0.88785 0.0
C236 C 0.41263 0.80994 0.91761 0.0
C237 C 0.42743 0.87845 0.8902 0.0
C238 C 0.44167 0.87068 0.92011 0.0
N239 N 0.51028 0.80289 0.99883 0.0
C240 C 0.57619 0.80603 0.02119 0.0
C241 C 0.57031 0.76966 0.03298 0.0
C242 C 0.53258 0.75171 0.02917 0.0
C243 C 0.50336 0.76866 1.01247 0.0
C244 C 0.54597 0.82209 1.00454 0.0
H245 H 0.47568 0.7529 1.00992 0.0
H246 H 0.5523 0.84962 0.9954 0.0
H247 H 0.40556 0.78306 0.92745 0.0
H248 H 0.45748 0.89291 0.93206 0.0
C249 C 0.41805 0.84861 0.02281 0.0
C250 C 0.42003 0.73129 0.97025 0.0
C251 C 0.52049 0.91155 0.96034 0.0
C252 C 0.53173 0.79051 0.91379 0.0
H253 H 0.35261 0.73601 1.01038 0.0
H254 H 0.35271 0.79943 0.04076 0.0
H255 H 0.44041 0.92028 0.04676 0.0
H256 H 0.4978 0.95397 1.01301 0.0
H257 H 0.57949 0.9113 0.91148 0.0
H258 H 0.58715 0.84521 0.8871 0.0
H259 H 0.5184 0.71376 0.89782 0.0
H260 H 0.45746 0.68175 0.92921 0.0
H261 H 0.37914 0.79466 0.87655 0.0
H262 H 0.4347 0.90575 0.8805 0.0
H263 H 0.60448 0.82167 0.02365 0.0
H264 H 0.52553 0.72428 0.03872 0.0
C265 C 0.73812 0.60548 0.11031 0.0
C266 C 0.70405 0.58976 0.12444 0.0
C267 C 0.71221 0.55536 0.13483 0.0
C268 C 0.7508 0.55191 0.12674 0.0
N269 N 0.7678 0.58228 0.11244 0.0
Co270 Co 0.82273 0.58676 0.09551 0.0
N271 N 0.83859 0.54221 0.11862 0.0
C272 C 0.81339 0.51672 0.13251 0.0
C273 C 0.83228 0.49035 0.1484 0.0
C274 C 0.87182 0.49949 0.14393 0.0
C275 C 0.87514 0.53075 0.125 0.0
N276 N 0.87739 0.59109 0.078 0.0
C277 C 0.91026 0.57408 0.08603 0.0
C278 C 0.94079 0.58307 0.06503 0.0
C279 C 0.92701 0.60693 0.04372 0.0
C280 C 0.88886 0.61087 0.05246 0.0
N281 N 0.80786 0.63166 0.07233 0.0
C282 C 0.82849 0.64801 0.04849 0.0
C283 C 0.81153 0.67765 0.03593 0.0
C284 C 0.77752 0.68004 0.05243 0.0
C285 C 0.77553 0.6515 0.07434 0.0
N286 N 0.83981 0.61755 0.13183 0.0
C287 C 0.86143 0.65865 0.18601 0.0
C288 C 0.87247 0.67202 0.15607 0.0
C289 C 0.86172 0.65081 0.12926 0.0
C290 C 0.83924 0.62465 0.18794 0.0
C291 C 0.82855 0.605 0.16094 0.0
N292 N 0.80389 0.55442 0.06032 0.0
C293 C 0.74691 0.53067 0.03059 0.0
C294 C 0.76242 0.49627 0.02748 0.0
C295 C 0.80091 0.49282 0.03822 0.0
C296 C 0.82143 0.52245 0.05405 0.0
C297 C 0.76821 0.55941 0.04667 0.0
H298 H 0.85018 0.51824 0.0634 0.0
H299 H 0.75395 0.58448 0.05025 0.0
H300 H 0.87093 0.66127 0.10655 0.0
H301 H 0.81078 0.5795 0.16398 0.0
C302 C 0.77312 0.5223 0.13466 0.0
C303 C 0.73965 0.64078 0.09258 0.0
C304 C 0.91304 0.54722 0.1117 0.0
C305 C 0.86483 0.63627 0.03973 0.0
H306 H 0.67591 0.60158 0.12638 0.0
H307 H 0.69242 0.5354 0.14708 0.0
H308 H 0.819 0.4681 0.16276 0.0
H309 H 0.89536 0.48476 0.15372 0.0
H310 H 0.9699 0.57306 0.0646 0.0
H311 H 0.94317 0.62035 0.02449 0.0
H312 H 0.82244 0.69531 1.01688 0.0
H313 H 0.75593 0.69964 0.04764 0.0
H314 H 0.88964 0.69832 0.15345 0.0
H315 H 0.82936 0.61345 0.21035 0.0
H316 H 0.71729 0.53454 0.0226 0.0
H317 H 0.81407 0.46666 0.03619 0.0
C318 C 0.65274 0.28383 0.97768 0.0
C319 C 0.68747 0.28682 0.9949 0.0
C320 C 0.68835 0.25483 1.01161 0.0
C321 C 0.65467 0.23393 1.00328 0.0
N322 N 0.63261 0.25022 0.98195 0.0
Co323 Co 0.584 0.22706 0.96102 0.0
N324 N 0.58694 0.17945 0.98472 0.0
C325 C 0.61091 0.17409 1.00906 0.0
C326 C 0.60376 0.14036 0.02337 0.0
C327 C 0.57352 0.12278 1.00691 0.0
C328 C 0.56442 0.1467 0.98307 0.0
N329 N 0.53729 0.202 0.93866 0.0
C330 C 0.52348 0.16538 0.93758 0.0
C331 C 0.49351 0.15984 0.91573 0.0
C332 C 0.48786 0.1938 0.90313 0.0
C333 C 0.51492 0.2182 0.91755 0.0
N334 N 0.57956 0.27573 0.93934 0.0
C335 C 0.55061 0.28342 0.91955 0.0
C336 C 0.55271 0.31985 0.91032 0.0
C337 C 0.58496 0.33645 0.92538 0.0
C338 C 0.60089 0.30909 0.9429 0.0
N339 N 0.6178 0.21026 0.92627 0.0
C340 C 0.64499 0.19003 0.86629 0.0
C341 C 0.64983 0.22674 0.87692 0.0
C342 C 0.63719 0.23593 0.90692 0.0
C343 C 0.63061 0.16321 0.88816 0.0
C344 C 0.6175 0.17379 0.91774 0.0
N345 N 0.54891 0.24568 0.99428 0.0
C346 C 0.4821 0.25088 1.01355 0.0
C347 C 0.49245 0.28635 0.02576 0.0
C348 C 0.5325 0.29879 0.0248 0.0
C349 C 0.55989 0.27822 1.00947 0.0
C350 C 0.51069 0.23096 0.99824 0.0
H351 H 0.5895 0.29043 1.00878 0.0
H352 H 0.50103 0.20445 0.9884 0.0
H353 H 0.64191 0.26442 0.91349 0.0
H354 H 0.60626 0.15209 0.93297 0.0
C355 C 0.64225 0.19965 1.01584 0.0
C356 C 0.63726 0.31545 0.96157 0.0
C357 C 0.53765 0.13546 0.95732 0.0
C358 C 0.52217 0.25572 0.91029 0.0
H359 H 0.70912 0.31032 0.99634 0.0
H360 H 0.71047 0.24795 0.02836 0.0
H361 H 0.61955 0.12935 0.04279 0.0
H362 H 0.56068 0.09493 1.01122 0.0
H363 H 0.47757 0.13404 0.90917 0.0
H364 H 0.46725 0.19978 0.8849 0.0
H365 H 0.53306 0.33286 0.89459 0.0
H366 H 0.59566 0.36531 0.92352 0.0
H367 H 0.66165 0.24894 0.86188 0.0
H368 H 0.62854 0.13404 0.88244 0.0
H369 H 0.45174 0.23937 1.01425 0.0
H370 H 0.54266 0.32523 0.03493 0.0
C371 C 0.31318 0.42965 0.11102 0.0
C372 C 0.3458 0.43975 0.12936 0.0
C373 C 0.33579 0.46852 0.14771 0.0
C374 C 0.29771 0.47437 0.13961 0.0
N375 N 0.28278 0.45116 0.11737 0.0
Co376 Co 0.22901 0.45244 0.09797 0.0
N377 N 0.21291 0.4928 0.12633 0.0
C378 C 0.23578 0.5094 0.14866 0.0
C379 C 0.21629 0.53304 0.167 0.0
C380 C 0.17857 0.53139 0.15565 0.0
C381 C 0.17711 0.50716 0.13055 0.0
N382 N 0.17641 0.45507 0.0769 0.0
C383 C 0.14609 0.47667 0.0826 0.0
C384 C 0.11814 0.47349 0.05891 0.0
C385 C 0.13048 0.44839 0.03815 0.0
C386 C 0.16541 0.43813 0.04996 0.0
N387 N 0.2437 0.41097 0.07023 0.0
C388 C 0.22261 0.39712 0.0457 0.0
C389 C 0.23929 0.36897 0.03057 0.0
C390 C 0.27352 0.3647 0.04619 0.0
C391 C 0.27583 0.39069 0.07008 0.0
N392 N 0.20652 0.41585 0.12974 0.0
C393 C 0.18371 0.38654 0.18922 0.0
C394 C 0.15684 0.4031 0.16978 0.0
C395 C 0.1686 0.41709 0.14034 0.0
C396 C 0.22041 0.38034 0.1761 0.0
C397 C 0.2307 0.39429 0.14625 0.0
N398 N 0.25265 0.49014 0.06794 0.0
C399 C 0.31013 0.51443 0.0386 0.0
C400 C 0.29653 0.54984 0.03802 0.0
C401 C 0.25918 0.55419 0.05066 0.0
C402 C 0.23759 0.52404 0.06509 0.0
C403 C 0.28774 0.48507 0.0533 0.0
H404 H 0.20959 0.52897 0.07531 0.0
H405 H 0.30033 0.4589 0.05411 0.0
H406 H 0.14699 0.43023 0.1272 0.0
H407 H 0.2592 0.38885 0.13765 0.0
C408 C 0.27445 0.5001 0.1531 0.0
C409 C 0.31135 0.39794 0.0893 0.0
C410 C 0.14154 0.49913 0.11081 0.0
C411 C 0.18768 0.41158 0.03708 0.0
H412 H 0.37364 0.42719 0.12977 0.0
H413 H 0.35396 0.48308 0.16521 0.0
H414 H 0.22782 0.54883 0.18687 0.0
H415 H 0.1549 0.54612 0.16518 0.0
H416 H 0.09142 0.48765 0.05685 0.0
H417 H 0.11561 0.43859 1.01705 0.0
H418 H 0.22827 0.35388 1.01017 0.0
H419 H 0.29512 0.34567 0.0398 0.0
H420 H 0.12701 0.40641 0.17751 0.0
H421 H 0.24209 0.36647 0.18925 0.0
H422 H 0.33887 0.5098 0.02914 0.0
H423 H 0.24749 0.58116 0.05071 0.0
H424 H 0.20826 0.32992 0.22679 0.0
H425 H 0.13782 0.4241 0.22898 0.0
H426 H 0.12013 0.41048 0.28297 0.0
H427 H 0.12134 0.37013 0.3293 0.0
H428 H 0.19139 0.27634 0.32808 0.0
H429 H 0.21372 0.29235 0.27482 0.0
C430 C 0.18943 0.34784 0.23903 0.0
C431 C 0.17392 0.37769 0.22299 0.0
C432 C 0.17969 0.34024 0.27072 0.0
C433 C 0.14935 0.4002 0.23983 0.0
C434 C 0.13952 0.39275 0.27108 0.0
C435 C 0.14245 0.35391 0.31766 0.0
C436 C 0.15538 0.32253 0.33283 0.0
C437 C 0.15415 0.36269 0.28671 0.0
C438 C 0.18181 0.3011 0.31717 0.0
C439 C 0.19409 0.30999 0.28653 0.0
H440 H 0.36497 0.84979 0.727 0.0
H441 H 0.3588 0.9663 0.74545 0.0
H442 H 0.37463 0.95665 0.80006 0.0
H443 H 0.3887 0.91544 0.84333 0.0
H444 H 0.39958 0.79947 0.825 0.0
H445 H 0.38286 0.80868 0.7704 0.0
C446 C 0.36747 0.87313 0.74287 0.0
C447 C 0.3599 0.90867 0.73182 0.0
C448 C 0.37701 0.8675 0.77468 0.0
C449 C 0.36336 0.93844 0.75309 0.0
C450 C 0.37266 0.93302 0.78449 0.0
C451 C 0.38797 0.89207 0.82753 0.0
C452 C 0.39524 0.85665 0.83902 0.0
C453 C 0.37922 0.89765 0.79569 0.0
C454 C 0.39327 0.82696 0.8176 0.0
C455 C 0.3841 0.83225 0.78602 0.0
H456 H 0.88379 0.76352 0.30483 0.0
H457 H 0.9333 0.66669 0.3419 0.0
H458 H 0.91736 0.63321 0.29352 0.0
H459 H 0.89368 0.63257 0.23911 0.0
H460 H 0.85102 0.73126 0.19946 0.0
H461 H 0.86168 0.7634 0.24953 0.0
C462 C 0.8909 0.73502 0.30229 0.0
C463 C 0.91001 0.71781 0.32704 0.0
C464 C 0.88394 0.71661 0.27349 0.0
C465 C 0.91854 0.68069 0.32345 0.0
C466 C 0.90987 0.66163 0.29556 0.0
C467 C 0.88683 0.66118 0.2414 0.0
C468 C 0.87164 0.6795 0.21545 0.0
C469 C 0.89345 0.67955 0.27016 0.0
C470 C 0.86319 0.71665 0.21883 0.0
C471 C 0.86889 0.73489 0.2476 0.0
H472 H 0.69738 0.22543 0.82377 0.0
H473 H 0.6101 0.13229 0.83152 0.0
H474 H 0.62093 0.1167 0.77728 0.0
H475 H 0.65419 0.12936 0.72698 0.0
H476 H 0.73628 0.22606 0.71759 0.0
H477 H 0.72777 0.24023 0.77264 0.0
C478 C 0.68017 0.20194 0.81379 0.0
C479 C 0.65307 0.18009 0.83266 0.0
C480 C 0.68546 0.19362 0.78185 0.0
C481 C 0.632 0.14936 0.81856 0.0
C482 C 0.63777 0.14054 0.78712 0.0
C483 C 0.66984 0.15396 0.73663 0.0
C484 C 0.6961 0.17634 0.71756 0.0
C485 C 0.66426 0.16254 0.76844 0.0
C486 C 0.71647 0.20764 0.73131 0.0
C487 C 0.71142 0.21601 0.76297 0.0
H488 H 0.27253 0.08203 0.47802 0.0
H489 H 0.17469 1.01458 0.5179 0.0
H490 H 0.1288 0.05688 0.49747 0.0
H491 H 0.11597 0.11606 0.4713 0.0
H492 H 0.2141 0.18473 0.43384 0.0
H493 H 0.25962 0.13949 0.4502 0.0
C494 C 0.24122 0.07643 0.48233 0.0
C495 C 0.22761 0.0446 0.49955 0.0
C496 C 0.21461 0.10145 0.4709 0.0
C497 C 0.18654 0.03814 0.50431 0.0
C498 C 0.16001 0.06265 0.49281 0.0
C499 C 0.14721 0.12069 0.4662 0.0
C500 C 0.16147 0.15381 0.4512 0.0
C501 C 0.17362 0.0947 0.47635 0.0
C502 C 0.20224 0.15955 0.44528 0.0
C503 C 0.22839 0.13369 0.45477 0.0
H504 H 0.2177 0.86244 0.53523 0.0
H505 H 0.14254 0.8894 0.61173 0.0
H506 H 0.08501 0.8618 0.58322 0.0
H507 H 0.05616 0.82991 0.5347 0.0
H508 H 0.13714 0.78224 0.4717 0.0
H509 H 0.19279 0.8148 0.49833 0.0
C510 C 0.18919 0.86144 0.54664 0.0
C511 C 0.18504 0.88004 0.57535 0.0
C512 C 0.15718 0.84071 0.53258 0.0
C513 C 0.14699 0.87814 0.58875 0.0
C514 C 0.114 0.8612 0.57282 0.0
C515 C 0.086 0.8258 0.52737 0.0
C516 C 0.09221 0.80532 0.49989 0.0
C517 C 0.11866 0.84246 0.54443 0.0
C518 C 0.1313 0.79908 0.49182 0.0
C519 C 0.16325 0.8179 0.50693 0.0
H520 H 0.868 1.00883 0.51209 0.0
H521 H 0.75442 0.95089 0.49331 0.0
H522 H 0.78688 0.90114 0.46846 0.0
H523 H 0.84761 0.87298 0.45247 0.0
H524 H 0.96063 0.93275 0.46796 0.0
H525 H 0.92813 0.98322 0.49247 0.0
C526 C 0.84998 0.98584 0.50209 0.0
C527 C 0.80837 0.98409 0.5052 0.0
C528 C 0.86885 0.95746 0.4869 0.0
C529 C 0.78631 0.95317 0.49232 0.0
C530 C 0.80491 0.92462 0.4777 0.0
C531 C 0.86514 0.89714 0.4611 0.0
C532 C 0.90665 0.89888 0.45839 0.0
C533 C 0.84617 0.92628 0.47506 0.0
C534 C 0.92873 0.93068 0.46941 0.0
C535 C 0.91012 0.95948 0.48367 0.0
H536 H 0.89246 0.13512 0.55113 0.0
H537 H 0.84863 0.23212 0.59228 0.0
H538 H 0.9041 0.27089 0.57006 0.0
H539 H 0.95993 0.27826 0.53234 0.0
H540 H 1.00476 0.18089 0.49261 0.0
H541 H 0.95505 0.14144 0.52101 0.0
C542 C 0.89577 0.16458 0.55599 0.0
C543 C 0.86614 0.18072 0.57314 0.0
C544 C 0.92798 0.1868 0.54307 0.0
C545 C 0.87088 0.21901 0.57911 0.0
C546 C 0.90254 0.24125 0.56621 0.0
C547 C 0.95987 0.24837 0.53099 0.0
C548 C 0.98654 0.23259 0.51061 0.0
C549 C 0.93066 0.22568 0.54728 0.0
C550 C 0.98512 0.19374 0.50847 0.0
C551 C 0.9563 0.17114 0.52446 0.0
H552 H 0.30714 0.58257 0.98 0.0
H553 H 0.34668 0.59044 0.07546 0.0
H554 H 0.39135 0.64463 0.06241 0.0
H555 H 0.41729 0.69172 0.02444 0.0
H556 H 0.37635 0.68645 0.92936 0.0
H557 H 0.33517 0.62925 0.94118 0.0
C558 C 0.32566 0.59622 0.99782 0.0
C559 C 0.32347 0.58265 0.02876 0.0
C560 C 0.35136 0.62771 0.99007 0.0
C561 C 0.34771 0.60048 0.05159 0.0
C562 C 0.37334 0.63141 0.0441 0.0
C563 C 0.39979 0.67765 1.00621 0.0
C564 C 0.4001 0.69321 0.97598 0.0
C565 C 0.37527 0.64547 1.0135 0.0
C566 C 0.37702 0.67485 0.95267 0.0
C567 C 0.35314 0.64233 0.95956 0.0
H568 H 0.72025 0.71222 0.10326 0.0
H569 H 0.676 0.60962 0.06064 0.0
H570 H 0.61959 0.63955 0.03964 0.0
H571 H 0.58507 0.69587 0.03008 0.0
H572 H 0.63009 0.79936 0.07127 0.0
H573 H 0.68391 0.76853 0.09524 0.0
C574 C 0.69779 0.69632 0.08987 0.0
C575 C 0.70217 0.65842 0.08404 0.0
C576 C 0.66584 0.71415 0.07693 0.0
C577 C 0.67312 0.63848 0.06608 0.0
C578 C 0.64101 0.65577 0.05374 0.0
C579 C 0.6062 0.71177 0.04467 0.0
C580 C 0.603 0.75027 0.04859 0.0
C581 C 0.63733 0.69374 0.05855 0.0
C582 C 0.63162 0.77002 0.06722 0.0
C583 C 0.66245 0.75225 0.08123 0.0
H584 H 0.74799 0.46553 0.96917 0.0
H585 H 0.71714 0.4529 0.0664 0.0
H586 H 0.6725 0.39849 0.05429 0.0
H587 H 0.644 0.35278 1.0165 0.0
H588 H 0.67641 0.36253 0.91951 0.0
H589 H 0.71757 0.41989 0.93064 0.0
C590 C 0.73144 0.45074 0.98758 0.0
C591 C 0.73605 0.463 1.01872 0.0
C592 C 0.70571 0.41914 0.98038 0.0
C593 C 0.71426 0.44379 0.04235 0.0
C594 C 0.68862 0.41276 0.03541 0.0
C595 C 0.65962 0.36785 0.99775 0.0
C596 C 0.65691 0.35357 0.96716 0.0
C597 C 0.68423 0.40003 1.00458 0.0
C598 C 0.67759 0.37318 0.94314 0.0
C599 C 0.70148 0.40577 0.94961 0.0
H600 H 0.42638 0.27066 0.06344 0.0
H601 H 0.49007 0.36005 1.01345 0.0
H602 H 0.44267 0.40276 0.03065 0.0
H603 H 0.38092 0.41505 0.05811 0.0
H604 H 0.31665 0.32649 0.10809 0.0
H605 H 0.36597 0.2838 0.09317 0.0
C606 C 0.42991 0.29946 0.05631 0.0
C607 C 0.4623 0.3118 0.03717 0.0
C608 C 0.40229 0.32439 0.06654 0.0
C609 C 0.46609 0.34951 0.02847 0.0
C610 C 0.43876 0.37414 0.03823 0.0
C611 C 0.37829 0.38662 0.06631 0.0
C612 C 0.34541 0.37417 0.08465 0.0
C613 C 0.40664 0.36201 0.05721 0.0
C614 C 0.34197 0.33694 0.09443 0.0
C615 C 0.37004 0.31241 0.08561 0.0
H616 H 0.02977 0.58851 0.44756 0.0
H617 H 0.04876 0.59767 0.34808 0.0
H618 H 0.04541 0.53052 0.34369 0.0
H619 H 0.03543 0.46887 0.36732 0.0
H620 H 1.02155 0.45876 0.46737 0.0
H621 H 1.02349 0.52591 0.47184 0.0
C622 C 0.03378 0.57591 0.42496 0.0
C623 C 0.03914 0.59872 0.39817 0.0
C624 C 0.03205 0.53672 0.42249 0.0
C625 C 0.04384 0.58133 0.36912 0.0
C626 C 0.04203 0.54268 0.36654 0.0
C627 C 0.03338 0.48096 0.39031 0.0
C628 C 0.02819 0.45773 0.4169 0.0
C629 C 0.03579 0.52001 0.39298 0.0
C630 C 1.02465 0.47505 0.44618 0.0
C631 C 1.02629 0.51383 0.4489 0.0
H632 H 0.57646 0.09209 0.605 0.0
H633 H 0.61324 0.98154 0.61547 0.0
H634 H 0.5447 0.9578 0.62371 0.0
H635 H 0.47323 0.96719 0.62285 0.0
H636 H 0.43724 0.07402 0.59536 0.0
H637 H 0.50535 0.10033 0.5991 0.0
C638 C 0.5696 0.06275 0.60919 0.0
C639 C 0.60078 0.039 0.61056 0.0
C640 C 0.5296 0.04858 0.61079 0.0
C641 C 0.59069 1.00101 0.61569 0.0
C642 C 0.55116 0.98723 0.61982 0.0
C643 C 0.48018 0.99637 0.61795 0.0
C644 C 0.4492 1.01871 0.61008 0.0
C645 C 0.52023 1.01062 0.61684 0.0
C646 C 0.45943 0.05629 0.60317 0.0
C647 C 0.49881 0.07128 0.60461 0.0
H648 H 0.58837 0.08074 0.94973 0.0
H649 H 0.46432 0.0969 0.95436 0.0
H650 H 0.4485 0.02991 0.95095 0.0
H651 H 0.46982 0.966 0.95134 0.0
H652 H 0.59386 0.94988 0.95593 0.0
H653 H 0.60971 1.01679 0.95081 0.0
C654 C 0.5578 0.06964 0.94958 0.0
C655 C 0.52758 0.0944 0.95146 0.0
C656 C 0.54894 0.0307 0.94946 0.0
C657 C 0.48823 0.07911 0.95177 0.0
C658 C 0.47918 0.04056 0.95031 0.0
C659 C 0.50039 0.97708 0.95083 0.0
C660 C 0.5306 0.95238 0.95329 0.0
C661 C 0.50926 1.01599 0.94971 0.0
C662 C 0.56995 0.96763 0.95303 0.0
C663 C 0.57902 1.00613 0.95057 0.0
H664 H 0.06911 0.45973 0.11402 0.0
H665 H 0.12297 0.57113 0.12118 0.0
H666 H 0.05786 0.59455 0.12744 0.0
H667 H 0.98467 0.5843 0.12605 0.0
H668 H 0.93178 0.47457 0.10708 0.0
H669 H 0.99635 0.44984 0.11048 0.0
C670 C 0.06668 0.48915 0.11726 0.0
C671 C 0.10153 0.51337 0.11794 0.0
C672 C 0.02874 0.50282 0.11864 0.0
C673 C 0.09728 0.55147 0.1217 0.0
C674 C 0.05978 0.56501 0.1248 0.0
C675 C 0.98719 0.55484 0.12319 0.0
C676 C 0.95257 0.53129 0.11755 0.0
C677 C 1.02517 0.54106 0.12278 0.0
C678 C 0.95703 0.49334 0.11297 0.0
C679 C 0.99432 0.47919 0.11432 0.0
loop_
_geom_bond_atom_site_label_1
_geom_bond_atom_site_label_2
_geom_bond_distance
_geom_bond_site_symmetry_2
_ccdc_geom_bond_type
C0 C1 1.443 . S
C0 N4 1.376 . S
C0 C38 1.389 . S
C1 C0 1.443 . S
C1 C2 1.340 . S
C1 H41 0.951 . S
C2 C1 1.340 . S
C2 C3 1.439 . S
C2 H42 0.950 . S
C3 C2 1.439 . S
C3 N4 1.374 . S
C3 C37 1.395 . S
N4 C0 1.376 . S
N4 C3 1.374 . S
N4 Co5 2.008 . S
Co5 N4 2.008 . S
Co5 N6 1.995 . S
Co5 N11 2.008 1_455 S
Co5 N16 1.995 . S
Co5 N21 2.282 . S
Co5 N27 2.284 1_455 S
N6 Co5 1.995 . S
N6 C7 1.376 . S
N6 C10 1.381 1_455 S
C7 N6 1.376 . S
C7 C8 1.446 . S
C7 C37 1.391 . S
C8 C7 1.446 . S
C8 C9 1.339 . S
C8 H43 0.949 . S
C9 C8 1.339 . S
C9 C10 1.438 1_455 S
C9 H44 0.950 1_455 S
C10 N6 1.381 1_655 S
C10 C9 1.438 1_655 S
C10 C39 1.395 . S
N11 Co5 2.008 1_655 S
N11 C12 1.376 . S
N11 C15 1.374 . S
C12 N11 1.376 . S
C12 C13 1.443 . S
C12 C39 1.389 . S
C13 C12 1.443 . S
C13 C14 1.340 . S
C13 H45 0.951 . S
C14 C13 1.340 . S
C14 C15 1.439 . S
C14 H46 0.950 . S
C15 N11 1.374 . S
C15 C14 1.439 . S
C15 C40 1.395 . S
N16 Co5 1.995 . S
N16 C17 1.376 . S
N16 C20 1.383 . S
C17 N16 1.376 . S
C17 C18 1.446 . S
C17 C40 1.391 1_455 S
C18 C17 1.446 . S
C18 C19 1.339 . S
C18 H47 0.949 . S
C19 C18 1.339 . S
C19 C20 1.439 . S
C19 H48 0.950 . S
C20 N16 1.383 . S
C20 C19 1.439 . S
C20 C38 1.392 . S
N21 Co5 2.282 . S
N21 C24 1.332 . S
N21 C26 1.332 . S
C22 C23 1.386 . S
C22 C25 1.388 . S
C23 C22 1.386 . S
C23 C24 1.382 . S
C23 H49 0.950 . S
C24 N21 1.332 . S
C24 C23 1.382 . S
C24 H35 0.952 . S
C25 C22 1.388 . S
C25 C26 1.382 . S
C25 H50 0.950 . S
C26 N21 1.332 . S
C26 C25 1.382 . S
C26 H36 0.948 . S
N27 Co5 2.284 1_655 S
N27 C31 1.332 1_655 S
N27 C32 1.331 . S
C28 C29 1.388 . S
C28 C32 1.382 . S
C28 H51 0.950 . S
C29 C28 1.388 . S
C29 C30 1.386 . S
C30 C29 1.386 . S
C30 C31 1.382 1_655 S
C30 H52 0.950 1_655 S
C31 N27 1.332 1_455 S
C31 C30 1.382 1_455 S
C31 H33 0.952 . S
C32 N27 1.331 . S
C32 C28 1.382 . S
C32 H34 0.948 . S
H33 C31 0.952 . S
H34 C32 0.948 . S
H35 C24 0.952 . S
H36 C26 0.948 . S
C37 C3 1.395 . S
C37 C7 1.391 . S
C38 C0 1.389 . S
C38 C20 1.392 . S
C39 C10 1.395 . S
C39 C12 1.389 . S
C40 C15 1.395 . S
C40 C17 1.391 1_655 S
H41 C1 0.951 . S
H42 C2 0.950 . S
H43 C8 0.949 . S
H44 C9 0.950 1_655 S
H45 C13 0.951 . S
H46 C14 0.950 . S
H47 C18 0.949 . S
H48 C19 0.950 . S
H49 C23 0.950 . S
H50 C25 0.950 . S
H51 C28 0.950 . S
H52 C30 0.950 1_455 S
C53 C54 1.443 . S
C53 N57 1.376 . S
C53 C91 1.389 . S
C54 C53 1.443 . S
C54 C55 1.340 . S
C54 H94 0.951 . S
C55 C54 1.340 . S
C55 C56 1.439 . S
C55 H95 0.950 . S
C56 C55 1.439 . S
C56 N57 1.374 . S
C56 C90 1.395 . S
N57 C53 1.376 . S
N57 C56 1.374 . S
N57 Co58 2.008 . S
Co58 N57 2.008 . S
Co58 N59 1.995 . S
Co58 N64 2.008 . S
Co58 N69 1.995 . S
Co58 N74 2.282 . S
Co58 N80 2.282 . S
N59 Co58 1.995 . S
N59 C60 1.376 . S
N59 C63 1.383 . S
C60 N59 1.376 . S
C60 C61 1.446 . S
C60 C90 1.391 . S
C61 C60 1.446 . S
C61 C62 1.339 . S
C61 H96 0.949 . S
C62 C61 1.339 . S
C62 C63 1.439 . S
C62 H97 0.950 . S
C63 N59 1.383 . S
C63 C62 1.439 . S
C63 C92 1.392 . S
N64 Co58 2.008 . S
N64 C65 1.376 . S
N64 C68 1.374 . S
C65 N64 1.376 . S
C65 C66 1.443 . S
C65 C92 1.389 . S
C66 C65 1.443 . S
C66 C67 1.340 . S
C66 H98 0.951 . S
C67 C66 1.340 . S
C67 C68 1.439 . S
C67 H99 0.950 . S
C68 N64 1.374 . S
C68 C67 1.439 . S
C68 C93 1.395 . S
N69 Co58 1.995 . S
N69 C70 1.376 . S
N69 C73 1.383 . S
C70 N69 1.376 . S
C70 C71 1.446 1_565 S
C70 C93 1.391 . S
C71 C70 1.446 1_545 S
C71 C72 1.339 . S
C71 H100 0.949 . S
C72 C71 1.339 . S
C72 C73 1.439 1_545 S
C72 H101 0.950 . S
C73 N69 1.383 . S
C73 C72 1.439 1_565 S
C73 C91 1.392 . S
N74 Co58 2.282 . S
N74 C77 1.332 1_565 S
N74 C79 1.332 . S
C75 C76 1.386 . S
C75 C78 1.388 1_545 S
C76 C75 1.386 . S
C76 C77 1.382 . S
C76 H102 0.950 . S
C77 N74 1.332 1_545 S
C77 C76 1.382 . S
C77 H88 0.952 . S
C78 C75 1.388 1_565 S
C78 C79 1.382 . S
C78 H103 0.950 . S
C79 N74 1.332 . S
C79 C78 1.382 . S
C79 H89 0.948 . S
N80 Co58 2.282 . S
N80 C84 1.332 . S
N80 C85 1.332 . S
C81 C82 1.388 . S
C81 C85 1.382 . S
C81 H104 0.950 . S
C82 C81 1.388 . S
C82 C83 1.386 . S
C83 C82 1.386 . S
C83 C84 1.382 . S
C83 H105 0.950 . S
C84 N80 1.332 . S
C84 C83 1.382 . S
C84 H86 0.952 . S
C85 N80 1.332 . S
C85 C81 1.382 . S
C85 H87 0.948 . S
H86 C84 0.952 . S
H87 C85 0.948 . S
H88 C77 0.952 . S
H89 C79 0.948 . S
C90 C56 1.395 . S
C90 C60 1.391 . S
C91 C53 1.389 . S
C91 C73 1.392 . S
C92 C63 1.392 . S
C92 C65 1.389 . S
C93 C68 1.395 . S
C93 C70 1.391 . S
H94 C54 0.951 . S
H95 C55 0.950 . S
H96 C61 0.949 . S
H97 C62 0.950 . S
H98 C66 0.951 . S
H99 C67 0.950 . S
H100 C71 0.949 . S
H101 C72 0.950 . S
H102 C76 0.950 . S
H103 C78 0.950 . S
H104 C81 0.950 . S
H105 C83 0.950 . S
C106 C107 1.443 . S
C106 N110 1.376 . S
C106 C144 1.389 . S
C107 C106 1.443 . S
C107 C108 1.340 . S
C107 H147 0.951 . S
C108 C107 1.340 . S
C108 C109 1.439 . S
C108 H148 0.950 . S
C109 C108 1.439 . S
C109 N110 1.374 . S
C109 C143 1.395 . S
N110 C106 1.376 . S
N110 C109 1.374 . S
N110 Co111 2.008 . S
Co111 N110 2.008 . S
Co111 N112 1.995 . S
Co111 N117 2.008 1_655 S
Co111 N122 1.995 . S
Co111 N127 2.282 . S
Co111 N133 2.284 1_655 S
N112 Co111 1.995 . S
N112 C113 1.376 . S
N112 C116 1.381 1_655 S
C113 N112 1.376 . S
C113 C114 1.446 . S
C113 C143 1.391 . S
C114 C113 1.446 . S
C114 C115 1.339 . S
C114 H149 0.949 . S
C115 C114 1.339 . S
C115 C116 1.438 1_655 S
C115 H150 0.950 1_655 S
C116 N112 1.381 1_455 S
C116 C115 1.438 1_455 S
C116 C145 1.395 . S
N117 Co111 2.008 1_455 S
N117 C118 1.376 . S
N117 C121 1.374 . S
C118 N117 1.376 . S
C118 C119 1.443 . S
C118 C145 1.389 . S
C119 C118 1.443 . S
C119 C120 1.340 . S
C119 H151 0.951 . S
C120 C119 1.340 . S
C120 C121 1.439 . S
C120 H152 0.950 . S
C121 N117 1.374 . S
C121 C120 1.439 . S
C121 C146 1.395 . S
N122 Co111 1.995 . S
N122 C123 1.376 . S
N122 C126 1.383 . S
C123 N122 1.376 . S
C123 C124 1.446 . S
C123 C146 1.391 1_655 S
C124 C123 1.446 . S
C124 C125 1.339 . S
C124 H153 0.949 . S
C125 C124 1.339 . S
C125 C126 1.439 . S
C125 H154 0.950 . S
C126 N122 1.383 . S
C126 C125 1.439 . S
C126 C144 1.392 . S
N127 Co111 2.282 . S
N127 C130 1.332 . S
N127 C132 1.332 . S
C128 C129 1.386 . S
C128 C131 1.388 . S
C129 C128 1.386 . S
C129 C130 1.382 . S
C129 H155 0.950 . S
C130 N127 1.332 . S
C130 C129 1.382 . S
C130 H141 0.952 . S
C131 C128 1.388 . S
C131 C132 1.382 . S
C131 H156 0.950 . S
C132 N127 1.332 . S
C132 C131 1.382 . S
C132 H142 0.948 . S
N133 Co111 2.284 1_455 S
N133 C137 1.332 1_455 S
N133 C138 1.331 . S
C134 C135 1.388 . S
C134 C138 1.382 . S
C134 H157 0.950 . S
C135 C134 1.388 . S
C135 C136 1.386 . S
C136 C135 1.386 . S
C136 C137 1.382 1_455 S
C136 H158 0.950 1_455 S
C137 N133 1.332 1_655 S
C137 C136 1.382 1_655 S
C137 H139 0.952 . S
C138 N133 1.331 . S
C138 C134 1.382 . S
C138 H140 0.948 . S
H139 C137 0.952 . S
H140 C138 0.948 . S
H141 C130 0.952 . S
H142 C132 0.948 . S
C143 C109 1.395 . S
C143 C113 1.391 . S
C144 C106 1.389 . S
C144 C126 1.392 . S
C145 C116 1.395 . S
C145 C118 1.389 . S
C146 C121 1.395 . S
C146 C123 1.391 1_455 S
H147 C107 0.951 . S
H148 C108 0.950 . S
H149 C114 0.949 . S
H150 C115 0.950 1_455 S
H151 C119 0.951 . S
H152 C120 0.950 . S
H153 C124 0.949 . S
H154 C125 0.950 . S
H155 C129 0.950 . S
H156 C131 0.950 . S
H157 C134 0.950 . S
H158 C136 0.950 1_655 S
C159 C160 1.443 . S
C159 N163 1.376 . S
C159 C197 1.389 . S
C160 C159 1.443 . S
C160 C161 1.340 . S
C160 H200 0.951 . S
C161 C160 1.340 . S
C161 C162 1.439 . S
C161 H201 0.950 . S
C162 C161 1.439 . S
C162 N163 1.374 . S
C162 C196 1.395 . S
N163 C159 1.376 . S
N163 C162 1.374 . S
N163 Co164 2.008 . S
Co164 N163 2.008 . S
Co164 N165 1.995 . S
Co164 N170 2.008 . S
Co164 N175 1.995 . S
Co164 N180 2.282 . S
Co164 N186 2.282 . S
N165 Co164 1.995 . S
N165 C166 1.376 . S
N165 C169 1.383 . S
C166 N165 1.376 . S
C166 C167 1.446 . S
C166 C196 1.391 . S
C167 C166 1.446 . S
C167 C168 1.339 . S
C167 H202 0.949 . S
C168 C167 1.339 . S
C168 C169 1.439 . S
C168 H203 0.950 . S
C169 N165 1.383 . S
C169 C168 1.439 . S
C169 C198 1.392 . S
N170 Co164 2.008 . S
N170 C171 1.376 . S
N170 C174 1.374 . S
C171 N170 1.376 . S
C171 C172 1.443 . S
C171 C198 1.389 . S
C172 C171 1.443 . S
C172 C173 1.340 . S
C172 H204 0.951 . S
C173 C172 1.340 . S
C173 C174 1.439 . S
C173 H205 0.950 . S
C174 N170 1.374 . S
C174 C173 1.439 . S
C174 C199 1.395 . S
N175 Co164 1.995 . S
N175 C176 1.376 . S
N175 C179 1.383 . S
C176 N175 1.376 . S
C176 C177 1.446 1_545 S
C176 C199 1.391 . S
C177 C176 1.446 1_565 S
C177 C178 1.339 . S
C177 H206 0.949 . S
C178 C177 1.339 . S
C178 C179 1.439 1_565 S
C178 H207 0.950 . S
C179 N175 1.383 . S
C179 C178 1.439 1_545 S
C179 C197 1.392 . S
N180 Co164 2.282 . S
N180 C183 1.332 1_545 S
N180 C185 1.332 . S
C181 C182 1.386 . S
C181 C184 1.388 1_565 S
C182 C181 1.386 . S
C182 C183 1.382 . S
C182 H208 0.950 . S
C183 N180 1.332 1_565 S
C183 C182 1.382 . S
C183 H194 0.952 . S
C184 C181 1.388 1_545 S
C184 C185 1.382 . S
C184 H209 0.950 . S
C185 N180 1.332 . S
C185 C184 1.382 . S
C185 H195 0.948 . S
N186 Co164 2.282 . S
N186 C190 1.332 . S
N186 C191 1.332 . S
C187 C188 1.388 . S
C187 C191 1.382 . S
C187 H210 0.950 . S
C188 C187 1.388 . S
C188 C189 1.386 . S
C189 C188 1.386 . S
C189 C190 1.382 . S
C189 H211 0.950 . S
C190 N186 1.332 . S
C190 C189 1.382 . S
C190 H192 0.952 . S
C191 N186 1.332 . S
C191 C187 1.382 . S
C191 H193 0.948 . S
H192 C190 0.952 . S
H193 C191 0.948 . S
H194 C183 0.952 . S
H195 C185 0.948 . S
C196 C162 1.395 . S
C196 C166 1.391 . S
C197 C159 1.389 . S
C197 C179 1.392 . S
C198 C169 1.392 . S
C198 C171 1.389 . S
C199 C174 1.395 . S
C199 C176 1.391 . S
H200 C160 0.951 . S
H201 C161 0.950 . S
H202 C167 0.949 . S
H203 C168 0.950 . S
H204 C172 0.951 . S
H205 C173 0.950 . S
H206 C177 0.949 . S
H207 C178 0.950 . S
H208 C182 0.950 . S
H209 C184 0.950 . S
H210 C187 0.950 . S
H211 C189 0.950 . S
C212 C213 1.443 . S
C212 N216 1.376 . S
C212 C250 1.389 . S
C213 C212 1.443 . S
C213 C214 1.340 1_556 S
C213 H253 0.951 . S
C214 C213 1.340 1_554 S
C214 C215 1.439 1_554 S
C214 H254 0.950 . S
C215 C214 1.439 1_556 S
C215 N216 1.374 . S
C215 C249 1.395 . S
N216 C212 1.376 . S
N216 C215 1.374 . S
N216 Co217 2.008 . S
Co217 N216 2.008 . S
Co217 N218 1.995 . S
Co217 N223 2.008 . S
Co217 N228 1.995 . S
Co217 N233 2.282 . S
Co217 N239 2.282 . S
N218 Co217 1.995 . S
N218 C219 1.376 . S
N218 C222 1.383 . S
C219 N218 1.376 . S
C219 C220 1.446 . S
C219 C249 1.391 . S
C220 C219 1.446 . S
C220 C221 1.339 . S
C220 H255 0.949 . S
C221 C220 1.339 . S
C221 C222 1.439 . S
C221 H256 0.950 . S
C222 N218 1.383 . S
C222 C221 1.439 . S
C222 C251 1.392 . S
N223 Co217 2.008 . S
N223 C224 1.376 . S
N223 C227 1.374 . S
C224 N223 1.376 . S
C224 C225 1.443 . S
C224 C251 1.389 . S
C225 C224 1.443 . S
C225 C226 1.340 . S
C225 H257 0.951 . S
C226 C225 1.340 . S
C226 C227 1.439 . S
C226 H258 0.950 . S
C227 N223 1.374 . S
C227 C226 1.439 . S
C227 C252 1.395 . S
N228 Co217 1.995 . S
N228 C229 1.376 . S
N228 C232 1.383 . S
C229 N228 1.376 . S
C229 C230 1.446 . S
C229 C252 1.391 . S
C230 C229 1.446 . S
C230 C231 1.339 . S
C230 H259 0.949 . S
C231 C230 1.339 . S
C231 C232 1.439 . S
C231 H260 0.950 . S
C232 N228 1.383 . S
C232 C231 1.439 . S
C232 C250 1.392 . S
N233 Co217 2.282 . S
N233 C236 1.332 . S
N233 C238 1.332 . S
C234 C235 1.386 . S
C234 C237 1.388 . S
C235 C234 1.386 . S
C235 C236 1.382 . S
C235 H261 0.950 . S
C236 N233 1.332 . S
C236 C235 1.382 . S
C236 H247 0.952 . S
C237 C234 1.388 . S
C237 C238 1.382 . S
C237 H262 0.950 . S
C238 N233 1.332 . S
C238 C237 1.382 . S
C238 H248 0.948 . S
N239 Co217 2.282 . S
N239 C243 1.332 . S
N239 C244 1.332 . S
C240 C241 1.388 1_556 S
C240 C244 1.382 . S
C240 H263 0.950 . S
C241 C240 1.388 1_554 S
C241 C242 1.386 . S
C242 C241 1.386 . S
C242 C243 1.382 1_554 S
C242 H264 0.950 . S
C243 N239 1.332 . S
C243 C242 1.382 1_556 S
C243 H245 0.952 . S
C244 N239 1.332 . S
C244 C240 1.382 . S
C244 H246 0.948 . S
H245 C243 0.952 . S
H246 C244 0.948 . S
H247 C236 0.952 . S
H248 C238 0.948 . S
C249 C215 1.395 . S
C249 C219 1.391 . S
C250 C212 1.389 . S
C250 C232 1.392 . S
C251 C222 1.392 . S
C251 C224 1.389 . S
C252 C227 1.395 . S
C252 C229 1.391 . S
H253 C213 0.951 . S
H254 C214 0.950 . S
H255 C220 0.949 . S
H256 C221 0.950 . S
H257 C225 0.951 . S
H258 C226 0.950 . S
H259 C230 0.949 . S
H260 C231 0.950 . S
H261 C235 0.950 . S
H262 C237 0.950 . S
H263 C240 0.950 . S
H264 C242 0.950 . S
C265 C266 1.443 . S
C265 N269 1.376 . S
C265 C303 1.389 . S
C266 C265 1.443 . S
C266 C267 1.340 . S
C266 H306 0.951 . S
C267 C266 1.340 . S
C267 C268 1.439 . S
C267 H307 0.950 . S
C268 C267 1.439 . S
C268 N269 1.374 . S
C268 C302 1.395 . S
N269 C265 1.376 . S
N269 C268 1.374 . S
N269 Co270 2.008 . S
Co270 N269 2.008 . S
Co270 N271 1.995 . S
Co270 N276 2.008 . S
Co270 N281 1.995 . S
Co270 N286 2.282 . S
Co270 N292 2.282 . S
N271 Co270 1.995 . S
N271 C272 1.376 . S
N271 C275 1.383 . S
C272 N271 1.376 . S
C272 C273 1.446 . S
C272 C302 1.391 . S
C273 C272 1.446 . S
C273 C274 1.339 . S
C273 H308 0.949 . S
C274 C273 1.339 . S
C274 C275 1.439 . S
C274 H309 0.950 . S
C275 N271 1.383 . S
C275 C274 1.439 . S
C275 C304 1.392 . S
N276 Co270 2.008 . S
N276 C277 1.376 . S
N276 C280 1.374 . S
C277 N276 1.376 . S
C277 C278 1.443 . S
C277 C304 1.389 . S
C278 C277 1.443 . S
C278 C279 1.340 . S
C278 H310 0.951 . S
C279 C278 1.340 . S
C279 C280 1.439 . S
C279 H311 0.950 . S
C280 N276 1.374 . S
C280 C279 1.439 . S
C280 C305 1.395 . S
N281 Co270 1.995 . S
N281 C282 1.376 . S
N281 C285 1.383 . S
C282 N281 1.376 . S
C282 C283 1.446 . S
C282 C305 1.391 . S
C283 C282 1.446 . S
C283 C284 1.339 . S
C283 H312 0.949 . S
C284 C283 1.339 . S
C284 C285 1.439 . S
C284 H313 0.950 . S
C285 N281 1.383 . S
C285 C284 1.439 . S
C285 C303 1.392 . S
N286 Co270 2.282 . S
N286 C289 1.332 . S
N286 C291 1.332 . S
C287 C288 1.386 . S
C287 C290 1.388 . S
C288 C287 1.386 . S
C288 C289 1.382 . S
C288 H314 0.950 . S
C289 N286 1.332 . S
C289 C288 1.382 . S
C289 H300 0.952 . S
C290 C287 1.388 . S
C290 C291 1.382 . S
C290 H315 0.950 . S
C291 N286 1.332 . S
C291 C290 1.382 . S
C291 H301 0.948 . S
N292 Co270 2.282 . S
N292 C296 1.332 . S
N292 C297 1.332 . S
C293 C294 1.388 . S
C293 C297 1.382 . S
C293 H316 0.950 1_554 S
C294 C293 1.388 . S
C294 C295 1.386 . S
C295 C294 1.386 . S
C295 C296 1.382 . S
C295 H317 0.950 . S
C296 N292 1.332 . S
C296 C295 1.382 . S
C296 H298 0.952 . S
C297 N292 1.332 . S
C297 C293 1.382 . S
C297 H299 0.948 . S
H298 C296 0.952 . S
H299 C297 0.948 . S
H300 C289 0.952 . S
H301 C291 0.948 . S
C302 C268 1.395 . S
C302 C272 1.391 . S
C303 C265 1.389 . S
C303 C285 1.392 . S
C304 C275 1.392 . S
C304 C277 1.389 . S
C305 C280 1.395 . S
C305 C282 1.391 . S
H306 C266 0.951 . S
H307 C267 0.950 . S
H308 C273 0.949 . S
H309 C274 0.950 . S
H310 C278 0.951 . S
H311 C279 0.950 . S
H312 C283 0.949 . S
H313 C284 0.950 . S
H314 C288 0.950 . S
H315 C290 0.950 . S
H316 C293 0.950 1_556 S
H317 C295 0.950 . S
C318 C319 1.443 . S
C318 N322 1.376 . S
C318 C356 1.389 . S
C319 C318 1.443 . S
C319 C320 1.340 1_556 S
C319 H359 0.951 . S
C320 C319 1.340 1_554 S
C320 C321 1.439 1_554 S
C320 H360 0.950 . S
C321 C320 1.439 1_556 S
C321 N322 1.374 . S
C321 C355 1.395 . S
N322 C318 1.376 . S
N322 C321 1.374 . S
N322 Co323 2.008 . S
Co323 N322 2.008 . S
Co323 N324 1.995 . S
Co323 N329 2.008 . S
Co323 N334 1.995 . S
Co323 N339 2.282 . S
Co323 N345 2.282 . S
N324 Co323 1.995 . S
N324 C325 1.376 . S
N324 C328 1.383 . S
C325 N324 1.376 . S
C325 C326 1.446 . S
C325 C355 1.391 . S
C326 C325 1.446 . S
C326 C327 1.339 . S
C326 H361 0.949 . S
C327 C326 1.339 . S
C327 C328 1.439 . S
C327 H362 0.950 . S
C328 N324 1.383 . S
C328 C327 1.439 . S
C328 C357 1.392 . S
N329 Co323 2.008 . S
N329 C330 1.376 . S
N329 C333 1.374 . S
C330 N329 1.376 . S
C330 C331 1.443 . S
C330 C357 1.389 . S
C331 C330 1.443 . S
C331 C332 1.340 . S
C331 H363 0.951 . S
C332 C331 1.340 . S
C332 C333 1.439 . S
C332 H364 0.950 . S
C333 N329 1.374 . S
C333 C332 1.439 . S
C333 C358 1.395 . S
N334 Co323 1.995 . S
N334 C335 1.376 . S
N334 C338 1.383 . S
C335 N334 1.376 . S
C335 C336 1.446 . S
C335 C358 1.391 . S
C336 C335 1.446 . S
C336 C337 1.339 . S
C336 H365 0.949 . S
C337 C336 1.339 . S
C337 C338 1.439 . S
C337 H366 0.950 . S
C338 N334 1.383 . S
C338 C337 1.439 . S
C338 C356 1.392 . S
N339 Co323 2.282 . S
N339 C342 1.332 . S
N339 C344 1.332 . S
C340 C341 1.386 . S
C340 C343 1.388 . S
C341 C340 1.386 . S
C341 C342 1.382 . S
C341 H367 0.950 . S
C342 N339 1.332 . S
C342 C341 1.382 . S
C342 H353 0.952 . S
C343 C340 1.388 . S
C343 C344 1.382 . S
C343 H368 0.950 . S
C344 N339 1.332 . S
C344 C343 1.382 . S
C344 H354 0.948 . S
N345 Co323 2.282 . S
N345 C349 1.332 . S
N345 C350 1.332 . S
C346 C347 1.388 1_556 S
C346 C350 1.382 . S
C346 H369 0.950 . S
C347 C346 1.388 1_554 S
C347 C348 1.386 . S
C348 C347 1.386 . S
C348 C349 1.382 1_554 S
C348 H370 0.950 . S
C349 N345 1.332 . S
C349 C348 1.382 1_556 S
C349 H351 0.952 . S
C350 N345 1.332 . S
C350 C346 1.382 . S
C350 H352 0.948 . S
H351 C349 0.952 . S
H352 C350 0.948 . S
H353 C342 0.952 . S
H354 C344 0.948 . S
C355 C321 1.395 . S
C355 C325 1.391 . S
C356 C318 1.389 . S
C356 C338 1.392 . S
C357 C328 1.392 . S
C357 C330 1.389 . S
C358 C333 1.395 . S
C358 C335 1.391 . S
H359 C319 0.951 . S
H360 C320 0.950 . S
H361 C326 0.949 . S
H362 C327 0.950 . S
H363 C331 0.951 . S
H364 C332 0.950 . S
H365 C336 0.949 . S
H366 C337 0.950 . S
H367 C341 0.950 . S
H368 C343 0.950 . S
H369 C346 0.950 . S
H370 C348 0.950 . S
C371 C372 1.443 . S
C371 N375 1.376 . S
C371 C409 1.389 . S
C372 C371 1.443 . S
C372 C373 1.340 . S
C372 H412 0.951 . S
C373 C372 1.340 . S
C373 C374 1.439 . S
C373 H413 0.950 . S
C374 C373 1.439 . S
C374 N375 1.374 . S
C374 C408 1.395 . S
N375 C371 1.376 . S
N375 C374 1.374 . S
N375 Co376 2.008 . S
Co376 N375 2.008 . S
Co376 N377 1.995 . S
Co376 N382 2.008 . S
Co376 N387 1.995 . S
Co376 N392 2.282 . S
Co376 N398 2.282 . S
N377 Co376 1.995 . S
N377 C378 1.376 . S
N377 C381 1.383 . S
C378 N377 1.376 . S
C378 C379 1.446 . S
C378 C408 1.391 . S
C379 C378 1.446 . S
C379 C380 1.339 . S
C379 H414 0.949 . S
C380 C379 1.339 . S
C380 C381 1.439 . S
C380 H415 0.950 . S
C381 N377 1.383 . S
C381 C380 1.439 . S
C381 C410 1.392 . S
N382 Co376 2.008 . S
N382 C383 1.376 . S
N382 C386 1.374 . S
C383 N382 1.376 . S
C383 C384 1.443 . S
C383 C410 1.389 . S
C384 C383 1.443 . S
C384 C385 1.340 . S
C384 H416 0.951 . S
C385 C384 1.340 . S
C385 C386 1.439 . S
C385 H417 0.950 . S
C386 N382 1.374 . S
C386 C385 1.439 . S
C386 C411 1.395 . S
N387 Co376 1.995 . S
N387 C388 1.376 . S
N387 C391 1.383 . S
C388 N387 1.376 . S
C388 C389 1.446 . S
C388 C411 1.391 . S
C389 C388 1.446 . S
C389 C390 1.339 . S
C389 H418 0.949 . S
C390 C389 1.339 . S
C390 C391 1.439 . S
C390 H419 0.950 . S
C391 N387 1.383 . S
C391 C390 1.439 . S
C391 C409 1.392 . S
N392 Co376 2.282 . S
N392 C395 1.332 . S
N392 C397 1.332 . S
C393 C394 1.386 . S
C393 C396 1.388 . S
C394 C393 1.386 . S
C394 C395 1.382 . S
C394 H420 0.950 . S
C395 N392 1.332 . S
C395 C394 1.382 . S
C395 H406 0.952 . S
C396 C393 1.388 . S
C396 C397 1.382 . S
C396 H421 0.950 . S
C397 N392 1.332 . S
C397 C396 1.382 . S
C397 H407 0.948 . S
N398 Co376 2.282 . S
N398 C402 1.332 . S
N398 C403 1.332 . S
C399 C400 1.388 . S
C399 C403 1.382 . S
C399 H422 0.950 1_554 S
C400 C399 1.388 . S
C400 C401 1.386 . S
C401 C400 1.386 . S
C401 C402 1.382 . S
C401 H423 0.950 . S
C402 N398 1.332 . S
C402 C401 1.382 . S
C402 H404 0.952 . S
C403 N398 1.332 . S
C403 C399 1.382 . S
C403 H405 0.948 . S
H404 C402 0.952 . S
H405 C403 0.948 . S
H406 C395 0.952 . S
H407 C397 0.948 . S
C408 C374 1.395 . S
C408 C378 1.391 . S
C409 C371 1.389 . S
C409 C391 1.392 . S
C410 C381 1.392 . S
C410 C383 1.389 . S
C411 C386 1.395 . S
C411 C388 1.391 . S
H412 C372 0.951 . S
H413 C373 0.950 . S
H414 C379 0.949 . S
H415 C380 0.950 . S
H416 C384 0.951 . S
H417 C385 0.950 . S
H418 C389 0.949 . S
H419 C390 0.950 . S
H420 C394 0.950 . S
H421 C396 0.950 . S
H422 C399 0.950 1_556 S
H423 C401 0.950 . S
H424 C430 0.930 . S
H425 C433 0.930 . S
H426 C434 0.930 . S
H427 C435 0.930 . S
H428 C438 0.930 . S
H429 C439 0.930 . S
C430 H424 0.930 . S
C430 C431 1.355 . S
C430 C432 1.415 . S
C431 C430 1.355 . S
C431 C433 1.419 . S
C432 C430 1.415 . S
C432 C437 1.425 . S
C432 C439 1.409 . S
C433 H425 0.930 . S
C433 C431 1.419 . S
C433 C434 1.362 . S
C434 H426 0.930 . S
C434 C433 1.362 . S
C434 C437 1.409 . S
C435 H427 0.930 . S
C435 C436 1.355 . S
C435 C437 1.415 . S
C436 C435 1.355 . S
C436 C438 1.419 . S
C437 C432 1.425 . S
C437 C434 1.409 . S
C437 C435 1.415 . S
C438 H428 0.930 . S
C438 C436 1.419 . S
C438 C439 1.362 . S
C439 H429 0.930 . S
C439 C432 1.409 . S
C439 C438 1.362 . S
H440 C446 0.930 . S
H441 C449 0.930 . S
H442 C450 0.930 . S
H443 C451 0.930 . S
H444 C454 0.930 . S
H445 C455 0.930 . S
C446 H440 0.930 . S
C446 C447 1.355 . S
C446 C448 1.415 . S
C447 C446 1.355 . S
C447 C449 1.419 . S
C448 C446 1.415 . S
C448 C453 1.425 . S
C448 C455 1.409 . S
C449 H441 0.930 . S
C449 C447 1.419 . S
C449 C450 1.362 . S
C450 H442 0.930 . S
C450 C449 1.362 . S
C450 C453 1.409 . S
C451 H443 0.930 . S
C451 C452 1.355 . S
C451 C453 1.415 . S
C452 C451 1.355 . S
C452 C454 1.419 . S
C453 C448 1.425 . S
C453 C450 1.409 . S
C453 C451 1.415 . S
C454 H444 0.930 . S
C454 C452 1.419 . S
C454 C455 1.362 . S
C455 H445 0.930 . S
C455 C448 1.409 . S
C455 C454 1.362 . S
H456 C462 0.930 . S
H457 C465 0.930 . S
H458 C466 0.930 . S
H459 C467 0.930 . S
H460 C470 0.930 . S
H461 C471 0.930 . S
C462 H456 0.930 . S
C462 C463 1.355 . S
C462 C464 1.415 . S
C463 C462 1.355 . S
C463 C465 1.419 . S
C464 C462 1.415 . S
C464 C469 1.425 . S
C464 C471 1.409 . S
C465 H457 0.930 . S
C465 C463 1.419 . S
C465 C466 1.362 . S
C466 H458 0.930 . S
C466 C465 1.362 . S
C466 C469 1.409 . S
C467 H459 0.930 . S
C467 C468 1.355 . S
C467 C469 1.415 . S
C468 C467 1.355 . S
C468 C470 1.419 . S
C469 C464 1.425 . S
C469 C466 1.409 . S
C469 C467 1.415 . S
C470 H460 0.930 . S
C470 C468 1.419 . S
C470 C471 1.362 . S
C471 H461 0.930 . S
C471 C464 1.409 . S
C471 C470 1.362 . S
H472 C478 0.930 . S
H473 C481 0.930 . S
H474 C482 0.930 . S
H475 C483 0.930 . S
H476 C486 0.930 . S
H477 C487 0.930 . S
C478 H472 0.930 . S
C478 C479 1.355 . S
C478 C480 1.415 . S
C479 C478 1.355 . S
C479 C481 1.419 . S
C480 C478 1.415 . S
C480 C485 1.425 . S
C480 C487 1.409 . S
C481 H473 0.930 . S
C481 C479 1.419 . S
C481 C482 1.362 . S
C482 H474 0.930 . S
C482 C481 1.362 . S
C482 C485 1.409 . S
C483 H475 0.930 . S
C483 C484 1.355 . S
C483 C485 1.415 . S
C484 C483 1.355 . S
C484 C486 1.419 . S
C485 C480 1.425 . S
C485 C482 1.409 . S
C485 C483 1.415 . S
C486 H476 0.930 . S
C486 C484 1.419 . S
C486 C487 1.362 . S
C487 H477 0.930 . S
C487 C480 1.409 . S
C487 C486 1.362 . S
H488 C494 0.930 . S
H489 C497 0.930 1_565 S
H490 C498 0.930 . S
H491 C499 0.930 . S
H492 C502 0.930 . S
H493 C503 0.930 . S
C494 H488 0.930 . S
C494 C495 1.355 . S
C494 C496 1.415 . S
C495 C494 1.355 . S
C495 C497 1.419 . S
C496 C494 1.415 . S
C496 C501 1.425 . S
C496 C503 1.409 . S
C497 H489 0.930 1_545 S
C497 C495 1.419 . S
C497 C498 1.362 . S
C498 H490 0.930 . S
C498 C497 1.362 . S
C498 C501 1.409 . S
C499 H491 0.930 . S
C499 C500 1.355 . S
C499 C501 1.415 . S
C500 C499 1.355 . S
C500 C502 1.419 . S
C501 C496 1.425 . S
C501 C498 1.409 . S
C501 C499 1.415 . S
C502 H492 0.930 . S
C502 C500 1.419 . S
C502 C503 1.362 . S
C503 H493 0.930 . S
C503 C496 1.409 . S
C503 C502 1.362 . S
H504 C510 0.930 . S
H505 C513 0.930 . S
H506 C514 0.930 . S
H507 C515 0.930 . S
H508 C518 0.930 . S
H509 C519 0.930 . S
C510 H504 0.930 . S
C510 C511 1.355 . S
C510 C512 1.415 . S
C511 C510 1.355 . S
C511 C513 1.419 . S
C512 C510 1.415 . S
C512 C517 1.425 . S
C512 C519 1.409 . S
C513 H505 0.930 . S
C513 C511 1.419 . S
C513 C514 1.362 . S
C514 H506 0.930 . S
C514 C513 1.362 . S
C514 C517 1.409 . S
C515 H507 0.930 . S
C515 C516 1.355 . S
C515 C517 1.415 . S
C516 C515 1.355 . S
C516 C518 1.419 . S
C517 C512 1.425 . S
C517 C514 1.409 . S
C517 C515 1.415 . S
C518 H508 0.930 . S
C518 C516 1.419 . S
C518 C519 1.362 . S
C519 H509 0.930 . S
C519 C512 1.409 . S
C519 C518 1.362 . S
H520 C526 0.930 . S
H521 C529 0.930 . S
H522 C530 0.930 . S
H523 C531 0.930 . S
H524 C534 0.930 . S
H525 C535 0.930 . S
C526 H520 0.930 . S
C526 C527 1.355 . S
C526 C528 1.415 . S
C527 C526 1.355 . S
C527 C529 1.419 . S
C528 C526 1.415 . S
C528 C533 1.425 . S
C528 C535 1.409 . S
C529 H521 0.930 . S
C529 C527 1.419 . S
C529 C530 1.362 . S
C530 H522 0.930 . S
C530 C529 1.362 . S
C530 C533 1.409 . S
C531 H523 0.930 . S
C531 C532 1.355 . S
C531 C533 1.415 . S
C532 C531 1.355 . S
C532 C534 1.419 . S
C533 C528 1.425 . S
C533 C530 1.409 . S
C533 C531 1.415 . S
C534 H524 0.930 . S
C534 C532 1.419 . S
C534 C535 1.362 . S
C535 H525 0.930 . S
C535 C528 1.409 . S
C535 C534 1.362 . S
H536 C542 0.930 . S
H537 C545 0.930 . S
H538 C546 0.930 . S
H539 C547 0.930 . S
H540 C550 0.930 . S
H541 C551 0.930 . S
C542 H536 0.930 . S
C542 C543 1.355 . S
C542 C544 1.415 . S
C543 C542 1.355 . S
C543 C545 1.419 . S
C544 C542 1.415 . S
C544 C549 1.425 . S
C544 C551 1.409 . S
C545 H537 0.930 . S
C545 C543 1.419 . S
C545 C546 1.362 . S
C546 H538 0.930 . S
C546 C545 1.362 . S
C546 C549 1.409 . S
C547 H539 0.930 . S
C547 C548 1.355 . S
C547 C549 1.415 . S
C548 C547 1.355 . S
C548 C550 1.419 . S
C549 C544 1.425 . S
C549 C546 1.409 . S
C549 C547 1.415 . S
C550 H540 0.930 . S
C550 C548 1.419 . S
C550 C551 1.362 . S
C551 H541 0.930 . S
C551 C544 1.409 . S
C551 C550 1.362 . S
H552 C558 0.930 . S
H553 C561 0.930 . S
H554 C562 0.930 . S
H555 C563 0.930 . S
H556 C566 0.930 . S
H557 C567 0.930 . S
C558 H552 0.930 . S
C558 C559 1.355 . S
C558 C560 1.415 . S
C559 C558 1.355 . S
C559 C561 1.419 1_556 S
C560 C558 1.415 . S
C560 C565 1.425 . S
C560 C567 1.409 . S
C561 H553 0.930 . S
C561 C559 1.419 1_554 S
C561 C562 1.362 . S
C562 H554 0.930 . S
C562 C561 1.362 . S
C562 C565 1.409 1_554 S
C563 H555 0.930 . S
C563 C564 1.355 . S
C563 C565 1.415 . S
C564 C563 1.355 . S
C564 C566 1.419 . S
C565 C560 1.425 . S
C565 C562 1.409 1_556 S
C565 C563 1.415 . S
C566 H556 0.930 . S
C566 C564 1.419 . S
C566 C567 1.362 . S
C567 H557 0.930 . S
C567 C560 1.409 . S
C567 C566 1.362 . S
H568 C574 0.930 . S
H569 C577 0.930 . S
H570 C578 0.930 . S
H571 C579 0.930 . S
H572 C582 0.930 . S
H573 C583 0.930 . S
C574 H568 0.930 . S
C574 C575 1.355 . S
C574 C576 1.415 . S
C575 C574 1.355 . S
C575 C577 1.419 . S
C576 C574 1.415 . S
C576 C581 1.425 . S
C576 C583 1.409 . S
C577 H569 0.930 . S
C577 C575 1.419 . S
C577 C578 1.362 . S
C578 H570 0.930 . S
C578 C577 1.362 . S
C578 C581 1.409 . S
C579 H571 0.930 . S
C579 C580 1.355 . S
C579 C581 1.415 . S
C580 C579 1.355 . S
C580 C582 1.419 . S
C581 C576 1.425 . S
C581 C578 1.409 . S
C581 C579 1.415 . S
C582 H572 0.930 . S
C582 C580 1.419 . S
C582 C583 1.362 . S
C583 H573 0.930 . S
C583 C576 1.409 . S
C583 C582 1.362 . S
H584 C590 0.930 . S
H585 C593 0.930 . S
H586 C594 0.930 . S
H587 C595 0.930 . S
H588 C598 0.930 . S
H589 C599 0.930 . S
C590 H584 0.930 . S
C590 C591 1.355 . S
C590 C592 1.415 . S
C591 C590 1.355 . S
C591 C593 1.419 1_556 S
C592 C590 1.415 . S
C592 C597 1.425 . S
C592 C599 1.409 . S
C593 H585 0.930 . S
C593 C591 1.419 1_554 S
C593 C594 1.362 . S
C594 H586 0.930 . S
C594 C593 1.362 . S
C594 C597 1.409 1_554 S
C595 H587 0.930 . S
C595 C596 1.355 . S
C595 C597 1.415 . S
C596 C595 1.355 . S
C596 C598 1.419 . S
C597 C592 1.425 . S
C597 C594 1.409 1_556 S
C597 C595 1.415 . S
C598 H588 0.930 . S
C598 C596 1.419 . S
C598 C599 1.362 . S
C599 H589 0.930 . S
C599 C592 1.409 . S
C599 C598 1.362 . S
H600 C606 0.930 . S
H601 C609 0.930 . S
H602 C610 0.930 . S
H603 C611 0.930 . S
H604 C614 0.930 . S
H605 C615 0.930 . S
C606 H600 0.930 . S
C606 C607 1.355 . S
C606 C608 1.415 . S
C607 C606 1.355 . S
C607 C609 1.419 . S
C608 C606 1.415 . S
C608 C613 1.425 . S
C608 C615 1.409 . S
C609 H601 0.930 . S
C609 C607 1.419 . S
C609 C610 1.362 . S
C610 H602 0.930 . S
C610 C609 1.362 . S
C610 C613 1.409 . S
C611 H603 0.930 . S
C611 C612 1.355 . S
C611 C613 1.415 . S
C612 C611 1.355 . S
C612 C614 1.419 . S
C613 C608 1.425 . S
C613 C610 1.409 . S
C613 C611 1.415 . S
C614 H604 0.930 . S
C614 C612 1.419 . S
C614 C615 1.362 . S
C615 H605 0.930 . S
C615 C608 1.409 . S
C615 C614 1.362 . S
H616 C622 0.930 . S
H617 C625 0.930 . S
H618 C626 0.930 . S
H619 C627 0.930 . S
H620 C630 0.930 . S
H621 C631 0.930 . S
C622 H616 0.930 . S
C622 C623 1.355 1_655 S
C622 C624 1.415 . S
C623 C622 1.355 1_455 S
C623 C625 1.419 . S
C624 C622 1.415 . S
C624 C629 1.425 1_655 S
C624 C631 1.409 . S
C625 H617 0.930 . S
C625 C623 1.419 . S
C625 C626 1.362 . S
C626 H618 0.930 . S
C626 C625 1.362 . S
C626 C629 1.409 . S
C627 H619 0.930 . S
C627 C628 1.355 1_455 S
C627 C629 1.415 . S
C628 C627 1.355 1_655 S
C628 C630 1.419 . S
C629 C624 1.425 1_455 S
C629 C626 1.409 . S
C629 C627 1.415 . S
C630 H620 0.930 . S
C630 C628 1.419 . S
C630 C631 1.362 . S
C631 H621 0.930 . S
C631 C624 1.409 . S
C631 C630 1.362 . S
H632 C638 0.930 . S
H633 C641 0.930 . S
H634 C642 0.930 . S
H635 C643 0.930 . S
H636 C646 0.930 . S
H637 C647 0.930 . S
C638 H632 0.930 . S
C638 C639 1.355 . S
C638 C640 1.415 . S
C639 C638 1.355 . S
C639 C641 1.419 1_545 S
C640 C638 1.415 . S
C640 C645 1.425 1_545 S
C640 C647 1.409 . S
C641 H633 0.930 . S
C641 C639 1.419 1_565 S
C641 C642 1.362 . S
C642 H634 0.930 . S
C642 C641 1.362 . S
C642 C645 1.409 . S
C643 H635 0.930 . S
C643 C644 1.355 . S
C643 C645 1.415 . S
C644 C643 1.355 . S
C644 C646 1.419 1_565 S
C645 C640 1.425 1_565 S
C645 C642 1.409 . S
C645 C643 1.415 . S
C646 H636 0.930 . S
C646 C644 1.419 1_545 S
C646 C647 1.362 . S
C647 H637 0.930 . S
C647 C640 1.409 . S
C647 C646 1.362 . S
H648 C654 0.930 . S
H649 C657 0.930 . S
H650 C658 0.930 . S
H651 C659 0.930 . S
H652 C662 0.930 . S
H653 C663 0.930 . S
C654 H648 0.930 . S
C654 C655 1.355 . S
C654 C656 1.415 . S
C655 C654 1.355 . S
C655 C657 1.419 . S
C656 C654 1.415 . S
C656 C661 1.425 1_545 S
C656 C663 1.409 1_545 S
C657 H649 0.930 . S
C657 C655 1.419 . S
C657 C658 1.362 . S
C658 H650 0.930 . S
C658 C657 1.362 . S
C658 C661 1.409 1_545 S
C659 H651 0.930 . S
C659 C660 1.355 . S
C659 C661 1.415 . S
C660 C659 1.355 . S
C660 C662 1.419 . S
C661 C656 1.425 1_565 S
C661 C658 1.409 1_565 S
C661 C659 1.415 . S
C662 H652 0.930 . S
C662 C660 1.419 . S
C662 C663 1.362 . S
C663 H653 0.930 . S
C663 C656 1.409 1_565 S
C663 C662 1.362 . S
H664 C670 0.930 . S
H665 C673 0.930 . S
H666 C674 0.930 . S
H667 C675 0.930 . S
H668 C678 0.930 . S
H669 C679 0.930 . S
C670 H664 0.930 . S
C670 C671 1.355 . S
C670 C672 1.415 . S
C671 C670 1.355 . S
C671 C673 1.419 . S
C672 C670 1.415 . S
C672 C677 1.425 1_455 S
C672 C679 1.409 1_455 S
C673 H665 0.930 . S
C673 C671 1.419 . S
C673 C674 1.362 . S
C674 H666 0.930 . S
C674 C673 1.362 . S
C674 C677 1.409 1_455 S
C675 H667 0.930 . S
C675 C676 1.355 . S
C675 C677 1.415 . S
C676 C675 1.355 . S
C676 C678 1.419 . S
C677 C672 1.425 1_655 S
C677 C674 1.409 1_655 S
C677 C675 1.415 . S
C678 H668 0.930 . S
C678 C676 1.419 . S
C678 C679 1.362 . S
C679 H669 0.930 . S
C679 C672 1.409 1_655 S
C679 C678 1.362 . S
C431 C393 1.829 . S
C436 C38 1.852 . S
C447 C82 1.997 . S
C452 C234 2.019 . S
C463 C144 1.840 . S
C468 C287 1.822 . S
C479 C340 2.020 . S
C484 C188 1.999 . S
C495 C75 1.821 . S
C500 C22 1.797 . S
C511 C92 1.803 . S
C516 C145 1.792 . S
C527 C181 1.844 . S
C532 C128 1.839 . S
C543 C198 1.781 . S
C548 C39 1.796 . S
C559 C400 1.925 1_556 S
C564 C250 1.912 . S
C575 C303 2.059 . S
C580 C241 2.004 . S
C591 C294 1.920 1_556 S
C596 C356 1.918 . S
C607 C347 2.013 . S
C612 C409 2.033 . S
C623 C135 1.916 . S
C628 C29 1.904 . S
C639 C197 2.081 . S
C644 C91 2.073 . S
C655 C357 2.484 . S
C660 C251 2.467 . S
C671 C410 2.055 . S
C676 C304 2.079 . S
