# Generated by pormake.
# Topology xfc, (7)-cn, num edge types: 1
# Building blocks:
#     Node 0, Type 0, BuildingBlock: HICVOG_clean_sbu_0, # of connection points: 7
#     Node 1, Type 0, BuildingBlock: HICVOG_clean_sbu_0, # of connection points: 7
#     Node 2, Type 0, BuildingBlock: HICVOG_clean_sbu_0, # of connection points: 7
#     Node 3, Type 0, BuildingBlock: HICVOG_clean_sbu_0, # of connection points: 7
#     Node 4, Type 0, BuildingBlock: HICVOG_clean_sbu_0, # of connection points: 7
#     Node 5, Type 0, BuildingBlock: HICVOG_clean_sbu_0, # of connection points: 7
#     Node 6, Type 0, BuildingBlock: HICVOG_clean_sbu_0, # of connection points: 7
#     Node 7, Type 0, BuildingBlock: HICVOG_clean_sbu_0, # of connection points: 7
#     Node 8, Type 0, BuildingBlock: HICVOG_clean_sbu_0, # of connection points: 7
#     Node 9, Type 0, BuildingBlock: HICVOG_clean_sbu_0, # of connection points: 7
#     Node 10, Type 0, BuildingBlock: HICVOG_clean_sbu_0, # of connection points: 7
#     Node 11, Type 0, BuildingBlock: HICVOG_clean_sbu_0, # of connection points: 7
#     Node 12, Type 0, BuildingBlock: HICVOG_clean_sbu_0, # of connection points: 7
#     Node 13, Type 0, BuildingBlock: HICVOG_clean_sbu_0, # of connection points: 7
#     Node 14, Type 0, BuildingBlock: HICVOG_clean_sbu_0, # of connection points: 7
#     Node 15, Type 0, BuildingBlock: HICVOG_clean_sbu_0, # of connection points: 7
#     Edge 16, Type (0, 0), BuildingBlock: CIFDUS_clean_linker_0, # of connection points: 2
#     Edge 17, Type (0, 0), BuildingBlock: CIFDUS_clean_linker_0, # of connection points: 2
#     Edge 18, Type (0, 0), BuildingBlock: CIFDUS_clean_linker_0, # of connection points: 2
#     Edge 19, Type (0, 0), BuildingBlock: CIFDUS_clean_linker_0, # of connection points: 2
#     Edge 20, Type (0, 0), BuildingBlock: CIFDUS_clean_linker_0, # of connection points: 2
#     Edge 21, Type (0, 0), BuildingBlock: CIFDUS_clean_linker_0, # of connection points: 2
#     Edge 22, Type (0, 0), BuildingBlock: CIFDUS_clean_linker_0, # of connection points: 2
#     Edge 23, Type (0, 0), BuildingBlock: CIFDUS_clean_linker_0, # of connection points: 2
#     Edge 24, Type (0, 0), BuildingBlock: CIFDUS_clean_linker_0, # of connection points: 2
#     Edge 25, Type (0, 0), BuildingBlock: CIFDUS_clean_linker_0, # of connection points: 2
#     Edge 26, Type (0, 0), BuildingBlock: CIFDUS_clean_linker_0, # of connection points: 2
#     Edge 27, Type (0, 0), BuildingBlock: CIFDUS_clean_linker_0, # of connection points: 2
#     Edge 28, Type (0, 0), BuildingBlock: CIFDUS_clean_linker_0, # of connection points: 2
#     Edge 29, Type (0, 0), BuildingBlock: CIFDUS_clean_linker_0, # of connection points: 2
#     Edge 30, Type (0, 0), BuildingBlock: CIFDUS_clean_linker_0, # of connection points: 2
#     Edge 31, Type (0, 0), BuildingBlock: CIFDUS_clean_linker_0, # of connection points: 2
#     Edge 32, Type (0, 0), BuildingBlock: CIFDUS_clean_linker_0, # of connection points: 2
#     Edge 33, Type (0, 0), BuildingBlock: CIFDUS_clean_linker_0, # of connection points: 2
#     Edge 34, Type (0, 0), BuildingBlock: CIFDUS_clean_linker_0, # of connection points: 2
#     Edge 35, Type (0, 0), BuildingBlock: CIFDUS_clean_linker_0, # of connection points: 2
#     Edge 36, Type (0, 0), BuildingBlock: CIFDUS_clean_linker_0, # of connection points: 2
#     Edge 37, Type (0, 0), BuildingBlock: CIFDUS_clean_linker_0, # of connection points: 2
#     Edge 38, Type (0, 0), BuildingBlock: CIFDUS_clean_linker_0, # of connection points: 2
#     Edge 39, Type (0, 0), BuildingBlock: CIFDUS_clean_linker_0, # of connection points: 2
#     Edge 40, Type (0, 0), BuildingBlock: CIFDUS_clean_linker_0, # of connection points: 2
#     Edge 41, Type (0, 0), BuildingBlock: CIFDUS_clean_linker_0, # of connection points: 2
#     Edge 42, Type (0, 0), BuildingBlock: CIFDUS_clean_linker_0, # of connection points: 2
#     Edge 43, Type (0, 0), BuildingBlock: CIFDUS_clean_linker_0, # of connection points: 2
#     Edge 44, Type (0, 0), BuildingBlock: CIFDUS_clean_linker_0, # of connection points: 2
#     Edge 45, Type (0, 0), BuildingBlock: CIFDUS_clean_linker_0, # of connection points: 2
#     Edge 46, Type (0, 0), BuildingBlock: CIFDUS_clean_linker_0, # of connection points: 2
#     Edge 47, Type (0, 0), BuildingBlock: CIFDUS_clean_linker_0, # of connection points: 2
#     Edge 48, Type (0, 0), BuildingBlock: CIFDUS_clean_linker_0, # of connection points: 2
#     Edge 49, Type (0, 0), BuildingBlock: CIFDUS_clean_linker_0, # of connection points: 2
#     Edge 50, Type (0, 0), BuildingBlock: CIFDUS_clean_linker_0, # of connection points: 2
#     Edge 51, Type (0, 0), BuildingBlock: CIFDUS_clean_linker_0, # of connection points: 2
#     Edge 52, Type (0, 0), BuildingBlock: CIFDUS_clean_linker_0, # of connection points: 2
#     Edge 53, Type (0, 0), BuildingBlock: CIFDUS_clean_linker_0, # of connection points: 2
#     Edge 54, Type (0, 0), BuildingBlock: CIFDUS_clean_linker_0, # of connection points: 2
#     Edge 55, Type (0, 0), BuildingBlock: CIFDUS_clean_linker_0, # of connection points: 2
#     Edge 56, Type (0, 0), BuildingBlock: CIFDUS_clean_linker_0, # of connection points: 2
#     Edge 57, Type (0, 0), BuildingBlock: CIFDUS_clean_linker_0, # of connection points: 2
#     Edge 58, Type (0, 0), BuildingBlock: CIFDUS_clean_linker_0, # of connection points: 2
#     Edge 59, Type (0, 0), BuildingBlock: CIFDUS_clean_linker_0, # of connection points: 2
#     Edge 60, Type (0, 0), BuildingBlock: CIFDUS_clean_linker_0, # of connection points: 2
#     Edge 61, Type (0, 0), BuildingBlock: CIFDUS_clean_linker_0, # of connection points: 2
#     Edge 62, Type (0, 0), BuildingBlock: CIFDUS_clean_linker_0, # of connection points: 2
#     Edge 63, Type (0, 0), BuildingBlock: CIFDUS_clean_linker_0, # of connection points: 2
#     Edge 64, Type (0, 0), BuildingBlock: CIFDUS_clean_linker_0, # of connection points: 2
#     Edge 65, Type (0, 0), BuildingBlock: CIFDUS_clean_linker_0, # of connection points: 2
#     Edge 66, Type (0, 0), BuildingBlock: CIFDUS_clean_linker_0, # of connection points: 2
#     Edge 67, Type (0, 0), BuildingBlock: CIFDUS_clean_linker_0, # of connection points: 2
#     Edge 68, Type (0, 0), BuildingBlock: CIFDUS_clean_linker_0, # of connection points: 2
#     Edge 69, Type (0, 0), BuildingBlock: CIFDUS_clean_linker_0, # of connection points: 2
#     Edge 70, Type (0, 0), BuildingBlock: CIFDUS_clean_linker_0, # of connection points: 2
#     Edge 71, Type (0, 0), BuildingBlock: CIFDUS_clean_linker_0, # of connection points: 2
# Relax obj value: 0.462
# Max RMSD: 0.251
# Mean RMSD: 0.249
data_MOF--net-xfc--node1-HICVOG_clean_sbu_0--edge1-CIFDUS_clean_linker_0
_symmetry_space_group_name_H-M    P1
_symmetry_Int_Tables_number       1
_symmetry_cell_setting            triclinic
loop_
_symmetry_equiv_pos_as_xyz
'x, y, z'
_cell_length_a     38.060535
_cell_length_b     37.977402
_cell_length_c     23.208162
_cell_angle_alpha  89.859739
_cell_angle_beta   89.761597
_cell_angle_gamma 90.062449
loop_
_atom_site_label
_atom_site_type_symbol
_atom_site_fract_x
_atom_site_fract_y
_atom_site_fract_z
_atom_type_partial_charge
Zn0 Zn 0.0528 0.01098 0.2889 0.0
C1 C 0.98191 0.98056 0.41256 0.0
N2 N 0.01123 0.97027 0.43998 0.0
C3 C 0.03696 0.97821 0.40248 0.0
N4 N 0.02427 0.99302 0.35376 0.0
N5 N 0.98953 0.99429 0.35958 0.0
C6 C 0.92869 0.0685 0.24506 0.0
O7 O 0.93821 0.0519 0.19808 0.0
O8 O 0.07959 0.97167 0.25061 0.0
Zn9 Zn 0.95809 1.00474 0.29477 0.0
N10 N 0.0867 0.0459 0.31624 0.0
C11 C 0.10971 0.07846 0.39506 0.0
C12 C 0.08525 0.05495 0.37284 0.0
C13 C 0.11126 0.06055 0.28023 0.0
N14 N 0.13443 0.09254 0.35966 0.0
C15 C 0.13601 0.08458 0.30253 0.0
O16 O 0.98054 0.99628 0.21551 0.0
C17 C 1.00502 0.01411 0.19175 0.0
O18 O 0.02595 0.03224 0.22235 0.0
H19 H 0.06526 0.04408 0.40076 0.0
H20 H 0.11175 0.0532 0.2352 0.0
C21 C 0.88721 0.98807 0.28642 0.0
C22 C 0.85648 0.96781 0.28647 0.0
C23 C 0.89015 0.91876 0.31887 0.0
C24 C 0.92085 0.93869 0.31449 0.0
N25 N 0.91853 0.97314 0.29918 0.0
N26 N 0.85898 0.9335 0.30369 0.0
H27 H 0.88691 0.01522 0.2743 0.0
C28 C 0.06371 0.9445 0.23214 0.0
O29 O 0.03009 0.94046 0.24332 0.0
O30 O 0.93634 0.05506 0.29406 0.0
H31 H 0.94607 0.92725 0.32479 0.0
H32 H 0.10886 0.08571 0.44004 0.0
H33 H 0.89118 0.89151 0.33243 0.0
Zn34 Zn 0.27845 0.70147 0.53598 0.0
C35 C 0.29685 0.78135 0.64779 0.0
N36 N 0.31096 0.75604 0.68067 0.0
C37 C 0.30559 0.72661 0.6499 0.0
N38 N 0.28861 0.73381 0.59967 0.0
N39 N 0.28361 0.76839 0.59837 0.0
C40 C 0.32455 0.82388 0.48088 0.0
O41 O 0.33048 0.79001 0.47498 0.0
O42 O 0.22986 0.67599 0.53749 0.0
Zn43 Zn 0.26317 0.79724 0.53772 0.0
N44 N 0.31295 0.66474 0.53976 0.0
C45 C 0.37158 0.64418 0.53139 0.0
C46 C 0.34754 0.67183 0.53122 0.0
C47 C 0.30133 0.63124 0.54711 0.0
N48 N 0.35939 0.61056 0.53234 0.0
C49 C 0.32444 0.60315 0.53768 0.0
O50 O 0.25021 0.77304 0.46318 0.0
C51 C 0.26438 0.74899 0.43282 0.0
O52 O 0.28179 0.72393 0.45564 0.0
H53 H 0.35629 0.69871 0.52532 0.0
H54 H 0.2736 0.62638 0.55286 0.0
C55 C 0.20793 0.84905 0.53617 0.0
C56 C 0.18029 0.86877 0.56025 0.0
C57 C 0.1829 0.83341 0.64467 0.0
C58 C 0.21029 0.81399 0.62074 0.0
N59 N 0.2226 0.8224 0.56737 0.0
N60 N 0.16873 0.86037 0.61416 0.0
H61 H 0.21822 0.85527 0.4938 0.0
C62 C 0.22167 0.66125 0.4898 0.0
O63 O 0.24306 0.66446 0.44568 0.0
O64 O 0.29815 0.83378 0.51044 0.0
H65 H 0.22189 0.79262 0.64484 0.0
H66 H 0.3994 0.64926 0.5266 0.0
H67 H 0.17302 0.82721 0.68728 0.0
Zn68 Zn 0.48698 0.01089 0.77443 0.0
C69 C 0.5562 0.04425 0.89675 0.0
N70 N 0.52663 0.05257 0.92538 0.0
C71 C 0.50117 0.04266 0.88912 0.0
N72 N 0.51425 0.02875 0.83988 0.0
N73 N 0.54909 0.02982 0.84436 0.0
C74 C 0.62776 0.96337 0.7408 0.0
O75 O 0.63366 0.9859 0.69881 0.0
O76 O 0.45842 0.04978 0.73683 0.0
Zn77 Zn 0.58261 0.02138 0.78052 0.0
N78 N 0.45402 0.97418 0.79854 0.0
C79 C 0.42799 0.93915 0.87247 0.0
C80 C 0.4528 0.96394 0.85464 0.0
C81 C 0.43247 0.9591 0.7587 0.0
N82 N 0.40637 0.92434 0.83296 0.0
C83 C 0.40805 0.93316 0.77609 0.0
O84 O 0.56095 0.02739 0.69992 0.0
C85 C 0.53621 1.00916 0.67812 0.0
O86 O 0.51657 0.99045 0.71041 0.0
H87 H 0.47103 0.97479 0.88527 0.0
H88 H 0.43438 0.96731 0.71411 0.0
C89 C 0.65307 0.04771 0.78387 0.0
C90 C 0.6793 0.07368 0.7822 0.0
C91 C 0.63547 0.11684 0.80093 0.0
C92 C 0.60938 0.09126 0.79581 0.0
N93 N 0.61874 0.05715 0.78731 0.0
N94 N 0.66955 0.10769 0.79213 0.0
H95 H 0.65967 0.02029 0.78117 0.0
C96 C 0.47051 0.08035 0.7262 0.0
O97 O 0.5025 0.08832 0.74282 0.0
O98 O 0.60623 0.97177 0.78111 0.0
H99 H 0.58194 0.09831 0.79974 0.0
H100 H 0.42632 0.93126 0.91724 0.0
H101 H 0.62859 0.14403 0.80891 0.0
Zn102 Zn 0.26581 0.2224 0.02784 0.0
C103 C 0.22671 0.29061 0.14712 0.0
N104 N 0.21966 0.26031 0.17488 0.0
C105 C 0.23213 0.23552 0.13932 0.0
N106 N 0.24636 0.24983 0.09119 0.0
N107 N 0.24309 0.28457 0.0957 0.0
C108 C 0.30612 0.36941 0.99953 0.0
O109 O 0.2832 0.37419 0.9581 0.0
O110 O 0.23121 0.18557 1.00285 0.0
Zn111 Zn 0.25193 0.31935 0.03357 0.0
N112 N 0.30829 0.19804 0.04976 0.0
C113 C 0.34914 0.17908 0.12053 0.0
C114 C 0.31946 0.1984 0.10529 0.0
C115 C 0.32585 0.17947 0.00854 0.0
N116 N 0.3662 0.15993 0.07978 0.0
C117 C 0.35548 0.15961 0.02387 0.0
O118 O 0.25228 0.30103 0.95032 0.0
C119 C 0.26616 0.27462 0.92533 0.0
O120 O 0.27527 0.24739 0.95333 0.0
H121 H 0.30535 0.21333 0.13749 0.0
H122 H 0.31627 0.17952 0.96469 0.0
C123 C 0.21803 0.38657 0.03993 0.0
C124 C 0.18937 0.40916 0.03154 0.0
C125 C 0.1513 0.35946 0.03209 0.0
C126 C 0.18033 0.33724 0.03231 0.0
N127 N 0.21302 0.35126 0.03699 0.0
N128 N 0.15654 0.39475 0.02983 0.0
H129 H 0.24434 0.39685 0.04377 0.0
C130 C 0.20552 0.19579 0.97225 0.0
O131 O 0.20071 0.22972 0.96443 0.0
O132 O 0.29905 0.34701 0.03937 0.0
H133 H 0.17695 0.30898 0.02998 0.0
H134 H 0.35855 0.17926 0.16442 0.0
H135 H 0.12497 0.34881 0.03023 0.0
Zn136 Zn 0.04619 0.01858 0.74635 0.0
C137 C 0.97765 0.05755 0.62646 0.0
N138 N 1.00817 0.06823 0.60302 0.0
C139 C 0.03216 0.05618 0.63982 0.0
N140 N 0.01744 0.03867 0.68448 0.0
N141 N 0.98271 0.03927 0.67665 0.0
C142 C 0.90256 0.95706 0.70524 0.0
O143 O 0.88052 0.97991 0.68312 0.0
O144 O 0.0829 0.05393 0.76806 0.0
Zn145 Zn 0.94835 0.01848 0.73291 0.0
N146 N 0.06953 0.97582 0.7213 0.0
C147 C 0.07895 0.93325 0.64783 0.0
C148 C 0.06106 0.96255 0.66882 0.0
C149 C 0.09479 0.96042 0.75443 0.0
N150 N 0.1046 0.91835 0.68018 0.0
C151 C 0.11304 0.93099 0.73317 0.0
O152 O 0.96544 0.01596 0.81594 0.0
C153 C 0.99291 0.01222 0.84632 0.0
O154 O 0.0232 0.01131 0.82343 0.0
H155 H 0.04087 0.97489 0.64316 0.0
H156 H 0.10109 0.97145 0.7961 0.0
C157 C 0.88287 0.02701 0.77781 0.0
C158 C 0.85019 0.04132 0.79203 0.0
C159 C 0.86409 0.09148 0.73475 0.0
C160 C 0.89746 0.07777 0.72381 0.0
N161 N 0.90532 0.04484 0.74273 0.0
N162 N 0.84146 0.07319 0.76904 0.0
H163 H 0.89111 1.00204 0.7955 0.0
C164 C 0.07139 0.08375 0.78411 0.0
O165 O 0.03765 0.09049 0.77974 0.0
O166 O 0.93371 0.96694 0.71807 0.0
H167 H 0.91667 0.09325 0.70063 0.0
H168 H 0.07271 0.92257 0.60592 0.0
H169 H 0.85676 0.11709 0.71822 0.0
Zn170 Zn 0.24892 0.69496 0.97305 0.0
C171 C 0.21459 0.77959 0.88087 0.0
N172 N 0.20423 0.75565 0.84227 0.0
C173 C 0.2153 0.725 0.86483 0.0
N174 N 0.2321 0.73005 0.9161 0.0
N175 N 0.23132 0.7646 0.92586 0.0
C176 C 0.18967 0.82143 0.04545 0.0
O177 O 0.18356 0.78808 0.05691 0.0
O178 O 0.30143 0.67909 0.96572 0.0
Zn179 Zn 0.25006 0.79177 0.99074 0.0
N180 N 0.22086 0.6525 0.96816 0.0
C181 C 0.16667 0.62134 0.96971 0.0
C182 C 0.18527 0.65285 0.96332 0.0
C183 C 0.23825 0.62207 0.97895 0.0
N184 N 0.18396 0.59214 0.98826 0.0
C185 C 0.2195 0.59209 0.9953 0.0
O186 O 0.25655 0.76632 0.06617 0.0
C187 C 0.25017 0.73636 0.08832 0.0
O188 O 0.24304 0.7098 0.05715 0.0
H189 H 0.17157 0.67728 0.95511 0.0
H190 H 0.26635 0.62217 0.98267 0.0
C191 C 0.31193 0.83289 0.01131 0.0
C192 C 0.34 0.85504 0.99549 0.0
C193 C 0.32906 0.84238 0.89706 0.0
C194 C 0.30103 0.8207 0.91288 0.0
N195 N 0.29282 0.81658 0.96956 0.0
N196 N 0.34765 0.85922 0.93853 0.0
H197 H 0.30451 0.82966 0.0561 0.0
C198 C 0.31448 0.66565 0.01161 0.0
O199 O 0.2959 0.66645 0.05921 0.0
O200 O 0.21583 0.82956 0.01386 0.0
H201 H 0.28549 0.80791 0.88016 0.0
H202 H 0.13843 0.62082 0.96479 0.0
H203 H 0.33582 0.84608 0.85216 0.0
Zn204 Zn 0.47616 1.00254 0.23702 0.0
C205 C 0.54356 0.96725 0.11102 0.0
N206 N 0.51285 0.95613 0.08939 0.0
C207 C 0.48938 0.96639 0.12874 0.0
N208 N 0.50449 0.9834 0.17321 0.0
N209 N 0.53896 0.98426 0.16242 0.0
C210 C 0.62735 0.06128 0.19586 0.0
O211 O 0.64997 0.0371 0.17986 0.0
O212 O 0.44079 0.96611 0.26284 0.0
Zn213 Zn 0.57473 1.00275 0.21689 0.0
N214 N 0.45117 0.0443 0.21103 0.0
C215 C 0.43903 0.08404 0.13419 0.0
C216 C 0.45827 0.05615 0.15687 0.0
C217 C 0.42627 0.06023 0.24447 0.0
N218 N 0.41374 0.09938 0.16687 0.0
C219 C 0.40688 0.08853 0.22172 0.0
O220 O 0.55803 1.00839 0.29948 0.0
C221 C 0.53152 0.01256 0.33215 0.0
O222 O 0.50053 0.01214 0.31226 0.0
H223 H 0.47837 0.04368 0.13105 0.0
H224 H 0.42106 0.05041 0.2875 0.0
C225 C 0.63664 0.98458 0.26367 0.0
C226 C 0.66566 0.96512 0.28107 0.0
C227 C 0.6463 0.9176 0.22308 0.0
C228 C 0.616 0.93648 0.20929 0.0
N229 N 0.61294 0.97041 0.22729 0.0
N230 N 0.67019 0.93212 0.25939 0.0
H231 H 0.63176 1.01049 0.28116 0.0
C232 C 0.45303 0.9366 0.27917 0.0
O233 O 0.48674 0.9303 0.27251 0.0
O234 O 0.59491 0.053 0.20221 0.0
H235 H 0.59536 0.92416 0.18477 0.0
H236 H 0.44405 0.09337 0.09085 0.0
H237 H 0.64997 0.89105 0.20742 0.0
Zn238 Zn 0.27475 0.22476 0.486 0.0
C239 C 0.29836 0.29393 0.35409 0.0
N240 N 0.31113 0.26397 0.33157 0.0
C241 C 0.30488 0.24 0.37263 0.0
N242 N 0.28888 0.25416 0.41914 0.0
N243 N 0.28419 0.28837 0.4077 0.0
C244 C 0.20462 0.37455 0.44243 0.0
O245 O 0.22846 0.39723 0.42499 0.0
O246 O 0.31229 0.18913 0.50871 0.0
Zn247 Zn 0.26436 0.32368 0.46315 0.0
N248 N 0.23253 0.19796 0.46866 0.0
C249 C 0.19288 0.17436 0.39977 0.0
C250 C 0.22206 0.19498 0.41296 0.0
C251 C 0.21462 0.18136 0.51199 0.0
N252 N 0.17547 0.15727 0.44267 0.0
C253 C 0.18543 0.16015 0.49871 0.0
O254 O 0.26112 0.30731 0.54681 0.0
C255 C 0.262 0.28066 0.57992 0.0
O256 O 0.26671 0.24995 0.56028 0.0
H257 H 0.23629 0.20836 0.379 0.0
H258 H 0.22339 0.18418 0.55605 0.0
C259 C 0.27953 0.38611 0.51004 0.0
C260 C 0.29715 0.41628 0.52774 0.0
C261 C 0.3444 0.40152 0.46524 0.0
C262 C 0.32752 0.37002 0.45114 0.0
N263 N 0.29457 0.36394 0.47181 0.0
N264 N 0.32915 0.42363 0.50401 0.0
H265 H 0.25435 0.37913 0.52856 0.0
C266 C 0.33689 0.19822 0.54269 0.0
O267 O 0.33969 0.23149 0.55739 0.0
O268 O 0.21324 0.34223 0.45011 0.0
H269 H 0.34054 0.35088 0.42418 0.0
H270 H 0.18395 0.17217 0.35579 0.0
H271 H 0.37012 0.40753 0.44777 0.0
Zn272 Zn 0.75306 0.19633 0.46628 0.0
C273 C 0.71837 0.27835 0.37166 0.0
N274 N 0.70669 0.25389 0.33495 0.0
C275 C 0.71866 0.2237 0.35778 0.0
N276 N 0.73682 0.22956 0.40741 0.0
N277 N 0.73668 0.26424 0.41557 0.0
C278 C 0.69619 0.32083 0.53305 0.0
O279 O 0.69004 0.2871 0.54071 0.0
O280 O 0.80627 0.18384 0.46612 0.0
Zn281 Zn 0.75716 0.29233 0.47816 0.0
N282 N 0.72768 0.15205 0.46158 0.0
C283 C 0.6751 0.11815 0.45952 0.0
C284 C 0.69269 0.14998 0.45033 0.0
C285 C 0.74527 0.12378 0.48257 0.0
N286 N 0.69208 0.09153 0.48699 0.0
C287 C 0.72674 0.0941 0.50092 0.0
O288 O 0.7658 0.26689 0.55363 0.0
C289 C 0.75367 0.23904 0.57706 0.0
O290 O 0.74195 0.21359 0.54713 0.0
H291 H 0.67835 0.173 0.4364 0.0
H292 H 0.77274 0.12573 0.4918 0.0
C293 C 0.81402 0.3437 0.48304 0.0
C294 C 0.84251 0.36283 0.45964 0.0
C295 C 0.84135 0.32593 0.37706 0.0
C296 C 0.81321 0.30715 0.4003 0.0
N297 N 0.79969 0.3166 0.45229 0.0
N298 N 0.85511 0.35331 0.40692 0.0
H299 H 0.8027 0.35092 0.52421 0.0
C300 C 0.81822 0.17256 0.51424 0.0
O301 O 0.79774 0.17294 0.55974 0.0
O302 O 0.72268 0.33007 0.50294 0.0
H303 H 0.80164 0.28569 0.37641 0.0
H304 H 0.64743 0.11574 0.4498 0.0
H305 H 0.85203 0.31903 0.33532 0.0
Zn306 Zn 0.76482 0.72616 0.97777 0.0
C307 C 0.80541 0.79776 0.86511 0.0
N308 N 0.81612 0.76815 0.83879 0.0
C309 C 0.8036 0.74275 0.87315 0.0
N310 N 0.78609 0.75583 0.91887 0.0
N311 N 0.78702 0.79074 0.91439 0.0
C312 C 0.69981 0.84398 0.01381 0.0
O313 O 0.71561 0.8392 0.06329 0.0
O314 O 0.79842 0.687 0.99747 0.0
Zn315 Zn 0.76881 0.82258 0.97477 0.0
N316 N 0.72173 0.70482 0.95016 0.0
C317 C 0.68201 0.6961 0.87257 0.0
C318 C 0.71028 0.71399 0.8968 0.0
C319 C 0.70533 0.679 0.9812 0.0
N320 N 0.66617 0.66987 0.90284 0.0
C321 C 0.67682 0.66086 0.95683 0.0
O322 O 0.77585 0.80367 0.05765 0.0
C323 C 0.76753 0.77524 0.08377 0.0
O324 O 0.75892 0.74767 0.05621 0.0
H325 H 0.72355 0.73446 0.87264 0.0
H326 H 0.7152 0.67184 0.0233 0.0
C327 C 0.77474 0.89389 0.99678 0.0
C328 C 0.79164 0.92301 0.02038 0.0
C329 C 0.84493 0.90333 0.97784 0.0
C330 C 0.82887 0.87132 0.96394 0.0
N331 N 0.79385 0.86728 0.97379 0.0
N332 N 0.82643 0.92767 0.00836 0.0
H333 H 0.74733 0.89025 1.00481 0.0
C334 C 0.82638 0.69643 0.02302 0.0
O335 O 0.83323 0.73023 0.02769 0.0
O336 O 0.71599 0.83581 0.96729 0.0
H337 H 0.84443 0.84964 0.94794 0.0
H338 H 0.67299 0.70268 0.82973 0.0
H339 H 0.87264 0.90733 0.96957 0.0
Zn340 Zn 0.77844 0.20258 0.02462 0.0
C341 C 0.79992 0.2806 0.14139 0.0
N342 N 0.81122 0.25353 0.17345 0.0
C343 C 0.80565 0.22551 0.13963 0.0
N344 N 0.79081 0.23508 0.08856 0.0
N345 N 0.7878 0.26999 0.08957 0.0
C346 C 0.80891 0.36963 1.00344 0.0
O347 O 0.77914 0.38456 0.01834 0.0
O348 O 0.73074 0.17695 0.03265 0.0
Zn349 Zn 0.77296 0.30226 0.02811 0.0
N350 N 0.81443 0.16744 0.02082 0.0
C351 C 0.8718 0.15119 0.9908 0.0
C352 C 0.84509 0.17607 0.99418 0.0
C353 C 0.80861 0.13451 0.04197 0.0
N354 N 0.86543 0.11791 0.00941 0.0
C355 C 0.83412 0.10842 0.03377 0.0
O356 O 0.76657 0.28103 0.95017 0.0
C357 C 0.7693 0.25311 0.92065 0.0
O358 O 0.77578 0.22357 0.94415 0.0
H359 H 0.84902 0.20241 0.9775 0.0
H360 H 0.78343 0.12812 0.06108 0.0
C361 C 0.71129 0.34355 1.00524 0.0
C362 C 0.68306 0.36573 0.0196 0.0
C363 C 0.69344 0.35456 0.1187 0.0
C364 C 0.72151 0.3327 0.10429 0.0
N365 N 0.73043 0.32818 0.04803 0.0
N366 N 0.67509 0.37074 0.07621 0.0
H367 H 0.7188 0.33957 0.96069 0.0
C368 C 0.72497 0.15296 0.99518 0.0
O369 O 0.74945 0.14612 0.95675 0.0
O370 O 0.81221 0.33646 0.00878 0.0
H371 H 0.73621 0.31979 0.13776 0.0
H372 H 0.89685 0.1578 0.97139 0.0
H373 H 0.68634 0.3587 0.16333 0.0
Zn374 Zn 0.76404 0.72506 0.52537 0.0
C375 C 0.73705 0.79182 0.6576 0.0
N376 N 0.72492 0.76169 0.68077 0.0
C377 C 0.73207 0.73755 0.64023 0.0
N378 N 0.7481 0.752 0.59356 0.0
N379 N 0.75121 0.78625 0.60432 0.0
C380 C 0.81137 0.87476 0.51384 0.0
O381 O 0.78813 0.87934 0.4728 0.0
O382 O 0.72391 0.69445 0.49907 0.0
Zn383 Zn 0.75877 0.82322 0.54663 0.0
N384 N 0.80311 0.69371 0.54687 0.0
C385 C 0.83647 0.66943 0.62398 0.0
C386 C 0.81181 0.6934 0.60366 0.0
C387 C 0.81926 0.67128 0.50901 0.0
N388 N 0.85161 0.64648 0.58682 0.0
C389 C 0.84391 0.64658 0.52963 0.0
O390 O 0.75905 0.80854 0.46249 0.0
C391 C 0.76835 0.78298 0.43055 0.0
O392 O 0.77497 0.75271 0.45167 0.0
H393 H 0.79941 0.71133 0.63342 0.0
H394 H 0.81249 0.67192 0.46389 0.0
C395 C 0.72365 0.88852 0.55763 0.0
C396 C 0.6946 0.91104 0.55882 0.0
C397 C 0.65738 0.86109 0.5697 0.0
C398 C 0.68615 0.83898 0.56168 0.0
N399 N 0.71871 0.85329 0.55581 0.0
N400 N 0.6621 0.89646 0.56616 0.0
H401 H 0.75 0.89872 0.55684 0.0
C402 C 0.72548 0.68107 0.44894 0.0
O403 O 0.754 0.68566 0.41787 0.0
O404 O 0.80505 0.85191 0.55332 0.0
H405 H 0.6828 0.81069 0.56153 0.0
H406 H 0.84343 0.669 0.66907 0.0
H407 H 0.63132 0.85028 0.57576 0.0
Zn408 Zn 0.54496 0.50358 0.76695 0.0
C409 C 0.47705 0.47416 0.89657 0.0
N410 N 0.50725 0.46436 0.92164 0.0
C411 C 0.53157 0.47271 0.8818 0.0
N412 N 0.51735 0.48684 0.83384 0.0
N413 N 0.48287 0.48775 0.84291 0.0
C414 C 0.42371 0.56519 0.75744 0.0
O415 O 0.45382 0.56593 0.72962 0.0
O416 O 0.58115 0.46706 0.74485 0.0
Zn417 Zn 0.44716 0.49399 0.78388 0.0
N418 N 0.56918 0.5474 0.78752 0.0
C419 C 0.57641 0.59178 0.85886 0.0
C420 C 0.55888 0.56228 0.83809 0.0
C421 C 0.59612 0.56164 0.75587 0.0
N422 N 0.60355 0.6055 0.82816 0.0
C423 C 0.61395 0.59154 0.77694 0.0
O424 O 0.46282 0.49343 0.70026 0.0
C425 C 0.4891 0.50168 0.66899 0.0
O426 O 0.51891 0.50869 0.69096 0.0
H427 H 0.53751 0.55101 0.86274 0.0
H428 H 0.60416 0.54934 0.71592 0.0
C429 C 0.38171 0.46191 0.78995 0.0
C430 C 0.35685 0.4354 0.80094 0.0
C431 C 0.40372 0.39599 0.82229 0.0
C432 C 0.42806 0.42208 0.80831 0.0
N433 N 0.41635 0.45463 0.79359 0.0
N434 N 0.3689 0.40309 0.8175 0.0
H435 H 0.37436 0.48825 0.77805 0.0
C436 C 0.56957 0.4366 0.73236 0.0
O437 O 0.53613 0.42963 0.74091 0.0
O438 O 0.41685 0.53879 0.7896 0.0
H439 H 0.45594 0.417 0.81164 0.0
H440 H 0.56874 0.60353 0.89943 0.0
H441 H 0.41237 0.37014 0.83578 0.0
Zn442 Zn 0.98131 0.52026 0.26148 0.0
C443 C 0.05426 0.55399 0.37891 0.0
N444 N 0.02487 0.56447 0.40621 0.0
C445 C 0.99895 0.55339 0.37166 0.0
N446 N 0.01166 0.53717 0.32416 0.0
N447 N 0.0465 0.53682 0.32893 0.0
C448 C 0.12787 0.46639 0.24085 0.0
O449 O 0.12839 0.48714 0.19556 0.0
O450 O 0.94666 0.55762 0.23824 0.0
Zn451 Zn 0.08055 0.52078 0.26953 0.0
N452 N 0.95585 0.47865 0.28597 0.0
C453 C 0.94155 0.43695 0.359 0.0
C454 C 0.95983 0.46679 0.34085 0.0
C455 C 0.93455 0.46159 0.24811 0.0
N456 N 0.91987 0.42025 0.32166 0.0
C457 C 0.91581 0.43162 0.2664 0.0
O458 O 0.06151 0.51394 0.18905 0.0
C459 C 0.03356 0.50938 0.16045 0.0
O460 O 1.00359 0.51029 0.18441 0.0
H461 H 0.97715 0.48026 0.37026 0.0
H462 H 0.93205 0.47148 0.20454 0.0
C463 C 0.14859 0.55072 0.2734 0.0
C464 C 0.17417 0.57521 0.25706 0.0
C465 C 0.12902 0.61486 0.22893 0.0
C466 C 0.10413 0.58858 0.23812 0.0
N467 N 0.1144 0.55742 0.26135 0.0
N468 N 0.16346 0.6072 0.23687 0.0
H469 H 0.15616 0.5252 0.28979 0.0
C470 C 0.95988 0.5848 0.21444 0.0
O471 O 0.99421 0.58851 0.21338 0.0
O472 O 0.10808 0.47438 0.28367 0.0
H473 H 0.07674 0.59308 0.22821 0.0
H474 H 0.94476 0.42696 0.40232 0.0
H475 H 0.12135 0.64034 0.21232 0.0
Zn476 Zn 0.45102 0.519 0.21566 0.0
C477 C 0.53161 0.54707 0.10695 0.0
N478 N 0.50577 0.55547 0.07066 0.0
C479 C 0.47649 0.54549 0.0989 0.0
N480 N 0.48416 0.53098 0.15136 0.0
N481 N 0.51903 0.53208 0.15565 0.0
C482 C 0.58107 0.57484 0.27303 0.0
O483 O 0.54982 0.57666 0.29704 0.0
O484 O 0.42388 0.47144 0.20694 0.0
Zn485 Zn 0.54997 0.51581 0.21677 0.0
N486 N 0.41726 0.55681 0.2206 0.0
C487 C 0.4015 0.61738 0.22146 0.0
C488 C 0.42595 0.59093 0.20964 0.0
C489 C 0.38521 0.54826 0.24186 0.0
N490 N 0.37099 0.60882 0.24883 0.0
C491 C 0.36262 0.57467 0.26079 0.0
O492 O 0.52858 0.50764 0.29394 0.0
C493 C 0.50036 0.51004 0.32275 0.0
O494 O 0.47125 0.51642 0.29803 0.0
H495 H 0.45162 0.59749 0.19258 0.0
H496 H 0.37831 0.52116 0.24838 0.0
C497 C 0.59047 0.45465 0.23774 0.0
C498 C 0.6137 0.42729 0.22379 0.0
C499 C 0.60572 0.43984 0.12451 0.0
C500 C 0.58287 0.46723 0.13856 0.0
N501 N 0.57591 0.47424 0.19486 0.0
N502 N 0.62079 0.4207 0.16731 0.0
H503 H 0.58496 0.46113 0.28226 0.0
C504 C 0.40802 0.45941 0.25172 0.0
O505 O 0.41115 0.47619 0.30082 0.0
O506 O 0.58678 0.55202 0.23415 0.0
H507 H 0.57144 0.48319 0.10495 0.0
H508 H 0.40768 0.64466 0.21248 0.0
H509 H 0.61164 0.43402 0.07998 0.0
Zn510 Zn 0.07028 0.49912 0.71176 0.0
C511 C 0.98762 0.47125 0.61143 0.0
N512 N 0.01211 0.46088 0.57337 0.0
C513 C 0.04248 0.47047 0.59828 0.0
N514 N 0.03686 0.4861 0.65026 0.0
N515 N 1.00222 0.48653 0.6582 0.0
C516 C 0.95787 0.44589 0.79439 0.0
O517 O 0.99067 0.43589 0.78783 0.0
O518 O 0.0863 0.55177 0.7138 0.0
Zn519 Zn 0.97754 0.50754 0.72402 0.0
N520 N 0.11251 0.47077 0.70649 0.0
C521 C 0.14284 0.41613 0.70107 0.0
C522 C 0.11255 0.4361 0.69189 0.0
C523 C 0.14135 0.48581 0.73006 0.0
N524 N 0.16971 0.4304 0.73165 0.0
C525 C 0.16905 0.46474 0.74843 0.0
O526 O 1.00902 0.52839 0.78413 0.0
C527 C 0.02718 0.50808 0.81551 0.0
O528 O 0.0503 0.4885 0.79222 0.0
H529 H 0.08905 0.42379 0.67543 0.0
H530 H 0.141 0.51302 0.74202 0.0
C531 C 0.92949 0.56278 0.74277 0.0
C532 C 0.90738 0.591 0.72849 0.0
C533 C 0.92273 0.58368 0.63 0.0
C534 C 0.94447 0.55549 0.64432 0.0
N535 N 0.94726 0.54552 0.70035 0.0
N536 N 0.90459 0.60062 0.67216 0.0
H537 H 0.93265 0.55456 0.78714 0.0
C538 C 0.09855 0.56322 0.76161 0.0
O539 O 0.09774 0.54266 0.80709 0.0
O540 O 0.94699 0.47321 0.76822 0.0
H541 H 0.95928 0.54203 0.61123 0.0
H542 H 0.14365 0.38866 0.68891 0.0
H543 H 0.92093 0.59256 0.58591 0.0
H544 H 0.04067 0.03271 0.92636 0.0
H545 H 0.9382 0.98533 0.90957 0.0
H546 H 0.93378 0.97982 0.01467 0.0
H547 H 0.95771 0.99089 0.11146 0.0
H548 H 0.0593 0.04051 0.12761 0.0
H549 H 0.06478 0.04352 0.02294 0.0
C550 C 0.01728 0.02127 0.94568 0.0
C551 C 0.98981 1.00944 0.91008 0.0
C552 C 0.01437 0.01923 1.00613 0.0
C553 C 0.95958 0.99494 0.9359 0.0
C554 C 0.95697 0.99189 0.99598 0.0
C555 C 0.9811 1.0023 0.09214 0.0
C556 C 1.00799 0.01555 0.12771 0.0
C557 C 0.98399 1.00432 0.03159 0.0
C558 C 0.03803 0.03033 0.1016 0.0
C559 C 0.04126 0.03201 0.04159 0.0
H560 H 0.26687 0.696 0.35236 0.0
H561 H 0.2558 0.80859 0.36959 0.0
H562 H 0.2506 0.81461 0.26538 0.0
H563 H 0.24903 0.78823 0.16913 0.0
H564 H 0.25512 0.67534 0.15151 0.0
H565 H 0.26232 0.66923 0.25572 0.0
C566 C 0.26321 0.72182 0.33337 0.0
C567 C 0.26161 0.75176 0.36904 0.0
C568 C 0.25928 0.72509 0.27315 0.0
C569 C 0.25685 0.78503 0.3434 0.0
C570 C 0.25392 0.78855 0.28369 0.0
C571 C 0.25185 0.76222 0.18797 0.0
C572 C 0.2521 0.73234 0.15212 0.0
C573 C 0.25499 0.75878 0.24812 0.0
C574 C 0.25521 0.69885 0.17772 0.0
C575 C 0.25925 0.6953 0.23745 0.0
H576 H 0.48862 0.99037 0.41868 0.0
H577 H 0.58654 0.04434 0.38711 0.0
H578 H 0.59578 0.05034 0.49109 0.0
H579 H 0.57785 0.03669 0.59151 0.0
H580 H 0.48077 0.98036 0.62132 0.0
H581 H 0.47011 0.97799 0.51814 0.0
C582 C 0.51197 1.00349 0.43458 0.0
C583 C 0.53684 0.01687 0.39517 0.0
C584 C 0.51776 1.00568 0.49437 0.0
C585 C 0.56708 0.03359 0.41651 0.0
C586 C 0.57241 0.03696 0.476 0.0
C587 C 0.55432 0.02399 0.57546 0.0
C588 C 0.53033 1.00854 0.61459 0.0
C589 C 0.54829 0.02246 0.51546 0.0
C590 C 0.49997 0.99221 0.59262 0.0
C591 C 0.49371 0.9909 0.5334 0.0
H592 H 0.29444 0.24247 0.66222 0.0
H593 H 0.22261 0.329 0.63964 0.0
H594 H 0.21696 0.33491 0.74461 0.0
H595 H 0.23401 0.31626 0.8434 0.0
H596 H 0.307 0.23005 0.86308 0.0
H597 H 0.31157 0.22428 0.75912 0.0
C598 C 0.27764 0.26275 0.68026 0.0
C599 C 0.25897 0.28524 0.64323 0.0
C600 C 0.27535 0.26662 0.74035 0.0
C601 C 0.23741 0.31146 0.66726 0.0
C602 C 0.23416 0.31479 0.72728 0.0
C603 C 0.2511 0.29642 0.82491 0.0
C604 C 0.27008 0.27365 0.86144 0.0
C605 C 0.25344 0.29286 0.76439 0.0
C606 C 0.29193 0.24791 0.83642 0.0
C607 C 0.29459 0.24449 0.77675 0.0
H608 H 0.75448 0.20089 0.8432 0.0
H609 H 0.77786 0.31192 0.85484 0.0
H610 H 0.77492 0.31736 0.75036 0.0
H611 H 0.76664 0.29072 0.65536 0.0
H612 H 0.74077 0.18028 0.64292 0.0
H613 H 0.74317 0.1749 0.74775 0.0
C614 C 0.75896 0.22625 0.82283 0.0
C615 C 0.76658 0.25587 0.85697 0.0
C616 C 0.75674 0.22941 0.76243 0.0
C617 C 0.77188 0.28864 0.8298 0.0
C618 C 0.77029 0.29182 0.76993 0.0
C619 C 0.76163 0.26538 0.67542 0.0
C620 C 0.75394 0.23592 0.64097 0.0
C621 C 0.76289 0.26237 0.73577 0.0
C622 C 0.74698 0.20343 0.6681 0.0
C623 C 0.74847 0.20022 0.72812 0.0
H624 H 0.76481 0.82803 0.16577 0.0
H625 H 0.77637 0.71555 0.14631 0.0
H626 H 0.77942 0.7084 0.2502 0.0
H627 H 0.77756 0.73321 0.34701 0.0
H628 H 0.76291 0.84496 0.36938 0.0
H629 H 0.76286 0.85312 0.26488 0.0
C630 C 0.76811 0.80202 0.18432 0.0
C631 C 0.77009 0.77239 0.14781 0.0
C632 C 0.76936 0.79783 0.24496 0.0
C633 C 0.77431 0.73886 0.17294 0.0
C634 C 0.77621 0.73467 0.2326 0.0
C635 C 0.77432 0.7594 0.32934 0.0
C636 C 0.77008 0.78829 0.36665 0.0
C637 C 0.7735 0.76386 0.26908 0.0
C638 C 0.76614 0.82206 0.34215 0.0
C639 C 0.76605 0.82681 0.28213 0.0
H640 H 0.44694 0.5093 0.40413 0.0
H641 H 0.55999 0.50558 0.38655 0.0
H642 H 0.56625 0.50318 0.49038 0.0
H643 H 0.54048 0.50236 0.58695 0.0
H644 H 0.42777 0.50454 0.60708 0.0
H645 H 0.42079 0.5073 0.50243 0.0
C646 C 0.47292 0.50787 0.423 0.0
C647 C 0.50286 0.5076 0.38688 0.0
C648 C 0.47656 0.50628 0.48361 0.0
C649 C 0.53631 0.50571 0.41261 0.0
C650 C 0.54005 0.50441 0.47234 0.0
C651 C 0.51434 0.50354 0.56858 0.0
C652 C 0.48477 0.50333 0.60517 0.0
C653 C 0.51046 0.50476 0.50831 0.0
C654 C 0.4511 0.50454 0.58018 0.0
C655 C 0.44705 0.50618 0.52017 0.0
H656 H 0.98968 0.53424 0.07803 0.0
H657 H 0.08275 0.47135 0.10164 0.0
H658 H 0.08713 0.46256 0.9972 0.0
H659 H 0.06795 0.47717 0.89876 0.0
H660 H 0.97589 0.54197 0.87581 0.0
H661 H 0.96876 0.54666 0.97984 0.0
C662 C 0.01102 0.51871 0.06023 0.0
C663 C 0.03597 0.50367 0.09741 0.0
C664 C 0.01436 0.51502 1.0001 0.0
C665 C 0.06353 0.48367 0.07384 0.0
C666 C 0.06624 0.47884 0.01419 0.0
C667 C 0.04623 0.49217 0.91649 0.0
C668 C 0.02271 0.5094 0.8792 0.0
C669 C 0.04234 0.49507 0.97676 0.0
C670 C 0.99467 0.52869 0.90321 0.0
C671 C 0.99048 0.53138 0.96287 0.0
H672 H 0.25378 0.18724 0.21595 0.0
H673 H 0.17813 0.2054 0.08276 0.0
H674 H 0.14365 0.15477 0.11536 0.0
H675 H 0.12927 0.11294 0.19393 0.0
H676 H 0.20334 0.09809 0.33193 0.0
H677 H 0.24385 0.13927 0.28639 0.0
C678 C 0.23069 0.17885 0.19271 0.0
C679 C 0.21944 0.19894 0.1455 0.0
C680 C 0.21008 0.15078 0.2139 0.0
C681 C 0.18844 0.1891 0.11706 0.0
C682 C 0.16823 0.16063 0.13673 0.0
C683 C 0.15482 0.11777 0.21285 0.0
C684 C 0.1631 0.10263 0.26661 0.0
C685 C 0.17797 0.14222 0.18672 0.0
C686 C 0.19619 0.10956 0.29082 0.0
C687 C 0.21948 0.13318 0.26469 0.0
H688 H 0.08264 0.99358 0.48674 0.0
H689 H 0.06693 0.92556 0.34182 0.0
H690 H 0.11582 0.88853 0.37185 0.0
H691 H 0.15519 0.86915 0.45009 0.0
H692 H 0.16546 0.93353 0.60164 0.0
H693 H 0.12698 0.97773 0.55977 0.0
C694 C 0.09106 0.97147 0.46076 0.0
C695 C 0.07247 0.96341 0.41036 0.0
C696 C 0.11766 0.9489 0.48091 0.0
C697 C 0.08248 0.93386 0.37809 0.0
C698 C 0.1098 0.91198 0.39651 0.0
C699 C 0.14976 0.8934 0.47303 0.0
C700 C 0.16294 0.89802 0.52907 0.0
C701 C 0.12659 0.9184 0.44917 0.0
C702 C 0.15534 0.92928 0.5587 0.0
C703 C 0.13332 0.95466 0.53463 0.0
H704 H 0.34765 0.82257 0.6021 0.0
H705 H 0.26427 0.82082 0.72726 0.0
H706 H 0.28964 0.87211 0.77594 0.0
H707 H 0.34128 0.90989 0.79205 0.0
H708 H 0.42563 0.91068 0.66731 0.0
H709 H 0.39396 0.86807 0.60832 0.0
C710 C 0.33407 0.83473 0.63808 0.0
C711 C 0.30369 0.81865 0.66068 0.0
C712 C 0.34958 0.86351 0.66659 0.0
C713 C 0.2872 0.83347 0.70887 0.0
C714 C 0.30202 0.8624 0.73697 0.0
C715 C 0.35237 0.90133 0.7513 0.0
C716 C 0.38594 0.91331 0.73449 0.0
C717 C 0.33414 0.8765 0.71781 0.0
C718 C 0.39981 0.90215 0.6813 0.0
C719 C 0.38179 0.87751 0.64766 0.0
H720 H 0.37475 0.09186 0.03457 0.0
H721 H 0.38121 0.18028 0.91852 0.0
H722 H 0.42278 0.14791 0.8572 0.0
H723 H 0.46457 0.09806 0.84695 0.0
H724 H 0.45832 0.01119 0.96611 0.0
H725 H 0.40805 0.03876 0.01403 0.0
C726 C 0.38473 0.10371 0.99516 0.0
C727 C 0.37538 0.13842 0.98135 0.0
C728 C 0.40844 0.085 0.96032 0.0
C729 C 0.38814 0.15351 0.93 0.0
C730 C 0.412 0.13506 0.89511 0.0
C731 C 0.45098 0.08429 0.8814 0.0
C732 C 0.46431 0.05195 0.90152 0.0
C733 C 0.42326 0.10115 0.91096 0.0
C734 C 0.44772 0.03533 0.94839 0.0
C735 C 0.41957 0.05138 0.97669 0.0
H736 H 0.23543 0.83233 0.81142 0.0
H737 H 0.15848 0.80436 0.93931 0.0
H738 H 0.1222 0.85467 0.91166 0.0
H739 H 0.10702 0.89904 0.83772 0.0
H740 H 0.18072 0.92125 0.70113 0.0
H741 H 0.2234 0.8812 0.74426 0.0
C742 C 0.21138 0.83824 0.83437 0.0
C743 C 0.20028 0.81559 0.87865 0.0
C744 C 0.18956 0.86573 0.81522 0.0
C745 C 0.16843 0.82254 0.90713 0.0
C746 C 0.14727 0.85084 0.8903 0.0
C747 C 0.13286 0.89582 0.8186 0.0
C748 C 0.14083 0.91295 0.76638 0.0
C749 C 0.15678 0.8716 0.84257 0.0
C750 C 0.17409 0.9082 0.74124 0.0
C751 C 0.19849 0.88528 0.76593 0.0
H752 H 0.45802 0.90616 0.16339 0.0
H753 H 0.44042 1.00297 0.07232 0.0
H754 H 0.38898 0.97743 0.02469 0.0
H755 H 0.35616 0.9243 0.99704 0.0
H756 H 0.37283 0.82735 0.08967 0.0
H757 H 0.41715 0.85614 0.14985 0.0
C758 C 0.4416 0.92226 0.13582 0.0
C759 C 0.45215 0.95686 0.12243 0.0
C760 C 0.41258 0.90697 0.10791 0.0
C761 C 0.43181 0.97687 0.08446 0.0
C762 C 0.40292 0.962 0.05654 0.0
C763 C 0.36897 0.90977 0.03133 0.0
C764 C 0.36163 0.87374 0.03864 0.0
C765 C 0.39411 0.92657 0.06597 0.0
C766 C 0.37811 0.85513 0.08336 0.0
C767 C 0.40353 0.87155 0.11756 0.0
H768 H 0.2861 0.18978 0.29855 0.0
H769 H 0.36094 0.21402 0.43036 0.0
H770 H 0.39692 0.1635 0.40195 0.0
H771 H 0.41224 0.11937 0.3275 0.0
H772 H 0.34035 0.10081 0.1879 0.0
H773 H 0.29834 0.14169 0.23015 0.0
C774 C 0.30952 0.18289 0.32226 0.0
C775 C 0.32 0.20438 0.36814 0.0
C776 C 0.33108 0.15523 0.30299 0.0
C777 C 0.35131 0.19655 0.39717 0.0
C778 C 0.3723 0.16814 0.37992 0.0
C779 C 0.38683 0.1235 0.30762 0.0
C780 C 0.37925 0.10708 0.25481 0.0
C781 C 0.36317 0.14816 0.33134 0.0
C782 C 0.34661 0.1131 0.22868 0.0
C783 C 0.32257 0.13656 0.25288 0.0
H784 H 0.06666 0.11514 0.67096 0.0
H785 H 0.07868 0.01726 0.58074 0.0
H786 H 0.131 0.04015 0.53116 0.0
H787 H 0.16682 0.09143 0.50252 0.0
H788 H 0.15546 0.18922 0.59434 0.0
H789 H 0.11014 0.16276 0.65614 0.0
C790 C 0.08205 0.09812 0.64318 0.0
C791 C 0.06965 0.06407 0.63073 0.0
C792 C 0.11179 0.11176 0.61453 0.0
C793 C 0.08862 0.04297 0.59226 0.0
C794 C 0.11815 0.05629 0.56338 0.0
C795 C 0.15498 0.1066 0.53706 0.0
C796 C 0.16411 0.14225 0.54363 0.0
C797 C 0.12904 0.09116 0.5724 0.0
C798 C 0.14886 0.16169 0.58863 0.0
C799 C 0.12281 0.14662 0.62369 0.0
H800 H 0.83595 0.94458 0.74481 0.0
H801 H 0.93809 0.89638 0.72702 0.0
H802 H 0.91693 0.84419 0.77839 0.0
H803 H 0.87005 0.81246 0.82827 0.0
H804 H 0.76779 0.85942 0.84872 0.0
H805 H 0.78849 0.91252 0.79738 0.0
C806 C 0.85342 0.9224 0.7514 0.0
C807 C 0.88852 0.92411 0.73116 0.0
C808 C 0.84124 0.89276 0.78242 0.0
C809 C 0.91101 0.89558 0.74152 0.0
C810 C 0.89895 0.86586 0.77121 0.0
C811 C 0.85233 0.83449 0.822 0.0
C812 C 0.81759 0.83231 0.84288 0.0
C813 C 0.8643 0.8643 0.79208 0.0
C814 C 0.79483 0.86085 0.83416 0.0
C815 C 0.80662 0.89095 0.80426 0.0
H816 H 0.82576 0.10483 0.54792 0.0
H817 H 0.88463 0.19599 0.49289 0.0
H818 H 0.93942 0.16702 0.52167 0.0
H819 H 0.96906 0.1191 0.57201 0.0
H820 H 0.91227 0.02545 0.62071 0.0
H821 H 0.85737 0.05212 0.58497 0.0
C822 C 0.8507 0.118 0.54117 0.0
C823 C 0.85135 0.15257 0.51853 0.0
C824 C 0.88195 0.10106 0.55775 0.0
C825 C 0.88366 0.16936 0.50967 0.0
C826 C 0.91483 0.1529 0.52668 0.0
C827 C 0.94477 0.10419 0.57446 0.0
C828 C 0.94425 0.0709 0.60178 0.0
C829 C 0.91407 0.11928 0.55232 0.0
C830 C 0.91284 0.05164 0.6025 0.0
C831 C 0.8817 0.06684 0.58154 0.0
H832 H 0.69278 0.07503 0.23961 0.0
H833 H 0.59142 0.12272 0.21076 0.0
H834 H 0.61099 0.1761 0.25977 0.0
H835 H 0.65597 0.20883 0.31203 0.0
H836 H 0.7573 0.16231 0.34373 0.0
H837 H 0.73855 0.10849 0.29318 0.0
C838 C 0.67512 0.0973 0.24329 0.0
C839 C 0.64066 0.09495 0.22066 0.0
C840 C 0.68637 0.12778 0.2729 0.0
C841 C 0.61801 0.12382 0.22717 0.0
C842 C 0.62916 0.1543 0.25549 0.0
C843 C 0.67402 0.18687 0.30809 0.0
C844 C 0.70787 0.1894 0.33232 0.0
C845 C 0.66309 0.15644 0.27885 0.0
C846 C 0.73093 0.16078 0.32652 0.0
C847 C 0.72023 0.13018 0.2972 0.0
H848 H 0.69528 0.91151 0.05053 0.0
H849 H 0.63384 0.8271 0.97853 0.0
H850 H 0.57988 0.86036 0.99786 0.0
H851 H 0.55076 0.90906 0.04653 0.0
H852 H 0.61086 0.99598 0.11351 0.0
H853 H 0.66558 0.96624 0.08375 0.0
C854 C 0.67013 0.90079 0.03782 0.0
C855 C 0.66837 0.86678 0.01336 0.0
C856 C 0.63936 0.92023 0.04887 0.0
C857 C 0.63573 0.8532 0.99701 0.0
C858 C 0.60498 0.87214 0.00847 0.0
C859 C 0.57571 0.92205 0.05404 0.0
C860 C 0.5769 0.95399 0.08517 0.0
C861 C 0.60652 0.90505 0.03613 0.0
C862 C 0.60943 0.97076 0.09212 0.0
C863 C 0.64057 0.95377 0.07483 0.0
H864 H 0.79985 0.17324 0.22094 0.0
H865 H 0.86666 0.21417 0.08678 0.0
H866 H 0.91099 0.1697 0.10783 0.0
H867 H 0.93119 0.11943 0.16473 0.0
H868 H 0.86946 0.08299 0.30895 0.0
H869 H 0.82309 0.1256 0.28501 0.0
C870 C 0.82365 0.17144 0.19526 0.0
C871 C 0.82854 0.19454 0.14819 0.0
C872 C 0.85029 0.14723 0.21066 0.0
C873 C 0.8609 0.19433 0.1191 0.0
C874 C 0.88666 0.16956 0.13226 0.0
C875 C 0.90781 0.1212 0.1915 0.0
C876 C 0.90387 0.09832 0.23873 0.0
C877 C 0.88165 0.14587 0.17784 0.0
C878 C 0.87342 0.10083 0.273 0.0
C879 C 0.8467 0.12484 0.25878 0.0
H880 H 0.56876 0.10435 0.95446 0.0
H881 H 0.62097 0.01183 0.8897 0.0
H882 H 0.67804 0.03654 0.91863 0.0
H883 H 0.71286 0.08706 0.95477 0.0
H884 H 0.65978 0.17765 0.02451 0.0
H885 H 0.60288 0.15088 1.00198 0.0
C886 C 0.5926 0.08938 0.94702 0.0
C887 C 0.59086 0.05689 0.91771 0.0
C888 C 0.62498 0.10354 0.9645 0.0
C889 C 0.62181 0.0374 0.91022 0.0
C890 C 0.65433 0.05149 0.92704 0.0
C891 C 0.68884 0.10073 0.96553 0.0
C892 C 0.69061 0.13453 0.99058 0.0
C893 C 0.65626 0.08499 0.95277 0.0
C894 C 0.65921 0.15168 1.00532 0.0
C895 C 0.62669 0.13645 0.99205 0.0
H896 H 0.67574 0.80573 0.71192 0.0
H897 H 0.77246 0.85557 0.6592 0.0
H898 H 0.74811 0.91336 0.68558 0.0
H899 H 0.69575 0.94997 0.70989 0.0
H900 H 0.6008 0.89895 0.76841 0.0
H901 H 0.62775 0.84124 0.75228 0.0
C902 C 0.69179 0.82915 0.7068 0.0
C903 C 0.72544 0.82649 0.68124 0.0
C904 C 0.67749 0.86209 0.7217 0.0
C905 C 0.74613 0.85701 0.67682 0.0
C906 C 0.73215 0.89002 0.69202 0.0
C907 C 0.68119 0.92618 0.72006 0.0
C908 C 0.64605 0.92873 0.73966 0.0
C909 C 0.69724 0.89301 0.71191 0.0
C910 C 0.62773 0.89772 0.75327 0.0
C911 C 0.64314 0.86473 0.74383 0.0
H912 H 0.96768 0.92437 0.47989 0.0
H913 H 0.91721 0.01324 0.39952 0.0
H914 H 0.85938 0.98924 0.42713 0.0
H915 H 0.82358 0.9393 0.46547 0.0
H916 H 0.87553 0.85369 0.55298 0.0
H917 H 0.93265 0.88049 0.53198 0.0
C918 C 0.94411 0.93886 0.46881 0.0
C919 C 0.94667 0.9697 0.43489 0.0
C920 C 0.91131 0.9253 0.48596 0.0
C921 C 0.91587 0.98866 0.42319 0.0
C922 C 0.88287 0.975 0.43933 0.0
C923 C 0.84742 0.92679 0.48067 0.0
C924 C 0.84531 0.89414 0.51005 0.0
C925 C 0.88027 0.94268 0.46908 0.0
C926 C 0.87636 0.87863 0.53027 0.0
C927 C 0.90905 0.89388 0.51794 0.0
H928 H 0.74418 0.68553 0.71591 0.0
H929 H 0.67719 0.7154 0.57591 0.0
H930 H 0.63635 0.66767 0.60016 0.0
H931 H 0.615 0.62381 0.67152 0.0
H932 H 0.67984 0.59858 0.8174 0.0
H933 H 0.72589 0.63767 0.78164 0.0
C934 C 0.72141 0.68043 0.68951 0.0
C935 C 0.71456 0.70281 0.64269 0.0
C936 C 0.6972 0.6541 0.70581 0.0
C937 C 0.68407 0.69723 0.61011 0.0
C938 C 0.6603 0.6704 0.62483 0.0
C939 C 0.63978 0.626 0.69415 0.0
C940 C 0.64417 0.60819 0.74688 0.0
C941 C 0.66596 0.64942 0.67384 0.0
C942 C 0.67596 0.61195 0.77671 0.0
C943 C 0.70234 0.63436 0.7562 0.0
H944 H 0.5621 0.41109 0.85353 0.0
H945 H 0.5812 0.51087 0.93399 0.0
H946 H 0.63361 0.48699 0.9817 0.0
H947 H 0.66767 0.43496 0.01159 0.0
H948 H 0.64894 0.33507 0.92967 0.0
H949 H 0.60333 0.36177 0.86943 0.0
C950 C 0.57891 0.42804 0.87898 0.0
C951 C 0.56853 0.46291 0.88985 0.0
C952 C 0.60862 0.41384 0.9064 0.0
C953 C 0.58948 0.48427 0.92467 0.0
C954 C 0.61906 0.47047 0.95219 0.0
C955 C 0.6541 0.41933 0.97953 0.0
C956 C 0.66121 0.38312 0.97534 0.0
C957 C 0.62796 0.43487 0.94525 0.0
C958 C 0.64382 0.36303 0.9335 0.0
C959 C 0.61763 0.37824 0.89936 0.0
H960 H 0.85156 0.40533 0.29026 0.0
H961 H 0.92947 0.41132 0.15528 0.0
H962 H 0.89638 0.36851 0.09818 0.0
H963 H 0.85079 0.32195 0.09552 0.0
H964 H 0.77286 0.31693 0.22981 0.0
H965 H 0.80046 0.367 0.27865 0.0
C966 C 0.86086 0.3978 0.24778 0.0
C967 C 0.89298 0.41117 0.2272 0.0
C968 C 0.84174 0.37326 0.21533 0.0
C969 C 0.90472 0.40146 0.17196 0.0
C970 C 0.88592 0.3768 0.13949 0.0
C971 C 0.83857 0.33331 0.13341 0.0
C972 C 0.80896 0.31686 0.158 0.0
C973 C 0.85499 0.36165 0.16164 0.0
C974 C 0.79493 0.33007 0.20951 0.0
C975 C 0.81091 0.35828 0.23765 0.0
H976 H 0.8794 0.65948 0.42913 0.0
H977 H 0.85114 0.57647 0.54738 0.0
H978 H 0.89296 0.53674 0.50086 0.0
H979 H 0.94512 0.5293 0.43813 0.0
H980 H 0.97586 0.61375 0.32477 0.0
H981 H 0.92553 0.64872 0.35619 0.0
C982 C 0.88161 0.63234 0.44335 0.0
C983 C 0.86242 0.62099 0.49188 0.0
C984 C 0.90655 0.60988 0.41732 0.0
C985 C 0.86577 0.58584 0.51023 0.0
C986 C 0.88983 0.56313 0.48378 0.0
C987 C 0.93979 0.55474 0.4187 0.0
C988 C 0.96338 0.56846 0.37766 0.0
C989 C 0.9115 0.57533 0.43897 0.0
C990 C 0.95715 0.60206 0.35448 0.0
C991 C 0.92871 0.62235 0.37331 0.0
H992 H 0.68289 0.41375 0.23862 0.0
H993 H 0.58041 0.39088 0.30892 0.0
H994 H 0.60582 0.34621 0.37256 0.0
H995 H 0.65567 0.30717 0.39521 0.0
H996 H 0.75813 0.33062 0.32711 0.0
H997 H 0.73476 0.38232 0.27656 0.0
C998 C 0.66635 0.39942 0.26881 0.0
C999 C 0.62987 0.40505 0.26872 0.0
C1000 C 0.68122 0.37405 0.30556 0.0
C1001 C 0.60857 0.38679 0.30829 0.0
C1002 C 0.62308 0.36123 0.34451 0.0
C1003 C 0.67309 0.32467 0.37151 0.0
C1004 C 0.70857 0.31547 0.36457 0.0
C1005 C 0.65917 0.35381 0.34202 0.0
C1006 C 0.7309 0.33769 0.33313 0.0
C1007 C 0.71738 0.36685 0.30371 0.0
H1008 H 0.94331 0.48638 0.52491 0.0
H1009 H 0.9525 0.42507 0.67999 0.0
H1010 H 0.90269 0.38857 0.65107 0.0
H1011 H 0.86478 0.36679 0.57193 0.0
H1012 H 0.8595 0.42608 0.41357 0.0
H1013 H 0.89829 0.47098 0.45359 0.0
C1014 C 0.93324 0.46606 0.5535 0.0
C1015 C 0.95087 0.45913 0.60541 0.0
C1016 C 0.90564 0.44415 0.53504 0.0
C1017 C 0.93838 0.43202 0.64129 0.0
C1018 C 0.91038 0.41052 0.62389 0.0
C1019 C 0.87139 0.39003 0.54689 0.0
C1020 C 0.85953 0.39292 0.48961 0.0
C1021 C 0.89495 0.41524 0.5695 0.0
C1022 C 0.86855 0.42307 0.45752 0.0
C1023 C 0.89084 0.44873 0.48033 0.0
H1024 H 0.86084 0.7063 0.90557 0.0
H1025 H 0.76521 0.6984 0.80857 0.0
H1026 H 0.78823 0.64671 0.7576 0.0
H1027 H 0.83917 0.61084 0.72966 0.0
H1028 H 0.93515 0.61883 0.82658 0.0
H1029 H 0.90822 0.66285 0.88972 0.0
C1030 C 0.84443 0.69209 0.87538 0.0
C1031 C 0.81114 0.70551 0.86134 0.0
C1032 C 0.85818 0.66295 0.84554 0.0
C1033 C 0.79051 0.68785 0.82075 0.0
C1034 C 0.80385 0.65871 0.79116 0.0
C1035 C 0.85386 0.62175 0.7654 0.0
C1036 C 0.88914 0.61206 0.77308 0.0
C1037 C 0.83823 0.64709 0.80136 0.0
C1038 C 0.90791 0.62595 0.81985 0.0
C1039 C 0.89258 0.65125 0.85575 0.0
H1040 H 0.58068 0.53323 0.02656 0.0
H1041 H 0.55629 0.60251 0.16693 0.0
H1042 H 0.60426 0.64189 0.13861 0.0
H1043 H 0.64645 0.66156 0.06367 0.0
H1044 H 0.66512 0.59545 0.91628 0.0
H1045 H 0.62671 0.55033 0.95629 0.0
C1046 C 0.58693 0.55627 0.05186 0.0
C1047 C 0.56627 0.56406 0.10035 0.0
C1048 C 0.61303 0.57992 0.0328 0.0
C1049 C 0.57328 0.59489 0.13156 0.0
C1050 C 0.60018 0.61785 0.11446 0.0
C1051 C 0.64268 0.63682 0.04127 0.0
C1052 C 0.65847 0.63176 0.98701 0.0
C1053 C 0.61937 0.61132 0.06384 0.0
C1054 C 0.65302 0.59994 0.95786 0.0
C1055 C 0.63098 0.57407 0.98084 0.0
H1056 H 0.35197 0.30589 0.27994 0.0
H1057 H 0.26543 0.35884 0.36188 0.0
H1058 H 0.29041 0.41625 0.33272 0.0
H1059 H 0.34248 0.45038 0.29665 0.0
H1060 H 0.4252 0.39565 0.20646 0.0
H1061 H 0.39583 0.33935 0.22552 0.0
C1062 C 0.33804 0.32986 0.29092 0.0
C1063 C 0.30792 0.32836 0.32679 0.0
C1064 C 0.35225 0.36222 0.2728 0.0
C1065 C 0.28961 0.35964 0.33754 0.0
C1066 C 0.30388 0.39228 0.32042 0.0
C1067 C 0.35356 0.42612 0.27998 0.0
C1068 C 0.38626 0.42699 0.2508 0.0
C1069 C 0.33615 0.39386 0.29041 0.0
C1070 C 0.40017 0.3956 0.22887 0.0
C1071 C 0.38347 0.36343 0.24018 0.0
H1072 H 0.46555 0.60036 0.02693 0.0
H1073 H 0.40941 0.52023 0.1221 0.0
H1074 H 0.35371 0.55014 0.1005 0.0
H1075 H 0.32272 0.6023 0.06285 0.0
H1076 H 0.37839 0.67932 0.96085 0.0
H1077 H 0.43332 0.64666 0.97592 0.0
C1078 C 0.44118 0.58892 0.04255 0.0
C1079 C 0.44181 0.559 0.07907 0.0
C1080 C 0.40951 0.60575 0.02864 0.0
C1081 C 0.4098 0.54412 0.09662 0.0
C1082 C 0.37801 0.56111 0.08382 0.0
C1083 C 0.34667 0.6117 0.04306 0.0
C1084 C 0.34656 0.6435 0.01132 0.0
C1085 C 0.37779 0.59255 0.05144 0.0
C1086 C 0.37782 0.65502 0.98538 0.0
C1087 C 0.40916 0.63643 0.99434 0.0
H1088 H 0.166 0.57111 0.79626 0.0
H1089 H 0.07571 0.62965 0.73865 0.0
H1090 H 0.10506 0.68496 0.7642 0.0
H1091 H 0.15348 0.71564 0.81155 0.0
H1092 H 0.24705 0.65913 0.85979 0.0
H1093 H 0.21941 0.60357 0.82901 0.0
C1094 C 0.15314 0.59611 0.7882 0.0
C1095 C 0.11866 0.59649 0.76574 0.0
C1096 C 0.17048 0.62778 0.80222 0.0
C1097 C 0.10223 0.62883 0.75537 0.0
C1098 C 0.11893 0.66035 0.77043 0.0
C1099 C 0.16817 0.69127 0.8149 0.0
C1100 C 0.20164 0.69122 0.84105 0.0
C1101 C 0.15261 0.66001 0.79524 0.0
C1102 C 0.22063 0.6596 0.84264 0.0
C1103 C 0.2049 0.62795 0.82456 0.0
H1104 H 0.1923 0.43956 0.48814 0.0
H1105 H 0.14199 0.33987 0.45438 0.0
H1106 H 0.088 0.36121 0.50015 0.0
H1107 H 0.05537 0.40761 0.55038 0.0
H1108 H 0.10555 0.50648 0.58916 0.0
H1109 H 0.15965 0.48599 0.54124 0.0
C1110 C 0.16937 0.42263 0.49012 0.0
C1111 C 0.17103 0.38822 0.46684 0.0
C1112 C 0.13867 0.43481 0.51804 0.0
C1113 C 0.14136 0.36642 0.47131 0.0
C1114 C 0.11054 0.37861 0.49769 0.0
C1115 C 0.07819 0.42472 0.54846 0.0
C1116 C 0.07656 0.45847 0.57364 0.0
C1117 C 0.10898 0.41263 0.52136 0.0
C1118 C 0.10631 0.48028 0.57084 0.0
C1119 C 0.1371 0.46858 0.54316 0.0
H1120 H 0.29148 0.66187 0.69975 0.0
H1121 H 0.37421 0.72646 0.62878 0.0
H1122 H 0.41798 0.68299 0.6568 0.0
H1123 H 0.43336 0.62752 0.70289 0.0
H1124 H 0.35249 0.56306 0.78002 0.0
H1125 H 0.30765 0.60537 0.74897 0.0
C1126 C 0.319 0.66579 0.68929 0.0
C1127 C 0.3295 0.69653 0.65975 0.0
C1128 C 0.34446 0.64098 0.70753 0.0
C1129 C 0.36545 0.70237 0.64951 0.0
C1130 C 0.39054 0.6777 0.66603 0.0
C1131 C 0.40596 0.62269 0.71325 0.0
C1132 C 0.39647 0.59216 0.74401 0.0
C1133 C 0.38044 0.64706 0.69537 0.0
C1134 C 0.36071 0.58653 0.75699 0.0
C1135 C 0.33497 0.61061 0.73877 0.0
H1136 H 0.17148 0.66956 0.4102 0.0
H1137 H 0.20243 0.60183 0.54986 0.0
H1138 H 0.1558 0.55971 0.52418 0.0
H1139 H 0.10597 0.54198 0.45979 0.0
H1140 H 0.07075 0.61552 0.33135 0.0
H1141 H 0.11929 0.65509 0.35346 0.0
C1142 C 0.16755 0.64586 0.43566 0.0
C1143 C 0.1899 0.63907 0.48239 0.0
C1144 C 0.14055 0.62221 0.42108 0.0
C1145 C 0.18492 0.60806 0.51461 0.0
C1146 C 0.15857 0.58377 0.49936 0.0
C1147 C 0.10976 0.56619 0.43567 0.0
C1148 C 0.08697 0.57422 0.3896 0.0
C1149 C 0.13639 0.59033 0.45208 0.0
C1150 C 0.09009 0.60719 0.36267 0.0
C1151 C 0.11727 0.63029 0.37648 0.0
H1152 H 0.10882 0.40073 0.21048 0.0
H1153 H 0.198 0.46235 0.26266 0.0
H1154 H 0.23789 0.41472 0.234 0.0
H1155 H 0.24743 0.3557 0.18883 0.0
H1156 H 0.15688 0.29362 0.14348 0.0
H1157 H 0.11778 0.34074 0.17426 0.0
C1158 C 0.13691 0.40321 0.21721 0.0
C1159 C 0.15042 0.43472 0.23939 0.0
C1160 C 0.1596 0.37581 0.20028 0.0
C1161 C 0.18697 0.43811 0.24622 0.0
C1162 C 0.20981 0.41098 0.22932 0.0
C1163 C 0.21919 0.35292 0.18495 0.0
C1164 C 0.20507 0.32185 0.16145 0.0
C1165 C 0.19651 0.37991 0.2049 0.0
C1166 C 0.16835 0.31776 0.15969 0.0
C1167 C 0.14591 0.34458 0.17773 0.0
H1168 H 0.46337 0.41676 0.96243 0.0
H1169 H 0.41306 0.50831 0.89058 0.0
H1170 H 0.35543 0.48519 0.92042 0.0
H1171 H 0.31921 0.43495 0.95589 0.0
H1172 H 0.37048 0.34564 0.03386 0.0
H1173 H 0.42795 0.3718 0.01258 0.0
C1174 C 0.43986 0.43197 0.95386 0.0
C1175 C 0.44237 0.46353 0.92169 0.0
C1176 C 0.40699 0.41856 0.97157 0.0
C1177 C 0.41174 0.48333 0.91293 0.0
C1178 C 0.37881 0.47012 0.93033 0.0
C1179 C 0.34299 0.42151 0.96915 0.0
C1180 C 0.34054 0.38808 0.99589 0.0
C1181 C 0.37603 0.43706 0.95759 0.0
C1182 C 0.37156 0.37126 0.01332 0.0
C1183 C 0.40445 0.38618 1.00085 0.0
H1184 H 0.12865 0.81311 0.10506 0.0
H1185 H 0.20291 0.89211 0.04861 0.0
H1186 H 0.17076 0.93707 0.10222 0.0
H1187 H 0.12269 0.95359 0.16794 0.0
H1188 H 0.04721 0.87509 0.22125 0.0
H1189 H 0.07884 0.83022 0.16636 0.0
C1190 C 0.1377 0.8402 0.10418 0.0
C1191 C 0.16828 0.84916 0.0732 0.0
C1192 C 0.11905 0.86594 0.13497 0.0
C1193 C 0.17945 0.88446 0.0721 0.0
C1194 C 0.16119 0.91018 0.10298 0.0
C1195 C 0.11329 0.92661 0.16766 0.0
C1196 C 0.08292 0.91752 0.19901 0.0
C1197 C 0.13122 0.90113 0.13515 0.0
C1198 C 0.0706 0.88267 0.1975 0.0
C1199 C 0.08865 0.85702 0.16614 0.0
H1200 H 0.39539 0.95017 0.34503 0.0
H1201 H 0.46165 0.86572 0.28497 0.0
H1202 H 0.42821 0.82348 0.343 0.0
H1203 H 0.38092 0.81072 0.412 0.0
H1204 H 0.31583 0.89538 0.47522 0.0
H1205 H 0.34836 0.9374 0.4155 0.0
C1206 C 0.40219 0.92244 0.34418 0.0
C1207 C 0.43076 0.91097 0.31048 0.0
C1208 C 0.3834 0.89844 0.37884 0.0
C1209 C 0.43973 0.87512 0.31054 0.0
C1210 C 0.42069 0.851 0.34383 0.0
C1211 C 0.37391 0.83838 0.41302 0.0
C1212 C 0.34594 0.84981 0.44812 0.0
C1213 C 0.3927 0.86241 0.37855 0.0
C1214 C 0.33729 0.88581 0.44878 0.0
C1215 C 0.35578 0.90987 0.41439 0.0
H1216 H 0.3936 0.2099 0.61113 0.0
H1217 H 0.33266 0.12632 0.53491 0.0
H1218 H 0.36813 0.08254 0.58563 0.0
H1219 H 0.41554 0.06799 0.65398 0.0
H1220 H 0.47749 0.15172 0.72731 0.0
H1221 H 0.44242 0.19537 0.67571 0.0
C1222 C 0.38814 0.18211 0.60526 0.0
C1223 C 0.36031 0.17151 0.56939 0.0
C1224 C 0.40869 0.15706 0.63449 0.0
C1225 C 0.35386 0.13531 0.56219 0.0
C1226 C 0.37407 0.11022 0.5914 0.0
C1227 C 0.42127 0.09581 0.65878 0.0
C1228 C 0.44896 0.1066 0.6948 0.0
C1229 C 0.40132 0.1208 0.62816 0.0
C1230 C 0.45637 0.1427 0.69989 0.0
C1231 C 0.4363 0.16769 0.67039 0.0
H1232 H 0.1489 0.20961 0.90534 0.0
H1233 H 0.21218 0.12409 0.97029 0.0
H1234 H 0.17761 0.08206 0.91461 0.0
H1235 H 0.12932 0.06961 0.84742 0.0
H1236 H 0.0647 0.15489 0.78594 0.0
H1237 H 0.10029 0.19716 0.83962 0.0
C1238 C 0.15509 0.18177 0.90756 0.0
C1239 C 0.18312 0.17004 0.94189 0.0
C1240 C 0.13512 0.15777 0.87553 0.0
C1241 C 0.19069 0.13384 0.94431 0.0
C1242 C 0.17105 0.10979 0.91227 0.0
C1243 C 0.12336 0.09751 0.84531 0.0
C1244 C 0.09468 0.10927 0.81256 0.0
C1245 C 0.14333 0.12149 0.87749 0.0
C1246 C 0.08673 0.14534 0.81091 0.0
C1247 C 0.10697 0.16945 0.84167 0.0
H1248 H 0.87329 1.00433 0.88631 0.0
H1249 H 0.77926 0.04562 0.80883 0.0
H1250 H 0.75428 0.05603 0.90384 0.0
H1251 H 0.7727 0.07905 0.99755 0.0
H1252 H 0.87388 0.051 0.06516 0.0
H1253 H 0.88104 1.00727 0.98958 0.0
C1254 C 0.84661 0.01398 0.88966 0.0
C1255 C 0.82909 0.02698 0.84062 0.0
C1256 C 0.83399 0.0229 0.94438 0.0
C1257 C 0.79395 0.03751 0.84631 0.0
C1258 C 0.77979 0.04365 0.9009 0.0
C1259 C 0.79557 0.06208 0.99754 0.0
C1260 C 0.82449 0.07068 0.03252 0.0
C1261 C 0.80154 0.04074 0.94933 0.0
C1262 C 0.85228 0.04646 0.0358 0.0
C1263 C 0.85679 0.02198 0.99166 0.0
H1264 H 0.7662 0.1167 0.591 0.0
H1265 H 0.71579 0.02486 0.52232 0.0
H1266 H 0.71144 0.9996 0.61937 0.0
H1267 H 0.70075 0.0158 0.71795 0.0
H1268 H 0.73868 0.11504 0.783 0.0
H1269 H 0.77268 0.12365 0.69462 0.0
C1270 C 0.75618 0.09025 0.5963 0.0
C1271 C 0.74029 0.07278 0.54954 0.0
C1272 C 0.75102 0.07772 0.6524 0.0
C1273 C 0.72745 0.03864 0.55788 0.0
C1274 C 0.72472 0.02457 0.61335 0.0
C1275 C 0.7169 0.03909 0.71416 0.0
C1276 C 0.714 0.06675 0.75444 0.0
C1277 C 0.73287 0.04573 0.66088 0.0
C1278 C 0.73823 0.09465 0.75048 0.0
C1279 C 0.75736 0.09977 0.69965 0.0
H1280 H 0.74924 0.94133 0.4963 0.0
H1281 H 0.64638 0.9645 0.56578 0.0
H1282 H 0.63267 0.99781 0.4794 0.0
H1283 H 0.64009 0.99714 0.37608 0.0
H1284 H 0.73534 0.95621 0.30099 0.0
H1285 H 0.76205 0.95284 0.39645 0.0
C1286 C 0.72395 0.95411 0.4938 0.0
C1287 C 0.69731 0.94716 0.53485 0.0
C1288 C 0.71464 0.96919 0.4412 0.0
C1289 C 0.66652 0.96748 0.53298 0.0
C1290 C 0.65844 0.9862 0.4831 0.0
C1291 C 0.66731 0.98912 0.37999 0.0
C1292 C 0.6858 0.97627 0.33179 0.0
C1293 C 0.68071 0.98365 0.43501 0.0
C1294 C 0.72085 0.96584 0.3378 0.0
C1295 C 0.73582 0.96367 0.3924 0.0
H1296 H 0.79487 0.93252 0.27234 0.0
H1297 H 0.84173 0.03301 0.23072 0.0
H1298 H 0.81406 0.03241 0.13767 0.0
H1299 H 0.79931 0.99073 0.05796 0.0
H1300 H 0.75068 0.89172 0.10338 0.0
H1301 H 0.75447 0.90568 0.20381 0.0
C1302 C 0.79813 0.95507 0.244 0.0
C1303 C 0.82446 0.97998 0.25523 0.0
C1304 C 0.78225 0.9546 0.18975 0.0
C1305 C 0.82527 1.01073 0.2207 0.0
C1306 C 0.80914 1.01074 0.16689 0.0
C1307 C 0.78798 0.9731 0.0897 0.0
C1308 C 0.77657 0.93958 0.07275 0.0
C1309 C 0.79137 0.98059 0.14861 0.0
C1310 C 0.76047 0.91752 0.11432 0.0
C1311 C 0.76306 0.92518 0.17263 0.0
H1312 H 0.62621 0.44944 0.66331 0.0
H1313 H 0.56231 0.36548 0.73278 0.0
H1314 H 0.59536 0.32241 0.67637 0.0
H1315 H 0.64134 0.30871 0.60578 0.0
H1316 H 0.70433 0.39258 0.53347 0.0
H1317 H 0.67237 0.43559 0.59179 0.0
C1318 C 0.61987 0.42165 0.6666 0.0
C1319 C 0.59201 0.41059 0.70243 0.0
C1320 C 0.63844 0.39709 0.63287 0.0
C1321 C 0.58366 0.37461 0.70554 0.0
C1322 C 0.60246 0.34999 0.67315 0.0
C1323 C 0.64802 0.33641 0.60244 0.0
C1324 C 0.6752 0.34733 0.56511 0.0
C1325 C 0.62963 0.36097 0.6362 0.0
C1326 C 0.68346 0.38339 0.56162 0.0
C1327 C 0.6653 0.40801 0.5952 0.0
H1328 H 0.87233 0.34665 0.9632 0.0
H1329 H 0.80567 0.43851 0.97005 0.0
H1330 H 0.84573 0.46993 0.90574 0.0
H1331 H 0.89796 0.47045 0.84353 0.0
H1332 H 0.96541 0.37929 0.8375 0.0
H1333 H 0.9266 0.34841 0.90513 0.0
C1334 C 0.86672 0.37367 0.95112 0.0
C1335 C 0.83582 0.39005 0.97118 0.0
C1336 C 0.88976 0.39157 0.91362 0.0
C1337 C 0.82917 0.42517 0.95531 0.0
C1338 C 0.85198 0.44314 0.91819 0.0
C1339 C 0.9041 0.44375 0.85678 0.0
C1340 C 0.93427 0.42699 0.83486 0.0
C1341 C 0.88198 0.42638 0.89624 0.0
C1342 C 0.94222 0.39268 0.85341 0.0
C1343 C 0.92008 0.37505 0.89217 0.0
H1344 H 0.89781 0.57207 0.161 0.0
H1345 H 0.97292 0.65422 0.19653 0.0
H1346 H 0.93876 0.69576 0.13887 0.0
H1347 H 0.88803 0.70854 0.07776 0.0
H1348 H 0.81393 0.62597 0.03851 0.0
H1349 H 0.84757 0.5846 0.09731 0.0
C1350 C 0.9064 0.59919 0.15659 0.0
C1351 C 0.93758 0.61026 0.18341 0.0
C1352 C 0.88714 0.62266 0.12204 0.0
C1353 C 0.9489 0.64521 0.17644 0.0
C1354 C 0.92947 0.6689 0.14333 0.0
C1355 C 0.87929 0.68145 0.08173 0.0
C1356 C 0.84845 0.67043 0.05381 0.0
C1357 C 0.8987 0.65785 0.11562 0.0
C1358 C 0.83764 0.63516 0.05934 0.0
C1359 C 0.85674 0.61153 0.09327 0.0
H1360 H 0.58341 0.60901 0.37507 0.0
H1361 H 0.64449 0.58781 0.22192 0.0
H1362 H 0.69463 0.61902 0.26311 0.0
H1363 H 0.72151 0.65049 0.34372 0.0
H1364 H 0.66072 0.67066 0.49749 0.0
H1365 H 0.61005 0.64126 0.45512 0.0
C1366 C 0.60756 0.61156 0.35042 0.0
C1367 C 0.61027 0.59621 0.29553 0.0
C1368 C 0.63641 0.6289 0.37476 0.0
C1369 C 0.64183 0.59937 0.26434 0.0
C1370 C 0.6705 0.61711 0.2879 0.0
C1371 C 0.69722 0.64842 0.3681 0.0
C1372 C 0.69501 0.66253 0.42399 0.0
C1373 C 0.6682 0.63159 0.34335 0.0
C1374 C 0.66326 0.65975 0.45474 0.0
C1375 C 0.63421 0.64309 0.43037 0.0
H1376 H 0.26674 0.59555 0.46921 0.0
H1377 H 0.35238 0.53586 0.54009 0.0
H1378 H 0.36282 0.50909 0.44606 0.0
H1379 H 0.36657 0.52531 0.34513 0.0
H1380 H 0.30121 0.60888 0.27998 0.0
H1381 H 0.26546 0.60648 0.36742 0.0
C1382 C 0.28731 0.57605 0.46471 0.0
C1383 C 0.31127 0.57058 0.51001 0.0
C1384 C 0.29821 0.5674 0.40901 0.0
C1385 C 0.33492 0.54236 0.50487 0.0
C1386 C 0.34161 0.52792 0.45058 0.0
C1387 C 0.34345 0.54178 0.34851 0.0
C1388 C 0.3357 0.56656 0.30495 0.0
C1389 C 0.32649 0.54377 0.40186 0.0
C1390 C 0.30667 0.58878 0.31176 0.0
C1391 C 0.28665 0.58769 0.36221 0.0
H1392 H 0.19233 0.51376 0.20579 0.0
H1393 H 0.23573 0.61098 0.2675 0.0
H1394 H 0.27267 0.61524 0.18194 0.0
H1395 H 0.26425 0.60929 0.08023 0.0
H1396 H 0.2074 0.52201 0.01046 0.0
H1397 H 0.20278 0.49564 0.10688 0.0
C1398 C 0.21141 0.53477 0.20226 0.0
C1399 C 0.20975 0.56335 0.24085 0.0
C1400 C 0.22805 0.53977 0.14898 0.0
C1401 C 0.23575 0.58934 0.23721 0.0
C1402 C 0.25607 0.59226 0.18734 0.0
C1403 C 0.25339 0.58317 0.08469 0.0
C1404 C 0.23491 0.56795 0.03859 0.0
C1405 C 0.24848 0.57037 0.14047 0.0
C1406 C 0.22053 0.53436 0.04601 0.0
C1407 C 0.21782 0.51967 0.10116 0.0
H1408 H 0.2455 0.43349 0.96801 0.0
H1409 H 0.14442 0.46521 0.03395 0.0
H1410 H 0.13379 0.49907 0.94584 0.0
H1411 H 0.14319 0.49748 0.84248 0.0
H1412 H 0.2379 0.45341 0.77224 0.0
H1413 H 0.26179 0.44653 0.8696 0.0
C1414 C 0.22163 0.44876 0.9646 0.0
C1415 C 0.19429 0.44441 1.00523 0.0
C1416 C 0.21438 0.4649 0.91175 0.0
C1417 C 0.16474 0.46637 1.00123 0.0
C1418 C 0.15854 0.48531 0.95067 0.0
C1419 C 0.16985 0.48823 0.84792 0.0
C1420 C 0.18886 0.47523 0.80026 0.0
C1421 C 0.18159 0.4815 0.90378 0.0
C1422 C 0.22305 0.46292 0.8085 0.0
C1423 C 0.23635 0.45882 0.86409 0.0
H1424 H 0.26738 0.38649 0.62197 0.0
H1425 H 0.3024 0.48619 0.55351 0.0
H1426 H 0.30799 0.5093 0.65148 0.0
H1427 H 0.32203 0.49314 0.75027 0.0
H1428 H 0.30349 0.38681 0.80902 0.0
H1429 H 0.26861 0.37563 0.72402 0.0
C1430 C 0.27461 0.41386 0.62782 0.0
C1431 C 0.28584 0.43444 0.5807 0.0
C1432 C 0.28091 0.42548 0.68362 0.0
C1433 C 0.29482 0.46979 0.58955 0.0
C1434 C 0.29803 0.48281 0.64549 0.0
C1435 C 0.31065 0.46729 0.74482 0.0
C1436 C 0.31982 0.43904 0.78148 0.0
C1437 C 0.29456 0.4596 0.69236 0.0
C1438 C 0.29959 0.40813 0.77859 0.0
C1439 C 0.2799 0.40144 0.72946 0.0
loop_
_geom_bond_atom_site_label_1
_geom_bond_atom_site_label_2
_geom_bond_distance
_geom_bond_site_symmetry_2
_ccdc_geom_bond_type
Zn0 N4 2.020 . S
Zn0 O8 2.019 . S
Zn0 N10 2.119 . S
Zn0 O18 1.975 . S
C1 N2 1.334 1_645 S
C1 N5 1.336 . S
N2 C1 1.334 1_465 S
N2 C3 1.333 1_565 S
C3 N2 1.333 1_545 S
C3 N4 1.342 . S
N4 Zn0 2.020 . S
N4 C3 1.342 . S
N4 N5 1.354 1_455 S
N5 C1 1.336 . S
N5 N4 1.354 1_655 S
N5 Zn9 2.020 . S
C6 O7 1.244 . S
C6 O30 1.257 . S
O7 C6 1.244 . S
O8 Zn0 2.019 . S
O8 C28 1.257 1_545 S
Zn9 N5 2.020 . S
Zn9 O16 1.975 . S
Zn9 N25 2.119 1_545 S
Zn9 O30 2.019 . S
N10 Zn0 2.119 . S
N10 C12 1.334 . S
N10 C13 1.328 . S
C11 C12 1.391 . S
C11 N14 1.329 . S
C11 H32 0.930 . S
C12 N10 1.334 . S
C12 C11 1.391 . S
C12 H19 0.930 . S
C13 N10 1.328 . S
C13 C15 1.392 . S
C13 H20 0.930 . S
N14 C11 1.329 . S
N14 C15 1.331 . S
C15 C13 1.392 . S
C15 N14 1.331 . S
O16 Zn9 1.975 . S
O16 C17 1.252 1_655 S
C17 O16 1.252 1_455 S
C17 O18 1.252 . S
O18 Zn0 1.975 . S
O18 C17 1.252 . S
H19 C12 0.930 . S
H20 C13 0.930 . S
C21 C22 1.392 . S
C21 N25 1.328 . S
C21 H27 0.930 . S
C22 C21 1.392 . S
C22 N26 1.331 . S
C23 C24 1.391 . S
C23 N26 1.329 . S
C23 H33 0.930 . S
C24 C23 1.391 . S
C24 N25 1.334 . S
C24 H31 0.930 . S
N25 Zn9 2.119 1_565 S
N25 C21 1.328 . S
N25 C24 1.334 . S
N26 C22 1.331 . S
N26 C23 1.329 . S
H27 C21 0.930 . S
C28 O8 1.257 1_565 S
C28 O29 1.244 . S
O29 C28 1.244 . S
O30 C6 1.257 . S
O30 Zn9 2.019 . S
H31 C24 0.930 . S
H32 C11 0.930 . S
H33 C23 0.930 . S
Zn34 N38 2.020 . S
Zn34 O42 2.019 . S
Zn34 N44 2.119 . S
Zn34 O52 1.975 . S
C35 N36 1.334 . S
C35 N39 1.336 . S
N36 C35 1.334 . S
N36 C37 1.334 . S
C37 N36 1.334 . S
C37 N38 1.336 . S
N38 Zn34 2.020 . S
N38 C37 1.336 . S
N38 N39 1.354 . S
N39 C35 1.336 . S
N39 N38 1.354 . S
N39 Zn43 2.020 . S
C40 O41 1.244 . S
C40 O64 1.257 . S
O41 C40 1.244 . S
O42 Zn34 2.019 . S
O42 C62 1.257 . S
Zn43 N39 2.020 . S
Zn43 O50 1.975 . S
Zn43 N59 2.119 . S
Zn43 O64 2.019 . S
N44 Zn34 2.119 . S
N44 C46 1.334 . S
N44 C47 1.328 . S
C45 C46 1.391 . S
C45 N48 1.329 . S
C45 H66 0.930 . S
C46 N44 1.334 . S
C46 C45 1.391 . S
C46 H53 0.930 . S
C47 N44 1.328 . S
C47 C49 1.392 . S
C47 H54 0.930 . S
N48 C45 1.329 . S
N48 C49 1.331 . S
C49 C47 1.392 . S
C49 N48 1.331 . S
O50 Zn43 1.975 . S
O50 C51 1.252 . S
C51 O50 1.252 . S
C51 O52 1.252 . S
O52 Zn34 1.975 . S
O52 C51 1.252 . S
H53 C46 0.930 . S
H54 C47 0.930 . S
C55 C56 1.392 . S
C55 N59 1.328 . S
C55 H61 0.930 . S
C56 C55 1.392 . S
C56 N60 1.331 . S
C57 C58 1.391 . S
C57 N60 1.329 . S
C57 H67 0.930 . S
C58 C57 1.391 . S
C58 N59 1.334 . S
C58 H65 0.930 . S
N59 Zn43 2.119 . S
N59 C55 1.328 . S
N59 C58 1.334 . S
N60 C56 1.331 . S
N60 C57 1.329 . S
H61 C55 0.930 . S
C62 O42 1.257 . S
C62 O63 1.244 . S
O63 C62 1.244 . S
O64 C40 1.257 . S
O64 Zn43 2.019 . S
H65 C58 0.930 . S
H66 C45 0.930 . S
H67 C57 0.930 . S
Zn68 N72 2.020 . S
Zn68 O76 2.019 . S
Zn68 N78 2.119 . S
Zn68 O86 1.975 . S
C69 N70 1.334 1_565 S
C69 N73 1.336 . S
N70 C69 1.334 1_545 S
N70 C71 1.337 . S
C71 N70 1.337 . S
C71 N72 1.324 1_545 S
N72 Zn68 2.020 . S
N72 C71 1.324 1_565 S
N72 N73 1.354 . S
N73 C69 1.336 . S
N73 N72 1.354 . S
N73 Zn77 2.020 . S
C74 O75 1.244 . S
C74 O98 1.257 . S
O75 C74 1.244 . S
O76 Zn68 2.019 . S
O76 C96 1.257 1_565 S
Zn77 N73 2.020 . S
Zn77 O84 1.975 . S
Zn77 N93 2.119 1_565 S
Zn77 O98 2.019 . S
N78 Zn68 2.119 . S
N78 C80 1.334 . S
N78 C81 1.328 . S
C79 C80 1.391 . S
C79 N82 1.329 . S
C79 H100 0.930 . S
C80 N78 1.334 . S
C80 C79 1.391 . S
C80 H87 0.930 . S
C81 N78 1.328 . S
C81 C83 1.392 . S
C81 H88 0.930 . S
N82 C79 1.329 . S
N82 C83 1.331 . S
C83 C81 1.392 . S
C83 N82 1.331 . S
O84 Zn77 1.975 . S
O84 C85 1.252 . S
C85 O84 1.252 . S
C85 O86 1.252 . S
O86 Zn68 1.975 . S
O86 C85 1.252 . S
H87 C80 0.930 . S
H88 C81 0.930 . S
C89 C90 1.392 . S
C89 N93 1.328 . S
C89 H95 0.930 . S
C90 C89 1.392 . S
C90 N94 1.331 . S
C91 C92 1.391 . S
C91 N94 1.329 . S
C91 H101 0.930 . S
C92 C91 1.391 . S
C92 N93 1.334 . S
C92 H99 0.930 . S
N93 Zn77 2.119 1_545 S
N93 C89 1.328 . S
N93 C92 1.334 . S
N94 C90 1.331 . S
N94 C91 1.329 . S
H95 C89 0.930 . S
C96 O76 1.257 1_545 S
C96 O97 1.244 . S
O97 C96 1.244 . S
O98 C74 1.257 . S
O98 Zn77 2.019 . S
H99 C92 0.930 . S
H100 C79 0.930 . S
H101 C91 0.930 . S
Zn102 N106 2.020 1_556 S
Zn102 O110 2.019 . S
Zn102 N112 2.119 1_556 S
Zn102 O120 1.975 . S
C103 N104 1.334 . S
C103 N107 1.336 . S
N104 C103 1.334 . S
N104 C105 1.334 . S
C105 N104 1.334 . S
C105 N106 1.336 . S
N106 Zn102 2.020 1_554 S
N106 C105 1.336 . S
N106 N107 1.354 . S
N107 C103 1.336 . S
N107 N106 1.354 . S
N107 Zn111 2.020 1_554 S
C108 O109 1.244 . S
C108 O132 1.257 1_554 S
O109 C108 1.244 . S
O110 Zn102 2.019 . S
O110 C130 1.257 . S
Zn111 N107 2.020 1_556 S
Zn111 O118 1.975 . S
Zn111 N127 2.119 . S
Zn111 O132 2.019 . S
N112 Zn102 2.119 1_554 S
N112 C114 1.334 . S
N112 C115 1.328 . S
C113 C114 1.391 . S
C113 N116 1.329 . S
C113 H134 0.930 . S
C114 N112 1.334 . S
C114 C113 1.391 . S
C114 H121 0.930 . S
C115 N112 1.328 . S
C115 C117 1.392 . S
C115 H122 0.930 . S
N116 C113 1.329 . S
N116 C117 1.331 . S
C117 C115 1.392 . S
C117 N116 1.331 . S
O118 Zn111 1.975 . S
O118 C119 1.252 . S
C119 O118 1.252 . S
C119 O120 1.252 . S
O120 Zn102 1.975 . S
O120 C119 1.252 . S
H121 C114 0.930 . S
H122 C115 0.930 . S
C123 C124 1.392 . S
C123 N127 1.328 . S
C123 H129 0.930 . S
C124 C123 1.392 . S
C124 N128 1.331 . S
C125 C126 1.391 . S
C125 N128 1.329 . S
C125 H135 0.930 . S
C126 C125 1.391 . S
C126 N127 1.334 . S
C126 H133 0.930 . S
N127 Zn111 2.119 . S
N127 C123 1.328 . S
N127 C126 1.334 . S
N128 C124 1.331 . S
N128 C125 1.329 . S
H129 C123 0.930 . S
C130 O110 1.257 . S
C130 O131 1.244 . S
O131 C130 1.244 . S
O132 C108 1.257 1_556 S
O132 Zn111 2.019 . S
H133 C126 0.930 . S
H134 C113 0.930 . S
H135 C125 0.930 . S
Zn136 N140 2.020 . S
Zn136 O144 2.019 . S
Zn136 N146 2.119 . S
Zn136 O154 1.975 . S
C137 N138 1.334 1_665 S
C137 N141 1.336 . S
N138 C137 1.334 1_445 S
N138 C139 1.333 1_545 S
C139 N138 1.333 1_565 S
C139 N140 1.342 . S
N140 Zn136 2.020 . S
N140 C139 1.342 . S
N140 N141 1.354 1_455 S
N141 C137 1.336 . S
N141 N140 1.354 1_655 S
N141 Zn145 2.020 . S
C142 O143 1.244 . S
C142 O166 1.257 . S
O143 C142 1.244 . S
O144 Zn136 2.019 . S
O144 C164 1.257 1_565 S
Zn145 N141 2.020 . S
Zn145 O152 1.975 . S
Zn145 N161 2.119 1_565 S
Zn145 O166 2.019 . S
N146 Zn136 2.119 . S
N146 C148 1.334 . S
N146 C149 1.328 . S
C147 C148 1.391 . S
C147 N150 1.329 . S
C147 H168 0.930 . S
C148 N146 1.334 . S
C148 C147 1.391 . S
C148 H155 0.930 . S
C149 N146 1.328 . S
C149 C151 1.392 . S
C149 H156 0.930 . S
N150 C147 1.329 . S
N150 C151 1.331 . S
C151 C149 1.392 . S
C151 N150 1.331 . S
O152 Zn145 1.975 . S
O152 C153 1.252 1_655 S
C153 O152 1.252 1_455 S
C153 O154 1.252 . S
O154 Zn136 1.975 . S
O154 C153 1.252 . S
H155 C148 0.930 . S
H156 C149 0.930 . S
C157 C158 1.392 . S
C157 N161 1.328 . S
C157 H163 0.930 . S
C158 C157 1.392 . S
C158 N162 1.331 . S
C159 C160 1.391 . S
C159 N162 1.329 . S
C159 H169 0.930 . S
C160 C159 1.391 . S
C160 N161 1.334 . S
C160 H167 0.930 . S
N161 Zn145 2.119 1_545 S
N161 C157 1.328 . S
N161 C160 1.334 . S
N162 C158 1.331 . S
N162 C159 1.329 . S
H163 C157 0.930 . S
C164 O144 1.257 1_545 S
C164 O165 1.244 . S
O165 C164 1.244 . S
O166 C142 1.257 . S
O166 Zn145 2.019 . S
H167 C160 0.930 . S
H168 C147 0.930 . S
H169 C159 0.930 . S
Zn170 N174 2.020 1_554 S
Zn170 O178 2.019 . S
Zn170 N180 2.119 . S
Zn170 O188 1.975 . S
C171 N172 1.334 . S
C171 N175 1.336 . S
N172 C171 1.334 . S
N172 C173 1.334 . S
C173 N172 1.334 . S
C173 N174 1.336 . S
N174 Zn170 2.020 1_556 S
N174 C173 1.336 . S
N174 N175 1.354 . S
N175 C171 1.336 . S
N175 N174 1.354 . S
N175 Zn179 2.020 1_556 S
C176 O177 1.244 . S
C176 O200 1.257 . S
O177 C176 1.244 . S
O178 Zn170 2.019 . S
O178 C198 1.257 1_554 S
Zn179 N175 2.020 1_554 S
Zn179 O186 1.975 . S
Zn179 N195 2.119 1_554 S
Zn179 O200 2.019 . S
N180 Zn170 2.119 . S
N180 C182 1.334 . S
N180 C183 1.328 . S
C181 C182 1.391 . S
C181 N184 1.329 . S
C181 H202 0.930 . S
C182 N180 1.334 . S
C182 C181 1.391 . S
C182 H189 0.930 . S
C183 N180 1.328 . S
C183 C185 1.392 . S
C183 H190 0.930 . S
N184 C181 1.329 . S
N184 C185 1.331 . S
C185 C183 1.392 . S
C185 N184 1.331 . S
O186 Zn179 1.975 . S
O186 C187 1.252 . S
C187 O186 1.252 . S
C187 O188 1.252 . S
O188 Zn170 1.975 . S
O188 C187 1.252 . S
H189 C182 0.930 . S
H190 C183 0.930 . S
C191 C192 1.392 . S
C191 N195 1.328 . S
C191 H197 0.930 . S
C192 C191 1.392 . S
C192 N196 1.331 . S
C193 C194 1.391 . S
C193 N196 1.329 . S
C193 H203 0.930 . S
C194 C193 1.391 . S
C194 N195 1.334 . S
C194 H201 0.930 . S
N195 Zn179 2.119 1_556 S
N195 C191 1.328 . S
N195 C194 1.334 . S
N196 C192 1.331 . S
N196 C193 1.329 . S
H197 C191 0.930 . S
C198 O178 1.257 1_556 S
C198 O199 1.244 . S
O199 C198 1.244 . S
O200 C176 1.257 . S
O200 Zn179 2.019 . S
H201 C194 0.930 . S
H202 C181 0.930 . S
H203 C193 0.930 . S
Zn204 N208 2.020 . S
Zn204 O212 2.019 . S
Zn204 N214 2.119 . S
Zn204 O222 1.975 . S
C205 N206 1.334 1_545 S
C205 N209 1.336 . S
N206 C205 1.334 1_565 S
N206 C207 1.337 . S
C207 N206 1.337 . S
C207 N208 1.324 1_565 S
N208 Zn204 2.020 . S
N208 C207 1.324 1_545 S
N208 N209 1.354 . S
N209 C205 1.336 . S
N209 N208 1.354 . S
N209 Zn213 2.020 . S
C210 O211 1.244 . S
C210 O234 1.257 . S
O211 C210 1.244 . S
O212 Zn204 2.019 . S
O212 C232 1.257 1_545 S
Zn213 N209 2.020 . S
Zn213 O220 1.975 . S
Zn213 N229 2.119 1_545 S
Zn213 O234 2.019 . S
N214 Zn204 2.119 . S
N214 C216 1.334 . S
N214 C217 1.328 . S
C215 C216 1.391 . S
C215 N218 1.329 . S
C215 H236 0.930 . S
C216 N214 1.334 . S
C216 C215 1.391 . S
C216 H223 0.930 . S
C217 N214 1.328 . S
C217 C219 1.392 . S
C217 H224 0.930 . S
N218 C215 1.329 . S
N218 C219 1.331 . S
C219 C217 1.392 . S
C219 N218 1.331 . S
O220 Zn213 1.975 . S
O220 C221 1.252 . S
C221 O220 1.252 . S
C221 O222 1.252 . S
O222 Zn204 1.975 . S
O222 C221 1.252 . S
H223 C216 0.930 . S
H224 C217 0.930 . S
C225 C226 1.392 . S
C225 N229 1.328 . S
C225 H231 0.930 . S
C226 C225 1.392 . S
C226 N230 1.331 . S
C227 C228 1.391 . S
C227 N230 1.329 . S
C227 H237 0.930 . S
C228 C227 1.391 . S
C228 N229 1.334 . S
C228 H235 0.930 . S
N229 Zn213 2.119 1_565 S
N229 C225 1.328 . S
N229 C228 1.334 . S
N230 C226 1.331 . S
N230 C227 1.329 . S
H231 C225 0.930 . S
C232 O212 1.257 1_565 S
C232 O233 1.244 . S
O233 C232 1.244 . S
O234 C210 1.257 . S
O234 Zn213 2.019 . S
H235 C228 0.930 . S
H236 C215 0.930 . S
H237 C227 0.930 . S
Zn238 N242 2.020 . S
Zn238 O246 2.019 . S
Zn238 N248 2.119 . S
Zn238 O256 1.975 . S
C239 N240 1.334 . S
C239 N243 1.336 . S
N240 C239 1.334 . S
N240 C241 1.334 . S
C241 N240 1.334 . S
C241 N242 1.336 . S
N242 Zn238 2.020 . S
N242 C241 1.336 . S
N242 N243 1.354 . S
N243 C239 1.336 . S
N243 N242 1.354 . S
N243 Zn247 2.020 . S
C244 O245 1.244 . S
C244 O268 1.257 . S
O245 C244 1.244 . S
O246 Zn238 2.019 . S
O246 C266 1.257 . S
Zn247 N243 2.020 . S
Zn247 O254 1.975 . S
Zn247 N263 2.119 . S
Zn247 O268 2.019 . S
N248 Zn238 2.119 . S
N248 C250 1.334 . S
N248 C251 1.328 . S
C249 C250 1.391 . S
C249 N252 1.329 . S
C249 H270 0.930 . S
C250 N248 1.334 . S
C250 C249 1.391 . S
C250 H257 0.930 . S
C251 N248 1.328 . S
C251 C253 1.392 . S
C251 H258 0.930 . S
N252 C249 1.329 . S
N252 C253 1.331 . S
C253 C251 1.392 . S
C253 N252 1.331 . S
O254 Zn247 1.975 . S
O254 C255 1.252 . S
C255 O254 1.252 . S
C255 O256 1.252 . S
O256 Zn238 1.975 . S
O256 C255 1.252 . S
H257 C250 0.930 . S
H258 C251 0.930 . S
C259 C260 1.392 . S
C259 N263 1.328 . S
C259 H265 0.930 . S
C260 C259 1.392 . S
C260 N264 1.331 . S
C261 C262 1.391 . S
C261 N264 1.329 . S
C261 H271 0.930 . S
C262 C261 1.391 . S
C262 N263 1.334 . S
C262 H269 0.930 . S
N263 Zn247 2.119 . S
N263 C259 1.328 . S
N263 C262 1.334 . S
N264 C260 1.331 . S
N264 C261 1.329 . S
H265 C259 0.930 . S
C266 O246 1.257 . S
C266 O267 1.244 . S
O267 C266 1.244 . S
O268 C244 1.257 . S
O268 Zn247 2.019 . S
H269 C262 0.930 . S
H270 C249 0.930 . S
H271 C261 0.930 . S
Zn272 N276 2.020 . S
Zn272 O280 2.019 . S
Zn272 N282 2.119 . S
Zn272 O290 1.975 . S
C273 N274 1.334 . S
C273 N277 1.336 . S
N274 C273 1.334 . S
N274 C275 1.334 . S
C275 N274 1.334 . S
C275 N276 1.336 . S
N276 Zn272 2.020 . S
N276 C275 1.336 . S
N276 N277 1.354 . S
N277 C273 1.336 . S
N277 N276 1.354 . S
N277 Zn281 2.020 . S
C278 O279 1.244 . S
C278 O302 1.257 . S
O279 C278 1.244 . S
O280 Zn272 2.019 . S
O280 C300 1.257 . S
Zn281 N277 2.020 . S
Zn281 O288 1.975 . S
Zn281 N297 2.119 . S
Zn281 O302 2.019 . S
N282 Zn272 2.119 . S
N282 C284 1.334 . S
N282 C285 1.328 . S
C283 C284 1.391 . S
C283 N286 1.329 . S
C283 H304 0.930 . S
C284 N282 1.334 . S
C284 C283 1.391 . S
C284 H291 0.930 . S
C285 N282 1.328 . S
C285 C287 1.392 . S
C285 H292 0.930 . S
N286 C283 1.329 . S
N286 C287 1.331 . S
C287 C285 1.392 . S
C287 N286 1.331 . S
O288 Zn281 1.975 . S
O288 C289 1.252 . S
C289 O288 1.252 . S
C289 O290 1.252 . S
O290 Zn272 1.975 . S
O290 C289 1.252 . S
H291 C284 0.930 . S
H292 C285 0.930 . S
C293 C294 1.392 . S
C293 N297 1.328 . S
C293 H299 0.930 . S
C294 C293 1.392 . S
C294 N298 1.331 . S
C295 C296 1.391 . S
C295 N298 1.329 . S
C295 H305 0.930 . S
C296 C295 1.391 . S
C296 N297 1.334 . S
C296 H303 0.930 . S
N297 Zn281 2.119 . S
N297 C293 1.328 . S
N297 C296 1.334 . S
N298 C294 1.331 . S
N298 C295 1.329 . S
H299 C293 0.930 . S
C300 O280 1.257 . S
C300 O301 1.244 . S
O301 C300 1.244 . S
O302 C278 1.257 . S
O302 Zn281 2.019 . S
H303 C296 0.930 . S
H304 C283 0.930 . S
H305 C295 0.930 . S
Zn306 N310 2.020 1_554 S
Zn306 O314 2.019 . S
Zn306 N316 2.119 1_554 S
Zn306 O324 1.975 . S
C307 N308 1.334 . S
C307 N311 1.336 . S
N308 C307 1.334 . S
N308 C309 1.334 . S
C309 N308 1.334 . S
C309 N310 1.336 . S
N310 Zn306 2.020 1_556 S
N310 C309 1.336 . S
N310 N311 1.354 . S
N311 C307 1.336 . S
N311 N310 1.354 . S
N311 Zn315 2.020 1_556 S
C312 O313 1.244 . S
C312 O336 1.257 1_556 S
O313 C312 1.244 . S
O314 Zn306 2.019 . S
O314 C334 1.257 . S
Zn315 N311 2.020 1_554 S
Zn315 O322 1.975 . S
Zn315 N331 2.119 . S
Zn315 O336 2.019 . S
N316 Zn306 2.119 1_556 S
N316 C318 1.334 . S
N316 C319 1.328 . S
C317 C318 1.391 . S
C317 N320 1.329 . S
C317 H338 0.930 . S
C318 N316 1.334 . S
C318 C317 1.391 . S
C318 H325 0.930 . S
C319 N316 1.328 . S
C319 C321 1.392 . S
C319 H326 0.930 . S
N320 C317 1.329 . S
N320 C321 1.331 . S
C321 C319 1.392 . S
C321 N320 1.331 . S
O322 Zn315 1.975 . S
O322 C323 1.252 . S
C323 O322 1.252 . S
C323 O324 1.252 . S
O324 Zn306 1.975 . S
O324 C323 1.252 . S
H325 C318 0.930 . S
H326 C319 0.930 . S
C327 C328 1.392 . S
C327 N331 1.328 . S
C327 H333 0.930 . S
C328 C327 1.392 . S
C328 N332 1.331 . S
C329 C330 1.391 . S
C329 N332 1.329 . S
C329 H339 0.930 . S
C330 C329 1.391 . S
C330 N331 1.334 . S
C330 H337 0.930 . S
N331 Zn315 2.119 . S
N331 C327 1.328 . S
N331 C330 1.334 . S
N332 C328 1.331 . S
N332 C329 1.329 . S
H333 C327 0.930 . S
C334 O314 1.257 . S
C334 O335 1.244 . S
O335 C334 1.244 . S
O336 C312 1.257 1_554 S
O336 Zn315 2.019 . S
H337 C330 0.930 . S
H338 C317 0.930 . S
H339 C329 0.930 . S
Zn340 N344 2.020 1_556 S
Zn340 O348 2.019 . S
Zn340 N350 2.119 . S
Zn340 O358 1.975 . S
C341 N342 1.334 . S
C341 N345 1.336 . S
N342 C341 1.334 . S
N342 C343 1.334 . S
C343 N342 1.334 . S
C343 N344 1.336 . S
N344 Zn340 2.020 1_554 S
N344 C343 1.336 . S
N344 N345 1.354 . S
N345 C341 1.336 . S
N345 N344 1.354 . S
N345 Zn349 2.020 1_554 S
C346 O347 1.244 . S
C346 O370 1.257 . S
O347 C346 1.244 . S
O348 Zn340 2.019 . S
O348 C368 1.257 1_556 S
Zn349 N345 2.020 1_556 S
Zn349 O356 1.975 . S
Zn349 N365 2.119 1_556 S
Zn349 O370 2.019 . S
N350 Zn340 2.119 . S
N350 C352 1.334 . S
N350 C353 1.328 . S
C351 C352 1.391 . S
C351 N354 1.329 . S
C351 H372 0.930 . S
C352 N350 1.334 . S
C352 C351 1.391 . S
C352 H359 0.930 . S
C353 N350 1.328 . S
C353 C355 1.392 . S
C353 H360 0.930 . S
N354 C351 1.329 . S
N354 C355 1.331 . S
C355 C353 1.392 . S
C355 N354 1.331 . S
O356 Zn349 1.975 . S
O356 C357 1.252 . S
C357 O356 1.252 . S
C357 O358 1.252 . S
O358 Zn340 1.975 . S
O358 C357 1.252 . S
H359 C352 0.930 . S
H360 C353 0.930 . S
C361 C362 1.392 . S
C361 N365 1.328 . S
C361 H367 0.930 . S
C362 C361 1.392 . S
C362 N366 1.331 . S
C363 C364 1.391 . S
C363 N366 1.329 . S
C363 H373 0.930 . S
C364 C363 1.391 . S
C364 N365 1.334 . S
C364 H371 0.930 . S
N365 Zn349 2.119 1_554 S
N365 C361 1.328 . S
N365 C364 1.334 . S
N366 C362 1.331 . S
N366 C363 1.329 . S
H367 C361 0.930 . S
C368 O348 1.257 1_554 S
C368 O369 1.244 . S
O369 C368 1.244 . S
O370 C346 1.257 . S
O370 Zn349 2.019 . S
H371 C364 0.930 . S
H372 C351 0.930 . S
H373 C363 0.930 . S
Zn374 N378 2.020 . S
Zn374 O382 2.019 . S
Zn374 N384 2.119 . S
Zn374 O392 1.975 . S
C375 N376 1.334 . S
C375 N379 1.336 . S
N376 C375 1.334 . S
N376 C377 1.334 . S
C377 N376 1.334 . S
C377 N378 1.336 . S
N378 Zn374 2.020 . S
N378 C377 1.336 . S
N378 N379 1.354 . S
N379 C375 1.336 . S
N379 N378 1.354 . S
N379 Zn383 2.020 . S
C380 O381 1.244 . S
C380 O404 1.257 . S
O381 C380 1.244 . S
O382 Zn374 2.019 . S
O382 C402 1.257 . S
Zn383 N379 2.020 . S
Zn383 O390 1.975 . S
Zn383 N399 2.119 . S
Zn383 O404 2.019 . S
N384 Zn374 2.119 . S
N384 C386 1.334 . S
N384 C387 1.328 . S
C385 C386 1.391 . S
C385 N388 1.329 . S
C385 H406 0.930 . S
C386 N384 1.334 . S
C386 C385 1.391 . S
C386 H393 0.930 . S
C387 N384 1.328 . S
C387 C389 1.392 . S
C387 H394 0.930 . S
N388 C385 1.329 . S
N388 C389 1.331 . S
C389 C387 1.392 . S
C389 N388 1.331 . S
O390 Zn383 1.975 . S
O390 C391 1.252 . S
C391 O390 1.252 . S
C391 O392 1.252 . S
O392 Zn374 1.975 . S
O392 C391 1.252 . S
H393 C386 0.930 . S
H394 C387 0.930 . S
C395 C396 1.392 . S
C395 N399 1.328 . S
C395 H401 0.930 . S
C396 C395 1.392 . S
C396 N400 1.331 . S
C397 C398 1.391 . S
C397 N400 1.329 . S
C397 H407 0.930 . S
C398 C397 1.391 . S
C398 N399 1.334 . S
C398 H405 0.930 . S
N399 Zn383 2.119 . S
N399 C395 1.328 . S
N399 C398 1.334 . S
N400 C396 1.331 . S
N400 C397 1.329 . S
H401 C395 0.930 . S
C402 O382 1.257 . S
C402 O403 1.244 . S
O403 C402 1.244 . S
O404 C380 1.257 . S
O404 Zn383 2.019 . S
H405 C398 0.930 . S
H406 C385 0.930 . S
H407 C397 0.930 . S
Zn408 N412 2.020 . S
Zn408 O416 2.019 . S
Zn408 N418 2.119 . S
Zn408 O426 1.975 . S
C409 N410 1.334 . S
C409 N413 1.336 . S
N410 C409 1.334 . S
N410 C411 1.334 . S
C411 N410 1.334 . S
C411 N412 1.336 . S
N412 Zn408 2.020 . S
N412 C411 1.336 . S
N412 N413 1.354 . S
N413 C409 1.336 . S
N413 N412 1.354 . S
N413 Zn417 2.020 . S
C414 O415 1.244 . S
C414 O438 1.257 . S
O415 C414 1.244 . S
O416 Zn408 2.019 . S
O416 C436 1.257 . S
Zn417 N413 2.020 . S
Zn417 O424 1.975 . S
Zn417 N433 2.119 . S
Zn417 O438 2.019 . S
N418 Zn408 2.119 . S
N418 C420 1.334 . S
N418 C421 1.328 . S
C419 C420 1.391 . S
C419 N422 1.329 . S
C419 H440 0.930 . S
C420 N418 1.334 . S
C420 C419 1.391 . S
C420 H427 0.930 . S
C421 N418 1.328 . S
C421 C423 1.392 . S
C421 H428 0.930 . S
N422 C419 1.329 . S
N422 C423 1.331 . S
C423 C421 1.392 . S
C423 N422 1.331 . S
O424 Zn417 1.975 . S
O424 C425 1.252 . S
C425 O424 1.252 . S
C425 O426 1.252 . S
O426 Zn408 1.975 . S
O426 C425 1.252 . S
H427 C420 0.930 . S
H428 C421 0.930 . S
C429 C430 1.392 . S
C429 N433 1.328 . S
C429 H435 0.930 . S
C430 C429 1.392 . S
C430 N434 1.331 . S
C431 C432 1.391 . S
C431 N434 1.329 . S
C431 H441 0.930 . S
C432 C431 1.391 . S
C432 N433 1.334 . S
C432 H439 0.930 . S
N433 Zn417 2.119 . S
N433 C429 1.328 . S
N433 C432 1.334 . S
N434 C430 1.331 . S
N434 C431 1.329 . S
H435 C429 0.930 . S
C436 O416 1.257 . S
C436 O437 1.244 . S
O437 C436 1.244 . S
O438 C414 1.257 . S
O438 Zn417 2.019 . S
H439 C432 0.930 . S
H440 C419 0.930 . S
H441 C431 0.930 . S
Zn442 N446 2.020 . S
Zn442 O450 2.019 . S
Zn442 N452 2.119 . S
Zn442 O460 1.975 . S
C443 N444 1.334 . S
C443 N447 1.336 . S
N444 C443 1.334 . S
N444 C445 1.334 1_455 S
C445 N444 1.334 1_655 S
C445 N446 1.336 . S
N446 Zn442 2.020 . S
N446 C445 1.336 . S
N446 N447 1.354 1_655 S
N447 C443 1.336 . S
N447 N446 1.354 1_455 S
N447 Zn451 2.020 . S
C448 O449 1.244 . S
C448 O472 1.257 . S
O449 C448 1.244 . S
O450 Zn442 2.019 . S
O450 C470 1.257 . S
Zn451 N447 2.020 . S
Zn451 O458 1.975 . S
Zn451 N467 2.119 . S
Zn451 O472 2.019 . S
N452 Zn442 2.119 . S
N452 C454 1.334 . S
N452 C455 1.328 . S
C453 C454 1.391 . S
C453 N456 1.329 . S
C453 H474 0.930 . S
C454 N452 1.334 . S
C454 C453 1.391 . S
C454 H461 0.930 . S
C455 N452 1.328 . S
C455 C457 1.392 . S
C455 H462 0.930 . S
N456 C453 1.329 . S
N456 C457 1.331 . S
C457 C455 1.392 . S
C457 N456 1.331 . S
O458 Zn451 1.975 . S
O458 C459 1.252 . S
C459 O458 1.252 . S
C459 O460 1.252 1_455 S
O460 Zn442 1.975 . S
O460 C459 1.252 1_655 S
H461 C454 0.930 . S
H462 C455 0.930 . S
C463 C464 1.392 . S
C463 N467 1.328 . S
C463 H469 0.930 . S
C464 C463 1.392 . S
C464 N468 1.331 . S
C465 C466 1.391 . S
C465 N468 1.329 . S
C465 H475 0.930 . S
C466 C465 1.391 . S
C466 N467 1.334 . S
C466 H473 0.930 . S
N467 Zn451 2.119 . S
N467 C463 1.328 . S
N467 C466 1.334 . S
N468 C464 1.331 . S
N468 C465 1.329 . S
H469 C463 0.930 . S
C470 O450 1.257 . S
C470 O471 1.244 . S
O471 C470 1.244 . S
O472 C448 1.257 . S
O472 Zn451 2.019 . S
H473 C466 0.930 . S
H474 C453 0.930 . S
H475 C465 0.930 . S
Zn476 N480 2.020 . S
Zn476 O484 2.019 . S
Zn476 N486 2.119 . S
Zn476 O494 1.975 . S
C477 N478 1.334 . S
C477 N481 1.336 . S
N478 C477 1.334 . S
N478 C479 1.334 . S
C479 N478 1.334 . S
C479 N480 1.336 . S
N480 Zn476 2.020 . S
N480 C479 1.336 . S
N480 N481 1.354 . S
N481 C477 1.336 . S
N481 N480 1.354 . S
N481 Zn485 2.020 . S
C482 O483 1.244 . S
C482 O506 1.257 . S
O483 C482 1.244 . S
O484 Zn476 2.019 . S
O484 C504 1.257 . S
Zn485 N481 2.020 . S
Zn485 O492 1.975 . S
Zn485 N501 2.119 . S
Zn485 O506 2.019 . S
N486 Zn476 2.119 . S
N486 C488 1.334 . S
N486 C489 1.328 . S
C487 C488 1.391 . S
C487 N490 1.329 . S
C487 H508 0.930 . S
C488 N486 1.334 . S
C488 C487 1.391 . S
C488 H495 0.930 . S
C489 N486 1.328 . S
C489 C491 1.392 . S
C489 H496 0.930 . S
N490 C487 1.329 . S
N490 C491 1.331 . S
C491 C489 1.392 . S
C491 N490 1.331 . S
O492 Zn485 1.975 . S
O492 C493 1.252 . S
C493 O492 1.252 . S
C493 O494 1.252 . S
O494 Zn476 1.975 . S
O494 C493 1.252 . S
H495 C488 0.930 . S
H496 C489 0.930 . S
C497 C498 1.392 . S
C497 N501 1.328 . S
C497 H503 0.930 . S
C498 C497 1.392 . S
C498 N502 1.331 . S
C499 C500 1.391 . S
C499 N502 1.329 . S
C499 H509 0.930 . S
C500 C499 1.391 . S
C500 N501 1.334 . S
C500 H507 0.930 . S
N501 Zn485 2.119 . S
N501 C497 1.328 . S
N501 C500 1.334 . S
N502 C498 1.331 . S
N502 C499 1.329 . S
H503 C497 0.930 . S
C504 O484 1.257 . S
C504 O505 1.244 . S
O505 C504 1.244 . S
O506 C482 1.257 . S
O506 Zn485 2.019 . S
H507 C500 0.930 . S
H508 C487 0.930 . S
H509 C499 0.930 . S
Zn510 N514 2.020 . S
Zn510 O518 2.019 . S
Zn510 N520 2.119 . S
Zn510 O528 1.975 . S
C511 N512 1.334 1_655 S
C511 N515 1.336 . S
N512 C511 1.334 1_455 S
N512 C513 1.334 . S
C513 N512 1.334 . S
C513 N514 1.336 . S
N514 Zn510 2.020 . S
N514 C513 1.336 . S
N514 N515 1.354 1_455 S
N515 C511 1.336 . S
N515 N514 1.354 1_655 S
N515 Zn519 2.020 . S
C516 O517 1.244 . S
C516 O540 1.257 . S
O517 C516 1.244 . S
O518 Zn510 2.019 . S
O518 C538 1.257 . S
Zn519 N515 2.020 . S
Zn519 O526 1.975 . S
Zn519 N535 2.119 . S
Zn519 O540 2.019 . S
N520 Zn510 2.119 . S
N520 C522 1.334 . S
N520 C523 1.328 . S
C521 C522 1.391 . S
C521 N524 1.329 . S
C521 H542 0.930 . S
C522 N520 1.334 . S
C522 C521 1.391 . S
C522 H529 0.930 . S
C523 N520 1.328 . S
C523 C525 1.392 . S
C523 H530 0.930 . S
N524 C521 1.329 . S
N524 C525 1.331 . S
C525 C523 1.392 . S
C525 N524 1.331 . S
O526 Zn519 1.975 . S
O526 C527 1.252 1_655 S
C527 O526 1.252 1_455 S
C527 O528 1.252 . S
O528 Zn510 1.975 . S
O528 C527 1.252 . S
H529 C522 0.930 . S
H530 C523 0.930 . S
C531 C532 1.392 . S
C531 N535 1.328 . S
C531 H537 0.930 . S
C532 C531 1.392 . S
C532 N536 1.331 . S
C533 C534 1.391 . S
C533 N536 1.329 . S
C533 H543 0.930 . S
C534 C533 1.391 . S
C534 N535 1.334 . S
C534 H541 0.930 . S
N535 Zn519 2.119 . S
N535 C531 1.328 . S
N535 C534 1.334 . S
N536 C532 1.331 . S
N536 C533 1.329 . S
H537 C531 0.930 . S
C538 O518 1.257 . S
C538 O539 1.244 . S
O539 C538 1.244 . S
O540 C516 1.257 . S
O540 Zn519 2.019 . S
H541 C534 0.930 . S
H542 C521 0.930 . S
H543 C533 0.930 . S
H544 C550 0.930 . S
H545 C553 0.930 . S
H546 C554 0.930 . S
H547 C555 0.929 1_655 S
H548 C558 0.930 . S
H549 C559 0.930 . S
C550 H544 0.930 . S
C550 C551 1.355 . S
C550 C552 1.415 1_556 S
C551 C550 1.355 . S
C551 C553 1.419 1_465 S
C552 C550 1.415 1_554 S
C552 C557 1.425 1_564 S
C552 C559 1.409 . S
C553 H545 0.930 . S
C553 C551 1.419 1_645 S
C553 C554 1.362 . S
C554 H546 0.930 . S
C554 C553 1.362 . S
C554 C557 1.409 1_655 S
C555 H547 0.929 1_455 S
C555 C556 1.355 . S
C555 C557 1.415 1_554 S
C556 C555 1.355 . S
C556 C558 1.419 1_545 S
C557 C552 1.425 1_546 S
C557 C554 1.409 1_455 S
C557 C555 1.415 1_556 S
C558 H548 0.930 . S
C558 C556 1.419 1_565 S
C558 C559 1.362 . S
C559 H549 0.930 . S
C559 C552 1.409 . S
C559 C558 1.362 . S
H560 C566 0.930 . S
H561 C569 0.930 . S
H562 C570 0.930 . S
H563 C571 0.930 . S
H564 C574 0.930 . S
H565 C575 0.930 . S
C566 H560 0.930 . S
C566 C567 1.355 . S
C566 C568 1.415 . S
C567 C566 1.355 . S
C567 C569 1.419 . S
C568 C566 1.415 . S
C568 C573 1.425 . S
C568 C575 1.409 . S
C569 H561 0.930 . S
C569 C567 1.419 . S
C569 C570 1.362 . S
C570 H562 0.930 . S
C570 C569 1.362 . S
C570 C573 1.409 . S
C571 H563 0.930 . S
C571 C572 1.355 . S
C571 C573 1.415 . S
C572 C571 1.355 . S
C572 C574 1.419 . S
C573 C568 1.425 . S
C573 C570 1.409 . S
C573 C571 1.415 . S
C574 H564 0.930 . S
C574 C572 1.419 . S
C574 C575 1.362 . S
C575 H565 0.930 . S
C575 C568 1.409 . S
C575 C574 1.362 . S
H576 C582 0.922 1_565 S
H577 C585 0.930 . S
H578 C586 0.930 . S
H579 C587 0.922 1_545 S
H580 C590 0.930 . S
H581 C591 0.930 . S
C582 H576 0.922 1_545 S
C582 C583 1.355 . S
C582 C584 1.415 1_545 S
C583 C582 1.355 . S
C583 C585 1.419 . S
C584 C582 1.415 1_565 S
C584 C589 1.425 1_565 S
C584 C591 1.409 . S
C585 H577 0.930 . S
C585 C583 1.419 . S
C585 C586 1.362 . S
C586 H578 0.930 . S
C586 C585 1.362 . S
C586 C589 1.409 . S
C587 H579 0.922 1_565 S
C587 C588 1.355 . S
C587 C589 1.415 1_565 S
C588 C587 1.355 . S
C588 C590 1.419 . S
C589 C584 1.425 1_545 S
C589 C586 1.409 . S
C589 C587 1.415 1_545 S
C590 H580 0.930 . S
C590 C588 1.419 . S
C590 C591 1.362 . S
C591 H581 0.930 . S
C591 C584 1.409 . S
C591 C590 1.362 . S
H592 C598 0.930 . S
H593 C601 0.930 . S
H594 C602 0.930 . S
H595 C603 0.930 . S
H596 C606 0.930 . S
H597 C607 0.930 . S
C598 H592 0.930 . S
C598 C599 1.355 . S
C598 C600 1.415 . S
C599 C598 1.355 . S
C599 C601 1.419 . S
C600 C598 1.415 . S
C600 C605 1.425 . S
C600 C607 1.409 . S
C601 H593 0.930 . S
C601 C599 1.419 . S
C601 C602 1.362 . S
C602 H594 0.930 . S
C602 C601 1.362 . S
C602 C605 1.409 . S
C603 H595 0.930 . S
C603 C604 1.355 . S
C603 C605 1.415 . S
C604 C603 1.355 . S
C604 C606 1.419 . S
C605 C600 1.425 . S
C605 C602 1.409 . S
C605 C603 1.415 . S
C606 H596 0.930 . S
C606 C604 1.419 . S
C606 C607 1.362 . S
C607 H597 0.930 . S
C607 C600 1.409 . S
C607 C606 1.362 . S
H608 C614 0.930 . S
H609 C617 0.930 . S
H610 C618 0.930 . S
H611 C619 0.930 . S
H612 C622 0.930 . S
H613 C623 0.930 . S
C614 H608 0.930 . S
C614 C615 1.355 . S
C614 C616 1.415 . S
C615 C614 1.355 . S
C615 C617 1.419 . S
C616 C614 1.415 . S
C616 C621 1.425 . S
C616 C623 1.409 . S
C617 H609 0.930 . S
C617 C615 1.419 . S
C617 C618 1.362 . S
C618 H610 0.930 . S
C618 C617 1.362 . S
C618 C621 1.409 . S
C619 H611 0.930 . S
C619 C620 1.355 . S
C619 C621 1.415 . S
C620 C619 1.355 . S
C620 C622 1.419 . S
C621 C616 1.425 . S
C621 C618 1.409 . S
C621 C619 1.415 . S
C622 H612 0.930 . S
C622 C620 1.419 . S
C622 C623 1.362 . S
C623 H613 0.930 . S
C623 C616 1.409 . S
C623 C622 1.362 . S
H624 C630 0.930 . S
H625 C633 0.930 . S
H626 C634 0.930 . S
H627 C635 0.930 . S
H628 C638 0.930 . S
H629 C639 0.930 . S
C630 H624 0.930 . S
C630 C631 1.355 . S
C630 C632 1.415 . S
C631 C630 1.355 . S
C631 C633 1.419 . S
C632 C630 1.415 . S
C632 C637 1.425 . S
C632 C639 1.409 . S
C633 H625 0.930 . S
C633 C631 1.419 . S
C633 C634 1.362 . S
C634 H626 0.930 . S
C634 C633 1.362 . S
C634 C637 1.409 . S
C635 H627 0.930 . S
C635 C636 1.355 . S
C635 C637 1.415 . S
C636 C635 1.355 . S
C636 C638 1.419 . S
C637 C632 1.425 . S
C637 C634 1.409 . S
C637 C635 1.415 . S
C638 H628 0.930 . S
C638 C636 1.419 . S
C638 C639 1.362 . S
C639 H629 0.930 . S
C639 C632 1.409 . S
C639 C638 1.362 . S
H640 C646 0.930 . S
H641 C649 0.930 . S
H642 C650 0.930 . S
H643 C651 0.930 . S
H644 C654 0.930 . S
H645 C655 0.930 . S
C646 H640 0.930 . S
C646 C647 1.355 . S
C646 C648 1.415 . S
C647 C646 1.355 . S
C647 C649 1.419 . S
C648 C646 1.415 . S
C648 C653 1.425 . S
C648 C655 1.409 . S
C649 H641 0.930 . S
C649 C647 1.419 . S
C649 C650 1.362 . S
C650 H642 0.930 . S
C650 C649 1.362 . S
C650 C653 1.409 . S
C651 H643 0.930 . S
C651 C652 1.355 . S
C651 C653 1.415 . S
C652 C651 1.355 . S
C652 C654 1.419 . S
C653 C648 1.425 . S
C653 C650 1.409 . S
C653 C651 1.415 . S
C654 H644 0.930 . S
C654 C652 1.419 . S
C654 C655 1.362 . S
C655 H645 0.930 . S
C655 C648 1.409 . S
C655 C654 1.362 . S
H656 C662 0.930 . S
H657 C665 0.930 . S
H658 C666 0.930 . S
H659 C667 0.930 . S
H660 C670 0.930 . S
H661 C671 0.930 . S
C662 H656 0.930 . S
C662 C663 1.355 1_655 S
C662 C664 1.415 . S
C663 C662 1.355 1_455 S
C663 C665 1.419 . S
C664 C662 1.415 . S
C664 C669 1.425 1_654 S
C664 C671 1.409 . S
C665 H657 0.930 . S
C665 C663 1.419 . S
C665 C666 1.362 1_554 S
C666 H658 0.930 . S
C666 C665 1.362 1_556 S
C666 C669 1.409 . S
C667 H659 0.930 . S
C667 C668 1.355 . S
C667 C669 1.415 . S
C668 C667 1.355 . S
C668 C670 1.419 1_455 S
C669 C664 1.425 1_456 S
C669 C666 1.409 . S
C669 C667 1.415 . S
C670 H660 0.930 . S
C670 C668 1.419 1_655 S
C670 C671 1.362 1_556 S
C671 H661 0.930 . S
C671 C664 1.409 . S
C671 C670 1.362 1_554 S
H672 C678 0.930 . S
H673 C681 0.930 . S
H674 C682 0.930 . S
H675 C683 0.930 . S
H676 C686 0.930 . S
H677 C687 0.930 . S
C678 H672 0.930 . S
C678 C679 1.355 . S
C678 C680 1.415 . S
C679 C678 1.355 . S
C679 C681 1.419 . S
C680 C678 1.415 . S
C680 C685 1.425 . S
C680 C687 1.409 . S
C681 H673 0.930 . S
C681 C679 1.419 . S
C681 C682 1.362 . S
C682 H674 0.930 . S
C682 C681 1.362 . S
C682 C685 1.409 . S
C683 H675 0.930 . S
C683 C684 1.355 . S
C683 C685 1.415 . S
C684 C683 1.355 . S
C684 C686 1.419 . S
C685 C680 1.425 . S
C685 C682 1.409 . S
C685 C683 1.415 . S
C686 H676 0.930 . S
C686 C684 1.419 . S
C686 C687 1.362 . S
C687 H677 0.930 . S
C687 C680 1.409 . S
C687 C686 1.362 . S
H688 C694 0.930 . S
H689 C697 0.930 . S
H690 C698 0.930 . S
H691 C699 0.930 . S
H692 C702 0.930 . S
H693 C703 0.930 . S
C694 H688 0.930 . S
C694 C695 1.355 . S
C694 C696 1.415 . S
C695 C694 1.355 . S
C695 C697 1.419 . S
C696 C694 1.415 . S
C696 C701 1.425 . S
C696 C703 1.409 . S
C697 H689 0.930 . S
C697 C695 1.419 . S
C697 C698 1.362 . S
C698 H690 0.930 . S
C698 C697 1.362 . S
C698 C701 1.409 . S
C699 H691 0.930 . S
C699 C700 1.355 . S
C699 C701 1.415 . S
C700 C699 1.355 . S
C700 C702 1.419 . S
C701 C696 1.425 . S
C701 C698 1.409 . S
C701 C699 1.415 . S
C702 H692 0.930 . S
C702 C700 1.419 . S
C702 C703 1.362 . S
C703 H693 0.930 . S
C703 C696 1.409 . S
C703 C702 1.362 . S
H704 C710 0.930 . S
H705 C713 0.930 . S
H706 C714 0.930 . S
H707 C715 0.930 . S
H708 C718 0.930 . S
H709 C719 0.930 . S
C710 H704 0.930 . S
C710 C711 1.355 . S
C710 C712 1.415 . S
C711 C710 1.355 . S
C711 C713 1.419 . S
C712 C710 1.415 . S
C712 C717 1.425 . S
C712 C719 1.409 . S
C713 H705 0.930 . S
C713 C711 1.419 . S
C713 C714 1.362 . S
C714 H706 0.930 . S
C714 C713 1.362 . S
C714 C717 1.409 . S
C715 H707 0.930 . S
C715 C716 1.355 . S
C715 C717 1.415 . S
C716 C715 1.355 . S
C716 C718 1.419 . S
C717 C712 1.425 . S
C717 C714 1.409 . S
C717 C715 1.415 . S
C718 H708 0.930 . S
C718 C716 1.419 . S
C718 C719 1.362 . S
C719 H709 0.930 . S
C719 C712 1.409 . S
C719 C718 1.362 . S
H720 C726 0.930 . S
H721 C729 0.930 . S
H722 C730 0.930 . S
H723 C731 0.930 . S
H724 C734 0.930 1_565 S
H725 C735 0.930 1_554 S
C726 H720 0.930 . S
C726 C727 1.355 1_554 S
C726 C728 1.415 1_554 S
C727 C726 1.355 1_556 S
C727 C729 1.419 . S
C728 C726 1.415 1_556 S
C728 C733 1.425 . S
C728 C735 1.409 . S
C729 H721 0.930 . S
C729 C727 1.419 . S
C729 C730 1.362 . S
C730 H722 0.930 . S
C730 C729 1.362 . S
C730 C733 1.409 . S
C731 H723 0.930 . S
C731 C732 1.355 . S
C731 C733 1.415 . S
C732 C731 1.355 . S
C732 C734 1.419 . S
C733 C728 1.425 . S
C733 C730 1.409 . S
C733 C731 1.415 . S
C734 H724 0.930 1_545 S
C734 C732 1.419 . S
C734 C735 1.362 . S
C735 H725 0.930 1_556 S
C735 C728 1.409 . S
C735 C734 1.362 . S
H736 C742 0.930 . S
H737 C745 0.930 . S
H738 C746 0.930 . S
H739 C747 0.930 . S
H740 C750 0.930 . S
H741 C751 0.930 . S
C742 H736 0.930 . S
C742 C743 1.355 . S
C742 C744 1.415 . S
C743 C742 1.355 . S
C743 C745 1.419 . S
C744 C742 1.415 . S
C744 C749 1.425 . S
C744 C751 1.409 . S
C745 H737 0.930 . S
C745 C743 1.419 . S
C745 C746 1.362 . S
C746 H738 0.930 . S
C746 C745 1.362 . S
C746 C749 1.409 . S
C747 H739 0.930 . S
C747 C748 1.355 . S
C747 C749 1.415 . S
C748 C747 1.355 . S
C748 C750 1.419 . S
C749 C744 1.425 . S
C749 C746 1.409 . S
C749 C747 1.415 . S
C750 H740 0.930 . S
C750 C748 1.419 . S
C750 C751 1.362 . S
C751 H741 0.930 . S
C751 C744 1.409 . S
C751 C750 1.362 . S
H752 C758 0.930 . S
H753 C761 0.930 1_545 S
H754 C762 0.930 1_556 S
H755 C763 0.930 . S
H756 C766 0.930 . S
H757 C767 0.930 . S
C758 H752 0.930 . S
C758 C759 1.355 . S
C758 C760 1.415 . S
C759 C758 1.355 . S
C759 C761 1.419 . S
C760 C758 1.415 . S
C760 C765 1.425 . S
C760 C767 1.409 . S
C761 H753 0.930 1_565 S
C761 C759 1.419 . S
C761 C762 1.362 . S
C762 H754 0.930 1_554 S
C762 C761 1.362 . S
C762 C765 1.409 . S
C763 H755 0.930 . S
C763 C764 1.355 1_556 S
C763 C765 1.415 1_556 S
C764 C763 1.355 1_554 S
C764 C766 1.419 . S
C765 C760 1.425 . S
C765 C762 1.409 . S
C765 C763 1.415 1_554 S
C766 H756 0.930 . S
C766 C764 1.419 . S
C766 C767 1.362 . S
C767 H757 0.930 . S
C767 C760 1.409 . S
C767 C766 1.362 . S
H768 C774 0.930 . S
H769 C777 0.930 . S
H770 C778 0.930 . S
H771 C779 0.930 . S
H772 C782 0.930 . S
H773 C783 0.930 . S
C774 H768 0.930 . S
C774 C775 1.355 . S
C774 C776 1.415 . S
C775 C774 1.355 . S
C775 C777 1.419 . S
C776 C774 1.415 . S
C776 C781 1.425 . S
C776 C783 1.409 . S
C777 H769 0.930 . S
C777 C775 1.419 . S
C777 C778 1.362 . S
C778 H770 0.930 . S
C778 C777 1.362 . S
C778 C781 1.409 . S
C779 H771 0.930 . S
C779 C780 1.355 . S
C779 C781 1.415 . S
C780 C779 1.355 . S
C780 C782 1.419 . S
C781 C776 1.425 . S
C781 C778 1.409 . S
C781 C779 1.415 . S
C782 H772 0.930 . S
C782 C780 1.419 . S
C782 C783 1.362 . S
C783 H773 0.930 . S
C783 C776 1.409 . S
C783 C782 1.362 . S
H784 C790 0.930 . S
H785 C793 0.911 1_565 S
H786 C794 0.930 . S
H787 C795 0.930 . S
H788 C798 0.930 . S
H789 C799 0.930 . S
C790 H784 0.930 . S
C790 C791 1.355 . S
C790 C792 1.415 . S
C791 C790 1.355 . S
C791 C793 1.428 . S
C792 C790 1.415 . S
C792 C797 1.425 . S
C792 C799 1.409 . S
C793 H785 0.911 1_545 S
C793 C791 1.428 . S
C793 C794 1.373 . S
C794 H786 0.930 . S
C794 C793 1.373 . S
C794 C797 1.409 . S
C795 H787 0.930 . S
C795 C796 1.355 . S
C795 C797 1.415 . S
C796 C795 1.355 . S
C796 C798 1.419 . S
C797 C792 1.425 . S
C797 C794 1.409 . S
C797 C795 1.415 . S
C798 H788 0.930 . S
C798 C796 1.419 . S
C798 C799 1.362 . S
C799 H789 0.930 . S
C799 C792 1.409 . S
C799 C798 1.362 . S
H800 C806 0.930 . S
H801 C809 0.930 . S
H802 C810 0.930 . S
H803 C811 0.930 . S
H804 C814 0.930 . S
H805 C815 0.930 . S
C806 H800 0.930 . S
C806 C807 1.355 . S
C806 C808 1.415 . S
C807 C806 1.355 . S
C807 C809 1.419 . S
C808 C806 1.415 . S
C808 C813 1.425 . S
C808 C815 1.409 . S
C809 H801 0.930 . S
C809 C807 1.419 . S
C809 C810 1.362 . S
C810 H802 0.930 . S
C810 C809 1.362 . S
C810 C813 1.409 . S
C811 H803 0.930 . S
C811 C812 1.355 . S
C811 C813 1.415 . S
C812 C811 1.355 . S
C812 C814 1.419 . S
C813 C808 1.425 . S
C813 C810 1.409 . S
C813 C811 1.415 . S
C814 H804 0.930 . S
C814 C812 1.419 . S
C814 C815 1.362 . S
C815 H805 0.930 . S
C815 C808 1.409 . S
C815 C814 1.362 . S
H816 C822 0.930 . S
H817 C825 0.930 . S
H818 C826 0.930 . S
H819 C827 0.930 . S
H820 C830 0.930 1_565 S
H821 C831 0.930 . S
C822 H816 0.930 . S
C822 C823 1.355 . S
C822 C824 1.415 . S
C823 C822 1.355 . S
C823 C825 1.419 . S
C824 C822 1.415 . S
C824 C829 1.425 . S
C824 C831 1.409 . S
C825 H817 0.930 . S
C825 C823 1.419 . S
C825 C826 1.362 . S
C826 H818 0.930 . S
C826 C825 1.362 . S
C826 C829 1.409 . S
C827 H819 0.930 . S
C827 C828 1.355 . S
C827 C829 1.415 . S
C828 C827 1.355 . S
C828 C830 1.419 . S
C829 C824 1.425 . S
C829 C826 1.409 . S
C829 C827 1.415 . S
C830 H820 0.930 1_545 S
C830 C828 1.419 . S
C830 C831 1.362 . S
C831 H821 0.930 . S
C831 C824 1.409 . S
C831 C830 1.362 . S
H832 C838 0.930 . S
H833 C841 0.930 . S
H834 C842 0.930 . S
H835 C843 0.930 . S
H836 C846 0.930 . S
H837 C847 0.930 . S
C838 H832 0.930 . S
C838 C839 1.355 . S
C838 C840 1.415 . S
C839 C838 1.355 . S
C839 C841 1.419 . S
C840 C838 1.415 . S
C840 C845 1.425 . S
C840 C847 1.409 . S
C841 H833 0.930 . S
C841 C839 1.419 . S
C841 C842 1.362 . S
C842 H834 0.930 . S
C842 C841 1.362 . S
C842 C845 1.409 . S
C843 H835 0.930 . S
C843 C844 1.355 . S
C843 C845 1.415 . S
C844 C843 1.355 . S
C844 C846 1.419 . S
C845 C840 1.425 . S
C845 C842 1.409 . S
C845 C843 1.415 . S
C846 H836 0.930 . S
C846 C844 1.419 . S
C846 C847 1.362 . S
C847 H837 0.930 . S
C847 C840 1.409 . S
C847 C846 1.362 . S
H848 C854 0.930 1_556 S
H849 C857 0.930 . S
H850 C858 0.930 . S
H851 C859 0.930 . S
H852 C862 0.930 1_545 S
H853 C863 0.930 1_556 S
C854 H848 0.930 1_554 S
C854 C855 1.355 . S
C854 C856 1.415 . S
C855 C854 1.355 . S
C855 C857 1.419 . S
C856 C854 1.415 . S
C856 C861 1.425 . S
C856 C863 1.409 . S
C857 H849 0.930 . S
C857 C855 1.419 . S
C857 C858 1.362 . S
C858 H850 0.930 . S
C858 C857 1.362 . S
C858 C861 1.409 . S
C859 H851 0.930 . S
C859 C860 1.355 . S
C859 C861 1.415 . S
C860 C859 1.355 . S
C860 C862 1.419 . S
C861 C856 1.425 . S
C861 C858 1.409 . S
C861 C859 1.415 . S
C862 H852 0.930 1_565 S
C862 C860 1.419 . S
C862 C863 1.362 . S
C863 H853 0.930 1_554 S
C863 C856 1.409 . S
C863 C862 1.362 . S
H864 C870 0.930 . S
H865 C873 0.930 . S
H866 C874 0.930 . S
H867 C875 0.930 . S
H868 C878 0.930 . S
H869 C879 0.930 . S
C870 H864 0.930 . S
C870 C871 1.355 . S
C870 C872 1.415 . S
C871 C870 1.355 . S
C871 C873 1.419 . S
C872 C870 1.415 . S
C872 C877 1.425 . S
C872 C879 1.409 . S
C873 H865 0.930 . S
C873 C871 1.419 . S
C873 C874 1.362 . S
C874 H866 0.930 . S
C874 C873 1.362 . S
C874 C877 1.409 . S
C875 H867 0.930 . S
C875 C876 1.355 . S
C875 C877 1.415 . S
C876 C875 1.355 . S
C876 C878 1.419 . S
C877 C872 1.425 . S
C877 C874 1.409 . S
C877 C875 1.415 . S
C878 H868 0.930 . S
C878 C876 1.419 . S
C878 C879 1.362 . S
C879 H869 0.930 . S
C879 C872 1.409 . S
C879 C878 1.362 . S
H880 C886 0.930 . S
H881 C889 0.930 1_565 S
H882 C890 0.930 . S
H883 C891 0.930 1_554 S
H884 C894 0.930 . S
H885 C895 0.930 . S
C886 H880 0.930 . S
C886 C887 1.355 . S
C886 C888 1.415 . S
C887 C886 1.355 . S
C887 C889 1.419 . S
C888 C886 1.415 . S
C888 C893 1.425 . S
C888 C895 1.409 . S
C889 H881 0.930 1_545 S
C889 C887 1.419 . S
C889 C890 1.362 . S
C890 H882 0.930 . S
C890 C889 1.362 . S
C890 C893 1.409 . S
C891 H883 0.930 1_556 S
C891 C892 1.355 . S
C891 C893 1.415 . S
C892 C891 1.355 . S
C892 C894 1.419 . S
C893 C888 1.425 . S
C893 C890 1.409 . S
C893 C891 1.415 . S
C894 H884 0.930 . S
C894 C892 1.419 . S
C894 C895 1.362 . S
C895 H885 0.930 . S
C895 C888 1.409 . S
C895 C894 1.362 . S
H896 C902 0.930 . S
H897 C905 0.930 . S
H898 C906 0.930 . S
H899 C907 0.930 . S
H900 C910 0.930 . S
H901 C911 0.930 . S
C902 H896 0.930 . S
C902 C903 1.355 . S
C902 C904 1.415 . S
C903 C902 1.355 . S
C903 C905 1.419 . S
C904 C902 1.415 . S
C904 C909 1.425 . S
C904 C911 1.409 . S
C905 H897 0.930 . S
C905 C903 1.419 . S
C905 C906 1.362 . S
C906 H898 0.930 . S
C906 C905 1.362 . S
C906 C909 1.409 . S
C907 H899 0.930 . S
C907 C908 1.355 . S
C907 C909 1.415 . S
C908 C907 1.355 . S
C908 C910 1.419 . S
C909 C904 1.425 . S
C909 C906 1.409 . S
C909 C907 1.415 . S
C910 H900 0.930 . S
C910 C908 1.419 . S
C910 C911 1.362 . S
C911 H901 0.930 . S
C911 C904 1.409 . S
C911 C910 1.362 . S
H912 C918 0.930 . S
H913 C921 0.930 . S
H914 C922 0.930 . S
H915 C923 0.930 . S
H916 C926 0.930 . S
H917 C927 0.930 . S
C918 H912 0.930 . S
C918 C919 1.355 . S
C918 C920 1.415 . S
C919 C918 1.355 . S
C919 C921 1.419 . S
C920 C918 1.415 . S
C920 C925 1.425 . S
C920 C927 1.409 . S
C921 H913 0.930 . S
C921 C919 1.419 . S
C921 C922 1.362 . S
C922 H914 0.930 . S
C922 C921 1.362 . S
C922 C925 1.409 . S
C923 H915 0.930 . S
C923 C924 1.355 . S
C923 C925 1.415 . S
C924 C923 1.355 . S
C924 C926 1.419 . S
C925 C920 1.425 . S
C925 C922 1.409 . S
C925 C923 1.415 . S
C926 H916 0.930 . S
C926 C924 1.419 . S
C926 C927 1.362 . S
C927 H917 0.930 . S
C927 C920 1.409 . S
C927 C926 1.362 . S
H928 C934 0.930 . S
H929 C937 0.930 . S
H930 C938 0.930 . S
H931 C939 0.930 . S
H932 C942 0.930 . S
H933 C943 0.930 . S
C934 H928 0.930 . S
C934 C935 1.355 . S
C934 C936 1.415 . S
C935 C934 1.355 . S
C935 C937 1.419 . S
C936 C934 1.415 . S
C936 C941 1.425 . S
C936 C943 1.409 . S
C937 H929 0.930 . S
C937 C935 1.419 . S
C937 C938 1.362 . S
C938 H930 0.930 . S
C938 C937 1.362 . S
C938 C941 1.409 . S
C939 H931 0.930 . S
C939 C940 1.355 . S
C939 C941 1.415 . S
C940 C939 1.355 . S
C940 C942 1.419 . S
C941 C936 1.425 . S
C941 C938 1.409 . S
C941 C939 1.415 . S
C942 H932 0.930 . S
C942 C940 1.419 . S
C942 C943 1.362 . S
C943 H933 0.930 . S
C943 C936 1.409 . S
C943 C942 1.362 . S
H944 C950 0.930 . S
H945 C953 0.930 . S
H946 C954 0.930 1_554 S
H947 C955 0.930 . S
H948 C958 0.930 . S
H949 C959 0.930 . S
C950 H944 0.930 . S
C950 C951 1.355 . S
C950 C952 1.415 . S
C951 C950 1.355 . S
C951 C953 1.419 . S
C952 C950 1.415 . S
C952 C957 1.425 . S
C952 C959 1.409 . S
C953 H945 0.930 . S
C953 C951 1.419 . S
C953 C954 1.362 . S
C954 H946 0.930 1_556 S
C954 C953 1.362 . S
C954 C957 1.409 . S
C955 H947 0.930 . S
C955 C956 1.355 1_554 S
C955 C957 1.415 1_554 S
C956 C955 1.355 1_556 S
C956 C958 1.419 . S
C957 C952 1.425 . S
C957 C954 1.409 . S
C957 C955 1.415 1_556 S
C958 H948 0.930 . S
C958 C956 1.419 . S
C958 C959 1.362 . S
C959 H949 0.930 . S
C959 C952 1.409 . S
C959 C958 1.362 . S
H960 C966 0.930 . S
H961 C969 0.930 . S
H962 C970 0.930 . S
H963 C971 0.930 . S
H964 C974 0.930 . S
H965 C975 0.930 . S
C966 H960 0.930 . S
C966 C967 1.355 . S
C966 C968 1.415 . S
C967 C966 1.355 . S
C967 C969 1.419 . S
C968 C966 1.415 . S
C968 C973 1.425 . S
C968 C975 1.409 . S
C969 H961 0.930 . S
C969 C967 1.419 . S
C969 C970 1.362 . S
C970 H962 0.930 . S
C970 C969 1.362 . S
C970 C973 1.409 . S
C971 H963 0.930 . S
C971 C972 1.355 . S
C971 C973 1.415 . S
C972 C971 1.355 . S
C972 C974 1.419 . S
C973 C968 1.425 . S
C973 C970 1.409 . S
C973 C971 1.415 . S
C974 H964 0.930 . S
C974 C972 1.419 . S
C974 C975 1.362 . S
C975 H965 0.930 . S
C975 C968 1.409 . S
C975 C974 1.362 . S
H976 C982 0.930 . S
H977 C985 0.930 . S
H978 C986 0.930 . S
H979 C987 0.930 . S
H980 C990 0.930 . S
H981 C991 0.930 . S
C982 H976 0.930 . S
C982 C983 1.355 . S
C982 C984 1.415 . S
C983 C982 1.355 . S
C983 C985 1.419 . S
C984 C982 1.415 . S
C984 C989 1.425 . S
C984 C991 1.409 . S
C985 H977 0.930 . S
C985 C983 1.419 . S
C985 C986 1.362 . S
C986 H978 0.930 . S
C986 C985 1.362 . S
C986 C989 1.409 . S
C987 H979 0.930 . S
C987 C988 1.355 . S
C987 C989 1.415 . S
C988 C987 1.355 . S
C988 C990 1.419 . S
C989 C984 1.425 . S
C989 C986 1.409 . S
C989 C987 1.415 . S
C990 H980 0.930 . S
C990 C988 1.419 . S
C990 C991 1.362 . S
C991 H981 0.930 . S
C991 C984 1.409 . S
C991 C990 1.362 . S
H992 C998 0.930 . S
H993 C1001 0.930 . S
H994 C1002 0.930 . S
H995 C1003 0.930 . S
H996 C1006 0.930 . S
H997 C1007 0.930 . S
C998 H992 0.930 . S
C998 C999 1.355 . S
C998 C1000 1.415 . S
C999 C998 1.355 . S
C999 C1001 1.419 . S
C1000 C998 1.415 . S
C1000 C1005 1.425 . S
C1000 C1007 1.409 . S
C1001 H993 0.930 . S
C1001 C999 1.419 . S
C1001 C1002 1.362 . S
C1002 H994 0.930 . S
C1002 C1001 1.362 . S
C1002 C1005 1.409 . S
C1003 H995 0.930 . S
C1003 C1004 1.355 . S
C1003 C1005 1.415 . S
C1004 C1003 1.355 . S
C1004 C1006 1.419 . S
C1005 C1000 1.425 . S
C1005 C1002 1.409 . S
C1005 C1003 1.415 . S
C1006 H996 0.930 . S
C1006 C1004 1.419 . S
C1006 C1007 1.362 . S
C1007 H997 0.930 . S
C1007 C1000 1.409 . S
C1007 C1006 1.362 . S
H1008 C1014 0.930 . S
H1009 C1017 0.930 . S
H1010 C1018 0.930 . S
H1011 C1019 0.930 . S
H1012 C1022 0.930 . S
H1013 C1023 0.930 . S
C1014 H1008 0.930 . S
C1014 C1015 1.355 . S
C1014 C1016 1.415 . S
C1015 C1014 1.355 . S
C1015 C1017 1.419 . S
C1016 C1014 1.415 . S
C1016 C1021 1.425 . S
C1016 C1023 1.409 . S
C1017 H1009 0.930 . S
C1017 C1015 1.419 . S
C1017 C1018 1.362 . S
C1018 H1010 0.930 . S
C1018 C1017 1.362 . S
C1018 C1021 1.409 . S
C1019 H1011 0.930 . S
C1019 C1020 1.355 . S
C1019 C1021 1.415 . S
C1020 C1019 1.355 . S
C1020 C1022 1.419 . S
C1021 C1016 1.425 . S
C1021 C1018 1.409 . S
C1021 C1019 1.415 . S
C1022 H1012 0.930 . S
C1022 C1020 1.419 . S
C1022 C1023 1.362 . S
C1023 H1013 0.930 . S
C1023 C1016 1.409 . S
C1023 C1022 1.362 . S
H1024 C1030 0.930 . S
H1025 C1033 0.930 . S
H1026 C1034 0.930 . S
H1027 C1035 0.930 . S
H1028 C1038 0.930 . S
H1029 C1039 0.930 . S
C1030 H1024 0.930 . S
C1030 C1031 1.355 . S
C1030 C1032 1.415 . S
C1031 C1030 1.355 . S
C1031 C1033 1.419 . S
C1032 C1030 1.415 . S
C1032 C1037 1.425 . S
C1032 C1039 1.409 . S
C1033 H1025 0.930 . S
C1033 C1031 1.419 . S
C1033 C1034 1.362 . S
C1034 H1026 0.930 . S
C1034 C1033 1.362 . S
C1034 C1037 1.409 . S
C1035 H1027 0.930 . S
C1035 C1036 1.355 . S
C1035 C1037 1.415 . S
C1036 C1035 1.355 . S
C1036 C1038 1.419 . S
C1037 C1032 1.425 . S
C1037 C1034 1.409 . S
C1037 C1035 1.415 . S
C1038 H1028 0.930 . S
C1038 C1036 1.419 . S
C1038 C1039 1.362 . S
C1039 H1029 0.930 . S
C1039 C1032 1.409 . S
C1039 C1038 1.362 . S
H1040 C1046 0.930 . S
H1041 C1049 0.930 . S
H1042 C1050 0.930 . S
H1043 C1051 0.930 . S
H1044 C1054 0.930 . S
H1045 C1055 0.930 . S
C1046 H1040 0.930 . S
C1046 C1047 1.355 . S
C1046 C1048 1.415 . S
C1047 C1046 1.355 . S
C1047 C1049 1.419 . S
C1048 C1046 1.415 . S
C1048 C1053 1.425 . S
C1048 C1055 1.409 1_554 S
C1049 H1041 0.930 . S
C1049 C1047 1.419 . S
C1049 C1050 1.362 . S
C1050 H1042 0.930 . S
C1050 C1049 1.362 . S
C1050 C1053 1.409 . S
C1051 H1043 0.930 . S
C1051 C1052 1.355 1_554 S
C1051 C1053 1.415 . S
C1052 C1051 1.355 1_556 S
C1052 C1054 1.419 . S
C1053 C1048 1.425 . S
C1053 C1050 1.409 . S
C1053 C1051 1.415 . S
C1054 H1044 0.930 . S
C1054 C1052 1.419 . S
C1054 C1055 1.362 . S
C1055 H1045 0.930 . S
C1055 C1048 1.409 1_556 S
C1055 C1054 1.362 . S
H1056 C1062 0.930 . S
H1057 C1065 0.930 . S
H1058 C1066 0.930 . S
H1059 C1067 0.930 . S
H1060 C1070 0.930 . S
H1061 C1071 0.930 . S
C1062 H1056 0.930 . S
C1062 C1063 1.355 . S
C1062 C1064 1.415 . S
C1063 C1062 1.355 . S
C1063 C1065 1.419 . S
C1064 C1062 1.415 . S
C1064 C1069 1.425 . S
C1064 C1071 1.409 . S
C1065 H1057 0.930 . S
C1065 C1063 1.419 . S
C1065 C1066 1.362 . S
C1066 H1058 0.930 . S
C1066 C1065 1.362 . S
C1066 C1069 1.409 . S
C1067 H1059 0.930 . S
C1067 C1068 1.355 . S
C1067 C1069 1.415 . S
C1068 C1067 1.355 . S
C1068 C1070 1.419 . S
C1069 C1064 1.425 . S
C1069 C1066 1.409 . S
C1069 C1067 1.415 . S
C1070 H1060 0.930 . S
C1070 C1068 1.419 . S
C1070 C1071 1.362 . S
C1071 H1061 0.930 . S
C1071 C1064 1.409 . S
C1071 C1070 1.362 . S
H1072 C1078 0.930 . S
H1073 C1081 0.930 . S
H1074 C1082 0.931 . S
H1075 C1083 0.930 1_556 S
H1076 C1086 0.930 . S
H1077 C1087 0.930 . S
C1078 H1072 0.930 . S
C1078 C1079 1.355 . S
C1078 C1080 1.415 . S
C1079 C1078 1.355 . S
C1079 C1081 1.419 . S
C1080 C1078 1.415 . S
C1080 C1085 1.425 . S
C1080 C1087 1.409 . S
C1081 H1073 0.930 . S
C1081 C1079 1.419 . S
C1081 C1082 1.362 . S
C1082 H1074 0.931 . S
C1082 C1081 1.362 . S
C1082 C1085 1.409 . S
C1083 H1075 0.930 1_554 S
C1083 C1084 1.355 . S
C1083 C1085 1.415 . S
C1084 C1083 1.355 . S
C1084 C1086 1.419 . S
C1085 C1080 1.425 . S
C1085 C1082 1.409 . S
C1085 C1083 1.415 . S
C1086 H1076 0.930 . S
C1086 C1084 1.419 . S
C1086 C1087 1.362 . S
C1087 H1077 0.930 . S
C1087 C1080 1.409 . S
C1087 C1086 1.362 . S
H1088 C1094 0.930 . S
H1089 C1097 0.930 . S
H1090 C1098 0.930 . S
H1091 C1099 0.930 . S
H1092 C1102 0.930 . S
H1093 C1103 0.930 . S
C1094 H1088 0.930 . S
C1094 C1095 1.355 . S
C1094 C1096 1.415 . S
C1095 C1094 1.355 . S
C1095 C1097 1.419 . S
C1096 C1094 1.415 . S
C1096 C1101 1.425 . S
C1096 C1103 1.409 . S
C1097 H1089 0.930 . S
C1097 C1095 1.419 . S
C1097 C1098 1.362 . S
C1098 H1090 0.930 . S
C1098 C1097 1.362 . S
C1098 C1101 1.409 . S
C1099 H1091 0.930 . S
C1099 C1100 1.355 . S
C1099 C1101 1.415 . S
C1100 C1099 1.355 . S
C1100 C1102 1.419 . S
C1101 C1096 1.425 . S
C1101 C1098 1.409 . S
C1101 C1099 1.415 . S
C1102 H1092 0.930 . S
C1102 C1100 1.419 . S
C1102 C1103 1.362 . S
C1103 H1093 0.930 . S
C1103 C1096 1.409 . S
C1103 C1102 1.362 . S
H1104 C1110 0.930 . S
H1105 C1113 0.930 . S
H1106 C1114 0.930 . S
H1107 C1115 0.930 . S
H1108 C1118 0.930 . S
H1109 C1119 0.930 . S
C1110 H1104 0.930 . S
C1110 C1111 1.355 . S
C1110 C1112 1.415 . S
C1111 C1110 1.355 . S
C1111 C1113 1.419 . S
C1112 C1110 1.415 . S
C1112 C1117 1.425 . S
C1112 C1119 1.409 . S
C1113 H1105 0.930 . S
C1113 C1111 1.419 . S
C1113 C1114 1.362 . S
C1114 H1106 0.930 . S
C1114 C1113 1.362 . S
C1114 C1117 1.409 . S
C1115 H1107 0.930 . S
C1115 C1116 1.355 . S
C1115 C1117 1.415 . S
C1116 C1115 1.355 . S
C1116 C1118 1.419 . S
C1117 C1112 1.425 . S
C1117 C1114 1.409 . S
C1117 C1115 1.415 . S
C1118 H1108 0.930 . S
C1118 C1116 1.419 . S
C1118 C1119 1.362 . S
C1119 H1109 0.930 . S
C1119 C1112 1.409 . S
C1119 C1118 1.362 . S
H1120 C1126 0.930 . S
H1121 C1129 0.930 . S
H1122 C1130 0.930 . S
H1123 C1131 0.930 . S
H1124 C1134 0.930 . S
H1125 C1135 0.930 . S
C1126 H1120 0.930 . S
C1126 C1127 1.355 . S
C1126 C1128 1.415 . S
C1127 C1126 1.355 . S
C1127 C1129 1.419 . S
C1128 C1126 1.415 . S
C1128 C1133 1.425 . S
C1128 C1135 1.409 . S
C1129 H1121 0.930 . S
C1129 C1127 1.419 . S
C1129 C1130 1.362 . S
C1130 H1122 0.930 . S
C1130 C1129 1.362 . S
C1130 C1133 1.409 . S
C1131 H1123 0.930 . S
C1131 C1132 1.355 . S
C1131 C1133 1.415 . S
C1132 C1131 1.355 . S
C1132 C1134 1.419 . S
C1133 C1128 1.425 . S
C1133 C1130 1.409 . S
C1133 C1131 1.415 . S
C1134 H1124 0.930 . S
C1134 C1132 1.419 . S
C1134 C1135 1.362 . S
C1135 H1125 0.930 . S
C1135 C1128 1.409 . S
C1135 C1134 1.362 . S
H1136 C1142 0.930 . S
H1137 C1145 0.930 . S
H1138 C1146 0.930 . S
H1139 C1147 0.930 . S
H1140 C1150 0.930 . S
H1141 C1151 0.930 . S
C1142 H1136 0.930 . S
C1142 C1143 1.355 . S
C1142 C1144 1.415 . S
C1143 C1142 1.355 . S
C1143 C1145 1.419 . S
C1144 C1142 1.415 . S
C1144 C1149 1.425 . S
C1144 C1151 1.409 . S
C1145 H1137 0.930 . S
C1145 C1143 1.419 . S
C1145 C1146 1.362 . S
C1146 H1138 0.930 . S
C1146 C1145 1.362 . S
C1146 C1149 1.409 . S
C1147 H1139 0.930 . S
C1147 C1148 1.355 . S
C1147 C1149 1.415 . S
C1148 C1147 1.355 . S
C1148 C1150 1.419 . S
C1149 C1144 1.425 . S
C1149 C1146 1.409 . S
C1149 C1147 1.415 . S
C1150 H1140 0.930 . S
C1150 C1148 1.419 . S
C1150 C1151 1.362 . S
C1151 H1141 0.930 . S
C1151 C1144 1.409 . S
C1151 C1150 1.362 . S
H1152 C1158 0.930 . S
H1153 C1161 0.930 . S
H1154 C1162 0.930 . S
H1155 C1163 0.930 . S
H1156 C1166 0.930 . S
H1157 C1167 0.930 . S
C1158 H1152 0.930 . S
C1158 C1159 1.355 . S
C1158 C1160 1.415 . S
C1159 C1158 1.355 . S
C1159 C1161 1.419 . S
C1160 C1158 1.415 . S
C1160 C1165 1.425 . S
C1160 C1167 1.409 . S
C1161 H1153 0.930 . S
C1161 C1159 1.419 . S
C1161 C1162 1.362 . S
C1162 H1154 0.930 . S
C1162 C1161 1.362 . S
C1162 C1165 1.409 . S
C1163 H1155 0.930 . S
C1163 C1164 1.355 . S
C1163 C1165 1.415 . S
C1164 C1163 1.355 . S
C1164 C1166 1.419 . S
C1165 C1160 1.425 . S
C1165 C1162 1.409 . S
C1165 C1163 1.415 . S
C1166 H1156 0.930 . S
C1166 C1164 1.419 . S
C1166 C1167 1.362 . S
C1167 H1157 0.930 . S
C1167 C1160 1.409 . S
C1167 C1166 1.362 . S
H1168 C1174 0.930 . S
H1169 C1177 0.930 . S
H1170 C1178 0.930 . S
H1171 C1179 0.930 . S
H1172 C1182 0.930 . S
H1173 C1183 0.930 . S
C1174 H1168 0.930 . S
C1174 C1175 1.355 . S
C1174 C1176 1.415 . S
C1175 C1174 1.355 . S
C1175 C1177 1.419 . S
C1176 C1174 1.415 . S
C1176 C1181 1.425 . S
C1176 C1183 1.409 1_556 S
C1177 H1169 0.930 . S
C1177 C1175 1.419 . S
C1177 C1178 1.362 . S
C1178 H1170 0.930 . S
C1178 C1177 1.362 . S
C1178 C1181 1.409 . S
C1179 H1171 0.930 . S
C1179 C1180 1.355 . S
C1179 C1181 1.415 . S
C1180 C1179 1.355 . S
C1180 C1182 1.419 1_556 S
C1181 C1176 1.425 . S
C1181 C1178 1.409 . S
C1181 C1179 1.415 . S
C1182 H1172 0.930 . S
C1182 C1180 1.419 1_554 S
C1182 C1183 1.362 . S
C1183 H1173 0.930 . S
C1183 C1176 1.409 1_554 S
C1183 C1182 1.362 . S
H1184 C1190 0.930 . S
H1185 C1193 0.930 . S
H1186 C1194 0.930 . S
H1187 C1195 0.930 . S
H1188 C1198 0.930 . S
H1189 C1199 0.930 . S
C1190 H1184 0.930 . S
C1190 C1191 1.355 . S
C1190 C1192 1.415 . S
C1191 C1190 1.355 . S
C1191 C1193 1.419 . S
C1192 C1190 1.415 . S
C1192 C1197 1.425 . S
C1192 C1199 1.409 . S
C1193 H1185 0.930 . S
C1193 C1191 1.419 . S
C1193 C1194 1.362 . S
C1194 H1186 0.930 . S
C1194 C1193 1.362 . S
C1194 C1197 1.409 . S
C1195 H1187 0.930 . S
C1195 C1196 1.355 . S
C1195 C1197 1.415 . S
C1196 C1195 1.355 . S
C1196 C1198 1.419 . S
C1197 C1192 1.425 . S
C1197 C1194 1.409 . S
C1197 C1195 1.415 . S
C1198 H1188 0.930 . S
C1198 C1196 1.419 . S
C1198 C1199 1.362 . S
C1199 H1189 0.930 . S
C1199 C1192 1.409 . S
C1199 C1198 1.362 . S
H1200 C1206 0.930 . S
H1201 C1209 0.930 . S
H1202 C1210 0.930 . S
H1203 C1211 0.930 . S
H1204 C1214 0.930 . S
H1205 C1215 0.930 . S
C1206 H1200 0.930 . S
C1206 C1207 1.355 . S
C1206 C1208 1.415 . S
C1207 C1206 1.355 . S
C1207 C1209 1.419 . S
C1208 C1206 1.415 . S
C1208 C1213 1.425 . S
C1208 C1215 1.409 . S
C1209 H1201 0.930 . S
C1209 C1207 1.419 . S
C1209 C1210 1.362 . S
C1210 H1202 0.930 . S
C1210 C1209 1.362 . S
C1210 C1213 1.409 . S
C1211 H1203 0.930 . S
C1211 C1212 1.355 . S
C1211 C1213 1.415 . S
C1212 C1211 1.355 . S
C1212 C1214 1.419 . S
C1213 C1208 1.425 . S
C1213 C1210 1.409 . S
C1213 C1211 1.415 . S
C1214 H1204 0.930 . S
C1214 C1212 1.419 . S
C1214 C1215 1.362 . S
C1215 H1205 0.930 . S
C1215 C1208 1.409 . S
C1215 C1214 1.362 . S
H1216 C1222 0.930 . S
H1217 C1225 0.930 . S
H1218 C1226 0.930 . S
H1219 C1227 0.930 . S
H1220 C1230 0.930 . S
H1221 C1231 0.930 . S
C1222 H1216 0.930 . S
C1222 C1223 1.355 . S
C1222 C1224 1.415 . S
C1223 C1222 1.355 . S
C1223 C1225 1.419 . S
C1224 C1222 1.415 . S
C1224 C1229 1.425 . S
C1224 C1231 1.409 . S
C1225 H1217 0.930 . S
C1225 C1223 1.419 . S
C1225 C1226 1.362 . S
C1226 H1218 0.930 . S
C1226 C1225 1.362 . S
C1226 C1229 1.409 . S
C1227 H1219 0.930 . S
C1227 C1228 1.355 . S
C1227 C1229 1.415 . S
C1228 C1227 1.355 . S
C1228 C1230 1.419 . S
C1229 C1224 1.425 . S
C1229 C1226 1.409 . S
C1229 C1227 1.415 . S
C1230 H1220 0.930 . S
C1230 C1228 1.419 . S
C1230 C1231 1.362 . S
C1231 H1221 0.930 . S
C1231 C1224 1.409 . S
C1231 C1230 1.362 . S
H1232 C1238 0.930 . S
H1233 C1241 0.930 . S
H1234 C1242 0.930 . S
H1235 C1243 0.930 . S
H1236 C1246 0.930 . S
H1237 C1247 0.930 . S
C1238 H1232 0.930 . S
C1238 C1239 1.355 . S
C1238 C1240 1.415 . S
C1239 C1238 1.355 . S
C1239 C1241 1.419 . S
C1240 C1238 1.415 . S
C1240 C1245 1.425 . S
C1240 C1247 1.409 . S
C1241 H1233 0.930 . S
C1241 C1239 1.419 . S
C1241 C1242 1.362 . S
C1242 H1234 0.930 . S
C1242 C1241 1.362 . S
C1242 C1245 1.409 . S
C1243 H1235 0.930 . S
C1243 C1244 1.355 . S
C1243 C1245 1.415 . S
C1244 C1243 1.355 . S
C1244 C1246 1.419 . S
C1245 C1240 1.425 . S
C1245 C1242 1.409 . S
C1245 C1243 1.415 . S
C1246 H1236 0.930 . S
C1246 C1244 1.419 . S
C1246 C1247 1.362 . S
C1247 H1237 0.930 . S
C1247 C1240 1.409 . S
C1247 C1246 1.362 . S
H1248 C1254 0.930 . S
H1249 C1257 0.930 . S
H1250 C1258 0.930 . S
H1251 C1259 0.930 . S
H1252 C1262 0.930 . S
H1253 C1263 0.930 . S
C1254 H1248 0.930 . S
C1254 C1255 1.355 . S
C1254 C1256 1.415 . S
C1255 C1254 1.355 . S
C1255 C1257 1.419 . S
C1256 C1254 1.415 . S
C1256 C1261 1.425 . S
C1256 C1263 1.409 . S
C1257 H1249 0.930 . S
C1257 C1255 1.419 . S
C1257 C1258 1.362 . S
C1258 H1250 0.930 . S
C1258 C1257 1.362 . S
C1258 C1261 1.409 . S
C1259 H1251 0.930 . S
C1259 C1260 1.355 . S
C1259 C1261 1.415 . S
C1260 C1259 1.355 . S
C1260 C1262 1.419 . S
C1261 C1256 1.425 . S
C1261 C1258 1.409 . S
C1261 C1259 1.415 . S
C1262 H1252 0.930 . S
C1262 C1260 1.419 . S
C1262 C1263 1.362 . S
C1263 H1253 0.930 . S
C1263 C1256 1.409 . S
C1263 C1262 1.362 . S
H1264 C1270 0.930 . S
H1265 C1273 0.930 . S
H1266 C1274 0.930 . S
H1267 C1275 0.930 . S
H1268 C1278 0.930 . S
H1269 C1279 0.930 . S
C1270 H1264 0.930 . S
C1270 C1271 1.355 . S
C1270 C1272 1.415 . S
C1271 C1270 1.355 . S
C1271 C1273 1.419 . S
C1272 C1270 1.415 . S
C1272 C1277 1.425 . S
C1272 C1279 1.409 . S
C1273 H1265 0.930 . S
C1273 C1271 1.419 . S
C1273 C1274 1.362 . S
C1274 H1266 0.930 . S
C1274 C1273 1.362 . S
C1274 C1277 1.409 . S
C1275 H1267 0.930 . S
C1275 C1276 1.355 . S
C1275 C1277 1.415 . S
C1276 C1275 1.355 . S
C1276 C1278 1.419 . S
C1277 C1272 1.425 . S
C1277 C1274 1.409 . S
C1277 C1275 1.415 . S
C1278 H1268 0.930 . S
C1278 C1276 1.419 . S
C1278 C1279 1.362 . S
C1279 H1269 0.930 . S
C1279 C1272 1.409 . S
C1279 C1278 1.362 . S
H1280 C1286 0.930 . S
H1281 C1289 0.930 . S
H1282 C1290 0.930 . S
H1283 C1291 0.930 . S
H1284 C1294 0.930 . S
H1285 C1295 0.930 . S
C1286 H1280 0.930 . S
C1286 C1287 1.355 . S
C1286 C1288 1.415 . S
C1287 C1286 1.355 . S
C1287 C1289 1.419 . S
C1288 C1286 1.415 . S
C1288 C1293 1.425 . S
C1288 C1295 1.409 . S
C1289 H1281 0.930 . S
C1289 C1287 1.419 . S
C1289 C1290 1.362 . S
C1290 H1282 0.930 . S
C1290 C1289 1.362 . S
C1290 C1293 1.409 . S
C1291 H1283 0.930 . S
C1291 C1292 1.355 . S
C1291 C1293 1.415 . S
C1292 C1291 1.355 . S
C1292 C1294 1.419 . S
C1293 C1288 1.425 . S
C1293 C1290 1.409 . S
C1293 C1291 1.415 . S
C1294 H1284 0.930 . S
C1294 C1292 1.419 . S
C1294 C1295 1.362 . S
C1295 H1285 0.930 . S
C1295 C1288 1.409 . S
C1295 C1294 1.362 . S
H1296 C1302 0.930 . S
H1297 C1305 0.930 . S
H1298 C1306 0.930 . S
H1299 C1307 0.930 . S
H1300 C1310 0.930 . S
H1301 C1311 0.930 . S
C1302 H1296 0.930 . S
C1302 C1303 1.355 . S
C1302 C1304 1.415 . S
C1303 C1302 1.355 . S
C1303 C1305 1.419 . S
C1304 C1302 1.415 . S
C1304 C1309 1.425 . S
C1304 C1311 1.409 . S
C1305 H1297 0.930 . S
C1305 C1303 1.419 . S
C1305 C1306 1.362 . S
C1306 H1298 0.930 . S
C1306 C1305 1.362 . S
C1306 C1309 1.409 . S
C1307 H1299 0.930 . S
C1307 C1308 1.355 . S
C1307 C1309 1.415 . S
C1308 C1307 1.355 . S
C1308 C1310 1.419 . S
C1309 C1304 1.425 . S
C1309 C1306 1.409 . S
C1309 C1307 1.415 . S
C1310 H1300 0.930 . S
C1310 C1308 1.419 . S
C1310 C1311 1.362 . S
C1311 H1301 0.930 . S
C1311 C1304 1.409 . S
C1311 C1310 1.362 . S
H1312 C1318 0.930 . S
H1313 C1321 0.930 . S
H1314 C1322 0.930 . S
H1315 C1323 0.930 . S
H1316 C1326 0.930 . S
H1317 C1327 0.930 . S
C1318 H1312 0.930 . S
C1318 C1319 1.355 . S
C1318 C1320 1.415 . S
C1319 C1318 1.355 . S
C1319 C1321 1.419 . S
C1320 C1318 1.415 . S
C1320 C1325 1.425 . S
C1320 C1327 1.409 . S
C1321 H1313 0.930 . S
C1321 C1319 1.419 . S
C1321 C1322 1.362 . S
C1322 H1314 0.930 . S
C1322 C1321 1.362 . S
C1322 C1325 1.409 . S
C1323 H1315 0.930 . S
C1323 C1324 1.355 . S
C1323 C1325 1.415 . S
C1324 C1323 1.355 . S
C1324 C1326 1.419 . S
C1325 C1320 1.425 . S
C1325 C1322 1.409 . S
C1325 C1323 1.415 . S
C1326 H1316 0.930 . S
C1326 C1324 1.419 . S
C1326 C1327 1.362 . S
C1327 H1317 0.930 . S
C1327 C1320 1.409 . S
C1327 C1326 1.362 . S
H1328 C1334 0.930 . S
H1329 C1337 0.930 . S
H1330 C1338 0.930 . S
H1331 C1339 0.930 . S
H1332 C1342 0.930 . S
H1333 C1343 0.930 . S
C1334 H1328 0.930 . S
C1334 C1335 1.355 . S
C1334 C1336 1.415 . S
C1335 C1334 1.355 . S
C1335 C1337 1.419 . S
C1336 C1334 1.415 . S
C1336 C1341 1.425 . S
C1336 C1343 1.409 . S
C1337 H1329 0.930 . S
C1337 C1335 1.419 . S
C1337 C1338 1.362 . S
C1338 H1330 0.930 . S
C1338 C1337 1.362 . S
C1338 C1341 1.409 . S
C1339 H1331 0.930 . S
C1339 C1340 1.355 . S
C1339 C1341 1.415 . S
C1340 C1339 1.355 . S
C1340 C1342 1.419 . S
C1341 C1336 1.425 . S
C1341 C1338 1.409 . S
C1341 C1339 1.415 . S
C1342 H1332 0.930 . S
C1342 C1340 1.419 . S
C1342 C1343 1.362 . S
C1343 H1333 0.930 . S
C1343 C1336 1.409 . S
C1343 C1342 1.362 . S
H1344 C1350 0.930 . S
H1345 C1353 0.930 . S
H1346 C1354 0.930 . S
H1347 C1355 0.930 . S
H1348 C1358 0.930 . S
H1349 C1359 0.930 . S
C1350 H1344 0.930 . S
C1350 C1351 1.355 . S
C1350 C1352 1.415 . S
C1351 C1350 1.355 . S
C1351 C1353 1.419 . S
C1352 C1350 1.415 . S
C1352 C1357 1.425 . S
C1352 C1359 1.409 . S
C1353 H1345 0.930 . S
C1353 C1351 1.419 . S
C1353 C1354 1.362 . S
C1354 H1346 0.930 . S
C1354 C1353 1.362 . S
C1354 C1357 1.409 . S
C1355 H1347 0.930 . S
C1355 C1356 1.355 . S
C1355 C1357 1.415 . S
C1356 C1355 1.355 . S
C1356 C1358 1.419 . S
C1357 C1352 1.425 . S
C1357 C1354 1.409 . S
C1357 C1355 1.415 . S
C1358 H1348 0.930 . S
C1358 C1356 1.419 . S
C1358 C1359 1.362 . S
C1359 H1349 0.930 . S
C1359 C1352 1.409 . S
C1359 C1358 1.362 . S
H1360 C1366 0.930 . S
H1361 C1369 0.930 . S
H1362 C1370 0.930 . S
H1363 C1371 0.930 . S
H1364 C1374 0.930 . S
H1365 C1375 0.930 . S
C1366 H1360 0.930 . S
C1366 C1367 1.355 . S
C1366 C1368 1.415 . S
C1367 C1366 1.355 . S
C1367 C1369 1.419 . S
C1368 C1366 1.415 . S
C1368 C1373 1.425 . S
C1368 C1375 1.409 . S
C1369 H1361 0.930 . S
C1369 C1367 1.419 . S
C1369 C1370 1.362 . S
C1370 H1362 0.930 . S
C1370 C1369 1.362 . S
C1370 C1373 1.409 . S
C1371 H1363 0.930 . S
C1371 C1372 1.355 . S
C1371 C1373 1.415 . S
C1372 C1371 1.355 . S
C1372 C1374 1.419 . S
C1373 C1368 1.425 . S
C1373 C1370 1.409 . S
C1373 C1371 1.415 . S
C1374 H1364 0.930 . S
C1374 C1372 1.419 . S
C1374 C1375 1.362 . S
C1375 H1365 0.930 . S
C1375 C1368 1.409 . S
C1375 C1374 1.362 . S
H1376 C1382 0.930 . S
H1377 C1385 0.930 . S
H1378 C1386 0.930 . S
H1379 C1387 0.930 . S
H1380 C1390 0.930 . S
H1381 C1391 0.930 . S
C1382 H1376 0.930 . S
C1382 C1383 1.355 . S
C1382 C1384 1.415 . S
C1383 C1382 1.355 . S
C1383 C1385 1.419 . S
C1384 C1382 1.415 . S
C1384 C1389 1.425 . S
C1384 C1391 1.409 . S
C1385 H1377 0.930 . S
C1385 C1383 1.419 . S
C1385 C1386 1.362 . S
C1386 H1378 0.930 . S
C1386 C1385 1.362 . S
C1386 C1389 1.409 . S
C1387 H1379 0.930 . S
C1387 C1388 1.355 . S
C1387 C1389 1.415 . S
C1388 C1387 1.355 . S
C1388 C1390 1.419 . S
C1389 C1384 1.425 . S
C1389 C1386 1.409 . S
C1389 C1387 1.415 . S
C1390 H1380 0.930 . S
C1390 C1388 1.419 . S
C1390 C1391 1.362 . S
C1391 H1381 0.930 . S
C1391 C1384 1.409 . S
C1391 C1390 1.362 . S
H1392 C1398 0.930 . S
H1393 C1401 0.930 . S
H1394 C1402 0.930 . S
H1395 C1403 0.930 . S
H1396 C1406 0.930 1_556 S
H1397 C1407 0.930 . S
C1398 H1392 0.930 . S
C1398 C1399 1.355 . S
C1398 C1400 1.415 . S
C1399 C1398 1.355 . S
C1399 C1401 1.419 . S
C1400 C1398 1.415 . S
C1400 C1405 1.425 . S
C1400 C1407 1.409 . S
C1401 H1393 0.930 . S
C1401 C1399 1.419 . S
C1401 C1402 1.362 . S
C1402 H1394 0.930 . S
C1402 C1401 1.362 . S
C1402 C1405 1.409 . S
C1403 H1395 0.930 . S
C1403 C1404 1.355 . S
C1403 C1405 1.415 . S
C1404 C1403 1.355 . S
C1404 C1406 1.419 . S
C1405 C1400 1.425 . S
C1405 C1402 1.409 . S
C1405 C1403 1.415 . S
C1406 H1396 0.930 1_554 S
C1406 C1404 1.419 . S
C1406 C1407 1.362 . S
C1407 H1397 0.930 . S
C1407 C1400 1.409 . S
C1407 C1406 1.362 . S
H1408 C1414 0.930 . S
H1409 C1417 0.930 . S
H1410 C1418 0.930 . S
H1411 C1419 0.930 . S
H1412 C1422 0.930 . S
H1413 C1423 0.930 . S
C1414 H1408 0.930 . S
C1414 C1415 1.355 . S
C1414 C1416 1.415 . S
C1415 C1414 1.355 . S
C1415 C1417 1.419 . S
C1416 C1414 1.415 . S
C1416 C1421 1.425 . S
C1416 C1423 1.409 . S
C1417 H1409 0.930 . S
C1417 C1415 1.419 . S
C1417 C1418 1.362 . S
C1418 H1410 0.930 . S
C1418 C1417 1.362 . S
C1418 C1421 1.409 . S
C1419 H1411 0.930 . S
C1419 C1420 1.355 . S
C1419 C1421 1.415 . S
C1420 C1419 1.355 . S
C1420 C1422 1.419 . S
C1421 C1416 1.425 . S
C1421 C1418 1.409 . S
C1421 C1419 1.415 . S
C1422 H1412 0.930 . S
C1422 C1420 1.419 . S
C1422 C1423 1.362 . S
C1423 H1413 0.930 . S
C1423 C1416 1.409 . S
C1423 C1422 1.362 . S
H1424 C1430 0.930 . S
H1425 C1433 0.930 . S
H1426 C1434 0.930 . S
H1427 C1435 0.930 . S
H1428 C1438 0.930 . S
H1429 C1439 0.930 . S
C1430 H1424 0.930 . S
C1430 C1431 1.355 . S
C1430 C1432 1.415 . S
C1431 C1430 1.355 . S
C1431 C1433 1.419 . S
C1432 C1430 1.415 . S
C1432 C1437 1.425 . S
C1432 C1439 1.409 . S
C1433 H1425 0.930 . S
C1433 C1431 1.419 . S
C1433 C1434 1.362 . S
C1434 H1426 0.930 . S
C1434 C1433 1.362 . S
C1434 C1437 1.409 . S
C1435 H1427 0.930 . S
C1435 C1436 1.355 . S
C1435 C1437 1.415 . S
C1436 C1435 1.355 . S
C1436 C1438 1.419 . S
C1437 C1432 1.425 . S
C1437 C1434 1.409 . S
C1437 C1435 1.415 . S
C1438 H1428 0.930 . S
C1438 C1436 1.419 . S
C1438 C1439 1.362 . S
C1439 H1429 0.930 . S
C1439 C1432 1.409 . S
C1439 C1438 1.362 . S
C551 C153 1.668 . S
C556 C17 1.668 . S
C567 C51 1.582 . S
C572 C187 1.580 . S
C583 C221 1.709 . S
C588 C85 1.709 . S
C599 C255 1.673 . S
C604 C119 1.672 . S
C615 C357 1.604 . S
C620 C289 1.600 . S
C631 C323 1.586 . S
C636 C391 1.583 . S
C647 C493 1.625 . S
C652 C425 1.625 . S
C663 C459 1.754 . S
C668 C527 1.754 . S
C679 C105 1.590 . S
C684 C15 1.504 . S
C695 C3 1.564 1_565 S
C700 C56 1.516 . S
C711 C35 1.542 . S
C716 C83 1.452 . S
C727 C117 1.422 1_556 S
C732 C71 1.507 . S
C743 C171 1.592 . S
C748 C151 1.525 . S
C759 C207 1.477 . S
C764 C192 1.442 1_554 S
C775 C241 1.502 . S
C780 C219 1.539 . S
C791 C139 1.522 1_545 S
C796 C253 1.478 . S
C807 C142 2.146 . S
C812 C307 2.039 . S
C823 C300 2.160 . S
C828 C137 2.067 1_545 S
C839 C210 2.115 . S
C844 C275 2.010 . S
C855 C312 2.096 1_554 S
C860 C205 1.998 1_565 S
C871 C343 2.044 . S
C876 C6 2.147 . S
C887 C69 2.024 1_545 S
C892 C368 2.114 1_556 S
C903 C375 2.034 . S
C908 C74 2.154 . S
C919 C1 2.016 1_565 S
C924 C380 2.141 . S
C935 C377 1.491 . S
C940 C423 1.541 . S
C951 C411 1.447 . S
C956 C362 1.462 1_556 S
C967 C457 1.490 . S
C972 C341 1.553 . S
C983 C389 1.564 . S
C988 C445 1.514 . S
C999 C498 1.480 . S
C1004 C273 1.553 . S
C1015 C511 1.490 . S
C1020 C294 1.546 . S
C1031 C309 1.591 . S
C1036 C532 1.505 . S
C1047 C477 1.487 . S
C1052 C321 1.508 . S
C1063 C239 1.971 . S
C1068 C504 2.151 . S
C1079 C479 2.023 . S
C1084 C198 2.109 1_554 S
C1095 C538 2.175 . S
C1100 C173 2.080 . S
C1111 C244 2.139 . S
C1116 C513 2.032 . S
C1127 C37 1.973 . S
C1132 C414 2.128 . S
C1143 C62 2.170 . S
C1148 C443 1.989 . S
C1159 C448 2.153 . S
C1164 C103 2.016 . S
C1175 C409 1.975 . S
C1180 C108 2.140 1_556 S
C1191 C176 1.602 . S
C1196 C28 1.586 . S
C1207 C232 1.617 . S
C1212 C40 1.638 . S
C1223 C266 1.629 . S
C1228 C96 1.615 . S
C1239 C130 1.609 . S
C1244 C164 1.588 . S
C1255 C158 0.682 . S
C1260 C355 0.477 . S
C1271 C287 0.597 . S
C1276 C90 0.705 . S
C1287 C396 0.615 . S
C1292 C226 0.699 . S
C1303 C22 0.490 . S
C1308 C328 0.531 . S
C1319 C436 1.615 . S
C1324 C278 1.627 . S
C1335 C346 1.603 . S
C1340 C516 1.586 . S
C1351 C470 1.593 . S
C1356 C334 1.616 . S
C1367 C482 1.651 . S
C1372 C402 1.646 . S
C1383 C49 0.683 . S
C1388 C491 0.646 . S
C1399 C464 0.692 . S
C1404 C185 0.585 . S
C1415 C124 0.550 . S
C1420 C525 0.699 . S
C1431 C260 0.678 . S
C1436 C430 0.475 . S
