# Generated by pormake.
# Topology zfc, (5)-cn, num edge types: 1
# Building blocks:
#     Node 0, Type 0, BuildingBlock: BEQFEK_clean_sbu_0, # of connection points: 5
#     Node 1, Type 0, BuildingBlock: BEQFEK_clean_sbu_0, # of connection points: 5
#     Node 2, Type 0, BuildingBlock: BEQFEK_clean_sbu_0, # of connection points: 5
#     Node 3, Type 0, BuildingBlock: BEQFEK_clean_sbu_0, # of connection points: 5
#     Node 4, Type 0, BuildingBlock: BEQFEK_clean_sbu_0, # of connection points: 5
#     Node 5, Type 0, BuildingBlock: BEQFEK_clean_sbu_0, # of connection points: 5
#     Node 6, Type 0, BuildingBlock: BEQFEK_clean_sbu_0, # of connection points: 5
#     Node 7, Type 0, BuildingBlock: BEQFEK_clean_sbu_0, # of connection points: 5
#     Node 8, Type 0, BuildingBlock: BEQFEK_clean_sbu_0, # of connection points: 5
#     Node 9, Type 0, BuildingBlock: BEQFEK_clean_sbu_0, # of connection points: 5
#     Node 10, Type 0, BuildingBlock: BEQFEK_clean_sbu_0, # of connection points: 5
#     Node 11, Type 0, BuildingBlock: BEQFEK_clean_sbu_0, # of connection points: 5
#     Node 12, Type 0, BuildingBlock: BEQFEK_clean_sbu_0, # of connection points: 5
#     Node 13, Type 0, BuildingBlock: BEQFEK_clean_sbu_0, # of connection points: 5
#     Node 14, Type 0, BuildingBlock: BEQFEK_clean_sbu_0, # of connection points: 5
#     Node 15, Type 0, BuildingBlock: BEQFEK_clean_sbu_0, # of connection points: 5
#     Edge 16, Type (0, 0), BuildingBlock: KIFKEQ_clean_linker_1, # of connection points: 2
#     Edge 17, Type (0, 0), BuildingBlock: KIFKEQ_clean_linker_1, # of connection points: 2
#     Edge 18, Type (0, 0), BuildingBlock: KIFKEQ_clean_linker_1, # of connection points: 2
#     Edge 19, Type (0, 0), BuildingBlock: KIFKEQ_clean_linker_1, # of connection points: 2
#     Edge 20, Type (0, 0), BuildingBlock: KIFKEQ_clean_linker_1, # of connection points: 2
#     Edge 21, Type (0, 0), BuildingBlock: KIFKEQ_clean_linker_1, # of connection points: 2
#     Edge 22, Type (0, 0), BuildingBlock: KIFKEQ_clean_linker_1, # of connection points: 2
#     Edge 23, Type (0, 0), BuildingBlock: KIFKEQ_clean_linker_1, # of connection points: 2
#     Edge 24, Type (0, 0), BuildingBlock: KIFKEQ_clean_linker_1, # of connection points: 2
#     Edge 25, Type (0, 0), BuildingBlock: KIFKEQ_clean_linker_1, # of connection points: 2
#     Edge 26, Type (0, 0), BuildingBlock: KIFKEQ_clean_linker_1, # of connection points: 2
#     Edge 27, Type (0, 0), BuildingBlock: KIFKEQ_clean_linker_1, # of connection points: 2
#     Edge 28, Type (0, 0), BuildingBlock: KIFKEQ_clean_linker_1, # of connection points: 2
#     Edge 29, Type (0, 0), BuildingBlock: KIFKEQ_clean_linker_1, # of connection points: 2
#     Edge 30, Type (0, 0), BuildingBlock: KIFKEQ_clean_linker_1, # of connection points: 2
#     Edge 31, Type (0, 0), BuildingBlock: KIFKEQ_clean_linker_1, # of connection points: 2
#     Edge 32, Type (0, 0), BuildingBlock: KIFKEQ_clean_linker_1, # of connection points: 2
#     Edge 33, Type (0, 0), BuildingBlock: KIFKEQ_clean_linker_1, # of connection points: 2
#     Edge 34, Type (0, 0), BuildingBlock: KIFKEQ_clean_linker_1, # of connection points: 2
#     Edge 35, Type (0, 0), BuildingBlock: KIFKEQ_clean_linker_1, # of connection points: 2
#     Edge 36, Type (0, 0), BuildingBlock: KIFKEQ_clean_linker_1, # of connection points: 2
#     Edge 37, Type (0, 0), BuildingBlock: KIFKEQ_clean_linker_1, # of connection points: 2
#     Edge 38, Type (0, 0), BuildingBlock: KIFKEQ_clean_linker_1, # of connection points: 2
#     Edge 39, Type (0, 0), BuildingBlock: KIFKEQ_clean_linker_1, # of connection points: 2
#     Edge 40, Type (0, 0), BuildingBlock: KIFKEQ_clean_linker_1, # of connection points: 2
#     Edge 41, Type (0, 0), BuildingBlock: KIFKEQ_clean_linker_1, # of connection points: 2
#     Edge 42, Type (0, 0), BuildingBlock: KIFKEQ_clean_linker_1, # of connection points: 2
#     Edge 43, Type (0, 0), BuildingBlock: KIFKEQ_clean_linker_1, # of connection points: 2
#     Edge 44, Type (0, 0), BuildingBlock: KIFKEQ_clean_linker_1, # of connection points: 2
#     Edge 45, Type (0, 0), BuildingBlock: KIFKEQ_clean_linker_1, # of connection points: 2
#     Edge 46, Type (0, 0), BuildingBlock: KIFKEQ_clean_linker_1, # of connection points: 2
#     Edge 47, Type (0, 0), BuildingBlock: KIFKEQ_clean_linker_1, # of connection points: 2
#     Edge 48, Type (0, 0), BuildingBlock: KIFKEQ_clean_linker_1, # of connection points: 2
#     Edge 49, Type (0, 0), BuildingBlock: KIFKEQ_clean_linker_1, # of connection points: 2
#     Edge 50, Type (0, 0), BuildingBlock: KIFKEQ_clean_linker_1, # of connection points: 2
#     Edge 51, Type (0, 0), BuildingBlock: KIFKEQ_clean_linker_1, # of connection points: 2
#     Edge 52, Type (0, 0), BuildingBlock: KIFKEQ_clean_linker_1, # of connection points: 2
#     Edge 53, Type (0, 0), BuildingBlock: KIFKEQ_clean_linker_1, # of connection points: 2
#     Edge 54, Type (0, 0), BuildingBlock: KIFKEQ_clean_linker_1, # of connection points: 2
#     Edge 55, Type (0, 0), BuildingBlock: KIFKEQ_clean_linker_1, # of connection points: 2
# Relax obj value: 0.171
# Max RMSD: 0.197
# Mean RMSD: 0.197
data_MOF--net-zfc--node1-BEQFEK_clean_sbu_0--edge1-KIFKEQ_clean_linker_1
_symmetry_space_group_name_H-M    P1
_symmetry_Int_Tables_number       1
_symmetry_cell_setting            triclinic
loop_
_symmetry_equiv_pos_as_xyz
'x, y, z'
_cell_length_a     74.976696
_cell_length_b     74.958254
_cell_length_c     19.093318
_cell_angle_alpha  90.003593
_cell_angle_beta   90.007299
_cell_angle_gamma 90.002036
loop_
_atom_site_label
_atom_site_type_symbol
_atom_site_fract_x
_atom_site_fract_y
_atom_site_fract_z
_atom_type_partial_charge
Co0 Co 0.24789 0.11409 0.16041 0.0
Co1 Co 0.26228 0.11875 0.00813 0.0
C2 C 0.22761 0.13542 0.05831 0.0
O3 O 0.22828 0.12814 0.11846 0.0
O4 O 0.24003 0.13309 0.01381 0.0
C5 C 0.23044 0.10256 0.2953 0.0
O6 O 0.21759 0.09383 0.26358 0.0
C7 C 0.25642 0.1161 0.85842 0.0
C8 C 0.28365 0.11496 0.81459 0.0
C9 C 0.26577 0.1144 0.79633 0.0
N10 N 0.26818 0.11758 0.91117 0.0
N11 N 0.28446 0.11707 0.88467 0.0
C12 C 0.23671 0.11414 0.8686 0.0
H13 H 0.2338 0.1085 0.92109 0.0
H14 H 0.23087 0.10536 0.82778 0.0
H15 H 0.23035 0.12745 0.86458 0.0
C16 C 0.25214 0.07545 0.1231 0.0
N17 N 0.25293 0.09304 0.10846 0.0
N18 N 0.25879 0.09513 0.0439 0.0
C19 C 0.26165 0.07892 0.01524 0.0
C20 C 0.25755 0.06592 0.06448 0.0
C21 C 0.24746 0.06787 0.19315 0.0
H22 H 0.25257 0.07664 0.23531 0.0
H23 H 0.23274 0.06694 0.19758 0.0
H24 H 0.25314 0.0543 0.1998 0.0
O25 O 0.26948 0.12892 0.16546 0.0
O26 O 0.28163 0.13141 0.06027 0.0
H27 H 0.28026 0.08258 0.93148 0.0
H28 H 0.26831 0.06168 0.92714 0.0
C29 C 0.26725 0.07598 0.94081 0.0
H30 H 0.25722 0.08199 0.90549 0.0
H31 H 0.2961 0.11772 0.91456 0.0
O32 O 0.24264 0.1102 0.2604 0.0
C33 C 0.28181 0.13466 0.12579 0.0
Co34 Co 0.88791 0.24813 0.14976 0.0
Co35 Co 0.88055 0.2636 0.00116 0.0
C36 C 0.86469 0.22849 0.05287 0.0
O37 O 0.87273 0.22881 0.11167 0.0
O38 O 0.86651 0.24112 0.00875 0.0
C39 C 0.88861 0.23263 0.28789 0.0
O40 O 0.87553 0.22245 0.26568 0.0
C41 C 0.88158 0.25934 0.85084 0.0
C42 C 0.88077 0.28702 0.81122 0.0
C43 C 0.88209 0.26937 0.79037 0.0
N44 N 0.87998 0.27046 0.90553 0.0
N45 N 0.87931 0.287 0.88163 0.0
C46 C 0.88434 0.23963 0.85698 0.0
H47 H 0.89013 0.23623 0.90875 0.0
H48 H 0.89324 0.23472 0.81469 0.0
H49 H 0.87128 0.23282 0.85151 0.0
C50 C 0.92519 0.25036 0.09963 0.0
N51 N 0.90753 0.25274 0.09074 0.0
N52 N 0.9046 0.25966 0.02853 0.0
C53 C 0.92037 0.26202 0.99587 0.0
C54 C 0.93392 0.25613 0.03971 0.0
C55 C 0.93332 0.24201 0.16323 0.0
H56 H 0.92514 0.23046 0.18018 0.0
H57 H 0.9472 0.23755 0.15312 0.0
H58 H 0.93339 0.25191 0.20645 0.0
O59 O 0.87334 0.26987 0.16288 0.0
O60 O 0.86917 0.28242 0.05915 0.0
H61 H 0.93651 0.27498 0.91676 0.0
H62 H 0.9189 0.26087 0.88422 0.0
C63 C 0.92256 0.27058 0.92558 0.0
H64 H 0.91365 0.28232 0.92141 0.0
H65 H 0.8784 0.29829 0.91348 0.0
O66 O 0.89631 0.24307 0.24521 0.0
C67 C 0.86706 0.28239 0.12533 0.0
Co68 Co 0.75289 0.88747 0.15657 0.0
Co69 Co 0.73695 0.88024 0.00842 0.0
C70 C 0.77215 0.86451 0.05542 0.0
O71 O 0.77181 0.8723 0.11468 0.0
O72 O 0.75945 0.86637 0.01184 0.0
C73 C 0.76384 0.8813 0.29109 0.0
O74 O 0.7655 0.86547 0.26221 0.0
C75 C 0.73982 0.88211 0.85742 0.0
C76 C 0.71249 0.87614 0.82099 0.0
C77 C 0.72953 0.8802 0.79778 0.0
N78 N 0.72933 0.87958 0.91352 0.0
N79 N 0.71299 0.87603 0.89158 0.0
C80 C 0.75958 0.88493 0.86161 0.0
H81 H 0.76641 0.87205 0.85168 0.0
H82 H 0.76341 0.88987 0.91425 0.0
H83 H 0.76421 0.89455 0.82162 0.0
C84 C 0.7494 0.92502 0.10929 0.0
N85 N 0.74769 0.90733 0.09926 0.0
N86 N 0.74074 0.90439 0.03702 0.0
C87 C 0.7378 0.9202 0.00526 0.0
C88 C 0.74322 0.93383 0.04998 0.0
C89 C 0.75609 0.93318 0.17584 0.0
H90 H 0.74915 0.92701 0.22106 0.0
H91 H 0.77054 0.93029 0.18131 0.0
H92 H 0.75392 0.94781 0.17708 0.0
O93 O 0.73099 0.87342 0.1722 0.0
O94 O 0.71877 0.8683 0.06838 0.0
H95 H 0.71899 0.91372 0.92453 0.0
H96 H 0.72794 0.93601 0.91747 0.0
C97 C 0.73106 0.92206 0.93172 0.0
H98 H 0.74149 0.91736 0.8951 0.0
H99 H 0.70225 0.87336 0.92471 0.0
O100 O 0.7598 0.89446 0.25225 0.0
C101 C 0.71863 0.86677 0.13484 0.0
Co102 Co 0.11319 0.75325 0.15374 0.0
Co103 Co 0.11941 0.73754 0.00503 0.0
C104 C 0.1352 0.77288 0.05151 0.0
O105 O 0.12764 0.77243 0.11113 0.0
O106 O 0.13329 0.76019 0.00785 0.0
C107 C 0.11952 0.76449 0.28841 0.0
O108 O 0.13534 0.76644 0.2598 0.0
C109 C 0.11672 0.74052 0.85449 0.0
C110 C 0.12328 0.71339 0.8173 0.0
C111 C 0.11882 0.73037 0.79458 0.0
N112 N 0.11954 0.73 0.91023 0.0
N113 N 0.12339 0.71376 0.88788 0.0
C114 C 0.11366 0.76024 0.85926 0.0
H115 H 0.12633 0.76728 0.84757 0.0
H116 H 0.10912 0.76398 0.91256 0.0
H117 H 0.1036 0.76472 0.82069 0.0
C118 C 0.07539 0.74939 0.11107 0.0
N119 N 0.093 0.74785 0.09875 0.0
N120 N 0.09548 0.74104 0.03602 0.0
C121 C 0.07945 0.73794 0.00628 0.0
C122 C 0.06617 0.74319 0.05283 0.0
C123 C 0.06775 0.75593 0.17876 0.0
H124 H 0.07393 0.74854 0.22286 0.0
H125 H 0.07109 0.77025 0.18534 0.0
H126 H 0.05307 0.75416 0.181 0.0
O127 O 0.12804 0.73175 0.16718 0.0
O128 O 0.13168 0.71924 0.06305 0.0
H129 H 0.08547 0.71916 0.92498 0.0
H130 H 0.06299 0.72779 0.9211 0.0
C131 C 0.07703 0.73112 0.93314 0.0
H132 H 0.0813 0.74157 0.89573 0.0
H133 H 0.12641 0.70305 0.92071 0.0
O134 O 0.10652 0.76002 0.2496 0.0
C135 C 0.13425 0.71932 0.12899 0.0
Co136 Co 0.24924 0.88839 0.84878 0.0
Co137 Co 0.26432 0.8801 -0.00249 0.0
C138 C 0.2292 0.86489 0.94428 0.0
O139 O 0.22976 0.87331 0.88637 0.0
O140 O 0.24174 0.86626 0.98904 0.0
C141 C 0.23447 0.88802 0.71093 0.0
O142 O 0.22554 0.8741 0.73371 0.0
C143 C 0.26108 0.87885 0.14918 0.0
C144 C 0.28904 0.88114 0.18463 0.0
C145 C 0.27161 0.88019 0.20826 0.0
N146 N 0.27174 0.87899 0.09269 0.0
N147 N 0.28847 0.88008 0.11417 0.0
C148 C 0.24115 0.87982 0.14625 0.0
H149 H 0.23674 0.88624 0.09687 0.0
H150 H 0.23579 0.88739 0.19155 0.0
H151 H 0.23567 0.86609 0.14844 0.0
C152 C 0.2526 0.9255 0.90046 0.0
N153 N 0.2543 0.90775 0.90887 0.0
N154 N 0.26067 0.9044 0.97169 0.0
C155 C 0.26315 0.92001 0.00561 0.0
C156 C 0.25815 0.93391 0.96155 0.0
C157 C 0.24656 0.93408 0.83378 0.0
H158 H 0.25474 0.929 0.78968 0.0
H159 H 0.23249 0.93029 0.82346 0.0
H160 H 0.24774 0.94881 0.83569 0.0
O161 O 0.27064 0.87356 0.83444 0.0
O162 O 0.28292 0.86866 0.93815 0.0
H163 H 0.2825 0.91551 0.08605 0.0
H164 H 0.2694 0.93548 0.09893 0.0
C165 C 0.26906 0.92149 0.08031 0.0
H166 H 0.25966 0.91405 0.11407 0.0
H167 H 0.29945 0.88084 0.08064 0.0
O168 O 0.24393 0.89691 0.75362 0.0
C169 C 0.28296 0.86685 0.87181 0.0
Co170 Co 0.11268 0.24755 0.83776 0.0
Co171 Co 0.11898 0.26306 0.98691 0.0
C172 C 0.135 0.22798 0.93987 0.0
O173 O 0.12764 0.22857 0.87986 0.0
O174 O 0.13282 0.24049 0.98409 0.0
C175 C 0.11878 0.23585 0.7033 0.0
O176 O 0.1346 0.23374 0.73168 0.0
C177 C 0.11603 0.25994 0.13728 0.0
C178 C 0.1231 0.28689 0.17519 0.0
C179 C 0.1183 0.26995 0.19745 0.0
N180 N 0.1191 0.2705 0.08182 0.0
N181 N 0.12325 0.28662 0.10461 0.0
C182 C 0.11264 0.24029 0.13203 0.0
H183 H 0.12506 0.23299 0.14528 0.0
H184 H 0.10842 0.23664 0.07823 0.0
H185 H 0.10218 0.23603 0.16936 0.0
C186 C 0.07494 0.25068 0.88161 0.0
N187 N 0.09254 0.25251 0.89348 0.0
N188 N 0.09503 0.2595 0.95592 0.0
C189 C 0.07899 0.2625 0.98575 0.0
C190 C 0.06573 0.25693 0.93972 0.0
C191 C 0.06729 0.24382 0.81442 0.0
H192 H 0.07288 0.25156 0.77002 0.0
H193 H 0.07132 0.22969 0.80729 0.0
H194 H 0.05254 0.24485 0.81332 0.0
O195 O 0.12679 0.26956 0.82386 0.0
O196 O 0.13138 0.28128 0.92901 0.0
H197 H 0.08532 0.28135 0.06656 0.0
H198 H 0.06255 0.27349 0.06923 0.0
C199 C 0.07653 0.26964 0.0584 0.0
H200 H 0.08027 0.25917 0.09658 0.0
H201 H 0.12652 0.29733 0.07208 0.0
O202 O 0.10589 0.24062 0.74215 0.0
C203 C 0.13327 0.28172 0.86274 0.0
Co204 Co 0.75427 0.11206 0.83106 0.0
Co205 Co 0.73788 0.11885 0.97867 0.0
C206 C 0.77318 0.13489 0.93271 0.0
O207 O 0.7732 0.12698 0.8737 0.0
O208 O 0.76026 0.13302 0.97535 0.0
C209 C 0.76484 0.1185 0.69627 0.0
O210 O 0.7663 0.13434 0.72527 0.0
C211 C 0.74074 0.11701 0.12974 0.0
C212 C 0.71332 0.12258 0.16603 0.0
C213 C 0.73041 0.11878 0.18935 0.0
N214 N 0.73023 0.11936 0.07358 0.0
N215 N 0.71383 0.12267 0.09544 0.0
C216 C 0.76054 0.11449 0.1256 0.0
H217 H 0.76717 0.1275 0.13518 0.0
H218 H 0.76444 0.10953 0.07308 0.0
H219 H 0.76534 0.10501 0.16582 0.0
C220 C 0.75051 0.07435 0.8768 0.0
N221 N 0.74887 0.09203 0.88745 0.0
N222 N 0.74189 0.09483 0.94972 0.0
C223 C 0.73887 0.07897 0.9809 0.0
C224 C 0.74424 0.06543 0.93572 0.0
C225 C 0.75718 0.06632 0.80999 0.0
H226 H 0.75032 0.07267 0.76495 0.0
H227 H 0.77166 0.0691 0.80482 0.0
H228 H 0.75489 0.05171 0.80811 0.0
O229 O 0.73263 0.12658 0.8159 0.0
O230 O 0.71953 0.13049 0.91872 0.0
H231 H 0.71982 0.08505 0.06118 0.0
H232 H 0.7293 0.06297 0.06866 0.0
C233 C 0.73209 0.07698 0.05432 0.0
H234 H 0.74235 0.08196 0.0911 0.0
H235 H 0.70306 0.12517 0.06225 0.0
O236 O 0.76111 0.10526 0.7351 0.0
C237 C 0.71991 0.13274 0.85259 0.0
Co238 Co 0.88777 0.75106 0.84499 0.0
Co239 Co 0.88022 0.7364 0.99491 0.0
C240 C 0.86411 0.77091 0.94187 0.0
O241 O 0.87212 0.77019 0.88306 0.0
O242 O 0.86605 0.75865 0.98739 0.0
C243 C 0.8872 0.76635 0.70754 0.0
O244 O 0.87321 0.77517 0.73027 0.0
C245 C 0.87921 0.73954 0.14657 0.0
C246 C 0.88249 0.71164 0.1817 0.0
C247 C 0.88097 0.72902 0.20546 0.0
N248 N 0.87961 0.72891 0.08998 0.0
N249 N 0.88131 0.71221 0.11127 0.0
C250 C 0.87953 0.75949 0.14392 0.0
H251 H 0.88575 0.76416 0.09451 0.0
H252 H 0.887 0.76505 0.18913 0.0
H253 H 0.86565 0.76453 0.14658 0.0
C254 C 0.92508 0.74834 0.89434 0.0
N255 N 0.90739 0.74661 0.90424 0.0
N256 N 0.90437 0.7405 0.9677 0.0
C257 C 0.92014 0.73838 0.00079 0.0
C258 C 0.93381 0.74322 0.95531 0.0
C259 C 0.9333 0.75377 0.82615 0.0
H260 H 0.92771 0.74545 0.78342 0.0
H261 H 0.9298 0.76787 0.81497 0.0
H262 H 0.94801 0.75222 0.82645 0.0
O263 O 0.87395 0.72897 0.83095 0.0
O264 O 0.86875 0.71766 0.93627 0.0
H265 H 0.91677 0.71923 0.08278 0.0
H266 H 0.93599 0.7335 0.09437 0.0
C267 C 0.922 0.73295 0.07593 0.0
H268 H 0.91407 0.7421 0.10907 0.0
H269 H 0.88238 0.70129 0.07761 0.0
O270 O 0.89602 0.75677 0.75 0.0
C271 C 0.86735 0.71691 0.86985 0.0
Co272 Co 0.74887 0.61298 0.65072 0.0
Co273 Co 0.76331 0.62046 0.50053 0.0
C274 C 0.72894 0.63669 0.55451 0.0
O275 O 0.72976 0.62872 0.61339 0.0
O276 O 0.74109 0.63469 0.5086 0.0
C277 C 0.73301 0.61261 0.78802 0.0
O278 O 0.72319 0.62594 0.76545 0.0
C279 C 0.75973 0.62108 0.34919 0.0
C280 C 0.78756 0.61828 0.31277 0.0
C281 C 0.77008 0.61939 0.28983 0.0
N282 N 0.77054 0.62102 0.40523 0.0
N283 N 0.7872 0.61961 0.38317 0.0
C284 C 0.7398 0.62036 0.35293 0.0
H285 H 0.73542 0.61434 0.40313 0.0
H286 H 0.73425 0.61251 0.30869 0.0
H287 H 0.73446 0.63411 0.34927 0.0
C288 C 0.75121 0.57569 0.60133 0.0
N289 N 0.75308 0.59336 0.59135 0.0
N290 N 0.75925 0.59632 0.52794 0.0
C291 C 0.76136 0.58052 0.49508 0.0
C292 C 0.75638 0.56691 0.54057 0.0
C293 C 0.74563 0.56752 0.66944 0.0
H294 H 0.75428 0.57268 0.71199 0.0
H295 H 0.73172 0.57158 0.68136 0.0
H296 H 0.74658 0.55277 0.6686 0.0
O297 O 0.77106 0.62669 0.66407 0.0
O298 O 0.7822 0.63191 0.55849 0.0
H299 H 0.78057 0.58425 0.41354 0.0
H300 H 0.76701 0.5645 0.40264 0.0
C301 C 0.76703 0.57857 0.42026 0.0
H302 H 0.75769 0.58606 0.38636 0.0
H303 H 0.79825 0.61883 0.41631 0.0
O304 O 0.74336 0.60467 0.74573 0.0
C305 C 0.78308 0.63327 0.62489 0.0
Co306 Co 0.38795 0.74734 0.65157 0.0
Co307 Co 0.38048 0.76371 0.50439 0.0
C308 C 0.36501 0.72814 0.5522 0.0
O309 O 0.37312 0.72824 0.61075 0.0
O310 O 0.36658 0.74105 0.5093 0.0
C311 C 0.38239 0.73616 0.78655 0.0
O312 O 0.36661 0.73379 0.75801 0.0
C313 C 0.38397 0.7607 0.35365 0.0
C314 C 0.37374 0.78656 0.31532 0.0
C315 C 0.38051 0.77029 0.29318 0.0
N316 N 0.37966 0.77088 0.40901 0.0
N317 N 0.37365 0.78637 0.3859 0.0
C318 C 0.38979 0.74163 0.35899 0.0
H319 H 0.39 0.73712 0.41422 0.0
H320 H 0.4034 0.74009 0.33729 0.0
H321 H 0.3807 0.73305 0.32782 0.0
C322 C 0.42534 0.75035 0.60173 0.0
N323 N 0.40765 0.75255 0.59341 0.0
N324 N 0.40457 0.76012 0.5324 0.0
C325 C 0.4203 0.76336 0.5006 0.0
C326 C 0.43395 0.75707 0.54297 0.0
C327 C 0.43364 0.74137 0.66362 0.0
H328 H 0.42494 0.73036 0.6821 0.0
H329 H 0.44705 0.73604 0.65064 0.0
H330 H 0.43497 0.7512 0.70677 0.0
O331 O 0.37323 0.76896 0.66642 0.0
O332 O 0.36881 0.78203 0.5638 0.0
H333 H 0.43555 0.78037 0.43183 0.0
H334 H 0.42162 0.76427 0.38881 0.0
C335 C 0.4224 0.77359 0.43375 0.0
H336 H 0.41171 0.78372 0.42873 0.0
H337 H 0.36912 0.79665 0.41821 0.0
O338 O 0.39526 0.74089 0.74749 0.0
C339 C 0.36677 0.78162 0.63 0.0
Co340 Co 0.25153 0.38729 0.64985 0.0
Co341 Co 0.23738 0.37963 0.49939 0.0
C342 C 0.27182 0.36375 0.55387 0.0
O343 O 0.27086 0.37172 0.61271 0.0
O344 O 0.2597 0.36564 0.50774 0.0
C345 C 0.2673 0.38762 0.78704 0.0
O346 O 0.27702 0.37424 0.76425 0.0
C347 C 0.24078 0.37869 0.34786 0.0
C348 C 0.21291 0.38174 0.31215 0.0
C349 C 0.23034 0.38042 0.28876 0.0
N350 N 0.23008 0.37894 0.40419 0.0
N351 N 0.21339 0.38049 0.38255 0.0
C352 C 0.26073 0.37925 0.351 0.0
H353 H 0.26526 0.38533 0.40087 0.0
H354 H 0.26625 0.38696 0.30638 0.0
H355 H 0.26594 0.36544 0.34756 0.0
C356 C 0.24878 0.42461 0.60013 0.0
N357 N 0.24712 0.40689 0.59034 0.0
N358 N 0.2412 0.40382 0.52666 0.0
C359 C 0.23911 0.41956 0.49334 0.0
C360 C 0.24377 0.43328 0.53889 0.0
C361 C 0.25406 0.4329 0.66838 0.0
H362 H 0.24564 0.42737 0.7109 0.0
H363 H 0.26812 0.42938 0.68014 0.0
H364 H 0.25254 0.44761 0.66776 0.0
O365 O 0.22949 0.37328 0.66316 0.0
O366 O 0.21864 0.36796 0.55719 0.0
H367 H 0.22026 0.41597 0.4104 0.0
H368 H 0.23435 0.43534 0.39948 0.0
C369 C 0.2339 0.42135 0.41794 0.0
H370 H 0.24324 0.41353 0.38528 0.0
H371 H 0.20241 0.38143 0.41598 0.0
O372 O 0.25698 0.39565 0.74486 0.0
C373 C 0.21765 0.36654 0.62354 0.0
Co374 Co 0.61431 0.25242 0.65502 0.0
Co375 Co 0.61891 0.23788 0.5028 0.0
C376 C 0.63553 0.27264 0.55247 0.0
O377 O 0.62836 0.272 0.61282 0.0
O378 O 0.63316 0.26019 0.50811 0.0
C379 C 0.60289 0.26993 0.79007 0.0
O380 O 0.59434 0.28292 0.75844 0.0
C381 C 0.61599 0.24374 0.35321 0.0
C382 C 0.61543 0.21652 0.30905 0.0
C383 C 0.61449 0.23441 0.29101 0.0
N384 N 0.61772 0.23198 0.40582 0.0
N385 N 0.61755 0.2157 0.37913 0.0
C386 C 0.61364 0.2634 0.36355 0.0
H387 H 0.60824 0.26622 0.4165 0.0
H388 H 0.60451 0.26902 0.32343 0.0
H389 H 0.62676 0.27007 0.35824 0.0
C390 C 0.57566 0.2484 0.61736 0.0
N391 N 0.59326 0.24739 0.60304 0.0
N392 N 0.59534 0.24133 0.53874 0.0
C393 C 0.57914 0.23848 0.51007 0.0
C394 C 0.56615 0.24288 0.5589 0.0
C395 C 0.56805 0.25358 0.6868 0.0
H396 H 0.57657 0.24839 0.72959 0.0
H397 H 0.56755 0.26834 0.6903 0.0
H398 H 0.55431 0.24832 0.69325 0.0
O399 O 0.62913 0.23081 0.66015 0.0
O400 O 0.63162 0.2186 0.55503 0.0
H401 H 0.58322 0.21984 0.42665 0.0
H402 H 0.56192 0.23104 0.42283 0.0
C403 C 0.5762 0.23264 0.43592 0.0
H404 H 0.58176 0.24282 0.40009 0.0
H405 H 0.61847 0.20405 0.40887 0.0
O406 O 0.61041 0.25767 0.75508 0.0
C407 C 0.63487 0.21846 0.62056 0.0
Co408 Co 0.74767 0.38817 0.33509 0.0
Co409 Co 0.76316 0.38125 0.48406 0.0
C410 C 0.72823 0.36504 0.4337 0.0
O411 O 0.7285 0.37306 0.37485 0.0
O412 O 0.74086 0.36694 0.47773 0.0
C413 C 0.73299 0.38682 0.19696 0.0
O414 O 0.72476 0.37245 0.21952 0.0
C415 C 0.76011 0.38067 0.63569 0.0
C416 C 0.78805 0.38348 0.67084 0.0
C417 C 0.77065 0.38223 0.69457 0.0
N418 N 0.77073 0.3809 0.57909 0.0
N419 N 0.78745 0.38236 0.60038 0.0
C420 C 0.74017 0.38118 0.63314 0.0
H421 H 0.73554 0.3873 0.58349 0.0
H422 H 0.73472 0.38882 0.6781 0.0
H423 H 0.735 0.36735 0.63651 0.0
C424 C 0.75068 0.42567 0.38206 0.0
N425 N 0.75253 0.40802 0.39277 0.0
N426 N 0.75899 0.40526 0.45586 0.0
C427 C 0.76131 0.42115 0.4878 0.0
C428 C 0.75616 0.43462 0.44201 0.0
C429 C 0.7447 0.43363 0.3141 0.0
H430 H 0.753 0.42823 0.27095 0.0
H431 H 0.73067 0.42968 0.3039 0.0
H432 H 0.74579 0.44838 0.31401 0.0
O433 O 0.76933 0.37367 0.32142 0.0
O434 O 0.7819 0.36983 0.42531 0.0
H435 H 0.78093 0.4178 0.56809 0.0
H436 H 0.76715 0.43738 0.57949 0.0
C437 C 0.76728 0.42328 0.56219 0.0
H438 H 0.75821 0.4157 0.59689 0.0
H439 H 0.7984 0.38321 0.56671 0.0
O440 O 0.74198 0.39614 0.23974 0.0
C441 C 0.78188 0.36754 0.3592 0.0
Co442 Co 0.61389 0.74977 0.34466 0.0
Co443 Co 0.61842 0.76357 0.49793 0.0
C444 C 0.63565 0.72949 0.44719 0.0
O445 O 0.62871 0.73061 0.38649 0.0
O446 O 0.63285 0.74144 0.49323 0.0
C447 C 0.60254 0.73166 0.21086 0.0
O448 O 0.59413 0.71866 0.24296 0.0
C449 C 0.61483 0.75862 0.64805 0.0
C450 C 0.61536 0.78616 0.68927 0.0
C451 C 0.61349 0.76848 0.70926 0.0
N452 N 0.61697 0.76997 0.59428 0.0
N453 N 0.61737 0.78642 0.61914 0.0
C454 C 0.61522 0.73874 0.63987 0.0
H455 H 0.62923 0.73452 0.63213 0.0
H456 H 0.60756 0.73478 0.59262 0.0
H457 H 0.61006 0.73158 0.68622 0.0
C458 C 0.57525 0.75309 0.3823 0.0
N459 N 0.59282 0.75411 0.39703 0.0
N460 N 0.59483 0.75984 0.46182 0.0
C461 C 0.57858 0.76238 0.49055 0.0
C462 C 0.56566 0.7582 0.44111 0.0
C463 C 0.56774 0.74852 0.31202 0.0
H464 H 0.57645 0.75385 0.27009 0.0
H465 H 0.56697 0.7338 0.30695 0.0
H466 H 0.55411 0.75406 0.30561 0.0
O467 O 0.62763 0.77206 0.33845 0.0
O468 O 0.63113 0.78286 0.4457 0.0
H469 H 0.58242 0.78045 0.57611 0.0
H470 H 0.5612 0.76908 0.57817 0.0
C471 C 0.57552 0.76767 0.56524 0.0
H472 H 0.58107 0.75725 0.6 0.0
H473 H 0.61887 0.7978 0.58821 0.0
O474 O 0.60996 0.7441 0.24523 0.0
C475 C 0.63353 0.78396 0.37978 0.0
Co476 Co 0.2537 0.61237 0.3338 0.0
Co477 Co 0.2378 0.61872 0.48217 0.0
C478 C 0.27305 0.63473 0.43551 0.0
O479 O 0.2728 0.62702 0.37615 0.0
O480 O 0.26031 0.63277 0.47888 0.0
C481 C 0.26477 0.61873 0.19915 0.0
O482 O 0.2666 0.63455 0.2279 0.0
C483 C 0.24087 0.61629 0.63279 0.0
C484 C 0.21367 0.62254 0.67002 0.0
C485 C 0.23071 0.6183 0.69272 0.0
N486 N 0.2303 0.61896 0.57705 0.0
N487 N 0.21403 0.62264 0.59944 0.0
C488 C 0.2606 0.61343 0.62792 0.0
H489 H 0.2675 0.62625 0.63829 0.0
H490 H 0.26432 0.60864 0.57493 0.0
H491 H 0.26527 0.60365 0.66728 0.0
C492 C 0.25005 0.57457 0.37754 0.0
N493 N 0.24839 0.5922 0.38927 0.0
N494 N 0.24149 0.59477 0.45179 0.0
C495 C 0.23845 0.57878 0.48196 0.0
C496 C 0.24383 0.56543 0.43593 0.0
C497 C 0.25675 0.56682 0.31026 0.0
H498 H 0.24941 0.57288 0.26578 0.0
H499 H 0.27106 0.57023 0.30397 0.0
H500 H 0.25506 0.55213 0.30845 0.0
O501 O 0.23213 0.62712 0.32007 0.0
O502 O 0.21945 0.63078 0.42386 0.0
H503 H 0.21953 0.58484 0.5627 0.0
H504 H 0.2283 0.56242 0.56749 0.0
C505 C 0.23155 0.57646 0.55504 0.0
H506 H 0.24192 0.58088 0.59251 0.0
H507 H 0.20327 0.6255 0.56662 0.0
O508 O 0.26046 0.60565 0.23791 0.0
C509 C 0.21962 0.63331 0.3579 0.0
Co510 Co 0.38887 0.25336 0.34047 0.0
Co511 Co 0.38142 0.23666 0.48686 0.0
C512 C 0.36592 0.27231 0.44058 0.0
O513 O 0.37398 0.2724 0.38192 0.0
O514 O 0.36755 0.25927 0.48278 0.0
C515 C 0.38341 0.26447 0.20544 0.0
O516 O 0.36751 0.26651 0.23326 0.0
C517 C 0.38317 0.24085 0.63628 0.0
C518 C 0.3782 0.21381 0.67778 0.0
C519 C 0.38165 0.23126 0.69799 0.0
N520 N 0.38063 0.22969 0.58231 0.0
N521 N 0.3776 0.21352 0.6072 0.0
C522 C 0.38843 0.26001 0.62773 0.0
H523 H 0.39484 0.26216 0.57606 0.0
H524 H 0.39771 0.26416 0.67002 0.0
H525 H 0.37633 0.26849 0.63033 0.0
C526 C 0.42627 0.25047 0.39061 0.0
N527 N 0.40858 0.24807 0.39843 0.0
N528 N 0.40549 0.2405 0.45939 0.0
C529 C 0.42117 0.2376 0.49197 0.0
C530 C 0.43484 0.24398 0.44986 0.0
C531 C 0.43458 0.25954 0.32893 0.0
H532 H 0.43572 0.24982 0.28532 0.0
H533 H 0.42595 0.27067 0.31111 0.0
H534 H 0.44806 0.2647 0.34178 0.0
O535 O 0.37421 0.23174 0.3247 0.0
O536 O 0.36986 0.21838 0.42684 0.0
H537 H 0.41324 0.2171 0.56403 0.0
H538 H 0.43674 0.22227 0.56587 0.0
C539 C 0.42317 0.228 0.56028 0.0
H540 H 0.42092 0.2375 0.6039 0.0
H541 H 0.37525 0.20231 0.57612 0.0
O542 O 0.39627 0.26 0.24502 0.0
C543 C 0.36782 0.21895 0.36062 0.0
H544 H 0.27661 0.09044 0.69819 0.0
H545 H 0.23853 0.13259 0.73501 0.0
H546 H 0.26459 0.08634 0.57971 0.0
H547 H 0.22664 0.1286 0.61667 0.0
H548 H 0.23695 0.1321 0.3709 0.0
H549 H 0.24308 0.13405 0.49619 0.0
H550 H 0.23333 0.07754 0.51726 0.0
H551 H 0.22665 0.0757 0.3911 0.0
C552 C 0.26562 0.09873 0.68094 0.0
C553 C 0.2584 0.11175 0.7255 0.0
C554 C 0.25864 0.09626 0.61372 0.0
C555 C 0.2446 0.10705 0.58967 0.0
C556 C 0.23738 0.12005 0.63437 0.0
C557 C 0.24415 0.1223 0.70189 0.0
C558 C 0.23571 0.12019 0.40268 0.0
C559 C 0.23127 0.10377 0.37195 0.0
C560 C 0.23919 0.1213 0.47418 0.0
C561 C 0.23871 0.10593 0.516 0.0
C562 C 0.23378 0.08955 0.48576 0.0
C563 C 0.22985 0.08852 0.41411 0.0
H564 H 0.90992 0.27616 0.70411 0.0
H565 H 0.86033 0.24735 0.71781 0.0
H566 H 0.91483 0.26434 0.58659 0.0
H567 H 0.86425 0.23654 0.59844 0.0
H568 H 0.87793 0.21108 0.39594 0.0
H569 H 0.87878 0.21805 0.52068 0.0
H570 H 0.90536 0.26791 0.47392 0.0
H571 H 0.9056 0.26033 0.35116 0.0
C572 C 0.89997 0.26747 0.68108 0.0
C573 C 0.88469 0.26274 0.71885 0.0
C574 C 0.90269 0.26072 0.61375 0.0
C575 C 0.88989 0.24951 0.58219 0.0
C576 C 0.87462 0.24478 0.62099 0.0
C577 C 0.87218 0.25116 0.689 0.0
C578 C 0.88431 0.22331 0.41283 0.0
C579 C 0.89156 0.23519 0.36371 0.0
C580 C 0.88462 0.22745 0.48427 0.0
C581 C 0.89184 0.24374 0.50785 0.0
C582 C 0.89988 0.25514 0.45858 0.0
C583 C 0.89993 0.25082 0.38763 0.0
H584 H 0.77098 0.85551 0.38752 0.0
H585 H 0.7537 0.91033 0.36874 0.0
H586 H 0.76381 0.856 0.51182 0.0
H587 H 0.7463 0.9107 0.49322 0.0
H588 H 0.72459 0.85555 0.69603 0.0
H589 H 0.73512 0.85676 0.57492 0.0
H590 H 0.75807 0.90873 0.6137 0.0
H591 H 0.74697 0.90767 0.73415 0.0
C592 C 0.76589 0.86776 0.41009 0.0
C593 C 0.76271 0.88282 0.36811 0.0
C594 C 0.76165 0.86798 0.48119 0.0
C595 C 0.75417 0.88327 0.5119 0.0
C596 C 0.75206 0.89872 0.47099 0.0
C597 C 0.7563 0.8985 0.39969 0.0
C598 C 0.73187 0.8672 0.67836 0.0
C599 C 0.7354 0.88131 0.7244 0.0
C600 C 0.73805 0.86785 0.60945 0.0
C601 C 0.7477 0.88271 0.58521 0.0
C602 C 0.75076 0.89706 0.63099 0.0
C603 C 0.74463 0.89637 0.70001 0.0
H604 H 0.1451 0.77188 0.38557 0.0
H605 H 0.09029 0.7547 0.36516 0.0
H606 H 0.14422 0.76507 0.51021 0.0
H607 H 0.08955 0.74763 0.48976 0.0
H608 H 0.14393 0.72573 0.69451 0.0
H609 H 0.14325 0.7365 0.57373 0.0
H610 H 0.09114 0.7594 0.60979 0.0
H611 H 0.09165 0.74802 0.72984 0.0
C612 C 0.13278 0.7669 0.40784 0.0
C613 C 0.11784 0.76361 0.36535 0.0
C614 C 0.13233 0.76287 0.47912 0.0
C615 C 0.11693 0.7555 0.50938 0.0
C616 C 0.1016 0.75331 0.46789 0.0
C617 C 0.10204 0.75735 0.39649 0.0
C618 C 0.13236 0.73305 0.67631 0.0
C619 C 0.11804 0.73645 0.72146 0.0
C620 C 0.13202 0.73938 0.60762 0.0
C621 C 0.11726 0.74908 0.58272 0.0
C622 C 0.10273 0.75207 0.62764 0.0
C623 C 0.10311 0.74577 0.69645 0.0
H624 H 0.25128 0.85745 0.28411 0.0
H625 H 0.27765 0.90847 0.29315 0.0
H626 H 0.24063 0.86141 0.40371 0.0
H627 H 0.26599 0.91331 0.41088 0.0
H628 H 0.26165 0.90574 0.64728 0.0
H629 H 0.26973 0.90481 0.52487 0.0
H630 H 0.22126 0.8757 0.4789 0.0
H631 H 0.21385 0.87559 0.60324 0.0
C632 C 0.25463 0.86959 0.312 0.0
C633 C 0.26543 0.88255 0.28061 0.0
C634 C 0.24834 0.87204 0.38012 0.0
C635 C 0.25234 0.88774 0.41753 0.0
C636 C 0.26291 0.90087 0.38476 0.0
C637 C 0.26959 0.89817 0.3173 0.0
C638 C 0.25255 0.89938 0.61095 0.0
C639 C 0.23719 0.89056 0.63501 0.0
C640 C 0.25716 0.8989 0.54026 0.0
C641 C 0.24631 0.88996 0.49144 0.0
C642 C 0.23026 0.88224 0.51504 0.0
C643 C 0.22585 0.88236 0.58621 0.0
H644 H 0.1441 0.22778 0.60597 0.0
H645 H 0.08962 0.24594 0.62668 0.0
H646 H 0.14323 0.23445 0.4812 0.0
H647 H 0.08889 0.25285 0.50194 0.0
H648 H 0.1435 0.27406 0.29751 0.0
H649 H 0.1427 0.26313 0.41804 0.0
H650 H 0.09027 0.24101 0.38171 0.0
H651 H 0.09091 0.25254 0.26186 0.0
C652 C 0.13184 0.23294 0.58374 0.0
C653 C 0.11701 0.23656 0.62635 0.0
C654 C 0.1314 0.23688 0.51239 0.0
C655 C 0.11612 0.2445 0.48218 0.0
C656 C 0.10086 0.24698 0.52377 0.0
C657 C 0.10129 0.24303 0.59526 0.0
C658 C 0.13183 0.26688 0.31557 0.0
C659 C 0.11745 0.26374 0.27041 0.0
C660 C 0.13143 0.26045 0.38412 0.0
C661 C 0.11654 0.25094 0.40888 0.0
C662 C 0.10195 0.2482 0.36394 0.0
C663 C 0.10241 0.25458 0.29525 0.0
H664 H 0.77117 0.14451 0.59986 0.0
H665 H 0.75528 0.08928 0.61862 0.0
H666 H 0.76394 0.14387 0.47563 0.0
H667 H 0.74781 0.08875 0.49423 0.0
H668 H 0.72492 0.14337 0.29092 0.0
H669 H 0.7354 0.14244 0.41213 0.0
H670 H 0.75945 0.09095 0.3739 0.0
H671 H 0.74839 0.09171 0.25339 0.0
C672 C 0.76637 0.13215 0.57731 0.0
C673 C 0.76362 0.117 0.61926 0.0
C674 C 0.76209 0.13184 0.50624 0.0
C675 C 0.75499 0.11637 0.47552 0.0
C676 C 0.75327 0.10087 0.51643 0.0
C677 C 0.75756 0.10118 0.5877 0.0
C678 C 0.73243 0.13188 0.30873 0.0
C679 C 0.73628 0.11783 0.2628 0.0
C680 C 0.73857 0.1314 0.37771 0.0
C681 C 0.74853 0.11675 0.40215 0.0
C682 C 0.75191 0.10245 0.35649 0.0
C683 C 0.7458 0.10298 0.2874 0.0
H684 H 0.90628 0.74013 0.64369 0.0
H685 H 0.87409 0.78662 0.59997 0.0
H686 H 0.90582 0.73214 0.52122 0.0
H687 H 0.87463 0.77932 0.47553 0.0
H688 H 0.8574 0.74821 0.28171 0.0
H689 H 0.86106 0.75918 0.40103 0.0
H690 H 0.91412 0.73636 0.40709 0.0
H691 H 0.90964 0.72436 0.28961 0.0
C692 C 0.89954 0.74899 0.60746 0.0
C693 C 0.89001 0.7639 0.63164 0.0
C694 C 0.89935 0.74443 0.53672 0.0
C695 C 0.88995 0.75491 0.48799 0.0
C696 C 0.88154 0.7706 0.51166 0.0
C697 C 0.8814 0.77494 0.58288 0.0
C698 C 0.86973 0.74547 0.30932 0.0
C699 C 0.88314 0.73527 0.27775 0.0
C700 C 0.87199 0.75197 0.37723 0.0
C701 C 0.88794 0.74876 0.4142 0.0
C702 C 0.90151 0.73881 0.38124 0.0
C703 C 0.89901 0.73193 0.31398 0.0
H704 H 0.74959 0.64213 0.21477 0.0
H705 H 0.7757 0.59098 0.2052 0.0
H706 H 0.73858 0.63814 0.09569 0.0
H707 H 0.7637 0.58612 0.08798 0.0
H708 H 0.7599 0.59449 0.85178 0.0
H709 H 0.76766 0.59491 0.97436 0.0
H710 H 0.7191 0.62387 0.02034 0.0
H711 H 0.71197 0.62448 0.89571 0.0
C712 C 0.7528 0.62995 0.1869 0.0
C713 C 0.76365 0.61697 0.2179 0.0
C714 C 0.7463 0.62749 0.11911 0.0
C715 C 0.75017 0.61176 0.08169 0.0
C716 C 0.76073 0.59858 0.11417 0.0
C717 C 0.76761 0.60129 0.18128 0.0
C718 C 0.7507 0.60072 0.88804 0.0
C719 C 0.73543 0.60969 0.86389 0.0
C720 C 0.75512 0.60088 0.95888 0.0
C721 C 0.74417 0.60966 0.00776 0.0
C722 C 0.72816 0.61745 0.9841 0.0
C723 C 0.72393 0.61763 0.91276 0.0
H724 H 0.40845 0.75315 0.23011 0.0
H725 H 0.3558 0.77414 0.19095 0.0
H726 H 0.40983 0.74188 0.11005 0.0
H727 H 0.35733 0.7634 0.07039 0.0
H728 H 0.41114 0.74717 0.86406 0.0
H729 H 0.41142 0.75414 0.989 0.0
H730 H 0.35752 0.73442 0.00789 0.0
H731 H 0.3571 0.72763 0.88325 0.0
C732 C 0.39708 0.75511 0.19611 0.0
C733 C 0.38183 0.7641 0.22009 0.0
C734 C 0.39797 0.74888 0.12718 0.0
C735 C 0.38358 0.75153 0.08119 0.0
C736 C 0.36847 0.76082 0.10509 0.0
C737 C 0.36765 0.76713 0.17375 0.0
C738 C 0.39948 0.74399 0.89516 0.0
C739 C 0.38401 0.73708 0.86359 0.0
C740 C 0.39966 0.74797 0.96672 0.0
C741 C 0.38437 0.74512 0.00783 0.0
C742 C 0.36935 0.73712 0.97711 0.0
C743 C 0.36917 0.73312 0.90579 0.0
H744 H 0.25032 0.35747 0.21265 0.0
H745 H 0.22504 0.40906 0.20508 0.0
H746 H 0.26131 0.36155 0.09357 0.0
H747 H 0.23703 0.41397 0.08786 0.0
H748 H 0.24065 0.406 0.85125 0.0
H749 H 0.23288 0.40545 0.97385 0.0
H750 H 0.28106 0.37578 0.019 0.0
H751 H 0.28819 0.37533 0.8944 0.0
C752 C 0.24728 0.36975 0.18519 0.0
C753 C 0.23667 0.38284 0.21674 0.0
C754 C 0.25378 0.37226 0.11743 0.0
C755 C 0.25014 0.38814 0.08061 0.0
C756 C 0.23981 0.40141 0.11361 0.0
C757 C 0.23294 0.39867 0.1807 0.0
C758 C 0.24977 0.39958 0.88735 0.0
C759 C 0.26492 0.39047 0.86296 0.0
C760 C 0.24534 0.39935 0.95818 0.0
C761 C 0.25617 0.39033 0.00679 0.0
C762 C 0.27209 0.38239 0.98294 0.0
C763 C 0.27632 0.3823 0.91162 0.0
H764 H 0.5908 0.22331 0.19228 0.0
H765 H 0.63239 0.26193 0.23036 0.0
H766 H 0.58672 0.23535 0.07379 0.0
H767 H 0.62844 0.27381 0.112 0.0
H768 H 0.63237 0.2634 0.86599 0.0
H769 H 0.63422 0.2572 0.99129 0.0
H770 H 0.57769 0.26682 0.01166 0.0
H771 H 0.57595 0.27359 0.88554 0.0
C772 C 0.59897 0.23442 0.1753 0.0
C773 C 0.61182 0.24179 0.22022 0.0
C774 C 0.59651 0.24141 0.10809 0.0
C775 C 0.60716 0.2556 0.08439 0.0
C776 C 0.61999 0.26296 0.12944 0.0
C777 C 0.62222 0.25619 0.19698 0.0
C778 C 0.62043 0.26459 0.89763 0.0
C779 C 0.60404 0.26903 0.86673 0.0
C780 C 0.62149 0.26108 0.96912 0.0
C781 C 0.60609 0.2615 0.01073 0.0
C782 C 0.58972 0.26641 0.98032 0.0
C783 C 0.58875 0.27039 0.9087 0.0
H784 H 0.75896 0.40638 0.13397 0.0
H785 H 0.71324 0.37326 0.08879 0.0
H786 H 0.76712 0.40622 0.01165 0.0
H787 H 0.72066 0.3741 0.9645 0.0
H788 H 0.75193 0.35812 0.76983 0.0
H789 H 0.74099 0.3612 0.88939 0.0
H790 H 0.76289 0.41465 0.89783 0.0
H791 H 0.77492 0.41073 0.78007 0.0
C792 C 0.75031 0.3995 0.09743 0.0
C793 C 0.73556 0.38964 0.12113 0.0
C794 C 0.75496 0.39948 0.02678 0.0
C795 C 0.74473 0.38994 0.97765 0.0
C796 C 0.7292 0.38115 0.0009 0.0
C797 C 0.72478 0.38083 0.07203 0.0
C798 C 0.75449 0.3704 0.79803 0.0
C799 C 0.76444 0.38408 0.76703 0.0
C800 C 0.748 0.37234 0.8661 0.0
C801 C 0.75094 0.38823 0.90381 0.0
C802 C 0.76066 0.40206 0.87143 0.0
C803 C 0.76754 0.3999 0.804 0.0
H804 H 0.6324 0.7354 0.13486 0.0
H805 H 0.5753 0.73061 0.11613 0.0
H806 H 0.63464 0.74263 0.011 0.0
H807 H 0.57725 0.73888 0.99213 0.0
H808 H 0.58899 0.74432 0.75735 0.0
H809 H 0.58649 0.73229 0.87581 0.0
H810 H 0.62823 0.76815 0.94405 0.0
H811 H 0.63153 0.77905 0.82465 0.0
C812 C 0.62034 0.73568 0.10354 0.0
C813 C 0.6037 0.73244 0.13433 0.0
C814 C 0.62156 0.74007 0.03289 0.0
C815 C 0.60609 0.74181 0.99185 0.0
C816 C 0.58945 0.7376 0.02204 0.0
C817 C 0.58829 0.73283 0.09285 0.0
C818 C 0.59796 0.74919 0.79747 0.0
C819 C 0.61102 0.762 0.78151 0.0
C820 C 0.5963 0.74256 0.8656 0.0
C821 C 0.60742 0.74894 0.91935 0.0
C822 C 0.61986 0.76244 0.90361 0.0
C823 C 0.62164 0.76888 0.83543 0.0
H824 H 0.25509 0.5895 0.12202 0.0
H825 H 0.27195 0.64443 0.1023 0.0
H826 H 0.248 0.58882 -0.0026 0.0
H827 H 0.26511 0.64362 0.9777 0.0
H828 H 0.24852 0.59119 0.75714 0.0
H829 H 0.25982 0.5906 0.87733 0.0
H830 H 0.23655 0.64252 0.91409 0.0
H831 H 0.22585 0.64327 0.7932 0.0
C832 C 0.25767 0.60129 0.09084 0.0
C833 C 0.26385 0.6171 0.12218 0.0
C834 C 0.25362 0.60089 0.01943 0.0
C835 C 0.2557 0.61627 0.97815 0.0
C836 C 0.26299 0.63169 0.00862 0.0
C837 C 0.26703 0.6321 0.07989 0.0
C838 C 0.24617 0.60259 0.79073 0.0
C839 C 0.23677 0.61749 0.76587 0.0
C840 C 0.25242 0.60216 0.85961 0.0
C841 C 0.2493 0.61663 0.90477 0.0
C842 C 0.23952 0.63136 0.88002 0.0
C843 C 0.23324 0.63173 0.81126 0.0
H844 H 0.35839 0.27285 0.10754 0.0
H845 H 0.4125 0.25374 0.12945 0.0
H846 H 0.35928 0.26624 0.98304 0.0
H847 H 0.41349 0.24742 0.00402 0.0
H848 H 0.39681 0.21427 0.8088 0.0
H849 H 0.39902 0.22481 0.92962 0.0
H850 H 0.37242 0.27373 0.87109 0.0
H851 H 0.36953 0.26286 0.75161 0.0
C852 C 0.37062 0.26759 0.08551 0.0
C853 C 0.3853 0.26365 0.1285 0.0
C854 C 0.37115 0.26386 0.01399 0.0
C855 C 0.38639 0.25612 0.98384 0.0
C856 C 0.40145 0.2531 0.02608 0.0
C857 C 0.40094 0.25688 0.09775 0.0
C858 C 0.3915 0.22729 0.82192 0.0
C859 C 0.38332 0.23788 0.77055 0.0
C860 C 0.39294 0.23342 0.89081 0.0
C861 C 0.38606 0.2502 0.90973 0.0
C862 C 0.37786 0.26076 0.85818 0.0
C863 C 0.37643 0.25462 0.78943 0.0
H864 H 0.28444 0.1449 0.26208 0.0
H865 H 0.31169 0.14915 0.0632 0.0
H866 H 0.30668 0.16371 0.31603 0.0
H867 H 0.33454 0.16777 0.11851 0.0
H868 H 0.35676 0.21887 0.22428 0.0
H869 H 0.33775 0.19723 0.16604 0.0
H870 H 0.33666 0.16532 0.35454 0.0
H871 H 0.35521 0.18736 0.4138 0.0
C872 C 0.29532 0.14968 0.2298 0.0
C873 C 0.29619 0.14553 0.15798 0.0
C874 C 0.30823 0.16039 0.26118 0.0
C875 C 0.32251 0.16722 0.22192 0.0
C876 C 0.32361 0.16287 0.15021 0.0
C877 C 0.31057 0.15214 0.11852 0.0
C878 C 0.35257 0.20718 0.25334 0.0
C879 C 0.35736 0.20497 0.32412 0.0
C880 C 0.34176 0.19467 0.21959 0.0
C881 C 0.33554 0.17955 0.25557 0.0
C882 C 0.34091 0.17699 0.32558 0.0
C883 C 0.35161 0.18959 0.35957 0.0
H884 H 0.81257 0.35408 0.41772 0.0
H885 H 0.78353 0.35714 0.22249 0.0
H886 H 0.83512 0.33554 0.36096 0.0
H887 H 0.80555 0.33823 0.16686 0.0
H888 H 0.85369 0.31318 0.0674 0.0
H889 H 0.83518 0.33569 0.12443 0.0
H890 H 0.83777 0.30592 0.31806 0.0
H891 H 0.85667 0.28391 0.26212 0.0
C892 C 0.811 0.35083 0.36279 0.0
C893 C 0.79618 0.35703 0.32489 0.0
C894 C 0.82388 0.34013 0.33027 0.0
C895 C 0.82215 0.3353 0.25927 0.0
C896 C 0.80753 0.34187 0.22119 0.0
C897 C 0.79477 0.35264 0.25345 0.0
C898 C 0.85042 0.31155 0.12228 0.0
C899 C 0.85659 0.29667 0.15995 0.0
C900 C 0.83974 0.32441 0.15497 0.0
C901 C 0.83487 0.32261 0.22589 0.0
C902 C 0.84143 0.30794 0.26379 0.0
C903 C 0.85219 0.2952 0.23136 0.0
H904 H 0.62878 0.79899 0.25208 0.0
H905 H 0.66158 0.8022 0.43735 0.0
H906 H 0.6475 0.82096 0.19424 0.0
H907 H 0.6811 0.82348 0.37827 0.0
H908 H 0.70816 0.86952 0.27106 0.0
H909 H 0.68589 0.85183 0.33229 0.0
H910 H 0.67521 0.82272 0.14114 0.0
H911 H 0.69681 0.84115 0.07933 0.0
C912 C 0.64003 0.80447 0.28047 0.0
C913 C 0.6438 0.79884 0.34907 0.0
C914 C 0.6509 0.81695 0.24704 0.0
C915 C 0.66608 0.82385 0.28077 0.0
C916 C 0.66945 0.81867 0.3506 0.0
C917 C 0.65831 0.80641 0.38462 0.0
C918 C 0.7009 0.85944 0.24199 0.0
C919 C 0.70426 0.8567 0.17033 0.0
C920 C 0.68821 0.84918 0.2773 0.0
C921 C 0.67874 0.83568 0.24216 0.0
C922 C 0.68193 0.83318 0.17001 0.0
C923 C 0.69442 0.84367 0.1344 0.0
H924 H 0.21824 0.64433 0.22182 0.0
H925 H 0.18903 0.64683 0.41678 0.0
H926 H 0.19637 0.66365 0.16705 0.0
H927 H 0.1667 0.66578 0.36096 0.0
H928 H 0.14524 0.71772 0.26506 0.0
H929 H 0.16438 0.69566 0.31955 0.0
H930 H 0.16658 0.6663 0.12489 0.0
H931 H 0.14779 0.68882 0.06935 0.0
C932 C 0.20701 0.64881 0.25288 0.0
C933 C 0.20548 0.64412 0.32399 0.0
C934 C 0.19435 0.65981 0.22115 0.0
C935 C 0.17975 0.66633 0.25948 0.0
C936 C 0.17793 0.66123 0.33013 0.0
C937 C 0.19069 0.6503 0.3621 0.0
C938 C 0.1497 0.70652 0.23376 0.0
C939 C 0.14506 0.70513 0.16255 0.0
C940 C 0.1606 0.69375 0.26533 0.0
C941 C 0.16707 0.67916 0.22675 0.0
C942 C 0.16206 0.67751 0.15594 0.0
C943 C 0.15122 0.69038 0.12413 0.0
H944 H 0.3539 0.81299 0.57551 0.0
H945 H 0.35591 0.78204 0.76637 0.0
H946 H 0.33569 0.83535 0.63479 0.0
H947 H 0.33727 0.80394 0.82456 0.0
H948 H 0.31314 0.85203 0.92954 0.0
H949 H 0.33523 0.83325 0.8712 0.0
H950 H 0.30611 0.83829 0.67678 0.0
H951 H 0.28457 0.85744 0.73403 0.0
C952 C 0.35046 0.81095 0.63002 0.0
C953 C 0.3563 0.79568 0.66597 0.0
C954 C 0.33995 0.82372 0.664 0.0
C955 C 0.33491 0.82144 0.73452 0.0
C956 C 0.34109 0.80633 0.77068 0.0
C957 C 0.35169 0.79366 0.73697 0.0
C958 C 0.31158 0.84925 0.87422 0.0
C959 C 0.29703 0.85619 0.83668 0.0
C960 C 0.32418 0.8384 0.84078 0.0
C961 C 0.32245 0.83417 0.7692 0.0
C962 C 0.30809 0.84146 0.73156 0.0
C963 C 0.29561 0.85237 0.76473 0.0
H964 H 0.13039 0.29391 0.72895 0.0
H965 H 0.15968 0.30203 0.92098 0.0
H966 H 0.14867 0.31624 0.67085 0.0
H967 H 0.17876 0.32361 0.8621 0.0
H968 H 0.20427 0.37017 0.75531 0.0
H969 H 0.18205 0.35165 0.81297 0.0
H970 H 0.17688 0.32009 0.62427 0.0
H971 H 0.19833 0.33936 0.56572 0.0
C972 C 0.14081 0.30047 0.7587 0.0
C973 C 0.14365 0.29619 0.82947 0.0
C974 C 0.15141 0.31319 0.72521 0.0
C975 C 0.16541 0.3217 0.76122 0.0
C976 C 0.16797 0.31763 0.83264 0.0
C977 C 0.1571 0.30516 0.86652 0.0
C978 C 0.19819 0.35939 0.72598 0.0
C979 C 0.20306 0.35618 0.65605 0.0
C980 C 0.18554 0.34864 0.75924 0.0
C981 C 0.17772 0.33415 0.72388 0.0
C982 C 0.18233 0.33125 0.65319 0.0
C983 C 0.19472 0.34225 0.61949 0.0
H984 H 0.68858 0.14547 0.90789 0.0
H985 H 0.71919 0.14365 0.71618 0.0
H986 H 0.66627 0.16396 0.84972 0.0
H987 H 0.69732 0.16256 0.65907 0.0
H988 H 0.64902 0.18838 0.55834 0.0
H989 H 0.66772 0.16559 0.61345 0.0
H990 H 0.66439 0.19387 0.81029 0.0
H991 H 0.64547 0.21607 0.75653 0.0
C992 C 0.69055 0.14899 0.85342 0.0
C993 C 0.70576 0.14319 0.81702 0.0
C994 C 0.6778 0.15965 0.82006 0.0
C995 C 0.68004 0.1649 0.74973 0.0
C996 C 0.695 0.15863 0.71288 0.0
C997 C 0.70765 0.14788 0.746 0.0
C998 C 0.65219 0.18961 0.61347 0.0
C999 C 0.64576 0.2041 0.65278 0.0
C1000 C 0.66296 0.1766 0.64505 0.0
C1001 C 0.66756 0.17785 0.71648 0.0
C1002 C 0.66088 0.19222 0.75566 0.0
C1003 C 0.65011 0.2051 0.72439 0.0
H1004 H 0.80317 0.66012 0.56847 0.0
H1005 H 0.79602 0.62917 0.75704 0.0
H1006 H 0.8248 0.6789 0.62863 0.0
H1007 H 0.81836 0.6472 0.81633 0.0
H1008 H 0.87115 0.7043 0.73702 0.0
H1009 H 0.85296 0.68212 0.67749 0.0
H1010 H 0.82167 0.67525 0.86596 0.0
H1011 H 0.84059 0.69672 0.92631 0.0
C1012 C 0.80654 0.65709 0.62235 0.0
C1013 C 0.79781 0.64329 0.65818 0.0
C1014 C 0.81903 0.6678 0.65697 0.0
C1015 C 0.82332 0.66473 0.72788 0.0
C1016 C 0.81512 0.65033 0.76246 0.0
C1017 C 0.8024 0.63987 0.72826 0.0
C1018 C 0.8605 0.69786 0.76591 0.0
C1019 C 0.85724 0.70228 0.83628 0.0
C1020 C 0.84995 0.68523 0.73158 0.0
C1021 C 0.83563 0.67695 0.76633 0.0
C1022 C 0.8327 0.68108 0.83748 0.0
C1023 C 0.8435 0.69348 0.87221 0.0
H1024 H 0.28543 0.04589 0.01791 0.0
H1025 H 0.2312 0.04194 0.09137 0.0
H1026 H 0.28562 0.01402 0.99229 0.0
H1027 H 0.23159 0.00981 0.06996 0.0
H1028 H 0.28596 0.95367 0.01011 0.0
H1029 H 0.286 0.98523 0.04142 0.0
H1030 H 0.23097 0.98937 0.97524 0.0
H1031 H 0.23079 0.95753 0.94813 0.0
C1032 C 0.27359 0.0381 0.02903 0.0
C1033 C 0.25821 0.04633 0.05544 0.0
C1034 C 0.27374 0.0198 0.01514 0.0
C1035 C 0.25856 0.00929 0.0285 0.0
C1036 C 0.24338 0.01752 0.05756 0.0
C1037 C 0.24321 0.03586 0.07072 0.0
C1038 C 0.27387 0.96137 0.00292 0.0
C1039 C 0.25835 0.95323 0.97713 0.0
C1040 C 0.27391 0.97948 0.02016 0.0
C1041 C 0.25847 0.98991 0.01105 0.0
C1042 C 0.24301 0.98172 0.98421 0.0
C1043 C 0.24294 0.96355 0.96772 0.0
H1044 H 0.04315 0.22866 0.93096 0.0
H1045 H 0.04456 0.28514 0.97387 0.0
H1046 H 0.01102 0.22828 0.95433 0.0
H1047 H 0.01252 0.28475 -0.00108 0.0
H1048 H 0.96046 0.27068 0.11818 0.0
H1049 H 0.99248 0.27091 0.09227 0.0
H1050 H 0.98265 0.24133 0.90199 0.0
H1051 H 0.95065 0.24112 0.92822 0.0
C1052 C 0.03652 0.24099 0.94512 0.0
C1053 C 0.04625 0.25689 0.9514 0.0
C1054 C 0.01819 0.24078 0.9585 0.0
C1055 C 0.00934 0.25646 0.97896 0.0
C1056 C 0.01908 0.27242 0.98432 0.0
C1057 C 0.03735 0.27265 0.97008 0.0
C1058 C 0.96523 0.26418 0.0711 0.0
C1059 C 0.95324 0.2559 0.02508 0.0
C1060 C 0.98347 0.26442 0.056 0.0
C1061 C 0.99001 0.25617 0.99504 0.0
C1062 C 0.97797 0.24769 0.94952 0.0
C1063 C 0.95972 0.24764 0.96425 0.0
H1064 H 0.71521 0.95409 0.00649 0.0
H1065 H 0.77076 0.95726 0.0634 0.0
H1066 H 0.71549 0.98537 0.97308 0.0
H1067 H 0.77079 0.98907 0.03677 0.0
H1068 H 0.7714 0.04157 0.92121 0.0
H1069 H 0.77094 0.00971 0.9471 0.0
H1070 H 0.71571 0.01419 0.011 0.0
H1071 H 0.71592 0.04552 0.97837 0.0
C1072 C 0.72747 0.9616 0.01221 0.0
C1073 C 0.74305 0.95324 0.03614 0.0
C1074 C 0.7276 0.97964 0.99414 0.0
C1075 C 0.7432 0.98994 0.00172 0.0
C1076 C 0.75863 0.9816 0.02835 0.0
C1077 C 0.75858 0.96342 0.04479 0.0
C1078 C 0.75912 0.03557 0.93964 0.0
C1079 C 0.74376 0.04597 0.94864 0.0
C1080 C 0.75889 0.01736 0.95566 0.0
C1081 C 0.74334 0.00923 0.9822 0.0
C1082 C 0.7279 0.01975 0.98999 0.0
C1083 C 0.72806 0.03782 0.97234 0.0
H1084 H 0.95764 0.77005 0.9334 0.0
H1085 H 0.9536 0.71592 0.00809 0.0
H1086 H 0.98964 0.7698 0.9564 0.0
H1087 H 0.98529 0.71596 0.03636 0.0
H1088 H 0.04555 0.71495 0.01427 0.0
H1089 H 0.01374 0.71496 0.988 0.0
H1090 H 0.01084 0.77068 0.04627 0.0
H1091 H 0.04295 0.7708 0.06718 0.0
C1092 C 0.96366 0.75812 0.95498 0.0
C1093 C 0.95322 0.74302 0.96908 0.0
C1094 C 0.98194 0.75803 0.96919 0.0
C1095 C 0.99015 0.7429 -0.00123 0.0
C1096 C 0.97958 0.72778 0.01273 0.0
C1097 C 0.96136 0.7278 -0.00259 0.0
C1098 C 0.03807 0.72721 0.02053 0.0
C1099 C 0.04666 0.74293 0.04164 0.0
C1100 C 0.01979 0.7272 0.00646 0.0
C1101 C 0.00961 0.74285 0.01466 0.0
C1102 C 0.01824 0.75846 0.03783 0.0
C1103 C 0.03659 0.75852 0.05077 0.0
H1104 H 0.7289 0.45814 0.42369 0.0
H1105 H 0.78386 0.45479 0.48887 0.0
H1106 H 0.72909 0.49022 0.4456 0.0
H1107 H 0.78386 0.4866 0.51549 0.0
H1108 H 0.78388 0.54681 0.49153 0.0
H1109 H 0.78377 0.51503 0.4643 0.0
H1110 H 0.72923 0.51135 0.5369 0.0
H1111 H 0.72914 0.54341 0.55944 0.0
C1112 C 0.741 0.46433 0.44286 0.0
C1113 C 0.75635 0.45407 0.45472 0.0
C1114 C 0.74108 0.48265 0.45635 0.0
C1115 C 0.75647 0.49107 0.48277 0.0
C1116 C 0.77184 0.48069 0.49432 0.0
C1117 C 0.77181 0.46243 0.47991 0.0
C1118 C 0.77185 0.53917 0.50089 0.0
C1119 C 0.75649 0.54749 0.52707 0.0
C1120 C 0.77182 0.52092 0.48614 0.0
C1121 C 0.75648 0.51054 0.49833 0.0
C1122 C 0.74119 0.51893 0.52563 0.0
C1123 C 0.74117 0.53724 0.53947 0.0
H1124 H 0.46111 0.76909 0.62534 0.0
H1125 H 0.45003 0.74508 0.42465 0.0
H1126 H 0.49299 0.76962 0.5972 0.0
H1127 H 0.48183 0.74574 0.39599 0.0
H1128 H 0.54222 0.73133 0.41495 0.0
H1129 H 0.51008 0.73105 0.4379 0.0
H1130 H 0.51306 0.78551 0.51102 0.0
H1131 H 0.54512 0.78581 0.4868 0.0
C1132 C 0.46555 0.76387 0.5754 0.0
C1133 C 0.45323 0.75706 0.52709 0.0
C1134 C 0.48372 0.76432 0.559 0.0
C1135 C 0.48986 0.75778 0.49428 0.0
C1136 C 0.47749 0.75078 0.44636 0.0
C1137 C 0.45932 0.7505 0.46252 0.0
C1138 C 0.5359 0.74328 0.43507 0.0
C1139 C 0.54608 0.75851 0.45011 0.0
C1140 C 0.51757 0.74313 0.44827 0.0
C1141 C 0.50913 0.7582 0.47702 0.0
C1142 C 0.51928 0.7736 0.49012 0.0
C1143 C 0.53757 0.77379 0.47623 0.0
H1144 H 0.21654 0.45295 0.485 0.0
H1145 H 0.27053 0.45722 0.56106 0.0
H1146 H 0.21663 0.48456 0.45539 0.0
H1147 H 0.27031 0.48917 0.53664 0.0
H1148 H 0.27148 0.54217 0.4232 0.0
H1149 H 0.27135 0.51011 0.44578 0.0
H1150 H 0.21553 0.51316 0.50216 0.0
H1151 H 0.21554 0.54488 0.47429 0.0
C1152 C 0.2284 0.46075 0.49574 0.0
C1153 C 0.24357 0.45269 0.52478 0.0
C1154 C 0.2284 0.47893 0.47963 0.0
C1155 C 0.24349 0.48954 0.49348 0.0
C1156 C 0.25856 0.48142 0.5239 0.0
C1157 C 0.25863 0.46317 0.53892 0.0
C1158 C 0.25917 0.53584 0.43953 0.0
C1159 C 0.24357 0.54593 0.4477 0.0
C1160 C 0.25912 0.51753 0.45344 0.0
C1161 C 0.24347 0.50896 0.47659 0.0
C1162 C 0.2278 0.51916 0.48375 0.0
C1163 C 0.22782 0.53739 0.46873 0.0
H1164 H 0.54291 0.27015 0.58086 0.0
H1165 H 0.54548 0.21513 0.51547 0.0
H1166 H 0.51087 0.27061 0.55584 0.0
H1167 H 0.51352 0.21561 0.48914 0.0
H1168 H 0.46223 0.2316 0.36981 0.0
H1169 H 0.49403 0.23116 0.39969 0.0
H1170 H 0.48227 0.25645 0.59768 0.0
H1171 H 0.45056 0.25697 0.56733 0.0
C1172 C 0.53654 0.25813 0.56177 0.0
C1173 C 0.5466 0.24268 0.54914 0.0
C1174 C 0.51826 0.25838 0.54735 0.0
C1175 C 0.50977 0.2432 0.51974 0.0
C1176 C 0.51979 0.22759 0.50911 0.0
C1177 C 0.53801 0.2273 0.52424 0.0
C1178 C 0.46654 0.23715 0.41939 0.0
C1179 C 0.45407 0.24429 0.46639 0.0
C1180 C 0.48465 0.23677 0.43678 0.0
C1181 C 0.49058 0.2437 0.50117 0.0
C1182 C 0.47808 0.2511 0.5476 0.0
C1183 C 0.45997 0.25131 0.53048 0.0
H1184 H 0.19873 0.14436 0.13938 0.0
H1185 H 0.2224 0.1537 0.93617 0.0
H1186 H 0.17481 0.16524 0.11075 0.0
H1187 H 0.19864 0.17453 0.90807 0.0
H1188 H 0.1456 0.20028 0.85582 0.0
H1189 H 0.16647 0.17639 0.88455 0.0
H1190 H 0.17224 0.19768 0.09354 0.0
H1191 H 0.15126 0.22139 0.0654 0.0
C1192 C 0.19879 0.15075 0.0885 0.0
C1193 C 0.21251 0.14732 0.0401 0.0
C1194 C 0.18513 0.16276 0.07224 0.0
C1195 C 0.18483 0.17154 0.00714 0.0
C1196 C 0.19832 0.16781 0.95826 0.0
C1197 C 0.21201 0.15589 0.97458 0.0
C1198 C 0.15119 0.19978 0.90809 0.0
C1199 C 0.14681 0.21282 0.95816 0.0
C1200 C 0.16321 0.18614 0.92442 0.0
C1201 C 0.17105 0.18518 0.99124 0.0
C1202 C 0.16629 0.19793 0.04185 0.0
C1203 C 0.15434 0.2116 0.02549 0.0
H1204 H 0.84704 0.22266 0.92983 0.0
H1205 H 0.855 0.20022 0.13608 0.0
H1206 H 0.82641 0.19871 0.90173 0.0
H1207 H 0.83427 0.17613 0.10751 0.0
H1208 H 0.8017 0.14488 0.85176 0.0
H1209 H 0.82521 0.16612 0.88152 0.0
H1210 H 0.80173 0.17361 0.08595 0.0
H1211 H 0.77836 0.15237 0.05672 0.0
C1212 C 0.84455 0.21253 0.96902 0.0
C1213 C 0.85271 0.2134 0.03529 0.0
C1214 C 0.83276 0.19873 0.95268 0.0
C1215 C 0.82873 0.18551 0.00232 0.0
C1216 C 0.83703 0.18622 0.06835 0.0
C1217 C 0.84895 0.19998 0.08459 0.0
C1218 C 0.80163 0.15094 0.90327 0.0
C1219 C 0.78809 0.14694 0.95173 0.0
C1220 C 0.81506 0.16316 0.92018 0.0
C1221 C 0.8153 0.17156 0.98603 0.0
C1222 C 0.80204 0.16721 0.0351 0.0
C1223 C 0.78857 0.15509 0.0181 0.0
H1224 H 0.84527 0.77656 0.06212 0.0
H1225 H 0.8553 0.79941 0.85801 0.0
H1226 H 0.82471 0.80064 0.08845 0.0
H1227 H 0.83454 0.82364 0.88474 0.0
H1228 H 0.80019 0.85431 0.13855 0.0
H1229 H 0.82388 0.83319 0.10997 0.0
H1230 H 0.80178 0.82647 0.90276 0.0
H1231 H 0.77821 0.8476 0.93082 0.0
C1232 C 0.84328 0.78683 0.02308 0.0
C1233 C 0.85204 0.78604 0.95799 0.0
C1234 C 0.83151 0.80069 0.0384 0.0
C1235 C 0.82806 0.81409 0.98884 0.0
C1236 C 0.83687 0.81344 0.92384 0.0
C1237 C 0.8488 0.79959 0.90864 0.0
C1238 C 0.80047 0.84846 0.08669 0.0
C1239 C 0.78723 0.8526 0.03714 0.0
C1240 C 0.814 0.83631 0.07043 0.0
C1241 C 0.81466 0.82813 0.00418 0.0
C1242 C 0.80176 0.83268 0.95397 0.0
C1243 C 0.78817 0.84473 0.97031 0.0
H1244 H 0.14549 0.80058 0.13584 0.0
H1245 H 0.15193 0.77942 0.92667 0.0
H1246 H 0.16674 0.82423 0.10882 0.0
H1247 H 0.17327 0.80299 0.90014 0.0
H1248 H 0.22342 0.84554 0.0633 0.0
H1249 H 0.19928 0.82487 0.08772 0.0
H1250 H 0.17637 0.83587 0.88475 0.0
H1251 H 0.20065 0.85671 0.85993 0.0
C1252 C 0.15131 0.80104 0.08395 0.0
C1253 C 0.14707 0.78802 0.03358 0.0
C1254 C 0.16355 0.81454 0.06862 0.0
C1255 C 0.17174 0.81541 0.0025 0.0
C1256 C 0.16706 0.80277 0.95136 0.0
C1257 C 0.1549 0.7892 0.96677 0.0
C1258 C 0.21317 0.84377 0.02405 0.0
C1259 C 0.21399 0.85287 0.95972 0.0
C1260 C 0.19927 0.83194 0.03823 0.0
C1261 C 0.18588 0.82879 0.98828 0.0
C1262 C 0.18657 0.83796 0.92409 0.0
C1263 C 0.20044 0.84994 0.91004 0.0
H1264 H 0.64466 0.70098 0.36427 0.0
H1265 H 0.65428 0.72399 0.56846 0.0
H1266 H 0.66576 0.6771 0.39097 0.0
H1267 H 0.67517 0.70014 0.59492 0.0
H1268 H 0.70115 0.64623 0.64057 0.0
H1269 H 0.67707 0.66726 0.61507 0.0
H1270 H 0.69865 0.67573 0.40807 0.0
H1271 H 0.72261 0.65491 0.4332 0.0
C1272 C 0.65112 0.70089 0.415 0.0
C1273 C 0.64769 0.7144 0.46427 0.0
C1274 C 0.66324 0.68724 0.43019 0.0
C1275 C 0.67209 0.68674 0.4951 0.0
C1276 C 0.66836 0.7 0.54489 0.0
C1277 C 0.65638 0.71371 0.52955 0.0
C1278 C 0.70069 0.65249 0.58947 0.0
C1279 C 0.71383 0.64883 0.53891 0.0
C1280 C 0.68693 0.66456 0.57498 0.0
C1281 C 0.68595 0.67309 0.50948 0.0
C1282 C 0.69888 0.66917 0.45861 0.0
C1283 C 0.71268 0.65726 0.47323 0.0
H1284 H 0.3551 0.70009 0.63559 0.0
H1285 H 0.34798 0.72196 0.4279 0.0
H1286 H 0.33431 0.6761 0.60739 0.0
H1287 H 0.32702 0.69816 0.40036 0.0
H1288 H 0.30132 0.6446 0.35305 0.0
H1289 H 0.32494 0.66582 0.38123 0.0
H1290 H 0.30211 0.67358 0.58668 0.0
H1291 H 0.27867 0.65227 0.55913 0.0
C1292 C 0.34918 0.69975 0.58385 0.0
C1293 C 0.35314 0.71302 0.53416 0.0
C1294 C 0.33719 0.68606 0.56786 0.0
C1295 C 0.32897 0.68527 0.50174 0.0
C1296 C 0.33327 0.69828 0.45151 0.0
C1297 C 0.34519 0.712 0.46754 0.0
C1298 C 0.30142 0.65071 0.40446 0.0
C1299 C 0.28805 0.64676 0.45373 0.0
C1300 C 0.3149 0.66294 0.42044 0.0
C1301 C 0.31536 0.67142 0.4861 0.0
C1302 C 0.30225 0.66713 0.53592 0.0
C1303 C 0.28875 0.65497 0.51991 0.0
H1304 H 0.35632 0.30098 0.35986 0.0
H1305 H 0.34834 0.27756 0.56444 0.0
H1306 H 0.33511 0.32453 0.38903 0.0
H1307 H 0.32711 0.30104 0.59312 0.0
H1308 H 0.2998 0.35454 0.63983 0.0
H1309 H 0.32418 0.33385 0.6139 0.0
H1310 H 0.30241 0.32501 0.40741 0.0
H1311 H 0.2782 0.34546 0.43294 0.0
C1312 C 0.35017 0.30091 0.41119 0.0
C1313 C 0.35398 0.28731 0.45962 0.0
C1314 C 0.33798 0.31437 0.42778 0.0
C1315 C 0.3294 0.31459 0.49327 0.0
C1316 C 0.33363 0.30134 0.54252 0.0
C1317 C 0.34573 0.28782 0.52581 0.0
C1318 C 0.30029 0.34826 0.58877 0.0
C1319 C 0.28705 0.35175 0.53839 0.0
C1320 C 0.31422 0.33638 0.57404 0.0
C1321 C 0.31525 0.32789 0.50848 0.0
C1322 C 0.30216 0.33157 0.45796 0.0
C1323 C 0.28822 0.34328 0.4728 0.0
H1324 H 0.69933 0.3562 0.35236 0.0
H1325 H 0.72325 0.34625 0.55466 0.0
H1326 H 0.67536 0.3353 0.38081 0.0
H1327 H 0.69935 0.32558 0.58282 0.0
H1328 H 0.6456 0.30087 0.63496 0.0
H1329 H 0.66658 0.32466 0.60575 0.0
H1330 H 0.67338 0.30228 0.3991 0.0
H1331 H 0.65255 0.27853 0.42796 0.0
C1332 C 0.69943 0.34969 0.40301 0.0
C1333 C 0.71321 0.35298 0.4513 0.0
C1334 C 0.68573 0.3377 0.41918 0.0
C1335 C 0.68546 0.32887 0.48414 0.0
C1336 C 0.69904 0.33239 0.53279 0.0
C1337 C 0.71279 0.34423 0.51646 0.0
C1338 C 0.65145 0.3011 0.5831 0.0
C1339 C 0.64737 0.28776 0.53385 0.0
C1340 C 0.66351 0.31469 0.56649 0.0
C1341 C 0.67162 0.31532 0.50015 0.0
C1342 C 0.66717 0.30229 0.45032 0.0
C1343 C 0.65526 0.28862 0.46706 0.0
loop_
_geom_bond_atom_site_label_1
_geom_bond_atom_site_label_2
_geom_bond_distance
_geom_bond_site_symmetry_2
_ccdc_geom_bond_type
Co0 O3 1.970 . S
Co0 N17 1.989 . S
Co0 O25 1.967 . S
Co0 O32 1.920 . S
Co1 O4 1.966 . S
Co1 N10 2.022 . S
Co1 N18 1.993 1_556 S
Co1 O26 1.941 1_556 S
C2 O3 1.258 . S
C2 O4 1.263 1_554 S
O3 Co0 1.970 . S
O3 C2 1.258 . S
O4 Co1 1.966 . S
O4 C2 1.263 1_556 S
C5 O6 1.235 . S
C5 O32 1.289 . S
O6 C5 1.235 . S
C7 C9 1.400 . S
C7 N10 1.351 . S
C7 C12 1.501 . S
C8 C9 1.387 . S
C8 N11 1.341 . S
C9 C7 1.400 . S
C9 C8 1.387 . S
N10 Co1 2.022 . S
N10 C7 1.351 . S
N10 N11 1.365 . S
N11 C8 1.341 . S
N11 N10 1.365 . S
N11 H31 0.862 . S
C12 C7 1.501 . S
C12 H13 0.961 . S
C12 H14 0.961 . S
C12 H15 0.960 . S
H13 C12 0.961 . S
H14 C12 0.961 . S
H15 C12 0.960 . S
C16 N17 1.342 . S
C16 C20 1.401 . S
C16 C21 1.499 . S
N17 Co0 1.989 . S
N17 C16 1.342 . S
N17 N18 1.388 . S
N18 Co1 1.993 1_554 S
N18 N17 1.388 . S
N18 C19 1.346 1_554 S
C19 N18 1.346 1_556 S
C19 C20 1.396 1_556 S
C19 C29 1.510 . S
C20 C16 1.401 . S
C20 C19 1.396 1_554 S
C21 C16 1.499 . S
C21 H22 0.959 . S
C21 H23 0.960 . S
C21 H24 0.961 . S
H22 C21 0.959 . S
H23 C21 0.960 . S
H24 C21 0.961 . S
O25 Co0 1.967 . S
O25 C33 1.258 . S
O26 Co1 1.941 1_554 S
O26 C33 1.266 . S
H27 C29 0.959 . S
H28 C29 0.961 . S
C29 C19 1.510 . S
C29 H27 0.959 . S
C29 H28 0.961 . S
C29 H30 0.960 . S
H30 C29 0.960 . S
H31 N11 0.862 . S
O32 Co0 1.920 . S
O32 C5 1.289 . S
C33 O25 1.258 . S
C33 O26 1.266 . S
Co34 O37 1.970 . S
Co34 N51 1.989 . S
Co34 O59 1.967 . S
Co34 O66 1.920 . S
Co35 O38 1.966 . S
Co35 N44 2.022 . S
Co35 N52 1.993 1_556 S
Co35 O60 1.941 1_556 S
C36 O37 1.258 . S
C36 O38 1.263 1_554 S
O37 Co34 1.970 . S
O37 C36 1.258 . S
O38 Co35 1.966 . S
O38 C36 1.263 1_556 S
C39 O40 1.235 . S
C39 O66 1.289 . S
O40 C39 1.235 . S
C41 C43 1.400 . S
C41 N44 1.351 . S
C41 C46 1.501 . S
C42 C43 1.387 . S
C42 N45 1.341 . S
C43 C41 1.400 . S
C43 C42 1.387 . S
N44 Co35 2.022 . S
N44 C41 1.351 . S
N44 N45 1.365 . S
N45 C42 1.341 . S
N45 N44 1.365 . S
N45 H65 0.862 . S
C46 C41 1.501 . S
C46 H47 0.961 . S
C46 H48 0.961 . S
C46 H49 0.960 . S
H47 C46 0.961 . S
H48 C46 0.961 . S
H49 C46 0.960 . S
C50 N51 1.342 . S
C50 C54 1.401 . S
C50 C55 1.499 . S
N51 Co34 1.989 . S
N51 C50 1.342 . S
N51 N52 1.388 . S
N52 Co35 1.993 1_554 S
N52 N51 1.388 . S
N52 C53 1.346 1_554 S
C53 N52 1.346 1_556 S
C53 C54 1.396 1_556 S
C53 C63 1.510 . S
C54 C50 1.401 . S
C54 C53 1.396 1_554 S
C55 C50 1.499 . S
C55 H56 0.959 . S
C55 H57 0.960 . S
C55 H58 0.961 . S
H56 C55 0.959 . S
H57 C55 0.960 . S
H58 C55 0.961 . S
O59 Co34 1.967 . S
O59 C67 1.258 . S
O60 Co35 1.941 1_554 S
O60 C67 1.266 . S
H61 C63 0.959 . S
H62 C63 0.961 . S
C63 C53 1.510 . S
C63 H61 0.959 . S
C63 H62 0.961 . S
C63 H64 0.960 . S
H64 C63 0.960 . S
H65 N45 0.862 . S
O66 Co34 1.920 . S
O66 C39 1.289 . S
C67 O59 1.258 . S
C67 O60 1.266 . S
Co68 O71 1.970 . S
Co68 N85 1.989 . S
Co68 O93 1.967 . S
Co68 O100 1.920 . S
Co69 O72 1.966 . S
Co69 N78 2.022 . S
Co69 N86 1.993 1_556 S
Co69 O94 1.941 1_556 S
C70 O71 1.258 . S
C70 O72 1.263 1_554 S
O71 Co68 1.970 . S
O71 C70 1.258 . S
O72 Co69 1.966 . S
O72 C70 1.263 1_556 S
C73 O74 1.235 . S
C73 O100 1.289 . S
O74 C73 1.235 . S
C75 C77 1.400 . S
C75 N78 1.351 . S
C75 C80 1.501 . S
C76 C77 1.387 . S
C76 N79 1.341 . S
C77 C75 1.400 . S
C77 C76 1.387 . S
N78 Co69 2.022 . S
N78 C75 1.351 . S
N78 N79 1.365 . S
N79 C76 1.341 . S
N79 N78 1.365 . S
N79 H99 0.862 . S
C80 C75 1.501 . S
C80 H81 0.961 . S
C80 H82 0.961 . S
C80 H83 0.960 . S
H81 C80 0.961 . S
H82 C80 0.961 . S
H83 C80 0.960 . S
C84 N85 1.342 . S
C84 C88 1.401 . S
C84 C89 1.499 . S
N85 Co68 1.989 . S
N85 C84 1.342 . S
N85 N86 1.388 . S
N86 Co69 1.993 1_554 S
N86 N85 1.388 . S
N86 C87 1.346 1_554 S
C87 N86 1.346 1_556 S
C87 C88 1.396 1_556 S
C87 C97 1.510 . S
C88 C84 1.401 . S
C88 C87 1.396 1_554 S
C89 C84 1.499 . S
C89 H90 0.959 . S
C89 H91 0.960 . S
C89 H92 0.961 . S
H90 C89 0.959 . S
H91 C89 0.960 . S
H92 C89 0.961 . S
O93 Co68 1.967 . S
O93 C101 1.258 . S
O94 Co69 1.941 1_554 S
O94 C101 1.266 . S
H95 C97 0.959 . S
H96 C97 0.961 . S
C97 C87 1.510 . S
C97 H95 0.959 . S
C97 H96 0.961 . S
C97 H98 0.960 . S
H98 C97 0.960 . S
H99 N79 0.862 . S
O100 Co68 1.920 . S
O100 C73 1.289 . S
C101 O93 1.258 . S
C101 O94 1.266 . S
Co102 O105 1.970 . S
Co102 N119 1.989 . S
Co102 O127 1.967 . S
Co102 O134 1.920 . S
Co103 O106 1.966 . S
Co103 N112 2.022 . S
Co103 N120 1.993 1_556 S
Co103 O128 1.941 1_556 S
C104 O105 1.258 . S
C104 O106 1.263 1_554 S
O105 Co102 1.970 . S
O105 C104 1.258 . S
O106 Co103 1.966 . S
O106 C104 1.263 1_556 S
C107 O108 1.235 . S
C107 O134 1.289 . S
O108 C107 1.235 . S
C109 C111 1.400 . S
C109 N112 1.351 . S
C109 C114 1.501 . S
C110 C111 1.387 . S
C110 N113 1.341 . S
C111 C109 1.400 . S
C111 C110 1.387 . S
N112 Co103 2.022 . S
N112 C109 1.351 . S
N112 N113 1.365 . S
N113 C110 1.341 . S
N113 N112 1.365 . S
N113 H133 0.862 . S
C114 C109 1.501 . S
C114 H115 0.961 . S
C114 H116 0.961 . S
C114 H117 0.960 . S
H115 C114 0.961 . S
H116 C114 0.961 . S
H117 C114 0.960 . S
C118 N119 1.342 . S
C118 C122 1.401 . S
C118 C123 1.499 . S
N119 Co102 1.989 . S
N119 C118 1.342 . S
N119 N120 1.388 . S
N120 Co103 1.993 1_554 S
N120 N119 1.388 . S
N120 C121 1.346 1_554 S
C121 N120 1.346 1_556 S
C121 C122 1.396 1_556 S
C121 C131 1.510 . S
C122 C118 1.401 . S
C122 C121 1.396 1_554 S
C123 C118 1.499 . S
C123 H124 0.959 . S
C123 H125 0.960 . S
C123 H126 0.961 . S
H124 C123 0.959 . S
H125 C123 0.960 . S
H126 C123 0.961 . S
O127 Co102 1.967 . S
O127 C135 1.258 . S
O128 Co103 1.941 1_554 S
O128 C135 1.266 . S
H129 C131 0.959 . S
H130 C131 0.961 . S
C131 C121 1.510 . S
C131 H129 0.959 . S
C131 H130 0.961 . S
C131 H132 0.960 . S
H132 C131 0.960 . S
H133 N113 0.862 . S
O134 Co102 1.920 . S
O134 C107 1.289 . S
C135 O127 1.258 . S
C135 O128 1.266 . S
Co136 O139 1.970 . S
Co136 N153 1.989 . S
Co136 O161 1.967 . S
Co136 O168 1.920 . S
Co137 O140 1.966 . S
Co137 N146 2.022 . S
Co137 N154 1.993 1_554 S
Co137 O162 1.941 1_554 S
C138 O139 1.258 . S
C138 O140 1.263 1_556 S
O139 Co136 1.970 . S
O139 C138 1.258 . S
O140 Co137 1.966 . S
O140 C138 1.263 1_554 S
C141 O142 1.235 . S
C141 O168 1.289 . S
O142 C141 1.235 . S
C143 C145 1.400 . S
C143 N146 1.351 . S
C143 C148 1.501 . S
C144 C145 1.387 . S
C144 N147 1.341 . S
C145 C143 1.400 . S
C145 C144 1.387 . S
N146 Co137 2.022 . S
N146 C143 1.351 . S
N146 N147 1.365 . S
N147 C144 1.341 . S
N147 N146 1.365 . S
N147 H167 0.862 . S
C148 C143 1.501 . S
C148 H149 0.961 . S
C148 H150 0.961 . S
C148 H151 0.960 . S
H149 C148 0.961 . S
H150 C148 0.961 . S
H151 C148 0.960 . S
C152 N153 1.342 . S
C152 C156 1.401 . S
C152 C157 1.499 . S
N153 Co136 1.989 . S
N153 C152 1.342 . S
N153 N154 1.388 . S
N154 Co137 1.993 1_556 S
N154 N153 1.388 . S
N154 C155 1.346 1_556 S
C155 N154 1.346 1_554 S
C155 C156 1.396 1_554 S
C155 C165 1.510 . S
C156 C152 1.401 . S
C156 C155 1.396 1_556 S
C157 C152 1.499 . S
C157 H158 0.959 . S
C157 H159 0.960 . S
C157 H160 0.961 . S
H158 C157 0.959 . S
H159 C157 0.960 . S
H160 C157 0.961 . S
O161 Co136 1.967 . S
O161 C169 1.258 . S
O162 Co137 1.941 1_556 S
O162 C169 1.266 . S
H163 C165 0.959 . S
H164 C165 0.961 . S
C165 C155 1.510 . S
C165 H163 0.959 . S
C165 H164 0.961 . S
C165 H166 0.960 . S
H166 C165 0.960 . S
H167 N147 0.862 . S
O168 Co136 1.920 . S
O168 C141 1.289 . S
C169 O161 1.258 . S
C169 O162 1.266 . S
Co170 O173 1.970 . S
Co170 N187 1.989 . S
Co170 O195 1.967 . S
Co170 O202 1.920 . S
Co171 O174 1.966 . S
Co171 N180 2.022 . S
Co171 N188 1.993 1_554 S
Co171 O196 1.941 1_554 S
C172 O173 1.258 . S
C172 O174 1.263 1_556 S
O173 Co170 1.970 . S
O173 C172 1.258 . S
O174 Co171 1.966 . S
O174 C172 1.263 1_554 S
C175 O176 1.235 . S
C175 O202 1.289 . S
O176 C175 1.235 . S
C177 C179 1.400 . S
C177 N180 1.351 . S
C177 C182 1.501 . S
C178 C179 1.387 . S
C178 N181 1.341 . S
C179 C177 1.400 . S
C179 C178 1.387 . S
N180 Co171 2.022 . S
N180 C177 1.351 . S
N180 N181 1.365 . S
N181 C178 1.341 . S
N181 N180 1.365 . S
N181 H201 0.862 . S
C182 C177 1.501 . S
C182 H183 0.961 . S
C182 H184 0.961 . S
C182 H185 0.960 . S
H183 C182 0.961 . S
H184 C182 0.961 . S
H185 C182 0.960 . S
C186 N187 1.342 . S
C186 C190 1.401 . S
C186 C191 1.499 . S
N187 Co170 1.989 . S
N187 C186 1.342 . S
N187 N188 1.388 . S
N188 Co171 1.993 1_556 S
N188 N187 1.388 . S
N188 C189 1.346 1_556 S
C189 N188 1.346 1_554 S
C189 C190 1.396 1_554 S
C189 C199 1.510 . S
C190 C186 1.401 . S
C190 C189 1.396 1_556 S
C191 C186 1.499 . S
C191 H192 0.959 . S
C191 H193 0.960 . S
C191 H194 0.961 . S
H192 C191 0.959 . S
H193 C191 0.960 . S
H194 C191 0.961 . S
O195 Co170 1.967 . S
O195 C203 1.258 . S
O196 Co171 1.941 1_556 S
O196 C203 1.266 . S
H197 C199 0.959 . S
H198 C199 0.961 . S
C199 C189 1.510 . S
C199 H197 0.959 . S
C199 H198 0.961 . S
C199 H200 0.960 . S
H200 C199 0.960 . S
H201 N181 0.862 . S
O202 Co170 1.920 . S
O202 C175 1.289 . S
C203 O195 1.258 . S
C203 O196 1.266 . S
Co204 O207 1.970 . S
Co204 N221 1.989 . S
Co204 O229 1.967 . S
Co204 O236 1.920 . S
Co205 O208 1.966 . S
Co205 N214 2.022 . S
Co205 N222 1.993 1_554 S
Co205 O230 1.941 1_554 S
C206 O207 1.258 . S
C206 O208 1.263 1_556 S
O207 Co204 1.970 . S
O207 C206 1.258 . S
O208 Co205 1.966 . S
O208 C206 1.263 1_554 S
C209 O210 1.235 . S
C209 O236 1.289 . S
O210 C209 1.235 . S
C211 C213 1.400 . S
C211 N214 1.351 . S
C211 C216 1.501 . S
C212 C213 1.387 . S
C212 N215 1.341 . S
C213 C211 1.400 . S
C213 C212 1.387 . S
N214 Co205 2.022 . S
N214 C211 1.351 . S
N214 N215 1.365 . S
N215 C212 1.341 . S
N215 N214 1.365 . S
N215 H235 0.862 . S
C216 C211 1.501 . S
C216 H217 0.961 . S
C216 H218 0.961 . S
C216 H219 0.960 . S
H217 C216 0.961 . S
H218 C216 0.961 . S
H219 C216 0.960 . S
C220 N221 1.342 . S
C220 C224 1.401 . S
C220 C225 1.499 . S
N221 Co204 1.989 . S
N221 C220 1.342 . S
N221 N222 1.388 . S
N222 Co205 1.993 1_556 S
N222 N221 1.388 . S
N222 C223 1.346 1_556 S
C223 N222 1.346 1_554 S
C223 C224 1.396 1_554 S
C223 C233 1.510 . S
C224 C220 1.401 . S
C224 C223 1.396 1_556 S
C225 C220 1.499 . S
C225 H226 0.959 . S
C225 H227 0.960 . S
C225 H228 0.961 . S
H226 C225 0.959 . S
H227 C225 0.960 . S
H228 C225 0.961 . S
O229 Co204 1.967 . S
O229 C237 1.258 . S
O230 Co205 1.941 1_556 S
O230 C237 1.266 . S
H231 C233 0.959 . S
H232 C233 0.961 . S
C233 C223 1.510 . S
C233 H231 0.959 . S
C233 H232 0.961 . S
C233 H234 0.960 . S
H234 C233 0.960 . S
H235 N215 0.862 . S
O236 Co204 1.920 . S
O236 C209 1.289 . S
C237 O229 1.258 . S
C237 O230 1.266 . S
Co238 O241 1.970 . S
Co238 N255 1.989 . S
Co238 O263 1.967 . S
Co238 O270 1.920 . S
Co239 O242 1.966 . S
Co239 N248 2.022 . S
Co239 N256 1.993 1_554 S
Co239 O264 1.941 1_554 S
C240 O241 1.258 . S
C240 O242 1.263 1_556 S
O241 Co238 1.970 . S
O241 C240 1.258 . S
O242 Co239 1.966 . S
O242 C240 1.263 1_554 S
C243 O244 1.235 . S
C243 O270 1.289 . S
O244 C243 1.235 . S
C245 C247 1.400 . S
C245 N248 1.351 . S
C245 C250 1.501 . S
C246 C247 1.387 . S
C246 N249 1.341 . S
C247 C245 1.400 . S
C247 C246 1.387 . S
N248 Co239 2.022 . S
N248 C245 1.351 . S
N248 N249 1.365 . S
N249 C246 1.341 . S
N249 N248 1.365 . S
N249 H269 0.862 . S
C250 C245 1.501 . S
C250 H251 0.961 . S
C250 H252 0.961 . S
C250 H253 0.960 . S
H251 C250 0.961 . S
H252 C250 0.961 . S
H253 C250 0.960 . S
C254 N255 1.342 . S
C254 C258 1.401 . S
C254 C259 1.499 . S
N255 Co238 1.989 . S
N255 C254 1.342 . S
N255 N256 1.388 . S
N256 Co239 1.993 1_556 S
N256 N255 1.388 . S
N256 C257 1.346 1_556 S
C257 N256 1.346 1_554 S
C257 C258 1.396 1_554 S
C257 C267 1.510 . S
C258 C254 1.401 . S
C258 C257 1.396 1_556 S
C259 C254 1.499 . S
C259 H260 0.959 . S
C259 H261 0.960 . S
C259 H262 0.961 . S
H260 C259 0.959 . S
H261 C259 0.960 . S
H262 C259 0.961 . S
O263 Co238 1.967 . S
O263 C271 1.258 . S
O264 Co239 1.941 1_556 S
O264 C271 1.266 . S
H265 C267 0.959 . S
H266 C267 0.961 . S
C267 C257 1.510 . S
C267 H265 0.959 . S
C267 H266 0.961 . S
C267 H268 0.960 . S
H268 C267 0.960 . S
H269 N249 0.862 . S
O270 Co238 1.920 . S
O270 C243 1.289 . S
C271 O263 1.258 . S
C271 O264 1.266 . S
Co272 O275 1.970 . S
Co272 N289 1.989 . S
Co272 O297 1.967 . S
Co272 O304 1.920 . S
Co273 O276 1.966 . S
Co273 N282 2.022 . S
Co273 N290 1.993 . S
Co273 O298 1.941 . S
C274 O275 1.258 . S
C274 O276 1.263 . S
O275 Co272 1.970 . S
O275 C274 1.258 . S
O276 Co273 1.966 . S
O276 C274 1.263 . S
C277 O278 1.235 . S
C277 O304 1.289 . S
O278 C277 1.235 . S
C279 C281 1.400 . S
C279 N282 1.351 . S
C279 C284 1.501 . S
C280 C281 1.387 . S
C280 N283 1.341 . S
C281 C279 1.400 . S
C281 C280 1.387 . S
N282 Co273 2.022 . S
N282 C279 1.351 . S
N282 N283 1.365 . S
N283 C280 1.341 . S
N283 N282 1.365 . S
N283 H303 0.862 . S
C284 C279 1.501 . S
C284 H285 0.961 . S
C284 H286 0.961 . S
C284 H287 0.960 . S
H285 C284 0.961 . S
H286 C284 0.961 . S
H287 C284 0.960 . S
C288 N289 1.342 . S
C288 C292 1.401 . S
C288 C293 1.499 . S
N289 Co272 1.989 . S
N289 C288 1.342 . S
N289 N290 1.388 . S
N290 Co273 1.993 . S
N290 N289 1.388 . S
N290 C291 1.346 . S
C291 N290 1.346 . S
C291 C292 1.396 . S
C291 C301 1.510 . S
C292 C288 1.401 . S
C292 C291 1.396 . S
C293 C288 1.499 . S
C293 H294 0.959 . S
C293 H295 0.960 . S
C293 H296 0.961 . S
H294 C293 0.959 . S
H295 C293 0.960 . S
H296 C293 0.961 . S
O297 Co272 1.967 . S
O297 C305 1.258 . S
O298 Co273 1.941 . S
O298 C305 1.266 . S
H299 C301 0.959 . S
H300 C301 0.961 . S
C301 C291 1.510 . S
C301 H299 0.959 . S
C301 H300 0.961 . S
C301 H302 0.960 . S
H302 C301 0.960 . S
H303 N283 0.862 . S
O304 Co272 1.920 . S
O304 C277 1.289 . S
C305 O297 1.258 . S
C305 O298 1.266 . S
Co306 O309 1.970 . S
Co306 N323 1.989 . S
Co306 O331 1.967 . S
Co306 O338 1.920 . S
Co307 O310 1.966 . S
Co307 N316 2.022 . S
Co307 N324 1.993 . S
Co307 O332 1.941 . S
C308 O309 1.258 . S
C308 O310 1.263 . S
O309 Co306 1.970 . S
O309 C308 1.258 . S
O310 Co307 1.966 . S
O310 C308 1.263 . S
C311 O312 1.235 . S
C311 O338 1.289 . S
O312 C311 1.235 . S
C313 C315 1.400 . S
C313 N316 1.351 . S
C313 C318 1.501 . S
C314 C315 1.387 . S
C314 N317 1.341 . S
C315 C313 1.400 . S
C315 C314 1.387 . S
N316 Co307 2.022 . S
N316 C313 1.351 . S
N316 N317 1.365 . S
N317 C314 1.341 . S
N317 N316 1.365 . S
N317 H337 0.862 . S
C318 C313 1.501 . S
C318 H319 0.961 . S
C318 H320 0.961 . S
C318 H321 0.960 . S
H319 C318 0.961 . S
H320 C318 0.961 . S
H321 C318 0.960 . S
C322 N323 1.342 . S
C322 C326 1.401 . S
C322 C327 1.499 . S
N323 Co306 1.989 . S
N323 C322 1.342 . S
N323 N324 1.388 . S
N324 Co307 1.993 . S
N324 N323 1.388 . S
N324 C325 1.346 . S
C325 N324 1.346 . S
C325 C326 1.396 . S
C325 C335 1.510 . S
C326 C322 1.401 . S
C326 C325 1.396 . S
C327 C322 1.499 . S
C327 H328 0.959 . S
C327 H329 0.960 . S
C327 H330 0.961 . S
H328 C327 0.959 . S
H329 C327 0.960 . S
H330 C327 0.961 . S
O331 Co306 1.967 . S
O331 C339 1.258 . S
O332 Co307 1.941 . S
O332 C339 1.266 . S
H333 C335 0.959 . S
H334 C335 0.961 . S
C335 C325 1.510 . S
C335 H333 0.959 . S
C335 H334 0.961 . S
C335 H336 0.960 . S
H336 C335 0.960 . S
H337 N317 0.862 . S
O338 Co306 1.920 . S
O338 C311 1.289 . S
C339 O331 1.258 . S
C339 O332 1.266 . S
Co340 O343 1.970 . S
Co340 N357 1.989 . S
Co340 O365 1.967 . S
Co340 O372 1.920 . S
Co341 O344 1.966 . S
Co341 N350 2.022 . S
Co341 N358 1.993 . S
Co341 O366 1.941 . S
C342 O343 1.258 . S
C342 O344 1.263 . S
O343 Co340 1.970 . S
O343 C342 1.258 . S
O344 Co341 1.966 . S
O344 C342 1.263 . S
C345 O346 1.235 . S
C345 O372 1.289 . S
O346 C345 1.235 . S
C347 C349 1.400 . S
C347 N350 1.351 . S
C347 C352 1.501 . S
C348 C349 1.387 . S
C348 N351 1.341 . S
C349 C347 1.400 . S
C349 C348 1.387 . S
N350 Co341 2.022 . S
N350 C347 1.351 . S
N350 N351 1.365 . S
N351 C348 1.341 . S
N351 N350 1.365 . S
N351 H371 0.862 . S
C352 C347 1.501 . S
C352 H353 0.961 . S
C352 H354 0.961 . S
C352 H355 0.960 . S
H353 C352 0.961 . S
H354 C352 0.961 . S
H355 C352 0.960 . S
C356 N357 1.342 . S
C356 C360 1.401 . S
C356 C361 1.499 . S
N357 Co340 1.989 . S
N357 C356 1.342 . S
N357 N358 1.388 . S
N358 Co341 1.993 . S
N358 N357 1.388 . S
N358 C359 1.346 . S
C359 N358 1.346 . S
C359 C360 1.396 . S
C359 C369 1.510 . S
C360 C356 1.401 . S
C360 C359 1.396 . S
C361 C356 1.499 . S
C361 H362 0.959 . S
C361 H363 0.960 . S
C361 H364 0.961 . S
H362 C361 0.959 . S
H363 C361 0.960 . S
H364 C361 0.961 . S
O365 Co340 1.967 . S
O365 C373 1.258 . S
O366 Co341 1.941 . S
O366 C373 1.266 . S
H367 C369 0.959 . S
H368 C369 0.961 . S
C369 C359 1.510 . S
C369 H367 0.959 . S
C369 H368 0.961 . S
C369 H370 0.960 . S
H370 C369 0.960 . S
H371 N351 0.862 . S
O372 Co340 1.920 . S
O372 C345 1.289 . S
C373 O365 1.258 . S
C373 O366 1.266 . S
Co374 O377 1.970 . S
Co374 N391 1.989 . S
Co374 O399 1.967 . S
Co374 O406 1.920 . S
Co375 O378 1.966 . S
Co375 N384 2.022 . S
Co375 N392 1.993 . S
Co375 O400 1.941 . S
C376 O377 1.258 . S
C376 O378 1.263 . S
O377 Co374 1.970 . S
O377 C376 1.258 . S
O378 Co375 1.966 . S
O378 C376 1.263 . S
C379 O380 1.235 . S
C379 O406 1.289 . S
O380 C379 1.235 . S
C381 C383 1.400 . S
C381 N384 1.351 . S
C381 C386 1.501 . S
C382 C383 1.387 . S
C382 N385 1.341 . S
C383 C381 1.400 . S
C383 C382 1.387 . S
N384 Co375 2.022 . S
N384 C381 1.351 . S
N384 N385 1.365 . S
N385 C382 1.341 . S
N385 N384 1.365 . S
N385 H405 0.862 . S
C386 C381 1.501 . S
C386 H387 0.961 . S
C386 H388 0.961 . S
C386 H389 0.960 . S
H387 C386 0.961 . S
H388 C386 0.961 . S
H389 C386 0.960 . S
C390 N391 1.342 . S
C390 C394 1.401 . S
C390 C395 1.499 . S
N391 Co374 1.989 . S
N391 C390 1.342 . S
N391 N392 1.388 . S
N392 Co375 1.993 . S
N392 N391 1.388 . S
N392 C393 1.346 . S
C393 N392 1.346 . S
C393 C394 1.396 . S
C393 C403 1.510 . S
C394 C390 1.401 . S
C394 C393 1.396 . S
C395 C390 1.499 . S
C395 H396 0.959 . S
C395 H397 0.960 . S
C395 H398 0.961 . S
H396 C395 0.959 . S
H397 C395 0.960 . S
H398 C395 0.961 . S
O399 Co374 1.967 . S
O399 C407 1.258 . S
O400 Co375 1.941 . S
O400 C407 1.266 . S
H401 C403 0.959 . S
H402 C403 0.961 . S
C403 C393 1.510 . S
C403 H401 0.959 . S
C403 H402 0.961 . S
C403 H404 0.960 . S
H404 C403 0.960 . S
H405 N385 0.862 . S
O406 Co374 1.920 . S
O406 C379 1.289 . S
C407 O399 1.258 . S
C407 O400 1.266 . S
Co408 O411 1.970 . S
Co408 N425 1.989 . S
Co408 O433 1.967 . S
Co408 O440 1.920 . S
Co409 O412 1.966 . S
Co409 N418 2.022 . S
Co409 N426 1.993 . S
Co409 O434 1.941 . S
C410 O411 1.258 . S
C410 O412 1.263 . S
O411 Co408 1.970 . S
O411 C410 1.258 . S
O412 Co409 1.966 . S
O412 C410 1.263 . S
C413 O414 1.235 . S
C413 O440 1.289 . S
O414 C413 1.235 . S
C415 C417 1.400 . S
C415 N418 1.351 . S
C415 C420 1.501 . S
C416 C417 1.387 . S
C416 N419 1.341 . S
C417 C415 1.400 . S
C417 C416 1.387 . S
N418 Co409 2.022 . S
N418 C415 1.351 . S
N418 N419 1.365 . S
N419 C416 1.341 . S
N419 N418 1.365 . S
N419 H439 0.862 . S
C420 C415 1.501 . S
C420 H421 0.961 . S
C420 H422 0.961 . S
C420 H423 0.960 . S
H421 C420 0.961 . S
H422 C420 0.961 . S
H423 C420 0.960 . S
C424 N425 1.342 . S
C424 C428 1.401 . S
C424 C429 1.499 . S
N425 Co408 1.989 . S
N425 C424 1.342 . S
N425 N426 1.388 . S
N426 Co409 1.993 . S
N426 N425 1.388 . S
N426 C427 1.346 . S
C427 N426 1.346 . S
C427 C428 1.396 . S
C427 C437 1.510 . S
C428 C424 1.401 . S
C428 C427 1.396 . S
C429 C424 1.499 . S
C429 H430 0.959 . S
C429 H431 0.960 . S
C429 H432 0.961 . S
H430 C429 0.959 . S
H431 C429 0.960 . S
H432 C429 0.961 . S
O433 Co408 1.967 . S
O433 C441 1.258 . S
O434 Co409 1.941 . S
O434 C441 1.266 . S
H435 C437 0.959 . S
H436 C437 0.961 . S
C437 C427 1.510 . S
C437 H435 0.959 . S
C437 H436 0.961 . S
C437 H438 0.960 . S
H438 C437 0.960 . S
H439 N419 0.862 . S
O440 Co408 1.920 . S
O440 C413 1.289 . S
C441 O433 1.258 . S
C441 O434 1.266 . S
Co442 O445 1.970 . S
Co442 N459 1.989 . S
Co442 O467 1.967 . S
Co442 O474 1.920 . S
Co443 O446 1.966 . S
Co443 N452 2.022 . S
Co443 N460 1.993 . S
Co443 O468 1.941 . S
C444 O445 1.258 . S
C444 O446 1.263 . S
O445 Co442 1.970 . S
O445 C444 1.258 . S
O446 Co443 1.966 . S
O446 C444 1.263 . S
C447 O448 1.235 . S
C447 O474 1.289 . S
O448 C447 1.235 . S
C449 C451 1.400 . S
C449 N452 1.351 . S
C449 C454 1.501 . S
C450 C451 1.387 . S
C450 N453 1.341 . S
C451 C449 1.400 . S
C451 C450 1.387 . S
N452 Co443 2.022 . S
N452 C449 1.351 . S
N452 N453 1.365 . S
N453 C450 1.341 . S
N453 N452 1.365 . S
N453 H473 0.862 . S
C454 C449 1.501 . S
C454 H455 0.961 . S
C454 H456 0.961 . S
C454 H457 0.960 . S
H455 C454 0.961 . S
H456 C454 0.961 . S
H457 C454 0.960 . S
C458 N459 1.342 . S
C458 C462 1.401 . S
C458 C463 1.499 . S
N459 Co442 1.989 . S
N459 C458 1.342 . S
N459 N460 1.388 . S
N460 Co443 1.993 . S
N460 N459 1.388 . S
N460 C461 1.346 . S
C461 N460 1.346 . S
C461 C462 1.396 . S
C461 C471 1.510 . S
C462 C458 1.401 . S
C462 C461 1.396 . S
C463 C458 1.499 . S
C463 H464 0.959 . S
C463 H465 0.960 . S
C463 H466 0.961 . S
H464 C463 0.959 . S
H465 C463 0.960 . S
H466 C463 0.961 . S
O467 Co442 1.967 . S
O467 C475 1.258 . S
O468 Co443 1.941 . S
O468 C475 1.266 . S
H469 C471 0.959 . S
H470 C471 0.961 . S
C471 C461 1.510 . S
C471 H469 0.959 . S
C471 H470 0.961 . S
C471 H472 0.960 . S
H472 C471 0.960 . S
H473 N453 0.862 . S
O474 Co442 1.920 . S
O474 C447 1.289 . S
C475 O467 1.258 . S
C475 O468 1.266 . S
Co476 O479 1.970 . S
Co476 N493 1.989 . S
Co476 O501 1.967 . S
Co476 O508 1.920 . S
Co477 O480 1.966 . S
Co477 N486 2.022 . S
Co477 N494 1.993 . S
Co477 O502 1.941 . S
C478 O479 1.258 . S
C478 O480 1.263 . S
O479 Co476 1.970 . S
O479 C478 1.258 . S
O480 Co477 1.966 . S
O480 C478 1.263 . S
C481 O482 1.235 . S
C481 O508 1.289 . S
O482 C481 1.235 . S
C483 C485 1.400 . S
C483 N486 1.351 . S
C483 C488 1.501 . S
C484 C485 1.387 . S
C484 N487 1.341 . S
C485 C483 1.400 . S
C485 C484 1.387 . S
N486 Co477 2.022 . S
N486 C483 1.351 . S
N486 N487 1.365 . S
N487 C484 1.341 . S
N487 N486 1.365 . S
N487 H507 0.862 . S
C488 C483 1.501 . S
C488 H489 0.961 . S
C488 H490 0.961 . S
C488 H491 0.960 . S
H489 C488 0.961 . S
H490 C488 0.961 . S
H491 C488 0.960 . S
C492 N493 1.342 . S
C492 C496 1.401 . S
C492 C497 1.499 . S
N493 Co476 1.989 . S
N493 C492 1.342 . S
N493 N494 1.388 . S
N494 Co477 1.993 . S
N494 N493 1.388 . S
N494 C495 1.346 . S
C495 N494 1.346 . S
C495 C496 1.396 . S
C495 C505 1.510 . S
C496 C492 1.401 . S
C496 C495 1.396 . S
C497 C492 1.499 . S
C497 H498 0.959 . S
C497 H499 0.960 . S
C497 H500 0.961 . S
H498 C497 0.959 . S
H499 C497 0.960 . S
H500 C497 0.961 . S
O501 Co476 1.967 . S
O501 C509 1.258 . S
O502 Co477 1.941 . S
O502 C509 1.266 . S
H503 C505 0.959 . S
H504 C505 0.961 . S
C505 C495 1.510 . S
C505 H503 0.959 . S
C505 H504 0.961 . S
C505 H506 0.960 . S
H506 C505 0.960 . S
H507 N487 0.862 . S
O508 Co476 1.920 . S
O508 C481 1.289 . S
C509 O501 1.258 . S
C509 O502 1.266 . S
Co510 O513 1.970 . S
Co510 N527 1.989 . S
Co510 O535 1.967 . S
Co510 O542 1.920 . S
Co511 O514 1.966 . S
Co511 N520 2.022 . S
Co511 N528 1.993 . S
Co511 O536 1.941 . S
C512 O513 1.258 . S
C512 O514 1.263 . S
O513 Co510 1.970 . S
O513 C512 1.258 . S
O514 Co511 1.966 . S
O514 C512 1.263 . S
C515 O516 1.235 . S
C515 O542 1.289 . S
O516 C515 1.235 . S
C517 C519 1.400 . S
C517 N520 1.351 . S
C517 C522 1.501 . S
C518 C519 1.387 . S
C518 N521 1.341 . S
C519 C517 1.400 . S
C519 C518 1.387 . S
N520 Co511 2.022 . S
N520 C517 1.351 . S
N520 N521 1.365 . S
N521 C518 1.341 . S
N521 N520 1.365 . S
N521 H541 0.862 . S
C522 C517 1.501 . S
C522 H523 0.961 . S
C522 H524 0.961 . S
C522 H525 0.960 . S
H523 C522 0.961 . S
H524 C522 0.961 . S
H525 C522 0.960 . S
C526 N527 1.342 . S
C526 C530 1.401 . S
C526 C531 1.499 . S
N527 Co510 1.989 . S
N527 C526 1.342 . S
N527 N528 1.388 . S
N528 Co511 1.993 . S
N528 N527 1.388 . S
N528 C529 1.346 . S
C529 N528 1.346 . S
C529 C530 1.396 . S
C529 C539 1.510 . S
C530 C526 1.401 . S
C530 C529 1.396 . S
C531 C526 1.499 . S
C531 H532 0.959 . S
C531 H533 0.960 . S
C531 H534 0.961 . S
H532 C531 0.959 . S
H533 C531 0.960 . S
H534 C531 0.961 . S
O535 Co510 1.967 . S
O535 C543 1.258 . S
O536 Co511 1.941 . S
O536 C543 1.266 . S
H537 C539 0.959 . S
H538 C539 0.961 . S
C539 C529 1.510 . S
C539 H537 0.959 . S
C539 H538 0.961 . S
C539 H540 0.960 . S
H540 C539 0.960 . S
H541 N521 0.862 . S
O542 Co510 1.920 . S
O542 C515 1.289 . S
C543 O535 1.258 . S
C543 O536 1.266 . S
H544 C552 0.950 . S
H545 C557 0.950 . S
H546 C554 0.950 . S
H547 C556 0.950 . S
H548 C558 0.950 . S
H549 C560 0.950 . S
H550 C562 0.950 . S
H551 C563 0.950 . S
C552 H544 0.950 . S
C552 C553 1.386 . S
C552 C554 1.391 . S
C553 C552 1.386 . S
C553 C557 1.393 . S
C554 H546 0.950 . S
C554 C552 1.391 . S
C554 C555 1.400 . S
C555 C554 1.400 . S
C555 C556 1.398 . S
C555 C561 1.491 . S
C556 H547 0.950 . S
C556 C555 1.398 . S
C556 C557 1.391 . S
C557 H545 0.950 . S
C557 C553 1.393 . S
C557 C556 1.391 . S
C558 H548 0.950 . S
C558 C559 1.386 . S
C558 C560 1.391 . S
C559 C558 1.386 . S
C559 C563 1.393 . S
C560 H549 0.950 . S
C560 C558 1.391 . S
C560 C561 1.400 . S
C561 C555 1.491 . S
C561 C560 1.400 . S
C561 C562 1.398 . S
C562 H550 0.950 . S
C562 C561 1.398 . S
C562 C563 1.391 . S
C563 H551 0.950 . S
C563 C559 1.393 . S
C563 C562 1.391 . S
H564 C572 0.950 . S
H565 C577 0.950 . S
H566 C574 0.950 . S
H567 C576 0.950 . S
H568 C578 0.950 . S
H569 C580 0.950 . S
H570 C582 0.950 . S
H571 C583 0.950 . S
C572 H564 0.950 . S
C572 C573 1.386 . S
C572 C574 1.391 . S
C573 C572 1.386 . S
C573 C577 1.393 . S
C574 H566 0.950 . S
C574 C572 1.391 . S
C574 C575 1.400 . S
C575 C574 1.400 . S
C575 C576 1.398 . S
C575 C581 1.491 . S
C576 H567 0.950 . S
C576 C575 1.398 . S
C576 C577 1.391 . S
C577 H565 0.950 . S
C577 C573 1.393 . S
C577 C576 1.391 . S
C578 H568 0.950 . S
C578 C579 1.386 . S
C578 C580 1.391 . S
C579 C578 1.386 . S
C579 C583 1.393 . S
C580 H569 0.950 . S
C580 C578 1.391 . S
C580 C581 1.400 . S
C581 C575 1.491 . S
C581 C580 1.400 . S
C581 C582 1.398 . S
C582 H570 0.950 . S
C582 C581 1.398 . S
C582 C583 1.391 . S
C583 H571 0.950 . S
C583 C579 1.393 . S
C583 C582 1.391 . S
H584 C592 0.950 . S
H585 C597 0.950 . S
H586 C594 0.950 . S
H587 C596 0.950 . S
H588 C598 0.950 . S
H589 C600 0.950 . S
H590 C602 0.950 . S
H591 C603 0.950 . S
C592 H584 0.950 . S
C592 C593 1.386 . S
C592 C594 1.391 . S
C593 C592 1.386 . S
C593 C597 1.393 . S
C594 H586 0.950 . S
C594 C592 1.391 . S
C594 C595 1.400 . S
C595 C594 1.400 . S
C595 C596 1.398 . S
C595 C601 1.491 . S
C596 H587 0.950 . S
C596 C595 1.398 . S
C596 C597 1.391 . S
C597 H585 0.950 . S
C597 C593 1.393 . S
C597 C596 1.391 . S
C598 H588 0.950 . S
C598 C599 1.386 . S
C598 C600 1.391 . S
C599 C598 1.386 . S
C599 C603 1.393 . S
C600 H589 0.950 . S
C600 C598 1.391 . S
C600 C601 1.400 . S
C601 C595 1.491 . S
C601 C600 1.400 . S
C601 C602 1.398 . S
C602 H590 0.950 . S
C602 C601 1.398 . S
C602 C603 1.391 . S
C603 H591 0.950 . S
C603 C599 1.393 . S
C603 C602 1.391 . S
H604 C612 0.950 . S
H605 C617 0.950 . S
H606 C614 0.950 . S
H607 C616 0.950 . S
H608 C618 0.950 . S
H609 C620 0.950 . S
H610 C622 0.950 . S
H611 C623 0.950 . S
C612 H604 0.950 . S
C612 C613 1.386 . S
C612 C614 1.391 . S
C613 C612 1.386 . S
C613 C617 1.393 . S
C614 H606 0.950 . S
C614 C612 1.391 . S
C614 C615 1.400 . S
C615 C614 1.400 . S
C615 C616 1.398 . S
C615 C621 1.491 . S
C616 H607 0.950 . S
C616 C615 1.398 . S
C616 C617 1.391 . S
C617 H605 0.950 . S
C617 C613 1.393 . S
C617 C616 1.391 . S
C618 H608 0.950 . S
C618 C619 1.386 . S
C618 C620 1.391 . S
C619 C618 1.386 . S
C619 C623 1.393 . S
C620 H609 0.950 . S
C620 C618 1.391 . S
C620 C621 1.400 . S
C621 C615 1.491 . S
C621 C620 1.400 . S
C621 C622 1.398 . S
C622 H610 0.950 . S
C622 C621 1.398 . S
C622 C623 1.391 . S
C623 H611 0.950 . S
C623 C619 1.393 . S
C623 C622 1.391 . S
H624 C632 0.950 . S
H625 C637 0.950 . S
H626 C634 0.950 . S
H627 C636 0.950 . S
H628 C638 0.950 . S
H629 C640 0.950 . S
H630 C642 0.950 . S
H631 C643 0.950 . S
C632 H624 0.950 . S
C632 C633 1.386 . S
C632 C634 1.391 . S
C633 C632 1.386 . S
C633 C637 1.393 . S
C634 H626 0.950 . S
C634 C632 1.391 . S
C634 C635 1.400 . S
C635 C634 1.400 . S
C635 C636 1.398 . S
C635 C641 1.491 . S
C636 H627 0.950 . S
C636 C635 1.398 . S
C636 C637 1.391 . S
C637 H625 0.950 . S
C637 C633 1.393 . S
C637 C636 1.391 . S
C638 H628 0.950 . S
C638 C639 1.386 . S
C638 C640 1.391 . S
C639 C638 1.386 . S
C639 C643 1.393 . S
C640 H629 0.950 . S
C640 C638 1.391 . S
C640 C641 1.400 . S
C641 C635 1.491 . S
C641 C640 1.400 . S
C641 C642 1.398 . S
C642 H630 0.950 . S
C642 C641 1.398 . S
C642 C643 1.391 . S
C643 H631 0.950 . S
C643 C639 1.393 . S
C643 C642 1.391 . S
H644 C652 0.950 . S
H645 C657 0.950 . S
H646 C654 0.950 . S
H647 C656 0.950 . S
H648 C658 0.950 . S
H649 C660 0.950 . S
H650 C662 0.950 . S
H651 C663 0.950 . S
C652 H644 0.950 . S
C652 C653 1.386 . S
C652 C654 1.391 . S
C653 C652 1.386 . S
C653 C657 1.393 . S
C654 H646 0.950 . S
C654 C652 1.391 . S
C654 C655 1.400 . S
C655 C654 1.400 . S
C655 C656 1.398 . S
C655 C661 1.491 . S
C656 H647 0.950 . S
C656 C655 1.398 . S
C656 C657 1.391 . S
C657 H645 0.950 . S
C657 C653 1.393 . S
C657 C656 1.391 . S
C658 H648 0.950 . S
C658 C659 1.386 . S
C658 C660 1.391 . S
C659 C658 1.386 . S
C659 C663 1.393 . S
C660 H649 0.950 . S
C660 C658 1.391 . S
C660 C661 1.400 . S
C661 C655 1.491 . S
C661 C660 1.400 . S
C661 C662 1.398 . S
C662 H650 0.950 . S
C662 C661 1.398 . S
C662 C663 1.391 . S
C663 H651 0.950 . S
C663 C659 1.393 . S
C663 C662 1.391 . S
H664 C672 0.950 . S
H665 C677 0.950 . S
H666 C674 0.950 . S
H667 C676 0.950 . S
H668 C678 0.950 . S
H669 C680 0.950 . S
H670 C682 0.950 . S
H671 C683 0.950 . S
C672 H664 0.950 . S
C672 C673 1.386 . S
C672 C674 1.391 . S
C673 C672 1.386 . S
C673 C677 1.393 . S
C674 H666 0.950 . S
C674 C672 1.391 . S
C674 C675 1.400 . S
C675 C674 1.400 . S
C675 C676 1.398 . S
C675 C681 1.491 . S
C676 H667 0.950 . S
C676 C675 1.398 . S
C676 C677 1.391 . S
C677 H665 0.950 . S
C677 C673 1.393 . S
C677 C676 1.391 . S
C678 H668 0.950 . S
C678 C679 1.386 . S
C678 C680 1.391 . S
C679 C678 1.386 . S
C679 C683 1.393 . S
C680 H669 0.950 . S
C680 C678 1.391 . S
C680 C681 1.400 . S
C681 C675 1.491 . S
C681 C680 1.400 . S
C681 C682 1.398 . S
C682 H670 0.950 . S
C682 C681 1.398 . S
C682 C683 1.391 . S
C683 H671 0.950 . S
C683 C679 1.393 . S
C683 C682 1.391 . S
H684 C692 0.950 . S
H685 C697 0.950 . S
H686 C694 0.950 . S
H687 C696 0.950 . S
H688 C698 0.950 . S
H689 C700 0.950 . S
H690 C702 0.950 . S
H691 C703 0.950 . S
C692 H684 0.950 . S
C692 C693 1.386 . S
C692 C694 1.391 . S
C693 C692 1.386 . S
C693 C697 1.393 . S
C694 H686 0.950 . S
C694 C692 1.391 . S
C694 C695 1.400 . S
C695 C694 1.400 . S
C695 C696 1.398 . S
C695 C701 1.491 . S
C696 H687 0.950 . S
C696 C695 1.398 . S
C696 C697 1.391 . S
C697 H685 0.950 . S
C697 C693 1.393 . S
C697 C696 1.391 . S
C698 H688 0.950 . S
C698 C699 1.386 . S
C698 C700 1.391 . S
C699 C698 1.386 . S
C699 C703 1.393 . S
C700 H689 0.950 . S
C700 C698 1.391 . S
C700 C701 1.400 . S
C701 C695 1.491 . S
C701 C700 1.400 . S
C701 C702 1.398 . S
C702 H690 0.950 . S
C702 C701 1.398 . S
C702 C703 1.391 . S
C703 H691 0.950 . S
C703 C699 1.393 . S
C703 C702 1.391 . S
H704 C712 0.950 . S
H705 C717 0.950 . S
H706 C714 0.950 . S
H707 C716 0.950 . S
H708 C718 0.950 . S
H709 C720 0.950 . S
H710 C722 0.950 . S
H711 C723 0.950 . S
C712 H704 0.950 . S
C712 C713 1.386 . S
C712 C714 1.391 . S
C713 C712 1.386 . S
C713 C717 1.393 . S
C714 H706 0.950 . S
C714 C712 1.391 . S
C714 C715 1.400 . S
C715 C714 1.400 . S
C715 C716 1.398 . S
C715 C721 1.491 1_554 S
C716 H707 0.950 . S
C716 C715 1.398 . S
C716 C717 1.391 . S
C717 H705 0.950 . S
C717 C713 1.393 . S
C717 C716 1.391 . S
C718 H708 0.950 . S
C718 C719 1.386 . S
C718 C720 1.391 . S
C719 C718 1.386 . S
C719 C723 1.393 . S
C720 H709 0.950 . S
C720 C718 1.391 . S
C720 C721 1.400 . S
C721 C715 1.491 1_556 S
C721 C720 1.400 . S
C721 C722 1.398 . S
C722 H710 0.950 . S
C722 C721 1.398 . S
C722 C723 1.391 . S
C723 H711 0.950 . S
C723 C719 1.393 . S
C723 C722 1.391 . S
H724 C732 0.950 . S
H725 C737 0.950 . S
H726 C734 0.950 . S
H727 C736 0.950 . S
H728 C738 0.950 . S
H729 C740 0.950 . S
H730 C742 0.950 . S
H731 C743 0.950 . S
C732 H724 0.950 . S
C732 C733 1.386 . S
C732 C734 1.391 . S
C733 C732 1.386 . S
C733 C737 1.393 . S
C734 H726 0.950 . S
C734 C732 1.391 . S
C734 C735 1.400 . S
C735 C734 1.400 . S
C735 C736 1.398 . S
C735 C741 1.491 1_554 S
C736 H727 0.950 . S
C736 C735 1.398 . S
C736 C737 1.391 . S
C737 H725 0.950 . S
C737 C733 1.393 . S
C737 C736 1.391 . S
C738 H728 0.950 . S
C738 C739 1.386 . S
C738 C740 1.391 . S
C739 C738 1.386 . S
C739 C743 1.393 . S
C740 H729 0.950 . S
C740 C738 1.391 . S
C740 C741 1.400 . S
C741 C735 1.491 1_556 S
C741 C740 1.400 . S
C741 C742 1.398 . S
C742 H730 0.950 . S
C742 C741 1.398 . S
C742 C743 1.391 . S
C743 H731 0.950 . S
C743 C739 1.393 . S
C743 C742 1.391 . S
H744 C752 0.950 . S
H745 C757 0.950 . S
H746 C754 0.950 . S
H747 C756 0.950 . S
H748 C758 0.950 . S
H749 C760 0.950 . S
H750 C762 0.950 . S
H751 C763 0.950 . S
C752 H744 0.950 . S
C752 C753 1.386 . S
C752 C754 1.391 . S
C753 C752 1.386 . S
C753 C757 1.393 . S
C754 H746 0.950 . S
C754 C752 1.391 . S
C754 C755 1.400 . S
C755 C754 1.400 . S
C755 C756 1.398 . S
C755 C761 1.491 1_554 S
C756 H747 0.950 . S
C756 C755 1.398 . S
C756 C757 1.391 . S
C757 H745 0.950 . S
C757 C753 1.393 . S
C757 C756 1.391 . S
C758 H748 0.950 . S
C758 C759 1.386 . S
C758 C760 1.391 . S
C759 C758 1.386 . S
C759 C763 1.393 . S
C760 H749 0.950 . S
C760 C758 1.391 . S
C760 C761 1.400 . S
C761 C755 1.491 1_556 S
C761 C760 1.400 . S
C761 C762 1.398 . S
C762 H750 0.950 . S
C762 C761 1.398 . S
C762 C763 1.391 . S
C763 H751 0.950 . S
C763 C759 1.393 . S
C763 C762 1.391 . S
H764 C772 0.950 . S
H765 C777 0.950 . S
H766 C774 0.950 . S
H767 C776 0.950 . S
H768 C778 0.950 . S
H769 C780 0.950 . S
H770 C782 0.950 . S
H771 C783 0.950 . S
C772 H764 0.950 . S
C772 C773 1.386 . S
C772 C774 1.391 . S
C773 C772 1.386 . S
C773 C777 1.393 . S
C774 H766 0.950 . S
C774 C772 1.391 . S
C774 C775 1.400 . S
C775 C774 1.400 . S
C775 C776 1.398 . S
C775 C781 1.491 1_554 S
C776 H767 0.950 . S
C776 C775 1.398 . S
C776 C777 1.391 . S
C777 H765 0.950 . S
C777 C773 1.393 . S
C777 C776 1.391 . S
C778 H768 0.950 . S
C778 C779 1.386 . S
C778 C780 1.391 . S
C779 C778 1.386 . S
C779 C783 1.393 . S
C780 H769 0.950 . S
C780 C778 1.391 . S
C780 C781 1.400 . S
C781 C775 1.491 1_556 S
C781 C780 1.400 . S
C781 C782 1.398 . S
C782 H770 0.950 . S
C782 C781 1.398 . S
C782 C783 1.391 . S
C783 H771 0.950 . S
C783 C779 1.393 . S
C783 C782 1.391 . S
H784 C792 0.950 . S
H785 C797 0.950 . S
H786 C794 0.950 . S
H787 C796 0.950 . S
H788 C798 0.950 . S
H789 C800 0.950 . S
H790 C802 0.950 . S
H791 C803 0.950 . S
C792 H784 0.950 . S
C792 C793 1.386 . S
C792 C794 1.391 . S
C793 C792 1.386 . S
C793 C797 1.393 . S
C794 H786 0.950 . S
C794 C792 1.391 . S
C794 C795 1.400 . S
C795 C794 1.400 . S
C795 C796 1.398 . S
C795 C801 1.491 1_554 S
C796 H787 0.950 . S
C796 C795 1.398 . S
C796 C797 1.391 . S
C797 H785 0.950 . S
C797 C793 1.393 . S
C797 C796 1.391 . S
C798 H788 0.950 . S
C798 C799 1.386 . S
C798 C800 1.391 . S
C799 C798 1.386 . S
C799 C803 1.393 . S
C800 H789 0.950 . S
C800 C798 1.391 . S
C800 C801 1.400 . S
C801 C795 1.491 1_556 S
C801 C800 1.400 . S
C801 C802 1.398 . S
C802 H790 0.950 . S
C802 C801 1.398 . S
C802 C803 1.391 . S
C803 H791 0.950 . S
C803 C799 1.393 . S
C803 C802 1.391 . S
H804 C812 0.950 . S
H805 C817 0.950 . S
H806 C814 0.950 . S
H807 C816 0.950 . S
H808 C818 0.950 . S
H809 C820 0.950 . S
H810 C822 0.950 . S
H811 C823 0.950 . S
C812 H804 0.950 . S
C812 C813 1.386 . S
C812 C814 1.391 . S
C813 C812 1.386 . S
C813 C817 1.393 . S
C814 H806 0.950 . S
C814 C812 1.391 . S
C814 C815 1.400 . S
C815 C814 1.400 . S
C815 C816 1.398 . S
C815 C821 1.491 1_554 S
C816 H807 0.950 . S
C816 C815 1.398 . S
C816 C817 1.391 . S
C817 H805 0.950 . S
C817 C813 1.393 . S
C817 C816 1.391 . S
C818 H808 0.950 . S
C818 C819 1.386 . S
C818 C820 1.391 . S
C819 C818 1.386 . S
C819 C823 1.393 . S
C820 H809 0.950 . S
C820 C818 1.391 . S
C820 C821 1.400 . S
C821 C815 1.491 1_556 S
C821 C820 1.400 . S
C821 C822 1.398 . S
C822 H810 0.950 . S
C822 C821 1.398 . S
C822 C823 1.391 . S
C823 H811 0.950 . S
C823 C819 1.393 . S
C823 C822 1.391 . S
H824 C832 0.950 . S
H825 C837 0.950 . S
H826 C834 0.950 . S
H827 C836 0.950 . S
H828 C838 0.950 . S
H829 C840 0.950 . S
H830 C842 0.950 . S
H831 C843 0.950 . S
C832 H824 0.950 . S
C832 C833 1.386 . S
C832 C834 1.391 . S
C833 C832 1.386 . S
C833 C837 1.393 . S
C834 H826 0.950 . S
C834 C832 1.391 . S
C834 C835 1.400 . S
C835 C834 1.400 . S
C835 C836 1.398 . S
C835 C841 1.491 1_554 S
C836 H827 0.950 . S
C836 C835 1.398 . S
C836 C837 1.391 . S
C837 H825 0.950 . S
C837 C833 1.393 . S
C837 C836 1.391 . S
C838 H828 0.950 . S
C838 C839 1.386 . S
C838 C840 1.391 . S
C839 C838 1.386 . S
C839 C843 1.393 . S
C840 H829 0.950 . S
C840 C838 1.391 . S
C840 C841 1.400 . S
C841 C835 1.491 1_556 S
C841 C840 1.400 . S
C841 C842 1.398 . S
C842 H830 0.950 . S
C842 C841 1.398 . S
C842 C843 1.391 . S
C843 H831 0.950 . S
C843 C839 1.393 . S
C843 C842 1.391 . S
H844 C852 0.950 . S
H845 C857 0.950 . S
H846 C854 0.950 . S
H847 C856 0.950 . S
H848 C858 0.950 . S
H849 C860 0.950 . S
H850 C862 0.950 . S
H851 C863 0.950 . S
C852 H844 0.950 . S
C852 C853 1.386 . S
C852 C854 1.391 . S
C853 C852 1.386 . S
C853 C857 1.393 . S
C854 H846 0.950 . S
C854 C852 1.391 . S
C854 C855 1.400 . S
C855 C854 1.400 . S
C855 C856 1.398 . S
C855 C861 1.491 1_554 S
C856 H847 0.950 . S
C856 C855 1.398 . S
C856 C857 1.391 . S
C857 H845 0.950 . S
C857 C853 1.393 . S
C857 C856 1.391 . S
C858 H848 0.950 . S
C858 C859 1.386 . S
C858 C860 1.391 . S
C859 C858 1.386 . S
C859 C863 1.393 . S
C860 H849 0.950 . S
C860 C858 1.391 . S
C860 C861 1.400 . S
C861 C855 1.491 1_556 S
C861 C860 1.400 . S
C861 C862 1.398 . S
C862 H850 0.950 . S
C862 C861 1.398 . S
C862 C863 1.391 . S
C863 H851 0.950 . S
C863 C859 1.393 . S
C863 C862 1.391 . S
H864 C872 0.950 . S
H865 C877 0.950 . S
H866 C874 0.950 . S
H867 C876 0.950 . S
H868 C878 0.950 . S
H869 C880 0.950 . S
H870 C882 0.950 . S
H871 C883 0.950 . S
C872 H864 0.950 . S
C872 C873 1.386 . S
C872 C874 1.391 . S
C873 C872 1.386 . S
C873 C877 1.393 . S
C874 H866 0.950 . S
C874 C872 1.391 . S
C874 C875 1.400 . S
C875 C874 1.400 . S
C875 C876 1.398 . S
C875 C881 1.491 . S
C876 H867 0.950 . S
C876 C875 1.398 . S
C876 C877 1.391 . S
C877 H865 0.950 . S
C877 C873 1.393 . S
C877 C876 1.391 . S
C878 H868 0.950 . S
C878 C879 1.386 . S
C878 C880 1.391 . S
C879 C878 1.386 . S
C879 C883 1.393 . S
C880 H869 0.950 . S
C880 C878 1.391 . S
C880 C881 1.400 . S
C881 C875 1.491 . S
C881 C880 1.400 . S
C881 C882 1.398 . S
C882 H870 0.950 . S
C882 C881 1.398 . S
C882 C883 1.391 . S
C883 H871 0.950 . S
C883 C879 1.393 . S
C883 C882 1.391 . S
H884 C892 0.950 . S
H885 C897 0.950 . S
H886 C894 0.950 . S
H887 C896 0.950 . S
H888 C898 0.950 . S
H889 C900 0.950 . S
H890 C902 0.950 . S
H891 C903 0.950 . S
C892 H884 0.950 . S
C892 C893 1.386 . S
C892 C894 1.391 . S
C893 C892 1.386 . S
C893 C897 1.393 . S
C894 H886 0.950 . S
C894 C892 1.391 . S
C894 C895 1.400 . S
C895 C894 1.400 . S
C895 C896 1.398 . S
C895 C901 1.491 . S
C896 H887 0.950 . S
C896 C895 1.398 . S
C896 C897 1.391 . S
C897 H885 0.950 . S
C897 C893 1.393 . S
C897 C896 1.391 . S
C898 H888 0.950 . S
C898 C899 1.386 . S
C898 C900 1.391 . S
C899 C898 1.386 . S
C899 C903 1.393 . S
C900 H889 0.950 . S
C900 C898 1.391 . S
C900 C901 1.400 . S
C901 C895 1.491 . S
C901 C900 1.400 . S
C901 C902 1.398 . S
C902 H890 0.950 . S
C902 C901 1.398 . S
C902 C903 1.391 . S
C903 H891 0.950 . S
C903 C899 1.393 . S
C903 C902 1.391 . S
H904 C912 0.950 . S
H905 C917 0.950 . S
H906 C914 0.950 . S
H907 C916 0.950 . S
H908 C918 0.950 . S
H909 C920 0.950 . S
H910 C922 0.950 . S
H911 C923 0.950 . S
C912 H904 0.950 . S
C912 C913 1.386 . S
C912 C914 1.391 . S
C913 C912 1.386 . S
C913 C917 1.393 . S
C914 H906 0.950 . S
C914 C912 1.391 . S
C914 C915 1.400 . S
C915 C914 1.400 . S
C915 C916 1.398 . S
C915 C921 1.491 . S
C916 H907 0.950 . S
C916 C915 1.398 . S
C916 C917 1.391 . S
C917 H905 0.950 . S
C917 C913 1.393 . S
C917 C916 1.391 . S
C918 H908 0.950 . S
C918 C919 1.386 . S
C918 C920 1.391 . S
C919 C918 1.386 . S
C919 C923 1.393 . S
C920 H909 0.950 . S
C920 C918 1.391 . S
C920 C921 1.400 . S
C921 C915 1.491 . S
C921 C920 1.400 . S
C921 C922 1.398 . S
C922 H910 0.950 . S
C922 C921 1.398 . S
C922 C923 1.391 . S
C923 H911 0.950 . S
C923 C919 1.393 . S
C923 C922 1.391 . S
H924 C932 0.950 . S
H925 C937 0.950 . S
H926 C934 0.950 . S
H927 C936 0.950 . S
H928 C938 0.950 . S
H929 C940 0.950 . S
H930 C942 0.950 . S
H931 C943 0.950 . S
C932 H924 0.950 . S
C932 C933 1.386 . S
C932 C934 1.391 . S
C933 C932 1.386 . S
C933 C937 1.393 . S
C934 H926 0.950 . S
C934 C932 1.391 . S
C934 C935 1.400 . S
C935 C934 1.400 . S
C935 C936 1.398 . S
C935 C941 1.491 . S
C936 H927 0.950 . S
C936 C935 1.398 . S
C936 C937 1.391 . S
C937 H925 0.950 . S
C937 C933 1.393 . S
C937 C936 1.391 . S
C938 H928 0.950 . S
C938 C939 1.386 . S
C938 C940 1.391 . S
C939 C938 1.386 . S
C939 C943 1.393 . S
C940 H929 0.950 . S
C940 C938 1.391 . S
C940 C941 1.400 . S
C941 C935 1.491 . S
C941 C940 1.400 . S
C941 C942 1.398 . S
C942 H930 0.950 . S
C942 C941 1.398 . S
C942 C943 1.391 . S
C943 H931 0.950 . S
C943 C939 1.393 . S
C943 C942 1.391 . S
H944 C952 0.950 . S
H945 C957 0.950 . S
H946 C954 0.950 . S
H947 C956 0.950 . S
H948 C958 0.950 . S
H949 C960 0.950 . S
H950 C962 0.950 . S
H951 C963 0.950 . S
C952 H944 0.950 . S
C952 C953 1.386 . S
C952 C954 1.391 . S
C953 C952 1.386 . S
C953 C957 1.393 . S
C954 H946 0.950 . S
C954 C952 1.391 . S
C954 C955 1.400 . S
C955 C954 1.400 . S
C955 C956 1.398 . S
C955 C961 1.491 . S
C956 H947 0.950 . S
C956 C955 1.398 . S
C956 C957 1.391 . S
C957 H945 0.950 . S
C957 C953 1.393 . S
C957 C956 1.391 . S
C958 H948 0.950 . S
C958 C959 1.386 . S
C958 C960 1.391 . S
C959 C958 1.386 . S
C959 C963 1.393 . S
C960 H949 0.950 . S
C960 C958 1.391 . S
C960 C961 1.400 . S
C961 C955 1.491 . S
C961 C960 1.400 . S
C961 C962 1.398 . S
C962 H950 0.950 . S
C962 C961 1.398 . S
C962 C963 1.391 . S
C963 H951 0.950 . S
C963 C959 1.393 . S
C963 C962 1.391 . S
H964 C972 0.950 . S
H965 C977 0.950 . S
H966 C974 0.950 . S
H967 C976 0.950 . S
H968 C978 0.950 . S
H969 C980 0.950 . S
H970 C982 0.950 . S
H971 C983 0.950 . S
C972 H964 0.950 . S
C972 C973 1.386 . S
C972 C974 1.391 . S
C973 C972 1.386 . S
C973 C977 1.393 . S
C974 H966 0.950 . S
C974 C972 1.391 . S
C974 C975 1.400 . S
C975 C974 1.400 . S
C975 C976 1.398 . S
C975 C981 1.491 . S
C976 H967 0.950 . S
C976 C975 1.398 . S
C976 C977 1.391 . S
C977 H965 0.950 . S
C977 C973 1.393 . S
C977 C976 1.391 . S
C978 H968 0.950 . S
C978 C979 1.386 . S
C978 C980 1.391 . S
C979 C978 1.386 . S
C979 C983 1.393 . S
C980 H969 0.950 . S
C980 C978 1.391 . S
C980 C981 1.400 . S
C981 C975 1.491 . S
C981 C980 1.400 . S
C981 C982 1.398 . S
C982 H970 0.950 . S
C982 C981 1.398 . S
C982 C983 1.391 . S
C983 H971 0.950 . S
C983 C979 1.393 . S
C983 C982 1.391 . S
H984 C992 0.950 . S
H985 C997 0.950 . S
H986 C994 0.950 . S
H987 C996 0.950 . S
H988 C998 0.950 . S
H989 C1000 0.950 . S
H990 C1002 0.950 . S
H991 C1003 0.950 . S
C992 H984 0.950 . S
C992 C993 1.386 . S
C992 C994 1.391 . S
C993 C992 1.386 . S
C993 C997 1.393 . S
C994 H986 0.950 . S
C994 C992 1.391 . S
C994 C995 1.400 . S
C995 C994 1.400 . S
C995 C996 1.398 . S
C995 C1001 1.491 . S
C996 H987 0.950 . S
C996 C995 1.398 . S
C996 C997 1.391 . S
C997 H985 0.950 . S
C997 C993 1.393 . S
C997 C996 1.391 . S
C998 H988 0.950 . S
C998 C999 1.386 . S
C998 C1000 1.391 . S
C999 C998 1.386 . S
C999 C1003 1.393 . S
C1000 H989 0.950 . S
C1000 C998 1.391 . S
C1000 C1001 1.400 . S
C1001 C995 1.491 . S
C1001 C1000 1.400 . S
C1001 C1002 1.398 . S
C1002 H990 0.950 . S
C1002 C1001 1.398 . S
C1002 C1003 1.391 . S
C1003 H991 0.950 . S
C1003 C999 1.393 . S
C1003 C1002 1.391 . S
H1004 C1012 0.950 . S
H1005 C1017 0.950 . S
H1006 C1014 0.950 . S
H1007 C1016 0.950 . S
H1008 C1018 0.950 . S
H1009 C1020 0.950 . S
H1010 C1022 0.950 . S
H1011 C1023 0.950 . S
C1012 H1004 0.950 . S
C1012 C1013 1.386 . S
C1012 C1014 1.391 . S
C1013 C1012 1.386 . S
C1013 C1017 1.393 . S
C1014 H1006 0.950 . S
C1014 C1012 1.391 . S
C1014 C1015 1.400 . S
C1015 C1014 1.400 . S
C1015 C1016 1.398 . S
C1015 C1021 1.491 . S
C1016 H1007 0.950 . S
C1016 C1015 1.398 . S
C1016 C1017 1.391 . S
C1017 H1005 0.950 . S
C1017 C1013 1.393 . S
C1017 C1016 1.391 . S
C1018 H1008 0.950 . S
C1018 C1019 1.386 . S
C1018 C1020 1.391 . S
C1019 C1018 1.386 . S
C1019 C1023 1.393 . S
C1020 H1009 0.950 . S
C1020 C1018 1.391 . S
C1020 C1021 1.400 . S
C1021 C1015 1.491 . S
C1021 C1020 1.400 . S
C1021 C1022 1.398 . S
C1022 H1010 0.950 . S
C1022 C1021 1.398 . S
C1022 C1023 1.391 . S
C1023 H1011 0.950 . S
C1023 C1019 1.393 . S
C1023 C1022 1.391 . S
H1024 C1032 0.950 . S
H1025 C1037 0.950 . S
H1026 C1034 0.950 . S
H1027 C1036 0.950 . S
H1028 C1038 0.950 . S
H1029 C1040 0.950 . S
H1030 C1042 0.950 . S
H1031 C1043 0.950 . S
C1032 H1024 0.950 . S
C1032 C1033 1.386 1_556 S
C1032 C1034 1.391 . S
C1033 C1032 1.386 1_554 S
C1033 C1037 1.393 . S
C1034 H1026 0.950 . S
C1034 C1032 1.391 . S
C1034 C1035 1.400 1_556 S
C1035 C1034 1.400 1_554 S
C1035 C1036 1.398 . S
C1035 C1041 1.491 1_544 S
C1036 H1027 0.950 . S
C1036 C1035 1.398 . S
C1036 C1037 1.391 . S
C1037 H1025 0.950 . S
C1037 C1033 1.393 . S
C1037 C1036 1.391 . S
C1038 H1028 0.950 . S
C1038 C1039 1.386 1_554 S
C1038 C1040 1.391 . S
C1039 C1038 1.386 1_556 S
C1039 C1043 1.393 . S
C1040 H1029 0.950 . S
C1040 C1038 1.391 . S
C1040 C1041 1.400 1_554 S
C1041 C1035 1.491 1_566 S
C1041 C1040 1.400 1_556 S
C1041 C1042 1.398 . S
C1042 H1030 0.950 . S
C1042 C1041 1.398 . S
C1042 C1043 1.391 . S
C1043 H1031 0.950 . S
C1043 C1039 1.393 . S
C1043 C1042 1.391 . S
H1044 C1052 0.950 . S
H1045 C1057 0.950 . S
H1046 C1054 0.950 . S
H1047 C1056 0.950 . S
H1048 C1058 0.950 . S
H1049 C1060 0.950 . S
H1050 C1062 0.950 . S
H1051 C1063 0.950 . S
C1052 H1044 0.950 . S
C1052 C1053 1.386 . S
C1052 C1054 1.391 . S
C1053 C1052 1.386 . S
C1053 C1057 1.393 1_556 S
C1054 H1046 0.950 . S
C1054 C1052 1.391 . S
C1054 C1055 1.400 . S
C1055 C1054 1.400 . S
C1055 C1056 1.398 1_556 S
C1055 C1061 1.491 1_456 S
C1056 H1047 0.950 . S
C1056 C1055 1.398 1_554 S
C1056 C1057 1.391 . S
C1057 H1045 0.950 . S
C1057 C1053 1.393 1_554 S
C1057 C1056 1.391 . S
C1058 H1048 0.950 . S
C1058 C1059 1.386 . S
C1058 C1060 1.391 . S
C1059 C1058 1.386 . S
C1059 C1063 1.393 1_554 S
C1060 H1049 0.950 . S
C1060 C1058 1.391 . S
C1060 C1061 1.400 . S
C1061 C1055 1.491 1_654 S
C1061 C1060 1.400 . S
C1061 C1062 1.398 1_554 S
C1062 H1050 0.950 . S
C1062 C1061 1.398 1_556 S
C1062 C1063 1.391 . S
C1063 H1051 0.950 . S
C1063 C1059 1.393 1_556 S
C1063 C1062 1.391 . S
H1064 C1072 0.950 . S
H1065 C1077 0.950 . S
H1066 C1074 0.950 . S
H1067 C1076 0.950 . S
H1068 C1078 0.950 . S
H1069 C1080 0.950 . S
H1070 C1082 0.950 . S
H1071 C1083 0.950 . S
C1072 H1064 0.950 . S
C1072 C1073 1.386 1_556 S
C1072 C1074 1.391 . S
C1073 C1072 1.386 1_554 S
C1073 C1077 1.393 . S
C1074 H1066 0.950 . S
C1074 C1072 1.391 . S
C1074 C1075 1.400 1_556 S
C1075 C1074 1.400 1_554 S
C1075 C1076 1.398 . S
C1075 C1081 1.491 1_564 S
C1076 H1067 0.950 . S
C1076 C1075 1.398 . S
C1076 C1077 1.391 . S
C1077 H1065 0.950 . S
C1077 C1073 1.393 . S
C1077 C1076 1.391 . S
C1078 H1068 0.950 . S
C1078 C1079 1.386 1_554 S
C1078 C1080 1.391 . S
C1079 C1078 1.386 1_556 S
C1079 C1083 1.393 . S
C1080 H1069 0.950 . S
C1080 C1078 1.391 . S
C1080 C1081 1.400 1_554 S
C1081 C1075 1.491 1_546 S
C1081 C1080 1.400 1_556 S
C1081 C1082 1.398 . S
C1082 H1070 0.950 . S
C1082 C1081 1.398 . S
C1082 C1083 1.391 . S
C1083 H1071 0.950 . S
C1083 C1079 1.393 . S
C1083 C1082 1.391 . S
H1084 C1092 0.950 . S
H1085 C1097 0.947 1_554 S
H1086 C1094 0.950 . S
H1087 C1096 0.950 . S
H1088 C1098 0.950 . S
H1089 C1100 0.950 . S
H1090 C1102 0.950 . S
H1091 C1103 0.947 1_556 S
C1092 H1084 0.950 . S
C1092 C1093 1.386 . S
C1092 C1094 1.391 . S
C1093 C1092 1.386 . S
C1093 C1097 1.398 . S
C1094 H1086 0.950 . S
C1094 C1092 1.391 . S
C1094 C1095 1.400 . S
C1095 C1094 1.400 . S
C1095 C1096 1.398 1_556 S
C1095 C1101 1.491 1_656 S
C1096 H1087 0.950 . S
C1096 C1095 1.398 1_554 S
C1096 C1097 1.388 1_554 S
C1097 H1085 0.947 1_556 S
C1097 C1093 1.398 . S
C1097 C1096 1.388 1_556 S
C1098 H1088 0.950 . S
C1098 C1099 1.386 . S
C1098 C1100 1.391 . S
C1099 C1098 1.386 . S
C1099 C1103 1.398 . S
C1100 H1089 0.950 . S
C1100 C1098 1.391 . S
C1100 C1101 1.400 . S
C1101 C1095 1.491 1_454 S
C1101 C1100 1.400 . S
C1101 C1102 1.398 1_554 S
C1102 H1090 0.950 . S
C1102 C1101 1.398 1_556 S
C1102 C1103 1.388 1_556 S
C1103 H1091 0.947 1_554 S
C1103 C1099 1.398 . S
C1103 C1102 1.388 1_554 S
H1104 C1112 0.950 . S
H1105 C1117 0.950 . S
H1106 C1114 0.950 . S
H1107 C1116 0.950 . S
H1108 C1118 0.950 . S
H1109 C1120 0.950 . S
H1110 C1122 0.950 . S
H1111 C1123 0.950 . S
C1112 H1104 0.950 . S
C1112 C1113 1.386 . S
C1112 C1114 1.391 . S
C1113 C1112 1.386 . S
C1113 C1117 1.393 . S
C1114 H1106 0.950 . S
C1114 C1112 1.391 . S
C1114 C1115 1.400 . S
C1115 C1114 1.400 . S
C1115 C1116 1.398 . S
C1115 C1121 1.491 . S
C1116 H1107 0.950 . S
C1116 C1115 1.398 . S
C1116 C1117 1.391 . S
C1117 H1105 0.950 . S
C1117 C1113 1.393 . S
C1117 C1116 1.391 . S
C1118 H1108 0.950 . S
C1118 C1119 1.386 . S
C1118 C1120 1.391 . S
C1119 C1118 1.386 . S
C1119 C1123 1.393 . S
C1120 H1109 0.950 . S
C1120 C1118 1.391 . S
C1120 C1121 1.400 . S
C1121 C1115 1.491 . S
C1121 C1120 1.400 . S
C1121 C1122 1.398 . S
C1122 H1110 0.950 . S
C1122 C1121 1.398 . S
C1122 C1123 1.391 . S
C1123 H1111 0.950 . S
C1123 C1119 1.393 . S
C1123 C1122 1.391 . S
H1124 C1132 0.950 . S
H1125 C1137 0.950 . S
H1126 C1134 0.950 . S
H1127 C1136 0.950 . S
H1128 C1138 0.950 . S
H1129 C1140 0.950 . S
H1130 C1142 0.950 . S
H1131 C1143 0.950 . S
C1132 H1124 0.950 . S
C1132 C1133 1.386 . S
C1132 C1134 1.391 . S
C1133 C1132 1.386 . S
C1133 C1137 1.393 . S
C1134 H1126 0.950 . S
C1134 C1132 1.391 . S
C1134 C1135 1.400 . S
C1135 C1134 1.400 . S
C1135 C1136 1.398 . S
C1135 C1141 1.491 . S
C1136 H1127 0.950 . S
C1136 C1135 1.398 . S
C1136 C1137 1.391 . S
C1137 H1125 0.950 . S
C1137 C1133 1.393 . S
C1137 C1136 1.391 . S
C1138 H1128 0.950 . S
C1138 C1139 1.386 . S
C1138 C1140 1.391 . S
C1139 C1138 1.386 . S
C1139 C1143 1.393 . S
C1140 H1129 0.950 . S
C1140 C1138 1.391 . S
C1140 C1141 1.400 . S
C1141 C1135 1.491 . S
C1141 C1140 1.400 . S
C1141 C1142 1.398 . S
C1142 H1130 0.950 . S
C1142 C1141 1.398 . S
C1142 C1143 1.391 . S
C1143 H1131 0.950 . S
C1143 C1139 1.393 . S
C1143 C1142 1.391 . S
H1144 C1152 0.950 . S
H1145 C1157 0.950 . S
H1146 C1154 0.950 . S
H1147 C1156 0.950 . S
H1148 C1158 0.950 . S
H1149 C1160 0.950 . S
H1150 C1162 0.950 . S
H1151 C1163 0.950 . S
C1152 H1144 0.950 . S
C1152 C1153 1.386 . S
C1152 C1154 1.391 . S
C1153 C1152 1.386 . S
C1153 C1157 1.393 . S
C1154 H1146 0.950 . S
C1154 C1152 1.391 . S
C1154 C1155 1.400 . S
C1155 C1154 1.400 . S
C1155 C1156 1.398 . S
C1155 C1161 1.491 . S
C1156 H1147 0.950 . S
C1156 C1155 1.398 . S
C1156 C1157 1.391 . S
C1157 H1145 0.950 . S
C1157 C1153 1.393 . S
C1157 C1156 1.391 . S
C1158 H1148 0.950 . S
C1158 C1159 1.386 . S
C1158 C1160 1.391 . S
C1159 C1158 1.386 . S
C1159 C1163 1.393 . S
C1160 H1149 0.950 . S
C1160 C1158 1.391 . S
C1160 C1161 1.400 . S
C1161 C1155 1.491 . S
C1161 C1160 1.400 . S
C1161 C1162 1.398 . S
C1162 H1150 0.950 . S
C1162 C1161 1.398 . S
C1162 C1163 1.391 . S
C1163 H1151 0.950 . S
C1163 C1159 1.393 . S
C1163 C1162 1.391 . S
H1164 C1172 0.950 . S
H1165 C1177 0.950 . S
H1166 C1174 0.950 . S
H1167 C1176 0.950 . S
H1168 C1178 0.950 . S
H1169 C1180 0.950 . S
H1170 C1182 0.950 . S
H1171 C1183 0.950 . S
C1172 H1164 0.950 . S
C1172 C1173 1.386 . S
C1172 C1174 1.391 . S
C1173 C1172 1.386 . S
C1173 C1177 1.393 . S
C1174 H1166 0.950 . S
C1174 C1172 1.391 . S
C1174 C1175 1.400 . S
C1175 C1174 1.400 . S
C1175 C1176 1.398 . S
C1175 C1181 1.491 . S
C1176 H1167 0.950 . S
C1176 C1175 1.398 . S
C1176 C1177 1.391 . S
C1177 H1165 0.950 . S
C1177 C1173 1.393 . S
C1177 C1176 1.391 . S
C1178 H1168 0.950 . S
C1178 C1179 1.386 . S
C1178 C1180 1.391 . S
C1179 C1178 1.386 . S
C1179 C1183 1.393 . S
C1180 H1169 0.950 . S
C1180 C1178 1.391 . S
C1180 C1181 1.400 . S
C1181 C1175 1.491 . S
C1181 C1180 1.400 . S
C1181 C1182 1.398 . S
C1182 H1170 0.950 . S
C1182 C1181 1.398 . S
C1182 C1183 1.391 . S
C1183 H1171 0.950 . S
C1183 C1179 1.393 . S
C1183 C1182 1.391 . S
H1184 C1192 0.950 . S
H1185 C1197 0.950 . S
H1186 C1194 0.950 . S
H1187 C1196 0.950 . S
H1188 C1198 0.950 . S
H1189 C1200 0.950 . S
H1190 C1202 0.950 . S
H1191 C1203 0.950 . S
C1192 H1184 0.950 . S
C1192 C1193 1.386 . S
C1192 C1194 1.391 . S
C1193 C1192 1.386 . S
C1193 C1197 1.393 1_554 S
C1194 H1186 0.950 . S
C1194 C1192 1.391 . S
C1194 C1195 1.400 . S
C1195 C1194 1.400 . S
C1195 C1196 1.398 1_554 S
C1195 C1201 1.491 1_554 S
C1196 H1187 0.950 . S
C1196 C1195 1.398 1_556 S
C1196 C1197 1.391 . S
C1197 H1185 0.950 . S
C1197 C1193 1.393 1_556 S
C1197 C1196 1.391 . S
C1198 H1188 0.950 . S
C1198 C1199 1.386 . S
C1198 C1200 1.391 . S
C1199 C1198 1.386 . S
C1199 C1203 1.393 1_556 S
C1200 H1189 0.950 . S
C1200 C1198 1.391 . S
C1200 C1201 1.400 . S
C1201 C1195 1.491 1_556 S
C1201 C1200 1.400 . S
C1201 C1202 1.398 1_556 S
C1202 H1190 0.950 . S
C1202 C1201 1.398 1_554 S
C1202 C1203 1.391 . S
C1203 H1191 0.950 . S
C1203 C1199 1.393 1_554 S
C1203 C1202 1.391 . S
H1204 C1212 0.950 . S
H1205 C1217 0.950 . S
H1206 C1214 0.950 . S
H1207 C1216 0.950 . S
H1208 C1218 0.950 . S
H1209 C1220 0.950 . S
H1210 C1222 0.950 . S
H1211 C1223 0.950 . S
C1212 H1204 0.950 . S
C1212 C1213 1.386 1_556 S
C1212 C1214 1.391 . S
C1213 C1212 1.386 1_554 S
C1213 C1217 1.393 . S
C1214 H1206 0.950 . S
C1214 C1212 1.391 . S
C1214 C1215 1.400 1_556 S
C1215 C1214 1.400 1_554 S
C1215 C1216 1.398 . S
C1215 C1221 1.491 1_554 S
C1216 H1207 0.950 . S
C1216 C1215 1.398 . S
C1216 C1217 1.391 . S
C1217 H1205 0.950 . S
C1217 C1213 1.393 . S
C1217 C1216 1.391 . S
C1218 H1208 0.950 . S
C1218 C1219 1.386 1_554 S
C1218 C1220 1.391 . S
C1219 C1218 1.386 1_556 S
C1219 C1223 1.393 . S
C1220 H1209 0.950 . S
C1220 C1218 1.391 . S
C1220 C1221 1.400 1_554 S
C1221 C1215 1.491 1_556 S
C1221 C1220 1.400 1_556 S
C1221 C1222 1.398 . S
C1222 H1210 0.950 . S
C1222 C1221 1.398 . S
C1222 C1223 1.391 . S
C1223 H1211 0.950 . S
C1223 C1219 1.393 . S
C1223 C1222 1.391 . S
H1224 C1232 0.950 1_554 S
H1225 C1237 0.950 . S
H1226 C1234 0.950 . S
H1227 C1236 0.950 . S
H1228 C1238 0.950 1_556 S
H1229 C1240 0.950 . S
H1230 C1242 0.950 . S
H1231 C1243 0.950 . S
C1232 H1224 0.950 1_556 S
C1232 C1233 1.386 . S
C1232 C1234 1.391 1_556 S
C1233 C1232 1.386 . S
C1233 C1237 1.393 . S
C1234 H1226 0.950 . S
C1234 C1232 1.391 1_554 S
C1234 C1235 1.400 1_554 S
C1235 C1234 1.400 1_556 S
C1235 C1236 1.398 . S
C1235 C1241 1.491 1_556 S
C1236 H1227 0.950 . S
C1236 C1235 1.398 . S
C1236 C1237 1.391 . S
C1237 H1225 0.950 . S
C1237 C1233 1.393 . S
C1237 C1236 1.391 . S
C1238 H1228 0.950 1_554 S
C1238 C1239 1.386 . S
C1238 C1240 1.391 1_554 S
C1239 C1238 1.386 . S
C1239 C1243 1.393 . S
C1240 H1229 0.950 . S
C1240 C1238 1.391 1_556 S
C1240 C1241 1.400 1_556 S
C1241 C1235 1.491 1_554 S
C1241 C1240 1.400 1_554 S
C1241 C1242 1.398 . S
C1242 H1230 0.950 . S
C1242 C1241 1.398 . S
C1242 C1243 1.391 . S
C1243 H1231 0.950 . S
C1243 C1239 1.393 . S
C1243 C1242 1.391 . S
H1244 C1252 0.950 1_556 S
H1245 C1257 0.950 . S
H1246 C1254 0.950 . S
H1247 C1256 0.950 . S
H1248 C1258 0.950 1_554 S
H1249 C1260 0.950 . S
H1250 C1262 0.950 . S
H1251 C1263 0.950 . S
C1252 H1244 0.950 1_554 S
C1252 C1253 1.386 . S
C1252 C1254 1.391 1_554 S
C1253 C1252 1.386 . S
C1253 C1257 1.393 . S
C1254 H1246 0.950 . S
C1254 C1252 1.391 1_556 S
C1254 C1255 1.400 1_556 S
C1255 C1254 1.400 1_554 S
C1255 C1256 1.398 . S
C1255 C1261 1.491 1_554 S
C1256 H1247 0.950 . S
C1256 C1255 1.398 . S
C1256 C1257 1.391 . S
C1257 H1245 0.950 . S
C1257 C1253 1.393 . S
C1257 C1256 1.391 . S
C1258 H1248 0.950 1_556 S
C1258 C1259 1.386 . S
C1258 C1260 1.391 1_556 S
C1259 C1258 1.386 . S
C1259 C1263 1.393 . S
C1260 H1249 0.950 . S
C1260 C1258 1.391 1_554 S
C1260 C1261 1.400 1_554 S
C1261 C1255 1.491 1_556 S
C1261 C1260 1.400 1_556 S
C1261 C1262 1.398 . S
C1262 H1250 0.950 . S
C1262 C1261 1.398 . S
C1262 C1263 1.391 . S
C1263 H1251 0.950 . S
C1263 C1259 1.393 . S
C1263 C1262 1.391 . S
H1264 C1272 0.950 . S
H1265 C1277 0.950 . S
H1266 C1274 0.950 . S
H1267 C1276 0.950 . S
H1268 C1278 0.950 . S
H1269 C1280 0.950 . S
H1270 C1282 0.950 . S
H1271 C1283 0.950 . S
C1272 H1264 0.950 . S
C1272 C1273 1.386 . S
C1272 C1274 1.391 . S
C1273 C1272 1.386 . S
C1273 C1277 1.393 . S
C1274 H1266 0.950 . S
C1274 C1272 1.391 . S
C1274 C1275 1.400 . S
C1275 C1274 1.400 . S
C1275 C1276 1.398 . S
C1275 C1281 1.491 . S
C1276 H1267 0.950 . S
C1276 C1275 1.398 . S
C1276 C1277 1.391 . S
C1277 H1265 0.950 . S
C1277 C1273 1.393 . S
C1277 C1276 1.391 . S
C1278 H1268 0.950 . S
C1278 C1279 1.386 . S
C1278 C1280 1.391 . S
C1279 C1278 1.386 . S
C1279 C1283 1.393 . S
C1280 H1269 0.950 . S
C1280 C1278 1.391 . S
C1280 C1281 1.400 . S
C1281 C1275 1.491 . S
C1281 C1280 1.400 . S
C1281 C1282 1.398 . S
C1282 H1270 0.950 . S
C1282 C1281 1.398 . S
C1282 C1283 1.391 . S
C1283 H1271 0.950 . S
C1283 C1279 1.393 . S
C1283 C1282 1.391 . S
H1284 C1292 0.950 . S
H1285 C1297 0.950 . S
H1286 C1294 0.950 . S
H1287 C1296 0.950 . S
H1288 C1298 0.950 . S
H1289 C1300 0.950 . S
H1290 C1302 0.950 . S
H1291 C1303 0.950 . S
C1292 H1284 0.950 . S
C1292 C1293 1.386 . S
C1292 C1294 1.391 . S
C1293 C1292 1.386 . S
C1293 C1297 1.393 . S
C1294 H1286 0.950 . S
C1294 C1292 1.391 . S
C1294 C1295 1.400 . S
C1295 C1294 1.400 . S
C1295 C1296 1.398 . S
C1295 C1301 1.491 . S
C1296 H1287 0.950 . S
C1296 C1295 1.398 . S
C1296 C1297 1.391 . S
C1297 H1285 0.950 . S
C1297 C1293 1.393 . S
C1297 C1296 1.391 . S
C1298 H1288 0.950 . S
C1298 C1299 1.386 . S
C1298 C1300 1.391 . S
C1299 C1298 1.386 . S
C1299 C1303 1.393 . S
C1300 H1289 0.950 . S
C1300 C1298 1.391 . S
C1300 C1301 1.400 . S
C1301 C1295 1.491 . S
C1301 C1300 1.400 . S
C1301 C1302 1.398 . S
C1302 H1290 0.950 . S
C1302 C1301 1.398 . S
C1302 C1303 1.391 . S
C1303 H1291 0.950 . S
C1303 C1299 1.393 . S
C1303 C1302 1.391 . S
H1304 C1312 0.950 . S
H1305 C1317 0.950 . S
H1306 C1314 0.950 . S
H1307 C1316 0.950 . S
H1308 C1318 0.950 . S
H1309 C1320 0.950 . S
H1310 C1322 0.950 . S
H1311 C1323 0.950 . S
C1312 H1304 0.950 . S
C1312 C1313 1.386 . S
C1312 C1314 1.391 . S
C1313 C1312 1.386 . S
C1313 C1317 1.393 . S
C1314 H1306 0.950 . S
C1314 C1312 1.391 . S
C1314 C1315 1.400 . S
C1315 C1314 1.400 . S
C1315 C1316 1.398 . S
C1315 C1321 1.491 . S
C1316 H1307 0.950 . S
C1316 C1315 1.398 . S
C1316 C1317 1.391 . S
C1317 H1305 0.950 . S
C1317 C1313 1.393 . S
C1317 C1316 1.391 . S
C1318 H1308 0.950 . S
C1318 C1319 1.386 . S
C1318 C1320 1.391 . S
C1319 C1318 1.386 . S
C1319 C1323 1.393 . S
C1320 H1309 0.950 . S
C1320 C1318 1.391 . S
C1320 C1321 1.400 . S
C1321 C1315 1.491 . S
C1321 C1320 1.400 . S
C1321 C1322 1.398 . S
C1322 H1310 0.950 . S
C1322 C1321 1.398 . S
C1322 C1323 1.391 . S
C1323 H1311 0.950 . S
C1323 C1319 1.393 . S
C1323 C1322 1.391 . S
H1324 C1332 0.950 . S
H1325 C1337 0.950 . S
H1326 C1334 0.950 . S
H1327 C1336 0.950 . S
H1328 C1338 0.950 . S
H1329 C1340 0.950 . S
H1330 C1342 0.950 . S
H1331 C1343 0.950 . S
C1332 H1324 0.950 . S
C1332 C1333 1.386 . S
C1332 C1334 1.391 . S
C1333 C1332 1.386 . S
C1333 C1337 1.393 . S
C1334 H1326 0.950 . S
C1334 C1332 1.391 . S
C1334 C1335 1.400 . S
C1335 C1334 1.400 . S
C1335 C1336 1.398 . S
C1335 C1341 1.491 . S
C1336 H1327 0.950 . S
C1336 C1335 1.398 . S
C1336 C1337 1.391 . S
C1337 H1325 0.950 . S
C1337 C1333 1.393 . S
C1337 C1336 1.391 . S
C1338 H1328 0.950 . S
C1338 C1339 1.386 . S
C1338 C1340 1.391 . S
C1339 C1338 1.386 . S
C1339 C1343 1.393 . S
C1340 H1329 0.950 . S
C1340 C1338 1.391 . S
C1340 C1341 1.400 . S
C1341 C1335 1.491 . S
C1341 C1340 1.400 . S
C1341 C1342 1.398 . S
C1342 H1330 0.950 . S
C1342 C1341 1.398 . S
C1342 C1343 1.391 . S
C1343 H1331 0.950 . S
C1343 C1339 1.393 . S
C1343 C1342 1.391 . S
C553 C9 1.183 . S
C559 C5 1.182 . S
C573 C43 1.177 . S
C579 C39 1.180 . S
C593 C73 1.188 . S
C599 C77 1.173 . S
C613 C107 1.184 . S
C619 C111 1.180 . S
C633 C145 1.164 . S
C639 C141 1.191 . S
C653 C175 1.187 . S
C659 C179 1.176 . S
C673 C209 1.188 . S
C679 C213 1.173 . S
C693 C243 1.179 . S
C699 C247 1.180 . S
C713 C281 1.164 . S
C719 C277 1.191 . S
C733 C315 1.176 . S
C739 C311 1.186 . S
C753 C349 1.163 . S
C759 C345 1.191 . S
C773 C383 1.183 . S
C779 C379 1.181 . S
C793 C413 1.179 . S
C799 C417 1.181 . S
C813 C447 1.186 . S
C819 C451 1.166 . S
C833 C481 1.182 . S
C839 C485 1.172 . S
C853 C515 1.189 . S
C859 C519 1.172 . S
C873 C33 1.411 . S
C879 C543 1.408 . S
C893 C441 1.389 . S
C899 C67 1.396 . S
C913 C475 1.404 . S
C919 C101 1.396 . S
C933 C509 1.391 . S
C939 C135 1.388 . S
C953 C339 1.409 . S
C959 C169 1.411 . S
C973 C203 1.402 . S
C979 C373 1.394 . S
C993 C237 1.389 . S
C999 C407 1.395 . S
C1013 C305 1.390 . S
C1019 C271 1.388 . S
C1033 C20 1.571 . S
C1039 C156 1.561 . S
C1053 C190 1.560 . S
C1059 C54 1.568 . S
C1073 C88 1.569 . S
C1079 C224 1.565 . S
C1093 C258 1.563 . S
C1099 C122 1.565 . S
C1113 C428 1.562 . S
C1119 C292 1.566 . S
C1133 C326 1.560 . S
C1139 C462 1.571 . S
C1153 C360 1.567 . S
C1159 C496 1.567 . S
C1173 C394 1.561 . S
C1179 C530 1.567 . S
C1193 C2 1.761 . S
C1199 C172 1.759 . S
C1213 C36 1.759 . S
C1219 C206 1.759 . S
C1233 C240 1.759 . S
C1239 C70 1.759 . S
C1253 C104 1.762 . S
C1259 C138 1.762 . S
C1273 C444 1.762 . S
C1279 C274 1.761 . S
C1293 C308 1.760 . S
C1299 C478 1.759 . S
C1313 C512 1.761 . S
C1319 C342 1.760 . S
C1333 C410 1.762 . S
C1339 C376 1.761 . S
