# Generated by pormake.
# Topology vbm, (6)-cn, num edge types: 1
# Building blocks:
#     Node 0, Type 0, BuildingBlock: CUKXOW_clean_sbu_0, # of connection points: 6
#     Node 1, Type 0, BuildingBlock: CUKXOW_clean_sbu_0, # of connection points: 6
#     Node 2, Type 0, BuildingBlock: CUKXOW_clean_sbu_0, # of connection points: 6
#     Node 3, Type 0, BuildingBlock: CUKXOW_clean_sbu_0, # of connection points: 6
#     Node 4, Type 0, BuildingBlock: CUKXOW_clean_sbu_0, # of connection points: 6
#     Node 5, Type 0, BuildingBlock: CUKXOW_clean_sbu_0, # of connection points: 6
#     Node 6, Type 0, BuildingBlock: CUKXOW_clean_sbu_0, # of connection points: 6
#     Node 7, Type 0, BuildingBlock: CUKXOW_clean_sbu_0, # of connection points: 6
#     Node 8, Type 0, BuildingBlock: CUKXOW_clean_sbu_0, # of connection points: 6
#     Node 9, Type 0, BuildingBlock: CUKXOW_clean_sbu_0, # of connection points: 6
#     Node 10, Type 0, BuildingBlock: CUKXOW_clean_sbu_0, # of connection points: 6
#     Node 11, Type 0, BuildingBlock: CUKXOW_clean_sbu_0, # of connection points: 6
#     Node 12, Type 0, BuildingBlock: CUKXOW_clean_sbu_0, # of connection points: 6
#     Node 13, Type 0, BuildingBlock: CUKXOW_clean_sbu_0, # of connection points: 6
#     Node 14, Type 0, BuildingBlock: CUKXOW_clean_sbu_0, # of connection points: 6
#     Node 15, Type 0, BuildingBlock: CUKXOW_clean_sbu_0, # of connection points: 6
#     Edge 16, Type (0, 0), BuildingBlock: XUDNAN_clean_linker_2, # of connection points: 2
#     Edge 17, Type (0, 0), BuildingBlock: XUDNAN_clean_linker_2, # of connection points: 2
#     Edge 18, Type (0, 0), BuildingBlock: XUDNAN_clean_linker_2, # of connection points: 2
#     Edge 19, Type (0, 0), BuildingBlock: XUDNAN_clean_linker_2, # of connection points: 2
#     Edge 20, Type (0, 0), BuildingBlock: XUDNAN_clean_linker_2, # of connection points: 2
#     Edge 21, Type (0, 0), BuildingBlock: XUDNAN_clean_linker_2, # of connection points: 2
#     Edge 22, Type (0, 0), BuildingBlock: XUDNAN_clean_linker_2, # of connection points: 2
#     Edge 23, Type (0, 0), BuildingBlock: XUDNAN_clean_linker_2, # of connection points: 2
#     Edge 24, Type (0, 0), BuildingBlock: XUDNAN_clean_linker_2, # of connection points: 2
#     Edge 25, Type (0, 0), BuildingBlock: XUDNAN_clean_linker_2, # of connection points: 2
#     Edge 26, Type (0, 0), BuildingBlock: XUDNAN_clean_linker_2, # of connection points: 2
#     Edge 27, Type (0, 0), BuildingBlock: XUDNAN_clean_linker_2, # of connection points: 2
#     Edge 28, Type (0, 0), BuildingBlock: XUDNAN_clean_linker_2, # of connection points: 2
#     Edge 29, Type (0, 0), BuildingBlock: XUDNAN_clean_linker_2, # of connection points: 2
#     Edge 30, Type (0, 0), BuildingBlock: XUDNAN_clean_linker_2, # of connection points: 2
#     Edge 31, Type (0, 0), BuildingBlock: XUDNAN_clean_linker_2, # of connection points: 2
#     Edge 32, Type (0, 0), BuildingBlock: XUDNAN_clean_linker_2, # of connection points: 2
#     Edge 33, Type (0, 0), BuildingBlock: XUDNAN_clean_linker_2, # of connection points: 2
#     Edge 34, Type (0, 0), BuildingBlock: XUDNAN_clean_linker_2, # of connection points: 2
#     Edge 35, Type (0, 0), BuildingBlock: XUDNAN_clean_linker_2, # of connection points: 2
#     Edge 36, Type (0, 0), BuildingBlock: XUDNAN_clean_linker_2, # of connection points: 2
#     Edge 37, Type (0, 0), BuildingBlock: XUDNAN_clean_linker_2, # of connection points: 2
#     Edge 38, Type (0, 0), BuildingBlock: XUDNAN_clean_linker_2, # of connection points: 2
#     Edge 39, Type (0, 0), BuildingBlock: XUDNAN_clean_linker_2, # of connection points: 2
#     Edge 40, Type (0, 0), BuildingBlock: XUDNAN_clean_linker_2, # of connection points: 2
#     Edge 41, Type (0, 0), BuildingBlock: XUDNAN_clean_linker_2, # of connection points: 2
#     Edge 42, Type (0, 0), BuildingBlock: XUDNAN_clean_linker_2, # of connection points: 2
#     Edge 43, Type (0, 0), BuildingBlock: XUDNAN_clean_linker_2, # of connection points: 2
#     Edge 44, Type (0, 0), BuildingBlock: XUDNAN_clean_linker_2, # of connection points: 2
#     Edge 45, Type (0, 0), BuildingBlock: XUDNAN_clean_linker_2, # of connection points: 2
#     Edge 46, Type (0, 0), BuildingBlock: XUDNAN_clean_linker_2, # of connection points: 2
#     Edge 47, Type (0, 0), BuildingBlock: XUDNAN_clean_linker_2, # of connection points: 2
#     Edge 48, Type (0, 0), BuildingBlock: XUDNAN_clean_linker_2, # of connection points: 2
#     Edge 49, Type (0, 0), BuildingBlock: XUDNAN_clean_linker_2, # of connection points: 2
#     Edge 50, Type (0, 0), BuildingBlock: XUDNAN_clean_linker_2, # of connection points: 2
#     Edge 51, Type (0, 0), BuildingBlock: XUDNAN_clean_linker_2, # of connection points: 2
#     Edge 52, Type (0, 0), BuildingBlock: XUDNAN_clean_linker_2, # of connection points: 2
#     Edge 53, Type (0, 0), BuildingBlock: XUDNAN_clean_linker_2, # of connection points: 2
#     Edge 54, Type (0, 0), BuildingBlock: XUDNAN_clean_linker_2, # of connection points: 2
#     Edge 55, Type (0, 0), BuildingBlock: XUDNAN_clean_linker_2, # of connection points: 2
#     Edge 56, Type (0, 0), BuildingBlock: XUDNAN_clean_linker_2, # of connection points: 2
#     Edge 57, Type (0, 0), BuildingBlock: XUDNAN_clean_linker_2, # of connection points: 2
#     Edge 58, Type (0, 0), BuildingBlock: XUDNAN_clean_linker_2, # of connection points: 2
#     Edge 59, Type (0, 0), BuildingBlock: XUDNAN_clean_linker_2, # of connection points: 2
#     Edge 60, Type (0, 0), BuildingBlock: XUDNAN_clean_linker_2, # of connection points: 2
#     Edge 61, Type (0, 0), BuildingBlock: XUDNAN_clean_linker_2, # of connection points: 2
#     Edge 62, Type (0, 0), BuildingBlock: XUDNAN_clean_linker_2, # of connection points: 2
#     Edge 63, Type (0, 0), BuildingBlock: XUDNAN_clean_linker_2, # of connection points: 2
# Relax obj value: 0.128
# Max RMSD: 0.179
# Mean RMSD: 0.179
data_MOF--net-vbm--node1-CUKXOW_clean_sbu_0--edge1-XUDNAN_clean_linker_2
_symmetry_space_group_name_H-M    P1
_symmetry_Int_Tables_number       1
_symmetry_cell_setting            triclinic
loop_
_symmetry_equiv_pos_as_xyz
'x, y, z'
_cell_length_a     71.174338
_cell_length_b     14.527623
_cell_length_c     60.449304
_cell_angle_alpha  89.910912
_cell_angle_beta   90.083748
_cell_angle_gamma 90.039153
loop_
_atom_site_label
_atom_site_type_symbol
_atom_site_fract_x
_atom_site_fract_y
_atom_site_fract_z
_atom_type_partial_charge
Tb0 Tb 0.10365 0.12534 0.11938 0.0
C1 C 0.12612 0.14782 0.07629 0.0
Tb2 Tb 0.14499 0.14096 0.1236 0.0
O3 O 0.10045 0.26094 0.10566 0.0
O4 O 0.12232 0.23712 0.12835 0.0
O5 O 0.11135 0.105 0.08482 0.0
C6 C 0.18201 0.17398 0.11973 0.0
O7 O 0.13979 0.1796 0.08913 0.0
C8 C 0.13174 0.97024 0.12534 0.0
C9 C 0.1226 0.13424 0.16756 0.0
O10 O 0.17278 0.10751 0.11051 0.0
O11 O 0.17034 0.22324 0.13122 0.0
O12 O 0.14611 0.99921 0.1365 0.0
O13 O 0.12625 1.03507 0.11306 0.0
O14 O 0.13928 0.15004 0.15874 0.0
O15 O 0.10724 0.12113 0.15544 0.0
C16 C 0.06768 0.06897 0.12142 0.0
O17 O 0.08223 1.02125 0.12747 0.0
O18 O 0.07342 0.1479 0.11409 0.0
C19 C 0.11525 0.2956 0.11496 0.0
Tb20 Tb 0.89256 0.97495 0.12515 0.0
C21 C 0.86818 0.97247 0.083 0.0
Tb22 Tb 0.85133 0.9697 0.13169 0.0
O23 O 0.89222 0.84432 0.10852 0.0
O24 O 0.87297 0.86712 0.13411 0.0
O25 O 0.88457 1.00069 0.09099 0.0
C26 C 0.81402 0.94097 0.12969 0.0
O27 O 0.85435 0.94508 0.09618 0.0
C28 C 0.86595 0.13742 0.13393 0.0
C29 C 0.87545 0.98912 0.17358 0.0
O30 O 0.82296 1.012 0.12221 0.0
O31 O 0.82613 0.8849 0.13852 0.0
O32 O 0.85158 0.10981 0.1453 0.0
O33 O 0.87071 0.07282 0.12119 0.0
O34 O 0.85912 0.95817 0.16621 0.0
O35 O 0.88939 1.01074 0.16001 0.0
C36 C 0.93018 0.98771 0.12781 0.0
O37 O 0.91977 0.92426 0.13648 0.0
O38 O 0.91936 0.04608 0.11752 0.0
C39 C 0.87811 0.81055 0.11925 0.0
Tb40 Tb 0.09476 0.9761 0.37082 0.0
C41 C 0.1148 0.93061 0.41573 0.0
Tb42 Tb 0.13932 0.95036 0.3716 0.0
O43 O 0.08705 0.83186 0.36624 0.0
O44 O 0.11481 0.86667 0.36816 0.0
O45 O 0.10012 0.97019 0.40596 0.0
C46 C 0.17402 0.8809 0.36831 0.0
O47 O 0.13061 0.9079 0.40513 0.0
C48 C 0.12892 0.12699 0.37572 0.0
C49 C 0.1188 1.01833 0.32793 0.0
O50 O 0.1674 0.92398 0.38544 0.0
O51 O 0.16096 0.87551 0.35331 0.0
O52 O 0.14632 0.09974 0.37529 0.0
O53 O 0.1193 0.05453 0.37457 0.0
O54 O 0.13368 0.97395 0.33611 0.0
O55 O 0.10366 1.03654 0.33987 0.0
C56 C 0.05899 1.02892 0.36695 0.0
O57 O 0.06943 0.99573 0.35133 0.0
O58 O 0.06895 1.03584 0.38501 0.0
C59 C 0.10387 0.79845 0.36587 0.0
Tb60 Tb 0.8856 0.12259 0.38181 0.0
C61 C 0.85882 0.11743 0.42201 0.0
Tb62 Tb 0.84291 0.148 0.37335 0.0
O63 O 0.88762 0.26698 0.39306 0.0
O64 O 0.86754 0.2295 0.37012 0.0
O65 O 0.87476 0.08405 0.41402 0.0
C66 C 0.80966 0.23304 0.37411 0.0
O67 O 0.84587 0.15618 0.40923 0.0
C68 C 0.85062 0.96931 0.37747 0.0
C69 C 0.86972 0.13085 0.33218 0.0
O70 O 0.82426 0.25495 0.38586 0.0
O71 O 0.81392 0.16425 0.36131 0.0
O72 O 0.8341 1.00321 0.37322 0.0
O73 O 0.86152 1.03773 0.37964 0.0
O74 O 0.85252 0.15249 0.33907 0.0
O75 O 0.88407 0.11583 0.34583 0.0
C76 C 0.92154 0.06783 0.38022 0.0
O77 O 0.90773 1.03258 0.3691 0.0
O78 O 0.91505 0.13282 0.39275 0.0
C79 C 0.87312 0.29541 0.38199 0.0
Tb80 Tb 0.85326 0.93291 0.87187 0.0
C81 C 0.88092 0.94101 0.83128 0.0
Tb82 Tb 0.89729 0.96404 0.87988 0.0
O83 O 0.84589 0.08321 0.87171 0.0
O84 O 0.87249 1.03931 0.87663 0.0
O85 O 0.86459 0.91001 0.83889 0.0
C86 C 0.93159 1.03927 0.87957 0.0
O87 O 0.89467 0.97176 0.84414 0.0
C88 C 0.88948 0.78433 0.87773 0.0
C89 C 0.8694 0.95666 0.92044 0.0
O90 O 0.91819 0.05626 0.86556 0.0
O91 O 0.9254 0.98223 0.89449 0.0
O92 O 0.90595 0.8203 0.88093 0.0
O93 O 0.87819 0.85144 0.87543 0.0
O94 O 0.88573 0.98862 0.9128 0.0
O95 O 0.85593 0.92207 0.90758 0.0
C96 C 0.81825 0.8711 0.86585 0.0
O97 O 0.82888 0.85111 0.88271 0.0
O98 O 0.82755 0.92348 0.85235 0.0
C99 C 0.86293 0.11144 0.87517 0.0
Tb100 Tb 0.14888 0.16663 0.86994 0.0
C101 C 0.12929 0.11689 0.82482 0.0
Tb102 Tb 0.10448 0.1371 0.86831 0.0
O103 O 0.15616 1.0167 0.87265 0.0
O104 O 0.12917 0.06021 0.87124 0.0
O105 O 0.14347 0.15975 0.83469 0.0
C106 C 0.06889 0.07975 0.86487 0.0
O107 O 0.11374 0.09142 0.83542 0.0
C108 C 0.11292 0.31633 0.86526 0.0
C109 C 0.12477 0.17933 0.91365 0.0
O110 O 0.07918 0.11238 0.84901 0.0
O111 O 0.07897 0.0755 0.88286 0.0
O112 O 0.09621 0.28131 0.86523 0.0
O113 O 0.1241 0.24886 0.8671 0.0
O114 O 0.11032 0.13665 0.904 0.0
O115 O 0.13971 0.20949 0.90257 0.0
C116 C 0.1836 0.23531 0.86735 0.0
O117 O 0.17656 0.19449 0.88461 0.0
O118 O 0.17095 0.23902 0.85188 0.0
C119 C 0.13885 0.98832 0.87226 0.0
Tb120 Tb 0.84836 0.11944 0.63408 0.0
C121 C 0.87675 0.08537 0.67293 0.0
Tb122 Tb 0.89114 0.09652 0.62333 0.0
O123 O 0.84638 0.97509 0.64493 0.0
O124 O 0.86634 1.01356 0.62158 0.0
O125 O 0.86015 0.1206 0.66736 0.0
C126 C 0.92649 0.04452 0.61461 0.0
O127 O 0.8898 0.06232 0.65829 0.0
C128 C 0.88226 0.27466 0.62847 0.0
C129 C 0.86241 0.11463 0.58424 0.0
O130 O 0.91721 1.0239 0.63248 0.0
O131 O 0.91556 0.09094 0.60153 0.0
O132 O 0.89874 0.24372 0.62344 0.0
O133 O 0.87229 0.20372 0.63103 0.0
O134 O 0.87874 0.07945 0.5907 0.0
O135 O 0.84951 0.14432 0.59842 0.0
C136 C 0.81357 0.18829 0.63764 0.0
O137 O 0.81789 0.1105 0.62837 0.0
O138 O 0.82882 0.2264 0.64516 0.0
C139 C 0.8608 0.94723 0.63354 0.0
Tb140 Tb 0.1438 0.89776 0.61958 0.0
C141 C 0.12596 0.94968 0.66659 0.0
Tb142 Tb 0.09937 0.92833 0.62501 0.0
O143 O 0.15215 1.04131 0.61555 0.0
O144 O 0.1243 1.0094 0.62063 0.0
O145 O 0.14009 0.91236 0.65529 0.0
C146 C 0.06422 0.99319 0.62282 0.0
O147 O 0.10934 0.97002 0.65769 0.0
C148 C 0.10968 0.74982 0.62544 0.0
C149 C 0.11729 0.88695 0.57764 0.0
O150 O 0.07071 0.93945 0.63827 0.0
O151 O 0.07773 1.01268 0.60915 0.0
O152 O 0.09248 0.77773 0.62782 0.0
O153 O 0.1191 0.82229 0.62354 0.0
O154 O 0.10308 0.92162 0.58927 0.0
O155 O 0.13373 0.8628 0.58645 0.0
C156 C 0.17788 0.82065 0.62245 0.0
O157 O 0.17163 0.867 0.60556 0.0
O158 O 0.16475 0.81593 0.6373 0.0
C159 C 0.13548 0.07667 0.61768 0.0
Tb160 Tb 0.60241 0.64387 0.13308 0.0
C161 C 0.62135 0.66357 0.08489 0.0
Tb162 Tb 0.6469 0.67538 0.12771 0.0
O163 O 0.59419 0.78815 0.13636 0.0
O164 O 0.62192 0.75558 0.13197 0.0
O165 O 0.60656 0.64193 0.09733 0.0
C166 C 0.68083 0.75513 0.12635 0.0
O167 O 0.63825 0.68378 0.09306 0.0
C168 C 0.63671 0.49732 0.12653 0.0
C169 C 0.62873 0.63681 0.17482 0.0
O170 O 0.66576 0.78572 0.11664 0.0
O171 O 0.67676 0.67967 0.13685 0.0
O172 O 0.65387 0.52572 0.12342 0.0
O173 O 0.62726 0.5693 0.12939 0.0
O174 O 0.64211 0.68055 0.16347 0.0
O175 O 0.61303 0.60481 0.16558 0.0
C176 C 0.56755 0.5748 0.13051 0.0
O177 O 0.57466 0.61549 0.14777 0.0
O178 O 0.58035 0.57 0.1153 0.0
C179 C 0.61087 0.82334 0.13451 0.0
Tb180 Tb 0.39472 0.45278 0.12767 0.0
C181 C 0.37491 0.41627 0.08087 0.0
Tb182 Tb 0.35019 0.42111 0.12452 0.0
O183 O 0.40307 0.30871 0.13162 0.0
O184 O 0.3752 0.34109 0.12859 0.0
O185 O 0.39009 0.44611 0.09166 0.0
C186 C 0.31608 0.34334 0.12264 0.0
O187 O 0.35855 0.3982 0.09051 0.0
C188 C 0.3603 0.59954 0.1216 0.0
C189 C 0.36924 0.46064 0.17041 0.0
O190 O 0.33066 0.31842 0.11125 0.0
O191 O 0.32073 0.41187 0.13531 0.0
O192 O 0.34302 0.57079 0.12009 0.0
O193 O 0.3699 0.52761 0.12366 0.0
O194 O 0.35614 0.4126 0.15974 0.0
O195 O 0.38449 0.49433 0.16045 0.0
C196 C 0.42963 0.52175 0.12604 0.0
O197 O 0.42197 0.48368 0.14328 0.0
O198 O 0.41735 0.52383 0.11012 0.0
C199 C 0.38633 0.27346 0.13087 0.0
Tb200 Tb 0.59647 0.46779 0.37342 0.0
C201 C 0.61197 0.43668 0.42198 0.0
Tb202 Tb 0.64037 0.43924 0.38182 0.0
O203 O 0.58842 0.32399 0.36966 0.0
O204 O 0.616 0.35591 0.37582 0.0
O205 O 0.59865 0.47453 0.40941 0.0
C206 C 0.67536 0.37829 0.38806 0.0
O207 O 0.62814 0.40537 0.41391 0.0
C208 C 0.63011 0.61723 0.38126 0.0
C209 C 0.6258 0.48624 0.3338 0.0
O210 O 0.66616 0.43248 0.4012 0.0
O211 O 0.6646 0.35581 0.37148 0.0
O212 O 0.64729 0.58955 0.38392 0.0
O213 O 0.62062 0.54494 0.3795 0.0
O214 O 0.63933 0.44776 0.34588 0.0
O215 O 0.60906 0.50929 0.3419 0.0
C216 C 0.56157 0.53005 0.36647 0.0
O217 O 0.57307 0.50068 0.35142 0.0
O218 O 0.57 0.52754 0.38557 0.0
C219 C 0.60496 0.28877 0.37244 0.0
Tb220 Tb 0.3889 0.65212 0.3721 0.0
C221 C 0.36871 0.69045 0.41756 0.0
Tb222 Tb 0.34446 0.68191 0.37391 0.0
O223 O 0.39722 0.79574 0.36747 0.0
O224 O 0.36932 0.7637 0.37032 0.0
O225 O 0.38262 0.64486 0.40766 0.0
C226 C 0.30987 0.75285 0.37053 0.0
O227 O 0.35394 0.72384 0.40662 0.0
C228 C 0.35452 0.50357 0.37664 0.0
C229 C 0.36406 0.63212 0.32842 0.0
O230 O 0.31635 0.70871 0.38767 0.0
O231 O 0.32303 0.75872 0.35574 0.0
O232 O 0.33719 0.53189 0.3767 0.0
O233 O 0.36418 0.57576 0.37584 0.0
O234 O 0.34933 0.66892 0.33855 0.0
O235 O 0.38014 0.61271 0.33864 0.0
C236 C 0.42389 0.58551 0.36898 0.0
O237 O 0.41142 0.58676 0.35333 0.0
O238 O 0.41643 0.61915 0.38686 0.0
C239 C 0.38051 0.831 0.36792 0.0
Tb240 Tb 0.35402 0.42106 0.87471 0.0
C241 C 0.37333 0.47585 0.82945 0.0
Tb242 Tb 0.39836 0.45117 0.87291 0.0
O243 O 0.34674 0.57102 0.87737 0.0
O244 O 0.37372 0.52703 0.87753 0.0
O245 O 0.35868 0.43774 0.83948 0.0
C246 C 0.43331 0.51808 0.87045 0.0
O247 O 0.38953 0.4937 0.83958 0.0
C248 C 0.39 0.27252 0.86798 0.0
C249 C 0.37816 0.40835 0.91825 0.0
O250 O 0.4208 0.52072 0.85485 0.0
O251 O 0.42593 0.48022 0.88789 0.0
O252 O 0.40669 0.30806 0.86752 0.0
O253 O 0.37882 0.33958 0.87063 0.0
O254 O 0.39212 0.4548 0.90857 0.0
O255 O 0.36339 0.3762 0.90717 0.0
C256 C 0.31963 0.34928 0.87128 0.0
O257 O 0.32586 0.39504 0.88827 0.0
O258 O 0.3329 0.34234 0.85667 0.0
C259 C 0.36408 0.59938 0.8778 0.0
Tb260 Tb 0.6508 0.63378 0.88038 0.0
C261 C 0.6345 0.57315 0.83346 0.0
Tb262 Tb 0.60665 0.60529 0.8737 0.0
O263 O 0.65908 0.49079 0.88502 0.0
O264 O 0.63116 0.52247 0.87916 0.0
O265 O 0.64874 0.60966 0.84473 0.0
C266 C 0.57108 0.55436 0.86679 0.0
O267 O 0.61772 0.55682 0.84223 0.0
C268 C 0.61721 0.7835 0.87364 0.0
C269 C 0.62337 0.63466 0.92172 0.0
O270 O 0.58245 0.58764 0.85206 0.0
O271 O 0.57995 0.54666 0.88557 0.0
O272 O 0.59999 0.75616 0.87144 0.0
O273 O 0.62649 0.71061 0.8751 0.0
O274 O 0.60972 0.59789 0.90944 0.0
O275 O 0.63967 0.66433 0.9134 0.0
C276 C 0.68404 0.71851 0.87775 0.0
O277 O 0.67933 0.65949 0.89298 0.0
O278 O 0.66988 0.73106 0.86452 0.0
C279 C 0.64237 0.45567 0.88263 0.0
Tb280 Tb 0.35041 0.66091 0.62523 0.0
C281 C 0.37107 0.63726 0.67063 0.0
Tb282 Tb 0.39364 0.6333 0.62527 0.0
O283 O 0.34631 0.51509 0.63462 0.0
O284 O 0.36967 0.55349 0.61668 0.0
O285 O 0.35667 0.67464 0.66006 0.0
C286 C 0.42808 0.55911 0.62724 0.0
O287 O 0.3863 0.60776 0.66013 0.0
C288 C 0.38579 0.81238 0.6294 0.0
C289 C 0.37286 0.67866 0.58048 0.0
O290 O 0.4137 0.53401 0.63901 0.0
O291 O 0.42289 0.62427 0.61383 0.0
O292 O 0.40252 0.77717 0.62897 0.0
O293 O 0.37458 0.74477 0.6285 0.0
O294 O 0.38733 0.63419 0.58961 0.0
O295 O 0.35807 0.70625 0.59215 0.0
C296 C 0.31453 0.71686 0.62518 0.0
O297 O 0.3221 0.66402 0.61032 0.0
O298 O 0.32725 0.73924 0.63958 0.0
C299 C 0.36222 0.48678 0.62678 0.0
Tb300 Tb 0.64383 0.41212 0.62527 0.0
C301 C 0.62879 0.42382 0.6748 0.0
Tb302 Tb 0.60078 0.42245 0.63458 0.0
O303 O 0.64265 0.55105 0.61098 0.0
O304 O 0.62418 0.514 0.63594 0.0
O305 O 0.64225 0.39455 0.66127 0.0
C306 C 0.56478 0.4694 0.64089 0.0
O307 O 0.61202 0.45019 0.66748 0.0
C308 C 0.6118 0.24768 0.63201 0.0
C309 C 0.61611 0.41098 0.58502 0.0
O310 O 0.5749 0.41841 0.65389 0.0
O311 O 0.57517 0.49707 0.62446 0.0
O312 O 0.59485 0.27404 0.63629 0.0
O313 O 0.62126 0.32006 0.62929 0.0
O314 O 0.60253 0.43785 0.59868 0.0
O315 O 0.63313 0.38609 0.592 0.0
C316 C 0.68103 0.38207 0.62646 0.0
O317 O 0.6686 0.32357 0.61919 0.0
O318 O 0.67245 0.45631 0.6326 0.0
C319 C 0.62845 0.5782 0.62277 0.0
H320 H 0.20452 0.30348 0.14038 0.0
H321 H 0.20586 0.07467 0.09436 0.0
H322 H 0.24017 0.09185 0.09075 0.0
H323 H 0.24015 0.4407 0.11327 0.0
H324 H 0.25045 0.48168 0.13867 0.0
H325 H 0.2259 0.45175 0.13777 0.0
H326 H 0.23079 0.33814 0.17033 0.0
H327 H 0.25538 0.36747 0.17128 0.0
H328 H 0.24831 0.24908 0.16807 0.0
H329 H 0.27417 0.13252 0.09193 0.0
H330 H 0.30595 0.197 0.09735 0.0
H331 H 0.2833 0.39965 0.1427 0.0
C332 C 0.21208 0.25732 0.12953 0.0
C333 C 0.20254 0.18772 0.11763 0.0
C334 C 0.21288 0.1284 0.10363 0.0
C335 C 0.23239 0.13753 0.10148 0.0
C336 C 0.24142 0.20628 0.11348 0.0
C337 C 0.23168 0.26535 0.12722 0.0
C338 C 0.24495 0.33335 0.13819 0.0
C339 C 0.24007 0.43276 0.13157 0.0
C340 C 0.24485 0.32125 0.16347 0.0
C341 C 0.26361 0.30349 0.12835 0.0
C342 C 0.2612 0.22983 0.11419 0.0
C343 C 0.27625 0.19018 0.10298 0.0
C344 C 0.29425 0.22722 0.10617 0.0
C345 C 0.29707 0.30315 0.12042 0.0
C346 C 0.28154 0.34133 0.13176 0.0
H347 H 0.7923 0.7955 0.14471 0.0
H348 H 0.78928 0.05713 0.11018 0.0
H349 H 0.75503 1.03873 0.10604 0.0
H350 H 0.75739 0.67857 0.11189 0.0
H351 H 0.74746 0.61594 0.13484 0.0
H352 H 0.77181 0.64969 0.13544 0.0
H353 H 0.76642 0.73369 0.17266 0.0
H354 H 0.74204 0.70019 0.17216 0.0
H355 H 0.74831 0.82 0.17457 0.0
H356 H 0.72123 0.99212 0.10503 0.0
H357 H 0.68987 0.91957 0.10745 0.0
H358 H 0.71417 0.68845 0.14288 0.0
C359 C 0.78438 0.84882 0.13635 0.0
C360 C 0.79344 0.92783 0.12777 0.0
C361 C 0.78263 0.99612 0.11689 0.0
C362 C 0.76315 0.98633 0.11446 0.0
C363 C 0.7546 0.90784 0.12303 0.0
C364 C 0.7648 0.84021 0.13379 0.0
C365 C 0.75203 0.76252 0.14134 0.0
C366 C 0.7575 0.67129 0.13021 0.0
C367 C 0.75221 0.75362 0.16669 0.0
C368 C 0.73314 0.79698 0.13303 0.0
C369 C 0.73498 0.88102 0.12252 0.0
C370 C 0.7196 0.92638 0.11325 0.0
C371 C 0.70185 0.88466 0.11468 0.0
C372 C 0.69962 0.79858 0.12533 0.0
C373 C 0.71548 0.75449 0.13468 0.0
H374 H 0.28147 0.77788 0.40111 0.0
H375 H 0.2934 0.78171 0.33075 0.0
H376 H 0.25987 0.80908 0.3228 0.0
H377 H 0.23647 0.66759 0.39846 0.0
H378 H 0.22578 0.73752 0.41958 0.0
H379 H 0.25074 0.71697 0.42007 0.0
H380 H 0.25701 0.89261 0.42018 0.0
H381 H 0.23207 0.91368 0.41992 0.0
H382 H 0.2468 0.96357 0.39883 0.0
H383 H 0.22501 0.82508 0.32216 0.0
H384 H 0.1913 0.8529 0.32897 0.0
H385 H 0.20166 0.85379 0.3997 0.0
C386 C 0.27697 0.78513 0.38407 0.0
C387 C 0.28999 0.77729 0.36651 0.0
C388 C 0.28367 0.78775 0.34444 0.0
C389 C 0.26464 0.80276 0.33975 0.0
C390 C 0.2521 0.80891 0.35734 0.0
C391 C 0.25799 0.80246 0.37908 0.0
C392 C 0.24159 0.81572 0.39483 0.0
C393 C 0.23846 0.72929 0.40907 0.0
C394 C 0.24455 0.90151 0.40929 0.0
C395 C 0.22559 0.82956 0.3785 0.0
C396 C 0.23198 0.8238 0.35697 0.0
C397 C 0.21985 0.83081 0.33894 0.0
C398 C 0.20072 0.84607 0.34296 0.0
C399 C 0.19393 0.85589 0.36482 0.0
C400 C 0.20652 0.84703 0.38282 0.0
H401 H 0.77681 0.18973 0.35214 0.0
H402 H 0.79954 0.35785 0.40511 0.0
H403 H 0.76756 0.40831 0.41487 0.0
H404 H 0.73986 0.35215 0.33595 0.0
H405 H 0.72304 0.26285 0.32984 0.0
H406 H 0.7478 0.24091 0.32668 0.0
H407 H 0.74492 0.10032 0.35286 0.0
H408 H 0.7202 0.12259 0.35635 0.0
H409 H 0.73536 0.11575 0.38021 0.0
H410 H 0.73347 0.43354 0.42049 0.0
H411 H 0.69902 0.44783 0.41889 0.0
H412 H 0.69764 0.26957 0.36135 0.0
C413 C 0.77501 0.23806 0.36559 0.0
C414 C 0.79062 0.26996 0.3779 0.0
C415 C 0.78777 0.33282 0.39544 0.0
C416 C 0.76966 0.36152 0.40118 0.0
C417 C 0.75453 0.32742 0.38909 0.0
C418 C 0.75695 0.26833 0.37143 0.0
C419 C 0.73817 0.24339 0.36107 0.0
C420 C 0.73716 0.27685 0.33695 0.0
C421 C 0.73445 0.13933 0.36273 0.0
C422 C 0.72487 0.29726 0.37579 0.0
C423 C 0.73468 0.34435 0.39196 0.0
C424 C 0.72563 0.39764 0.40781 0.0
C425 C 0.70604 0.40493 0.40682 0.0
C426 C 0.6957 0.35996 0.38999 0.0
C427 C 0.70523 0.30459 0.3744 0.0
H428 H 0.71634 0.68801 0.902 0.0
H429 H 0.69475 0.82995 0.84408 0.0
H430 H 0.72682 0.88002 0.83453 0.0
H431 H 0.75218 0.85981 0.91565 0.0
H432 H 0.7691 0.77529 0.92459 0.0
H433 H 0.74434 0.75202 0.92724 0.0
H434 H 0.74854 0.6019 0.90472 0.0
H435 H 0.77327 0.62529 0.90176 0.0
H436 H 0.75892 0.60723 0.87756 0.0
H437 H 0.76095 0.90836 0.83003 0.0
H438 H 0.79527 0.92706 0.83274 0.0
H439 H 0.79548 0.77136 0.89409 0.0
C440 C 0.71839 0.73056 0.88748 0.0
C441 C 0.70309 0.75521 0.87375 0.0
C442 C 0.70628 0.8105 0.85483 0.0
C443 C 0.72445 0.83897 0.84922 0.0
C444 C 0.7393 0.81208 0.86278 0.0
C445 C 0.73652 0.76023 0.88168 0.0
C446 C 0.75505 0.74164 0.89337 0.0
C447 C 0.75517 0.78479 0.91659 0.0
C448 C 0.75918 0.63784 0.89441 0.0
C449 C 0.76862 0.79074 0.87799 0.0
C450 C 0.75916 0.83018 0.86038 0.0
C451 C 0.76851 0.87832 0.8438 0.0
C452 C 0.78802 0.88822 0.84544 0.0
C453 C 0.798 0.85072 0.86361 0.0
C454 C 0.78818 0.8005 0.87999 0.0
H455 H 0.29086 0.33021 0.9015 0.0
H456 H 0.30375 0.3151 0.83146 0.0
H457 H 0.27023 0.28995 0.82309 0.0
H458 H 0.25521 0.14803 0.90016 0.0
H459 H 0.24051 0.20282 0.9205 0.0
H460 H 0.26556 0.22052 0.92107 0.0
H461 H 0.26032 0.39683 0.91933 0.0
H462 H 0.23526 0.37962 0.91848 0.0
H463 H 0.24668 0.44508 0.897 0.0
H464 H 0.23542 0.27871 0.82188 0.0
H465 H 0.20149 0.25633 0.8282 0.0
H466 H 0.21079 0.26382 0.89913 0.0
C467 C 0.28657 0.32074 0.88445 0.0
C468 C 0.29982 0.32493 0.86709 0.0
C469 C 0.29381 0.31182 0.84499 0.0
C470 C 0.27479 0.29807 0.84006 0.0
C471 C 0.26201 0.29588 0.85745 0.0
C472 C 0.26762 0.30468 0.87925 0.0
C473 C 0.25095 0.29589 0.89477 0.0
C474 C 0.25319 0.2118 0.91002 0.0
C475 C 0.24815 0.38465 0.90818 0.0
C476 C 0.23514 0.28195 0.87823 0.0
C477 C 0.24186 0.28375 0.8568 0.0
C478 C 0.22998 0.27601 0.83858 0.0
C479 C 0.21074 0.26393 0.84233 0.0
C480 C 0.2036 0.25799 0.86412 0.0
C481 C 0.21594 0.26769 0.88231 0.0
H482 H 0.70232 0.22834 0.61558 0.0
H483 H 0.70606 0.50294 0.64343 0.0
H484 H 0.73998 0.48188 0.64955 0.0
H485 H 0.73564 0.12139 0.65258 0.0
H486 H 0.74594 0.04851 0.63176 0.0
H487 H 0.72181 0.0844 0.62921 0.0
H488 H 0.72875 0.15212 0.59042 0.0
H489 H 0.75289 0.11608 0.59281 0.0
H490 H 0.74742 0.23499 0.58722 0.0
H491 H 0.77323 0.43198 0.65345 0.0
H492 H 0.80436 0.35722 0.65352 0.0
H493 H 0.78008 0.11492 0.62278 0.0
C494 C 0.71034 0.28395 0.62286 0.0
C495 C 0.70154 0.36738 0.62902 0.0
C496 C 0.71248 0.43853 0.63855 0.0
C497 C 0.73178 0.42723 0.64214 0.0
C498 C 0.74006 0.34431 0.63607 0.0
C499 C 0.72979 0.27392 0.62652 0.0
C500 C 0.74237 0.19205 0.62149 0.0
C501 C 0.73606 0.10653 0.63454 0.0
C502 C 0.74289 0.1727 0.5965 0.0
C503 C 0.7612 0.2276 0.62977 0.0
C504 C 0.75947 0.31555 0.63817 0.0
C505 C 0.77479 0.36314 0.64689 0.0
C506 C 0.79241 0.32005 0.64691 0.0
C507 C 0.79463 0.23036 0.63822 0.0
C508 C 0.77878 0.18353 0.62958 0.0
H509 H 0.20625 0.79629 0.59178 0.0
H510 H 0.19425 0.78858 0.66211 0.0
H511 H 0.22781 0.76275 0.67003 0.0
H512 H 0.24205 0.6125 0.59381 0.0
H513 H 0.2565 0.66523 0.57285 0.0
H514 H 0.23143 0.68236 0.57253 0.0
H515 H 0.23655 0.85884 0.57289 0.0
H516 H 0.26162 0.84228 0.57345 0.0
H517 H 0.25041 0.90993 0.59463 0.0
H518 H 0.26263 0.75435 0.67074 0.0
H519 H 0.29662 0.73721 0.66414 0.0
H520 H 0.28668 0.73243 0.59333 0.0
C521 C 0.21073 0.78795 0.60879 0.0
C522 C 0.19769 0.79469 0.62637 0.0
C523 C 0.20399 0.78326 0.64841 0.0
C524 C 0.22304 0.76908 0.65309 0.0
C525 C 0.23561 0.76445 0.6355 0.0
C526 C 0.22974 0.77122 0.61375 0.0
C527 C 0.24627 0.76098 0.59804 0.0
C528 C 0.24392 0.67515 0.58345 0.0
C529 C 0.24886 0.84821 0.58392 0.0
C530 C 0.26233 0.74921 0.6144 0.0
C531 C 0.2558 0.75299 0.6359 0.0
C532 C 0.2679 0.74964 0.654 0.0
C533 C 0.28719 0.74053 0.65007 0.0
C534 C 0.2942 0.73282 0.62827 0.0
C535 C 0.28161 0.73714 0.61017 0.0
H536 H 0.14369 0.98245 0.29311 0.0
H537 H 0.09282 0.13282 0.30986 0.0
H538 H 0.08964 0.18299 0.27153 0.0
H539 H 0.16083 0.15372 0.25224 0.0
H540 H 0.16991 0.06755 0.2337 0.0
H541 H 0.16917 0.04542 0.26304 0.0
H542 H 0.1499 0.89709 0.25596 0.0
H543 H 0.15053 0.9189 0.22663 0.0
H544 H 0.1283 0.90404 0.24043 0.0
H545 H 0.08951 0.20579 0.23144 0.0
H546 H 0.09426 0.20986 0.19104 0.0
H547 H 0.14607 0.05587 0.19866 0.0
C548 C 0.13205 1.02684 0.28874 0.0
C549 C 0.11845 0.05253 0.30469 0.0
C550 C 0.10339 0.11071 0.29815 0.0
C551 C 0.10142 0.14025 0.27631 0.0
C552 C 0.11471 0.11239 0.26097 0.0
C553 C 0.12988 0.05804 0.26676 0.0
C554 C 0.14183 1.03732 0.24651 0.0
C555 C 0.16161 0.07847 0.24903 0.0
C556 C 0.14268 0.93315 0.24213 0.0
C557 C 0.1307 0.08697 0.22858 0.0
C558 C 0.11508 0.1294 0.23743 0.0
C559 C 0.10185 0.17431 0.22428 0.0
C560 C 0.10461 0.17598 0.20137 0.0
C561 C 0.1206 0.13432 0.19186 0.0
C562 C 0.13393 0.08996 0.20565 0.0
H563 H 0.84461 0.09354 0.29855 0.0
H564 H 0.90367 0.14504 0.31195 0.0
H565 H 0.91121 0.11361 0.27302 0.0
H566 H 0.85174 0.90615 0.26193 0.0
H567 H 0.83292 0.93588 0.24326 0.0
H568 H 0.8316 0.96856 0.27195 0.0
H569 H 0.82715 0.13934 0.26069 0.0
H570 H 0.82821 0.10701 0.23196 0.0
H571 H 0.84405 0.19314 0.24262 0.0
H572 H 0.91287 0.07067 0.23364 0.0
H573 H 0.90837 1.02543 0.19482 0.0
H574 H 0.84832 0.9989 0.20612 0.0
C575 C 0.85906 0.09991 0.29315 0.0
C576 C 0.87354 0.12199 0.30828 0.0
C577 C 0.89234 0.12804 0.3007 0.0
C578 C 0.89679 0.11031 0.2786 0.0
C579 C 0.88231 0.08641 0.26426 0.0
C580 C 0.8638 0.08172 0.27108 0.0
C581 C 0.8511 0.05167 0.25223 0.0
C582 C 0.84127 0.96012 0.25768 0.0
C583 C 0.83678 0.12731 0.24654 0.0
C584 C 0.86542 1.03979 0.23389 0.0
C585 C 0.88331 0.06042 0.24128 0.0
C586 C 0.89894 0.05471 0.22757 0.0
C587 C 0.89621 1.02876 0.20554 0.0
C588 C 0.878 1.00857 0.19739 0.0
C589 C 0.86243 1.01324 0.21188 0.0
H590 H 0.85162 0.06223 0.70715 0.0
H591 H 0.9112 0.06085 0.69163 0.0
H592 H 0.91842 1.01548 0.72995 0.0
H593 H 0.85609 0.15277 0.76256 0.0
H594 H 0.83757 0.0818 0.77367 0.0
H595 H 0.83707 0.11552 0.74499 0.0
H596 H 0.83487 0.94394 0.73359 0.0
H597 H 0.83563 0.90966 0.76224 0.0
H598 H 0.85258 0.86429 0.74301 0.0
H599 H 0.91946 0.97286 0.76967 0.0
H600 H 0.91422 0.94 0.80921 0.0
H601 H 0.854 0.96307 0.79917 0.0
C602 C 0.86618 0.05336 0.71189 0.0
C603 C 0.88085 0.06534 0.69641 0.0
C604 C 0.89972 0.05187 0.70318 0.0
C605 C 0.90399 1.02591 0.7249 0.0
C606 C 0.88923 1.01301 0.73964 0.0
C607 C 0.87071 1.02647 0.73353 0.0
C608 C 0.85757 1.00765 0.75273 0.0
C609 C 0.84642 0.09462 0.75885 0.0
C610 C 0.84439 0.92655 0.74758 0.0
C611 C 0.87164 0.98255 0.77059 0.0
C612 C 0.88981 0.98598 0.76262 0.0
C613 C 0.90531 0.96932 0.77611 0.0
C614 C 0.90219 0.95063 0.79853 0.0
C615 C 0.88371 0.94818 0.80718 0.0
C616 C 0.86825 0.96268 0.79291 0.0
H617 H 0.1021 0.07774 0.79317 0.0
H618 H 0.16242 0.09897 0.80305 0.0
H619 H 0.16765 0.05691 0.76422 0.0
H620 H 0.10305 0.88456 0.75533 0.0
H621 H 0.08446 0.92784 0.73791 0.0
H622 H 0.08511 0.95775 0.76682 0.0
H623 H 0.08456 0.13084 0.75654 0.0
H624 H 0.0839 0.10146 0.7276 0.0
H625 H 0.10212 0.17606 0.738 0.0
H626 H 0.16687 1.01002 0.72506 0.0
H627 H 0.16005 0.96903 0.68648 0.0
H628 H 0.10018 0.98382 0.70005 0.0
C629 C 0.11638 0.07322 0.78713 0.0
C630 C 0.13184 0.09175 0.80123 0.0
C631 C 0.15032 0.08582 0.79263 0.0
C632 C 0.15348 0.06156 0.77057 0.0
C633 C 0.13803 0.04412 0.75711 0.0
C634 C 0.11982 0.05027 0.76489 0.0
C635 C 0.10582 1.03036 0.74647 0.0
C636 C 0.09391 0.94504 0.75197 0.0
C637 C 0.09337 0.11472 0.74188 0.0
C638 C 0.11907 1.01176 0.72726 0.0
C639 C 0.13756 1.01946 0.73396 0.0
C640 C 0.15245 1.00405 0.71956 0.0
C641 C 0.1484 0.98042 0.69764 0.0
C642 C 0.12958 0.97312 0.69013 0.0
C643 C 0.11471 0.98931 0.70522 0.0
H644 H 0.60067 0.51168 0.29967 0.0
H645 H 0.6603 0.5117 0.31493 0.0
H646 H 0.66737 0.55378 0.27625 0.0
H647 H 0.60542 0.41013 0.24543 0.0
H648 H 0.58669 0.4771 0.23341 0.0
H649 H 0.58626 0.4493 0.26246 0.0
H650 H 0.58355 0.62262 0.27196 0.0
H651 H 0.58405 0.651 0.24294 0.0
H652 H 0.60092 0.70191 0.26153 0.0
H653 H 0.66797 0.60092 0.23626 0.0
H654 H 0.66227 0.63647 0.19689 0.0
H655 H 0.60239 0.59765 0.20687 0.0
C656 C 0.61522 0.5207 0.29488 0.0
C657 C 0.62994 0.50871 0.31037 0.0
C658 C 0.64879 0.52012 0.30336 0.0
C659 C 0.65295 0.54446 0.28144 0.0
C660 C 0.63813 0.55609 0.26661 0.0
C661 C 0.61965 0.54352 0.27294 0.0
C662 C 0.60641 0.5572 0.25352 0.0
C663 C 0.59556 0.46812 0.24841 0.0
C664 C 0.59294 0.638 0.25774 0.0
C665 C 0.62033 0.57989 0.23533 0.0
C666 C 0.63853 0.57983 0.24332 0.0
C667 C 0.65379 0.60069 0.22979 0.0
C668 C 0.65039 0.62121 0.20745 0.0
C669 C 0.6319 0.61967 0.19874 0.0
C670 C 0.6167 0.59884 0.21297 0.0
H671 H 0.39157 0.60739 0.29642 0.0
H672 H 0.33122 0.5983 0.30693 0.0
H673 H 0.32656 0.55176 0.26824 0.0
H674 H 0.38886 0.70261 0.24081 0.0
H675 H 0.40852 0.6375 0.2305 0.0
H676 H 0.40747 0.66833 0.25933 0.0
H677 H 0.41085 0.4967 0.27022 0.0
H678 H 0.41187 0.46531 0.24142 0.0
H679 H 0.39451 0.41358 0.25923 0.0
H680 H 0.32805 0.50135 0.22935 0.0
H681 H 0.33533 0.46136 0.19088 0.0
H682 H 0.39463 0.51038 0.20341 0.0
C683 C 0.3774 0.59553 0.29054 0.0
C684 C 0.36175 0.60651 0.30479 0.0
C685 C 0.34343 0.59104 0.29639 0.0
C686 C 0.34062 0.5641 0.27442 0.0
C687 C 0.35624 0.55385 0.26084 0.0
C688 C 0.37427 0.57 0.26838 0.0
C689 C 0.38846 0.5564 0.24986 0.0
C690 C 0.39894 0.64659 0.24483 0.0
C691 C 0.40224 0.47834 0.25553 0.0
C692 C 0.37554 0.52951 0.23086 0.0
C693 C 0.35705 0.52773 0.23778 0.0
C694 C 0.34246 0.50292 0.22367 0.0
C695 C 0.3468 0.47983 0.20182 0.0
C696 C 0.36557 0.48253 0.19402 0.0
C697 C 0.38014 0.50803 0.20881 0.0
H698 H 0.39938 0.48838 0.79523 0.0
H699 H 0.34064 0.53288 0.8113 0.0
H700 H 0.33462 0.58463 0.77325 0.0
H701 H 0.40454 0.68153 0.75691 0.0
H702 H 0.41912 0.61941 0.73769 0.0
H703 H 0.41947 0.58977 0.76666 0.0
H704 H 0.41114 0.42104 0.75699 0.0
H705 H 0.4108 0.45014 0.72801 0.0
H706 H 0.39052 0.39737 0.74058 0.0
H707 H 0.33445 0.63193 0.73437 0.0
H708 H 0.33938 0.66188 0.69498 0.0
H709 H 0.39792 0.58035 0.70152 0.0
C710 C 0.38532 0.50962 0.79068 0.0
C711 C 0.37047 0.50661 0.80628 0.0
C712 C 0.3522 0.53388 0.79966 0.0
C713 C 0.34864 0.56397 0.77809 0.0
C714 C 0.36344 0.56564 0.7631 0.0
C715 C 0.38138 0.53844 0.76889 0.0
C716 C 0.39438 0.54302 0.74891 0.0
C717 C 0.41032 0.61258 0.75278 0.0
C718 C 0.40217 0.44718 0.74329 0.0
C719 C 0.38085 0.5768 0.73113 0.0
C720 C 0.36317 0.5903 0.73994 0.0
C721 C 0.34821 0.62154 0.72721 0.0
C722 C 0.35123 0.63862 0.70475 0.0
C723 C 0.36907 0.62366 0.69494 0.0
C724 C 0.38412 0.59257 0.70844 0.0
H725 H 0.60779 0.54496 0.80137 0.0
H726 H 0.66806 0.54267 0.81248 0.0
H727 H 0.67304 0.49697 0.77356 0.0
H728 H 0.60568 0.3513 0.76403 0.0
H729 H 0.58793 0.40244 0.74663 0.0
H730 H 0.58905 0.43149 0.77557 0.0
H731 H 0.59153 0.60451 0.76552 0.0
H732 H 0.59033 0.57608 0.73657 0.0
H733 H 0.6098 0.64258 0.747 0.0
H734 H 0.67139 0.45035 0.73341 0.0
H735 H 0.66352 0.41857 0.69441 0.0
H736 H 0.60434 0.45743 0.70911 0.0
C737 C 0.62205 0.53432 0.79568 0.0
C738 C 0.63755 0.54691 0.81004 0.0
C739 C 0.65597 0.5336 0.80181 0.0
C740 C 0.65893 0.50721 0.77974 0.0
C741 C 0.64334 0.49519 0.76606 0.0
C742 C 0.62526 0.50918 0.77364 0.0
C743 C 0.61097 0.49563 0.75531 0.0
C744 C 0.59762 0.41543 0.76071 0.0
C745 C 0.60002 0.58503 0.75084 0.0
C746 C 0.62383 0.472 0.73619 0.0
C747 C 0.64242 0.4711 0.74279 0.0
C748 C 0.65688 0.45098 0.72806 0.0
C749 C 0.65224 0.43266 0.70592 0.0
C750 C 0.6333 0.43551 0.69862 0.0
C751 C 0.61895 0.45478 0.7141 0.0
H752 H 0.10517 0.08483 0.94629 0.0
H753 H 0.14492 0.30784 0.93596 0.0
H754 H 0.14828 0.32619 0.97611 0.0
H755 H 0.08291 0.18352 0.99641 0.0
H756 H 0.08047 0.07308 0.00974 0.0
H757 H 0.07983 0.08112 0.97998 0.0
H758 H 0.10691 0.96263 0.97748 0.0
H759 H 0.10773 0.9548 0.0072 0.0
H760 H 0.12862 0.98463 0.99195 0.0
H761 H 0.14967 0.31399 0.01658 0.0
H762 H 0.14767 0.27729 0.05617 0.0
H763 H 0.10664 0.0637 0.042 0.0
C764 C 0.11427 0.13863 0.95252 0.0
C765 C 0.12481 0.19474 0.9379 0.0
C766 C 0.13679 0.2635 0.94674 0.0
C767 C 0.13878 0.27477 0.96957 0.0
C768 C 0.12865 0.21707 0.98351 0.0
C769 C 0.11649 0.15084 0.97547 0.0
C770 C 0.10792 0.09591 0.99439 0.0
C771 C 0.08651 0.10923 0.99517 0.0
C772 C 0.11311 0.99342 0.99264 0.0
C773 C 0.11745 0.14081 0.01415 0.0
C774 C 0.12932 0.21058 0.00735 0.0
C775 C 0.14031 0.26011 0.02219 0.0
C776 C 0.13915 0.2382 0.04467 0.0
C777 C 0.12702 0.16751 0.05224 0.0
C778 C 0.11594 0.1185 0.03673 0.0
H779 H 0.89387 1.00343 0.95417 0.0
H780 H 0.83651 0.9147 0.94134 0.0
H781 H 0.83018 0.91341 0.98122 0.0
H782 H 0.90094 0.86553 0.00245 0.0
H783 H 0.9145 0.95093 0.01705 0.0
H784 H 0.91463 0.94876 0.98727 0.0
H785 H 0.90385 0.11904 0.98627 0.0
H786 H 0.90372 0.12179 0.01607 0.0
H787 H 0.88285 0.15232 0.00083 0.0
H788 H 0.82991 0.91694 0.02193 0.0
H789 H 0.83571 0.92559 0.0619 0.0
H790 H 0.89324 1.01197 0.04938 0.0
C791 C 0.87995 0.98438 0.95974 0.0
C792 C 0.86572 0.95916 0.94452 0.0
C793 C 0.84771 0.93413 0.95256 0.0
C794 C 0.84391 0.9333 0.97523 0.0
C795 C 0.85824 0.95776 0.98973 0.0
C796 C 0.87588 0.98299 0.98241 0.0
C797 C 0.8888 1.00425 0.00174 0.0
C798 C 0.90572 0.93842 0.00215 0.0
C799 C 0.89518 0.10537 0.00119 0.0
C800 C 0.87565 0.98611 0.02098 0.0
C801 C 0.85809 0.95971 0.01356 0.0
C802 C 0.84357 0.93785 0.028 0.0
C803 C 0.84706 0.9429 0.05071 0.0
C804 C 0.86495 0.9695 0.05884 0.0
C805 C 0.8794 0.99169 0.04371 0.0
H806 H 0.14224 0.9163 0.44834 0.0
H807 H 0.08214 0.89465 0.4369 0.0
H808 H 0.07703 0.86746 0.47652 0.0
H809 H 0.14472 0.74233 0.4935 0.0
H810 H 0.16174 0.80723 0.50915 0.0
H811 H 0.16125 0.8158 0.47939 0.0
H812 H 0.15778 0.9928 0.4823 0.0
H813 H 0.15824 0.98475 0.51201 0.0
H814 H 0.1388 1.04042 0.49833 0.0
H815 H 0.07759 0.85599 0.51695 0.0
H816 H 0.08387 0.86122 0.55693 0.0
H817 H 0.14359 0.88942 0.54391 0.0
C818 C 0.12808 0.90406 0.45419 0.0
C819 C 0.11259 0.90768 0.43949 0.0
C820 C 0.09422 0.89291 0.44781 0.0
C821 C 0.09116 0.8768 0.47031 0.0
C822 C 0.10659 0.87551 0.48443 0.0
C823 C 0.12471 0.88851 0.47683 0.0
C824 C 0.13853 0.88975 0.49605 0.0
C825 C 0.15238 0.80895 0.49442 0.0
C826 C 0.14895 0.98245 0.49724 0.0
C827 C 0.12523 0.87757 0.51552 0.0
C828 C 0.10691 0.86868 0.50827 0.0
C829 C 0.09189 0.86179 0.52288 0.0
C830 C 0.09561 0.86523 0.54558 0.0
C831 C 0.11421 0.87535 0.55357 0.0
C832 C 0.12926 0.8801 0.53829 0.0
H833 H 0.88547 0.06729 0.54969 0.0
H834 H 0.82945 0.16832 0.56465 0.0
H835 H 0.82214 0.17288 0.52482 0.0
H836 H 0.8928 0.20598 0.50184 0.0
H837 H 0.90534 0.11831 0.48683 0.0
H838 H 0.90598 0.11951 0.5166 0.0
H839 H 0.89374 0.95147 0.51746 0.0
H840 H 0.893 0.94984 0.48767 0.0
H841 H 0.87217 0.92312 0.50334 0.0
H842 H 0.82106 0.1703 0.48365 0.0
H843 H 0.8265 0.16473 0.4435 0.0
H844 H 0.88327 0.06549 0.45509 0.0
C845 C 0.87163 0.08997 0.54464 0.0
C846 C 0.85803 0.11728 0.56034 0.0
C847 C 0.84012 0.14704 0.55297 0.0
C848 C 0.83579 0.14965 0.53037 0.0
C849 C 0.84951 0.12225 0.51537 0.0
C850 C 0.86707 0.09314 0.52215 0.0
C851 C 0.87943 0.06987 0.50257 0.0
C852 C 0.89692 0.13215 0.50193 0.0
C853 C 0.8849 0.96748 0.50278 0.0
C854 C 0.86612 0.09139 0.48371 0.0
C855 C 0.84891 0.12098 0.4915 0.0
C856 C 0.83445 0.14692 0.47732 0.0
C857 C 0.83771 0.14355 0.45452 0.0
C858 C 0.85533 0.11461 0.4461 0.0
C859 C 0.86962 0.08732 0.46096 0.0
H860 H 0.64782 0.6832 0.05131 0.0
H861 H 0.58809 0.64278 0.06299 0.0
H862 H 0.58255 0.63652 0.02302 0.0
H863 H 0.64246 0.82691 0.00188 0.0
H864 H 0.66232 0.77702 0.98787 0.0
H865 H 0.66191 0.78186 0.01766 0.0
H866 H 0.66712 0.60562 0.01955 0.0
H867 H 0.66752 0.60023 0.98979 0.0
H868 H 0.65118 0.53006 0.00512 0.0
H869 H 0.58305 0.62839 0.98238 0.0
H870 H 0.58962 0.62036 0.9426 0.0
H871 H 0.64894 0.66715 0.95562 0.0
C872 C 0.63356 0.67376 0.04546 0.0
C873 C 0.61843 0.66342 0.0605 0.0
C874 C 0.6 0.65065 0.05202 0.0
C875 C 0.59664 0.64715 0.02925 0.0
C876 C 0.6118 0.65673 0.01495 0.0
C877 C 0.6299 0.67002 0.02259 0.0
C878 C 0.64361 0.6762 0.00336 0.0
C879 C 0.65314 0.77116 0.00266 0.0
C880 C 0.65822 0.59838 0.00453 0.0
C881 C 0.63035 0.66335 0.98386 0.0
C882 C 0.61208 0.65247 0.99107 0.0
C883 C 0.59729 0.63722 0.97648 0.0
C884 C 0.60121 0.63246 0.95385 0.0
C885 C 0.61981 0.64303 0.94585 0.0
C886 C 0.63456 0.65943 0.96114 0.0
H887 H 0.39613 0.50642 0.95178 0.0
H888 H 0.36093 0.26751 0.93945 0.0
H889 H 0.35862 0.23933 0.97937 0.0
H890 H 0.42092 0.40987 0.00098 0.0
H891 H 0.42111 0.51828 0.01545 0.0
H892 H 0.42171 0.5163 0.98563 0.0
H893 H 0.39227 0.62067 0.9843 0.0
H894 H 0.39153 0.62269 0.01407 0.0
H895 H 0.37125 0.58524 0.9986 0.0
H896 H 0.35729 0.24308 0.01979 0.0
H897 H 0.35779 0.27636 0.05964 0.0
H898 H 0.39431 0.51086 0.04791 0.0
C899 C 0.38828 0.44722 0.95753 0.0
C900 C 0.37869 0.38923 0.9424 0.0
C901 C 0.36829 0.31334 0.95062 0.0
C902 C 0.36695 0.29636 0.97332 0.0
C903 C 0.37612 0.35562 0.9878 0.0
C904 C 0.38669 0.42926 0.98039 0.0
C905 C 0.39419 0.48465 -0.00012 0.0
C906 C 0.41577 0.4821 0.00052 0.0
C907 C 0.38687 0.5842 0.99916 0.0
C908 C 0.3858 0.43155 0.01924 0.0
C909 C 0.37552 0.35718 0.0117 0.0
C910 C 0.36548 0.30037 0.02596 0.0
C911 C 0.36578 0.32019 0.04858 0.0
C912 C 0.37612 0.39594 0.05689 0.0
C913 C 0.38651 0.45169 0.04204 0.0
H914 H 0.63753 0.39227 0.45471 0.0
H915 H 0.57916 0.46865 0.44432 0.0
H916 H 0.57389 0.46427 0.48458 0.0
H917 H 0.62954 0.23697 0.50122 0.0
H918 H 0.65055 0.27192 0.51562 0.0
H919 H 0.64966 0.27679 0.48585 0.0
H920 H 0.65864 0.44953 0.48699 0.0
H921 H 0.65953 0.44526 0.51675 0.0
H922 H 0.6446 0.52796 0.50309 0.0
H923 H 0.57498 0.45635 0.52574 0.0
H924 H 0.58231 0.44764 0.56539 0.0
H925 H 0.64018 0.37772 0.54983 0.0
C926 C 0.62358 0.4072 0.46086 0.0
C927 C 0.60874 0.43056 0.44623 0.0
C928 C 0.59077 0.45062 0.45507 0.0
C929 C 0.58761 0.44812 0.47796 0.0
C930 C 0.60255 0.42558 0.49187 0.0
C931 C 0.62018 0.40548 0.48372 0.0
C932 C 0.63393 0.38631 0.50241 0.0
C933 C 0.64135 0.28709 0.5012 0.0
C934 C 0.65013 0.45646 0.5023 0.0
C935 C 0.62128 0.39957 0.52235 0.0
C936 C 0.60322 0.42171 0.5158 0.0
C937 C 0.58905 0.43879 0.53107 0.0
C938 C 0.59342 0.43373 0.55363 0.0
C939 C 0.61186 0.41198 0.5609 0.0
C940 C 0.62593 0.39411 0.54492 0.0
H941 H 0.39081 0.58683 0.54606 0.0
H942 H 0.35417 0.81801 0.56043 0.0
H943 H 0.35111 0.8501 0.5207 0.0
H944 H 0.41432 0.69198 0.4974 0.0
H945 H 0.41502 0.58543 0.48219 0.0
H946 H 0.41586 0.58392 0.512 0.0
H947 H 0.38703 0.47518 0.51282 0.0
H948 H 0.38607 0.4766 0.48305 0.0
H949 H 0.36571 0.50917 0.4989 0.0
H950 H 0.34983 0.85231 0.4801 0.0
H951 H 0.35066 0.8256 0.44002 0.0
H952 H 0.38815 0.59335 0.45007 0.0
C953 C 0.38245 0.64512 0.5408 0.0
C954 C 0.37273 0.69991 0.55643 0.0
C955 C 0.36166 0.77465 0.54885 0.0
C956 C 0.35988 0.79382 0.52627 0.0
C957 C 0.36926 0.73775 0.51128 0.0
C958 C 0.38038 0.66507 0.51809 0.0
C959 C 0.38804 0.6132 0.49817 0.0
C960 C 0.40959 0.619 0.4974 0.0
C961 C 0.38131 0.51258 0.49825 0.0
C962 C 0.37918 0.66733 0.47926 0.0
C963 C 0.36851 0.73911 0.48737 0.0
C964 C 0.35826 0.79685 0.4735 0.0
C965 C 0.35876 0.78071 0.45071 0.0
C966 C 0.36947 0.7074 0.4418 0.0
C967 C 0.38001 0.65057 0.45632 0.0
H968 H 0.9555 0.11117 0.10915 0.0
H969 H 0.95188 0.86434 0.14946 0.0
H970 H 0.98639 0.85738 0.15158 0.0
H971 H 0.9967 0.04198 0.07817 0.0
H972 H 0.00691 0.15551 0.07748 0.0
H973 H 0.98177 0.14212 0.07894 0.0
H974 H 0.98094 0.24252 0.1143 0.0
H975 H 0.00606 0.25653 0.11288 0.0
H976 H 0.99539 0.21136 0.13766 0.0
H977 H 0.02116 0.87385 0.14894 0.0
H978 H 0.05432 0.91834 0.14315 0.0
H979 H 0.0362 0.1565 0.10538 0.0
C980 C 0.96203 0.05601 0.11846 0.0
C981 C 0.95099 0.9882 0.12913 0.0
C982 C 0.96002 0.91697 0.14113 0.0
C983 C 0.97964 0.91227 0.14241 0.0
C984 C 0.99016 0.97942 0.13163 0.0
C985 C 0.98174 0.05031 0.11997 0.0
C986 C 0.99651 0.11372 0.11007 0.0
C987 C 0.9954 0.11328 0.08466 0.0
C988 C 0.99461 0.21185 0.11929 0.0
C989 C 0.01442 0.06771 0.11818 0.0
C990 C 0.01038 0.98984 0.13042 0.0
C991 C 0.02452 0.93484 0.13943 0.0
C992 C 0.0433 0.96046 0.13602 0.0
C993 C 0.04781 1.04076 0.12388 0.0
C994 C 0.03315 0.09482 0.11479 0.0
H995 H 0.95234 0.11697 0.4054 0.0
H996 H 0.93586 0.97932 0.34472 0.0
H997 H 0.96917 0.96188 0.33448 0.0
H998 H 0.99194 0.23968 0.38398 0.0
H999 H 0.00665 0.22267 0.40795 0.0
H1000 H 0.98146 0.22529 0.41091 0.0
H1001 H 0.98208 0.06496 0.42969 0.0
H1002 H 0.00729 0.06239 0.42705 0.0
H1003 H 0.99332 0.97009 0.4158 0.0
H1004 H 0.00352 0.96864 0.32936 0.0
H1005 H 0.03793 0.97585 0.33211 0.0
H1006 H 0.03342 0.09758 0.39745 0.0
C1007 C 0.95583 0.08243 0.39009 0.0
C1008 C 0.94158 0.04964 0.37578 0.0
C1009 C 0.94658 1.00453 0.35593 0.0
C1010 C 0.96544 0.99486 0.3499 0.0
C1011 C 0.97916 1.02931 0.36409 0.0
C1012 C 0.97471 0.07033 0.384 0.0
C1013 C 0.99241 0.09791 0.39648 0.0
C1014 C 0.99315 0.20262 0.40003 0.0
C1015 C 0.99386 0.0457 0.41856 0.0
C1016 C 0.00743 0.06673 0.38032 0.0
C1017 C -0.00066 1.02875 0.36163 0.0
C1018 C 0.01006 0.99722 0.344 0.0
C1019 C 0.02961 1.00214 0.3457 0.0
C1020 C 0.03835 1.03692 0.36502 0.0
C1021 C 0.0271 0.07063 0.3825 0.0
H1022 H 0.04359 1.01738 0.8965 0.0
H1023 H 0.04749 0.12669 0.82976 0.0
H1024 H 0.01307 0.13584 0.82764 0.0
H1025 H 0.00176 0.87567 0.88538 0.0
H1026 H 0.99175 0.89487 0.91236 0.0
H1027 H 0.01688 0.89647 0.9088 0.0
H1028 H 0.01809 0.05931 0.92613 0.0
H1029 H 0.99293 0.05882 0.92938 0.0
H1030 H 0.00417 0.15045 0.91421 0.0
H1031 H 0.97883 0.14454 0.83321 0.0
H1032 H 0.94563 0.12658 0.84369 0.0
H1033 H 0.96253 1.00097 0.90581 0.0
C1034 C 0.03713 0.04198 0.88138 0.0
C1035 C 0.04822 0.0717 0.86332 0.0
C1036 C 0.0393 0.10348 0.8438 0.0
C1037 C 0.01974 0.10957 0.84246 0.0
C1038 C 0.00919 0.08226 0.86067 0.0
C1039 C 0.01744 0.04696 0.87958 0.0
C1040 C 0.00253 1.01946 0.89634 0.0
C1041 C 0.00327 0.91543 0.90099 0.0
C1042 C 0.00456 0.07536 0.91779 0.0
C1043 C 0.98474 0.04569 0.88389 0.0
C1044 C 0.98905 0.08315 0.8635 0.0
C1045 C 0.97522 0.11448 0.84904 0.0
C1046 C 0.9564 0.10452 0.85521 0.0
C1047 C 0.95151 0.06232 0.87552 0.0
C1048 C 0.96589 1.03379 0.89022 0.0
H1049 H 0.95282 0.97001 0.64312 0.0
H1050 H 0.94652 0.1008 0.57896 0.0
H1051 H 0.98096 0.10511 0.57475 0.0
H1052 H 0.99312 0.09573 0.66053 0.0
H1053 H 0.00452 0.99998 0.67396 0.0
H1054 H 0.97928 1.00296 0.67184 0.0
H1055 H 0.97934 0.84427 0.65237 0.0
H1056 H 0.00457 0.84018 0.65473 0.0
H1057 H 0.99355 0.82788 0.62803 0.0
H1058 H 0.01587 0.10464 0.57828 0.0
H1059 H 0.04938 0.08338 0.5875 0.0
H1060 H 0.03375 0.94862 0.64888 0.0
C1061 C 0.95873 0.99806 0.62805 0.0
C1062 C 0.947 1.03492 0.61132 0.0
C1063 C 0.95523 0.07188 0.59193 0.0
C1064 C 0.97479 0.07506 0.58943 0.0
C1065 C 0.98599 1.04042 0.60641 0.0
C1066 C 0.97832 1.00127 0.6252 0.0
C1067 C 0.99367 0.96896 0.64089 0.0
C1068 C 0.99258 1.01997 0.66312 0.0
C1069 C 0.99273 0.86409 0.64419 0.0
C1070 C 0.0111 0.99675 0.62802 0.0
C1071 C 0.00629 1.0385 0.60826 0.0
C1072 C 0.01983 0.07146 0.59363 0.0
C1073 C 0.03884 0.05953 0.59907 0.0
C1074 C 0.04416 1.01448 0.61888 0.0
C1075 C 0.03008 0.9836 0.63365 0.0
H1076 H 0.45719 0.53787 0.15812 0.0
H1077 H 0.44803 0.54141 0.08714 0.0
H1078 H 0.48223 0.54901 0.08103 0.0
H1079 H 0.49671 0.70191 0.15696 0.0
H1080 H 0.50913 0.64521 0.17913 0.0
H1081 H 0.48385 0.64054 0.17802 0.0
H1082 H 0.48531 0.4625 0.17918 0.0
H1083 H 0.5106 0.46659 0.17995 0.0
H1084 H 0.49881 0.40194 0.15861 0.0
H1085 H 0.5171 0.5423 0.08231 0.0
H1086 H 0.55093 0.54984 0.09071 0.0
H1087 H 0.53844 0.56519 0.16086 0.0
C1088 C 0.46244 0.54153 0.14133 0.0
C1089 C 0.44998 0.53882 0.12307 0.0
C1090 C 0.45731 0.5438 0.10135 0.0
C1091 C 0.47673 0.54748 0.09771 0.0
C1092 C 0.48867 0.54787 0.11598 0.0
C1093 C 0.48188 0.5474 0.13738 0.0
C1094 C 0.49794 0.55162 0.15398 0.0
C1095 C 0.49684 0.6401 0.16784 0.0
C1096 C 0.49817 0.46552 0.1688 0.0
C1097 C 0.51477 0.55323 0.13852 0.0
C1098 C 0.509 0.54945 0.11669 0.0
C1099 C 0.5218 0.54651 0.09931 0.0
C1100 C 0.541 0.55015 0.10428 0.0
C1101 C 0.54731 0.55835 0.12641 0.0
C1102 C 0.534 0.55908 0.14379 0.0
H1103 H 0.45307 0.59525 0.39911 0.0
H1104 H 0.44022 0.53504 0.33043 0.0
H1105 H 0.47402 0.52077 0.32239 0.0
H1106 H 0.49421 0.72985 0.38936 0.0
H1107 H 0.50725 0.68561 0.41264 0.0
H1108 H 0.48196 0.6889 0.41354 0.0
H1109 H 0.48091 0.51393 0.42174 0.0
H1110 H 0.5062 0.51038 0.4212 0.0
H1111 H 0.4928 0.43536 0.40344 0.0
H1112 H 0.50888 0.52137 0.32104 0.0
H1113 H 0.54308 0.51784 0.32738 0.0
H1114 H 0.53417 0.57216 0.39716 0.0
C1115 C 0.45742 0.57778 0.38248 0.0
C1116 C 0.44404 0.5662 0.36537 0.0
C1117 C 0.45022 0.54392 0.34379 0.0
C1118 C 0.4694 0.53615 0.33902 0.0
C1119 C 0.48226 0.55012 0.35606 0.0
C1120 C 0.4766 0.56893 0.37744 0.0
C1121 C 0.49348 0.57954 0.39266 0.0
C1122 C 0.49426 0.67677 0.40263 0.0
C1123 C 0.49334 0.50537 0.41083 0.0
C1124 C 0.50945 0.56431 0.37642 0.0
C1125 C 0.50258 0.54834 0.35538 0.0
C1126 C 0.51444 0.53319 0.33746 0.0
C1127 C 0.53386 0.5318 0.34121 0.0
C1128 C 0.54126 0.5448 0.36273 0.0
C1129 C 0.52889 0.56253 0.38051 0.0
H1130 H 0.46257 0.49564 0.89996 0.0
H1131 H 0.44951 0.58089 0.83283 0.0
H1132 H 0.48332 0.59399 0.82465 0.0
H1133 H 0.50343 0.6481 0.90682 0.0
H1134 H 0.51645 0.56503 0.92285 0.0
H1135 H 0.49115 0.56538 0.92373 0.0
H1136 H 0.49087 0.39377 0.91217 0.0
H1137 H 0.51616 0.39329 0.91091 0.0
H1138 H 0.50258 0.35945 0.88708 0.0
H1139 H 0.51804 0.58849 0.82277 0.0
H1140 H 0.55228 0.58358 0.82851 0.0
H1141 H 0.54373 0.50679 0.89719 0.0
C1142 C 0.46688 0.51853 0.88368 0.0
C1143 C 0.45346 0.53738 0.867 0.0
C1144 C 0.45957 0.56642 0.84585 0.0
C1145 C 0.47874 0.57361 0.84101 0.0
C1146 C 0.49164 0.55218 0.85756 0.0
C1147 C 0.48606 0.52675 0.87859 0.0
C1148 C 0.50298 0.50814 0.89328 0.0
C1149 C 0.50353 0.57571 0.91282 0.0
C1150 C 0.50315 0.40768 0.90133 0.0
C1151 C 0.51887 0.52642 0.87713 0.0
C1152 C 0.51192 0.55093 0.85659 0.0
C1153 C 0.52368 0.57009 0.83881 0.0
C1154 C 0.54312 0.56664 0.84222 0.0
C1155 C 0.55064 0.54485 0.86327 0.0
C1156 C 0.53835 0.52322 0.88089 0.0
H1157 H 0.45999 0.61011 0.60451 0.0
H1158 H 0.44049 0.44437 0.65967 0.0
H1159 H 0.47333 0.40776 0.66948 0.0
H1160 H 0.49928 0.4597 0.58957 0.0
H1161 H 0.5145 0.55407 0.5822 0.0
H1162 H 0.48942 0.56562 0.5792 0.0
H1163 H 0.49025 0.71153 0.60375 0.0
H1164 H 0.5153 0.69976 0.60706 0.0
H1165 H 0.50036 0.70499 0.63108 0.0
H1166 H 0.50801 0.39583 0.67464 0.0
H1167 H 0.54259 0.39516 0.67263 0.0
H1168 H 0.54031 0.5639 0.61339 0.0
C1169 C 0.46267 0.56519 0.61848 0.0
C1170 C 0.4477 0.5299 0.63135 0.0
C1171 C 0.45173 0.47176 0.64955 0.0
C1172 C 0.47035 0.45096 0.65531 0.0
C1173 C 0.4848 0.48824 0.64259 0.0
C1174 C 0.48123 0.54298 0.62436 0.0
C1175 C 0.49945 0.57327 0.61343 0.0
C1176 C 0.50074 0.53591 0.5897 0.0
C1177 C 0.50145 0.67865 0.61386 0.0
C1178 C 0.51378 0.52759 0.6285 0.0
C1179 C 0.50496 0.47955 0.6453 0.0
C1180 C 0.51508 0.43265 0.66149 0.0
C1181 C 0.53473 0.43306 0.66025 0.0
C1182 C 0.54414 0.47945 0.64287 0.0
C1183 C 0.5335 0.52812 0.6269 0.0
H1184 H 0.14226 0.81736 0.15006 0.0
H1185 H 0.11234 0.89934 0.09059 0.0
H1186 H 0.10745 0.73634 0.08105 0.0
H1187 H 0.16507 0.61466 0.12757 0.0
H1188 H 0.16204 0.54521 0.15204 0.0
H1189 H 0.16392 0.66857 0.15438 0.0
H1190 H 0.13219 0.67434 0.17518 0.0
H1191 H 0.13031 0.55096 0.17313 0.0
H1192 H 0.11166 0.62307 0.16276 0.0
H1193 H 0.10659 0.56824 0.07687 0.0
H1194 H 0.10542 0.40041 0.0806 0.0
H1195 H 0.13402 0.41773 0.14396 0.0
C1196 C 0.13464 0.80064 0.13507 0.0
C1197 C 0.1278 0.87135 0.12094 0.0
C1198 C 0.11775 0.8468 0.10162 0.0
C1199 C 0.11499 0.75423 0.09599 0.0
C1200 C 0.12214 0.68636 0.10999 0.0
C1201 C 0.13146 0.70777 0.12934 0.0
C1202 C 0.13679 0.62008 0.14183 0.0
C1203 C 0.15823 0.61166 0.14409 0.0
C1204 C 0.12716 0.61694 0.16457 0.0
C1205 C 0.12896 0.54633 0.12643 0.0
C1206 C 0.12088 0.58714 0.10804 0.0
C1207 C 0.11272 0.53553 0.09126 0.0
C1208 C 0.11216 0.4399 0.09357 0.0
C1209 C 0.11948 0.39552 0.11262 0.0
C1210 C 0.12841 0.44944 0.12914 0.0
H1211 H 0.85746 0.28987 0.15942 0.0
H1212 H 0.88188 0.20763 0.09672 0.0
H1213 H 0.88473 0.37046 0.08586 0.0
H1214 H 0.83131 0.48661 0.13945 0.0
H1215 H 0.83634 0.55853 0.16301 0.0
H1216 H 0.83555 0.43517 0.16616 0.0
H1217 H 0.86923 0.43578 0.1824 0.0
H1218 H 0.87 0.5592 0.17961 0.0
H1219 H 0.88796 0.4894 0.16701 0.0
H1220 H 0.88372 0.53809 0.08072 0.0
H1221 H 0.88434 0.70634 0.08371 0.0
H1222 H 0.86277 0.68891 0.15074 0.0
C1223 C 0.8635 0.30654 0.14347 0.0
C1224 C 0.86934 0.23594 0.12882 0.0
C1225 C 0.87731 0.26024 0.10819 0.0
C1226 C 0.87886 0.35263 0.10181 0.0
C1227 C 0.87263 0.42038 0.11634 0.0
C1228 C 0.8655 0.39918 0.13695 0.0
C1229 C 0.86087 0.48676 0.14971 0.0
C1230 C 0.83976 0.49204 0.15489 0.0
C1231 C 0.87272 0.49316 0.17094 0.0
C1232 C 0.86655 0.56024 0.13301 0.0
C1233 C 0.87294 0.51939 0.11377 0.0
C1234 C 0.87893 0.5709 0.09575 0.0
C1235 C 0.87916 0.66665 0.09763 0.0
C1236 C 0.87372 0.71095 0.11748 0.0
C1237 C 0.86686 0.65709 0.1353 0.0
H1238 H 0.14887 0.28792 0.38324 0.0
H1239 H 0.09407 0.18624 0.36335 0.0
H1240 H 0.08362 0.34563 0.35651 0.0
H1241 H 0.13068 0.4896 0.41261 0.0
H1242 H 0.14992 0.56357 0.40482 0.0
H1243 H 0.15359 0.44132 0.40747 0.0
H1244 H 0.16632 0.43623 0.36744 0.0
H1245 H 0.16249 0.55833 0.36458 0.0
H1246 H 0.15202 0.47963 0.3451 0.0
H1247 H 0.07936 0.51158 0.35009 0.0
H1248 H 0.07899 0.67947 0.34979 0.0
H1249 H 0.13557 0.68591 0.37687 0.0
C1250 C 0.13465 0.29955 0.37752 0.0
C1251 C 0.12231 0.2241 0.37357 0.0
C1252 C 0.10379 0.24223 0.36634 0.0
C1253 C 0.09776 0.33277 0.36234 0.0
C1254 C 0.11028 0.40524 0.36603 0.0
C1255 C 0.12821 0.39039 0.37392 0.0
C1256 C 0.13833 0.48226 0.37755 0.0
C1257 C 0.14343 0.49493 0.40207 0.0
C1258 C 0.15583 0.48951 0.36279 0.0
C1259 C 0.12327 0.55094 0.37032 0.0
C1260 C 0.1074 0.50367 0.36344 0.0
C1261 C 0.0916 0.54922 0.35567 0.0
C1262 C 0.09162 0.64532 0.35556 0.0
C1263 C 0.10718 0.6971 0.36343 0.0
C1264 C 0.12349 0.64894 0.37059 0.0
H1265 H 0.88685 0.45092 0.40351 0.0
H1266 H 0.84781 0.36393 0.35244 0.0
H1267 H 0.84004 0.52629 0.34471 0.0
H1268 H 0.85838 0.64066 0.4238 0.0
H1269 H 0.87807 0.71554 0.42915 0.0
H1270 H 0.88102 0.5925 0.43055 0.0
H1271 H 0.90801 0.60299 0.40204 0.0
H1272 H 0.90502 0.72603 0.40038 0.0
H1273 H 0.9038 0.65717 0.37564 0.0
H1274 H 0.83635 0.69542 0.34213 0.0
H1275 H 0.83462 0.86298 0.34672 0.0
H1276 H 0.87561 0.84964 0.39984 0.0
C1277 C 0.87665 0.46628 0.39073 0.0
C1278 C 0.86797 0.39417 0.37849 0.0
C1279 C 0.85465 0.41736 0.362 0.0
C1280 C 0.85021 0.50965 0.35743 0.0
C1281 C 0.85912 0.57889 0.36952 0.0
C1282 C 0.87193 0.55881 0.386 0.0
C1283 C 0.87894 0.64746 0.39687 0.0
C1284 C 0.87379 0.64912 0.42156 0.0
C1285 C 0.90021 0.65906 0.39353 0.0
C1286 C 0.868 0.72029 0.38396 0.0
C1287 C 0.85681 0.67827 0.36817 0.0
C1288 C 0.84506 0.72895 0.35441 0.0
C1289 C 0.84423 0.82453 0.35714 0.0
C1290 C 0.85507 0.87017 0.37349 0.0
C1291 C 0.86743 0.81726 0.38689 0.0
H1292 H 0.84346 0.27197 0.86526 0.0
H1293 H 0.89692 0.17149 0.88993 0.0
H1294 H 0.90812 0.33143 0.89374 0.0
H1295 H 0.8625 0.46321 0.83349 0.0
H1296 H 0.84359 0.54136 0.83977 0.0
H1297 H 0.83932 0.41909 0.83917 0.0
H1298 H 0.82633 0.42618 0.87906 0.0
H1299 H 0.83062 0.54846 0.8798 0.0
H1300 H 0.84063 0.47478 0.90074 0.0
H1301 H 0.91375 0.49774 0.89516 0.0
H1302 H 0.91481 0.66492 0.89295 0.0
H1303 H 0.85786 0.67033 0.86681 0.0
C1304 C 0.85752 0.28399 0.87148 0.0
C1305 C 0.86943 0.20879 0.87719 0.0
C1306 C 0.88769 0.22736 0.88521 0.0
C1307 C 0.89411 0.31822 0.88755 0.0
C1308 C 0.88213 0.39053 0.88178 0.0
C1309 C 0.86425 0.37512 0.87382 0.0
C1310 C 0.85457 0.46674 0.86849 0.0
C1311 C 0.84971 0.47295 0.84375 0.0
C1312 C 0.83699 0.47979 0.88288 0.0
C1313 C 0.86987 0.5359 0.87471 0.0
C1314 C 0.88552 0.48909 0.88241 0.0
C1315 C 0.90161 0.53501 0.88912 0.0
C1316 C 0.902 0.63089 0.88774 0.0
C1317 C 0.88646 0.68232 0.87963 0.0
C1318 C 0.86997 0.63378 0.87317 0.0
H1319 H 0.14497 0.42898 0.87474 0.0
H1320 H 0.08718 0.43611 0.85143 0.0
H1321 H 0.08781 0.60388 0.85115 0.0
H1322 H 0.14166 0.62704 0.91029 0.0
H1323 H 0.16447 0.67373 0.90378 0.0
H1324 H 0.16038 0.5516 0.9017 0.0
H1325 H 0.17135 0.55401 0.86093 0.0
H1326 H 0.17563 0.67604 0.86294 0.0
H1327 H 0.16033 0.63198 0.84165 0.0
H1328 H 0.09283 0.76993 0.85568 0.0
H1329 H 0.10385 0.92944 0.86098 0.0
H1330 H 0.15898 0.82707 0.87929 0.0
C1331 C 0.13262 0.4661 0.86926 0.0
C1332 C 0.11597 0.4181 0.86322 0.0
C1333 C 0.1001 0.47004 0.85632 0.0
C1334 C 0.10024 0.56612 0.85609 0.0
C1335 C 0.11646 0.61152 0.8626 0.0
C1336 C 0.13252 0.56411 0.86873 0.0
C1337 C 0.14796 0.63274 0.87483 0.0
C1338 C 0.15397 0.62052 0.89909 0.0
C1339 C 0.16482 0.62311 0.85915 0.0
C1340 C 0.13787 0.7247 0.87134 0.0
C1341 C 0.11964 0.70997 0.86446 0.0
C1342 C 0.10717 0.78264 0.86082 0.0
C1343 C 0.11351 0.87321 0.86396 0.0
C1344 C 0.13225 0.89112 0.87042 0.0
C1345 C 0.14458 0.81555 0.87421 0.0
H1346 H 0.84895 0.79331 0.65699 0.0
H1347 H 0.88301 0.87692 0.60096 0.0
H1348 H 0.88927 0.71382 0.59236 0.0
H1349 H 0.87879 0.60298 0.67361 0.0
H1350 H 0.85963 0.52944 0.6819 0.0
H1351 H 0.85711 0.65266 0.68331 0.0
H1352 H 0.82734 0.64233 0.65881 0.0
H1353 H 0.82993 0.5191 0.65707 0.0
H1354 H 0.82871 0.58716 0.63216 0.0
H1355 H 0.89187 0.54421 0.58937 0.0
H1356 H 0.89409 0.37688 0.59451 0.0
H1357 H 0.85934 0.39472 0.65324 0.0
C1358 C 0.85774 0.77704 0.64292 0.0
C1359 C 0.86541 0.84834 0.62953 0.0
C1360 C 0.87695 0.82408 0.61142 0.0
C1361 C 0.88049 0.73139 0.60633 0.0
C1362 C 0.87254 0.66295 0.61958 0.0
C1363 C 0.86161 0.68418 0.63771 0.0
C1364 C 0.8556 0.59635 0.64975 0.0
C1365 C 0.86324 0.59531 0.67356 0.0
C1366 C 0.83412 0.58564 0.64943 0.0
C1367 C 0.86498 0.52261 0.63562 0.0
C1368 C 0.87442 0.56342 0.61816 0.0
C1369 C 0.88452 0.51163 0.60296 0.0
C1370 C 0.88562 0.41625 0.606 0.0
C1371 C 0.87675 0.37208 0.62411 0.0
C1372 C 0.86592 0.42597 0.63895 0.0
H1373 H 0.10427 0.18987 0.63008 0.0
H1374 H 0.16011 0.19663 0.60113 0.0
H1375 H 0.15937 0.36446 0.60046 0.0
H1376 H 0.08636 0.39102 0.59821 0.0
H1377 H 0.07271 0.43582 0.62085 0.0
H1378 H 0.07691 0.31378 0.61875 0.0
H1379 H 0.09094 0.31362 0.65824 0.0
H1380 H 0.08693 0.43577 0.66039 0.0
H1381 H 0.11017 0.38986 0.66468 0.0
H1382 H 0.15446 0.53133 0.60471 0.0
H1383 H 0.14367 0.69091 0.61048 0.0
H1384 H 0.0904 0.58806 0.63504 0.0
C1385 C 0.11616 0.22686 0.6233 0.0
C1386 C 0.13231 0.17862 0.61573 0.0
C1387 C 0.14759 0.23058 0.60719 0.0
C1388 C 0.14738 0.32675 0.60671 0.0
C1389 C 0.13168 0.37236 0.61468 0.0
C1390 C 0.11617 0.32494 0.62254 0.0
C1391 C 0.10121 0.39367 0.62999 0.0
C1392 C 0.08323 0.38292 0.61612 0.0
C1393 C 0.09707 0.38254 0.6548 0.0
C1394 C 0.11092 0.48575 0.62523 0.0
C1395 C 0.12856 0.47102 0.61655 0.0
C1396 C 0.14059 0.54393 0.61134 0.0
C1397 C 0.13439 0.6346 0.61478 0.0
C1398 C 0.11625 0.65251 0.6232 0.0
C1399 C 0.10436 0.57667 0.62851 0.0
H1400 H 0.64226 0.93684 0.12223 0.0
H1401 H 0.5861 0.94367 0.1503 0.0
H1402 H 0.58681 0.11142 0.15062 0.0
H1403 H 0.65979 0.13847 0.154 0.0
H1404 H 0.6737 0.18326 0.13152 0.0
H1405 H 0.6695 0.06119 0.13369 0.0
H1406 H 0.65596 0.06043 0.09404 0.0
H1407 H 0.65994 0.18261 0.09177 0.0
H1408 H 0.63676 0.13626 0.08715 0.0
H1409 H 0.59173 0.27787 0.14623 0.0
H1410 H 0.60254 0.43752 0.1406 0.0
H1411 H 0.65615 0.33561 0.11697 0.0
C1412 C 0.63029 0.97376 0.12874 0.0
C1413 C 0.61406 0.92547 0.13617 0.0
C1414 C 0.59868 0.97754 0.14435 0.0
C1415 C 0.59888 0.0737 0.14463 0.0
C1416 C 0.61466 0.11929 0.13681 0.0
C1417 C 0.63026 0.07189 0.12929 0.0
C1418 C 0.64531 0.14075 0.12198 0.0
C1419 C 0.66313 0.13028 0.13615 0.0
C1420 C 0.64975 0.1293 0.09726 0.0
C1421 C 0.63553 0.23288 0.12644 0.0
C1422 C 0.61778 0.21795 0.13485 0.0
C1423 C 0.60568 0.29067 0.13982 0.0
C1424 C 0.61189 0.38141 0.13646 0.0
C1425 C 0.63014 0.39969 0.12836 0.0
C1426 C 0.6421 0.32399 0.12322 0.0
H1427 H 0.34046 0.76205 0.11364 0.0
H1428 H 0.39492 0.65876 0.13428 0.0
H1429 H 0.4059 0.81799 0.14001 0.0
H1430 H 0.35883 0.96294 0.08361 0.0
H1431 H 0.33986 1.03814 0.0915 0.0
H1432 H 0.33585 0.91601 0.08915 0.0
H1433 H 0.32351 0.91241 0.12936 0.0
H1434 H 0.32762 1.03443 0.13182 0.0
H1435 H 0.3381 0.95595 0.15139 0.0
H1436 H 0.41095 0.98426 0.14487 0.0
H1437 H 0.41163 0.15212 0.14515 0.0
H1438 H 0.35454 0.16072 0.11965 0.0
C1439 C 0.35473 0.7733 0.11926 0.0
C1440 C 0.36687 0.69724 0.12354 0.0
C1441 C 0.3854 0.71509 0.13081 0.0
C1442 C 0.39173 0.80561 0.13422 0.0
C1443 C 0.37945 0.87867 0.1301 0.0
C1444 C 0.36142 0.86426 0.12248 0.0
C1445 C 0.3515 0.9568 0.11878 0.0
C1446 C 0.3462 0.96919 0.0943 0.0
C1447 C 0.33415 0.96537 0.13373 0.0
C1448 C 0.36679 1.02514 0.12565 0.0
C1449 C 0.38265 0.97723 0.13228 0.0
C1450 C 0.39868 1.02236 0.13956 0.0
C1451 C 0.39886 0.11857 0.13965 0.0
C1452 C 0.3832 0.17118 0.13237 0.0
C1453 C 0.36673 0.12334 0.12548 0.0
H1454 H 0.63601 0.17561 0.38539 0.0
H1455 H 0.5804 0.16964 0.35557 0.0
H1456 H 0.58109 1.00206 0.35484 0.0
H1457 H 0.65406 0.97501 0.35364 0.0
H1458 H 0.66752 0.92957 0.37644 0.0
H1459 H 0.66343 0.05171 0.37433 0.0
H1460 H 0.64911 0.05147 0.41363 0.0
H1461 H 0.65303 0.92924 0.4158 0.0
H1462 H 0.62979 0.9754 0.41981 0.0
H1463 H 0.58576 0.83577 0.35931 0.0
H1464 H 0.59629 0.67593 0.36559 0.0
H1465 H 0.64954 0.77783 0.39061 0.0
C1466 C 0.62417 0.13881 0.37844 0.0
C1467 C 0.60809 0.18709 0.37066 0.0
C1468 C 0.59286 0.13555 0.36183 0.0
C1469 C 0.59304 1.03954 0.3613 0.0
C1470 C 0.60866 0.99384 0.36947 0.0
C1471 C 0.62413 1.04091 0.37759 0.0
C1472 C 0.63899 0.97203 0.38523 0.0
C1473 C 0.65707 0.98273 0.3716 0.0
C1474 C 0.64296 0.9827 0.4101 0.0
C1475 C 0.62924 0.88036 0.38031 0.0
C1476 C 0.61168 0.89535 0.37136 0.0
C1477 C 0.59959 0.82283 0.36609 0.0
C1478 C 0.60563 0.73214 0.36979 0.0
C1479 C 0.62371 0.71415 0.37845 0.0
C1480 C 0.63566 0.78951 0.38381 0.0
H1481 H 0.34849 0.94332 0.37769 0.0
H1482 H 0.40617 0.95188 0.35428 0.0
H1483 H 0.40552 0.11972 0.35441 0.0
H1484 H 0.333 0.1476 0.34504 0.0
H1485 H 0.31774 0.19063 0.36643 0.0
H1486 H 0.32204 0.06873 0.36413 0.0
H1487 H 0.3331 0.06479 0.40489 0.0
H1488 H 0.32899 0.18679 0.40725 0.0
H1489 H 0.35182 0.14009 0.41366 0.0
H1490 H 0.4005 0.28586 0.35948 0.0
H1491 H 0.38948 0.44492 0.36526 0.0
H1492 H 0.33439 0.34142 0.38315 0.0
C1493 C 0.36081 0.98075 0.37226 0.0
C1494 C 0.37744 0.93301 0.36606 0.0
C1495 C 0.39327 0.98547 0.35926 0.0
C1496 C 0.39311 0.08163 0.35928 0.0
C1497 C 0.37691 0.12671 0.36593 0.0
C1498 C 0.36088 0.07886 0.37196 0.0
C1499 C 0.34545 0.14718 0.37822 0.0
C1500 C 0.32855 0.13797 0.36252 0.0
C1501 C 0.33949 0.13389 0.40245 0.0
C1502 C 0.3555 0.23949 0.37495 0.0
C1503 C 0.37372 0.22517 0.36804 0.0
C1504 C 0.38617 0.29818 0.36463 0.0
C1505 C 0.37982 0.38858 0.36803 0.0
C1506 C 0.3611 0.40624 0.3745 0.0
C1507 C 0.34878 0.33026 0.37805 0.0
H1508 H 0.34388 0.7615 0.88365 0.0
H1509 H 0.39913 0.65835 0.86664 0.0
H1510 H 0.41015 0.81742 0.8606 0.0
H1511 H 0.34267 0.95424 0.84524 0.0
H1512 H 0.3315 1.03298 0.86411 0.0
H1513 H 0.32736 0.91095 0.8666 0.0
H1514 H 0.33832 0.91532 0.90739 0.0
H1515 H 0.34236 1.03744 0.90507 0.0
H1516 H 0.36108 0.96252 0.91401 0.0
H1517 H 0.41515 0.98374 0.85516 0.0
H1518 H 0.41576 0.15162 0.85473 0.0
H1519 H 0.35795 0.15975 0.87769 0.0
C1520 C 0.35831 0.77272 0.87866 0.0
C1521 C 0.37067 0.69677 0.87541 0.0
C1522 C 0.38943 0.71459 0.86913 0.0
C1523 C 0.39578 0.80502 0.8656 0.0
C1524 C 0.38329 0.87799 0.86871 0.0
C1525 C 0.36502 0.86357 0.87546 0.0
C1526 C 0.35495 0.95592 0.87851 0.0
C1527 C 0.33811 0.96397 0.86267 0.0
C1528 C 0.34881 0.96853 0.90269 0.0
C1529 C 0.37042 1.02429 0.8723 0.0
C1530 C 0.38649 0.97652 0.86648 0.0
C1531 C 0.40271 1.02174 0.85987 0.0
C1532 C 0.40284 0.11794 0.85967 0.0
C1533 C 0.38696 0.17035 0.86626 0.0
C1534 C 0.37031 0.12243 0.87242 0.0
H1535 H 0.61214 0.34195 0.86789 0.0
H1536 H 0.66575 0.33768 0.90232 0.0
H1537 H 0.66499 0.16964 0.90345 0.0
H1538 H 0.59205 0.14157 0.89831 0.0
H1539 H 0.58008 0.09611 0.8744 0.0
H1540 H 0.58407 0.21826 0.87679 0.0
H1541 H 0.60086 0.21791 0.83886 0.0
H1542 H 0.59708 0.09566 0.83646 0.0
H1543 H 0.62052 0.14194 0.83451 0.0
H1544 H 0.66041 1.00207 0.89897 0.0
H1545 H 0.65005 0.84222 0.89224 0.0
H1546 H 0.59878 0.94449 0.86218 0.0
C1547 C 0.62348 0.30547 0.87601 0.0
C1548 C 0.63905 0.35419 0.88498 0.0
C1549 C 0.65369 0.30306 0.8952 0.0
C1550 C 0.65346 0.20689 0.89595 0.0
C1551 C 0.63837 0.1607 0.88655 0.0
C1552 C 0.62345 0.20758 0.87705 0.0
C1553 C 0.60911 0.13859 0.86816 0.0
C1554 C 0.5902 0.14928 0.88013 0.0
C1555 C 0.60676 0.14918 0.843 0.0
C1556 C 0.61849 0.04693 0.87401 0.0
C1557 C 0.63544 0.06197 0.88447 0.0
C1558 C 0.64708 0.98924 0.89093 0.0
C1559 C 0.64117 0.89846 0.88688 0.0
C1560 C 0.6237 0.88045 0.87662 0.0
C1561 C 0.61222 0.95605 0.87012 0.0
H1562 H 0.35672 0.93193 0.64378 0.0
H1563 H 0.40811 0.92095 0.6053 0.0
H1564 H 0.40723 0.0883 0.60029 0.0
H1565 H 0.33469 0.12265 0.61162 0.0
H1566 H 0.32462 0.17651 0.63567 0.0
H1567 H 0.32823 0.05371 0.63524 0.0
H1568 H 0.34779 0.06546 0.67123 0.0
H1569 H 0.34438 0.18834 0.67166 0.0
H1570 H 0.36782 0.14145 0.67215 0.0
H1571 H 0.40258 0.25713 0.60091 0.0
H1572 H 0.39303 0.41922 0.60558 0.0
H1573 H 0.34457 0.33061 0.64355 0.0
C1574 C 0.3675 0.96483 0.63393 0.0
C1575 C 0.38248 0.91243 0.62484 0.0
C1576 C 0.39651 0.95883 0.61246 0.0
C1577 C 0.39617 0.05437 0.60948 0.0
C1578 C 0.38168 0.10448 0.61902 0.0
C1579 C 0.36747 0.06191 0.63085 0.0
C1580 C 0.35394 0.13444 0.6398 0.0
C1581 C 0.3342 0.12102 0.63 0.0
C1582 C 0.35346 0.13226 0.66522 0.0
C1583 C 0.36296 0.22334 0.63132 0.0
C1584 C 0.37895 0.20378 0.61935 0.0
C1585 C 0.38999 0.27338 0.61012 0.0
C1586 C 0.38449 0.36552 0.61291 0.0
C1587 C 0.36806 0.38818 0.62486 0.0
C1588 C 0.3572 0.31569 0.63427 0.0
H1589 H 0.63783 0.73046 0.5975 0.0
H1590 H 0.61077 0.64937 0.65881 0.0
H1591 H 0.6073 0.81259 0.66906 0.0
H1592 H 0.66293 0.92909 0.61865 0.0
H1593 H 0.65892 0.99956 0.59454 0.0
H1594 H 0.66006 0.8761 0.59191 0.0
H1595 H 0.6272 0.87398 0.57348 0.0
H1596 H 0.62613 0.99748 0.57567 0.0
H1597 H 0.60768 0.92772 0.58737 0.0
H1598 H 0.60696 0.982 0.67321 0.0
H1599 H 0.60501 0.15006 0.66854 0.0
H1600 H 0.63099 0.12832 0.60396 0.0
C1601 C 0.6311 0.74735 0.61302 0.0
C1602 C 0.62467 0.67692 0.62744 0.0
C1603 C 0.61581 0.70175 0.64751 0.0
C1604 C 0.61391 0.79443 0.65356 0.0
C1605 C 0.62075 0.86202 0.63928 0.0
C1606 C 0.62882 0.84015 0.61921 0.0
C1607 C 0.63391 0.92724 0.60645 0.0
C1608 C 0.65523 0.93332 0.60267 0.0
C1609 C 0.62308 0.93187 0.58444 0.0
C1610 C 0.62732 1.0013 0.62246 0.0
C1611 C 0.62011 0.96139 0.64144 0.0
C1612 C 0.61263 1.01401 0.65849 0.0
C1613 C 0.61172 0.10956 0.65575 0.0
C1614 C 0.6182 0.15231 0.63614 0.0
C1615 C 0.62651 0.09769 0.61942 0.0
loop_
_geom_bond_atom_site_label_1
_geom_bond_atom_site_label_2
_geom_bond_distance
_geom_bond_site_symmetry_2
_ccdc_geom_bond_type
Tb0 O3 2.453 . S
Tb0 O4 2.596 . S
Tb0 O5 2.374 . S
Tb0 O13 2.343 . S
Tb0 O15 2.353 . S
Tb0 O17 2.427 . S
Tb0 O18 2.513 . S
C1 O5 1.251 . S
C1 O7 1.263 . S
Tb2 O4 2.343 . S
Tb2 O7 2.353 . S
Tb2 O10 2.427 . S
Tb2 O11 2.513 . S
Tb2 O12 2.453 1_545 S
Tb2 O13 2.596 . S
Tb2 O14 2.374 . S
O3 Tb0 2.453 . S
O3 C19 1.245 . S
O4 Tb0 2.596 . S
O4 Tb2 2.343 . S
O4 C19 1.259 . S
O5 Tb0 2.374 . S
O5 C1 1.251 . S
C6 O10 1.275 . S
C6 O11 1.246 . S
O7 C1 1.263 . S
O7 Tb2 2.353 . S
C8 O12 1.245 . S
C8 O13 1.259 1_565 S
C9 O14 1.250 . S
C9 O15 1.263 . S
O10 Tb2 2.427 . S
O10 C6 1.275 . S
O11 Tb2 2.513 . S
O11 C6 1.246 . S
O12 Tb2 2.453 1_565 S
O12 C8 1.245 . S
O13 Tb0 2.343 . S
O13 Tb2 2.596 . S
O13 C8 1.259 1_545 S
O14 Tb2 2.374 . S
O14 C9 1.250 . S
O15 Tb0 2.353 . S
O15 C9 1.263 . S
C16 O17 1.275 . S
C16 O18 1.246 . S
O17 Tb0 2.427 . S
O17 C16 1.275 . S
O18 Tb0 2.513 . S
O18 C16 1.246 . S
C19 O3 1.245 . S
C19 O4 1.259 . S
Tb20 O23 2.453 . S
Tb20 O24 2.596 . S
Tb20 O25 2.374 . S
Tb20 O33 2.343 . S
Tb20 O35 2.353 . S
Tb20 O37 2.427 . S
Tb20 O38 2.513 . S
C21 O25 1.251 . S
C21 O27 1.263 . S
Tb22 O24 2.343 . S
Tb22 O27 2.353 . S
Tb22 O30 2.427 . S
Tb22 O31 2.513 . S
Tb22 O32 2.453 1_565 S
Tb22 O33 2.596 . S
Tb22 O34 2.374 . S
O23 Tb20 2.453 . S
O23 C39 1.245 . S
O24 Tb20 2.596 . S
O24 Tb22 2.343 . S
O24 C39 1.259 . S
O25 Tb20 2.374 . S
O25 C21 1.251 . S
C26 O30 1.275 . S
C26 O31 1.246 . S
O27 C21 1.263 . S
O27 Tb22 2.353 . S
C28 O32 1.245 . S
C28 O33 1.259 1_545 S
C29 O34 1.250 . S
C29 O35 1.263 . S
O30 Tb22 2.427 . S
O30 C26 1.275 . S
O31 Tb22 2.513 . S
O31 C26 1.246 . S
O32 Tb22 2.453 1_545 S
O32 C28 1.245 . S
O33 Tb20 2.343 . S
O33 Tb22 2.596 . S
O33 C28 1.259 1_565 S
O34 Tb22 2.374 . S
O34 C29 1.250 . S
O35 Tb20 2.353 . S
O35 C29 1.263 . S
C36 O37 1.275 . S
C36 O38 1.246 . S
O37 Tb20 2.427 . S
O37 C36 1.275 . S
O38 Tb20 2.513 . S
O38 C36 1.246 . S
C39 O23 1.245 . S
C39 O24 1.259 . S
Tb40 O43 2.453 . S
Tb40 O44 2.596 . S
Tb40 O45 2.374 . S
Tb40 O53 2.343 . S
Tb40 O55 2.353 . S
Tb40 O57 2.427 . S
Tb40 O58 2.513 . S
C41 O45 1.251 . S
C41 O47 1.263 . S
Tb42 O44 2.343 . S
Tb42 O47 2.353 . S
Tb42 O50 2.427 . S
Tb42 O51 2.513 . S
Tb42 O52 2.453 1_565 S
Tb42 O53 2.596 . S
Tb42 O54 2.374 . S
O43 Tb40 2.453 . S
O43 C59 1.245 . S
O44 Tb40 2.596 . S
O44 Tb42 2.343 . S
O44 C59 1.259 . S
O45 Tb40 2.374 . S
O45 C41 1.251 . S
C46 O50 1.275 . S
C46 O51 1.246 . S
O47 C41 1.263 . S
O47 Tb42 2.353 . S
C48 O52 1.245 . S
C48 O53 1.259 1_545 S
C49 O54 1.250 . S
C49 O55 1.263 . S
O50 Tb42 2.427 . S
O50 C46 1.275 . S
O51 Tb42 2.513 . S
O51 C46 1.246 . S
O52 Tb42 2.453 1_545 S
O52 C48 1.245 . S
O53 Tb40 2.343 . S
O53 Tb42 2.596 . S
O53 C48 1.259 1_565 S
O54 Tb42 2.374 . S
O54 C49 1.250 . S
O55 Tb40 2.353 . S
O55 C49 1.263 . S
C56 O57 1.275 . S
C56 O58 1.246 . S
O57 Tb40 2.427 . S
O57 C56 1.275 . S
O58 Tb40 2.513 . S
O58 C56 1.246 . S
C59 O43 1.245 . S
C59 O44 1.259 . S
Tb60 O63 2.453 . S
Tb60 O64 2.596 . S
Tb60 O65 2.374 . S
Tb60 O73 2.343 . S
Tb60 O75 2.353 . S
Tb60 O77 2.427 . S
Tb60 O78 2.513 . S
C61 O65 1.251 . S
C61 O67 1.263 . S
Tb62 O64 2.343 . S
Tb62 O67 2.353 . S
Tb62 O70 2.427 . S
Tb62 O71 2.513 . S
Tb62 O72 2.453 1_545 S
Tb62 O73 2.596 . S
Tb62 O74 2.374 . S
O63 Tb60 2.453 . S
O63 C79 1.245 . S
O64 Tb60 2.596 . S
O64 Tb62 2.343 . S
O64 C79 1.259 . S
O65 Tb60 2.374 . S
O65 C61 1.251 . S
C66 O70 1.275 . S
C66 O71 1.246 . S
O67 C61 1.263 . S
O67 Tb62 2.353 . S
C68 O72 1.245 . S
C68 O73 1.259 1_565 S
C69 O74 1.250 . S
C69 O75 1.263 . S
O70 Tb62 2.427 . S
O70 C66 1.275 . S
O71 Tb62 2.513 . S
O71 C66 1.246 . S
O72 Tb62 2.453 1_565 S
O72 C68 1.245 . S
O73 Tb60 2.343 . S
O73 Tb62 2.596 . S
O73 C68 1.259 1_545 S
O74 Tb62 2.374 . S
O74 C69 1.250 . S
O75 Tb60 2.353 . S
O75 C69 1.263 . S
C76 O77 1.275 . S
C76 O78 1.246 . S
O77 Tb60 2.427 . S
O77 C76 1.275 . S
O78 Tb60 2.513 . S
O78 C76 1.246 . S
C79 O63 1.245 . S
C79 O64 1.259 . S
Tb80 O83 2.453 1_565 S
Tb80 O84 2.596 . S
Tb80 O85 2.374 . S
Tb80 O93 2.343 . S
Tb80 O95 2.353 . S
Tb80 O97 2.427 . S
Tb80 O98 2.513 . S
C81 O85 1.251 . S
C81 O87 1.263 . S
Tb82 O84 2.343 . S
Tb82 O87 2.353 . S
Tb82 O90 2.427 . S
Tb82 O91 2.513 . S
Tb82 O92 2.453 . S
Tb82 O93 2.596 . S
Tb82 O94 2.374 . S
O83 Tb80 2.453 1_545 S
O83 C99 1.245 . S
O84 Tb80 2.596 . S
O84 Tb82 2.343 . S
O84 C99 1.259 1_565 S
O85 Tb80 2.374 . S
O85 C81 1.251 . S
C86 O90 1.275 . S
C86 O91 1.246 . S
O87 C81 1.263 . S
O87 Tb82 2.353 . S
C88 O92 1.245 . S
C88 O93 1.259 . S
C89 O94 1.250 . S
C89 O95 1.263 . S
O90 Tb82 2.427 . S
O90 C86 1.275 . S
O91 Tb82 2.513 . S
O91 C86 1.246 . S
O92 Tb82 2.453 . S
O92 C88 1.245 . S
O93 Tb80 2.343 . S
O93 Tb82 2.596 . S
O93 C88 1.259 . S
O94 Tb82 2.374 . S
O94 C89 1.250 . S
O95 Tb80 2.353 . S
O95 C89 1.263 . S
C96 O97 1.275 . S
C96 O98 1.246 . S
O97 Tb80 2.427 . S
O97 C96 1.275 . S
O98 Tb80 2.513 . S
O98 C96 1.246 . S
C99 O83 1.245 . S
C99 O84 1.259 1_545 S
Tb100 O103 2.453 1_545 S
Tb100 O104 2.596 . S
Tb100 O105 2.374 . S
Tb100 O113 2.343 . S
Tb100 O115 2.353 . S
Tb100 O117 2.427 . S
Tb100 O118 2.513 . S
C101 O105 1.251 . S
C101 O107 1.263 . S
Tb102 O104 2.343 . S
Tb102 O107 2.353 . S
Tb102 O110 2.427 . S
Tb102 O111 2.513 . S
Tb102 O112 2.453 . S
Tb102 O113 2.596 . S
Tb102 O114 2.374 . S
O103 Tb100 2.453 1_565 S
O103 C119 1.245 . S
O104 Tb100 2.596 . S
O104 Tb102 2.343 . S
O104 C119 1.259 1_545 S
O105 Tb100 2.374 . S
O105 C101 1.251 . S
C106 O110 1.275 . S
C106 O111 1.246 . S
O107 C101 1.263 . S
O107 Tb102 2.353 . S
C108 O112 1.245 . S
C108 O113 1.259 . S
C109 O114 1.250 . S
C109 O115 1.263 . S
O110 Tb102 2.427 . S
O110 C106 1.275 . S
O111 Tb102 2.513 . S
O111 C106 1.246 . S
O112 Tb102 2.453 . S
O112 C108 1.245 . S
O113 Tb100 2.343 . S
O113 Tb102 2.596 . S
O113 C108 1.259 . S
O114 Tb102 2.374 . S
O114 C109 1.250 . S
O115 Tb100 2.353 . S
O115 C109 1.263 . S
C116 O117 1.275 . S
C116 O118 1.246 . S
O117 Tb100 2.427 . S
O117 C116 1.275 . S
O118 Tb100 2.513 . S
O118 C116 1.246 . S
C119 O103 1.245 . S
C119 O104 1.259 1_565 S
Tb120 O123 2.453 1_545 S
Tb120 O124 2.596 . S
Tb120 O125 2.374 . S
Tb120 O133 2.343 . S
Tb120 O135 2.353 . S
Tb120 O137 2.427 . S
Tb120 O138 2.513 . S
C121 O125 1.251 . S
C121 O127 1.263 . S
Tb122 O124 2.343 . S
Tb122 O127 2.353 . S
Tb122 O130 2.427 . S
Tb122 O131 2.513 . S
Tb122 O132 2.453 . S
Tb122 O133 2.596 . S
Tb122 O134 2.374 . S
O123 Tb120 2.453 1_565 S
O123 C139 1.245 . S
O124 Tb120 2.596 . S
O124 Tb122 2.343 . S
O124 C139 1.259 1_545 S
O125 Tb120 2.374 . S
O125 C121 1.251 . S
C126 O130 1.275 . S
C126 O131 1.246 . S
O127 C121 1.263 . S
O127 Tb122 2.353 . S
C128 O132 1.245 . S
C128 O133 1.259 . S
C129 O134 1.250 . S
C129 O135 1.263 . S
O130 Tb122 2.427 . S
O130 C126 1.275 . S
O131 Tb122 2.513 . S
O131 C126 1.246 . S
O132 Tb122 2.453 . S
O132 C128 1.245 . S
O133 Tb120 2.343 . S
O133 Tb122 2.596 . S
O133 C128 1.259 . S
O134 Tb122 2.374 . S
O134 C129 1.250 . S
O135 Tb120 2.353 . S
O135 C129 1.263 . S
C136 O137 1.275 . S
C136 O138 1.246 . S
O137 Tb120 2.427 . S
O137 C136 1.275 . S
O138 Tb120 2.513 . S
O138 C136 1.246 . S
C139 O123 1.245 . S
C139 O124 1.259 1_565 S
Tb140 O143 2.453 1_565 S
Tb140 O144 2.596 . S
Tb140 O145 2.374 . S
Tb140 O153 2.343 . S
Tb140 O155 2.353 . S
Tb140 O157 2.427 . S
Tb140 O158 2.513 . S
C141 O145 1.251 . S
C141 O147 1.263 . S
Tb142 O144 2.343 . S
Tb142 O147 2.353 . S
Tb142 O150 2.427 . S
Tb142 O151 2.513 . S
Tb142 O152 2.453 . S
Tb142 O153 2.596 . S
Tb142 O154 2.374 . S
O143 Tb140 2.453 1_545 S
O143 C159 1.245 . S
O144 Tb140 2.596 . S
O144 Tb142 2.343 . S
O144 C159 1.259 1_565 S
O145 Tb140 2.374 . S
O145 C141 1.251 . S
C146 O150 1.275 . S
C146 O151 1.246 . S
O147 C141 1.263 . S
O147 Tb142 2.353 . S
C148 O152 1.245 . S
C148 O153 1.259 . S
C149 O154 1.250 . S
C149 O155 1.263 . S
O150 Tb142 2.427 . S
O150 C146 1.275 . S
O151 Tb142 2.513 . S
O151 C146 1.246 . S
O152 Tb142 2.453 . S
O152 C148 1.245 . S
O153 Tb140 2.343 . S
O153 Tb142 2.596 . S
O153 C148 1.259 . S
O154 Tb142 2.374 . S
O154 C149 1.250 . S
O155 Tb140 2.353 . S
O155 C149 1.263 . S
C156 O157 1.275 . S
C156 O158 1.246 . S
O157 Tb140 2.427 . S
O157 C156 1.275 . S
O158 Tb140 2.513 . S
O158 C156 1.246 . S
C159 O143 1.245 . S
C159 O144 1.259 1_545 S
Tb160 O163 2.453 . S
Tb160 O164 2.596 . S
Tb160 O165 2.374 . S
Tb160 O173 2.343 . S
Tb160 O175 2.353 . S
Tb160 O177 2.427 . S
Tb160 O178 2.513 . S
C161 O165 1.251 . S
C161 O167 1.263 . S
Tb162 O164 2.343 . S
Tb162 O167 2.353 . S
Tb162 O170 2.427 . S
Tb162 O171 2.513 . S
Tb162 O172 2.453 . S
Tb162 O173 2.596 . S
Tb162 O174 2.374 . S
O163 Tb160 2.453 . S
O163 C179 1.245 . S
O164 Tb160 2.596 . S
O164 Tb162 2.343 . S
O164 C179 1.259 . S
O165 Tb160 2.374 . S
O165 C161 1.251 . S
C166 O170 1.275 . S
C166 O171 1.246 . S
O167 C161 1.263 . S
O167 Tb162 2.353 . S
C168 O172 1.245 . S
C168 O173 1.259 . S
C169 O174 1.250 . S
C169 O175 1.263 . S
O170 Tb162 2.427 . S
O170 C166 1.275 . S
O171 Tb162 2.513 . S
O171 C166 1.246 . S
O172 Tb162 2.453 . S
O172 C168 1.245 . S
O173 Tb160 2.343 . S
O173 Tb162 2.596 . S
O173 C168 1.259 . S
O174 Tb162 2.374 . S
O174 C169 1.250 . S
O175 Tb160 2.353 . S
O175 C169 1.263 . S
C176 O177 1.275 . S
C176 O178 1.246 . S
O177 Tb160 2.427 . S
O177 C176 1.275 . S
O178 Tb160 2.513 . S
O178 C176 1.246 . S
C179 O163 1.245 . S
C179 O164 1.259 . S
Tb180 O183 2.453 . S
Tb180 O184 2.596 . S
Tb180 O185 2.374 . S
Tb180 O193 2.343 . S
Tb180 O195 2.353 . S
Tb180 O197 2.427 . S
Tb180 O198 2.513 . S
C181 O185 1.251 . S
C181 O187 1.263 . S
Tb182 O184 2.343 . S
Tb182 O187 2.353 . S
Tb182 O190 2.427 . S
Tb182 O191 2.513 . S
Tb182 O192 2.453 . S
Tb182 O193 2.596 . S
Tb182 O194 2.374 . S
O183 Tb180 2.453 . S
O183 C199 1.245 . S
O184 Tb180 2.596 . S
O184 Tb182 2.343 . S
O184 C199 1.259 . S
O185 Tb180 2.374 . S
O185 C181 1.251 . S
C186 O190 1.275 . S
C186 O191 1.246 . S
O187 C181 1.263 . S
O187 Tb182 2.353 . S
C188 O192 1.245 . S
C188 O193 1.259 . S
C189 O194 1.250 . S
C189 O195 1.263 . S
O190 Tb182 2.427 . S
O190 C186 1.275 . S
O191 Tb182 2.513 . S
O191 C186 1.246 . S
O192 Tb182 2.453 . S
O192 C188 1.245 . S
O193 Tb180 2.343 . S
O193 Tb182 2.596 . S
O193 C188 1.259 . S
O194 Tb182 2.374 . S
O194 C189 1.250 . S
O195 Tb180 2.353 . S
O195 C189 1.263 . S
C196 O197 1.275 . S
C196 O198 1.246 . S
O197 Tb180 2.427 . S
O197 C196 1.275 . S
O198 Tb180 2.513 . S
O198 C196 1.246 . S
C199 O183 1.245 . S
C199 O184 1.259 . S
Tb200 O203 2.453 . S
Tb200 O204 2.596 . S
Tb200 O205 2.374 . S
Tb200 O213 2.343 . S
Tb200 O215 2.353 . S
Tb200 O217 2.427 . S
Tb200 O218 2.513 . S
C201 O205 1.251 . S
C201 O207 1.263 . S
Tb202 O204 2.343 . S
Tb202 O207 2.353 . S
Tb202 O210 2.427 . S
Tb202 O211 2.513 . S
Tb202 O212 2.453 . S
Tb202 O213 2.596 . S
Tb202 O214 2.374 . S
O203 Tb200 2.453 . S
O203 C219 1.245 . S
O204 Tb200 2.596 . S
O204 Tb202 2.343 . S
O204 C219 1.259 . S
O205 Tb200 2.374 . S
O205 C201 1.251 . S
C206 O210 1.275 . S
C206 O211 1.246 . S
O207 C201 1.263 . S
O207 Tb202 2.353 . S
C208 O212 1.245 . S
C208 O213 1.259 . S
C209 O214 1.250 . S
C209 O215 1.263 . S
O210 Tb202 2.427 . S
O210 C206 1.275 . S
O211 Tb202 2.513 . S
O211 C206 1.246 . S
O212 Tb202 2.453 . S
O212 C208 1.245 . S
O213 Tb200 2.343 . S
O213 Tb202 2.596 . S
O213 C208 1.259 . S
O214 Tb202 2.374 . S
O214 C209 1.250 . S
O215 Tb200 2.353 . S
O215 C209 1.263 . S
C216 O217 1.275 . S
C216 O218 1.246 . S
O217 Tb200 2.427 . S
O217 C216 1.275 . S
O218 Tb200 2.513 . S
O218 C216 1.246 . S
C219 O203 1.245 . S
C219 O204 1.259 . S
Tb220 O223 2.453 . S
Tb220 O224 2.596 . S
Tb220 O225 2.374 . S
Tb220 O233 2.343 . S
Tb220 O235 2.353 . S
Tb220 O237 2.427 . S
Tb220 O238 2.513 . S
C221 O225 1.251 . S
C221 O227 1.263 . S
Tb222 O224 2.343 . S
Tb222 O227 2.353 . S
Tb222 O230 2.427 . S
Tb222 O231 2.513 . S
Tb222 O232 2.453 . S
Tb222 O233 2.596 . S
Tb222 O234 2.374 . S
O223 Tb220 2.453 . S
O223 C239 1.245 . S
O224 Tb220 2.596 . S
O224 Tb222 2.343 . S
O224 C239 1.259 . S
O225 Tb220 2.374 . S
O225 C221 1.251 . S
C226 O230 1.275 . S
C226 O231 1.246 . S
O227 C221 1.263 . S
O227 Tb222 2.353 . S
C228 O232 1.245 . S
C228 O233 1.259 . S
C229 O234 1.250 . S
C229 O235 1.263 . S
O230 Tb222 2.427 . S
O230 C226 1.275 . S
O231 Tb222 2.513 . S
O231 C226 1.246 . S
O232 Tb222 2.453 . S
O232 C228 1.245 . S
O233 Tb220 2.343 . S
O233 Tb222 2.596 . S
O233 C228 1.259 . S
O234 Tb222 2.374 . S
O234 C229 1.250 . S
O235 Tb220 2.353 . S
O235 C229 1.263 . S
C236 O237 1.275 . S
C236 O238 1.246 . S
O237 Tb220 2.427 . S
O237 C236 1.275 . S
O238 Tb220 2.513 . S
O238 C236 1.246 . S
C239 O223 1.245 . S
C239 O224 1.259 . S
Tb240 O243 2.453 . S
Tb240 O244 2.596 . S
Tb240 O245 2.374 . S
Tb240 O253 2.343 . S
Tb240 O255 2.353 . S
Tb240 O257 2.427 . S
Tb240 O258 2.513 . S
C241 O245 1.251 . S
C241 O247 1.263 . S
Tb242 O244 2.343 . S
Tb242 O247 2.353 . S
Tb242 O250 2.427 . S
Tb242 O251 2.513 . S
Tb242 O252 2.453 . S
Tb242 O253 2.596 . S
Tb242 O254 2.374 . S
O243 Tb240 2.453 . S
O243 C259 1.245 . S
O244 Tb240 2.596 . S
O244 Tb242 2.343 . S
O244 C259 1.259 . S
O245 Tb240 2.374 . S
O245 C241 1.251 . S
C246 O250 1.275 . S
C246 O251 1.246 . S
O247 C241 1.263 . S
O247 Tb242 2.353 . S
C248 O252 1.245 . S
C248 O253 1.259 . S
C249 O254 1.250 . S
C249 O255 1.263 . S
O250 Tb242 2.427 . S
O250 C246 1.275 . S
O251 Tb242 2.513 . S
O251 C246 1.246 . S
O252 Tb242 2.453 . S
O252 C248 1.245 . S
O253 Tb240 2.343 . S
O253 Tb242 2.596 . S
O253 C248 1.259 . S
O254 Tb242 2.374 . S
O254 C249 1.250 . S
O255 Tb240 2.353 . S
O255 C249 1.263 . S
C256 O257 1.275 . S
C256 O258 1.246 . S
O257 Tb240 2.427 . S
O257 C256 1.275 . S
O258 Tb240 2.513 . S
O258 C256 1.246 . S
C259 O243 1.245 . S
C259 O244 1.259 . S
Tb260 O263 2.453 . S
Tb260 O264 2.596 . S
Tb260 O265 2.374 . S
Tb260 O273 2.343 . S
Tb260 O275 2.353 . S
Tb260 O277 2.427 . S
Tb260 O278 2.513 . S
C261 O265 1.251 . S
C261 O267 1.263 . S
Tb262 O264 2.343 . S
Tb262 O267 2.353 . S
Tb262 O270 2.427 . S
Tb262 O271 2.513 . S
Tb262 O272 2.453 . S
Tb262 O273 2.596 . S
Tb262 O274 2.374 . S
O263 Tb260 2.453 . S
O263 C279 1.245 . S
O264 Tb260 2.596 . S
O264 Tb262 2.343 . S
O264 C279 1.259 . S
O265 Tb260 2.374 . S
O265 C261 1.251 . S
C266 O270 1.275 . S
C266 O271 1.246 . S
O267 C261 1.263 . S
O267 Tb262 2.353 . S
C268 O272 1.245 . S
C268 O273 1.259 . S
C269 O274 1.250 . S
C269 O275 1.263 . S
O270 Tb262 2.427 . S
O270 C266 1.275 . S
O271 Tb262 2.513 . S
O271 C266 1.246 . S
O272 Tb262 2.453 . S
O272 C268 1.245 . S
O273 Tb260 2.343 . S
O273 Tb262 2.596 . S
O273 C268 1.259 . S
O274 Tb262 2.374 . S
O274 C269 1.250 . S
O275 Tb260 2.353 . S
O275 C269 1.263 . S
C276 O277 1.275 . S
C276 O278 1.246 . S
O277 Tb260 2.427 . S
O277 C276 1.275 . S
O278 Tb260 2.513 . S
O278 C276 1.246 . S
C279 O263 1.245 . S
C279 O264 1.259 . S
Tb280 O283 2.453 . S
Tb280 O284 2.596 . S
Tb280 O285 2.374 . S
Tb280 O293 2.343 . S
Tb280 O295 2.353 . S
Tb280 O297 2.427 . S
Tb280 O298 2.513 . S
C281 O285 1.251 . S
C281 O287 1.263 . S
Tb282 O284 2.343 . S
Tb282 O287 2.353 . S
Tb282 O290 2.427 . S
Tb282 O291 2.513 . S
Tb282 O292 2.453 . S
Tb282 O293 2.596 . S
Tb282 O294 2.374 . S
O283 Tb280 2.453 . S
O283 C299 1.245 . S
O284 Tb280 2.596 . S
O284 Tb282 2.343 . S
O284 C299 1.259 . S
O285 Tb280 2.374 . S
O285 C281 1.251 . S
C286 O290 1.275 . S
C286 O291 1.246 . S
O287 C281 1.263 . S
O287 Tb282 2.353 . S
C288 O292 1.245 . S
C288 O293 1.259 . S
C289 O294 1.250 . S
C289 O295 1.263 . S
O290 Tb282 2.427 . S
O290 C286 1.275 . S
O291 Tb282 2.513 . S
O291 C286 1.246 . S
O292 Tb282 2.453 . S
O292 C288 1.245 . S
O293 Tb280 2.343 . S
O293 Tb282 2.596 . S
O293 C288 1.259 . S
O294 Tb282 2.374 . S
O294 C289 1.250 . S
O295 Tb280 2.353 . S
O295 C289 1.263 . S
C296 O297 1.275 . S
C296 O298 1.246 . S
O297 Tb280 2.427 . S
O297 C296 1.275 . S
O298 Tb280 2.513 . S
O298 C296 1.246 . S
C299 O283 1.245 . S
C299 O284 1.259 . S
Tb300 O303 2.453 . S
Tb300 O304 2.596 . S
Tb300 O305 2.374 . S
Tb300 O313 2.343 . S
Tb300 O315 2.353 . S
Tb300 O317 2.427 . S
Tb300 O318 2.513 . S
C301 O305 1.251 . S
C301 O307 1.263 . S
Tb302 O304 2.343 . S
Tb302 O307 2.353 . S
Tb302 O310 2.427 . S
Tb302 O311 2.513 . S
Tb302 O312 2.453 . S
Tb302 O313 2.596 . S
Tb302 O314 2.374 . S
O303 Tb300 2.453 . S
O303 C319 1.245 . S
O304 Tb300 2.596 . S
O304 Tb302 2.343 . S
O304 C319 1.259 . S
O305 Tb300 2.374 . S
O305 C301 1.251 . S
C306 O310 1.275 . S
C306 O311 1.246 . S
O307 C301 1.263 . S
O307 Tb302 2.353 . S
C308 O312 1.245 . S
C308 O313 1.259 . S
C309 O314 1.250 . S
C309 O315 1.263 . S
O310 Tb302 2.427 . S
O310 C306 1.275 . S
O311 Tb302 2.513 . S
O311 C306 1.246 . S
O312 Tb302 2.453 . S
O312 C308 1.245 . S
O313 Tb300 2.343 . S
O313 Tb302 2.596 . S
O313 C308 1.259 . S
O314 Tb302 2.374 . S
O314 C309 1.250 . S
O315 Tb300 2.353 . S
O315 C309 1.263 . S
C316 O317 1.275 . S
C316 O318 1.246 . S
O317 Tb300 2.427 . S
O317 C316 1.275 . S
O318 Tb300 2.513 . S
O318 C316 1.246 . S
C319 O303 1.245 . S
C319 O304 1.259 . S
H320 C332 0.930 . S
H321 C334 0.930 . S
H322 C335 0.930 . S
H323 C339 0.959 . S
H324 C339 0.959 . S
H325 C339 0.961 . S
H326 C340 0.960 . S
H327 C340 0.961 . S
H328 C340 0.959 . S
H329 C343 0.929 . S
H330 C344 0.931 . S
H331 C346 0.930 . S
C332 H320 0.930 . S
C332 C333 1.399 . S
C332 C337 1.399 . S
C333 C332 1.399 . S
C333 C334 1.376 . S
C334 H321 0.930 . S
C334 C333 1.376 . S
C334 C335 1.388 . S
C335 H322 0.930 . S
C335 C334 1.388 . S
C335 C336 1.390 . S
C336 C335 1.390 . S
C336 C337 1.394 . S
C336 C342 1.465 . S
C337 C332 1.399 . S
C337 C336 1.394 . S
C337 C338 1.516 . S
C338 C337 1.516 . S
C338 C339 1.502 . S
C338 C340 1.561 . S
C338 C341 1.526 . S
C339 H323 0.959 . S
C339 H324 0.959 . S
C339 H325 0.961 . S
C339 C338 1.502 . S
C340 H326 0.960 . S
C340 H327 0.961 . S
C340 H328 0.959 . S
C340 C338 1.561 . S
C341 C338 1.526 . S
C341 C342 1.396 . S
C341 C346 1.390 . S
C342 C336 1.465 . S
C342 C341 1.396 . S
C342 C343 1.399 . S
C343 H329 0.929 . S
C343 C342 1.399 . S
C343 C344 1.385 . S
C344 H330 0.931 . S
C344 C343 1.385 . S
C344 C345 1.389 . S
C345 C344 1.389 . S
C345 C346 1.387 . S
C346 H331 0.930 . S
C346 C341 1.390 . S
C346 C345 1.387 . S
H347 C359 0.930 . S
H348 C361 0.930 . S
H349 C362 0.930 . S
H350 C366 0.959 . S
H351 C366 0.959 . S
H352 C366 0.961 . S
H353 C367 0.960 . S
H354 C367 0.961 . S
H355 C367 0.959 . S
H356 C370 0.929 . S
H357 C371 0.931 . S
H358 C373 0.930 . S
C359 H347 0.930 . S
C359 C360 1.399 . S
C359 C364 1.399 . S
C360 C359 1.399 . S
C360 C361 1.376 . S
C361 H348 0.930 . S
C361 C360 1.376 . S
C361 C362 1.388 . S
C362 H349 0.930 . S
C362 C361 1.388 . S
C362 C363 1.390 . S
C363 C362 1.390 . S
C363 C364 1.394 . S
C363 C369 1.465 . S
C364 C359 1.399 . S
C364 C363 1.394 . S
C364 C365 1.516 . S
C365 C364 1.516 . S
C365 C366 1.502 . S
C365 C367 1.561 . S
C365 C368 1.526 . S
C366 H350 0.959 . S
C366 H351 0.959 . S
C366 H352 0.961 . S
C366 C365 1.502 . S
C367 H353 0.960 . S
C367 H354 0.961 . S
C367 H355 0.959 . S
C367 C365 1.561 . S
C368 C365 1.526 . S
C368 C369 1.396 . S
C368 C373 1.390 . S
C369 C363 1.465 . S
C369 C368 1.396 . S
C369 C370 1.399 . S
C370 H356 0.929 . S
C370 C369 1.399 . S
C370 C371 1.385 . S
C371 H357 0.931 . S
C371 C370 1.385 . S
C371 C372 1.389 . S
C372 C371 1.389 . S
C372 C373 1.387 . S
C373 H358 0.930 . S
C373 C368 1.390 . S
C373 C372 1.387 . S
H374 C386 0.930 . S
H375 C388 0.930 . S
H376 C389 0.930 . S
H377 C393 0.959 . S
H378 C393 0.959 . S
H379 C393 0.961 . S
H380 C394 0.960 . S
H381 C394 0.961 . S
H382 C394 0.959 . S
H383 C397 0.929 . S
H384 C398 0.931 . S
H385 C400 0.930 . S
C386 H374 0.930 . S
C386 C387 1.399 . S
C386 C391 1.399 . S
C387 C386 1.399 . S
C387 C388 1.376 . S
C388 H375 0.930 . S
C388 C387 1.376 . S
C388 C389 1.388 . S
C389 H376 0.930 . S
C389 C388 1.388 . S
C389 C390 1.390 . S
C390 C389 1.390 . S
C390 C391 1.394 . S
C390 C396 1.465 . S
C391 C386 1.399 . S
C391 C390 1.394 . S
C391 C392 1.516 . S
C392 C391 1.516 . S
C392 C393 1.502 . S
C392 C394 1.561 . S
C392 C395 1.526 . S
C393 H377 0.959 . S
C393 H378 0.959 . S
C393 H379 0.961 . S
C393 C392 1.502 . S
C394 H380 0.960 . S
C394 H381 0.961 . S
C394 H382 0.959 . S
C394 C392 1.561 . S
C395 C392 1.526 . S
C395 C396 1.396 . S
C395 C400 1.390 . S
C396 C390 1.465 . S
C396 C395 1.396 . S
C396 C397 1.399 . S
C397 H383 0.929 . S
C397 C396 1.399 . S
C397 C398 1.385 . S
C398 H384 0.931 . S
C398 C397 1.385 . S
C398 C399 1.389 . S
C399 C398 1.389 . S
C399 C400 1.387 . S
C400 H385 0.930 . S
C400 C395 1.390 . S
C400 C399 1.387 . S
H401 C413 0.930 . S
H402 C415 0.930 . S
H403 C416 0.930 . S
H404 C420 0.959 . S
H405 C420 0.959 . S
H406 C420 0.961 . S
H407 C421 0.960 . S
H408 C421 0.961 . S
H409 C421 0.959 . S
H410 C424 0.929 . S
H411 C425 0.931 . S
H412 C427 0.930 . S
C413 H401 0.930 . S
C413 C414 1.399 . S
C413 C418 1.399 . S
C414 C413 1.399 . S
C414 C415 1.376 . S
C415 H402 0.930 . S
C415 C414 1.376 . S
C415 C416 1.388 . S
C416 H403 0.930 . S
C416 C415 1.388 . S
C416 C417 1.390 . S
C417 C416 1.390 . S
C417 C418 1.394 . S
C417 C423 1.465 . S
C418 C413 1.399 . S
C418 C417 1.394 . S
C418 C419 1.516 . S
C419 C418 1.516 . S
C419 C420 1.502 . S
C419 C421 1.561 . S
C419 C422 1.526 . S
C420 H404 0.959 . S
C420 H405 0.959 . S
C420 H406 0.961 . S
C420 C419 1.502 . S
C421 H407 0.960 . S
C421 H408 0.961 . S
C421 H409 0.959 . S
C421 C419 1.561 . S
C422 C419 1.526 . S
C422 C423 1.396 . S
C422 C427 1.390 . S
C423 C417 1.465 . S
C423 C422 1.396 . S
C423 C424 1.399 . S
C424 H410 0.929 . S
C424 C423 1.399 . S
C424 C425 1.385 . S
C425 H411 0.931 . S
C425 C424 1.385 . S
C425 C426 1.389 . S
C426 C425 1.389 . S
C426 C427 1.387 . S
C427 H412 0.930 . S
C427 C422 1.390 . S
C427 C426 1.387 . S
H428 C440 0.930 . S
H429 C442 0.930 . S
H430 C443 0.930 . S
H431 C447 0.959 . S
H432 C447 0.959 . S
H433 C447 0.961 . S
H434 C448 0.960 . S
H435 C448 0.961 . S
H436 C448 0.959 . S
H437 C451 0.929 . S
H438 C452 0.931 . S
H439 C454 0.930 . S
C440 H428 0.930 . S
C440 C441 1.399 . S
C440 C445 1.399 . S
C441 C440 1.399 . S
C441 C442 1.376 . S
C442 H429 0.930 . S
C442 C441 1.376 . S
C442 C443 1.388 . S
C443 H430 0.930 . S
C443 C442 1.388 . S
C443 C444 1.390 . S
C444 C443 1.390 . S
C444 C445 1.394 . S
C444 C450 1.465 . S
C445 C440 1.399 . S
C445 C444 1.394 . S
C445 C446 1.516 . S
C446 C445 1.516 . S
C446 C447 1.502 . S
C446 C448 1.561 . S
C446 C449 1.526 . S
C447 H431 0.959 . S
C447 H432 0.959 . S
C447 H433 0.961 . S
C447 C446 1.502 . S
C448 H434 0.960 . S
C448 H435 0.961 . S
C448 H436 0.959 . S
C448 C446 1.561 . S
C449 C446 1.526 . S
C449 C450 1.396 . S
C449 C454 1.390 . S
C450 C444 1.465 . S
C450 C449 1.396 . S
C450 C451 1.399 . S
C451 H437 0.929 . S
C451 C450 1.399 . S
C451 C452 1.385 . S
C452 H438 0.931 . S
C452 C451 1.385 . S
C452 C453 1.389 . S
C453 C452 1.389 . S
C453 C454 1.387 . S
C454 H439 0.930 . S
C454 C449 1.390 . S
C454 C453 1.387 . S
H455 C467 0.930 . S
H456 C469 0.930 . S
H457 C470 0.930 . S
H458 C474 0.959 . S
H459 C474 0.959 . S
H460 C474 0.961 . S
H461 C475 0.960 . S
H462 C475 0.961 . S
H463 C475 0.959 . S
H464 C478 0.929 . S
H465 C479 0.931 . S
H466 C481 0.930 . S
C467 H455 0.930 . S
C467 C468 1.399 . S
C467 C472 1.399 . S
C468 C467 1.399 . S
C468 C469 1.376 . S
C469 H456 0.930 . S
C469 C468 1.376 . S
C469 C470 1.388 . S
C470 H457 0.930 . S
C470 C469 1.388 . S
C470 C471 1.390 . S
C471 C470 1.390 . S
C471 C472 1.394 . S
C471 C477 1.465 . S
C472 C467 1.399 . S
C472 C471 1.394 . S
C472 C473 1.516 . S
C473 C472 1.516 . S
C473 C474 1.502 . S
C473 C475 1.561 . S
C473 C476 1.526 . S
C474 H458 0.959 . S
C474 H459 0.959 . S
C474 H460 0.961 . S
C474 C473 1.502 . S
C475 H461 0.960 . S
C475 H462 0.961 . S
C475 H463 0.959 . S
C475 C473 1.561 . S
C476 C473 1.526 . S
C476 C477 1.396 . S
C476 C481 1.390 . S
C477 C471 1.465 . S
C477 C476 1.396 . S
C477 C478 1.399 . S
C478 H464 0.929 . S
C478 C477 1.399 . S
C478 C479 1.385 . S
C479 H465 0.931 . S
C479 C478 1.385 . S
C479 C480 1.389 . S
C480 C479 1.389 . S
C480 C481 1.387 . S
C481 H466 0.930 . S
C481 C476 1.390 . S
C481 C480 1.387 . S
H482 C494 0.930 . S
H483 C496 0.930 . S
H484 C497 0.930 . S
H485 C501 0.959 . S
H486 C501 0.959 . S
H487 C501 0.961 . S
H488 C502 0.960 . S
H489 C502 0.961 . S
H490 C502 0.959 . S
H491 C505 0.929 . S
H492 C506 0.931 . S
H493 C508 0.930 . S
C494 H482 0.930 . S
C494 C495 1.399 . S
C494 C499 1.399 . S
C495 C494 1.399 . S
C495 C496 1.376 . S
C496 H483 0.930 . S
C496 C495 1.376 . S
C496 C497 1.388 . S
C497 H484 0.930 . S
C497 C496 1.388 . S
C497 C498 1.390 . S
C498 C497 1.390 . S
C498 C499 1.394 . S
C498 C504 1.465 . S
C499 C494 1.399 . S
C499 C498 1.394 . S
C499 C500 1.516 . S
C500 C499 1.516 . S
C500 C501 1.502 . S
C500 C502 1.561 . S
C500 C503 1.526 . S
C501 H485 0.959 . S
C501 H486 0.959 . S
C501 H487 0.961 . S
C501 C500 1.502 . S
C502 H488 0.960 . S
C502 H489 0.961 . S
C502 H490 0.959 . S
C502 C500 1.561 . S
C503 C500 1.526 . S
C503 C504 1.396 . S
C503 C508 1.390 . S
C504 C498 1.465 . S
C504 C503 1.396 . S
C504 C505 1.399 . S
C505 H491 0.929 . S
C505 C504 1.399 . S
C505 C506 1.385 . S
C506 H492 0.931 . S
C506 C505 1.385 . S
C506 C507 1.389 . S
C507 C506 1.389 . S
C507 C508 1.387 . S
C508 H493 0.930 . S
C508 C503 1.390 . S
C508 C507 1.387 . S
H509 C521 0.930 . S
H510 C523 0.930 . S
H511 C524 0.930 . S
H512 C528 0.959 . S
H513 C528 0.959 . S
H514 C528 0.961 . S
H515 C529 0.960 . S
H516 C529 0.961 . S
H517 C529 0.959 . S
H518 C532 0.929 . S
H519 C533 0.931 . S
H520 C535 0.930 . S
C521 H509 0.930 . S
C521 C522 1.399 . S
C521 C526 1.399 . S
C522 C521 1.399 . S
C522 C523 1.376 . S
C523 H510 0.930 . S
C523 C522 1.376 . S
C523 C524 1.388 . S
C524 H511 0.930 . S
C524 C523 1.388 . S
C524 C525 1.390 . S
C525 C524 1.390 . S
C525 C526 1.394 . S
C525 C531 1.465 . S
C526 C521 1.399 . S
C526 C525 1.394 . S
C526 C527 1.516 . S
C527 C526 1.516 . S
C527 C528 1.502 . S
C527 C529 1.561 . S
C527 C530 1.526 . S
C528 H512 0.959 . S
C528 H513 0.959 . S
C528 H514 0.961 . S
C528 C527 1.502 . S
C529 H515 0.960 . S
C529 H516 0.961 . S
C529 H517 0.959 . S
C529 C527 1.561 . S
C530 C527 1.526 . S
C530 C531 1.396 . S
C530 C535 1.390 . S
C531 C525 1.465 . S
C531 C530 1.396 . S
C531 C532 1.399 . S
C532 H518 0.929 . S
C532 C531 1.399 . S
C532 C533 1.385 . S
C533 H519 0.931 . S
C533 C532 1.385 . S
C533 C534 1.389 . S
C534 C533 1.389 . S
C534 C535 1.387 . S
C535 H520 0.930 . S
C535 C530 1.390 . S
C535 C534 1.387 . S
H536 C548 0.930 . S
H537 C550 0.930 . S
H538 C551 0.930 . S
H539 C555 0.959 . S
H540 C555 0.959 . S
H541 C555 0.961 . S
H542 C556 0.960 . S
H543 C556 0.961 . S
H544 C556 0.959 . S
H545 C559 0.929 . S
H546 C560 0.931 . S
H547 C562 0.930 1_565 S
C548 H536 0.930 . S
C548 C549 1.399 . S
C548 C553 1.399 . S
C549 C548 1.399 . S
C549 C550 1.376 1_565 S
C550 H537 0.930 . S
C550 C549 1.376 1_545 S
C550 C551 1.388 . S
C551 H538 0.930 . S
C551 C550 1.388 . S
C551 C552 1.390 . S
C552 C551 1.390 . S
C552 C553 1.394 1_545 S
C552 C558 1.465 . S
C553 C548 1.399 . S
C553 C552 1.394 1_565 S
C553 C554 1.516 . S
C554 C553 1.516 . S
C554 C555 1.502 . S
C554 C556 1.561 . S
C554 C557 1.526 . S
C555 H539 0.959 . S
C555 H540 0.959 . S
C555 H541 0.961 . S
C555 C554 1.502 . S
C556 H542 0.960 . S
C556 H543 0.961 . S
C556 H544 0.959 . S
C556 C554 1.561 . S
C557 C554 1.526 . S
C557 C558 1.396 1_565 S
C557 C562 1.390 1_565 S
C558 C552 1.465 . S
C558 C557 1.396 1_545 S
C558 C559 1.399 . S
C559 H545 0.929 . S
C559 C558 1.399 . S
C559 C560 1.385 . S
C560 H546 0.931 . S
C560 C559 1.385 . S
C560 C561 1.389 . S
C561 C560 1.389 . S
C561 C562 1.387 . S
C562 H547 0.930 1_545 S
C562 C557 1.390 1_545 S
C562 C561 1.387 . S
H563 C575 0.930 . S
H564 C577 0.930 . S
H565 C578 0.930 . S
H566 C582 0.959 . S
H567 C582 0.959 . S
H568 C582 0.961 . S
H569 C583 0.960 . S
H570 C583 0.961 . S
H571 C583 0.959 . S
H572 C586 0.929 . S
H573 C587 0.931 . S
H574 C589 0.930 . S
C575 H563 0.930 . S
C575 C576 1.399 . S
C575 C580 1.399 . S
C576 C575 1.399 . S
C576 C577 1.376 . S
C577 H564 0.930 . S
C577 C576 1.376 . S
C577 C578 1.388 . S
C578 H565 0.930 . S
C578 C577 1.388 . S
C578 C579 1.390 . S
C579 C578 1.390 . S
C579 C580 1.394 . S
C579 C585 1.465 1_545 S
C580 C575 1.399 . S
C580 C579 1.394 . S
C580 C581 1.516 . S
C581 C580 1.516 . S
C581 C582 1.502 1_545 S
C581 C583 1.561 . S
C581 C584 1.526 1_545 S
C582 H566 0.959 . S
C582 H567 0.959 . S
C582 H568 0.961 . S
C582 C581 1.502 1_565 S
C583 H569 0.960 . S
C583 H570 0.961 . S
C583 H571 0.959 . S
C583 C581 1.561 . S
C584 C581 1.526 1_565 S
C584 C585 1.396 . S
C584 C589 1.390 . S
C585 C579 1.465 1_565 S
C585 C584 1.396 . S
C585 C586 1.399 . S
C586 H572 0.929 . S
C586 C585 1.399 . S
C586 C587 1.385 . S
C587 H573 0.931 . S
C587 C586 1.385 . S
C587 C588 1.389 . S
C588 C587 1.389 . S
C588 C589 1.387 . S
C589 H574 0.930 . S
C589 C584 1.390 . S
C589 C588 1.387 . S
H590 C602 0.930 . S
H591 C604 0.930 . S
H592 C605 0.930 . S
H593 C609 0.959 . S
H594 C609 0.959 . S
H595 C609 0.961 . S
H596 C610 0.960 . S
H597 C610 0.961 . S
H598 C610 0.959 . S
H599 C613 0.929 . S
H600 C614 0.931 . S
H601 C616 0.930 . S
C602 H590 0.930 . S
C602 C603 1.399 1_565 S
C602 C607 1.399 . S
C603 C602 1.399 1_545 S
C603 C604 1.376 . S
C604 H591 0.930 . S
C604 C603 1.376 . S
C604 C605 1.388 . S
C605 H592 0.930 . S
C605 C604 1.388 . S
C605 C606 1.390 . S
C606 C605 1.390 . S
C606 C607 1.394 1_545 S
C606 C612 1.465 . S
C607 C602 1.399 . S
C607 C606 1.394 1_565 S
C607 C608 1.516 . S
C608 C607 1.516 . S
C608 C609 1.502 . S
C608 C610 1.561 . S
C608 C611 1.526 . S
C609 H593 0.959 . S
C609 H594 0.959 . S
C609 H595 0.961 . S
C609 C608 1.502 . S
C610 H596 0.960 . S
C610 H597 0.961 . S
C610 H598 0.959 . S
C610 C608 1.561 . S
C611 C608 1.526 . S
C611 C612 1.396 1_565 S
C611 C616 1.390 . S
C612 C606 1.465 . S
C612 C611 1.396 1_545 S
C612 C613 1.399 . S
C613 H599 0.929 . S
C613 C612 1.399 . S
C613 C614 1.385 . S
C614 H600 0.931 . S
C614 C613 1.385 . S
C614 C615 1.389 1_545 S
C615 C614 1.389 1_565 S
C615 C616 1.387 . S
C616 H601 0.930 . S
C616 C611 1.390 . S
C616 C615 1.387 . S
H617 C629 0.930 . S
H618 C631 0.930 . S
H619 C632 0.930 . S
H620 C636 0.959 . S
H621 C636 0.959 . S
H622 C636 0.961 . S
H623 C637 0.960 . S
H624 C637 0.961 . S
H625 C637 0.959 . S
H626 C640 0.929 . S
H627 C641 0.931 . S
H628 C643 0.930 . S
C629 H617 0.930 . S
C629 C630 1.399 . S
C629 C634 1.399 . S
C630 C629 1.399 . S
C630 C631 1.376 1_545 S
C631 H618 0.930 . S
C631 C630 1.376 1_565 S
C631 C632 1.388 . S
C632 H619 0.930 . S
C632 C631 1.388 . S
C632 C633 1.390 . S
C633 C632 1.390 . S
C633 C634 1.394 1_565 S
C633 C639 1.465 . S
C634 C629 1.399 . S
C634 C633 1.394 1_545 S
C634 C635 1.516 . S
C635 C634 1.516 . S
C635 C636 1.502 . S
C635 C637 1.561 . S
C635 C638 1.526 . S
C636 H620 0.959 . S
C636 H621 0.959 . S
C636 H622 0.961 . S
C636 C635 1.502 . S
C637 H623 0.960 . S
C637 H624 0.961 . S
C637 H625 0.959 . S
C637 C635 1.561 . S
C638 C635 1.526 . S
C638 C639 1.396 1_545 S
C638 C643 1.390 . S
C639 C633 1.465 . S
C639 C638 1.396 1_565 S
C639 C640 1.399 . S
C640 H626 0.929 . S
C640 C639 1.399 . S
C640 C641 1.385 . S
C641 H627 0.931 . S
C641 C640 1.385 . S
C641 C642 1.389 . S
C642 C641 1.389 . S
C642 C643 1.387 1_565 S
C643 H628 0.930 . S
C643 C638 1.390 . S
C643 C642 1.387 1_545 S
H644 C656 0.930 . S
H645 C658 0.930 . S
H646 C659 0.930 . S
H647 C663 0.959 . S
H648 C663 0.959 . S
H649 C663 0.961 . S
H650 C664 0.960 . S
H651 C664 0.961 . S
H652 C664 0.959 . S
H653 C667 0.929 . S
H654 C668 0.931 . S
H655 C670 0.930 . S
C656 H644 0.930 . S
C656 C657 1.399 . S
C656 C661 1.399 . S
C657 C656 1.399 . S
C657 C658 1.376 . S
C658 H645 0.930 . S
C658 C657 1.376 . S
C658 C659 1.388 . S
C659 H646 0.930 . S
C659 C658 1.388 . S
C659 C660 1.390 . S
C660 C659 1.390 . S
C660 C661 1.394 . S
C660 C666 1.465 . S
C661 C656 1.399 . S
C661 C660 1.394 . S
C661 C662 1.516 . S
C662 C661 1.516 . S
C662 C663 1.502 . S
C662 C664 1.561 . S
C662 C665 1.526 . S
C663 H647 0.959 . S
C663 H648 0.959 . S
C663 H649 0.961 . S
C663 C662 1.502 . S
C664 H650 0.960 . S
C664 H651 0.961 . S
C664 H652 0.959 . S
C664 C662 1.561 . S
C665 C662 1.526 . S
C665 C666 1.396 . S
C665 C670 1.390 . S
C666 C660 1.465 . S
C666 C665 1.396 . S
C666 C667 1.399 . S
C667 H653 0.929 . S
C667 C666 1.399 . S
C667 C668 1.385 . S
C668 H654 0.931 . S
C668 C667 1.385 . S
C668 C669 1.389 . S
C669 C668 1.389 . S
C669 C670 1.387 . S
C670 H655 0.930 . S
C670 C665 1.390 . S
C670 C669 1.387 . S
H671 C683 0.930 . S
H672 C685 0.930 . S
H673 C686 0.930 . S
H674 C690 0.959 . S
H675 C690 0.959 . S
H676 C690 0.961 . S
H677 C691 0.960 . S
H678 C691 0.961 . S
H679 C691 0.959 . S
H680 C694 0.929 . S
H681 C695 0.931 . S
H682 C697 0.930 . S
C683 H671 0.930 . S
C683 C684 1.399 . S
C683 C688 1.399 . S
C684 C683 1.399 . S
C684 C685 1.376 . S
C685 H672 0.930 . S
C685 C684 1.376 . S
C685 C686 1.388 . S
C686 H673 0.930 . S
C686 C685 1.388 . S
C686 C687 1.390 . S
C687 C686 1.390 . S
C687 C688 1.394 . S
C687 C693 1.465 . S
C688 C683 1.399 . S
C688 C687 1.394 . S
C688 C689 1.516 . S
C689 C688 1.516 . S
C689 C690 1.502 . S
C689 C691 1.561 . S
C689 C692 1.526 . S
C690 H674 0.959 . S
C690 H675 0.959 . S
C690 H676 0.961 . S
C690 C689 1.502 . S
C691 H677 0.960 . S
C691 H678 0.961 . S
C691 H679 0.959 . S
C691 C689 1.561 . S
C692 C689 1.526 . S
C692 C693 1.396 . S
C692 C697 1.390 . S
C693 C687 1.465 . S
C693 C692 1.396 . S
C693 C694 1.399 . S
C694 H680 0.929 . S
C694 C693 1.399 . S
C694 C695 1.385 . S
C695 H681 0.931 . S
C695 C694 1.385 . S
C695 C696 1.389 . S
C696 C695 1.389 . S
C696 C697 1.387 . S
C697 H682 0.930 . S
C697 C692 1.390 . S
C697 C696 1.387 . S
H698 C710 0.930 . S
H699 C712 0.930 . S
H700 C713 0.930 . S
H701 C717 0.959 . S
H702 C717 0.959 . S
H703 C717 0.961 . S
H704 C718 0.960 . S
H705 C718 0.961 . S
H706 C718 0.959 . S
H707 C721 0.929 . S
H708 C722 0.931 . S
H709 C724 0.930 . S
C710 H698 0.930 . S
C710 C711 1.399 . S
C710 C715 1.399 . S
C711 C710 1.399 . S
C711 C712 1.376 . S
C712 H699 0.930 . S
C712 C711 1.376 . S
C712 C713 1.388 . S
C713 H700 0.930 . S
C713 C712 1.388 . S
C713 C714 1.390 . S
C714 C713 1.390 . S
C714 C715 1.394 . S
C714 C720 1.465 . S
C715 C710 1.399 . S
C715 C714 1.394 . S
C715 C716 1.516 . S
C716 C715 1.516 . S
C716 C717 1.502 . S
C716 C718 1.561 . S
C716 C719 1.526 . S
C717 H701 0.959 . S
C717 H702 0.959 . S
C717 H703 0.961 . S
C717 C716 1.502 . S
C718 H704 0.960 . S
C718 H705 0.961 . S
C718 H706 0.959 . S
C718 C716 1.561 . S
C719 C716 1.526 . S
C719 C720 1.396 . S
C719 C724 1.390 . S
C720 C714 1.465 . S
C720 C719 1.396 . S
C720 C721 1.399 . S
C721 H707 0.929 . S
C721 C720 1.399 . S
C721 C722 1.385 . S
C722 H708 0.931 . S
C722 C721 1.385 . S
C722 C723 1.389 . S
C723 C722 1.389 . S
C723 C724 1.387 . S
C724 H709 0.930 . S
C724 C719 1.390 . S
C724 C723 1.387 . S
H725 C737 0.930 . S
H726 C739 0.930 . S
H727 C740 0.930 . S
H728 C744 0.959 . S
H729 C744 0.959 . S
H730 C744 0.961 . S
H731 C745 0.960 . S
H732 C745 0.961 . S
H733 C745 0.959 . S
H734 C748 0.929 . S
H735 C749 0.931 . S
H736 C751 0.930 . S
C737 H725 0.930 . S
C737 C738 1.399 . S
C737 C742 1.399 . S
C738 C737 1.399 . S
C738 C739 1.376 . S
C739 H726 0.930 . S
C739 C738 1.376 . S
C739 C740 1.388 . S
C740 H727 0.930 . S
C740 C739 1.388 . S
C740 C741 1.390 . S
C741 C740 1.390 . S
C741 C742 1.394 . S
C741 C747 1.465 . S
C742 C737 1.399 . S
C742 C741 1.394 . S
C742 C743 1.516 . S
C743 C742 1.516 . S
C743 C744 1.502 . S
C743 C745 1.561 . S
C743 C746 1.526 . S
C744 H728 0.959 . S
C744 H729 0.959 . S
C744 H730 0.961 . S
C744 C743 1.502 . S
C745 H731 0.960 . S
C745 H732 0.961 . S
C745 H733 0.959 . S
C745 C743 1.561 . S
C746 C743 1.526 . S
C746 C747 1.396 . S
C746 C751 1.390 . S
C747 C741 1.465 . S
C747 C746 1.396 . S
C747 C748 1.399 . S
C748 H734 0.929 . S
C748 C747 1.399 . S
C748 C749 1.385 . S
C749 H735 0.931 . S
C749 C748 1.385 . S
C749 C750 1.389 . S
C750 C749 1.389 . S
C750 C751 1.387 . S
C751 H736 0.930 . S
C751 C746 1.390 . S
C751 C750 1.387 . S
H752 C764 0.930 . S
H753 C766 0.930 . S
H754 C767 0.930 . S
H755 C771 0.962 . S
H756 C771 0.979 1_565 S
H757 C771 0.940 1_556 S
H758 C772 0.958 1_556 S
H759 C772 0.963 . S
H760 C772 0.959 1_545 S
H761 C775 0.929 . S
H762 C776 0.931 . S
H763 C778 0.930 . S
C764 H752 0.930 . S
C764 C765 1.399 . S
C764 C769 1.399 . S
C765 C764 1.399 . S
C765 C766 1.376 . S
C766 H753 0.930 . S
C766 C765 1.376 . S
C766 C767 1.388 . S
C767 H754 0.930 . S
C767 C766 1.388 . S
C767 C768 1.390 . S
C768 C767 1.390 . S
C768 C769 1.394 . S
C768 C774 1.465 1_556 S
C769 C764 1.399 . S
C769 C768 1.394 . S
C769 C770 1.517 1_556 S
C770 C769 1.517 1_554 S
C770 C771 1.502 . S
C770 C772 1.561 1_545 S
C770 C773 1.525 . S
C771 H755 0.962 . S
C771 H756 0.979 1_545 S
C771 H757 0.940 1_554 S
C771 C770 1.502 . S
C772 H758 0.958 1_554 S
C772 H759 0.963 . S
C772 H760 0.959 1_565 S
C772 C770 1.561 1_565 S
C773 C770 1.525 . S
C773 C774 1.396 . S
C773 C778 1.390 . S
C774 C768 1.465 1_554 S
C774 C773 1.396 . S
C774 C775 1.399 . S
C775 H761 0.929 . S
C775 C774 1.399 . S
C775 C776 1.385 . S
C776 H762 0.931 . S
C776 C775 1.385 . S
C776 C777 1.389 . S
C777 C776 1.389 . S
C777 C778 1.387 . S
C778 H763 0.930 . S
C778 C773 1.390 . S
C778 C777 1.387 . S
H779 C791 0.930 . S
H780 C793 0.930 . S
H781 C794 0.930 . S
H782 C798 0.962 . S
H783 C798 0.979 1_545 S
H784 C798 0.940 1_546 S
H785 C799 0.958 1_556 S
H786 C799 0.963 . S
H787 C799 0.959 1_565 S
H788 C802 0.929 . S
H789 C803 0.931 . S
H790 C805 0.930 . S
C791 H779 0.930 . S
C791 C792 1.399 . S
C791 C796 1.399 . S
C792 C791 1.399 . S
C792 C793 1.376 . S
C793 H780 0.930 . S
C793 C792 1.376 . S
C793 C794 1.388 . S
C794 H781 0.930 . S
C794 C793 1.388 . S
C794 C795 1.390 . S
C795 C794 1.390 . S
C795 C796 1.394 . S
C795 C801 1.465 1_556 S
C796 C791 1.399 . S
C796 C795 1.394 . S
C796 C797 1.517 1_556 S
C797 C796 1.517 1_554 S
C797 C798 1.502 . S
C797 C799 1.561 1_565 S
C797 C800 1.525 . S
C798 H782 0.962 . S
C798 H783 0.979 1_565 S
C798 H784 0.940 1_564 S
C798 C797 1.502 . S
C799 H785 0.958 1_554 S
C799 H786 0.963 . S
C799 H787 0.959 1_545 S
C799 C797 1.561 1_545 S
C800 C797 1.525 . S
C800 C801 1.396 . S
C800 C805 1.390 . S
C801 C795 1.465 1_554 S
C801 C800 1.396 . S
C801 C802 1.399 . S
C802 H788 0.929 . S
C802 C801 1.399 . S
C802 C803 1.385 . S
C803 H789 0.931 . S
C803 C802 1.385 . S
C803 C804 1.389 . S
C804 C803 1.389 . S
C804 C805 1.387 . S
C805 H790 0.930 . S
C805 C800 1.390 . S
C805 C804 1.387 . S
H806 C818 0.930 . S
H807 C820 0.930 . S
H808 C821 0.930 . S
H809 C825 0.959 . S
H810 C825 0.959 1_545 S
H811 C825 0.961 . S
H812 C826 0.960 . S
H813 C826 0.961 . S
H814 C826 0.959 1_565 S
H815 C829 0.929 . S
H816 C830 0.931 . S
H817 C832 0.930 . S
C818 H806 0.930 . S
C818 C819 1.399 . S
C818 C823 1.399 . S
C819 C818 1.399 . S
C819 C820 1.376 . S
C820 H807 0.930 . S
C820 C819 1.376 . S
C820 C821 1.388 . S
C821 H808 0.930 . S
C821 C820 1.388 . S
C821 C822 1.390 . S
C822 C821 1.390 . S
C822 C823 1.394 . S
C822 C828 1.465 . S
C823 C818 1.399 . S
C823 C822 1.394 . S
C823 C824 1.516 . S
C824 C823 1.516 . S
C824 C825 1.502 . S
C824 C826 1.561 1_565 S
C824 C827 1.526 . S
C825 H809 0.959 . S
C825 H810 0.959 1_565 S
C825 H811 0.961 . S
C825 C824 1.502 . S
C826 H812 0.960 . S
C826 H813 0.961 . S
C826 H814 0.959 1_545 S
C826 C824 1.561 1_545 S
C827 C824 1.526 . S
C827 C828 1.396 . S
C827 C832 1.390 . S
C828 C822 1.465 . S
C828 C827 1.396 . S
C828 C829 1.399 . S
C829 H815 0.929 . S
C829 C828 1.399 . S
C829 C830 1.385 . S
C830 H816 0.931 . S
C830 C829 1.385 . S
C830 C831 1.389 . S
C831 C830 1.389 . S
C831 C832 1.387 . S
C832 H817 0.930 . S
C832 C827 1.390 . S
C832 C831 1.387 . S
H833 C845 0.930 . S
H834 C847 0.930 . S
H835 C848 0.930 . S
H836 C852 0.959 . S
H837 C852 0.959 . S
H838 C852 0.961 . S
H839 C853 0.960 . S
H840 C853 0.961 . S
H841 C853 0.959 1_545 S
H842 C856 0.929 . S
H843 C857 0.931 . S
H844 C859 0.930 . S
C845 H833 0.930 . S
C845 C846 1.399 . S
C845 C850 1.399 . S
C846 C845 1.399 . S
C846 C847 1.376 . S
C847 H834 0.930 . S
C847 C846 1.376 . S
C847 C848 1.388 . S
C848 H835 0.930 . S
C848 C847 1.388 . S
C848 C849 1.390 . S
C849 C848 1.390 . S
C849 C850 1.394 . S
C849 C855 1.465 . S
C850 C845 1.399 . S
C850 C849 1.394 . S
C850 C851 1.516 . S
C851 C850 1.516 . S
C851 C852 1.502 . S
C851 C853 1.561 1_545 S
C851 C854 1.526 . S
C852 H836 0.959 . S
C852 H837 0.959 . S
C852 H838 0.961 . S
C852 C851 1.502 . S
C853 H839 0.960 . S
C853 H840 0.961 . S
C853 H841 0.959 1_565 S
C853 C851 1.561 1_565 S
C854 C851 1.526 . S
C854 C855 1.396 . S
C854 C859 1.390 . S
C855 C849 1.465 . S
C855 C854 1.396 . S
C855 C856 1.399 . S
C856 H842 0.929 . S
C856 C855 1.399 . S
C856 C857 1.385 . S
C857 H843 0.931 . S
C857 C856 1.385 . S
C857 C858 1.389 . S
C858 C857 1.389 . S
C858 C859 1.387 . S
C859 H844 0.930 . S
C859 C854 1.390 . S
C859 C858 1.387 . S
H860 C872 0.930 . S
H861 C874 0.930 . S
H862 C875 0.930 . S
H863 C879 0.962 . S
H864 C879 0.979 . S
H865 C879 0.940 1_554 S
H866 C880 0.958 1_554 S
H867 C880 0.963 . S
H868 C880 0.959 . S
H869 C883 0.929 . S
H870 C884 0.931 . S
H871 C886 0.930 . S
C872 H860 0.930 . S
C872 C873 1.399 . S
C872 C877 1.399 . S
C873 C872 1.399 . S
C873 C874 1.376 . S
C874 H861 0.930 . S
C874 C873 1.376 . S
C874 C875 1.388 . S
C875 H862 0.930 . S
C875 C874 1.388 . S
C875 C876 1.390 . S
C876 C875 1.390 . S
C876 C877 1.394 . S
C876 C882 1.465 1_554 S
C877 C872 1.399 . S
C877 C876 1.394 . S
C877 C878 1.517 1_554 S
C878 C877 1.517 1_556 S
C878 C879 1.502 . S
C878 C880 1.561 . S
C878 C881 1.525 . S
C879 H863 0.962 . S
C879 H864 0.979 . S
C879 H865 0.940 1_556 S
C879 C878 1.502 . S
C880 H866 0.958 1_556 S
C880 H867 0.963 . S
C880 H868 0.959 . S
C880 C878 1.561 . S
C881 C878 1.525 . S
C881 C882 1.396 . S
C881 C886 1.390 . S
C882 C876 1.465 1_556 S
C882 C881 1.396 . S
C882 C883 1.399 . S
C883 H869 0.929 . S
C883 C882 1.399 . S
C883 C884 1.385 . S
C884 H870 0.931 . S
C884 C883 1.385 . S
C884 C885 1.389 . S
C885 C884 1.389 . S
C885 C886 1.387 . S
C886 H871 0.930 . S
C886 C881 1.390 . S
C886 C885 1.387 . S
H887 C899 0.930 . S
H888 C901 0.930 . S
H889 C902 0.930 . S
H890 C906 0.962 . S
H891 C906 0.979 . S
H892 C906 0.940 1_556 S
H893 C907 0.958 1_556 S
H894 C907 0.963 . S
H895 C907 0.959 . S
H896 C910 0.929 . S
H897 C911 0.931 . S
H898 C913 0.930 . S
C899 H887 0.930 . S
C899 C900 1.399 . S
C899 C904 1.399 . S
C900 C899 1.399 . S
C900 C901 1.376 . S
C901 H888 0.930 . S
C901 C900 1.376 . S
C901 C902 1.388 . S
C902 H889 0.930 . S
C902 C901 1.388 . S
C902 C903 1.390 . S
C903 C902 1.390 . S
C903 C904 1.394 . S
C903 C909 1.465 1_556 S
C904 C899 1.399 . S
C904 C903 1.394 . S
C904 C905 1.517 1_556 S
C905 C904 1.517 1_554 S
C905 C906 1.502 . S
C905 C907 1.561 . S
C905 C908 1.525 . S
C906 H890 0.962 . S
C906 H891 0.979 . S
C906 H892 0.940 1_554 S
C906 C905 1.502 . S
C907 H893 0.958 1_554 S
C907 H894 0.963 . S
C907 H895 0.959 . S
C907 C905 1.561 . S
C908 C905 1.525 . S
C908 C909 1.396 . S
C908 C913 1.390 . S
C909 C903 1.465 1_554 S
C909 C908 1.396 . S
C909 C910 1.399 . S
C910 H896 0.929 . S
C910 C909 1.399 . S
C910 C911 1.385 . S
C911 H897 0.931 . S
C911 C910 1.385 . S
C911 C912 1.389 . S
C912 C911 1.389 . S
C912 C913 1.387 . S
C913 H898 0.930 . S
C913 C908 1.390 . S
C913 C912 1.387 . S
H914 C926 0.930 . S
H915 C928 0.930 . S
H916 C929 0.930 . S
H917 C933 0.959 . S
H918 C933 0.959 . S
H919 C933 0.961 . S
H920 C934 0.960 . S
H921 C934 0.961 . S
H922 C934 0.959 . S
H923 C937 0.929 . S
H924 C938 0.931 . S
H925 C940 0.930 . S
C926 H914 0.930 . S
C926 C927 1.399 . S
C926 C931 1.399 . S
C927 C926 1.399 . S
C927 C928 1.376 . S
C928 H915 0.930 . S
C928 C927 1.376 . S
C928 C929 1.388 . S
C929 H916 0.930 . S
C929 C928 1.388 . S
C929 C930 1.390 . S
C930 C929 1.390 . S
C930 C931 1.394 . S
C930 C936 1.465 . S
C931 C926 1.399 . S
C931 C930 1.394 . S
C931 C932 1.516 . S
C932 C931 1.516 . S
C932 C933 1.502 . S
C932 C934 1.561 . S
C932 C935 1.526 . S
C933 H917 0.959 . S
C933 H918 0.959 . S
C933 H919 0.961 . S
C933 C932 1.502 . S
C934 H920 0.960 . S
C934 H921 0.961 . S
C934 H922 0.959 . S
C934 C932 1.561 . S
C935 C932 1.526 . S
C935 C936 1.396 . S
C935 C940 1.390 . S
C936 C930 1.465 . S
C936 C935 1.396 . S
C936 C937 1.399 . S
C937 H923 0.929 . S
C937 C936 1.399 . S
C937 C938 1.385 . S
C938 H924 0.931 . S
C938 C937 1.385 . S
C938 C939 1.389 . S
C939 C938 1.389 . S
C939 C940 1.387 . S
C940 H925 0.930 . S
C940 C935 1.390 . S
C940 C939 1.387 . S
H941 C953 0.930 . S
H942 C955 0.930 . S
H943 C956 0.930 . S
H944 C960 0.959 . S
H945 C960 0.959 . S
H946 C960 0.961 . S
H947 C961 0.960 . S
H948 C961 0.961 . S
H949 C961 0.959 . S
H950 C964 0.929 . S
H951 C965 0.931 . S
H952 C967 0.930 . S
C953 H941 0.930 . S
C953 C954 1.399 . S
C953 C958 1.399 . S
C954 C953 1.399 . S
C954 C955 1.376 . S
C955 H942 0.930 . S
C955 C954 1.376 . S
C955 C956 1.388 . S
C956 H943 0.930 . S
C956 C955 1.388 . S
C956 C957 1.390 . S
C957 C956 1.390 . S
C957 C958 1.394 . S
C957 C963 1.465 . S
C958 C953 1.399 . S
C958 C957 1.394 . S
C958 C959 1.516 . S
C959 C958 1.516 . S
C959 C960 1.502 . S
C959 C961 1.561 . S
C959 C962 1.526 . S
C960 H944 0.959 . S
C960 H945 0.959 . S
C960 H946 0.961 . S
C960 C959 1.502 . S
C961 H947 0.960 . S
C961 H948 0.961 . S
C961 H949 0.959 . S
C961 C959 1.561 . S
C962 C959 1.526 . S
C962 C963 1.396 . S
C962 C967 1.390 . S
C963 C957 1.465 . S
C963 C962 1.396 . S
C963 C964 1.399 . S
C964 H950 0.929 . S
C964 C963 1.399 . S
C964 C965 1.385 . S
C965 H951 0.931 . S
C965 C964 1.385 . S
C965 C966 1.389 . S
C966 C965 1.389 . S
C966 C967 1.387 . S
C967 H952 0.930 . S
C967 C962 1.390 . S
C967 C966 1.387 . S
H968 C980 0.930 . S
H969 C982 0.930 . S
H970 C983 0.930 . S
H971 C987 0.962 . S
H972 C987 0.980 . S
H973 C987 0.938 1_655 S
H974 C988 0.960 1_655 S
H975 C988 0.961 . S
H976 C988 0.959 . S
H977 C991 0.929 . S
H978 C992 0.931 . S
H979 C994 0.930 . S
C980 H968 0.930 . S
C980 C981 1.399 1_565 S
C980 C985 1.399 . S
C981 C980 1.399 1_545 S
C981 C982 1.376 . S
C982 H969 0.930 . S
C982 C981 1.376 . S
C982 C983 1.388 . S
C983 H970 0.930 . S
C983 C982 1.388 . S
C983 C984 1.390 . S
C984 C983 1.390 . S
C984 C985 1.394 1_545 S
C984 C990 1.465 1_655 S
C985 C980 1.399 . S
C985 C984 1.394 1_565 S
C985 C986 1.518 1_655 S
C986 C985 1.518 1_455 S
C986 C987 1.501 . S
C986 C988 1.561 1_565 S
C986 C989 1.524 . S
C987 H971 0.962 . S
C987 H972 0.980 . S
C987 H973 0.938 1_455 S
C987 C986 1.501 . S
C988 H974 0.960 1_455 S
C988 H975 0.961 . S
C988 H976 0.959 . S
C988 C986 1.561 1_545 S
C989 C986 1.524 . S
C989 C990 1.396 1_565 S
C989 C994 1.390 . S
C990 C984 1.465 1_455 S
C990 C989 1.396 1_545 S
C990 C991 1.399 . S
C991 H977 0.929 . S
C991 C990 1.399 . S
C991 C992 1.385 . S
C992 H978 0.931 . S
C992 C991 1.385 . S
C992 C993 1.389 . S
C993 C992 1.389 . S
C993 C994 1.387 1_545 S
C994 H979 0.930 . S
C994 C989 1.390 . S
C994 C993 1.387 1_565 S
H995 C1007 0.930 . S
H996 C1009 0.930 . S
H997 C1010 0.930 . S
H998 C1014 0.962 . S
H999 C1014 0.980 . S
H1000 C1014 0.939 1_655 S
H1001 C1015 0.961 1_655 S
H1002 C1015 0.960 . S
H1003 C1015 0.959 . S
H1004 C1018 0.929 . S
H1005 C1019 0.931 . S
H1006 C1021 0.930 . S
C1007 H995 0.930 . S
C1007 C1008 1.399 1_545 S
C1007 C1012 1.399 1_545 S
C1008 C1007 1.399 1_565 S
C1008 C1009 1.376 . S
C1009 H996 0.930 . S
C1009 C1008 1.376 . S
C1009 C1010 1.388 . S
C1010 H997 0.930 . S
C1010 C1009 1.388 . S
C1010 C1011 1.390 . S
C1011 C1010 1.390 . S
C1011 C1012 1.394 . S
C1011 C1017 1.465 1_655 S
C1012 C1007 1.399 1_565 S
C1012 C1011 1.394 . S
C1012 C1013 1.518 1_665 S
C1013 C1012 1.518 1_445 S
C1013 C1014 1.503 . S
C1013 C1015 1.560 1_545 S
C1013 C1016 1.524 1_545 S
C1014 H998 0.962 . S
C1014 H999 0.980 . S
C1014 H1000 0.939 1_455 S
C1014 C1013 1.503 . S
C1015 H1001 0.961 1_455 S
C1015 H1002 0.960 . S
C1015 H1003 0.959 . S
C1015 C1013 1.560 1_565 S
C1016 C1013 1.524 1_565 S
C1016 C1017 1.396 . S
C1016 C1021 1.390 1_565 S
C1017 C1011 1.465 1_455 S
C1017 C1016 1.396 . S
C1017 C1018 1.399 . S
C1018 H1004 0.929 . S
C1018 C1017 1.399 . S
C1018 C1019 1.385 . S
C1019 H1005 0.931 . S
C1019 C1018 1.385 . S
C1019 C1020 1.389 . S
C1020 C1019 1.389 . S
C1020 C1021 1.387 1_565 S
C1021 H1006 0.930 . S
C1021 C1016 1.390 1_545 S
C1021 C1020 1.387 1_545 S
H1022 C1034 0.930 . S
H1023 C1036 0.930 . S
H1024 C1037 0.930 . S
H1025 C1041 0.961 . S
H1026 C1041 0.975 . S
H1027 C1041 0.943 1_455 S
H1028 C1042 0.957 1_455 S
H1029 C1042 0.963 . S
H1030 C1042 0.959 . S
H1031 C1045 0.929 . S
H1032 C1046 0.931 . S
H1033 C1048 0.930 . S
C1034 H1022 0.930 . S
C1034 C1035 1.399 1_565 S
C1034 C1039 1.399 . S
C1035 C1034 1.399 1_545 S
C1035 C1036 1.376 . S
C1036 H1023 0.930 . S
C1036 C1035 1.376 . S
C1036 C1037 1.388 . S
C1037 H1024 0.930 . S
C1037 C1036 1.388 . S
C1037 C1038 1.390 . S
C1038 C1037 1.390 . S
C1038 C1039 1.394 1_545 S
C1038 C1044 1.465 1_455 S
C1039 C1034 1.399 . S
C1039 C1038 1.394 1_565 S
C1039 C1040 1.519 1_455 S
C1040 C1039 1.519 1_655 S
C1040 C1041 1.502 . S
C1040 C1042 1.561 1_565 S
C1040 C1043 1.523 . S
C1041 H1025 0.961 . S
C1041 H1026 0.975 . S
C1041 H1027 0.943 1_655 S
C1041 C1040 1.502 . S
C1042 H1028 0.957 1_655 S
C1042 H1029 0.963 . S
C1042 H1030 0.959 . S
C1042 C1040 1.561 1_545 S
C1043 C1040 1.523 . S
C1043 C1044 1.396 1_565 S
C1043 C1048 1.390 . S
C1044 C1038 1.465 1_655 S
C1044 C1043 1.396 1_545 S
C1044 C1045 1.399 . S
C1045 H1031 0.929 . S
C1045 C1044 1.399 . S
C1045 C1046 1.385 . S
C1046 H1032 0.931 . S
C1046 C1045 1.385 . S
C1046 C1047 1.389 . S
C1047 C1046 1.389 . S
C1047 C1048 1.387 1_545 S
C1048 H1033 0.930 . S
C1048 C1043 1.390 . S
C1048 C1047 1.387 1_565 S
H1049 C1061 0.930 . S
H1050 C1063 0.930 . S
H1051 C1064 0.930 . S
H1052 C1068 0.962 1_545 S
H1053 C1068 0.977 . S
H1054 C1068 0.941 1_655 S
H1055 C1069 0.963 1_655 S
H1056 C1069 0.958 . S
H1057 C1069 0.959 . S
H1058 C1072 0.929 . S
H1059 C1073 0.931 . S
H1060 C1075 0.930 . S
C1061 H1049 0.930 . S
C1061 C1062 1.395 1_565 S
C1061 C1066 1.399 . S
C1062 C1061 1.395 1_545 S
C1062 C1063 1.381 . S
C1063 H1050 0.930 . S
C1063 C1062 1.381 . S
C1063 C1064 1.388 . S
C1064 H1051 0.930 . S
C1064 C1063 1.388 . S
C1064 C1065 1.390 . S
C1065 C1064 1.390 . S
C1065 C1066 1.394 1_545 S
C1065 C1071 1.465 1_655 S
C1066 C1061 1.399 . S
C1066 C1065 1.394 1_565 S
C1066 C1067 1.519 1_655 S
C1067 C1066 1.519 1_455 S
C1067 C1068 1.501 . S
C1067 C1069 1.561 . S
C1067 C1070 1.522 . S
C1068 H1052 0.962 1_565 S
C1068 H1053 0.977 . S
C1068 H1054 0.941 1_455 S
C1068 C1067 1.501 . S
C1069 H1055 0.963 1_455 S
C1069 H1056 0.958 . S
C1069 H1057 0.959 . S
C1069 C1067 1.561 . S
C1070 C1067 1.522 . S
C1070 C1071 1.396 1_565 S
C1070 C1075 1.390 . S
C1071 C1065 1.465 1_455 S
C1071 C1070 1.396 1_545 S
C1071 C1072 1.399 . S
C1072 H1058 0.929 . S
C1072 C1071 1.399 . S
C1072 C1073 1.385 . S
C1073 H1059 0.931 . S
C1073 C1072 1.385 . S
C1073 C1074 1.389 . S
C1074 C1073 1.389 . S
C1074 C1075 1.387 1_545 S
C1075 H1060 0.930 . S
C1075 C1070 1.390 . S
C1075 C1074 1.387 1_565 S
H1076 C1088 0.930 . S
H1077 C1090 0.930 . S
H1078 C1091 0.930 . S
H1079 C1095 0.959 . S
H1080 C1095 0.959 . S
H1081 C1095 0.961 . S
H1082 C1096 0.960 . S
H1083 C1096 0.961 . S
H1084 C1096 0.959 . S
H1085 C1099 0.929 . S
H1086 C1100 0.931 . S
H1087 C1102 0.930 . S
C1088 H1076 0.930 . S
C1088 C1089 1.399 . S
C1088 C1093 1.399 . S
C1089 C1088 1.399 . S
C1089 C1090 1.376 . S
C1090 H1077 0.930 . S
C1090 C1089 1.376 . S
C1090 C1091 1.388 . S
C1091 H1078 0.930 . S
C1091 C1090 1.388 . S
C1091 C1092 1.390 . S
C1092 C1091 1.390 . S
C1092 C1093 1.394 . S
C1092 C1098 1.465 . S
C1093 C1088 1.399 . S
C1093 C1092 1.394 . S
C1093 C1094 1.516 . S
C1094 C1093 1.516 . S
C1094 C1095 1.502 . S
C1094 C1096 1.561 . S
C1094 C1097 1.526 . S
C1095 H1079 0.959 . S
C1095 H1080 0.959 . S
C1095 H1081 0.961 . S
C1095 C1094 1.502 . S
C1096 H1082 0.960 . S
C1096 H1083 0.961 . S
C1096 H1084 0.959 . S
C1096 C1094 1.561 . S
C1097 C1094 1.526 . S
C1097 C1098 1.396 . S
C1097 C1102 1.390 . S
C1098 C1092 1.465 . S
C1098 C1097 1.396 . S
C1098 C1099 1.399 . S
C1099 H1085 0.929 . S
C1099 C1098 1.399 . S
C1099 C1100 1.385 . S
C1100 H1086 0.931 . S
C1100 C1099 1.385 . S
C1100 C1101 1.389 . S
C1101 C1100 1.389 . S
C1101 C1102 1.387 . S
C1102 H1087 0.930 . S
C1102 C1097 1.390 . S
C1102 C1101 1.387 . S
H1103 C1115 0.930 . S
H1104 C1117 0.930 . S
H1105 C1118 0.930 . S
H1106 C1122 0.959 . S
H1107 C1122 0.959 . S
H1108 C1122 0.961 . S
H1109 C1123 0.960 . S
H1110 C1123 0.961 . S
H1111 C1123 0.959 . S
H1112 C1126 0.929 . S
H1113 C1127 0.931 . S
H1114 C1129 0.930 . S
C1115 H1103 0.930 . S
C1115 C1116 1.399 . S
C1115 C1120 1.399 . S
C1116 C1115 1.399 . S
C1116 C1117 1.376 . S
C1117 H1104 0.930 . S
C1117 C1116 1.376 . S
C1117 C1118 1.388 . S
C1118 H1105 0.930 . S
C1118 C1117 1.388 . S
C1118 C1119 1.390 . S
C1119 C1118 1.390 . S
C1119 C1120 1.394 . S
C1119 C1125 1.465 . S
C1120 C1115 1.399 . S
C1120 C1119 1.394 . S
C1120 C1121 1.516 . S
C1121 C1120 1.516 . S
C1121 C1122 1.502 . S
C1121 C1123 1.561 . S
C1121 C1124 1.526 . S
C1122 H1106 0.959 . S
C1122 H1107 0.959 . S
C1122 H1108 0.961 . S
C1122 C1121 1.502 . S
C1123 H1109 0.960 . S
C1123 H1110 0.961 . S
C1123 H1111 0.959 . S
C1123 C1121 1.561 . S
C1124 C1121 1.526 . S
C1124 C1125 1.396 . S
C1124 C1129 1.390 . S
C1125 C1119 1.465 . S
C1125 C1124 1.396 . S
C1125 C1126 1.399 . S
C1126 H1112 0.929 . S
C1126 C1125 1.399 . S
C1126 C1127 1.385 . S
C1127 H1113 0.931 . S
C1127 C1126 1.385 . S
C1127 C1128 1.389 . S
C1128 C1127 1.389 . S
C1128 C1129 1.387 . S
C1129 H1114 0.930 . S
C1129 C1124 1.390 . S
C1129 C1128 1.387 . S
H1130 C1142 0.930 . S
H1131 C1144 0.930 . S
H1132 C1145 0.930 . S
H1133 C1149 0.959 . S
H1134 C1149 0.959 . S
H1135 C1149 0.961 . S
H1136 C1150 0.960 . S
H1137 C1150 0.961 . S
H1138 C1150 0.959 . S
H1139 C1153 0.929 . S
H1140 C1154 0.931 . S
H1141 C1156 0.930 . S
C1142 H1130 0.930 . S
C1142 C1143 1.399 . S
C1142 C1147 1.399 . S
C1143 C1142 1.399 . S
C1143 C1144 1.376 . S
C1144 H1131 0.930 . S
C1144 C1143 1.376 . S
C1144 C1145 1.388 . S
C1145 H1132 0.930 . S
C1145 C1144 1.388 . S
C1145 C1146 1.390 . S
C1146 C1145 1.390 . S
C1146 C1147 1.394 . S
C1146 C1152 1.465 . S
C1147 C1142 1.399 . S
C1147 C1146 1.394 . S
C1147 C1148 1.516 . S
C1148 C1147 1.516 . S
C1148 C1149 1.502 . S
C1148 C1150 1.561 . S
C1148 C1151 1.526 . S
C1149 H1133 0.959 . S
C1149 H1134 0.959 . S
C1149 H1135 0.961 . S
C1149 C1148 1.502 . S
C1150 H1136 0.960 . S
C1150 H1137 0.961 . S
C1150 H1138 0.959 . S
C1150 C1148 1.561 . S
C1151 C1148 1.526 . S
C1151 C1152 1.396 . S
C1151 C1156 1.390 . S
C1152 C1146 1.465 . S
C1152 C1151 1.396 . S
C1152 C1153 1.399 . S
C1153 H1139 0.929 . S
C1153 C1152 1.399 . S
C1153 C1154 1.385 . S
C1154 H1140 0.931 . S
C1154 C1153 1.385 . S
C1154 C1155 1.389 . S
C1155 C1154 1.389 . S
C1155 C1156 1.387 . S
C1156 H1141 0.930 . S
C1156 C1151 1.390 . S
C1156 C1155 1.387 . S
H1157 C1169 0.930 . S
H1158 C1171 0.930 . S
H1159 C1172 0.930 . S
H1160 C1176 0.959 . S
H1161 C1176 0.959 . S
H1162 C1176 0.961 . S
H1163 C1177 0.960 . S
H1164 C1177 0.961 . S
H1165 C1177 0.959 . S
H1166 C1180 0.929 . S
H1167 C1181 0.931 . S
H1168 C1183 0.930 . S
C1169 H1157 0.930 . S
C1169 C1170 1.399 . S
C1169 C1174 1.399 . S
C1170 C1169 1.399 . S
C1170 C1171 1.376 . S
C1171 H1158 0.930 . S
C1171 C1170 1.376 . S
C1171 C1172 1.388 . S
C1172 H1159 0.930 . S
C1172 C1171 1.388 . S
C1172 C1173 1.390 . S
C1173 C1172 1.390 . S
C1173 C1174 1.394 . S
C1173 C1179 1.465 . S
C1174 C1169 1.399 . S
C1174 C1173 1.394 . S
C1174 C1175 1.516 . S
C1175 C1174 1.516 . S
C1175 C1176 1.502 . S
C1175 C1177 1.561 . S
C1175 C1178 1.526 . S
C1176 H1160 0.959 . S
C1176 H1161 0.959 . S
C1176 H1162 0.961 . S
C1176 C1175 1.502 . S
C1177 H1163 0.960 . S
C1177 H1164 0.961 . S
C1177 H1165 0.959 . S
C1177 C1175 1.561 . S
C1178 C1175 1.526 . S
C1178 C1179 1.396 . S
C1178 C1183 1.390 . S
C1179 C1173 1.465 . S
C1179 C1178 1.396 . S
C1179 C1180 1.399 . S
C1180 H1166 0.929 . S
C1180 C1179 1.399 . S
C1180 C1181 1.385 . S
C1181 H1167 0.931 . S
C1181 C1180 1.385 . S
C1181 C1182 1.389 . S
C1182 C1181 1.389 . S
C1182 C1183 1.387 . S
C1183 H1168 0.930 . S
C1183 C1178 1.390 . S
C1183 C1182 1.387 . S
H1184 C1196 0.930 . S
H1185 C1198 0.930 . S
H1186 C1199 0.930 . S
H1187 C1203 0.959 . S
H1188 C1203 0.959 . S
H1189 C1203 0.961 . S
H1190 C1204 0.960 . S
H1191 C1204 0.961 . S
H1192 C1204 0.959 . S
H1193 C1207 0.929 . S
H1194 C1208 0.931 . S
H1195 C1210 0.930 . S
C1196 H1184 0.930 . S
C1196 C1197 1.399 . S
C1196 C1201 1.399 . S
C1197 C1196 1.399 . S
C1197 C1198 1.376 . S
C1198 H1185 0.930 . S
C1198 C1197 1.376 . S
C1198 C1199 1.388 . S
C1199 H1186 0.930 . S
C1199 C1198 1.388 . S
C1199 C1200 1.390 . S
C1200 C1199 1.390 . S
C1200 C1201 1.394 . S
C1200 C1206 1.465 . S
C1201 C1196 1.399 . S
C1201 C1200 1.394 . S
C1201 C1202 1.516 . S
C1202 C1201 1.516 . S
C1202 C1203 1.502 . S
C1202 C1204 1.561 . S
C1202 C1205 1.526 . S
C1203 H1187 0.959 . S
C1203 H1188 0.959 . S
C1203 H1189 0.961 . S
C1203 C1202 1.502 . S
C1204 H1190 0.960 . S
C1204 H1191 0.961 . S
C1204 H1192 0.959 . S
C1204 C1202 1.561 . S
C1205 C1202 1.526 . S
C1205 C1206 1.396 . S
C1205 C1210 1.390 . S
C1206 C1200 1.465 . S
C1206 C1205 1.396 . S
C1206 C1207 1.399 . S
C1207 H1193 0.929 . S
C1207 C1206 1.399 . S
C1207 C1208 1.385 . S
C1208 H1194 0.931 . S
C1208 C1207 1.385 . S
C1208 C1209 1.389 . S
C1209 C1208 1.389 . S
C1209 C1210 1.387 . S
C1210 H1195 0.930 . S
C1210 C1205 1.390 . S
C1210 C1209 1.387 . S
H1211 C1223 0.930 . S
H1212 C1225 0.930 . S
H1213 C1226 0.930 . S
H1214 C1230 0.959 . S
H1215 C1230 0.959 . S
H1216 C1230 0.961 . S
H1217 C1231 0.960 . S
H1218 C1231 0.961 . S
H1219 C1231 0.959 . S
H1220 C1234 0.929 . S
H1221 C1235 0.931 . S
H1222 C1237 0.930 . S
C1223 H1211 0.930 . S
C1223 C1224 1.399 . S
C1223 C1228 1.399 . S
C1224 C1223 1.399 . S
C1224 C1225 1.376 . S
C1225 H1212 0.930 . S
C1225 C1224 1.376 . S
C1225 C1226 1.388 . S
C1226 H1213 0.930 . S
C1226 C1225 1.388 . S
C1226 C1227 1.390 . S
C1227 C1226 1.390 . S
C1227 C1228 1.394 . S
C1227 C1233 1.465 . S
C1228 C1223 1.399 . S
C1228 C1227 1.394 . S
C1228 C1229 1.516 . S
C1229 C1228 1.516 . S
C1229 C1230 1.502 . S
C1229 C1231 1.561 . S
C1229 C1232 1.526 . S
C1230 H1214 0.959 . S
C1230 H1215 0.959 . S
C1230 H1216 0.961 . S
C1230 C1229 1.502 . S
C1231 H1217 0.960 . S
C1231 H1218 0.961 . S
C1231 H1219 0.959 . S
C1231 C1229 1.561 . S
C1232 C1229 1.526 . S
C1232 C1233 1.396 . S
C1232 C1237 1.390 . S
C1233 C1227 1.465 . S
C1233 C1232 1.396 . S
C1233 C1234 1.399 . S
C1234 H1220 0.929 . S
C1234 C1233 1.399 . S
C1234 C1235 1.385 . S
C1235 H1221 0.931 . S
C1235 C1234 1.385 . S
C1235 C1236 1.389 . S
C1236 C1235 1.389 . S
C1236 C1237 1.387 . S
C1237 H1222 0.930 . S
C1237 C1232 1.390 . S
C1237 C1236 1.387 . S
H1238 C1250 0.930 . S
H1239 C1252 0.930 . S
H1240 C1253 0.930 . S
H1241 C1257 0.959 . S
H1242 C1257 0.959 . S
H1243 C1257 0.961 . S
H1244 C1258 0.960 . S
H1245 C1258 0.961 . S
H1246 C1258 0.959 . S
H1247 C1261 0.929 . S
H1248 C1262 0.931 . S
H1249 C1264 0.930 . S
C1250 H1238 0.930 . S
C1250 C1251 1.399 . S
C1250 C1255 1.399 . S
C1251 C1250 1.399 . S
C1251 C1252 1.376 . S
C1252 H1239 0.930 . S
C1252 C1251 1.376 . S
C1252 C1253 1.388 . S
C1253 H1240 0.930 . S
C1253 C1252 1.388 . S
C1253 C1254 1.390 . S
C1254 C1253 1.390 . S
C1254 C1255 1.394 . S
C1254 C1260 1.465 . S
C1255 C1250 1.399 . S
C1255 C1254 1.394 . S
C1255 C1256 1.516 . S
C1256 C1255 1.516 . S
C1256 C1257 1.502 . S
C1256 C1258 1.561 . S
C1256 C1259 1.526 . S
C1257 H1241 0.959 . S
C1257 H1242 0.959 . S
C1257 H1243 0.961 . S
C1257 C1256 1.502 . S
C1258 H1244 0.960 . S
C1258 H1245 0.961 . S
C1258 H1246 0.959 . S
C1258 C1256 1.561 . S
C1259 C1256 1.526 . S
C1259 C1260 1.396 . S
C1259 C1264 1.390 . S
C1260 C1254 1.465 . S
C1260 C1259 1.396 . S
C1260 C1261 1.399 . S
C1261 H1247 0.929 . S
C1261 C1260 1.399 . S
C1261 C1262 1.385 . S
C1262 H1248 0.931 . S
C1262 C1261 1.385 . S
C1262 C1263 1.389 . S
C1263 C1262 1.389 . S
C1263 C1264 1.387 . S
C1264 H1249 0.930 . S
C1264 C1259 1.390 . S
C1264 C1263 1.387 . S
H1265 C1277 0.930 . S
H1266 C1279 0.930 . S
H1267 C1280 0.930 . S
H1268 C1284 0.959 . S
H1269 C1284 0.959 . S
H1270 C1284 0.961 . S
H1271 C1285 0.960 . S
H1272 C1285 0.961 . S
H1273 C1285 0.959 . S
H1274 C1288 0.929 . S
H1275 C1289 0.931 . S
H1276 C1291 0.930 . S
C1277 H1265 0.930 . S
C1277 C1278 1.399 . S
C1277 C1282 1.399 . S
C1278 C1277 1.399 . S
C1278 C1279 1.376 . S
C1279 H1266 0.930 . S
C1279 C1278 1.376 . S
C1279 C1280 1.388 . S
C1280 H1267 0.930 . S
C1280 C1279 1.388 . S
C1280 C1281 1.390 . S
C1281 C1280 1.390 . S
C1281 C1282 1.394 . S
C1281 C1287 1.465 . S
C1282 C1277 1.399 . S
C1282 C1281 1.394 . S
C1282 C1283 1.516 . S
C1283 C1282 1.516 . S
C1283 C1284 1.502 . S
C1283 C1285 1.561 . S
C1283 C1286 1.526 . S
C1284 H1268 0.959 . S
C1284 H1269 0.959 . S
C1284 H1270 0.961 . S
C1284 C1283 1.502 . S
C1285 H1271 0.960 . S
C1285 H1272 0.961 . S
C1285 H1273 0.959 . S
C1285 C1283 1.561 . S
C1286 C1283 1.526 . S
C1286 C1287 1.396 . S
C1286 C1291 1.390 . S
C1287 C1281 1.465 . S
C1287 C1286 1.396 . S
C1287 C1288 1.399 . S
C1288 H1274 0.929 . S
C1288 C1287 1.399 . S
C1288 C1289 1.385 . S
C1289 H1275 0.931 . S
C1289 C1288 1.385 . S
C1289 C1290 1.389 . S
C1290 C1289 1.389 . S
C1290 C1291 1.387 . S
C1291 H1276 0.930 . S
C1291 C1286 1.390 . S
C1291 C1290 1.387 . S
H1292 C1304 0.930 . S
H1293 C1306 0.930 . S
H1294 C1307 0.930 . S
H1295 C1311 0.959 . S
H1296 C1311 0.959 . S
H1297 C1311 0.961 . S
H1298 C1312 0.960 . S
H1299 C1312 0.961 . S
H1300 C1312 0.959 . S
H1301 C1315 0.929 . S
H1302 C1316 0.931 . S
H1303 C1318 0.930 . S
C1304 H1292 0.930 . S
C1304 C1305 1.399 . S
C1304 C1309 1.399 . S
C1305 C1304 1.399 . S
C1305 C1306 1.376 . S
C1306 H1293 0.930 . S
C1306 C1305 1.376 . S
C1306 C1307 1.388 . S
C1307 H1294 0.930 . S
C1307 C1306 1.388 . S
C1307 C1308 1.390 . S
C1308 C1307 1.390 . S
C1308 C1309 1.394 . S
C1308 C1314 1.465 . S
C1309 C1304 1.399 . S
C1309 C1308 1.394 . S
C1309 C1310 1.516 . S
C1310 C1309 1.516 . S
C1310 C1311 1.502 . S
C1310 C1312 1.561 . S
C1310 C1313 1.526 . S
C1311 H1295 0.959 . S
C1311 H1296 0.959 . S
C1311 H1297 0.961 . S
C1311 C1310 1.502 . S
C1312 H1298 0.960 . S
C1312 H1299 0.961 . S
C1312 H1300 0.959 . S
C1312 C1310 1.561 . S
C1313 C1310 1.526 . S
C1313 C1314 1.396 . S
C1313 C1318 1.390 . S
C1314 C1308 1.465 . S
C1314 C1313 1.396 . S
C1314 C1315 1.399 . S
C1315 H1301 0.929 . S
C1315 C1314 1.399 . S
C1315 C1316 1.385 . S
C1316 H1302 0.931 . S
C1316 C1315 1.385 . S
C1316 C1317 1.389 . S
C1317 C1316 1.389 . S
C1317 C1318 1.387 . S
C1318 H1303 0.930 . S
C1318 C1313 1.390 . S
C1318 C1317 1.387 . S
H1319 C1331 0.930 . S
H1320 C1333 0.930 . S
H1321 C1334 0.930 . S
H1322 C1338 0.959 . S
H1323 C1338 0.959 . S
H1324 C1338 0.961 . S
H1325 C1339 0.960 . S
H1326 C1339 0.961 . S
H1327 C1339 0.959 . S
H1328 C1342 0.929 . S
H1329 C1343 0.931 . S
H1330 C1345 0.930 . S
C1331 H1319 0.930 . S
C1331 C1332 1.399 . S
C1331 C1336 1.399 . S
C1332 C1331 1.399 . S
C1332 C1333 1.376 . S
C1333 H1320 0.930 . S
C1333 C1332 1.376 . S
C1333 C1334 1.388 . S
C1334 H1321 0.930 . S
C1334 C1333 1.388 . S
C1334 C1335 1.390 . S
C1335 C1334 1.390 . S
C1335 C1336 1.394 . S
C1335 C1341 1.465 . S
C1336 C1331 1.399 . S
C1336 C1335 1.394 . S
C1336 C1337 1.516 . S
C1337 C1336 1.516 . S
C1337 C1338 1.502 . S
C1337 C1339 1.561 . S
C1337 C1340 1.526 . S
C1338 H1322 0.959 . S
C1338 H1323 0.959 . S
C1338 H1324 0.961 . S
C1338 C1337 1.502 . S
C1339 H1325 0.960 . S
C1339 H1326 0.961 . S
C1339 H1327 0.959 . S
C1339 C1337 1.561 . S
C1340 C1337 1.526 . S
C1340 C1341 1.396 . S
C1340 C1345 1.390 . S
C1341 C1335 1.465 . S
C1341 C1340 1.396 . S
C1341 C1342 1.399 . S
C1342 H1328 0.929 . S
C1342 C1341 1.399 . S
C1342 C1343 1.385 . S
C1343 H1329 0.931 . S
C1343 C1342 1.385 . S
C1343 C1344 1.389 . S
C1344 C1343 1.389 . S
C1344 C1345 1.387 . S
C1345 H1330 0.930 . S
C1345 C1340 1.390 . S
C1345 C1344 1.387 . S
H1346 C1358 0.930 . S
H1347 C1360 0.930 . S
H1348 C1361 0.930 . S
H1349 C1365 0.959 . S
H1350 C1365 0.959 . S
H1351 C1365 0.961 . S
H1352 C1366 0.960 . S
H1353 C1366 0.961 . S
H1354 C1366 0.959 . S
H1355 C1369 0.929 . S
H1356 C1370 0.931 . S
H1357 C1372 0.930 . S
C1358 H1346 0.930 . S
C1358 C1359 1.399 . S
C1358 C1363 1.399 . S
C1359 C1358 1.399 . S
C1359 C1360 1.376 . S
C1360 H1347 0.930 . S
C1360 C1359 1.376 . S
C1360 C1361 1.388 . S
C1361 H1348 0.930 . S
C1361 C1360 1.388 . S
C1361 C1362 1.390 . S
C1362 C1361 1.390 . S
C1362 C1363 1.394 . S
C1362 C1368 1.465 . S
C1363 C1358 1.399 . S
C1363 C1362 1.394 . S
C1363 C1364 1.516 . S
C1364 C1363 1.516 . S
C1364 C1365 1.502 . S
C1364 C1366 1.561 . S
C1364 C1367 1.526 . S
C1365 H1349 0.959 . S
C1365 H1350 0.959 . S
C1365 H1351 0.961 . S
C1365 C1364 1.502 . S
C1366 H1352 0.960 . S
C1366 H1353 0.961 . S
C1366 H1354 0.959 . S
C1366 C1364 1.561 . S
C1367 C1364 1.526 . S
C1367 C1368 1.396 . S
C1367 C1372 1.390 . S
C1368 C1362 1.465 . S
C1368 C1367 1.396 . S
C1368 C1369 1.399 . S
C1369 H1355 0.929 . S
C1369 C1368 1.399 . S
C1369 C1370 1.385 . S
C1370 H1356 0.931 . S
C1370 C1369 1.385 . S
C1370 C1371 1.389 . S
C1371 C1370 1.389 . S
C1371 C1372 1.387 . S
C1372 H1357 0.930 . S
C1372 C1367 1.390 . S
C1372 C1371 1.387 . S
H1373 C1385 0.930 . S
H1374 C1387 0.930 . S
H1375 C1388 0.930 . S
H1376 C1392 0.959 . S
H1377 C1392 0.959 . S
H1378 C1392 0.961 . S
H1379 C1393 0.960 . S
H1380 C1393 0.961 . S
H1381 C1393 0.959 . S
H1382 C1396 0.929 . S
H1383 C1397 0.931 . S
H1384 C1399 0.930 . S
C1385 H1373 0.930 . S
C1385 C1386 1.399 . S
C1385 C1390 1.399 . S
C1386 C1385 1.399 . S
C1386 C1387 1.376 . S
C1387 H1374 0.930 . S
C1387 C1386 1.376 . S
C1387 C1388 1.388 . S
C1388 H1375 0.930 . S
C1388 C1387 1.388 . S
C1388 C1389 1.390 . S
C1389 C1388 1.390 . S
C1389 C1390 1.394 . S
C1389 C1395 1.465 . S
C1390 C1385 1.399 . S
C1390 C1389 1.394 . S
C1390 C1391 1.516 . S
C1391 C1390 1.516 . S
C1391 C1392 1.502 . S
C1391 C1393 1.561 . S
C1391 C1394 1.526 . S
C1392 H1376 0.959 . S
C1392 H1377 0.959 . S
C1392 H1378 0.961 . S
C1392 C1391 1.502 . S
C1393 H1379 0.960 . S
C1393 H1380 0.961 . S
C1393 H1381 0.959 . S
C1393 C1391 1.561 . S
C1394 C1391 1.526 . S
C1394 C1395 1.396 . S
C1394 C1399 1.390 . S
C1395 C1389 1.465 . S
C1395 C1394 1.396 . S
C1395 C1396 1.399 . S
C1396 H1382 0.929 . S
C1396 C1395 1.399 . S
C1396 C1397 1.385 . S
C1397 H1383 0.931 . S
C1397 C1396 1.385 . S
C1397 C1398 1.389 . S
C1398 C1397 1.389 . S
C1398 C1399 1.387 . S
C1399 H1384 0.930 . S
C1399 C1394 1.390 . S
C1399 C1398 1.387 . S
H1400 C1412 0.930 . S
H1401 C1414 0.930 . S
H1402 C1415 0.930 . S
H1403 C1419 0.959 . S
H1404 C1419 0.959 . S
H1405 C1419 0.961 . S
H1406 C1420 0.960 . S
H1407 C1420 0.961 . S
H1408 C1420 0.959 . S
H1409 C1423 0.929 . S
H1410 C1424 0.931 . S
H1411 C1426 0.930 . S
C1412 H1400 0.930 . S
C1412 C1413 1.399 . S
C1412 C1417 1.399 1_565 S
C1413 C1412 1.399 . S
C1413 C1414 1.376 . S
C1414 H1401 0.930 . S
C1414 C1413 1.376 . S
C1414 C1415 1.388 1_565 S
C1415 H1402 0.930 . S
C1415 C1414 1.388 1_545 S
C1415 C1416 1.390 . S
C1416 C1415 1.390 . S
C1416 C1417 1.394 . S
C1416 C1422 1.465 . S
C1417 C1412 1.399 1_545 S
C1417 C1416 1.394 . S
C1417 C1418 1.516 . S
C1418 C1417 1.516 . S
C1418 C1419 1.502 . S
C1418 C1420 1.561 . S
C1418 C1421 1.526 . S
C1419 H1403 0.959 . S
C1419 H1404 0.959 . S
C1419 H1405 0.961 . S
C1419 C1418 1.502 . S
C1420 H1406 0.960 . S
C1420 H1407 0.961 . S
C1420 H1408 0.959 . S
C1420 C1418 1.561 . S
C1421 C1418 1.526 . S
C1421 C1422 1.396 . S
C1421 C1426 1.390 . S
C1422 C1416 1.465 . S
C1422 C1421 1.396 . S
C1422 C1423 1.399 . S
C1423 H1409 0.929 . S
C1423 C1422 1.399 . S
C1423 C1424 1.385 . S
C1424 H1410 0.931 . S
C1424 C1423 1.385 . S
C1424 C1425 1.389 . S
C1425 C1424 1.389 . S
C1425 C1426 1.387 . S
C1426 H1411 0.930 . S
C1426 C1421 1.390 . S
C1426 C1425 1.387 . S
H1427 C1439 0.930 . S
H1428 C1441 0.930 . S
H1429 C1442 0.930 . S
H1430 C1446 0.959 . S
H1431 C1446 0.959 . S
H1432 C1446 0.961 . S
H1433 C1447 0.960 . S
H1434 C1447 0.961 . S
H1435 C1447 0.959 . S
H1436 C1450 0.929 . S
H1437 C1451 0.931 . S
H1438 C1453 0.930 . S
C1439 H1427 0.930 . S
C1439 C1440 1.399 . S
C1439 C1444 1.399 . S
C1440 C1439 1.399 . S
C1440 C1441 1.376 . S
C1441 H1428 0.930 . S
C1441 C1440 1.376 . S
C1441 C1442 1.388 . S
C1442 H1429 0.930 . S
C1442 C1441 1.388 . S
C1442 C1443 1.390 . S
C1443 C1442 1.390 . S
C1443 C1444 1.394 . S
C1443 C1449 1.465 . S
C1444 C1439 1.399 . S
C1444 C1443 1.394 . S
C1444 C1445 1.516 . S
C1445 C1444 1.516 . S
C1445 C1446 1.502 . S
C1445 C1447 1.561 . S
C1445 C1448 1.526 . S
C1446 H1430 0.959 . S
C1446 H1431 0.959 . S
C1446 H1432 0.961 . S
C1446 C1445 1.502 . S
C1447 H1433 0.960 . S
C1447 H1434 0.961 . S
C1447 H1435 0.959 . S
C1447 C1445 1.561 . S
C1448 C1445 1.526 . S
C1448 C1449 1.396 . S
C1448 C1453 1.390 1_565 S
C1449 C1443 1.465 . S
C1449 C1448 1.396 . S
C1449 C1450 1.399 . S
C1450 H1436 0.929 . S
C1450 C1449 1.399 . S
C1450 C1451 1.385 1_565 S
C1451 H1437 0.931 . S
C1451 C1450 1.385 1_545 S
C1451 C1452 1.389 . S
C1452 C1451 1.389 . S
C1452 C1453 1.387 . S
C1453 H1438 0.930 . S
C1453 C1448 1.390 1_545 S
C1453 C1452 1.387 . S
H1454 C1466 0.930 . S
H1455 C1468 0.930 . S
H1456 C1469 0.930 . S
H1457 C1473 0.959 . S
H1458 C1473 0.959 . S
H1459 C1473 0.961 . S
H1460 C1474 0.960 . S
H1461 C1474 0.961 . S
H1462 C1474 0.959 . S
H1463 C1477 0.929 . S
H1464 C1478 0.931 . S
H1465 C1480 0.930 . S
C1466 H1454 0.930 . S
C1466 C1467 1.399 . S
C1466 C1471 1.399 1_545 S
C1467 C1466 1.399 . S
C1467 C1468 1.376 . S
C1468 H1455 0.930 . S
C1468 C1467 1.376 . S
C1468 C1469 1.388 1_545 S
C1469 H1456 0.930 . S
C1469 C1468 1.388 1_565 S
C1469 C1470 1.390 . S
C1470 C1469 1.390 . S
C1470 C1471 1.394 . S
C1470 C1476 1.465 . S
C1471 C1466 1.399 1_565 S
C1471 C1470 1.394 . S
C1471 C1472 1.516 . S
C1472 C1471 1.516 . S
C1472 C1473 1.502 . S
C1472 C1474 1.561 . S
C1472 C1475 1.526 . S
C1473 H1457 0.959 . S
C1473 H1458 0.959 . S
C1473 H1459 0.961 . S
C1473 C1472 1.502 . S
C1474 H1460 0.960 . S
C1474 H1461 0.961 . S
C1474 H1462 0.959 . S
C1474 C1472 1.561 . S
C1475 C1472 1.526 . S
C1475 C1476 1.396 . S
C1475 C1480 1.390 . S
C1476 C1470 1.465 . S
C1476 C1475 1.396 . S
C1476 C1477 1.399 . S
C1477 H1463 0.929 . S
C1477 C1476 1.399 . S
C1477 C1478 1.385 . S
C1478 H1464 0.931 . S
C1478 C1477 1.385 . S
C1478 C1479 1.389 . S
C1479 C1478 1.389 . S
C1479 C1480 1.387 . S
C1480 H1465 0.930 . S
C1480 C1475 1.390 . S
C1480 C1479 1.387 . S
H1481 C1493 0.930 . S
H1482 C1495 0.930 . S
H1483 C1496 0.930 . S
H1484 C1500 0.959 . S
H1485 C1500 0.959 . S
H1486 C1500 0.961 . S
H1487 C1501 0.960 . S
H1488 C1501 0.961 . S
H1489 C1501 0.959 . S
H1490 C1504 0.929 . S
H1491 C1505 0.931 . S
H1492 C1507 0.930 . S
C1493 H1481 0.930 . S
C1493 C1494 1.399 . S
C1493 C1498 1.399 1_565 S
C1494 C1493 1.399 . S
C1494 C1495 1.376 . S
C1495 H1482 0.930 . S
C1495 C1494 1.376 . S
C1495 C1496 1.388 1_565 S
C1496 H1483 0.930 . S
C1496 C1495 1.388 1_545 S
C1496 C1497 1.390 . S
C1497 C1496 1.390 . S
C1497 C1498 1.394 . S
C1497 C1503 1.465 . S
C1498 C1493 1.399 1_545 S
C1498 C1497 1.394 . S
C1498 C1499 1.516 . S
C1499 C1498 1.516 . S
C1499 C1500 1.502 . S
C1499 C1501 1.561 . S
C1499 C1502 1.526 . S
C1500 H1484 0.959 . S
C1500 H1485 0.959 . S
C1500 H1486 0.961 . S
C1500 C1499 1.502 . S
C1501 H1487 0.960 . S
C1501 H1488 0.961 . S
C1501 H1489 0.959 . S
C1501 C1499 1.561 . S
C1502 C1499 1.526 . S
C1502 C1503 1.396 . S
C1502 C1507 1.390 . S
C1503 C1497 1.465 . S
C1503 C1502 1.396 . S
C1503 C1504 1.399 . S
C1504 H1490 0.929 . S
C1504 C1503 1.399 . S
C1504 C1505 1.385 . S
C1505 H1491 0.931 . S
C1505 C1504 1.385 . S
C1505 C1506 1.389 . S
C1506 C1505 1.389 . S
C1506 C1507 1.387 . S
C1507 H1492 0.930 . S
C1507 C1502 1.390 . S
C1507 C1506 1.387 . S
H1508 C1520 0.930 . S
H1509 C1522 0.930 . S
H1510 C1523 0.930 . S
H1511 C1527 0.959 . S
H1512 C1527 0.959 . S
H1513 C1527 0.961 . S
H1514 C1528 0.960 . S
H1515 C1528 0.961 . S
H1516 C1528 0.959 . S
H1517 C1531 0.929 . S
H1518 C1532 0.931 . S
H1519 C1534 0.930 . S
C1520 H1508 0.930 . S
C1520 C1521 1.399 . S
C1520 C1525 1.399 . S
C1521 C1520 1.399 . S
C1521 C1522 1.376 . S
C1522 H1509 0.930 . S
C1522 C1521 1.376 . S
C1522 C1523 1.388 . S
C1523 H1510 0.930 . S
C1523 C1522 1.388 . S
C1523 C1524 1.390 . S
C1524 C1523 1.390 . S
C1524 C1525 1.394 . S
C1524 C1530 1.465 . S
C1525 C1520 1.399 . S
C1525 C1524 1.394 . S
C1525 C1526 1.516 . S
C1526 C1525 1.516 . S
C1526 C1527 1.502 . S
C1526 C1528 1.561 . S
C1526 C1529 1.526 . S
C1527 H1511 0.959 . S
C1527 H1512 0.959 . S
C1527 H1513 0.961 . S
C1527 C1526 1.502 . S
C1528 H1514 0.960 . S
C1528 H1515 0.961 . S
C1528 H1516 0.959 . S
C1528 C1526 1.561 . S
C1529 C1526 1.526 . S
C1529 C1530 1.396 . S
C1529 C1534 1.390 1_565 S
C1530 C1524 1.465 . S
C1530 C1529 1.396 . S
C1530 C1531 1.399 . S
C1531 H1517 0.929 . S
C1531 C1530 1.399 . S
C1531 C1532 1.385 1_565 S
C1532 H1518 0.931 . S
C1532 C1531 1.385 1_545 S
C1532 C1533 1.389 . S
C1533 C1532 1.389 . S
C1533 C1534 1.387 . S
C1534 H1519 0.930 . S
C1534 C1529 1.390 1_545 S
C1534 C1533 1.387 . S
H1535 C1547 0.930 . S
H1536 C1549 0.930 . S
H1537 C1550 0.930 . S
H1538 C1554 0.959 . S
H1539 C1554 0.959 . S
H1540 C1554 0.961 . S
H1541 C1555 0.960 . S
H1542 C1555 0.961 . S
H1543 C1555 0.959 . S
H1544 C1558 0.929 . S
H1545 C1559 0.931 . S
H1546 C1561 0.930 . S
C1547 H1535 0.930 . S
C1547 C1548 1.399 . S
C1547 C1552 1.399 . S
C1548 C1547 1.399 . S
C1548 C1549 1.376 . S
C1549 H1536 0.930 . S
C1549 C1548 1.376 . S
C1549 C1550 1.388 . S
C1550 H1537 0.930 . S
C1550 C1549 1.388 . S
C1550 C1551 1.390 . S
C1551 C1550 1.390 . S
C1551 C1552 1.394 . S
C1551 C1557 1.465 . S
C1552 C1547 1.399 . S
C1552 C1551 1.394 . S
C1552 C1553 1.516 . S
C1553 C1552 1.516 . S
C1553 C1554 1.502 . S
C1553 C1555 1.561 . S
C1553 C1556 1.526 . S
C1554 H1538 0.959 . S
C1554 H1539 0.959 . S
C1554 H1540 0.961 . S
C1554 C1553 1.502 . S
C1555 H1541 0.960 . S
C1555 H1542 0.961 . S
C1555 H1543 0.959 . S
C1555 C1553 1.561 . S
C1556 C1553 1.526 . S
C1556 C1557 1.396 . S
C1556 C1561 1.390 1_545 S
C1557 C1551 1.465 . S
C1557 C1556 1.396 . S
C1557 C1558 1.399 . S
C1558 H1544 0.929 . S
C1558 C1557 1.399 . S
C1558 C1559 1.385 1_545 S
C1559 H1545 0.931 . S
C1559 C1558 1.385 1_565 S
C1559 C1560 1.389 . S
C1560 C1559 1.389 . S
C1560 C1561 1.387 . S
C1561 H1546 0.930 . S
C1561 C1556 1.390 1_565 S
C1561 C1560 1.387 . S
H1562 C1574 0.930 . S
H1563 C1576 0.930 . S
H1564 C1577 0.930 . S
H1565 C1581 0.959 . S
H1566 C1581 0.959 . S
H1567 C1581 0.961 . S
H1568 C1582 0.960 . S
H1569 C1582 0.961 . S
H1570 C1582 0.959 . S
H1571 C1585 0.929 . S
H1572 C1586 0.931 . S
H1573 C1588 0.930 . S
C1574 H1562 0.930 . S
C1574 C1575 1.399 . S
C1574 C1579 1.399 1_565 S
C1575 C1574 1.399 . S
C1575 C1576 1.376 . S
C1576 H1563 0.930 . S
C1576 C1575 1.376 . S
C1576 C1577 1.388 1_565 S
C1577 H1564 0.930 . S
C1577 C1576 1.388 1_545 S
C1577 C1578 1.390 . S
C1578 C1577 1.390 . S
C1578 C1579 1.394 . S
C1578 C1584 1.465 . S
C1579 C1574 1.399 1_545 S
C1579 C1578 1.394 . S
C1579 C1580 1.516 . S
C1580 C1579 1.516 . S
C1580 C1581 1.502 . S
C1580 C1582 1.561 . S
C1580 C1583 1.526 . S
C1581 H1565 0.959 . S
C1581 H1566 0.959 . S
C1581 H1567 0.961 . S
C1581 C1580 1.502 . S
C1582 H1568 0.960 . S
C1582 H1569 0.961 . S
C1582 H1570 0.959 . S
C1582 C1580 1.561 . S
C1583 C1580 1.526 . S
C1583 C1584 1.396 . S
C1583 C1588 1.390 . S
C1584 C1578 1.465 . S
C1584 C1583 1.396 . S
C1584 C1585 1.399 . S
C1585 H1571 0.929 . S
C1585 C1584 1.399 . S
C1585 C1586 1.385 . S
C1586 H1572 0.931 . S
C1586 C1585 1.385 . S
C1586 C1587 1.389 . S
C1587 C1586 1.389 . S
C1587 C1588 1.387 . S
C1588 H1573 0.930 . S
C1588 C1583 1.390 . S
C1588 C1587 1.387 . S
H1589 C1601 0.930 . S
H1590 C1603 0.930 . S
H1591 C1604 0.930 . S
H1592 C1608 0.959 . S
H1593 C1608 0.959 . S
H1594 C1608 0.961 . S
H1595 C1609 0.960 . S
H1596 C1609 0.961 . S
H1597 C1609 0.959 . S
H1598 C1612 0.929 . S
H1599 C1613 0.931 . S
H1600 C1615 0.930 . S
C1601 H1589 0.930 . S
C1601 C1602 1.399 . S
C1601 C1606 1.399 . S
C1602 C1601 1.399 . S
C1602 C1603 1.376 . S
C1603 H1590 0.930 . S
C1603 C1602 1.376 . S
C1603 C1604 1.388 . S
C1604 H1591 0.930 . S
C1604 C1603 1.388 . S
C1604 C1605 1.390 . S
C1605 C1604 1.390 . S
C1605 C1606 1.394 . S
C1605 C1611 1.465 . S
C1606 C1601 1.399 . S
C1606 C1605 1.394 . S
C1606 C1607 1.516 . S
C1607 C1606 1.516 . S
C1607 C1608 1.502 . S
C1607 C1609 1.561 . S
C1607 C1610 1.526 . S
C1608 H1592 0.959 . S
C1608 H1593 0.959 . S
C1608 H1594 0.961 . S
C1608 C1607 1.502 . S
C1609 H1595 0.960 . S
C1609 H1596 0.961 . S
C1609 H1597 0.959 . S
C1609 C1607 1.561 . S
C1610 C1607 1.526 . S
C1610 C1611 1.396 . S
C1610 C1615 1.390 1_565 S
C1611 C1605 1.465 . S
C1611 C1610 1.396 . S
C1611 C1612 1.399 . S
C1612 H1598 0.929 . S
C1612 C1611 1.399 . S
C1612 C1613 1.385 1_565 S
C1613 H1599 0.931 . S
C1613 C1612 1.385 1_545 S
C1613 C1614 1.389 . S
C1614 C1613 1.389 . S
C1614 C1615 1.387 . S
C1615 H1600 0.930 . S
C1615 C1610 1.390 1_545 S
C1615 C1614 1.387 . S
C333 C6 1.540 . S
C345 C186 1.596 . S
C360 C26 1.561 . S
C372 C166 1.574 . S
C387 C226 1.603 . S
C399 C46 1.550 . S
C414 C66 1.537 . S
C426 C206 1.600 . S
C441 C276 1.532 . S
C453 C96 1.597 . S
C468 C256 1.533 . S
C480 C116 1.595 . S
C495 C316 1.538 . S
C507 C136 1.589 . S
C522 C156 1.539 . S
C534 C296 1.587 . S
C549 C49 1.552 . S
C561 C9 1.541 . S
C576 C69 1.546 . S
C588 C29 1.549 . S
C603 C121 1.540 . S
C615 C81 1.554 . S
C630 C101 1.543 . S
C642 C141 1.530 . S
C657 C209 1.554 . S
C669 C169 1.537 . S
C684 C229 1.533 . S
C696 C189 1.540 . S
C711 C241 1.548 . S
C723 C281 1.532 . S
C738 C261 1.541 . S
C750 C301 1.530 . S
C765 C109 1.591 . S
C777 C1 1.594 . S
C792 C89 1.591 . S
C804 C21 1.594 . S
C819 C41 1.580 . S
C831 C149 1.588 . S
C846 C129 1.589 . S
C858 C61 1.593 . S
C873 C161 1.579 . S
C885 C269 1.586 . S
C900 C249 1.589 . S
C912 C181 1.593 . S
C927 C201 1.580 . S
C939 C309 1.587 . S
C954 C289 1.592 . S
C966 C221 1.595 . S
C981 C36 1.602 1_545 S
C993 C16 1.555 . S
C1008 C76 1.597 1_565 S
C1020 C56 1.561 . S
C1035 C106 1.539 . S
C1047 C86 1.592 1_545 S
C1062 C126 1.569 . S
C1074 C146 1.584 1_545 S
C1089 C196 1.523 . S
C1101 C176 1.617 . S
C1116 C236 1.590 . S
C1128 C216 1.569 . S
C1143 C246 1.542 . S
C1155 C266 1.588 . S
C1170 C286 1.524 . S
C1182 C306 1.610 . S
C1197 C8 1.959 . S
C1209 C19 1.878 . S
C1224 C28 1.941 . S
C1236 C39 1.914 . S
C1251 C48 1.925 . S
C1263 C59 1.904 . S
C1278 C79 1.962 . S
C1290 C68 1.888 . S
C1305 C99 1.961 . S
C1317 C88 1.888 . S
C1332 C108 1.902 . S
C1344 C119 1.927 . S
C1359 C139 1.888 . S
C1371 C128 1.942 . S
C1386 C159 1.886 . S
C1398 C148 1.946 . S
C1413 C179 1.949 . S
C1425 C168 1.905 . S
C1440 C188 1.940 . S
C1452 C199 1.916 . S
C1467 C219 1.879 . S
C1479 C208 1.956 . S
C1494 C239 1.879 . S
C1506 C228 1.956 . S
C1521 C259 1.964 . S
C1533 C248 1.882 . S
C1548 C279 1.877 . S
C1560 C268 1.958 . S
C1575 C288 1.904 . S
C1587 C299 1.925 . S
C1602 C319 1.962 . S
C1614 C308 1.886 . S
